0:0
     RDKit          3D

 60 62  0  0  0  0  0  0  0  0999 V2000
   -5.5830   18.1390  -32.0200 C   0  0  0  0  0  0  0  0  0  0  0  0
   -4.9180   19.2320  -32.8640 C   0  0  0  0  0  0  0  0  0  0  0  0
   -5.8130   19.6230  -34.0450 C   0  0  0  0  0  0  0  0  0  0  0  0
   -4.5520   20.6720  -31.8580 S   0  0  0  0  0  0  0  0  0  0  0  0
   -3.9890   20.2110  -30.5430 O   0  0  0  0  0  0  0  0  0  0  0  0
   -3.5240   21.5210  -32.5450 O   0  0  0  0  0  0  0  0  0  0  0  0
   -6.0200   21.6350  -31.6320 C   0  0  0  0  0  0  0  0  0  0  0  0
   -7.2290   20.9530  -31.4280 C   0  0  0  0  0  0  0  0  0  0  0  0
   -8.4110   21.6690  -31.2440 C   0  0  0  0  0  0  0  0  0  0  0  0
   -8.3940   23.0250  -31.2680 N   0  0  0  0  0  0  0  0  0  0  0  0
   -7.2480   23.7200  -31.4870 C   0  0  0  0  0  0  0  0  0  0  0  0
   -6.0320   23.0440  -31.6880 C   0  0  0  0  0  0  0  0  0  0  0  0
   -4.8110   23.7760  -31.8700 N   0  0  0  0  0  0  0  0  0  0  0  0
   -3.8750   24.0930  -30.8360 C   0  0  0  0  0  0  0  0  0  0  0  0
   -3.8750   25.2520  -30.3470 O   0  0  0  0  0  0  0  0  0  0  0  0
   -3.0170   23.0790  -30.2910 N   0  0  0  0  0  0  0  0  0  0  0  0
   -1.9010   23.3750  -29.4390 C   0  0  0  0  0  0  0  0  0  0  0  0
   -1.6910   24.6720  -28.9480 C   0  0  0  0  0  0  0  0  0  0  0  0
   -0.5910   24.9400  -28.1380 C   0  0  0  0  0  0  0  0  0  0  0  0
    0.2950   23.9080  -27.8250 C   0  0  0  0  0  0  0  0  0  0  0  0
    0.0810   22.6570  -28.3080 N   0  0  0  0  0  0  0  0  0  0  0  0
   -0.9820   22.3670  -29.1120 C   0  0  0  0  0  0  0  0  0  0  0  0
   -1.2090   21.0610  -29.5640 O   0  0  0  0  0  0  0  0  0  0  0  0
   -0.5290   19.9180  -29.1280 C   0  0  0  0  0  0  0  0  0  0  0  0
    0.4580   19.3400  -29.9460 C   0  0  0  0  0  0  0  0  0  0  0  0
    1.1230   18.1850  -29.5500 C   0  0  0  0  0  0  0  0  0  0  0  0
    0.8070   17.5840  -28.3410 C   0  0  0  0  0  0  0  0  0  0  0  0
   -0.1750   18.1350  -27.5190 C   0  0  0  0  0  0  0  0  0  0  0  0
   -0.8720   19.3140  -27.8840 C   0  0  0  0  0  0  0  0  0  0  0  0
   -1.9500   19.9400  -26.9580 C   0  0  0  0  0  0  0  0  0  0  0  0
   -2.5760   18.9090  -25.9840 C   0  0  0  0  0  0  0  0  0  0  0  0
   -1.3220   21.0570  -26.0890 C   0  0  0  0  0  0  0  0  0  0  0  0
   -3.1040   20.5210  -27.8060 C   0  0  0  0  0  0  0  0  0  0  0  0
   -5.4453   18.3654  -30.9524 H   0  0  0  0  0  0  0  0  0  0  0  0
   -6.6578   18.1004  -32.2509 H   0  0  0  0  0  0  0  0  0  0  0  0
   -5.1232   17.1668  -32.2509 H   0  0  0  0  0  0  0  0  0  0  0  0
   -3.9728   18.8319  -33.2596 H   0  0  0  0  0  0  0  0  0  0  0  0
   -6.7595   20.0365  -33.6666 H   0  0  0  0  0  0  0  0  0  0  0  0
   -5.3014   20.3796  -34.6580 H   0  0  0  0  0  0  0  0  0  0  0  0
   -6.0205   18.7335  -34.6580 H   0  0  0  0  0  0  0  0  0  0  0  0
   -7.2443   19.8532  -31.4132 H   0  0  0  0  0  0  0  0  0  0  0  0
   -9.3579   21.1339  -31.0793 H   0  0  0  0  0  0  0  0  0  0  0  0
   -7.2715   24.8196  -31.5072 H   0  0  0  0  0  0  0  0  0  0  0  0
   -3.2860   22.0800  -30.4260 H   0  0  0  0  0  0  0  0  0  0  0  0
   -2.3955   25.4774  -29.2030 H   0  0  0  0  0  0  0  0  0  0  0  0
   -0.4218   25.9548  -27.7486 H   0  0  0  0  0  0  0  0  0  0  0  0
    1.1678   24.1083  -27.1862 H   0  0  0  0  0  0  0  0  0  0  0  0
    0.7068   19.8071  -30.9103 H   0  0  0  0  0  0  0  0  0  0  0  0
    1.8993   17.7482  -30.1954 H   0  0  0  0  0  0  0  0  0  0  0  0
    1.3329   16.6695  -28.0295 H   0  0  0  0  0  0  0  0  0  0  0  0
   -0.4145   17.6432  -26.5647 H   0  0  0  0  0  0  0  0  0  0  0  0
   -2.3859   19.2221  -24.9468 H   0  0  0  0  0  0  0  0  0  0  0  0
   -3.6608   18.8528  -26.1571 H   0  0  0  0  0  0  0  0  0  0  0  0
   -2.1254   17.9206  -26.1571 H   0  0  0  0  0  0  0  0  0  0  0  0
   -1.4585   20.8141  -25.0249 H   0  0  0  0  0  0  0  0  0  0  0  0
   -0.2478   21.1351  -26.3124 H   0  0  0  0  0  0  0  0  0  0  0  0
   -1.8135   22.0154  -26.3124 H   0  0  0  0  0  0  0  0  0  0  0  0
   -3.8861   20.9147  -27.1402 H   0  0  0  0  0  0  0  0  0  0  0  0
   -2.7198   21.3331  -28.4407 H   0  0  0  0  0  0  0  0  0  0  0  0
   -3.5275   19.7287  -28.4407 H   0  0  0  0  0  0  0  0  0  0  0  0
  1  2  1  0
  2  3  1  0
  2  4  1  0
  4  5  2  0
  4  6  2  0
  4  7  1  0
  7  8  2  0
  8  9  1  0
  9 10  2  0
 10 11  1  0
 11 12  2  0
 12 13  1  0
 13 14  1  0
 14 15  2  0
 14 16  1  0
 16 17  1  0
 17 18  2  0
 18 19  1  0
 19 20  2  0
 20 21  1  0
 21 22  2  0
 22 23  1  0
 23 24  1  0
 24 25  2  0
 25 26  1  0
 26 27  2  0
 27 28  1  0
 28 29  2  0
 29 30  1  0
 30 31  1  0
 30 32  1  0
 30 33  1  0
 12  7  1  0
 22 17  1  0
 29 24  1  0
  1 34  1  0
  1 35  1  0
  1 36  1  0
  2 37  1  0
  3 38  1  0
  3 39  1  0
  3 40  1  0
  8 41  1  0
  9 42  1  0
 11 43  1  0
 16 44  1  0
 18 45  1  0
 19 46  1  0
 20 47  1  0
 25 48  1  0
 26 49  1  0
 27 50  1  0
 28 51  1  0
 31 52  1  0
 31 53  1  0
 31 54  1  0
 32 55  1  0
 32 56  1  0
 32 57  1  0
 33 58  1  0
 33 59  1  0
 33 60  1  0
M  CHG  1  13  -1
M  END
>  <UniqueID>  (1) 
1

>  <SMILES>  (1) 
CC(C)S(=O)(=O)c1ccncc1[N-]C(=O)Nc1cccnc1Oc1ccccc1C(C)(C)C

>  <Energy>  (1) 
74.09025257268202

>  <Genealogy>  (1) 
CC(C)S(=O)(=O)c1ccncc1[N-]C(=O)Nc1cccnc1Oc1ccccc1C(C)(C)C (protonated)
CC(C)S(=O)(=O)c1ccncc1[N-]C(=O)Nc1cccnc1Oc1ccccc1C(C)(C)C (3D coordinates assigned)
CC(C)S(=O)(=O)c1ccncc1[N-]C(=O)Nc1cccnc1Oc1ccccc1C(C)(C)C (optimized conformer: 74.09025257268202 kcal/mol)

>  <smiles>  (1) 
CC(C)S(=O)(=O)c1ccncc1NC(=O)Nc1cccnc1Oc1ccccc1C(C)(C)C

>  <score_type>  (1) 
oracle

>  <origin>  (1) 
adgpu

>  <m_score__min__energy>  (1) 
-11.359999999999999

>  <m_primary>  (1) 
energy

$$$$
1:0
     RDKit          3D

 37 39  0  0  0  0  0  0  0  0999 V2000
   -1.5390   25.6620  -29.7530 H   0  0  0  0  0  0  0  0  0  0  0  0
   -2.2400   25.0510  -29.2750 N   0  0  0  0  0  0  0  0  0  0  0  0
   -3.4370   24.9180  -29.7450 C   0  0  0  0  0  0  0  0  0  0  0  0
   -3.8700   25.5360  -30.8600 N   0  0  0  0  0  0  0  0  0  0  0  0
   -5.1270   25.1590  -31.0210 N   0  0  0  0  0  0  0  0  0  0  0  0
   -5.4170   24.3320  -29.9970 C   0  0  0  0  0  0  0  0  0  0  0  0
   -6.7430   23.6610  -29.8290 C   0  0  0  0  0  0  0  0  0  0  0  0
   -6.7531   23.1106  -28.8766 H   0  0  0  0  0  0  0  0  0  0  0  0
   -7.5337   24.4258  -29.8308 H   0  0  0  0  0  0  0  0  0  0  0  0
   -6.9890   22.7010  -30.9590 C   0  0  0  0  0  0  0  0  0  0  0  0
   -7.9950   21.9460  -30.9120 O   0  0  0  0  0  0  0  0  0  0  0  0
   -6.1500   22.6660  -32.1220 N   0  0  0  0  0  0  0  0  0  0  0  0
   -5.2990   21.5700  -32.4730 C   0  0  0  0  0  0  0  0  0  0  0  0
   -3.9070   21.6150  -32.2590 C   0  0  0  0  0  0  0  0  0  0  0  0
   -3.2950   22.7130  -31.6550 O   0  0  0  0  0  0  0  0  0  0  0  0
   -3.8220   23.4310  -31.1750 H   0  0  0  0  0  0  0  0  0  0  0  0
   -3.1360   20.5600  -32.6360 N   0  0  0  0  0  0  0  0  0  0  0  0
   -3.6660   19.4460  -33.2060 C   0  0  0  0  0  0  0  0  0  0  0  0
   -3.0084   18.6166  -33.5053 H   0  0  0  0  0  0  0  0  0  0  0  0
   -5.0470   19.3520  -33.4130 C   0  0  0  0  0  0  0  0  0  0  0  0
   -5.7610   17.9250  -34.1550 S   0  0  0  0  0  0  0  0  0  0  0  0
   -5.7330   18.0370  -35.6540 O   0  0  0  0  0  0  0  0  0  0  0  0
   -7.1940   17.8120  -33.7160 O   0  0  0  0  0  0  0  0  0  0  0  0
   -4.8460   16.5010  -33.6670 C   0  0  0  0  0  0  0  0  0  0  0  0
   -3.9520   15.8920  -34.5620 C   0  0  0  0  0  0  0  0  0  0  0  0
   -3.8131   16.3118  -35.5692 H   0  0  0  0  0  0  0  0  0  0  0  0
   -3.2380   14.7540  -34.1770 C   0  0  0  0  0  0  0  0  0  0  0  0
   -2.5361   14.2823  -34.8804 H   0  0  0  0  0  0  0  0  0  0  0  0
   -3.4140   14.2140  -32.9000 C   0  0  0  0  0  0  0  0  0  0  0  0
   -2.8501   13.3189  -32.5985 H   0  0  0  0  0  0  0  0  0  0  0  0
   -4.3070   14.8120  -32.0060 C   0  0  0  0  0  0  0  0  0  0  0  0
   -4.4455   14.3864  -31.0012 H   0  0  0  0  0  0  0  0  0  0  0  0
   -5.0250   15.9510  -32.3870 C   0  0  0  0  0  0  0  0  0  0  0  0
   -5.8970   16.5120  -31.5120 F   0  0  0  0  0  0  0  0  0  0  0  0
   -5.8630   20.4170  -33.0260 C   0  0  0  0  0  0  0  0  0  0  0  0
   -6.9530   20.3483  -33.1568 H   0  0  0  0  0  0  0  0  0  0  0  0
   -4.3720   24.1450  -29.1640 N   0  0  0  0  0  0  0  0  0  0  0  0
  1  2  1  0
  2  3  2  0
  3  4  1  0
  4  5  1  0
  5  6  2  0
  6  7  1  0
  7  8  1  0
  7  9  1  0
  7 10  1  0
 10 11  2  0
 10 12  1  0
 12 13  1  0
 13 14  2  0
 14 15  1  0
 15 16  1  0
 14 17  1  0
 17 18  2  0
 18 19  1  0
 18 20  1  0
 20 21  1  0
 21 22  2  0
 21 23  2  0
 21 24  1  0
 24 25  2  0
 25 26  1  0
 25 27  1  0
 27 28  1  0
 27 29  2  0
 29 30  1  0
 29 31  1  0
 31 32  1  0
 31 33  2  0
 33 34  1  0
 20 35  2  0
 35 36  1  0
  6 37  1  0
 37  3  1  0
 35 13  1  0
 33 24  1  0
M  CHG  3   4  -1  12  -1  37  -1
M  END
>  <UniqueID>  (2) 
2

>  <SMILES>  (2) 
[H]/N=c1\[n-]nc(CC(=O)[N-]c2cc(S(=O)(=O)c3ccccc3F)cnc2O)[n-]1

>  <Energy>  (2) 
79.13077171036339

>  <Genealogy>  (2) 
N=c1[n-]nc(CC(=O)[N-]c2cc(S(=O)(=O)c3ccccc3F)cnc2O)[n-]1 (protonated)
[H]/N=c1\[n-]nc(CC(=O)[N-]c2cc(S(=O)(=O)c3ccccc3F)cnc2O)[n-]1 (cis-trans isomerization)
[H]/N=c1\[n-]nc(CC(=O)[N-]c2cc(S(=O)(=O)c3ccccc3F)cnc2O)[n-]1 (3D coordinates assigned)
[H]/N=c1\[n-]nc(CC(=O)[N-]c2cc(S(=O)(=O)c3ccccc3F)cnc2O)[n-]1 (optimized conformer: 79.13077171036339 kcal/mol)

>  <smiles>  (2) 
N=c1[nH]nc(CC(=O)Nc2cc(S(=O)(=O)c3ccccc3F)cnc2O)[nH]1

>  <score_type>  (2) 
oracle

>  <origin>  (2) 
adgpu

>  <m_score__min__energy>  (2) 
-13.1

>  <m_primary>  (2) 
energy

$$$$
2:0
     RDKit          3D

 35 37  0  0  0  0  0  0  0  0999 V2000
   -4.7570   19.8970  -33.1360 C   0  0  0  0  0  0  0  0  0  0  0  0
   -5.7160   20.9400  -33.2590 O   0  0  0  0  0  0  0  0  0  0  0  0
   -6.2060   21.7080  -32.1890 C   0  0  0  0  0  0  0  0  0  0  0  0
   -5.5190   22.8510  -31.7310 C   0  0  0  0  0  0  0  0  0  0  0  0
   -6.0460   23.6320  -30.6960 C   0  0  0  0  0  0  0  0  0  0  0  0
   -5.1830   25.0750  -30.1640 S   0  0  0  0  0  0  0  0  0  0  0  0
   -5.3900   25.2430  -28.6850 O   0  0  0  0  0  0  0  0  0  0  0  0
   -5.7290   26.2920  -30.8580 O   0  0  0  0  0  0  0  0  0  0  0  0
   -3.4760   24.9380  -30.4830 N   0  0  0  0  0  0  0  0  0  0  0  0
   -2.8040   24.1170  -29.4730 C   0  0  0  0  0  0  0  0  0  0  0  0
   -1.9840   24.9630  -28.5490 C   0  0  0  0  0  0  0  0  0  0  0  0
   -1.7410   24.6990  -27.2160 C   0  0  0  0  0  0  0  0  0  0  0  0
   -0.9610   25.7450  -26.7700 C   0  0  0  0  0  0  0  0  0  0  0  0
   -0.7780   26.5770  -27.8570 C   0  0  0  0  0  0  0  0  0  0  0  0
   -1.4000   26.0830  -28.9020 O   0  0  0  0  0  0  0  0  0  0  0  0
   -7.2690   23.2830  -30.1190 C   0  0  0  0  0  0  0  0  0  0  0  0
   -7.9550   22.1500  -30.5580 C   0  0  0  0  0  0  0  0  0  0  0  0
   -7.4260   21.3430  -31.5780 C   0  0  0  0  0  0  0  0  0  0  0  0
   -8.1560   20.1740  -31.9960 N   0  0  0  0  0  0  0  0  0  0  0  0
   -7.8570   18.8770  -31.7990 C   0  0  0  0  0  0  0  0  0  0  0  0
   -8.8400   18.1050  -32.2990 N   0  0  0  0  0  0  0  0  0  0  0  0
   -9.7340   18.9500  -32.7910 N   0  0  0  0  0  0  0  0  0  0  0  0
   -9.3290   20.1960  -32.6030 N   0  0  0  0  0  0  0  0  0  0  0  0
   -4.5705   19.6941  -32.0711 H   0  0  0  0  0  0  0  0  0  0  0  0
   -5.1405   18.9872  -33.6209 H   0  0  0  0  0  0  0  0  0  0  0  0
   -3.8182   20.2030  -33.6209 H   0  0  0  0  0  0  0  0  0  0  0  0
   -4.5601   23.1314  -32.1913 H   0  0  0  0  0  0  0  0  0  0  0  0
   -3.5619   23.5762  -28.8873 H   0  0  0  0  0  0  0  0  0  0  0  0
   -2.1349   23.4104  -29.9859 H   0  0  0  0  0  0  0  0  0  0  0  0
   -2.0949   23.8362  -26.6326 H   0  0  0  0  0  0  0  0  0  0  0  0
   -0.5647   25.8879  -25.7539 H   0  0  0  0  0  0  0  0  0  0  0  0
   -0.1987   27.5121  -27.8484 H   0  0  0  0  0  0  0  0  0  0  0  0
   -7.6929   23.9034  -29.3157 H   0  0  0  0  0  0  0  0  0  0  0  0
   -8.9199   21.8864  -30.1004 H   0  0  0  0  0  0  0  0  0  0  0  0
   -6.9478   18.5042  -31.3047 H   0  0  0  0  0  0  0  0  0  0  0  0
  1  2  1  0
  2  3  1  0
  3  4  2  0
  4  5  1  0
  5  6  1  0
  6  7  2  0
  6  8  2  0
  6  9  1  0
  9 10  1  0
 10 11  1  0
 11 12  2  0
 12 13  1  0
 13 14  2  0
 14 15  1  0
  5 16  2  0
 16 17  1  0
 17 18  2  0
 18 19  1  0
 19 20  1  0
 20 21  2  0
 21 22  1  0
 22 23  2  0
 18  3  1  0
 23 19  1  0
 15 11  1  0
  1 24  1  0
  1 25  1  0
  1 26  1  0
  4 27  1  0
 10 28  1  0
 10 29  1  0
 12 30  1  0
 13 31  1  0
 14 32  1  0
 16 33  1  0
 17 34  1  0
 20 35  1  0
M  CHG  1   9  -1
M  END
>  <UniqueID>  (3) 
3

>  <SMILES>  (3) 
COc1cc(S(=O)(=O)[N-]Cc2ccco2)ccc1-n1cnnn1

>  <Energy>  (3) 
104.7772352781552

>  <Genealogy>  (3) 
COc1cc(S(=O)(=O)[N-]Cc2ccco2)ccc1-n1cnnn1 (protonated)
COc1cc(S(=O)(=O)[N-]Cc2ccco2)ccc1-n1cnnn1 (3D coordinates assigned)
COc1cc(S(=O)(=O)[N-]Cc2ccco2)ccc1-n1cnnn1 (optimized conformer: 104.7772352781552 kcal/mol)

>  <smiles>  (3) 
COc1cc(S(=O)(=O)NCc2ccco2)ccc1-n1cnnn1

>  <score_type>  (3) 
oracle

>  <origin>  (3) 
adgpu

>  <m_score__min__energy>  (3) 
-10.06

>  <m_primary>  (3) 
energy

$$$$
3:0
     RDKit          3D

 43 45  0  0  0  0  0  0  0  0999 V2000
   -1.2880   19.7520  -31.6480 C   0  0  0  0  0  0  0  0  0  0  0  0
   -1.7800   21.0720  -32.2160 C   0  0  0  0  0  0  0  0  0  0  0  0
   -2.8350   20.8280  -33.1430 O   0  0  0  0  0  0  0  0  0  0  0  0
   -4.1960   20.7730  -32.8040 C   0  0  0  0  0  0  0  0  0  0  0  0
   -4.9970   19.6470  -33.1170 C   0  0  0  0  0  0  0  0  0  0  0  0
   -6.3410   19.6770  -32.7500 C   0  0  0  0  0  0  0  0  0  0  0  0
   -6.8870   20.7480  -32.0960 C   0  0  0  0  0  0  0  0  0  0  0  0
   -6.1330   21.8710  -31.7630 C   0  0  0  0  0  0  0  0  0  0  0  0
   -4.7650   21.8850  -32.1280 C   0  0  0  0  0  0  0  0  0  0  0  0
   -3.9220   23.0050  -31.8260 N   0  0  0  0  0  0  0  0  0  0  0  0
   -3.8580   23.8320  -30.3030 S   0  0  0  0  0  0  0  0  0  0  0  0
   -3.8200   25.3140  -30.5480 O   0  0  0  0  0  0  0  0  0  0  0  0
   -5.0670   23.4720  -29.4870 O   0  0  0  0  0  0  0  0  0  0  0  0
   -2.4070   23.3560  -29.4190 C   0  0  0  0  0  0  0  0  0  0  0  0
   -2.1860   22.0080  -29.0960 C   0  0  0  0  0  0  0  0  0  0  0  0
   -1.0370   21.6310  -28.3940 C   0  0  0  0  0  0  0  0  0  0  0  0
   -0.1040   22.5960  -28.0070 C   0  0  0  0  0  0  0  0  0  0  0  0
    1.0370   22.2180  -27.3100 O   0  0  0  0  0  0  0  0  0  0  0  0
   -0.3190   23.9410  -28.3200 C   0  0  0  0  0  0  0  0  0  0  0  0
   -1.4670   24.3250  -29.0230 C   0  0  0  0  0  0  0  0  0  0  0  0
   -1.6650   25.6680  -29.3210 O   0  0  0  0  0  0  0  0  0  0  0  0
   -8.1840   20.4940  -31.8300 N   0  0  0  0  0  0  0  0  0  0  0  0
   -9.1190   21.3200  -31.0690 C   0  0  0  0  0  0  0  0  0  0  0  0
   -8.3850   19.2450  -32.3160 C   0  0  0  0  0  0  0  0  0  0  0  0
   -9.4770   18.6240  -32.2120 O   0  0  0  0  0  0  0  0  0  0  0  0
   -7.2810   18.7240  -32.9090 N   0  0  0  0  0  0  0  0  0  0  0  0
   -7.1130   17.3830  -33.4630 C   0  0  0  0  0  0  0  0  0  0  0  0
   -1.3047   19.7968  -30.5490 H   0  0  0  0  0  0  0  0  0  0  0  0
   -1.9431   18.9380  -31.9918 H   0  0  0  0  0  0  0  0  0  0  0  0
   -0.2599   19.5653  -31.9918 H   0  0  0  0  0  0  0  0  0  0  0  0
   -2.1505   21.7075  -31.3981 H   0  0  0  0  0  0  0  0  0  0  0  0
   -0.9513   21.5810  -32.7301 H   0  0  0  0  0  0  0  0  0  0  0  0
   -4.5706   18.7749  -33.6344 H   0  0  0  0  0  0  0  0  0  0  0  0
   -6.5867   22.7212  -31.2325 H   0  0  0  0  0  0  0  0  0  0  0  0
   -2.9195   21.2453  -29.3963 H   0  0  0  0  0  0  0  0  0  0  0  0
   -0.8675   20.5728  -28.1461 H   0  0  0  0  0  0  0  0  0  0  0  0
    0.4158   24.6999  -28.0131 H   0  0  0  0  0  0  0  0  0  0  0  0
   -8.9489   21.1697  -29.9927 H   0  0  0  0  0  0  0  0  0  0  0  0
   -8.9613   22.3791  -31.3208 H   0  0  0  0  0  0  0  0  0  0  0  0
  -10.1506   21.0329  -31.3208 H   0  0  0  0  0  0  0  0  0  0  0  0
   -7.0219   16.6561  -32.6425 H   0  0  0  0  0  0  0  0  0  0  0  0
   -7.9865   17.1299  -34.0819 H   0  0  0  0  0  0  0  0  0  0  0  0
   -6.2041   17.3532  -34.0819 H   0  0  0  0  0  0  0  0  0  0  0  0
  1  2  1  0
  2  3  1  0
  3  4  1  0
  4  5  2  0
  5  6  1  0
  6  7  2  0
  7  8  1  0
  8  9  2  0
  9 10  1  0
 10 11  1  0
 11 12  2  0
 11 13  2  0
 11 14  1  0
 14 15  2  0
 15 16  1  0
 16 17  2  0
 17 18  1  0
 17 19  1  0
 19 20  2  0
 20 21  1  0
  7 22  1  0
 22 23  1  0
 22 24  1  0
 24 25  2  0
 24 26  1  0
 26 27  1  0
  9  4  1  0
 20 14  1  0
 26  6  1  0
  1 28  1  0
  1 29  1  0
  1 30  1  0
  2 31  1  0
  2 32  1  0
  5 33  1  0
  8 34  1  0
 15 35  1  0
 16 36  1  0
 19 37  1  0
 23 38  1  0
 23 39  1  0
 23 40  1  0
 27 41  1  0
 27 42  1  0
 27 43  1  0
M  CHG  3  10  -1  18  -1  21  -1
M  END
>  <UniqueID>  (4) 
4

>  <SMILES>  (4) 
CCOc1cc2c(cc1[N-]S(=O)(=O)c1ccc([O-])cc1[O-])n(C)c(=O)n2C

>  <Energy>  (4) 
86.95238256398308

>  <Genealogy>  (4) 
CCOc1cc2c(cc1[N-]S(=O)(=O)c1ccc([O-])cc1[O-])n(C)c(=O)n2C (protonated)
CCOc1cc2c(cc1[N-]S(=O)(=O)c1ccc([O-])cc1[O-])n(C)c(=O)n2C (3D coordinates assigned)
CCOc1cc2c(cc1[N-]S(=O)(=O)c1ccc([O-])cc1[O-])n(C)c(=O)n2C (optimized conformer: 86.95238256398308 kcal/mol)

>  <smiles>  (4) 
CCOc1cc2c(cc1NS(=O)(=O)c1ccc(O)cc1O)n(C)c(=O)n2C

>  <score_type>  (4) 
oracle

>  <origin>  (4) 
adgpu

>  <m_score__min__energy>  (4) 
-12.609999999999999

>  <m_primary>  (4) 
energy

$$$$
4:0
     RDKit          3D

 62 65  0  0  0  0  0  0  0  0999 V2000
   -2.1350   15.5930  -34.7060 C   0  0  0  0  0  0  0  0  0  0  0  0
   -3.0930   16.3910  -33.9330 N   0  0  0  0  0  0  0  0  0  0  0  0
   -2.6910   17.6700  -33.3530 C   0  0  0  0  0  0  0  0  0  0  0  0
   -3.8240   18.6530  -33.3870 C   0  0  0  0  0  0  0  0  0  0  0  0
   -3.5330   20.0220  -33.4920 C   0  0  0  0  0  0  0  0  0  0  0  0
   -4.5500   20.9770  -33.4080 C   0  0  0  0  0  0  0  0  0  0  0  0
   -4.2540   22.3330  -33.5340 O   0  0  0  0  0  0  0  0  0  0  0  0
   -5.8640   20.5700  -33.1730 C   0  0  0  0  0  0  0  0  0  0  0  0
   -6.9010   21.5480  -33.0820 N   0  0  0  0  0  0  0  0  0  0  0  0
   -7.2360   22.4270  -31.6290 S   0  0  0  0  0  0  0  0  0  0  0  0
   -8.3300   23.4190  -31.8990 O   0  0  0  0  0  0  0  0  0  0  0  0
   -7.7130   21.4690  -30.5790 O   0  0  0  0  0  0  0  0  0  0  0  0
   -5.8090   23.2660  -31.0240 C   0  0  0  0  0  0  0  0  0  0  0  0
   -5.7860   24.6660  -30.9750 C   0  0  0  0  0  0  0  0  0  0  0  0
   -4.6640   25.3310  -30.4760 C   0  0  0  0  0  0  0  0  0  0  0  0
   -3.5550   24.6080  -30.0280 C   0  0  0  0  0  0  0  0  0  0  0  0
   -2.4540   25.2980  -29.5360 O   0  0  0  0  0  0  0  0  0  0  0  0
   -3.5630   23.2010  -30.0860 C   0  0  0  0  0  0  0  0  0  0  0  0
   -2.1730   22.2480  -29.5510 S   0  0  0  0  0  0  0  0  0  0  0  0
   -0.9750   23.1340  -29.3530 O   0  0  0  0  0  0  0  0  0  0  0  0
   -2.5120   21.6150  -28.2300 O   0  0  0  0  0  0  0  0  0  0  0  0
   -1.8150   21.0020  -30.7250 N   0  0  0  0  0  0  0  0  0  0  0  0
   -1.1170   21.5910  -31.8870 C   0  0  0  0  0  0  0  0  0  0  0  0
   -0.4710   20.5060  -32.7500 C   0  0  0  0  0  0  0  0  0  0  0  0
    0.6130   19.7520  -31.9610 C   0  0  0  0  0  0  0  0  0  0  0  0
    0.3900   19.8120  -30.4410 C   0  0  0  0  0  0  0  0  0  0  0  0
   -1.1060   19.8540  -30.1030 C   0  0  0  0  0  0  0  0  0  0  0  0
   -4.6920   22.5380  -30.5910 C   0  0  0  0  0  0  0  0  0  0  0  0
   -6.1660   19.2060  -33.0770 C   0  0  0  0  0  0  0  0  0  0  0  0
   -5.1610   18.2230  -33.2140 C   0  0  0  0  0  0  0  0  0  0  0  0
   -5.5050   16.7300  -33.0900 C   0  0  0  0  0  0  0  0  0  0  0  0
   -5.7280   16.3970  -31.6040 C   0  0  0  0  0  0  0  0  0  0  0  0
   -6.7830   16.3980  -33.9010 C   0  0  0  0  0  0  0  0  0  0  0  0
   -4.3820   15.8460  -33.6180 C   0  0  0  0  0  0  0  0  0  0  0  0
   -4.5790   14.6060  -33.7540 O   0  0  0  0  0  0  0  0  0  0  0  0
   -1.4757   15.0438  -34.0178 H   0  0  0  0  0  0  0  0  0  0  0  0
   -2.6803   14.8783  -35.3399 H   0  0  0  0  0  0  0  0  0  0  0  0
   -1.5307   16.2585  -35.3399 H   0  0  0  0  0  0  0  0  0  0  0  0
   -2.3832   17.5111  -32.3089 H   0  0  0  0  0  0  0  0  0  0  0  0
   -1.8556   18.0761  -33.9423 H   0  0  0  0  0  0  0  0  0  0  0  0
   -2.4929   20.3470  -33.6421 H   0  0  0  0  0  0  0  0  0  0  0  0
   -4.9770   23.0230  -33.7060 H   0  0  0  0  0  0  0  0  0  0  0  0
   -6.6531   25.2422  -31.3301 H   0  0  0  0  0  0  0  0  0  0  0  0
   -4.6530   26.4302  -30.4353 H   0  0  0  0  0  0  0  0  0  0  0  0
   -1.8425   22.1499  -32.4963 H   0  0  0  0  0  0  0  0  0  0  0  0
   -0.3259   22.2598  -31.5169 H   0  0  0  0  0  0  0  0  0  0  0  0
   -1.2445   19.7930  -33.0713 H   0  0  0  0  0  0  0  0  0  0  0  0
   -0.0028   20.9833  -33.6235 H   0  0  0  0  0  0  0  0  0  0  0  0
    0.6086   18.6981  -32.2760 H   0  0  0  0  0  0  0  0  0  0  0  0
    1.5772   20.2364  -32.1748 H   0  0  0  0  0  0  0  0  0  0  0  0
    0.8382   18.9212  -29.9768 H   0  0  0  0  0  0  0  0  0  0  0  0
    0.8611   20.7279  -30.0548 H   0  0  0  0  0  0  0  0  0  0  0  0
   -1.5708   18.9223  -30.4579 H   0  0  0  0  0  0  0  0  0  0  0  0
   -1.1914   19.9693  -29.0124 H   0  0  0  0  0  0  0  0  0  0  0  0
   -4.7006   21.4395  -30.6475 H   0  0  0  0  0  0  0  0  0  0  0  0
   -7.2045   18.8945  -32.8916 H   0  0  0  0  0  0  0  0  0  0  0  0
   -5.2240   17.1497  -30.9799 H   0  0  0  0  0  0  0  0  0  0  0  0
   -6.8060   16.4014  -31.3850 H   0  0  0  0  0  0  0  0  0  0  0  0
   -5.3134   15.4019  -31.3850 H   0  0  0  0  0  0  0  0  0  0  0  0
   -7.6107   16.1830  -33.2092 H   0  0  0  0  0  0  0  0  0  0  0  0
   -7.0486   17.2570  -34.5348 H   0  0  0  0  0  0  0  0  0  0  0  0
   -6.5969   15.5184  -34.5348 H   0  0  0  0  0  0  0  0  0  0  0  0
  1  2  1  0
  2  3  1  0
  3  4  1  0
  4  5  2  0
  5  6  1  0
  6  7  1  0
  6  8  2  0
  8  9  1  0
  9 10  1  0
 10 11  2  0
 10 12  2  0
 10 13  1  0
 13 14  2  0
 14 15  1  0
 15 16  2  0
 16 17  1  0
 16 18  1  0
 18 19  1  0
 19 20  2  0
 19 21  2  0
 19 22  1  0
 22 23  1  0
 23 24  1  0
 24 25  1  0
 25 26  1  0
 26 27  1  0
 18 28  2  0
  8 29  1  0
 29 30  2  0
 30 31  1  0
 31 32  1  0
 31 33  1  0
 31 34  1  0
 34 35  2  0
 34  2  1  0
 30  4  1  0
 28 13  1  0
 27 22  1  0
  1 36  1  0
  1 37  1  0
  1 38  1  0
  3 39  1  0
  3 40  1  0
  5 41  1  0
  7 42  1  0
 14 43  1  0
 15 44  1  0
 23 45  1  0
 23 46  1  0
 24 47  1  0
 24 48  1  0
 25 49  1  0
 25 50  1  0
 26 51  1  0
 26 52  1  0
 27 53  1  0
 27 54  1  0
 28 55  1  0
 29 56  1  0
 32 57  1  0
 32 58  1  0
 32 59  1  0
 33 60  1  0
 33 61  1  0
 33 62  1  0
M  CHG  2   9  -1  17  -1
M  END
>  <UniqueID>  (5) 
5

>  <SMILES>  (5) 
CN1Cc2cc(O)c([N-]S(=O)(=O)c3ccc([O-])c(S(=O)(=O)N4CCCCC4)c3)cc2C(C)(C)C1=O

>  <Energy>  (5) 
77.65436169188119

>  <Genealogy>  (5) 
CN1Cc2cc(O)c([N-]S(=O)(=O)c3ccc([O-])c(S(=O)(=O)N4CCCCC4)c3)cc2C(C)(C)C1=O (protonated)
CN1Cc2cc(O)c([N-]S(=O)(=O)c3ccc([O-])c(S(=O)(=O)N4CCCCC4)c3)cc2C(C)(C)C1=O (3D coordinates assigned)
CN1Cc2cc(O)c([N-]S(=O)(=O)c3ccc([O-])c(S(=O)(=O)N4CCCCC4)c3)cc2C(C)(C)C1=O (nonaromatic ring conformer: 77.65436169188119 kcal/mol)

>  <smiles>  (5) 
CN1Cc2cc(O)c(NS(=O)(=O)c3ccc(O)c(S(=O)(=O)N4CCCCC4)c3)cc2C(C)(C)C1=O

>  <score_type>  (5) 
oracle

>  <origin>  (5) 
adgpu

>  <m_score__min__energy>  (5) 
-13.15

>  <m_primary>  (5) 
energy

$$$$
5:0
     RDKit          3D

 32 34  0  0  0  0  0  0  0  0999 V2000
   -2.9180   25.2980  -29.7090 O   0  0  0  0  0  0  0  0  0  0  0  0
   -4.0960   24.7280  -30.1770 C   0  0  0  0  0  0  0  0  0  0  0  0
   -5.3080   25.4120  -30.0330 C   0  0  0  0  0  0  0  0  0  0  0  0
   -6.4940   24.8410  -30.5050 C   0  0  0  0  0  0  0  0  0  0  0  0
   -6.4750   23.5840  -31.1310 C   0  0  0  0  0  0  0  0  0  0  0  0
   -7.7560   22.9730  -31.6370 C   0  0  0  0  0  0  0  0  0  0  0  0
   -7.4960   22.0530  -32.6990 O   0  0  0  0  0  0  0  0  0  0  0  0
   -7.5490   20.6520  -32.5950 C   0  0  0  0  0  0  0  0  0  0  0  0
   -6.6230   19.8100  -33.2420 C   0  0  0  0  0  0  0  0  0  0  0  0
   -6.7190   18.4110  -33.1280 C   0  0  0  0  0  0  0  0  0  0  0  0
   -5.7520   17.5290  -33.8310 C   0  0  0  0  0  0  0  0  0  0  0  0
   -5.4690   16.2020  -33.5670 C   0  0  0  0  0  0  0  0  0  0  0  0
   -4.5360   15.7670  -34.4340 N   0  0  0  0  0  0  0  0  0  0  0  0
   -4.2150   16.7630  -35.2450 N   0  0  0  0  0  0  0  0  0  0  0  0
   -4.9380   17.8460  -34.9020 C   0  0  0  0  0  0  0  0  0  0  0  0
   -7.7460   17.8630  -32.3410 C   0  0  0  0  0  0  0  0  0  0  0  0
   -8.6590   18.6940  -31.6880 C   0  0  0  0  0  0  0  0  0  0  0  0
   -8.5620   20.0820  -31.8140 C   0  0  0  0  0  0  0  0  0  0  0  0
   -9.4810   20.8960  -31.1630 O   0  0  0  0  0  0  0  0  0  0  0  0
   -5.2560   22.8970  -31.2610 C   0  0  0  0  0  0  0  0  0  0  0  0
   -4.0710   23.4710  -30.7890 C   0  0  0  0  0  0  0  0  0  0  0  0
   -5.3279   26.3993  -29.5483 H   0  0  0  0  0  0  0  0  0  0  0  0
   -7.4461   25.3788  -30.3854 H   0  0  0  0  0  0  0  0  0  0  0  0
   -8.2517   22.4404  -30.8120 H   0  0  0  0  0  0  0  0  0  0  0  0
   -8.4029   23.7769  -32.0181 H   0  0  0  0  0  0  0  0  0  0  0  0
   -5.8151   20.2519  -33.8437 H   0  0  0  0  0  0  0  0  0  0  0  0
   -5.9329   15.5973  -32.7739 H   0  0  0  0  0  0  0  0  0  0  0  0
   -4.8886   18.8276  -35.3960 H   0  0  0  0  0  0  0  0  0  0  0  0
   -7.8315   16.7711  -32.2384 H   0  0  0  0  0  0  0  0  0  0  0  0
   -9.4573   18.2541  -31.0723 H   0  0  0  0  0  0  0  0  0  0  0  0
   -5.2337   21.9048  -31.7354 H   0  0  0  0  0  0  0  0  0  0  0  0
   -3.1180   22.9328  -30.8994 H   0  0  0  0  0  0  0  0  0  0  0  0
  1  2  1  0
  2  3  2  0
  3  4  1  0
  4  5  2  0
  5  6  1  0
  6  7  1  0
  7  8  1  0
  8  9  2  0
  9 10  1  0
 10 11  1  0
 11 12  1  0
 12 13  2  0
 13 14  1  0
 14 15  1  0
 10 16  2  0
 16 17  1  0
 17 18  2  0
 18 19  1  0
  5 20  1  0
 20 21  2  0
 21  2  1  0
 18  8  1  0
 15 11  2  0
  3 22  1  0
  4 23  1  0
  6 24  1  0
  6 25  1  0
  9 26  1  0
 12 27  1  0
 15 28  1  0
 16 29  1  0
 17 30  1  0
 20 31  1  0
 21 32  1  0
M  CHG  3   1  -1  14  -1  19  -1
M  END
>  <UniqueID>  (6) 
6

>  <SMILES>  (6) 
[O-]c1ccc(COc2cc(-c3cn[n-]c3)ccc2[O-])cc1

>  <Energy>  (6) 
66.21142408585413

>  <Genealogy>  (6) 
[O-]c1ccc(COc2cc(-c3cn[n-]c3)ccc2[O-])cc1 (protonated)
[O-]c1ccc(COc2cc(-c3cn[n-]c3)ccc2[O-])cc1 (3D coordinates assigned)
[O-]c1ccc(COc2cc(-c3cn[n-]c3)ccc2[O-])cc1 (optimized conformer: 66.21142408585413 kcal/mol)

>  <smiles>  (6) 
Oc1ccc(COc2cc(-c3cn[nH]c3)ccc2O)cc1

>  <score_type>  (6) 
oracle

>  <origin>  (6) 
adgpu

>  <m_score__min__energy>  (6) 
-10.23

>  <m_primary>  (6) 
energy

$$$$
6:0
     RDKit          3D

 51 53  0  0  0  0  0  0  0  0999 V2000
    1.6730   16.0320  -31.3920 C   0  0  0  0  0  0  0  0  0  0  0  0
    1.0560   16.1700  -30.0310 C   0  0  0  0  0  0  0  0  0  0  0  0
    0.7570   15.1200  -29.4000 O   0  0  0  0  0  0  0  0  0  0  0  0
    0.7850   17.4620  -29.4430 N   0  0  0  0  0  0  0  0  0  0  0  0
    0.9320   18.7060  -30.2160 C   0  0  0  0  0  0  0  0  0  0  0  0
   -0.1870   19.6970  -29.8650 C   0  0  0  0  0  0  0  0  0  0  0  0
   -0.4300   19.7670  -28.4140 N   0  0  0  0  0  0  0  0  0  0  0  0
   -1.6040   20.4410  -27.9190 C   0  0  0  0  0  0  0  0  0  0  0  0
   -2.2480   19.9480  -26.9540 O   0  0  0  0  0  0  0  0  0  0  0  0
   -2.0920   21.6880  -28.5430 C   0  0  0  0  0  0  0  0  0  0  0  0
   -1.1830   22.6760  -28.9530 C   0  0  0  0  0  0  0  0  0  0  0  0
   -1.6460   23.8730  -29.5050 C   0  0  0  0  0  0  0  0  0  0  0  0
   -3.0180   24.0940  -29.6570 C   0  0  0  0  0  0  0  0  0  0  0  0
   -3.4620   25.2910  -30.2060 O   0  0  0  0  0  0  0  0  0  0  0  0
   -3.9340   23.1050  -29.2660 C   0  0  0  0  0  0  0  0  0  0  0  0
   -5.3420   23.3350  -29.3530 N   0  0  0  0  0  0  0  0  0  0  0  0
   -6.1200   23.2860  -30.8990 S   0  0  0  0  0  0  0  0  0  0  0  0
   -7.5780   22.9670  -30.7350 O   0  0  0  0  0  0  0  0  0  0  0  0
   -5.9970   24.6310  -31.5560 O   0  0  0  0  0  0  0  0  0  0  0  0
   -5.3420   22.0620  -31.9010 C   0  0  0  0  0  0  0  0  0  0  0  0
   -4.0060   22.2060  -32.2940 C   0  0  0  0  0  0  0  0  0  0  0  0
   -3.3940   21.2260  -33.0760 C   0  0  0  0  0  0  0  0  0  0  0  0
   -4.1030   20.0840  -33.4580 C   0  0  0  0  0  0  0  0  0  0  0  0
   -3.4910   19.1590  -34.2400 F   0  0  0  0  0  0  0  0  0  0  0  0
   -5.4340   19.9000  -33.0330 C   0  0  0  0  0  0  0  0  0  0  0  0
   -6.2010   18.6680  -33.4480 C   0  0  0  0  0  0  0  0  0  0  0  0
   -6.1420   18.5350  -34.8230 F   0  0  0  0  0  0  0  0  0  0  0  0
   -7.5280   18.7470  -33.0620 F   0  0  0  0  0  0  0  0  0  0  0  0
   -5.6500   17.5420  -32.8610 F   0  0  0  0  0  0  0  0  0  0  0  0
   -6.0530   20.9110  -32.2740 C   0  0  0  0  0  0  0  0  0  0  0  0
   -3.4670   21.8960  -28.7360 C   0  0  0  0  0  0  0  0  0  0  0  0
    0.4050   18.9720  -27.5060 C   0  0  0  0  0  0  0  0  0  0  0  0
    0.4720   17.5260  -28.0050 C   0  0  0  0  0  0  0  0  0  0  0  0
    2.7416   15.7930  -31.2876 H   0  0  0  0  0  0  0  0  0  0  0  0
    1.1688   15.2244  -31.9430 H   0  0  0  0  0  0  0  0  0  0  0  0
    1.5609   16.9774  -31.9430 H   0  0  0  0  0  0  0  0  0  0  0  0
    1.9053   19.1629  -29.9837 H   0  0  0  0  0  0  0  0  0  0  0  0
    0.8697   18.4665  -31.2878 H   0  0  0  0  0  0  0  0  0  0  0  0
    0.0983   20.6963  -30.2255 H   0  0  0  0  0  0  0  0  0  0  0  0
   -1.1121   19.3479  -30.3470 H   0  0  0  0  0  0  0  0  0  0  0  0
   -0.1020   22.5071  -28.8392 H   0  0  0  0  0  0  0  0  0  0  0  0
   -0.9284   24.6444  -29.8212 H   0  0  0  0  0  0  0  0  0  0  0  0
   -5.7920   23.9240  -28.6160 H   0  0  0  0  0  0  0  0  0  0  0  0
   -3.4367   23.0951  -31.9851 H   0  0  0  0  0  0  0  0  0  0  0  0
   -2.3484   21.3529  -33.3934 H   0  0  0  0  0  0  0  0  0  0  0  0
   -7.1042   20.7978  -31.9703 H   0  0  0  0  0  0  0  0  0  0  0  0
   -4.1822   21.1040  -28.4691 H   0  0  0  0  0  0  0  0  0  0  0  0
    1.4194   19.3963  -27.4754 H   0  0  0  0  0  0  0  0  0  0  0  0
   -0.0320   18.9907  -26.4967 H   0  0  0  0  0  0  0  0  0  0  0  0
    1.2537   16.9912  -27.4455 H   0  0  0  0  0  0  0  0  0  0  0  0
   -0.5125   17.0616  -27.8464 H   0  0  0  0  0  0  0  0  0  0  0  0
  1  2  1  0
  2  3  2  0
  2  4  1  0
  4  5  1  0
  5  6  1  0
  6  7  1  0
  7  8  1  0
  8  9  2  0
  8 10  1  0
 10 11  2  0
 11 12  1  0
 12 13  2  0
 13 14  1  0
 13 15  1  0
 15 16  1  0
 16 17  1  0
 17 18  2  0
 17 19  2  0
 17 20  1  0
 20 21  2  0
 21 22  1  0
 22 23  2  0
 23 24  1  0
 23 25  1  0
 25 26  1  0
 26 27  1  0
 26 28  1  0
 26 29  1  0
 25 30  2  0
 15 31  2  0
  7 32  1  0
 32 33  1  0
 33  4  1  0
 31 10  1  0
 30 20  1  0
  1 34  1  0
  1 35  1  0
  1 36  1  0
  5 37  1  0
  5 38  1  0
  6 39  1  0
  6 40  1  0
 11 41  1  0
 12 42  1  0
 16 43  1  0
 21 44  1  0
 22 45  1  0
 30 46  1  0
 31 47  1  0
 32 48  1  0
 32 49  1  0
 33 50  1  0
 33 51  1  0
M  CHG  1  14  -1
M  END
>  <UniqueID>  (7) 
7

>  <SMILES>  (7) 
CC(=O)N1CCN(C(=O)c2ccc([O-])c(NS(=O)(=O)c3ccc(F)c(C(F)(F)F)c3)c2)CC1

>  <Energy>  (7) 
61.629707435876156

>  <Genealogy>  (7) 
CC(=O)N1CCN(C(=O)c2ccc([O-])c(NS(=O)(=O)c3ccc(F)c(C(F)(F)F)c3)c2)CC1 (protonated)
CC(=O)N1CCN(C(=O)c2ccc([O-])c(NS(=O)(=O)c3ccc(F)c(C(F)(F)F)c3)c2)CC1 (3D coordinates assigned)
CC(=O)N1CCN(C(=O)c2ccc([O-])c(NS(=O)(=O)c3ccc(F)c(C(F)(F)F)c3)c2)CC1 (nonaromatic ring conformer: 61.629707435876156 kcal/mol)

>  <smiles>  (7) 
CC(=O)N1CCN(C(=O)c2ccc(O)c(NS(=O)(=O)c3ccc(F)c(C(F)(F)F)c3)c2)CC1

>  <score_type>  (7) 
oracle

>  <origin>  (7) 
adgpu

>  <m_score__min__energy>  (7) 
-12.48

>  <m_primary>  (7) 
energy

$$$$
7:0
     RDKit          3D

 55 58  0  0  0  0  0  0  0  0999 V2000
    0.9910   17.7190  -29.8220 C   0  0  0  0  0  0  0  0  0  0  0  0
    1.3800   17.8320  -28.0880 S   0  0  0  0  0  0  0  0  0  0  0  0
    1.9900   19.1790  -27.8240 O   0  0  0  0  0  0  0  0  0  0  0  0
    2.3690   16.7690  -27.7020 O   0  0  0  0  0  0  0  0  0  0  0  0
   -0.0640   17.6750  -27.1360 N   0  0  0  0  0  0  0  0  0  0  0  0
   -1.1440   18.6270  -27.1370 C   0  0  0  0  0  0  0  0  0  0  0  0
   -2.4120   18.2180  -26.6980 C   0  0  0  0  0  0  0  0  0  0  0  0
   -3.4810   19.1150  -26.6840 C   0  0  0  0  0  0  0  0  0  0  0  0
   -3.2990   20.4310  -27.1130 C   0  0  0  0  0  0  0  0  0  0  0  0
   -2.0420   20.8630  -27.5680 C   0  0  0  0  0  0  0  0  0  0  0  0
   -1.8490   22.2630  -28.0280 C   0  0  0  0  0  0  0  0  0  0  0  0
   -0.8490   23.0740  -27.4680 C   0  0  0  0  0  0  0  0  0  0  0  0
   -0.6700   24.3460  -27.9080 N   0  0  0  0  0  0  0  0  0  0  0  0
   -1.4430   24.8850  -28.8870 C   0  0  0  0  0  0  0  0  0  0  0  0
   -1.2310   26.0680  -29.2640 O   0  0  0  0  0  0  0  0  0  0  0  0
   -2.4730   24.1310  -29.4650 C   0  0  0  0  0  0  0  0  0  0  0  0
   -3.2660   24.7100  -30.5150 N   0  0  0  0  0  0  0  0  0  0  0  0
   -4.6830   24.9350  -30.4890 C   0  0  0  0  0  0  0  0  0  0  0  0
   -5.1370   26.0580  -30.1360 O   0  0  0  0  0  0  0  0  0  0  0  0
   -5.6110   23.8670  -30.9280 C   0  0  0  0  0  0  0  0  0  0  0  0
   -7.0020   24.0300  -30.7890 C   0  0  0  0  0  0  0  0  0  0  0  0
   -7.8770   23.0230  -31.2010 C   0  0  0  0  0  0  0  0  0  0  0  0
   -7.3790   21.8420  -31.7540 C   0  0  0  0  0  0  0  0  0  0  0  0
   -5.9960   21.6550  -31.8980 C   0  0  0  0  0  0  0  0  0  0  0  0
   -5.4880   20.4390  -32.4800 N   0  0  0  0  0  0  0  0  0  0  0  0
   -4.0690   20.3410  -32.8410 C   0  0  0  0  0  0  0  0  0  0  0  0
   -3.8200   19.0950  -33.6900 C   0  0  0  0  0  0  0  0  0  0  0  0
   -4.9040   18.9050  -34.5730 O   0  0  0  0  0  0  0  0  0  0  0  0
   -6.0350   18.4350  -33.8600 C   0  0  0  0  0  0  0  0  0  0  0  0
   -6.3480   19.2530  -32.5840 C   0  0  0  0  0  0  0  0  0  0  0  0
   -5.1190   22.6730  -31.4870 C   0  0  0  0  0  0  0  0  0  0  0  0
   -2.6570   22.8050  -29.0420 C   0  0  0  0  0  0  0  0  0  0  0  0
   -0.9710   19.9510  -27.5820 C   0  0  0  0  0  0  0  0  0  0  0  0
   -0.0589   17.4140  -29.9431 H   0  0  0  0  0  0  0  0  0  0  0  0
    1.1453   18.6991  -30.2970 H   0  0  0  0  0  0  0  0  0  0  0  0
    1.6464   16.9741  -30.2970 H   0  0  0  0  0  0  0  0  0  0  0  0
   -0.0910   16.8840  -26.4540 H   0  0  0  0  0  0  0  0  0  0  0  0
   -2.5649   17.1818  -26.3620 H   0  0  0  0  0  0  0  0  0  0  0  0
   -4.4699   18.7841  -26.3339 H   0  0  0  0  0  0  0  0  0  0  0  0
   -4.1449   21.1339  -27.0947 H   0  0  0  0  0  0  0  0  0  0  0  0
   -0.2068   22.6766  -26.6682 H   0  0  0  0  0  0  0  0  0  0  0  0
   -7.4025   24.9570  -30.3528 H   0  0  0  0  0  0  0  0  0  0  0  0
   -8.9626   23.1608  -31.0894 H   0  0  0  0  0  0  0  0  0  0  0  0
   -8.0744   21.0539  -32.0785 H   0  0  0  0  0  0  0  0  0  0  0  0
   -3.7783   21.2339  -33.4138 H   0  0  0  0  0  0  0  0  0  0  0  0
   -3.4707   20.2710  -31.9206 H   0  0  0  0  0  0  0  0  0  0  0  0
   -2.8936   19.2245  -34.2688 H   0  0  0  0  0  0  0  0  0  0  0  0
   -3.7221   18.2172  -33.0343 H   0  0  0  0  0  0  0  0  0  0  0  0
   -6.9094   18.4812  -34.5257 H   0  0  0  0  0  0  0  0  0  0  0  0
   -5.8084   17.4082  -33.5370 H   0  0  0  0  0  0  0  0  0  0  0  0
   -7.3992   19.5755  -32.6151 H   0  0  0  0  0  0  0  0  0  0  0  0
   -6.1602   18.6130  -31.7093 H   0  0  0  0  0  0  0  0  0  0  0  0
   -4.0340   22.5348  -31.6037 H   0  0  0  0  0  0  0  0  0  0  0  0
   -3.4386   22.1864  -29.5072 H   0  0  0  0  0  0  0  0  0  0  0  0
    0.0147   20.2770  -27.9455 H   0  0  0  0  0  0  0  0  0  0  0  0
  1  2  1  0
  2  3  2  0
  2  4  2  0
  2  5  1  0
  5  6  1  0
  6  7  2  0
  7  8  1  0
  8  9  2  0
  9 10  1  0
 10 11  1  0
 11 12  2  0
 12 13  1  0
 13 14  1  0
 14 15  2  0
 14 16  1  0
 16 17  1  0
 17 18  1  0
 18 19  2  0
 18 20  1  0
 20 21  2  0
 21 22  1  0
 22 23  2  0
 23 24  1  0
 24 25  1  0
 25 26  1  0
 26 27  1  0
 27 28  1  0
 28 29  1  0
 29 30  1  0
 24 31  2  0
 16 32  2  0
 10 33  2  0
 33  6  1  0
 32 11  1  0
 31 20  1  0
 30 25  1  0
  1 34  1  0
  1 35  1  0
  1 36  1  0
  5 37  1  0
  7 38  1  0
  8 39  1  0
  9 40  1  0
 12 41  1  0
 21 42  1  0
 22 43  1  0
 23 44  1  0
 26 45  1  0
 26 46  1  0
 27 47  1  0
 27 48  1  0
 29 49  1  0
 29 50  1  0
 30 51  1  0
 30 52  1  0
 31 53  1  0
 32 54  1  0
 33 55  1  0
M  CHG  2  13  -1  17  -1
M  END
>  <UniqueID>  (8) 
8

>  <SMILES>  (8) 
CS(=O)(=O)Nc1cccc(-c2c[n-]c(=O)c([N-]C(=O)c3cccc(N4CCOCC4)c3)c2)c1

>  <Energy>  (8) 
78.61954470429849

>  <Genealogy>  (8) 
CS(=O)(=O)Nc1cccc(-c2c[n-]c(=O)c([N-]C(=O)c3cccc(N4CCOCC4)c3)c2)c1 (protonated)
CS(=O)(=O)Nc1cccc(-c2c[n-]c(=O)c([N-]C(=O)c3cccc(N4CCOCC4)c3)c2)c1 (3D coordinates assigned)
CS(=O)(=O)Nc1cccc(-c2c[n-]c(=O)c([N-]C(=O)c3cccc(N4CCOCC4)c3)c2)c1 (nonaromatic ring conformer: 78.61954470429849 kcal/mol)

>  <smiles>  (8) 
CS(=O)(=O)Nc1cccc(-c2c[nH]c(=O)c(NC(=O)c3cccc(N4CCOCC4)c3)c2)c1

>  <score_type>  (8) 
oracle

>  <origin>  (8) 
adgpu

>  <m_score__min__energy>  (8) 
-12.67

>  <m_primary>  (8) 
energy

$$$$
8:0
     RDKit          3D

 48 51  0  0  0  0  0  0  0  0999 V2000
   -4.9660   25.6510  -31.2340 O   0  0  0  0  0  0  0  0  0  0  0  0
   -4.5390   24.9260  -30.2960 C   0  0  0  0  0  0  0  0  0  0  0  0
   -5.5070   24.1360  -29.4690 C   0  0  0  0  0  0  0  0  0  0  0  0
   -6.0130   22.9740  -30.2270 N   0  0  0  0  0  0  0  0  0  0  0  0
   -7.2420   23.3420  -30.9570 C   0  0  0  0  0  0  0  0  0  0  0  0
   -7.9000   22.0850  -31.5310 C   0  0  0  0  0  0  0  0  0  0  0  0
   -6.9080   21.2150  -32.2570 C   0  0  0  0  0  0  0  0  0  0  0  0
   -7.3730   20.1900  -33.0960 C   0  0  0  0  0  0  0  0  0  0  0  0
   -6.4690   19.3410  -33.7390 C   0  0  0  0  0  0  0  0  0  0  0  0
   -5.0960   19.5040  -33.5450 C   0  0  0  0  0  0  0  0  0  0  0  0
   -4.6230   20.5120  -32.7030 C   0  0  0  0  0  0  0  0  0  0  0  0
   -5.5220   21.3610  -32.0380 C   0  0  0  0  0  0  0  0  0  0  0  0
   -4.9920   22.4860  -31.1820 C   0  0  0  0  0  0  0  0  0  0  0  0
   -3.1460   24.9020  -29.9710 N   0  0  0  0  0  0  0  0  0  0  0  0
   -2.4830   23.8100  -29.3250 C   0  0  0  0  0  0  0  0  0  0  0  0
   -1.6360   22.9960  -30.0900 C   0  0  0  0  0  0  0  0  0  0  0  0
   -0.9620   21.9240  -29.5030 C   0  0  0  0  0  0  0  0  0  0  0  0
   -1.1150   21.6640  -28.1390 C   0  0  0  0  0  0  0  0  0  0  0  0
   -1.9310   22.4860  -27.3590 C   0  0  0  0  0  0  0  0  0  0  0  0
   -2.6080   23.5690  -27.9360 C   0  0  0  0  0  0  0  0  0  0  0  0
   -3.5530   24.6580  -26.8610 S   0  0  0  0  0  0  0  0  0  0  0  0
   -2.1210   25.6520  -26.4390 C   0  0  0  0  0  0  0  0  0  0  0  0
   -1.2060   26.0230  -27.4340 C   0  0  0  0  0  0  0  0  0  0  0  0
   -0.0880   26.7940  -27.1030 C   0  0  0  0  0  0  0  0  0  0  0  0
    0.1150   27.2020  -25.7810 C   0  0  0  0  0  0  0  0  0  0  0  0
   -0.8000   26.8390  -24.7880 C   0  0  0  0  0  0  0  0  0  0  0  0
   -1.9200   26.0680  -25.1160 C   0  0  0  0  0  0  0  0  0  0  0  0
   -4.9997   23.7811  -28.5598 H   0  0  0  0  0  0  0  0  0  0  0  0
   -6.3563   24.7828  -29.2039 H   0  0  0  0  0  0  0  0  0  0  0  0
   -7.9414   23.8381  -30.2679 H   0  0  0  0  0  0  0  0  0  0  0  0
   -6.9849   24.0254  -31.7797 H   0  0  0  0  0  0  0  0  0  0  0  0
   -8.3435   21.5074  -30.7066 H   0  0  0  0  0  0  0  0  0  0  0  0
   -8.6688   22.4007  -32.2516 H   0  0  0  0  0  0  0  0  0  0  0  0
   -8.4541   20.0548  -33.2478 H   0  0  0  0  0  0  0  0  0  0  0  0
   -6.8394   18.5429  -34.3991 H   0  0  0  0  0  0  0  0  0  0  0  0
   -4.3860   18.8373  -34.0563 H   0  0  0  0  0  0  0  0  0  0  0  0
   -3.5401   20.6418  -32.5598 H   0  0  0  0  0  0  0  0  0  0  0  0
   -4.1198   22.1244  -30.6177 H   0  0  0  0  0  0  0  0  0  0  0  0
   -4.7147   23.3197  -31.8438 H   0  0  0  0  0  0  0  0  0  0  0  0
   -1.5015   23.2039  -31.1618 H   0  0  0  0  0  0  0  0  0  0  0  0
   -0.3099   21.2834  -30.1148 H   0  0  0  0  0  0  0  0  0  0  0  0
   -0.5928   20.8119  -27.6795 H   0  0  0  0  0  0  0  0  0  0  0  0
   -2.0432   22.2820  -26.2839 H   0  0  0  0  0  0  0  0  0  0  0  0
   -1.3678   25.7074  -28.4753 H   0  0  0  0  0  0  0  0  0  0  0  0
    0.6328   27.0800  -27.8832 H   0  0  0  0  0  0  0  0  0  0  0  0
    0.9951   27.8089  -25.5221 H   0  0  0  0  0  0  0  0  0  0  0  0
   -0.6389   27.1599  -23.7483 H   0  0  0  0  0  0  0  0  0  0  0  0
   -2.6429   25.7882  -24.3356 H   0  0  0  0  0  0  0  0  0  0  0  0
  1  2  2  0
  2  3  1  0
  3  4  1  0
  4  5  1  0
  5  6  1  0
  6  7  1  0
  7  8  2  0
  8  9  1  0
  9 10  2  0
 10 11  1  0
 11 12  2  0
 12 13  1  0
  2 14  1  0
 14 15  1  0
 15 16  2  0
 16 17  1  0
 17 18  2  0
 18 19  1  0
 19 20  2  0
 20 21  1  0
 21 22  1  0
 22 23  2  0
 23 24  1  0
 24 25  2  0
 25 26  1  0
 26 27  2  0
 13  4  1  0
 20 15  1  0
 27 22  1  0
 12  7  1  0
  3 28  1  0
  3 29  1  0
  5 30  1  0
  5 31  1  0
  6 32  1  0
  6 33  1  0
  8 34  1  0
  9 35  1  0
 10 36  1  0
 11 37  1  0
 13 38  1  0
 13 39  1  0
 16 40  1  0
 17 41  1  0
 18 42  1  0
 19 43  1  0
 23 44  1  0
 24 45  1  0
 25 46  1  0
 26 47  1  0
 27 48  1  0
M  CHG  1  14  -1
M  END
>  <UniqueID>  (9) 
9

>  <SMILES>  (9) 
O=C(CN1CCc2ccccc2C1)[N-]c1ccccc1Sc1ccccc1

>  <Energy>  (9) 
55.911576407237895

>  <Genealogy>  (9) 
O=C(CN1CCc2ccccc2C1)[N-]c1ccccc1Sc1ccccc1 (protonated)
O=C(CN1CCc2ccccc2C1)[N-]c1ccccc1Sc1ccccc1 (3D coordinates assigned)
O=C(CN1CCc2ccccc2C1)[N-]c1ccccc1Sc1ccccc1 (nonaromatic ring conformer: 55.911576407237895 kcal/mol)

>  <smiles>  (9) 
O=C(CN1CCc2ccccc2C1)Nc1ccccc1Sc1ccccc1

>  <score_type>  (9) 
oracle

>  <origin>  (9) 
adgpu

>  <m_score__min__energy>  (9) 
-11.550000000000001

>  <m_primary>  (9) 
energy

$$$$
9:0
     RDKit          3D

 46 48  0  0  0  0  0  0  0  0999 V2000
   -5.7470   25.7360  -31.5810 O   0  0  0  0  0  0  0  0  0  0  0  0
   -6.0520   24.8730  -30.7140 C   0  0  0  0  0  0  0  0  0  0  0  0
   -5.0940   24.5610  -29.6140 C   0  0  0  0  0  0  0  0  0  0  0  0
   -3.7330   24.7810  -30.0830 N   0  0  0  0  0  0  0  0  0  0  0  0
   -2.6180   23.9400  -29.7640 C   0  0  0  0  0  0  0  0  0  0  0  0
   -2.3590   22.9640  -30.5160 O   0  0  0  0  0  0  0  0  0  0  0  0
   -1.7740   24.1740  -28.5740 C   0  0  0  0  0  0  0  0  0  0  0  0
   -1.6590   23.1810  -27.5860 C   0  0  0  0  0  0  0  0  0  0  0  0
   -0.8860   23.4050  -26.4440 C   0  0  0  0  0  0  0  0  0  0  0  0
   -0.2350   24.6280  -26.2680 C   0  0  0  0  0  0  0  0  0  0  0  0
   -0.3570   25.6290  -27.2360 C   0  0  0  0  0  0  0  0  0  0  0  0
   -1.1260   25.4090  -28.3860 C   0  0  0  0  0  0  0  0  0  0  0  0
   -1.2330   26.4180  -29.3370 O   0  0  0  0  0  0  0  0  0  0  0  0
   -7.2660   24.1200  -30.8260 N   0  0  0  0  0  0  0  0  0  0  0  0
   -7.3680   22.7300  -31.1680 C   0  0  0  0  0  0  0  0  0  0  0  0
   -6.1930   21.9810  -31.3010 C   0  0  0  0  0  0  0  0  0  0  0  0
   -6.2520   20.6200  -31.6180 C   0  0  0  0  0  0  0  0  0  0  0  0
   -7.4920   19.9910  -31.7940 C   0  0  0  0  0  0  0  0  0  0  0  0
   -7.5830   18.2740  -32.1740 S   0  0  0  0  0  0  0  0  0  0  0  0
   -6.6990   17.5260  -31.2130 O   0  0  0  0  0  0  0  0  0  0  0  0
   -8.9960   17.7850  -32.0030 O   0  0  0  0  0  0  0  0  0  0  0  0
   -7.0330   18.0000  -33.8150 N   0  0  0  0  0  0  0  0  0  0  0  0
   -6.2770   16.7460  -33.9050 C   0  0  0  0  0  0  0  0  0  0  0  0
   -4.8040   17.0680  -33.7030 C   0  0  0  0  0  0  0  0  0  0  0  0
   -4.6800   18.5630  -33.9280 C   0  0  0  0  0  0  0  0  0  0  0  0
   -6.0930   19.0500  -34.2220 C   0  0  0  0  0  0  0  0  0  0  0  0
   -8.6690   20.7320  -31.6350 C   0  0  0  0  0  0  0  0  0  0  0  0
   -8.6110   22.0920  -31.3190 C   0  0  0  0  0  0  0  0  0  0  0  0
   -5.2965   25.2161  -28.7538 H   0  0  0  0  0  0  0  0  0  0  0  0
   -5.2130   23.5108  -29.3091 H   0  0  0  0  0  0  0  0  0  0  0  0
   -2.1811   22.2211  -27.7127 H   0  0  0  0  0  0  0  0  0  0  0  0
   -0.7900   22.6171  -25.6825 H   0  0  0  0  0  0  0  0  0  0  0  0
    0.3732   24.8034  -25.3684 H   0  0  0  0  0  0  0  0  0  0  0  0
    0.1529   26.5933  -27.0941 H   0  0  0  0  0  0  0  0  0  0  0  0
   -5.2166   22.4661  -31.1552 H   0  0  0  0  0  0  0  0  0  0  0  0
   -5.3228   20.0419  -31.7294 H   0  0  0  0  0  0  0  0  0  0  0  0
   -6.6168   16.0487  -33.1250 H   0  0  0  0  0  0  0  0  0  0  0  0
   -6.4336   16.2757  -34.8870 H   0  0  0  0  0  0  0  0  0  0  0  0
   -4.4899   16.8058  -32.6819 H   0  0  0  0  0  0  0  0  0  0  0  0
   -4.1639   16.4977  -34.3922 H   0  0  0  0  0  0  0  0  0  0  0  0
   -4.2833   19.0554  -33.0279 H   0  0  0  0  0  0  0  0  0  0  0  0
   -3.9891   18.7953  -34.7518 H   0  0  0  0  0  0  0  0  0  0  0  0
   -6.2950   19.9709  -33.6553 H   0  0  0  0  0  0  0  0  0  0  0  0
   -6.2053   19.2659  -35.2948 H   0  0  0  0  0  0  0  0  0  0  0  0
   -9.6453   20.2408  -31.7595 H   0  0  0  0  0  0  0  0  0  0  0  0
   -9.5409   22.6648  -31.1881 H   0  0  0  0  0  0  0  0  0  0  0  0
  1  2  2  0
  2  3  1  0
  3  4  1  0
  4  5  1  0
  5  6  2  0
  5  7  1  0
  7  8  2  0
  8  9  1  0
  9 10  2  0
 10 11  1  0
 11 12  2  0
 12 13  1  0
  2 14  1  0
 14 15  1  0
 15 16  2  0
 16 17  1  0
 17 18  2  0
 18 19  1  0
 19 20  2  0
 19 21  2  0
 19 22  1  0
 22 23  1  0
 23 24  1  0
 24 25  1  0
 25 26  1  0
 18 27  1  0
 27 28  2  0
 12  7  1  0
 28 15  1  0
 26 22  1  0
  3 29  1  0
  3 30  1  0
  8 31  1  0
  9 32  1  0
 10 33  1  0
 11 34  1  0
 16 35  1  0
 17 36  1  0
 23 37  1  0
 23 38  1  0
 24 39  1  0
 24 40  1  0
 25 41  1  0
 25 42  1  0
 26 43  1  0
 26 44  1  0
 27 45  1  0
 28 46  1  0
M  CHG  3   4  -1  13  -1  14  -1
M  END
>  <UniqueID>  (10) 
10

>  <SMILES>  (10) 
O=C(C[N-]C(=O)c1ccccc1[O-])[N-]c1ccc(S(=O)(=O)N2CCCC2)cc1

>  <Energy>  (10) 
55.21527527758479

>  <Genealogy>  (10) 
O=C(C[N-]C(=O)c1ccccc1[O-])[N-]c1ccc(S(=O)(=O)N2CCCC2)cc1 (protonated)
O=C(C[N-]C(=O)c1ccccc1[O-])[N-]c1ccc(S(=O)(=O)N2CCCC2)cc1 (3D coordinates assigned)
O=C(C[N-]C(=O)c1ccccc1[O-])[N-]c1ccc(S(=O)(=O)N2CCCC2)cc1 (nonaromatic ring conformer: 55.21527527758479 kcal/mol)

>  <smiles>  (10) 
O=C(CNC(=O)c1ccccc1O)Nc1ccc(S(=O)(=O)N2CCCC2)cc1

>  <score_type>  (10) 
oracle

>  <origin>  (10) 
adgpu

>  <m_score__min__energy>  (10) 
-14.289999999999999

>  <m_primary>  (10) 
energy

$$$$
10:0
     RDKit          3D

 45 48  0  0  0  0  0  0  0  0999 V2000
   -7.6730   18.2030  -32.4120 C   0  0  0  0  0  0  0  0  0  0  0  0
   -6.5720   19.1880  -32.6220 C   0  0  0  0  0  0  0  0  0  0  0  0
   -5.4270   19.2930  -31.8620 C   0  0  0  0  0  0  0  0  0  0  0  0
   -4.7510   20.3520  -32.4420 C   0  0  0  0  0  0  0  0  0  0  0  0
   -3.4420   20.9140  -32.0400 C   0  0  0  0  0  0  0  0  0  0  0  0
   -2.2650   20.6120  -32.7530 C   0  0  0  0  0  0  0  0  0  0  0  0
   -1.0380   21.1440  -32.3460 C   0  0  0  0  0  0  0  0  0  0  0  0
   -0.9680   21.9740  -31.2270 C   0  0  0  0  0  0  0  0  0  0  0  0
   -2.1290   22.2870  -30.5100 C   0  0  0  0  0  0  0  0  0  0  0  0
   -2.0150   23.3250  -29.0910 S   0  0  0  0  0  0  0  0  0  0  0  0
   -1.0700   24.4690  -29.3320 O   0  0  0  0  0  0  0  0  0  0  0  0
   -1.4910   22.5160  -27.9400 O   0  0  0  0  0  0  0  0  0  0  0  0
   -3.5840   23.9400  -28.6820 N   0  0  0  0  0  0  0  0  0  0  0  0
   -4.7520   23.8750  -29.5140 C   0  0  0  0  0  0  0  0  0  0  0  0
   -5.7940   22.9660  -29.2650 C   0  0  0  0  0  0  0  0  0  0  0  0
   -6.9120   22.9180  -30.1110 C   0  0  0  0  0  0  0  0  0  0  0  0
   -6.9920   23.7770  -31.2190 C   0  0  0  0  0  0  0  0  0  0  0  0
   -5.9640   24.6990  -31.4560 C   0  0  0  0  0  0  0  0  0  0  0  0
   -4.8500   24.7460  -30.6110 C   0  0  0  0  0  0  0  0  0  0  0  0
   -3.8420   25.6730  -30.8590 O   0  0  0  0  0  0  0  0  0  0  0  0
   -8.2360   23.7640  -32.0720 C   0  0  0  0  0  0  0  0  0  0  0  0
   -8.8280   22.3470  -32.2730 C   0  0  0  0  0  0  0  0  0  0  0  0
   -8.4580   21.3130  -31.1820 C   0  0  0  0  0  0  0  0  0  0  0  0
   -8.0430   21.9610  -29.8580 C   0  0  0  0  0  0  0  0  0  0  0  0
   -3.3630   21.7610  -30.9200 C   0  0  0  0  0  0  0  0  0  0  0  0
   -5.4720   20.8090  -33.4450 O   0  0  0  0  0  0  0  0  0  0  0  0
   -6.5780   20.1350  -33.5810 N   0  0  0  0  0  0  0  0  0  0  0  0
   -7.8348   18.0583  -31.3336 H   0  0  0  0  0  0  0  0  0  0  0  0
   -8.5968   18.5817  -32.8738 H   0  0  0  0  0  0  0  0  0  0  0  0
   -7.3991   17.2429  -32.8738 H   0  0  0  0  0  0  0  0  0  0  0  0
   -5.1230   18.6810  -31.0000 H   0  0  0  0  0  0  0  0  0  0  0  0
   -2.3117   19.9547  -33.6338 H   0  0  0  0  0  0  0  0  0  0  0  0
   -0.1240   20.9072  -32.9104 H   0  0  0  0  0  0  0  0  0  0  0  0
    0.0016   22.3835  -30.9073 H   0  0  0  0  0  0  0  0  0  0  0  0
   -5.7328   22.2877  -28.4012 H   0  0  0  0  0  0  0  0  0  0  0  0
   -6.0331   25.3888  -32.3100 H   0  0  0  0  0  0  0  0  0  0  0  0
   -8.9969   24.3947  -31.5889 H   0  0  0  0  0  0  0  0  0  0  0  0
   -7.9530   24.1421  -33.0655 H   0  0  0  0  0  0  0  0  0  0  0  0
   -9.9240   22.4372  -32.2976 H   0  0  0  0  0  0  0  0  0  0  0  0
   -8.3951   21.9674  -33.2103 H   0  0  0  0  0  0  0  0  0  0  0  0
   -9.3312   20.6696  -30.9986 H   0  0  0  0  0  0  0  0  0  0  0  0
   -7.5952   20.7397  -31.5518 H   0  0  0  0  0  0  0  0  0  0  0  0
   -8.8978   22.5059  -29.4309 H   0  0  0  0  0  0  0  0  0  0  0  0
   -7.7187   21.1833  -29.1508 H   0  0  0  0  0  0  0  0  0  0  0  0
   -4.2763   22.0130  -30.3611 H   0  0  0  0  0  0  0  0  0  0  0  0
  1  2  1  0
  2  3  1  0
  3  4  2  0
  4  5  1  0
  5  6  2  0
  6  7  1  0
  7  8  2  0
  8  9  1  0
  9 10  1  0
 10 11  2  0
 10 12  2  0
 10 13  1  0
 13 14  1  0
 14 15  2  0
 15 16  1  0
 16 17  2  0
 17 18  1  0
 18 19  2  0
 19 20  1  0
 17 21  1  0
 21 22  1  0
 22 23  1  0
 23 24  1  0
  9 25  2  0
  4 26  1  0
 26 27  1  0
 27  2  2  0
 25  5  1  0
 19 14  1  0
 24 16  1  0
  1 28  1  0
  1 29  1  0
  1 30  1  0
  3 31  1  0
  6 32  1  0
  7 33  1  0
  8 34  1  0
 15 35  1  0
 18 36  1  0
 21 37  1  0
 21 38  1  0
 22 39  1  0
 22 40  1  0
 23 41  1  0
 23 42  1  0
 24 43  1  0
 24 44  1  0
 25 45  1  0
M  CHG  2  13  -1  20  -1
M  END
>  <UniqueID>  (11) 
11

>  <SMILES>  (11) 
Cc1cc(-c2cccc(S(=O)(=O)[N-]c3cc4c(cc3[O-])CCCC4)c2)on1

>  <Energy>  (11) 
86.0735681461281

>  <Genealogy>  (11) 
Cc1cc(-c2cccc(S(=O)(=O)[N-]c3cc4c(cc3[O-])CCCC4)c2)on1 (protonated)
Cc1cc(-c2cccc(S(=O)(=O)[N-]c3cc4c(cc3[O-])CCCC4)c2)on1 (3D coordinates assigned)
Cc1cc(-c2cccc(S(=O)(=O)[N-]c3cc4c(cc3[O-])CCCC4)c2)on1 (nonaromatic ring conformer: 86.0735681461281 kcal/mol)

>  <smiles>  (11) 
Cc1cc(-c2cccc(S(=O)(=O)Nc3cc4c(cc3O)CCCC4)c2)on1

>  <score_type>  (11) 
oracle

>  <origin>  (11) 
adgpu

>  <m_score__min__energy>  (11) 
-14.4

>  <m_primary>  (11) 
energy

$$$$
11:0
     RDKit          3D

 52 55  0  0  0  0  0  0  0  0999 V2000
   -8.7420   23.4610  -32.6470 O   0  0  0  0  0  0  0  0  0  0  0  0
   -8.1420   22.5170  -31.6400 S   0  0  0  0  0  0  0  0  0  0  0  0
   -9.1620   22.2350  -30.5730 O   0  0  0  0  0  0  0  0  0  0  0  0
   -6.7270   23.2480  -30.8890 C   0  0  0  0  0  0  0  0  0  0  0  0
   -6.1290   24.3900  -31.4390 C   0  0  0  0  0  0  0  0  0  0  0  0
   -4.9930   24.9460  -30.8450 C   0  0  0  0  0  0  0  0  0  0  0  0
   -4.4360   24.3640  -29.6900 C   0  0  0  0  0  0  0  0  0  0  0  0
   -3.2610   24.9060  -29.0580 N   0  0  0  0  0  0  0  0  0  0  0  0
   -1.9090   24.4100  -29.3200 C   0  0  0  0  0  0  0  0  0  0  0  0
   -1.6690   23.1170  -28.5980 C   0  0  0  0  0  0  0  0  0  0  0  0
   -1.5500   23.0340  -27.2560 N   0  0  0  0  0  0  0  0  0  0  0  0
   -1.3540   21.7540  -26.9790 N   0  0  0  0  0  0  0  0  0  0  0  0
   -1.3580   21.0740  -28.1370 C   0  0  0  0  0  0  0  0  0  0  0  0
   -1.2170   19.4430  -28.2330 S   0  0  0  0  0  0  0  0  0  0  0  0
   -1.5670   21.9000  -29.1830 N   0  0  0  0  0  0  0  0  0  0  0  0
   -1.6470   21.5710  -30.5800 C   0  0  0  0  0  0  0  0  0  0  0  0
   -0.5160   21.0910  -31.2600 C   0  0  0  0  0  0  0  0  0  0  0  0
   -0.5910   20.7820  -32.6230 C   0  0  0  0  0  0  0  0  0  0  0  0
   -1.7950   20.9490  -33.3120 C   0  0  0  0  0  0  0  0  0  0  0  0
   -2.9270   21.4210  -32.6410 C   0  0  0  0  0  0  0  0  0  0  0  0
   -2.8550   21.7300  -31.2800 C   0  0  0  0  0  0  0  0  0  0  0  0
   -5.0440   23.2230  -29.1430 C   0  0  0  0  0  0  0  0  0  0  0  0
   -6.1790   22.6680  -29.7400 C   0  0  0  0  0  0  0  0  0  0  0  0
   -7.6740   21.0290  -32.4250 N   0  0  0  0  0  0  0  0  0  0  0  0
   -8.1250   19.8760  -31.6260 C   0  0  0  0  0  0  0  0  0  0  0  0
   -7.9220   18.5670  -32.4120 C   0  0  0  0  0  0  0  0  0  0  0  0
   -6.8140   18.6850  -33.4720 C   0  0  0  0  0  0  0  0  0  0  0  0
   -5.6850   19.5980  -32.9880 C   0  0  0  0  0  0  0  0  0  0  0  0
   -6.2080   21.0020  -32.6110 C   0  0  0  0  0  0  0  0  0  0  0  0
   -6.5558   24.8506  -32.3422 H   0  0  0  0  0  0  0  0  0  0  0  0
   -4.5311   25.8435  -31.2821 H   0  0  0  0  0  0  0  0  0  0  0  0
   -3.3890   25.6680  -28.3520 H   0  0  0  0  0  0  0  0  0  0  0  0
   -1.7871   24.2478  -30.4011 H   0  0  0  0  0  0  0  0  0  0  0  0
   -1.1835   25.1550  -28.9615 H   0  0  0  0  0  0  0  0  0  0  0  0
   -1.2330   21.3660  -26.0180 H   0  0  0  0  0  0  0  0  0  0  0  0
    0.4326   20.9573  -30.7193 H   0  0  0  0  0  0  0  0  0  0  0  0
    0.2979   20.4077  -33.1518 H   0  0  0  0  0  0  0  0  0  0  0  0
   -1.8523   20.7088  -34.3839 H   0  0  0  0  0  0  0  0  0  0  0  0
   -3.8747   21.5492  -33.1845 H   0  0  0  0  0  0  0  0  0  0  0  0
   -3.7479   22.0993  -30.7544 H   0  0  0  0  0  0  0  0  0  0  0  0
   -4.6235   22.7621  -28.2370 H   0  0  0  0  0  0  0  0  0  0  0  0
   -6.6436   21.7711  -29.3045 H   0  0  0  0  0  0  0  0  0  0  0  0
   -7.5445   19.8323  -30.6927 H   0  0  0  0  0  0  0  0  0  0  0  0
   -9.1950   19.9947  -31.3999 H   0  0  0  0  0  0  0  0  0  0  0  0
   -7.6510   17.7690  -31.7051 H   0  0  0  0  0  0  0  0  0  0  0  0
   -8.8631   18.3404  -32.9345 H   0  0  0  0  0  0  0  0  0  0  0  0
   -6.4046   17.6848  -33.6769 H   0  0  0  0  0  0  0  0  0  0  0  0
   -7.2479   19.1190  -34.3849 H   0  0  0  0  0  0  0  0  0  0  0  0
   -5.2134   19.1439  -32.1040 H   0  0  0  0  0  0  0  0  0  0  0  0
   -4.9597   19.7106  -33.8073 H   0  0  0  0  0  0  0  0  0  0  0  0
   -5.7276   21.3172  -31.6730 H   0  0  0  0  0  0  0  0  0  0  0  0
   -5.9637   21.6831  -33.4395 H   0  0  0  0  0  0  0  0  0  0  0  0
  1  2  2  0
  2  3  2  0
  2  4  1  0
  4  5  2  0
  5  6  1  0
  6  7  2  0
  7  8  1  0
  8  9  1  0
  9 10  1  0
 10 11  2  0
 11 12  1  0
 12 13  1  0
 13 14  2  0
 13 15  1  0
 15 16  1  0
 16 17  2  0
 17 18  1  0
 18 19  2  0
 19 20  1  0
 20 21  2  0
  7 22  1  0
 22 23  2  0
  2 24  1  0
 24 25  1  0
 25 26  1  0
 26 27  1  0
 27 28  1  0
 28 29  1  0
 23  4  1  0
 29 24  1  0
 15 10  1  0
 21 16  1  0
  5 30  1  0
  6 31  1  0
  8 32  1  0
  9 33  1  0
  9 34  1  0
 12 35  1  0
 17 36  1  0
 18 37  1  0
 19 38  1  0
 20 39  1  0
 21 40  1  0
 22 41  1  0
 23 42  1  0
 25 43  1  0
 25 44  1  0
 26 45  1  0
 26 46  1  0
 27 47  1  0
 27 48  1  0
 28 49  1  0
 28 50  1  0
 29 51  1  0
 29 52  1  0
M  END
>  <UniqueID>  (12) 
12

>  <SMILES>  (12) 
O=S(=O)(c1ccc(NCc2n[nH]c(=S)n2-c2ccccc2)cc1)N1CCCCC1

>  <Energy>  (12) 
99.09841005614385

>  <Genealogy>  (12) 
O=S(=O)(c1ccc(NCc2n[nH]c(=S)n2-c2ccccc2)cc1)N1CCCCC1 (3D coordinates assigned)
O=S(=O)(c1ccc(NCc2n[nH]c(=S)n2-c2ccccc2)cc1)N1CCCCC1 (nonaromatic ring conformer: 99.09841005614385 kcal/mol)

>  <smiles>  (12) 
O=S(=O)(c1ccc(NCc2n[nH]c(=S)n2-c2ccccc2)cc1)N1CCCCC1

>  <score_type>  (12) 
oracle

>  <origin>  (12) 
adgpu

>  <m_score__min__energy>  (12) 
-9.8800000000000008

>  <m_primary>  (12) 
energy

$$$$
12:0
     RDKit          3D

 57 61  0  0  0  0  0  0  0  0999 V2000
   -0.9700   23.3180  -26.5980 C   0  0  0  0  0  0  0  0  0  0  0  0
   -0.9680   22.5750  -27.9120 C   0  0  0  0  0  0  0  0  0  0  0  0
   -0.3000   21.3390  -27.9980 C   0  0  0  0  0  0  0  0  0  0  0  0
   -0.2710   20.6250  -29.1980 C   0  0  0  0  0  0  0  0  0  0  0  0
   -0.8940   21.1420  -30.3390 C   0  0  0  0  0  0  0  0  0  0  0  0
   -0.8820   20.2230  -31.8450 S   0  0  0  0  0  0  0  0  0  0  0  0
   -0.2510   18.8730  -31.6160 O   0  0  0  0  0  0  0  0  0  0  0  0
   -2.3020   20.0140  -32.3030 O   0  0  0  0  0  0  0  0  0  0  0  0
    0.0040   21.1140  -33.0570 N   0  0  0  0  0  0  0  0  0  0  0  0
    1.2530   20.4030  -33.3910 C   0  0  0  0  0  0  0  0  0  0  0  0
    1.9770   21.0980  -34.5640 C   0  0  0  0  0  0  0  0  0  0  0  0
    1.3000   22.2820  -34.9560 O   0  0  0  0  0  0  0  0  0  0  0  0
   -0.0120   21.9500  -35.3960 C   0  0  0  0  0  0  0  0  0  0  0  0
   -0.8230   21.2720  -34.2660 C   0  0  0  0  0  0  0  0  0  0  0  0
   -1.5610   22.3740  -30.2690 C   0  0  0  0  0  0  0  0  0  0  0  0
   -1.6270   23.0880  -29.0590 C   0  0  0  0  0  0  0  0  0  0  0  0
   -2.5180   24.6230  -29.0150 S   0  0  0  0  0  0  0  0  0  0  0  0
   -3.3980   24.7080  -27.7920 O   0  0  0  0  0  0  0  0  0  0  0  0
   -1.5410   25.7720  -28.9660 O   0  0  0  0  0  0  0  0  0  0  0  0
   -3.4760   24.7510  -30.4530 N   0  0  0  0  0  0  0  0  0  0  0  0
   -4.6510   23.9700  -30.7030 C   0  0  0  0  0  0  0  0  0  0  0  0
   -4.6010   22.8170  -31.5240 C   0  0  0  0  0  0  0  0  0  0  0  0
   -5.7680   22.0740  -31.6890 C   0  0  0  0  0  0  0  0  0  0  0  0
   -6.9610   22.4420  -31.0850 C   0  0  0  0  0  0  0  0  0  0  0  0
   -7.0320   23.5730  -30.2710 C   0  0  0  0  0  0  0  0  0  0  0  0
   -5.8660   24.3390  -30.0720 C   0  0  0  0  0  0  0  0  0  0  0  0
   -5.9060   25.4710  -29.2590 O   0  0  0  0  0  0  0  0  0  0  0  0
   -8.0550   21.4600  -31.3950 C   0  0  0  0  0  0  0  0  0  0  0  0
   -7.3010   20.4580  -32.2290 C   0  0  0  0  0  0  0  0  0  0  0  0
   -7.7790   19.2630  -32.7790 C   0  0  0  0  0  0  0  0  0  0  0  0
   -6.8860   18.4380  -33.4960 C   0  0  0  0  0  0  0  0  0  0  0  0
   -5.5410   18.8190  -33.6540 C   0  0  0  0  0  0  0  0  0  0  0  0
   -5.0740   20.0280  -33.1080 C   0  0  0  0  0  0  0  0  0  0  0  0
   -5.9800   20.8290  -32.3990 C   0  0  0  0  0  0  0  0  0  0  0  0
   -0.9681   22.5957  -25.7684 H   0  0  0  0  0  0  0  0  0  0  0  0
   -0.0736   23.9523  -26.5341 H   0  0  0  0  0  0  0  0  0  0  0  0
   -1.8698   23.9474  -26.5341 H   0  0  0  0  0  0  0  0  0  0  0  0
    0.2049   20.9308  -27.1100 H   0  0  0  0  0  0  0  0  0  0  0  0
    0.2430   19.6537  -29.2461 H   0  0  0  0  0  0  0  0  0  0  0  0
    1.9127   20.3983  -32.5108 H   0  0  0  0  0  0  0  0  0  0  0  0
    1.0062   19.3728  -33.6871 H   0  0  0  0  0  0  0  0  0  0  0  0
    2.9997   21.3561  -34.2520 H   0  0  0  0  0  0  0  0  0  0  0  0
    1.9952   20.4076  -35.4201 H   0  0  0  0  0  0  0  0  0  0  0  0
   -0.5296   22.8690  -35.7082 H   0  0  0  0  0  0  0  0  0  0  0  0
    0.0691   21.2471  -36.2383 H   0  0  0  0  0  0  0  0  0  0  0  0
   -1.6984   21.8935  -34.0264 H   0  0  0  0  0  0  0  0  0  0  0  0
   -1.1446   20.2772  -34.6081 H   0  0  0  0  0  0  0  0  0  0  0  0
   -2.0378   22.7863  -31.1705 H   0  0  0  0  0  0  0  0  0  0  0  0
   -3.6655   22.5161  -32.0183 H   0  0  0  0  0  0  0  0  0  0  0  0
   -7.9802   23.8613  -29.7936 H   0  0  0  0  0  0  0  0  0  0  0  0
   -5.1540   25.6870  -28.6130 H   0  0  0  0  0  0  0  0  0  0  0  0
   -8.4608   21.0029  -30.4804 H   0  0  0  0  0  0  0  0  0  0  0  0
   -8.9347   21.8971  -31.8901 H   0  0  0  0  0  0  0  0  0  0  0  0
   -8.8324   18.9718  -32.6546 H   0  0  0  0  0  0  0  0  0  0  0  0
   -7.2430   17.4937  -33.9328 H   0  0  0  0  0  0  0  0  0  0  0  0
   -4.8500   18.1669  -34.2083 H   0  0  0  0  0  0  0  0  0  0  0  0
   -4.0258   20.3368  -33.2339 H   0  0  0  0  0  0  0  0  0  0  0  0
  1  2  1  0
  2  3  2  0
  3  4  1  0
  4  5  2  0
  5  6  1  0
  6  7  2  0
  6  8  2  0
  6  9  1  0
  9 10  1  0
 10 11  1  0
 11 12  1  0
 12 13  1  0
 13 14  1  0
  5 15  1  0
 15 16  2  0
 16 17  1  0
 17 18  2  0
 17 19  2  0
 17 20  1  0
 20 21  1  0
 21 22  2  0
 22 23  1  0
 23 24  2  0
 24 25  1  0
 25 26  2  0
 26 27  1  0
 24 28  1  0
 28 29  1  0
 29 30  2  0
 30 31  1  0
 31 32  2  0
 32 33  1  0
 33 34  2  0
 16  2  1  0
 26 21  1  0
 34 29  1  0
 14  9  1  0
 34 23  1  0
  1 35  1  0
  1 36  1  0
  1 37  1  0
  3 38  1  0
  4 39  1  0
 10 40  1  0
 10 41  1  0
 11 42  1  0
 11 43  1  0
 13 44  1  0
 13 45  1  0
 14 46  1  0
 14 47  1  0
 15 48  1  0
 22 49  1  0
 25 50  1  0
 27 51  1  0
 28 52  1  0
 28 53  1  0
 30 54  1  0
 31 55  1  0
 32 56  1  0
 33 57  1  0
M  CHG  1  20  -1
M  END
>  <UniqueID>  (13) 
13

>  <SMILES>  (13) 
Cc1ccc(S(=O)(=O)N2CCOCC2)cc1S(=O)(=O)[N-]c1cc2c(cc1O)Cc1ccccc1-2

>  <Energy>  (13) 
98.88600738296617

>  <Genealogy>  (13) 
Cc1ccc(S(=O)(=O)N2CCOCC2)cc1S(=O)(=O)[N-]c1cc2c(cc1O)Cc1ccccc1-2 (protonated)
Cc1ccc(S(=O)(=O)N2CCOCC2)cc1S(=O)(=O)[N-]c1cc2c(cc1O)Cc1ccccc1-2 (3D coordinates assigned)
Cc1ccc(S(=O)(=O)N2CCOCC2)cc1S(=O)(=O)[N-]c1cc2c(cc1O)Cc1ccccc1-2 (nonaromatic ring conformer: 98.88600738296617 kcal/mol)

>  <smiles>  (13) 
Cc1ccc(S(=O)(=O)N2CCOCC2)cc1S(=O)(=O)Nc1cc2c(cc1O)Cc1ccccc1-2

>  <score_type>  (13) 
oracle

>  <origin>  (13) 
adgpu

>  <m_score__min__energy>  (13) 
-13.050000000000001

>  <m_primary>  (13) 
energy

$$$$
13:0
     RDKit          3D

 64 68  0  0  0  0  0  0  0  0999 V2000
    0.0270   21.1130  -33.0750 C   0  0  0  0  0  0  0  0  0  0  0  0
   -0.3980   20.0700  -32.0370 C   0  0  1  0  0  0  0  0  0  0  0  0
    0.3550   20.2560  -30.6890 C   0  0  0  0  0  0  0  0  0  0  0  0
   -0.7420   20.5380  -29.7210 C   0  0  0  0  0  0  0  0  0  0  0  0
   -0.6300   20.8150  -28.3580 C   0  0  0  0  0  0  0  0  0  0  0  0
   -1.8010   21.0730  -27.6280 C   0  0  0  0  0  0  0  0  0  0  0  0
   -3.0550   21.0640  -28.2710 C   0  0  0  0  0  0  0  0  0  0  0  0
   -3.1420   20.7850  -29.6440 C   0  0  0  0  0  0  0  0  0  0  0  0
   -1.9620   20.5050  -30.3420 C   0  0  0  0  0  0  0  0  0  0  0  0
   -1.8220   20.2160  -31.7210 N   0  0  0  0  0  0  0  0  0  0  0  0
   -3.1080   19.8450  -32.8300 S   0  0  0  0  0  0  0  0  0  0  0  0
   -2.5840   20.0080  -34.2300 O   0  0  0  0  0  0  0  0  0  0  0  0
   -3.5570   18.4230  -32.6450 O   0  0  0  0  0  0  0  0  0  0  0  0
   -4.4660   20.9440  -32.5780 C   0  0  0  0  0  0  0  0  0  0  0  0
   -5.7770   20.4910  -32.7800 C   0  0  0  0  0  0  0  0  0  0  0  0
   -6.8590   21.3350  -32.5320 C   0  0  0  0  0  0  0  0  0  0  0  0
   -6.6470   22.6410  -32.0860 C   0  0  0  0  0  0  0  0  0  0  0  0
   -5.3370   23.1260  -31.9130 C   0  0  0  0  0  0  0  0  0  0  0  0
   -5.0620   24.4470  -31.4170 N   0  0  0  0  0  0  0  0  0  0  0  0
   -5.4270   25.0270  -30.1550 C   0  0  0  0  0  0  0  0  0  0  0  0
   -6.1680   26.0390  -30.1000 O   0  0  0  0  0  0  0  0  0  0  0  0
   -4.9790   24.4310  -28.9330 N   0  0  0  0  0  0  0  0  0  0  0  0
   -3.6400   24.5020  -28.4250 C   0  0  0  0  0  0  0  0  0  0  0  0
   -3.4370   24.5180  -27.0400 C   0  0  0  0  0  0  0  0  0  0  0  0
   -2.1410   24.5690  -26.5170 C   0  0  0  0  0  0  0  0  0  0  0  0
   -1.0340   24.6430  -27.3750 C   0  0  0  0  0  0  0  0  0  0  0  0
    0.6000   24.6920  -26.7140 S   0  0  0  0  0  0  0  0  0  0  0  0
    1.5770   24.5330  -27.8470 O   0  0  0  0  0  0  0  0  0  0  0  0
    0.7900   23.5250  -25.7830 O   0  0  0  0  0  0  0  0  0  0  0  0
    0.9530   26.1830  -25.8640 N   0  0  0  0  0  0  0  0  0  0  0  0
    0.9790   26.0090  -24.3980 C   0  0  0  0  0  0  0  0  0  0  0  0
   -0.4310   26.0430  -23.7600 C   0  0  0  0  0  0  0  0  0  0  0  0
   -1.4450   26.4290  -24.6690 O   0  0  0  0  0  0  0  0  0  0  0  0
   -1.0540   27.6060  -25.3390 C   0  0  0  0  0  0  0  0  0  0  0  0
    0.1040   27.3110  -26.3080 C   0  0  0  0  0  0  0  0  0  0  0  0
   -1.2370   24.6530  -28.7610 C   0  0  0  0  0  0  0  0  0  0  0  0
   -2.5320   24.5820  -29.2850 C   0  0  0  0  0  0  0  0  0  0  0  0
   -4.2500   22.2690  -32.1580 C   0  0  0  0  0  0  0  0  0  0  0  0
   -2.9530   22.7410  -31.9750 O   0  0  0  0  0  0  0  0  0  0  0  0
    0.3940   22.0136  -32.5609 H   0  0  0  0  0  0  0  0  0  0  0  0
    0.8279   20.6983  -33.7048 H   0  0  0  0  0  0  0  0  0  0  0  0
   -0.8356   21.3762  -33.7048 H   0  0  0  0  0  0  0  0  0  0  0  0
   -0.1693   19.0886  -32.4781 H   0  0  0  0  0  0  0  0  0  0  0  0
    0.8996   19.3413  -30.4122 H   0  0  0  0  0  0  0  0  0  0  0  0
    1.1131   21.0523  -30.7252 H   0  0  0  0  0  0  0  0  0  0  0  0
    0.3539   20.8309  -27.8665 H   0  0  0  0  0  0  0  0  0  0  0  0
   -1.7395   21.2830  -26.5500 H   0  0  0  0  0  0  0  0  0  0  0  0
   -3.9681   21.2762  -27.6954 H   0  0  0  0  0  0  0  0  0  0  0  0
   -4.1142   20.7865  -30.1587 H   0  0  0  0  0  0  0  0  0  0  0  0
   -5.9531   19.4651  -33.1357 H   0  0  0  0  0  0  0  0  0  0  0  0
   -7.8848   20.9700  -32.6886 H   0  0  0  0  0  0  0  0  0  0  0  0
   -7.5062   23.2928  -31.8692 H   0  0  0  0  0  0  0  0  0  0  0  0
   -4.3010   24.4903  -26.3598 H   0  0  0  0  0  0  0  0  0  0  0  0
   -1.9891   24.5510  -25.4277 H   0  0  0  0  0  0  0  0  0  0  0  0
    1.4444   25.0392  -24.1683 H   0  0  0  0  0  0  0  0  0  0  0  0
    1.5511   26.8489  -23.9770 H   0  0  0  0  0  0  0  0  0  0  0  0
   -0.6668   25.0383  -23.3792 H   0  0  0  0  0  0  0  0  0  0  0  0
   -0.4085   26.7944  -22.9569 H   0  0  0  0  0  0  0  0  0  0  0  0
   -1.9095   28.0017  -25.9061 H   0  0  0  0  0  0  0  0  0  0  0  0
   -0.7189   28.3451  -24.5965 H   0  0  0  0  0  0  0  0  0  0  0  0
   -0.3172   27.0663  -27.2942 H   0  0  0  0  0  0  0  0  0  0  0  0
    0.7397   28.2079  -26.3456 H   0  0  0  0  0  0  0  0  0  0  0  0
   -0.3742   24.7170  -29.4403 H   0  0  0  0  0  0  0  0  0  0  0  0
   -2.6834   24.5888  -30.3745 H   0  0  0  0  0  0  0  0  0  0  0  0
  1  2  1  0
  2  3  1  0
  3  4  1  0
  4  5  2  0
  5  6  1  0
  6  7  2  0
  7  8  1  0
  8  9  2  0
  9 10  1  0
 10 11  1  0
 11 12  2  0
 11 13  2  0
 11 14  1  0
 14 15  2  0
 15 16  1  0
 16 17  2  0
 17 18  1  0
 18 19  1  0
 19 20  1  0
 20 21  2  0
 20 22  1  0
 22 23  1  0
 23 24  2  0
 24 25  1  0
 25 26  2  0
 26 27  1  0
 27 28  2  0
 27 29  2  0
 27 30  1  0
 30 31  1  0
 31 32  1  0
 32 33  1  0
 33 34  1  0
 34 35  1  0
 26 36  1  0
 36 37  2  0
 18 38  2  0
 38 39  1  0
 10  2  1  0
 38 14  1  0
  9  4  1  0
 37 23  1  0
 35 30  1  0
  1 40  1  0
  1 41  1  0
  1 42  1  0
  2 43  1  6
  3 44  1  0
  3 45  1  0
  5 46  1  0
  6 47  1  0
  7 48  1  0
  8 49  1  0
 15 50  1  0
 16 51  1  0
 17 52  1  0
 24 53  1  0
 25 54  1  0
 31 55  1  0
 31 56  1  0
 32 57  1  0
 32 58  1  0
 34 59  1  0
 34 60  1  0
 35 61  1  0
 35 62  1  0
 36 63  1  0
 37 64  1  0
M  CHG  3  19  -1  22  -1  39  -1
M  END
>  <UniqueID>  (14) 
14

>  <SMILES>  (14) 
C[C@H]1Cc2ccccc2N1S(=O)(=O)c1cccc([N-]C(=O)[N-]c2ccc(S(=O)(=O)N3CCOCC3)cc2)c1[O-]

>  <Energy>  (14) 
102.49025908007418

>  <Genealogy>  (14) 
CC1Cc2ccccc2N1S(=O)(=O)c1cccc([N-]C(=O)[N-]c2ccc(S(=O)(=O)N3CCOCC3)cc2)c1[O-] (protonated)
C[C@H]1Cc2ccccc2N1S(=O)(=O)c1cccc([N-]C(=O)[N-]c2ccc(S(=O)(=O)N3CCOCC3)cc2)c1[O-] (chirality)
C[C@H]1Cc2ccccc2N1S(=O)(=O)c1cccc([N-]C(=O)[N-]c2ccc(S(=O)(=O)N3CCOCC3)cc2)c1[O-] (3D coordinates assigned)
C[C@H]1Cc2ccccc2N1S(=O)(=O)c1cccc([N-]C(=O)[N-]c2ccc(S(=O)(=O)N3CCOCC3)cc2)c1[O-] (nonaromatic ring conformer: 102.49025908007418 kcal/mol)

>  <smiles>  (14) 
CC1Cc2ccccc2N1S(=O)(=O)c1cccc(NC(=O)Nc2ccc(S(=O)(=O)N3CCOCC3)cc2)c1O

>  <score_type>  (14) 
oracle

>  <origin>  (14) 
adgpu

>  <m_score__min__energy>  (14) 
-17.609999999999999

>  <m_primary>  (14) 
energy

$$$$
14:0
     RDKit          3D

 71 74  0  0  0  0  0  0  0  0999 V2000
   -0.1310   18.0670  -29.9380 C   0  0  0  0  0  0  0  0  0  0  0  0
    0.0870   19.3370  -30.7940 C   0  0  0  0  0  0  0  0  0  0  0  0
    1.6050   19.6400  -30.8570 C   0  0  0  0  0  0  0  0  0  0  0  0
   -0.3810   19.0760  -32.2500 C   0  0  0  0  0  0  0  0  0  0  0  0
   -1.8990   19.1410  -32.3880 C   0  0  0  0  0  0  0  0  0  0  0  0
   -2.4590   20.5410  -32.0370 C   0  0  0  0  0  0  0  0  0  0  0  0
   -3.9970   20.3880  -31.9060 C   0  0  0  0  0  0  0  0  0  0  0  0
   -2.1560   21.5380  -33.1770 C   0  0  0  0  0  0  0  0  0  0  0  0
   -1.8500   21.0730  -30.7300 C   0  0  0  0  0  0  0  0  0  0  0  0
   -2.4330   22.2030  -30.1150 C   0  0  0  0  0  0  0  0  0  0  0  0
   -1.9530   22.7010  -28.9010 C   0  0  0  0  0  0  0  0  0  0  0  0
   -2.6880   24.1320  -28.1770 S   0  0  0  0  0  0  0  0  0  0  0  0
   -2.1960   25.3790  -28.8580 O   0  0  0  0  0  0  0  0  0  0  0  0
   -2.3130   24.2080  -26.7240 O   0  0  0  0  0  0  0  0  0  0  0  0
   -4.4120   24.0100  -28.3120 N   0  0  0  0  0  0  0  0  0  0  0  0
   -5.0460   23.7460  -29.5730 C   0  0  0  0  0  0  0  0  0  0  0  0
   -5.9390   22.6720  -29.7110 C   0  0  0  0  0  0  0  0  0  0  0  0
   -6.5760   22.4200  -30.9380 C   0  0  0  0  0  0  0  0  0  0  0  0
   -7.4970   21.2690  -31.0790 C   0  0  0  0  0  0  0  0  0  0  0  0
   -8.6310   21.3000  -30.5300 O   0  0  0  0  0  0  0  0  0  0  0  0
   -7.1150   20.1110  -31.8350 N   0  0  0  0  0  0  0  0  0  0  0  0
   -7.2130   18.7850  -31.2170 C   0  0  0  0  0  0  0  0  0  0  0  0
   -6.1180   17.8320  -31.7480 C   0  0  0  0  0  0  0  0  0  0  0  0
   -5.4980   18.3070  -33.0030 N   0  0  0  0  0  0  0  0  0  0  0  0
   -4.6630   16.9980  -33.8070 S   0  0  0  0  0  0  0  0  0  0  0  0
   -5.6920   15.5480  -33.9610 C   0  0  0  0  0  0  0  0  0  0  0  0
   -3.4300   16.6360  -33.0240 O   0  0  0  0  0  0  0  0  0  0  0  0
   -4.2460   17.4460  -35.1800 O   0  0  0  0  0  0  0  0  0  0  0  0
   -6.4910   18.9110  -33.8990 C   0  0  0  0  0  0  0  0  0  0  0  0
   -6.9480   20.2370  -33.2880 C   0  0  0  0  0  0  0  0  0  0  0  0
   -6.2950   23.2500  -32.0380 C   0  0  0  0  0  0  0  0  0  0  0  0
   -5.3950   24.3080  -31.9100 C   0  0  0  0  0  0  0  0  0  0  0  0
   -4.7680   24.5570  -30.6850 C   0  0  0  0  0  0  0  0  0  0  0  0
   -3.8750   25.6180  -30.5780 O   0  0  0  0  0  0  0  0  0  0  0  0
   -0.8590   22.0900  -28.2910 C   0  0  0  0  0  0  0  0  0  0  0  0
   -0.2260   21.0120  -28.9070 C   0  0  0  0  0  0  0  0  0  0  0  0
   -0.6700   20.5110  -30.1510 C   0  0  0  0  0  0  0  0  0  0  0  0
   -0.0856   18.3316  -28.8713 H   0  0  0  0  0  0  0  0  0  0  0  0
   -1.1164   17.6351  -30.1670 H   0  0  0  0  0  0  0  0  0  0  0  0
    0.6540   17.3312  -30.1670 H   0  0  0  0  0  0  0  0  0  0  0  0
    2.0056   19.7200  -29.8357 H   0  0  0  0  0  0  0  0  0  0  0  0
    2.1194   18.8268  -31.3900 H   0  0  0  0  0  0  0  0  0  0  0  0
    1.7678   20.5884  -31.3900 H   0  0  0  0  0  0  0  0  0  0  0  0
    0.0673   19.8353  -32.9076 H   0  0  0  0  0  0  0  0  0  0  0  0
   -0.0595   18.0624  -32.5314 H   0  0  0  0  0  0  0  0  0  0  0  0
   -2.1708   18.9010  -33.4265 H   0  0  0  0  0  0  0  0  0  0  0  0
   -2.3334   18.4171  -31.6828 H   0  0  0  0  0  0  0  0  0  0  0  0
   -4.2734   20.3605  -30.8416 H   0  0  0  0  0  0  0  0  0  0  0  0
   -4.4931   21.2412  -32.3917 H   0  0  0  0  0  0  0  0  0  0  0  0
   -4.3152   19.4538  -32.3917 H   0  0  0  0  0  0  0  0  0  0  0  0
   -1.8615   22.5071  -32.7479 H   0  0  0  0  0  0  0  0  0  0  0  0
   -1.3360   21.1473  -33.7975 H   0  0  0  0  0  0  0  0  0  0  0  0
   -3.0547   21.6696  -33.7975 H   0  0  0  0  0  0  0  0  0  0  0  0
   -3.2836   22.7019  -30.6025 H   0  0  0  0  0  0  0  0  0  0  0  0
   -4.9480   23.8510  -27.4320 H   0  0  0  0  0  0  0  0  0  0  0  0
   -6.1426   22.0200  -28.8488 H   0  0  0  0  0  0  0  0  0  0  0  0
   -7.0995   18.8887  -30.1278 H   0  0  0  0  0  0  0  0  0  0  0  0
   -8.1949   18.3579  -31.4687 H   0  0  0  0  0  0  0  0  0  0  0  0
   -5.3333   17.7387  -30.9828 H   0  0  0  0  0  0  0  0  0  0  0  0
   -6.5985   16.8662  -31.9633 H   0  0  0  0  0  0  0  0  0  0  0  0
   -5.9552   15.1771  -32.9594 H   0  0  0  0  0  0  0  0  0  0  0  0
   -6.6100   15.8064  -34.5092 H   0  0  0  0  0  0  0  0  0  0  0  0
   -5.1451   14.7668  -34.5092 H   0  0  0  0  0  0  0  0  0  0  0  0
   -6.0397   19.0923  -34.8856 H   0  0  0  0  0  0  0  0  0  0  0  0
   -7.3501   18.2352  -34.0222 H   0  0  0  0  0  0  0  0  0  0  0  0
   -6.1943   21.0100  -33.4987 H   0  0  0  0  0  0  0  0  0  0  0  0
   -7.9155   20.5148  -33.7315 H   0  0  0  0  0  0  0  0  0  0  0  0
   -6.7873   23.0640  -33.0039 H   0  0  0  0  0  0  0  0  0  0  0  0
   -5.1774   24.9495  -32.7767 H   0  0  0  0  0  0  0  0  0  0  0  0
   -0.4943   22.4594  -27.3212 H   0  0  0  0  0  0  0  0  0  0  0  0
    0.6375   20.5413  -28.4142 H   0  0  0  0  0  0  0  0  0  0  0  0
  1  2  1  0
  2  3  1  0
  2  4  1  0
  4  5  1  0
  5  6  1  0
  6  7  1  0
  6  8  1  0
  6  9  1  0
  9 10  2  0
 10 11  1  0
 11 12  1  0
 12 13  2  0
 12 14  2  0
 12 15  1  0
 15 16  1  0
 16 17  2  0
 17 18  1  0
 18 19  1  0
 19 20  2  0
 19 21  1  0
 21 22  1  0
 22 23  1  0
 23 24  1  0
 24 25  1  0
 25 26  1  0
 25 27  2  0
 25 28  2  0
 24 29  1  0
 29 30  1  0
 18 31  2  0
 31 32  1  0
 32 33  2  0
 33 34  1  0
 11 35  2  0
 35 36  1  0
 36 37  2  0
 37  2  1  0
 37  9  1  0
 33 16  1  0
 30 21  1  0
  1 38  1  0
  1 39  1  0
  1 40  1  0
  3 41  1  0
  3 42  1  0
  3 43  1  0
  4 44  1  0
  4 45  1  0
  5 46  1  0
  5 47  1  0
  7 48  1  0
  7 49  1  0
  7 50  1  0
  8 51  1  0
  8 52  1  0
  8 53  1  0
 10 54  1  0
 15 55  1  0
 17 56  1  0
 22 57  1  0
 22 58  1  0
 23 59  1  0
 23 60  1  0
 26 61  1  0
 26 62  1  0
 26 63  1  0
 29 64  1  0
 29 65  1  0
 30 66  1  0
 30 67  1  0
 31 68  1  0
 32 69  1  0
 35 70  1  0
 36 71  1  0
M  CHG  1  34  -1
M  END
>  <UniqueID>  (15) 
15

>  <SMILES>  (15) 
CC1(C)CCC(C)(C)c2cc(S(=O)(=O)Nc3cc(C(=O)N4CCN(S(C)(=O)=O)CC4)ccc3[O-])ccc21

>  <Energy>  (15) 
84.57159902385841

>  <Genealogy>  (15) 
CC1(C)CCC(C)(C)c2cc(S(=O)(=O)Nc3cc(C(=O)N4CCN(S(C)(=O)=O)CC4)ccc3[O-])ccc21 (protonated)
CC1(C)CCC(C)(C)c2cc(S(=O)(=O)Nc3cc(C(=O)N4CCN(S(C)(=O)=O)CC4)ccc3[O-])ccc21 (3D coordinates assigned)
CC1(C)CCC(C)(C)c2cc(S(=O)(=O)Nc3cc(C(=O)N4CCN(S(C)(=O)=O)CC4)ccc3[O-])ccc21 (nonaromatic ring conformer: 84.57159902385841 kcal/mol)

>  <smiles>  (15) 
CC1(C)CCC(C)(C)c2cc(S(=O)(=O)Nc3cc(C(=O)N4CCN(S(C)(=O)=O)CC4)ccc3O)ccc21

>  <score_type>  (15) 
oracle

>  <origin>  (15) 
adgpu

>  <m_score__min__energy>  (15) 
-15.09

>  <m_primary>  (15) 
energy

$$$$
15:0
     RDKit          3D

 52 54  0  0  0  0  0  0  0  0999 V2000
   -4.1260   17.3270  -33.3590 N   0  0  0  0  0  0  0  0  0  0  0  0
   -5.6790   17.9940  -33.7210 S   0  0  0  0  0  0  0  0  0  0  0  0
   -6.7520   17.0280  -33.3050 O   0  0  0  0  0  0  0  0  0  0  0  0
   -5.7870   18.2250  -35.2030 O   0  0  0  0  0  0  0  0  0  0  0  0
   -5.8870   19.5150  -32.8560 C   0  0  0  0  0  0  0  0  0  0  0  0
   -5.0270   19.8600  -31.8040 C   0  0  0  0  0  0  0  0  0  0  0  0
   -5.2040   21.0650  -31.1180 C   0  0  0  0  0  0  0  0  0  0  0  0
   -6.2450   21.9370  -31.4750 C   0  0  0  0  0  0  0  0  0  0  0  0
   -6.4400   23.2370  -30.7420 C   0  0  0  0  0  0  0  0  0  0  0  0
   -5.4610   23.3760  -29.6620 N   0  0  0  0  0  0  0  0  0  0  0  0
   -3.9140   23.8820  -30.2770 S   0  0  0  0  0  0  0  0  0  0  0  0
   -3.6660   23.2220  -31.6050 O   0  0  0  0  0  0  0  0  0  0  0  0
   -3.9280   25.3720  -30.4670 O   0  0  0  0  0  0  0  0  0  0  0  0
   -2.6310   23.4680  -29.1370 C   0  0  0  0  0  0  0  0  0  0  0  0
   -2.6180   22.1950  -28.5500 C   0  0  0  0  0  0  0  0  0  0  0  0
   -1.5960   21.8290  -27.6660 C   0  0  0  0  0  0  0  0  0  0  0  0
   -1.5770   20.2000  -26.9960 S   0  0  0  0  0  0  0  0  0  0  0  0
   -2.7780   19.4580  -27.5130 O   0  0  0  0  0  0  0  0  0  0  0  0
   -1.6480   20.2550  -25.4940 O   0  0  0  0  0  0  0  0  0  0  0  0
   -0.1180   19.3730  -27.4880 N   0  0  0  0  0  0  0  0  0  0  0  0
   -0.2990   17.9100  -27.3540 C   0  0  0  0  0  0  0  0  0  0  0  0
    0.7380   17.1400  -28.1780 C   0  0  0  0  0  0  0  0  0  0  0  0
    0.5920   17.4470  -29.6780 C   0  0  0  0  0  0  0  0  0  0  0  0
   -0.0390   18.8240  -29.9450 C   0  0  0  0  0  0  0  0  0  0  0  0
    0.3180   19.8210  -28.8340 C   0  0  0  0  0  0  0  0  0  0  0  0
   -0.5910   22.7530  -27.3450 C   0  0  0  0  0  0  0  0  0  0  0  0
   -0.6130   24.0320  -27.9060 C   0  0  0  0  0  0  0  0  0  0  0  0
   -1.6280   24.3950  -28.7980 C   0  0  0  0  0  0  0  0  0  0  0  0
   -1.6310   25.6780  -29.3360 O   0  0  0  0  0  0  0  0  0  0  0  0
   -7.1130   21.5820  -32.5200 C   0  0  0  0  0  0  0  0  0  0  0  0
   -6.9350   20.3770  -33.2060 C   0  0  0  0  0  0  0  0  0  0  0  0
   -3.4130   17.9890  -33.7370 H   0  0  0  0  0  0  0  0  0  0  0  0
   -4.0250   17.3380  -32.3200 H   0  0  0  0  0  0  0  0  0  0  0  0
   -4.2107   19.1806  -31.5176 H   0  0  0  0  0  0  0  0  0  0  0  0
   -4.5247   21.3313  -30.2948 H   0  0  0  0  0  0  0  0  0  0  0  0
   -6.3186   24.0713  -31.4486 H   0  0  0  0  0  0  0  0  0  0  0  0
   -7.4500   23.2485  -30.3064 H   0  0  0  0  0  0  0  0  0  0  0  0
   -3.4177   21.4775  -28.7860 H   0  0  0  0  0  0  0  0  0  0  0  0
   -0.1927   17.6319  -26.2951 H   0  0  0  0  0  0  0  0  0  0  0  0
   -1.3003   17.6497  -27.7277 H   0  0  0  0  0  0  0  0  0  0  0  0
    1.7464   17.4305  -27.8483 H   0  0  0  0  0  0  0  0  0  0  0  0
    0.5764   16.0628  -28.0245 H   0  0  0  0  0  0  0  0  0  0  0  0
    1.5896   17.4217  -30.1408 H   0  0  0  0  0  0  0  0  0  0  0  0
   -0.0765   16.6869  -30.1085 H   0  0  0  0  0  0  0  0  0  0  0  0
    0.3326   19.2090  -30.9061 H   0  0  0  0  0  0  0  0  0  0  0  0
   -1.1325   18.7077  -29.9715 H   0  0  0  0  0  0  0  0  0  0  0  0
    1.4097   19.9554  -28.8217 H   0  0  0  0  0  0  0  0  0  0  0  0
   -0.2100   20.7605  -29.0541 H   0  0  0  0  0  0  0  0  0  0  0  0
    0.2147   22.4705  -26.6514 H   0  0  0  0  0  0  0  0  0  0  0  0
    0.1716   24.7575  -27.6452 H   0  0  0  0  0  0  0  0  0  0  0  0
   -7.9367   22.2550  -32.8001 H   0  0  0  0  0  0  0  0  0  0  0  0
   -7.6195   20.1047  -34.0229 H   0  0  0  0  0  0  0  0  0  0  0  0
  1  2  1  0
  2  3  2  0
  2  4  2  0
  2  5  1  0
  5  6  2  0
  6  7  1  0
  7  8  2  0
  8  9  1  0
  9 10  1  0
 10 11  1  0
 11 12  2  0
 11 13  2  0
 11 14  1  0
 14 15  2  0
 15 16  1  0
 16 17  1  0
 17 18  2  0
 17 19  2  0
 17 20  1  0
 20 21  1  0
 21 22  1  0
 22 23  1  0
 23 24  1  0
 24 25  1  0
 16 26  2  0
 26 27  1  0
 27 28  2  0
 28 29  1  0
  8 30  1  0
 30 31  2  0
 31  5  1  0
 28 14  1  0
 25 20  1  0
  1 32  1  0
  1 33  1  0
  6 34  1  0
  7 35  1  0
  9 36  1  0
  9 37  1  0
 15 38  1  0
 21 39  1  0
 21 40  1  0
 22 41  1  0
 22 42  1  0
 23 43  1  0
 23 44  1  0
 24 45  1  0
 24 46  1  0
 25 47  1  0
 25 48  1  0
 26 49  1  0
 27 50  1  0
 30 51  1  0
 31 52  1  0
M  CHG  2  10  -1  29  -1
M  END
>  <UniqueID>  (16) 
16

>  <SMILES>  (16) 
NS(=O)(=O)c1ccc(C[N-]S(=O)(=O)c2cc(S(=O)(=O)N3CCCCC3)ccc2[O-])cc1

>  <Energy>  (16) 
55.96592314750091

>  <Genealogy>  (16) 
NS(=O)(=O)c1ccc(C[N-]S(=O)(=O)c2cc(S(=O)(=O)N3CCCCC3)ccc2[O-])cc1 (protonated)
NS(=O)(=O)c1ccc(C[N-]S(=O)(=O)c2cc(S(=O)(=O)N3CCCCC3)ccc2[O-])cc1 (3D coordinates assigned)
NS(=O)(=O)c1ccc(C[N-]S(=O)(=O)c2cc(S(=O)(=O)N3CCCCC3)ccc2[O-])cc1 (nonaromatic ring conformer: 55.96592314750091 kcal/mol)

>  <smiles>  (16) 
NS(=O)(=O)c1ccc(CNS(=O)(=O)c2cc(S(=O)(=O)N3CCCCC3)ccc2O)cc1

>  <score_type>  (16) 
oracle

>  <origin>  (16) 
adgpu

>  <m_score__min__energy>  (16) 
-14.48

>  <m_primary>  (16) 
energy

$$$$
16:0
     RDKit          3D

 61 64  0  0  0  0  0  0  0  0999 V2000
   -1.8220   22.8620  -27.5970 O   0  0  0  0  0  0  0  0  0  0  0  0
   -2.4490   23.4520  -28.8290 S   0  0  0  0  0  0  0  0  0  0  0  0
   -1.8170   24.7900  -29.0940 O   0  0  0  0  0  0  0  0  0  0  0  0
   -4.1490   23.6690  -28.5500 N   0  0  0  0  0  0  0  0  0  0  0  0
   -5.1040   23.7930  -29.6100 C   0  0  0  0  0  0  0  0  0  0  0  0
   -6.2120   22.9350  -29.6780 C   0  0  0  0  0  0  0  0  0  0  0  0
   -7.1080   23.0200  -30.7520 C   0  0  0  0  0  0  0  0  0  0  0  0
   -8.4600   21.8970  -30.8790 S   0  0  0  0  0  0  0  0  0  0  0  0
   -9.1980   21.8850  -29.5690 O   0  0  0  0  0  0  0  0  0  0  0  0
   -9.4070   22.3530  -31.9560 O   0  0  0  0  0  0  0  0  0  0  0  0
   -7.8710   20.2950  -31.2420 N   0  0  0  0  0  0  0  0  0  0  0  0
   -6.7010   20.3850  -32.1420 C   0  0  0  0  0  0  0  0  0  0  0  0
   -6.3470   19.0290  -32.7940 C   0  0  0  0  0  0  0  0  0  0  0  0
   -6.9900   17.8600  -32.0440 C   0  0  0  0  0  0  0  0  0  0  0  0
   -8.5160   18.0220  -31.9750 C   0  0  0  0  0  0  0  0  0  0  0  0
   -8.9470   19.4960  -31.8500 C   0  0  0  0  0  0  0  0  0  0  0  0
   -6.9310   24.0130  -31.7240 C   0  0  0  0  0  0  0  0  0  0  0  0
   -5.8600   24.9050  -31.6290 C   0  0  0  0  0  0  0  0  0  0  0  0
   -4.9420   24.7970  -30.5740 C   0  0  0  0  0  0  0  0  0  0  0  0
   -3.8640   25.6760  -30.4870 O   0  0  0  0  0  0  0  0  0  0  0  0
   -2.1510   22.3830  -30.1960 C   0  0  0  0  0  0  0  0  0  0  0  0
   -3.0360   22.3730  -31.2840 C   0  0  0  0  0  0  0  0  0  0  0  0
   -2.8660   21.4540  -32.3220 C   0  0  0  0  0  0  0  0  0  0  0  0
   -1.8060   20.5400  -32.2870 C   0  0  0  0  0  0  0  0  0  0  0  0
   -1.6110   19.3540  -33.5790 S   0  0  0  0  0  0  0  0  0  0  0  0
   -0.9070   18.1420  -33.0330 O   0  0  0  0  0  0  0  0  0  0  0  0
   -2.9670   18.9230  -34.0640 O   0  0  0  0  0  0  0  0  0  0  0  0
   -0.6900   19.9950  -34.9170 N   0  0  0  0  0  0  0  0  0  0  0  0
   -0.1680   21.3330  -34.5900 C   0  0  0  0  0  0  0  0  0  0  0  0
    0.8250   21.8080  -35.6710 C   0  0  0  0  0  0  0  0  0  0  0  0
    0.7840   20.9670  -36.8080 O   0  0  0  0  0  0  0  0  0  0  0  0
    1.2110   19.6630  -36.4560 C   0  0  0  0  0  0  0  0  0  0  0  0
    0.4160   19.0910  -35.2630 C   0  0  0  0  0  0  0  0  0  0  0  0
   -0.9110   20.5600  -31.2080 C   0  0  0  0  0  0  0  0  0  0  0  0
   -1.0820   21.4770  -30.1670 C   0  0  0  0  0  0  0  0  0  0  0  0
   -6.3782   22.1918  -28.8842 H   0  0  0  0  0  0  0  0  0  0  0  0
   -6.9237   21.1111  -32.9378 H   0  0  0  0  0  0  0  0  0  0  0  0
   -5.8381   20.6988  -31.5363 H   0  0  0  0  0  0  0  0  0  0  0  0
   -6.7067   19.0277  -33.8335 H   0  0  0  0  0  0  0  0  0  0  0  0
   -5.2548   18.9034  -32.7569 H   0  0  0  0  0  0  0  0  0  0  0  0
   -6.7512   16.9223  -32.5671 H   0  0  0  0  0  0  0  0  0  0  0  0
   -6.5931   17.8413  -31.0183 H   0  0  0  0  0  0  0  0  0  0  0  0
   -8.9573   17.6017  -32.8908 H   0  0  0  0  0  0  0  0  0  0  0  0
   -8.8684   17.4931  -31.0772 H   0  0  0  0  0  0  0  0  0  0  0  0
   -9.1729   19.8937  -32.8504 H   0  0  0  0  0  0  0  0  0  0  0  0
   -9.8398   19.5538  -31.2100 H   0  0  0  0  0  0  0  0  0  0  0  0
   -7.6369   24.0906  -32.5640 H   0  0  0  0  0  0  0  0  0  0  0  0
   -5.7362   25.6950  -32.3844 H   0  0  0  0  0  0  0  0  0  0  0  0
   -3.1850   25.6090  -29.7390 H   0  0  0  0  0  0  0  0  0  0  0  0
   -3.8676   23.0921  -31.3200 H   0  0  0  0  0  0  0  0  0  0  0  0
   -3.5671   21.4483  -33.1696 H   0  0  0  0  0  0  0  0  0  0  0  0
   -1.0058   22.0435  -34.5315 H   0  0  0  0  0  0  0  0  0  0  0  0
    0.3565   21.2826  -33.6244 H   0  0  0  0  0  0  0  0  0  0  0  0
    0.5635   22.8329  -35.9731 H   0  0  0  0  0  0  0  0  0  0  0  0
    1.8406   21.7752  -35.2498 H   0  0  0  0  0  0  0  0  0  0  0  0
    1.0750   18.9997  -37.3229 H   0  0  0  0  0  0  0  0  0  0  0  0
    2.2686   19.7227  -36.1594 H   0  0  0  0  0  0  0  0  0  0  0  0
    0.0097   18.1056  -35.5348 H   0  0  0  0  0  0  0  0  0  0  0  0
    1.0862   18.9918  -34.3964 H   0  0  0  0  0  0  0  0  0  0  0  0
   -0.0705   19.8509  -31.1805 H   0  0  0  0  0  0  0  0  0  0  0  0
   -0.3762   21.4876  -29.3234 H   0  0  0  0  0  0  0  0  0  0  0  0
  1  2  2  0
  2  3  2  0
  2  4  1  0
  4  5  1  0
  5  6  2  0
  6  7  1  0
  7  8  1  0
  8  9  2  0
  8 10  2  0
  8 11  1  0
 11 12  1  0
 12 13  1  0
 13 14  1  0
 14 15  1  0
 15 16  1  0
  7 17  2  0
 17 18  1  0
 18 19  2  0
 19 20  1  0
  2 21  1  0
 21 22  2  0
 22 23  1  0
 23 24  2  0
 24 25  1  0
 25 26  2  0
 25 27  2  0
 25 28  1  0
 28 29  1  0
 29 30  1  0
 30 31  1  0
 31 32  1  0
 32 33  1  0
 24 34  1  0
 34 35  2  0
 19  5  1  0
 35 21  1  0
 16 11  1  0
 33 28  1  0
  6 36  1  0
 12 37  1  0
 12 38  1  0
 13 39  1  0
 13 40  1  0
 14 41  1  0
 14 42  1  0
 15 43  1  0
 15 44  1  0
 16 45  1  0
 16 46  1  0
 17 47  1  0
 18 48  1  0
 20 49  1  0
 22 50  1  0
 23 51  1  0
 29 52  1  0
 29 53  1  0
 30 54  1  0
 30 55  1  0
 32 56  1  0
 32 57  1  0
 33 58  1  0
 33 59  1  0
 34 60  1  0
 35 61  1  0
M  CHG  1   4  -1
M  END
>  <UniqueID>  (17) 
17

>  <SMILES>  (17) 
O=S(=O)([N-]c1cc(S(=O)(=O)N2CCCCC2)ccc1O)c1ccc(S(=O)(=O)N2CCOCC2)cc1

>  <Energy>  (17) 
79.1011460081773

>  <Genealogy>  (17) 
O=S(=O)([N-]c1cc(S(=O)(=O)N2CCCCC2)ccc1O)c1ccc(S(=O)(=O)N2CCOCC2)cc1 (protonated)
O=S(=O)([N-]c1cc(S(=O)(=O)N2CCCCC2)ccc1O)c1ccc(S(=O)(=O)N2CCOCC2)cc1 (3D coordinates assigned)
O=S(=O)([N-]c1cc(S(=O)(=O)N2CCCCC2)ccc1O)c1ccc(S(=O)(=O)N2CCOCC2)cc1 (nonaromatic ring conformer: 79.1011460081773 kcal/mol)

>  <smiles>  (17) 
O=S(=O)(Nc1cc(S(=O)(=O)N2CCCCC2)ccc1O)c1ccc(S(=O)(=O)N2CCOCC2)cc1

>  <score_type>  (17) 
oracle

>  <origin>  (17) 
adgpu

>  <m_score__min__energy>  (17) 
-13.720000000000001

>  <m_primary>  (17) 
energy

$$$$
17:0
     RDKit          3D

 54 56  0  0  0  0  0  0  0  0999 V2000
   -4.1880   19.1820  -33.4710 C   0  0  0  0  0  0  0  0  0  0  0  0
   -4.6020   17.9240  -34.2330 C   0  0  0  0  0  0  0  0  0  0  0  0
   -6.0900   17.5980  -34.0410 C   0  0  0  0  0  0  0  0  0  0  0  0
   -6.8820   18.8110  -33.8280 N   0  0  0  0  0  0  0  0  0  0  0  0
   -7.6740   18.9900  -32.6460 C   0  0  0  0  0  0  0  0  0  0  0  0
   -7.6540   18.1200  -31.7330 O   0  0  0  0  0  0  0  0  0  0  0  0
   -8.4730   20.2530  -32.4750 C   0  0  0  0  0  0  0  0  0  0  0  0
   -7.6410   21.3870  -31.9330 C   0  0  0  0  0  0  0  0  0  0  0  0
   -6.5260   21.8520  -32.6490 C   0  0  0  0  0  0  0  0  0  0  0  0
   -5.7570   22.9080  -32.1480 C   0  0  0  0  0  0  0  0  0  0  0  0
   -6.1030   23.5190  -30.9360 C   0  0  0  0  0  0  0  0  0  0  0  0
   -5.0820   24.7760  -30.2490 S   0  0  0  0  0  0  0  0  0  0  0  0
   -5.3730   26.1070  -30.8860 O   0  0  0  0  0  0  0  0  0  0  0  0
   -5.3400   24.8790  -28.7730 O   0  0  0  0  0  0  0  0  0  0  0  0
   -3.4310   24.3360  -30.5150 N   0  0  0  0  0  0  0  0  0  0  0  0
   -2.8670   23.1840  -29.8810 C   0  0  0  0  0  0  0  0  0  0  0  0
   -3.5040   21.9450  -30.0190 C   0  0  0  0  0  0  0  0  0  0  0  0
   -3.0160   20.8200  -29.3590 C   0  0  0  0  0  0  0  0  0  0  0  0
   -1.8670   20.9150  -28.5660 C   0  0  0  0  0  0  0  0  0  0  0  0
   -1.2000   22.1470  -28.4270 C   0  0  0  0  0  0  0  0  0  0  0  0
   -1.7160   23.3050  -29.0680 C   0  0  0  0  0  0  0  0  0  0  0  0
   -1.1210   24.6430  -28.8460 C   0  0  0  0  0  0  0  0  0  0  0  0
    0.1060   24.7600  -28.5860 O   0  0  0  0  0  0  0  0  0  0  0  0
   -1.9000   25.7890  -28.9660 O   0  0  0  0  0  0  0  0  0  0  0  0
    0.0460   22.1630  -27.5660 C   0  0  0  0  0  0  0  0  0  0  0  0
    0.9270   20.9340  -27.8470 C   0  0  0  0  0  0  0  0  0  0  0  0
    0.1600   19.5890  -27.9050 C   0  0  0  0  0  0  0  0  0  0  0  0
   -1.3670   19.7220  -27.7950 C   0  0  0  0  0  0  0  0  0  0  0  0
   -7.2190   23.0610  -30.2240 C   0  0  0  0  0  0  0  0  0  0  0  0
   -7.9900   22.0080  -30.7240 C   0  0  0  0  0  0  0  0  0  0  0  0
   -4.2503   18.9926  -32.3892 H   0  0  0  0  0  0  0  0  0  0  0  0
   -3.1547   19.4488  -33.7376 H   0  0  0  0  0  0  0  0  0  0  0  0
   -4.8609   20.0103  -33.7376 H   0  0  0  0  0  0  0  0  0  0  0  0
   -4.4077   18.0780  -35.3047 H   0  0  0  0  0  0  0  0  0  0  0  0
   -4.0161   17.0804  -33.8393 H   0  0  0  0  0  0  0  0  0  0  0  0
   -6.4615   17.0816  -34.9384 H   0  0  0  0  0  0  0  0  0  0  0  0
   -6.1913   16.9590  -33.1514 H   0  0  0  0  0  0  0  0  0  0  0  0
   -6.8900   19.5670  -34.5540 H   0  0  0  0  0  0  0  0  0  0  0  0
   -8.8804   20.5491  -33.4530 H   0  0  0  0  0  0  0  0  0  0  0  0
   -9.2754   20.0483  -31.7510 H   0  0  0  0  0  0  0  0  0  0  0  0
   -6.2562   21.3842  -33.6073 H   0  0  0  0  0  0  0  0  0  0  0  0
   -4.8778   23.2596  -32.7078 H   0  0  0  0  0  0  0  0  0  0  0  0
   -4.3979   21.8593  -30.6544 H   0  0  0  0  0  0  0  0  0  0  0  0
   -3.5345   19.8553  -29.4612 H   0  0  0  0  0  0  0  0  0  0  0  0
    0.6214   23.0751  -27.7831 H   0  0  0  0  0  0  0  0  0  0  0  0
   -0.2584   22.1413  -26.5092 H   0  0  0  0  0  0  0  0  0  0  0  0
    1.4278   21.0851  -28.8146 H   0  0  0  0  0  0  0  0  0  0  0  0
    1.6298   20.8555  -27.0044 H   0  0  0  0  0  0  0  0  0  0  0  0
    0.3944   19.1006  -28.8624 H   0  0  0  0  0  0  0  0  0  0  0  0
    0.4871   19.0040  -27.0328 H   0  0  0  0  0  0  0  0  0  0  0  0
   -1.8363   18.8123  -28.1977 H   0  0  0  0  0  0  0  0  0  0  0  0
   -1.6293   19.8574  -26.7353 H   0  0  0  0  0  0  0  0  0  0  0  0
   -7.4896   23.5320  -29.2675 H   0  0  0  0  0  0  0  0  0  0  0  0
   -8.8744   21.6645  -30.1673 H   0  0  0  0  0  0  0  0  0  0  0  0
  1  2  1  0
  2  3  1  0
  3  4  1  0
  4  5  1  0
  5  6  2  0
  5  7  1  0
  7  8  1  0
  8  9  2  0
  9 10  1  0
 10 11  2  0
 11 12  1  0
 12 13  2  0
 12 14  2  0
 12 15  1  0
 15 16  1  0
 16 17  2  0
 17 18  1  0
 18 19  2  0
 19 20  1  0
 20 21  2  0
 21 22  1  0
 22 23  2  0
 22 24  1  0
 20 25  1  0
 25 26  1  0
 26 27  1  0
 27 28  1  0
 11 29  1  0
 29 30  2  0
 30  8  1  0
 21 16  1  0
 28 19  1  0
  1 31  1  0
  1 32  1  0
  1 33  1  0
  2 34  1  0
  2 35  1  0
  3 36  1  0
  3 37  1  0
  4 38  1  0
  7 39  1  0
  7 40  1  0
  9 41  1  0
 10 42  1  0
 17 43  1  0
 18 44  1  0
 25 45  1  0
 25 46  1  0
 26 47  1  0
 26 48  1  0
 27 49  1  0
 27 50  1  0
 28 51  1  0
 28 52  1  0
 29 53  1  0
 30 54  1  0
M  CHG  2  15  -1  24  -1
M  END
>  <UniqueID>  (18) 
18

>  <SMILES>  (18) 
CCCNC(=O)Cc1ccc(S(=O)(=O)[N-]c2ccc3c(c2C(=O)[O-])CCCC3)cc1

>  <Energy>  (18) 
67.27676728251905

>  <Genealogy>  (18) 
CCCNC(=O)Cc1ccc(S(=O)(=O)[N-]c2ccc3c(c2C(=O)[O-])CCCC3)cc1 (protonated)
CCCNC(=O)Cc1ccc(S(=O)(=O)[N-]c2ccc3c(c2C(=O)[O-])CCCC3)cc1 (3D coordinates assigned)
CCCNC(=O)Cc1ccc(S(=O)(=O)[N-]c2ccc3c(c2C(=O)[O-])CCCC3)cc1 (nonaromatic ring conformer: 67.27676728251905 kcal/mol)

>  <smiles>  (18) 
CCCNC(=O)Cc1ccc(S(=O)(=O)Nc2ccc3c(c2C(=O)O)CCCC3)cc1

>  <score_type>  (18) 
oracle

>  <origin>  (18) 
adgpu

>  <m_score__min__energy>  (18) 
-13.44

>  <m_primary>  (18) 
energy

$$$$
18:0
     RDKit          3D

 49 51  0  0  0  0  0  0  0  0999 V2000
    0.6900   17.1880  -27.7590 C   0  0  0  0  0  0  0  0  0  0  0  0
    0.8970   18.5440  -28.1410 O   0  0  0  0  0  0  0  0  0  0  0  0
    0.2570   19.1720  -29.2200 C   0  0  0  0  0  0  0  0  0  0  0  0
    0.1250   18.4630  -30.4160 C   0  0  0  0  0  0  0  0  0  0  0  0
   -0.5050   19.0410  -31.5180 C   0  0  0  0  0  0  0  0  0  0  0  0
   -1.0250   20.3400  -31.4390 C   0  0  0  0  0  0  0  0  0  0  0  0
   -1.8060   21.0430  -32.8590 S   0  0  0  0  0  0  0  0  0  0  0  0
   -0.7830   21.6480  -33.7790 O   0  0  0  0  0  0  0  0  0  0  0  0
   -2.5490   19.9530  -33.5790 O   0  0  0  0  0  0  0  0  0  0  0  0
   -2.9090   22.2920  -32.3680 N   0  0  0  0  0  0  0  0  0  0  0  0
   -4.3230   22.0740  -32.2730 C   0  0  0  0  0  0  0  0  0  0  0  0
   -4.8470   20.8390  -32.7080 C   0  0  0  0  0  0  0  0  0  0  0  0
   -6.2230   20.6410  -32.6230 C   0  0  0  0  0  0  0  0  0  0  0  0
   -7.0580   21.5950  -32.1120 C   0  0  0  0  0  0  0  0  0  0  0  0
   -6.5800   22.8160  -31.6390 C   0  0  0  0  0  0  0  0  0  0  0  0
   -5.1850   23.0610  -31.7110 C   0  0  0  0  0  0  0  0  0  0  0  0
   -4.6260   24.2480  -31.2140 O   0  0  0  0  0  0  0  0  0  0  0  0
   -5.3410   25.2320  -30.4760 C   0  0  0  0  0  0  0  0  0  0  0  0
   -8.3230   21.1270  -32.1110 N   0  0  0  0  0  0  0  0  0  0  0  0
   -9.5160   21.7700  -31.5640 C   0  0  0  0  0  0  0  0  0  0  0  0
   -8.2120   19.8710  -32.6100 C   0  0  0  0  0  0  0  0  0  0  0  0
   -9.1860   19.0770  -32.7200 O   0  0  0  0  0  0  0  0  0  0  0  0
   -6.9410   19.5490  -32.9580 N   0  0  0  0  0  0  0  0  0  0  0  0
   -6.4450   18.2660  -33.4450 C   0  0  0  0  0  0  0  0  0  0  0  0
   -0.8830   21.0800  -30.2480 C   0  0  0  0  0  0  0  0  0  0  0  0
   -1.3720   22.3940  -30.2000 O   0  0  0  0  0  0  0  0  0  0  0  0
   -2.2590   22.8950  -29.2040 C   0  0  0  0  0  0  0  0  0  0  0  0
   -0.2460   20.4850  -29.1400 C   0  0  0  0  0  0  0  0  0  0  0  0
    0.6787   17.1139  -26.6616 H   0  0  0  0  0  0  0  0  0  0  0  0
   -0.2722   16.8368  -28.1602 H   0  0  0  0  0  0  0  0  0  0  0  0
    1.5036   16.5658  -28.1602 H   0  0  0  0  0  0  0  0  0  0  0  0
    0.5214   17.4396  -30.4896 H   0  0  0  0  0  0  0  0  0  0  0  0
   -0.5943   18.4732  -32.4559 H   0  0  0  0  0  0  0  0  0  0  0  0
   -2.5010   23.1320  -31.9010 H   0  0  0  0  0  0  0  0  0  0  0  0
   -4.1867   20.0533  -33.1038 H   0  0  0  0  0  0  0  0  0  0  0  0
   -7.2655   23.5683  -31.2217 H   0  0  0  0  0  0  0  0  0  0  0  0
   -5.2090   25.0504  -29.3992 H   0  0  0  0  0  0  0  0  0  0  0  0
   -4.9568   26.2312  -30.7291 H   0  0  0  0  0  0  0  0  0  0  0  0
   -6.4100   25.1752  -30.7291 H   0  0  0  0  0  0  0  0  0  0  0  0
   -9.4736   21.7472  -30.4651 H   0  0  0  0  0  0  0  0  0  0  0  0
   -9.5600   22.8140  -31.9076 H   0  0  0  0  0  0  0  0  0  0  0  0
  -10.4123   21.2328  -31.9076 H   0  0  0  0  0  0  0  0  0  0  0  0
   -6.1956   17.6208  -32.5897 H   0  0  0  0  0  0  0  0  0  0  0  0
   -7.2205   17.7812  -34.0562 H   0  0  0  0  0  0  0  0  0  0  0  0
   -5.5450   18.4289  -34.0562 H   0  0  0  0  0  0  0  0  0  0  0  0
   -1.8560   22.6674  -28.2061 H   0  0  0  0  0  0  0  0  0  0  0  0
   -2.3612   23.9842  -29.3184 H   0  0  0  0  0  0  0  0  0  0  0  0
   -3.2446   22.4202  -29.3184 H   0  0  0  0  0  0  0  0  0  0  0  0
   -0.1408   21.0521  -28.2034 H   0  0  0  0  0  0  0  0  0  0  0  0
  1  2  1  0
  2  3  1  0
  3  4  2  0
  4  5  1  0
  5  6  2  0
  6  7  1  0
  7  8  2  0
  7  9  2  0
  7 10  1  0
 10 11  1  0
 11 12  2  0
 12 13  1  0
 13 14  2  0
 14 15  1  0
 15 16  2  0
 16 17  1  0
 17 18  1  0
 14 19  1  0
 19 20  1  0
 19 21  1  0
 21 22  2  0
 21 23  1  0
 23 24  1  0
  6 25  1  0
 25 26  1  0
 26 27  1  0
 25 28  2  0
 28  3  1  0
 16 11  1  0
 23 13  1  0
  1 29  1  0
  1 30  1  0
  1 31  1  0
  4 32  1  0
  5 33  1  0
 10 34  1  0
 12 35  1  0
 15 36  1  0
 18 37  1  0
 18 38  1  0
 18 39  1  0
 20 40  1  0
 20 41  1  0
 20 42  1  0
 24 43  1  0
 24 44  1  0
 24 45  1  0
 27 46  1  0
 27 47  1  0
 27 48  1  0
 28 49  1  0
M  END
>  <UniqueID>  (19) 
19

>  <SMILES>  (19) 
COc1ccc(S(=O)(=O)Nc2cc3c(cc2OC)n(C)c(=O)n3C)c(OC)c1

>  <Energy>  (19) 
96.65218030771868

>  <Genealogy>  (19) 
COc1ccc(S(=O)(=O)Nc2cc3c(cc2OC)n(C)c(=O)n3C)c(OC)c1 (3D coordinates assigned)
COc1ccc(S(=O)(=O)Nc2cc3c(cc2OC)n(C)c(=O)n3C)c(OC)c1 (optimized conformer: 96.65218030771868 kcal/mol)

>  <smiles>  (19) 
COc1ccc(S(=O)(=O)Nc2cc3c(cc2OC)n(C)c(=O)n3C)c(OC)c1

>  <score_type>  (19) 
oracle

>  <origin>  (19) 
adgpu

>  <m_score__min__energy>  (19) 
-8.9800000000000004

>  <m_primary>  (19) 
energy

$$$$
19:0
     RDKit          3D

 70 74  0  0  0  0  0  0  0  0999 V2000
   -7.1240   17.4280  -33.3290 C   0  0  0  0  0  0  0  0  0  0  0  0
   -6.6510   18.8500  -33.2830 C   0  0  0  0  0  0  0  0  0  0  0  0
   -5.5510   19.3620  -33.9460 C   0  0  0  0  0  0  0  0  0  0  0  0
   -4.5450   18.6110  -34.6240 N   0  0  0  0  0  0  0  0  0  0  0  0
   -3.0200   18.3080  -33.8620 S   0  0  0  0  0  0  0  0  0  0  0  0
   -1.9610   18.1710  -34.9210 O   0  0  0  0  0  0  0  0  0  0  0  0
   -3.0880   17.0260  -33.0780 O   0  0  0  0  0  0  0  0  0  0  0  0
   -2.6200   19.6510  -32.7940 C   0  0  0  0  0  0  0  0  0  0  0  0
   -3.2970   19.8170  -31.5790 C   0  0  0  0  0  0  0  0  0  0  0  0
   -2.9150   20.8270  -30.6920 C   0  0  0  0  0  0  0  0  0  0  0  0
   -1.8300   21.6620  -30.9950 C   0  0  0  0  0  0  0  0  0  0  0  0
   -1.4370   22.6780  -30.0580 N   0  0  0  0  0  0  0  0  0  0  0  0
   -2.3280   23.7040  -29.5900 C   0  0  0  0  0  0  0  0  0  0  0  0
   -3.4150   23.9120  -30.1960 O   0  0  0  0  0  0  0  0  0  0  0  0
   -1.9600   24.5640  -28.4410 C   0  0  0  0  0  0  0  0  0  0  0  0
   -2.7350   24.5450  -27.2660 C   0  0  0  0  0  0  0  0  0  0  0  0
   -2.4030   25.3660  -26.1850 C   0  0  0  0  0  0  0  0  0  0  0  0
   -1.2840   26.2070  -26.2520 C   0  0  0  0  0  0  0  0  0  0  0  0
   -0.8700   27.2500  -24.8890 S   0  0  0  0  0  0  0  0  0  0  0  0
   -1.6180   26.7900  -23.6680 O   0  0  0  0  0  0  0  0  0  0  0  0
   -1.3020   28.6580  -25.1950 O   0  0  0  0  0  0  0  0  0  0  0  0
    0.8470   27.2320  -24.5560 N   0  0  0  0  0  0  0  0  0  0  0  0
    1.3120   25.8850  -24.1590 C   0  0  0  0  0  0  0  0  0  0  0  0
    2.1190   25.1980  -25.2750 C   0  0  0  0  0  0  0  0  0  0  0  0
    3.2620   25.9410  -25.6740 O   0  0  0  0  0  0  0  0  0  0  0  0
    3.0700   27.3510  -25.6410 C   0  0  0  0  0  0  0  0  0  0  0  0
    1.5980   27.7910  -25.6970 C   0  0  0  0  0  0  0  0  0  0  0  0
   -0.5030   26.2200  -27.4150 C   0  0  0  0  0  0  0  0  0  0  0  0
   -0.8340   25.4030  -28.5000 C   0  0  0  0  0  0  0  0  0  0  0  0
   -1.1650   21.5080  -32.2240 C   0  0  0  0  0  0  0  0  0  0  0  0
   -1.5610   20.5100  -33.1190 C   0  0  0  0  0  0  0  0  0  0  0  0
   -5.4310   20.6550  -33.4900 C   0  0  0  0  0  0  0  0  0  0  0  0
   -4.5020   21.4550  -33.7820 O   0  0  0  0  0  0  0  0  0  0  0  0
   -6.4210   20.9180  -32.6150 N   0  0  0  0  0  0  0  0  0  0  0  0
   -6.5490   22.1270  -31.8500 C   0  0  0  0  0  0  0  0  0  0  0  0
   -6.0250   23.3310  -32.3430 C   0  0  0  0  0  0  0  0  0  0  0  0
   -6.1120   24.5010  -31.5800 C   0  0  0  0  0  0  0  0  0  0  0  0
   -6.7130   24.4710  -30.3180 C   0  0  0  0  0  0  0  0  0  0  0  0
   -7.2240   23.2710  -29.8160 C   0  0  0  0  0  0  0  0  0  0  0  0
   -7.1320   22.0990  -30.5730 C   0  0  0  0  0  0  0  0  0  0  0  0
   -7.1600   19.8160  -32.4790 N   0  0  0  0  0  0  0  0  0  0  0  0
   -8.3860   19.6920  -31.6860 C   0  0  0  0  0  0  0  0  0  0  0  0
   -7.2497   17.0501  -32.3036 H   0  0  0  0  0  0  0  0  0  0  0  0
   -8.0869   17.3788  -33.8585 H   0  0  0  0  0  0  0  0  0  0  0  0
   -6.3824   16.8119  -33.8585 H   0  0  0  0  0  0  0  0  0  0  0  0
   -4.1328   19.1496  -31.3220 H   0  0  0  0  0  0  0  0  0  0  0  0
   -3.4681   20.9677  -29.7516 H   0  0  0  0  0  0  0  0  0  0  0  0
   -0.4180   22.7750  -29.8440 H   0  0  0  0  0  0  0  0  0  0  0  0
   -3.6080   23.8792  -27.1983 H   0  0  0  0  0  0  0  0  0  0  0  0
   -3.0233   25.3521  -25.2767 H   0  0  0  0  0  0  0  0  0  0  0  0
    1.9489   25.9784  -23.2670 H   0  0  0  0  0  0  0  0  0  0  0  0
    0.4250   25.2677  -23.9537 H   0  0  0  0  0  0  0  0  0  0  0  0
    2.4503   24.2137  -24.9124 H   0  0  0  0  0  0  0  0  0  0  0  0
    1.4602   25.1134  -26.1518 H   0  0  0  0  0  0  0  0  0  0  0  0
    3.5096   27.7367  -24.7093 H   0  0  0  0  0  0  0  0  0  0  0  0
    3.5540   27.7558  -26.5420 H   0  0  0  0  0  0  0  0  0  0  0  0
    1.5469   28.8892  -25.6607 H   0  0  0  0  0  0  0  0  0  0  0  0
    1.1517   27.4210  -26.6318 H   0  0  0  0  0  0  0  0  0  0  0  0
    0.3768   26.8776  -27.4748 H   0  0  0  0  0  0  0  0  0  0  0  0
   -0.2094   25.4169  -29.4054 H   0  0  0  0  0  0  0  0  0  0  0  0
   -0.3297   22.1755  -32.4823 H   0  0  0  0  0  0  0  0  0  0  0  0
   -1.0400   20.3983  -34.0813 H   0  0  0  0  0  0  0  0  0  0  0  0
   -5.5443   23.3557  -33.3321 H   0  0  0  0  0  0  0  0  0  0  0  0
   -5.7072   25.4451  -31.9735 H   0  0  0  0  0  0  0  0  0  0  0  0
   -6.7836   25.3918  -29.7203 H   0  0  0  0  0  0  0  0  0  0  0  0
   -7.6991   23.2485  -28.8242 H   0  0  0  0  0  0  0  0  0  0  0  0
   -7.5175   21.1522  -30.1669 H   0  0  0  0  0  0  0  0  0  0  0  0
   -8.1344   19.7174  -30.6155 H   0  0  0  0  0  0  0  0  0  0  0  0
   -9.0623   20.5263  -31.9236 H   0  0  0  0  0  0  0  0  0  0  0  0
   -8.8816   18.7391  -31.9236 H   0  0  0  0  0  0  0  0  0  0  0  0
  1  2  1  0
  2  3  2  0
  3  4  1  0
  4  5  1  0
  5  6  2  0
  5  7  2  0
  5  8  1  0
  8  9  2  0
  9 10  1  0
 10 11  2  0
 11 12  1  0
 12 13  1  0
 13 14  2  0
 13 15  1  0
 15 16  2  0
 16 17  1  0
 17 18  2  0
 18 19  1  0
 19 20  2  0
 19 21  2  0
 19 22  1  0
 22 23  1  0
 23 24  1  0
 24 25  1  0
 25 26  1  0
 26 27  1  0
 18 28  1  0
 28 29  2  0
 11 30  1  0
 30 31  2  0
  3 32  1  0
 32 33  2  0
 32 34  1  0
 34 35  1  0
 35 36  2  0
 36 37  1  0
 37 38  2  0
 38 39  1  0
 39 40  2  0
 34 41  1  0
 41 42  1  0
 41  2  1  0
 31  8  1  0
 40 35  1  0
 29 15  1  0
 27 22  1  0
  1 43  1  0
  1 44  1  0
  1 45  1  0
  9 46  1  0
 10 47  1  0
 12 48  1  0
 16 49  1  0
 17 50  1  0
 23 51  1  0
 23 52  1  0
 24 53  1  0
 24 54  1  0
 26 55  1  0
 26 56  1  0
 27 57  1  0
 27 58  1  0
 28 59  1  0
 29 60  1  0
 30 61  1  0
 31 62  1  0
 36 63  1  0
 37 64  1  0
 38 65  1  0
 39 66  1  0
 40 67  1  0
 42 68  1  0
 42 69  1  0
 42 70  1  0
M  CHG  1   4  -1
M  END
>  <UniqueID>  (20) 
20

>  <SMILES>  (20) 
Cc1c([N-]S(=O)(=O)c2ccc(NC(=O)c3ccc(S(=O)(=O)N4CCOCC4)cc3)cc2)c(=O)n(-c2ccccc2)n1C

>  <Energy>  (20) 
141.64454446679463

>  <Genealogy>  (20) 
Cc1c([N-]S(=O)(=O)c2ccc(NC(=O)c3ccc(S(=O)(=O)N4CCOCC4)cc3)cc2)c(=O)n(-c2ccccc2)n1C (protonated)
Cc1c([N-]S(=O)(=O)c2ccc(NC(=O)c3ccc(S(=O)(=O)N4CCOCC4)cc3)cc2)c(=O)n(-c2ccccc2)n1C (3D coordinates assigned)
Cc1c([N-]S(=O)(=O)c2ccc(NC(=O)c3ccc(S(=O)(=O)N4CCOCC4)cc3)cc2)c(=O)n(-c2ccccc2)n1C (nonaromatic ring conformer: 141.64454446679463 kcal/mol)

>  <smiles>  (20) 
Cc1c(NS(=O)(=O)c2ccc(NC(=O)c3ccc(S(=O)(=O)N4CCOCC4)cc3)cc2)c(=O)n(-c2ccccc2)n1C

>  <score_type>  (20) 
oracle

>  <origin>  (20) 
adgpu

>  <m_score__min__energy>  (20) 
-10.710000000000001

>  <m_primary>  (20) 
energy

$$$$
20:0
     RDKit          3D

 51 53  0  0  0  0  0  0  0  0999 V2000
   -5.9020   15.7330  -33.9050 C   0  0  0  0  0  0  0  0  0  0  0  0
   -4.9750   16.7260  -33.3700 N   0  0  0  0  0  0  0  0  0  0  0  0
   -5.3790   18.3050  -33.9750 S   0  0  0  0  0  0  0  0  0  0  0  0
   -5.7120   18.2000  -35.4360 O   0  0  0  0  0  0  0  0  0  0  0  0
   -4.2000   19.2240  -33.8230 O   0  0  0  0  0  0  0  0  0  0  0  0
   -6.7600   18.9690  -33.1060 C   0  0  0  0  0  0  0  0  0  0  0  0
   -7.6860   18.1190  -32.4880 C   0  0  0  0  0  0  0  0  0  0  0  0
   -8.7510   18.6540  -31.7580 C   0  0  0  0  0  0  0  0  0  0  0  0
   -8.8830   20.0400  -31.6240 C   0  0  0  0  0  0  0  0  0  0  0  0
   -7.9550   20.8980  -32.2310 C   0  0  0  0  0  0  0  0  0  0  0  0
   -8.0450   22.6420  -31.9870 S   0  0  0  0  0  0  0  0  0  0  0  0
   -9.4810   23.0820  -32.0300 O   0  0  0  0  0  0  0  0  0  0  0  0
   -7.3010   23.3630  -33.0750 O   0  0  0  0  0  0  0  0  0  0  0  0
   -7.4110   23.0320  -30.4180 N   0  0  0  0  0  0  0  0  0  0  0  0
   -6.1130   23.5780  -30.1430 C   0  0  0  0  0  0  0  0  0  0  0  0
   -5.7600   24.7920  -30.7400 C   0  0  0  0  0  0  0  0  0  0  0  0
   -4.5080   25.3610  -30.5000 C   0  0  0  0  0  0  0  0  0  0  0  0
   -3.5810   24.7080  -29.6850 C   0  0  0  0  0  0  0  0  0  0  0  0
   -2.3410   25.2980  -29.4630 O   0  0  0  0  0  0  0  0  0  0  0  0
   -3.9070   23.4680  -29.1050 C   0  0  0  0  0  0  0  0  0  0  0  0
   -2.7370   22.5730  -28.1240 S   0  0  0  0  0  0  0  0  0  0  0  0
   -3.4370   21.3950  -27.5050 O   0  0  0  0  0  0  0  0  0  0  0  0
   -1.6260   22.0530  -28.9930 O   0  0  0  0  0  0  0  0  0  0  0  0
   -2.0890   23.5890  -26.8590 N   0  0  0  0  0  0  0  0  0  0  0  0
   -2.9800   24.7470  -26.6400 C   0  0  0  0  0  0  0  0  0  0  0  0
   -2.3360   25.8280  -25.7410 C   0  0  0  0  0  0  0  0  0  0  0  0
   -1.0770   25.3130  -25.0390 C   0  0  0  0  0  0  0  0  0  0  0  0
   -0.0600   24.7710  -26.0570 C   0  0  0  0  0  0  0  0  0  0  0  0
   -0.7370   24.0390  -27.2330 C   0  0  0  0  0  0  0  0  0  0  0  0
   -5.1790   22.9170  -29.3260 C   0  0  0  0  0  0  0  0  0  0  0  0
   -6.9070   20.3570  -32.9870 C   0  0  0  0  0  0  0  0  0  0  0  0
   -6.3941   15.2058  -33.0744 H   0  0  0  0  0  0  0  0  0  0  0  0
   -6.6617   16.2354  -34.5218 H   0  0  0  0  0  0  0  0  0  0  0  0
   -5.3486   15.0096  -34.5218 H   0  0  0  0  0  0  0  0  0  0  0  0
   -7.5748   17.0283  -32.5774 H   0  0  0  0  0  0  0  0  0  0  0  0
   -9.4863   17.9842  -31.2882 H   0  0  0  0  0  0  0  0  0  0  0  0
   -9.7169   20.4579  -31.0410 H   0  0  0  0  0  0  0  0  0  0  0  0
   -6.4738   25.3023  -31.4034 H   0  0  0  0  0  0  0  0  0  0  0  0
   -4.2504   26.3287  -30.9552 H   0  0  0  0  0  0  0  0  0  0  0  0
   -3.2206   25.1963  -27.6148 H   0  0  0  0  0  0  0  0  0  0  0  0
   -3.8831   24.3819  -26.1290 H   0  0  0  0  0  0  0  0  0  0  0  0
   -2.0666   26.6938  -26.3638 H   0  0  0  0  0  0  0  0  0  0  0  0
   -3.0668   26.1069  -24.9676 H   0  0  0  0  0  0  0  0  0  0  0  0
   -0.6168   26.1379  -24.4753 H   0  0  0  0  0  0  0  0  0  0  0  0
   -1.3637   24.4953  -24.3613 H   0  0  0  0  0  0  0  0  0  0  0  0
    0.5244   25.6136  -26.4551 H   0  0  0  0  0  0  0  0  0  0  0  0
    0.5816   24.0454  -25.5356 H   0  0  0  0  0  0  0  0  0  0  0  0
   -0.8090   24.7238  -28.0908 H   0  0  0  0  0  0  0  0  0  0  0  0
   -0.1321   23.1588  -27.4962 H   0  0  0  0  0  0  0  0  0  0  0  0
   -5.4474   21.9595  -28.8558 H   0  0  0  0  0  0  0  0  0  0  0  0
   -6.1945   21.0268  -33.4907 H   0  0  0  0  0  0  0  0  0  0  0  0
  1  2  1  0
  2  3  1  0
  3  4  2  0
  3  5  2  0
  3  6  1  0
  6  7  2  0
  7  8  1  0
  8  9  2  0
  9 10  1  0
 10 11  1  0
 11 12  2  0
 11 13  2  0
 11 14  1  0
 14 15  1  0
 15 16  2  0
 16 17  1  0
 17 18  2  0
 18 19  1  0
 18 20  1  0
 20 21  1  0
 21 22  2  0
 21 23  2  0
 21 24  1  0
 24 25  1  0
 25 26  1  0
 26 27  1  0
 27 28  1  0
 28 29  1  0
 20 30  2  0
 10 31  2  0
 31  6  1  0
 30 15  1  0
 29 24  1  0
  1 32  1  0
  1 33  1  0
  1 34  1  0
  7 35  1  0
  8 36  1  0
  9 37  1  0
 16 38  1  0
 17 39  1  0
 25 40  1  0
 25 41  1  0
 26 42  1  0
 26 43  1  0
 27 44  1  0
 27 45  1  0
 28 46  1  0
 28 47  1  0
 29 48  1  0
 29 49  1  0
 30 50  1  0
 31 51  1  0
M  CHG  3   2  -1  14  -1  19  -1
M  END
>  <UniqueID>  (21) 
21

>  <SMILES>  (21) 
C[N-]S(=O)(=O)c1cccc(S(=O)(=O)[N-]c2ccc([O-])c(S(=O)(=O)N3CCCCC3)c2)c1

>  <Energy>  (21) 
56.70714026748916

>  <Genealogy>  (21) 
C[N-]S(=O)(=O)c1cccc(S(=O)(=O)[N-]c2ccc([O-])c(S(=O)(=O)N3CCCCC3)c2)c1 (protonated)
C[N-]S(=O)(=O)c1cccc(S(=O)(=O)[N-]c2ccc([O-])c(S(=O)(=O)N3CCCCC3)c2)c1 (3D coordinates assigned)
C[N-]S(=O)(=O)c1cccc(S(=O)(=O)[N-]c2ccc([O-])c(S(=O)(=O)N3CCCCC3)c2)c1 (nonaromatic ring conformer: 56.70714026748916 kcal/mol)

>  <smiles>  (21) 
CNS(=O)(=O)c1cccc(S(=O)(=O)Nc2ccc(O)c(S(=O)(=O)N3CCCCC3)c2)c1

>  <score_type>  (21) 
oracle

>  <origin>  (21) 
adgpu

>  <m_score__min__energy>  (21) 
-13.09

>  <m_primary>  (21) 
energy

$$$$
21:0
     RDKit          3D

 57 60  0  0  0  0  0  0  0  0999 V2000
   -8.1220   18.4560  -31.1130 O   0  0  0  0  0  0  0  0  0  0  0  0
   -7.5000   18.9930  -32.0670 C   0  0  0  0  0  0  0  0  0  0  0  0
   -7.2550   18.2180  -33.2500 N   0  0  0  0  0  0  0  0  0  0  0  0
   -5.9950   17.6610  -33.6540 C   0  0  0  0  0  0  0  0  0  0  0  0
   -5.4580   17.9110  -34.9310 C   0  0  0  0  0  0  0  0  0  0  0  0
   -4.2240   17.3650  -35.2950 C   0  0  0  0  0  0  0  0  0  0  0  0
   -3.5080   16.5840  -34.3850 C   0  0  0  0  0  0  0  0  0  0  0  0
   -4.0220   16.3520  -33.1070 C   0  0  0  0  0  0  0  0  0  0  0  0
   -5.2620   16.8930  -32.7360 C   0  0  0  0  0  0  0  0  0  0  0  0
   -5.7730   16.6650  -31.4590 O   0  0  0  0  0  0  0  0  0  0  0  0
   -7.0930   20.4140  -31.9600 C   0  0  0  0  0  0  0  0  0  0  0  0
   -8.0450   21.4440  -32.0470 C   0  0  0  0  0  0  0  0  0  0  0  0
   -7.6490   22.7820  -31.9510 C   0  0  0  0  0  0  0  0  0  0  0  0
   -8.5930   23.7940  -32.0620 O   0  0  0  0  0  0  0  0  0  0  0  0
   -6.3050   23.1010  -31.7410 C   0  0  0  0  0  0  0  0  0  0  0  0
   -5.3500   22.0880  -31.6080 C   0  0  0  0  0  0  0  0  0  0  0  0
   -3.9810   22.4510  -31.3790 N   0  0  0  0  0  0  0  0  0  0  0  0
   -3.5140   23.5390  -30.5680 C   0  0  0  0  0  0  0  0  0  0  0  0
   -3.8980   24.7050  -30.8470 O   0  0  0  0  0  0  0  0  0  0  0  0
   -2.6510   23.3190  -29.3800 C   0  0  0  0  0  0  0  0  0  0  0  0
   -2.5550   22.0370  -28.8090 C   0  0  0  0  0  0  0  0  0  0  0  0
   -1.7360   21.8080  -27.6950 C   0  0  0  0  0  0  0  0  0  0  0  0
   -1.6010   20.1850  -27.0160 S   0  0  0  0  0  0  0  0  0  0  0  0
   -2.7650   19.3600  -27.4910 O   0  0  0  0  0  0  0  0  0  0  0  0
   -1.6820   20.2710  -25.5160 O   0  0  0  0  0  0  0  0  0  0  0  0
   -0.1090   19.3920  -27.4680 N   0  0  0  0  0  0  0  0  0  0  0  0
   -0.2990   17.9670  -27.8380 C   0  0  0  0  0  0  0  0  0  0  0  0
    0.3030   17.5960  -29.1980 C   0  0  0  0  0  0  0  0  0  0  0  0
   -0.1160   18.6200  -30.2450 C   0  0  0  0  0  0  0  0  0  0  0  0
    0.3610   20.0320  -29.8750 C   0  0  0  0  0  0  0  0  0  0  0  0
    0.7230   20.2000  -28.3840 C   0  0  0  0  0  0  0  0  0  0  0  0
   -1.0040   22.8690  -27.1470 C   0  0  0  0  0  0  0  0  0  0  0  0
   -1.1070   24.1490  -27.6930 C   0  0  0  0  0  0  0  0  0  0  0  0
   -1.9240   24.3800  -28.8040 C   0  0  0  0  0  0  0  0  0  0  0  0
   -1.9890   25.6630  -29.3390 O   0  0  0  0  0  0  0  0  0  0  0  0
   -5.7460   20.7440  -31.7400 C   0  0  0  0  0  0  0  0  0  0  0  0
   -6.0116   18.5384  -35.6450 H   0  0  0  0  0  0  0  0  0  0  0  0
   -3.8161   17.5506  -36.2996 H   0  0  0  0  0  0  0  0  0  0  0  0
   -2.5390   16.1514  -34.6748 H   0  0  0  0  0  0  0  0  0  0  0  0
   -3.4526   15.7432  -32.3893 H   0  0  0  0  0  0  0  0  0  0  0  0
   -6.6900   16.9990  -31.1880 H   0  0  0  0  0  0  0  0  0  0  0  0
   -9.1071   21.1967  -32.1913 H   0  0  0  0  0  0  0  0  0  0  0  0
   -5.9962   24.1550  -31.6799 H   0  0  0  0  0  0  0  0  0  0  0  0
   -3.1294   21.2047  -29.2418 H   0  0  0  0  0  0  0  0  0  0  0  0
    0.1750   17.3421  -27.0667 H   0  0  0  0  0  0  0  0  0  0  0  0
   -1.3833   17.7962  -27.9100 H   0  0  0  0  0  0  0  0  0  0  0  0
    1.4001   17.5817  -29.1199 H   0  0  0  0  0  0  0  0  0  0  0  0
   -0.0606   16.6018  -29.4968 H   0  0  0  0  0  0  0  0  0  0  0  0
    0.3200   18.3383  -31.2148 H   0  0  0  0  0  0  0  0  0  0  0  0
   -1.2147   18.6299  -30.2972 H   0  0  0  0  0  0  0  0  0  0  0  0
    1.2524   20.2649  -30.4760 H   0  0  0  0  0  0  0  0  0  0  0  0
   -0.4766   20.7153  -30.0788 H   0  0  0  0  0  0  0  0  0  0  0  0
    1.7738   19.9046  -28.2479 H   0  0  0  0  0  0  0  0  0  0  0  0
    0.5428   21.2550  -28.1300 H   0  0  0  0  0  0  0  0  0  0  0  0
   -0.3458   22.6927  -26.2835 H   0  0  0  0  0  0  0  0  0  0  0  0
   -0.5423   24.9810  -27.2469 H   0  0  0  0  0  0  0  0  0  0  0  0
   -4.9935   19.9447  -31.6702 H   0  0  0  0  0  0  0  0  0  0  0  0
  1  2  2  0
  2  3  1  0
  3  4  1  0
  4  5  2  0
  5  6  1  0
  6  7  2  0
  7  8  1  0
  8  9  2  0
  9 10  1  0
  2 11  1  0
 11 12  2  0
 12 13  1  0
 13 14  1  0
 13 15  2  0
 15 16  1  0
 16 17  1  0
 17 18  1  0
 18 19  2  0
 18 20  1  0
 20 21  2  0
 21 22  1  0
 22 23  1  0
 23 24  2  0
 23 25  2  0
 23 26  1  0
 26 27  1  0
 27 28  1  0
 28 29  1  0
 29 30  1  0
 30 31  1  0
 22 32  2  0
 32 33  1  0
 33 34  2  0
 34 35  1  0
 16 36  2  0
  9  4  1  0
 36 11  1  0
 34 20  1  0
 31 26  1  0
  5 37  1  0
  6 38  1  0
  7 39  1  0
  8 40  1  0
 10 41  1  0
 12 42  1  0
 15 43  1  0
 21 44  1  0
 27 45  1  0
 27 46  1  0
 28 47  1  0
 28 48  1  0
 29 49  1  0
 29 50  1  0
 30 51  1  0
 30 52  1  0
 31 53  1  0
 31 54  1  0
 32 55  1  0
 33 56  1  0
 36 57  1  0
M  CHG  4   3  -1  14  -1  17  -1  35  -1
M  END
>  <UniqueID>  (22) 
22

>  <SMILES>  (22) 
O=C([N-]c1ccccc1O)c1cc([O-])cc([N-]C(=O)c2cc(S(=O)(=O)N3CCCCC3)ccc2[O-])c1

>  <Energy>  (22) 
81.62956945126743

>  <Genealogy>  (22) 
O=C([N-]c1ccccc1O)c1cc([O-])cc([N-]C(=O)c2cc(S(=O)(=O)N3CCCCC3)ccc2[O-])c1 (protonated)
O=C([N-]c1ccccc1O)c1cc([O-])cc([N-]C(=O)c2cc(S(=O)(=O)N3CCCCC3)ccc2[O-])c1 (3D coordinates assigned)
O=C([N-]c1ccccc1O)c1cc([O-])cc([N-]C(=O)c2cc(S(=O)(=O)N3CCCCC3)ccc2[O-])c1 (nonaromatic ring conformer: 81.62956945126743 kcal/mol)

>  <smiles>  (22) 
O=C(Nc1ccccc1O)c1cc(O)cc(NC(=O)c2cc(S(=O)(=O)N3CCCCC3)ccc2O)c1

>  <score_type>  (22) 
oracle

>  <origin>  (22) 
adgpu

>  <m_score__min__energy>  (22) 
-14.19

>  <m_primary>  (22) 
energy

$$$$
22:0
     RDKit          3D

 41 43  0  0  0  0  0  0  0  0999 V2000
   -6.9270   24.4140  -30.1490 O   0  0  0  0  0  0  0  0  0  0  0  0
   -5.9420   23.7090  -30.4950 C   0  0  0  0  0  0  0  0  0  0  0  0
   -6.0260   22.9680  -31.7190 N   0  0  0  0  0  0  0  0  0  0  0  0
   -6.7560   21.7490  -31.9230 C   0  0  0  0  0  0  0  0  0  0  0  0
   -8.0410   21.5590  -31.3820 C   0  0  0  0  0  0  0  0  0  0  0  0
   -8.7240   20.3600  -31.6010 C   0  0  0  0  0  0  0  0  0  0  0  0
   -8.1420   19.3520  -32.3720 C   0  0  0  0  0  0  0  0  0  0  0  0
   -6.8760   19.5450  -32.9430 C   0  0  0  0  0  0  0  0  0  0  0  0
   -6.1230   18.2700  -33.8970 S   0  0  0  0  0  0  0  0  0  0  0  0
   -6.1050   18.6820  -35.3430 O   0  0  0  0  0  0  0  0  0  0  0  0
   -6.9180   16.9980  -33.7700 O   0  0  0  0  0  0  0  0  0  0  0  0
   -4.4870   18.0290  -33.3380 N   0  0  0  0  0  0  0  0  0  0  0  0
   -3.9070   16.8120  -33.9050 C   0  0  0  0  0  0  0  0  0  0  0  0
   -2.4030   17.0290  -33.9470 C   0  0  0  0  0  0  0  0  0  0  0  0
   -2.2100   18.5350  -33.8650 C   0  0  0  0  0  0  0  0  0  0  0  0
   -3.6110   19.1170  -33.7690 C   0  0  0  0  0  0  0  0  0  0  0  0
   -6.1910   20.7460  -32.7200 C   0  0  0  0  0  0  0  0  0  0  0  0
   -4.7090   23.7240  -29.6690 C   0  0  0  0  0  0  0  0  0  0  0  0
   -4.5170   22.7470  -28.6770 C   0  0  0  0  0  0  0  0  0  0  0  0
   -3.3580   22.7450  -27.8990 C   0  0  0  0  0  0  0  0  0  0  0  0
   -2.3680   23.7100  -28.1010 C   0  0  0  0  0  0  0  0  0  0  0  0
   -1.2210   23.6830  -27.3100 O   0  0  0  0  0  0  0  0  0  0  0  0
   -2.5440   24.6870  -29.0940 C   0  0  0  0  0  0  0  0  0  0  0  0
   -1.5670   25.6540  -29.3060 O   0  0  0  0  0  0  0  0  0  0  0  0
   -3.7080   24.6960  -29.8760 C   0  0  0  0  0  0  0  0  0  0  0  0
   -3.8680   25.6810  -30.8460 O   0  0  0  0  0  0  0  0  0  0  0  0
   -8.5087   22.3561  -30.7854 H   0  0  0  0  0  0  0  0  0  0  0  0
   -9.7226   20.2098  -31.1649 H   0  0  0  0  0  0  0  0  0  0  0  0
   -8.6777   18.4046  -32.5318 H   0  0  0  0  0  0  0  0  0  0  0  0
   -4.1483   15.9455  -33.2718 H   0  0  0  0  0  0  0  0  0  0  0  0
   -4.3079   16.6111  -34.9095 H   0  0  0  0  0  0  0  0  0  0  0  0
   -1.9184   16.5319  -33.0937 H   0  0  0  0  0  0  0  0  0  0  0  0
   -1.9542   16.6081  -34.8588 H   0  0  0  0  0  0  0  0  0  0  0  0
   -1.6215   18.7996  -32.9742 H   0  0  0  0  0  0  0  0  0  0  0  0
   -1.6637   18.9254  -34.7363 H   0  0  0  0  0  0  0  0  0  0  0  0
   -3.6325   19.9352  -33.0341 H   0  0  0  0  0  0  0  0  0  0  0  0
   -3.9364   19.5288  -34.7357 H   0  0  0  0  0  0  0  0  0  0  0  0
   -5.2016   20.9025  -33.1744 H   0  0  0  0  0  0  0  0  0  0  0  0
   -5.2861   21.9779  -28.5124 H   0  0  0  0  0  0  0  0  0  0  0  0
   -3.2232   21.9785  -27.1216 H   0  0  0  0  0  0  0  0  0  0  0  0
   -0.4900   24.3790  -27.3960 H   0  0  0  0  0  0  0  0  0  0  0  0
  1  2  2  0
  2  3  1  0
  3  4  1  0
  4  5  2  0
  5  6  1  0
  6  7  2  0
  7  8  1  0
  8  9  1  0
  9 10  2  0
  9 11  2  0
  9 12  1  0
 12 13  1  0
 13 14  1  0
 14 15  1  0
 15 16  1  0
  8 17  2  0
  2 18  1  0
 18 19  2  0
 19 20  1  0
 20 21  2  0
 21 22  1  0
 21 23  1  0
 23 24  1  0
 23 25  2  0
 25 26  1  0
 17  4  1  0
 25 18  1  0
 16 12  1  0
  5 27  1  0
  6 28  1  0
  7 29  1  0
 13 30  1  0
 13 31  1  0
 14 32  1  0
 14 33  1  0
 15 34  1  0
 15 35  1  0
 16 36  1  0
 16 37  1  0
 17 38  1  0
 19 39  1  0
 20 40  1  0
 22 41  1  0
M  CHG  3   3  -1  24  -1  26  -1
M  END
>  <UniqueID>  (23) 
23

>  <SMILES>  (23) 
O=C([N-]c1cccc(S(=O)(=O)N2CCCC2)c1)c1ccc(O)c([O-])c1[O-]

>  <Energy>  (23) 
51.384109244055374

>  <Genealogy>  (23) 
O=C([N-]c1cccc(S(=O)(=O)N2CCCC2)c1)c1ccc(O)c([O-])c1[O-] (protonated)
O=C([N-]c1cccc(S(=O)(=O)N2CCCC2)c1)c1ccc(O)c([O-])c1[O-] (3D coordinates assigned)
O=C([N-]c1cccc(S(=O)(=O)N2CCCC2)c1)c1ccc(O)c([O-])c1[O-] (nonaromatic ring conformer: 51.384109244055374 kcal/mol)

>  <smiles>  (23) 
O=C(Nc1cccc(S(=O)(=O)N2CCCC2)c1)c1ccc(O)c(O)c1O

>  <score_type>  (23) 
oracle

>  <origin>  (23) 
adgpu

>  <m_score__min__energy>  (23) 
-15.02

>  <m_primary>  (23) 
energy

$$$$
23:0
     RDKit          3D

 54 57  0  0  0  0  0  0  0  0999 V2000
   -2.7880   18.9610  -33.6970 C   0  0  0  0  0  0  0  0  0  0  0  0
   -3.4630   20.2690  -33.4190 C   0  0  0  0  0  0  0  0  0  0  0  0
   -2.7540   21.3060  -33.3360 O   0  0  0  0  0  0  0  0  0  0  0  0
   -4.8920   20.3380  -33.2480 N   0  0  0  0  0  0  0  0  0  0  0  0
   -5.8290   19.3570  -33.8090 C   0  0  0  0  0  0  0  0  0  0  0  0
   -7.2420   19.7980  -33.3630 C   0  0  0  0  0  0  0  0  0  0  0  0
   -6.9840   21.0190  -32.5540 C   0  0  0  0  0  0  0  0  0  0  0  0
   -7.9210   21.8130  -31.8900 C   0  0  0  0  0  0  0  0  0  0  0  0
   -7.4700   22.9240  -31.1620 C   0  0  0  0  0  0  0  0  0  0  0  0
   -6.0930   23.2260  -31.1110 C   0  0  0  0  0  0  0  0  0  0  0  0
   -5.5170   24.6250  -30.2100 S   0  0  0  0  0  0  0  0  0  0  0  0
   -4.3860   25.3050  -30.9310 O   0  0  0  0  0  0  0  0  0  0  0  0
   -6.6500   25.6000  -30.0540 O   0  0  0  0  0  0  0  0  0  0  0  0
   -4.9750   24.1240  -28.6400 N   0  0  0  0  0  0  0  0  0  0  0  0
   -3.5900   23.9960  -28.2660 C   0  0  0  0  0  0  0  0  0  0  0  0
   -3.1950   22.9110  -27.4690 C   0  0  0  0  0  0  0  0  0  0  0  0
   -1.8570   22.7520  -27.0950 C   0  0  0  0  0  0  0  0  0  0  0  0
   -0.8950   23.6790  -27.5120 C   0  0  0  0  0  0  0  0  0  0  0  0
    0.7980   23.4700  -27.0680 S   0  0  0  0  0  0  0  0  0  0  0  0
    1.6430   24.4560  -27.8290 O   0  0  0  0  0  0  0  0  0  0  0  0
    1.2210   22.0810  -27.4630 O   0  0  0  0  0  0  0  0  0  0  0  0
    1.0210   23.6660  -25.3380 N   0  0  0  0  0  0  0  0  0  0  0  0
   -0.2580   23.8570  -24.6310 C   0  0  0  0  0  0  0  0  0  0  0  0
   -0.8600   25.2610  -24.8830 C   0  0  0  0  0  0  0  0  0  0  0  0
    0.0810   26.2090  -25.3500 O   0  0  0  0  0  0  0  0  0  0  0  0
    1.3010   26.0710  -24.6540 C   0  0  0  0  0  0  0  0  0  0  0  0
    1.9880   24.7440  -25.0340 C   0  0  0  0  0  0  0  0  0  0  0  0
   -1.2800   24.7640  -28.3080 C   0  0  0  0  0  0  0  0  0  0  0  0
   -2.6160   24.9260  -28.6810 C   0  0  0  0  0  0  0  0  0  0  0  0
   -5.1680   22.4070  -31.7890 C   0  0  0  0  0  0  0  0  0  0  0  0
   -5.6430   21.3020  -32.5090 C   0  0  0  0  0  0  0  0  0  0  0  0
   -2.5345   18.4698  -32.7460 H   0  0  0  0  0  0  0  0  0  0  0  0
   -3.4650   18.3145  -34.2746 H   0  0  0  0  0  0  0  0  0  0  0  0
   -1.8688   19.1382  -34.2746 H   0  0  0  0  0  0  0  0  0  0  0  0
   -5.7613   19.3509  -34.9069 H   0  0  0  0  0  0  0  0  0  0  0  0
   -5.5993   18.3402  -33.4578 H   0  0  0  0  0  0  0  0  0  0  0  0
   -7.8749   20.0287  -34.2326 H   0  0  0  0  0  0  0  0  0  0  0  0
   -7.7781   19.0177  -32.8029 H   0  0  0  0  0  0  0  0  0  0  0  0
   -8.9932   21.5718  -31.9369 H   0  0  0  0  0  0  0  0  0  0  0  0
   -8.1917   23.5611  -30.6297 H   0  0  0  0  0  0  0  0  0  0  0  0
   -5.7140   23.8560  -27.9490 H   0  0  0  0  0  0  0  0  0  0  0  0
   -3.9448   22.1786  -27.1352 H   0  0  0  0  0  0  0  0  0  0  0  0
   -1.5598   21.8960  -26.4714 H   0  0  0  0  0  0  0  0  0  0  0  0
   -0.9727   23.0970  -24.9797 H   0  0  0  0  0  0  0  0  0  0  0  0
   -0.0660   23.7599  -23.5522 H   0  0  0  0  0  0  0  0  0  0  0  0
   -1.6590   25.1665  -25.6331 H   0  0  0  0  0  0  0  0  0  0  0  0
   -1.2330   25.6287  -23.9157 H   0  0  0  0  0  0  0  0  0  0  0  0
    1.9636   26.9098  -24.9137 H   0  0  0  0  0  0  0  0  0  0  0  0
    1.0977   26.0714  -23.5729 H   0  0  0  0  0  0  0  0  0  0  0  0
    2.6155   24.9142  -25.9213 H   0  0  0  0  0  0  0  0  0  0  0  0
    2.5853   24.4199  -24.1690 H   0  0  0  0  0  0  0  0  0  0  0  0
   -0.5265   25.4927  -28.6414 H   0  0  0  0  0  0  0  0  0  0  0  0
   -2.9098   25.7847  -29.3025 H   0  0  0  0  0  0  0  0  0  0  0  0
   -4.0916   22.6310  -31.7538 H   0  0  0  0  0  0  0  0  0  0  0  0
  1  2  1  0
  2  3  2  0
  2  4  1  0
  4  5  1  0
  5  6  1  0
  6  7  1  0
  7  8  2  0
  8  9  1  0
  9 10  2  0
 10 11  1  0
 11 12  2  0
 11 13  2  0
 11 14  1  0
 14 15  1  0
 15 16  2  0
 16 17  1  0
 17 18  2  0
 18 19  1  0
 19 20  2  0
 19 21  2  0
 19 22  1  0
 22 23  1  0
 23 24  1  0
 24 25  1  0
 25 26  1  0
 26 27  1  0
 18 28  1  0
 28 29  2  0
 10 30  1  0
 30 31  2  0
 31  4  1  0
 31  7  1  0
 29 15  1  0
 27 22  1  0
  1 32  1  0
  1 33  1  0
  1 34  1  0
  5 35  1  0
  5 36  1  0
  6 37  1  0
  6 38  1  0
  8 39  1  0
  9 40  1  0
 14 41  1  0
 16 42  1  0
 17 43  1  0
 23 44  1  0
 23 45  1  0
 24 46  1  0
 24 47  1  0
 26 48  1  0
 26 49  1  0
 27 50  1  0
 27 51  1  0
 28 52  1  0
 29 53  1  0
 30 54  1  0
M  END
>  <UniqueID>  (24) 
24

>  <SMILES>  (24) 
CC(=O)N1CCc2ccc(S(=O)(=O)Nc3ccc(S(=O)(=O)N4CCOCC4)cc3)cc21

>  <Energy>  (24) 
84.55001871691397

>  <Genealogy>  (24) 
CC(=O)N1CCc2ccc(S(=O)(=O)Nc3ccc(S(=O)(=O)N4CCOCC4)cc3)cc21 (3D coordinates assigned)
CC(=O)N1CCc2ccc(S(=O)(=O)Nc3ccc(S(=O)(=O)N4CCOCC4)cc3)cc21 (nonaromatic ring conformer: 84.55001871691397 kcal/mol)

>  <smiles>  (24) 
CC(=O)N1CCc2ccc(S(=O)(=O)Nc3ccc(S(=O)(=O)N4CCOCC4)cc3)cc21

>  <score_type>  (24) 
oracle

>  <origin>  (24) 
adgpu

>  <m_score__min__energy>  (24) 
-10.699999999999999

>  <m_primary>  (24) 
energy

$$$$
24:0
     RDKit          3D

 59 61  0  0  0  0  0  0  0  0999 V2000
   -2.8320   20.2440  -31.9170 C   0  0  0  0  0  0  0  0  0  0  0  0
   -2.5090   20.5910  -30.5760 O   0  0  0  0  0  0  0  0  0  0  0  0
   -2.2170   21.8950  -30.1420 C   0  0  0  0  0  0  0  0  0  0  0  0
   -1.0710   22.2010  -29.3910 C   0  0  0  0  0  0  0  0  0  0  0  0
   -0.8200   23.5150  -28.9920 C   0  0  0  0  0  0  0  0  0  0  0  0
   -1.7240   24.5460  -29.3120 C   0  0  0  0  0  0  0  0  0  0  0  0
   -1.4740   25.8810  -28.9540 O   0  0  0  0  0  0  0  0  0  0  0  0
   -0.8920   26.2920  -27.7210 C   0  0  0  0  0  0  0  0  0  0  0  0
   -2.8960   24.2320  -30.0310 C   0  0  0  0  0  0  0  0  0  0  0  0
   -3.8620   25.2340  -30.3900 N   0  0  0  0  0  0  0  0  0  0  0  0
   -5.2770   25.1390  -30.1920 C   0  0  0  0  0  0  0  0  0  0  0  0
   -5.7760   25.2750  -29.0400 O   0  0  0  0  0  0  0  0  0  0  0  0
   -6.1600   24.8180  -31.3580 C   0  0  0  0  0  0  0  0  0  0  0  0
   -6.5640   23.3970  -31.3250 N   0  0  0  0  0  0  0  0  0  0  0  0
   -8.0340   23.2410  -31.4990 C   0  0  0  0  0  0  0  0  0  0  0  0
   -8.4170   21.8580  -32.0650 C   0  0  0  0  0  0  0  0  0  0  0  0
   -7.4490   20.8480  -31.6170 N   0  0  0  0  0  0  0  0  0  0  0  0
   -7.9700   19.2570  -32.1200 S   0  0  0  0  0  0  0  0  0  0  0  0
   -9.1390   19.3790  -33.0580 O   0  0  0  0  0  0  0  0  0  0  0  0
   -8.4160   18.4750  -30.9120 O   0  0  0  0  0  0  0  0  0  0  0  0
   -6.6520   18.3940  -32.9390 C   0  0  0  0  0  0  0  0  0  0  0  0
   -6.3950   18.6850  -34.2900 C   0  0  0  0  0  0  0  0  0  0  0  0
   -5.3580   18.0420  -34.9710 C   0  0  0  0  0  0  0  0  0  0  0  0
   -4.5500   17.1050  -34.3130 C   0  0  0  0  0  0  0  0  0  0  0  0
   -3.4510   16.3940  -35.0520 C   0  0  0  0  0  0  0  0  0  0  0  0
   -4.8170   16.7880  -32.9740 C   0  0  0  0  0  0  0  0  0  0  0  0
   -5.8610   17.4230  -32.2740 C   0  0  0  0  0  0  0  0  0  0  0  0
   -6.1100   17.0480  -30.8340 C   0  0  0  0  0  0  0  0  0  0  0  0
   -6.0900   21.1220  -32.1420 C   0  0  0  0  0  0  0  0  0  0  0  0
   -5.8250   22.6280  -32.3400 C   0  0  0  0  0  0  0  0  0  0  0  0
   -3.1080   22.9200  -30.4720 C   0  0  0  0  0  0  0  0  0  0  0  0
   -3.5815   19.4388  -31.9170 H   0  0  0  0  0  0  0  0  0  0  0  0
   -3.2396   21.1243  -32.4355 H   0  0  0  0  0  0  0  0  0  0  0  0
   -1.9248   19.9005  -32.4355 H   0  0  0  0  0  0  0  0  0  0  0  0
   -0.3675   21.4015  -29.1156 H   0  0  0  0  0  0  0  0  0  0  0  0
    0.0921   23.7470  -28.4226 H   0  0  0  0  0  0  0  0  0  0  0  0
   -1.4756   25.8798  -26.8846 H   0  0  0  0  0  0  0  0  0  0  0  0
    0.1427   25.9232  -27.6630 H   0  0  0  0  0  0  0  0  0  0  0  0
   -0.8935   27.3905  -27.6630 H   0  0  0  0  0  0  0  0  0  0  0  0
   -7.0587   25.4510  -31.3167 H   0  0  0  0  0  0  0  0  0  0  0  0
   -5.6046   25.0086  -32.2882 H   0  0  0  0  0  0  0  0  0  0  0  0
   -8.5208   23.3693  -30.5210 H   0  0  0  0  0  0  0  0  0  0  0  0
   -8.3685   24.0020  -32.2194 H   0  0  0  0  0  0  0  0  0  0  0  0
   -9.4211   21.5838  -31.7091 H   0  0  0  0  0  0  0  0  0  0  0  0
   -8.4109   21.9026  -33.1641 H   0  0  0  0  0  0  0  0  0  0  0  0
   -7.0157   19.4254  -34.8158 H   0  0  0  0  0  0  0  0  0  0  0  0
   -5.1747   18.2729  -36.0308 H   0  0  0  0  0  0  0  0  0  0  0  0
   -2.7548   15.9436  -34.3292 H   0  0  0  0  0  0  0  0  0  0  0  0
   -3.8848   15.6049  -35.6838 H   0  0  0  0  0  0  0  0  0  0  0  0
   -2.9091   17.1131  -35.6838 H   0  0  0  0  0  0  0  0  0  0  0  0
   -4.2023   16.0325  -32.4627 H   0  0  0  0  0  0  0  0  0  0  0  0
   -5.6230   17.7815  -30.1746 H   0  0  0  0  0  0  0  0  0  0  0  0
   -7.1925   17.0414  -30.6387 H   0  0  0  0  0  0  0  0  0  0  0  0
   -5.6961   16.0477  -30.6387 H   0  0  0  0  0  0  0  0  0  0  0  0
   -5.3506   20.7244  -31.4312 H   0  0  0  0  0  0  0  0  0  0  0  0
   -6.0080   20.6365  -33.1256 H   0  0  0  0  0  0  0  0  0  0  0  0
   -4.7480   22.8268  -32.2375 H   0  0  0  0  0  0  0  0  0  0  0  0
   -6.1612   22.9294  -33.3431 H   0  0  0  0  0  0  0  0  0  0  0  0
   -3.9903   22.6923  -31.0883 H   0  0  0  0  0  0  0  0  0  0  0  0
  1  2  1  0
  2  3  1  0
  3  4  2  0
  4  5  1  0
  5  6  2  0
  6  7  1  0
  7  8  1  0
  6  9  1  0
  9 10  1  0
 10 11  1  0
 11 12  2  0
 11 13  1  0
 13 14  1  0
 14 15  1  0
 15 16  1  0
 16 17  1  0
 17 18  1  0
 18 19  2  0
 18 20  2  0
 18 21  1  0
 21 22  2  0
 22 23  1  0
 23 24  2  0
 24 25  1  0
 24 26  1  0
 26 27  2  0
 27 28  1  0
 17 29  1  0
 29 30  1  0
  9 31  2  0
 31  3  1  0
 30 14  1  0
 27 21  1  0
  1 32  1  0
  1 33  1  0
  1 34  1  0
  4 35  1  0
  5 36  1  0
  8 37  1  0
  8 38  1  0
  8 39  1  0
 13 40  1  0
 13 41  1  0
 15 42  1  0
 15 43  1  0
 16 44  1  0
 16 45  1  0
 22 46  1  0
 23 47  1  0
 25 48  1  0
 25 49  1  0
 25 50  1  0
 26 51  1  0
 28 52  1  0
 28 53  1  0
 28 54  1  0
 29 55  1  0
 29 56  1  0
 30 57  1  0
 30 58  1  0
 31 59  1  0
M  CHG  1  10  -1
M  END
>  <UniqueID>  (25) 
25

>  <SMILES>  (25) 
COc1ccc(OC)c([N-]C(=O)CN2CCN(S(=O)(=O)c3ccc(C)cc3C)CC2)c1

>  <Energy>  (25) 
71.47541314137976

>  <Genealogy>  (25) 
COc1ccc(OC)c([N-]C(=O)CN2CCN(S(=O)(=O)c3ccc(C)cc3C)CC2)c1 (protonated)
COc1ccc(OC)c([N-]C(=O)CN2CCN(S(=O)(=O)c3ccc(C)cc3C)CC2)c1 (3D coordinates assigned)
COc1ccc(OC)c([N-]C(=O)CN2CCN(S(=O)(=O)c3ccc(C)cc3C)CC2)c1 (nonaromatic ring conformer: 71.47541314137976 kcal/mol)

>  <smiles>  (25) 
COc1ccc(OC)c(NC(=O)CN2CCN(S(=O)(=O)c3ccc(C)cc3C)CC2)c1

>  <score_type>  (25) 
oracle

>  <origin>  (25) 
adgpu

>  <m_score__min__energy>  (25) 
-11.52

>  <m_primary>  (25) 
energy

$$$$
25:0
     RDKit          3D

 41 43  0  0  0  0  0  0  0  0999 V2000
   -1.9980   25.6020  -28.9420 O   0  0  0  0  0  0  0  0  0  0  0  0
   -2.6050   24.6010  -29.4110 C   0  0  0  0  0  0  0  0  0  0  0  0
   -3.6170   24.7800  -30.4110 N   0  0  0  0  0  0  0  0  0  0  0  0
   -4.5640   23.7950  -30.8510 C   0  0  0  0  0  0  0  0  0  0  0  0
   -4.1240   22.7730  -31.7010 C   0  0  0  0  0  0  0  0  0  0  0  0
   -5.0180   21.8020  -32.1630 C   0  0  0  0  0  0  0  0  0  0  0  0
   -6.3670   21.8540  -31.7930 C   0  0  0  0  0  0  0  0  0  0  0  0
   -7.4780   20.6100  -32.3680 S   0  0  0  0  0  0  0  0  0  0  0  0
   -7.2560   20.4200  -33.8430 O   0  0  0  0  0  0  0  0  0  0  0  0
   -8.8960   21.0610  -32.1520 O   0  0  0  0  0  0  0  0  0  0  0  0
   -7.1660   19.1140  -31.5100 N   0  0  0  0  0  0  0  0  0  0  0  0
   -8.0040   18.0020  -32.0240 C   0  0  0  0  0  0  0  0  0  0  0  0
   -7.2440   17.0890  -33.0040 C   0  0  0  0  0  0  0  0  0  0  0  0
   -6.3080   17.8380  -33.7450 O   0  0  0  0  0  0  0  0  0  0  0  0
   -5.2520   18.2760  -32.9040 C   0  0  0  0  0  0  0  0  0  0  0  0
   -5.7280   18.7780  -31.5190 C   0  0  0  0  0  0  0  0  0  0  0  0
   -6.8170   22.8880  -30.9620 C   0  0  0  0  0  0  0  0  0  0  0  0
   -5.9240   23.8590  -30.4990 C   0  0  0  0  0  0  0  0  0  0  0  0
   -2.3090   23.2480  -28.8880 C   0  0  0  0  0  0  0  0  0  0  0  0
   -3.2010   22.6040  -28.0130 C   0  0  0  0  0  0  0  0  0  0  0  0
   -2.9110   21.3270  -27.5290 C   0  0  0  0  0  0  0  0  0  0  0  0
   -1.7280   20.6970  -27.9230 C   0  0  0  0  0  0  0  0  0  0  0  0
   -1.4500   19.5480  -27.4950 O   0  0  0  0  0  0  0  0  0  0  0  0
   -0.8730   21.3300  -28.7680 N   0  0  0  0  0  0  0  0  0  0  0  0
   -1.1300   22.5740  -29.2520 C   0  0  0  0  0  0  0  0  0  0  0  0
   -3.0682   22.7337  -32.0073 H   0  0  0  0  0  0  0  0  0  0  0  0
   -4.6601   20.9949  -32.8191 H   0  0  0  0  0  0  0  0  0  0  0  0
   -7.4380   19.2900  -30.5150 H   0  0  0  0  0  0  0  0  0  0  0  0
   -8.3461   17.3962  -31.1719 H   0  0  0  0  0  0  0  0  0  0  0  0
   -8.8479   18.4474  -32.5713 H   0  0  0  0  0  0  0  0  0  0  0  0
   -6.7164   16.3078  -32.4372 H   0  0  0  0  0  0  0  0  0  0  0  0
   -7.9643   16.6303  -33.6973 H   0  0  0  0  0  0  0  0  0  0  0  0
   -4.5593   17.4355  -32.7497 H   0  0  0  0  0  0  0  0  0  0  0  0
   -4.7718   19.1280  -33.4075 H   0  0  0  0  0  0  0  0  0  0  0  0
   -5.5440   17.9896  -30.7743 H   0  0  0  0  0  0  0  0  0  0  0  0
   -5.1664   19.6934  -31.2810 H   0  0  0  0  0  0  0  0  0  0  0  0
   -7.8771   22.9362  -30.6726 H   0  0  0  0  0  0  0  0  0  0  0  0
   -6.2864   24.6757  -29.8573 H   0  0  0  0  0  0  0  0  0  0  0  0
   -4.1303   23.1077  -27.7087 H   0  0  0  0  0  0  0  0  0  0  0  0
   -3.6075   20.8216  -26.8438 H   0  0  0  0  0  0  0  0  0  0  0  0
   -0.4119   23.0558  -29.9319 H   0  0  0  0  0  0  0  0  0  0  0  0
  1  2  2  0
  2  3  1  0
  3  4  1  0
  4  5  2  0
  5  6  1  0
  6  7  2  0
  7  8  1  0
  8  9  2  0
  8 10  2  0
  8 11  1  0
 11 12  1  0
 12 13  1  0
 13 14  1  0
 14 15  1  0
 15 16  1  0
  7 17  1  0
 17 18  2  0
  2 19  1  0
 19 20  1  0
 20 21  2  0
 21 22  1  0
 22 23  2  0
 22 24  1  0
 24 25  1  0
 18  4  1  0
 25 19  2  0
 16 11  1  0
  5 26  1  0
  6 27  1  0
 11 28  1  0
 12 29  1  0
 12 30  1  0
 13 31  1  0
 13 32  1  0
 15 33  1  0
 15 34  1  0
 16 35  1  0
 16 36  1  0
 17 37  1  0
 18 38  1  0
 20 39  1  0
 21 40  1  0
 25 41  1  0
M  CHG  3   3  -1  11   1  24  -1
M  END
>  <UniqueID>  (26) 
26

>  <SMILES>  (26) 
O=C([N-]c1ccc(S(=O)(=O)[NH+]2CCOCC2)cc1)c1ccc(=O)[n-]c1

>  <Energy>  (26) 
58.50555716397368

>  <Genealogy>  (26) 
O=C([N-]c1ccc(S(=O)(=O)[NH+]2CCOCC2)cc1)c1ccc(=O)[n-]c1 (protonated)
O=C([N-]c1ccc(S(=O)(=O)[NH+]2CCOCC2)cc1)c1ccc(=O)[n-]c1 (3D coordinates assigned)
O=C([N-]c1ccc(S(=O)(=O)[NH+]2CCOCC2)cc1)c1ccc(=O)[n-]c1 (nonaromatic ring conformer: 58.50555716397368 kcal/mol)

>  <smiles>  (26) 
O=C(Nc1ccc(S(=O)(=O)N2CCOCC2)cc1)c1ccc(=O)[nH]c1

>  <score_type>  (26) 
oracle

>  <origin>  (26) 
adgpu

>  <m_score__min__energy>  (26) 
-9.7400000000000002

>  <m_primary>  (26) 
energy

$$$$
26:0
     RDKit          3D

 46 48  0  0  0  0  0  0  0  0999 V2000
   -1.3430   25.7730  -26.9340 C   0  0  0  0  0  0  0  0  0  0  0  0
   -1.8260   24.7890  -27.9510 C   0  0  0  0  0  0  0  0  0  0  0  0
   -1.4890   23.4390  -27.8420 C   0  0  0  0  0  0  0  0  0  0  0  0
   -1.9560   22.5190  -28.7940 C   0  0  0  0  0  0  0  0  0  0  0  0
   -1.5720   21.0700  -28.6430 C   0  0  0  0  0  0  0  0  0  0  0  0
   -2.7450   22.9820  -29.8770 C   0  0  0  0  0  0  0  0  0  0  0  0
   -3.3530   21.8640  -31.1230 S   0  0  0  0  0  0  0  0  0  0  0  0
   -2.8100   20.4860  -30.8640 O   0  0  0  0  0  0  0  0  0  0  0  0
   -2.9050   22.2820  -32.4960 O   0  0  0  0  0  0  0  0  0  0  0  0
   -5.1130   21.8550  -31.0870 C   0  0  0  0  0  0  0  0  0  0  0  0
   -5.7970   22.9420  -30.5340 C   0  0  0  0  0  0  0  0  0  0  0  0
   -7.1900   22.9380  -30.4780 C   0  0  0  0  0  0  0  0  0  0  0  0
   -7.9180   21.8550  -30.9850 C   0  0  0  0  0  0  0  0  0  0  0  0
   -9.6720   21.9020  -30.8370 Cl  0  0  0  0  0  0  0  0  0  0  0  0
   -7.2400   20.7630  -31.5700 C   0  0  0  0  0  0  0  0  0  0  0  0
   -8.1370   19.3780  -32.2210 S   0  0  0  0  0  0  0  0  0  0  0  0
   -9.2880   19.8800  -33.0510 O   0  0  0  0  0  0  0  0  0  0  0  0
   -8.6730   18.5750  -31.0680 O   0  0  0  0  0  0  0  0  0  0  0  0
   -7.1350   18.3420  -33.2150 N   0  0  0  0  0  0  0  0  0  0  0  0
   -6.2560   17.4750  -32.4090 C   0  0  0  0  0  0  0  0  0  0  0  0
   -4.8600   17.5180  -33.0250 C   0  0  0  0  0  0  0  0  0  0  0  0
   -5.0110   18.3080  -34.3080 C   0  0  0  0  0  0  0  0  0  0  0  0
   -6.2600   19.1350  -34.0850 C   0  0  0  0  0  0  0  0  0  0  0  0
   -5.8360   20.7690  -31.5980 C   0  0  0  0  0  0  0  0  0  0  0  0
   -3.0750   24.3530  -29.9270 C   0  0  0  0  0  0  0  0  0  0  0  0
   -3.8070   24.8100  -30.8450 O   0  0  0  0  0  0  0  0  0  0  0  0
   -2.6100   25.2050  -28.9770 N   0  0  0  0  0  0  0  0  0  0  0  0
   -1.5354   25.3811  -25.9243 H   0  0  0  0  0  0  0  0  0  0  0  0
   -0.2629   25.9351  -27.0647 H   0  0  0  0  0  0  0  0  0  0  0  0
   -1.8754   26.7266  -27.0647 H   0  0  0  0  0  0  0  0  0  0  0  0
   -0.8571   23.0957  -27.0096 H   0  0  0  0  0  0  0  0  0  0  0  0
   -1.5052   20.8178  -27.5744 H   0  0  0  0  0  0  0  0  0  0  0  0
   -2.3334   20.4370  -29.1222 H   0  0  0  0  0  0  0  0  0  0  0  0
   -0.5971   20.8972  -29.1222 H   0  0  0  0  0  0  0  0  0  0  0  0
   -5.2346   23.8024  -30.1422 H   0  0  0  0  0  0  0  0  0  0  0  0
   -7.7210   23.7920  -30.0322 H   0  0  0  0  0  0  0  0  0  0  0  0
   -7.7530   17.7530  -33.8220 H   0  0  0  0  0  0  0  0  0  0  0  0
   -6.2184   17.8414  -31.3725 H   0  0  0  0  0  0  0  0  0  0  0  0
   -6.6390   16.4438  -32.4004 H   0  0  0  0  0  0  0  0  0  0  0  0
   -4.1547   18.0187  -32.3454 H   0  0  0  0  0  0  0  0  0  0  0  0
   -4.4632   16.5089  -33.2101 H   0  0  0  0  0  0  0  0  0  0  0  0
   -4.1375   18.9559  -34.4732 H   0  0  0  0  0  0  0  0  0  0  0  0
   -5.0836   17.6629  -35.1960 H   0  0  0  0  0  0  0  0  0  0  0  0
   -6.0031   20.0877  -33.5988 H   0  0  0  0  0  0  0  0  0  0  0  0
   -6.7556   19.3718  -35.0381 H   0  0  0  0  0  0  0  0  0  0  0  0
   -5.2974   19.9108  -32.0262 H   0  0  0  0  0  0  0  0  0  0  0  0
  1  2  1  0
  2  3  2  0
  3  4  1  0
  4  5  1  0
  4  6  2  0
  6  7  1  0
  7  8  2  0
  7  9  2  0
  7 10  1  0
 10 11  2  0
 11 12  1  0
 12 13  2  0
 13 14  1  0
 13 15  1  0
 15 16  1  0
 16 17  2  0
 16 18  2  0
 16 19  1  0
 19 20  1  0
 20 21  1  0
 21 22  1  0
 22 23  1  0
 15 24  2  0
  6 25  1  0
 25 26  2  0
 25 27  1  0
 27  2  1  0
 24 10  1  0
 23 19  1  0
  1 28  1  0
  1 29  1  0
  1 30  1  0
  3 31  1  0
  5 32  1  0
  5 33  1  0
  5 34  1  0
 11 35  1  0
 12 36  1  0
 19 37  1  0
 20 38  1  0
 20 39  1  0
 21 40  1  0
 21 41  1  0
 22 42  1  0
 22 43  1  0
 23 44  1  0
 23 45  1  0
 24 46  1  0
M  CHG  2  19   1  27  -1
M  END
>  <UniqueID>  (27) 
27

>  <SMILES>  (27) 
Cc1cc(C)c(S(=O)(=O)c2ccc(Cl)c(S(=O)(=O)[NH+]3CCCC3)c2)c(=O)[n-]1

>  <Energy>  (27) 
55.08799623562652

>  <Genealogy>  (27) 
Cc1cc(C)c(S(=O)(=O)c2ccc(Cl)c(S(=O)(=O)[NH+]3CCCC3)c2)c(=O)[n-]1 (protonated)
Cc1cc(C)c(S(=O)(=O)c2ccc(Cl)c(S(=O)(=O)[NH+]3CCCC3)c2)c(=O)[n-]1 (3D coordinates assigned)
Cc1cc(C)c(S(=O)(=O)c2ccc(Cl)c(S(=O)(=O)[NH+]3CCCC3)c2)c(=O)[n-]1 (nonaromatic ring conformer: 55.08799623562652 kcal/mol)

>  <smiles>  (27) 
Cc1cc(C)c(S(=O)(=O)c2ccc(Cl)c(S(=O)(=O)N3CCCC3)c2)c(=O)[nH]1

>  <score_type>  (27) 
oracle

>  <origin>  (27) 
adgpu

>  <m_score__min__energy>  (27) 
-11.130000000000001

>  <m_primary>  (27) 
energy

$$$$
27:0
     RDKit          3D

 47 50  0  0  0  0  0  0  0  0999 V2000
   -7.6470   24.2190  -30.8290 O   0  0  0  0  0  0  0  0  0  0  0  0
   -6.5880   23.7050  -31.2750 C   0  0  0  0  0  0  0  0  0  0  0  0
   -6.6710   22.7930  -32.3780 N   0  0  0  0  0  0  0  0  0  0  0  0
   -7.2900   21.5000  -32.3370 C   0  0  0  0  0  0  0  0  0  0  0  0
   -8.5890   21.3270  -31.8330 C   0  0  0  0  0  0  0  0  0  0  0  0
   -9.1590   20.0530  -31.7840 C   0  0  0  0  0  0  0  0  0  0  0  0
   -8.4390   18.9450  -32.2360 C   0  0  0  0  0  0  0  0  0  0  0  0
   -7.1440   19.1070  -32.7500 C   0  0  0  0  0  0  0  0  0  0  0  0
   -6.2210   17.7030  -33.2950 S   0  0  0  0  0  0  0  0  0  0  0  0
   -7.1070   16.8360  -34.1460 O   0  0  0  0  0  0  0  0  0  0  0  0
   -5.7960   16.9000  -32.0970 O   0  0  0  0  0  0  0  0  0  0  0  0
   -4.8000   18.1440  -34.2130 N   0  0  0  0  0  0  0  0  0  0  0  0
   -4.1070   16.9770  -34.7610 C   0  0  0  0  0  0  0  0  0  0  0  0
   -2.6320   17.3500  -34.8720 C   0  0  0  0  0  0  0  0  0  0  0  0
   -2.4790   18.6440  -34.0860 C   0  0  0  0  0  0  0  0  0  0  0  0
   -3.8120   18.8380  -33.3910 C   0  0  0  0  0  0  0  0  0  0  0  0
   -6.5860   20.3920  -32.8240 C   0  0  0  0  0  0  0  0  0  0  0  0
   -5.2950   24.1010  -30.6850 C   0  0  0  0  0  0  0  0  0  0  0  0
   -4.6090   23.4430  -29.6810 C   0  0  0  0  0  0  0  0  0  0  0  0
   -3.4660   24.2000  -29.5030 C   0  0  0  0  0  0  0  0  0  0  0  0
   -2.3930   23.9810  -28.5020 C   0  0  0  0  0  0  0  0  0  0  0  0
   -2.4780   22.8670  -27.6480 C   0  0  0  0  0  0  0  0  0  0  0  0
   -1.4790   22.6120  -26.7060 C   0  0  0  0  0  0  0  0  0  0  0  0
   -0.3850   23.4700  -26.5990 C   0  0  0  0  0  0  0  0  0  0  0  0
   -0.2910   24.5910  -27.4250 C   0  0  0  0  0  0  0  0  0  0  0  0
   -1.2920   24.8610  -28.3720 C   0  0  0  0  0  0  0  0  0  0  0  0
   -1.1990   26.0100  -29.1540 O   0  0  0  0  0  0  0  0  0  0  0  0
   -3.4850   25.2430  -30.3590 N   0  0  0  0  0  0  0  0  0  0  0  0
   -4.5910   25.1760  -31.0840 N   0  0  0  0  0  0  0  0  0  0  0  0
   -9.1592   22.1972  -31.4758 H   0  0  0  0  0  0  0  0  0  0  0  0
  -10.1771   19.9220  -31.3886 H   0  0  0  0  0  0  0  0  0  0  0  0
   -8.8888   17.9423  -32.1888 H   0  0  0  0  0  0  0  0  0  0  0  0
   -4.2296   16.1143  -34.0896 H   0  0  0  0  0  0  0  0  0  0  0  0
   -4.5182   16.6997  -35.7428 H   0  0  0  0  0  0  0  0  0  0  0  0
   -2.0020   16.5598  -34.4377 H   0  0  0  0  0  0  0  0  0  0  0  0
   -2.3194   17.4699  -35.9198 H   0  0  0  0  0  0  0  0  0  0  0  0
   -1.6674   18.5554  -33.3488 H   0  0  0  0  0  0  0  0  0  0  0  0
   -2.2224   19.4946  -34.7346 H   0  0  0  0  0  0  0  0  0  0  0  0
   -3.7829   18.4040  -32.3806 H   0  0  0  0  0  0  0  0  0  0  0  0
   -4.0574   19.9046  -33.2811 H   0  0  0  0  0  0  0  0  0  0  0  0
   -5.5889   20.5300  -33.2675 H   0  0  0  0  0  0  0  0  0  0  0  0
   -4.9046   22.5279  -29.1469 H   0  0  0  0  0  0  0  0  0  0  0  0
   -3.3409   22.1889  -27.7228 H   0  0  0  0  0  0  0  0  0  0  0  0
   -1.5552   21.7338  -26.0480 H   0  0  0  0  0  0  0  0  0  0  0  0
    0.4052   23.2629  -25.8623 H   0  0  0  0  0  0  0  0  0  0  0  0
    0.5721   25.2668  -27.3337 H   0  0  0  0  0  0  0  0  0  0  0  0
   -1.6090   26.0590  -30.0800 H   0  0  0  0  0  0  0  0  0  0  0  0
  1  2  2  0
  2  3  1  0
  3  4  1  0
  4  5  2  0
  5  6  1  0
  6  7  2  0
  7  8  1  0
  8  9  1  0
  9 10  2  0
  9 11  2  0
  9 12  1  0
 12 13  1  0
 13 14  1  0
 14 15  1  0
 15 16  1  0
  8 17  2  0
  2 18  1  0
 18 19  1  0
 19 20  2  0
 20 21  1  0
 21 22  2  0
 22 23  1  0
 23 24  2  0
 24 25  1  0
 25 26  2  0
 26 27  1  0
 20 28  1  0
 28 29  1  0
 17  4  1  0
 29 18  2  0
 16 12  1  0
 26 21  1  0
  5 30  1  0
  6 31  1  0
  7 32  1  0
 13 33  1  0
 13 34  1  0
 14 35  1  0
 14 36  1  0
 15 37  1  0
 15 38  1  0
 16 39  1  0
 16 40  1  0
 17 41  1  0
 19 42  1  0
 22 43  1  0
 23 44  1  0
 24 45  1  0
 25 46  1  0
 27 47  1  0
M  CHG  2   3  -1  28  -1
M  END
>  <UniqueID>  (28) 
28

>  <SMILES>  (28) 
O=C([N-]c1cccc(S(=O)(=O)N2CCCC2)c1)c1cc(-c2ccccc2O)[n-]n1

>  <Energy>  (28) 
88.09016259900109

>  <Genealogy>  (28) 
O=C([N-]c1cccc(S(=O)(=O)N2CCCC2)c1)c1cc(-c2ccccc2O)[n-]n1 (protonated)
O=C([N-]c1cccc(S(=O)(=O)N2CCCC2)c1)c1cc(-c2ccccc2O)[n-]n1 (3D coordinates assigned)
O=C([N-]c1cccc(S(=O)(=O)N2CCCC2)c1)c1cc(-c2ccccc2O)[n-]n1 (nonaromatic ring conformer: 88.09016259900109 kcal/mol)

>  <smiles>  (28) 
O=C(Nc1cccc(S(=O)(=O)N2CCCC2)c1)c1cc(-c2ccccc2O)[nH]n1

>  <score_type>  (28) 
oracle

>  <origin>  (28) 
adgpu

>  <m_score__min__energy>  (28) 
-13.119999999999999

>  <m_primary>  (28) 
energy

$$$$
28:0
     RDKit          3D

 45 47  0  0  0  0  0  0  0  0999 V2000
    0.6480   19.6560  -32.3500 C   0  0  0  0  0  0  0  0  0  0  0  0
   -0.5570   20.4970  -32.0490 C   0  0  0  0  0  0  0  0  0  0  0  0
   -1.7980   20.1730  -32.6030 C   0  0  0  0  0  0  0  0  0  0  0  0
   -2.9280   20.9280  -32.2880 C   0  0  0  0  0  0  0  0  0  0  0  0
   -2.8460   22.0210  -31.4090 C   0  0  0  0  0  0  0  0  0  0  0  0
   -4.3320   22.9540  -31.1090 S   0  0  0  0  0  0  0  0  0  0  0  0
   -4.0150   24.4020  -30.8640 O   0  0  0  0  0  0  0  0  0  0  0  0
   -4.9700   22.4320  -29.8500 O   0  0  0  0  0  0  0  0  0  0  0  0
   -5.5030   22.8130  -32.4040 N   0  0  0  0  0  0  0  0  0  0  0  0
   -6.5690   23.8280  -32.3090 C   0  0  0  0  0  0  0  0  0  0  0  0
   -7.7240   23.4060  -31.3670 C   0  0  0  0  0  0  0  0  0  0  0  0
   -7.6800   22.0410  -30.9970 O   0  0  0  0  0  0  0  0  0  0  0  0
   -7.4450   21.2480  -32.1350 C   0  0  0  0  0  0  0  0  0  0  0  0
   -5.9980   21.4350  -32.6100 C   0  0  0  0  0  0  0  0  0  0  0  0
   -1.5900   22.3480  -30.8340 C   0  0  0  0  0  0  0  0  0  0  0  0
   -1.4450   23.4320  -29.9020 N   0  0  0  0  0  0  0  0  0  0  0  0
   -0.8310   23.2750  -28.6110 C   0  0  0  0  0  0  0  0  0  0  0  0
   -0.2160   22.2080  -28.3360 O   0  0  0  0  0  0  0  0  0  0  0  0
   -0.8830   24.3680  -27.6100 C   0  0  0  0  0  0  0  0  0  0  0  0
   -0.7240   24.0780  -26.2420 C   0  0  0  0  0  0  0  0  0  0  0  0
   -0.7640   25.1000  -25.2900 C   0  0  0  0  0  0  0  0  0  0  0  0
   -0.9590   26.4220  -25.6890 C   0  0  0  0  0  0  0  0  0  0  0  0
   -1.1110   26.7270  -27.0430 C   0  0  0  0  0  0  0  0  0  0  0  0
   -1.0740   25.7110  -28.0040 C   0  0  0  0  0  0  0  0  0  0  0  0
   -1.2450   26.0470  -29.3430 O   0  0  0  0  0  0  0  0  0  0  0  0
   -0.4630   21.5680  -31.1530 C   0  0  0  0  0  0  0  0  0  0  0  0
    1.1132   19.3313  -31.4076 H   0  0  0  0  0  0  0  0  0  0  0  0
    0.3432   18.7735  -32.9316 H   0  0  0  0  0  0  0  0  0  0  0  0
    1.3713   20.2465  -32.9316 H   0  0  0  0  0  0  0  0  0  0  0  0
   -1.8844   19.3188  -33.2906 H   0  0  0  0  0  0  0  0  0  0  0  0
   -3.8979   20.6636  -32.7346 H   0  0  0  0  0  0  0  0  0  0  0  0
   -6.1304   24.7625  -31.9291 H   0  0  0  0  0  0  0  0  0  0  0  0
   -6.9944   23.9537  -33.3156 H   0  0  0  0  0  0  0  0  0  0  0  0
   -7.6690   24.0164  -30.4535 H   0  0  0  0  0  0  0  0  0  0  0  0
   -8.6638   23.5622  -31.9170 H   0  0  0  0  0  0  0  0  0  0  0  0
   -7.6130   20.1903  -31.8839 H   0  0  0  0  0  0  0  0  0  0  0  0
   -8.1327   21.5525  -32.9378 H   0  0  0  0  0  0  0  0  0  0  0  0
   -5.3519   20.7419  -32.0513 H   0  0  0  0  0  0  0  0  0  0  0  0
   -5.9744   21.2317  -33.6908 H   0  0  0  0  0  0  0  0  0  0  0  0
   -1.7960   24.3750  -30.1720 H   0  0  0  0  0  0  0  0  0  0  0  0
   -0.5669   23.0381  -25.9196 H   0  0  0  0  0  0  0  0  0  0  0  0
   -0.6414   24.8612  -24.2232 H   0  0  0  0  0  0  0  0  0  0  0  0
   -0.9930   27.2242  -24.9372 H   0  0  0  0  0  0  0  0  0  0  0  0
   -1.2605   27.7710  -27.3556 H   0  0  0  0  0  0  0  0  0  0  0  0
    0.5070   21.8038  -30.6909 H   0  0  0  0  0  0  0  0  0  0  0  0
  1  2  1  0
  2  3  2  0
  3  4  1  0
  4  5  2  0
  5  6  1  0
  6  7  2  0
  6  8  2  0
  6  9  1  0
  9 10  1  0
 10 11  1  0
 11 12  1  0
 12 13  1  0
 13 14  1  0
  5 15  1  0
 15 16  1  0
 16 17  1  0
 17 18  2  0
 17 19  1  0
 19 20  2  0
 20 21  1  0
 21 22  2  0
 22 23  1  0
 23 24  2  0
 24 25  1  0
 15 26  2  0
 26  2  1  0
 14  9  1  0
 24 19  1  0
  1 27  1  0
  1 28  1  0
  1 29  1  0
  3 30  1  0
  4 31  1  0
 10 32  1  0
 10 33  1  0
 11 34  1  0
 11 35  1  0
 13 36  1  0
 13 37  1  0
 14 38  1  0
 14 39  1  0
 16 40  1  0
 20 41  1  0
 21 42  1  0
 22 43  1  0
 23 44  1  0
 26 45  1  0
M  CHG  1  25  -1
M  END
>  <UniqueID>  (29) 
29

>  <SMILES>  (29) 
Cc1ccc(S(=O)(=O)N2CCOCC2)c(NC(=O)c2ccccc2[O-])c1

>  <Energy>  (29) 
66.11893966679843

>  <Genealogy>  (29) 
Cc1ccc(S(=O)(=O)N2CCOCC2)c(NC(=O)c2ccccc2[O-])c1 (protonated)
Cc1ccc(S(=O)(=O)N2CCOCC2)c(NC(=O)c2ccccc2[O-])c1 (3D coordinates assigned)
Cc1ccc(S(=O)(=O)N2CCOCC2)c(NC(=O)c2ccccc2[O-])c1 (nonaromatic ring conformer: 66.11893966679843 kcal/mol)

>  <smiles>  (29) 
Cc1ccc(S(=O)(=O)N2CCOCC2)c(NC(=O)c2ccccc2O)c1

>  <score_type>  (29) 
oracle

>  <origin>  (29) 
adgpu

>  <m_score__min__energy>  (29) 
-12.109999999999999

>  <m_primary>  (29) 
energy

$$$$
29:0
     RDKit          3D

 33 35  0  0  0  0  0  0  0  0999 V2000
   -2.4300   21.1900  -34.5970 H   0  0  0  0  0  0  0  0  0  0  0  0
   -2.3380   21.1250  -33.5590 N   0  0  0  0  0  0  0  0  0  0  0  0
   -3.3490   20.8050  -32.8160 C   0  0  0  0  0  0  0  0  0  0  0  0
   -4.5720   20.5320  -33.3140 N   0  0  0  0  0  0  0  0  0  0  0  0
   -5.3080   20.2330  -32.2200 C   0  0  0  0  0  0  0  0  0  0  0  0
   -6.7400   19.8490  -32.2760 C   0  0  0  0  0  0  0  0  0  0  0  0
   -7.7320   20.8470  -32.3200 C   0  0  0  0  0  0  0  0  0  0  0  0
   -7.4394   21.9073  -32.3118 H   0  0  0  0  0  0  0  0  0  0  0  0
   -9.0860   20.5020  -32.3740 C   0  0  0  0  0  0  0  0  0  0  0  0
   -9.8527   21.2900  -32.4086 H   0  0  0  0  0  0  0  0  0  0  0  0
   -9.4660   19.1580  -32.3840 C   0  0  0  0  0  0  0  0  0  0  0  0
  -10.5314   18.8877  -32.4273 H   0  0  0  0  0  0  0  0  0  0  0  0
   -8.4930   18.1580  -32.3390 C   0  0  0  0  0  0  0  0  0  0  0  0
   -8.7936   17.0999  -32.3453 H   0  0  0  0  0  0  0  0  0  0  0  0
   -7.1380   18.4970  -32.2860 C   0  0  0  0  0  0  0  0  0  0  0  0
   -6.3772   17.7033  -32.2519 H   0  0  0  0  0  0  0  0  0  0  0  0
   -4.5140   20.3300  -31.0870 C   0  0  0  0  0  0  0  0  0  0  0  0
   -4.8359   20.1358  -30.0532 H   0  0  0  0  0  0  0  0  0  0  0  0
   -3.2820   20.7030  -31.4740 N   0  0  0  0  0  0  0  0  0  0  0  0
   -2.1070   20.8470  -30.6150 C   0  0  0  0  0  0  0  0  0  0  0  0
   -2.2085   20.1824  -29.7444 H   0  0  0  0  0  0  0  0  0  0  0  0
   -1.2065   20.5778  -31.1865 H   0  0  0  0  0  0  0  0  0  0  0  0
   -1.9860   22.2700  -30.1440 C   0  0  0  0  0  0  0  0  0  0  0  0
   -2.9940   23.2030  -30.4380 C   0  0  0  0  0  0  0  0  0  0  0  0
   -3.8920   22.8846  -30.9878 H   0  0  0  0  0  0  0  0  0  0  0  0
   -2.8600   24.5360  -30.0340 C   0  0  0  0  0  0  0  0  0  0  0  0
   -3.8670   25.4490  -30.3240 O   0  0  0  0  0  0  0  0  0  0  0  0
   -1.7150   24.9470  -29.3430 C   0  0  0  0  0  0  0  0  0  0  0  0
   -1.5820   26.2720  -28.9400 O   0  0  0  0  0  0  0  0  0  0  0  0
   -0.7000   24.0250  -29.0590 C   0  0  0  0  0  0  0  0  0  0  0  0
    0.4420   24.4290  -28.3790 O   0  0  0  0  0  0  0  0  0  0  0  0
   -0.8340   22.6920  -29.4620 C   0  0  0  0  0  0  0  0  0  0  0  0
   -0.0326   21.9710  -29.2433 H   0  0  0  0  0  0  0  0  0  0  0  0
  1  2  1  0
  2  3  2  0
  3  4  1  0
  4  5  1  0
  5  6  1  0
  6  7  2  0
  7  8  1  0
  7  9  1  0
  9 10  1  0
  9 11  2  0
 11 12  1  0
 11 13  1  0
 13 14  1  0
 13 15  2  0
 15 16  1  0
  5 17  2  0
 17 18  1  0
 17 19  1  0
 19 20  1  0
 20 21  1  0
 20 22  1  0
 20 23  1  0
 23 24  2  0
 24 25  1  0
 24 26  1  0
 26 27  1  0
 26 28  2  0
 28 29  1  0
 28 30  1  0
 30 31  1  0
 30 32  2  0
 32 33  1  0
 19  3  1  0
 32 23  1  0
 15  6  1  0
M  CHG  4   4  -1  27  -1  29  -1  31  -1
M  END
>  <UniqueID>  (30) 
30

>  <SMILES>  (30) 
[H]/N=c1\[n-]c(-c2ccccc2)cn1Cc1cc([O-])c([O-])c([O-])c1

>  <Energy>  (30) 
66.47400976656697

>  <Genealogy>  (30) 
N=c1[n-]c(-c2ccccc2)cn1Cc1cc([O-])c([O-])c([O-])c1 (protonated)
[H]/N=c1\[n-]c(-c2ccccc2)cn1Cc1cc([O-])c([O-])c([O-])c1 (cis-trans isomerization)
[H]/N=c1\[n-]c(-c2ccccc2)cn1Cc1cc([O-])c([O-])c([O-])c1 (3D coordinates assigned)
[H]/N=c1\[n-]c(-c2ccccc2)cn1Cc1cc([O-])c([O-])c([O-])c1 (optimized conformer: 66.47400976656697 kcal/mol)

>  <smiles>  (30) 
N=c1[nH]c(-c2ccccc2)cn1Cc1cc(O)c(O)c(O)c1

>  <score_type>  (30) 
oracle

>  <origin>  (30) 
adgpu

>  <m_score__min__energy>  (30) 
-14.359999999999999

>  <m_primary>  (30) 
energy

$$$$
30:0
     RDKit          3D

 57 60  0  0  0  0  0  0  0  0999 V2000
    1.6735   19.8168  -31.2815 H   0  0  0  0  0  0  0  0  0  0  0  0
    0.8240   19.6970  -30.5930 C   0  0  0  0  0  0  0  0  0  0  0  0
   -0.3730   20.1280  -31.0780 C   0  0  0  0  0  0  0  0  0  0  0  0
   -1.5600   20.2620  -30.3150 C   0  0  0  0  0  0  0  0  0  0  0  0
   -1.5250   20.1520  -29.0620 O   0  0  0  0  0  0  0  0  0  0  0  0
   -2.7540   20.5810  -30.9270 N   0  0  0  0  0  0  0  0  0  0  0  0
   -3.8700   21.0340  -30.0590 C   0  0  0  0  0  0  0  0  0  0  0  0
   -4.6947   21.3842  -30.6971 H   0  0  0  0  0  0  0  0  0  0  0  0
   -4.1785   20.1820  -29.4354 H   0  0  0  0  0  0  0  0  0  0  0  0
   -3.4620   22.1490  -29.1430 C   0  0  0  0  0  0  0  0  0  0  0  0
   -2.3420   22.8270  -29.2400 O   0  0  0  0  0  0  0  0  0  0  0  0
   -2.3250   23.7460  -28.3020 C   0  0  0  0  0  0  0  0  0  0  0  0
   -1.5083   24.4629  -28.1315 H   0  0  0  0  0  0  0  0  0  0  0  0
   -3.4880   23.6750  -27.5630 C   0  0  0  0  0  0  0  0  0  0  0  0
   -3.7687   24.3106  -26.7102 H   0  0  0  0  0  0  0  0  0  0  0  0
   -4.2270   22.6480  -28.1080 C   0  0  0  0  0  0  0  0  0  0  0  0
   -5.2191   22.2987  -27.7858 H   0  0  0  0  0  0  0  0  0  0  0  0
   -2.8120   20.6990  -32.3040 C   0  0  0  0  0  0  0  0  0  0  0  0
   -3.9760   20.7110  -33.0070 C   0  0  0  0  0  0  0  0  0  0  0  0
   -3.9740   21.2329  -33.9753 H   0  0  0  0  0  0  0  0  0  0  0  0
   -5.2440   20.0820  -32.5800 C   0  0  0  0  0  0  0  0  0  0  0  0
   -5.2200   18.7190  -32.2430 C   0  0  0  0  0  0  0  0  0  0  0  0
   -4.2777   18.1562  -32.3154 H   0  0  0  0  0  0  0  0  0  0  0  0
   -6.3810   18.0720  -31.8170 C   0  0  0  0  0  0  0  0  0  0  0  0
   -6.3541   17.0000  -31.5717 H   0  0  0  0  0  0  0  0  0  0  0  0
   -7.5750   18.7830  -31.7020 C   0  0  0  0  0  0  0  0  0  0  0  0
   -8.4917   18.2680  -31.3788 H   0  0  0  0  0  0  0  0  0  0  0  0
   -7.6090   20.1460  -31.9960 C   0  0  0  0  0  0  0  0  0  0  0  0
   -8.5553   20.6991  -31.9039 H   0  0  0  0  0  0  0  0  0  0  0  0
   -6.4490   20.8190  -32.4080 C   0  0  0  0  0  0  0  0  0  0  0  0
   -6.5450   22.2230  -32.7090 N   0  0  0  0  0  0  0  0  0  0  0  0
   -6.8860   22.4910  -33.6590 H   0  0  0  0  0  0  0  0  0  0  0  0
   -6.3280   23.2820  -31.7620 C   0  0  0  0  0  0  0  0  0  0  0  0
   -7.3850   23.8160  -31.0040 C   0  0  0  0  0  0  0  0  0  0  0  0
   -8.4078   23.4368  -31.1459 H   0  0  0  0  0  0  0  0  0  0  0  0
   -7.1400   24.8270  -30.0710 C   0  0  0  0  0  0  0  0  0  0  0  0
   -7.9685   25.2361  -29.4742 H   0  0  0  0  0  0  0  0  0  0  0  0
   -5.8440   25.3190  -29.8950 C   0  0  0  0  0  0  0  0  0  0  0  0
   -5.6520   26.1090  -29.1540 H   0  0  0  0  0  0  0  0  0  0  0  0
   -4.7910   24.8080  -30.6600 C   0  0  0  0  0  0  0  0  0  0  0  0
   -3.5020   25.2970  -30.4850 O   0  0  0  0  0  0  0  0  0  0  0  0
   -5.0340   23.8000  -31.5970 C   0  0  0  0  0  0  0  0  0  0  0  0
   -4.2067   23.4105  -32.2085 H   0  0  0  0  0  0  0  0  0  0  0  0
   -1.5970   20.7600  -33.0220 C   0  0  0  0  0  0  0  0  0  0  0  0
   -1.5800   21.0180  -34.2580 O   0  0  0  0  0  0  0  0  0  0  0  0
   -0.4300   20.4760  -32.3960 N   0  0  0  0  0  0  0  0  0  0  0  0
    0.4390   20.4710  -32.9810 H   0  0  0  0  0  0  0  0  0  0  0  0
    1.1710   19.0760  -29.2490 C   0  0  0  0  0  0  0  0  0  0  0  0
    2.2105   18.7325  -29.3555 H   0  0  0  0  0  0  0  0  0  0  0  0
    0.3440   17.8200  -28.9400 C   0  0  0  0  0  0  0  0  0  0  0  0
    0.2613   17.6944  -27.8503 H   0  0  0  0  0  0  0  0  0  0  0  0
   -0.6611   17.9268  -29.3741 H   0  0  0  0  0  0  0  0  0  0  0  0
    0.8392   16.9389  -29.3741 H   0  0  0  0  0  0  0  0  0  0  0  0
    1.2240   20.0800  -28.0820 C   0  0  0  0  0  0  0  0  0  0  0  0
    1.1952   19.5344  -27.1273 H   0  0  0  0  0  0  0  0  0  0  0  0
    2.1542   20.6640  -28.1427 H   0  0  0  0  0  0  0  0  0  0  0  0
    0.3604   20.7587  -28.1427 H   0  0  0  0  0  0  0  0  0  0  0  0
  1  2  1  0
  2  3  2  3
  3  4  1  0
  4  5  2  0
  4  6  1  0
  6  7  1  0
  7  8  1  0
  7  9  1  0
  7 10  1  0
 10 11  1  0
 11 12  1  0
 12 13  1  0
 12 14  2  0
 14 15  1  0
 14 16  1  0
 16 17  1  0
  6 18  1  0
 18 19  2  0
 19 20  1  0
 19 21  1  0
 21 22  2  0
 22 23  1  0
 22 24  1  0
 24 25  1  0
 24 26  2  0
 26 27  1  0
 26 28  1  0
 28 29  1  0
 28 30  2  0
 30 31  1  0
 31 32  1  0
 31 33  1  0
 33 34  2  0
 34 35  1  0
 34 36  1  0
 36 37  1  0
 36 38  2  0
 38 39  1  0
 38 40  1  0
 40 41  1  0
 40 42  2  0
 42 43  1  0
 18 44  1  0
 44 45  2  0
 44 46  1  0
 46 47  1  0
  2 48  1  0
 48 49  1  0
 48 50  1  0
 50 51  1  0
 50 52  1  0
 50 53  1  0
 48 54  1  0
 54 55  1  0
 54 56  1  0
 54 57  1  0
 46  3  1  0
 16 10  2  0
 30 21  1  0
 42 33  1  0
M  CHG  1  41  -1
M  END
>  <UniqueID>  (31) 
31

>  <SMILES>  (31) 
CC(C)C=c1[nH]c(=O)/c(=C/c2ccccc2Nc2cccc([O-])c2)n(Cc2ccco2)c1=O

>  <Energy>  (31) 
126.5274184577715

>  <Genealogy>  (31) 
CC(C)C=c1[nH]c(=O)c(=Cc2ccccc2Nc2cccc([O-])c2)n(Cc2ccco2)c1=O (protonated)
CC(C)C=c1[nH]c(=O)/c(=C/c2ccccc2Nc2cccc([O-])c2)n(Cc2ccco2)c1=O (cis-trans isomerization)
CC(C)C=c1[nH]c(=O)/c(=C/c2ccccc2Nc2cccc([O-])c2)n(Cc2ccco2)c1=O (3D coordinates assigned)
CC(C)C=c1[nH]c(=O)/c(=C/c2ccccc2Nc2cccc([O-])c2)n(Cc2ccco2)c1=O (optimized conformer: 126.5274184577715 kcal/mol)

>  <smiles>  (31) 
CC(C)C=c1[nH]c(=O)c(=Cc2ccccc2Nc2cccc(O)c2)n(Cc2ccco2)c1=O

>  <score_type>  (31) 
oracle

>  <origin>  (31) 
adgpu

>  <m_score__min__energy>  (31) 
-11.960000000000001

>  <m_primary>  (31) 
energy

$$$$
31:0
     RDKit          3D

 44 46  0  0  0  0  0  0  0  0999 V2000
    0.6791   26.9630  -26.8408 H   0  0  0  0  0  0  0  0  0  0  0  0
   -0.2710   26.4170  -26.7450 C   0  0  0  0  0  0  0  0  0  0  0  0
   -0.9580   26.0060  -27.8910 C   0  0  0  0  0  0  0  0  0  0  0  0
   -0.5556   26.2462  -28.8862 H   0  0  0  0  0  0  0  0  0  0  0  0
   -2.1560   25.2900  -27.7780 C   0  0  0  0  0  0  0  0  0  0  0  0
   -2.8710   24.9310  -28.9690 N   0  0  0  0  0  0  0  0  0  0  0  0
   -2.6300   23.9230  -29.7600 C   0  0  0  0  0  0  0  0  0  0  0  0
   -3.4860   23.6860  -30.7870 N   0  0  0  0  0  0  0  0  0  0  0  0
   -3.2730   22.6560  -31.6410 C   0  0  0  0  0  0  0  0  0  0  0  0
   -4.1790   22.4250  -32.6810 O   0  0  0  0  0  0  0  0  0  0  0  0
   -5.2720   21.5550  -32.5660 C   0  0  0  0  0  0  0  0  0  0  0  0
   -5.1550   20.1880  -32.9080 C   0  0  0  0  0  0  0  0  0  0  0  0
   -3.8700   19.6180  -33.4450 C   0  0  0  0  0  0  0  0  0  0  0  0
   -3.2186   19.3291  -32.6070 H   0  0  0  0  0  0  0  0  0  0  0  0
   -4.0902   18.7331  -34.0603 H   0  0  0  0  0  0  0  0  0  0  0  0
   -3.3619   20.3751  -34.0603 H   0  0  0  0  0  0  0  0  0  0  0  0
   -6.2540   19.3350  -32.7240 C   0  0  0  0  0  0  0  0  0  0  0  0
   -6.1588   18.2643  -32.9577 H   0  0  0  0  0  0  0  0  0  0  0  0
   -7.4690   19.8350  -32.2460 C   0  0  0  0  0  0  0  0  0  0  0  0
   -8.5900   18.9510  -32.0650 C   0  0  0  0  0  0  0  0  0  0  0  0
   -9.4920   18.2410  -31.9180 N   0  0  0  0  0  0  0  0  0  0  0  0
   -7.5950   21.1950  -31.9480 C   0  0  0  0  0  0  0  0  0  0  0  0
   -8.5539   21.5870  -31.5780 H   0  0  0  0  0  0  0  0  0  0  0  0
   -6.5060   22.0630  -32.1180 C   0  0  0  0  0  0  0  0  0  0  0  0
   -6.6390   23.5160  -31.7560 C   0  0  0  0  0  0  0  0  0  0  0  0
   -6.6487   23.6217  -30.6611 H   0  0  0  0  0  0  0  0  0  0  0  0
   -5.7884   24.0766  -32.1710 H   0  0  0  0  0  0  0  0  0  0  0  0
   -7.5772   23.9129  -32.1710 H   0  0  0  0  0  0  0  0  0  0  0  0
   -2.1920   21.8540  -31.4700 N   0  0  0  0  0  0  0  0  0  0  0  0
   -1.3140   22.0910  -30.4610 C   0  0  0  0  0  0  0  0  0  0  0  0
   -0.1860   21.2820  -30.2970 O   0  0  0  0  0  0  0  0  0  0  0  0
   -0.0290   20.0360  -30.9660 C   0  0  0  0  0  0  0  0  0  0  0  0
    0.0724   19.2312  -30.2231 H   0  0  0  0  0  0  0  0  0  0  0  0
   -0.9101   19.8445  -31.5961 H   0  0  0  0  0  0  0  0  0  0  0  0
    0.8721   20.0691  -31.5961 H   0  0  0  0  0  0  0  0  0  0  0  0
   -1.5280   23.1270  -29.6090 N   0  0  0  0  0  0  0  0  0  0  0  0
   -0.8120   23.3120  -28.8740 H   0  0  0  0  0  0  0  0  0  0  0  0
   -2.6930   25.0400  -26.5030 C   0  0  0  0  0  0  0  0  0  0  0  0
   -3.6571   24.5192  -26.4068 H   0  0  0  0  0  0  0  0  0  0  0  0
   -2.0060   25.4510  -25.3570 C   0  0  0  0  0  0  0  0  0  0  0  0
   -2.4213   25.2367  -24.3612 H   0  0  0  0  0  0  0  0  0  0  0  0
   -0.7900   26.1350  -25.4750 C   0  0  0  0  0  0  0  0  0  0  0  0
   -0.0840   26.5600  -24.2950 C   0  0  0  0  0  0  0  0  0  0  0  0
    0.4850   26.9030  -23.3460 N   0  0  0  0  0  0  0  0  0  0  0  0
  1  2  1  0
  2  3  2  0
  3  4  1  0
  3  5  1  0
  5  6  1  0
  6  7  2  0
  7  8  1  0
  8  9  2  0
  9 10  1  0
 10 11  1  0
 11 12  2  0
 12 13  1  0
 13 14  1  0
 13 15  1  0
 13 16  1  0
 12 17  1  0
 17 18  1  0
 17 19  2  0
 19 20  1  0
 20 21  3  0
 19 22  1  0
 22 23  1  0
 22 24  2  0
 24 25  1  0
 25 26  1  0
 25 27  1  0
 25 28  1  0
  9 29  1  0
 29 30  2  0
 30 31  1  0
 31 32  1  0
 32 33  1  0
 32 34  1  0
 32 35  1  0
 30 36  1  0
 36 37  1  0
  5 38  2  0
 38 39  1  0
 38 40  1  0
 40 41  1  0
 40 42  2  0
 42 43  1  0
 43 44  3  0
 42  2  1  0
 36  7  1  0
 24 11  1  0
M  END
>  <UniqueID>  (32) 
32

>  <SMILES>  (32) 
COc1nc(Oc2c(C)cc(C#N)cc2C)n/c(=N/c2ccc(C#N)cc2)[nH]1

>  <Energy>  (32) 
57.986516528812224

>  <Genealogy>  (32) 
COc1nc(Oc2c(C)cc(C#N)cc2C)n/c(=N/c2ccc(C#N)cc2)[nH]1 (cis-trans isomerization)
COc1nc(Oc2c(C)cc(C#N)cc2C)n/c(=N/c2ccc(C#N)cc2)[nH]1 (3D coordinates assigned)
COc1nc(Oc2c(C)cc(C#N)cc2C)n/c(=N/c2ccc(C#N)cc2)[nH]1 (optimized conformer: 57.986516528812224 kcal/mol)

>  <smiles>  (32) 
COc1nc(Oc2c(C)cc(C#N)cc2C)nc(=Nc2ccc(C#N)cc2)[nH]1

>  <score_type>  (32) 
oracle

>  <origin>  (32) 
adgpu

>  <m_score__min__energy>  (32) 
-8.5299999999999994

>  <m_primary>  (32) 
energy

$$$$
32:0
     RDKit          3D

 53 55  0  0  0  0  0  0  0  0999 V2000
    5.4415   19.9194  -35.1867 H   0  0  0  0  0  0  0  0  0  0  0  0
    4.4600   20.4010  -35.0650 C   0  0  0  0  0  0  0  0  0  0  0  0
    4.1690   21.5320  -35.7590 N   0  0  0  0  0  0  0  0  0  0  0  0
    2.9750   22.1720  -35.6270 C   0  0  0  0  0  0  0  0  0  0  0  0
    2.7220   23.3880  -36.4200 C   0  0  0  0  0  0  0  0  0  0  0  0
    3.6910   24.1380  -36.7020 O   0  0  0  0  0  0  0  0  0  0  0  0
    1.4070   23.7740  -36.8410 N   0  0  0  0  0  0  0  0  0  0  0  0
    0.6300   24.8650  -36.2670 C   0  0  0  0  0  0  0  0  0  0  0  0
    0.6715   24.8068  -35.1693 H   0  0  0  0  0  0  0  0  0  0  0  0
    1.0476   25.8269  -36.5992 H   0  0  0  0  0  0  0  0  0  0  0  0
   -0.4156   24.7849  -36.5992 H   0  0  0  0  0  0  0  0  0  0  0  0
    1.9900   21.6280  -34.7890 C   0  0  0  0  0  0  0  0  0  0  0  0
    1.0133   22.1246  -34.6918 H   0  0  0  0  0  0  0  0  0  0  0  0
    2.2530   20.4520  -34.0770 C   0  0  0  0  0  0  0  0  0  0  0  0
    1.2580   19.9410  -33.2300 O   0  0  0  0  0  0  0  0  0  0  0  0
   -0.1090   20.2440  -33.3010 C   0  0  0  0  0  0  0  0  0  0  0  0
   -0.9270   19.4610  -34.1240 C   0  0  0  0  0  0  0  0  0  0  0  0
   -0.4896   18.6323  -34.7002 H   0  0  0  0  0  0  0  0  0  0  0  0
   -2.2970   19.7260  -34.2180 C   0  0  0  0  0  0  0  0  0  0  0  0
   -2.9254   19.1203  -34.8875 H   0  0  0  0  0  0  0  0  0  0  0  0
   -2.8750   20.7570  -33.4660 C   0  0  0  0  0  0  0  0  0  0  0  0
   -4.2800   21.0300  -33.6060 N   0  0  0  0  0  0  0  0  0  0  0  0
   -4.5640   21.9980  -33.8810 H   0  0  0  0  0  0  0  0  0  0  0  0
   -5.3270   20.0920  -33.3070 C   0  0  0  0  0  0  0  0  0  0  0  0
   -6.5810   20.6090  -32.8300 N   0  0  0  0  0  0  0  0  0  0  0  0
   -6.9680   21.4330  -33.3450 H   0  0  0  0  0  0  0  0  0  0  0  0
   -7.1700   20.2320  -31.5340 C   0  0  0  0  0  0  0  0  0  0  0  0
   -6.3846   19.7365  -30.9444 H   0  0  0  0  0  0  0  0  0  0  0  0
   -8.3360   19.2450  -31.7380 C   0  0  0  0  0  0  0  0  0  0  0  0
   -7.9703   18.3850  -32.3182 H   0  0  0  0  0  0  0  0  0  0  0  0
   -8.6925   18.9451  -30.7415 H   0  0  0  0  0  0  0  0  0  0  0  0
   -9.5300   19.8720  -32.4870 C   0  0  0  0  0  0  0  0  0  0  0  0
   -9.4239   19.6495  -33.5590 H   0  0  0  0  0  0  0  0  0  0  0  0
  -10.4448   19.4366  -32.0585 H   0  0  0  0  0  0  0  0  0  0  0  0
   -9.6320   21.4000  -32.3140 C   0  0  0  0  0  0  0  0  0  0  0  0
   -9.0282   21.8900  -33.0920 H   0  0  0  0  0  0  0  0  0  0  0  0
  -10.6894   21.6900  -32.4024 H   0  0  0  0  0  0  0  0  0  0  0  0
   -9.1240   21.8380  -30.9390 C   0  0  0  0  0  0  0  0  0  0  0  0
   -9.2403   22.9281  -30.8483 H   0  0  0  0  0  0  0  0  0  0  0  0
   -9.7135   21.3097  -30.1752 H   0  0  0  0  0  0  0  0  0  0  0  0
   -7.6410   21.4770  -30.7290 C   0  0  0  0  0  0  0  0  0  0  0  0
   -7.0291   22.3382  -31.0355 H   0  0  0  0  0  0  0  0  0  0  0  0
   -7.5227   21.2292  -29.6638 H   0  0  0  0  0  0  0  0  0  0  0  0
   -5.1720   18.8240  -33.5820 N   0  0  0  0  0  0  0  0  0  0  0  0
   -4.2750   18.4860  -33.9950 H   0  0  0  0  0  0  0  0  0  0  0  0
   -6.2010   17.8790  -33.4650 C   0  0  0  0  0  0  0  0  0  0  0  0
   -7.0490   17.0950  -33.3730 N   0  0  0  0  0  0  0  0  0  0  0  0
   -2.0540   21.5410  -32.6340 C   0  0  0  0  0  0  0  0  0  0  0  0
   -2.4925   22.3662  -32.0537 H   0  0  0  0  0  0  0  0  0  0  0  0
   -0.6850   21.2770  -32.5410 C   0  0  0  0  0  0  0  0  0  0  0  0
   -0.0553   21.8800  -31.8703 H   0  0  0  0  0  0  0  0  0  0  0  0
    3.5160   19.8490  -34.1980 C   0  0  0  0  0  0  0  0  0  0  0  0
    3.7589   18.9490  -33.6141 H   0  0  0  0  0  0  0  0  0  0  0  0
  1  2  1  0
  2  3  2  0
  3  4  1  0
  4  5  1  0
  5  6  2  0
  5  7  1  0
  7  8  1  0
  8  9  1  0
  8 10  1  0
  8 11  1  0
  4 12  2  0
 12 13  1  0
 12 14  1  0
 14 15  1  0
 15 16  1  0
 16 17  2  0
 17 18  1  0
 17 19  1  0
 19 20  1  0
 19 21  2  0
 21 22  1  0
 22 23  1  0
 22 24  1  0
 24 25  1  0
 25 26  1  0
 25 27  1  0
 27 28  1  0
 27 29  1  0
 29 30  1  0
 29 31  1  0
 29 32  1  0
 32 33  1  0
 32 34  1  0
 32 35  1  0
 35 36  1  0
 35 37  1  0
 35 38  1  0
 38 39  1  0
 38 40  1  0
 38 41  1  0
 41 42  1  0
 41 43  1  0
 24 44  2  0
 44 45  1  0
 44 46  1  0
 46 47  3  0
 21 48  1  0
 48 49  1  0
 48 50  2  0
 50 51  1  0
 14 52  2  0
 52 53  1  0
 52  2  1  0
 50 16  1  0
 41 27  1  0
M  CHG  2   7  -1  44   1
M  END
>  <UniqueID>  (33) 
33

>  <SMILES>  (33) 
C[N-]C(=O)c1cc(Oc2ccc(N/C(NC3CCCCC3)=[NH+]/C#N)cc2)ccn1

>  <Energy>  (33) 
76.0272459700899

>  <Genealogy>  (33) 
C[N-]C(=O)c1cc(Oc2ccc(NC(NC3CCCCC3)=[NH+]C#N)cc2)ccn1 (protonated)
C[N-]C(=O)c1cc(Oc2ccc(N/C(NC3CCCCC3)=[NH+]/C#N)cc2)ccn1 (cis-trans isomerization)
C[N-]C(=O)c1cc(Oc2ccc(N/C(NC3CCCCC3)=[NH+]/C#N)cc2)ccn1 (3D coordinates assigned)
C[N-]C(=O)c1cc(Oc2ccc(N/C(NC3CCCCC3)=[NH+]/C#N)cc2)ccn1 (nonaromatic ring conformer: 76.0272459700899 kcal/mol)

>  <smiles>  (33) 
CNC(=O)c1cc(Oc2ccc(NC(=NC#N)NC3CCCCC3)cc2)ccn1

>  <score_type>  (33) 
oracle

>  <origin>  (33) 
adgpu

>  <m_score__min__energy>  (33) 
-8.8800000000000008

>  <m_primary>  (33) 
energy

$$$$
33:0
     RDKit          3D

 34 35  0  0  0  0  0  0  0  0999 V2000
   -6.3130   25.4300  -29.4110 C   0  0  0  0  0  0  0  0  0  0  0  0
   -5.7720   24.3740  -30.2830 N   0  0  0  0  0  0  0  0  0  0  0  0
   -5.2340   23.2670  -29.4550 C   0  0  0  0  0  0  0  0  0  0  0  0
   -3.7630   23.4590  -29.1910 C   0  0  0  0  0  0  0  0  0  0  0  0
   -2.9580   22.3760  -28.8040 C   0  0  0  0  0  0  0  0  0  0  0  0
   -1.5850   22.5530  -28.6110 C   0  0  0  0  0  0  0  0  0  0  0  0
   -1.0050   23.8150  -28.7890 C   0  0  0  0  0  0  0  0  0  0  0  0
    0.3660   23.9960  -28.6090 O   0  0  0  0  0  0  0  0  0  0  0  0
   -1.8080   24.9040  -29.1510 C   0  0  0  0  0  0  0  0  0  0  0  0
   -1.2410   26.1610  -29.3280 O   0  0  0  0  0  0  0  0  0  0  0  0
   -3.1820   24.7290  -29.3430 C   0  0  0  0  0  0  0  0  0  0  0  0
   -6.8270   23.9120  -31.2160 C   0  0  0  0  0  0  0  0  0  0  0  0
   -6.5530   22.5090  -31.7020 C   0  0  0  0  0  0  0  0  0  0  0  0
   -7.5710   21.5420  -31.6230 C   0  0  0  0  0  0  0  0  0  0  0  0
   -7.3620   20.2500  -32.1180 C   0  0  0  0  0  0  0  0  0  0  0  0
   -8.6560   19.0680  -32.0550 Cl  0  0  0  0  0  0  0  0  0  0  0  0
   -6.1270   19.9080  -32.6740 C   0  0  0  0  0  0  0  0  0  0  0  0
   -5.1000   20.8520  -32.7330 C   0  0  0  0  0  0  0  0  0  0  0  0
   -5.3040   22.1490  -32.2510 C   0  0  0  0  0  0  0  0  0  0  0  0
   -4.2670   23.0720  -32.3330 O   0  0  0  0  0  0  0  0  0  0  0  0
   -6.1677   25.1463  -28.3582 H   0  0  0  0  0  0  0  0  0  0  0  0
   -5.7884   26.3758  -29.6117 H   0  0  0  0  0  0  0  0  0  0  0  0
   -7.3871   25.5567  -29.6117 H   0  0  0  0  0  0  0  0  0  0  0  0
   -5.7716   23.2406  -28.4957 H   0  0  0  0  0  0  0  0  0  0  0  0
   -5.3729   22.3213  -29.9994 H   0  0  0  0  0  0  0  0  0  0  0  0
   -3.4094   21.3845  -28.6521 H   0  0  0  0  0  0  0  0  0  0  0  0
   -0.9579   21.6980  -28.3183 H   0  0  0  0  0  0  0  0  0  0  0  0
    0.7880   24.9160  -28.6420 H   0  0  0  0  0  0  0  0  0  0  0  0
   -3.8109   25.5898  -29.6143 H   0  0  0  0  0  0  0  0  0  0  0  0
   -7.7967   23.9285  -30.6970 H   0  0  0  0  0  0  0  0  0  0  0  0
   -6.8400   24.5847  -32.0862 H   0  0  0  0  0  0  0  0  0  0  0  0
   -8.5383   21.8031  -31.1689 H   0  0  0  0  0  0  0  0  0  0  0  0
   -5.9634   18.8933  -33.0660 H   0  0  0  0  0  0  0  0  0  0  0  0
   -4.1254   20.5742  -33.1608 H   0  0  0  0  0  0  0  0  0  0  0  0
  1  2  1  0
  2  3  1  0
  3  4  1  0
  4  5  2  0
  5  6  1  0
  6  7  2  0
  7  8  1  0
  7  9  1  0
  9 10  1  0
  9 11  2  0
  2 12  1  0
 12 13  1  0
 13 14  2  0
 14 15  1  0
 15 16  1  0
 15 17  2  0
 17 18  1  0
 18 19  2  0
 19 20  1  0
 11  4  1  0
 19 13  1  0
  1 21  1  0
  1 22  1  0
  1 23  1  0
  3 24  1  0
  3 25  1  0
  5 26  1  0
  6 27  1  0
  8 28  1  0
 11 29  1  0
 12 30  1  0
 12 31  1  0
 14 32  1  0
 17 33  1  0
 18 34  1  0
M  CHG  2  10  -1  20  -1
M  END
>  <UniqueID>  (34) 
34

>  <SMILES>  (34) 
CN(Cc1ccc(O)c([O-])c1)Cc1cc(Cl)ccc1[O-]

>  <Energy>  (34) 
33.349252411711376

>  <Genealogy>  (34) 
CN(Cc1ccc(O)c([O-])c1)Cc1cc(Cl)ccc1[O-] (protonated)
CN(Cc1ccc(O)c([O-])c1)Cc1cc(Cl)ccc1[O-] (3D coordinates assigned)
CN(Cc1ccc(O)c([O-])c1)Cc1cc(Cl)ccc1[O-] (optimized conformer: 33.349252411711376 kcal/mol)

>  <smiles>  (34) 
CN(Cc1ccc(O)c(O)c1)Cc1cc(Cl)ccc1O

>  <score_type>  (34) 
oracle

>  <origin>  (34) 
adgpu

>  <m_score__min__energy>  (34) 
-12.31

>  <m_primary>  (34) 
energy

$$$$
34:0
     RDKit          3D

 65 69  0  0  0  0  0  0  0  0999 V2000
    0.9110   23.9060  -26.7430 C   0  0  0  0  0  0  0  0  0  0  0  0
   -0.0340   23.3350  -27.7580 C   0  0  0  0  0  0  0  0  0  0  0  0
   -0.1050   21.9490  -27.9650 C   0  0  0  0  0  0  0  0  0  0  0  0
   -0.9620   21.4240  -28.9370 C   0  0  0  0  0  0  0  0  0  0  0  0
   -1.7540   22.2770  -29.7270 C   0  0  0  0  0  0  0  0  0  0  0  0
   -2.6600   21.7210  -30.7640 C   0  0  0  0  0  0  0  0  0  0  0  0
   -3.7660   20.9340  -30.4000 C   0  0  0  0  0  0  0  0  0  0  0  0
   -4.6100   20.4010  -31.3770 C   0  0  0  0  0  0  0  0  0  0  0  0
   -4.3640   20.6390  -32.7390 C   0  0  0  0  0  0  0  0  0  0  0  0
   -5.2620   20.0680  -33.8110 C   0  0  0  0  0  0  0  0  0  0  0  0
   -5.8410   18.7780  -33.4070 N   0  0  0  0  0  0  0  0  0  0  0  0
   -7.1130   18.5140  -33.0030 C   0  0  0  0  0  0  0  0  0  0  0  0
   -8.1800   19.5030  -32.7270 C   0  0  0  0  0  0  0  0  0  0  0  0
   -9.3870   19.1600  -32.8650 O   0  0  0  0  0  0  0  0  0  0  0  0
   -7.8650   20.8180  -32.2570 N   0  0  0  0  0  0  0  0  0  0  0  0
   -8.7930   21.6550  -31.5070 C   0  0  0  0  0  0  0  0  0  0  0  0
   -8.1910   22.0300  -30.1510 C   0  0  0  0  0  0  0  0  0  0  0  0
   -7.0410   22.9850  -30.3230 C   0  0  0  0  0  0  0  0  0  0  0  0
   -6.0330   23.0590  -29.3490 C   0  0  0  0  0  0  0  0  0  0  0  0
   -4.9710   23.9560  -29.5010 C   0  0  0  0  0  0  0  0  0  0  0  0
   -4.9160   24.7930  -30.6190 C   0  0  0  0  0  0  0  0  0  0  0  0
   -3.8590   25.6800  -30.7710 O   0  0  0  0  0  0  0  0  0  0  0  0
   -5.9230   24.7340  -31.5860 C   0  0  0  0  0  0  0  0  0  0  0  0
   -6.9860   23.8380  -31.4380 C   0  0  0  0  0  0  0  0  0  0  0  0
   -7.2860   17.1490  -32.8540 C   0  0  0  0  0  0  0  0  0  0  0  0
   -6.0830   16.5550  -33.1650 C   0  0  0  0  0  0  0  0  0  0  0  0
   -5.2160   17.5790  -33.4890 C   0  0  0  0  0  0  0  0  0  0  0  0
   -3.8150   17.3810  -33.8980 C   0  0  0  0  0  0  0  0  0  0  0  0
   -3.5140   16.6000  -35.0240 C   0  0  0  0  0  0  0  0  0  0  0  0
   -2.1840   16.4180  -35.4160 C   0  0  0  0  0  0  0  0  0  0  0  0
   -1.1490   17.0090  -34.6850 C   0  0  0  0  0  0  0  0  0  0  0  0
   -1.4430   17.7720  -33.5520 C   0  0  0  0  0  0  0  0  0  0  0  0
   -2.7710   17.9540  -33.1540 C   0  0  0  0  0  0  0  0  0  0  0  0
   -3.2710   21.4420  -33.1030 C   0  0  0  0  0  0  0  0  0  0  0  0
   -2.4230   21.9710  -32.1270 C   0  0  0  0  0  0  0  0  0  0  0  0
   -1.6650   23.6660  -29.5280 C   0  0  0  0  0  0  0  0  0  0  0  0
   -0.8070   24.1900  -28.5570 C   0  0  0  0  0  0  0  0  0  0  0  0
    0.5413   23.6826  -25.7314 H   0  0  0  0  0  0  0  0  0  0  0  0
    1.9069   23.4584  -26.8766 H   0  0  0  0  0  0  0  0  0  0  0  0
    0.9779   24.9958  -26.8766 H   0  0  0  0  0  0  0  0  0  0  0  0
    0.5164   21.2725  -27.3598 H   0  0  0  0  0  0  0  0  0  0  0  0
   -1.0174   20.3354  -29.0851 H   0  0  0  0  0  0  0  0  0  0  0  0
   -3.9686   20.7362  -29.3371 H   0  0  0  0  0  0  0  0  0  0  0  0
   -5.4742   19.7900  -31.0772 H   0  0  0  0  0  0  0  0  0  0  0  0
   -6.0781   20.7788  -34.0079 H   0  0  0  0  0  0  0  0  0  0  0  0
   -4.6554   19.9033  -34.7138 H   0  0  0  0  0  0  0  0  0  0  0  0
   -8.9987   22.5718  -32.0790 H   0  0  0  0  0  0  0  0  0  0  0  0
   -9.7265   21.0968  -31.3426 H   0  0  0  0  0  0  0  0  0  0  0  0
   -8.9656   22.5060  -29.5317 H   0  0  0  0  0  0  0  0  0  0  0  0
   -7.8204   21.1156  -29.6646 H   0  0  0  0  0  0  0  0  0  0  0  0
   -6.0786   22.4090  -28.4628 H   0  0  0  0  0  0  0  0  0  0  0  0
   -4.1782   24.0029  -28.7400 H   0  0  0  0  0  0  0  0  0  0  0  0
   -5.8793   25.3936  -32.4652 H   0  0  0  0  0  0  0  0  0  0  0  0
   -7.7816   23.8008  -32.1967 H   0  0  0  0  0  0  0  0  0  0  0  0
   -8.2089   16.6360  -32.5458 H   0  0  0  0  0  0  0  0  0  0  0  0
   -5.8578   15.4783  -33.1568 H   0  0  0  0  0  0  0  0  0  0  0  0
   -4.3253   16.1302  -35.5993 H   0  0  0  0  0  0  0  0  0  0  0  0
   -1.9516   15.8084  -36.3016 H   0  0  0  0  0  0  0  0  0  0  0  0
   -0.1043   16.8734  -35.0016 H   0  0  0  0  0  0  0  0  0  0  0  0
   -0.6283   18.2303  -32.9721 H   0  0  0  0  0  0  0  0  0  0  0  0
   -2.9984   18.5474  -32.2561 H   0  0  0  0  0  0  0  0  0  0  0  0
   -3.0810   21.6562  -34.1651 H   0  0  0  0  0  0  0  0  0  0  0  0
   -1.5632   22.5879  -32.4273 H   0  0  0  0  0  0  0  0  0  0  0  0
   -2.2752   24.3455  -30.1411 H   0  0  0  0  0  0  0  0  0  0  0  0
   -0.7376   25.2791  -28.4187 H   0  0  0  0  0  0  0  0  0  0  0  0
  1  2  1  0
  2  3  2  0
  3  4  1  0
  4  5  2  0
  5  6  1  0
  6  7  2  0
  7  8  1  0
  8  9  2  0
  9 10  1  0
 10 11  1  0
 11 12  1  0
 12 13  1  0
 13 14  2  0
 13 15  1  0
 15 16  1  0
 16 17  1  0
 17 18  1  0
 18 19  2  0
 19 20  1  0
 20 21  2  0
 21 22  1  0
 21 23  1  0
 23 24  2  0
 12 25  2  0
 25 26  1  0
 26 27  2  0
 27 28  1  0
 28 29  2  0
 29 30  1  0
 30 31  2  0
 31 32  1  0
 32 33  2  0
  9 34  1  0
 34 35  2  0
  5 36  1  0
 36 37  2  0
 37  2  1  0
 35  6  1  0
 27 11  1  0
 33 28  1  0
 24 18  1  0
  1 38  1  0
  1 39  1  0
  1 40  1  0
  3 41  1  0
  4 42  1  0
  7 43  1  0
  8 44  1  0
 10 45  1  0
 10 46  1  0
 16 47  1  0
 16 48  1  0
 17 49  1  0
 17 50  1  0
 19 51  1  0
 20 52  1  0
 23 53  1  0
 24 54  1  0
 25 55  1  0
 26 56  1  0
 29 57  1  0
 30 58  1  0
 31 59  1  0
 32 60  1  0
 33 61  1  0
 34 62  1  0
 35 63  1  0
 36 64  1  0
 37 65  1  0
M  CHG  2  15  -1  22  -1
M  END
>  <UniqueID>  (35) 
35

>  <SMILES>  (35) 
Cc1ccc(-c2ccc(Cn3c(C(=O)[N-]CCc4ccc([O-])cc4)ccc3-c3ccccc3)cc2)cc1

>  <Energy>  (35) 
105.1002264961228

>  <Genealogy>  (35) 
Cc1ccc(-c2ccc(Cn3c(C(=O)[N-]CCc4ccc([O-])cc4)ccc3-c3ccccc3)cc2)cc1 (protonated)
Cc1ccc(-c2ccc(Cn3c(C(=O)[N-]CCc4ccc([O-])cc4)ccc3-c3ccccc3)cc2)cc1 (3D coordinates assigned)
Cc1ccc(-c2ccc(Cn3c(C(=O)[N-]CCc4ccc([O-])cc4)ccc3-c3ccccc3)cc2)cc1 (optimized conformer: 105.1002264961228 kcal/mol)

>  <smiles>  (35) 
Cc1ccc(-c2ccc(Cn3c(C(=O)NCCc4ccc(O)cc4)ccc3-c3ccccc3)cc2)cc1

>  <score_type>  (35) 
oracle

>  <origin>  (35) 
adgpu

>  <m_score__min__energy>  (35) 
-12.9

>  <m_primary>  (35) 
energy

$$$$
35:0
     RDKit          3D

 56 60  0  0  0  0  0  0  0  0999 V2000
   -6.1210   18.2150  -31.1600 C   0  0  0  0  0  0  0  0  0  0  0  0
   -7.1610   18.4060  -32.1920 N   0  0  0  0  0  0  0  0  0  0  0  0
   -8.3370   19.1290  -31.6480 C   0  0  0  0  0  0  0  0  0  0  0  0
   -7.9730   20.5660  -31.2190 C   0  0  0  0  0  0  0  0  0  0  0  0
   -6.9620   21.1370  -32.1240 N   0  0  0  0  0  0  0  0  0  0  0  0
   -6.0800   22.1870  -31.6740 C   0  0  0  0  0  0  0  0  0  0  0  0
   -6.4610   23.5390  -31.7820 C   0  0  0  0  0  0  0  0  0  0  0  0
   -5.6080   24.5550  -31.3470 C   0  0  0  0  0  0  0  0  0  0  0  0
   -4.3490   24.2470  -30.8250 C   0  0  0  0  0  0  0  0  0  0  0  0
   -3.5120   25.2870  -30.4290 O   0  0  0  0  0  0  0  0  0  0  0  0
   -3.9330   22.9030  -30.7310 C   0  0  0  0  0  0  0  0  0  0  0  0
   -2.5820   22.5590  -30.2430 C   0  0  0  0  0  0  0  0  0  0  0  0
   -1.7000   23.4570  -29.7620 N   0  0  0  0  0  0  0  0  0  0  0  0
   -0.6310   22.7700  -29.3910 N   0  0  0  0  0  0  0  0  0  0  0  0
   -0.8970   21.4780  -29.6680 C   0  0  0  0  0  0  0  0  0  0  0  0
    0.0390   20.3650  -29.4240 C   0  0  0  0  0  0  0  0  0  0  0  0
    0.2670   19.4050  -30.4240 C   0  0  0  0  0  0  0  0  0  0  0  0
    1.1740   18.3630  -30.2070 C   0  0  0  0  0  0  0  0  0  0  0  0
    1.8390   18.2480  -28.9800 C   0  0  0  0  0  0  0  0  0  0  0  0
    2.7510   17.2030  -28.7910 O   0  0  0  0  0  0  0  0  0  0  0  0
    2.5370   16.1500  -27.8910 C   0  0  0  0  0  0  0  0  0  0  0  0
    1.2360   15.6870  -27.6720 C   0  0  0  0  0  0  0  0  0  0  0  0
    1.0040   14.6330  -26.7780 C   0  0  0  0  0  0  0  0  0  0  0  0
    2.0750   14.0570  -26.0840 C   0  0  0  0  0  0  0  0  0  0  0  0
    3.3780   14.5340  -26.2830 C   0  0  0  0  0  0  0  0  0  0  0  0
    3.6140   15.5710  -27.1900 C   0  0  0  0  0  0  0  0  0  0  0  0
    1.6030   19.1990  -27.9750 C   0  0  0  0  0  0  0  0  0  0  0  0
    0.7200   20.2570  -28.1990 C   0  0  0  0  0  0  0  0  0  0  0  0
   -2.0880   21.3460  -30.1960 O   0  0  0  0  0  0  0  0  0  0  0  0
   -4.8050   21.8840  -31.1580 C   0  0  0  0  0  0  0  0  0  0  0  0
   -6.8750   20.5800  -33.4800 C   0  0  0  0  0  0  0  0  0  0  0  0
   -6.6170   19.0570  -33.4200 C   0  0  0  0  0  0  0  0  0  0  0  0
   -6.5754   18.2984  -30.1617 H   0  0  0  0  0  0  0  0  0  0  0  0
   -5.6689   17.2188  -31.2750 H   0  0  0  0  0  0  0  0  0  0  0  0
   -5.3444   18.9855  -31.2750 H   0  0  0  0  0  0  0  0  0  0  0  0
   -7.4920   17.4460  -32.4580 H   0  0  0  0  0  0  0  0  0  0  0  0
   -9.1173   19.1745  -32.4220 H   0  0  0  0  0  0  0  0  0  0  0  0
   -8.6943   18.5856  -30.7609 H   0  0  0  0  0  0  0  0  0  0  0  0
   -8.8774   21.1915  -31.2468 H   0  0  0  0  0  0  0  0  0  0  0  0
   -7.5607   20.5379  -30.1996 H   0  0  0  0  0  0  0  0  0  0  0  0
   -7.4397   23.7965  -32.2131 H   0  0  0  0  0  0  0  0  0  0  0  0
   -5.9291   25.6048  -31.4156 H   0  0  0  0  0  0  0  0  0  0  0  0
   -0.2701   19.4732  -31.3815 H   0  0  0  0  0  0  0  0  0  0  0  0
    1.3661   17.6299  -31.0043 H   0  0  0  0  0  0  0  0  0  0  0  0
    0.3920   16.1514  -28.2030 H   0  0  0  0  0  0  0  0  0  0  0  0
   -0.0184   14.2586  -26.6217 H   0  0  0  0  0  0  0  0  0  0  0  0
    1.8938   13.2296  -25.3821 H   0  0  0  0  0  0  0  0  0  0  0  0
    4.2161   14.0915  -25.7245 H   0  0  0  0  0  0  0  0  0  0  0  0
    4.6387   15.9347  -27.3564 H   0  0  0  0  0  0  0  0  0  0  0  0
    2.1163   19.1103  -27.0061 H   0  0  0  0  0  0  0  0  0  0  0  0
    0.5565   21.0094  -27.4134 H   0  0  0  0  0  0  0  0  0  0  0  0
   -4.4855   20.8338  -31.0876 H   0  0  0  0  0  0  0  0  0  0  0  0
   -7.8204   20.7671  -34.0103 H   0  0  0  0  0  0  0  0  0  0  0  0
   -6.0420   21.0629  -34.0119 H   0  0  0  0  0  0  0  0  0  0  0  0
   -7.0868   18.5900  -34.2982 H   0  0  0  0  0  0  0  0  0  0  0  0
   -5.5263   18.9153  -33.4036 H   0  0  0  0  0  0  0  0  0  0  0  0
  1  2  1  0
  2  3  1  0
  3  4  1  0
  4  5  1  0
  5  6  1  0
  6  7  2  0
  7  8  1  0
  8  9  2  0
  9 10  1  0
  9 11  1  0
 11 12  1  0
 12 13  2  0
 13 14  1  0
 14 15  2  0
 15 16  1  0
 16 17  2  0
 17 18  1  0
 18 19  2  0
 19 20  1  0
 20 21  1  0
 21 22  2  0
 22 23  1  0
 23 24  2  0
 24 25  1  0
 25 26  2  0
 19 27  1  0
 27 28  2  0
 15 29  1  0
 11 30  2  0
  5 31  1  0
 31 32  1  0
 32  2  1  0
 30  6  1  0
 29 12  1  0
 28 16  1  0
 26 21  1  0
  1 33  1  0
  1 34  1  0
  1 35  1  0
  2 36  1  0
  3 37  1  0
  3 38  1  0
  4 39  1  0
  4 40  1  0
  7 41  1  0
  8 42  1  0
 17 43  1  0
 18 44  1  0
 22 45  1  0
 23 46  1  0
 24 47  1  0
 25 48  1  0
 26 49  1  0
 27 50  1  0
 28 51  1  0
 30 52  1  0
 31 53  1  0
 31 54  1  0
 32 55  1  0
 32 56  1  0
M  CHG  2   2   1  10  -1
M  END
>  <UniqueID>  (36) 
36

>  <SMILES>  (36) 
C[NH+]1CCN(c2ccc([O-])c(-c3nnc(-c4ccc(Oc5ccccc5)cc4)o3)c2)CC1

>  <Energy>  (36) 
118.62863966615957

>  <Genealogy>  (36) 
C[NH+]1CCN(c2ccc([O-])c(-c3nnc(-c4ccc(Oc5ccccc5)cc4)o3)c2)CC1 (protonated)
C[NH+]1CCN(c2ccc([O-])c(-c3nnc(-c4ccc(Oc5ccccc5)cc4)o3)c2)CC1 (3D coordinates assigned)
C[NH+]1CCN(c2ccc([O-])c(-c3nnc(-c4ccc(Oc5ccccc5)cc4)o3)c2)CC1 (nonaromatic ring conformer: 118.62863966615957 kcal/mol)

>  <smiles>  (36) 
CN1CCN(c2ccc(O)c(-c3nnc(-c4ccc(Oc5ccccc5)cc4)o3)c2)CC1

>  <score_type>  (36) 
oracle

>  <origin>  (36) 
adgpu

>  <m_score__min__energy>  (36) 
-10.359999999999999

>  <m_primary>  (36) 
energy

$$$$
36:0
     RDKit          3D

 52 55  0  0  0  0  0  0  0  0999 V2000
   -0.3210   25.8440  -23.4000 C   0  0  0  0  0  0  0  0  0  0  0  0
   -0.5230   26.0830  -24.8670 C   0  0  0  0  0  0  0  0  0  0  0  0
   -1.0200   27.3150  -25.3190 C   0  0  0  0  0  0  0  0  0  0  0  0
   -1.2400   27.5260  -26.6820 C   0  0  0  0  0  0  0  0  0  0  0  0
   -0.9820   26.5080  -27.6030 C   0  0  0  0  0  0  0  0  0  0  0  0
   -1.1950   26.7440  -28.9560 O   0  0  0  0  0  0  0  0  0  0  0  0
   -0.5070   25.2600  -27.1600 C   0  0  0  0  0  0  0  0  0  0  0  0
   -0.1860   23.9630  -28.3180 S   0  0  0  0  0  0  0  0  0  0  0  0
    1.3070   23.8260  -28.4320 O   0  0  0  0  0  0  0  0  0  0  0  0
   -0.7450   24.3400  -29.6630 O   0  0  0  0  0  0  0  0  0  0  0  0
   -0.9260   22.4350  -27.7940 C   0  0  0  0  0  0  0  0  0  0  0  0
   -0.9910   22.1690  -26.4150 C   0  0  0  0  0  0  0  0  0  0  0  0
   -1.5520   20.9830  -25.9390 C   0  0  0  0  0  0  0  0  0  0  0  0
   -2.0630   20.0460  -26.8320 C   0  0  0  0  0  0  0  0  0  0  0  0
   -2.0230   20.2950  -28.2040 C   0  0  0  0  0  0  0  0  0  0  0  0
   -1.4740   21.4900  -28.7050 C   0  0  0  0  0  0  0  0  0  0  0  0
   -1.4980   21.7410  -30.4600 S   0  0  0  0  0  0  0  0  0  0  0  0
   -2.0980   20.5320  -31.1180 O   0  0  0  0  0  0  0  0  0  0  0  0
   -0.1010   21.9780  -30.9560 O   0  0  0  0  0  0  0  0  0  0  0  0
   -2.4670   23.1330  -30.8340 N   0  0  0  0  0  0  0  0  0  0  0  0
   -3.8950   23.2150  -30.9900 C   0  0  0  0  0  0  0  0  0  0  0  0
   -4.5690   22.0290  -31.3090 C   0  0  0  0  0  0  0  0  0  0  0  0
   -5.9630   22.0040  -31.4560 C   0  0  0  0  0  0  0  0  0  0  0  0
   -6.7040   23.1820  -31.2450 C   0  0  0  0  0  0  0  0  0  0  0  0
   -6.0330   24.3790  -30.9580 C   0  0  0  0  0  0  0  0  0  0  0  0
   -4.6370   24.4080  -30.8270 C   0  0  0  0  0  0  0  0  0  0  0  0
   -4.0140   25.6190  -30.5390 O   0  0  0  0  0  0  0  0  0  0  0  0
   -8.2050   23.1920  -31.4140 C   0  0  0  0  0  0  0  0  0  0  0  0
   -8.7900   21.8500  -31.2890 N   0  0  0  0  0  0  0  0  0  0  0  0
   -8.1080   20.8990  -32.1740 C   0  0  0  0  0  0  0  0  0  0  0  0
   -6.6520   20.6940  -31.7340 C   0  0  0  0  0  0  0  0  0  0  0  0
   -0.2810   25.0550  -25.7900 C   0  0  0  0  0  0  0  0  0  0  0  0
   -0.9263   26.5602  -22.8250 H   0  0  0  0  0  0  0  0  0  0  0  0
   -0.6302   24.8185  -23.1496 H   0  0  0  0  0  0  0  0  0  0  0  0
    0.7417   25.9780  -23.1496 H   0  0  0  0  0  0  0  0  0  0  0  0
   -1.2369   28.1168  -24.5978 H   0  0  0  0  0  0  0  0  0  0  0  0
   -1.6181   28.4980  -27.0317 H   0  0  0  0  0  0  0  0  0  0  0  0
   -0.5942   22.9059  -25.7012 H   0  0  0  0  0  0  0  0  0  0  0  0
   -1.5903   20.7887  -24.8570 H   0  0  0  0  0  0  0  0  0  0  0  0
   -2.4986   19.1086  -26.4558 H   0  0  0  0  0  0  0  0  0  0  0  0
   -2.4258   19.5476  -28.9033 H   0  0  0  0  0  0  0  0  0  0  0  0
   -3.9944   21.1011  -31.4465 H   0  0  0  0  0  0  0  0  0  0  0  0
   -6.6091   25.3078  -30.8339 H   0  0  0  0  0  0  0  0  0  0  0  0
   -3.0450   25.6670  -30.2490 H   0  0  0  0  0  0  0  0  0  0  0  0
   -8.6434   23.8421  -30.6425 H   0  0  0  0  0  0  0  0  0  0  0  0
   -8.4269   23.5625  -32.4257 H   0  0  0  0  0  0  0  0  0  0  0  0
   -8.6910   21.5270  -30.2970 H   0  0  0  0  0  0  0  0  0  0  0  0
   -8.6343   19.9337  -32.1404 H   0  0  0  0  0  0  0  0  0  0  0  0
   -8.1139   21.3025  -33.1973 H   0  0  0  0  0  0  0  0  0  0  0  0
   -6.6389   20.0834  -30.8191 H   0  0  0  0  0  0  0  0  0  0  0  0
   -6.1148   20.1915  -32.5518 H   0  0  0  0  0  0  0  0  0  0  0  0
    0.0887   24.0808  -25.4375 H   0  0  0  0  0  0  0  0  0  0  0  0
  1  2  1  0
  2  3  2  0
  3  4  1  0
  4  5  2  0
  5  6  1  0
  5  7  1  0
  7  8  1  0
  8  9  2  0
  8 10  2  0
  8 11  1  0
 11 12  2  0
 12 13  1  0
 13 14  2  0
 14 15  1  0
 15 16  2  0
 16 17  1  0
 17 18  2  0
 17 19  2  0
 17 20  1  0
 20 21  1  0
 21 22  2  0
 22 23  1  0
 23 24  2  0
 24 25  1  0
 25 26  2  0
 26 27  1  0
 24 28  1  0
 28 29  1  0
 29 30  1  0
 30 31  1  0
  7 32  2  0
 32  2  1  0
 16 11  1  0
 26 21  1  0
 31 23  1  0
  1 33  1  0
  1 34  1  0
  1 35  1  0
  3 36  1  0
  4 37  1  0
 12 38  1  0
 13 39  1  0
 14 40  1  0
 15 41  1  0
 22 42  1  0
 25 43  1  0
 27 44  1  0
 28 45  1  0
 28 46  1  0
 29 47  1  0
 30 48  1  0
 30 49  1  0
 31 50  1  0
 31 51  1  0
 32 52  1  0
M  CHG  2   6  -1  20  -1
M  END
>  <UniqueID>  (37) 
37

>  <SMILES>  (37) 
Cc1ccc([O-])c(S(=O)(=O)c2ccccc2S(=O)(=O)[N-]c2cc3c(cc2O)CNCC3)c1

>  <Energy>  (37) 
71.43584343027881

>  <Genealogy>  (37) 
Cc1ccc([O-])c(S(=O)(=O)c2ccccc2S(=O)(=O)[N-]c2cc3c(cc2O)CNCC3)c1 (protonated)
Cc1ccc([O-])c(S(=O)(=O)c2ccccc2S(=O)(=O)[N-]c2cc3c(cc2O)CNCC3)c1 (3D coordinates assigned)
Cc1ccc([O-])c(S(=O)(=O)c2ccccc2S(=O)(=O)[N-]c2cc3c(cc2O)CNCC3)c1 (nonaromatic ring conformer: 71.43584343027881 kcal/mol)

>  <smiles>  (37) 
Cc1ccc(O)c(S(=O)(=O)c2ccccc2S(=O)(=O)Nc2cc3c(cc2O)CNCC3)c1

>  <score_type>  (37) 
oracle

>  <origin>  (37) 
adgpu

>  <m_score__min__energy>  (37) 
-13.23

>  <m_primary>  (37) 
energy

$$$$
37:0
     RDKit          3D

 27 28  0  0  0  0  0  0  0  0999 V2000
   -1.0530   21.0990  -32.2710 C   0  0  0  0  0  0  0  0  0  0  0  0
   -2.1510   21.4810  -33.0920 O   0  0  0  0  0  0  0  0  0  0  0  0
   -3.3380   20.7460  -33.2320 C   0  0  0  0  0  0  0  0  0  0  0  0
   -3.3520   19.4710  -33.8340 C   0  0  0  0  0  0  0  0  0  0  0  0
   -4.5360   18.7320  -33.9010 C   0  0  0  0  0  0  0  0  0  0  0  0
   -4.5370   17.4750  -34.4940 O   0  0  0  0  0  0  0  0  0  0  0  0
   -5.7150   19.2520  -33.3690 C   0  0  0  0  0  0  0  0  0  0  0  0
   -5.7180   20.5180  -32.7800 C   0  0  0  0  0  0  0  0  0  0  0  0
   -4.5470   21.2840  -32.7360 C   0  0  0  0  0  0  0  0  0  0  0  0
   -4.6090   22.5880  -32.1360 N   0  0  0  0  0  0  0  0  0  0  0  0
   -4.5750   22.8770  -30.7320 C   0  0  0  0  0  0  0  0  0  0  0  0
   -5.6320   22.7400  -30.0620 O   0  0  0  0  0  0  0  0  0  0  0  0
   -3.3480   23.3710  -30.0590 C   0  0  0  0  0  0  0  0  0  0  0  0
   -3.0840   24.7500  -29.9710 C   0  0  0  0  0  0  0  0  0  0  0  0
   -3.9680   25.6800  -30.5060 O   0  0  0  0  0  0  0  0  0  0  0  0
   -1.9650   25.1900  -29.3400 N   0  0  0  0  0  0  0  0  0  0  0  0
   -1.0800   24.3190  -28.7920 C   0  0  0  0  0  0  0  0  0  0  0  0
   -0.0530   24.7510  -28.2080 O   0  0  0  0  0  0  0  0  0  0  0  0
   -1.3010   22.9830  -28.8780 N   0  0  0  0  0  0  0  0  0  0  0  0
   -2.4020   22.4900  -29.5000 C   0  0  0  0  0  0  0  0  0  0  0  0
   -2.5500   21.2420  -29.5870 O   0  0  0  0  0  0  0  0  0  0  0  0
   -1.3352   21.1972  -31.2123 H   0  0  0  0  0  0  0  0  0  0  0  0
   -0.7827   20.0540  -32.4831 H   0  0  0  0  0  0  0  0  0  0  0  0
   -0.1925   21.7506  -32.4831 H   0  0  0  0  0  0  0  0  0  0  0  0
   -2.4242   19.0551  -34.2539 H   0  0  0  0  0  0  0  0  0  0  0  0
   -6.6438   18.6644  -33.4133 H   0  0  0  0  0  0  0  0  0  0  0  0
   -6.6475   20.9165  -32.3473 H   0  0  0  0  0  0  0  0  0  0  0  0
  1  2  1  0
  2  3  1  0
  3  4  2  0
  4  5  1  0
  5  6  1  0
  5  7  2  0
  7  8  1  0
  8  9  2  0
  9 10  1  0
 10 11  1  0
 11 12  2  0
 11 13  1  0
 13 14  2  0
 14 15  1  0
 14 16  1  0
 16 17  1  0
 17 18  2  0
 17 19  1  0
 19 20  1  0
 20 21  2  0
  9  3  1  0
 20 13  1  0
  1 22  1  0
  1 23  1  0
  1 24  1  0
  4 25  1  0
  7 26  1  0
  8 27  1  0
M  CHG  5   6  -1  10  -1  15  -1  16  -1  19  -1
M  END
>  <UniqueID>  (38) 
38

>  <SMILES>  (38) 
COc1cc([O-])ccc1[N-]C(=O)c1c([O-])[n-]c(=O)[n-]c1=O

>  <Energy>  (38) 
39.447224379455406

>  <Genealogy>  (38) 
COc1cc([O-])ccc1[N-]C(=O)c1c([O-])[n-]c(=O)[n-]c1=O (protonated)
COc1cc([O-])ccc1[N-]C(=O)c1c([O-])[n-]c(=O)[n-]c1=O (3D coordinates assigned)
COc1cc([O-])ccc1[N-]C(=O)c1c([O-])[n-]c(=O)[n-]c1=O (optimized conformer: 39.447224379455406 kcal/mol)

>  <smiles>  (38) 
COc1cc(O)ccc1NC(=O)c1c(O)[nH]c(=O)[nH]c1=O

>  <score_type>  (38) 
oracle

>  <origin>  (38) 
adgpu

>  <m_score__min__energy>  (38) 
-11.48

>  <m_primary>  (38) 
energy

$$$$
38:0
     RDKit          3D

 25 26  0  0  0  0  0  0  0  0999 V2000
   -6.8080   24.8420  -30.0530 C   0  0  0  0  0  0  0  0  0  0  0  0
   -4.9900   24.8970  -30.0890 S   0  0  0  0  0  0  0  0  0  0  0  0
   -4.8510   23.3860  -31.0350 C   0  0  0  0  0  0  0  0  0  0  0  0
   -3.6670   23.0510  -31.6050 N   0  0  0  0  0  0  0  0  0  0  0  0
   -3.5320   21.9080  -32.3240 C   0  0  0  0  0  0  0  0  0  0  0  0
   -1.9600   21.5330  -33.0180 Cl  0  0  0  0  0  0  0  0  0  0  0  0
   -4.6330   21.0500  -32.4880 C   0  0  0  0  0  0  0  0  0  0  0  0
   -4.4760   19.7940  -33.1870 C   0  0  0  0  0  0  0  0  0  0  0  0
   -4.3500   18.7880  -33.7450 N   0  0  0  0  0  0  0  0  0  0  0  0
   -5.8620   21.4230  -31.8990 C   0  0  0  0  0  0  0  0  0  0  0  0
   -7.0880   20.5990  -32.0150 C   0  0  0  0  0  0  0  0  0  0  0  0
   -7.0200   19.2130  -31.7940 C   0  0  0  0  0  0  0  0  0  0  0  0
   -8.1740   18.4270  -31.8750 C   0  0  0  0  0  0  0  0  0  0  0  0
   -9.4060   19.0200  -32.1640 C   0  0  0  0  0  0  0  0  0  0  0  0
   -9.4880   20.4010  -32.3630 C   0  0  0  0  0  0  0  0  0  0  0  0
   -8.3360   21.1890  -32.2830 C   0  0  0  0  0  0  0  0  0  0  0  0
   -5.9290   22.5750  -31.1800 N   0  0  0  0  0  0  0  0  0  0  0  0
   -7.1539   24.8315  -29.0089 H   0  0  0  0  0  0  0  0  0  0  0  0
   -7.2118   25.7283  -30.5642 H   0  0  0  0  0  0  0  0  0  0  0  0
   -7.1575   23.9329  -30.5642 H   0  0  0  0  0  0  0  0  0  0  0  0
   -6.0540   18.7437  -31.5560 H   0  0  0  0  0  0  0  0  0  0  0  0
   -8.1118   17.3411  -31.7111 H   0  0  0  0  0  0  0  0  0  0  0  0
  -10.3116   18.3996  -32.2349 H   0  0  0  0  0  0  0  0  0  0  0  0
  -10.4594   20.8681  -32.5827 H   0  0  0  0  0  0  0  0  0  0  0  0
   -8.4062   22.2768  -32.4305 H   0  0  0  0  0  0  0  0  0  0  0  0
  1  2  1  0
  2  3  1  0
  3  4  2  0
  4  5  1  0
  5  6  1  0
  5  7  2  0
  7  8  1  0
  8  9  3  0
  7 10  1  0
 10 11  1  0
 11 12  2  0
 12 13  1  0
 13 14  2  0
 14 15  1  0
 15 16  2  0
 10 17  2  0
 17  3  1  0
 16 11  1  0
  1 18  1  0
  1 19  1  0
  1 20  1  0
 12 21  1  0
 13 22  1  0
 14 23  1  0
 15 24  1  0
 16 25  1  0
M  END
>  <UniqueID>  (39) 
39

>  <SMILES>  (39) 
CSc1nc(Cl)c(C#N)c(-c2ccccc2)n1

>  <Energy>  (39) 
29.56632802599374

>  <Genealogy>  (39) 
CSc1nc(Cl)c(C#N)c(-c2ccccc2)n1 (3D coordinates assigned)
CSc1nc(Cl)c(C#N)c(-c2ccccc2)n1 (optimized conformer: 29.56632802599374 kcal/mol)

>  <smiles>  (39) 
CSc1nc(Cl)c(C#N)c(-c2ccccc2)n1

>  <score_type>  (39) 
oracle

>  <origin>  (39) 
adgpu

>  <m_score__min__energy>  (39) 
-7.0800000000000001

>  <m_primary>  (39) 
energy

$$$$
39:0
     RDKit          3D

 48 51  0  0  0  0  0  0  0  0999 V2000
   -2.3270   20.8200  -31.6540 O   0  0  0  0  0  0  0  0  0  0  0  0
   -3.0650   21.8390  -31.7420 C   0  0  0  0  0  0  0  0  0  0  0  0
   -4.0770   21.9150  -32.7510 N   0  0  0  0  0  0  0  0  0  0  0  0
   -5.4820   21.8180  -32.4870 C   0  0  0  0  0  0  0  0  0  0  0  0
   -6.0770   20.5510  -32.5010 C   0  0  0  0  0  0  0  0  0  0  0  0
   -7.4580   20.4070  -32.3060 C   0  0  0  0  0  0  0  0  0  0  0  0
   -8.2060   18.8100  -32.3840 S   0  0  0  0  0  0  0  0  0  0  0  0
   -8.4600   18.3140  -30.9870 O   0  0  0  0  0  0  0  0  0  0  0  0
   -9.5310   18.9180  -33.0860 O   0  0  0  0  0  0  0  0  0  0  0  0
   -7.1930   17.6630  -33.2290 N   0  0  0  0  0  0  0  0  0  0  0  0
   -6.4720   18.3260  -34.3320 C   0  0  0  0  0  0  0  0  0  0  0  0
   -5.2350   17.5100  -34.7400 C   0  0  0  0  0  0  0  0  0  0  0  0
   -4.2880   17.3320  -33.6940 O   0  0  0  0  0  0  0  0  0  0  0  0
   -4.8440   17.4450  -32.3900 C   0  0  0  0  0  0  0  0  0  0  0  0
   -6.2950   16.9390  -32.3020 C   0  0  0  0  0  0  0  0  0  0  0  0
   -8.2400   21.5430  -32.0620 C   0  0  0  0  0  0  0  0  0  0  0  0
   -7.6490   22.8070  -32.0090 C   0  0  0  0  0  0  0  0  0  0  0  0
   -6.2710   22.9540  -32.2010 C   0  0  0  0  0  0  0  0  0  0  0  0
   -5.7150   24.2280  -32.0660 O   0  0  0  0  0  0  0  0  0  0  0  0
   -2.9070   22.9440  -30.7890 C   0  0  0  0  0  0  0  0  0  0  0  0
   -2.1170   22.9370  -29.6590 C   0  0  0  0  0  0  0  0  0  0  0  0
   -2.2990   24.1980  -29.1170 C   0  0  0  0  0  0  0  0  0  0  0  0
   -1.6530   24.7560  -27.9030 C   0  0  0  0  0  0  0  0  0  0  0  0
   -1.5070   23.9340  -26.7700 C   0  0  0  0  0  0  0  0  0  0  0  0
   -0.9130   24.4260  -25.6050 C   0  0  0  0  0  0  0  0  0  0  0  0
   -0.4520   25.7410  -25.5570 C   0  0  0  0  0  0  0  0  0  0  0  0
   -0.5730   26.5660  -26.6770 C   0  0  0  0  0  0  0  0  0  0  0  0
   -1.1620   26.0810  -27.8510 C   0  0  0  0  0  0  0  0  0  0  0  0
   -1.2260   26.9180  -28.9590 O   0  0  0  0  0  0  0  0  0  0  0  0
   -3.1410   24.9020  -29.9010 N   0  0  0  0  0  0  0  0  0  0  0  0
   -3.5140   24.1370  -30.9160 N   0  0  0  0  0  0  0  0  0  0  0  0
   -5.4547   19.6592  -32.6667 H   0  0  0  0  0  0  0  0  0  0  0  0
   -7.1441   18.4203  -35.1977 H   0  0  0  0  0  0  0  0  0  0  0  0
   -6.1443   19.3200  -33.9935 H   0  0  0  0  0  0  0  0  0  0  0  0
   -5.5706   16.5175  -35.0752 H   0  0  0  0  0  0  0  0  0  0  0  0
   -4.7281   18.0768  -35.5348 H   0  0  0  0  0  0  0  0  0  0  0  0
   -4.2264   16.8575  -31.6948 H   0  0  0  0  0  0  0  0  0  0  0  0
   -4.8551   18.5142  -32.1316 H   0  0  0  0  0  0  0  0  0  0  0  0
   -6.3134   15.8684  -32.5538 H   0  0  0  0  0  0  0  0  0  0  0  0
   -6.6535   17.1135  -31.2768 H   0  0  0  0  0  0  0  0  0  0  0  0
   -9.3247   21.4390  -31.9114 H   0  0  0  0  0  0  0  0  0  0  0  0
   -8.2711   23.6932  -31.8150 H   0  0  0  0  0  0  0  0  0  0  0  0
   -4.7210   24.3830  -31.9580 H   0  0  0  0  0  0  0  0  0  0  0  0
   -1.4881   22.1194  -29.2768 H   0  0  0  0  0  0  0  0  0  0  0  0
   -1.8640   22.8940  -26.8020 H   0  0  0  0  0  0  0  0  0  0  0  0
   -0.8089   23.7750  -24.7244 H   0  0  0  0  0  0  0  0  0  0  0  0
    0.0075   26.1289  -24.6359 H   0  0  0  0  0  0  0  0  0  0  0  0
   -0.2040   27.6015  -26.6368 H   0  0  0  0  0  0  0  0  0  0  0  0
  1  2  2  0
  2  3  1  0
  3  4  1  0
  4  5  2  0
  5  6  1  0
  6  7  1  0
  7  8  2  0
  7  9  2  0
  7 10  1  0
 10 11  1  0
 11 12  1  0
 12 13  1  0
 13 14  1  0
 14 15  1  0
  6 16  2  0
 16 17  1  0
 17 18  2  0
 18 19  1  0
  2 20  1  0
 20 21  1  0
 21 22  2  0
 22 23  1  0
 23 24  2  0
 24 25  1  0
 25 26  2  0
 26 27  1  0
 27 28  2  0
 28 29  1  0
 22 30  1  0
 30 31  1  0
 18  4  1  0
 31 20  2  0
 15 10  1  0
 28 23  1  0
  5 32  1  0
 11 33  1  0
 11 34  1  0
 12 35  1  0
 12 36  1  0
 14 37  1  0
 14 38  1  0
 15 39  1  0
 15 40  1  0
 16 41  1  0
 17 42  1  0
 19 43  1  0
 21 44  1  0
 24 45  1  0
 25 46  1  0
 26 47  1  0
 27 48  1  0
M  CHG  3   3  -1  29  -1  30  -1
M  END
>  <UniqueID>  (40) 
40

>  <SMILES>  (40) 
O=C([N-]c1cc(S(=O)(=O)N2CCOCC2)ccc1O)c1cc(-c2ccccc2[O-])[n-]n1

>  <Energy>  (40) 
102.7228322934055

>  <Genealogy>  (40) 
O=C([N-]c1cc(S(=O)(=O)N2CCOCC2)ccc1O)c1cc(-c2ccccc2[O-])[n-]n1 (protonated)
O=C([N-]c1cc(S(=O)(=O)N2CCOCC2)ccc1O)c1cc(-c2ccccc2[O-])[n-]n1 (3D coordinates assigned)
O=C([N-]c1cc(S(=O)(=O)N2CCOCC2)ccc1O)c1cc(-c2ccccc2[O-])[n-]n1 (nonaromatic ring conformer: 102.7228322934055 kcal/mol)

>  <smiles>  (40) 
O=C(Nc1cc(S(=O)(=O)N2CCOCC2)ccc1O)c1cc(-c2ccccc2O)[nH]n1

>  <score_type>  (40) 
oracle

>  <origin>  (40) 
adgpu

>  <m_score__min__energy>  (40) 
-14.91

>  <m_primary>  (40) 
energy

$$$$
40:0
     RDKit          3D

 47 49  0  0  0  0  0  0  0  0999 V2000
   -4.6250   25.6560  -28.1400 H   0  0  0  0  0  0  0  0  0  0  0  0
   -4.6250   24.7020  -27.7960 O   0  0  0  0  0  0  0  0  0  0  0  0
   -3.8470   23.7120  -28.3910 C   0  0  0  0  0  0  0  0  0  0  0  0
   -3.8240   22.4130  -27.8650 C   0  0  0  0  0  0  0  0  0  0  0  0
   -4.4255   22.1704  -26.9766 H   0  0  0  0  0  0  0  0  0  0  0  0
   -3.0390   21.4250  -28.4660 C   0  0  0  0  0  0  0  0  0  0  0  0
   -3.0374   20.4036  -28.0577 H   0  0  0  0  0  0  0  0  0  0  0  0
   -2.2520   21.7300  -29.5890 C   0  0  0  0  0  0  0  0  0  0  0  0
   -1.4500   20.6930  -30.2720 C   0  0  0  0  0  0  0  0  0  0  0  0
   -0.7638   20.0955  -29.6539 H   0  0  0  0  0  0  0  0  0  0  0  0
   -1.4920   20.4220  -31.5860 C   0  0  0  0  0  0  0  0  0  0  0  0
   -0.7341   19.7319  -31.9852 H   0  0  0  0  0  0  0  0  0  0  0  0
   -2.4770   20.9780  -32.5400 C   0  0  0  0  0  0  0  0  0  0  0  0
   -2.1630   21.9460  -33.2830 O   0  0  0  0  0  0  0  0  0  0  0  0
   -3.8320   20.5180  -32.5480 N   0  0  0  0  0  0  0  0  0  0  0  0
   -5.0030   21.3360  -32.4060 C   0  0  0  0  0  0  0  0  0  0  0  0
   -4.8980   22.6870  -32.0270 C   0  0  0  0  0  0  0  0  0  0  0  0
   -3.9051   23.1384  -31.8841 H   0  0  0  0  0  0  0  0  0  0  0  0
   -6.0450   23.4590  -31.8310 C   0  0  0  0  0  0  0  0  0  0  0  0
   -5.9532   24.5182  -31.5488 H   0  0  0  0  0  0  0  0  0  0  0  0
   -7.3080   22.8870  -31.9930 C   0  0  0  0  0  0  0  0  0  0  0  0
   -8.2108   23.4970  -31.8417 H   0  0  0  0  0  0  0  0  0  0  0  0
   -7.4270   21.5410  -32.3470 C   0  0  0  0  0  0  0  0  0  0  0  0
   -8.4246   21.0929  -32.4658 H   0  0  0  0  0  0  0  0  0  0  0  0
   -6.2810   20.7570  -32.5520 C   0  0  0  0  0  0  0  0  0  0  0  0
   -6.4290   19.3770  -32.9280 N   0  0  0  0  0  0  0  0  0  0  0  0
   -7.1260   18.4390  -32.0390 C   0  0  0  0  0  0  0  0  0  0  0  0
   -8.1656   18.3290  -32.3812 H   0  0  0  0  0  0  0  0  0  0  0  0
   -7.0884   18.8430  -31.0166 H   0  0  0  0  0  0  0  0  0  0  0  0
   -6.4510   17.0490  -32.0330 C   0  0  0  0  0  0  0  0  0  0  0  0
   -7.2372   16.2797  -32.0290 H   0  0  0  0  0  0  0  0  0  0  0  0
   -5.8166   17.0002  -31.1357 H   0  0  0  0  0  0  0  0  0  0  0  0
   -5.5720   16.8160  -33.2030 N   0  0  0  0  0  0  0  0  0  0  0  0
   -5.3600   15.3760  -33.4090 C   0  0  0  0  0  0  0  0  0  0  0  0
   -5.2860   14.8730  -32.4335 H   0  0  0  0  0  0  0  0  0  0  0  0
   -6.2063   14.9579  -33.9738 H   0  0  0  0  0  0  0  0  0  0  0  0
   -4.4291   15.2195  -33.9738 H   0  0  0  0  0  0  0  0  0  0  0  0
   -6.1170   17.4370  -34.4210 C   0  0  0  0  0  0  0  0  0  0  0  0
   -7.1678   17.1387  -34.5507 H   0  0  0  0  0  0  0  0  0  0  0  0
   -5.5424   17.1086  -35.2997 H   0  0  0  0  0  0  0  0  0  0  0  0
   -6.0270   18.9560  -34.2760 C   0  0  0  0  0  0  0  0  0  0  0  0
   -6.6915   19.4285  -35.0143 H   0  0  0  0  0  0  0  0  0  0  0  0
   -4.9848   19.2647  -34.4451 H   0  0  0  0  0  0  0  0  0  0  0  0
   -2.3010   23.0240  -30.1300 C   0  0  0  0  0  0  0  0  0  0  0  0
   -1.7184   23.2621  -31.0321 H   0  0  0  0  0  0  0  0  0  0  0  0
   -3.0870   24.0130  -29.5280 C   0  0  0  0  0  0  0  0  0  0  0  0
   -3.1120   25.2950  -30.0640 O   0  0  0  0  0  0  0  0  0  0  0  0
  1  2  1  0
  2  3  1  0
  3  4  2  0
  4  5  1  0
  4  6  1  0
  6  7  1  0
  6  8  2  0
  8  9  1  0
  9 10  1  0
  9 11  2  0
 11 12  1  0
 11 13  1  0
 13 14  2  0
 13 15  1  0
 15 16  1  0
 16 17  2  0
 17 18  1  0
 17 19  1  0
 19 20  1  0
 19 21  2  0
 21 22  1  0
 21 23  1  0
 23 24  1  0
 23 25  2  0
 25 26  1  0
 26 27  1  0
 27 28  1  0
 27 29  1  0
 27 30  1  0
 30 31  1  0
 30 32  1  0
 30 33  1  0
 33 34  1  0
 34 35  1  0
 34 36  1  0
 34 37  1  0
 33 38  1  0
 38 39  1  0
 38 40  1  0
 38 41  1  0
 41 42  1  0
 41 43  1  0
  8 44  1  0
 44 45  1  0
 44 46  2  0
 46 47  1  0
 46  3  1  0
 25 16  1  0
 41 26  1  0
M  CHG  2  15  -1  47  -1
M  END
>  <UniqueID>  (41) 
41

>  <SMILES>  (41) 
CN1CCN(c2ccccc2[N-]C(=O)/C=C\c2ccc(O)c([O-])c2)CC1

>  <Energy>  (41) 
69.66297368026459

>  <Genealogy>  (41) 
CN1CCN(c2ccccc2[N-]C(=O)C=Cc2ccc(O)c([O-])c2)CC1 (protonated)
CN1CCN(c2ccccc2[N-]C(=O)/C=C\c2ccc(O)c([O-])c2)CC1 (cis-trans isomerization)
CN1CCN(c2ccccc2[N-]C(=O)/C=C\c2ccc(O)c([O-])c2)CC1 (3D coordinates assigned)
CN1CCN(c2ccccc2[N-]C(=O)/C=C\c2ccc(O)c([O-])c2)CC1 (nonaromatic ring conformer: 69.66297368026459 kcal/mol)

>  <smiles>  (41) 
CN1CCN(c2ccccc2NC(=O)C=Cc2ccc(O)c(O)c2)CC1

>  <score_type>  (41) 
oracle

>  <origin>  (41) 
adgpu

>  <m_score__min__energy>  (41) 
-12.23

>  <m_primary>  (41) 
energy

$$$$
41:0
     RDKit          3D

 44 46  0  0  0  0  0  0  0  0999 V2000
   -1.5680   25.7370  -28.8850 O   0  0  0  0  0  0  0  0  0  0  0  0
   -2.3930   24.8530  -29.2380 C   0  0  0  0  0  0  0  0  0  0  0  0
   -3.4760   25.2240  -30.1010 N   0  0  0  0  0  0  0  0  0  0  0  0
   -4.5050   24.3500  -30.5930 C   0  0  0  0  0  0  0  0  0  0  0  0
   -4.1830   23.1610  -31.2710 C   0  0  0  0  0  0  0  0  0  0  0  0
   -5.1900   22.3070  -31.7280 C   0  0  0  0  0  0  0  0  0  0  0  0
   -4.7400   20.7900  -32.5000 S   0  0  0  0  0  0  0  0  0  0  0  0
   -3.8950   19.9950  -31.5430 O   0  0  0  0  0  0  0  0  0  0  0  0
   -3.9500   21.0500  -33.7520 O   0  0  0  0  0  0  0  0  0  0  0  0
   -6.1990   19.9110  -32.8910 N   0  0  0  0  0  0  0  0  0  0  0  0
   -6.1170   19.3230  -34.2530 C   0  0  0  0  0  0  0  0  0  0  0  0
   -5.8370   17.8140  -34.2400 C   0  0  0  0  0  0  0  0  0  0  0  0
   -6.9230   17.0560  -33.4560 C   0  0  0  0  0  0  0  0  0  0  0  0
   -7.5070   17.8840  -32.2960 C   0  0  0  0  0  0  0  0  0  0  0  0
   -6.5080   18.9430  -31.8180 C   0  0  0  0  0  0  0  0  0  0  0  0
   -6.5330   22.6540  -31.5420 C   0  0  0  0  0  0  0  0  0  0  0  0
   -6.8630   23.8520  -30.9040 C   0  0  0  0  0  0  0  0  0  0  0  0
   -5.8590   24.7040  -30.4290 C   0  0  0  0  0  0  0  0  0  0  0  0
   -6.2280   25.8880  -29.7910 O   0  0  0  0  0  0  0  0  0  0  0  0
   -2.2440   23.4730  -28.7200 C   0  0  0  0  0  0  0  0  0  0  0  0
   -3.2690   22.8750  -27.9610 C   0  0  0  0  0  0  0  0  0  0  0  0
   -4.3930   23.5670  -27.6460 F   0  0  0  0  0  0  0  0  0  0  0  0
   -3.1290   21.5630  -27.5010 C   0  0  0  0  0  0  0  0  0  0  0  0
   -1.9730   20.8340  -27.7930 C   0  0  0  0  0  0  0  0  0  0  0  0
   -0.9470   21.4230  -28.5350 C   0  0  0  0  0  0  0  0  0  0  0  0
   -1.0730   22.7390  -28.9910 C   0  0  0  0  0  0  0  0  0  0  0  0
   -0.0700   23.2810  -29.7270 F   0  0  0  0  0  0  0  0  0  0  0  0
   -3.1282   22.9007  -31.4433 H   0  0  0  0  0  0  0  0  0  0  0  0
   -7.0732   19.4975  -34.7681 H   0  0  0  0  0  0  0  0  0  0  0  0
   -5.2766   19.8087  -34.7705 H   0  0  0  0  0  0  0  0  0  0  0  0
   -5.8167   17.4434  -35.2755 H   0  0  0  0  0  0  0  0  0  0  0  0
   -4.8677   17.6426  -33.7491 H   0  0  0  0  0  0  0  0  0  0  0  0
   -7.7381   16.7949  -34.1470 H   0  0  0  0  0  0  0  0  0  0  0  0
   -6.4547   16.1604  -33.0217 H   0  0  0  0  0  0  0  0  0  0  0  0
   -8.4250   18.3843  -32.6380 H   0  0  0  0  0  0  0  0  0  0  0  0
   -7.7260   17.2061  -31.4579 H   0  0  0  0  0  0  0  0  0  0  0  0
   -6.9394   19.4823  -30.9619 H   0  0  0  0  0  0  0  0  0  0  0  0
   -5.5759   18.4360  -31.5281 H   0  0  0  0  0  0  0  0  0  0  0  0
   -7.3288   21.9833  -31.8982 H   0  0  0  0  0  0  0  0  0  0  0  0
   -7.9198   24.1280  -30.7738 H   0  0  0  0  0  0  0  0  0  0  0  0
   -5.5800   26.4250  -29.2290 H   0  0  0  0  0  0  0  0  0  0  0  0
   -3.9318   21.1022  -26.9067 H   0  0  0  0  0  0  0  0  0  0  0  0
   -1.8714   19.7975  -27.4388 H   0  0  0  0  0  0  0  0  0  0  0  0
   -0.0361   20.8495  -28.7617 H   0  0  0  0  0  0  0  0  0  0  0  0
  1  2  2  0
  2  3  1  0
  3  4  1  0
  4  5  2  0
  5  6  1  0
  6  7  1  0
  7  8  2  0
  7  9  2  0
  7 10  1  0
 10 11  1  0
 11 12  1  0
 12 13  1  0
 13 14  1  0
 14 15  1  0
  6 16  2  0
 16 17  1  0
 17 18  2  0
 18 19  1  0
  2 20  1  0
 20 21  2  0
 21 22  1  0
 21 23  1  0
 23 24  2  0
 24 25  1  0
 25 26  2  0
 26 27  1  0
 18  4  1  0
 26 20  1  0
 15 10  1  0
  5 28  1  0
 11 29  1  0
 11 30  1  0
 12 31  1  0
 12 32  1  0
 13 33  1  0
 13 34  1  0
 14 35  1  0
 14 36  1  0
 15 37  1  0
 15 38  1  0
 16 39  1  0
 17 40  1  0
 19 41  1  0
 23 42  1  0
 24 43  1  0
 25 44  1  0
M  CHG  1   3  -1
M  END
>  <UniqueID>  (42) 
42

>  <SMILES>  (42) 
O=C([N-]c1cc(S(=O)(=O)N2CCCCC2)ccc1O)c1c(F)cccc1F

>  <Energy>  (42) 
56.8662943520474

>  <Genealogy>  (42) 
O=C([N-]c1cc(S(=O)(=O)N2CCCCC2)ccc1O)c1c(F)cccc1F (protonated)
O=C([N-]c1cc(S(=O)(=O)N2CCCCC2)ccc1O)c1c(F)cccc1F (3D coordinates assigned)
O=C([N-]c1cc(S(=O)(=O)N2CCCCC2)ccc1O)c1c(F)cccc1F (nonaromatic ring conformer: 56.8662943520474 kcal/mol)

>  <smiles>  (42) 
O=C(Nc1cc(S(=O)(=O)N2CCCCC2)ccc1O)c1c(F)cccc1F

>  <score_type>  (42) 
oracle

>  <origin>  (42) 
adgpu

>  <m_score__min__energy>  (42) 
-10.73

>  <m_primary>  (42) 
energy

$$$$
42:0
     RDKit          3D

 45 47  0  0  0  0  0  0  0  0999 V2000
   -7.0380   14.8640  -34.2210 C   0  0  0  0  0  0  0  0  0  0  0  0
   -6.0000   15.8860  -34.3080 N   0  0  0  0  0  0  0  0  0  0  0  0
   -6.0970   17.1740  -33.6700 C   0  0  0  0  0  0  0  0  0  0  0  0
   -6.4900   17.3090  -32.3260 C   0  0  0  0  0  0  0  0  0  0  0  0
   -6.5900   18.5740  -31.7400 C   0  0  0  0  0  0  0  0  0  0  0  0
   -6.3040   19.7290  -32.4850 C   0  0  0  0  0  0  0  0  0  0  0  0
   -6.4410   21.0700  -31.8640 C   0  0  0  0  0  0  0  0  0  0  0  0
   -5.2900   21.8320  -31.5920 C   0  0  0  0  0  0  0  0  0  0  0  0
   -5.3930   23.0750  -30.9470 C   0  0  0  0  0  0  0  0  0  0  0  0
   -3.9480   23.9750  -30.4970 S   0  0  0  0  0  0  0  0  0  0  0  0
   -2.7370   23.4590  -31.2260 O   0  0  0  0  0  0  0  0  0  0  0  0
   -4.1420   25.4230  -30.8590 O   0  0  0  0  0  0  0  0  0  0  0  0
   -3.7190   23.8450  -28.7820 N   0  0  0  0  0  0  0  0  0  0  0  0
   -2.9550   22.8180  -28.1310 C   0  0  0  0  0  0  0  0  0  0  0  0
   -3.5110   21.5530  -27.8620 C   0  0  0  0  0  0  0  0  0  0  0  0
   -2.7540   20.5680  -27.2270 C   0  0  0  0  0  0  0  0  0  0  0  0
   -1.4340   20.8280  -26.8630 C   0  0  0  0  0  0  0  0  0  0  0  0
   -0.8640   22.0770  -27.1340 C   0  0  0  0  0  0  0  0  0  0  0  0
   -1.6160   23.0750  -27.7730 C   0  0  0  0  0  0  0  0  0  0  0  0
   -0.8920   24.6540  -28.0900 S   0  0  0  0  0  0  0  0  0  0  0  0
   -2.0210   25.6330  -28.9650 N   0  0  0  0  0  0  0  0  0  0  0  0
    0.3640   24.4790  -28.8980 O   0  0  0  0  0  0  0  0  0  0  0  0
   -0.5520   25.3400  -26.7930 O   0  0  0  0  0  0  0  0  0  0  0  0
   -6.6530   23.5690  -30.5900 C   0  0  0  0  0  0  0  0  0  0  0  0
   -7.8030   22.8290  -30.8700 C   0  0  0  0  0  0  0  0  0  0  0  0
   -7.7050   21.5790  -31.4910 C   0  0  0  0  0  0  0  0  0  0  0  0
   -8.8650   20.8410  -31.7080 O   0  0  0  0  0  0  0  0  0  0  0  0
   -5.8940   19.5940  -33.8210 C   0  0  0  0  0  0  0  0  0  0  0  0
   -5.7950   18.3290  -34.4070 C   0  0  0  0  0  0  0  0  0  0  0  0
   -7.2548   14.6506  -33.1639 H   0  0  0  0  0  0  0  0  0  0  0  0
   -7.9510   15.2255  -34.7168 H   0  0  0  0  0  0  0  0  0  0  0  0
   -6.6907   13.9455  -34.7168 H   0  0  0  0  0  0  0  0  0  0  0  0
   -5.1490   15.6650  -34.8720 H   0  0  0  0  0  0  0  0  0  0  0  0
   -6.7203   16.4124  -31.7319 H   0  0  0  0  0  0  0  0  0  0  0  0
   -6.8951   18.6652  -30.6871 H   0  0  0  0  0  0  0  0  0  0  0  0
   -4.3012   21.4509  -31.8871 H   0  0  0  0  0  0  0  0  0  0  0  0
   -4.5497   21.3396  -28.1545 H   0  0  0  0  0  0  0  0  0  0  0  0
   -3.1994   19.5852  -27.0134 H   0  0  0  0  0  0  0  0  0  0  0  0
   -0.8392   20.0501  -26.3619 H   0  0  0  0  0  0  0  0  0  0  0  0
    0.1782   22.2775  -26.8449 H   0  0  0  0  0  0  0  0  0  0  0  0
   -2.2390   25.1250  -29.8510 H   0  0  0  0  0  0  0  0  0  0  0  0
   -6.7373   24.5437  -30.0871 H   0  0  0  0  0  0  0  0  0  0  0  0
   -8.7912   23.2306  -30.6011 H   0  0  0  0  0  0  0  0  0  0  0  0
   -5.6490   20.4898  -34.4105 H   0  0  0  0  0  0  0  0  0  0  0  0
   -5.4772   18.2381  -35.4562 H   0  0  0  0  0  0  0  0  0  0  0  0
  1  2  1  0
  2  3  1  0
  3  4  2  0
  4  5  1  0
  5  6  2  0
  6  7  1  0
  7  8  2  0
  8  9  1  0
  9 10  1  0
 10 11  2  0
 10 12  2  0
 10 13  1  0
 13 14  1  0
 14 15  2  0
 15 16  1  0
 16 17  2  0
 17 18  1  0
 18 19  2  0
 19 20  1  0
 20 21  1  0
 20 22  2  0
 20 23  2  0
  9 24  2  0
 24 25  1  0
 25 26  2  0
 26 27  1  0
  6 28  1  0
 28 29  2  0
 29  3  1  0
 26  7  1  0
 19 14  1  0
  1 30  1  0
  1 31  1  0
  1 32  1  0
  2 33  1  0
  4 34  1  0
  5 35  1  0
  8 36  1  0
 15 37  1  0
 16 38  1  0
 17 39  1  0
 18 40  1  0
 21 41  1  0
 24 42  1  0
 25 43  1  0
 28 44  1  0
 29 45  1  0
M  CHG  3  13  -1  21  -1  27  -1
M  END
>  <UniqueID>  (43) 
43

>  <SMILES>  (43) 
CNc1ccc(-c2cc(S(=O)(=O)[N-]c3ccccc3S([NH-])(=O)=O)ccc2[O-])cc1

>  <Energy>  (43) 
57.07117331577906

>  <Genealogy>  (43) 
CNc1ccc(-c2cc(S(=O)(=O)[N-]c3ccccc3S([NH-])(=O)=O)ccc2[O-])cc1 (protonated)
CNc1ccc(-c2cc(S(=O)(=O)[N-]c3ccccc3S([NH-])(=O)=O)ccc2[O-])cc1 (3D coordinates assigned)
CNc1ccc(-c2cc(S(=O)(=O)[N-]c3ccccc3S([NH-])(=O)=O)ccc2[O-])cc1 (optimized conformer: 57.07117331577906 kcal/mol)

>  <smiles>  (43) 
CNc1ccc(-c2cc(S(=O)(=O)Nc3ccccc3S(N)(=O)=O)ccc2O)cc1

>  <score_type>  (43) 
oracle

>  <origin>  (43) 
adgpu

>  <m_score__min__energy>  (43) 
-12.66

>  <m_primary>  (43) 
energy

$$$$
43:0
     RDKit          3D

 30 31  0  0  0  0  0  0  0  0999 V2000
   -1.7550   22.5880  -29.9820 C   0  0  0  0  0  0  0  0  0  0  0  0
   -2.4680   22.9950  -31.1460 O   0  0  0  0  0  0  0  0  0  0  0  0
   -3.8200   23.3710  -31.1590 C   0  0  0  0  0  0  0  0  0  0  0  0
   -4.8020   22.6170  -31.8280 C   0  0  0  0  0  0  0  0  0  0  0  0
   -6.1460   23.0330  -31.8270 C   0  0  0  0  0  0  0  0  0  0  0  0
   -7.1550   22.3100  -32.4850 O   0  0  0  0  0  0  0  0  0  0  0  0
   -7.3820   20.9380  -32.3250 C   0  0  0  0  0  0  0  0  0  0  0  0
   -8.4860   20.5280  -31.5670 C   0  0  0  0  0  0  0  0  0  0  0  0
   -8.7350   19.1710  -31.3560 C   0  0  0  0  0  0  0  0  0  0  0  0
   -7.8870   18.2100  -31.9110 C   0  0  0  0  0  0  0  0  0  0  0  0
   -6.7980   18.6060  -32.6910 C   0  0  0  0  0  0  0  0  0  0  0  0
   -6.5420   19.9670  -32.9180 C   0  0  0  0  0  0  0  0  0  0  0  0
   -5.4620   20.3460  -33.7790 N   0  0  0  0  0  0  0  0  0  0  0  0
   -6.5040   24.1940  -31.1350 C   0  0  0  0  0  0  0  0  0  0  0  0
   -5.5380   24.9510  -30.4650 C   0  0  0  0  0  0  0  0  0  0  0  0
   -5.9310   26.1060  -29.7900 O   0  0  0  0  0  0  0  0  0  0  0  0
   -4.1950   24.5380  -30.4790 C   0  0  0  0  0  0  0  0  0  0  0  0
   -3.2290   25.2880  -29.8160 O   0  0  0  0  0  0  0  0  0  0  0  0
   -2.3075   22.9034  -29.0846 H   0  0  0  0  0  0  0  0  0  0  0  0
   -1.6487   21.4931  -29.9812 H   0  0  0  0  0  0  0  0  0  0  0  0
   -0.7582   23.0532  -29.9812 H   0  0  0  0  0  0  0  0  0  0  0  0
   -4.5165   21.6951  -32.3559 H   0  0  0  0  0  0  0  0  0  0  0  0
   -9.1617   21.2808  -31.1349 H   0  0  0  0  0  0  0  0  0  0  0  0
   -9.5996   18.8582  -30.7522 H   0  0  0  0  0  0  0  0  0  0  0  0
   -8.0767   17.1411  -31.7338 H   0  0  0  0  0  0  0  0  0  0  0  0
   -6.1361   17.8453  -33.1306 H   0  0  0  0  0  0  0  0  0  0  0  0
   -4.7950   19.6430  -34.1630 H   0  0  0  0  0  0  0  0  0  0  0  0
   -5.2790   21.3530  -33.9890 H   0  0  0  0  0  0  0  0  0  0  0  0
   -7.5560   24.5150  -31.1175 H   0  0  0  0  0  0  0  0  0  0  0  0
   -5.3710   26.5140  -29.0510 H   0  0  0  0  0  0  0  0  0  0  0  0
  1  2  1  0
  2  3  1  0
  3  4  2  0
  4  5  1  0
  5  6  1  0
  6  7  1  0
  7  8  2  0
  8  9  1  0
  9 10  2  0
 10 11  1  0
 11 12  2  0
 12 13  1  0
  5 14  2  0
 14 15  1  0
 15 16  1  0
 15 17  2  0
 17 18  1  0
 17  3  1  0
 12  7  1  0
  1 19  1  0
  1 20  1  0
  1 21  1  0
  4 22  1  0
  8 23  1  0
  9 24  1  0
 10 25  1  0
 11 26  1  0
 13 27  1  0
 13 28  1  0
 14 29  1  0
 16 30  1  0
M  CHG  1  18  -1
M  END
>  <UniqueID>  (44) 
44

>  <SMILES>  (44) 
COc1cc(Oc2ccccc2N)cc(O)c1[O-]

>  <Energy>  (44) 
38.28061738805161

>  <Genealogy>  (44) 
COc1cc(Oc2ccccc2N)cc(O)c1[O-] (protonated)
COc1cc(Oc2ccccc2N)cc(O)c1[O-] (3D coordinates assigned)
COc1cc(Oc2ccccc2N)cc(O)c1[O-] (optimized conformer: 38.28061738805161 kcal/mol)

>  <smiles>  (44) 
COc1cc(Oc2ccccc2N)cc(O)c1O

>  <score_type>  (44) 
oracle

>  <origin>  (44) 
adgpu

>  <m_score__min__energy>  (44) 
-9.75

>  <m_primary>  (44) 
energy

$$$$
44:0
     RDKit          3D

 37 39  0  0  0  0  0  0  0  0999 V2000
   -8.0853   22.2584  -32.2663 H   0  0  0  0  0  0  0  0  0  0  0  0
   -7.2510   22.8210  -31.8220 C   0  0  0  0  0  0  0  0  0  0  0  0
   -7.5140   23.8500  -30.9170 C   0  0  0  0  0  0  0  0  0  0  0  0
   -8.5538   24.0847  -30.6457 H   0  0  0  0  0  0  0  0  0  0  0  0
   -6.4640   24.5880  -30.3500 C   0  0  0  0  0  0  0  0  0  0  0  0
   -6.7870   25.6680  -29.3520 C   0  0  0  0  0  0  0  0  0  0  0  0
   -6.6687   25.2724  -28.3324 H   0  0  0  0  0  0  0  0  0  0  0  0
   -6.1037   26.5177  -29.4972 H   0  0  0  0  0  0  0  0  0  0  0  0
   -7.8246   26.0030  -29.4972 H   0  0  0  0  0  0  0  0  0  0  0  0
   -5.1350   24.3180  -30.7520 C   0  0  0  0  0  0  0  0  0  0  0  0
   -4.0230   25.0730  -30.2490 N   0  0  0  0  0  0  0  0  0  0  0  0
   -2.9580   24.5410  -29.7280 C   0  0  0  0  0  0  0  0  0  0  0  0
   -1.9200   25.3000  -29.2930 N   0  0  0  0  0  0  0  0  0  0  0  0
   -1.0700   24.3720  -28.8330 C   0  0  0  0  0  0  0  0  0  0  0  0
    0.1830   24.5590  -28.2630 C   0  0  0  0  0  0  0  0  0  0  0  0
    0.6024   25.5681  -28.1367 H   0  0  0  0  0  0  0  0  0  0  0  0
    0.8790   23.4540  -27.8640 N   0  0  0  0  0  0  0  0  0  0  0  0
    0.3790   22.1850  -28.0110 C   0  0  0  0  0  0  0  0  0  0  0  0
    1.3490   20.8260  -27.4690 Cl  0  0  0  0  0  0  0  0  0  0  0  0
   -0.8950   21.9860  -28.5900 C   0  0  0  0  0  0  0  0  0  0  0  0
   -1.5910   20.3860  -28.8090 Cl  0  0  0  0  0  0  0  0  0  0  0  0
   -1.5880   23.1260  -28.9900 C   0  0  0  0  0  0  0  0  0  0  0  0
   -2.8010   23.2010  -29.5580 N   0  0  0  0  0  0  0  0  0  0  0  0
   -4.8800   23.2630  -31.6390 C   0  0  0  0  0  0  0  0  0  0  0  0
   -3.8431   23.0306  -31.9234 H   0  0  0  0  0  0  0  0  0  0  0  0
   -5.9330   22.4990  -32.1690 C   0  0  0  0  0  0  0  0  0  0  0  0
   -5.6900   21.4400  -33.1110 N   0  0  0  0  0  0  0  0  0  0  0  0
   -4.9710   21.5990  -33.8530 H   0  0  0  0  0  0  0  0  0  0  0  0
   -6.4440   20.2180  -33.1630 C   0  0  0  0  0  0  0  0  0  0  0  0
   -7.5150   20.0950  -32.5090 O   0  0  0  0  0  0  0  0  0  0  0  0
   -5.9600   19.0750  -34.0020 C   0  0  0  0  0  0  0  0  0  0  0  0
   -6.1016   19.3211  -35.0647 H   0  0  0  0  0  0  0  0  0  0  0  0
   -6.5348   18.1743  -33.7405 H   0  0  0  0  0  0  0  0  0  0  0  0
   -4.4820   18.8080  -33.7420 C   0  0  0  0  0  0  0  0  0  0  0  0
   -4.3005   18.7752  -32.6576 H   0  0  0  0  0  0  0  0  0  0  0  0
   -4.1991   17.8442  -34.1904 H   0  0  0  0  0  0  0  0  0  0  0  0
   -3.8798   19.6119  -34.1904 H   0  0  0  0  0  0  0  0  0  0  0  0
  1  2  1  0
  2  3  2  0
  3  4  1  0
  3  5  1  0
  5  6  1  0
  6  7  1  0
  6  8  1  0
  6  9  1  0
  5 10  2  0
 10 11  1  0
 11 12  2  0
 12 13  1  0
 13 14  1  0
 14 15  2  0
 15 16  1  0
 15 17  1  0
 17 18  2  0
 18 19  1  0
 18 20  1  0
 20 21  1  0
 20 22  2  0
 22 23  1  0
 10 24  1  0
 24 25  1  0
 24 26  2  0
 26 27  1  0
 27 28  1  0
 27 29  1  0
 29 30  2  0
 29 31  1  0
 31 32  1  0
 31 33  1  0
 31 34  1  0
 34 35  1  0
 34 36  1  0
 34 37  1  0
 26  2  1  0
 23 12  1  0
 22 14  1  0
M  CHG  2  13  -1  23  -1
M  END
>  <UniqueID>  (45) 
45

>  <SMILES>  (45) 
CCC(=O)Nc1ccc(C)c(/N=c2/[n-]c3cnc(Cl)c(Cl)c3[n-]2)c1

>  <Energy>  (45) 
83.74012175461395

>  <Genealogy>  (45) 
CCC(=O)Nc1ccc(C)c(N=c2[n-]c3cnc(Cl)c(Cl)c3[n-]2)c1 (protonated)
CCC(=O)Nc1ccc(C)c(/N=c2/[n-]c3cnc(Cl)c(Cl)c3[n-]2)c1 (cis-trans isomerization)
CCC(=O)Nc1ccc(C)c(/N=c2/[n-]c3cnc(Cl)c(Cl)c3[n-]2)c1 (3D coordinates assigned)
CCC(=O)Nc1ccc(C)c(/N=c2/[n-]c3cnc(Cl)c(Cl)c3[n-]2)c1 (optimized conformer: 83.74012175461395 kcal/mol)

>  <smiles>  (45) 
CCC(=O)Nc1ccc(C)c(N=c2[nH]c3cnc(Cl)c(Cl)c3[nH]2)c1

>  <score_type>  (45) 
oracle

>  <origin>  (45) 
adgpu

>  <m_score__min__energy>  (45) 
-10.619999999999999

>  <m_primary>  (45) 
energy

$$$$
45:0
     RDKit          3D

 48 51  0  0  0  0  0  0  0  0999 V2000
   -5.7450   26.2400  -30.3610 O   0  0  0  0  0  0  0  0  0  0  0  0
   -5.1290   25.1650  -30.5930 C   0  0  0  0  0  0  0  0  0  0  0  0
   -3.6970   25.1640  -30.5060 N   0  0  0  0  0  0  0  0  0  0  0  0
   -2.8990   24.3760  -29.6110 C   0  0  0  0  0  0  0  0  0  0  0  0
   -3.1450   23.0070  -29.4130 C   0  0  0  0  0  0  0  0  0  0  0  0
   -2.3590   22.2600  -28.5190 C   0  0  0  0  0  0  0  0  0  0  0  0
   -2.6730   20.8110  -28.2460 C   0  0  0  0  0  0  0  0  0  0  0  0
   -1.5140   20.1050  -27.9780 F   0  0  0  0  0  0  0  0  0  0  0  0
   -3.2910   20.2270  -29.3380 F   0  0  0  0  0  0  0  0  0  0  0  0
   -3.5170   20.7270  -27.1550 F   0  0  0  0  0  0  0  0  0  0  0  0
   -1.3310   22.9060  -27.8110 C   0  0  0  0  0  0  0  0  0  0  0  0
   -1.0500   24.2580  -28.0390 C   0  0  0  0  0  0  0  0  0  0  0  0
    0.2890   25.0410  -27.1960 S   0  0  0  0  0  0  0  0  0  0  0  0
    1.5890   24.5280  -27.7500 O   0  0  0  0  0  0  0  0  0  0  0  0
    0.2330   26.5220  -27.4460 O   0  0  0  0  0  0  0  0  0  0  0  0
    0.2420   24.7390  -25.4710 N   0  0  0  0  0  0  0  0  0  0  0  0
   -1.1090   24.9350  -24.9380 C   0  0  0  0  0  0  0  0  0  0  0  0
   -1.1910   26.3350  -24.3510 C   0  0  0  0  0  0  0  0  0  0  0  0
    0.2430   26.7800  -24.1570 C   0  0  0  0  0  0  0  0  0  0  0  0
    1.1090   25.6720  -24.7430 C   0  0  0  0  0  0  0  0  0  0  0  0
   -1.8330   24.9870  -28.9430 C   0  0  0  0  0  0  0  0  0  0  0  0
   -5.9050   23.9380  -30.8990 C   0  0  0  0  0  0  0  0  0  0  0  0
   -7.2160   23.7970  -30.4190 C   0  0  0  0  0  0  0  0  0  0  0  0
   -7.9610   22.6580  -30.7240 C   0  0  0  0  0  0  0  0  0  0  0  0
   -7.4070   21.6460  -31.5100 C   0  0  0  0  0  0  0  0  0  0  0  0
   -6.0910   21.7560  -31.9920 C   0  0  0  0  0  0  0  0  0  0  0  0
   -5.5360   20.7110  -32.8150 N   0  0  0  0  0  0  0  0  0  0  0  0
   -4.2510   20.3300  -32.9480 C   0  0  0  0  0  0  0  0  0  0  0  0
   -4.1630   19.3230  -33.8350 N   0  0  0  0  0  0  0  0  0  0  0  0
   -5.4060   19.1050  -34.2400 N   0  0  0  0  0  0  0  0  0  0  0  0
   -6.2330   19.9390  -33.6280 N   0  0  0  0  0  0  0  0  0  0  0  0
   -5.3390   22.8980  -31.6600 C   0  0  0  0  0  0  0  0  0  0  0  0
   -3.9607   22.5151  -29.9631 H   0  0  0  0  0  0  0  0  0  0  0  0
   -0.7421   22.3440  -27.0712 H   0  0  0  0  0  0  0  0  0  0  0  0
   -1.8473   24.8265  -25.7462 H   0  0  0  0  0  0  0  0  0  0  0  0
   -1.3233   24.1852  -24.1622 H   0  0  0  0  0  0  0  0  0  0  0  0
   -1.7127   27.0118  -25.0437 H   0  0  0  0  0  0  0  0  0  0  0  0
   -1.7524   26.3474  -23.4051 H   0  0  0  0  0  0  0  0  0  0  0  0
    0.4243   27.7272  -24.6862 H   0  0  0  0  0  0  0  0  0  0  0  0
    0.4717   26.9512  -23.0947 H   0  0  0  0  0  0  0  0  0  0  0  0
    1.8494   26.1049  -25.4318 H   0  0  0  0  0  0  0  0  0  0  0  0
    1.6398   25.1429  -23.9378 H   0  0  0  0  0  0  0  0  0  0  0  0
   -1.6079   26.0476  -29.1289 H   0  0  0  0  0  0  0  0  0  0  0  0
   -7.6590   24.5898  -29.7983 H   0  0  0  0  0  0  0  0  0  0  0  0
   -8.9883   22.5568  -30.3440 H   0  0  0  0  0  0  0  0  0  0  0  0
   -8.0049   20.7555  -31.7541 H   0  0  0  0  0  0  0  0  0  0  0  0
   -3.4006   20.7759  -32.4113 H   0  0  0  0  0  0  0  0  0  0  0  0
   -4.2958   22.9790  -31.9994 H   0  0  0  0  0  0  0  0  0  0  0  0
  1  2  2  0
  2  3  1  0
  3  4  1  0
  4  5  2  0
  5  6  1  0
  6  7  1  0
  7  8  1  0
  7  9  1  0
  7 10  1  0
  6 11  2  0
 11 12  1  0
 12 13  1  0
 13 14  2  0
 13 15  2  0
 13 16  1  0
 16 17  1  0
 17 18  1  0
 18 19  1  0
 19 20  1  0
 12 21  2  0
  2 22  1  0
 22 23  2  0
 23 24  1  0
 24 25  2  0
 25 26  1  0
 26 27  1  0
 27 28  1  0
 28 29  2  0
 29 30  1  0
 30 31  2  0
 26 32  2  0
 21  4  1  0
 32 22  1  0
 20 16  1  0
 31 27  1  0
  5 33  1  0
 11 34  1  0
 17 35  1  0
 17 36  1  0
 18 37  1  0
 18 38  1  0
 19 39  1  0
 19 40  1  0
 20 41  1  0
 20 42  1  0
 21 43  1  0
 23 44  1  0
 24 45  1  0
 25 46  1  0
 28 47  1  0
 32 48  1  0
M  CHG  1   3  -1
M  END
>  <UniqueID>  (46) 
46

>  <SMILES>  (46) 
O=C([N-]c1cc(C(F)(F)F)cc(S(=O)(=O)N2CCCC2)c1)c1cccc(-n2cnnn2)c1

>  <Energy>  (46) 
99.28648183020732

>  <Genealogy>  (46) 
O=C([N-]c1cc(C(F)(F)F)cc(S(=O)(=O)N2CCCC2)c1)c1cccc(-n2cnnn2)c1 (protonated)
O=C([N-]c1cc(C(F)(F)F)cc(S(=O)(=O)N2CCCC2)c1)c1cccc(-n2cnnn2)c1 (3D coordinates assigned)
O=C([N-]c1cc(C(F)(F)F)cc(S(=O)(=O)N2CCCC2)c1)c1cccc(-n2cnnn2)c1 (nonaromatic ring conformer: 99.28648183020732 kcal/mol)

>  <smiles>  (46) 
O=C(Nc1cc(C(F)(F)F)cc(S(=O)(=O)N2CCCC2)c1)c1cccc(-n2cnnn2)c1

>  <score_type>  (46) 
oracle

>  <origin>  (46) 
adgpu

>  <m_score__min__energy>  (46) 
-11.279999999999999

>  <m_primary>  (46) 
energy

$$$$
46:0
     RDKit          3D

 19 20  0  0  0  0  0  0  0  0999 V2000
   -9.0010   20.0680  -32.3780 C   0  0  0  0  0  0  0  0  0  0  0  0
   -8.3750   20.8560  -31.2370 C   0  0  0  0  0  0  0  0  0  0  0  0
   -8.4140   22.6390  -31.6170 S   0  0  0  0  0  0  0  0  0  0  0  0
   -6.6290   22.7980  -31.6030 C   0  0  0  0  0  0  0  0  0  0  0  0
   -5.8400   21.8180  -32.1360 N   0  0  0  0  0  0  0  0  0  0  0  0
   -4.4730   21.9250  -32.1320 C   0  0  0  0  0  0  0  0  0  0  0  0
   -3.8640   23.0230  -31.5900 N   0  0  0  0  0  0  0  0  0  0  0  0
   -4.6500   23.9900  -31.0600 C   0  0  0  0  0  0  0  0  0  0  0  0
   -4.2430   25.1310  -30.4900 N   0  0  0  0  0  0  0  0  0  0  0  0
   -5.4230   25.7130  -30.1460 C   0  0  0  0  0  0  0  0  0  0  0  0
   -6.5290   24.9900  -30.4750 N   0  0  0  0  0  0  0  0  0  0  0  0
   -5.9970   23.9050  -31.0530 C   0  0  0  0  0  0  0  0  0  0  0  0
   -9.6357   19.2691  -31.9670 H   0  0  0  0  0  0  0  0  0  0  0  0
   -9.6132   20.7413  -32.9960 H   0  0  0  0  0  0  0  0  0  0  0  0
   -8.2067   19.6239  -32.9960 H   0  0  0  0  0  0  0  0  0  0  0  0
   -8.9393   20.6681  -30.3117 H   0  0  0  0  0  0  0  0  0  0  0  0
   -7.3303   20.5367  -31.1076 H   0  0  0  0  0  0  0  0  0  0  0  0
   -3.8614   21.1214  -32.5681 H   0  0  0  0  0  0  0  0  0  0  0  0
   -5.4795   26.6893  -29.6424 H   0  0  0  0  0  0  0  0  0  0  0  0
  1  2  1  0
  2  3  1  0
  3  4  1  0
  4  5  2  0
  5  6  1  0
  6  7  2  0
  7  8  1  0
  8  9  1  0
  9 10  1  0
 10 11  2  0
 11 12  1  0
 12  4  1  0
 12  8  2  0
  1 13  1  0
  1 14  1  0
  1 15  1  0
  2 16  1  0
  2 17  1  0
  6 18  1  0
 10 19  1  0
M  CHG  1   9  -1
M  END
>  <UniqueID>  (47) 
47

>  <SMILES>  (47) 
CCSc1ncnc2[n-]cnc12

>  <Energy>  (47) 
50.82547191410694

>  <Genealogy>  (47) 
CCSc1ncnc2[n-]cnc12 (protonated)
CCSc1ncnc2[n-]cnc12 (3D coordinates assigned)
CCSc1ncnc2[n-]cnc12 (optimized conformer: 50.82547191410694 kcal/mol)

>  <smiles>  (47) 
CCSc1ncnc2[nH]cnc12

>  <score_type>  (47) 
oracle

>  <origin>  (47) 
adgpu

>  <m_score__min__energy>  (47) 
-5.9199999999999999

>  <m_primary>  (47) 
energy

$$$$
47:0
     RDKit          3D

 34 35  0  0  0  0  0  0  0  0999 V2000
   -0.4530   22.6660  -25.0220 C   0  0  0  0  0  0  0  0  0  0  0  0
   -1.0460   21.9650  -26.1100 O   0  0  0  0  0  0  0  0  0  0  0  0
   -1.9370   22.5400  -27.0290 C   0  0  0  0  0  0  0  0  0  0  0  0
   -2.0860   23.9340  -27.1670 C   0  0  0  0  0  0  0  0  0  0  0  0
   -2.9870   24.4560  -28.1000 C   0  0  0  0  0  0  0  0  0  0  0  0
   -3.7540   23.5980  -28.8970 C   0  0  0  0  0  0  0  0  0  0  0  0
   -4.8690   24.2570  -30.0890 S   0  0  0  0  0  0  0  0  0  0  0  0
   -4.1970   25.3570  -30.8630 O   0  0  0  0  0  0  0  0  0  0  0  0
   -6.0710   24.8400  -29.4010 O   0  0  0  0  0  0  0  0  0  0  0  0
   -5.3630   22.9860  -31.1660 N   0  0  0  0  0  0  0  0  0  0  0  0
   -4.4440   22.4000  -31.9870 C   0  0  0  0  0  0  0  0  0  0  0  0
   -4.8180   21.3610  -32.8370 C   0  0  0  0  0  0  0  0  0  0  0  0
   -6.1410   20.9170  -32.8410 C   0  0  0  0  0  0  0  0  0  0  0  0
   -6.4790   19.9730  -33.6050 O   0  0  0  0  0  0  0  0  0  0  0  0
   -7.0810   21.5220  -31.9900 C   0  0  0  0  0  0  0  0  0  0  0  0
   -8.7590   20.9740  -31.9510 S   0  0  0  0  0  0  0  0  0  0  0  0
   -8.9680   19.6810  -33.0800 N   0  0  0  0  0  0  0  0  0  0  0  0
   -9.6720   22.1130  -32.3060 O   0  0  0  0  0  0  0  0  0  0  0  0
   -9.1110   20.4870  -30.5730 O   0  0  0  0  0  0  0  0  0  0  0  0
   -6.6580   22.5590  -31.1480 C   0  0  0  0  0  0  0  0  0  0  0  0
   -3.6010   22.2120  -28.7680 C   0  0  0  0  0  0  0  0  0  0  0  0
   -2.7000   21.6880  -27.8360 C   0  0  0  0  0  0  0  0  0  0  0  0
   -0.8122   22.2414  -24.0729 H   0  0  0  0  0  0  0  0  0  0  0  0
    0.6414   22.5690  -25.0762 H   0  0  0  0  0  0  0  0  0  0  0  0
   -0.7300   23.7292  -25.0762 H   0  0  0  0  0  0  0  0  0  0  0  0
   -1.4917   24.6139  -26.5388 H   0  0  0  0  0  0  0  0  0  0  0  0
   -3.0936   25.5455  -28.2082 H   0  0  0  0  0  0  0  0  0  0  0  0
   -3.4012   22.7500  -31.9778 H   0  0  0  0  0  0  0  0  0  0  0  0
   -4.0753   20.8939  -33.5005 H   0  0  0  0  0  0  0  0  0  0  0  0
   -8.6890   20.0470  -34.0180 H   0  0  0  0  0  0  0  0  0  0  0  0
   -8.2760   18.9390  -32.8280 H   0  0  0  0  0  0  0  0  0  0  0  0
   -7.3781   23.0337  -30.4653 H   0  0  0  0  0  0  0  0  0  0  0  0
   -4.1913   21.5337  -29.4016 H   0  0  0  0  0  0  0  0  0  0  0  0
   -2.5899   20.5981  -27.7362 H   0  0  0  0  0  0  0  0  0  0  0  0
  1  2  1  0
  2  3  1  0
  3  4  2  0
  4  5  1  0
  5  6  2  0
  6  7  1  0
  7  8  2  0
  7  9  2  0
  7 10  1  0
 10 11  1  0
 11 12  2  0
 12 13  1  0
 13 14  2  0
 13 15  1  0
 15 16  1  0
 16 17  1  0
 16 18  2  0
 16 19  2  0
 15 20  2  0
  6 21  1  0
 21 22  2  0
 22  3  1  0
 20 10  1  0
  1 23  1  0
  1 24  1  0
  1 25  1  0
  4 26  1  0
  5 27  1  0
 11 28  1  0
 12 29  1  0
 17 30  1  0
 17 31  1  0
 20 32  1  0
 21 33  1  0
 22 34  1  0
M  END
>  <UniqueID>  (48) 
48

>  <SMILES>  (48) 
COc1ccc(S(=O)(=O)n2ccc(=O)c(S(N)(=O)=O)c2)cc1

>  <Energy>  (48) 
36.17688852265665

>  <Genealogy>  (48) 
COc1ccc(S(=O)(=O)n2ccc(=O)c(S(N)(=O)=O)c2)cc1 (3D coordinates assigned)
COc1ccc(S(=O)(=O)n2ccc(=O)c(S(N)(=O)=O)c2)cc1 (optimized conformer: 36.17688852265665 kcal/mol)

>  <smiles>  (48) 
COc1ccc(S(=O)(=O)n2ccc(=O)c(S(N)(=O)=O)c2)cc1

>  <score_type>  (48) 
oracle

>  <origin>  (48) 
adgpu

>  <m_score__min__energy>  (48) 
-7.6200000000000001

>  <m_primary>  (48) 
energy

$$$$
48:0
     RDKit          3D

 54 56  0  0  0  0  0  0  0  0999 V2000
   -8.9920   19.7310  -32.2840 C   0  0  0  0  0  0  0  0  0  0  0  0
   -7.9200   20.7820  -32.1720 C   0  0  0  0  0  0  0  0  0  0  0  0
   -8.2610   22.0220  -31.6030 C   0  0  0  0  0  0  0  0  0  0  0  0
   -7.3240   23.0490  -31.5060 C   0  0  0  0  0  0  0  0  0  0  0  0
   -6.0250   22.8680  -32.0020 C   0  0  0  0  0  0  0  0  0  0  0  0
   -5.0240   23.8920  -31.9080 N   0  0  0  0  0  0  0  0  0  0  0  0
   -4.9660   24.9450  -30.9390 C   0  0  0  0  0  0  0  0  0  0  0  0
   -6.0050   25.5840  -30.6200 O   0  0  0  0  0  0  0  0  0  0  0  0
   -3.7040   25.2830  -30.3560 N   0  0  0  0  0  0  0  0  0  0  0  0
   -3.0340   24.4860  -29.3720 C   0  0  0  0  0  0  0  0  0  0  0  0
   -3.5730   23.2400  -29.0530 C   0  0  0  0  0  0  0  0  0  0  0  0
   -2.9800   22.4400  -28.0810 C   0  0  0  0  0  0  0  0  0  0  0  0
   -1.8270   22.8680  -27.4060 C   0  0  0  0  0  0  0  0  0  0  0  0
   -1.2340   21.9550  -26.3630 C   0  0  0  0  0  0  0  0  0  0  0  0
   -1.2690   24.1380  -27.7100 C   0  0  0  0  0  0  0  0  0  0  0  0
    0.1880   24.7370  -26.8780 S   0  0  0  0  0  0  0  0  0  0  0  0
    1.0730   23.5840  -26.4900 O   0  0  0  0  0  0  0  0  0  0  0  0
    0.9830   25.6320  -27.7860 O   0  0  0  0  0  0  0  0  0  0  0  0
   -0.3220   25.6680  -25.4340 C   0  0  0  0  0  0  0  0  0  0  0  0
   -1.8220   25.8680  -25.2950 C   0  0  0  0  0  0  0  0  0  0  0  0
   -0.9360   27.0250  -25.7340 C   0  0  0  0  0  0  0  0  0  0  0  0
   -1.8470   24.9170  -28.7390 C   0  0  0  0  0  0  0  0  0  0  0  0
   -1.2080   26.0900  -29.1500 O   0  0  0  0  0  0  0  0  0  0  0  0
   -5.6710   21.6350  -32.5550 C   0  0  0  0  0  0  0  0  0  0  0  0
   -6.5990   20.5840  -32.6530 C   0  0  0  0  0  0  0  0  0  0  0  0
   -6.0340   19.0610  -33.3850 S   0  0  0  0  0  0  0  0  0  0  0  0
   -6.2130   19.0780  -34.8770 O   0  0  0  0  0  0  0  0  0  0  0  0
   -4.5620   18.9250  -33.1150 O   0  0  0  0  0  0  0  0  0  0  0  0
   -6.8590   17.6690  -32.7210 N   0  0  0  0  0  0  0  0  0  0  0  0
   -6.4980   17.4940  -31.3090 C   0  0  0  0  0  0  0  0  0  0  0  0
   -6.5160   16.4650  -33.4850 C   0  0  0  0  0  0  0  0  0  0  0  0
   -9.3082   19.4210  -31.2771 H   0  0  0  0  0  0  0  0  0  0  0  0
   -9.8543   20.1434  -32.8284 H   0  0  0  0  0  0  0  0  0  0  0  0
   -8.5968   18.8607  -32.8284 H   0  0  0  0  0  0  0  0  0  0  0  0
   -9.2827   22.1837  -31.2289 H   0  0  0  0  0  0  0  0  0  0  0  0
   -7.6043   24.0046  -31.0389 H   0  0  0  0  0  0  0  0  0  0  0  0
   -4.4748   22.8865  -29.5743 H   0  0  0  0  0  0  0  0  0  0  0  0
   -3.4201   21.4613  -27.8392 H   0  0  0  0  0  0  0  0  0  0  0  0
   -1.4806   22.3346  -25.3605 H   0  0  0  0  0  0  0  0  0  0  0  0
   -1.6476   20.9429  -26.4838 H   0  0  0  0  0  0  0  0  0  0  0  0
   -0.1412   21.9213  -26.4838 H   0  0  0  0  0  0  0  0  0  0  0  0
    0.4787   25.3024  -24.7743 H   0  0  0  0  0  0  0  0  0  0  0  0
   -2.5088   25.3974  -26.0140 H   0  0  0  0  0  0  0  0  0  0  0  0
   -2.5567   25.7119  -24.4914 H   0  0  0  0  0  0  0  0  0  0  0  0
   -0.9823   27.3909  -26.7703 H   0  0  0  0  0  0  0  0  0  0  0  0
   -0.7648   28.0520  -25.3792 H   0  0  0  0  0  0  0  0  0  0  0  0
   -1.2310   26.4270  -30.1030 H   0  0  0  0  0  0  0  0  0  0  0  0
   -4.6449   21.4835  -32.9213 H   0  0  0  0  0  0  0  0  0  0  0  0
   -7.3055   17.8855  -30.6729 H   0  0  0  0  0  0  0  0  0  0  0  0
   -6.3508   16.4245  -31.0980 H   0  0  0  0  0  0  0  0  0  0  0  0
   -5.5672   18.0409  -31.0980 H   0  0  0  0  0  0  0  0  0  0  0  0
   -6.2822   15.6444  -32.7907 H   0  0  0  0  0  0  0  0  0  0  0  0
   -7.3680   16.1777  -34.1186 H   0  0  0  0  0  0  0  0  0  0  0  0
   -5.6405   16.6699  -34.1186 H   0  0  0  0  0  0  0  0  0  0  0  0
  1  2  1  0
  2  3  2  0
  3  4  1  0
  4  5  2  0
  5  6  1  0
  6  7  1  0
  7  8  2  0
  7  9  1  0
  9 10  1  0
 10 11  2  0
 11 12  1  0
 12 13  2  0
 13 14  1  0
 13 15  1  0
 15 16  1  0
 16 17  2  0
 16 18  2  0
 16 19  1  0
 19 20  1  0
 20 21  1  0
 15 22  2  0
 22 23  1  0
  5 24  1  0
 24 25  2  0
 25 26  1  0
 26 27  2  0
 26 28  2  0
 26 29  1  0
 29 30  1  0
 29 31  1  0
 25  2  1  0
 22 10  1  0
 21 19  1  0
  1 32  1  0
  1 33  1  0
  1 34  1  0
  3 35  1  0
  4 36  1  0
 11 37  1  0
 12 38  1  0
 14 39  1  0
 14 40  1  0
 14 41  1  0
 19 42  1  0
 20 43  1  0
 20 44  1  0
 21 45  1  0
 21 46  1  0
 23 47  1  0
 24 48  1  0
 30 49  1  0
 30 50  1  0
 30 51  1  0
 31 52  1  0
 31 53  1  0
 31 54  1  0
M  CHG  2   6  -1   9  -1
M  END
>  <UniqueID>  (49) 
49

>  <SMILES>  (49) 
Cc1ccc([N-]C(=O)[N-]c2ccc(C)c(S(=O)(=O)C3CC3)c2O)cc1S(=O)(=O)N(C)C

>  <Energy>  (49) 
331.8621420545605

>  <Genealogy>  (49) 
Cc1ccc([N-]C(=O)[N-]c2ccc(C)c(S(=O)(=O)C3CC3)c2O)cc1S(=O)(=O)N(C)C (protonated)
Cc1ccc([N-]C(=O)[N-]c2ccc(C)c(S(=O)(=O)C3CC3)c2O)cc1S(=O)(=O)N(C)C (3D coordinates assigned)
Cc1ccc([N-]C(=O)[N-]c2ccc(C)c(S(=O)(=O)C3CC3)c2O)cc1S(=O)(=O)N(C)C (nonaromatic ring conformer: 331.8621420545605 kcal/mol)

>  <smiles>  (49) 
Cc1ccc(NC(=O)Nc2ccc(C)c(S(=O)(=O)C3CC3)c2O)cc1S(=O)(=O)N(C)C

>  <score_type>  (49) 
oracle

>  <origin>  (49) 
adgpu

>  <m_score__min__energy>  (49) 
-14.43

>  <m_primary>  (49) 
energy

$$$$
49:0
     RDKit          3D

 59 62  0  0  0  0  0  0  0  0999 V2000
   -1.1280   20.3180  -27.9190 C   0  0  0  0  0  0  0  0  0  0  0  0
   -1.7490   21.6080  -28.3680 C   0  0  0  0  0  0  0  0  0  0  0  0
   -0.9380   22.7140  -28.6650 C   0  0  0  0  0  0  0  0  0  0  0  0
   -1.5160   23.9230  -29.0600 C   0  0  0  0  0  0  0  0  0  0  0  0
   -2.9060   24.0410  -29.1520 C   0  0  0  0  0  0  0  0  0  0  0  0
   -3.7340   22.9520  -28.8330 C   0  0  0  0  0  0  0  0  0  0  0  0
   -5.2280   23.0670  -28.9870 C   0  0  0  0  0  0  0  0  0  0  0  0
   -5.6630   24.0110  -30.4880 S   0  0  0  0  0  0  0  0  0  0  0  0
   -4.8350   22.8650  -31.5820 C   0  0  0  0  0  0  0  0  0  0  0  0
   -5.4600   21.8690  -32.2360 N   0  0  0  0  0  0  0  0  0  0  0  0
   -4.5270   21.2500  -32.9410 N   0  0  0  0  0  0  0  0  0  0  0  0
   -3.3730   21.8950  -32.6880 C   0  0  0  0  0  0  0  0  0  0  0  0
   -2.0640   21.5330  -33.3070 C   0  0  0  0  0  0  0  0  0  0  0  0
   -1.2090   20.9040  -32.3060 N   0  0  0  0  0  0  0  0  0  0  0  0
   -1.3840   19.5650  -31.8280 C   0  0  0  0  0  0  0  0  0  0  0  0
   -0.8720   19.2450  -30.7240 O   0  0  0  0  0  0  0  0  0  0  0  0
   -2.0980   18.5390  -32.6190 C   0  0  0  0  0  0  0  0  0  0  0  0
   -1.4600   17.3440  -32.9680 C   0  0  0  0  0  0  0  0  0  0  0  0
   -2.1650   16.3310  -33.6180 C   0  0  0  0  0  0  0  0  0  0  0  0
   -3.5250   16.4900  -33.9400 C   0  0  0  0  0  0  0  0  0  0  0  0
   -4.2520   15.3120  -34.5360 C   0  0  0  0  0  0  0  0  0  0  0  0
   -4.1770   17.7050  -33.6020 C   0  0  0  0  0  0  0  0  0  0  0  0
   -5.9010   18.0120  -33.9360 S   0  0  0  0  0  0  0  0  0  0  0  0
   -6.6390   16.7050  -33.8530 O   0  0  0  0  0  0  0  0  0  0  0  0
   -6.0840   18.5400  -35.3300 O   0  0  0  0  0  0  0  0  0  0  0  0
   -6.6250   19.1290  -32.8020 N   0  0  0  0  0  0  0  0  0  0  0  0
   -7.5760   20.0470  -33.4390 C   0  0  0  0  0  0  0  0  0  0  0  0
   -8.6130   20.4170  -32.3820 C   0  0  0  0  0  0  0  0  0  0  0  0
   -8.3520   19.4890  -31.2070 C   0  0  0  0  0  0  0  0  0  0  0  0
   -7.3820   18.4560  -31.7470 C   0  0  0  0  0  0  0  0  0  0  0  0
   -3.4520   18.7080  -32.9360 C   0  0  0  0  0  0  0  0  0  0  0  0
   -3.5530   22.8900  -31.8530 O   0  0  0  0  0  0  0  0  0  0  0  0
   -3.1450   21.7350  -28.4430 C   0  0  0  0  0  0  0  0  0  0  0  0
   -1.1109   20.2824  -26.8197 H   0  0  0  0  0  0  0  0  0  0  0  0
   -1.7182   19.4734  -28.3041 H   0  0  0  0  0  0  0  0  0  0  0  0
   -0.0997   20.2525  -28.3041 H   0  0  0  0  0  0  0  0  0  0  0  0
    0.1559   22.6288  -28.5866 H   0  0  0  0  0  0  0  0  0  0  0  0
   -0.8755   24.7847  -29.2993 H   0  0  0  0  0  0  0  0  0  0  0  0
   -3.3538   24.9920  -29.4760 H   0  0  0  0  0  0  0  0  0  0  0  0
   -5.6605   22.0582  -29.0591 H   0  0  0  0  0  0  0  0  0  0  0  0
   -5.6297   23.5981  -28.1115 H   0  0  0  0  0  0  0  0  0  0  0  0
   -2.2328   20.8318  -34.1376 H   0  0  0  0  0  0  0  0  0  0  0  0
   -1.5749   22.4419  -33.6874 H   0  0  0  0  0  0  0  0  0  0  0  0
   -0.3958   17.2023  -32.7284 H   0  0  0  0  0  0  0  0  0  0  0  0
   -1.6506   15.3953  -33.8823 H   0  0  0  0  0  0  0  0  0  0  0  0
   -4.6443   14.6764  -33.7284 H   0  0  0  0  0  0  0  0  0  0  0  0
   -5.0855   15.6716  -35.1573 H   0  0  0  0  0  0  0  0  0  0  0  0
   -3.5569   14.7282  -35.1573 H   0  0  0  0  0  0  0  0  0  0  0  0
   -5.8560   19.6880  -32.3620 H   0  0  0  0  0  0  0  0  0  0  0  0
   -7.0537   20.9498  -33.7885 H   0  0  0  0  0  0  0  0  0  0  0  0
   -8.0538   19.5757  -34.3105 H   0  0  0  0  0  0  0  0  0  0  0  0
   -8.4912   21.4666  -32.0762 H   0  0  0  0  0  0  0  0  0  0  0  0
   -9.6387   20.3091  -32.7644 H   0  0  0  0  0  0  0  0  0  0  0  0
   -7.9044   20.0411  -30.3675 H   0  0  0  0  0  0  0  0  0  0  0  0
   -9.2757   19.0336  -30.8206 H   0  0  0  0  0  0  0  0  0  0  0  0
   -6.7056   18.1131  -30.9502 H   0  0  0  0  0  0  0  0  0  0  0  0
   -7.9085   17.5697  -32.1307 H   0  0  0  0  0  0  0  0  0  0  0  0
   -3.9579   19.6444  -32.6581 H   0  0  0  0  0  0  0  0  0  0  0  0
   -3.7845   20.8751  -28.1946 H   0  0  0  0  0  0  0  0  0  0  0  0
  1  2  1  0
  2  3  2  0
  3  4  1  0
  4  5  2  0
  5  6  1  0
  6  7  1  0
  7  8  1  0
  8  9  1  0
  9 10  2  0
 10 11  1  0
 11 12  2  0
 12 13  1  0
 13 14  1  0
 14 15  1  0
 15 16  2  0
 15 17  1  0
 17 18  2  0
 18 19  1  0
 19 20  2  0
 20 21  1  0
 20 22  1  0
 22 23  1  0
 23 24  2  0
 23 25  2  0
 23 26  1  0
 26 27  1  0
 27 28  1  0
 28 29  1  0
 29 30  1  0
 22 31  2  0
 12 32  1  0
  6 33  2  0
 33  2  1  0
 32  9  1  0
 31 17  1  0
 30 26  1  0
  1 34  1  0
  1 35  1  0
  1 36  1  0
  3 37  1  0
  4 38  1  0
  5 39  1  0
  7 40  1  0
  7 41  1  0
 13 42  1  0
 13 43  1  0
 18 44  1  0
 19 45  1  0
 21 46  1  0
 21 47  1  0
 21 48  1  0
 26 49  1  0
 27 50  1  0
 27 51  1  0
 28 52  1  0
 28 53  1  0
 29 54  1  0
 29 55  1  0
 30 56  1  0
 30 57  1  0
 31 58  1  0
 33 59  1  0
M  CHG  2  14  -1  26   1
M  END
>  <UniqueID>  (50) 
50

>  <SMILES>  (50) 
Cc1cccc(CSc2nnc(C[N-]C(=O)c3ccc(C)c(S(=O)(=O)[NH+]4CCCC4)c3)o2)c1

>  <Energy>  (50) 
97.09923036973834

>  <Genealogy>  (50) 
Cc1cccc(CSc2nnc(C[N-]C(=O)c3ccc(C)c(S(=O)(=O)[NH+]4CCCC4)c3)o2)c1 (protonated)
Cc1cccc(CSc2nnc(C[N-]C(=O)c3ccc(C)c(S(=O)(=O)[NH+]4CCCC4)c3)o2)c1 (3D coordinates assigned)
Cc1cccc(CSc2nnc(C[N-]C(=O)c3ccc(C)c(S(=O)(=O)[NH+]4CCCC4)c3)o2)c1 (nonaromatic ring conformer: 97.09923036973834 kcal/mol)

>  <smiles>  (50) 
Cc1cccc(CSc2nnc(CNC(=O)c3ccc(C)c(S(=O)(=O)N4CCCC4)c3)o2)c1

>  <score_type>  (50) 
oracle

>  <origin>  (50) 
adgpu

>  <m_score__min__energy>  (50) 
-12.27

>  <m_primary>  (50) 
energy

$$$$
