0:0
     RDKit          3D

 52 54  0  0  0  0  0  0  0  0999 V2000
   -9.4920   20.0440  -32.1810 C   0  0  0  0  0  0  0  0  0  0  0  0
   -8.3210   20.5970  -32.7770 O   0  0  0  0  0  0  0  0  0  0  0  0
   -7.5190   21.5860  -32.1880 C   0  0  0  0  0  0  0  0  0  0  0  0
   -8.0770   22.7500  -31.6210 C   0  0  0  0  0  0  0  0  0  0  0  0
   -7.2590   23.7140  -31.0320 C   0  0  0  0  0  0  0  0  0  0  0  0
   -5.8720   23.5410  -31.0070 C   0  0  0  0  0  0  0  0  0  0  0  0
   -4.8280   24.6990  -30.1810 S   0  0  0  0  0  0  0  0  0  0  0  0
   -5.1280   26.0800  -30.6950 O   0  0  0  0  0  0  0  0  0  0  0  0
   -5.0850   24.6560  -28.7000 O   0  0  0  0  0  0  0  0  0  0  0  0
   -3.1630   24.3190  -30.4820 N   0  0  0  0  0  0  0  0  0  0  0  0
   -2.2990   23.8900  -29.4250 C   0  0  0  0  0  0  0  0  0  0  0  0
   -2.2100   22.5260  -29.0920 C   0  0  0  0  0  0  0  0  0  0  0  0
   -2.9950   21.4950  -29.8580 C   0  0  0  0  0  0  0  0  0  0  0  0
   -1.4350   22.1400  -27.9870 C   0  0  0  0  0  0  0  0  0  0  0  0
   -0.7460   23.1110  -27.2490 C   0  0  0  0  0  0  0  0  0  0  0  0
    0.0740   22.7150  -26.0620 C   0  0  0  0  0  0  0  0  0  0  0  0
   -0.8260   24.4210  -27.6130 N   0  0  0  0  0  0  0  0  0  0  0  0
   -1.5740   24.8300  -28.6730 C   0  0  0  0  0  0  0  0  0  0  0  0
   -1.6130   26.0540  -28.9680 O   0  0  0  0  0  0  0  0  0  0  0  0
   -5.3090   22.3990  -31.5850 C   0  0  0  0  0  0  0  0  0  0  0  0
   -6.1200   21.4150  -32.1660 C   0  0  0  0  0  0  0  0  0  0  0  0
   -5.3560   19.9680  -32.8420 S   0  0  0  0  0  0  0  0  0  0  0  0
   -4.1710   20.3920  -33.6670 O   0  0  0  0  0  0  0  0  0  0  0  0
   -4.8340   19.1150  -31.7180 O   0  0  0  0  0  0  0  0  0  0  0  0
   -6.4340   19.0130  -33.8460 N   0  0  0  0  0  0  0  0  0  0  0  0
   -5.7830   18.5310  -35.0870 C   0  0  0  0  0  0  0  0  0  0  0  0
   -5.2380   17.0970  -34.9680 C   0  0  0  0  0  0  0  0  0  0  0  0
   -4.9900   16.7570  -33.6240 O   0  0  0  0  0  0  0  0  0  0  0  0
   -6.2120   16.6710  -32.9230 C   0  0  0  0  0  0  0  0  0  0  0  0
   -7.0930   17.9320  -33.0840 C   0  0  0  0  0  0  0  0  0  0  0  0
   -9.4011   20.0869  -31.0856 H   0  0  0  0  0  0  0  0  0  0  0  0
  -10.3728   20.6213  -32.4988 H   0  0  0  0  0  0  0  0  0  0  0  0
   -9.6057   18.9971  -32.4988 H   0  0  0  0  0  0  0  0  0  0  0  0
   -9.1666   22.8991  -31.6433 H   0  0  0  0  0  0  0  0  0  0  0  0
   -7.7070   24.6139  -30.5854 H   0  0  0  0  0  0  0  0  0  0  0  0
   -3.5059   20.8240  -29.1518 H   0  0  0  0  0  0  0  0  0  0  0  0
   -3.7410   21.9979  -30.4910 H   0  0  0  0  0  0  0  0  0  0  0  0
   -2.3118   20.9097  -30.4910 H   0  0  0  0  0  0  0  0  0  0  0  0
   -1.3691   21.0796  -27.7019 H   0  0  0  0  0  0  0  0  0  0  0  0
   -0.4660   22.9758  -25.1398 H   0  0  0  0  0  0  0  0  0  0  0  0
    0.2549   21.6303  -26.0867 H   0  0  0  0  0  0  0  0  0  0  0  0
    1.0360   23.2478  -26.0867 H   0  0  0  0  0  0  0  0  0  0  0  0
   -4.2164   22.2715  -31.5836 H   0  0  0  0  0  0  0  0  0  0  0  0
   -7.1870   19.6800  -34.1360 H   0  0  0  0  0  0  0  0  0  0  0  0
   -6.5211   18.5580  -35.9021 H   0  0  0  0  0  0  0  0  0  0  0  0
   -4.9255   19.1913  -35.2840 H   0  0  0  0  0  0  0  0  0  0  0  0
   -5.9766   16.3966  -35.3850 H   0  0  0  0  0  0  0  0  0  0  0  0
   -4.2904   17.0370  -35.5233 H   0  0  0  0  0  0  0  0  0  0  0  0
   -6.7717   15.8023  -33.3000 H   0  0  0  0  0  0  0  0  0  0  0  0
   -5.9712   16.5730  -31.8542 H   0  0  0  0  0  0  0  0  0  0  0  0
   -8.0166   17.6477  -33.6094 H   0  0  0  0  0  0  0  0  0  0  0  0
   -7.2927   18.3205  -32.0745 H   0  0  0  0  0  0  0  0  0  0  0  0
  1  2  1  0
  2  3  1  0
  3  4  2  0
  4  5  1  0
  5  6  2  0
  6  7  1  0
  7  8  2  0
  7  9  2  0
  7 10  1  0
 10 11  1  0
 11 12  2  0
 12 13  1  0
 12 14  1  0
 14 15  2  0
 15 16  1  0
 15 17  1  0
 17 18  1  0
 18 19  2  0
  6 20  1  0
 20 21  2  0
 21 22  1  0
 22 23  2  0
 22 24  2  0
 22 25  1  0
 25 26  1  0
 26 27  1  0
 27 28  1  0
 28 29  1  0
 29 30  1  0
 21  3  1  0
 30 25  1  0
 18 11  1  0
  1 31  1  0
  1 32  1  0
  1 33  1  0
  4 34  1  0
  5 35  1  0
 13 36  1  0
 13 37  1  0
 13 38  1  0
 14 39  1  0
 16 40  1  0
 16 41  1  0
 16 42  1  0
 20 43  1  0
 25 44  1  0
 26 45  1  0
 26 46  1  0
 27 47  1  0
 27 48  1  0
 29 49  1  0
 29 50  1  0
 30 51  1  0
 30 52  1  0
M  CHG  3  10  -1  17  -1  25   1
M  END
>  <UniqueID>  (1) 
1

>  <SMILES>  (1) 
COc1ccc(S(=O)(=O)[N-]c2c(C)cc(C)[n-]c2=O)cc1S(=O)(=O)[NH+]1CCOCC1

>  <Energy>  (1) 
70.54507709526439

>  <Genealogy>  (1) 
COc1ccc(S(=O)(=O)[N-]c2c(C)cc(C)[n-]c2=O)cc1S(=O)(=O)[NH+]1CCOCC1 (protonated)
COc1ccc(S(=O)(=O)[N-]c2c(C)cc(C)[n-]c2=O)cc1S(=O)(=O)[NH+]1CCOCC1 (3D coordinates assigned)
COc1ccc(S(=O)(=O)[N-]c2c(C)cc(C)[n-]c2=O)cc1S(=O)(=O)[NH+]1CCOCC1 (nonaromatic ring conformer: 70.54507709526439 kcal/mol)

>  <smiles>  (1) 
COc1ccc(S(=O)(=O)Nc2c(C)cc(C)[nH]c2=O)cc1S(=O)(=O)N1CCOCC1

>  <score_type>  (1) 
oracle

>  <origin>  (1) 
adgpu

>  <m_score__min__energy>  (1) 
-10.970000000000001

>  <m_primary>  (1) 
energy

$$$$
1:0
     RDKit          3D

 51 53  0  0  0  0  0  0  0  0999 V2000
   -3.8870   21.8660  -33.4110 C   0  0  0  0  0  0  0  0  0  0  0  0
   -3.5810   22.2210  -31.9590 C   0  0  0  0  0  0  0  0  0  0  0  0
   -4.7740   22.7530  -31.2890 N   0  0  0  0  0  0  0  0  0  0  0  0
   -6.0800   22.2010  -31.5530 C   0  0  0  0  0  0  0  0  0  0  0  0
   -7.1920   23.0470  -31.6970 C   0  0  0  0  0  0  0  0  0  0  0  0
   -8.4620   22.5140  -31.9250 C   0  0  0  0  0  0  0  0  0  0  0  0
   -8.6380   21.1310  -32.0070 C   0  0  0  0  0  0  0  0  0  0  0  0
   -7.5380   20.2740  -31.8660 C   0  0  0  0  0  0  0  0  0  0  0  0
   -7.7410   18.5250  -31.9320 S   0  0  0  0  0  0  0  0  0  0  0  0
   -6.9400   17.8680  -30.8420 O   0  0  0  0  0  0  0  0  0  0  0  0
   -9.1950   18.2040  -31.7260 O   0  0  0  0  0  0  0  0  0  0  0  0
   -7.2200   17.9290  -33.4890 N   0  0  0  0  0  0  0  0  0  0  0  0
   -6.1700   18.8160  -34.0420 C   0  0  0  0  0  0  0  0  0  0  0  0
   -5.3620   18.1160  -35.1380 C   0  0  0  0  0  0  0  0  0  0  0  0
   -4.6250   16.8840  -34.5840 C   0  0  0  0  0  0  0  0  0  0  0  0
   -5.3200   16.2820  -33.3500 C   0  0  0  0  0  0  0  0  0  0  0  0
   -6.8390   16.4960  -33.4100 C   0  0  0  0  0  0  0  0  0  0  0  0
   -6.2640   20.8110  -31.6410 C   0  0  0  0  0  0  0  0  0  0  0  0
   -4.5980   24.0510  -30.1420 S   0  0  0  0  0  0  0  0  0  0  0  0
   -5.9370   24.3730  -29.5390 O   0  0  0  0  0  0  0  0  0  0  0  0
   -4.0940   25.2850  -30.8390 O   0  0  0  0  0  0  0  0  0  0  0  0
   -3.4590   23.5830  -28.8810 C   0  0  0  0  0  0  0  0  0  0  0  0
   -3.3600   22.2460  -28.4670 C   0  0  0  0  0  0  0  0  0  0  0  0
   -2.4440   21.8850  -27.4730 C   0  0  0  0  0  0  0  0  0  0  0  0
   -1.6240   22.8550  -26.8910 C   0  0  0  0  0  0  0  0  0  0  0  0
   -1.7220   24.1880  -27.2980 C   0  0  0  0  0  0  0  0  0  0  0  0
   -2.6380   24.5530  -28.2890 C   0  0  0  0  0  0  0  0  0  0  0  0
   -4.6049   21.0331  -33.4414 H   0  0  0  0  0  0  0  0  0  0  0  0
   -4.3186   22.7409  -33.9192 H   0  0  0  0  0  0  0  0  0  0  0  0
   -2.9581   21.5681  -33.9192 H   0  0  0  0  0  0  0  0  0  0  0  0
   -3.2435   21.3173  -31.4304 H   0  0  0  0  0  0  0  0  0  0  0  0
   -2.7952   22.9906  -31.9426 H   0  0  0  0  0  0  0  0  0  0  0  0
   -7.0612   24.1371  -31.6297 H   0  0  0  0  0  0  0  0  0  0  0  0
   -9.3261   23.1849  -32.0403 H   0  0  0  0  0  0  0  0  0  0  0  0
   -9.6407   20.7140  -32.1824 H   0  0  0  0  0  0  0  0  0  0  0  0
   -6.6465   19.7119  -34.4666 H   0  0  0  0  0  0  0  0  0  0  0  0
   -5.4828   19.0862  -33.2267 H   0  0  0  0  0  0  0  0  0  0  0  0
   -6.0451   17.7957  -35.9385 H   0  0  0  0  0  0  0  0  0  0  0  0
   -4.6149   18.8238  -35.5263 H   0  0  0  0  0  0  0  0  0  0  0  0
   -4.5797   16.1173  -35.3715 H   0  0  0  0  0  0  0  0  0  0  0  0
   -3.6206   17.2087  -34.2745 H   0  0  0  0  0  0  0  0  0  0  0  0
   -5.1108   15.2028  -33.3110 H   0  0  0  0  0  0  0  0  0  0  0  0
   -4.9323   16.7845  -32.4516 H   0  0  0  0  0  0  0  0  0  0  0  0
   -7.2310   15.9795  -34.2986 H   0  0  0  0  0  0  0  0  0  0  0  0
   -7.2653   16.0929  -32.4795 H   0  0  0  0  0  0  0  0  0  0  0  0
   -5.4002   20.1386  -31.5323 H   0  0  0  0  0  0  0  0  0  0  0  0
   -4.0037   21.4804  -28.9247 H   0  0  0  0  0  0  0  0  0  0  0  0
   -2.3693   20.8363  -27.1494 H   0  0  0  0  0  0  0  0  0  0  0  0
   -0.9013   22.5693  -26.1125 H   0  0  0  0  0  0  0  0  0  0  0  0
   -1.0774   24.9514  -26.8380 H   0  0  0  0  0  0  0  0  0  0  0  0
   -2.7148   25.6038  -28.6050 H   0  0  0  0  0  0  0  0  0  0  0  0
  1  2  1  0
  2  3  1  0
  3  4  1  0
  4  5  2  0
  5  6  1  0
  6  7  2  0
  7  8  1  0
  8  9  1  0
  9 10  2  0
  9 11  2  0
  9 12  1  0
 12 13  1  0
 13 14  1  0
 14 15  1  0
 15 16  1  0
 16 17  1  0
  8 18  2  0
  3 19  1  0
 19 20  2  0
 19 21  2  0
 19 22  1  0
 22 23  2  0
 23 24  1  0
 24 25  2  0
 25 26  1  0
 26 27  2  0
 18  4  1  0
 27 22  1  0
 17 12  1  0
  1 28  1  0
  1 29  1  0
  1 30  1  0
  2 31  1  0
  2 32  1  0
  5 33  1  0
  6 34  1  0
  7 35  1  0
 13 36  1  0
 13 37  1  0
 14 38  1  0
 14 39  1  0
 15 40  1  0
 15 41  1  0
 16 42  1  0
 16 43  1  0
 17 44  1  0
 17 45  1  0
 18 46  1  0
 23 47  1  0
 24 48  1  0
 25 49  1  0
 26 50  1  0
 27 51  1  0
M  END
>  <UniqueID>  (2) 
2

>  <SMILES>  (2) 
CCN(c1cccc(S(=O)(=O)N2CCCCC2)c1)S(=O)(=O)c1ccccc1

>  <Energy>  (2) 
57.96752862559749

>  <Genealogy>  (2) 
CCN(c1cccc(S(=O)(=O)N2CCCCC2)c1)S(=O)(=O)c1ccccc1 (3D coordinates assigned)
CCN(c1cccc(S(=O)(=O)N2CCCCC2)c1)S(=O)(=O)c1ccccc1 (nonaromatic ring conformer: 57.96752862559749 kcal/mol)

>  <smiles>  (2) 
CCN(c1cccc(S(=O)(=O)N2CCCCC2)c1)S(=O)(=O)c1ccccc1

>  <score_type>  (2) 
oracle

>  <origin>  (2) 
adgpu

>  <m_score__min__energy>  (2) 
-10.15

>  <m_primary>  (2) 
energy

$$$$
2:0
     RDKit          3D

 49 51  0  0  0  0  0  0  0  0999 V2000
   -1.8935   20.7228  -31.2268 H   0  0  0  0  0  0  0  0  0  0  0  0
   -0.9500   20.6200  -31.7830 C   0  0  0  0  0  0  0  0  0  0  0  0
   -0.8270   21.2530  -33.1060 C   0  0  0  0  0  0  0  0  0  0  0  0
    0.3140   21.5370  -33.5560 O   0  0  0  0  0  0  0  0  0  0  0  0
   -1.9520   21.5460  -33.8690 O   0  0  0  0  0  0  0  0  0  0  0  0
    0.0550   19.9220  -31.2370 C   0  0  0  0  0  0  0  0  0  0  0  0
    0.9875   19.8184  -31.8112 H   0  0  0  0  0  0  0  0  0  0  0  0
   -0.0200   19.2810  -29.9010 C   0  0  0  0  0  0  0  0  0  0  0  0
    0.8710   18.2370  -29.6060 C   0  0  0  0  0  0  0  0  0  0  0  0
    1.6046   17.9168  -30.3605 H   0  0  0  0  0  0  0  0  0  0  0  0
    0.8340   17.6010  -28.3620 C   0  0  0  0  0  0  0  0  0  0  0  0
    1.5437   16.7909  -28.1382 H   0  0  0  0  0  0  0  0  0  0  0  0
   -0.1020   17.9920  -27.4030 C   0  0  0  0  0  0  0  0  0  0  0  0
   -0.1255   17.4921  -26.4234 H   0  0  0  0  0  0  0  0  0  0  0  0
   -1.0110   19.0190  -27.6850 C   0  0  0  0  0  0  0  0  0  0  0  0
   -2.1890   19.4970  -26.4670 S   0  0  0  0  0  0  0  0  0  0  0  0
   -1.4630   20.1600  -25.3300 O   0  0  0  0  0  0  0  0  0  0  0  0
   -2.9330   18.3030  -25.9380 O   0  0  0  0  0  0  0  0  0  0  0  0
   -3.3230   20.6160  -27.1540 N   0  0  0  0  0  0  0  0  0  0  0  0
   -4.3350   20.3630  -27.0880 H   0  0  0  0  0  0  0  0  0  0  0  0
   -2.9560   21.8970  -27.6980 C   0  0  0  0  0  0  0  0  0  0  0  0
   -1.7380   22.5230  -27.3740 C   0  0  0  0  0  0  0  0  0  0  0  0
   -1.0345   22.0300  -26.6869 H   0  0  0  0  0  0  0  0  0  0  0  0
   -1.4190   23.7670  -27.9210 C   0  0  0  0  0  0  0  0  0  0  0  0
   -0.4651   24.2488  -27.6603 H   0  0  0  0  0  0  0  0  0  0  0  0
   -2.3000   24.4050  -28.7960 C   0  0  0  0  0  0  0  0  0  0  0  0
   -1.9450   25.6380  -29.3300 O   0  0  0  0  0  0  0  0  0  0  0  0
   -3.5230   23.7930  -29.1290 C   0  0  0  0  0  0  0  0  0  0  0  0
   -4.6690   24.5440  -30.2480 S   0  0  0  0  0  0  0  0  0  0  0  0
   -6.0360   24.4830  -29.6220 O   0  0  0  0  0  0  0  0  0  0  0  0
   -4.3240   25.9900  -30.4700 O   0  0  0  0  0  0  0  0  0  0  0  0
   -4.6960   23.6730  -31.7680 N   0  0  0  0  0  0  0  0  0  0  0  0
   -6.0660   23.5120  -32.2890 C   0  0  0  0  0  0  0  0  0  0  0  0
   -6.5937   24.4728  -32.1977 H   0  0  0  0  0  0  0  0  0  0  0  0
   -5.9899   23.1917  -33.3386 H   0  0  0  0  0  0  0  0  0  0  0  0
   -6.8660   22.4310  -31.5230 C   0  0  0  0  0  0  0  0  0  0  0  0
   -7.5819   22.9345  -30.8567 H   0  0  0  0  0  0  0  0  0  0  0  0
   -7.3665   21.8045  -32.2760 H   0  0  0  0  0  0  0  0  0  0  0  0
   -6.0520   21.5730  -30.7410 O   0  0  0  0  0  0  0  0  0  0  0  0
   -4.9140   21.1850  -31.4750 C   0  0  0  0  0  0  0  0  0  0  0  0
   -4.3807   20.3949  -30.9261 H   0  0  0  0  0  0  0  0  0  0  0  0
   -5.2343   20.8117  -32.4589 H   0  0  0  0  0  0  0  0  0  0  0  0
   -3.9720   22.3850  -31.6790 C   0  0  0  0  0  0  0  0  0  0  0  0
   -3.2737   22.4321  -30.8304 H   0  0  0  0  0  0  0  0  0  0  0  0
   -3.4450   22.2344  -32.6327 H   0  0  0  0  0  0  0  0  0  0  0  0
   -3.8360   22.5390  -28.5850 C   0  0  0  0  0  0  0  0  0  0  0  0
   -4.7838   22.0513  -28.8566 H   0  0  0  0  0  0  0  0  0  0  0  0
   -0.9760   19.6560  -28.9340 C   0  0  0  0  0  0  0  0  0  0  0  0
   -1.6989   20.4534  -29.1610 H   0  0  0  0  0  0  0  0  0  0  0  0
  1  2  1  0
  2  3  1  0
  3  4  2  0
  3  5  1  0
  2  6  2  0
  6  7  1  0
  6  8  1  0
  8  9  2  0
  9 10  1  0
  9 11  1  0
 11 12  1  0
 11 13  2  0
 13 14  1  0
 13 15  1  0
 15 16  1  0
 16 17  2  0
 16 18  2  0
 16 19  1  0
 19 20  1  0
 19 21  1  0
 21 22  2  0
 22 23  1  0
 22 24  1  0
 24 25  1  0
 24 26  2  0
 26 27  1  0
 26 28  1  0
 28 29  1  0
 29 30  2  0
 29 31  2  0
 29 32  1  0
 32 33  1  0
 33 34  1  0
 33 35  1  0
 33 36  1  0
 36 37  1  0
 36 38  1  0
 36 39  1  0
 39 40  1  0
 40 41  1  0
 40 42  1  0
 40 43  1  0
 43 44  1  0
 43 45  1  0
 28 46  2  0
 46 47  1  0
 15 48  2  0
 48 49  1  0
 48  8  1  0
 46 21  1  0
 43 32  1  0
M  CHG  2   5  -1  27  -1
M  END
>  <UniqueID>  (3) 
3

>  <SMILES>  (3) 
O=C([O-])/C=C/c1cccc(S(=O)(=O)Nc2ccc([O-])c(S(=O)(=O)N3CCOCC3)c2)c1

>  <Energy>  (3) 
66.22106910863802

>  <Genealogy>  (3) 
O=C([O-])C=Cc1cccc(S(=O)(=O)Nc2ccc([O-])c(S(=O)(=O)N3CCOCC3)c2)c1 (protonated)
O=C([O-])/C=C/c1cccc(S(=O)(=O)Nc2ccc([O-])c(S(=O)(=O)N3CCOCC3)c2)c1 (cis-trans isomerization)
O=C([O-])/C=C/c1cccc(S(=O)(=O)Nc2ccc([O-])c(S(=O)(=O)N3CCOCC3)c2)c1 (3D coordinates assigned)
O=C([O-])/C=C/c1cccc(S(=O)(=O)Nc2ccc([O-])c(S(=O)(=O)N3CCOCC3)c2)c1 (nonaromatic ring conformer: 66.22106910863802 kcal/mol)

>  <smiles>  (3) 
O=C(O)C=Cc1cccc(S(=O)(=O)Nc2ccc(O)c(S(=O)(=O)N3CCOCC3)c2)c1

>  <score_type>  (3) 
oracle

>  <origin>  (3) 
adgpu

>  <m_score__min__energy>  (3) 
-13.26

>  <m_primary>  (3) 
energy

$$$$
3:0
     RDKit          3D

 43 45  0  0  0  0  0  0  0  0999 V2000
   -2.2120   22.2810  -30.4680 C   0  0  0  0  0  0  0  0  0  0  0  0
   -2.8940   21.5960  -31.6030 C   0  0  0  0  0  0  0  0  0  0  0  0
   -2.8290   20.2540  -31.9060 C   0  0  0  0  0  0  0  0  0  0  0  0
   -3.6440   20.1390  -33.0130 C   0  0  0  0  0  0  0  0  0  0  0  0
   -3.9480   18.8750  -33.7580 C   0  0  0  0  0  0  0  0  0  0  0  0
   -5.2850   18.3510  -33.3890 N   0  0  0  0  0  0  0  0  0  0  0  0
   -5.3570   16.9160  -33.7150 C   0  0  0  0  0  0  0  0  0  0  0  0
   -6.3740   19.0720  -34.0870 C   0  0  0  0  0  0  0  0  0  0  0  0
   -7.2800   19.7420  -33.1030 C   0  0  0  0  0  0  0  0  0  0  0  0
   -6.8790   20.6850  -32.2310 N   0  0  0  0  0  0  0  0  0  0  0  0
   -8.0280   20.9370  -31.5690 C   0  0  0  0  0  0  0  0  0  0  0  0
   -8.1290   21.8590  -30.3930 C   0  0  0  0  0  0  0  0  0  0  0  0
   -7.0180   22.8740  -30.4060 C   0  0  0  0  0  0  0  0  0  0  0  0
   -6.8570   23.7330  -31.5030 C   0  0  0  0  0  0  0  0  0  0  0  0
   -5.8090   24.6550  -31.5280 C   0  0  0  0  0  0  0  0  0  0  0  0
   -4.9010   24.7190  -30.4650 C   0  0  0  0  0  0  0  0  0  0  0  0
   -3.8680   25.6500  -30.5060 O   0  0  0  0  0  0  0  0  0  0  0  0
   -5.0350   23.8460  -29.3700 C   0  0  0  0  0  0  0  0  0  0  0  0
   -4.0690   23.9160  -28.2220 C   0  0  0  0  0  0  0  0  0  0  0  0
   -6.0990   22.9290  -29.3460 C   0  0  0  0  0  0  0  0  0  0  0  0
   -9.0520   20.1770  -32.0030 N   0  0  0  0  0  0  0  0  0  0  0  0
   -8.5500   19.4560  -32.9590 O   0  0  0  0  0  0  0  0  0  0  0  0
   -4.1690   21.3420  -33.3220 N   0  0  0  0  0  0  0  0  0  0  0  0
   -3.6950   22.1900  -32.4560 O   0  0  0  0  0  0  0  0  0  0  0  0
   -2.6013   21.8899  -29.5164 H   0  0  0  0  0  0  0  0  0  0  0  0
   -1.1292   22.0955  -30.5251 H   0  0  0  0  0  0  0  0  0  0  0  0
   -2.4022   23.3629  -30.5251 H   0  0  0  0  0  0  0  0  0  0  0  0
   -2.2635   19.4643  -31.3897 H   0  0  0  0  0  0  0  0  0  0  0  0
   -3.9274   19.0801  -34.8385 H   0  0  0  0  0  0  0  0  0  0  0  0
   -3.1908   18.1217  -33.4950 H   0  0  0  0  0  0  0  0  0  0  0  0
   -5.3864   16.3297  -32.7847 H   0  0  0  0  0  0  0  0  0  0  0  0
   -6.2662   16.7185  -34.3018 H   0  0  0  0  0  0  0  0  0  0  0  0
   -4.4722   16.6285  -34.3018 H   0  0  0  0  0  0  0  0  0  0  0  0
   -5.9363   19.8322  -34.7507 H   0  0  0  0  0  0  0  0  0  0  0  0
   -6.9603   18.3474  -34.6712 H   0  0  0  0  0  0  0  0  0  0  0  0
   -9.0954   22.3831  -30.4289 H   0  0  0  0  0  0  0  0  0  0  0  0
   -8.0478   21.2626  -29.4723 H   0  0  0  0  0  0  0  0  0  0  0  0
   -7.5598   23.6800  -32.3476 H   0  0  0  0  0  0  0  0  0  0  0  0
   -5.6965   25.3336  -32.3864 H   0  0  0  0  0  0  0  0  0  0  0  0
   -4.6238   23.8758  -27.2730 H   0  0  0  0  0  0  0  0  0  0  0  0
   -3.3730   23.0659  -28.2761 H   0  0  0  0  0  0  0  0  0  0  0  0
   -3.5028   24.8575  -28.2761 H   0  0  0  0  0  0  0  0  0  0  0  0
   -6.2131   22.2483  -28.4895 H   0  0  0  0  0  0  0  0  0  0  0  0
  1  2  1  0
  2  3  2  0
  3  4  1  0
  4  5  1  0
  5  6  1  0
  6  7  1  0
  6  8  1  0
  8  9  1  0
  9 10  2  0
 10 11  1  0
 11 12  1  0
 12 13  1  0
 13 14  2  0
 14 15  1  0
 15 16  2  0
 16 17  1  0
 16 18  1  0
 18 19  1  0
 18 20  2  0
 11 21  2  0
 21 22  1  0
  4 23  2  0
 23 24  1  0
 24  2  1  0
 22  9  1  0
 20 13  1  0
  1 25  1  0
  1 26  1  0
  1 27  1  0
  3 28  1  0
  5 29  1  0
  5 30  1  0
  7 31  1  0
  7 32  1  0
  7 33  1  0
  8 34  1  0
  8 35  1  0
 12 36  1  0
 12 37  1  0
 14 38  1  0
 15 39  1  0
 19 40  1  0
 19 41  1  0
 19 42  1  0
 20 43  1  0
M  CHG  1  17  -1
M  END
>  <UniqueID>  (4) 
4

>  <SMILES>  (4) 
Cc1cc(CN(C)Cc2nc(Cc3ccc([O-])c(C)c3)no2)no1

>  <Energy>  (4) 
102.3820934593729

>  <Genealogy>  (4) 
Cc1cc(CN(C)Cc2nc(Cc3ccc([O-])c(C)c3)no2)no1 (protonated)
Cc1cc(CN(C)Cc2nc(Cc3ccc([O-])c(C)c3)no2)no1 (3D coordinates assigned)
Cc1cc(CN(C)Cc2nc(Cc3ccc([O-])c(C)c3)no2)no1 (optimized conformer: 102.3820934593729 kcal/mol)

>  <smiles>  (4) 
Cc1cc(CN(C)Cc2nc(Cc3ccc(O)c(C)c3)no2)no1

>  <score_type>  (4) 
oracle

>  <origin>  (4) 
adgpu

>  <m_score__min__energy>  (4) 
-10.869999999999999

>  <m_primary>  (4) 
energy

$$$$
4:0
     RDKit          3D

 62 65  0  0  1  0  0  0  0  0999 V2000
   -9.4450   21.1850  -32.0960 C   0  0  0  0  0  0  0  0  0  0  0  0
   -8.0030   20.9100  -32.3080 C   0  0  0  0  0  0  0  0  0  0  0  0
   -7.0470   21.7210  -31.7120 C   0  0  0  0  0  0  0  0  0  0  0  0
   -5.7350   21.4110  -31.9480 C   0  0  0  0  0  0  0  0  0  0  0  0
   -4.7490   22.0810  -31.4570 N   0  0  0  0  0  0  0  0  0  0  0  0
   -5.0790   23.4370  -30.4520 S   0  0  0  0  0  0  0  0  0  0  0  0
   -6.1070   23.1070  -29.3910 O   0  0  0  0  0  0  0  0  0  0  0  0
   -5.4480   24.6640  -31.2160 O   0  0  0  0  0  0  0  0  0  0  0  0
   -3.5730   23.7820  -29.5930 C   0  0  0  0  0  0  0  0  0  0  0  0
   -3.6240   24.5410  -28.4210 C   0  0  0  0  0  0  0  0  0  0  0  0
   -2.4800   24.8410  -27.7130 C   0  0  0  0  0  0  0  0  0  0  0  0
   -1.2630   24.3770  -28.1770 C   0  0  0  0  0  0  0  0  0  0  0  0
   -0.1040   24.7090  -27.4140 N   0  0  0  0  0  0  0  0  0  0  0  0
    0.4200   23.8070  -26.4390 C   0  0  0  0  0  0  0  0  0  0  0  0
   -0.1790   22.7030  -26.2760 O   0  0  0  0  0  0  0  0  0  0  0  0
    1.5940   24.2050  -25.7020 C   0  0  0  0  0  0  0  0  0  0  0  0
    2.7000   24.4740  -26.2830 O   0  0  0  0  0  0  0  0  0  0  0  0
    1.5890   24.3210  -24.2800 N   0  0  0  0  0  0  0  0  0  0  0  0
    2.8300   24.7270  -23.6810 C   0  0  0  0  0  0  0  0  0  0  0  0
    3.7100   23.7990  -23.1660 C   0  0  0  0  0  0  0  0  0  0  0  0
    4.8830   24.2550  -22.6050 C   0  0  0  0  0  0  0  0  0  0  0  0
    5.1310   25.6020  -22.5800 C   0  0  0  0  0  0  0  0  0  0  0  0
    4.2620   26.5520  -23.0920 C   0  0  0  0  0  0  0  0  0  0  0  0
    3.0770   26.0860  -23.6580 C   0  0  0  0  0  0  0  0  0  0  0  0
    2.1740   27.0500  -24.1870 N   0  0  0  0  0  0  0  0  0  0  0  0
    0.8990   27.3300  -23.5220 C   0  0  0  0  0  0  0  0  0  0  0  0
   -0.2220   27.0070  -24.4990 C   0  0  0  0  0  0  0  0  0  0  0  0
    0.2380   26.8760  -25.7880 O   0  0  0  0  0  0  0  0  0  0  0  0
    1.1510   27.8240  -26.1850 C   0  0  0  0  0  0  0  0  0  0  0  0
    2.4410   27.8080  -25.3940 C   0  0  0  0  0  0  0  0  0  0  0  0
   -1.2020   23.6240  -29.3360 C   0  0  0  0  0  0  0  0  0  0  0  0
   -2.3600   23.3430  -30.0200 C   0  0  0  0  0  0  0  0  0  0  0  0
   -5.4190   20.3580  -32.7290 N   0  0  0  0  0  0  0  0  0  0  0  0
   -6.3550   19.5780  -33.3030 C   0  0  0  0  0  0  0  0  0  0  0  0
   -5.9110   18.4550  -34.1370 C   0  0  0  0  0  0  0  0  0  0  0  0
   -7.6710   19.8630  -33.0840 N   0  0  0  0  0  0  0  0  0  0  0  0
   -9.6559   21.2252  -31.0171 H   0  0  0  0  0  0  0  0  0  0  0  0
   -9.7060   22.1491  -32.5568 H   0  0  0  0  0  0  0  0  0  0  0  0
  -10.0425   20.3846  -32.5568 H   0  0  0  0  0  0  0  0  0  0  0  0
   -7.3311   22.5743  -31.0786 H   0  0  0  0  0  0  0  0  0  0  0  0
   -4.5955   24.9060  -28.0564 H   0  0  0  0  0  0  0  0  0  0  0  0
   -2.5345   25.4407  -26.7925 H   0  0  0  0  0  0  0  0  0  0  0  0
    0.3850   25.6410  -27.5650 H   0  0  0  0  0  0  0  0  0  0  0  0
    0.7320   24.1210  -23.7190 H   0  0  0  0  0  0  0  0  0  0  0  0
    3.4818   22.7235  -23.2020 H   0  0  0  0  0  0  0  0  0  0  0  0
    5.6109   23.5466  -22.1827 H   0  0  0  0  0  0  0  0  0  0  0  0
    6.0722   25.9487  -22.1284 H   0  0  0  0  0  0  0  0  0  0  0  0
    4.4970   27.6259  -23.0534 H   0  0  0  0  0  0  0  0  0  0  0  0
    0.8019   26.7044  -22.6224 H   0  0  0  0  0  0  0  0  0  0  0  0
    0.8497   28.3865  -23.2197 H   0  0  0  0  0  0  0  0  0  0  0  0
   -0.6973   26.0630  -24.1942 H   0  0  0  0  0  0  0  0  0  0  0  0
   -0.9402   27.8399  -24.4783 H   0  0  0  0  0  0  0  0  0  0  0  0
    1.3927   27.6490  -27.2438 H   0  0  0  0  0  0  0  0  0  0  0  0
    0.6850   28.8054  -26.0125 H   0  0  0  0  0  0  0  0  0  0  0  0
    3.2387   27.3250  -25.9775 H   0  0  0  0  0  0  0  0  0  0  0  0
    2.7752   28.8289  -25.1571 H   0  0  0  0  0  0  0  0  0  0  0  0
   -0.2349   23.2535  -29.7067 H   0  0  0  0  0  0  0  0  0  0  0  0
   -2.3034   22.7445  -30.9412 H   0  0  0  0  0  0  0  0  0  0  0  0
   -5.5834   17.6264  -33.4920 H   0  0  0  0  0  0  0  0  0  0  0  0
   -6.7436   18.1182  -34.7720 H   0  0  0  0  0  0  0  0  0  0  0  0
   -5.0732   18.7787  -34.7720 H   0  0  0  0  0  0  0  0  0  0  0  0
   -8.3540   19.2470  -33.5370 H   0  0  0  0  0  0  0  0  0  0  0  0
  1  2  1  0
  2  3  2  0
  3  4  1  0
  4  5  2  0
  5  6  1  0
  6  7  2  0
  6  8  2  0
  6  9  1  0
  9 10  2  0
 10 11  1  0
 11 12  2  0
 12 13  1  0
 13 14  1  0
 14 15  2  0
 14 16  1  0
 16 17  2  0
 16 18  1  0
 18 19  1  0
 19 20  2  0
 20 21  1  0
 21 22  2  0
 22 23  1  0
 23 24  2  0
 24 25  1  0
 25 26  1  0
 26 27  1  0
 27 28  1  0
 28 29  1  0
 29 30  1  0
 12 31  1  0
 31 32  2  0
  4 33  1  0
 33 34  2  0
 34 35  1  0
 34 36  1  0
 36  2  1  0
 32  9  1  0
 24 19  1  0
 30 25  1  0
  1 37  1  0
  1 38  1  0
  1 39  1  0
  3 40  1  0
 10 41  1  0
 11 42  1  0
 13 43  1  0
 18 44  1  0
 20 45  1  0
 21 46  1  0
 22 47  1  0
 23 48  1  0
 26 49  1  0
 26 50  1  0
 27 51  1  0
 27 52  1  0
 29 53  1  0
 29 54  1  0
 30 55  1  0
 30 56  1  0
 31 57  1  0
 32 58  1  0
 35 59  1  0
 35 60  1  0
 35 61  1  0
 36 62  1  0
M  END
>  <smiles>  (5) 
Cc1cc(=NS(=O)(=O)c2ccc(NC(=O)C(=O)Nc3ccccc3N3CCOCC3)cc2)nc(C)[nH]1

>  <score_type>  (5) 
oracle

>  <origin>  (5) 
adgpu

>  <m_score__min__energy>  (5) 
-9.6199999999999992

>  <m_primary>  (5) 
energy

$$$$
5:0
     RDKit          3D

 48 50  0  0  0  0  0  0  0  0999 V2000
   -0.5780   16.4730  -32.8000 C   0  0  0  0  0  0  0  0  0  0  0  0
   -1.3500   16.7420  -33.9670 O   0  0  0  0  0  0  0  0  0  0  0  0
   -2.6360   17.3050  -33.9600 C   0  0  0  0  0  0  0  0  0  0  0  0
   -3.7970   16.5110  -34.0000 C   0  0  0  0  0  0  0  0  0  0  0  0
   -5.0620   17.1060  -34.0260 C   0  0  0  0  0  0  0  0  0  0  0  0
   -5.1870   18.5030  -34.0300 C   0  0  0  0  0  0  0  0  0  0  0  0
   -6.4640   19.1520  -34.0540 N   0  0  0  0  0  0  0  0  0  0  0  0
   -7.4420   19.5300  -32.6710 S   0  0  0  0  0  0  0  0  0  0  0  0
   -8.8940   19.6540  -33.0320 O   0  0  0  0  0  0  0  0  0  0  0  0
   -7.3150   18.4050  -31.6830 O   0  0  0  0  0  0  0  0  0  0  0  0
   -6.8570   21.0290  -31.9340 C   0  0  0  0  0  0  0  0  0  0  0  0
   -5.4910   21.3340  -32.0100 C   0  0  0  0  0  0  0  0  0  0  0  0
   -4.9920   22.5150  -31.4560 C   0  0  0  0  0  0  0  0  0  0  0  0
   -5.8520   23.4280  -30.8260 C   0  0  0  0  0  0  0  0  0  0  0  0
   -5.3060   24.6770  -30.2400 C   0  0  0  0  0  0  0  0  0  0  0  0
   -5.8070   25.2080  -29.0100 N   0  0  0  0  0  0  0  0  0  0  0  0
   -4.3910   25.3000  -30.8440 O   0  0  0  0  0  0  0  0  0  0  0  0
   -7.2220   23.1230  -30.7450 C   0  0  0  0  0  0  0  0  0  0  0  0
   -7.7290   21.9390  -31.2970 C   0  0  0  0  0  0  0  0  0  0  0  0
   -9.4580   21.6470  -31.1600 Cl  0  0  0  0  0  0  0  0  0  0  0  0
   -4.0360   19.2930  -33.9530 C   0  0  0  0  0  0  0  0  0  0  0  0
   -2.7620   18.7060  -33.9200 C   0  0  0  0  0  0  0  0  0  0  0  0
   -1.5910   19.5380  -33.8640 N   0  0  0  0  0  0  0  0  0  0  0  0
   -1.4160   20.4790  -32.7530 C   0  0  0  0  0  0  0  0  0  0  0  0
   -0.2600   21.4450  -33.0430 C   0  0  0  0  0  0  0  0  0  0  0  0
   -0.2870   21.8650  -34.4500 N   0  0  0  0  0  0  0  0  0  0  0  0
   -0.0460   20.7440  -35.3800 C   0  0  0  0  0  0  0  0  0  0  0  0
   -0.5150   19.3740  -34.8470 C   0  0  0  0  0  0  0  0  0  0  0  0
   -1.1814   16.6833  -31.9047 H   0  0  0  0  0  0  0  0  0  0  0  0
   -0.2738   15.4159  -32.7972 H   0  0  0  0  0  0  0  0  0  0  0  0
    0.3172   17.1122  -32.7972 H   0  0  0  0  0  0  0  0  0  0  0  0
   -3.7088   15.4146  -34.0109 H   0  0  0  0  0  0  0  0  0  0  0  0
   -5.9633   16.4756  -34.0434 H   0  0  0  0  0  0  0  0  0  0  0  0
   -4.8047   20.6357  -32.5113 H   0  0  0  0  0  0  0  0  0  0  0  0
   -3.9151   22.7316  -31.5139 H   0  0  0  0  0  0  0  0  0  0  0  0
   -6.6650   24.8270  -28.5550 H   0  0  0  0  0  0  0  0  0  0  0  0
   -5.3640   26.0560  -28.5920 H   0  0  0  0  0  0  0  0  0  0  0  0
   -7.9050   23.8231  -30.2416 H   0  0  0  0  0  0  0  0  0  0  0  0
   -4.1304   20.3884  -33.9179 H   0  0  0  0  0  0  0  0  0  0  0  0
   -2.3433   21.0549  -32.6171 H   0  0  0  0  0  0  0  0  0  0  0  0
   -1.1843   19.9114  -31.8397 H   0  0  0  0  0  0  0  0  0  0  0  0
   -0.3569   22.3308  -32.3980 H   0  0  0  0  0  0  0  0  0  0  0  0
    0.6927   20.9337  -32.8406 H   0  0  0  0  0  0  0  0  0  0  0  0
   -1.2280   22.2790  -34.6550 H   0  0  0  0  0  0  0  0  0  0  0  0
   -0.5814   20.9518  -36.3182 H   0  0  0  0  0  0  0  0  0  0  0  0
    1.0429   20.6751  -35.5198 H   0  0  0  0  0  0  0  0  0  0  0  0
   -0.8836   18.7672  -35.6872 H   0  0  0  0  0  0  0  0  0  0  0  0
    0.3355   18.8758  -34.3588 H   0  0  0  0  0  0  0  0  0  0  0  0
  1  2  1  0
  2  3  1  0
  3  4  2  0
  4  5  1  0
  5  6  2  0
  6  7  1  0
  7  8  1  0
  8  9  2  0
  8 10  2  0
  8 11  1  0
 11 12  2  0
 12 13  1  0
 13 14  2  0
 14 15  1  0
 15 16  1  0
 15 17  2  0
 14 18  1  0
 18 19  2  0
 19 20  1  0
  6 21  1  0
 21 22  2  0
 22 23  1  0
 23 24  1  0
 24 25  1  0
 25 26  1  0
 26 27  1  0
 27 28  1  0
 22  3  1  0
 28 23  1  0
 19 11  1  0
  1 29  1  0
  1 30  1  0
  1 31  1  0
  4 32  1  0
  5 33  1  0
 12 34  1  0
 13 35  1  0
 16 36  1  0
 16 37  1  0
 18 38  1  0
 21 39  1  0
 24 40  1  0
 24 41  1  0
 25 42  1  0
 25 43  1  0
 26 44  1  0
 27 45  1  0
 27 46  1  0
 28 47  1  0
 28 48  1  0
M  CHG  1   7  -1
M  END
>  <UniqueID>  (6) 
5

>  <SMILES>  (6) 
COc1ccc([N-]S(=O)(=O)c2ccc(C(N)=O)cc2Cl)cc1N1CCNCC1

>  <Energy>  (6) 
68.19046701818544

>  <Genealogy>  (6) 
COc1ccc([N-]S(=O)(=O)c2ccc(C(N)=O)cc2Cl)cc1N1CCNCC1 (protonated)
COc1ccc([N-]S(=O)(=O)c2ccc(C(N)=O)cc2Cl)cc1N1CCNCC1 (3D coordinates assigned)
COc1ccc([N-]S(=O)(=O)c2ccc(C(N)=O)cc2Cl)cc1N1CCNCC1 (nonaromatic ring conformer: 68.19046701818544 kcal/mol)

>  <smiles>  (6) 
COc1ccc(NS(=O)(=O)c2ccc(C(N)=O)cc2Cl)cc1N1CCNCC1

>  <score_type>  (6) 
oracle

>  <origin>  (6) 
adgpu

>  <m_score__min__energy>  (6) 
-10.25

>  <m_primary>  (6) 
energy

$$$$
6:0
     RDKit          3D

 60 63  0  0  0  0  0  0  0  0999 V2000
   -7.2020   24.5580  -30.4750 C   0  0  0  0  0  0  0  0  0  0  0  0
   -7.1490   23.1190  -30.9140 C   0  0  0  0  0  0  0  0  0  0  0  0
   -8.2970   22.3170  -30.8150 C   0  0  0  0  0  0  0  0  0  0  0  0
   -8.2680   20.9850  -31.2290 C   0  0  0  0  0  0  0  0  0  0  0  0
   -7.0990   20.4400  -31.7690 C   0  0  0  0  0  0  0  0  0  0  0  0
   -7.0600   18.7520  -32.2790 S   0  0  0  0  0  0  0  0  0  0  0  0
   -8.4670   18.2160  -32.2950 O   0  0  0  0  0  0  0  0  0  0  0  0
   -6.2620   17.9530  -31.2840 O   0  0  0  0  0  0  0  0  0  0  0  0
   -6.3460   18.6560  -33.8810 N   0  0  0  0  0  0  0  0  0  0  0  0
   -4.9760   19.2220  -33.9090 C   0  0  0  0  0  0  0  0  0  0  0  0
   -3.8860   18.1450  -33.7340 C   0  0  0  0  0  0  0  0  0  0  0  0
   -4.3710   17.0700  -32.9600 O   0  0  0  0  0  0  0  0  0  0  0  0
   -5.3690   16.3610  -33.6750 C   0  0  0  0  0  0  0  0  0  0  0  0
   -6.3720   17.2800  -34.4100 C   0  0  0  0  0  0  0  0  0  0  0  0
   -5.9530   21.2350  -31.8850 C   0  0  0  0  0  0  0  0  0  0  0  0
   -5.9610   22.5750  -31.4480 C   0  0  0  0  0  0  0  0  0  0  0  0
   -4.8100   23.4270  -31.5940 N   0  0  0  0  0  0  0  0  0  0  0  0
   -3.8840   23.8480  -30.5770 C   0  0  0  0  0  0  0  0  0  0  0  0
   -3.5180   25.0500  -30.5060 O   0  0  0  0  0  0  0  0  0  0  0  0
   -3.3190   22.8490  -29.6410 C   0  0  0  0  0  0  0  0  0  0  0  0
   -2.9550   23.2180  -28.3330 C   0  0  0  0  0  0  0  0  0  0  0  0
   -2.4300   22.2720  -27.4480 C   0  0  0  0  0  0  0  0  0  0  0  0
   -2.2540   20.9440  -27.8580 C   0  0  0  0  0  0  0  0  0  0  0  0
   -1.5720   19.7490  -26.7560 S   0  0  0  0  0  0  0  0  0  0  0  0
   -2.4180   18.5080  -26.8160 O   0  0  0  0  0  0  0  0  0  0  0  0
   -1.6020   20.2770  -25.3470 O   0  0  0  0  0  0  0  0  0  0  0  0
    0.0700   19.3650  -27.2300 N   0  0  0  0  0  0  0  0  0  0  0  0
    0.5340   20.2960  -28.2670 C   0  0  0  0  0  0  0  0  0  0  0  0
    0.2510   19.6700  -29.6260 C   0  0  0  0  0  0  0  0  0  0  0  0
   -0.0310   18.2050  -29.3500 C   0  0  0  0  0  0  0  0  0  0  0  0
    0.1330   18.0360  -27.8480 C   0  0  0  0  0  0  0  0  0  0  0  0
   -2.6030   20.5710  -29.1620 C   0  0  0  0  0  0  0  0  0  0  0  0
   -3.1360   21.5130  -30.0460 C   0  0  0  0  0  0  0  0  0  0  0  0
   -7.2038   24.6063  -29.3761 H   0  0  0  0  0  0  0  0  0  0  0  0
   -6.3229   25.0927  -30.8641 H   0  0  0  0  0  0  0  0  0  0  0  0
   -8.1180   25.0266  -30.8641 H   0  0  0  0  0  0  0  0  0  0  0  0
   -9.2263   22.7420  -30.4080 H   0  0  0  0  0  0  0  0  0  0  0  0
   -9.1685   20.3610  -31.1302 H   0  0  0  0  0  0  0  0  0  0  0  0
   -6.9490   19.2410  -34.5040 H   0  0  0  0  0  0  0  0  0  0  0  0
   -4.8223   19.7252  -34.8750 H   0  0  0  0  0  0  0  0  0  0  0  0
   -4.8884   19.9247  -33.0673 H   0  0  0  0  0  0  0  0  0  0  0  0
   -3.5848   17.7711  -34.7237 H   0  0  0  0  0  0  0  0  0  0  0  0
   -3.0238   18.5931  -33.2184 H   0  0  0  0  0  0  0  0  0  0  0  0
   -4.8745   15.7196  -34.4194 H   0  0  0  0  0  0  0  0  0  0  0  0
   -5.9430   15.7795  -32.9385 H   0  0  0  0  0  0  0  0  0  0  0  0
   -6.1140   17.3050  -35.4790 H   0  0  0  0  0  0  0  0  0  0  0  0
   -7.3827   16.8743  -34.2555 H   0  0  0  0  0  0  0  0  0  0  0  0
   -5.0371   20.8099  -32.3215 H   0  0  0  0  0  0  0  0  0  0  0  0
   -3.0847   24.2596  -28.0041 H   0  0  0  0  0  0  0  0  0  0  0  0
   -2.1541   22.5713  -26.4261 H   0  0  0  0  0  0  0  0  0  0  0  0
   -0.0034   21.2516  -28.1776 H   0  0  0  0  0  0  0  0  0  0  0  0
    1.6111   20.4876  -28.1527 H   0  0  0  0  0  0  0  0  0  0  0  0
   -0.6223   20.1475  -30.0943 H   0  0  0  0  0  0  0  0  0  0  0  0
    1.0970   19.7983  -30.3172 H   0  0  0  0  0  0  0  0  0  0  0  0
   -1.0553   17.9463  -29.6564 H   0  0  0  0  0  0  0  0  0  0  0  0
    0.6475   17.5459  -29.9114 H   0  0  0  0  0  0  0  0  0  0  0  0
   -0.6754   17.4028  -27.4536 H   0  0  0  0  0  0  0  0  0  0  0  0
    1.0964   17.5558  -27.6216 H   0  0  0  0  0  0  0  0  0  0  0  0
   -2.4569   19.5318  -29.4919 H   0  0  0  0  0  0  0  0  0  0  0  0
   -3.4146   21.2085  -31.0656 H   0  0  0  0  0  0  0  0  0  0  0  0
  1  2  1  0
  2  3  2  0
  3  4  1  0
  4  5  2  0
  5  6  1  0
  6  7  2  0
  6  8  2  0
  6  9  1  0
  9 10  1  0
 10 11  1  0
 11 12  1  0
 12 13  1  0
 13 14  1  0
  5 15  1  0
 15 16  2  0
 16 17  1  0
 17 18  1  0
 18 19  2  0
 18 20  1  0
 20 21  2  0
 21 22  1  0
 22 23  2  0
 23 24  1  0
 24 25  2  0
 24 26  2  0
 24 27  1  0
 27 28  1  0
 28 29  1  0
 29 30  1  0
 30 31  1  0
 23 32  1  0
 32 33  2  0
 16  2  1  0
 33 20  1  0
 14  9  1  0
 31 27  1  0
  1 34  1  0
  1 35  1  0
  1 36  1  0
  3 37  1  0
  4 38  1  0
  9 39  1  0
 10 40  1  0
 10 41  1  0
 11 42  1  0
 11 43  1  0
 13 44  1  0
 13 45  1  0
 14 46  1  0
 14 47  1  0
 15 48  1  0
 21 49  1  0
 22 50  1  0
 28 51  1  0
 28 52  1  0
 29 53  1  0
 29 54  1  0
 30 55  1  0
 30 56  1  0
 31 57  1  0
 31 58  1  0
 32 59  1  0
 33 60  1  0
M  CHG  2   9   1  17  -1
M  END
>  <UniqueID>  (7) 
6

>  <SMILES>  (7) 
Cc1ccc(S(=O)(=O)[NH+]2CCOCC2)cc1[N-]C(=O)c1ccc(S(=O)(=O)N2CCCC2)cc1

>  <Energy>  (7) 
78.62766077603959

>  <Genealogy>  (7) 
Cc1ccc(S(=O)(=O)[NH+]2CCOCC2)cc1[N-]C(=O)c1ccc(S(=O)(=O)N2CCCC2)cc1 (protonated)
Cc1ccc(S(=O)(=O)[NH+]2CCOCC2)cc1[N-]C(=O)c1ccc(S(=O)(=O)N2CCCC2)cc1 (3D coordinates assigned)
Cc1ccc(S(=O)(=O)[NH+]2CCOCC2)cc1[N-]C(=O)c1ccc(S(=O)(=O)N2CCCC2)cc1 (nonaromatic ring conformer: 78.62766077603959 kcal/mol)

>  <smiles>  (7) 
Cc1ccc(S(=O)(=O)N2CCOCC2)cc1NC(=O)c1ccc(S(=O)(=O)N2CCCC2)cc1

>  <score_type>  (7) 
oracle

>  <origin>  (7) 
adgpu

>  <m_score__min__energy>  (7) 
-12.220000000000001

>  <m_primary>  (7) 
energy

$$$$
7:0
     RDKit          3D

 43 46  0  0  0  0  0  0  0  0999 V2000
   -8.4010   18.3030  -31.9110 C   0  0  0  0  0  0  0  0  0  0  0  0
   -8.8000   19.6620  -32.0600 O   0  0  0  0  0  0  0  0  0  0  0  0
   -7.9220   20.7540  -32.0130 C   0  0  0  0  0  0  0  0  0  0  0  0
   -8.4270   21.9980  -31.6130 C   0  0  0  0  0  0  0  0  0  0  0  0
   -7.5910   23.1160  -31.5480 C   0  0  0  0  0  0  0  0  0  0  0  0
   -6.2330   23.0050  -31.8640 C   0  0  0  0  0  0  0  0  0  0  0  0
   -5.4100   24.1780  -31.8110 N   0  0  0  0  0  0  0  0  0  0  0  0
   -4.7440   24.6860  -30.6490 C   0  0  0  0  0  0  0  0  0  0  0  0
   -4.5880   25.9310  -30.5350 O   0  0  0  0  0  0  0  0  0  0  0  0
   -4.3550   23.8080  -29.5820 N   0  0  0  0  0  0  0  0  0  0  0  0
   -3.3970   24.1530  -28.5670 C   0  0  0  0  0  0  0  0  0  0  0  0
   -3.8040   24.5240  -27.2690 C   0  0  0  0  0  0  0  0  0  0  0  0
   -2.8580   24.8790  -26.3030 C   0  0  0  0  0  0  0  0  0  0  0  0
   -1.4990   24.8820  -26.6250 C   0  0  0  0  0  0  0  0  0  0  0  0
   -0.5660   25.2240  -25.6970 N   0  0  0  0  0  0  0  0  0  0  0  0
    0.7590   25.2360  -26.0050 C   0  0  0  0  0  0  0  0  0  0  0  0
    1.1720   24.8970  -27.2980 C   0  0  0  0  0  0  0  0  0  0  0  0
    0.2420   24.5450  -28.2280 N   0  0  0  0  0  0  0  0  0  0  0  0
   -1.0830   24.5330  -27.9250 C   0  0  0  0  0  0  0  0  0  0  0  0
   -2.0300   24.1770  -28.8910 C   0  0  0  0  0  0  0  0  0  0  0  0
    2.6310   24.8590  -27.6300 C   0  0  0  0  0  0  0  0  0  0  0  0
    3.4930   26.3960  -27.1180 S   0  0  0  0  0  0  0  0  0  0  0  0
    2.6470   26.7630  -25.5210 C   0  0  0  0  0  0  0  0  0  0  0  0
    1.7770   25.6260  -24.9810 C   0  0  0  0  0  0  0  0  0  0  0  0
   -5.7250   21.7640  -32.2900 C   0  0  0  0  0  0  0  0  0  0  0  0
   -6.5610   20.6460  -32.3560 C   0  0  0  0  0  0  0  0  0  0  0  0
   -8.3288   18.0572  -30.8412 H   0  0  0  0  0  0  0  0  0  0  0  0
   -9.1448   17.6480  -32.3883 H   0  0  0  0  0  0  0  0  0  0  0  0
   -7.4212   18.1541  -32.3883 H   0  0  0  0  0  0  0  0  0  0  0  0
   -9.4901   22.0956  -31.3479 H   0  0  0  0  0  0  0  0  0  0  0  0
   -8.0038   24.0899  -31.2463 H   0  0  0  0  0  0  0  0  0  0  0  0
   -4.8630   22.8990  -29.4920 H   0  0  0  0  0  0  0  0  0  0  0  0
   -4.8741   24.5342  -27.0146 H   0  0  0  0  0  0  0  0  0  0  0  0
   -3.1839   25.1559  -25.2895 H   0  0  0  0  0  0  0  0  0  0  0  0
   -1.7033   23.9149  -29.9081 H   0  0  0  0  0  0  0  0  0  0  0  0
    3.0909   24.0045  -27.1120 H   0  0  0  0  0  0  0  0  0  0  0  0
    2.7286   24.7622  -28.7214 H   0  0  0  0  0  0  0  0  0  0  0  0
    3.4175   26.9910  -24.7698 H   0  0  0  0  0  0  0  0  0  0  0  0
    1.9688   27.6068  -25.7160 H   0  0  0  0  0  0  0  0  0  0  0  0
    2.4125   24.7586  -24.7492 H   0  0  0  0  0  0  0  0  0  0  0  0
    1.2633   25.9638  -24.0689 H   0  0  0  0  0  0  0  0  0  0  0  0
   -4.6657   21.6734  -32.5722 H   0  0  0  0  0  0  0  0  0  0  0  0
   -6.1533   19.6763  -32.6777 H   0  0  0  0  0  0  0  0  0  0  0  0
  1  2  1  0
  2  3  1  0
  3  4  2  0
  4  5  1  0
  5  6  2  0
  6  7  1  0
  7  8  1  0
  8  9  2  0
  8 10  1  0
 10 11  1  0
 11 12  2  0
 12 13  1  0
 13 14  2  0
 14 15  1  0
 15 16  2  0
 16 17  1  0
 17 18  2  0
 18 19  1  0
 19 20  2  0
 17 21  1  0
 21 22  1  0
 22 23  1  0
 23 24  1  0
  6 25  1  0
 25 26  2  0
 26  3  1  0
 20 11  1  0
 19 14  1  0
 24 16  1  0
  1 27  1  0
  1 28  1  0
  1 29  1  0
  4 30  1  0
  5 31  1  0
 10 32  1  0
 12 33  1  0
 13 34  1  0
 20 35  1  0
 21 36  1  0
 21 37  1  0
 23 38  1  0
 23 39  1  0
 24 40  1  0
 24 41  1  0
 25 42  1  0
 26 43  1  0
M  CHG  1   7  -1
M  END
>  <UniqueID>  (8) 
7

>  <SMILES>  (8) 
COc1ccc([N-]C(=O)Nc2ccc3nc4c(nc3c2)CSCC4)cc1

>  <Energy>  (8) 
59.16191533890156

>  <Genealogy>  (8) 
COc1ccc([N-]C(=O)Nc2ccc3nc4c(nc3c2)CSCC4)cc1 (protonated)
COc1ccc([N-]C(=O)Nc2ccc3nc4c(nc3c2)CSCC4)cc1 (3D coordinates assigned)
COc1ccc([N-]C(=O)Nc2ccc3nc4c(nc3c2)CSCC4)cc1 (nonaromatic ring conformer: 59.16191533890156 kcal/mol)

>  <smiles>  (8) 
COc1ccc(NC(=O)Nc2ccc3nc4c(nc3c2)CSCC4)cc1

>  <score_type>  (8) 
oracle

>  <origin>  (8) 
adgpu

>  <m_score__min__energy>  (8) 
-10.529999999999999

>  <m_primary>  (8) 
energy

$$$$
8:0
     RDKit          3D

 51 55  0  0  0  0  0  0  0  0999 V2000
   -8.9650   18.6010  -31.6060 C   0  0  0  0  0  0  0  0  0  0  0  0
   -7.6250   18.5970  -32.2830 C   0  0  0  0  0  0  0  0  0  0  0  0
   -7.2560   17.5260  -33.1100 C   0  0  0  0  0  0  0  0  0  0  0  0
   -6.0250   17.5400  -33.7690 C   0  0  0  0  0  0  0  0  0  0  0  0
   -5.1590   18.6250  -33.6160 C   0  0  0  0  0  0  0  0  0  0  0  0
   -5.5170   19.7110  -32.8000 C   0  0  0  0  0  0  0  0  0  0  0  0
   -4.6340   20.8400  -32.6610 N   0  0  0  0  0  0  0  0  0  0  0  0
   -3.1770   20.6270  -32.6380 C   0  0  0  0  0  0  0  0  0  0  0  0
   -2.4330   21.9020  -32.2250 C   0  0  0  0  0  0  0  0  0  0  0  0
   -3.1300   22.5390  -31.1000 N   0  0  0  0  0  0  0  0  0  0  0  0
   -2.4230   22.9280  -29.9080 C   0  0  0  0  0  0  0  0  0  0  0  0
   -1.5560   22.1290  -29.1810 C   0  0  0  0  0  0  0  0  0  0  0  0
   -1.0730   22.9330  -28.1660 C   0  0  0  0  0  0  0  0  0  0  0  0
   -0.1340   22.5160  -27.2250 O   0  0  0  0  0  0  0  0  0  0  0  0
   -1.5970   24.1790  -28.2390 N   0  0  0  0  0  0  0  0  0  0  0  0
   -1.3450   25.2880  -27.3610 C   0  0  0  0  0  0  0  0  0  0  0  0
   -1.8420   25.2760  -26.0330 C   0  0  0  0  0  0  0  0  0  0  0  0
   -1.6120   26.3650  -25.1730 C   0  0  0  0  0  0  0  0  0  0  0  0
   -0.8900   27.4450  -25.6720 C   0  0  0  0  0  0  0  0  0  0  0  0
   -0.4180   27.4670  -26.9430 C   0  0  0  0  0  0  0  0  0  0  0  0
   -0.6240   26.4100  -27.8260 C   0  0  0  0  0  0  0  0  0  0  0  0
    0.2540   28.6540  -27.1640 O   0  0  0  0  0  0  0  0  0  0  0  0
    0.1990   29.4250  -25.9560 C   0  0  0  0  0  0  0  0  0  0  0  0
   -0.5400   28.6170  -25.0290 O   0  0  0  0  0  0  0  0  0  0  0  0
   -2.4100   24.1790  -29.3140 C   0  0  0  0  0  0  0  0  0  0  0  0
   -3.1070   25.2980  -29.7600 O   0  0  0  0  0  0  0  0  0  0  0  0
   -4.5710   22.8170  -31.2020 C   0  0  0  0  0  0  0  0  0  0  0  0
   -5.1740   22.1940  -32.4670 C   0  0  0  0  0  0  0  0  0  0  0  0
   -6.7610   19.6940  -32.1450 C   0  0  0  0  0  0  0  0  0  0  0  0
   -8.8246   18.6006  -30.5150 H   0  0  0  0  0  0  0  0  0  0  0  0
   -9.5234   19.5008  -31.9035 H   0  0  0  0  0  0  0  0  0  0  0  0
   -9.5288   17.7045  -31.9035 H   0  0  0  0  0  0  0  0  0  0  0  0
   -7.9381   16.6728  -33.2398 H   0  0  0  0  0  0  0  0  0  0  0  0
   -5.7366   16.6942  -34.4104 H   0  0  0  0  0  0  0  0  0  0  0  0
   -4.1906   18.6292  -34.1377 H   0  0  0  0  0  0  0  0  0  0  0  0
   -2.9433   19.8274  -31.9197 H   0  0  0  0  0  0  0  0  0  0  0  0
   -2.8513   20.3483  -33.6510 H   0  0  0  0  0  0  0  0  0  0  0  0
   -1.4074   21.6449  -31.9215 H   0  0  0  0  0  0  0  0  0  0  0  0
   -2.4026   22.5981  -33.0762 H   0  0  0  0  0  0  0  0  0  0  0  0
   -1.3046   21.0752  -29.3716 H   0  0  0  0  0  0  0  0  0  0  0  0
    0.7600   22.1260  -27.4950 H   0  0  0  0  0  0  0  0  0  0  0  0
   -2.4124   24.4074  -25.6722 H   0  0  0  0  0  0  0  0  0  0  0  0
   -1.9903   26.3631  -24.1401 H   0  0  0  0  0  0  0  0  0  0  0  0
   -0.2368   26.4478  -28.8549 H   0  0  0  0  0  0  0  0  0  0  0  0
    1.2127   29.6195  -25.5757 H   0  0  0  0  0  0  0  0  0  0  0  0
   -0.2731   30.4058  -26.1147 H   0  0  0  0  0  0  0  0  0  0  0  0
   -5.0792   22.3992  -30.3204 H   0  0  0  0  0  0  0  0  0  0  0  0
   -4.7100   23.9070  -31.2534 H   0  0  0  0  0  0  0  0  0  0  0  0
   -6.2676   22.1395  -32.3617 H   0  0  0  0  0  0  0  0  0  0  0  0
   -4.9162   22.8161  -33.3368 H   0  0  0  0  0  0  0  0  0  0  0  0
   -7.0595   20.5479  -31.5191 H   0  0  0  0  0  0  0  0  0  0  0  0
  1  2  1  0
  2  3  2  0
  3  4  1  0
  4  5  2  0
  5  6  1  0
  6  7  1  0
  7  8  1  0
  8  9  1  0
  9 10  1  0
 10 11  1  0
 11 12  1  0
 12 13  2  0
 13 14  1  0
 13 15  1  0
 15 16  1  0
 16 17  2  0
 17 18  1  0
 18 19  2  0
 19 20  1  0
 20 21  2  0
 20 22  1  0
 22 23  1  0
 23 24  1  0
 15 25  1  0
 25 26  1  0
 10 27  1  0
 27 28  1  0
  6 29  2  0
 29  2  1  0
 28  7  1  0
 25 11  2  0
 21 16  1  0
 24 19  1  0
  1 30  1  0
  1 31  1  0
  1 32  1  0
  3 33  1  0
  4 34  1  0
  5 35  1  0
  8 36  1  0
  8 37  1  0
  9 38  1  0
  9 39  1  0
 12 40  1  0
 14 41  1  0
 17 42  1  0
 18 43  1  0
 21 44  1  0
 23 45  1  0
 23 46  1  0
 27 47  1  0
 27 48  1  0
 28 49  1  0
 28 50  1  0
 29 51  1  0
M  CHG  1  26  -1
M  END
>  <UniqueID>  (9) 
8

>  <SMILES>  (9) 
Cc1cccc(N2CCN(c3cc(O)n(-c4ccc5c(c4)OCO5)c3[O-])CC2)c1

>  <Energy>  (9) 
125.67527778029468

>  <Genealogy>  (9) 
Cc1cccc(N2CCN(c3cc(O)n(-c4ccc5c(c4)OCO5)c3[O-])CC2)c1 (protonated)
Cc1cccc(N2CCN(c3cc(O)n(-c4ccc5c(c4)OCO5)c3[O-])CC2)c1 (3D coordinates assigned)
Cc1cccc(N2CCN(c3cc(O)n(-c4ccc5c(c4)OCO5)c3[O-])CC2)c1 (nonaromatic ring conformer: 125.67527778029468 kcal/mol)

>  <smiles>  (9) 
Cc1cccc(N2CCN(c3cc(O)n(-c4ccc5c(c4)OCO5)c3O)CC2)c1

>  <score_type>  (9) 
oracle

>  <origin>  (9) 
adgpu

>  <m_score__min__energy>  (9) 
-10.91

>  <m_primary>  (9) 
energy

$$$$
9:0
     RDKit          3D

 39 40  0  0  0  0  0  0  0  0999 V2000
   -3.3760   24.0450  -28.0810 C   0  0  0  0  0  0  0  0  0  0  0  0
   -2.5900   24.5280  -29.2890 C   0  0  0  0  0  0  0  0  0  0  0  0
   -3.4850   25.0940  -30.2430 O   0  0  0  0  0  0  0  0  0  0  0  0
   -4.7080   24.5210  -30.6200 C   0  0  0  0  0  0  0  0  0  0  0  0
   -5.8850   25.0870  -30.1250 C   0  0  0  0  0  0  0  0  0  0  0  0
   -7.1290   24.5470  -30.4580 C   0  0  0  0  0  0  0  0  0  0  0  0
   -7.2180   23.4270  -31.3070 C   0  0  0  0  0  0  0  0  0  0  0  0
   -8.4490   22.8210  -31.6190 O   0  0  0  0  0  0  0  0  0  0  0  0
   -8.9290   21.5830  -31.0940 C   0  0  0  0  0  0  0  0  0  0  0  0
   -9.0120   20.5270  -32.1920 C   0  0  0  0  0  0  0  0  0  0  0  0
   -6.0350   22.8720  -31.8360 C   0  0  0  0  0  0  0  0  0  0  0  0
   -6.0740   21.7330  -32.7120 N   0  0  0  0  0  0  0  0  0  0  0  0
   -5.3550   20.5180  -32.4450 C   0  0  0  0  0  0  0  0  0  0  0  0
   -4.8340   20.3260  -31.3130 O   0  0  0  0  0  0  0  0  0  0  0  0
   -5.2370   19.4690  -33.4690 C   0  0  0  0  0  0  0  0  0  0  0  0
   -4.2580   18.5000  -33.5630 C   0  0  0  0  0  0  0  0  0  0  0  0
   -4.6290   17.7800  -34.6790 C   0  0  0  0  0  0  0  0  0  0  0  0
   -3.8730   16.6410  -35.2770 C   0  0  0  0  0  0  0  0  0  0  0  0
   -5.7460   18.3080  -35.2150 N   0  0  0  0  0  0  0  0  0  0  0  0
   -6.0850   19.3120  -34.4600 O   0  0  0  0  0  0  0  0  0  0  0  0
   -4.7900   23.4050  -31.4720 C   0  0  0  0  0  0  0  0  0  0  0  0
   -2.8634   24.3600  -27.1601 H   0  0  0  0  0  0  0  0  0  0  0  0
   -4.3870   24.4779  -28.1043 H   0  0  0  0  0  0  0  0  0  0  0  0
   -3.4465   22.9475  -28.1043 H   0  0  0  0  0  0  0  0  0  0  0  0
   -1.8621   25.2895  -28.9723 H   0  0  0  0  0  0  0  0  0  0  0  0
   -2.0583   23.6792  -29.7437 H   0  0  0  0  0  0  0  0  0  0  0  0
   -5.8315   25.9665  -29.4665 H   0  0  0  0  0  0  0  0  0  0  0  0
   -8.0464   25.0000  -30.0541 H   0  0  0  0  0  0  0  0  0  0  0  0
   -8.2428   21.2338  -30.3084 H   0  0  0  0  0  0  0  0  0  0  0  0
   -9.9354   21.7415  -30.6792 H   0  0  0  0  0  0  0  0  0  0  0  0
   -9.0904   19.5291  -31.7358 H   0  0  0  0  0  0  0  0  0  0  0  0
   -9.8981   20.7156  -32.8159 H   0  0  0  0  0  0  0  0  0  0  0  0
   -8.1073   20.5749  -32.8159 H   0  0  0  0  0  0  0  0  0  0  0  0
   -6.7830   21.7340  -33.4790 H   0  0  0  0  0  0  0  0  0  0  0  0
   -3.3905   18.3406  -32.9056 H   0  0  0  0  0  0  0  0  0  0  0  0
   -3.4574   16.0148  -34.4738 H   0  0  0  0  0  0  0  0  0  0  0  0
   -4.5505   16.0376  -35.8990 H   0  0  0  0  0  0  0  0  0  0  0  0
   -3.0538   17.0309  -35.8990 H   0  0  0  0  0  0  0  0  0  0  0  0
   -3.8678   22.9454  -31.8569 H   0  0  0  0  0  0  0  0  0  0  0  0
  1  2  1  0
  2  3  1  0
  3  4  1  0
  4  5  2  0
  5  6  1  0
  6  7  2  0
  7  8  1  0
  8  9  1  0
  9 10  1  0
  7 11  1  0
 11 12  1  0
 12 13  1  0
 13 14  2  0
 13 15  1  0
 15 16  2  0
 16 17  1  0
 17 18  1  0
 17 19  2  0
 19 20  1  0
 11 21  2  0
 21  4  1  0
 20 15  1  0
  1 22  1  0
  1 23  1  0
  1 24  1  0
  2 25  1  0
  2 26  1  0
  5 27  1  0
  6 28  1  0
  9 29  1  0
  9 30  1  0
 10 31  1  0
 10 32  1  0
 10 33  1  0
 12 34  1  0
 16 35  1  0
 18 36  1  0
 18 37  1  0
 18 38  1  0
 21 39  1  0
M  END
>  <UniqueID>  (10) 
9

>  <SMILES>  (10) 
CCOc1ccc(OCC)c(NC(=O)c2cc(C)no2)c1

>  <Energy>  (10) 
66.091078806356

>  <Genealogy>  (10) 
CCOc1ccc(OCC)c(NC(=O)c2cc(C)no2)c1 (3D coordinates assigned)
CCOc1ccc(OCC)c(NC(=O)c2cc(C)no2)c1 (optimized conformer: 66.091078806356 kcal/mol)

>  <smiles>  (10) 
CCOc1ccc(OCC)c(NC(=O)c2cc(C)no2)c1

>  <score_type>  (10) 
oracle

>  <origin>  (10) 
adgpu

>  <m_score__min__energy>  (10) 
-7.1699999999999999

>  <m_primary>  (10) 
energy

$$$$
10:0
     RDKit          3D

 40 42  0  0  0  0  0  0  0  0999 V2000
   -4.0240   24.5740  -28.0680 O   0  0  0  0  0  0  0  0  0  0  0  0
   -3.0070   24.4960  -29.1750 S   0  0  0  0  0  0  0  0  0  0  0  0
   -1.9780   25.5680  -28.9540 O   0  0  0  0  0  0  0  0  0  0  0  0
   -3.7610   24.7400  -30.7260 N   0  0  0  0  0  0  0  0  0  0  0  0
   -5.2250   24.6830  -30.6510 C   0  0  0  0  0  0  0  0  0  0  0  0
   -5.7710   23.2820  -30.9730 C   0  0  1  0  0  0  0  0  0  0  0  0
   -7.1670   23.4190  -32.1470 S   0  0  0  0  0  0  0  0  0  0  0  0
   -7.5270   21.6590  -32.1490 C   0  0  0  0  0  0  0  0  0  0  0  0
   -6.9050   20.8170  -33.0800 C   0  0  0  0  0  0  0  0  0  0  0  0
   -7.2070   19.4510  -33.1000 C   0  0  0  0  0  0  0  0  0  0  0  0
   -8.1230   18.9240  -32.1850 C   0  0  0  0  0  0  0  0  0  0  0  0
   -8.7390   19.7600  -31.2490 C   0  0  0  0  0  0  0  0  0  0  0  0
   -8.4400   21.1260  -31.2290 C   0  0  0  0  0  0  0  0  0  0  0  0
   -4.7080   22.3810  -31.5390 C   0  0  0  0  0  0  0  0  0  0  0  0
   -4.2780   21.1810  -31.0040 C   0  0  0  0  0  0  0  0  0  0  0  0
   -3.2850   20.7340  -31.8490 C   0  0  0  0  0  0  0  0  0  0  0  0
   -3.1670   21.6880  -32.8400 C   0  0  0  0  0  0  0  0  0  0  0  0
   -4.0270   22.6560  -32.6250 O   0  0  0  0  0  0  0  0  0  0  0  0
   -2.2000   22.9300  -29.1570 C   0  0  0  0  0  0  0  0  0  0  0  0
   -1.1400   22.6550  -30.0330 C   0  0  0  0  0  0  0  0  0  0  0  0
   -0.4830   21.4220  -29.9740 C   0  0  0  0  0  0  0  0  0  0  0  0
   -0.8850   20.4570  -29.0460 C   0  0  0  0  0  0  0  0  0  0  0  0
   -1.9460   20.7230  -28.1770 C   0  0  0  0  0  0  0  0  0  0  0  0
   -2.6030   21.9570  -28.2300 C   0  0  0  0  0  0  0  0  0  0  0  0
   -5.5383   24.9596  -29.6335 H   0  0  0  0  0  0  0  0  0  0  0  0
   -5.6281   25.3817  -31.3989 H   0  0  0  0  0  0  0  0  0  0  0  0
   -6.1186   22.8316  -30.0316 H   0  0  0  0  0  0  0  0  0  0  0  0
   -6.1788   21.2300  -33.7956 H   0  0  0  0  0  0  0  0  0  0  0  0
   -6.7235   18.7916  -33.8359 H   0  0  0  0  0  0  0  0  0  0  0  0
   -8.3595   17.8498  -32.2015 H   0  0  0  0  0  0  0  0  0  0  0  0
   -9.4585   19.3436  -30.5286 H   0  0  0  0  0  0  0  0  0  0  0  0
   -8.9221   21.7830  -30.4901 H   0  0  0  0  0  0  0  0  0  0  0  0
   -4.6503   20.6866  -30.0946 H   0  0  0  0  0  0  0  0  0  0  0  0
   -2.7040   19.8049  -31.7531 H   0  0  0  0  0  0  0  0  0  0  0  0
   -2.4600   21.6436  -33.6815 H   0  0  0  0  0  0  0  0  0  0  0  0
   -0.8248   23.4105  -30.7678 H   0  0  0  0  0  0  0  0  0  0  0  0
    0.3515   21.2111  -30.6589 H   0  0  0  0  0  0  0  0  0  0  0  0
   -0.3660   19.4883  -29.0000 H   0  0  0  0  0  0  0  0  0  0  0  0
   -2.2652   19.9614  -27.4503 H   0  0  0  0  0  0  0  0  0  0  0  0
   -3.4371   22.1648  -27.5436 H   0  0  0  0  0  0  0  0  0  0  0  0
  1  2  2  0
  2  3  2  0
  2  4  1  0
  4  5  1  0
  5  6  1  0
  6  7  1  0
  7  8  1  0
  8  9  2  0
  9 10  1  0
 10 11  2  0
 11 12  1  0
 12 13  2  0
  6 14  1  0
 14 15  2  0
 15 16  1  0
 16 17  2  0
 17 18  1  0
  2 19  1  0
 19 20  2  0
 20 21  1  0
 21 22  2  0
 22 23  1  0
 23 24  2  0
 13  8  1  0
 18 14  1  0
 24 19  1  0
  5 25  1  0
  5 26  1  0
  6 27  1  1
  9 28  1  0
 10 29  1  0
 11 30  1  0
 12 31  1  0
 13 32  1  0
 15 33  1  0
 16 34  1  0
 17 35  1  0
 20 36  1  0
 21 37  1  0
 22 38  1  0
 23 39  1  0
 24 40  1  0
M  CHG  1   4  -1
M  END
>  <UniqueID>  (11) 
10

>  <SMILES>  (11) 
O=S(=O)([N-]C[C@@H](Sc1ccccc1)c1ccco1)c1ccccc1

>  <Energy>  (11) 
59.051741764224545

>  <Genealogy>  (11) 
O=S(=O)([N-]CC(Sc1ccccc1)c1ccco1)c1ccccc1 (protonated)
O=S(=O)([N-]C[C@@H](Sc1ccccc1)c1ccco1)c1ccccc1 (chirality)
O=S(=O)([N-]C[C@@H](Sc1ccccc1)c1ccco1)c1ccccc1 (3D coordinates assigned)
O=S(=O)([N-]C[C@@H](Sc1ccccc1)c1ccco1)c1ccccc1 (optimized conformer: 59.051741764224545 kcal/mol)

>  <smiles>  (11) 
O=S(=O)(NCC(Sc1ccccc1)c1ccco1)c1ccccc1

>  <score_type>  (11) 
oracle

>  <origin>  (11) 
adgpu

>  <m_score__min__energy>  (11) 
-9.4700000000000006

>  <m_primary>  (11) 
energy

$$$$
11:0
     RDKit          3D

 54 57  0  0  0  0  0  0  0  0999 V2000
   -3.9300   25.5430  -30.7570 O   0  0  0  0  0  0  0  0  0  0  0  0
   -3.9700   24.3090  -30.4980 C   0  0  0  0  0  0  0  0  0  0  0  0
   -4.7840   23.4410  -31.2970 N   0  0  0  0  0  0  0  0  0  0  0  0
   -4.3400   22.3050  -32.0540 C   0  0  0  0  0  0  0  0  0  0  0  0
   -2.9720   22.0560  -32.2770 C   0  0  0  0  0  0  0  0  0  0  0  0
   -2.5650   20.9220  -32.9970 C   0  0  0  0  0  0  0  0  0  0  0  0
   -0.8540   20.6520  -33.3130 S   0  0  0  0  0  0  0  0  0  0  0  0
   -0.2480   21.8910  -33.9170 O   0  0  0  0  0  0  0  0  0  0  0  0
   -0.7230   19.5160  -34.2900 O   0  0  0  0  0  0  0  0  0  0  0  0
   -0.0130   20.2450  -31.8370 N   0  0  0  0  0  0  0  0  0  0  0  0
   -0.1220   18.7960  -31.5690 C   0  0  0  0  0  0  0  0  0  0  0  0
    0.3630   18.4670  -30.1370 C   0  0  0  0  0  0  0  0  0  0  0  0
    1.0610   19.5650  -29.5720 O   0  0  0  0  0  0  0  0  0  0  0  0
    0.1860   20.6730  -29.4100 C   0  0  0  0  0  0  0  0  0  0  0  0
   -0.5830   21.0070  -30.7080 C   0  0  0  0  0  0  0  0  0  0  0  0
   -3.5240   20.0090  -33.4590 C   0  0  0  0  0  0  0  0  0  0  0  0
   -4.8770   20.2270  -33.2080 C   0  0  0  0  0  0  0  0  0  0  0  0
   -5.2930   21.3710  -32.5060 C   0  0  0  0  0  0  0  0  0  0  0  0
   -6.6930   21.5810  -32.2620 N   0  0  0  0  0  0  0  0  0  0  0  0
   -7.2480   22.9210  -32.4740 C   0  0  0  0  0  0  0  0  0  0  0  0
   -8.5920   23.0570  -31.7370 C   0  0  0  0  0  0  0  0  0  0  0  0
   -9.4530   21.9760  -32.0490 O   0  0  0  0  0  0  0  0  0  0  0  0
   -8.8840   20.7650  -31.5680 C   0  0  0  0  0  0  0  0  0  0  0  0
   -7.6110   20.4360  -32.3530 C   0  0  0  0  0  0  0  0  0  0  0  0
   -3.1530   23.7600  -29.3700 C   0  0  0  0  0  0  0  0  0  0  0  0
   -3.5110   22.5280  -28.7850 C   0  0  0  0  0  0  0  0  0  0  0  0
   -2.8200   22.0140  -27.6860 C   0  0  0  0  0  0  0  0  0  0  0  0
   -1.7090   22.6920  -27.1910 C   0  0  0  0  0  0  0  0  0  0  0  0
   -1.3210   23.9110  -27.7560 C   0  0  0  0  0  0  0  0  0  0  0  0
   -2.0390   24.4540  -28.8280 C   0  0  0  0  0  0  0  0  0  0  0  0
   -1.6230   25.6750  -29.3500 O   0  0  0  0  0  0  0  0  0  0  0  0
   -2.2180   22.7543  -31.8846 H   0  0  0  0  0  0  0  0  0  0  0  0
   -1.1725   18.4873  -31.6744 H   0  0  0  0  0  0  0  0  0  0  0  0
    0.5088   18.2545  -32.2893 H   0  0  0  0  0  0  0  0  0  0  0  0
   -0.5078   18.2319  -29.5074 H   0  0  0  0  0  0  0  0  0  0  0  0
    1.0458   17.6060  -30.1873 H   0  0  0  0  0  0  0  0  0  0  0  0
   -0.5409   20.4371  -28.6188 H   0  0  0  0  0  0  0  0  0  0  0  0
    0.7970   21.5487  -29.1458 H   0  0  0  0  0  0  0  0  0  0  0  0
   -1.6425   20.7386  -30.5841 H   0  0  0  0  0  0  0  0  0  0  0  0
   -0.4953   22.0837  -30.9153 H   0  0  0  0  0  0  0  0  0  0  0  0
   -3.2071   19.1182  -34.0212 H   0  0  0  0  0  0  0  0  0  0  0  0
   -5.6232   19.5000  -33.5611 H   0  0  0  0  0  0  0  0  0  0  0  0
   -6.5433   23.6723  -32.0881 H   0  0  0  0  0  0  0  0  0  0  0  0
   -7.4092   23.0788  -33.5506 H   0  0  0  0  0  0  0  0  0  0  0  0
   -8.4081   23.0692  -30.6525 H   0  0  0  0  0  0  0  0  0  0  0  0
   -9.0740   23.9928  -32.0563 H   0  0  0  0  0  0  0  0  0  0  0  0
   -8.6359   20.8773  -30.5022 H   0  0  0  0  0  0  0  0  0  0  0  0
   -9.6096   19.9486  -31.6983 H   0  0  0  0  0  0  0  0  0  0  0  0
   -7.1325   19.5428  -31.9250 H   0  0  0  0  0  0  0  0  0  0  0  0
   -7.8602   20.2377  -33.4059 H   0  0  0  0  0  0  0  0  0  0  0  0
   -4.3539   21.9589  -29.2040 H   0  0  0  0  0  0  0  0  0  0  0  0
   -3.1517   21.0777  -27.2134 H   0  0  0  0  0  0  0  0  0  0  0  0
   -1.1353   22.2678  -26.3538 H   0  0  0  0  0  0  0  0  0  0  0  0
   -0.4470   24.4459  -27.3559 H   0  0  0  0  0  0  0  0  0  0  0  0
  1  2  2  0
  2  3  1  0
  3  4  1  0
  4  5  2  0
  5  6  1  0
  6  7  1  0
  7  8  2  0
  7  9  2  0
  7 10  1  0
 10 11  1  0
 11 12  1  0
 12 13  1  0
 13 14  1  0
 14 15  1  0
  6 16  2  0
 16 17  1  0
 17 18  2  0
 18 19  1  0
 19 20  1  0
 20 21  1  0
 21 22  1  0
 22 23  1  0
 23 24  1  0
  2 25  1  0
 25 26  2  0
 26 27  1  0
 27 28  2  0
 28 29  1  0
 29 30  2  0
 30 31  1  0
 18  4  1  0
 24 19  1  0
 30 25  1  0
 15 10  1  0
  5 32  1  0
 11 33  1  0
 11 34  1  0
 12 35  1  0
 12 36  1  0
 14 37  1  0
 14 38  1  0
 15 39  1  0
 15 40  1  0
 16 41  1  0
 17 42  1  0
 20 43  1  0
 20 44  1  0
 21 45  1  0
 21 46  1  0
 23 47  1  0
 23 48  1  0
 24 49  1  0
 24 50  1  0
 26 51  1  0
 27 52  1  0
 28 53  1  0
 29 54  1  0
M  CHG  2   3  -1  31  -1
M  END
>  <UniqueID>  (12) 
11

>  <SMILES>  (12) 
O=C([N-]c1cc(S(=O)(=O)N2CCOCC2)ccc1N1CCOCC1)c1ccccc1[O-]

>  <Energy>  (12) 
76.78767479287076

>  <Genealogy>  (12) 
O=C([N-]c1cc(S(=O)(=O)N2CCOCC2)ccc1N1CCOCC1)c1ccccc1[O-] (protonated)
O=C([N-]c1cc(S(=O)(=O)N2CCOCC2)ccc1N1CCOCC1)c1ccccc1[O-] (3D coordinates assigned)
O=C([N-]c1cc(S(=O)(=O)N2CCOCC2)ccc1N1CCOCC1)c1ccccc1[O-] (nonaromatic ring conformer: 76.78767479287076 kcal/mol)

>  <smiles>  (12) 
O=C(Nc1cc(S(=O)(=O)N2CCOCC2)ccc1N1CCOCC1)c1ccccc1O

>  <score_type>  (12) 
oracle

>  <origin>  (12) 
adgpu

>  <m_score__min__energy>  (12) 
-13.35

>  <m_primary>  (12) 
energy

$$$$
12:0
     RDKit          3D

 40 42  0  0  0  0  0  0  0  0999 V2000
   -5.3770   25.6640  -30.5480 N   0  0  0  0  0  0  0  0  0  0  0  0
   -4.9130   24.2810  -30.5750 C   0  0  0  0  0  0  0  0  0  0  0  0
   -3.4760   24.2070  -30.1300 C   0  0  0  0  0  0  0  0  0  0  0  0
   -2.9710   25.2400  -29.4050 N   0  0  0  0  0  0  0  0  0  0  0  0
   -1.7170   25.2250  -28.9550 N   0  0  0  0  0  0  0  0  0  0  0  0
   -0.9010   24.1730  -29.2010 C   0  0  0  0  0  0  0  0  0  0  0  0
    0.2810   24.1800  -28.7670 O   0  0  0  0  0  0  0  0  0  0  0  0
   -1.3930   23.0920  -29.9360 C   0  0  0  0  0  0  0  0  0  0  0  0
   -0.6450   22.1020  -30.1720 O   0  0  0  0  0  0  0  0  0  0  0  0
   -2.6830   23.1170  -30.3950 N   0  0  0  0  0  0  0  0  0  0  0  0
   -3.1890   21.9980  -31.1450 C   0  0  0  0  0  0  0  0  0  0  0  0
   -2.9520   21.9090  -32.5230 C   0  0  0  0  0  0  0  0  0  0  0  0
   -3.4500   20.8250  -33.2530 C   0  0  0  0  0  0  0  0  0  0  0  0
   -4.1860   19.8210  -32.6070 C   0  0  0  0  0  0  0  0  0  0  0  0
   -4.8330   18.4570  -33.5160 S   0  0  0  0  0  0  0  0  0  0  0  0
   -4.6590   17.2120  -32.6920 O   0  0  0  0  0  0  0  0  0  0  0  0
   -4.0810   18.3010  -34.8090 O   0  0  0  0  0  0  0  0  0  0  0  0
   -6.5320   18.7190  -33.8430 N   0  0  0  0  0  0  0  0  0  0  0  0
   -7.3590   17.8220  -33.0290 C   0  0  0  0  0  0  0  0  0  0  0  0
   -7.7580   18.5640  -31.7610 C   0  0  0  0  0  0  0  0  0  0  0  0
   -7.4650   20.0260  -32.0330 C   0  0  0  0  0  0  0  0  0  0  0  0
   -6.9270   20.0770  -33.4560 C   0  0  0  0  0  0  0  0  0  0  0  0
   -4.4100   19.9040  -31.2260 C   0  0  0  0  0  0  0  0  0  0  0  0
   -3.9120   20.9880  -30.4980 C   0  0  0  0  0  0  0  0  0  0  0  0
   -4.9830   26.1490  -31.3860 H   0  0  0  0  0  0  0  0  0  0  0  0
   -4.9650   26.1310  -29.7090 H   0  0  0  0  0  0  0  0  0  0  0  0
   -5.5346   23.6757  -29.8989 H   0  0  0  0  0  0  0  0  0  0  0  0
   -4.9915   23.8955  -31.6022 H   0  0  0  0  0  0  0  0  0  0  0  0
   -2.3729   22.6936  -33.0319 H   0  0  0  0  0  0  0  0  0  0  0  0
   -3.2642   20.7598  -34.3352 H   0  0  0  0  0  0  0  0  0  0  0  0
   -8.2596   17.5335  -33.5908 H   0  0  0  0  0  0  0  0  0  0  0  0
   -6.7963   16.9114  -32.7756 H   0  0  0  0  0  0  0  0  0  0  0  0
   -8.8284   18.4195  -31.5526 H   0  0  0  0  0  0  0  0  0  0  0  0
   -7.2062   18.1953  -30.8837 H   0  0  0  0  0  0  0  0  0  0  0  0
   -8.3842   20.6242  -31.9482 H   0  0  0  0  0  0  0  0  0  0  0  0
   -6.7454   20.4385  -31.3105 H   0  0  0  0  0  0  0  0  0  0  0  0
   -7.7081   20.4463  -34.1368 H   0  0  0  0  0  0  0  0  0  0  0  0
   -6.0632   20.7557  -33.5126 H   0  0  0  0  0  0  0  0  0  0  0  0
   -4.9791   19.1141  -30.7139 H   0  0  0  0  0  0  0  0  0  0  0  0
   -4.0884   21.0481  -29.4139 H   0  0  0  0  0  0  0  0  0  0  0  0
  1  2  1  0
  2  3  1  0
  3  4  2  0
  4  5  1  0
  5  6  1  0
  6  7  2  0
  6  8  1  0
  8  9  2  0
  8 10  1  0
 10 11  1  0
 11 12  2  0
 12 13  1  0
 13 14  2  0
 14 15  1  0
 15 16  2  0
 15 17  2  0
 15 18  1  0
 18 19  1  0
 19 20  1  0
 20 21  1  0
 21 22  1  0
 14 23  1  0
 23 24  2  0
 10  3  1  0
 24 11  1  0
 22 18  1  0
  1 25  1  0
  1 26  1  0
  2 27  1  0
  2 28  1  0
 12 29  1  0
 13 30  1  0
 19 31  1  0
 19 32  1  0
 20 33  1  0
 20 34  1  0
 21 35  1  0
 21 36  1  0
 22 37  1  0
 22 38  1  0
 23 39  1  0
 24 40  1  0
M  CHG  1   5  -1
M  END
>  <UniqueID>  (13) 
12

>  <SMILES>  (13) 
NCc1n[n-]c(=O)c(=O)n1-c1ccc(S(=O)(=O)N2CCCC2)cc1

>  <Energy>  (13) 
52.641310206738666

>  <Genealogy>  (13) 
NCc1n[n-]c(=O)c(=O)n1-c1ccc(S(=O)(=O)N2CCCC2)cc1 (protonated)
NCc1n[n-]c(=O)c(=O)n1-c1ccc(S(=O)(=O)N2CCCC2)cc1 (3D coordinates assigned)
NCc1n[n-]c(=O)c(=O)n1-c1ccc(S(=O)(=O)N2CCCC2)cc1 (nonaromatic ring conformer: 52.641310206738666 kcal/mol)

>  <smiles>  (13) 
NCc1n[nH]c(=O)c(=O)n1-c1ccc(S(=O)(=O)N2CCCC2)cc1

>  <score_type>  (13) 
oracle

>  <origin>  (13) 
adgpu

>  <m_score__min__energy>  (13) 
-9.6099999999999994

>  <m_primary>  (13) 
energy

$$$$
13:0
     RDKit          3D

 39 41  0  0  0  0  0  0  0  0999 V2000
   -4.2880   16.4870  -33.2340 C   0  0  0  0  0  0  0  0  0  0  0  0
   -5.1650   17.6140  -33.6840 C   0  0  0  0  0  0  0  0  0  0  0  0
   -5.4620   17.8640  -34.9720 N   0  0  0  0  0  0  0  0  0  0  0  0
   -6.2500   18.8950  -35.0130 O   0  0  0  0  0  0  0  0  0  0  0  0
   -6.4900   19.3490  -33.8050 C   0  0  0  0  0  0  0  0  0  0  0  0
   -7.2770   20.3710  -33.6120 N   0  0  0  0  0  0  0  0  0  0  0  0
   -7.7610   21.1490  -32.1370 S   0  0  0  0  0  0  0  0  0  0  0  0
   -9.0550   21.8820  -32.3550 O   0  0  0  0  0  0  0  0  0  0  0  0
   -7.9860   20.0900  -31.0970 O   0  0  0  0  0  0  0  0  0  0  0  0
   -6.5010   22.2240  -31.5450 C   0  0  0  0  0  0  0  0  0  0  0  0
   -5.1670   22.0070  -31.9130 C   0  0  0  0  0  0  0  0  0  0  0  0
   -4.1720   22.8950  -31.4980 C   0  0  0  0  0  0  0  0  0  0  0  0
   -4.5040   24.0120  -30.7130 C   0  0  0  0  0  0  0  0  0  0  0  0
   -3.5050   24.9530  -30.2950 N   0  0  0  0  0  0  0  0  0  0  0  0
   -2.4900   24.7040  -29.3140 C   0  0  0  0  0  0  0  0  0  0  0  0
   -1.7370   25.6500  -28.9650 O   0  0  0  0  0  0  0  0  0  0  0  0
   -2.2670   23.3560  -28.7590 C   0  0  0  0  0  0  0  0  0  0  0  0
   -3.1100   22.6890  -27.8900 C   0  0  0  0  0  0  0  0  0  0  0  0
   -2.5020   21.4790  -27.6370 C   0  0  0  0  0  0  0  0  0  0  0  0
   -1.3260   21.4820  -28.3590 C   0  0  0  0  0  0  0  0  0  0  0  0
   -1.2140   22.6140  -29.0140 O   0  0  0  0  0  0  0  0  0  0  0  0
   -5.8270   24.1910  -30.2950 C   0  0  0  0  0  0  0  0  0  0  0  0
   -6.8250   23.3060  -30.7160 C   0  0  0  0  0  0  0  0  0  0  0  0
   -5.7890   18.5580  -32.8810 C   0  0  0  0  0  0  0  0  0  0  0  0
   -5.7470   18.5760  -31.3810 C   0  0  0  0  0  0  0  0  0  0  0  0
   -4.2647   16.4570  -32.1347 H   0  0  0  0  0  0  0  0  0  0  0  0
   -4.6863   15.5364  -33.6184 H   0  0  0  0  0  0  0  0  0  0  0  0
   -3.2687   16.6396  -33.6184 H   0  0  0  0  0  0  0  0  0  0  0  0
   -5.1350   17.3300  -35.8070 H   0  0  0  0  0  0  0  0  0  0  0  0
   -4.9025   21.1356  -32.5300 H   0  0  0  0  0  0  0  0  0  0  0  0
   -3.1252   22.7193  -31.7866 H   0  0  0  0  0  0  0  0  0  0  0  0
   -4.0671   23.0494  -27.4848 H   0  0  0  0  0  0  0  0  0  0  0  0
   -2.8781   20.6729  -26.9899 H   0  0  0  0  0  0  0  0  0  0  0  0
   -0.5942   20.6611  -28.3821 H   0  0  0  0  0  0  0  0  0  0  0  0
   -6.0834   25.0310  -29.6327 H   0  0  0  0  0  0  0  0  0  0  0  0
   -7.8660   23.4598  -30.3957 H   0  0  0  0  0  0  0  0  0  0  0  0
   -6.6895   18.1721  -30.9829 H   0  0  0  0  0  0  0  0  0  0  0  0
   -4.9065   17.9590  -31.0303 H   0  0  0  0  0  0  0  0  0  0  0  0
   -5.6141   19.6101  -31.0303 H   0  0  0  0  0  0  0  0  0  0  0  0
  1  2  1  0
  2  3  1  0
  3  4  1  0
  4  5  1  0
  5  6  2  3
  6  7  1  0
  7  8  2  0
  7  9  2  0
  7 10  1  0
 10 11  2  0
 11 12  1  0
 12 13  2  0
 13 14  1  0
 14 15  1  0
 15 16  2  0
 15 17  1  0
 17 18  2  0
 18 19  1  0
 19 20  2  0
 20 21  1  0
 13 22  1  0
 22 23  2  0
  5 24  1  0
 24 25  1  0
 24  2  2  0
 23 10  1  0
 21 17  1  0
  1 26  1  0
  1 27  1  0
  1 28  1  0
  3 29  1  0
 11 30  1  0
 12 31  1  0
 18 32  1  0
 19 33  1  0
 20 34  1  0
 22 35  1  0
 23 36  1  0
 25 37  1  0
 25 38  1  0
 25 39  1  0
M  CHG  1  14  -1
M  END
>  <UniqueID>  (14) 
13

>  <SMILES>  (14) 
Cc1[nH]oc(=NS(=O)(=O)c2ccc([N-]C(=O)c3ccco3)cc2)c1C

>  <Energy>  (14) 
110.35290698985565

>  <Genealogy>  (14) 
Cc1[nH]oc(=NS(=O)(=O)c2ccc([N-]C(=O)c3ccco3)cc2)c1C (protonated)
Cc1[nH]oc(=NS(=O)(=O)c2ccc([N-]C(=O)c3ccco3)cc2)c1C (3D coordinates assigned)
Cc1[nH]oc(=NS(=O)(=O)c2ccc([N-]C(=O)c3ccco3)cc2)c1C (optimized conformer: 110.35290698985565 kcal/mol)

>  <smiles>  (14) 
Cc1[nH]oc(=NS(=O)(=O)c2ccc(NC(=O)c3ccco3)cc2)c1C

>  <score_type>  (14) 
oracle

>  <origin>  (14) 
adgpu

>  <m_score__min__energy>  (14) 
-9.9299999999999997

>  <m_primary>  (14) 
energy

$$$$
14:0
     RDKit          3D

 42 44  0  0  0  0  0  0  0  0999 V2000
   -1.8350   17.2810  -33.5320 C   0  0  0  0  0  0  0  0  0  0  0  0
   -2.4450   18.4060  -34.1530 O   0  0  0  0  0  0  0  0  0  0  0  0
   -2.8890   19.5510  -33.4710 C   0  0  0  0  0  0  0  0  0  0  0  0
   -1.9900   20.5050  -32.9600 C   0  0  0  0  0  0  0  0  0  0  0  0
   -2.4610   21.6400  -32.2960 C   0  0  0  0  0  0  0  0  0  0  0  0
   -3.8380   21.8480  -32.1290 C   0  0  0  0  0  0  0  0  0  0  0  0
   -4.3120   23.0630  -31.4270 C   0  0  0  0  0  0  0  0  0  0  0  0
   -5.5700   23.2940  -30.8970 C   0  0  0  0  0  0  0  0  0  0  0  0
   -5.4660   24.5600  -30.3600 C   0  0  0  0  0  0  0  0  0  0  0  0
   -6.5700   25.3300  -29.7170 C   0  0  0  0  0  0  0  0  0  0  0  0
   -4.2320   25.0500  -30.5790 N   0  0  0  0  0  0  0  0  0  0  0  0
   -3.5690   24.1260  -31.2120 O   0  0  0  0  0  0  0  0  0  0  0  0
   -4.7380   20.8950  -32.6370 C   0  0  0  0  0  0  0  0  0  0  0  0
   -4.2720   19.7490  -33.2980 C   0  0  0  0  0  0  0  0  0  0  0  0
   -5.4280   18.5760  -33.9360 S   0  0  0  0  0  0  0  0  0  0  0  0
   -6.4600   19.2940  -34.7630 O   0  0  0  0  0  0  0  0  0  0  0  0
   -4.7140   17.5840  -34.8120 O   0  0  0  0  0  0  0  0  0  0  0  0
   -6.1850   17.7500  -32.6020 N   0  0  0  0  0  0  0  0  0  0  0  0
   -7.6470   17.8040  -32.7150 C   0  0  0  0  0  0  0  0  0  0  0  0
   -8.1600   19.1430  -32.2710 C   0  0  0  0  0  0  0  0  0  0  0  0
   -9.4000   19.6260  -32.7180 C   0  0  0  0  0  0  0  0  0  0  0  0
   -9.8480   20.8730  -32.2780 C   0  0  0  0  0  0  0  0  0  0  0  0
   -9.0600   21.6260  -31.4050 C   0  0  0  0  0  0  0  0  0  0  0  0
   -7.8300   21.1170  -30.9830 C   0  0  0  0  0  0  0  0  0  0  0  0
   -7.4100   19.9000  -31.4210 N   0  0  0  0  0  0  0  0  0  0  0  0
   -1.8936   17.3890  -32.4389 H   0  0  0  0  0  0  0  0  0  0  0  0
   -2.3594   16.3639  -33.8384 H   0  0  0  0  0  0  0  0  0  0  0  0
   -0.7803   17.2201  -33.8384 H   0  0  0  0  0  0  0  0  0  0  0  0
   -0.9073   20.3558  -33.0844 H   0  0  0  0  0  0  0  0  0  0  0  0
   -1.7461   22.3768  -31.9008 H   0  0  0  0  0  0  0  0  0  0  0  0
   -6.4444   22.6266  -30.9028 H   0  0  0  0  0  0  0  0  0  0  0  0
   -6.4747   25.2635  -28.6232 H   0  0  0  0  0  0  0  0  0  0  0  0
   -6.5109   26.3838  -30.0268 H   0  0  0  0  0  0  0  0  0  0  0  0
   -7.5385   24.9105  -30.0268 H   0  0  0  0  0  0  0  0  0  0  0  0
   -5.8202   21.0498  -32.5147 H   0  0  0  0  0  0  0  0  0  0  0  0
   -5.9160   18.2720  -31.7370 H   0  0  0  0  0  0  0  0  0  0  0  0
   -7.9355   17.6353  -33.7630 H   0  0  0  0  0  0  0  0  0  0  0  0
   -8.0823   17.0253  -32.0715 H   0  0  0  0  0  0  0  0  0  0  0  0
  -10.0128   19.0277  -33.4083 H   0  0  0  0  0  0  0  0  0  0  0  0
  -10.8193   21.2614  -32.6182 H   0  0  0  0  0  0  0  0  0  0  0  0
   -9.4045   22.6097  -31.0535 H   0  0  0  0  0  0  0  0  0  0  0  0
   -7.2003   21.7010  -30.2957 H   0  0  0  0  0  0  0  0  0  0  0  0
  1  2  1  0
  2  3  1  0
  3  4  2  0
  4  5  1  0
  5  6  2  0
  6  7  1  0
  7  8  2  0
  8  9  1  0
  9 10  1  0
  9 11  2  0
 11 12  1  0
  6 13  1  0
 13 14  2  0
 14 15  1  0
 15 16  2  0
 15 17  2  0
 15 18  1  0
 18 19  1  0
 19 20  1  0
 20 21  2  0
 21 22  1  0
 22 23  2  0
 23 24  1  0
 24 25  2  0
 14  3  1  0
 25 20  1  0
 12  7  1  0
  1 26  1  0
  1 27  1  0
  1 28  1  0
  4 29  1  0
  5 30  1  0
  8 31  1  0
 10 32  1  0
 10 33  1  0
 10 34  1  0
 13 35  1  0
 18 36  1  0
 19 37  1  0
 19 38  1  0
 21 39  1  0
 22 40  1  0
 23 41  1  0
 24 42  1  0
M  END
>  <UniqueID>  (15) 
14

>  <SMILES>  (15) 
COc1ccc(-c2cc(C)no2)cc1S(=O)(=O)NCc1ccccn1

>  <Energy>  (15) 
72.94850727836037

>  <Genealogy>  (15) 
COc1ccc(-c2cc(C)no2)cc1S(=O)(=O)NCc1ccccn1 (3D coordinates assigned)
COc1ccc(-c2cc(C)no2)cc1S(=O)(=O)NCc1ccccn1 (optimized conformer: 72.94850727836037 kcal/mol)

>  <smiles>  (15) 
COc1ccc(-c2cc(C)no2)cc1S(=O)(=O)NCc1ccccn1

>  <score_type>  (15) 
oracle

>  <origin>  (15) 
adgpu

>  <m_score__min__energy>  (15) 
-8.9700000000000006

>  <m_primary>  (15) 
energy

$$$$
15:0
     RDKit          3D

 35 37  0  0  0  0  0  0  0  0999 V2000
   -3.2190   13.9170  -32.3880 C   0  0  0  0  0  0  0  0  0  0  0  0
   -3.3360   15.0960  -33.1770 O   0  0  0  0  0  0  0  0  0  0  0  0
   -4.4930   15.8850  -33.2590 C   0  0  0  0  0  0  0  0  0  0  0  0
   -4.5150   17.2330  -32.8460 C   0  0  0  0  0  0  0  0  0  0  0  0
   -5.6950   17.9960  -32.9420 C   0  0  0  0  0  0  0  0  0  0  0  0
   -5.7140   19.3740  -32.5200 N   0  0  0  0  0  0  0  0  0  0  0  0
   -6.7470   20.2360  -32.6430 C   0  0  0  0  0  0  0  0  0  0  0  0
   -6.3940   21.4620  -32.1200 C   0  0  0  0  0  0  0  0  0  0  0  0
   -7.2760   22.5910  -31.9920 C   0  0  0  0  0  0  0  0  0  0  0  0
   -7.9860   23.5000  -31.8890 N   0  0  0  0  0  0  0  0  0  0  0  0
   -5.0900   21.3500  -31.6570 C   0  0  0  0  0  0  0  0  0  0  0  0
   -4.2610   22.3820  -30.9930 C   0  0  0  0  0  0  0  0  0  0  0  0
   -3.0960   22.0310  -30.2870 C   0  0  0  0  0  0  0  0  0  0  0  0
   -2.3260   23.0140  -29.6580 C   0  0  0  0  0  0  0  0  0  0  0  0
   -2.7110   24.3560  -29.7200 C   0  0  0  0  0  0  0  0  0  0  0  0
   -1.9390   25.3270  -29.0930 O   0  0  0  0  0  0  0  0  0  0  0  0
   -3.8730   24.7170  -30.4110 C   0  0  0  0  0  0  0  0  0  0  0  0
   -4.2620   26.0490  -30.4760 O   0  0  0  0  0  0  0  0  0  0  0  0
   -4.6470   23.7340  -31.0400 C   0  0  0  0  0  0  0  0  0  0  0  0
   -4.7060   20.0440  -31.9170 C   0  0  0  0  0  0  0  0  0  0  0  0
   -6.8560   17.3910  -33.4540 C   0  0  0  0  0  0  0  0  0  0  0  0
   -6.8370   16.0570  -33.8650 C   0  0  0  0  0  0  0  0  0  0  0  0
   -5.6630   15.3070  -33.7690 C   0  0  0  0  0  0  0  0  0  0  0  0
   -5.6600   13.9800  -34.1820 O   0  0  0  0  0  0  0  0  0  0  0  0
   -3.2456   14.1853  -31.3216 H   0  0  0  0  0  0  0  0  0  0  0  0
   -4.0542   13.2386  -32.6164 H   0  0  0  0  0  0  0  0  0  0  0  0
   -2.2667   13.4160  -32.6164 H   0  0  0  0  0  0  0  0  0  0  0  0
   -3.6005   17.6938  -32.4444 H   0  0  0  0  0  0  0  0  0  0  0  0
   -7.7220   19.9961  -33.0923 H   0  0  0  0  0  0  0  0  0  0  0  0
   -2.7888   20.9763  -30.2294 H   0  0  0  0  0  0  0  0  0  0  0  0
   -1.4140   22.7301  -29.1124 H   0  0  0  0  0  0  0  0  0  0  0  0
   -5.5641   24.0213  -31.5751 H   0  0  0  0  0  0  0  0  0  0  0  0
   -3.7240   19.6148  -31.6689 H   0  0  0  0  0  0  0  0  0  0  0  0
   -7.7862   17.9730  -33.5314 H   0  0  0  0  0  0  0  0  0  0  0  0
   -7.7509   15.5946  -34.2663 H   0  0  0  0  0  0  0  0  0  0  0  0
  1  2  1  0
  2  3  1  0
  3  4  2  0
  4  5  1  0
  5  6  1  0
  6  7  1  0
  7  8  2  0
  8  9  1  0
  9 10  3  0
  8 11  1  0
 11 12  1  0
 12 13  2  0
 13 14  1  0
 14 15  2  0
 15 16  1  0
 15 17  1  0
 17 18  1  0
 17 19  2  0
 11 20  2  0
  5 21  2  0
 21 22  1  0
 22 23  2  0
 23 24  1  0
 23  3  1  0
 20  6  1  0
 19 12  1  0
  1 25  1  0
  1 26  1  0
  1 27  1  0
  4 28  1  0
  7 29  1  0
 13 30  1  0
 14 31  1  0
 19 32  1  0
 20 33  1  0
 21 34  1  0
 22 35  1  0
M  CHG  3  16  -1  18  -1  24  -1
M  END
>  <UniqueID>  (16) 
15

>  <SMILES>  (16) 
COc1cc(-n2cc(C#N)c(-c3ccc([O-])c([O-])c3)c2)ccc1[O-]

>  <Energy>  (16) 
71.59507856251362

>  <Genealogy>  (16) 
COc1cc(-n2cc(C#N)c(-c3ccc([O-])c([O-])c3)c2)ccc1[O-] (protonated)
COc1cc(-n2cc(C#N)c(-c3ccc([O-])c([O-])c3)c2)ccc1[O-] (3D coordinates assigned)
COc1cc(-n2cc(C#N)c(-c3ccc([O-])c([O-])c3)c2)ccc1[O-] (optimized conformer: 71.59507856251362 kcal/mol)

>  <smiles>  (16) 
COc1cc(-n2cc(C#N)c(-c3ccc(O)c(O)c3)c2)ccc1O

>  <score_type>  (16) 
oracle

>  <origin>  (16) 
adgpu

>  <m_score__min__energy>  (16) 
-12.15

>  <m_primary>  (16) 
energy

$$$$
16:0
     RDKit          3D

 46 48  0  0  0  0  0  0  0  0999 V2000
   -4.1250   16.2560  -33.9350 C   0  0  0  0  0  0  0  0  0  0  0  0
   -3.7160   17.6470  -33.5510 C   0  0  0  0  0  0  0  0  0  0  0  0
   -2.3720   17.9380  -33.2800 C   0  0  0  0  0  0  0  0  0  0  0  0
   -1.9910   19.2350  -32.9320 C   0  0  0  0  0  0  0  0  0  0  0  0
   -2.9410   20.2590  -32.8590 C   0  0  0  0  0  0  0  0  0  0  0  0
   -2.4050   21.9130  -32.3920 S   0  0  0  0  0  0  0  0  0  0  0  0
   -2.7640   21.6910  -30.6390 C   0  0  0  0  0  0  0  0  0  0  0  0
   -2.0990   20.6520  -29.9700 C   0  0  0  0  0  0  0  0  0  0  0  0
   -2.3060   20.4320  -28.6080 C   0  0  0  0  0  0  0  0  0  0  0  0
   -3.1900   21.2410  -27.8990 C   0  0  0  0  0  0  0  0  0  0  0  0
   -3.8840   22.2600  -28.5540 C   0  0  0  0  0  0  0  0  0  0  0  0
   -3.6990   22.4890  -29.9280 C   0  0  0  0  0  0  0  0  0  0  0  0
   -4.6630   23.7740  -30.6750 S   0  0  0  0  0  0  0  0  0  0  0  0
   -3.8600   25.2900  -30.4720 N   0  0  0  0  0  0  0  0  0  0  0  0
   -6.0040   23.8370  -29.9980 O   0  0  0  0  0  0  0  0  0  0  0  0
   -4.8930   23.5190  -32.1370 O   0  0  0  0  0  0  0  0  0  0  0  0
   -4.2790   19.9990  -33.2140 C   0  0  0  0  0  0  0  0  0  0  0  0
   -5.2380   21.0690  -33.1780 N   0  0  0  0  0  0  0  0  0  0  0  0
   -6.4560   21.0160  -32.7200 C   0  0  0  0  0  0  0  0  0  0  0  0
   -6.9940   19.8430  -32.2880 N   0  0  0  0  0  0  0  0  0  0  0  0
   -8.2710   19.7720  -31.8340 C   0  0  0  0  0  0  0  0  0  0  0  0
   -8.8250   18.4630  -31.3690 C   0  0  0  0  0  0  0  0  0  0  0  0
   -9.0600   20.9240  -31.8130 C   0  0  0  0  0  0  0  0  0  0  0  0
   -8.5010   22.1270  -32.2530 C   0  0  0  0  0  0  0  0  0  0  0  0
   -9.3330   23.3750  -32.2860 C   0  0  0  0  0  0  0  0  0  0  0  0
   -7.2180   22.1460  -32.7160 N   0  0  0  0  0  0  0  0  0  0  0  0
   -4.6630   18.6810  -33.5280 C   0  0  0  0  0  0  0  0  0  0  0  0
   -4.2999   15.6612  -33.0264 H   0  0  0  0  0  0  0  0  0  0  0  0
   -5.0492   16.2967  -34.5301 H   0  0  0  0  0  0  0  0  0  0  0  0
   -3.3259   15.7900  -34.5301 H   0  0  0  0  0  0  0  0  0  0  0  0
   -1.6153   17.1420  -33.3417 H   0  0  0  0  0  0  0  0  0  0  0  0
   -0.9353   19.4535  -32.7134 H   0  0  0  0  0  0  0  0  0  0  0  0
   -1.4063   20.0033  -30.5261 H   0  0  0  0  0  0  0  0  0  0  0  0
   -1.7710   19.6196  -28.0944 H   0  0  0  0  0  0  0  0  0  0  0  0
   -3.3417   21.0771  -26.8219 H   0  0  0  0  0  0  0  0  0  0  0  0
   -4.5843   22.8914  -27.9875 H   0  0  0  0  0  0  0  0  0  0  0  0
   -3.1460   25.3620  -31.2300 H   0  0  0  0  0  0  0  0  0  0  0  0
   -8.8351   18.4390  -30.2693 H   0  0  0  0  0  0  0  0  0  0  0  0
   -9.8508   18.3436  -31.7478 H   0  0  0  0  0  0  0  0  0  0  0  0
   -8.1965   17.6435  -31.7478 H   0  0  0  0  0  0  0  0  0  0  0  0
  -10.1002   20.8854  -31.4574 H   0  0  0  0  0  0  0  0  0  0  0  0
   -9.5490   23.6990  -31.2572 H   0  0  0  0  0  0  0  0  0  0  0  0
   -8.7827   24.1687  -32.8125 H   0  0  0  0  0  0  0  0  0  0  0  0
  -10.2773   23.1723  -32.8125 H   0  0  0  0  0  0  0  0  0  0  0  0
   -6.8100   23.0410  -33.0700 H   0  0  0  0  0  0  0  0  0  0  0  0
   -5.7160   18.4605  -33.7574 H   0  0  0  0  0  0  0  0  0  0  0  0
  1  2  1  0
  2  3  2  0
  3  4  1  0
  4  5  2  0
  5  6  1  0
  6  7  1  0
  7  8  2  0
  8  9  1  0
  9 10  2  0
 10 11  1  0
 11 12  2  0
 12 13  1  0
 13 14  1  0
 13 15  2  0
 13 16  2  0
  5 17  1  0
 17 18  1  0
 18 19  2  3
 19 20  1  0
 20 21  2  0
 21 22  1  0
 21 23  1  0
 23 24  2  0
 24 25  1  0
 24 26  1  0
 17 27  2  0
 27  2  1  0
 12  7  1  0
 26 19  1  0
  1 28  1  0
  1 29  1  0
  1 30  1  0
  3 31  1  0
  4 32  1  0
  8 33  1  0
  9 34  1  0
 10 35  1  0
 11 36  1  0
 14 37  1  0
 22 38  1  0
 22 39  1  0
 22 40  1  0
 23 41  1  0
 25 42  1  0
 25 43  1  0
 25 44  1  0
 26 45  1  0
 27 46  1  0
M  CHG  1  14  -1
M  END
>  <UniqueID>  (17) 
16

>  <SMILES>  (17) 
Cc1ccc(Sc2ccccc2S([NH-])(=O)=O)c(N=c2nc(C)cc(C)[nH]2)c1

>  <Energy>  (17) 
50.68424665605615

>  <Genealogy>  (17) 
Cc1ccc(Sc2ccccc2S([NH-])(=O)=O)c(N=c2nc(C)cc(C)[nH]2)c1 (protonated)
Cc1ccc(Sc2ccccc2S([NH-])(=O)=O)c(N=c2nc(C)cc(C)[nH]2)c1 (3D coordinates assigned)
Cc1ccc(Sc2ccccc2S([NH-])(=O)=O)c(N=c2nc(C)cc(C)[nH]2)c1 (optimized conformer: 50.68424665605615 kcal/mol)

>  <smiles>  (17) 
Cc1ccc(Sc2ccccc2S(N)(=O)=O)c(N=c2nc(C)cc(C)[nH]2)c1

>  <score_type>  (17) 
oracle

>  <origin>  (17) 
adgpu

>  <m_score__min__energy>  (17) 
-11.66

>  <m_primary>  (17) 
energy

$$$$
17:0
     RDKit          3D

 51 53  0  0  0  0  0  0  0  0999 V2000
   -2.7390   19.7290  -27.1060 C   0  0  0  0  0  0  0  0  0  0  0  0
   -1.9620   20.5990  -27.9230 O   0  0  0  0  0  0  0  0  0  0  0  0
   -2.4770   21.7120  -28.6060 C   0  0  0  0  0  0  0  0  0  0  0  0
   -2.1870   23.0340  -28.2230 C   0  0  0  0  0  0  0  0  0  0  0  0
   -2.7220   24.1090  -28.9370 C   0  0  0  0  0  0  0  0  0  0  0  0
   -3.5530   23.8830  -30.0500 C   0  0  0  0  0  0  0  0  0  0  0  0
   -4.1120   24.9350  -30.7910 O   0  0  0  0  0  0  0  0  0  0  0  0
   -5.3670   25.5430  -30.5070 C   0  0  0  0  0  0  0  0  0  0  0  0
   -3.8380   22.5620  -30.4340 C   0  0  0  0  0  0  0  0  0  0  0  0
   -4.6770   22.3080  -31.5680 N   0  0  0  0  0  0  0  0  0  0  0  0
   -4.0970   22.2960  -32.9150 C   0  0  0  0  0  0  0  0  0  0  0  0
   -3.1930   21.1060  -33.0940 C   0  0  0  0  0  0  0  0  0  0  0  0
   -1.8080   21.2290  -32.8920 C   0  0  0  0  0  0  0  0  0  0  0  0
   -0.9660   20.1330  -33.1000 C   0  0  0  0  0  0  0  0  0  0  0  0
   -1.4990   18.9070  -33.5070 C   0  0  0  0  0  0  0  0  0  0  0  0
   -2.8760   18.7740  -33.7060 C   0  0  0  0  0  0  0  0  0  0  0  0
   -3.7210   19.8690  -33.4990 C   0  0  0  0  0  0  0  0  0  0  0  0
   -6.4020   22.4200  -31.3730 S   0  0  0  0  0  0  0  0  0  0  0  0
   -6.9050   23.4990  -32.2910 O   0  0  0  0  0  0  0  0  0  0  0  0
   -6.7250   22.7970  -29.9540 O   0  0  0  0  0  0  0  0  0  0  0  0
   -7.1790   20.8690  -31.7390 C   0  0  0  0  0  0  0  0  0  0  0  0
   -6.3880   19.7090  -31.7450 C   0  0  0  0  0  0  0  0  0  0  0  0
   -6.9460   18.4660  -32.0460 C   0  0  0  0  0  0  0  0  0  0  0  0
   -8.3050   18.3620  -32.3310 C   0  0  0  0  0  0  0  0  0  0  0  0
   -9.1150   19.4990  -32.3000 C   0  0  0  0  0  0  0  0  0  0  0  0
   -8.5710   20.7570  -31.9850 C   0  0  0  0  0  0  0  0  0  0  0  0
   -9.4870   21.9510  -31.9490 C   0  0  0  0  0  0  0  0  0  0  0  0
   -3.3050   21.4880  -29.7090 C   0  0  0  0  0  0  0  0  0  0  0  0
   -2.5427   19.9488  -26.0462 H   0  0  0  0  0  0  0  0  0  0  0  0
   -3.8071   19.8814  -27.3204 H   0  0  0  0  0  0  0  0  0  0  0  0
   -2.4673   18.6849  -27.3204 H   0  0  0  0  0  0  0  0  0  0  0  0
   -1.5356   23.2224  -27.3568 H   0  0  0  0  0  0  0  0  0  0  0  0
   -2.4921   25.1391  -28.6271 H   0  0  0  0  0  0  0  0  0  0  0  0
   -5.5041   25.6094  -29.4176 H   0  0  0  0  0  0  0  0  0  0  0  0
   -5.3919   26.5531  -30.9419 H   0  0  0  0  0  0  0  0  0  0  0  0
   -6.1751   24.9365  -30.9419 H   0  0  0  0  0  0  0  0  0  0  0  0
   -4.9078   22.2485  -33.6569 H   0  0  0  0  0  0  0  0  0  0  0  0
   -3.5060   23.2133  -33.0539 H   0  0  0  0  0  0  0  0  0  0  0  0
   -1.3848   22.1915  -32.5689 H   0  0  0  0  0  0  0  0  0  0  0  0
    0.1179   20.2356  -32.9431 H   0  0  0  0  0  0  0  0  0  0  0  0
   -0.8343   18.0460  -33.6709 H   0  0  0  0  0  0  0  0  0  0  0  0
   -3.2950   17.8084  -34.0253 H   0  0  0  0  0  0  0  0  0  0  0  0
   -4.8046   19.7610  -33.6541 H   0  0  0  0  0  0  0  0  0  0  0  0
   -5.3159   19.7809  -31.5097 H   0  0  0  0  0  0  0  0  0  0  0  0
   -6.3117   17.5674  -32.0582 H   0  0  0  0  0  0  0  0  0  0  0  0
   -8.7408   17.3834  -32.5808 H   0  0  0  0  0  0  0  0  0  0  0  0
  -10.1883   19.4099  -32.5240 H   0  0  0  0  0  0  0  0  0  0  0  0
   -9.6950   22.2222  -30.9034 H   0  0  0  0  0  0  0  0  0  0  0  0
   -9.0051   22.7984  -32.4586 H   0  0  0  0  0  0  0  0  0  0  0  0
  -10.4303   21.7050  -32.4586 H   0  0  0  0  0  0  0  0  0  0  0  0
   -3.5410   20.4571  -30.0115 H   0  0  0  0  0  0  0  0  0  0  0  0
  1  2  1  0
  2  3  1  0
  3  4  2  0
  4  5  1  0
  5  6  2  0
  6  7  1  0
  7  8  1  0
  6  9  1  0
  9 10  1  0
 10 11  1  0
 11 12  1  0
 12 13  2  0
 13 14  1  0
 14 15  2  0
 15 16  1  0
 16 17  2  0
 10 18  1  0
 18 19  2  0
 18 20  2  0
 18 21  1  0
 21 22  2  0
 22 23  1  0
 23 24  2  0
 24 25  1  0
 25 26  2  0
 26 27  1  0
  9 28  2  0
 28  3  1  0
 17 12  1  0
 26 21  1  0
  1 29  1  0
  1 30  1  0
  1 31  1  0
  4 32  1  0
  5 33  1  0
  8 34  1  0
  8 35  1  0
  8 36  1  0
 11 37  1  0
 11 38  1  0
 13 39  1  0
 14 40  1  0
 15 41  1  0
 16 42  1  0
 17 43  1  0
 22 44  1  0
 23 45  1  0
 24 46  1  0
 25 47  1  0
 27 48  1  0
 27 49  1  0
 27 50  1  0
 28 51  1  0
M  END
>  <UniqueID>  (18) 
17

>  <SMILES>  (18) 
COc1ccc(OC)c(N(Cc2ccccc2)S(=O)(=O)c2ccccc2C)c1

>  <Energy>  (18) 
57.82821766199823

>  <Genealogy>  (18) 
COc1ccc(OC)c(N(Cc2ccccc2)S(=O)(=O)c2ccccc2C)c1 (3D coordinates assigned)
COc1ccc(OC)c(N(Cc2ccccc2)S(=O)(=O)c2ccccc2C)c1 (optimized conformer: 57.82821766199823 kcal/mol)

>  <smiles>  (18) 
COc1ccc(OC)c(N(Cc2ccccc2)S(=O)(=O)c2ccccc2C)c1

>  <score_type>  (18) 
oracle

>  <origin>  (18) 
adgpu

>  <m_score__min__energy>  (18) 
-9.0999999999999996

>  <m_primary>  (18) 
energy

$$$$
18:0
     RDKit          3D

 67 71  0  0  0  0  0  0  0  0999 V2000
   -3.8420   25.2960  -30.4760 O   0  0  0  0  0  0  0  0  0  0  0  0
   -4.0390   24.0620  -30.6440 C   0  0  0  0  0  0  0  0  0  0  0  0
   -4.8530   23.6130  -31.7350 N   0  0  0  0  0  0  0  0  0  0  0  0
   -4.7620   22.2970  -32.2930 C   0  0  0  0  0  0  0  0  0  0  0  0
   -3.5460   21.8890  -32.8570 C   0  0  0  0  0  0  0  0  0  0  0  0
   -3.3920   20.5920  -33.3780 C   0  0  0  0  0  0  0  0  0  0  0  0
   -2.1000   20.1410  -33.9530 C   0  0  0  0  0  0  0  0  0  0  0  0
   -1.8690   18.9040  -34.0650 O   0  0  0  0  0  0  0  0  0  0  0  0
   -1.1170   21.0910  -34.3950 N   0  0  0  0  0  0  0  0  0  0  0  0
    0.2060   20.6630  -34.8470 C   0  0  0  0  0  0  0  0  0  0  0  0
    1.0070   21.8490  -35.2810 C   0  0  0  0  0  0  0  0  0  0  0  0
    2.3260   21.8290  -35.6920 C   0  0  0  0  0  0  0  0  0  0  0  0
    2.6280   23.1330  -36.0270 C   0  0  0  0  0  0  0  0  0  0  0  0
    1.4780   23.8630  -35.8020 C   0  0  0  0  0  0  0  0  0  0  0  0
    0.5280   23.0700  -35.3620 O   0  0  0  0  0  0  0  0  0  0  0  0
   -4.4830   19.7060  -33.3210 C   0  0  0  0  0  0  0  0  0  0  0  0
   -5.7040   20.1150  -32.7810 C   0  0  0  0  0  0  0  0  0  0  0  0
   -5.8600   21.4110  -32.2710 C   0  0  0  0  0  0  0  0  0  0  0  0
   -7.1480   21.8280  -31.7830 N   0  0  0  0  0  0  0  0  0  0  0  0
   -7.5380   23.2400  -31.7810 C   0  0  0  0  0  0  0  0  0  0  0  0
   -8.9590   23.3660  -32.3420 C   0  0  0  0  0  0  0  0  0  0  0  0
   -9.8490   22.5080  -31.6510 O   0  0  0  0  0  0  0  0  0  0  0  0
   -9.4910   21.1560  -31.8710 C   0  0  0  0  0  0  0  0  0  0  0  0
   -8.1140   20.8540  -31.2720 C   0  0  0  0  0  0  0  0  0  0  0  0
   -3.4540   23.0830  -29.7020 C   0  0  0  0  0  0  0  0  0  0  0  0
   -2.2090   22.4900  -29.9720 C   0  0  0  0  0  0  0  0  0  0  0  0
   -1.6500   21.5770  -29.0730 C   0  0  0  0  0  0  0  0  0  0  0  0
   -2.3340   21.2300  -27.9010 C   0  0  0  0  0  0  0  0  0  0  0  0
   -1.6420   20.0580  -26.7710 S   0  0  0  0  0  0  0  0  0  0  0  0
   -2.6710   19.0050  -26.4680 O   0  0  0  0  0  0  0  0  0  0  0  0
   -1.3010   20.7580  -25.4870 O   0  0  0  0  0  0  0  0  0  0  0  0
   -0.2080   19.2790  -27.4000 N   0  0  0  0  0  0  0  0  0  0  0  0
    0.8010   20.2460  -27.8330 C   0  0  0  0  0  0  0  0  0  0  0  0
    1.5610   19.6140  -28.9980 C   0  0  0  0  0  0  0  0  0  0  0  0
    0.8000   18.3450  -29.3420 C   0  0  0  0  0  0  0  0  0  0  0  0
   -0.4990   18.4470  -28.5660 C   0  0  0  0  0  0  0  0  0  0  0  0
   -3.5740   21.8240  -27.6240 C   0  0  0  0  0  0  0  0  0  0  0  0
   -4.1290   22.7450  -28.5150 C   0  0  0  0  0  0  0  0  0  0  0  0
   -2.7010   22.5923  -32.8927 H   0  0  0  0  0  0  0  0  0  0  0  0
   -1.4150   22.0720  -34.5930 H   0  0  0  0  0  0  0  0  0  0  0  0
    0.7260   20.1545  -34.0217 H   0  0  0  0  0  0  0  0  0  0  0  0
    0.0917   19.9741  -35.6969 H   0  0  0  0  0  0  0  0  0  0  0  0
    2.9947   20.9570  -35.7417 H   0  0  0  0  0  0  0  0  0  0  0  0
    3.5907   23.5140  -36.3984 H   0  0  0  0  0  0  0  0  0  0  0  0
    1.3732   24.9456  -35.9664 H   0  0  0  0  0  0  0  0  0  0  0  0
   -4.3733   18.6812  -33.7055 H   0  0  0  0  0  0  0  0  0  0  0  0
   -6.5510   19.4137  -32.7557 H   0  0  0  0  0  0  0  0  0  0  0  0
   -7.5119   23.6284  -30.7522 H   0  0  0  0  0  0  0  0  0  0  0  0
   -6.8400   23.8192  -32.4033 H   0  0  0  0  0  0  0  0  0  0  0  0
   -9.3003   24.4057  -32.2302 H   0  0  0  0  0  0  0  0  0  0  0  0
   -8.9460   23.0801  -33.4041 H   0  0  0  0  0  0  0  0  0  0  0  0
  -10.2404   20.5031  -31.3997 H   0  0  0  0  0  0  0  0  0  0  0  0
   -9.4519   20.9733  -32.9550 H   0  0  0  0  0  0  0  0  0  0  0  0
   -8.1650   20.9256  -30.1755 H   0  0  0  0  0  0  0  0  0  0  0  0
   -7.8012   19.8376  -31.5532 H   0  0  0  0  0  0  0  0  0  0  0  0
   -1.6708   22.7458  -30.8966 H   0  0  0  0  0  0  0  0  0  0  0  0
   -0.6684   21.1290  -29.2870 H   0  0  0  0  0  0  0  0  0  0  0  0
    0.3150   21.1768  -28.1606 H   0  0  0  0  0  0  0  0  0  0  0  0
    1.4854   20.4925  -27.0079 H   0  0  0  0  0  0  0  0  0  0  0  0
    1.5788   20.2967  -29.8603 H   0  0  0  0  0  0  0  0  0  0  0  0
    2.6076   19.4020  -28.7339 H   0  0  0  0  0  0  0  0  0  0  0  0
    0.6022   18.2932  -30.4228 H   0  0  0  0  0  0  0  0  0  0  0  0
    1.3672   17.4388  -29.0831 H   0  0  0  0  0  0  0  0  0  0  0  0
   -1.2781   18.9158  -29.1851 H   0  0  0  0  0  0  0  0  0  0  0  0
   -0.8703   17.4547  -28.2701 H   0  0  0  0  0  0  0  0  0  0  0  0
   -4.1119   21.5632  -26.7006 H   0  0  0  0  0  0  0  0  0  0  0  0
   -5.1000   23.2090  -28.2872 H   0  0  0  0  0  0  0  0  0  0  0  0
  1  2  2  0
  2  3  1  0
  3  4  1  0
  4  5  2  0
  5  6  1  0
  6  7  1  0
  7  8  2  0
  7  9  1  0
  9 10  1  0
 10 11  1  0
 11 12  2  0
 12 13  1  0
 13 14  2  0
 14 15  1  0
  6 16  2  0
 16 17  1  0
 17 18  2  0
 18 19  1  0
 19 20  1  0
 20 21  1  0
 21 22  1  0
 22 23  1  0
 23 24  1  0
  2 25  1  0
 25 26  2  0
 26 27  1  0
 27 28  2  0
 28 29  1  0
 29 30  2  0
 29 31  2  0
 29 32  1  0
 32 33  1  0
 33 34  1  0
 34 35  1  0
 35 36  1  0
 28 37  1  0
 37 38  2  0
 18  4  1  0
 24 19  1  0
 38 25  1  0
 15 11  1  0
 36 32  1  0
  5 39  1  0
  9 40  1  0
 10 41  1  0
 10 42  1  0
 12 43  1  0
 13 44  1  0
 14 45  1  0
 16 46  1  0
 17 47  1  0
 20 48  1  0
 20 49  1  0
 21 50  1  0
 21 51  1  0
 23 52  1  0
 23 53  1  0
 24 54  1  0
 24 55  1  0
 26 56  1  0
 27 57  1  0
 33 58  1  0
 33 59  1  0
 34 60  1  0
 34 61  1  0
 35 62  1  0
 35 63  1  0
 36 64  1  0
 36 65  1  0
 37 66  1  0
 38 67  1  0
M  CHG  1   3  -1
M  END
>  <UniqueID>  (19) 
18

>  <SMILES>  (19) 
O=C([N-]c1cc(C(=O)NCc2ccco2)ccc1N1CCOCC1)c1ccc(S(=O)(=O)N2CCCC2)cc1

>  <Energy>  (19) 
111.10676785144703

>  <Genealogy>  (19) 
O=C([N-]c1cc(C(=O)NCc2ccco2)ccc1N1CCOCC1)c1ccc(S(=O)(=O)N2CCCC2)cc1 (protonated)
O=C([N-]c1cc(C(=O)NCc2ccco2)ccc1N1CCOCC1)c1ccc(S(=O)(=O)N2CCCC2)cc1 (3D coordinates assigned)
O=C([N-]c1cc(C(=O)NCc2ccco2)ccc1N1CCOCC1)c1ccc(S(=O)(=O)N2CCCC2)cc1 (nonaromatic ring conformer: 111.10676785144703 kcal/mol)

>  <smiles>  (19) 
O=C(NCc1ccco1)c1ccc(N2CCOCC2)c(NC(=O)c2ccc(S(=O)(=O)N3CCCC3)cc2)c1

>  <score_type>  (19) 
oracle

>  <origin>  (19) 
adgpu

>  <m_score__min__energy>  (19) 
-12.279999999999999

>  <m_primary>  (19) 
energy

$$$$
19:0
     RDKit          3D

 70 73  0  0  0  0  0  0  0  0999 V2000
    4.1310   20.1010  -35.2710 C   0  0  0  0  0  0  0  0  0  0  0  0
    2.8420   20.8470  -35.4730 C   0  0  0  0  0  0  0  0  0  0  0  0
    1.7080   20.3020  -34.9570 N   0  0  0  0  0  0  0  0  0  0  0  0
    0.4880   20.8950  -35.0560 C   0  0  0  0  0  0  0  0  0  0  0  0
   -0.6960   20.2290  -34.4550 C   0  0  0  0  0  0  0  0  0  0  0  0
   -0.8590   18.8420  -34.5870 C   0  0  0  0  0  0  0  0  0  0  0  0
   -1.9680   18.2010  -34.0350 C   0  0  0  0  0  0  0  0  0  0  0  0
   -2.9450   18.9330  -33.3340 C   0  0  0  0  0  0  0  0  0  0  0  0
   -4.0820   18.3520  -32.7390 O   0  0  0  0  0  0  0  0  0  0  0  0
   -5.4710   18.6040  -32.9860 C   0  0  0  0  0  0  0  0  0  0  0  0
   -6.3900   17.7400  -32.1160 C   0  0  0  0  0  0  0  0  0  0  0  0
   -5.8200   18.5560  -34.4770 C   0  0  0  0  0  0  0  0  0  0  0  0
   -2.7930   20.3230  -33.2050 C   0  0  0  0  0  0  0  0  0  0  0  0
   -3.7820   21.0310  -32.5010 O   0  0  0  0  0  0  0  0  0  0  0  0
   -4.5590   22.1120  -33.0170 C   0  0  0  0  0  0  0  0  0  0  0  0
   -5.4690   22.6750  -31.9480 C   0  0  0  0  0  0  0  0  0  0  0  0
   -6.8530   22.4390  -32.0400 C   0  0  0  0  0  0  0  0  0  0  0  0
   -7.7260   22.9340  -31.0700 C   0  0  0  0  0  0  0  0  0  0  0  0
   -7.2320   23.6630  -29.9900 C   0  0  0  0  0  0  0  0  0  0  0  0
   -5.8610   23.8950  -29.8730 C   0  0  0  0  0  0  0  0  0  0  0  0
   -4.9650   23.4100  -30.8410 C   0  0  0  0  0  0  0  0  0  0  0  0
   -3.5160   23.6640  -30.6490 C   0  0  0  0  0  0  0  0  0  0  0  0
   -2.6750   22.8350  -31.0810 O   0  0  0  0  0  0  0  0  0  0  0  0
   -3.0400   24.8840  -30.0630 N   0  0  0  0  0  0  0  0  0  0  0  0
   -2.5030   25.0360  -28.7410 C   0  0  0  0  0  0  0  0  0  0  0  0
   -3.1810   24.5510  -27.6090 C   0  0  0  0  0  0  0  0  0  0  0  0
   -2.6270   24.7080  -26.3340 C   0  0  0  0  0  0  0  0  0  0  0  0
   -1.3820   25.3390  -26.1720 C   0  0  0  0  0  0  0  0  0  0  0  0
   -0.8000   25.5060  -24.8160 C   0  0  0  0  0  0  0  0  0  0  0  0
   -1.2470   26.5760  -23.9730 N   0  0  0  0  0  0  0  0  0  0  0  0
    0.1200   24.6950  -24.3850 N   0  0  0  0  0  0  0  0  0  0  0  0
   -0.6940   25.7930  -27.3110 C   0  0  0  0  0  0  0  0  0  0  0  0
   -1.2490   25.6340  -28.5840 C   0  0  0  0  0  0  0  0  0  0  0  0
   -1.6810   20.9650  -33.7770 C   0  0  0  0  0  0  0  0  0  0  0  0
    0.3850   22.1350  -35.6990 C   0  0  0  0  0  0  0  0  0  0  0  0
    1.5230   22.7260  -36.2530 C   0  0  0  0  0  0  0  0  0  0  0  0
    1.4070   23.8340  -36.8450 O   0  0  0  0  0  0  0  0  0  0  0  0
    2.7750   22.0840  -36.1610 C   0  0  0  0  0  0  0  0  0  0  0  0
    3.9760   22.7130  -36.7670 C   0  0  0  0  0  0  0  0  0  0  0  0
    4.4750   22.2680  -38.0270 N   0  0  0  0  0  0  0  0  0  0  0  0
    4.5540   23.6680  -36.1820 O   0  0  0  0  0  0  0  0  0  0  0  0
    4.3248   19.9888  -34.1940 H   0  0  0  0  0  0  0  0  0  0  0  0
    4.0559   19.1067  -35.7356 H   0  0  0  0  0  0  0  0  0  0  0  0
    4.9557   20.6614  -35.7356 H   0  0  0  0  0  0  0  0  0  0  0  0
   -0.1050   18.2542  -35.1311 H   0  0  0  0  0  0  0  0  0  0  0  0
   -2.0803   17.1127  -34.1486 H   0  0  0  0  0  0  0  0  0  0  0  0
   -5.6615   19.6410  -32.6725 H   0  0  0  0  0  0  0  0  0  0  0  0
   -6.1809   17.9366  -31.0541 H   0  0  0  0  0  0  0  0  0  0  0  0
   -7.4396   17.9859  -32.3347 H   0  0  0  0  0  0  0  0  0  0  0  0
   -6.2092   16.6772  -32.3347 H   0  0  0  0  0  0  0  0  0  0  0  0
   -6.9034   18.4070  -34.5954 H   0  0  0  0  0  0  0  0  0  0  0  0
   -5.5260   19.5030  -34.9531 H   0  0  0  0  0  0  0  0  0  0  0  0
   -5.2812   17.7235  -34.9531 H   0  0  0  0  0  0  0  0  0  0  0  0
   -3.8839   22.9051  -33.3708 H   0  0  0  0  0  0  0  0  0  0  0  0
   -5.1772   21.7384  -33.8466 H   0  0  0  0  0  0  0  0  0  0  0  0
   -7.2511   21.8583  -32.8852 H   0  0  0  0  0  0  0  0  0  0  0  0
   -8.8066   22.7482  -31.1583 H   0  0  0  0  0  0  0  0  0  0  0  0
   -7.9230   24.0557  -29.2295 H   0  0  0  0  0  0  0  0  0  0  0  0
   -5.4772   24.4640  -29.0134 H   0  0  0  0  0  0  0  0  0  0  0  0
   -4.1511   24.0460  -27.7262 H   0  0  0  0  0  0  0  0  0  0  0  0
   -3.1695   24.3351  -25.4527 H   0  0  0  0  0  0  0  0  0  0  0  0
   -0.8150   26.7340  -23.0360 H   0  0  0  0  0  0  0  0  0  0  0  0
   -2.0470   27.1840  -24.2540 H   0  0  0  0  0  0  0  0  0  0  0  0
    0.5290   24.8110  -23.4320 H   0  0  0  0  0  0  0  0  0  0  0  0
    0.4980   23.9260  -24.9830 H   0  0  0  0  0  0  0  0  0  0  0  0
    0.2877   26.2766  -27.1996 H   0  0  0  0  0  0  0  0  0  0  0  0
   -0.6952   25.9818  -29.4685 H   0  0  0  0  0  0  0  0  0  0  0  0
   -1.5812   22.0572  -33.6924 H   0  0  0  0  0  0  0  0  0  0  0  0
   -0.5889   22.6418  -35.7675 H   0  0  0  0  0  0  0  0  0  0  0  0
    4.3210   21.2870  -38.3510 H   0  0  0  0  0  0  0  0  0  0  0  0
  1  2  1  0
  2  3  1  0
  3  4  1  0
  4  5  1  0
  5  6  2  0
  6  7  1  0
  7  8  2  0
  8  9  1  0
  9 10  1  0
 10 11  1  0
 10 12  1  0
  8 13  1  0
 13 14  1  0
 14 15  1  0
 15 16  1  0
 16 17  2  0
 17 18  1  0
 18 19  2  0
 19 20  1  0
 20 21  2  0
 21 22  1  0
 22 23  2  0
 22 24  1  0
 24 25  1  0
 25 26  2  0
 26 27  1  0
 27 28  2  0
 28 29  1  0
 29 30  1  0
 29 31  2  0
 28 32  1  0
 32 33  2  0
 13 34  2  0
  4 35  2  0
 35 36  1  0
 36 37  2  0
 36 38  1  0
 38 39  1  0
 39 40  1  0
 39 41  2  0
 38  2  2  0
 34  5  1  0
 21 16  1  0
 33 25  1  0
  1 42  1  0
  1 43  1  0
  1 44  1  0
  6 45  1  0
  7 46  1  0
 10 47  1  0
 11 48  1  0
 11 49  1  0
 11 50  1  0
 12 51  1  0
 12 52  1  0
 12 53  1  0
 15 54  1  0
 15 55  1  0
 17 56  1  0
 18 57  1  0
 19 58  1  0
 20 59  1  0
 26 60  1  0
 27 61  1  0
 30 62  1  0
 30 63  1  0
 31 64  1  0
 31 65  1  0
 32 66  1  0
 33 67  1  0
 34 68  1  0
 35 69  1  0
 40 70  1  0
M  CHG  4   3  -1  24  -1  31   1  40  -1
M  END
>  <UniqueID>  (20) 
19

>  <SMILES>  (20) 
Cc1[n-]c(-c2ccc(OC(C)C)c(OCc3ccccc3C(=O)[N-]c3ccc(C(N)=[NH2+])cc3)c2)cc(=O)c1C([NH-])=O

>  <Energy>  (20) 
97.22568530522275

>  <Genealogy>  (20) 
Cc1[n-]c(-c2ccc(OC(C)C)c(OCc3ccccc3C(=O)[N-]c3ccc(C(N)=[NH2+])cc3)c2)cc(=O)c1C([NH-])=O (protonated)
Cc1[n-]c(-c2ccc(OC(C)C)c(OCc3ccccc3C(=O)[N-]c3ccc(C(N)=[NH2+])cc3)c2)cc(=O)c1C([NH-])=O (3D coordinates assigned)
Cc1[n-]c(-c2ccc(OC(C)C)c(OCc3ccccc3C(=O)[N-]c3ccc(C(N)=[NH2+])cc3)c2)cc(=O)c1C([NH-])=O (optimized conformer: 97.22568530522275 kcal/mol)

>  <smiles>  (20) 
Cc1[nH]c(-c2ccc(OC(C)C)c(OCc3ccccc3C(=O)Nc3ccc(C(=N)N)cc3)c2)cc(=O)c1C(N)=O

>  <score_type>  (20) 
oracle

>  <origin>  (20) 
adgpu

>  <m_score__min__energy>  (20) 
-14.49

>  <m_primary>  (20) 
energy

$$$$
20:0
     RDKit          3D

 44 46  0  0  0  0  0  0  0  0999 V2000
   -3.2645   14.4172  -33.3516 H   0  0  0  0  0  0  0  0  0  0  0  0
   -4.2840   14.8050  -33.4940 C   0  0  0  0  0  0  0  0  0  0  0  0
   -4.6130   16.0830  -33.0350 C   0  0  0  0  0  0  0  0  0  0  0  0
   -3.8503   16.6963  -32.5328 H   0  0  0  0  0  0  0  0  0  0  0  0
   -5.9140   16.5910  -33.2110 C   0  0  0  0  0  0  0  0  0  0  0  0
   -6.2780   17.9390  -32.7100 C   0  0  0  0  0  0  0  0  0  0  0  0
   -7.1920   18.0540  -31.8490 O   0  0  0  0  0  0  0  0  0  0  0  0
   -5.6380   19.1170  -33.2300 N   0  0  0  0  0  0  0  0  0  0  0  0
   -5.2660   19.0830  -34.2070 H   0  0  0  0  0  0  0  0  0  0  0  0
   -5.6190   20.3820  -32.5470 C   0  0  0  0  0  0  0  0  0  0  0  0
   -4.4500   20.8650  -31.9310 C   0  0  0  0  0  0  0  0  0  0  0  0
   -3.5301   20.2624  -31.9552 H   0  0  0  0  0  0  0  0  0  0  0  0
   -4.4510   22.1070  -31.2880 C   0  0  0  0  0  0  0  0  0  0  0  0
   -3.5360   22.4711  -30.7978 H   0  0  0  0  0  0  0  0  0  0  0  0
   -5.6130   22.8890  -31.2660 C   0  0  0  0  0  0  0  0  0  0  0  0
   -5.6350   24.4430  -30.4390 S   0  0  0  0  0  0  0  0  0  0  0  0
   -4.9020   25.4830  -31.2380 O   0  0  0  0  0  0  0  0  0  0  0  0
   -7.0610   24.8860  -30.2690 O   0  0  0  0  0  0  0  0  0  0  0  0
   -4.8960   24.2860  -28.8800 N   0  0  0  0  0  0  0  0  0  0  0  0
   -3.6410   24.5280  -28.6650 C   0  0  0  0  0  0  0  0  0  0  0  0
   -2.7710   24.9260  -29.6200 N   0  0  0  0  0  0  0  0  0  0  0  0
   -1.5360   25.1000  -29.1540 N   0  0  0  0  0  0  0  0  0  0  0  0
   -1.4260   24.8530  -27.8290 C   0  0  0  0  0  0  0  0  0  0  0  0
   -0.1330   24.9180  -27.0830 C   0  0  0  0  0  0  0  0  0  0  0  0
    0.5564   25.5918  -27.6128 H   0  0  0  0  0  0  0  0  0  0  0  0
    0.2937   23.9058  -27.0245 H   0  0  0  0  0  0  0  0  0  0  0  0
   -0.3550   25.4400  -25.6680 C   0  0  0  0  0  0  0  0  0  0  0  0
   -0.0317   24.6797  -24.9418 H   0  0  0  0  0  0  0  0  0  0  0  0
    0.2297   26.3600  -25.5206 H   0  0  0  0  0  0  0  0  0  0  0  0
   -1.4233   25.6570  -25.5206 H   0  0  0  0  0  0  0  0  0  0  0  0
   -2.9010   24.3690  -27.1650 S   0  0  0  0  0  0  0  0  0  0  0  0
   -6.7730   22.4200  -31.8940 C   0  0  0  0  0  0  0  0  0  0  0  0
   -7.6881   23.0303  -31.8807 H   0  0  0  0  0  0  0  0  0  0  0  0
   -6.7730   21.1790  -32.5380 C   0  0  0  0  0  0  0  0  0  0  0  0
   -7.6848   20.8251  -33.0413 H   0  0  0  0  0  0  0  0  0  0  0  0
   -6.8780   15.7870  -33.8460 C   0  0  0  0  0  0  0  0  0  0  0  0
   -7.9048   16.1622  -33.9679 H   0  0  0  0  0  0  0  0  0  0  0  0
   -6.5430   14.5100  -34.3260 C   0  0  0  0  0  0  0  0  0  0  0  0
   -7.5880   13.6500  -34.9730 C   0  0  0  0  0  0  0  0  0  0  0  0
   -8.1888   13.1555  -34.1955 H   0  0  0  0  0  0  0  0  0  0  0  0
   -8.2415   14.2754  -35.5990 H   0  0  0  0  0  0  0  0  0  0  0  0
   -7.1000   12.8884  -35.5990 H   0  0  0  0  0  0  0  0  0  0  0  0
   -5.2450   14.0180  -34.1330 C   0  0  0  0  0  0  0  0  0  0  0  0
   -4.9824   13.0097  -34.4856 H   0  0  0  0  0  0  0  0  0  0  0  0
  1  2  1  0
  2  3  2  0
  3  4  1  0
  3  5  1  0
  5  6  1  0
  6  7  2  0
  6  8  1  0
  8  9  1  0
  8 10  1  0
 10 11  2  0
 11 12  1  0
 11 13  1  0
 13 14  1  0
 13 15  2  0
 15 16  1  0
 16 17  2  0
 16 18  2  0
 16 19  1  0
 19 20  2  0
 20 21  1  0
 21 22  1  0
 22 23  2  0
 23 24  1  0
 24 25  1  0
 24 26  1  0
 24 27  1  0
 27 28  1  0
 27 29  1  0
 27 30  1  0
 23 31  1  0
 15 32  1  0
 32 33  1  0
 32 34  2  0
 34 35  1  0
  5 36  2  0
 36 37  1  0
 36 38  1  0
 38 39  1  0
 39 40  1  0
 39 41  1  0
 39 42  1  0
 38 43  2  0
 43 44  1  0
 43  2  1  0
 34 10  1  0
 31 20  1  0
M  CHG  1  21  -1
M  END
>  <UniqueID>  (21) 
20

>  <SMILES>  (21) 
CCc1n[n-]/c(=N\S(=O)(=O)c2ccc(NC(=O)c3cccc(C)c3)cc2)s1

>  <Energy>  (21) 
83.85225590399877

>  <Genealogy>  (21) 
CCc1n[n-]c(=NS(=O)(=O)c2ccc(NC(=O)c3cccc(C)c3)cc2)s1 (protonated)
CCc1n[n-]/c(=N\S(=O)(=O)c2ccc(NC(=O)c3cccc(C)c3)cc2)s1 (cis-trans isomerization)
CCc1n[n-]/c(=N\S(=O)(=O)c2ccc(NC(=O)c3cccc(C)c3)cc2)s1 (3D coordinates assigned)
CCc1n[n-]/c(=N\S(=O)(=O)c2ccc(NC(=O)c3cccc(C)c3)cc2)s1 (optimized conformer: 83.85225590399877 kcal/mol)

>  <smiles>  (21) 
CCc1n[nH]c(=NS(=O)(=O)c2ccc(NC(=O)c3cccc(C)c3)cc2)s1

>  <score_type>  (21) 
oracle

>  <origin>  (21) 
adgpu

>  <m_score__min__energy>  (21) 
-10.130000000000001

>  <m_primary>  (21) 
energy

$$$$
21:0
     RDKit          3D

 46 48  0  0  0  0  0  0  0  0999 V2000
    0.1360   25.7430  -23.6650 N   0  0  0  0  0  0  0  0  0  0  0  0
   -0.6900   26.4460  -24.5980 C   0  0  0  0  0  0  0  0  0  0  0  0
   -1.0040   27.6420  -24.3500 O   0  0  0  0  0  0  0  0  0  0  0  0
   -1.1870   25.7970  -25.8340 C   0  0  0  0  0  0  0  0  0  0  0  0
   -0.3320   25.5620  -26.9280 C   0  0  0  0  0  0  0  0  0  0  0  0
   -0.8190   24.9550  -28.0890 C   0  0  0  0  0  0  0  0  0  0  0  0
   -2.1620   24.5730  -28.1760 C   0  0  0  0  0  0  0  0  0  0  0  0
   -2.7550   23.8260  -29.6550 S   0  0  0  0  0  0  0  0  0  0  0  0
   -3.4640   24.8750  -30.4650 O   0  0  0  0  0  0  0  0  0  0  0  0
   -1.6180   23.2740  -30.4680 O   0  0  0  0  0  0  0  0  0  0  0  0
   -3.8580   22.5460  -29.2580 N   0  0  0  0  0  0  0  0  0  0  0  0
   -3.8580   21.9790  -27.9060 C   0  0  0  0  0  0  0  0  0  0  0  0
   -2.7980   20.9150  -27.7880 C   0  0  0  0  0  0  0  0  0  0  0  0
   -3.0460   19.7390  -27.0580 C   0  0  0  0  0  0  0  0  0  0  0  0
   -2.0410   18.7780  -26.9130 C   0  0  0  0  0  0  0  0  0  0  0  0
   -0.7850   18.9840  -27.4900 C   0  0  0  0  0  0  0  0  0  0  0  0
   -0.5310   20.1510  -28.2150 C   0  0  0  0  0  0  0  0  0  0  0  0
   -1.5330   21.1160  -28.3640 C   0  0  0  0  0  0  0  0  0  0  0  0
   -4.5100   21.8470  -30.3240 C   0  0  0  0  0  0  0  0  0  0  0  0
   -3.9630   20.6960  -30.7990 N   0  0  0  0  0  0  0  0  0  0  0  0
   -4.5410   19.9800  -31.7990 C   0  0  0  0  0  0  0  0  0  0  0  0
   -5.7350   20.4220  -32.3870 C   0  0  0  0  0  0  0  0  0  0  0  0
   -6.4120   19.5870  -33.4430 C   0  0  0  0  0  0  0  0  0  0  0  0
   -7.6030   20.1630  -33.8490 F   0  0  0  0  0  0  0  0  0  0  0  0
   -5.5920   19.4630  -34.5510 F   0  0  0  0  0  0  0  0  0  0  0  0
   -6.6730   18.3300  -32.9320 F   0  0  0  0  0  0  0  0  0  0  0  0
   -6.3230   21.6010  -31.9020 C   0  0  0  0  0  0  0  0  0  0  0  0
   -5.7040   22.3280  -30.8810 C   0  0  0  0  0  0  0  0  0  0  0  0
   -6.4230   23.8410  -30.3410 Cl  0  0  0  0  0  0  0  0  0  0  0  0
   -3.0230   24.8140  -27.0980 C   0  0  0  0  0  0  0  0  0  0  0  0
   -2.5400   25.4250  -25.9380 C   0  0  0  0  0  0  0  0  0  0  0  0
    0.2940   24.7140  -23.7370 H   0  0  0  0  0  0  0  0  0  0  0  0
    0.5230   26.2440  -22.8340 H   0  0  0  0  0  0  0  0  0  0  0  0
    0.7258   25.8580  -26.8685 H   0  0  0  0  0  0  0  0  0  0  0  0
   -0.1431   24.7768  -28.9383 H   0  0  0  0  0  0  0  0  0  0  0  0
   -3.6542   22.7773  -27.1772 H   0  0  0  0  0  0  0  0  0  0  0  0
   -4.8417   21.5294  -27.7053 H   0  0  0  0  0  0  0  0  0  0  0  0
   -4.0326   19.5749  -26.6002 H   0  0  0  0  0  0  0  0  0  0  0  0
   -2.2393   17.8579  -26.3436 H   0  0  0  0  0  0  0  0  0  0  0  0
    0.0043   18.2268  -27.3733 H   0  0  0  0  0  0  0  0  0  0  0  0
    0.4579   20.3113  -28.6692 H   0  0  0  0  0  0  0  0  0  0  0  0
   -1.3295   22.0346  -28.9338 H   0  0  0  0  0  0  0  0  0  0  0  0
   -4.0702   19.0495  -32.1489 H   0  0  0  0  0  0  0  0  0  0  0  0
   -7.2742   21.9540  -32.3269 H   0  0  0  0  0  0  0  0  0  0  0  0
   -4.0814   24.5217  -27.1647 H   0  0  0  0  0  0  0  0  0  0  0  0
   -3.2239   25.6170  -25.0981 H   0  0  0  0  0  0  0  0  0  0  0  0
  1  2  1  0
  2  3  2  0
  2  4  1  0
  4  5  2  0
  5  6  1  0
  6  7  2  0
  7  8  1  0
  8  9  2  0
  8 10  2  0
  8 11  1  0
 11 12  1  0
 12 13  1  0
 13 14  2  0
 14 15  1  0
 15 16  2  0
 16 17  1  0
 17 18  2  0
 11 19  1  0
 19 20  2  0
 20 21  1  0
 21 22  2  0
 22 23  1  0
 23 24  1  0
 23 25  1  0
 23 26  1  0
 22 27  1  0
 27 28  2  0
 28 29  1  0
  7 30  1  0
 30 31  2  0
 31  4  1  0
 18 13  1  0
 28 19  1  0
  1 32  1  0
  1 33  1  0
  5 34  1  0
  6 35  1  0
 12 36  1  0
 12 37  1  0
 14 38  1  0
 15 39  1  0
 16 40  1  0
 17 41  1  0
 18 42  1  0
 21 43  1  0
 27 44  1  0
 30 45  1  0
 31 46  1  0
M  END
>  <UniqueID>  (22) 
21

>  <SMILES>  (22) 
NC(=O)c1ccc(S(=O)(=O)N(Cc2ccccc2)c2ncc(C(F)(F)F)cc2Cl)cc1

>  <Energy>  (22) 
55.38837760620306

>  <Genealogy>  (22) 
NC(=O)c1ccc(S(=O)(=O)N(Cc2ccccc2)c2ncc(C(F)(F)F)cc2Cl)cc1 (3D coordinates assigned)
NC(=O)c1ccc(S(=O)(=O)N(Cc2ccccc2)c2ncc(C(F)(F)F)cc2Cl)cc1 (optimized conformer: 55.38837760620306 kcal/mol)

>  <smiles>  (22) 
NC(=O)c1ccc(S(=O)(=O)N(Cc2ccccc2)c2ncc(C(F)(F)F)cc2Cl)cc1

>  <score_type>  (22) 
oracle

>  <origin>  (22) 
adgpu

>  <m_score__min__energy>  (22) 
-8.9499999999999993

>  <m_primary>  (22) 
energy

$$$$
22:0
     RDKit          3D

 52 54  0  0  0  0  0  0  0  0999 V2000
   -0.6990   17.7210  -35.0010 C   0  0  0  0  0  0  0  0  0  0  0  0
   -1.5980   18.4950  -34.0920 C   0  0  0  0  0  0  0  0  0  0  0  0
   -2.4400   17.8780  -33.3850 O   0  0  0  0  0  0  0  0  0  0  0  0
   -1.4350   19.9150  -33.9680 N   0  0  0  0  0  0  0  0  0  0  0  0
   -2.3070   20.7540  -33.1940 C   0  0  0  0  0  0  0  0  0  0  0  0
   -3.6810   20.7620  -33.4750 C   0  0  0  0  0  0  0  0  0  0  0  0
   -4.5420   21.6070  -32.7700 C   0  0  0  0  0  0  0  0  0  0  0  0
   -4.0460   22.4200  -31.7390 C   0  0  0  0  0  0  0  0  0  0  0  0
   -4.9110   23.2920  -31.0020 N   0  0  0  0  0  0  0  0  0  0  0  0
   -4.6720   24.6910  -30.8060 C   0  0  0  0  0  0  0  0  0  0  0  0
   -5.5320   25.5220  -31.1980 O   0  0  0  0  0  0  0  0  0  0  0  0
   -3.4750   25.1700  -30.1750 N   0  0  0  0  0  0  0  0  0  0  0  0
   -2.7910   24.5410  -29.0780 C   0  0  0  0  0  0  0  0  0  0  0  0
   -3.2810   23.3670  -28.4950 C   0  0  0  0  0  0  0  0  0  0  0  0
   -2.6190   22.7860  -27.4190 C   0  0  0  0  0  0  0  0  0  0  0  0
   -1.4560   23.3660  -26.8870 C   0  0  0  0  0  0  0  0  0  0  0  0
   -0.8380   22.7040  -25.6840 C   0  0  0  0  0  0  0  0  0  0  0  0
   -0.9590   24.5760  -27.4500 C   0  0  0  0  0  0  0  0  0  0  0  0
    0.4940   25.4100  -26.8140 S   0  0  0  0  0  0  0  0  0  0  0  0
    1.5820   25.4440  -27.8490 O   0  0  0  0  0  0  0  0  0  0  0  0
    1.0300   24.6070  -25.6590 O   0  0  0  0  0  0  0  0  0  0  0  0
    0.1930   27.0510  -26.2650 N   0  0  0  0  0  0  0  0  0  0  0  0
   -1.2120   27.2970  -25.9010 C   0  0  0  0  0  0  0  0  0  0  0  0
   -1.5530   26.8080  -24.4750 C   0  0  0  0  0  0  0  0  0  0  0  0
   -0.4180   26.3550  -23.7660 O   0  0  0  0  0  0  0  0  0  0  0  0
    0.5930   27.3370  -23.8030 C   0  0  0  0  0  0  0  0  0  0  0  0
    1.1400   27.5110  -25.2310 C   0  0  0  0  0  0  0  0  0  0  0  0
   -1.6530   25.1540  -28.5390 C   0  0  0  0  0  0  0  0  0  0  0  0
   -1.2180   26.3510  -29.0990 O   0  0  0  0  0  0  0  0  0  0  0  0
   -2.6890   22.3570  -31.4050 C   0  0  0  0  0  0  0  0  0  0  0  0
   -1.8200   21.5390  -32.1340 C   0  0  0  0  0  0  0  0  0  0  0  0
   -0.0004   17.1195  -34.4008 H   0  0  0  0  0  0  0  0  0  0  0  0
   -1.3034   17.0562  -35.6356 H   0  0  0  0  0  0  0  0  0  0  0  0
   -0.1314   18.4175  -35.6356 H   0  0  0  0  0  0  0  0  0  0  0  0
   -0.5630   20.3400  -34.3610 H   0  0  0  0  0  0  0  0  0  0  0  0
   -4.0833   20.0990  -34.2551 H   0  0  0  0  0  0  0  0  0  0  0  0
   -5.6119   21.6351  -33.0238 H   0  0  0  0  0  0  0  0  0  0  0  0
   -4.1955   22.9009  -28.8904 H   0  0  0  0  0  0  0  0  0  0  0  0
   -3.0122   21.8582  -26.9779 H   0  0  0  0  0  0  0  0  0  0  0  0
   -1.2529   23.1485  -24.7673 H   0  0  0  0  0  0  0  0  0  0  0  0
   -1.0613   21.6271  -25.7029 H   0  0  0  0  0  0  0  0  0  0  0  0
    0.2517   22.8529  -25.7029 H   0  0  0  0  0  0  0  0  0  0  0  0
   -1.4062   28.3782  -25.9581 H   0  0  0  0  0  0  0  0  0  0  0  0
   -1.8413   26.7329  -26.6051 H   0  0  0  0  0  0  0  0  0  0  0  0
   -2.0069   27.6403  -23.9171 H   0  0  0  0  0  0  0  0  0  0  0  0
   -2.2439   25.9577  -24.5726 H   0  0  0  0  0  0  0  0  0  0  0  0
    0.1769   28.2950  -23.4578 H   0  0  0  0  0  0  0  0  0  0  0  0
    1.4170   27.0169  -23.1484 H   0  0  0  0  0  0  0  0  0  0  0  0
    1.3530   28.5771  -25.3985 H   0  0  0  0  0  0  0  0  0  0  0  0
    2.0480   26.8958  -25.3156 H   0  0  0  0  0  0  0  0  0  0  0  0
   -2.3037   22.9537  -30.5650 H   0  0  0  0  0  0  0  0  0  0  0  0
   -0.7508   21.5096  -31.8770 H   0  0  0  0  0  0  0  0  0  0  0  0
  1  2  1  0
  2  3  2  0
  2  4  1  0
  4  5  1  0
  5  6  2  0
  6  7  1  0
  7  8  2  0
  8  9  1  0
  9 10  1  0
 10 11  2  0
 10 12  1  0
 12 13  1  0
 13 14  2  0
 14 15  1  0
 15 16  2  0
 16 17  1  0
 16 18  1  0
 18 19  1  0
 19 20  2  0
 19 21  2  0
 19 22  1  0
 22 23  1  0
 23 24  1  0
 24 25  1  0
 25 26  1  0
 26 27  1  0
 18 28  2  0
 28 29  1  0
  8 30  1  0
 30 31  2  0
 31  5  1  0
 28 13  1  0
 27 22  1  0
  1 32  1  0
  1 33  1  0
  1 34  1  0
  4 35  1  0
  6 36  1  0
  7 37  1  0
 14 38  1  0
 15 39  1  0
 17 40  1  0
 17 41  1  0
 17 42  1  0
 23 43  1  0
 23 44  1  0
 24 45  1  0
 24 46  1  0
 26 47  1  0
 26 48  1  0
 27 49  1  0
 27 50  1  0
 30 51  1  0
 31 52  1  0
M  CHG  3   9  -1  12  -1  29  -1
M  END
>  <UniqueID>  (23) 
22

>  <SMILES>  (23) 
CC(=O)Nc1ccc([N-]C(=O)[N-]c2ccc(C)c(S(=O)(=O)N3CCOCC3)c2[O-])cc1

>  <Energy>  (23) 
75.12877835922984

>  <Genealogy>  (23) 
CC(=O)Nc1ccc([N-]C(=O)[N-]c2ccc(C)c(S(=O)(=O)N3CCOCC3)c2[O-])cc1 (protonated)
CC(=O)Nc1ccc([N-]C(=O)[N-]c2ccc(C)c(S(=O)(=O)N3CCOCC3)c2[O-])cc1 (3D coordinates assigned)
CC(=O)Nc1ccc([N-]C(=O)[N-]c2ccc(C)c(S(=O)(=O)N3CCOCC3)c2[O-])cc1 (nonaromatic ring conformer: 75.12877835922984 kcal/mol)

>  <smiles>  (23) 
CC(=O)Nc1ccc(NC(=O)Nc2ccc(C)c(S(=O)(=O)N3CCOCC3)c2O)cc1

>  <score_type>  (23) 
oracle

>  <origin>  (23) 
adgpu

>  <m_score__min__energy>  (23) 
-15.06

>  <m_primary>  (23) 
energy

$$$$
23:0
     RDKit          3D

 35 36  0  0  0  0  0  0  0  0999 V2000
   -1.5500   26.1110  -27.0930 C   0  0  0  0  0  0  0  0  0  0  0  0
   -0.9750   25.0610  -27.9860 C   0  0  0  0  0  0  0  0  0  0  0  0
    0.3390   24.7660  -28.0410 N   0  0  0  0  0  0  0  0  0  0  0  0
    0.4800   23.8020  -28.9060 O   0  0  0  0  0  0  0  0  0  0  0  0
   -0.6770   23.4490  -29.4170 C   0  0  0  0  0  0  0  0  0  0  0  0
   -0.8540   22.3780  -30.4420 C   0  0  0  0  0  0  0  0  0  0  0  0
   -1.6610   24.2380  -28.8600 C   0  0  0  0  0  0  0  0  0  0  0  0
   -3.3930   24.1840  -29.2020 S   0  0  0  0  0  0  0  0  0  0  0  0
   -4.1810   24.5110  -27.9650 O   0  0  0  0  0  0  0  0  0  0  0  0
   -3.7440   22.7880  -29.6290 O   0  0  0  0  0  0  0  0  0  0  0  0
   -3.8420   25.2880  -30.4730 N   0  0  0  0  0  0  0  0  0  0  0  0
   -5.2620   25.6450  -30.4260 C   0  0  0  0  0  0  0  0  0  0  0  0
   -6.1310   24.5940  -31.1230 C   0  0  0  0  0  0  0  0  0  0  0  0
   -5.3330   23.7660  -31.9690 O   0  0  0  0  0  0  0  0  0  0  0  0
   -5.6170   22.4340  -32.3130 C   0  0  0  0  0  0  0  0  0  0  0  0
   -4.6240   21.5280  -32.7370 C   0  0  0  0  0  0  0  0  0  0  0  0
   -4.9640   20.2110  -33.0640 C   0  0  0  0  0  0  0  0  0  0  0  0
   -6.2920   19.7880  -32.9750 C   0  0  0  0  0  0  0  0  0  0  0  0
   -7.2830   20.6810  -32.5610 C   0  0  0  0  0  0  0  0  0  0  0  0
   -6.9460   21.9980  -32.2310 C   0  0  0  0  0  0  0  0  0  0  0  0
   -1.3933   25.8249  -26.0425 H   0  0  0  0  0  0  0  0  0  0  0  0
   -1.0523   27.0721  -27.2894 H   0  0  0  0  0  0  0  0  0  0  0  0
   -2.6278   26.2093  -27.2894 H   0  0  0  0  0  0  0  0  0  0  0  0
   -1.0136   21.4125  -29.9397 H   0  0  0  0  0  0  0  0  0  0  0  0
   -1.7255   22.6127  -31.0708 H   0  0  0  0  0  0  0  0  0  0  0  0
    0.0467   22.3198  -31.0708 H   0  0  0  0  0  0  0  0  0  0  0  0
   -5.5749   25.7267  -29.3746 H   0  0  0  0  0  0  0  0  0  0  0  0
   -5.3935   26.6029  -30.9506 H   0  0  0  0  0  0  0  0  0  0  0  0
   -6.6218   23.9684  -30.3629 H   0  0  0  0  0  0  0  0  0  0  0  0
   -6.8857   25.1071  -31.7371 H   0  0  0  0  0  0  0  0  0  0  0  0
   -3.5773   21.8579  -32.8111 H   0  0  0  0  0  0  0  0  0  0  0  0
   -4.1843   19.5076  -33.3917 H   0  0  0  0  0  0  0  0  0  0  0  0
   -6.5575   18.7517  -33.2309 H   0  0  0  0  0  0  0  0  0  0  0  0
   -8.3294   20.3484  -32.4944 H   0  0  0  0  0  0  0  0  0  0  0  0
   -7.7304   22.6967  -31.9046 H   0  0  0  0  0  0  0  0  0  0  0  0
  1  2  1  0
  2  3  2  0
  3  4  1  0
  4  5  1  0
  5  6  1  0
  5  7  2  0
  7  8  1  0
  8  9  2  0
  8 10  2  0
  8 11  1  0
 11 12  1  0
 12 13  1  0
 13 14  1  0
 14 15  1  0
 15 16  2  0
 16 17  1  0
 17 18  2  0
 18 19  1  0
 19 20  2  0
  7  2  1  0
 20 15  1  0
  1 21  1  0
  1 22  1  0
  1 23  1  0
  6 24  1  0
  6 25  1  0
  6 26  1  0
 12 27  1  0
 12 28  1  0
 13 29  1  0
 13 30  1  0
 16 31  1  0
 17 32  1  0
 18 33  1  0
 19 34  1  0
 20 35  1  0
M  CHG  1  11  -1
M  END
>  <UniqueID>  (24) 
23

>  <SMILES>  (24) 
Cc1noc(C)c1S(=O)(=O)[N-]CCOc1ccccc1

>  <Energy>  (24) 
61.00337091016754

>  <Genealogy>  (24) 
Cc1noc(C)c1S(=O)(=O)[N-]CCOc1ccccc1 (protonated)
Cc1noc(C)c1S(=O)(=O)[N-]CCOc1ccccc1 (3D coordinates assigned)
Cc1noc(C)c1S(=O)(=O)[N-]CCOc1ccccc1 (optimized conformer: 61.00337091016754 kcal/mol)

>  <smiles>  (24) 
Cc1noc(C)c1S(=O)(=O)NCCOc1ccccc1

>  <score_type>  (24) 
oracle

>  <origin>  (24) 
adgpu

>  <m_score__min__energy>  (24) 
-8.6999999999999993

>  <m_primary>  (24) 
energy

$$$$
24:0
     RDKit          3D

 42 44  0  0  0  0  0  0  0  0999 V2000
   -1.2180   21.1420  -28.7990 O   0  0  0  0  0  0  0  0  0  0  0  0
   -1.8860   22.1460  -29.6930 S   0  0  0  0  0  0  0  0  0  0  0  0
   -1.0220   23.3730  -29.7750 O   0  0  0  0  0  0  0  0  0  0  0  0
   -3.4320   22.5730  -29.0290 N   0  0  0  0  0  0  0  0  0  0  0  0
   -4.4540   23.2650  -29.7720 C   0  0  0  0  0  0  0  0  0  0  0  0
   -5.6460   22.6180  -30.1500 C   0  0  0  0  0  0  0  0  0  0  0  0
   -6.6270   23.2960  -30.8840 C   0  0  0  0  0  0  0  0  0  0  0  0
   -8.1060   22.4570  -31.3430 S   0  0  0  0  0  0  0  0  0  0  0  0
   -9.0650   23.4210  -31.9860 O   0  0  0  0  0  0  0  0  0  0  0  0
   -8.7340   21.8920  -30.1000 O   0  0  0  0  0  0  0  0  0  0  0  0
   -7.7410   21.1640  -32.4640 N   0  0  0  0  0  0  0  0  0  0  0  0
   -8.4190   19.9170  -32.0370 C   0  0  0  0  0  0  0  0  0  0  0  0
   -7.7850   18.6820  -32.6840 C   0  0  0  0  0  0  0  0  0  0  0  0
   -6.3140   18.5290  -32.2610 C   0  0  0  0  0  0  0  0  0  0  0  0
   -5.6650   19.8680  -31.8730 C   0  0  0  0  0  0  0  0  0  0  0  0
   -6.2760   21.0310  -32.6670 C   0  0  0  0  0  0  0  0  0  0  0  0
   -6.4330   24.6400  -31.2250 C   0  0  0  0  0  0  0  0  0  0  0  0
   -5.2650   25.2970  -30.8390 C   0  0  0  0  0  0  0  0  0  0  0  0
   -4.2770   24.6180  -30.1180 C   0  0  0  0  0  0  0  0  0  0  0  0
   -3.1190   25.2950  -29.7530 O   0  0  0  0  0  0  0  0  0  0  0  0
   -2.0940   21.4470  -31.2870 C   0  0  0  0  0  0  0  0  0  0  0  0
   -2.9500   21.9190  -32.2680 C   0  0  0  0  0  0  0  0  0  0  0  0
   -2.8750   21.1820  -33.4550 C   0  0  0  0  0  0  0  0  0  0  0  0
   -1.9590   20.1380  -33.4060 C   0  0  0  0  0  0  0  0  0  0  0  0
   -1.2410   20.1300  -31.8860 S   0  0  0  0  0  0  0  0  0  0  0  0
   -3.5730   22.3850  -28.0110 H   0  0  0  0  0  0  0  0  0  0  0  0
   -5.8085   21.5679  -29.8655 H   0  0  0  0  0  0  0  0  0  0  0  0
   -8.3435   19.8258  -30.9434 H   0  0  0  0  0  0  0  0  0  0  0  0
   -9.4708   19.9706  -32.3544 H   0  0  0  0  0  0  0  0  0  0  0  0
   -8.3433   17.7868  -32.3728 H   0  0  0  0  0  0  0  0  0  0  0  0
   -7.8238   18.8012  -33.7768 H   0  0  0  0  0  0  0  0  0  0  0  0
   -6.2653   17.8508  -31.3963 H   0  0  0  0  0  0  0  0  0  0  0  0
   -5.7604   18.1294  -33.1235 H   0  0  0  0  0  0  0  0  0  0  0  0
   -5.8222   20.0451  -30.7988 H   0  0  0  0  0  0  0  0  0  0  0  0
   -4.5908   19.8146  -32.1039 H   0  0  0  0  0  0  0  0  0  0  0  0
   -5.7915   21.9658  -32.3487 H   0  0  0  0  0  0  0  0  0  0  0  0
   -6.1085   20.8253  -33.7345 H   0  0  0  0  0  0  0  0  0  0  0  0
   -7.2025   25.1782  -31.7979 H   0  0  0  0  0  0  0  0  0  0  0  0
   -5.1198   26.3550  -31.1029 H   0  0  0  0  0  0  0  0  0  0  0  0
   -3.6180   22.7818  -32.1288 H   0  0  0  0  0  0  0  0  0  0  0  0
   -3.4836   21.4076  -34.3431 H   0  0  0  0  0  0  0  0  0  0  0  0
   -1.7406   19.4355  -34.2238 H   0  0  0  0  0  0  0  0  0  0  0  0
  1  2  2  0
  2  3  2  0
  2  4  1  0
  4  5  1  0
  5  6  2  0
  6  7  1  0
  7  8  1  0
  8  9  2  0
  8 10  2  0
  8 11  1  0
 11 12  1  0
 12 13  1  0
 13 14  1  0
 14 15  1  0
 15 16  1  0
  7 17  2  0
 17 18  1  0
 18 19  2  0
 19 20  1  0
  2 21  1  0
 21 22  2  0
 22 23  1  0
 23 24  2  0
 24 25  1  0
 19  5  1  0
 25 21  1  0
 16 11  1  0
  4 26  1  0
  6 27  1  0
 12 28  1  0
 12 29  1  0
 13 30  1  0
 13 31  1  0
 14 32  1  0
 14 33  1  0
 15 34  1  0
 15 35  1  0
 16 36  1  0
 16 37  1  0
 17 38  1  0
 18 39  1  0
 22 40  1  0
 23 41  1  0
 24 42  1  0
M  CHG  1  20  -1
M  END
>  <UniqueID>  (25) 
24

>  <SMILES>  (25) 
O=S(=O)(Nc1cc(S(=O)(=O)N2CCCCC2)ccc1[O-])c1cccs1

>  <Energy>  (25) 
77.01916773476626

>  <Genealogy>  (25) 
O=S(=O)(Nc1cc(S(=O)(=O)N2CCCCC2)ccc1[O-])c1cccs1 (protonated)
O=S(=O)(Nc1cc(S(=O)(=O)N2CCCCC2)ccc1[O-])c1cccs1 (3D coordinates assigned)
O=S(=O)(Nc1cc(S(=O)(=O)N2CCCCC2)ccc1[O-])c1cccs1 (nonaromatic ring conformer: 77.01916773476626 kcal/mol)

>  <smiles>  (25) 
O=S(=O)(Nc1cc(S(=O)(=O)N2CCCCC2)ccc1O)c1cccs1

>  <score_type>  (25) 
oracle

>  <origin>  (25) 
adgpu

>  <m_score__min__energy>  (25) 
-12.08

>  <m_primary>  (25) 
energy

$$$$
25:0
     RDKit          3D

 22 23  0  0  0  0  0  0  0  0999 V2000
   -3.8130   21.9820  -29.3690 C   0  0  0  0  0  0  0  0  0  0  0  0
   -4.1330   23.2580  -30.0100 N   0  0  0  0  0  0  0  0  0  0  0  0
   -5.1410   23.5520  -30.8650 C   0  0  0  0  0  0  0  0  0  0  0  0
   -6.1430   22.5940  -31.3650 C   0  0  0  0  0  0  0  0  0  0  0  0
   -7.4720   22.7120  -30.9280 C   0  0  0  0  0  0  0  0  0  0  0  0
   -8.4460   21.8160  -31.3790 C   0  0  0  0  0  0  0  0  0  0  0  0
   -8.1030   20.8060  -32.2800 C   0  0  0  0  0  0  0  0  0  0  0  0
   -6.7890   20.6940  -32.7400 C   0  0  0  0  0  0  0  0  0  0  0  0
   -5.8060   21.5860  -32.2930 C   0  0  0  0  0  0  0  0  0  0  0  0
   -4.1840   21.4530  -32.9660 Cl  0  0  0  0  0  0  0  0  0  0  0  0
   -5.1520   24.8640  -31.1870 N   0  0  0  0  0  0  0  0  0  0  0  0
   -4.1280   25.4100  -30.5500 N   0  0  0  0  0  0  0  0  0  0  0  0
   -3.5160   24.4440  -29.8450 C   0  0  0  0  0  0  0  0  0  0  0  0
   -2.2030   24.6990  -28.8960 S   0  0  0  0  0  0  0  0  0  0  0  0
   -3.8433   22.1029  -28.2761 H   0  0  0  0  0  0  0  0  0  0  0  0
   -4.5487   21.2235  -29.6745 H   0  0  0  0  0  0  0  0  0  0  0  0
   -2.8064   21.6604  -29.6745 H   0  0  0  0  0  0  0  0  0  0  0  0
   -7.7484   23.5135  -30.2272 H   0  0  0  0  0  0  0  0  0  0  0  0
   -9.4831   21.9068  -31.0238 H   0  0  0  0  0  0  0  0  0  0  0  0
   -8.8689   20.0973  -32.6281 H   0  0  0  0  0  0  0  0  0  0  0  0
   -6.5251   19.9020  -33.4563 H   0  0  0  0  0  0  0  0  0  0  0  0
   -3.8670   26.4200  -30.5980 H   0  0  0  0  0  0  0  0  0  0  0  0
  1  2  1  0
  2  3  1  0
  3  4  1  0
  4  5  2  0
  5  6  1  0
  6  7  2  0
  7  8  1  0
  8  9  2  0
  9 10  1  0
  3 11  2  0
 11 12  1  0
 12 13  1  0
 13 14  2  0
 13  2  1  0
  9  4  1  0
  1 15  1  0
  1 16  1  0
  1 17  1  0
  5 18  1  0
  6 19  1  0
  7 20  1  0
  8 21  1  0
 12 22  1  0
M  END
>  <UniqueID>  (26) 
25

>  <SMILES>  (26) 
Cn1c(-c2ccccc2Cl)n[nH]c1=S

>  <Energy>  (26) 
66.07360778434902

>  <Genealogy>  (26) 
Cn1c(-c2ccccc2Cl)n[nH]c1=S (3D coordinates assigned)
Cn1c(-c2ccccc2Cl)n[nH]c1=S (optimized conformer: 66.07360778434902 kcal/mol)

>  <smiles>  (26) 
Cn1c(-c2ccccc2Cl)n[nH]c1=S

>  <score_type>  (26) 
oracle

>  <origin>  (26) 
adgpu

>  <m_score__min__energy>  (26) 
-6.8399999999999999

>  <m_primary>  (26) 
energy

$$$$
26:0
     RDKit          3D

 49 51  0  0  0  0  0  0  0  0999 V2000
   -3.0170   18.9310  -26.3630 C   0  0  0  0  0  0  0  0  0  0  0  0
   -2.0480   19.9760  -26.3520 O   0  0  0  0  0  0  0  0  0  0  0  0
   -1.6370   20.6850  -27.4900 C   0  0  0  0  0  0  0  0  0  0  0  0
   -0.6710   20.1850  -28.3840 C   0  0  0  0  0  0  0  0  0  0  0  0
   -0.2990   20.9300  -29.5060 C   0  0  0  0  0  0  0  0  0  0  0  0
   -0.8930   22.1690  -29.7540 C   0  0  0  0  0  0  0  0  0  0  0  0
   -1.8630   22.6740  -28.8770 C   0  0  0  0  0  0  0  0  0  0  0  0
   -2.6930   24.1800  -29.2640 S   0  0  0  0  0  0  0  0  0  0  0  0
   -3.6980   24.5210  -28.2020 O   0  0  0  0  0  0  0  0  0  0  0  0
   -1.6710   25.2830  -29.3470 O   0  0  0  0  0  0  0  0  0  0  0  0
   -3.5050   24.0280  -30.7970 N   0  0  0  0  0  0  0  0  0  0  0  0
   -4.8490   23.5530  -30.9600 C   0  0  0  0  0  0  0  0  0  0  0  0
   -5.1110   22.2780  -31.4900 C   0  0  0  0  0  0  0  0  0  0  0  0
   -6.4270   21.8590  -31.7170 C   0  0  0  0  0  0  0  0  0  0  0  0
   -6.7400   20.2790  -32.4360 S   0  0  0  0  0  0  0  0  0  0  0  0
   -7.2240   20.4670  -33.8460 O   0  0  0  0  0  0  0  0  0  0  0  0
   -7.8280   19.5940  -31.6600 O   0  0  0  0  0  0  0  0  0  0  0  0
   -5.3110   19.2720  -32.4320 N   0  0  0  0  0  0  0  0  0  0  0  0
   -4.3620   19.7260  -33.4700 C   0  0  0  0  0  0  0  0  0  0  0  0
   -3.2790   18.6770  -33.7290 C   0  0  0  0  0  0  0  0  0  0  0  0
   -3.8890   17.3620  -34.2470 C   0  0  0  0  0  0  0  0  0  0  0  0
   -5.3670   17.1940  -33.8540 C   0  0  0  0  0  0  0  0  0  0  0  0
   -5.6540   17.8290  -32.4870 C   0  0  0  0  0  0  0  0  0  0  0  0
   -7.4880   22.7080  -31.3860 C   0  0  0  0  0  0  0  0  0  0  0  0
   -7.2390   23.9580  -30.8210 C   0  0  0  0  0  0  0  0  0  0  0  0
   -5.9270   24.3860  -30.6060 C   0  0  0  0  0  0  0  0  0  0  0  0
   -5.7180   25.6520  -30.0570 O   0  0  0  0  0  0  0  0  0  0  0  0
   -2.2200   21.9340  -27.7410 C   0  0  0  0  0  0  0  0  0  0  0  0
   -3.2717   18.6563  -25.3288 H   0  0  0  0  0  0  0  0  0  0  0  0
   -3.9222   19.2758  -26.8844 H   0  0  0  0  0  0  0  0  0  0  0  0
   -2.6050   18.0544  -26.8844 H   0  0  0  0  0  0  0  0  0  0  0  0
   -0.2077   19.2047  -28.1985 H   0  0  0  0  0  0  0  0  0  0  0  0
    0.4638   20.5394  -30.1957 H   0  0  0  0  0  0  0  0  0  0  0  0
   -0.5989   22.7506  -30.6402 H   0  0  0  0  0  0  0  0  0  0  0  0
   -4.2750   21.6039  -31.7283 H   0  0  0  0  0  0  0  0  0  0  0  0
   -4.9133   19.9101  -34.4039 H   0  0  0  0  0  0  0  0  0  0  0  0
   -3.8759   20.6476  -33.1173 H   0  0  0  0  0  0  0  0  0  0  0  0
   -2.5751   19.0660  -34.4795 H   0  0  0  0  0  0  0  0  0  0  0  0
   -2.7608   18.4705  -32.7809 H   0  0  0  0  0  0  0  0  0  0  0  0
   -3.8135   17.3480  -35.3443 H   0  0  0  0  0  0  0  0  0  0  0  0
   -3.3285   16.5340  -33.7884 H   0  0  0  0  0  0  0  0  0  0  0  0
   -5.9975   17.6785  -34.6140 H   0  0  0  0  0  0  0  0  0  0  0  0
   -5.5906   16.1187  -33.7921 H   0  0  0  0  0  0  0  0  0  0  0  0
   -6.7256   17.7152  -32.2661 H   0  0  0  0  0  0  0  0  0  0  0  0
   -5.0240   17.3136  -31.7471 H   0  0  0  0  0  0  0  0  0  0  0  0
   -8.5238   22.3880  -31.5723 H   0  0  0  0  0  0  0  0  0  0  0  0
   -8.0800   24.6104  -30.5432 H   0  0  0  0  0  0  0  0  0  0  0  0
   -5.0270   25.8240  -29.3330 H   0  0  0  0  0  0  0  0  0  0  0  0
   -2.9651   22.3380  -27.0399 H   0  0  0  0  0  0  0  0  0  0  0  0
  1  2  1  0
  2  3  1  0
  3  4  2  0
  4  5  1  0
  5  6  2  0
  6  7  1  0
  7  8  1  0
  8  9  2  0
  8 10  2  0
  8 11  1  0
 11 12  1  0
 12 13  2  0
 13 14  1  0
 14 15  1  0
 15 16  2  0
 15 17  2  0
 15 18  1  0
 18 19  1  0
 19 20  1  0
 20 21  1  0
 21 22  1  0
 22 23  1  0
 14 24  2  0
 24 25  1  0
 25 26  2  0
 26 27  1  0
  7 28  2  0
 28  3  1  0
 26 12  1  0
 23 18  1  0
  1 29  1  0
  1 30  1  0
  1 31  1  0
  4 32  1  0
  5 33  1  0
  6 34  1  0
 13 35  1  0
 19 36  1  0
 19 37  1  0
 20 38  1  0
 20 39  1  0
 21 40  1  0
 21 41  1  0
 22 42  1  0
 22 43  1  0
 23 44  1  0
 23 45  1  0
 24 46  1  0
 25 47  1  0
 27 48  1  0
 28 49  1  0
M  CHG  1  11  -1
M  END
>  <UniqueID>  (27) 
26

>  <SMILES>  (27) 
COc1cccc(S(=O)(=O)[N-]c2cc(S(=O)(=O)N3CCCCC3)ccc2O)c1

>  <Energy>  (27) 
57.03834484300514

>  <Genealogy>  (27) 
COc1cccc(S(=O)(=O)[N-]c2cc(S(=O)(=O)N3CCCCC3)ccc2O)c1 (protonated)
COc1cccc(S(=O)(=O)[N-]c2cc(S(=O)(=O)N3CCCCC3)ccc2O)c1 (3D coordinates assigned)
COc1cccc(S(=O)(=O)[N-]c2cc(S(=O)(=O)N3CCCCC3)ccc2O)c1 (nonaromatic ring conformer: 57.03834484300514 kcal/mol)

>  <smiles>  (27) 
COc1cccc(S(=O)(=O)Nc2cc(S(=O)(=O)N3CCCCC3)ccc2O)c1

>  <score_type>  (27) 
oracle

>  <origin>  (27) 
adgpu

>  <m_score__min__energy>  (27) 
-10.9

>  <m_primary>  (27) 
energy

$$$$
27:0
     RDKit          3D

 35 37  0  0  0  0  0  0  0  0999 V2000
  -10.0434   22.6201  -31.4141 H   0  0  0  0  0  0  0  0  0  0  0  0
   -8.9980   22.3770  -31.6550 C   0  0  0  0  0  0  0  0  0  0  0  0
   -8.0250   23.2950  -31.4400 N   0  0  0  0  0  0  0  0  0  0  0  0
   -6.7200   23.0350  -31.7080 C   0  0  0  0  0  0  0  0  0  0  0  0
   -5.7500   24.0670  -31.4850 N   0  0  0  0  0  0  0  0  0  0  0  0
   -4.7430   24.0160  -30.6630 C   0  0  0  0  0  0  0  0  0  0  0  0
   -3.8570   25.0280  -30.5530 N   0  0  0  0  0  0  0  0  0  0  0  0
   -2.9230   24.7690  -29.6000 C   0  0  0  0  0  0  0  0  0  0  0  0
   -1.9040   25.6670  -29.3140 O   0  0  0  0  0  0  0  0  0  0  0  0
   -3.0600   23.5580  -28.9320 C   0  0  0  0  0  0  0  0  0  0  0  0
   -2.4040   23.1781  -28.1350 H   0  0  0  0  0  0  0  0  0  0  0  0
   -4.4110   22.7780  -29.5630 S   0  0  0  0  0  0  0  0  0  0  0  0
   -6.3630   21.8010  -32.2760 C   0  0  0  0  0  0  0  0  0  0  0  0
   -5.3125   21.6047  -32.5367 H   0  0  0  0  0  0  0  0  0  0  0  0
   -7.3420   20.8080  -32.5160 C   0  0  0  0  0  0  0  0  0  0  0  0
   -6.9870   19.5060  -33.0830 N   0  0  0  0  0  0  0  0  0  0  0  0
   -7.4580   18.2810  -32.3990 C   0  0  0  0  0  0  0  0  0  0  0  0
   -8.5539   18.3336  -32.3203 H   0  0  0  0  0  0  0  0  0  0  0  0
   -6.9517   18.2589  -31.4227 H   0  0  0  0  0  0  0  0  0  0  0  0
   -7.0930   16.9660  -33.1030 C   0  0  0  0  0  0  0  0  0  0  0  0
   -7.8570   16.7530  -33.8651 H   0  0  0  0  0  0  0  0  0  0  0  0
   -7.0505   16.1820  -32.3326 H   0  0  0  0  0  0  0  0  0  0  0  0
   -5.7800   17.0090  -33.7570 N   0  0  0  0  0  0  0  0  0  0  0  0
   -4.6650   17.1320  -32.8020 C   0  0  0  0  0  0  0  0  0  0  0  0
   -5.0557   17.0889  -31.7746 H   0  0  0  0  0  0  0  0  0  0  0  0
   -3.9549   16.3067  -32.9591 H   0  0  0  0  0  0  0  0  0  0  0  0
   -4.1519   18.0922  -32.9591 H   0  0  0  0  0  0  0  0  0  0  0  0
   -5.7740   18.0550  -34.7840 C   0  0  0  0  0  0  0  0  0  0  0  0
   -6.5546   17.8238  -35.5237 H   0  0  0  0  0  0  0  0  0  0  0  0
   -4.7704   18.0668  -35.2342 H   0  0  0  0  0  0  0  0  0  0  0  0
   -6.0380   19.4580  -34.2170 C   0  0  0  0  0  0  0  0  0  0  0  0
   -6.4424   20.0828  -35.0270 H   0  0  0  0  0  0  0  0  0  0  0  0
   -5.0746   19.8181  -33.8269 H   0  0  0  0  0  0  0  0  0  0  0  0
   -8.6790   21.1240  -32.1810 C   0  0  0  0  0  0  0  0  0  0  0  0
   -9.4724   20.3780  -32.3358 H   0  0  0  0  0  0  0  0  0  0  0  0
  1  2  1  0
  2  3  2  0
  3  4  1  0
  4  5  1  0
  5  6  2  0
  6  7  1  0
  7  8  1  0
  8  9  1  0
  8 10  2  0
 10 11  1  0
 10 12  1  0
  4 13  2  0
 13 14  1  0
 13 15  1  0
 15 16  1  0
 16 17  1  0
 17 18  1  0
 17 19  1  0
 17 20  1  0
 20 21  1  0
 20 22  1  0
 20 23  1  0
 23 24  1  0
 24 25  1  0
 24 26  1  0
 24 27  1  0
 23 28  1  0
 28 29  1  0
 28 30  1  0
 28 31  1  0
 31 32  1  0
 31 33  1  0
 15 34  2  0
 34 35  1  0
 34  2  1  0
 12  6  1  0
 31 16  1  0
M  CHG  2   7  -1   9  -1
M  END
>  <UniqueID>  (28) 
27

>  <SMILES>  (28) 
CN1CCN(c2ccnc(/N=c3/[n-]c([O-])cs3)c2)CC1

>  <Energy>  (28) 
85.20362918454556

>  <Genealogy>  (28) 
CN1CCN(c2ccnc(N=c3[n-]c([O-])cs3)c2)CC1 (protonated)
CN1CCN(c2ccnc(/N=c3/[n-]c([O-])cs3)c2)CC1 (cis-trans isomerization)
CN1CCN(c2ccnc(/N=c3/[n-]c([O-])cs3)c2)CC1 (3D coordinates assigned)
CN1CCN(c2ccnc(/N=c3/[n-]c([O-])cs3)c2)CC1 (nonaromatic ring conformer: 85.20362918454556 kcal/mol)

>  <smiles>  (28) 
CN1CCN(c2ccnc(N=c3[nH]c(O)cs3)c2)CC1

>  <score_type>  (28) 
oracle

>  <origin>  (28) 
adgpu

>  <m_score__min__energy>  (28) 
-12.32

>  <m_primary>  (28) 
energy

$$$$
28:0
     RDKit          3D

 59 62  0  0  0  0  0  0  0  0999 V2000
    2.2300   16.5000  -27.6380 C   0  0  0  0  0  0  0  0  0  0  0  0
    1.0330   17.3840  -27.5630 C   0  0  0  0  0  0  0  0  0  0  0  0
    0.9050   18.6290  -28.1370 C   0  0  0  0  0  0  0  0  0  0  0  0
   -0.3830   19.0110  -27.7980 C   0  0  0  0  0  0  0  0  0  0  0  0
   -1.0570   20.2790  -28.1540 C   0  0  0  0  0  0  0  0  0  0  0  0
   -2.4480   20.4060  -27.9880 C   0  0  0  0  0  0  0  0  0  0  0  0
   -3.0950   21.6000  -28.3170 C   0  0  0  0  0  0  0  0  0  0  0  0
   -2.3650   22.6800  -28.8280 C   0  0  0  0  0  0  0  0  0  0  0  0
   -3.1640   24.1860  -29.2640 S   0  0  0  0  0  0  0  0  0  0  0  0
   -2.1440   25.2860  -29.2850 O   0  0  0  0  0  0  0  0  0  0  0  0
   -4.2270   24.5430  -28.2620 O   0  0  0  0  0  0  0  0  0  0  0  0
   -3.8710   24.0400  -30.8400 N   0  0  0  0  0  0  0  0  0  0  0  0
   -3.8460   22.8610  -31.6560 C   0  0  0  0  0  0  0  0  0  0  0  0
   -2.6290   22.1870  -31.8230 C   0  0  0  0  0  0  0  0  0  0  0  0
   -2.5580   21.0380  -32.6170 C   0  0  0  0  0  0  0  0  0  0  0  0
   -3.7050   20.5540  -33.2650 C   0  0  0  0  0  0  0  0  0  0  0  0
   -3.6400   19.3080  -34.1090 C   0  0  0  0  0  0  0  0  0  0  0  0
   -3.8440   18.0560  -33.2500 C   0  0  0  0  0  0  0  0  0  0  0  0
   -5.0750   18.1690  -32.4490 N   0  0  0  0  0  0  0  0  0  0  0  0
   -6.2940   18.3380  -33.2620 C   0  0  0  0  0  0  0  0  0  0  0  0
   -7.5620   18.1520  -32.4080 C   0  0  1  0  0  0  0  0  0  0  0  0
   -7.2360   17.4990  -31.2080 O   0  0  0  0  0  0  0  0  0  0  0  0
   -8.2090   19.4810  -32.0900 C   0  0  0  0  0  0  0  0  0  0  0  0
   -7.5360   20.4470  -31.3220 C   0  0  0  0  0  0  0  0  0  0  0  0
   -8.1410   21.6770  -31.0570 C   0  0  0  0  0  0  0  0  0  0  0  0
   -9.4120   21.9390  -31.5740 C   0  0  0  0  0  0  0  0  0  0  0  0
  -10.0500   21.0010  -32.3250 N   0  0  0  0  0  0  0  0  0  0  0  0
   -9.4840   19.7940  -32.5930 C   0  0  0  0  0  0  0  0  0  0  0  0
   -4.9260   21.2220  -33.0910 C   0  0  0  0  0  0  0  0  0  0  0  0
   -4.9970   22.3700  -32.2970 C   0  0  0  0  0  0  0  0  0  0  0  0
   -0.9820   22.5560  -29.0060 C   0  0  0  0  0  0  0  0  0  0  0  0
   -0.3310   21.3680  -28.6660 C   0  0  0  0  0  0  0  0  0  0  0  0
   -0.9610   18.0300  -27.0740 N   0  0  0  0  0  0  0  0  0  0  0  0
   -0.0870   17.0730  -26.9580 O   0  0  0  0  0  0  0  0  0  0  0  0
    2.5666   16.2514  -26.6207 H   0  0  0  0  0  0  0  0  0  0  0  0
    1.9700   15.5755  -28.1743 H   0  0  0  0  0  0  0  0  0  0  0  0
    3.0371   17.0204  -28.1743 H   0  0  0  0  0  0  0  0  0  0  0  0
    1.6484   19.1874  -28.7248 H   0  0  0  0  0  0  0  0  0  0  0  0
   -3.0307   19.5592  -27.5963 H   0  0  0  0  0  0  0  0  0  0  0  0
   -4.1818   21.6918  -28.1740 H   0  0  0  0  0  0  0  0  0  0  0  0
   -1.7231   22.5643  -31.3261 H   0  0  0  0  0  0  0  0  0  0  0  0
   -1.5993   20.5115  -32.7341 H   0  0  0  0  0  0  0  0  0  0  0  0
   -4.4272   19.3509  -34.8761 H   0  0  0  0  0  0  0  0  0  0  0  0
   -2.6476   19.2536  -34.5803 H   0  0  0  0  0  0  0  0  0  0  0  0
   -3.9196   17.1763  -33.9061 H   0  0  0  0  0  0  0  0  0  0  0  0
   -2.9870   17.9513  -32.5684 H   0  0  0  0  0  0  0  0  0  0  0  0
   -5.1730   17.2850  -31.8980 H   0  0  0  0  0  0  0  0  0  0  0  0
   -6.2987   19.3487  -33.6962 H   0  0  0  0  0  0  0  0  0  0  0  0
   -6.2927   17.5757  -34.0550 H   0  0  0  0  0  0  0  0  0  0  0  0
   -8.2739   17.5452  -32.9868 H   0  0  0  0  0  0  0  0  0  0  0  0
   -6.3670   17.8710  -30.9050 H   0  0  0  0  0  0  0  0  0  0  0  0
   -6.5310   20.2335  -30.9291 H   0  0  0  0  0  0  0  0  0  0  0  0
   -7.6224   22.4317  -30.4476 H   0  0  0  0  0  0  0  0  0  0  0  0
   -9.8978   22.9053  -31.3736 H   0  0  0  0  0  0  0  0  0  0  0  0
  -10.0262   19.0591  -33.2062 H   0  0  0  0  0  0  0  0  0  0  0  0
   -5.8330   20.8401  -33.5824 H   0  0  0  0  0  0  0  0  0  0  0  0
   -5.9575   22.8916  -32.1731 H   0  0  0  0  0  0  0  0  0  0  0  0
   -0.4052   23.3983  -29.4156 H   0  0  0  0  0  0  0  0  0  0  0  0
    0.7576   21.2841  -28.7999 H   0  0  0  0  0  0  0  0  0  0  0  0
  1  2  1  0
  2  3  2  0
  3  4  1  0
  4  5  1  0
  5  6  2  0
  6  7  1  0
  7  8  2  0
  8  9  1  0
  9 10  2  0
  9 11  2  0
  9 12  1  0
 12 13  1  0
 13 14  2  0
 14 15  1  0
 15 16  2  0
 16 17  1  0
 17 18  1  0
 18 19  1  0
 19 20  1  0
 20 21  1  0
 21 22  1  0
 21 23  1  0
 23 24  2  0
 24 25  1  0
 25 26  2  0
 26 27  1  0
 27 28  2  0
 16 29  1  0
 29 30  2  0
  8 31  1  0
 31 32  2  0
  4 33  2  0
 33 34  1  0
 34  2  1  0
 32  5  1  0
 30 13  1  0
 28 23  1  0
  1 35  1  0
  1 36  1  0
  1 37  1  0
  3 38  1  0
  6 39  1  0
  7 40  1  0
 14 41  1  0
 15 42  1  0
 17 43  1  0
 17 44  1  0
 18 45  1  0
 18 46  1  0
 19 47  1  0
 20 48  1  0
 20 49  1  0
 21 50  1  6
 22 51  1  0
 24 52  1  0
 25 53  1  0
 26 54  1  0
 28 55  1  0
 29 56  1  0
 30 57  1  0
 31 58  1  0
 32 59  1  0
M  CHG  1  12  -1
M  END
>  <UniqueID>  (29) 
28

>  <SMILES>  (29) 
Cc1cc(-c2ccc(S(=O)(=O)[N-]c3ccc(CCNC[C@@H](O)c4cccnc4)cc3)cc2)no1

>  <Energy>  (29) 
96.31909359856064

>  <Genealogy>  (29) 
Cc1cc(-c2ccc(S(=O)(=O)[N-]c3ccc(CCNCC(O)c4cccnc4)cc3)cc2)no1 (protonated)
Cc1cc(-c2ccc(S(=O)(=O)[N-]c3ccc(CCNC[C@@H](O)c4cccnc4)cc3)cc2)no1 (chirality)
Cc1cc(-c2ccc(S(=O)(=O)[N-]c3ccc(CCNC[C@@H](O)c4cccnc4)cc3)cc2)no1 (3D coordinates assigned)
Cc1cc(-c2ccc(S(=O)(=O)[N-]c3ccc(CCNC[C@@H](O)c4cccnc4)cc3)cc2)no1 (optimized conformer: 96.31909359856064 kcal/mol)

>  <smiles>  (29) 
Cc1cc(-c2ccc(S(=O)(=O)Nc3ccc(CCNCC(O)c4cccnc4)cc3)cc2)no1

>  <score_type>  (29) 
oracle

>  <origin>  (29) 
adgpu

>  <m_score__min__energy>  (29) 
-11.43

>  <m_primary>  (29) 
energy

$$$$
29:0
     RDKit          3D

 55 58  0  0  0  0  0  0  0  0999 V2000
   -1.1290   25.6540  -28.3500 C   0  0  0  0  0  0  0  0  0  0  0  0
   -1.9730   24.5770  -28.9520 C   0  0  0  0  0  0  0  0  0  0  0  0
   -1.6760   23.2290  -28.7250 C   0  0  0  0  0  0  0  0  0  0  0  0
   -2.5110   22.2600  -29.2800 C   0  0  0  0  0  0  0  0  0  0  0  0
   -3.5920   22.6370  -30.0100 N   0  0  0  0  0  0  0  0  0  0  0  0
   -3.8770   23.9510  -30.2130 C   0  0  0  0  0  0  0  0  0  0  0  0
   -4.9120   24.3080  -30.9090 N   0  0  0  0  0  0  0  0  0  0  0  0
   -6.0180   23.1930  -31.6460 S   0  0  0  0  0  0  0  0  0  0  0  0
   -6.9980   22.6860  -30.6250 O   0  0  0  0  0  0  0  0  0  0  0  0
   -6.7870   23.9070  -32.7210 O   0  0  0  0  0  0  0  0  0  0  0  0
   -5.1260   21.8520  -32.3590 C   0  0  0  0  0  0  0  0  0  0  0  0
   -5.6480   20.5520  -32.3210 C   0  0  0  0  0  0  0  0  0  0  0  0
   -4.9270   19.4870  -32.8680 C   0  0  0  0  0  0  0  0  0  0  0  0
   -3.6670   19.7030  -33.4440 C   0  0  0  0  0  0  0  0  0  0  0  0
   -2.9670   18.5810  -34.0010 N   0  0  0  0  0  0  0  0  0  0  0  0
   -1.5740   18.2750  -33.8450 C   0  0  0  0  0  0  0  0  0  0  0  0
   -0.8750   17.9750  -34.8510 O   0  0  0  0  0  0  0  0  0  0  0  0
   -0.9400   18.3700  -32.5090 C   0  0  0  0  0  0  0  0  0  0  0  0
   -0.9030   19.5960  -31.8210 C   0  0  0  0  0  0  0  0  0  0  0  0
   -0.3020   19.6850  -30.5620 C   0  0  0  0  0  0  0  0  0  0  0  0
    0.2630   18.5510  -29.9640 C   0  0  0  0  0  0  0  0  0  0  0  0
    1.0370   18.6680  -28.3780 S   0  0  0  0  0  0  0  0  0  0  0  0
    1.6690   17.3470  -28.0450 O   0  0  0  0  0  0  0  0  0  0  0  0
    2.1260   19.7020  -28.4400 O   0  0  0  0  0  0  0  0  0  0  0  0
   -0.0810   19.0990  -27.1060 N   0  0  0  0  0  0  0  0  0  0  0  0
   -0.5750   20.4680  -27.2470 C   0  0  0  0  0  0  0  0  0  0  0  0
   -1.9260   20.5120  -26.5500 C   0  0  0  0  0  0  0  0  0  0  0  0
   -2.3790   19.0600  -26.4540 C   0  0  0  0  0  0  0  0  0  0  0  0
   -1.2710   18.2500  -27.1070 C   0  0  0  0  0  0  0  0  0  0  0  0
    0.2350   17.3300  -30.6470 C   0  0  0  0  0  0  0  0  0  0  0  0
   -0.3650   17.2370  -31.9050 C   0  0  0  0  0  0  0  0  0  0  0  0
   -3.1540   21.0100  -33.5000 C   0  0  0  0  0  0  0  0  0  0  0  0
   -3.8770   22.0750  -32.9510 C   0  0  0  0  0  0  0  0  0  0  0  0
   -3.0700   24.9070  -29.6820 N   0  0  0  0  0  0  0  0  0  0  0  0
   -1.1796   25.5894  -27.2531 H   0  0  0  0  0  0  0  0  0  0  0  0
   -0.0862   25.5285  -28.6770 H   0  0  0  0  0  0  0  0  0  0  0  0
   -1.5001   26.6365  -28.6770 H   0  0  0  0  0  0  0  0  0  0  0  0
   -0.8028   22.9398  -28.1218 H   0  0  0  0  0  0  0  0  0  0  0  0
   -2.2944   21.1925  -29.1268 H   0  0  0  0  0  0  0  0  0  0  0  0
   -6.6292   20.3691  -31.8587 H   0  0  0  0  0  0  0  0  0  0  0  0
   -5.3510   18.4722  -32.8465 H   0  0  0  0  0  0  0  0  0  0  0  0
   -1.3503   20.4916  -32.2769 H   0  0  0  0  0  0  0  0  0  0  0  0
   -0.2725   20.6515  -30.0375 H   0  0  0  0  0  0  0  0  0  0  0  0
    0.1214   21.1744  -26.7715 H   0  0  0  0  0  0  0  0  0  0  0  0
   -0.6636   20.7525  -28.3059 H   0  0  0  0  0  0  0  0  0  0  0  0
   -1.8273   20.9515  -25.5465 H   0  0  0  0  0  0  0  0  0  0  0  0
   -2.6502   21.1311  -27.0999 H   0  0  0  0  0  0  0  0  0  0  0  0
   -2.5038   18.7641  -25.4019 H   0  0  0  0  0  0  0  0  0  0  0  0
   -3.3492   18.8997  -26.9470 H   0  0  0  0  0  0  0  0  0  0  0  0
   -1.0828   17.3311  -26.5324 H   0  0  0  0  0  0  0  0  0  0  0  0
   -1.5459   17.9513  -28.1294 H   0  0  0  0  0  0  0  0  0  0  0  0
    0.6883   16.4378  -30.1904 H   0  0  0  0  0  0  0  0  0  0  0  0
   -0.3881   16.2695  -32.4279 H   0  0  0  0  0  0  0  0  0  0  0  0
   -2.1806   21.1967  -33.9771 H   0  0  0  0  0  0  0  0  0  0  0  0
   -3.4617   23.0930  -32.9848 H   0  0  0  0  0  0  0  0  0  0  0  0
  1  2  1  0
  2  3  1  0
  3  4  2  0
  4  5  1  0
  5  6  1  0
  6  7  2  3
  7  8  1  0
  8  9  2  0
  8 10  2  0
  8 11  1  0
 11 12  2  0
 12 13  1  0
 13 14  2  0
 14 15  1  0
 15 16  1  0
 16 17  2  0
 16 18  1  0
 18 19  2  0
 19 20  1  0
 20 21  2  0
 21 22  1  0
 22 23  2  0
 22 24  2  0
 22 25  1  0
 25 26  1  0
 26 27  1  0
 27 28  1  0
 28 29  1  0
 21 30  1  0
 30 31  2  0
 14 32  1  0
 32 33  2  0
  6 34  1  0
 34  2  2  0
 33 11  1  0
 31 18  1  0
 29 25  1  0
  1 35  1  0
  1 36  1  0
  1 37  1  0
  3 38  1  0
  4 39  1  0
 12 40  1  0
 13 41  1  0
 19 42  1  0
 20 43  1  0
 26 44  1  0
 26 45  1  0
 27 46  1  0
 27 47  1  0
 28 48  1  0
 28 49  1  0
 29 50  1  0
 29 51  1  0
 30 52  1  0
 31 53  1  0
 32 54  1  0
 33 55  1  0
M  CHG  2   5  -1  15  -1
M  END
>  <UniqueID>  (30) 
29

>  <SMILES>  (30) 
Cc1cc[n-]c(=NS(=O)(=O)c2ccc([N-]C(=O)c3ccc(S(=O)(=O)N4CCCC4)cc3)cc2)n1

>  <Energy>  (30) 
66.81620602995937

>  <Genealogy>  (30) 
Cc1cc[n-]c(=NS(=O)(=O)c2ccc([N-]C(=O)c3ccc(S(=O)(=O)N4CCCC4)cc3)cc2)n1 (protonated)
Cc1cc[n-]c(=NS(=O)(=O)c2ccc([N-]C(=O)c3ccc(S(=O)(=O)N4CCCC4)cc3)cc2)n1 (3D coordinates assigned)
Cc1cc[n-]c(=NS(=O)(=O)c2ccc([N-]C(=O)c3ccc(S(=O)(=O)N4CCCC4)cc3)cc2)n1 (nonaromatic ring conformer: 66.81620602995937 kcal/mol)

>  <smiles>  (30) 
Cc1cc[nH]c(=NS(=O)(=O)c2ccc(NC(=O)c3ccc(S(=O)(=O)N4CCCC4)cc3)cc2)n1

>  <score_type>  (30) 
oracle

>  <origin>  (30) 
adgpu

>  <m_score__min__energy>  (30) 
-12.32

>  <m_primary>  (30) 
energy

$$$$
30:0
     RDKit          3D

 94 98  0  0  0  0  0  0  0  0999 V2000
    1.8240   19.7910  -34.4230 C   0  0  0  0  0  0  0  0  0  0  0  0
    0.6590   19.4740  -35.3680 C   0  0  0  0  0  0  0  0  0  0  0  0
   -0.6760   19.6710  -34.6330 C   0  0  0  0  0  0  0  0  0  0  0  0
    0.8060   18.0390  -35.9220 C   0  0  0  0  0  0  0  0  0  0  0  0
    2.1020   17.3550  -35.4560 C   0  0  0  0  0  0  0  0  0  0  0  0
    1.9470   15.8270  -35.4430 C   0  0  0  0  0  0  0  0  0  0  0  0
    1.5260   15.1960  -34.0860 C   0  0  1  0  0  0  0  0  0  0  0  0
    2.6400   15.4190  -33.0410 C   0  0  0  0  0  0  0  0  0  0  0  0
    0.1150   15.4990  -33.4490 C   0  0  1  0  0  0  0  0  0  0  0  0
   -0.2310   16.9420  -33.0950 C   0  0  0  0  0  0  0  0  0  0  0  0
   -1.6930   16.9040  -32.6450 C   0  0  0  0  0  0  0  0  0  0  0  0
   -2.2540   15.5100  -33.0180 C   0  0  1  0  0  0  0  0  0  0  0  0
   -3.6910   15.5480  -33.6170 C   0  0  1  0  0  0  0  0  0  0  0  0
   -4.7570   16.1170  -32.6420 C   0  0  0  0  0  0  0  0  0  0  0  0
   -6.2110   16.0190  -33.1530 C   0  0  2  0  0  0  0  0  0  0  0  0
   -6.2720   15.3400  -34.3820 O   0  0  0  0  0  0  0  0  0  0  0  0
   -6.8100   17.4380  -33.3040 C   0  0  1  0  0  0  0  0  0  0  0  0
   -6.6080   18.5530  -32.2760 C   0  0  2  0  0  0  0  0  0  0  0  0
   -6.1630   18.0190  -30.8780 C   0  0  0  0  0  0  0  0  0  0  0  0
   -7.2410   19.9390  -32.2270 C   0  0  0  0  0  0  0  0  0  0  0  0
   -6.2380   20.9370  -31.6720 C   0  0  0  0  0  0  0  0  0  0  0  0
   -4.8770   20.9720  -31.8290 C   0  0  0  0  0  0  0  0  0  0  0  0
   -4.1470   21.9810  -31.0210 C   0  0  0  0  0  0  0  0  0  0  0  0
   -4.3470   23.3540  -31.2510 C   0  0  0  0  0  0  0  0  0  0  0  0
   -3.6680   24.3060  -30.4830 C   0  0  0  0  0  0  0  0  0  0  0  0
   -3.8870   25.6580  -30.7230 O   0  0  0  0  0  0  0  0  0  0  0  0
   -2.7760   23.8960  -29.4780 C   0  0  0  0  0  0  0  0  0  0  0  0
   -2.0860   24.8290  -28.7060 O   0  0  0  0  0  0  0  0  0  0  0  0
   -2.5760   22.5300  -29.2470 C   0  0  0  0  0  0  0  0  0  0  0  0
   -1.6910   22.1130  -28.2600 O   0  0  0  0  0  0  0  0  0  0  0  0
   -3.2600   21.5780  -30.0100 C   0  0  0  0  0  0  0  0  0  0  0  0
   -4.0180   20.1990  -32.8510 C   0  0  0  0  0  0  0  0  0  0  0  0
   -4.2950   18.6980  -33.1100 C   0  0  0  0  0  0  0  0  0  0  0  0
   -5.7390   18.5060  -33.5720 C   0  0  1  0  0  0  0  0  0  0  0  0
   -6.0980   19.2720  -34.8780 C   0  0  0  0  0  0  0  0  0  0  0  0
   -3.7470   16.3120  -34.9670 C   0  0  0  0  0  0  0  0  0  0  0  0
   -2.4120   16.3340  -35.7260 C   0  0  0  0  0  0  0  0  0  0  0  0
   -1.5810   15.0750  -35.4640 C   0  0  0  0  0  0  0  0  0  0  0  0
   -1.2060   14.8380  -33.9570 C   0  0  1  0  0  0  0  0  0  0  0  0
   -1.1550   13.3090  -33.7110 C   0  0  0  0  0  0  0  0  0  0  0  0
    1.4858   19.6990  -33.3803 H   0  0  0  0  0  0  0  0  0  0  0  0
    2.6468   19.0841  -34.6053 H   0  0  0  0  0  0  0  0  0  0  0  0
    2.1752   20.8174  -34.6053 H   0  0  0  0  0  0  0  0  0  0  0  0
    0.6751   20.1645  -36.2241 H   0  0  0  0  0  0  0  0  0  0  0  0
   -0.5038   19.6456  -33.5469 H   0  0  0  0  0  0  0  0  0  0  0  0
   -1.1088   20.6427  -34.9130 H   0  0  0  0  0  0  0  0  0  0  0  0
   -1.3710   18.8657  -34.9130 H   0  0  0  0  0  0  0  0  0  0  0  0
   -0.0510   17.4400  -35.5804 H   0  0  0  0  0  0  0  0  0  0  0  0
    0.8415   18.1075  -37.0193 H   0  0  0  0  0  0  0  0  0  0  0  0
    2.9184   17.6275  -36.1410 H   0  0  0  0  0  0  0  0  0  0  0  0
    2.3267   17.6921  -34.4333 H   0  0  0  0  0  0  0  0  0  0  0  0
    1.1844   15.5598  -36.1894 H   0  0  0  0  0  0  0  0  0  0  0  0
    2.9482   15.4256  -35.6586 H   0  0  0  0  0  0  0  0  0  0  0  0
    1.3873   14.1452  -34.3803 H   0  0  0  0  0  0  0  0  0  0  0  0
    2.2162   15.3342  -32.0295 H   0  0  0  0  0  0  0  0  0  0  0  0
    3.4251   14.6602  -33.1744 H   0  0  0  0  0  0  0  0  0  0  0  0
    3.0725   16.4215  -33.1744 H   0  0  0  0  0  0  0  0  0  0  0  0
    0.4294   14.9151  -32.5714 H   0  0  0  0  0  0  0  0  0  0  0  0
    0.4140   17.3050  -32.2812 H   0  0  0  0  0  0  0  0  0  0  0  0
   -0.0799   17.6222  -33.9462 H   0  0  0  0  0  0  0  0  0  0  0  0
   -1.7561   17.0564  -31.5574 H   0  0  0  0  0  0  0  0  0  0  0  0
   -2.2720   17.7005  -33.1353 H   0  0  0  0  0  0  0  0  0  0  0  0
   -2.3903   14.9074  -32.1079 H   0  0  0  0  0  0  0  0  0  0  0  0
   -3.9441   14.4929  -33.7977 H   0  0  0  0  0  0  0  0  0  0  0  0
   -4.6876   15.5614  -31.6951 H   0  0  0  0  0  0  0  0  0  0  0  0
   -4.5370   17.1889  -32.5296 H   0  0  0  0  0  0  0  0  0  0  0  0
   -6.7973   15.4486  -32.4175 H   0  0  0  0  0  0  0  0  0  0  0  0
   -6.8790   15.8520  -34.9770 H   0  0  0  0  0  0  0  0  0  0  0  0
   -7.7353   17.0522  -33.7567 H   0  0  0  0  0  0  0  0  0  0  0  0
   -6.6530   18.6070  -30.0879 H   0  0  0  0  0  0  0  0  0  0  0  0
   -6.4512   16.9619  -30.7805 H   0  0  0  0  0  0  0  0  0  0  0  0
   -5.0713   18.1119  -30.7805 H   0  0  0  0  0  0  0  0  0  0  0  0
   -7.5366   20.2428  -33.2421 H   0  0  0  0  0  0  0  0  0  0  0  0
   -8.1286   19.9130  -31.5778 H   0  0  0  0  0  0  0  0  0  0  0  0
   -6.6642   21.7443  -31.0583 H   0  0  0  0  0  0  0  0  0  0  0  0
   -5.0412   23.6811  -32.0391 H   0  0  0  0  0  0  0  0  0  0  0  0
   -1.4770   24.5520  -27.9440 H   0  0  0  0  0  0  0  0  0  0  0  0
   -3.1020   20.5067  -29.8167 H   0  0  0  0  0  0  0  0  0  0  0  0
   -4.1302   20.7147  -33.8161 H   0  0  0  0  0  0  0  0  0  0  0  0
   -3.0172   20.1985  -32.3944 H   0  0  0  0  0  0  0  0  0  0  0  0
   -3.6111   18.3304  -33.8892 H   0  0  0  0  0  0  0  0  0  0  0  0
   -4.1357   18.1351  -32.1785 H   0  0  0  0  0  0  0  0  0  0  0  0
   -6.5520   20.2407  -34.6219 H   0  0  0  0  0  0  0  0  0  0  0  0
   -5.1846   19.4396  -35.4677 H   0  0  0  0  0  0  0  0  0  0  0  0
   -6.8112   18.6773  -35.4677 H   0  0  0  0  0  0  0  0  0  0  0  0
   -4.5010   15.8300  -35.6066 H   0  0  0  0  0  0  0  0  0  0  0  0
   -3.9977   17.3570  -34.7321 H   0  0  0  0  0  0  0  0  0  0  0  0
   -2.6179   16.4053  -36.8042 H   0  0  0  0  0  0  0  0  0  0  0  0
   -1.8349   17.2011  -35.3722 H   0  0  0  0  0  0  0  0  0  0  0  0
   -2.1563   14.2055  -35.8148 H   0  0  0  0  0  0  0  0  0  0  0  0
   -0.6317   15.2116  -36.0027 H   0  0  0  0  0  0  0  0  0  0  0  0
   -1.1484   13.1117  -32.6288 H   0  0  0  0  0  0  0  0  0  0  0  0
   -2.0378   12.8350  -34.1648 H   0  0  0  0  0  0  0  0  0  0  0  0
   -0.2425   12.8948  -34.1648 H   0  0  0  0  0  0  0  0  0  0  0  0
  1  2  1  0
  2  3  1  0
  2  4  1  0
  4  5  1  0
  5  6  1  0
  6  7  1  0
  7  8  1  0
  7  9  1  0
  9 10  1  0
 10 11  1  0
 11 12  1  0
 12 13  1  0
 13 14  1  0
 14 15  1  0
 15 16  1  0
 15 17  1  0
 17 18  1  0
 18 19  1  1
 18 20  1  0
 20 21  1  0
 21 22  2  0
 22 23  1  0
 23 24  2  0
 24 25  1  0
 25 26  1  0
 25 27  2  0
 27 28  1  0
 27 29  1  0
 29 30  1  0
 29 31  2  0
 22 32  1  0
 32 33  1  0
 33 34  1  0
 34 35  1  6
 13 36  1  0
 36 37  1  0
 37 38  1  0
 38 39  1  0
 39 40  1  1
 39  9  1  0
 39 12  1  0
 34 17  1  0
 34 18  1  0
 31 23  1  0
  1 41  1  0
  1 42  1  0
  1 43  1  0
  2 44  1  0
  3 45  1  0
  3 46  1  0
  3 47  1  0
  4 48  1  0
  4 49  1  0
  5 50  1  0
  5 51  1  0
  6 52  1  0
  6 53  1  0
  7 54  1  6
  8 55  1  0
  8 56  1  0
  8 57  1  0
  9 58  1  1
 10 59  1  0
 10 60  1  0
 11 61  1  0
 11 62  1  0
 12 63  1  1
 13 64  1  6
 14 65  1  0
 14 66  1  0
 15 67  1  1
 16 68  1  0
 17 69  1  6
 19 70  1  0
 19 71  1  0
 19 72  1  0
 20 73  1  0
 20 74  1  0
 21 75  1  0
 24 76  1  0
 28 77  1  0
 31 78  1  0
 32 79  1  0
 32 80  1  0
 33 81  1  0
 33 82  1  0
 35 83  1  0
 35 84  1  0
 35 85  1  0
 36 86  1  0
 36 87  1  0
 37 88  1  0
 37 89  1  0
 38 90  1  0
 38 91  1  0
 40 92  1  0
 40 93  1  0
 40 94  1  0
M  CHG  2  26  -1  30  -1
M  END
>  <UniqueID>  (31) 
30

>  <SMILES>  (31) 
CC(C)CCC[C@@H](C)[C@H]1CCC2C(CC(O)C3C4(C)CC=C(c5cc([O-])c(O)c([O-])c5)CCC34C)CCCC21C

>  <Energy>  (31) 
437.19483922383387

>  <Genealogy>  (31) 
CC(C)CCCC(C)C1CCC2C(CC(O)C3C4(C)CC=C(c5cc([O-])c(O)c([O-])c5)CCC34C)CCCC12C (protonated)
CC(C)CCC[C@@H](C)[C@H]1CCC2C(CC(O)C3C4(C)CC=C(c5cc([O-])c(O)c([O-])c5)CCC34C)CCCC21C (chirality)
CC(C)CCC[C@@H](C)[C@H]1CCC2C(CC(O)C3C4(C)CC=C(c5cc([O-])c(O)c([O-])c5)CCC34C)CCCC21C (3D coordinates assigned)
CC(C)CCC[C@@H](C)[C@H]1CCC2C(CC(O)C3C4(C)CC=C(c5cc([O-])c(O)c([O-])c5)CCC34C)CCCC21C (nonaromatic ring conformer: 437.19483922383387 kcal/mol)

>  <smiles>  (31) 
CC(C)CCCC(C)C1CCC2C(CC(O)C3C4(C)CC=C(c5cc(O)c(O)c(O)c5)CCC34C)CCCC12C

>  <score_type>  (31) 
oracle

>  <origin>  (31) 
adgpu

>  <m_score__min__energy>  (31) 
-11.06

>  <m_primary>  (31) 
energy

$$$$
31:0
     RDKit          3D

 41 44  0  0  0  0  0  0  0  0999 V2000
   -9.4250   19.2853  -33.2709 H   0  0  0  0  0  0  0  0  0  0  0  0
   -8.8330   20.0570  -32.7570 C   0  0  0  0  0  0  0  0  0  0  0  0
   -7.4850   20.0980  -32.9190 N   0  0  0  0  0  0  0  0  0  0  0  0
   -6.7150   21.0290  -32.2940 C   0  0  0  0  0  0  0  0  0  0  0  0
   -5.6260   21.0324  -32.4490 H   0  0  0  0  0  0  0  0  0  0  0  0
   -7.3060   21.9890  -31.4490 C   0  0  0  0  0  0  0  0  0  0  0  0
   -6.4980   23.0280  -30.7580 C   0  0  0  0  0  0  0  0  0  0  0  0
   -5.7240   22.6740  -29.6960 N   0  0  0  0  0  0  0  0  0  0  0  0
   -4.9550   23.5750  -29.0310 C   0  0  0  0  0  0  0  0  0  0  0  0
   -4.2500   23.1620  -28.0160 N   0  0  0  0  0  0  0  0  0  0  0  0
   -3.3030   23.9190  -27.2490 C   0  0  0  0  0  0  0  0  0  0  0  0
   -1.9420   23.5770  -27.2300 C   0  0  0  0  0  0  0  0  0  0  0  0
   -1.5792   22.7412  -27.8463 H   0  0  0  0  0  0  0  0  0  0  0  0
   -1.0450   24.2930  -26.4320 C   0  0  0  0  0  0  0  0  0  0  0  0
    0.0230   24.0299  -26.4408 H   0  0  0  0  0  0  0  0  0  0  0  0
   -1.4970   25.3470  -25.6180 C   0  0  0  0  0  0  0  0  0  0  0  0
   -0.5720   26.0870  -24.7940 N   0  0  0  0  0  0  0  0  0  0  0  0
   -0.8510   27.1240  -23.9730 C   0  0  0  0  0  0  0  0  0  0  0  0
   -1.8623   27.5320  -23.8287 H   0  0  0  0  0  0  0  0  0  0  0  0
    0.2460   27.6050  -23.3490 N   0  0  0  0  0  0  0  0  0  0  0  0
    1.2460   26.8200  -23.7960 C   0  0  0  0  0  0  0  0  0  0  0  0
    2.6820   27.0130  -23.4380 C   0  0  0  0  0  0  0  0  0  0  0  0
    2.7882   27.0273  -22.3432 H   0  0  0  0  0  0  0  0  0  0  0  0
    3.2777   26.1868  -23.8535 H   0  0  0  0  0  0  0  0  0  0  0  0
    3.0384   27.9671  -23.8535 H   0  0  0  0  0  0  0  0  0  0  0  0
    0.7560   25.8950  -24.6890 C   0  0  0  0  0  0  0  0  0  0  0  0
    1.3448   25.1341  -25.2222 H   0  0  0  0  0  0  0  0  0  0  0  0
   -2.8690   25.6610  -25.6150 C   0  0  0  0  0  0  0  0  0  0  0  0
   -3.2406   26.4772  -24.9780 H   0  0  0  0  0  0  0  0  0  0  0  0
   -3.7630   24.9440  -26.4150 C   0  0  0  0  0  0  0  0  0  0  0  0
   -4.8355   25.1871  -26.3888 H   0  0  0  0  0  0  0  0  0  0  0  0
   -4.9720   24.8880  -29.4180 N   0  0  0  0  0  0  0  0  0  0  0  0
   -4.4460   25.6210  -28.8960 H   0  0  0  0  0  0  0  0  0  0  0  0
   -5.7190   25.2870  -30.4810 C   0  0  0  0  0  0  0  0  0  0  0  0
   -5.7116   26.3427  -30.7900 H   0  0  0  0  0  0  0  0  0  0  0  0
   -6.4940   24.3650  -31.1810 C   0  0  0  0  0  0  0  0  0  0  0  0
   -7.0916   24.6798  -32.0492 H   0  0  0  0  0  0  0  0  0  0  0  0
   -8.7020   21.9610  -31.2890 C   0  0  0  0  0  0  0  0  0  0  0  0
   -9.1943   22.7067  -30.6474 H   0  0  0  0  0  0  0  0  0  0  0  0
   -9.4670   20.9920  -31.9400 C   0  0  0  0  0  0  0  0  0  0  0  0
  -10.5590   20.9663  -31.8098 H   0  0  0  0  0  0  0  0  0  0  0  0
  1  2  1  0
  2  3  2  0
  3  4  1  0
  4  5  1  0
  4  6  2  0
  6  7  1  0
  7  8  2  0
  8  9  1  0
  9 10  2  0
 10 11  1  0
 11 12  2  0
 12 13  1  0
 12 14  1  0
 14 15  1  0
 14 16  2  0
 16 17  1  0
 17 18  1  0
 18 19  1  0
 18 20  2  0
 20 21  1  0
 21 22  1  0
 22 23  1  0
 22 24  1  0
 22 25  1  0
 21 26  2  0
 26 27  1  0
 16 28  1  0
 28 29  1  0
 28 30  2  0
 30 31  1  0
  9 32  1  0
 32 33  1  0
 32 34  1  0
 34 35  1  0
 34 36  2  0
 36 37  1  0
  6 38  1  0
 38 39  1  0
 38 40  2  0
 40 41  1  0
 40  2  1  0
 36  7  1  0
 30 11  1  0
 26 17  1  0
M  END
>  <UniqueID>  (32) 
31

>  <SMILES>  (32) 
Cc1cn(-c2ccc(/N=c3/nc(-c4cccnc4)cc[nH]3)cc2)cn1

>  <Energy>  (32) 
91.14705867074308

>  <Genealogy>  (32) 
Cc1cn(-c2ccc(/N=c3/nc(-c4cccnc4)cc[nH]3)cc2)cn1 (cis-trans isomerization)
Cc1cn(-c2ccc(/N=c3/nc(-c4cccnc4)cc[nH]3)cc2)cn1 (3D coordinates assigned)
Cc1cn(-c2ccc(/N=c3/nc(-c4cccnc4)cc[nH]3)cc2)cn1 (optimized conformer: 91.14705867074308 kcal/mol)

>  <smiles>  (32) 
Cc1cn(-c2ccc(N=c3nc(-c4cccnc4)cc[nH]3)cc2)cn1

>  <score_type>  (32) 
oracle

>  <origin>  (32) 
adgpu

>  <m_score__min__energy>  (32) 
-7.9000000000000004

>  <m_primary>  (32) 
energy

$$$$
32:0
     RDKit          3D

 34 35  0  0  0  0  0  0  0  0999 V2000
   -0.1200   16.0770  -26.4350 H   0  0  0  0  0  0  0  0  0  0  0  0
    0.5320   16.1580  -27.2050 O   0  0  0  0  0  0  0  0  0  0  0  0
    0.5280   17.2470  -28.0760 C   0  0  0  0  0  0  0  0  0  0  0  0
    1.3980   17.2370  -29.1730 C   0  0  0  0  0  0  0  0  0  0  0  0
    2.0654   16.3774  -29.3332 H   0  0  0  0  0  0  0  0  0  0  0  0
    1.4240   18.3110  -30.0650 C   0  0  0  0  0  0  0  0  0  0  0  0
    2.1045   18.2921  -30.9290 H   0  0  0  0  0  0  0  0  0  0  0  0
    0.5860   19.4090  -29.8600 C   0  0  0  0  0  0  0  0  0  0  0  0
    0.6109   20.2571  -30.5601 H   0  0  0  0  0  0  0  0  0  0  0  0
   -0.2840   19.4320  -28.7670 C   0  0  0  0  0  0  0  0  0  0  0  0
   -0.9328   20.3048  -28.6019 H   0  0  0  0  0  0  0  0  0  0  0  0
   -0.3340   18.3430  -27.8760 C   0  0  0  0  0  0  0  0  0  0  0  0
   -1.2160   18.3540  -26.7410 N   0  0  0  0  0  0  0  0  0  0  0  0
   -2.5010   18.9890  -26.6710 C   0  0  0  0  0  0  0  0  0  0  0  0
   -3.3270   18.5870  -25.8120 O   0  0  0  0  0  0  0  0  0  0  0  0
   -2.9070   20.0720  -27.5900 C   0  0  0  0  0  0  0  0  0  0  0  0
   -3.6067   19.8390  -28.4061 H   0  0  0  0  0  0  0  0  0  0  0  0
   -2.4550   21.3280  -27.4670 C   0  0  0  0  0  0  0  0  0  0  0  0
   -1.7411   21.5451  -26.6588 H   0  0  0  0  0  0  0  0  0  0  0  0
   -2.8620   22.4420  -28.3580 C   0  0  0  0  0  0  0  0  0  0  0  0
   -2.0300   23.5670  -28.4450 C   0  0  0  0  0  0  0  0  0  0  0  0
   -1.1021   23.6051  -27.8555 H   0  0  0  0  0  0  0  0  0  0  0  0
   -2.3680   24.6400  -29.2730 C   0  0  0  0  0  0  0  0  0  0  0  0
   -1.5350   25.7510  -29.3360 O   0  0  0  0  0  0  0  0  0  0  0  0
   -3.5400   24.5970  -30.0330 C   0  0  0  0  0  0  0  0  0  0  0  0
   -3.8700   25.6710  -30.8540 O   0  0  0  0  0  0  0  0  0  0  0  0
   -4.3800   23.4770  -29.9770 C   0  0  0  0  0  0  0  0  0  0  0  0
   -5.5390   23.4720  -30.7670 O   0  0  0  0  0  0  0  0  0  0  0  0
   -5.5580   23.2420  -32.1730 C   0  0  0  0  0  0  0  0  0  0  0  0
   -5.6471   22.1629  -32.3668 H   0  0  0  0  0  0  0  0  0  0  0  0
   -6.4159   23.7667  -32.6188 H   0  0  0  0  0  0  0  0  0  0  0  0
   -4.6257   23.6188  -32.6188 H   0  0  0  0  0  0  0  0  0  0  0  0
   -4.0330   22.3970  -29.1400 C   0  0  0  0  0  0  0  0  0  0  0  0
   -4.6829   21.5105  -29.0971 H   0  0  0  0  0  0  0  0  0  0  0  0
  1  2  1  0
  2  3  1  0
  3  4  2  0
  4  5  1  0
  4  6  1  0
  6  7  1  0
  6  8  2  0
  8  9  1  0
  8 10  1  0
 10 11  1  0
 10 12  2  0
 12 13  1  0
 13 14  1  0
 14 15  2  0
 14 16  1  0
 16 17  1  0
 16 18  2  0
 18 19  1  0
 18 20  1  0
 20 21  2  0
 21 22  1  0
 21 23  1  0
 23 24  1  0
 23 25  2  0
 25 26  1  0
 25 27  1  0
 27 28  1  0
 28 29  1  0
 29 30  1  0
 29 31  1  0
 29 32  1  0
 27 33  2  0
 33 34  1  0
 12  3  1  0
 33 20  1  0
M  CHG  3  13  -1  24  -1  26  -1
M  END
>  <UniqueID>  (33) 
32

>  <SMILES>  (33) 
COc1cc(/C=C/C(=O)[N-]c2ccccc2O)cc([O-])c1[O-]

>  <Energy>  (33) 
42.7992054756584

>  <Genealogy>  (33) 
COc1cc(C=CC(=O)[N-]c2ccccc2O)cc([O-])c1[O-] (protonated)
COc1cc(/C=C/C(=O)[N-]c2ccccc2O)cc([O-])c1[O-] (cis-trans isomerization)
COc1cc(/C=C/C(=O)[N-]c2ccccc2O)cc([O-])c1[O-] (3D coordinates assigned)
COc1cc(/C=C/C(=O)[N-]c2ccccc2O)cc([O-])c1[O-] (optimized conformer: 42.7992054756584 kcal/mol)

>  <smiles>  (33) 
COc1cc(C=CC(=O)Nc2ccccc2O)cc(O)c1O

>  <score_type>  (33) 
oracle

>  <origin>  (33) 
adgpu

>  <m_score__min__energy>  (33) 
-12.390000000000001

>  <m_primary>  (33) 
energy

$$$$
33:0
     RDKit          3D

 46 48  0  0  0  0  0  0  0  0999 V2000
   -0.8460   20.9200  -31.5170 N   0  0  0  0  0  0  0  0  0  0  0  0
   -1.7110   20.1750  -32.3800 C   0  0  0  0  0  0  0  0  0  0  0  0
   -1.1700   19.3470  -33.3740 C   0  0  0  0  0  0  0  0  0  0  0  0
   -2.0140   18.6250  -34.2270 C   0  0  0  0  0  0  0  0  0  0  0  0
   -3.4010   18.7260  -34.0890 C   0  0  0  0  0  0  0  0  0  0  0  0
   -3.9520   19.5460  -33.0920 C   0  0  0  0  0  0  0  0  0  0  0  0
   -5.7010   19.6830  -32.9400 S   0  0  0  0  0  0  0  0  0  0  0  0
   -6.2370   18.5780  -32.0710 O   0  0  0  0  0  0  0  0  0  0  0  0
   -6.3300   19.5600  -34.3030 O   0  0  0  0  0  0  0  0  0  0  0  0
   -6.1010   21.2360  -32.2170 C   0  0  0  0  0  0  0  0  0  0  0  0
   -7.4110   21.7370  -32.2570 C   0  0  0  0  0  0  0  0  0  0  0  0
   -7.7160   22.9510  -31.6350 C   0  0  0  0  0  0  0  0  0  0  0  0
   -6.7190   23.6650  -30.9620 C   0  0  0  0  0  0  0  0  0  0  0  0
   -5.4050   23.1750  -30.9270 C   0  0  0  0  0  0  0  0  0  0  0  0
   -4.1580   24.0080  -30.0030 S   0  0  0  0  0  0  0  0  0  0  0  0
   -4.6210   24.2000  -28.5860 O   0  0  0  0  0  0  0  0  0  0  0  0
   -3.8770   25.3580  -30.6000 O   0  0  0  0  0  0  0  0  0  0  0  0
   -2.7290   23.0280  -29.9950 N   0  0  0  0  0  0  0  0  0  0  0  0
   -2.3720   22.1770  -28.9000 C   0  0  0  0  0  0  0  0  0  0  0  0
   -2.8840   20.8690  -28.8150 C   0  0  0  0  0  0  0  0  0  0  0  0
   -2.5580   20.0510  -27.7300 C   0  0  0  0  0  0  0  0  0  0  0  0
   -1.7020   20.5240  -26.7320 C   0  0  0  0  0  0  0  0  0  0  0  0
   -1.1720   21.8150  -26.8150 C   0  0  0  0  0  0  0  0  0  0  0  0
   -1.4950   22.6500  -27.9000 C   0  0  0  0  0  0  0  0  0  0  0  0
   -0.8640   24.3020  -27.9800 S   0  0  0  0  0  0  0  0  0  0  0  0
   -1.8420   25.3200  -28.9820 N   0  0  0  0  0  0  0  0  0  0  0  0
    0.5300   24.2710  -28.5400 O   0  0  0  0  0  0  0  0  0  0  0  0
   -0.8320   24.8840  -26.5920 O   0  0  0  0  0  0  0  0  0  0  0  0
   -5.1010   21.9660  -31.5660 C   0  0  0  0  0  0  0  0  0  0  0  0
   -3.1040   20.2750  -32.2430 C   0  0  0  0  0  0  0  0  0  0  0  0
    0.1740   20.6890  -31.4640 H   0  0  0  0  0  0  0  0  0  0  0  0
   -1.2100   21.7060  -30.9320 H   0  0  0  0  0  0  0  0  0  0  0  0
   -0.0787   19.2643  -33.4841 H   0  0  0  0  0  0  0  0  0  0  0  0
   -1.5849   17.9779  -35.0062 H   0  0  0  0  0  0  0  0  0  0  0  0
   -4.0622   18.1617  -34.7631 H   0  0  0  0  0  0  0  0  0  0  0  0
   -8.1989   21.1737  -32.7785 H   0  0  0  0  0  0  0  0  0  0  0  0
   -8.7420   23.3457  -31.6748 H   0  0  0  0  0  0  0  0  0  0  0  0
   -6.9657   24.6119  -30.4596 H   0  0  0  0  0  0  0  0  0  0  0  0
   -3.5449   20.4881  -29.6075 H   0  0  0  0  0  0  0  0  0  0  0  0
   -2.9750   19.0354  -27.6616 H   0  0  0  0  0  0  0  0  0  0  0  0
   -1.4445   19.8790  -25.8790 H   0  0  0  0  0  0  0  0  0  0  0  0
   -0.4977   22.1804  -26.0264 H   0  0  0  0  0  0  0  0  0  0  0  0
   -1.7920   24.9480  -29.9570 H   0  0  0  0  0  0  0  0  0  0  0  0
   -2.8300   25.2290  -28.6560 H   0  0  0  0  0  0  0  0  0  0  0  0
   -4.0681   21.5878  -31.5558 H   0  0  0  0  0  0  0  0  0  0  0  0
   -3.5331   20.9268  -31.4677 H   0  0  0  0  0  0  0  0  0  0  0  0
  1  2  1  0
  2  3  2  0
  3  4  1  0
  4  5  2  0
  5  6  1  0
  6  7  1  0
  7  8  2  0
  7  9  2  0
  7 10  1  0
 10 11  2  0
 11 12  1  0
 12 13  2  0
 13 14  1  0
 14 15  1  0
 15 16  2  0
 15 17  2  0
 15 18  1  0
 18 19  1  0
 19 20  2  0
 20 21  1  0
 21 22  2  0
 22 23  1  0
 23 24  2  0
 24 25  1  0
 25 26  1  0
 25 27  2  0
 25 28  2  0
 14 29  2  0
  6 30  2  0
 30  2  1  0
 29 10  1  0
 24 19  1  0
  1 31  1  0
  1 32  1  0
  3 33  1  0
  4 34  1  0
  5 35  1  0
 11 36  1  0
 12 37  1  0
 13 38  1  0
 20 39  1  0
 21 40  1  0
 22 41  1  0
 23 42  1  0
 26 43  1  0
 26 44  1  0
 29 45  1  0
 30 46  1  0
M  CHG  1  18  -1
M  END
>  <UniqueID>  (34) 
33

>  <SMILES>  (34) 
Nc1cccc(S(=O)(=O)c2cccc(S(=O)(=O)[N-]c3ccccc3S(N)(=O)=O)c2)c1

>  <Energy>  (34) 
54.676621452705554

>  <Genealogy>  (34) 
Nc1cccc(S(=O)(=O)c2cccc(S(=O)(=O)[N-]c3ccccc3S(N)(=O)=O)c2)c1 (protonated)
Nc1cccc(S(=O)(=O)c2cccc(S(=O)(=O)[N-]c3ccccc3S(N)(=O)=O)c2)c1 (3D coordinates assigned)
Nc1cccc(S(=O)(=O)c2cccc(S(=O)(=O)[N-]c3ccccc3S(N)(=O)=O)c2)c1 (optimized conformer: 54.676621452705554 kcal/mol)

>  <smiles>  (34) 
Nc1cccc(S(=O)(=O)c2cccc(S(=O)(=O)Nc3ccccc3S(N)(=O)=O)c2)c1

>  <score_type>  (34) 
oracle

>  <origin>  (34) 
adgpu

>  <m_score__min__energy>  (34) 
-10.720000000000001

>  <m_primary>  (34) 
energy

$$$$
34:0
     RDKit          3D

 46 48  0  0  0  0  0  0  0  0999 V2000
   -8.5910   19.6100  -31.8920 C   0  0  0  0  0  0  0  0  0  0  0  0
   -7.7630   20.8670  -31.9290 C   0  0  0  0  0  0  0  0  0  0  0  0
   -8.2070   21.9560  -31.1610 C   0  0  0  0  0  0  0  0  0  0  0  0
   -7.4870   23.1420  -31.1210 C   0  0  0  0  0  0  0  0  0  0  0  0
   -6.3230   23.2890  -31.8720 C   0  0  0  0  0  0  0  0  0  0  0  0
   -5.6410   24.5490  -31.8300 N   0  0  0  0  0  0  0  0  0  0  0  0
   -5.0080   25.1000  -30.6670 C   0  0  0  0  0  0  0  0  0  0  0  0
   -5.7200   25.6430  -29.7840 O   0  0  0  0  0  0  0  0  0  0  0  0
   -3.5890   25.0270  -30.4730 N   0  0  0  0  0  0  0  0  0  0  0  0
   -2.9260   24.4920  -29.3190 C   0  0  0  0  0  0  0  0  0  0  0  0
   -3.4960   23.3910  -28.6680 C   0  0  0  0  0  0  0  0  0  0  0  0
   -2.8740   22.8270  -27.5500 C   0  0  0  0  0  0  0  0  0  0  0  0
   -1.6860   23.3740  -27.0620 C   0  0  0  0  0  0  0  0  0  0  0  0
   -1.1340   24.5030  -27.6730 C   0  0  0  0  0  0  0  0  0  0  0  0
   -1.7590   25.0780  -28.7860 C   0  0  0  0  0  0  0  0  0  0  0  0
   -1.2280   26.2400  -29.3340 O   0  0  0  0  0  0  0  0  0  0  0  0
   -5.8220   22.1940  -32.6090 C   0  0  0  0  0  0  0  0  0  0  0  0
   -4.6010   22.2940  -33.2830 O   0  0  0  0  0  0  0  0  0  0  0  0
   -6.5370   20.9680  -32.6470 C   0  0  0  0  0  0  0  0  0  0  0  0
   -5.8060   19.5730  -33.5070 S   0  0  0  0  0  0  0  0  0  0  0  0
   -6.4800   19.4340  -34.8430 O   0  0  0  0  0  0  0  0  0  0  0  0
   -4.3530   19.8300  -33.7910 O   0  0  0  0  0  0  0  0  0  0  0  0
   -5.9740   18.0450  -32.6610 N   0  0  0  0  0  0  0  0  0  0  0  0
   -4.7050   17.2930  -32.6390 C   0  0  0  0  0  0  0  0  0  0  0  0
   -4.9640   15.8080  -32.3410 C   0  0  0  0  0  0  0  0  0  0  0  0
   -5.7850   15.1660  -33.3110 O   0  0  0  0  0  0  0  0  0  0  0  0
   -6.6650   16.0510  -33.9940 C   0  0  0  0  0  0  0  0  0  0  0  0
   -7.1210   17.2380  -33.1270 C   0  0  0  0  0  0  0  0  0  0  0  0
   -8.7786   19.3252  -30.8462 H   0  0  0  0  0  0  0  0  0  0  0  0
   -9.5497   19.7873  -32.4014 H   0  0  0  0  0  0  0  0  0  0  0  0
   -8.0496   18.7992  -32.4014 H   0  0  0  0  0  0  0  0  0  0  0  0
   -9.1387   21.8677  -30.5829 H   0  0  0  0  0  0  0  0  0  0  0  0
   -7.8384   23.9726  -30.4912 H   0  0  0  0  0  0  0  0  0  0  0  0
   -4.4405   22.9665  -29.0391 H   0  0  0  0  0  0  0  0  0  0  0  0
   -3.3208   21.9522  -27.0549 H   0  0  0  0  0  0  0  0  0  0  0  0
   -1.1844   22.9163  -26.1966 H   0  0  0  0  0  0  0  0  0  0  0  0
   -0.2055   24.9413  -27.2783 H   0  0  0  0  0  0  0  0  0  0  0  0
   -4.4560   21.9470  -34.2220 H   0  0  0  0  0  0  0  0  0  0  0  0
   -4.2127   17.3851  -33.6184 H   0  0  0  0  0  0  0  0  0  0  0  0
   -4.0601   17.7068  -31.8498 H   0  0  0  0  0  0  0  0  0  0  0  0
   -3.9960   15.2867  -32.3050 H   0  0  0  0  0  0  0  0  0  0  0  0
   -5.5010   15.7606  -31.3822 H   0  0  0  0  0  0  0  0  0  0  0  0
   -6.1469   16.4442  -34.8811 H   0  0  0  0  0  0  0  0  0  0  0  0
   -7.5640   15.4768  -34.2625 H   0  0  0  0  0  0  0  0  0  0  0  0
   -7.7894   17.8781  -33.7216 H   0  0  0  0  0  0  0  0  0  0  0  0
   -7.6414   16.8386  -32.2440 H   0  0  0  0  0  0  0  0  0  0  0  0
  1  2  1  0
  2  3  2  0
  3  4  1  0
  4  5  2  0
  5  6  1  0
  6  7  1  0
  7  8  2  0
  7  9  1  0
  9 10  1  0
 10 11  2  0
 11 12  1  0
 12 13  2  0
 13 14  1  0
 14 15  2  0
 15 16  1  0
  5 17  1  0
 17 18  1  0
 17 19  2  0
 19 20  1  0
 20 21  2  0
 20 22  2  0
 20 23  1  0
 23 24  1  0
 24 25  1  0
 25 26  1  0
 26 27  1  0
 27 28  1  0
 19  2  1  0
 28 23  1  0
 15 10  1  0
  1 29  1  0
  1 30  1  0
  1 31  1  0
  3 32  1  0
  4 33  1  0
 11 34  1  0
 12 35  1  0
 13 36  1  0
 14 37  1  0
 18 38  1  0
 24 39  1  0
 24 40  1  0
 25 41  1  0
 25 42  1  0
 27 43  1  0
 27 44  1  0
 28 45  1  0
 28 46  1  0
M  CHG  3   6  -1   9  -1  16  -1
M  END
>  <UniqueID>  (35) 
34

>  <SMILES>  (35) 
Cc1ccc([N-]C(=O)[N-]c2ccccc2[O-])c(O)c1S(=O)(=O)N1CCOCC1

>  <Energy>  (35) 
76.51079743973945

>  <Genealogy>  (35) 
Cc1ccc([N-]C(=O)[N-]c2ccccc2[O-])c(O)c1S(=O)(=O)N1CCOCC1 (protonated)
Cc1ccc([N-]C(=O)[N-]c2ccccc2[O-])c(O)c1S(=O)(=O)N1CCOCC1 (3D coordinates assigned)
Cc1ccc([N-]C(=O)[N-]c2ccccc2[O-])c(O)c1S(=O)(=O)N1CCOCC1 (nonaromatic ring conformer: 76.51079743973945 kcal/mol)

>  <smiles>  (35) 
Cc1ccc(NC(=O)Nc2ccccc2O)c(O)c1S(=O)(=O)N1CCOCC1

>  <score_type>  (35) 
oracle

>  <origin>  (35) 
adgpu

>  <m_score__min__energy>  (35) 
-14.74

>  <m_primary>  (35) 
energy

$$$$
35:0
     RDKit          3D

 51 54  0  0  0  0  0  0  0  0999 V2000
   -7.3420   25.3983  -31.5254 H   0  0  0  0  0  0  0  0  0  0  0  0
   -6.4450   24.9000  -31.1290 C   0  0  0  0  0  0  0  0  0  0  0  0
   -5.0940   25.6680  -30.4750 S   0  0  0  0  0  0  0  0  0  0  0  0
   -4.3030   24.2250  -30.1510 C   0  0  0  0  0  0  0  0  0  0  0  0
   -3.1170   24.1440  -29.6210 N   0  0  0  0  0  0  0  0  0  0  0  0
   -2.4220   22.9240  -29.2990 C   0  0  0  0  0  0  0  0  0  0  0  0
   -1.1270   22.7320  -29.8040 C   0  0  0  0  0  0  0  0  0  0  0  0
   -0.6598   23.5153  -30.4190 H   0  0  0  0  0  0  0  0  0  0  0  0
   -0.4250   21.5530  -29.5320 C   0  0  0  0  0  0  0  0  0  0  0  0
    0.5806   21.4028  -29.9518 H   0  0  0  0  0  0  0  0  0  0  0  0
   -1.0020   20.5630  -28.7250 C   0  0  0  0  0  0  0  0  0  0  0  0
   -0.1070   19.0460  -28.3790 S   0  0  0  0  0  0  0  0  0  0  0  0
   -1.2630   18.5220  -27.0730 C   0  0  0  0  0  0  0  0  0  0  0  0
   -0.8184   18.7236  -26.0873 H   0  0  0  0  0  0  0  0  0  0  0  0
   -2.2052   19.0810  -27.1714 H   0  0  0  0  0  0  0  0  0  0  0  0
   -1.4636   17.4449  -27.1714 H   0  0  0  0  0  0  0  0  0  0  0  0
   -2.2760   20.7610  -28.1840 C   0  0  0  0  0  0  0  0  0  0  0  0
   -2.7278   19.9870  -27.5462 H   0  0  0  0  0  0  0  0  0  0  0  0
   -2.9770   21.9410  -28.4520 C   0  0  0  0  0  0  0  0  0  0  0  0
   -3.9666   22.1039  -28.0001 H   0  0  0  0  0  0  0  0  0  0  0  0
   -5.0290   23.1600  -30.5450 N   0  0  0  0  0  0  0  0  0  0  0  0
   -6.2270   23.5190  -31.0800 C   0  0  0  0  0  0  0  0  0  0  0  0
   -7.1970   22.4860  -31.5180 C   0  0  0  0  0  0  0  0  0  0  0  0
   -8.5810   22.7410  -31.5720 C   0  0  0  0  0  0  0  0  0  0  0  0
   -8.9604   23.7518  -31.3617 H   0  0  0  0  0  0  0  0  0  0  0  0
   -9.4750   21.7140  -31.8920 C   0  0  0  0  0  0  0  0  0  0  0  0
  -10.5538   21.9229  -31.9415 H   0  0  0  0  0  0  0  0  0  0  0  0
   -9.0040   20.4240  -32.1490 C   0  0  0  0  0  0  0  0  0  0  0  0
   -9.7135   19.6164  -32.3822 H   0  0  0  0  0  0  0  0  0  0  0  0
   -7.6300   20.1580  -32.1100 C   0  0  0  0  0  0  0  0  0  0  0  0
   -7.0200   18.5260  -32.3800 S   0  0  0  0  0  0  0  0  0  0  0  0
   -6.0110   18.1900  -31.3180 O   0  0  0  0  0  0  0  0  0  0  0  0
   -8.1550   17.5430  -32.2820 O   0  0  0  0  0  0  0  0  0  0  0  0
   -6.2590   18.4090  -33.9430 N   0  0  0  0  0  0  0  0  0  0  0  0
   -6.2500   19.3730  -34.3450 H   0  0  0  0  0  0  0  0  0  0  0  0
   -4.8690   17.9670  -33.7980 C   0  0  0  0  0  0  0  0  0  0  0  0
   -4.8213   17.1481  -33.0651 H   0  0  0  0  0  0  0  0  0  0  0  0
   -4.4971   17.6167  -34.7722 H   0  0  0  0  0  0  0  0  0  0  0  0
   -4.0140   19.1110  -33.3240 C   0  0  0  0  0  0  0  0  0  0  0  0
   -2.7630   18.8530  -32.7360 C   0  0  0  0  0  0  0  0  0  0  0  0
   -2.4233   17.8153  -32.6023 H   0  0  0  0  0  0  0  0  0  0  0  0
   -1.9480   19.9140  -32.3200 C   0  0  0  0  0  0  0  0  0  0  0  0
   -0.9723   19.7075  -31.8558 H   0  0  0  0  0  0  0  0  0  0  0  0
   -2.3730   21.2360  -32.4940 C   0  0  0  0  0  0  0  0  0  0  0  0
   -1.7300   22.0673  -32.1693 H   0  0  0  0  0  0  0  0  0  0  0  0
   -3.6160   21.5010  -33.0810 C   0  0  0  0  0  0  0  0  0  0  0  0
   -3.9507   22.5405  -33.2133 H   0  0  0  0  0  0  0  0  0  0  0  0
   -4.4340   20.4440  -33.5000 C   0  0  0  0  0  0  0  0  0  0  0  0
   -5.4069   20.6554  -33.9677 H   0  0  0  0  0  0  0  0  0  0  0  0
   -6.7340   21.1920  -31.8170 C   0  0  0  0  0  0  0  0  0  0  0  0
   -5.6527   20.9901  -31.8205 H   0  0  0  0  0  0  0  0  0  0  0  0
  1  2  1  0
  2  3  1  0
  3  4  1  0
  4  5  2  0
  5  6  1  0
  6  7  2  0
  7  8  1  0
  7  9  1  0
  9 10  1  0
  9 11  2  0
 11 12  1  0
 12 13  1  0
 13 14  1  0
 13 15  1  0
 13 16  1  0
 11 17  1  0
 17 18  1  0
 17 19  2  0
 19 20  1  0
  4 21  1  0
 21 22  1  0
 22 23  1  0
 23 24  2  0
 24 25  1  0
 24 26  1  0
 26 27  1  0
 26 28  2  0
 28 29  1  0
 28 30  1  0
 30 31  1  0
 31 32  2  0
 31 33  2  0
 31 34  1  0
 34 35  1  0
 34 36  1  0
 36 37  1  0
 36 38  1  0
 36 39  1  0
 39 40  2  0
 40 41  1  0
 40 42  1  0
 42 43  1  0
 42 44  2  0
 44 45  1  0
 44 46  1  0
 46 47  1  0
 46 48  2  0
 48 49  1  0
 30 50  2  0
 50 51  1  0
 22  2  2  0
 50 23  1  0
 19  6  1  0
 48 39  1  0
M  CHG  1  21  -1
M  END
>  <UniqueID>  (36) 
35

>  <SMILES>  (36) 
CSc1ccc(/N=c2\[n-]c(-c3cccc(S(=O)(=O)NCc4ccccc4)c3)cs2)cc1

>  <Energy>  (36) 
84.9010897741857

>  <Genealogy>  (36) 
CSc1ccc(N=c2[n-]c(-c3cccc(S(=O)(=O)NCc4ccccc4)c3)cs2)cc1 (protonated)
CSc1ccc(/N=c2\[n-]c(-c3cccc(S(=O)(=O)NCc4ccccc4)c3)cs2)cc1 (cis-trans isomerization)
CSc1ccc(/N=c2\[n-]c(-c3cccc(S(=O)(=O)NCc4ccccc4)c3)cs2)cc1 (3D coordinates assigned)
CSc1ccc(/N=c2\[n-]c(-c3cccc(S(=O)(=O)NCc4ccccc4)c3)cs2)cc1 (optimized conformer: 84.9010897741857 kcal/mol)

>  <smiles>  (36) 
CSc1ccc(N=c2[nH]c(-c3cccc(S(=O)(=O)NCc4ccccc4)c3)cs2)cc1

>  <score_type>  (36) 
oracle

>  <origin>  (36) 
adgpu

>  <m_score__min__energy>  (36) 
-11.66

>  <m_primary>  (36) 
energy

$$$$
36:0
     RDKit          3D

 52 56  0  0  0  0  0  0  0  0999 V2000
   -8.1506   16.9976  -33.2205 H   0  0  0  0  0  0  0  0  0  0  0  0
   -7.4390   17.8310  -33.1250 C   0  0  0  0  0  0  0  0  0  0  0  0
   -7.7180   18.8710  -32.2980 N   0  0  0  0  0  0  0  0  0  0  0  0
   -6.8580   19.9140  -32.1660 C   0  0  0  0  0  0  0  0  0  0  0  0
   -7.1550   20.8830  -31.3510 N   0  0  0  0  0  0  0  0  0  0  0  0
   -6.3960   22.0850  -31.1340 C   0  0  0  0  0  0  0  0  0  0  0  0
   -6.9090   23.3100  -31.6300 C   0  0  0  0  0  0  0  0  0  0  0  0
   -7.8772   23.3216  -32.1520 H   0  0  0  0  0  0  0  0  0  0  0  0
   -6.1950   24.5120  -31.4630 C   0  0  0  0  0  0  0  0  0  0  0  0
   -6.5961   25.4681  -31.8303 H   0  0  0  0  0  0  0  0  0  0  0  0
   -4.9640   24.4480  -30.8170 C   0  0  0  0  0  0  0  0  0  0  0  0
   -4.1150   25.4540  -30.5550 N   0  0  0  0  0  0  0  0  0  0  0  0
   -3.0590   24.9270  -29.9400 N   0  0  0  0  0  0  0  0  0  0  0  0
   -3.2370   23.5900  -29.8110 C   0  0  0  0  0  0  0  0  0  0  0  0
   -2.5329   22.8854  -29.3443 H   0  0  0  0  0  0  0  0  0  0  0  0
   -4.4520   23.2700  -30.3660 C   0  0  0  0  0  0  0  0  0  0  0  0
   -5.1240   22.0600  -30.5100 C   0  0  0  0  0  0  0  0  0  0  0  0
   -4.6835   21.1177  -30.1522 H   0  0  0  0  0  0  0  0  0  0  0  0
   -5.6850   19.9080  -32.8590 N   0  0  0  0  0  0  0  0  0  0  0  0
   -5.3660   18.8970  -33.7080 C   0  0  0  0  0  0  0  0  0  0  0  0
   -4.1400   18.9410  -34.3840 O   0  0  0  0  0  0  0  0  0  0  0  0
   -3.0060   18.1870  -34.0460 C   0  0  0  0  0  0  0  0  0  0  0  0
   -3.0110   16.7820  -34.1260 C   0  0  0  0  0  0  0  0  0  0  0  0
   -3.9221   16.2553  -34.4461 H   0  0  0  0  0  0  0  0  0  0  0  0
   -1.8650   16.0530  -33.8010 C   0  0  0  0  0  0  0  0  0  0  0  0
   -1.8755   14.9550  -33.8663 H   0  0  0  0  0  0  0  0  0  0  0  0
   -0.7080   16.7150  -33.3940 C   0  0  0  0  0  0  0  0  0  0  0  0
    0.1903   16.1380  -33.1290 H   0  0  0  0  0  0  0  0  0  0  0  0
   -0.6870   18.1100  -33.3220 C   0  0  0  0  0  0  0  0  0  0  0  0
    0.2252   18.6276  -32.9903 H   0  0  0  0  0  0  0  0  0  0  0  0
   -1.8280   18.8560  -33.6720 C   0  0  0  0  0  0  0  0  0  0  0  0
   -1.8460   20.2880  -33.5670 N   0  0  0  0  0  0  0  0  0  0  0  0
   -0.6990   21.1440  -33.5610 C   0  0  0  0  0  0  0  0  0  0  0  0
   -0.4440   21.8300  -34.5850 O   0  0  0  0  0  0  0  0  0  0  0  0
    0.2030   21.1400  -32.4470 N   0  0  0  0  0  0  0  0  0  0  0  0
   -0.1340   20.8530  -31.0820 C   0  0  0  0  0  0  0  0  0  0  0  0
    0.0230   19.5700  -30.5300 C   0  0  0  0  0  0  0  0  0  0  0  0
    0.3815   18.7424  -31.1598 H   0  0  0  0  0  0  0  0  0  0  0  0
   -0.2750   19.3420  -29.1830 C   0  0  0  0  0  0  0  0  0  0  0  0
   -0.1571   18.3324  -28.7626 H   0  0  0  0  0  0  0  0  0  0  0  0
   -0.7220   20.3860  -28.3640 C   0  0  0  0  0  0  0  0  0  0  0  0
   -0.9990   20.0990  -27.0180 O   0  0  0  0  0  0  0  0  0  0  0  0
   -2.0700   19.2810  -26.5550 C   0  0  0  0  0  0  0  0  0  0  0  0
   -2.3930   19.6080  -25.2480 F   0  0  0  0  0  0  0  0  0  0  0  0
   -1.6740   17.9580  -26.5960 F   0  0  0  0  0  0  0  0  0  0  0  0
   -3.1780   19.4430  -27.3680 F   0  0  0  0  0  0  0  0  0  0  0  0
   -0.8680   21.6730  -28.9160 C   0  0  0  0  0  0  0  0  0  0  0  0
   -1.2220   22.5021  -28.2857 H   0  0  0  0  0  0  0  0  0  0  0  0
   -0.5650   21.9020  -30.2620 C   0  0  0  0  0  0  0  0  0  0  0  0
   -0.6663   22.9147  -30.6794 H   0  0  0  0  0  0  0  0  0  0  0  0
   -6.2520   17.8200  -33.8520 C   0  0  0  0  0  0  0  0  0  0  0  0
   -6.0140   16.9836  -34.5256 H   0  0  0  0  0  0  0  0  0  0  0  0
  1  2  1  0
  2  3  1  0
  3  4  1  0
  4  5  2  0
  5  6  1  0
  6  7  2  0
  7  8  1  0
  7  9  1  0
  9 10  1  0
  9 11  2  0
 11 12  1  0
 12 13  1  0
 13 14  2  0
 14 15  1  0
 14 16  1  0
 16 17  2  0
 17 18  1  0
  4 19  1  0
 19 20  2  0
 20 21  1  0
 21 22  1  0
 22 23  2  0
 23 24  1  0
 23 25  1  0
 25 26  1  0
 25 27  2  0
 27 28  1  0
 27 29  1  0
 29 30  1  0
 29 31  2  0
 31 32  1  0
 32 33  1  0
 33 34  2  0
 33 35  1  0
 35 36  1  0
 36 37  2  0
 37 38  1  0
 37 39  1  0
 39 40  1  0
 39 41  2  0
 41 42  1  0
 42 43  1  0
 43 44  1  0
 43 45  1  0
 43 46  1  0
 41 47  1  0
 47 48  1  0
 47 49  2  0
 49 50  1  0
 20 51  1  0
 51 52  1  0
 51  2  2  0
 17  6  1  0
 31 22  1  0
 49 36  1  0
 16 11  1  0
M  CHG  4   3  -1  12  -1  32  -1  35  -1
M  END
>  <UniqueID>  (37) 
36

>  <SMILES>  (37) 
O=C([N-]c1ccc(OC(F)(F)F)cc1)[N-]c1ccccc1Oc1cc[n-]/c(=N/c2ccc3[n-]ncc3c2)n1

>  <Energy>  (37) 
117.8929012668375

>  <Genealogy>  (37) 
O=C([N-]c1ccc(OC(F)(F)F)cc1)[N-]c1ccccc1Oc1cc[n-]c(=Nc2ccc3[n-]ncc3c2)n1 (protonated)
O=C([N-]c1ccc(OC(F)(F)F)cc1)[N-]c1ccccc1Oc1cc[n-]/c(=N/c2ccc3[n-]ncc3c2)n1 (cis-trans isomerization)
O=C([N-]c1ccc(OC(F)(F)F)cc1)[N-]c1ccccc1Oc1cc[n-]/c(=N/c2ccc3[n-]ncc3c2)n1 (3D coordinates assigned)
O=C([N-]c1ccc(OC(F)(F)F)cc1)[N-]c1ccccc1Oc1cc[n-]/c(=N/c2ccc3[n-]ncc3c2)n1 (optimized conformer: 117.8929012668375 kcal/mol)

>  <smiles>  (37) 
O=C(Nc1ccc(OC(F)(F)F)cc1)Nc1ccccc1Oc1cc[nH]c(=Nc2ccc3[nH]ncc3c2)n1

>  <score_type>  (37) 
oracle

>  <origin>  (37) 
adgpu

>  <m_score__min__energy>  (37) 
-12.9

>  <m_primary>  (37) 
energy

$$$$
37:0
     RDKit          3D

 48 51  0  0  0  0  0  0  0  0999 V2000
   -8.6860   21.9480  -32.0330 C   0  0  0  0  0  0  0  0  0  0  0  0
   -8.1770   20.5590  -32.2140 C   0  0  0  0  0  0  0  0  0  0  0  0
   -7.0470   20.2610  -32.8890 N   0  0  0  0  0  0  0  0  0  0  0  0
   -6.8330   18.9180  -32.9710 C   0  0  0  0  0  0  0  0  0  0  0  0
   -5.6240   18.3640  -33.6320 C   0  0  0  0  0  0  0  0  0  0  0  0
   -5.7510   17.3400  -34.5890 C   0  0  0  0  0  0  0  0  0  0  0  0
   -4.6290   16.8610  -35.2690 C   0  0  0  0  0  0  0  0  0  0  0  0
   -3.3680   17.4030  -35.0140 C   0  0  0  0  0  0  0  0  0  0  0  0
   -3.2140   18.4070  -34.0480 C   0  0  0  0  0  0  0  0  0  0  0  0
   -1.8720   19.0690  -33.8570 C   0  0  0  0  0  0  0  0  0  0  0  0
   -2.0350   20.5210  -33.7600 N   0  0  0  0  0  0  0  0  0  0  0  0
   -2.0190   21.2300  -32.5080 C   0  0  0  0  0  0  0  0  0  0  0  0
   -0.9400   21.0570  -31.6300 C   0  0  0  0  0  0  0  0  0  0  0  0
   -0.8540   21.8180  -30.4610 C   0  0  0  0  0  0  0  0  0  0  0  0
   -1.8370   22.7650  -30.1640 C   0  0  0  0  0  0  0  0  0  0  0  0
   -2.9320   22.9390  -31.0250 C   0  0  0  0  0  0  0  0  0  0  0  0
   -3.9660   23.9560  -30.7490 C   0  0  0  0  0  0  0  0  0  0  0  0
   -3.7100   25.2790  -30.7030 N   0  0  0  0  0  0  0  0  0  0  0  0
   -4.8270   25.9160  -30.3830 N   0  0  0  0  0  0  0  0  0  0  0  0
   -5.8050   25.0050  -30.2160 C   0  0  0  0  0  0  0  0  0  0  0  0
   -7.1930   25.3480  -29.7850 C   0  0  0  0  0  0  0  0  0  0  0  0
   -5.2940   23.7370  -30.4150 C   0  0  0  0  0  0  0  0  0  0  0  0
   -6.0090   22.4320  -30.2490 C   0  0  0  0  0  0  0  0  0  0  0  0
   -3.0380   22.1370  -32.1710 C   0  0  0  0  0  0  0  0  0  0  0  0
   -4.3400   18.8650  -33.3440 C   0  0  0  0  0  0  0  0  0  0  0  0
   -7.8180   18.1390  -32.3550 C   0  0  0  0  0  0  0  0  0  0  0  0
   -8.9740   19.1730  -31.7070 S   0  0  0  0  0  0  0  0  0  0  0  0
   -8.7679   22.1715  -30.9591 H   0  0  0  0  0  0  0  0  0  0  0  0
   -7.9896   22.6579  -32.5032 H   0  0  0  0  0  0  0  0  0  0  0  0
   -9.6762   22.0398  -32.5032 H   0  0  0  0  0  0  0  0  0  0  0  0
   -6.7420   16.9134  -34.8032 H   0  0  0  0  0  0  0  0  0  0  0  0
   -4.7393   16.0538  -36.0081 H   0  0  0  0  0  0  0  0  0  0  0  0
   -2.4924   17.0410  -35.5729 H   0  0  0  0  0  0  0  0  0  0  0  0
   -1.4091   18.6926  -32.9329 H   0  0  0  0  0  0  0  0  0  0  0  0
   -1.2303   18.8361  -34.7195 H   0  0  0  0  0  0  0  0  0  0  0  0
   -2.3750   21.0250  -34.6120 H   0  0  0  0  0  0  0  0  0  0  0  0
   -0.1578   20.3192  -31.8621 H   0  0  0  0  0  0  0  0  0  0  0  0
   -0.0091   21.6707  -29.7722 H   0  0  0  0  0  0  0  0  0  0  0  0
   -1.7528   23.3759  -29.2531 H   0  0  0  0  0  0  0  0  0  0  0  0
   -7.2432   25.3604  -28.6862 H   0  0  0  0  0  0  0  0  0  0  0  0
   -7.4636   26.3400  -30.1756 H   0  0  0  0  0  0  0  0  0  0  0  0
   -7.8946   24.5962  -30.1756 H   0  0  0  0  0  0  0  0  0  0  0  0
   -6.1288   22.2133  -29.1777 H   0  0  0  0  0  0  0  0  0  0  0  0
   -6.9994   22.4936  -30.7237 H   0  0  0  0  0  0  0  0  0  0  0  0
   -5.4241   21.6304  -30.7237 H   0  0  0  0  0  0  0  0  0  0  0  0
   -3.9279   22.2189  -32.8124 H   0  0  0  0  0  0  0  0  0  0  0  0
   -4.2171   19.6246  -32.5579 H   0  0  0  0  0  0  0  0  0  0  0  0
   -7.8334   17.0403  -32.3036 H   0  0  0  0  0  0  0  0  0  0  0  0
  1  2  1  0
  2  3  2  0
  3  4  1  0
  4  5  1  0
  5  6  2  0
  6  7  1  0
  7  8  2  0
  8  9  1  0
  9 10  1  0
 10 11  1  0
 11 12  1  0
 12 13  2  0
 13 14  1  0
 14 15  2  0
 15 16  1  0
 16 17  1  0
 17 18  1  0
 18 19  1  0
 19 20  2  0
 20 21  1  0
 20 22  1  0
 22 23  1  0
 16 24  2  0
  9 25  2  0
  4 26  2  0
 26 27  1  0
 27  2  1  0
 25  5  1  0
 24 12  1  0
 22 17  2  0
  1 28  1  0
  1 29  1  0
  1 30  1  0
  6 31  1  0
  7 32  1  0
  8 33  1  0
 10 34  1  0
 10 35  1  0
 11 36  1  0
 13 37  1  0
 14 38  1  0
 15 39  1  0
 21 40  1  0
 21 41  1  0
 21 42  1  0
 23 43  1  0
 23 44  1  0
 23 45  1  0
 24 46  1  0
 25 47  1  0
 26 48  1  0
M  CHG  1  18  -1
M  END
>  <UniqueID>  (38) 
37

>  <SMILES>  (38) 
Cc1nc(-c2cccc(CNc3cccc(-c4[n-]nc(C)c4C)c3)c2)cs1

>  <Energy>  (38) 
111.43449635292265

>  <Genealogy>  (38) 
Cc1nc(-c2cccc(CNc3cccc(-c4[n-]nc(C)c4C)c3)c2)cs1 (protonated)
Cc1nc(-c2cccc(CNc3cccc(-c4[n-]nc(C)c4C)c3)c2)cs1 (3D coordinates assigned)
Cc1nc(-c2cccc(CNc3cccc(-c4[n-]nc(C)c4C)c3)c2)cs1 (optimized conformer: 111.43449635292265 kcal/mol)

>  <smiles>  (38) 
Cc1nc(-c2cccc(CNc3cccc(-c4[nH]nc(C)c4C)c3)c2)cs1

>  <score_type>  (38) 
oracle

>  <origin>  (38) 
adgpu

>  <m_score__min__energy>  (38) 
-11.869999999999999

>  <m_primary>  (38) 
energy

$$$$
38:0
     RDKit          3D

 52 54  0  0  0  0  0  0  0  0999 V2000
   -6.5280   17.7150  -31.3220 C   0  0  0  0  0  0  0  0  0  0  0  0
   -6.5200   17.0630  -32.7020 C   0  0  0  0  0  0  0  0  0  0  0  0
   -5.4280   17.6150  -33.5330 N   0  0  0  0  0  0  0  0  0  0  0  0
   -5.7500   17.5780  -34.9700 C   0  0  0  0  0  0  0  0  0  0  0  0
   -4.9970   18.9600  -33.0880 C   0  0  0  0  0  0  0  0  0  0  0  0
   -5.8440   20.1140  -33.6640 C   0  0  0  0  0  0  0  0  0  0  0  0
   -6.5600   20.8100  -32.5800 N   0  0  0  0  0  0  0  0  0  0  0  0
   -7.9930   20.6630  -32.4700 C   0  0  0  0  0  0  0  0  0  0  0  0
   -8.6450   20.0100  -33.3290 O   0  0  0  0  0  0  0  0  0  0  0  0
   -8.7160   21.2570  -31.3020 C   0  0  0  0  0  0  0  0  0  0  0  0
   -8.1510   22.6400  -30.9910 C   0  0  0  0  0  0  0  0  0  0  0  0
   -6.6490   22.6040  -30.8650 C   0  0  0  0  0  0  0  0  0  0  0  0
   -6.0100   23.5100  -30.0060 C   0  0  0  0  0  0  0  0  0  0  0  0
   -4.6130   23.5590  -29.9250 C   0  0  0  0  0  0  0  0  0  0  0  0
   -3.9900   24.4770  -29.0110 N   0  0  0  0  0  0  0  0  0  0  0  0
   -3.5520   24.1220  -27.6890 C   0  0  0  0  0  0  0  0  0  0  0  0
   -3.3480   22.9170  -27.3890 O   0  0  0  0  0  0  0  0  0  0  0  0
   -3.2480   25.1360  -26.7240 N   0  0  0  0  0  0  0  0  0  0  0  0
   -1.9710   25.7690  -26.5600 C   0  0  0  0  0  0  0  0  0  0  0  0
   -1.5130   26.0290  -25.2610 C   0  0  0  0  0  0  0  0  0  0  0  0
   -0.2780   26.6520  -25.0580 C   0  0  0  0  0  0  0  0  0  0  0  0
    0.5000   27.0370  -26.1530 C   0  0  0  0  0  0  0  0  0  0  0  0
    0.0380   26.8120  -27.4520 C   0  0  0  0  0  0  0  0  0  0  0  0
   -1.2010   26.1950  -27.6630 C   0  0  0  0  0  0  0  0  0  0  0  0
   -1.6660   26.0380  -28.9630 O   0  0  0  0  0  0  0  0  0  0  0  0
   -3.8540   22.6720  -30.7020 C   0  0  0  0  0  0  0  0  0  0  0  0
   -4.4790   21.7770  -31.5730 C   0  0  0  0  0  0  0  0  0  0  0  0
   -5.8860   21.7320  -31.6770 C   0  0  0  0  0  0  0  0  0  0  0  0
   -6.5184   16.9340  -30.5474 H   0  0  0  0  0  0  0  0  0  0  0  0
   -5.6376   18.3515  -31.2120 H   0  0  0  0  0  0  0  0  0  0  0  0
   -7.4338   18.3294  -31.2120 H   0  0  0  0  0  0  0  0  0  0  0  0
   -6.3749   15.9785  -32.5885 H   0  0  0  0  0  0  0  0  0  0  0  0
   -7.4806   17.2690  -33.1968 H   0  0  0  0  0  0  0  0  0  0  0  0
   -6.8352   17.4533  -35.0995 H   0  0  0  0  0  0  0  0  0  0  0  0
   -5.4301   18.5188  -35.4418 H   0  0  0  0  0  0  0  0  0  0  0  0
   -5.2251   16.7343  -35.4418 H   0  0  0  0  0  0  0  0  0  0  0  0
   -5.0615   18.9982  -31.9906 H   0  0  0  0  0  0  0  0  0  0  0  0
   -3.9710   19.1035  -33.4578 H   0  0  0  0  0  0  0  0  0  0  0  0
   -5.1839   20.8269  -34.1798 H   0  0  0  0  0  0  0  0  0  0  0  0
   -6.5779   19.7018  -34.3722 H   0  0  0  0  0  0  0  0  0  0  0  0
   -9.7859   21.3454  -31.5417 H   0  0  0  0  0  0  0  0  0  0  0  0
   -8.5843   20.6061  -30.4251 H   0  0  0  0  0  0  0  0  0  0  0  0
   -8.4258   23.3298  -31.8025 H   0  0  0  0  0  0  0  0  0  0  0  0
   -8.5712   22.9786  -30.0325 H   0  0  0  0  0  0  0  0  0  0  0  0
   -6.6140   24.1907  -29.3881 H   0  0  0  0  0  0  0  0  0  0  0  0
   -3.7680   25.4390  -29.3540 H   0  0  0  0  0  0  0  0  0  0  0  0
   -2.1289   25.7412  -24.3962 H   0  0  0  0  0  0  0  0  0  0  0  0
    0.0816   26.8393  -24.0354 H   0  0  0  0  0  0  0  0  0  0  0  0
    1.4764   27.5173  -25.9921 H   0  0  0  0  0  0  0  0  0  0  0  0
    0.6499   27.1207  -28.3124 H   0  0  0  0  0  0  0  0  0  0  0  0
   -2.7568   22.6813  -30.6247 H   0  0  0  0  0  0  0  0  0  0  0  0
   -3.8672   21.0986  -32.1857 H   0  0  0  0  0  0  0  0  0  0  0  0
  1  2  1  0
  2  3  1  0
  3  4  1  0
  3  5  1  0
  5  6  1  0
  6  7  1  0
  7  8  1  0
  8  9  2  0
  8 10  1  0
 10 11  1  0
 11 12  1  0
 12 13  2  0
 13 14  1  0
 14 15  1  0
 15 16  1  0
 16 17  2  0
 16 18  1  0
 18 19  1  0
 19 20  2  0
 20 21  1  0
 21 22  2  0
 22 23  1  0
 23 24  2  0
 24 25  1  0
 14 26  2  0
 26 27  1  0
 27 28  2  0
 28  7  1  0
 28 12  1  0
 24 19  1  0
  1 29  1  0
  1 30  1  0
  1 31  1  0
  2 32  1  0
  2 33  1  0
  4 34  1  0
  4 35  1  0
  4 36  1  0
  5 37  1  0
  5 38  1  0
  6 39  1  0
  6 40  1  0
 10 41  1  0
 10 42  1  0
 11 43  1  0
 11 44  1  0
 13 45  1  0
 15 46  1  0
 20 47  1  0
 21 48  1  0
 22 49  1  0
 23 50  1  0
 26 51  1  0
 27 52  1  0
M  CHG  2  18  -1  25  -1
M  END
>  <UniqueID>  (39) 
38

>  <SMILES>  (39) 
CCN(C)CCN1C(=O)CCc2cc(NC(=O)[N-]c3ccccc3[O-])ccc21

>  <Energy>  (39) 
65.43084438044492

>  <Genealogy>  (39) 
CCN(C)CCN1C(=O)CCc2cc(NC(=O)[N-]c3ccccc3[O-])ccc21 (protonated)
CCN(C)CCN1C(=O)CCc2cc(NC(=O)[N-]c3ccccc3[O-])ccc21 (3D coordinates assigned)
CCN(C)CCN1C(=O)CCc2cc(NC(=O)[N-]c3ccccc3[O-])ccc21 (nonaromatic ring conformer: 65.43084438044492 kcal/mol)

>  <smiles>  (39) 
CCN(C)CCN1C(=O)CCc2cc(NC(=O)Nc3ccccc3O)ccc21

>  <score_type>  (39) 
oracle

>  <origin>  (39) 
adgpu

>  <m_score__min__energy>  (39) 
-12.220000000000001

>  <m_primary>  (39) 
energy

$$$$
39:0
     RDKit          3D

 63 67  0  0  0  0  0  0  0  0999 V2000
   -9.4610   18.1380  -31.6020 C   0  0  0  0  0  0  0  0  0  0  0  0
   -8.2380   18.6980  -32.2630 C   0  0  0  0  0  0  0  0  0  0  0  0
   -7.4330   17.8780  -33.0690 C   0  0  0  0  0  0  0  0  0  0  0  0
   -6.3110   18.4090  -33.7070 C   0  0  0  0  0  0  0  0  0  0  0  0
   -5.9930   19.7630  -33.5600 C   0  0  0  0  0  0  0  0  0  0  0  0
   -6.8070   20.6050  -32.7880 C   0  0  0  0  0  0  0  0  0  0  0  0
   -6.4670   21.9950  -32.6600 N   0  0  0  0  0  0  0  0  0  0  0  0
   -6.0880   22.6020  -31.4180 C   0  0  0  0  0  0  0  0  0  0  0  0
   -6.4820   22.1150  -30.3240 O   0  0  0  0  0  0  0  0  0  0  0  0
   -5.2360   23.8350  -31.4090 C   0  0  0  0  0  0  0  0  0  0  0  0
   -3.8730   23.5050  -30.9300 N   0  0  0  0  0  0  0  0  0  0  0  0
   -3.4130   24.0900  -29.7720 C   0  0  0  0  0  0  0  0  0  0  0  0
   -4.1360   24.9260  -29.1590 O   0  0  0  0  0  0  0  0  0  0  0  0
   -2.1770   23.7810  -29.2700 N   0  0  0  0  0  0  0  0  0  0  0  0
   -1.7150   24.4210  -28.0610 C   0  0  0  0  0  0  0  0  0  0  0  0
   -1.6850   23.7100  -26.8500 C   0  0  0  0  0  0  0  0  0  0  0  0
   -1.2380   24.3310  -25.6800 C   0  0  0  0  0  0  0  0  0  0  0  0
   -0.8360   25.6700  -25.7070 C   0  0  0  0  0  0  0  0  0  0  0  0
   -0.2510   26.5250  -24.1030 Br  0  0  0  0  0  0  0  0  0  0  0  0
   -0.8680   26.3860  -26.9100 C   0  0  0  0  0  0  0  0  0  0  0  0
   -1.3000   25.7610  -28.0850 C   0  0  0  0  0  0  0  0  0  0  0  0
   -1.3820   22.8640  -29.8930 C   0  0  0  0  0  0  0  0  0  0  0  0
   -0.2530   22.5710  -29.4040 O   0  0  0  0  0  0  0  0  0  0  0  0
   -1.8200   22.2320  -31.0640 C   0  0  0  0  0  0  0  0  0  0  0  0
   -1.0280   21.2590  -31.7050 C   0  0  0  0  0  0  0  0  0  0  0  0
   -1.4870   20.6080  -32.8560 C   0  0  0  0  0  0  0  0  0  0  0  0
   -0.6620   19.5330  -33.5150 C   0  0  0  0  0  0  0  0  0  0  0  0
   -1.0460   18.2110  -33.0180 N   0  0  0  0  0  0  0  0  0  0  0  0
   -2.1210   17.4210  -33.5620 C   0  0  0  0  0  0  0  0  0  0  0  0
   -2.4630   16.2070  -32.9420 C   0  0  0  0  0  0  0  0  0  0  0  0
   -3.5020   15.4190  -33.4490 C   0  0  0  0  0  0  0  0  0  0  0  0
   -4.2070   15.8340  -34.5800 C   0  0  0  0  0  0  0  0  0  0  0  0
   -3.8780   17.0380  -35.2060 C   0  0  0  0  0  0  0  0  0  0  0  0
   -2.8440   17.8330  -34.7010 C   0  0  0  0  0  0  0  0  0  0  0  0
   -2.7260   20.9640  -33.3950 C   0  0  0  0  0  0  0  0  0  0  0  0
   -3.5200   21.9250  -32.7700 C   0  0  0  0  0  0  0  0  0  0  0  0
   -3.0900   22.5740  -31.5860 C   0  0  0  0  0  0  0  0  0  0  0  0
   -7.9240   20.0610  -32.1280 C   0  0  0  0  0  0  0  0  0  0  0  0
   -9.3443   18.1914  -30.5095 H   0  0  0  0  0  0  0  0  0  0  0  0
  -10.3421   18.7224  -31.9057 H   0  0  0  0  0  0  0  0  0  0  0  0
   -9.5942   17.0892  -31.9057 H   0  0  0  0  0  0  0  0  0  0  0  0
   -7.6868   16.8155  -33.1980 H   0  0  0  0  0  0  0  0  0  0  0  0
   -5.6748   17.7606  -34.3274 H   0  0  0  0  0  0  0  0  0  0  0  0
   -5.0982   20.1705  -34.0533 H   0  0  0  0  0  0  0  0  0  0  0  0
   -6.5480   22.6110  -33.5030 H   0  0  0  0  0  0  0  0  0  0  0  0
   -5.1750   24.2432  -32.4286 H   0  0  0  0  0  0  0  0  0  0  0  0
   -5.6852   24.5797  -30.7355 H   0  0  0  0  0  0  0  0  0  0  0  0
   -2.0144   22.6608  -26.8221 H   0  0  0  0  0  0  0  0  0  0  0  0
   -1.2025   23.7656  -24.7371 H   0  0  0  0  0  0  0  0  0  0  0  0
   -0.5535   27.4399  -26.9313 H   0  0  0  0  0  0  0  0  0  0  0  0
   -1.3143   26.3223  -29.0309 H   0  0  0  0  0  0  0  0  0  0  0  0
   -0.0380   21.0081  -31.2964 H   0  0  0  0  0  0  0  0  0  0  0  0
   -0.8217   19.5706  -34.6027 H   0  0  0  0  0  0  0  0  0  0  0  0
    0.3985   19.7058  -33.2797 H   0  0  0  0  0  0  0  0  0  0  0  0
   -0.4490   17.7870  -32.2730 H   0  0  0  0  0  0  0  0  0  0  0  0
   -1.9097   15.8739  -32.0515 H   0  0  0  0  0  0  0  0  0  0  0  0
   -3.7636   14.4713  -32.9557 H   0  0  0  0  0  0  0  0  0  0  0  0
   -5.0222   15.2122  -34.9784 H   0  0  0  0  0  0  0  0  0  0  0  0
   -4.4334   17.3620  -36.0985 H   0  0  0  0  0  0  0  0  0  0  0  0
   -2.5935   18.7838  -35.1942 H   0  0  0  0  0  0  0  0  0  0  0  0
   -3.0777   20.4825  -34.3194 H   0  0  0  0  0  0  0  0  0  0  0  0
   -4.4972   22.1838  -33.2037 H   0  0  0  0  0  0  0  0  0  0  0  0
   -8.5563   20.7074  -31.5016 H   0  0  0  0  0  0  0  0  0  0  0  0
  1  2  1  0
  2  3  2  0
  3  4  1  0
  4  5  2  0
  5  6  1  0
  6  7  1  0
  7  8  1  0
  8  9  2  0
  8 10  1  0
 10 11  1  0
 11 12  1  0
 12 13  2  0
 12 14  1  0
 14 15  1  0
 15 16  2  0
 16 17  1  0
 17 18  2  0
 18 19  1  0
 18 20  1  0
 20 21  2  0
 14 22  1  0
 22 23  2  0
 22 24  1  0
 24 25  2  0
 25 26  1  0
 26 27  1  0
 27 28  1  0
 28 29  1  0
 29 30  2  0
 30 31  1  0
 31 32  2  0
 32 33  1  0
 33 34  2  0
 26 35  2  0
 35 36  1  0
 36 37  2  0
  6 38  2  0
 38  2  1  0
 37 11  1  0
 21 15  1  0
 37 24  1  0
 34 29  1  0
  1 39  1  0
  1 40  1  0
  1 41  1  0
  3 42  1  0
  4 43  1  0
  5 44  1  0
  7 45  1  0
 10 46  1  0
 10 47  1  0
 16 48  1  0
 17 49  1  0
 20 50  1  0
 21 51  1  0
 25 52  1  0
 27 53  1  0
 27 54  1  0
 28 55  1  0
 30 56  1  0
 31 57  1  0
 32 58  1  0
 33 59  1  0
 34 60  1  0
 35 61  1  0
 36 62  1  0
 38 63  1  0
M  END
>  <UniqueID>  (40) 
39

>  <SMILES>  (40) 
Cc1cccc(NC(=O)Cn2c(=O)n(-c3ccc(Br)cc3)c(=O)c3cc(CNc4ccccc4)ccc32)c1

>  <Energy>  (40) 
90.01571927247088

>  <Genealogy>  (40) 
Cc1cccc(NC(=O)Cn2c(=O)n(-c3ccc(Br)cc3)c(=O)c3cc(CNc4ccccc4)ccc32)c1 (3D coordinates assigned)
Cc1cccc(NC(=O)Cn2c(=O)n(-c3ccc(Br)cc3)c(=O)c3cc(CNc4ccccc4)ccc32)c1 (optimized conformer: 90.01571927247088 kcal/mol)

>  <smiles>  (40) 
Cc1cccc(NC(=O)Cn2c(=O)n(-c3ccc(Br)cc3)c(=O)c3cc(CNc4ccccc4)ccc32)c1

>  <score_type>  (40) 
oracle

>  <origin>  (40) 
adgpu

>  <m_score__min__energy>  (40) 
-11.359999999999999

>  <m_primary>  (40) 
energy

$$$$
40:0
     RDKit          3D

 68 71  0  0  0  0  0  0  0  0999 V2000
   -2.1810   20.5310  -34.1350 C   0  0  0  0  0  0  0  0  0  0  0  0
   -3.2980   19.9030  -33.4170 N   0  0  0  0  0  0  0  0  0  0  0  0
   -3.1540   20.1030  -31.9670 C   0  0  0  0  0  0  0  0  0  0  0  0
   -4.4150   19.6370  -31.2180 C   0  0  0  0  0  0  0  0  0  0  0  0
   -5.3170   18.6910  -32.0400 C   0  0  0  0  0  0  0  0  0  0  0  0
   -6.6040   19.5610  -32.9660 S   0  0  0  0  0  0  0  0  0  0  0  0
   -7.8560   18.7300  -33.0040 O   0  0  0  0  0  0  0  0  0  0  0  0
   -6.1200   19.6880  -34.3850 O   0  0  0  0  0  0  0  0  0  0  0  0
   -6.9600   21.1970  -32.3710 C   0  0  0  0  0  0  0  0  0  0  0  0
   -8.2070   21.4090  -31.7630 C   0  0  0  0  0  0  0  0  0  0  0  0
   -8.5290   22.6430  -31.2020 C   0  0  0  0  0  0  0  0  0  0  0  0
   -7.6050   23.6850  -31.2230 C   0  0  0  0  0  0  0  0  0  0  0  0
   -6.3640   23.5200  -31.8620 C   0  0  0  0  0  0  0  0  0  0  0  0
   -5.3650   24.5550  -31.8570 N   0  0  0  0  0  0  0  0  0  0  0  0
   -4.9000   25.3350  -30.7470 C   0  0  0  0  0  0  0  0  0  0  0  0
   -5.6870   26.1580  -30.2090 O   0  0  0  0  0  0  0  0  0  0  0  0
   -3.5780   25.1920  -30.2190 N   0  0  0  0  0  0  0  0  0  0  0  0
   -3.1570   24.1470  -29.3310 C   0  0  0  0  0  0  0  0  0  0  0  0
   -2.1380   24.3530  -28.3890 C   0  0  0  0  0  0  0  0  0  0  0  0
   -1.6700   23.2850  -27.6140 C   0  0  0  0  0  0  0  0  0  0  0  0
   -2.2250   22.0060  -27.7650 C   0  0  0  0  0  0  0  0  0  0  0  0
   -1.6260   20.6410  -26.8260 S   0  0  0  0  0  0  0  0  0  0  0  0
   -2.7100   19.6100  -26.6540 O   0  0  0  0  0  0  0  0  0  0  0  0
   -1.2140   21.1410  -25.4670 O   0  0  0  0  0  0  0  0  0  0  0  0
   -0.2530   19.9290  -27.6410 N   0  0  0  0  0  0  0  0  0  0  0  0
    0.1690   20.7550  -28.7980 C   0  0  0  0  0  0  0  0  0  0  0  0
   -0.2440   20.1480  -30.1450 C   0  0  0  0  0  0  0  0  0  0  0  0
    0.3250   18.7920  -30.3240 N   0  0  0  0  0  0  0  0  0  0  0  0
   -0.4120   18.0620  -31.3680 C   0  0  0  0  0  0  0  0  0  0  0  0
    0.4040   18.0060  -29.0680 C   0  0  0  0  0  0  0  0  0  0  0  0
   -0.5560   18.5270  -27.9910 C   0  0  0  0  0  0  0  0  0  0  0  0
   -3.2520   21.8060  -28.6950 C   0  0  0  0  0  0  0  0  0  0  0  0
   -3.7070   22.8690  -29.4810 C   0  0  0  0  0  0  0  0  0  0  0  0
   -6.0410   22.2780  -32.4450 C   0  0  0  0  0  0  0  0  0  0  0  0
   -4.8070   22.1700  -33.0900 O   0  0  0  0  0  0  0  0  0  0  0  0
   -4.4910   17.7520  -32.9410 C   0  0  0  0  0  0  0  0  0  0  0  0
   -3.3690   18.4640  -33.7340 C   0  0  0  0  0  0  0  0  0  0  0  0
   -1.4603   20.9362  -33.4095 H   0  0  0  0  0  0  0  0  0  0  0  0
   -1.6830   19.7807  -34.7666 H   0  0  0  0  0  0  0  0  0  0  0  0
   -2.5633   21.3464  -34.7666 H   0  0  0  0  0  0  0  0  0  0  0  0
   -2.2888   19.5260  -31.6085 H   0  0  0  0  0  0  0  0  0  0  0  0
   -3.0083   21.1761  -31.7740 H   0  0  0  0  0  0  0  0  0  0  0  0
   -4.1007   19.1096  -30.3053 H   0  0  0  0  0  0  0  0  0  0  0  0
   -5.0092   20.5372  -31.0021 H   0  0  0  0  0  0  0  0  0  0  0  0
   -5.8465   18.0628  -31.3085 H   0  0  0  0  0  0  0  0  0  0  0  0
   -8.9402   20.5897  -31.7289 H   0  0  0  0  0  0  0  0  0  0  0  0
   -9.5161   22.7948  -30.7410 H   0  0  0  0  0  0  0  0  0  0  0  0
   -7.8476   24.6416  -30.7372 H   0  0  0  0  0  0  0  0  0  0  0  0
   -1.7056   25.3561  -28.2590 H   0  0  0  0  0  0  0  0  0  0  0  0
   -0.8639   23.4498  -26.8839 H   0  0  0  0  0  0  0  0  0  0  0  0
   -0.2906   21.7501  -28.7054 H   0  0  0  0  0  0  0  0  0  0  0  0
    1.2675   20.8093  -28.7825 H   0  0  0  0  0  0  0  0  0  0  0  0
   -1.3413   20.0841  -30.1874 H   0  0  0  0  0  0  0  0  0  0  0  0
    0.1407   20.7937  -30.9482 H   0  0  0  0  0  0  0  0  0  0  0  0
   -1.1183   17.3624  -30.8971 H   0  0  0  0  0  0  0  0  0  0  0  0
   -0.9663   18.7771  -31.9936 H   0  0  0  0  0  0  0  0  0  0  0  0
    0.2978   17.5009  -31.9936 H   0  0  0  0  0  0  0  0  0  0  0  0
    0.1510   16.9588  -29.2901 H   0  0  0  0  0  0  0  0  0  0  0  0
    1.4283   18.0991  -28.6779 H   0  0  0  0  0  0  0  0  0  0  0  0
   -1.5871   18.4661  -28.3692 H   0  0  0  0  0  0  0  0  0  0  0  0
   -0.4374   17.9086  -27.0890 H   0  0  0  0  0  0  0  0  0  0  0  0
   -3.7027   20.8089  -28.8078 H   0  0  0  0  0  0  0  0  0  0  0  0
   -4.5022   22.6997  -30.2219 H   0  0  0  0  0  0  0  0  0  0  0  0
   -4.6350   21.5600  -33.8740 H   0  0  0  0  0  0  0  0  0  0  0  0
   -4.0298   16.9812  -32.3061 H   0  0  0  0  0  0  0  0  0  0  0  0
   -5.1859   17.3310  -33.6826 H   0  0  0  0  0  0  0  0  0  0  0  0
   -2.4052   17.9969  -33.4833 H   0  0  0  0  0  0  0  0  0  0  0  0
   -3.5927   18.3622  -34.8062 H   0  0  0  0  0  0  0  0  0  0  0  0
  1  2  1  0
  2  3  1  0
  3  4  1  0
  4  5  1  0
  5  6  1  0
  6  7  2  0
  6  8  2  0
  6  9  1  0
  9 10  2  0
 10 11  1  0
 11 12  2  0
 12 13  1  0
 13 14  1  0
 14 15  1  0
 15 16  2  0
 15 17  1  0
 17 18  1  0
 18 19  2  0
 19 20  1  0
 20 21  2  0
 21 22  1  0
 22 23  2  0
 22 24  2  0
 22 25  1  0
 25 26  1  0
 26 27  1  0
 27 28  1  0
 28 29  1  0
 28 30  1  0
 30 31  1  0
 21 32  1  0
 32 33  2  0
 13 34  2  0
 34 35  1  0
  5 36  1  0
 36 37  1  0
 37  2  1  0
 34  9  1  0
 33 18  1  0
 31 25  1  0
  1 38  1  0
  1 39  1  0
  1 40  1  0
  3 41  1  0
  3 42  1  0
  4 43  1  0
  4 44  1  0
  5 45  1  0
 10 46  1  0
 11 47  1  0
 12 48  1  0
 19 49  1  0
 20 50  1  0
 26 51  1  0
 26 52  1  0
 27 53  1  0
 27 54  1  0
 29 55  1  0
 29 56  1  0
 29 57  1  0
 30 58  1  0
 30 59  1  0
 31 60  1  0
 31 61  1  0
 32 62  1  0
 33 63  1  0
 35 64  1  0
 36 65  1  0
 36 66  1  0
 37 67  1  0
 37 68  1  0
M  CHG  2  14  -1  17  -1
M  END
>  <UniqueID>  (41) 
40

>  <SMILES>  (41) 
CN1CCC(S(=O)(=O)c2cccc([N-]C(=O)[N-]c3ccc(S(=O)(=O)N4CCN(C)CC4)cc3)c2O)CC1

>  <Energy>  (41) 
93.5605418610054

>  <Genealogy>  (41) 
CN1CCC(S(=O)(=O)c2cccc([N-]C(=O)[N-]c3ccc(S(=O)(=O)N4CCN(C)CC4)cc3)c2O)CC1 (protonated)
CN1CCC(S(=O)(=O)c2cccc([N-]C(=O)[N-]c3ccc(S(=O)(=O)N4CCN(C)CC4)cc3)c2O)CC1 (3D coordinates assigned)
CN1CCC(S(=O)(=O)c2cccc([N-]C(=O)[N-]c3ccc(S(=O)(=O)N4CCN(C)CC4)cc3)c2O)CC1 (nonaromatic ring conformer: 93.5605418610054 kcal/mol)

>  <smiles>  (41) 
CN1CCC(S(=O)(=O)c2cccc(NC(=O)Nc3ccc(S(=O)(=O)N4CCN(C)CC4)cc3)c2O)CC1

>  <score_type>  (41) 
oracle

>  <origin>  (41) 
adgpu

>  <m_score__min__energy>  (41) 
-14.460000000000001

>  <m_primary>  (41) 
energy

$$$$
41:0
     RDKit          3D

 56 59  0  0  0  0  0  0  0  0999 V2000
   -0.6561   19.0242  -27.7988 H   0  0  0  0  0  0  0  0  0  0  0  0
   -1.2050   19.7080  -28.4630 C   0  0  0  0  0  0  0  0  0  0  0  0
   -0.7610   19.9170  -29.7730 C   0  0  0  0  0  0  0  0  0  0  0  0
    0.1359   19.3961  -30.1393 H   0  0  0  0  0  0  0  0  0  0  0  0
   -1.4580   20.7890  -30.6180 C   0  0  0  0  0  0  0  0  0  0  0  0
   -1.1089   20.9510  -31.6485 H   0  0  0  0  0  0  0  0  0  0  0  0
   -2.6000   21.4560  -30.1530 C   0  0  0  0  0  0  0  0  0  0  0  0
   -3.5000   22.5180  -31.2310 S   0  0  0  0  0  0  0  0  0  0  0  0
   -3.1170   23.9510  -30.9870 O   0  0  0  0  0  0  0  0  0  0  0  0
   -3.1720   22.1800  -32.6600 O   0  0  0  0  0  0  0  0  0  0  0  0
   -5.2200   22.3060  -30.9290 C   0  0  0  0  0  0  0  0  0  0  0  0
   -5.9030   23.1650  -30.0540 C   0  0  0  0  0  0  0  0  0  0  0  0
   -5.3588   23.9683  -29.5358 H   0  0  0  0  0  0  0  0  0  0  0  0
   -7.2740   23.0000  -29.8410 C   0  0  0  0  0  0  0  0  0  0  0  0
   -7.8065   23.6723  -29.1521 H   0  0  0  0  0  0  0  0  0  0  0  0
   -7.9710   21.9840  -30.5000 C   0  0  0  0  0  0  0  0  0  0  0  0
   -9.0488   21.8536  -30.3228 H   0  0  0  0  0  0  0  0  0  0  0  0
   -7.3000   21.1310  -31.3860 C   0  0  0  0  0  0  0  0  0  0  0  0
   -8.1920   19.8500  -32.2040 S   0  0  0  0  0  0  0  0  0  0  0  0
   -8.4310   18.7290  -31.2310 O   0  0  0  0  0  0  0  0  0  0  0  0
   -9.5250   20.3440  -32.6920 O   0  0  0  0  0  0  0  0  0  0  0  0
   -7.2530   19.2580  -33.5370 N   0  0  0  0  0  0  0  0  0  0  0  0
   -7.5540   19.5550  -34.4930 H   0  0  0  0  0  0  0  0  0  0  0  0
   -6.2860   18.2030  -33.4110 C   0  0  0  0  0  0  0  0  0  0  0  0
   -6.6730   16.8700  -33.1870 C   0  0  0  0  0  0  0  0  0  0  0  0
   -7.7410   16.6148  -33.1224 H   0  0  0  0  0  0  0  0  0  0  0  0
   -5.7110   15.8680  -33.0460 C   0  0  0  0  0  0  0  0  0  0  0  0
   -6.0230   14.8281  -32.8693 H   0  0  0  0  0  0  0  0  0  0  0  0
   -4.3530   16.1840  -33.1290 C   0  0  0  0  0  0  0  0  0  0  0  0
   -3.5968   15.3938  -33.0113 H   0  0  0  0  0  0  0  0  0  0  0  0
   -3.9530   17.5060  -33.3620 C   0  0  0  0  0  0  0  0  0  0  0  0
   -2.2490   17.9120  -33.5390 S   0  0  0  0  0  0  0  0  0  0  0  0
   -1.5220   17.5060  -32.2880 O   0  0  0  0  0  0  0  0  0  0  0  0
   -1.6380   17.1780  -34.7000 O   0  0  0  0  0  0  0  0  0  0  0  0
   -2.0720   19.6270  -33.7700 N   0  0  0  0  0  0  0  0  0  0  0  0
   -2.8970   20.2280  -33.5400 H   0  0  0  0  0  0  0  0  0  0  0  0
   -0.9910   20.1850  -34.2310 C   0  0  0  0  0  0  0  0  0  0  0  0
   -0.8880   21.5820  -34.4230 N   0  0  0  0  0  0  0  0  0  0  0  0
   -1.6470   22.2720  -34.2260 H   0  0  0  0  0  0  0  0  0  0  0  0
    0.4200   21.9280  -34.9410 C   0  0  0  0  0  0  0  0  0  0  0  0
    0.9379   22.6062  -34.2468 H   0  0  0  0  0  0  0  0  0  0  0  0
    0.3439   22.4445  -35.9092 H   0  0  0  0  0  0  0  0  0  0  0  0
    1.1950   20.6030  -35.0710 C   0  0  0  0  0  0  0  0  0  0  0  0
    2.0917   20.6283  -34.4343 H   0  0  0  0  0  0  0  0  0  0  0  0
    1.5167   20.4427  -36.1106 H   0  0  0  0  0  0  0  0  0  0  0  0
    0.2590   19.4740  -34.6140 C   0  0  0  0  0  0  0  0  0  0  0  0
    0.6839   18.9365  -33.7534 H   0  0  0  0  0  0  0  0  0  0  0  0
    0.0957   18.7143  -35.3926 H   0  0  0  0  0  0  0  0  0  0  0  0
   -4.9200   18.5120  -33.4920 C   0  0  0  0  0  0  0  0  0  0  0  0
   -4.6052   19.5527  -33.6590 H   0  0  0  0  0  0  0  0  0  0  0  0
   -5.9220   21.2920  -31.5960 C   0  0  0  0  0  0  0  0  0  0  0  0
   -5.3906   20.6204  -32.2863 H   0  0  0  0  0  0  0  0  0  0  0  0
   -3.0450   21.2380  -28.8410 C   0  0  0  0  0  0  0  0  0  0  0  0
   -3.9456   21.7523  -28.4742 H   0  0  0  0  0  0  0  0  0  0  0  0
   -2.3460   20.3680  -27.9980 C   0  0  0  0  0  0  0  0  0  0  0  0
   -2.6946   20.2030  -26.9678 H   0  0  0  0  0  0  0  0  0  0  0  0
  1  2  1  0
  2  3  2  0
  3  4  1  0
  3  5  1  0
  5  6  1  0
  5  7  2  0
  7  8  1  0
  8  9  2  0
  8 10  2  0
  8 11  1  0
 11 12  2  0
 12 13  1  0
 12 14  1  0
 14 15  1  0
 14 16  2  0
 16 17  1  0
 16 18  1  0
 18 19  1  0
 19 20  2  0
 19 21  2  0
 19 22  1  0
 22 23  1  0
 22 24  1  0
 24 25  2  0
 25 26  1  0
 25 27  1  0
 27 28  1  0
 27 29  2  0
 29 30  1  0
 29 31  1  0
 31 32  1  0
 32 33  2  0
 32 34  2  0
 32 35  1  0
 35 36  1  0
 35 37  2  0
 37 38  1  0
 38 39  1  0
 38 40  1  0
 40 41  1  0
 40 42  1  0
 40 43  1  0
 43 44  1  0
 43 45  1  0
 43 46  1  0
 46 47  1  0
 46 48  1  0
 31 49  2  0
 49 50  1  0
 18 51  2  0
 51 52  1  0
  7 53  1  0
 53 54  1  0
 53 55  2  0
 55 56  1  0
 55  2  1  0
 51 11  1  0
 49 24  1  0
 46 37  1  0
M  CHG  1  35   1
M  END
>  <UniqueID>  (42) 
41

>  <SMILES>  (42) 
O=S(=O)(Nc1cccc(S(=O)(=O)/[NH+]=C2\CCCN2)c1)c1cccc(S(=O)(=O)c2ccccc2)c1

>  <Energy>  (42) 
71.49900990861391

>  <Genealogy>  (42) 
O=S(=O)(Nc1cccc(S(=O)(=O)[NH+]=C2CCCN2)c1)c1cccc(S(=O)(=O)c2ccccc2)c1 (protonated)
O=S(=O)(Nc1cccc(S(=O)(=O)/[NH+]=C2\CCCN2)c1)c1cccc(S(=O)(=O)c2ccccc2)c1 (cis-trans isomerization)
O=S(=O)(Nc1cccc(S(=O)(=O)/[NH+]=C2\CCCN2)c1)c1cccc(S(=O)(=O)c2ccccc2)c1 (3D coordinates assigned)
O=S(=O)(Nc1cccc(S(=O)(=O)/[NH+]=C2\CCCN2)c1)c1cccc(S(=O)(=O)c2ccccc2)c1 (nonaromatic ring conformer: 71.49900990861391 kcal/mol)

>  <smiles>  (42) 
O=S(=O)(N=C1CCCN1)c1cccc(NS(=O)(=O)c2cccc(S(=O)(=O)c3ccccc3)c2)c1

>  <score_type>  (42) 
oracle

>  <origin>  (42) 
adgpu

>  <m_score__min__energy>  (42) 
-12.67

>  <m_primary>  (42) 
energy

$$$$
42:0
     RDKit          3D

 60 63  0  0  0  0  0  0  0  0999 V2000
   -8.7380   21.5430  -32.0640 C   0  0  0  0  0  0  0  0  0  0  0  0
   -7.2730   21.5950  -32.1330 N   0  0  0  0  0  0  0  0  0  0  0  0
   -6.5250   20.5240  -32.7630 C   0  0  0  0  0  0  0  0  0  0  0  0
   -7.1640   19.3170  -33.0990 C   0  0  0  0  0  0  0  0  0  0  0  0
   -6.4550   18.2810  -33.7090 C   0  0  0  0  0  0  0  0  0  0  0  0
   -5.0940   18.4230  -33.9680 C   0  0  0  0  0  0  0  0  0  0  0  0
   -4.4240   19.5980  -33.6160 C   0  0  0  0  0  0  0  0  0  0  0  0
   -3.0110   19.6760  -33.8560 N   0  0  0  0  0  0  0  0  0  0  0  0
   -1.9220   20.8300  -33.1560 S   0  0  0  0  0  0  0  0  0  0  0  0
   -0.9500   20.0600  -31.8790 C   0  0  0  0  0  0  0  0  0  0  0  0
   -2.7260   21.9470  -32.5510 O   0  0  0  0  0  0  0  0  0  0  0  0
   -1.0260   21.4050  -34.2180 O   0  0  0  0  0  0  0  0  0  0  0  0
   -5.1470   20.6550  -33.0300 C   0  0  0  0  0  0  0  0  0  0  0  0
   -6.5730   22.6170  -31.3980 C   0  0  0  0  0  0  0  0  0  0  0  0
   -6.5340   23.9380  -31.8620 C   0  0  0  0  0  0  0  0  0  0  0  0
   -5.8070   24.8790  -31.1340 C   0  0  0  0  0  0  0  0  0  0  0  0
   -5.1460   24.5030  -30.0100 N   0  0  0  0  0  0  0  0  0  0  0  0
   -5.1760   23.2140  -29.5740 C   0  0  0  0  0  0  0  0  0  0  0  0
   -4.5570   22.8530  -28.4880 N   0  0  0  0  0  0  0  0  0  0  0  0
   -3.6980   23.6720  -27.6770 C   0  0  0  0  0  0  0  0  0  0  0  0
   -4.2120   24.5440  -26.7040 C   0  0  0  0  0  0  0  0  0  0  0  0
   -3.3520   25.3590  -25.9680 C   0  0  0  0  0  0  0  0  0  0  0  0
   -1.9710   25.3360  -26.2000 C   0  0  0  0  0  0  0  0  0  0  0  0
   -1.1290   26.1940  -25.4150 N   0  0  0  0  0  0  0  0  0  0  0  0
   -1.0120   27.6100  -25.8040 C   0  0  0  0  0  0  0  0  0  0  0  0
    0.1110   28.3260  -25.0470 C   0  0  0  0  0  0  0  0  0  0  0  0
    0.1850   27.8840  -23.7100 O   0  0  0  0  0  0  0  0  0  0  0  0
    0.6450   26.5510  -23.6970 C   0  0  0  0  0  0  0  0  0  0  0  0
   -0.4050   25.6020  -24.2790 C   0  0  0  0  0  0  0  0  0  0  0  0
   -1.4470   24.4890  -27.2050 C   0  0  0  0  0  0  0  0  0  0  0  0
    0.2820   24.4000  -27.5760 S   0  0  0  0  0  0  0  0  0  0  0  0
    0.9800   25.9780  -27.4750 N   0  0  0  0  0  0  0  0  0  0  0  0
    1.0040   23.5040  -26.6080 O   0  0  0  0  0  0  0  0  0  0  0  0
    0.4620   23.8720  -28.9720 O   0  0  0  0  0  0  0  0  0  0  0  0
   -2.3240   23.6690  -27.9340 C   0  0  0  0  0  0  0  0  0  0  0  0
   -5.8930   22.2900  -30.2660 N   0  0  0  0  0  0  0  0  0  0  0  0
   -9.0553   21.5317  -31.0108 H   0  0  0  0  0  0  0  0  0  0  0  0
   -9.1603   22.4267  -32.5647 H   0  0  0  0  0  0  0  0  0  0  0  0
   -9.0965   20.6316  -32.5647 H   0  0  0  0  0  0  0  0  0  0  0  0
   -8.2340   19.1881  -32.8787 H   0  0  0  0  0  0  0  0  0  0  0  0
   -6.9722   17.3505  -33.9857 H   0  0  0  0  0  0  0  0  0  0  0  0
   -4.5423   17.6044  -34.4532 H   0  0  0  0  0  0  0  0  0  0  0  0
   -1.3330   20.3634  -30.8935 H   0  0  0  0  0  0  0  0  0  0  0  0
   -1.0159   18.9664  -31.9772 H   0  0  0  0  0  0  0  0  0  0  0  0
    0.0995   20.3744  -31.9772 H   0  0  0  0  0  0  0  0  0  0  0  0
   -4.6308   21.5931  -32.7779 H   0  0  0  0  0  0  0  0  0  0  0  0
   -7.0654   24.2268  -32.7808 H   0  0  0  0  0  0  0  0  0  0  0  0
   -5.7692   25.9256  -31.4705 H   0  0  0  0  0  0  0  0  0  0  0  0
   -5.2960   24.5846  -26.5216 H   0  0  0  0  0  0  0  0  0  0  0  0
   -3.7630   26.0272  -25.1969 H   0  0  0  0  0  0  0  0  0  0  0  0
   -0.8036   27.6652  -26.8827 H   0  0  0  0  0  0  0  0  0  0  0  0
   -1.9600   28.1089  -25.5539 H   0  0  0  0  0  0  0  0  0  0  0  0
    1.0690   28.1202  -25.5468 H   0  0  0  0  0  0  0  0  0  0  0  0
   -0.1013   29.4053  -25.0466 H   0  0  0  0  0  0  0  0  0  0  0  0
    1.5642   26.4819  -24.2973 H   0  0  0  0  0  0  0  0  0  0  0  0
    0.8419   26.2587  -22.6550 H   0  0  0  0  0  0  0  0  0  0  0  0
    0.0981   24.6851  -24.6200 H   0  0  0  0  0  0  0  0  0  0  0  0
   -1.1392   25.3890  -23.4881 H   0  0  0  0  0  0  0  0  0  0  0  0
    0.4210   26.6000  -28.1030 H   0  0  0  0  0  0  0  0  0  0  0  0
   -1.9227   23.0132  -28.7207 H   0  0  0  0  0  0  0  0  0  0  0  0
  1  2  1  0
  2  3  1  0
  3  4  2  0
  4  5  1  0
  5  6  2  0
  6  7  1  0
  7  8  1  0
  8  9  1  0
  9 10  1  0
  9 11  2  0
  9 12  2  0
  7 13  2  0
  2 14  1  0
 14 15  1  0
 15 16  2  0
 16 17  1  0
 17 18  1  0
 18 19  2  3
 19 20  1  0
 20 21  2  0
 21 22  1  0
 22 23  2  0
 23 24  1  0
 24 25  1  0
 25 26  1  0
 26 27  1  0
 27 28  1  0
 28 29  1  0
 23 30  1  0
 30 31  1  0
 31 32  1  0
 31 33  2  0
 31 34  2  0
 30 35  2  0
 18 36  1  0
 13  3  1  0
 36 14  2  0
 35 20  1  0
 29 24  1  0
  1 37  1  0
  1 38  1  0
  1 39  1  0
  4 40  1  0
  5 41  1  0
  6 42  1  0
 10 43  1  0
 10 44  1  0
 10 45  1  0
 13 46  1  0
 15 47  1  0
 16 48  1  0
 21 49  1  0
 22 50  1  0
 25 51  1  0
 25 52  1  0
 26 53  1  0
 26 54  1  0
 28 55  1  0
 28 56  1  0
 29 57  1  0
 29 58  1  0
 32 59  1  0
 35 60  1  0
M  CHG  3   8  -1  17  -1  32  -1
M  END
>  <UniqueID>  (43) 
42

>  <SMILES>  (43) 
CN(c1cccc([N-]S(C)(=O)=O)c1)c1cc[n-]c(=Nc2ccc(N3CCOCC3)c(S([NH-])(=O)=O)c2)n1

>  <Energy>  (43) 
87.53600656224482

>  <Genealogy>  (43) 
CN(c1cccc([N-]S(C)(=O)=O)c1)c1cc[n-]c(=Nc2ccc(N3CCOCC3)c(S([NH-])(=O)=O)c2)n1 (protonated)
CN(c1cccc([N-]S(C)(=O)=O)c1)c1cc[n-]c(=Nc2ccc(N3CCOCC3)c(S([NH-])(=O)=O)c2)n1 (3D coordinates assigned)
CN(c1cccc([N-]S(C)(=O)=O)c1)c1cc[n-]c(=Nc2ccc(N3CCOCC3)c(S([NH-])(=O)=O)c2)n1 (nonaromatic ring conformer: 87.53600656224482 kcal/mol)

>  <smiles>  (43) 
CN(c1cccc(NS(C)(=O)=O)c1)c1cc[nH]c(=Nc2ccc(N3CCOCC3)c(S(N)(=O)=O)c2)n1

>  <score_type>  (43) 
oracle

>  <origin>  (43) 
adgpu

>  <m_score__min__energy>  (43) 
-12.1

>  <m_primary>  (43) 
energy

$$$$
43:0
     RDKit          3D

 61 64  0  0  0  0  0  0  0  0999 V2000
   -9.4870   21.5450  -30.5610 C   0  0  0  0  0  0  0  0  0  0  0  0
   -8.6270   20.7620  -31.5080 C   0  0  0  0  0  0  0  0  0  0  0  0
   -7.6820   21.4240  -32.3050 C   0  0  0  0  0  0  0  0  0  0  0  0
   -6.8430   20.6990  -33.1560 C   0  0  0  0  0  0  0  0  0  0  0  0
   -6.9390   19.3020  -33.2200 C   0  0  0  0  0  0  0  0  0  0  0  0
   -5.8290   18.3980  -34.2470 S   0  0  0  0  0  0  0  0  0  0  0  0
   -6.0990   18.7580  -35.6800 O   0  0  0  0  0  0  0  0  0  0  0  0
   -6.0260   16.9170  -34.0910 O   0  0  0  0  0  0  0  0  0  0  0  0
   -4.1920   18.8310  -33.8630 N   0  0  0  0  0  0  0  0  0  0  0  0
   -3.7920   19.7430  -32.8300 C   0  0  0  0  0  0  0  0  0  0  0  0
   -2.8070   20.6950  -33.1190 C   0  0  0  0  0  0  0  0  0  0  0  0
   -2.4150   21.6280  -32.1550 C   0  0  0  0  0  0  0  0  0  0  0  0
   -2.9830   21.6000  -30.8710 C   0  0  0  0  0  0  0  0  0  0  0  0
   -2.5940   22.6120  -29.8680 C   0  0  0  0  0  0  0  0  0  0  0  0
   -1.5810   23.3310  -30.0930 O   0  0  0  0  0  0  0  0  0  0  0  0
   -3.3780   22.7970  -28.6720 N   0  0  0  0  0  0  0  0  0  0  0  0
   -3.1460   23.8210  -27.6860 C   0  0  0  0  0  0  0  0  0  0  0  0
   -4.2260   24.2910  -26.9220 C   0  0  0  0  0  0  0  0  0  0  0  0
   -4.0390   25.2940  -25.9690 C   0  0  0  0  0  0  0  0  0  0  0  0
   -2.7690   25.8360  -25.7620 C   0  0  0  0  0  0  0  0  0  0  0  0
   -1.6750   25.3590  -26.4920 C   0  0  0  0  0  0  0  0  0  0  0  0
   -0.0930   26.1060  -26.2740 S   0  0  0  0  0  0  0  0  0  0  0  0
   -0.1130   27.0000  -25.0660 O   0  0  0  0  0  0  0  0  0  0  0  0
    0.2230   26.9340  -27.4890 O   0  0  0  0  0  0  0  0  0  0  0  0
    1.1050   24.8470  -26.0740 N   0  0  0  0  0  0  0  0  0  0  0  0
    1.1230   23.9140  -27.2330 C   0  0  0  0  0  0  0  0  0  0  0  0
    0.9400   22.4380  -26.8480 C   0  0  0  0  0  0  0  0  0  0  0  0
   -0.2600   22.2870  -25.9110 C   0  0  0  0  0  0  0  0  0  0  0  0
   -0.1260   23.1650  -24.6520 C   0  0  0  0  0  0  0  0  0  0  0  0
    1.0110   24.2040  -24.7460 C   0  0  0  0  0  0  0  0  0  0  0  0
   -1.8600   24.3380  -27.4370 C   0  0  0  0  0  0  0  0  0  0  0  0
   -3.9540   20.6310  -30.5720 C   0  0  0  0  0  0  0  0  0  0  0  0
   -4.3550   19.7090  -31.5440 C   0  0  0  0  0  0  0  0  0  0  0  0
   -7.8850   18.6380  -32.4240 C   0  0  0  0  0  0  0  0  0  0  0  0
   -8.7140   19.3630  -31.5610 C   0  0  0  0  0  0  0  0  0  0  0  0
   -9.2130   21.2956  -29.5253 H   0  0  0  0  0  0  0  0  0  0  0  0
   -9.3347   22.6210  -30.7316 H   0  0  0  0  0  0  0  0  0  0  0  0
  -10.5440   21.2927  -30.7316 H   0  0  0  0  0  0  0  0  0  0  0  0
   -7.6005   22.5201  -32.2602 H   0  0  0  0  0  0  0  0  0  0  0  0
   -6.1047   21.2266  -33.7777 H   0  0  0  0  0  0  0  0  0  0  0  0
   -2.3374   20.7088  -34.1136 H   0  0  0  0  0  0  0  0  0  0  0  0
   -1.6586   22.3872  -32.4030 H   0  0  0  0  0  0  0  0  0  0  0  0
   -4.2440   22.2270  -28.5660 H   0  0  0  0  0  0  0  0  0  0  0  0
   -5.2285   23.8652  -27.0756 H   0  0  0  0  0  0  0  0  0  0  0  0
   -4.8938   25.6579  -25.3801 H   0  0  0  0  0  0  0  0  0  0  0  0
   -2.6284   26.6393  -25.0238 H   0  0  0  0  0  0  0  0  0  0  0  0
    0.3097   24.1966  -27.9176 H   0  0  0  0  0  0  0  0  0  0  0  0
    2.1162   24.0016  -27.6975 H   0  0  0  0  0  0  0  0  0  0  0  0
    0.7695   21.8427  -27.7572 H   0  0  0  0  0  0  0  0  0  0  0  0
    1.8460   22.0835  -26.3347 H   0  0  0  0  0  0  0  0  0  0  0  0
   -1.1718   22.5798  -26.4523 H   0  0  0  0  0  0  0  0  0  0  0  0
   -0.3077   21.2366  -25.5881 H   0  0  0  0  0  0  0  0  0  0  0  0
   -1.0748   23.6998  -24.4975 H   0  0  0  0  0  0  0  0  0  0  0  0
    0.1157   22.4950  -23.8138 H   0  0  0  0  0  0  0  0  0  0  0  0
    0.8343   24.9847  -23.9915 H   0  0  0  0  0  0  0  0  0  0  0  0
    1.9569   23.6694  -24.5743 H   0  0  0  0  0  0  0  0  0  0  0  0
   -0.9948   23.9390  -27.9868 H   0  0  0  0  0  0  0  0  0  0  0  0
   -4.4017   20.5969  -29.5678 H   0  0  0  0  0  0  0  0  0  0  0  0
   -5.1157   18.9529  -31.2998 H   0  0  0  0  0  0  0  0  0  0  0  0
   -7.9751   17.5431  -32.4788 H   0  0  0  0  0  0  0  0  0  0  0  0
   -9.4364   18.8341  -30.9219 H   0  0  0  0  0  0  0  0  0  0  0  0
  1  2  1  0
  2  3  2  0
  3  4  1  0
  4  5  2  0
  5  6  1  0
  6  7  2  0
  6  8  2  0
  6  9  1  0
  9 10  1  0
 10 11  2  0
 11 12  1  0
 12 13  2  0
 13 14  1  0
 14 15  2  0
 14 16  1  0
 16 17  1  0
 17 18  2  0
 18 19  1  0
 19 20  2  0
 20 21  1  0
 21 22  1  0
 22 23  2  0
 22 24  2  0
 22 25  1  0
 25 26  1  0
 26 27  1  0
 27 28  1  0
 28 29  1  0
 29 30  1  0
 21 31  2  0
 13 32  1  0
 32 33  2  0
  5 34  1  0
 34 35  2  0
 35  2  1  0
 33 10  1  0
 31 17  1  0
 30 25  1  0
  1 36  1  0
  1 37  1  0
  1 38  1  0
  3 39  1  0
  4 40  1  0
 11 41  1  0
 12 42  1  0
 16 43  1  0
 18 44  1  0
 19 45  1  0
 20 46  1  0
 26 47  1  0
 26 48  1  0
 27 49  1  0
 27 50  1  0
 28 51  1  0
 28 52  1  0
 29 53  1  0
 29 54  1  0
 30 55  1  0
 30 56  1  0
 31 57  1  0
 32 58  1  0
 33 59  1  0
 34 60  1  0
 35 61  1  0
M  CHG  1   9  -1
M  END
>  <UniqueID>  (44) 
43

>  <SMILES>  (44) 
Cc1ccc(S(=O)(=O)[N-]c2ccc(C(=O)Nc3cccc(S(=O)(=O)N4CCCCC4)c3)cc2)cc1

>  <Energy>  (44) 
82.82598881242806

>  <Genealogy>  (44) 
Cc1ccc(S(=O)(=O)[N-]c2ccc(C(=O)Nc3cccc(S(=O)(=O)N4CCCCC4)c3)cc2)cc1 (protonated)
Cc1ccc(S(=O)(=O)[N-]c2ccc(C(=O)Nc3cccc(S(=O)(=O)N4CCCCC4)c3)cc2)cc1 (3D coordinates assigned)
Cc1ccc(S(=O)(=O)[N-]c2ccc(C(=O)Nc3cccc(S(=O)(=O)N4CCCCC4)c3)cc2)cc1 (nonaromatic ring conformer: 82.82598881242806 kcal/mol)

>  <smiles>  (44) 
Cc1ccc(S(=O)(=O)Nc2ccc(C(=O)Nc3cccc(S(=O)(=O)N4CCCCC4)c3)cc2)cc1

>  <score_type>  (44) 
oracle

>  <origin>  (44) 
adgpu

>  <m_score__min__energy>  (44) 
-10.529999999999999

>  <m_primary>  (44) 
energy

$$$$
44:0
     RDKit          3D

 27 29  0  0  0  0  0  0  0  0999 V2000
   -2.1680   23.5130  -27.2040 O   0  0  0  0  0  0  0  0  0  0  0  0
   -3.0080   23.7630  -28.1070 C   0  0  0  0  0  0  0  0  0  0  0  0
   -2.8070   24.7000  -29.0580 N   0  0  0  0  0  0  0  0  0  0  0  0
   -3.8690   24.7680  -29.9050 C   0  0  0  0  0  0  0  0  0  0  0  0
   -3.9080   25.6710  -30.9630 O   0  0  0  0  0  0  0  0  0  0  0  0
   -4.9050   23.8770  -29.6320 C   0  0  0  0  0  0  0  0  0  0  0  0
   -6.2130   23.7880  -30.3550 C   0  0  0  0  0  0  0  0  0  0  0  0
   -6.2750   22.5170  -31.1590 C   0  0  0  0  0  0  0  0  0  0  0  0
   -7.3240   21.6070  -30.9680 C   0  0  0  0  0  0  0  0  0  0  0  0
   -7.3630   20.4100  -31.6890 C   0  0  0  0  0  0  0  0  0  0  0  0
   -6.3460   20.0980  -32.6110 C   0  0  0  0  0  0  0  0  0  0  0  0
   -6.3690   18.8680  -33.3630 N   0  0  0  0  0  0  0  0  0  0  0  0
   -6.9470   17.6920  -33.0500 C   0  0  0  0  0  0  0  0  0  0  0  0
   -6.7280   16.8010  -34.0350 N   0  0  0  0  0  0  0  0  0  0  0  0
   -6.0120   17.4490  -34.9420 N   0  0  0  0  0  0  0  0  0  0  0  0
   -5.7940   18.6910  -34.5410 N   0  0  0  0  0  0  0  0  0  0  0  0
   -5.2900   21.0090  -32.7890 C   0  0  0  0  0  0  0  0  0  0  0  0
   -5.2520   22.2060  -32.0680 C   0  0  0  0  0  0  0  0  0  0  0  0
   -4.4910   22.9870  -28.2630 S   0  0  0  0  0  0  0  0  0  0  0  0
   -3.8550   26.6680  -30.7950 H   0  0  0  0  0  0  0  0  0  0  0  0
   -7.0343   23.7959  -29.6233 H   0  0  0  0  0  0  0  0  0  0  0  0
   -6.3079   24.6482  -31.0340 H   0  0  0  0  0  0  0  0  0  0  0  0
   -8.1217   21.8363  -30.2461 H   0  0  0  0  0  0  0  0  0  0  0  0
   -8.1946   19.7067  -31.5347 H   0  0  0  0  0  0  0  0  0  0  0  0
   -7.5127   17.4903  -32.1284 H   0  0  0  0  0  0  0  0  0  0  0  0
   -4.4857   20.7775  -33.5028 H   0  0  0  0  0  0  0  0  0  0  0  0
   -4.4169   22.9070  -32.2137 H   0  0  0  0  0  0  0  0  0  0  0  0
  1  2  2  0
  2  3  1  0
  3  4  1  0
  4  5  1  0
  4  6  2  0
  6  7  1  0
  7  8  1  0
  8  9  2  0
  9 10  1  0
 10 11  2  0
 11 12  1  0
 12 13  1  0
 13 14  2  0
 14 15  1  0
 15 16  2  0
 11 17  1  0
 17 18  2  0
  6 19  1  0
 19  2  1  0
 18  8  1  0
 16 12  1  0
  5 20  1  0
  7 21  1  0
  7 22  1  0
  9 23  1  0
 10 24  1  0
 13 25  1  0
 17 26  1  0
 18 27  1  0
M  CHG  1   3  -1
M  END
>  <UniqueID>  (45) 
44

>  <SMILES>  (45) 
O=c1[n-]c(O)c(Cc2ccc(-n3cnnn3)cc2)s1

>  <Energy>  (45) 
99.53422700970226

>  <Genealogy>  (45) 
O=c1[n-]c(O)c(Cc2ccc(-n3cnnn3)cc2)s1 (protonated)
O=c1[n-]c(O)c(Cc2ccc(-n3cnnn3)cc2)s1 (3D coordinates assigned)
O=c1[n-]c(O)c(Cc2ccc(-n3cnnn3)cc2)s1 (optimized conformer: 99.53422700970226 kcal/mol)

>  <smiles>  (45) 
O=c1[nH]c(O)c(Cc2ccc(-n3cnnn3)cc2)s1

>  <score_type>  (45) 
oracle

>  <origin>  (45) 
adgpu

>  <m_score__min__energy>  (45) 
-9.5999999999999996

>  <m_primary>  (45) 
energy

$$$$
45:0
     RDKit          3D

 40 42  0  0  0  0  0  0  0  0999 V2000
   -0.7836   19.0663  -28.9445 H   0  0  0  0  0  0  0  0  0  0  0  0
   -1.0170   20.1400  -28.8930 C   0  0  0  0  0  0  0  0  0  0  0  0
   -1.7320   20.6490  -27.8050 C   0  0  0  0  0  0  0  0  0  0  0  0
   -2.0557   19.9758  -26.9975 H   0  0  0  0  0  0  0  0  0  0  0  0
   -2.0370   22.0140  -27.7410 C   0  0  0  0  0  0  0  0  0  0  0  0
   -2.5996   22.4116  -26.8835 H   0  0  0  0  0  0  0  0  0  0  0  0
   -1.6260   22.8750  -28.7690 C   0  0  0  0  0  0  0  0  0  0  0  0
   -2.0710   24.5810  -28.7490 S   0  0  0  0  0  0  0  0  0  0  0  0
   -2.7730   24.9360  -27.4680 O   0  0  0  0  0  0  0  0  0  0  0  0
   -0.8260   25.4110  -28.8770 O   0  0  0  0  0  0  0  0  0  0  0  0
   -3.1240   24.9120  -30.0870 N   0  0  0  0  0  0  0  0  0  0  0  0
   -4.3210   24.1700  -30.3600 C   0  0  0  0  0  0  0  0  0  0  0  0
   -4.3100   22.7680  -30.4620 C   0  0  0  0  0  0  0  0  0  0  0  0
   -3.3872   22.2098  -30.2455 H   0  0  0  0  0  0  0  0  0  0  0  0
   -5.4660   22.0820  -30.8370 C   0  0  0  0  0  0  0  0  0  0  0  0
   -5.4516   20.9847  -30.9129 H   0  0  0  0  0  0  0  0  0  0  0  0
   -6.6440   22.7850  -31.1170 C   0  0  0  0  0  0  0  0  0  0  0  0
   -8.0430   21.9240  -31.7510 S   0  0  0  0  0  0  0  0  0  0  0  0
   -8.6760   21.1370  -30.6390 O   0  0  0  0  0  0  0  0  0  0  0  0
   -9.0530   22.8880  -32.3080 O   0  0  0  0  0  0  0  0  0  0  0  0
   -7.5400   20.8340  -33.0090 N   0  0  0  0  0  0  0  0  0  0  0  0
   -7.0520   19.6340  -32.8500 C   0  0  0  0  0  0  0  0  0  0  0  0
   -6.8340   19.0690  -31.5750 C   0  0  0  0  0  0  0  0  0  0  0  0
   -7.0463   19.6534  -30.6676 H   0  0  0  0  0  0  0  0  0  0  0  0
   -6.3480   17.7660  -31.4720 C   0  0  0  0  0  0  0  0  0  0  0  0
   -6.1790   17.3180  -30.4817 H   0  0  0  0  0  0  0  0  0  0  0  0
   -6.0770   17.0330  -32.6240 C   0  0  0  0  0  0  0  0  0  0  0  0
   -5.7012   16.0018  -32.5510 H   0  0  0  0  0  0  0  0  0  0  0  0
   -6.2870   17.6200  -33.8720 C   0  0  0  0  0  0  0  0  0  0  0  0
   -6.0687   17.0520  -34.7884 H   0  0  0  0  0  0  0  0  0  0  0  0
   -6.7610   18.8930  -33.9600 N   0  0  0  0  0  0  0  0  0  0  0  0
   -6.9140   19.3020  -34.9090 H   0  0  0  0  0  0  0  0  0  0  0  0
   -6.6740   24.1770  -30.9590 C   0  0  0  0  0  0  0  0  0  0  0  0
   -7.6084   24.7295  -31.1372 H   0  0  0  0  0  0  0  0  0  0  0  0
   -5.5180   24.8660  -30.5750 C   0  0  0  0  0  0  0  0  0  0  0  0
   -5.5510   26.2180  -30.4690 F   0  0  0  0  0  0  0  0  0  0  0  0
   -0.9010   22.3610  -29.8540 C   0  0  0  0  0  0  0  0  0  0  0  0
   -0.5689   23.0327  -30.6593 H   0  0  0  0  0  0  0  0  0  0  0  0
   -0.5990   20.9960  -29.9150 C   0  0  0  0  0  0  0  0  0  0  0  0
   -0.0318   20.5965  -30.7686 H   0  0  0  0  0  0  0  0  0  0  0  0
  1  2  1  0
  2  3  2  0
  3  4  1  0
  3  5  1  0
  5  6  1  0
  5  7  2  0
  7  8  1  0
  8  9  2  0
  8 10  2  0
  8 11  1  0
 11 12  1  0
 12 13  2  0
 13 14  1  0
 13 15  1  0
 15 16  1  0
 15 17  2  0
 17 18  1  0
 18 19  2  0
 18 20  2  0
 18 21  1  0
 21 22  2  0
 22 23  1  0
 23 24  1  0
 23 25  2  0
 25 26  1  0
 25 27  1  0
 27 28  1  0
 27 29  2  0
 29 30  1  0
 29 31  1  0
 31 32  1  0
 17 33  1  0
 33 34  1  0
 33 35  2  0
 35 36  1  0
  7 37  1  0
 37 38  1  0
 37 39  2  0
 39 40  1  0
 39  2  1  0
 35 12  1  0
 31 22  1  0
M  CHG  1  11  -1
M  END
>  <UniqueID>  (46) 
45

>  <SMILES>  (46) 
O=S(=O)(/N=c1\cccc[nH]1)c1ccc([N-]S(=O)(=O)c2ccccc2)c(F)c1

>  <Energy>  (46) 
50.97735680369114

>  <Genealogy>  (46) 
O=S(=O)(N=c1cccc[nH]1)c1ccc([N-]S(=O)(=O)c2ccccc2)c(F)c1 (protonated)
O=S(=O)(/N=c1\cccc[nH]1)c1ccc([N-]S(=O)(=O)c2ccccc2)c(F)c1 (cis-trans isomerization)
O=S(=O)(/N=c1\cccc[nH]1)c1ccc([N-]S(=O)(=O)c2ccccc2)c(F)c1 (3D coordinates assigned)
O=S(=O)(/N=c1\cccc[nH]1)c1ccc([N-]S(=O)(=O)c2ccccc2)c(F)c1 (optimized conformer: 50.97735680369114 kcal/mol)

>  <smiles>  (46) 
O=S(=O)(N=c1cccc[nH]1)c1ccc(NS(=O)(=O)c2ccccc2)c(F)c1

>  <score_type>  (46) 
oracle

>  <origin>  (46) 
adgpu

>  <m_score__min__energy>  (46) 
-11.039999999999999

>  <m_primary>  (46) 
energy

$$$$
46:0
     RDKit          3D

 56 58  0  0  0  0  0  0  0  0999 V2000
   -0.4510   21.5030  -27.2240 C   0  0  0  0  0  0  0  0  0  0  0  0
   -1.2660   22.4440  -28.0740 C   0  0  0  0  0  0  0  0  0  0  0  0
   -2.3000   21.9090  -28.8590 C   0  0  0  0  0  0  0  0  0  0  0  0
   -3.0790   22.7320  -29.6690 C   0  0  0  0  0  0  0  0  0  0  0  0
   -2.8290   24.1090  -29.7260 C   0  0  0  0  0  0  0  0  0  0  0  0
   -3.6210   24.9790  -30.5490 N   0  0  0  0  0  0  0  0  0  0  0  0
   -5.0500   25.0140  -30.6060 C   0  0  0  0  0  0  0  0  0  0  0  0
   -5.6130   25.9620  -31.2140 O   0  0  0  0  0  0  0  0  0  0  0  0
   -5.8250   23.9290  -30.0760 N   0  0  0  0  0  0  0  0  0  0  0  0
   -6.5490   22.9470  -30.8310 C   0  0  0  0  0  0  0  0  0  0  0  0
   -7.9450   23.0380  -30.8820 C   0  0  0  0  0  0  0  0  0  0  0  0
   -8.6870   22.1170  -31.6270 C   0  0  0  0  0  0  0  0  0  0  0  0
   -8.0380   21.1060  -32.3400 C   0  0  0  0  0  0  0  0  0  0  0  0
   -6.6390   21.0160  -32.3140 C   0  0  0  0  0  0  0  0  0  0  0  0
   -5.8000   19.7770  -33.2450 S   0  0  0  0  0  0  0  0  0  0  0  0
   -6.4850   19.6350  -34.5750 O   0  0  0  0  0  0  0  0  0  0  0  0
   -4.3710   20.1860  -33.4810 O   0  0  0  0  0  0  0  0  0  0  0  0
   -5.8540   18.2570  -32.3870 N   0  0  0  0  0  0  0  0  0  0  0  0
   -5.7480   17.1500  -33.3450 C   0  0  0  0  0  0  0  0  0  0  0  0
   -7.1180   18.1620  -31.6450 C   0  0  0  0  0  0  0  0  0  0  0  0
   -5.8960   21.9430  -31.5690 C   0  0  0  0  0  0  0  0  0  0  0  0
   -1.8280   24.6640  -28.9160 C   0  0  0  0  0  0  0  0  0  0  0  0
   -1.6110   26.0370  -28.9730 O   0  0  0  0  0  0  0  0  0  0  0  0
   -1.0460   23.8450  -28.0710 C   0  0  0  0  0  0  0  0  0  0  0  0
    0.2310   24.5630  -27.0570 S   0  0  0  0  0  0  0  0  0  0  0  0
    0.7470   23.5690  -26.0530 O   0  0  0  0  0  0  0  0  0  0  0  0
    1.3830   24.9700  -27.9330 O   0  0  0  0  0  0  0  0  0  0  0  0
   -0.4010   25.9630  -26.2300 N   0  0  0  0  0  0  0  0  0  0  0  0
   -0.3300   25.7630  -24.7720 C   0  0  0  0  0  0  0  0  0  0  0  0
   -0.6070   27.0800  -24.0210 C   0  0  0  0  0  0  0  0  0  0  0  0
   -1.1490   28.0550  -24.8900 O   0  0  0  0  0  0  0  0  0  0  0  0
   -0.1930   28.3990  -25.8780 C   0  0  0  0  0  0  0  0  0  0  0  0
    0.3570   27.1610  -26.6180 C   0  0  0  0  0  0  0  0  0  0  0  0
   -0.6356   21.7162  -26.1608 H   0  0  0  0  0  0  0  0  0  0  0  0
   -0.7402   20.4651  -27.4455 H   0  0  0  0  0  0  0  0  0  0  0  0
    0.6176   21.6411  -27.4455 H   0  0  0  0  0  0  0  0  0  0  0  0
   -2.4972   20.8271  -28.8340 H   0  0  0  0  0  0  0  0  0  0  0  0
   -3.8944   22.2985  -30.2667 H   0  0  0  0  0  0  0  0  0  0  0  0
   -8.4611   23.8391  -30.3325 H   0  0  0  0  0  0  0  0  0  0  0  0
   -9.7844   22.1884  -31.6519 H   0  0  0  0  0  0  0  0  0  0  0  0
   -8.6248   20.3802  -32.9221 H   0  0  0  0  0  0  0  0  0  0  0  0
   -5.6570   16.1997  -32.7986 H   0  0  0  0  0  0  0  0  0  0  0  0
   -6.6478   17.1248  -33.9772 H   0  0  0  0  0  0  0  0  0  0  0  0
   -4.8597   17.2960  -33.9772 H   0  0  0  0  0  0  0  0  0  0  0  0
   -6.9111   18.1776  -30.5647 H   0  0  0  0  0  0  0  0  0  0  0  0
   -7.7621   19.0143  -31.9073 H   0  0  0  0  0  0  0  0  0  0  0  0
   -7.6275   17.2230  -31.9073 H   0  0  0  0  0  0  0  0  0  0  0  0
   -4.7976   21.8849  -31.5616 H   0  0  0  0  0  0  0  0  0  0  0  0
   -1.0792   25.0145  -24.4744 H   0  0  0  0  0  0  0  0  0  0  0  0
    0.6821   25.4180  -24.5139 H   0  0  0  0  0  0  0  0  0  0  0  0
   -1.3214   26.8866  -23.2072 H   0  0  0  0  0  0  0  0  0  0  0  0
    0.3433   27.4598  -23.6177 H   0  0  0  0  0  0  0  0  0  0  0  0
   -0.6674   29.0676  -26.6115 H   0  0  0  0  0  0  0  0  0  0  0  0
    0.6510   28.8910  -25.3724 H   0  0  0  0  0  0  0  0  0  0  0  0
    0.2641   27.3147  -27.7032 H   0  0  0  0  0  0  0  0  0  0  0  0
    1.4144   27.0209  -26.3491 H   0  0  0  0  0  0  0  0  0  0  0  0
  1  2  1  0
  2  3  2  0
  3  4  1  0
  4  5  2  0
  5  6  1  0
  6  7  1  0
  7  8  2  0
  7  9  1  0
  9 10  1  0
 10 11  2  0
 11 12  1  0
 12 13  2  0
 13 14  1  0
 14 15  1  0
 15 16  2  0
 15 17  2  0
 15 18  1  0
 18 19  1  0
 18 20  1  0
 14 21  2  0
  5 22  1  0
 22 23  1  0
 22 24  2  0
 24 25  1  0
 25 26  2  0
 25 27  2  0
 25 28  1  0
 28 29  1  0
 29 30  1  0
 30 31  1  0
 31 32  1  0
 32 33  1  0
 24  2  1  0
 33 28  1  0
 21 10  1  0
  1 34  1  0
  1 35  1  0
  1 36  1  0
  3 37  1  0
  4 38  1  0
 11 39  1  0
 12 40  1  0
 13 41  1  0
 19 42  1  0
 19 43  1  0
 19 44  1  0
 20 45  1  0
 20 46  1  0
 20 47  1  0
 21 48  1  0
 29 49  1  0
 29 50  1  0
 30 51  1  0
 30 52  1  0
 32 53  1  0
 32 54  1  0
 33 55  1  0
 33 56  1  0
M  CHG  3   6  -1   9  -1  23  -1
M  END
>  <UniqueID>  (47) 
46

>  <SMILES>  (47) 
Cc1ccc([N-]C(=O)[N-]c2cccc(S(=O)(=O)N(C)C)c2)c([O-])c1S(=O)(=O)N1CCOCC1

>  <Energy>  (47) 
71.81376892472836

>  <Genealogy>  (47) 
Cc1ccc([N-]C(=O)[N-]c2cccc(S(=O)(=O)N(C)C)c2)c([O-])c1S(=O)(=O)N1CCOCC1 (protonated)
Cc1ccc([N-]C(=O)[N-]c2cccc(S(=O)(=O)N(C)C)c2)c([O-])c1S(=O)(=O)N1CCOCC1 (3D coordinates assigned)
Cc1ccc([N-]C(=O)[N-]c2cccc(S(=O)(=O)N(C)C)c2)c([O-])c1S(=O)(=O)N1CCOCC1 (nonaromatic ring conformer: 71.81376892472836 kcal/mol)

>  <smiles>  (47) 
Cc1ccc(NC(=O)Nc2cccc(S(=O)(=O)N(C)C)c2)c(O)c1S(=O)(=O)N1CCOCC1

>  <score_type>  (47) 
oracle

>  <origin>  (47) 
adgpu

>  <m_score__min__energy>  (47) 
-16.280000000000001

>  <m_primary>  (47) 
energy

$$$$
47:0
     RDKit          3D

 45 47  0  0  0  0  0  0  0  0999 V2000
   -8.9550   19.9590  -31.7570 C   0  0  0  0  0  0  0  0  0  0  0  0
   -7.9780   21.0940  -31.8490 C   0  0  0  0  0  0  0  0  0  0  0  0
   -8.4130   22.4140  -31.6680 C   0  0  0  0  0  0  0  0  0  0  0  0
   -7.4980   23.4680  -31.7130 C   0  0  0  0  0  0  0  0  0  0  0  0
   -6.1370   23.2150  -31.9290 C   0  0  0  0  0  0  0  0  0  0  0  0
   -5.2290   24.2730  -31.9680 O   0  0  0  0  0  0  0  0  0  0  0  0
   -5.6890   21.8940  -32.1000 C   0  0  0  0  0  0  0  0  0  0  0  0
   -3.9760   21.5620  -32.3610 S   0  0  0  0  0  0  0  0  0  0  0  0
   -3.6130   20.2780  -31.6700 O   0  0  0  0  0  0  0  0  0  0  0  0
   -3.7240   21.4460  -33.8390 O   0  0  0  0  0  0  0  0  0  0  0  0
   -3.0120   22.8500  -31.7110 N   0  0  0  0  0  0  0  0  0  0  0  0
   -2.6870   23.0200  -30.3240 C   0  0  0  0  0  0  0  0  0  0  0  0
   -2.1200   21.9830  -29.5620 C   0  0  0  0  0  0  0  0  0  0  0  0
   -1.7860   22.1920  -28.2160 C   0  0  0  0  0  0  0  0  0  0  0  0
   -1.0300   20.8990  -27.2820 S   0  0  0  0  0  0  0  0  0  0  0  0
   -1.6130   20.8850  -25.8960 O   0  0  0  0  0  0  0  0  0  0  0  0
    0.4430   21.1740  -27.1590 O   0  0  0  0  0  0  0  0  0  0  0  0
   -1.2590   19.3300  -28.0290 N   0  0  0  0  0  0  0  0  0  0  0  0
   -0.4400   19.1910  -29.2380 C   0  0  0  0  0  0  0  0  0  0  0  0
    0.8110   18.3940  -28.8870 C   0  0  0  0  0  0  0  0  0  0  0  0
    0.5710   17.8380  -27.4980 C   0  0  0  0  0  0  0  0  0  0  0  0
   -0.8440   18.2510  -27.1260 C   0  0  0  0  0  0  0  0  0  0  0  0
   -2.0420   23.4350  -27.6240 C   0  0  0  0  0  0  0  0  0  0  0  0
   -2.6160   24.4630  -28.3720 C   0  0  0  0  0  0  0  0  0  0  0  0
   -2.9360   24.2610  -29.7180 C   0  0  0  0  0  0  0  0  0  0  0  0
   -3.5000   25.2980  -30.4520 O   0  0  0  0  0  0  0  0  0  0  0  0
   -6.6120   20.8370  -32.0480 C   0  0  0  0  0  0  0  0  0  0  0  0
   -9.1523   19.7298  -30.6994 H   0  0  0  0  0  0  0  0  0  0  0  0
   -9.8952   20.2435  -32.2521 H   0  0  0  0  0  0  0  0  0  0  0  0
   -8.5338   19.0716  -32.2521 H   0  0  0  0  0  0  0  0  0  0  0  0
   -9.4787   22.6204  -31.4899 H   0  0  0  0  0  0  0  0  0  0  0  0
   -7.8476   24.5022  -31.5782 H   0  0  0  0  0  0  0  0  0  0  0  0
   -4.2810   24.1720  -31.6250 H   0  0  0  0  0  0  0  0  0  0  0  0
   -1.9373   21.0018  -30.0245 H   0  0  0  0  0  0  0  0  0  0  0  0
   -1.0116   18.6612  -30.0143 H   0  0  0  0  0  0  0  0  0  0  0  0
   -0.1592   20.1841  -29.6187 H   0  0  0  0  0  0  0  0  0  0  0  0
    0.9581   17.5755  -29.6070 H   0  0  0  0  0  0  0  0  0  0  0  0
    1.7135   19.0219  -28.9210 H   0  0  0  0  0  0  0  0  0  0  0  0
    0.6613   16.7417  -27.5032 H   0  0  0  0  0  0  0  0  0  0  0  0
    1.3076   18.2200  -26.7759 H   0  0  0  0  0  0  0  0  0  0  0  0
   -1.5232   17.3926  -27.2347 H   0  0  0  0  0  0  0  0  0  0  0  0
   -0.8771   18.5956  -26.0819 H   0  0  0  0  0  0  0  0  0  0  0  0
   -1.7898   23.6012  -26.5663 H   0  0  0  0  0  0  0  0  0  0  0  0
   -2.8177   25.4364  -27.9011 H   0  0  0  0  0  0  0  0  0  0  0  0
   -6.2625   19.8005  -32.1640 H   0  0  0  0  0  0  0  0  0  0  0  0
  1  2  1  0
  2  3  2  0
  3  4  1  0
  4  5  2  0
  5  6  1  0
  5  7  1  0
  7  8  1  0
  8  9  2  0
  8 10  2  0
  8 11  1  0
 11 12  1  0
 12 13  2  0
 13 14  1  0
 14 15  1  0
 15 16  2  0
 15 17  2  0
 15 18  1  0
 18 19  1  0
 19 20  1  0
 20 21  1  0
 21 22  1  0
 14 23  2  0
 23 24  1  0
 24 25  2  0
 25 26  1  0
  7 27  2  0
 27  2  1  0
 25 12  1  0
 22 18  1  0
  1 28  1  0
  1 29  1  0
  1 30  1  0
  3 31  1  0
  4 32  1  0
  6 33  1  0
 13 34  1  0
 19 35  1  0
 19 36  1  0
 20 37  1  0
 20 38  1  0
 21 39  1  0
 21 40  1  0
 22 41  1  0
 22 42  1  0
 23 43  1  0
 24 44  1  0
 27 45  1  0
M  CHG  2  11  -1  26  -1
M  END
>  <UniqueID>  (48) 
47

>  <SMILES>  (48) 
Cc1ccc(O)c(S(=O)(=O)[N-]c2cc(S(=O)(=O)N3CCCC3)ccc2[O-])c1

>  <Energy>  (48) 
49.603975841777455

>  <Genealogy>  (48) 
Cc1ccc(O)c(S(=O)(=O)[N-]c2cc(S(=O)(=O)N3CCCC3)ccc2[O-])c1 (protonated)
Cc1ccc(O)c(S(=O)(=O)[N-]c2cc(S(=O)(=O)N3CCCC3)ccc2[O-])c1 (3D coordinates assigned)
Cc1ccc(O)c(S(=O)(=O)[N-]c2cc(S(=O)(=O)N3CCCC3)ccc2[O-])c1 (nonaromatic ring conformer: 49.603975841777455 kcal/mol)

>  <smiles>  (48) 
Cc1ccc(O)c(S(=O)(=O)Nc2cc(S(=O)(=O)N3CCCC3)ccc2O)c1

>  <score_type>  (48) 
oracle

>  <origin>  (48) 
adgpu

>  <m_score__min__energy>  (48) 
-13.380000000000001

>  <m_primary>  (48) 
energy

$$$$
48:0
     RDKit          3D

 38 40  0  0  0  0  0  0  0  0999 V2000
   -4.2090   25.6240  -30.7780 N   0  0  0  0  0  0  0  0  0  0  0  0
   -5.3530   24.3930  -30.3740 S   0  0  0  0  0  0  0  0  0  0  0  0
   -6.7490   24.9250  -30.5430 O   0  0  0  0  0  0  0  0  0  0  0  0
   -5.1430   23.9890  -28.9410 O   0  0  0  0  0  0  0  0  0  0  0  0
   -5.1220   23.0040  -31.4320 C   0  0  0  0  0  0  0  0  0  0  0  0
   -6.2230   22.2260  -31.8090 C   0  0  0  0  0  0  0  0  0  0  0  0
   -6.0460   21.1170  -32.6410 C   0  0  0  0  0  0  0  0  0  0  0  0
   -4.7690   20.7760  -33.0940 C   0  0  0  0  0  0  0  0  0  0  0  0
   -3.6540   21.5450  -32.7140 C   0  0  0  0  0  0  0  0  0  0  0  0
   -2.3250   21.2310  -33.1510 N   0  0  0  0  0  0  0  0  0  0  0  0
   -1.0040   20.8180  -32.1070 S   0  0  0  0  0  0  0  0  0  0  0  0
    0.2280   21.5500  -32.5570 O   0  0  0  0  0  0  0  0  0  0  0  0
   -0.7530   19.3380  -32.1940 O   0  0  0  0  0  0  0  0  0  0  0  0
   -1.3760   21.2940  -30.4530 C   0  0  0  0  0  0  0  0  0  0  0  0
   -2.2320   20.5030  -29.6770 C   0  0  0  0  0  0  0  0  0  0  0  0
   -2.5200   20.8640  -28.3600 C   0  0  0  0  0  0  0  0  0  0  0  0
   -1.9570   22.0190  -27.8100 C   0  0  0  0  0  0  0  0  0  0  0  0
   -1.0980   22.8240  -28.5770 C   0  0  0  0  0  0  0  0  0  0  0  0
   -0.5110   24.0090  -28.0100 N   0  0  0  0  0  0  0  0  0  0  0  0
    0.4020   24.0730  -27.0180 C   0  0  0  0  0  0  0  0  0  0  0  0
    0.9500   22.9630  -26.3840 O   0  0  0  0  0  0  0  0  0  0  0  0
    0.7400   25.3820  -26.7360 C   0  0  0  0  0  0  0  0  0  0  0  0
   -0.0020   26.1640  -27.6010 C   0  0  0  0  0  0  0  0  0  0  0  0
   -0.7530   25.2900  -28.3610 C   0  0  0  0  0  0  0  0  0  0  0  0
   -1.6620   25.6750  -29.3400 O   0  0  0  0  0  0  0  0  0  0  0  0
   -0.8130   22.4550  -29.9030 C   0  0  0  0  0  0  0  0  0  0  0  0
   -3.8400   22.6570  -31.8810 C   0  0  0  0  0  0  0  0  0  0  0  0
   -3.5060   25.6540  -30.0050 H   0  0  0  0  0  0  0  0  0  0  0  0
   -7.2292   22.4879  -31.4498 H   0  0  0  0  0  0  0  0  0  0  0  0
   -6.9141   20.5112  -32.9399 H   0  0  0  0  0  0  0  0  0  0  0  0
   -4.6350   19.9032  -33.7500 H   0  0  0  0  0  0  0  0  0  0  0  0
   -2.6788   19.5943  -30.1067 H   0  0  0  0  0  0  0  0  0  0  0  0
   -3.1914   20.2383  -27.7536 H   0  0  0  0  0  0  0  0  0  0  0  0
   -2.1875   22.2992  -26.7716 H   0  0  0  0  0  0  0  0  0  0  0  0
    1.4550   25.7315  -25.9767 H   0  0  0  0  0  0  0  0  0  0  0  0
    0.0046   27.2618  -27.6699 H   0  0  0  0  0  0  0  0  0  0  0  0
   -0.1445   23.0804  -30.5130 H   0  0  0  0  0  0  0  0  0  0  0  0
   -2.9731   23.2622  -31.5772 H   0  0  0  0  0  0  0  0  0  0  0  0
  1  2  1  0
  2  3  2  0
  2  4  2  0
  2  5  1  0
  5  6  2  0
  6  7  1  0
  7  8  2  0
  8  9  1  0
  9 10  1  0
 10 11  1  0
 11 12  2  0
 11 13  2  0
 11 14  1  0
 14 15  2  0
 15 16  1  0
 16 17  2  0
 17 18  1  0
 18 19  1  0
 19 20  1  0
 20 21  1  0
 20 22  2  0
 22 23  1  0
 23 24  2  0
 24 25  1  0
 18 26  2  0
  9 27  2  0
 27  5  1  0
 26 14  1  0
 24 19  1  0
  1 28  1  0
  6 29  1  0
  7 30  1  0
  8 31  1  0
 15 32  1  0
 16 33  1  0
 17 34  1  0
 22 35  1  0
 23 36  1  0
 26 37  1  0
 27 38  1  0
M  CHG  4   1  -1  10  -1  21  -1  25  -1
M  END
>  <UniqueID>  (49) 
48

>  <SMILES>  (49) 
[NH-]S(=O)(=O)c1cccc([N-]S(=O)(=O)c2cccc(-n3c([O-])ccc3[O-])c2)c1

>  <Energy>  (49) 
76.85731170202624

>  <Genealogy>  (49) 
[NH-]S(=O)(=O)c1cccc([N-]S(=O)(=O)c2cccc(-n3c([O-])ccc3[O-])c2)c1 (protonated)
[NH-]S(=O)(=O)c1cccc([N-]S(=O)(=O)c2cccc(-n3c([O-])ccc3[O-])c2)c1 (3D coordinates assigned)
[NH-]S(=O)(=O)c1cccc([N-]S(=O)(=O)c2cccc(-n3c([O-])ccc3[O-])c2)c1 (optimized conformer: 76.85731170202624 kcal/mol)

>  <smiles>  (49) 
NS(=O)(=O)c1cccc(NS(=O)(=O)c2cccc(-n3c(O)ccc3O)c2)c1

>  <score_type>  (49) 
oracle

>  <origin>  (49) 
adgpu

>  <m_score__min__energy>  (49) 
-13.16

>  <m_primary>  (49) 
energy

$$$$
