0:0
     RDKit          3D

 42 45  0  0  0  0  0  0  0  0999 V2000
    0.3160   25.6050  -27.8520 O   0  0  0  0  0  0  0  0  0  0  0  0
   -0.7270   25.0290  -28.2550 C   0  0  0  0  0  0  0  0  0  0  0  0
   -0.9960   23.7290  -27.9660 N   0  0  0  0  0  0  0  0  0  0  0  0
   -2.1730   23.5450  -28.5810 C   0  0  0  0  0  0  0  0  0  0  0  0
   -2.9400   22.3830  -28.6190 C   0  0  0  0  0  0  0  0  0  0  0  0
   -4.1560   22.4270  -29.3270 C   0  0  0  0  0  0  0  0  0  0  0  0
   -4.5690   23.6160  -29.9760 C   0  0  0  0  0  0  0  0  0  0  0  0
   -6.1100   23.6520  -30.8310 S   0  0  0  0  0  0  0  0  0  0  0  0
   -7.1900   23.0690  -29.9610 O   0  0  0  0  0  0  0  0  0  0  0  0
   -6.4590   25.0820  -31.1350 O   0  0  0  0  0  0  0  0  0  0  0  0
   -5.9900   22.7420  -32.3200 N   0  0  0  0  0  0  0  0  0  0  0  0
   -4.7090   21.9960  -32.3440 C   0  0  0  0  0  0  0  0  0  0  0  0
   -4.7410   20.8320  -33.3400 C   0  0  0  0  0  0  0  0  0  0  0  0
   -5.8370   19.9120  -33.0090 N   0  0  0  0  0  0  0  0  0  0  0  0
   -5.7780   18.5270  -33.4160 C   0  0  0  0  0  0  0  0  0  0  0  0
   -4.6670   18.0360  -34.1270 C   0  0  0  0  0  0  0  0  0  0  0  0
   -4.6100   16.6950  -34.5190 C   0  0  0  0  0  0  0  0  0  0  0  0
   -5.6590   15.8280  -34.2040 C   0  0  0  0  0  0  0  0  0  0  0  0
   -5.6000   14.4960  -34.5940 O   0  0  0  0  0  0  0  0  0  0  0  0
   -6.7670   16.3010  -33.4970 C   0  0  0  0  0  0  0  0  0  0  0  0
   -6.8290   17.6420  -33.1030 C   0  0  0  0  0  0  0  0  0  0  0  0
   -6.9660   20.4150  -32.2150 C   0  0  0  0  0  0  0  0  0  0  0  0
   -7.2010   21.9010  -32.5190 C   0  0  0  0  0  0  0  0  0  0  0  0
   -3.7640   24.7730  -29.9090 C   0  0  0  0  0  0  0  0  0  0  0  0
   -2.5690   24.6920  -29.1990 C   0  0  0  0  0  0  0  0  0  0  0  0
   -1.6620   25.6610  -29.0080 N   0  0  0  0  0  0  0  0  0  0  0  0
   -2.6076   21.4640  -28.1140 H   0  0  0  0  0  0  0  0  0  0  0  0
   -4.7908   21.5301  -29.3765 H   0  0  0  0  0  0  0  0  0  0  0  0
   -5.9610   23.4500  -33.0930 H   0  0  0  0  0  0  0  0  0  0  0  0
   -3.9015   22.6860  -32.6301 H   0  0  0  0  0  0  0  0  0  0  0  0
   -4.5396   21.5795  -31.3401 H   0  0  0  0  0  0  0  0  0  0  0  0
   -4.8920   21.2267  -34.3556 H   0  0  0  0  0  0  0  0  0  0  0  0
   -3.7866   20.2876  -33.2870 H   0  0  0  0  0  0  0  0  0  0  0  0
   -3.8366   18.7129  -34.3764 H   0  0  0  0  0  0  0  0  0  0  0  0
   -3.7379   16.3223  -35.0762 H   0  0  0  0  0  0  0  0  0  0  0  0
   -7.5926   15.6176  -33.2495 H   0  0  0  0  0  0  0  0  0  0  0  0
   -7.7037   18.0079  -32.5453 H   0  0  0  0  0  0  0  0  0  0  0  0
   -7.8717   19.8440  -32.4672 H   0  0  0  0  0  0  0  0  0  0  0  0
   -6.7362   20.2972  -31.1457 H   0  0  0  0  0  0  0  0  0  0  0  0
   -7.5237   21.9962  -33.5663 H   0  0  0  0  0  0  0  0  0  0  0  0
   -7.9659   22.2602  -31.8148 H   0  0  0  0  0  0  0  0  0  0  0  0
   -4.0703   25.7078  -30.4013 H   0  0  0  0  0  0  0  0  0  0  0  0
  1  2  2  0
  2  3  1  0
  3  4  1  0
  4  5  2  0
  5  6  1  0
  6  7  2  0
  7  8  1  0
  8  9  2  0
  8 10  2  0
  8 11  1  0
 11 12  1  0
 12 13  1  0
 13 14  1  0
 14 15  1  0
 15 16  2  0
 16 17  1  0
 17 18  2  0
 18 19  1  0
 18 20  1  0
 20 21  2  0
 14 22  1  0
 22 23  1  0
  7 24  1  0
 24 25  2  0
 25 26  1  0
 26  2  1  0
 25  4  1  0
 23 11  1  0
 21 15  1  0
  5 27  1  0
  6 28  1  0
 11 29  1  0
 12 30  1  0
 12 31  1  0
 13 32  1  0
 13 33  1  0
 16 34  1  0
 17 35  1  0
 20 36  1  0
 21 37  1  0
 22 38  1  0
 22 39  1  0
 23 40  1  0
 23 41  1  0
 24 42  1  0
M  CHG  4   3  -1  11   1  19  -1  26  -1
M  END
>  <UniqueID>  (1) 
1

>  <SMILES>  (1) 
O=c1[n-]c2ccc(S(=O)(=O)[NH+]3CCN(c4ccc([O-])cc4)CC3)cc2[n-]1

>  <Energy>  (1) 
89.16314605805394

>  <Genealogy>  (1) 
O=c1[n-]c2ccc(S(=O)(=O)[NH+]3CCN(c4ccc([O-])cc4)CC3)cc2[n-]1 (protonated)
O=c1[n-]c2ccc(S(=O)(=O)[NH+]3CCN(c4ccc([O-])cc4)CC3)cc2[n-]1 (3D coordinates assigned)
O=c1[n-]c2ccc(S(=O)(=O)[NH+]3CCN(c4ccc([O-])cc4)CC3)cc2[n-]1 (nonaromatic ring conformer: 89.16314605805394 kcal/mol)

>  <smiles>  (1) 
O=c1[nH]c2ccc(S(=O)(=O)N3CCN(c4ccc(O)cc4)CC3)cc2[nH]1

>  <score_type>  (1) 
oracle

>  <origin>  (1) 
adgpu

>  <m_score__min__energy>  (1) 
-10.25

>  <m_primary>  (1) 
energy

$$$$
1:0
     RDKit          3D

 46 48  0  0  0  0  0  0  0  0999 V2000
    2.2960   17.8660  -37.7320 C   0  0  0  0  0  0  0  0  0  0  0  0
    2.7320   18.7350  -36.2430 S   0  0  0  0  0  0  0  0  0  0  0  0
    3.3290   17.7690  -35.2580 O   0  0  0  0  0  0  0  0  0  0  0  0
    3.7500   19.7950  -36.5560 O   0  0  0  0  0  0  0  0  0  0  0  0
    1.2930   19.4810  -35.5580 C   0  0  0  0  0  0  0  0  0  0  0  0
    1.0770   20.8590  -35.6870 C   0  0  0  0  0  0  0  0  0  0  0  0
   -0.0640   21.4470  -35.1330 C   0  0  0  0  0  0  0  0  0  0  0  0
   -0.9920   20.6700  -34.4230 C   0  0  0  0  0  0  0  0  0  0  0  0
   -2.1680   21.2970  -33.8850 N   0  0  0  0  0  0  0  0  0  0  0  0
   -3.0280   20.6890  -32.9040 C   0  0  0  0  0  0  0  0  0  0  0  0
   -2.7570   19.5490  -32.4390 O   0  0  0  0  0  0  0  0  0  0  0  0
   -4.2430   21.3850  -32.4250 C   0  0  0  0  0  0  0  0  0  0  0  0
   -4.1090   22.5440  -31.6420 C   0  0  0  0  0  0  0  0  0  0  0  0
   -5.2420   23.2230  -31.1680 C   0  0  0  0  0  0  0  0  0  0  0  0
   -5.0630   24.6730  -30.1800 S   0  0  0  0  0  0  0  0  0  0  0  0
   -4.2520   25.6780  -30.9480 O   0  0  0  0  0  0  0  0  0  0  0  0
   -6.4260   25.2260  -29.8710 O   0  0  0  0  0  0  0  0  0  0  0  0
   -4.2560   24.2750  -28.6970 N   0  0  0  0  0  0  0  0  0  0  0  0
   -2.9500   23.7010  -28.5240 C   0  0  0  0  0  0  0  0  0  0  0  0
   -2.8830   22.3990  -28.0070 C   0  0  0  0  0  0  0  0  0  0  0  0
   -1.6520   21.7670  -27.8160 C   0  0  0  0  0  0  0  0  0  0  0  0
   -0.4690   22.4310  -28.1380 C   0  0  0  0  0  0  0  0  0  0  0  0
   -0.5150   23.7290  -28.6470 C   0  0  0  0  0  0  0  0  0  0  0  0
   -1.7440   24.3730  -28.8400 C   0  0  0  0  0  0  0  0  0  0  0  0
   -1.7340   25.6700  -29.3360 O   0  0  0  0  0  0  0  0  0  0  0  0
   -6.5200   22.7510  -31.5010 C   0  0  0  0  0  0  0  0  0  0  0  0
   -7.6310   23.3990  -31.0700 F   0  0  0  0  0  0  0  0  0  0  0  0
   -6.6600   21.6100  -32.2940 C   0  0  0  0  0  0  0  0  0  0  0  0
   -5.5320   20.9290  -32.7600 C   0  0  0  0  0  0  0  0  0  0  0  0
   -5.7050   19.8630  -33.5830 F   0  0  0  0  0  0  0  0  0  0  0  0
   -0.7790   19.2850  -34.3100 C   0  0  0  0  0  0  0  0  0  0  0  0
    0.3610   18.6980  -34.8660 C   0  0  0  0  0  0  0  0  0  0  0  0
    1.8167   16.9107  -37.4720 H   0  0  0  0  0  0  0  0  0  0  0  0
    1.5980   18.4777  -38.3225 H   0  0  0  0  0  0  0  0  0  0  0  0
    3.2036   17.6721  -38.3225 H   0  0  0  0  0  0  0  0  0  0  0  0
    1.8074   21.4804  -36.2259 H   0  0  0  0  0  0  0  0  0  0  0  0
   -0.2355   22.5267  -35.2546 H   0  0  0  0  0  0  0  0  0  0  0  0
   -2.3750   22.2720  -34.2010 H   0  0  0  0  0  0  0  0  0  0  0  0
   -3.1056   22.9230  -31.3980 H   0  0  0  0  0  0  0  0  0  0  0  0
   -3.8115   21.8688  -27.7487 H   0  0  0  0  0  0  0  0  0  0  0  0
   -1.6159   20.7448  -27.4113 H   0  0  0  0  0  0  0  0  0  0  0  0
    0.5000   21.9316  -27.9908 H   0  0  0  0  0  0  0  0  0  0  0  0
    0.4203   24.2505  -28.8986 H   0  0  0  0  0  0  0  0  0  0  0  0
   -7.6647   21.2449  -32.5535 H   0  0  0  0  0  0  0  0  0  0  0  0
   -1.5136   18.6599  -33.7811 H   0  0  0  0  0  0  0  0  0  0  0  0
    0.5268   17.6158  -34.7595 H   0  0  0  0  0  0  0  0  0  0  0  0
  1  2  1  0
  2  3  2  0
  2  4  2  0
  2  5  1  0
  5  6  2  0
  6  7  1  0
  7  8  2  0
  8  9  1  0
  9 10  1  0
 10 11  2  0
 10 12  1  0
 12 13  2  0
 13 14  1  0
 14 15  1  0
 15 16  2  0
 15 17  2  0
 15 18  1  0
 18 19  1  0
 19 20  2  0
 20 21  1  0
 21 22  2  0
 22 23  1  0
 23 24  2  0
 24 25  1  0
 14 26  2  0
 26 27  1  0
 26 28  1  0
 28 29  2  0
 29 30  1  0
  8 31  1  0
 31 32  2  0
 32  5  1  0
 29 12  1  0
 24 19  1  0
  1 33  1  0
  1 34  1  0
  1 35  1  0
  6 36  1  0
  7 37  1  0
  9 38  1  0
 13 39  1  0
 20 40  1  0
 21 41  1  0
 22 42  1  0
 23 43  1  0
 28 44  1  0
 31 45  1  0
 32 46  1  0
M  CHG  2  18  -1  25  -1
M  END
>  <UniqueID>  (2) 
2

>  <SMILES>  (2) 
CS(=O)(=O)c1ccc(NC(=O)c2cc(S(=O)(=O)[N-]c3ccccc3[O-])c(F)cc2F)cc1

>  <Energy>  (2) 
62.842803509409755

>  <Genealogy>  (2) 
CS(=O)(=O)c1ccc(NC(=O)c2cc(S(=O)(=O)[N-]c3ccccc3[O-])c(F)cc2F)cc1 (protonated)
CS(=O)(=O)c1ccc(NC(=O)c2cc(S(=O)(=O)[N-]c3ccccc3[O-])c(F)cc2F)cc1 (3D coordinates assigned)
CS(=O)(=O)c1ccc(NC(=O)c2cc(S(=O)(=O)[N-]c3ccccc3[O-])c(F)cc2F)cc1 (optimized conformer: 62.842803509409755 kcal/mol)

>  <smiles>  (2) 
CS(=O)(=O)c1ccc(NC(=O)c2cc(S(=O)(=O)Nc3ccccc3O)c(F)cc2F)cc1

>  <score_type>  (2) 
oracle

>  <origin>  (2) 
adgpu

>  <m_score__min__energy>  (2) 
-12.84

>  <m_primary>  (2) 
energy

$$$$
2:0
     RDKit          3D

 50 52  0  0  0  0  0  0  0  0999 V2000
   -8.2150   22.6020  -30.8940 C   0  0  0  0  0  0  0  0  0  0  0  0
   -9.3300   22.3570  -31.9090 C   0  0  0  0  0  0  0  0  0  0  0  0
   -9.5370   20.9230  -32.1090 N   0  0  0  0  0  0  0  0  0  0  0  0
   -8.4850   19.9790  -32.4160 C   0  0  0  0  0  0  0  0  0  0  0  0
   -8.6870   18.5900  -32.3420 C   0  0  0  0  0  0  0  0  0  0  0  0
   -7.6460   17.7050  -32.6480 C   0  0  0  0  0  0  0  0  0  0  0  0
   -6.3750   18.1850  -32.9840 C   0  0  0  0  0  0  0  0  0  0  0  0
   -6.1510   19.5690  -33.0230 C   0  0  0  0  0  0  0  0  0  0  0  0
   -7.2170   20.4580  -32.7850 C   0  0  0  0  0  0  0  0  0  0  0  0
   -4.7610   20.0860  -33.2730 C   0  0  0  0  0  0  0  0  0  0  0  0
   -3.7710   19.1590  -32.6980 N   0  0  2  0  0  0  0  0  0  0  0  0
   -2.1670   19.8290  -32.8890 S   0  0  0  0  0  0  0  0  0  0  0  0
   -1.1260   18.7510  -32.7310 O   0  0  0  0  0  0  0  0  0  0  0  0
   -2.0270   20.4250  -34.2620 O   0  0  0  0  0  0  0  0  0  0  0  0
   -1.8910   21.0940  -31.6910 C   0  0  0  0  0  0  0  0  0  0  0  0
   -2.8790   22.0570  -31.4480 C   0  0  0  0  0  0  0  0  0  0  0  0
   -2.6730   23.0470  -30.4820 C   0  0  0  0  0  0  0  0  0  0  0  0
   -1.4790   23.0750  -29.7430 C   0  0  0  0  0  0  0  0  0  0  0  0
   -1.2020   24.3190  -28.5260 S   0  0  0  0  0  0  0  0  0  0  0  0
   -1.8100   25.6250  -28.9630 O   0  0  0  0  0  0  0  0  0  0  0  0
   -1.8480   23.8940  -27.2350 O   0  0  0  0  0  0  0  0  0  0  0  0
    0.5030   24.5340  -28.2660 N   0  0  0  0  0  0  0  0  0  0  0  0
    0.9580   23.6410  -27.2030 C   0  0  0  0  0  0  0  0  0  0  0  0
   -0.4870   22.1160  -29.9930 C   0  0  0  0  0  0  0  0  0  0  0  0
   -0.6910   21.1310  -30.9640 C   0  0  0  0  0  0  0  0  0  0  0  0
   -3.8440   17.8310  -33.3420 C   0  0  0  0  0  0  0  0  0  0  0  0
   -5.2620   17.2040  -33.2870 C   0  0  0  0  0  0  0  0  0  0  0  0
   -8.6204   22.5129  -29.8753 H   0  0  0  0  0  0  0  0  0  0  0  0
   -7.4181   21.8575  -31.0379 H   0  0  0  0  0  0  0  0  0  0  0  0
   -7.8036   23.6120  -31.0379 H   0  0  0  0  0  0  0  0  0  0  0  0
  -10.2620   22.8087  -31.5385 H   0  0  0  0  0  0  0  0  0  0  0  0
   -9.0426   22.8114  -32.8686 H   0  0  0  0  0  0  0  0  0  0  0  0
  -10.5280   20.5800  -32.1140 H   0  0  0  0  0  0  0  0  0  0  0  0
   -9.6691   18.1957  -32.0418 H   0  0  0  0  0  0  0  0  0  0  0  0
   -7.8292   16.6206  -32.6240 H   0  0  0  0  0  0  0  0  0  0  0  0
   -7.0547   21.5409  -32.8893 H   0  0  0  0  0  0  0  0  0  0  0  0
   -4.5934   20.1726  -34.3567 H   0  0  0  0  0  0  0  0  0  0  0  0
   -4.6509   21.0730  -32.8000 H   0  0  0  0  0  0  0  0  0  0  0  0
   -3.9440   19.0540  -31.6680 H   0  0  0  0  0  0  0  0  0  0  0  0
   -3.8192   22.0344  -32.0185 H   0  0  0  0  0  0  0  0  0  0  0  0
   -3.4483   23.8059  -30.3005 H   0  0  0  0  0  0  0  0  0  0  0  0
    0.7296   24.0892  -26.2248 H   0  0  0  0  0  0  0  0  0  0  0  0
    0.4432   22.6730  -27.2919 H   0  0  0  0  0  0  0  0  0  0  0  0
    2.0437   23.4885  -27.2919 H   0  0  0  0  0  0  0  0  0  0  0  0
    0.4540   22.1387  -29.4238 H   0  0  0  0  0  0  0  0  0  0  0  0
    0.0914   20.3827  -31.1588 H   0  0  0  0  0  0  0  0  0  0  0  0
   -3.5488   17.9367  -34.3964 H   0  0  0  0  0  0  0  0  0  0  0  0
   -3.1682   17.1615  -32.7897 H   0  0  0  0  0  0  0  0  0  0  0  0
   -5.4699   16.7402  -34.2625 H   0  0  0  0  0  0  0  0  0  0  0  0
   -5.2505   16.4807  -32.4583 H   0  0  0  0  0  0  0  0  0  0  0  0
  1  2  1  0
  2  3  1  0
  3  4  1  0
  4  5  2  0
  5  6  1  0
  6  7  2  0
  7  8  1  0
  8  9  2  0
  8 10  1  0
 10 11  1  0
 11 12  1  0
 12 13  2  0
 12 14  2  0
 12 15  1  0
 15 16  2  0
 16 17  1  0
 17 18  2  0
 18 19  1  0
 19 20  2  0
 19 21  2  0
 19 22  1  0
 22 23  1  0
 18 24  1  0
 24 25  2  0
 11 26  1  0
 26 27  1  0
  9  4  1  0
 25 15  1  0
 27  7  1  0
  1 28  1  0
  1 29  1  0
  1 30  1  0
  2 31  1  0
  2 32  1  0
  3 33  1  0
  5 34  1  0
  6 35  1  0
  9 36  1  0
 10 37  1  0
 10 38  1  0
 11 39  1  1
 16 40  1  0
 17 41  1  0
 23 42  1  0
 23 43  1  0
 23 44  1  0
 24 45  1  0
 25 46  1  0
 26 47  1  0
 26 48  1  0
 27 49  1  0
 27 50  1  0
M  CHG  2  11   1  22  -1
M  END
>  <UniqueID>  (3) 
3

>  <SMILES>  (3) 
CCNc1ccc2c(c1)C[N@H+](S(=O)(=O)c1ccc(S(=O)(=O)[N-]C)cc1)CC2

>  <Energy>  (3) 
51.55212929553827

>  <Genealogy>  (3) 
CCNc1ccc2c(c1)C[NH+](S(=O)(=O)c1ccc(S(=O)(=O)[N-]C)cc1)CC2 (protonated)
CCNc1ccc2c(c1)C[N@H+](S(=O)(=O)c1ccc(S(=O)(=O)[N-]C)cc1)CC2 (chirality)
CCNc1ccc2c(c1)C[N@H+](S(=O)(=O)c1ccc(S(=O)(=O)[N-]C)cc1)CC2 (3D coordinates assigned)
CCNc1ccc2c(c1)C[N@H+](S(=O)(=O)c1ccc(S(=O)(=O)[N-]C)cc1)CC2 (nonaromatic ring conformer: 51.55212929553827 kcal/mol)

>  <smiles>  (3) 
CCNc1ccc2c(c1)CN(S(=O)(=O)c1ccc(S(=O)(=O)NC)cc1)CC2

>  <score_type>  (3) 
oracle

>  <origin>  (3) 
adgpu

>  <m_score__min__energy>  (3) 
-10.25

>  <m_primary>  (3) 
energy

$$$$
3:0
     RDKit          3D

 46 48  0  0  0  0  0  0  0  0999 V2000
   -3.1180   23.3610  -29.3850 O   0  0  0  0  0  0  0  0  0  0  0  0
   -2.9500   24.5640  -29.7250 C   0  0  0  0  0  0  0  0  0  0  0  0
   -3.9030   25.2110  -30.5720 N   0  0  0  0  0  0  0  0  0  0  0  0
   -5.3390   25.1970  -30.3080 C   0  0  0  0  0  0  0  0  0  0  0  0
   -5.9890   24.0580  -31.0510 C   0  0  0  0  0  0  0  0  0  0  0  0
   -7.3820   23.9860  -31.1720 C   0  0  0  0  0  0  0  0  0  0  0  0
   -7.9770   22.8730  -31.7660 C   0  0  0  0  0  0  0  0  0  0  0  0
   -7.2000   21.8090  -32.2350 C   0  0  0  0  0  0  0  0  0  0  0  0
   -7.8750   20.6980  -32.7430 O   0  0  0  0  0  0  0  0  0  0  0  0
   -5.7860   21.8880  -32.1560 C   0  0  0  0  0  0  0  0  0  0  0  0
   -4.6930   20.6110  -32.7340 S   0  0  0  0  0  0  0  0  0  0  0  0
   -3.8430   20.1550  -31.5790 O   0  0  0  0  0  0  0  0  0  0  0  0
   -3.7580   21.1370  -33.7860 O   0  0  0  0  0  0  0  0  0  0  0  0
   -5.5730   19.2360  -33.3580 N   0  0  0  0  0  0  0  0  0  0  0  0
   -4.7290   18.4520  -34.2710 C   0  0  0  0  0  0  0  0  0  0  0  0
   -5.5460   17.2800  -34.8570 C   0  0  0  0  0  0  0  0  0  0  0  0
   -6.8040   17.1280  -34.2210 O   0  0  0  0  0  0  0  0  0  0  0  0
   -6.6310   17.0590  -32.8200 C   0  0  0  0  0  0  0  0  0  0  0  0
   -6.0590   18.3800  -32.2640 C   0  0  0  0  0  0  0  0  0  0  0  0
   -5.2000   23.0230  -31.5730 C   0  0  0  0  0  0  0  0  0  0  0  0
   -1.8100   25.2980  -29.2680 N   0  0  0  0  0  0  0  0  0  0  0  0
   -1.5290   25.6510  -27.9060 C   0  0  0  0  0  0  0  0  0  0  0  0
   -0.6090   26.6630  -27.5720 C   0  0  0  0  0  0  0  0  0  0  0  0
   -0.3950   27.0060  -26.2320 C   0  0  0  0  0  0  0  0  0  0  0  0
   -1.1080   26.3570  -25.2210 C   0  0  0  0  0  0  0  0  0  0  0  0
   -0.8470   26.7970  -23.5430 Cl  0  0  0  0  0  0  0  0  0  0  0  0
   -2.0380   25.3650  -25.5480 C   0  0  0  0  0  0  0  0  0  0  0  0
   -2.2520   25.0180  -26.8850 C   0  0  0  0  0  0  0  0  0  0  0  0
   -5.5097   25.0722  -29.2285 H   0  0  0  0  0  0  0  0  0  0  0  0
   -5.7777   26.1467  -30.6479 H   0  0  0  0  0  0  0  0  0  0  0  0
   -8.0086   24.8090  -30.7978 H   0  0  0  0  0  0  0  0  0  0  0  0
   -9.0716   22.8316  -31.8668 H   0  0  0  0  0  0  0  0  0  0  0  0
   -7.5320   20.1250  -33.4990 H   0  0  0  0  0  0  0  0  0  0  0  0
   -4.3772   19.0977  -35.0891 H   0  0  0  0  0  0  0  0  0  0  0  0
   -3.8657   18.0538  -33.7177 H   0  0  0  0  0  0  0  0  0  0  0  0
   -5.7118   17.4656  -35.9285 H   0  0  0  0  0  0  0  0  0  0  0  0
   -4.9727   16.3557  -34.6925 H   0  0  0  0  0  0  0  0  0  0  0  0
   -7.6045   16.8621  -32.3473 H   0  0  0  0  0  0  0  0  0  0  0  0
   -5.9209   16.2495  -32.5956 H   0  0  0  0  0  0  0  0  0  0  0  0
   -6.8483   18.9118  -31.7125 H   0  0  0  0  0  0  0  0  0  0  0  0
   -5.2172   18.1478  -31.5951 H   0  0  0  0  0  0  0  0  0  0  0  0
   -4.1039   23.1016  -31.5250 H   0  0  0  0  0  0  0  0  0  0  0  0
   -0.0566   27.1858  -28.3667 H   0  0  0  0  0  0  0  0  0  0  0  0
    0.3353   27.7873  -25.9747 H   0  0  0  0  0  0  0  0  0  0  0  0
   -2.6019   24.8570  -24.7518 H   0  0  0  0  0  0  0  0  0  0  0  0
   -2.9917   24.2440  -27.1376 H   0  0  0  0  0  0  0  0  0  0  0  0
  1  2  2  0
  2  3  1  0
  3  4  1  0
  4  5  1  0
  5  6  2  0
  6  7  1  0
  7  8  2  0
  8  9  1  0
  8 10  1  0
 10 11  1  0
 11 12  2  0
 11 13  2  0
 11 14  1  0
 14 15  1  0
 15 16  1  0
 16 17  1  0
 17 18  1  0
 18 19  1  0
 10 20  2  0
  2 21  1  0
 21 22  1  0
 22 23  2  0
 23 24  1  0
 24 25  2  0
 25 26  1  0
 25 27  1  0
 27 28  2  0
 20  5  1  0
 28 22  1  0
 19 14  1  0
  4 29  1  0
  4 30  1  0
  6 31  1  0
  7 32  1  0
  9 33  1  0
 15 34  1  0
 15 35  1  0
 16 36  1  0
 16 37  1  0
 18 38  1  0
 18 39  1  0
 19 40  1  0
 19 41  1  0
 20 42  1  0
 23 43  1  0
 24 44  1  0
 27 45  1  0
 28 46  1  0
M  CHG  2   3  -1  21  -1
M  END
>  <UniqueID>  (4) 
4

>  <SMILES>  (4) 
O=C([N-]Cc1ccc(O)c(S(=O)(=O)N2CCOCC2)c1)[N-]c1ccc(Cl)cc1

>  <Energy>  (4) 
56.43386259812295

>  <Genealogy>  (4) 
O=C([N-]Cc1ccc(O)c(S(=O)(=O)N2CCOCC2)c1)[N-]c1ccc(Cl)cc1 (protonated)
O=C([N-]Cc1ccc(O)c(S(=O)(=O)N2CCOCC2)c1)[N-]c1ccc(Cl)cc1 (3D coordinates assigned)
O=C([N-]Cc1ccc(O)c(S(=O)(=O)N2CCOCC2)c1)[N-]c1ccc(Cl)cc1 (nonaromatic ring conformer: 56.43386259812295 kcal/mol)

>  <smiles>  (4) 
O=C(NCc1ccc(O)c(S(=O)(=O)N2CCOCC2)c1)Nc1ccc(Cl)cc1

>  <score_type>  (4) 
oracle

>  <origin>  (4) 
adgpu

>  <m_score__min__energy>  (4) 
-12.18

>  <m_primary>  (4) 
energy

$$$$
4:0
     RDKit          3D

 52 55  0  0  0  0  0  0  0  0999 V2000
   -1.9710   20.5830  -34.3850 O   0  0  0  0  0  0  0  0  0  0  0  0
   -2.4080   19.8580  -33.4510 C   0  0  0  0  0  0  0  0  0  0  0  0
   -1.7290   19.8060  -32.1910 N   0  0  0  0  0  0  0  0  0  0  0  0
   -1.5290   20.9030  -31.2860 C   0  0  0  0  0  0  0  0  0  0  0  0
   -0.4310   20.9540  -30.4080 C   0  0  0  0  0  0  0  0  0  0  0  0
   -0.2880   22.0260  -29.5230 C   0  0  0  0  0  0  0  0  0  0  0  0
   -1.2460   23.0480  -29.4890 C   0  0  0  0  0  0  0  0  0  0  0  0
   -1.0770   24.3890  -28.3530 S   0  0  0  0  0  0  0  0  0  0  0  0
    0.3850   24.6520  -28.1160 O   0  0  0  0  0  0  0  0  0  0  0  0
   -1.6770   25.6280  -28.9590 O   0  0  0  0  0  0  0  0  0  0  0  0
   -1.8590   24.0580  -26.8210 N   0  0  0  0  0  0  0  0  0  0  0  0
   -0.8720   23.8710  -25.7520 C   0  0  0  0  0  0  0  0  0  0  0  0
   -0.7460   25.1790  -24.9830 C   0  0  0  0  0  0  0  0  0  0  0  0
   -1.9340   26.0220  -25.4030 C   0  0  0  0  0  0  0  0  0  0  0  0
   -2.7090   25.1780  -26.4050 C   0  0  0  0  0  0  0  0  0  0  0  0
   -2.3470   22.9910  -30.3540 C   0  0  0  0  0  0  0  0  0  0  0  0
   -2.4910   21.9180  -31.2390 C   0  0  0  0  0  0  0  0  0  0  0  0
   -3.6420   19.1500  -33.6030 N   0  0  0  0  0  0  0  0  0  0  0  0
   -4.9180   19.5950  -33.1200 C   0  0  0  0  0  0  0  0  0  0  0  0
   -5.8940   18.6340  -32.8580 C   0  0  0  0  0  0  0  0  0  0  0  0
   -7.1620   19.0150  -32.4300 C   0  0  0  0  0  0  0  0  0  0  0  0
   -7.4680   20.3630  -32.2280 C   0  0  0  0  0  0  0  0  0  0  0  0
   -9.1200   20.7400  -31.7450 Cl  0  0  0  0  0  0  0  0  0  0  0  0
   -6.4880   21.3580  -32.4630 C   0  0  0  0  0  0  0  0  0  0  0  0
   -6.8240   23.0670  -32.0900 S   0  0  0  0  0  0  0  0  0  0  0  0
   -5.7600   23.9510  -32.6800 O   0  0  0  0  0  0  0  0  0  0  0  0
   -8.1330   23.4840  -32.7030 O   0  0  0  0  0  0  0  0  0  0  0  0
   -6.8280   23.2790  -30.3100 C   0  0  0  0  0  0  0  0  0  0  0  0
   -5.4550   23.5600  -29.7230 C   0  0  0  0  0  0  0  0  0  0  0  0
   -6.4910   24.6710  -29.7980 C   0  0  0  0  0  0  0  0  0  0  0  0
   -5.2320   20.9640  -32.9970 C   0  0  0  0  0  0  0  0  0  0  0  0
   -4.3060   21.9010  -33.4650 O   0  0  0  0  0  0  0  0  0  0  0  0
    0.3172   20.1477  -30.4181 H   0  0  0  0  0  0  0  0  0  0  0  0
    0.5809   22.0677  -28.8497 H   0  0  0  0  0  0  0  0  0  0  0  0
   -1.2052   23.0715  -25.0739 H   0  0  0  0  0  0  0  0  0  0  0  0
    0.1010   23.5879  -26.1800 H   0  0  0  0  0  0  0  0  0  0  0  0
   -0.7741   24.9905  -23.8996 H   0  0  0  0  0  0  0  0  0  0  0  0
    0.2062   25.6855  -25.1995 H   0  0  0  0  0  0  0  0  0  0  0  0
   -2.5637   26.2570  -24.5322 H   0  0  0  0  0  0  0  0  0  0  0  0
   -1.6159   26.9795  -25.8411 H   0  0  0  0  0  0  0  0  0  0  0  0
   -3.6268   24.7938  -25.9360 H   0  0  0  0  0  0  0  0  0  0  0  0
   -2.9864   25.7870  -27.2780 H   0  0  0  0  0  0  0  0  0  0  0  0
   -3.1001   23.7926  -30.3368 H   0  0  0  0  0  0  0  0  0  0  0  0
   -3.3668   21.8715  -31.9030 H   0  0  0  0  0  0  0  0  0  0  0  0
   -5.6598   17.5674  -32.9906 H   0  0  0  0  0  0  0  0  0  0  0  0
   -7.9298   18.2484  -32.2492 H   0  0  0  0  0  0  0  0  0  0  0  0
   -7.6443   22.5681  -30.1145 H   0  0  0  0  0  0  0  0  0  0  0  0
   -5.1758   23.1333  -28.7483 H   0  0  0  0  0  0  0  0  0  0  0  0
   -4.4195   23.4374  -30.0734 H   0  0  0  0  0  0  0  0  0  0  0  0
   -6.9615   25.0476  -28.8778 H   0  0  0  0  0  0  0  0  0  0  0  0
   -6.5158   25.6844  -30.2251 H   0  0  0  0  0  0  0  0  0  0  0  0
   -3.5390   21.6720  -34.0800 H   0  0  0  0  0  0  0  0  0  0  0  0
  1  2  2  0
  2  3  1  0
  3  4  1  0
  4  5  2  0
  5  6  1  0
  6  7  2  0
  7  8  1  0
  8  9  2  0
  8 10  2  0
  8 11  1  0
 11 12  1  0
 12 13  1  0
 13 14  1  0
 14 15  1  0
  7 16  1  0
 16 17  2  0
  2 18  1  0
 18 19  1  0
 19 20  2  0
 20 21  1  0
 21 22  2  0
 22 23  1  0
 22 24  1  0
 24 25  1  0
 25 26  2  0
 25 27  2  0
 25 28  1  0
 28 29  1  0
 29 30  1  0
 24 31  2  0
 31 32  1  0
 17  4  1  0
 31 19  1  0
 15 11  1  0
 30 28  1  0
  5 33  1  0
  6 34  1  0
 12 35  1  0
 12 36  1  0
 13 37  1  0
 13 38  1  0
 14 39  1  0
 14 40  1  0
 15 41  1  0
 15 42  1  0
 16 43  1  0
 17 44  1  0
 20 45  1  0
 21 46  1  0
 28 47  1  0
 29 48  1  0
 29 49  1  0
 30 50  1  0
 30 51  1  0
 32 52  1  0
M  CHG  2   3  -1  18  -1
M  END
>  <UniqueID>  (5) 
5

>  <SMILES>  (5) 
O=C([N-]c1ccc(S(=O)(=O)N2CCCC2)cc1)[N-]c1ccc(Cl)c(S(=O)(=O)C2CC2)c1O

>  <Energy>  (5) 
332.4575392057279

>  <Genealogy>  (5) 
O=C([N-]c1ccc(S(=O)(=O)N2CCCC2)cc1)[N-]c1ccc(Cl)c(S(=O)(=O)C2CC2)c1O (protonated)
O=C([N-]c1ccc(S(=O)(=O)N2CCCC2)cc1)[N-]c1ccc(Cl)c(S(=O)(=O)C2CC2)c1O (3D coordinates assigned)
O=C([N-]c1ccc(S(=O)(=O)N2CCCC2)cc1)[N-]c1ccc(Cl)c(S(=O)(=O)C2CC2)c1O (nonaromatic ring conformer: 332.4575392057279 kcal/mol)

>  <smiles>  (5) 
O=C(Nc1ccc(S(=O)(=O)N2CCCC2)cc1)Nc1ccc(Cl)c(S(=O)(=O)C2CC2)c1O

>  <score_type>  (5) 
oracle

>  <origin>  (5) 
adgpu

>  <m_score__min__energy>  (5) 
-14.02

>  <m_primary>  (5) 
energy

$$$$
5:0
     RDKit          3D

 34 36  0  0  0  0  0  0  0  0999 V2000
   -6.8170   16.1700  -33.8840 C   0  0  0  0  0  0  0  0  0  0  0  0
   -6.5030   17.5930  -33.5600 C   0  0  0  0  0  0  0  0  0  0  0  0
   -5.7440   18.4530  -34.3450 C   0  0  0  0  0  0  0  0  0  0  0  0
   -5.6820   19.7550  -33.8330 C   0  0  0  0  0  0  0  0  0  0  0  0
   -6.4060   19.9200  -32.6550 C   0  0  0  0  0  0  0  0  0  0  0  0
   -6.5380   21.1690  -31.8920 C   0  0  0  0  0  0  0  0  0  0  0  0
   -7.6840   21.6050  -31.2290 C   0  0  0  0  0  0  0  0  0  0  0  0
   -7.5200   22.8370  -30.5880 C   0  0  0  0  0  0  0  0  0  0  0  0
   -6.2470   23.3640  -30.7460 C   0  0  0  0  0  0  0  0  0  0  0  0
   -5.6960   24.9050  -30.1120 S   0  0  0  0  0  0  0  0  0  0  0  0
   -6.8620   25.7060  -29.6030 O   0  0  0  0  0  0  0  0  0  0  0  0
   -5.0190   25.6670  -31.2150 O   0  0  0  0  0  0  0  0  0  0  0  0
   -4.5700   24.6410  -28.8190 N   0  0  0  0  0  0  0  0  0  0  0  0
   -3.4320   23.7610  -28.9140 C   0  0  0  0  0  0  0  0  0  0  0  0
   -3.5640   22.3680  -28.7480 C   0  0  0  0  0  0  0  0  0  0  0  0
   -2.4480   21.5330  -28.8480 C   0  0  0  0  0  0  0  0  0  0  0  0
   -1.1880   22.0740  -29.1060 C   0  0  0  0  0  0  0  0  0  0  0  0
   -1.0410   23.4540  -29.2640 C   0  0  0  0  0  0  0  0  0  0  0  0
   -2.1540   24.2970  -29.1680 C   0  0  0  0  0  0  0  0  0  0  0  0
   -1.9800   25.6670  -29.3330 O   0  0  0  0  0  0  0  0  0  0  0  0
   -5.3220   22.3180  -31.6790 S   0  0  0  0  0  0  0  0  0  0  0  0
   -7.1240   18.4490  -32.2540 S   0  0  0  0  0  0  0  0  0  0  0  0
   -6.9426   15.6007  -32.9512 H   0  0  0  0  0  0  0  0  0  0  0  0
   -7.7469   16.1239  -34.4698 H   0  0  0  0  0  0  0  0  0  0  0  0
   -5.9928   15.7369  -34.4698 H   0  0  0  0  0  0  0  0  0  0  0  0
   -5.2431   18.1425  -35.2738 H   0  0  0  0  0  0  0  0  0  0  0  0
   -5.1171   20.5672  -34.3139 H   0  0  0  0  0  0  0  0  0  0  0  0
   -8.6251   21.0358  -31.2117 H   0  0  0  0  0  0  0  0  0  0  0  0
   -8.3175   23.3360  -30.0179 H   0  0  0  0  0  0  0  0  0  0  0  0
   -4.6960   25.2280  -27.9650 H   0  0  0  0  0  0  0  0  0  0  0  0
   -4.5530   21.9346  -28.5381 H   0  0  0  0  0  0  0  0  0  0  0  0
   -2.5632   20.4462  -28.7230 H   0  0  0  0  0  0  0  0  0  0  0  0
   -0.3113   21.4144  -29.1849 H   0  0  0  0  0  0  0  0  0  0  0  0
   -0.0468   23.8798  -29.4646 H   0  0  0  0  0  0  0  0  0  0  0  0
  1  2  1  0
  2  3  2  0
  3  4  1  0
  4  5  2  0
  5  6  1  0
  6  7  2  0
  7  8  1  0
  8  9  2  0
  9 10  1  0
 10 11  2  0
 10 12  2  0
 10 13  1  0
 13 14  1  0
 14 15  2  0
 15 16  1  0
 16 17  2  0
 17 18  1  0
 18 19  2  0
 19 20  1  0
  9 21  1  0
  5 22  1  0
 22  2  1  0
 21  6  1  0
 19 14  1  0
  1 23  1  0
  1 24  1  0
  1 25  1  0
  3 26  1  0
  4 27  1  0
  7 28  1  0
  8 29  1  0
 13 30  1  0
 15 31  1  0
 16 32  1  0
 17 33  1  0
 18 34  1  0
M  CHG  1  20  -1
M  END
>  <UniqueID>  (6) 
6

>  <SMILES>  (6) 
Cc1ccc(-c2ccc(S(=O)(=O)Nc3ccccc3[O-])s2)s1

>  <Energy>  (6) 
90.4514590634326

>  <Genealogy>  (6) 
Cc1ccc(-c2ccc(S(=O)(=O)Nc3ccccc3[O-])s2)s1 (protonated)
Cc1ccc(-c2ccc(S(=O)(=O)Nc3ccccc3[O-])s2)s1 (3D coordinates assigned)
Cc1ccc(-c2ccc(S(=O)(=O)Nc3ccccc3[O-])s2)s1 (optimized conformer: 90.4514590634326 kcal/mol)

>  <smiles>  (6) 
Cc1ccc(-c2ccc(S(=O)(=O)Nc3ccccc3O)s2)s1

>  <score_type>  (6) 
oracle

>  <origin>  (6) 
adgpu

>  <m_score__min__energy>  (6) 
-12.82

>  <m_primary>  (6) 
energy

$$$$
6:0
     RDKit          3D

 51 53  0  0  0  0  0  0  0  0999 V2000
   -2.7040   19.6920  -26.9560 C   0  0  0  0  0  0  0  0  0  0  0  0
   -1.2540   19.7290  -26.7260 N   0  0  0  0  0  0  0  0  0  0  0  0
   -0.5530   18.9720  -27.7740 C   0  0  0  0  0  0  0  0  0  0  0  0
   -0.6920   21.3880  -26.7020 S   0  0  0  0  0  0  0  0  0  0  0  0
   -0.8060   21.9570  -25.3160 O   0  0  0  0  0  0  0  0  0  0  0  0
    0.7590   21.4050  -27.0860 O   0  0  0  0  0  0  0  0  0  0  0  0
   -1.5920   22.4090  -27.8350 C   0  0  0  0  0  0  0  0  0  0  0  0
   -2.4480   23.4010  -27.3390 C   0  0  0  0  0  0  0  0  0  0  0  0
   -3.1270   24.2520  -28.2140 C   0  0  0  0  0  0  0  0  0  0  0  0
   -2.9700   24.1260  -29.5960 C   0  0  0  0  0  0  0  0  0  0  0  0
   -3.6680   25.0540  -30.4440 N   0  0  0  0  0  0  0  0  0  0  0  0
   -5.0570   25.0690  -30.8020 C   0  0  0  0  0  0  0  0  0  0  0  0
   -5.6910   26.1590  -30.8520 O   0  0  0  0  0  0  0  0  0  0  0  0
   -5.7440   23.8020  -31.1440 C   0  0  0  0  0  0  0  0  0  0  0  0
   -5.1720   22.9030  -32.0610 C   0  0  0  0  0  0  0  0  0  0  0  0
   -5.8230   21.7040  -32.3800 C   0  0  0  0  0  0  0  0  0  0  0  0
   -7.0520   21.3880  -31.7870 C   0  0  0  0  0  0  0  0  0  0  0  0
   -7.8850   19.8850  -32.1800 S   0  0  0  0  0  0  0  0  0  0  0  0
   -8.6980   19.4240  -31.0020 O   0  0  0  0  0  0  0  0  0  0  0  0
   -8.8110   20.1280  -33.3380 O   0  0  0  0  0  0  0  0  0  0  0  0
   -6.7120   18.6680  -32.6170 N   0  0  0  0  0  0  0  0  0  0  0  0
   -7.3330   17.3480  -32.7180 C   0  0  0  0  0  0  0  0  0  0  0  0
   -6.5030   16.5560  -33.7140 C   0  0  0  0  0  0  0  0  0  0  0  0
   -5.7880   17.5980  -34.5610 C   0  0  0  0  0  0  0  0  0  0  0  0
   -6.1300   18.9420  -33.9330 C   0  0  0  0  0  0  0  0  0  0  0  0
   -7.6310   22.2820  -30.8800 C   0  0  0  0  0  0  0  0  0  0  0  0
   -6.9840   23.4780  -30.5570 C   0  0  0  0  0  0  0  0  0  0  0  0
   -2.1010   23.1410  -30.0980 C   0  0  0  0  0  0  0  0  0  0  0  0
   -1.4250   22.2810  -29.2250 C   0  0  0  0  0  0  0  0  0  0  0  0
   -0.6000   21.3390  -29.7370 F   0  0  0  0  0  0  0  0  0  0  0  0
   -3.2284   19.6786  -25.9891 H   0  0  0  0  0  0  0  0  0  0  0  0
   -3.0078   20.5827  -27.5256 H   0  0  0  0  0  0  0  0  0  0  0  0
   -2.9619   18.7870  -27.5256 H   0  0  0  0  0  0  0  0  0  0  0  0
    0.1239   18.2410  -27.3077 H   0  0  0  0  0  0  0  0  0  0  0  0
   -1.2883   18.4441  -28.3991 H   0  0  0  0  0  0  0  0  0  0  0  0
    0.0297   19.6646  -28.3991 H   0  0  0  0  0  0  0  0  0  0  0  0
   -2.5863   23.5104  -26.2532 H   0  0  0  0  0  0  0  0  0  0  0  0
   -3.7923   25.0295  -27.8104 H   0  0  0  0  0  0  0  0  0  0  0  0
   -4.2068   23.1425  -32.5312 H   0  0  0  0  0  0  0  0  0  0  0  0
   -5.3669   21.0078  -33.0993 H   0  0  0  0  0  0  0  0  0  0  0  0
   -7.3277   16.8495  -31.7375 H   0  0  0  0  0  0  0  0  0  0  0  0
   -8.3804   17.4251  -33.0452 H   0  0  0  0  0  0  0  0  0  0  0  0
   -5.7745   15.9206  -33.1891 H   0  0  0  0  0  0  0  0  0  0  0  0
   -7.1260   15.8876  -34.3265 H   0  0  0  0  0  0  0  0  0  0  0  0
   -4.7011   17.4299  -34.5398 H   0  0  0  0  0  0  0  0  0  0  0  0
   -6.1007   17.5500  -35.6145 H   0  0  0  0  0  0  0  0  0  0  0  0
   -5.2197   19.5497  -33.8237 H   0  0  0  0  0  0  0  0  0  0  0  0
   -6.8367   19.5003  -34.5646 H   0  0  0  0  0  0  0  0  0  0  0  0
   -8.6004   22.0424  -30.4187 H   0  0  0  0  0  0  0  0  0  0  0  0
   -7.4459   24.1718  -29.8392 H   0  0  0  0  0  0  0  0  0  0  0  0
   -1.9516   23.0458  -31.1836 H   0  0  0  0  0  0  0  0  0  0  0  0
  1  2  1  0
  2  3  1  0
  2  4  1  0
  4  5  2  0
  4  6  2  0
  4  7  1  0
  7  8  2  0
  8  9  1  0
  9 10  2  0
 10 11  1  0
 11 12  1  0
 12 13  2  0
 12 14  1  0
 14 15  2  0
 15 16  1  0
 16 17  2  0
 17 18  1  0
 18 19  2  0
 18 20  2  0
 18 21  1  0
 21 22  1  0
 22 23  1  0
 23 24  1  0
 24 25  1  0
 17 26  1  0
 26 27  2  0
 10 28  1  0
 28 29  2  0
 29 30  1  0
 29  7  1  0
 27 14  1  0
 25 21  1  0
  1 31  1  0
  1 32  1  0
  1 33  1  0
  3 34  1  0
  3 35  1  0
  3 36  1  0
  8 37  1  0
  9 38  1  0
 15 39  1  0
 16 40  1  0
 22 41  1  0
 22 42  1  0
 23 43  1  0
 23 44  1  0
 24 45  1  0
 24 46  1  0
 25 47  1  0
 25 48  1  0
 26 49  1  0
 27 50  1  0
 28 51  1  0
M  CHG  1  11  -1
M  END
>  <UniqueID>  (7) 
7

>  <SMILES>  (7) 
CN(C)S(=O)(=O)c1ccc([N-]C(=O)c2ccc(S(=O)(=O)N3CCCC3)cc2)cc1F

>  <Energy>  (7) 
57.253815090137046

>  <Genealogy>  (7) 
CN(C)S(=O)(=O)c1ccc([N-]C(=O)c2ccc(S(=O)(=O)N3CCCC3)cc2)cc1F (protonated)
CN(C)S(=O)(=O)c1ccc([N-]C(=O)c2ccc(S(=O)(=O)N3CCCC3)cc2)cc1F (3D coordinates assigned)
CN(C)S(=O)(=O)c1ccc([N-]C(=O)c2ccc(S(=O)(=O)N3CCCC3)cc2)cc1F (nonaromatic ring conformer: 57.253815090137046 kcal/mol)

>  <smiles>  (7) 
CN(C)S(=O)(=O)c1ccc(NC(=O)c2ccc(S(=O)(=O)N3CCCC3)cc2)cc1F

>  <score_type>  (7) 
oracle

>  <origin>  (7) 
adgpu

>  <m_score__min__energy>  (7) 
-11.949999999999999

>  <m_primary>  (7) 
energy

$$$$
7:0
     RDKit          3D

 56 58  0  0  0  0  0  0  0  0999 V2000
   -2.2940   25.2540  -29.3470 N   0  0  0  0  0  0  0  0  0  0  0  0
   -2.4230   24.0870  -28.5360 C   0  0  0  0  0  0  0  0  0  0  0  0
   -1.8660   24.0400  -27.4060 O   0  0  0  0  0  0  0  0  0  0  0  0
   -3.1890   22.9050  -29.0430 C   0  0  0  0  0  0  0  0  0  0  0  0
   -4.6930   23.1070  -28.8370 C   0  0  0  0  0  0  0  0  0  0  0  0
   -5.3970   24.0480  -30.1820 S   0  0  0  0  0  0  0  0  0  0  0  0
   -5.9260   25.3500  -29.6490 O   0  0  0  0  0  0  0  0  0  0  0  0
   -4.3330   24.3410  -31.2010 O   0  0  0  0  0  0  0  0  0  0  0  0
   -6.6930   23.1300  -30.9460 C   0  0  0  0  0  0  0  0  0  0  0  0
   -7.8530   23.7720  -31.3980 C   0  0  0  0  0  0  0  0  0  0  0  0
   -8.8780   23.0330  -31.9910 C   0  0  0  0  0  0  0  0  0  0  0  0
   -8.7560   21.6480  -32.1260 C   0  0  0  0  0  0  0  0  0  0  0  0
   -7.6050   20.9830  -31.6620 C   0  0  0  0  0  0  0  0  0  0  0  0
   -7.4860   19.5120  -31.8010 C   0  0  0  0  0  0  0  0  0  0  0  0
   -8.4980   18.7850  -31.6000 O   0  0  0  0  0  0  0  0  0  0  0  0
   -6.2220   18.9000  -32.1100 N   0  0  0  0  0  0  0  0  0  0  0  0
   -6.0870   17.5640  -32.6230 C   0  0  0  0  0  0  0  0  0  0  0  0
   -6.7730   17.1500  -33.7790 C   0  0  0  0  0  0  0  0  0  0  0  0
   -6.6100   15.8500  -34.2690 C   0  0  0  0  0  0  0  0  0  0  0  0
   -5.7490   14.9550  -33.6210 C   0  0  0  0  0  0  0  0  0  0  0  0
   -5.5410   13.3120  -34.2240 S   0  0  0  0  0  0  0  0  0  0  0  0
   -6.6580   12.9640  -35.1690 O   0  0  0  0  0  0  0  0  0  0  0  0
   -5.5720   12.3650  -33.0560 O   0  0  0  0  0  0  0  0  0  0  0  0
   -4.0110   13.1820  -35.0580 N   0  0  0  0  0  0  0  0  0  0  0  0
   -3.1510   14.3610  -34.7830 C   0  0  0  0  0  0  0  0  0  0  0  0
   -3.1260   15.3690  -35.9420 C   0  0  0  0  0  0  0  0  0  0  0  0
   -2.6230   14.7110  -37.2370 C   0  0  0  0  0  0  0  0  0  0  0  0
   -3.0030   13.2230  -37.3340 C   0  0  0  0  0  0  0  0  0  0  0  0
   -4.2470   12.9130  -36.4940 C   0  0  0  0  0  0  0  0  0  0  0  0
   -5.0500   15.3690  -32.4810 C   0  0  0  0  0  0  0  0  0  0  0  0
   -5.2090   16.6690  -31.9920 C   0  0  0  0  0  0  0  0  0  0  0  0
   -6.5710   21.7400  -31.0810 C   0  0  0  0  0  0  0  0  0  0  0  0
   -2.7140   25.2940  -30.3000 H   0  0  0  0  0  0  0  0  0  0  0  0
   -2.9855   22.7759  -30.1163 H   0  0  0  0  0  0  0  0  0  0  0  0
   -2.8720   22.0117  -28.4848 H   0  0  0  0  0  0  0  0  0  0  0  0
   -5.1854   22.1246  -28.7878 H   0  0  0  0  0  0  0  0  0  0  0  0
   -4.8491   23.6611  -27.8996 H   0  0  0  0  0  0  0  0  0  0  0  0
   -7.9565   24.8613  -31.2854 H   0  0  0  0  0  0  0  0  0  0  0  0
   -9.7835   23.5422  -32.3527 H   0  0  0  0  0  0  0  0  0  0  0  0
   -9.5656   21.0724  -32.5985 H   0  0  0  0  0  0  0  0  0  0  0  0
   -5.3510   19.4080  -31.8330 H   0  0  0  0  0  0  0  0  0  0  0  0
   -7.4408   17.8518  -34.3002 H   0  0  0  0  0  0  0  0  0  0  0  0
   -7.1598   15.5294  -35.1662 H   0  0  0  0  0  0  0  0  0  0  0  0
   -3.5302   14.8695  -33.8843 H   0  0  0  0  0  0  0  0  0  0  0  0
   -2.1235   13.9936  -34.6442 H   0  0  0  0  0  0  0  0  0  0  0  0
   -4.1436   15.7532  -36.1060 H   0  0  0  0  0  0  0  0  0  0  0  0
   -2.4413   16.1884  -35.6777 H   0  0  0  0  0  0  0  0  0  0  0  0
   -3.0608   15.2426  -38.0948 H   0  0  0  0  0  0  0  0  0  0  0  0
   -1.5248   14.7739  -37.2366 H   0  0  0  0  0  0  0  0  0  0  0  0
   -3.2084   12.9729  -38.3853 H   0  0  0  0  0  0  0  0  0  0  0  0
   -2.1647   12.6235  -36.9495 H   0  0  0  0  0  0  0  0  0  0  0  0
   -5.0800   13.5408  -36.8433 H   0  0  0  0  0  0  0  0  0  0  0  0
   -4.4860   11.8457  -36.6111 H   0  0  0  0  0  0  0  0  0  0  0  0
   -4.3735   14.6693  -31.9684 H   0  0  0  0  0  0  0  0  0  0  0  0
   -4.6421   16.9927  -31.1066 H   0  0  0  0  0  0  0  0  0  0  0  0
   -5.6584   21.2364  -30.7294 H   0  0  0  0  0  0  0  0  0  0  0  0
  1  2  1  0
  2  3  2  0
  2  4  1  0
  4  5  1  0
  5  6  1  0
  6  7  2  0
  6  8  2  0
  6  9  1  0
  9 10  2  0
 10 11  1  0
 11 12  2  0
 12 13  1  0
 13 14  1  0
 14 15  2  0
 14 16  1  0
 16 17  1  0
 17 18  2  0
 18 19  1  0
 19 20  2  0
 20 21  1  0
 21 22  2  0
 21 23  2  0
 21 24  1  0
 24 25  1  0
 25 26  1  0
 26 27  1  0
 27 28  1  0
 28 29  1  0
 20 30  1  0
 30 31  2  0
 13 32  2  0
 32  9  1  0
 31 17  1  0
 29 24  1  0
  1 33  1  0
  4 34  1  0
  4 35  1  0
  5 36  1  0
  5 37  1  0
 10 38  1  0
 11 39  1  0
 12 40  1  0
 16 41  1  0
 18 42  1  0
 19 43  1  0
 25 44  1  0
 25 45  1  0
 26 46  1  0
 26 47  1  0
 27 48  1  0
 27 49  1  0
 28 50  1  0
 28 51  1  0
 29 52  1  0
 29 53  1  0
 30 54  1  0
 31 55  1  0
 32 56  1  0
M  CHG  1   1  -1
M  END
>  <UniqueID>  (8) 
8

>  <SMILES>  (8) 
[NH-]C(=O)CCS(=O)(=O)c1cccc(C(=O)Nc2ccc(S(=O)(=O)N3CCCCC3)cc2)c1

>  <Energy>  (8) 
60.56931091163183

>  <Genealogy>  (8) 
[NH-]C(=O)CCS(=O)(=O)c1cccc(C(=O)Nc2ccc(S(=O)(=O)N3CCCCC3)cc2)c1 (protonated)
[NH-]C(=O)CCS(=O)(=O)c1cccc(C(=O)Nc2ccc(S(=O)(=O)N3CCCCC3)cc2)c1 (3D coordinates assigned)
[NH-]C(=O)CCS(=O)(=O)c1cccc(C(=O)Nc2ccc(S(=O)(=O)N3CCCCC3)cc2)c1 (nonaromatic ring conformer: 60.56931091163183 kcal/mol)

>  <smiles>  (8) 
NC(=O)CCS(=O)(=O)c1cccc(C(=O)Nc2ccc(S(=O)(=O)N3CCCCC3)cc2)c1

>  <score_type>  (8) 
oracle

>  <origin>  (8) 
adgpu

>  <m_score__min__energy>  (8) 
-12.449999999999999

>  <m_primary>  (8) 
energy

$$$$
8:0
     RDKit          3D

 52 55  0  0  0  0  0  0  0  0999 V2000
   -4.0690   25.3400  -31.2160 O   0  0  0  0  0  0  0  0  0  0  0  0
   -5.1840   25.1190  -30.2290 S   0  0  0  0  0  0  0  0  0  0  0  0
   -5.9700   26.3930  -30.0930 O   0  0  0  0  0  0  0  0  0  0  0  0
   -4.5300   24.6780  -28.6840 N   0  0  0  0  0  0  0  0  0  0  0  0
   -3.3810   23.8380  -28.5060 C   0  0  0  0  0  0  0  0  0  0  0  0
   -3.4970   22.5250  -28.0190 C   0  0  0  0  0  0  0  0  0  0  0  0
   -2.3600   21.7250  -27.8280 C   0  0  0  0  0  0  0  0  0  0  0  0
   -1.0860   22.2370  -28.1650 C   0  0  0  0  0  0  0  0  0  0  0  0
   -0.9760   23.5480  -28.6510 C   0  0  0  0  0  0  0  0  0  0  0  0
   -2.1150   24.3380  -28.8330 C   0  0  0  0  0  0  0  0  0  0  0  0
   -1.9820   25.6300  -29.3290 O   0  0  0  0  0  0  0  0  0  0  0  0
    0.1710   21.4380  -27.9210 C   0  0  0  0  0  0  0  0  0  0  0  0
   -0.1030   19.9330  -27.8870 C   0  0  0  0  0  0  0  0  0  0  0  0
   -1.2470   19.6220  -26.9230 C   0  0  0  0  0  0  0  0  0  0  0  0
   -2.5480   20.2930  -27.3810 C   0  0  0  0  0  0  0  0  0  0  0  0
   -6.2620   23.8350  -30.7630 C   0  0  0  0  0  0  0  0  0  0  0  0
   -6.4010   23.5370  -32.1250 C   0  0  0  0  0  0  0  0  0  0  0  0
   -7.1250   22.4120  -32.5260 C   0  0  0  0  0  0  0  0  0  0  0  0
   -7.7210   21.5760  -31.5690 C   0  0  0  0  0  0  0  0  0  0  0  0
   -8.4930   20.0700  -32.0650 S   0  0  0  0  0  0  0  0  0  0  0  0
   -9.1120   19.4080  -30.8660 O   0  0  0  0  0  0  0  0  0  0  0  0
   -9.5890   20.3770  -33.0460 O   0  0  0  0  0  0  0  0  0  0  0  0
   -7.3430   18.9840  -32.8140 N   0  0  0  0  0  0  0  0  0  0  0  0
   -6.5380   18.2920  -31.7880 C   0  0  0  0  0  0  0  0  0  0  0  0
   -5.2050   17.8010  -32.3780 C   0  0  0  0  0  0  0  0  0  0  0  0
   -4.3790   18.8480  -32.8710 O   0  0  0  0  0  0  0  0  0  0  0  0
   -5.1030   19.9960  -33.2970 C   0  0  0  0  0  0  0  0  0  0  0  0
   -6.5150   19.6770  -33.8260 C   0  0  0  0  0  0  0  0  0  0  0  0
   -7.6290   21.9090  -30.2100 C   0  0  0  0  0  0  0  0  0  0  0  0
   -6.8940   23.0260  -29.8090 C   0  0  0  0  0  0  0  0  0  0  0  0
   -4.4920   22.1190  -27.7844 H   0  0  0  0  0  0  0  0  0  0  0  0
    0.0158   23.9585  -28.8912 H   0  0  0  0  0  0  0  0  0  0  0  0
    0.8885   21.6501  -28.7273 H   0  0  0  0  0  0  0  0  0  0  0  0
    0.5750   21.7317  -26.9409 H   0  0  0  0  0  0  0  0  0  0  0  0
   -0.3764   19.5914  -28.8962 H   0  0  0  0  0  0  0  0  0  0  0  0
    0.8037   19.4127  -27.5447 H   0  0  0  0  0  0  0  0  0  0  0  0
   -1.3982   18.5332  -26.8832 H   0  0  0  0  0  0  0  0  0  0  0  0
   -0.9831   20.0104  -25.9283 H   0  0  0  0  0  0  0  0  0  0  0  0
   -2.9603   19.7164  -28.2222 H   0  0  0  0  0  0  0  0  0  0  0  0
   -3.2270   20.3094  -26.5157 H   0  0  0  0  0  0  0  0  0  0  0  0
   -5.9390   24.1903  -32.8798 H   0  0  0  0  0  0  0  0  0  0  0  0
   -7.2286   22.1802  -33.5963 H   0  0  0  0  0  0  0  0  0  0  0  0
   -6.3318   18.9881  -30.9616 H   0  0  0  0  0  0  0  0  0  0  0  0
   -7.1039   17.4218  -31.4240 H   0  0  0  0  0  0  0  0  0  0  0  0
   -4.6537   17.2645  -31.5918 H   0  0  0  0  0  0  0  0  0  0  0  0
   -5.4504   17.1546  -33.2336 H   0  0  0  0  0  0  0  0  0  0  0  0
   -5.1990   20.6826  -32.4430 H   0  0  0  0  0  0  0  0  0  0  0  0
   -4.5399   20.4399  -34.1312 H   0  0  0  0  0  0  0  0  0  0  0  0
   -7.0104   20.6184  -34.1059 H   0  0  0  0  0  0  0  0  0  0  0  0
   -6.4097   19.0093  -34.6938 H   0  0  0  0  0  0  0  0  0  0  0  0
   -8.1375   21.2882  -29.4577 H   0  0  0  0  0  0  0  0  0  0  0  0
   -6.8106   23.2721  -28.7401 H   0  0  0  0  0  0  0  0  0  0  0  0
  1  2  2  0
  2  3  2  0
  2  4  1  0
  4  5  1  0
  5  6  2  0
  6  7  1  0
  7  8  2  0
  8  9  1  0
  9 10  2  0
 10 11  1  0
  8 12  1  0
 12 13  1  0
 13 14  1  0
 14 15  1  0
  2 16  1  0
 16 17  2  0
 17 18  1  0
 18 19  2  0
 19 20  1  0
 20 21  2  0
 20 22  2  0
 20 23  1  0
 23 24  1  0
 24 25  1  0
 25 26  1  0
 26 27  1  0
 27 28  1  0
 19 29  1  0
 29 30  2  0
 10  5  1  0
 30 16  1  0
 15  7  1  0
 28 23  1  0
  6 31  1  0
  9 32  1  0
 12 33  1  0
 12 34  1  0
 13 35  1  0
 13 36  1  0
 14 37  1  0
 14 38  1  0
 15 39  1  0
 15 40  1  0
 17 41  1  0
 18 42  1  0
 24 43  1  0
 24 44  1  0
 25 45  1  0
 25 46  1  0
 27 47  1  0
 27 48  1  0
 28 49  1  0
 28 50  1  0
 29 51  1  0
 30 52  1  0
M  CHG  2   4  -1  11  -1
M  END
>  <UniqueID>  (9) 
9

>  <SMILES>  (9) 
O=S(=O)([N-]c1cc2c(cc1[O-])CCCC2)c1ccc(S(=O)(=O)N2CCOCC2)cc1

>  <Energy>  (9) 
66.852849033135

>  <Genealogy>  (9) 
O=S(=O)([N-]c1cc2c(cc1[O-])CCCC2)c1ccc(S(=O)(=O)N2CCOCC2)cc1 (protonated)
O=S(=O)([N-]c1cc2c(cc1[O-])CCCC2)c1ccc(S(=O)(=O)N2CCOCC2)cc1 (3D coordinates assigned)
O=S(=O)([N-]c1cc2c(cc1[O-])CCCC2)c1ccc(S(=O)(=O)N2CCOCC2)cc1 (nonaromatic ring conformer: 66.852849033135 kcal/mol)

>  <smiles>  (9) 
O=S(=O)(Nc1cc2c(cc1O)CCCC2)c1ccc(S(=O)(=O)N2CCOCC2)cc1

>  <score_type>  (9) 
oracle

>  <origin>  (9) 
adgpu

>  <m_score__min__energy>  (9) 
-15.529999999999999

>  <m_primary>  (9) 
energy

$$$$
9:0
     RDKit          3D

 40 42  0  0  0  0  0  0  0  0999 V2000
   -4.3990   23.1370  -31.9670 O   0  0  0  0  0  0  0  0  0  0  0  0
   -5.6010   23.4900  -31.1370 S   0  0  0  0  0  0  0  0  0  0  0  0
   -5.9760   24.9210  -31.4070 O   0  0  0  0  0  0  0  0  0  0  0  0
   -5.2460   23.3340  -29.4460 N   0  0  0  0  0  0  0  0  0  0  0  0
   -3.9380   23.4400  -28.8660 C   0  0  0  0  0  0  0  0  0  0  0  0
   -3.5020   22.5700  -27.8480 C   0  0  0  0  0  0  0  0  0  0  0  0
   -2.2250   22.7110  -27.2990 C   0  0  0  0  0  0  0  0  0  0  0  0
   -1.3710   23.7150  -27.7580 C   0  0  0  0  0  0  0  0  0  0  0  0
   -1.7890   24.5770  -28.7730 C   0  0  0  0  0  0  0  0  0  0  0  0
   -3.0680   24.4410  -29.3320 C   0  0  0  0  0  0  0  0  0  0  0  0
   -3.4770   25.2890  -30.3580 O   0  0  0  0  0  0  0  0  0  0  0  0
   -6.9470   22.4260  -31.5810 C   0  0  0  0  0  0  0  0  0  0  0  0
   -8.2550   22.9100  -31.3910 C   0  0  0  0  0  0  0  0  0  0  0  0
   -9.3630   22.1320  -31.7230 C   0  0  0  0  0  0  0  0  0  0  0  0
   -9.1860   20.8570  -32.2500 C   0  0  0  0  0  0  0  0  0  0  0  0
   -7.9010   20.3590  -32.4550 C   0  0  0  0  0  0  0  0  0  0  0  0
   -6.7670   21.1270  -32.1370 C   0  0  0  0  0  0  0  0  0  0  0  0
   -5.1790   20.3760  -32.4130 S   0  0  0  0  0  0  0  0  0  0  0  0
   -4.4430   21.1670  -33.4590 O   0  0  0  0  0  0  0  0  0  0  0  0
   -4.3540   20.3950  -31.1590 O   0  0  0  0  0  0  0  0  0  0  0  0
   -5.3400   18.7200  -32.9940 C   0  0  0  0  0  0  0  0  0  0  0  0
   -5.8210   17.7030  -32.1530 C   0  0  0  0  0  0  0  0  0  0  0  0
   -5.9980   16.4080  -32.6490 C   0  0  0  0  0  0  0  0  0  0  0  0
   -5.7020   16.1210  -33.9840 C   0  0  0  0  0  0  0  0  0  0  0  0
   -5.2200   17.1290  -34.8240 C   0  0  0  0  0  0  0  0  0  0  0  0
   -5.0390   18.4250  -34.3310 C   0  0  0  0  0  0  0  0  0  0  0  0
   -4.1700   21.7757  -27.4834 H   0  0  0  0  0  0  0  0  0  0  0  0
   -1.8918   22.0289  -26.5029 H   0  0  0  0  0  0  0  0  0  0  0  0
   -0.3683   23.8269  -27.3197 H   0  0  0  0  0  0  0  0  0  0  0  0
   -1.1131   25.3655  -29.1356 H   0  0  0  0  0  0  0  0  0  0  0  0
   -3.8130   24.9280  -31.2430 H   0  0  0  0  0  0  0  0  0  0  0  0
   -8.4051   23.9169  -30.9744 H   0  0  0  0  0  0  0  0  0  0  0  0
  -10.3780   22.5267  -31.5681 H   0  0  0  0  0  0  0  0  0  0  0  0
  -10.0612   20.2414  -32.5051 H   0  0  0  0  0  0  0  0  0  0  0  0
   -7.7717   19.3494  -32.8721 H   0  0  0  0  0  0  0  0  0  0  0  0
   -6.0588   17.9259  -31.1024 H   0  0  0  0  0  0  0  0  0  0  0  0
   -6.3712   15.6130  -31.9866 H   0  0  0  0  0  0  0  0  0  0  0  0
   -5.8481   15.1028  -34.3737 H   0  0  0  0  0  0  0  0  0  0  0  0
   -4.9828   16.9025  -35.8740 H   0  0  0  0  0  0  0  0  0  0  0  0
   -4.6591   19.2158  -34.9946 H   0  0  0  0  0  0  0  0  0  0  0  0
  1  2  2  0
  2  3  2  0
  2  4  1  0
  4  5  1  0
  5  6  2  0
  6  7  1  0
  7  8  2  0
  8  9  1  0
  9 10  2  0
 10 11  1  0
  2 12  1  0
 12 13  2  0
 13 14  1  0
 14 15  2  0
 15 16  1  0
 16 17  2  0
 17 18  1  0
 18 19  2  0
 18 20  2  0
 18 21  1  0
 21 22  2  0
 22 23  1  0
 23 24  2  0
 24 25  1  0
 25 26  2  0
 10  5  1  0
 17 12  1  0
 26 21  1  0
  6 27  1  0
  7 28  1  0
  8 29  1  0
  9 30  1  0
 11 31  1  0
 13 32  1  0
 14 33  1  0
 15 34  1  0
 16 35  1  0
 22 36  1  0
 23 37  1  0
 24 38  1  0
 25 39  1  0
 26 40  1  0
M  CHG  1   4  -1
M  END
>  <UniqueID>  (10) 
10

>  <SMILES>  (10) 
O=S(=O)([N-]c1ccccc1O)c1ccccc1S(=O)(=O)c1ccccc1

>  <Energy>  (10) 
51.578864451147815

>  <Genealogy>  (10) 
O=S(=O)([N-]c1ccccc1O)c1ccccc1S(=O)(=O)c1ccccc1 (protonated)
O=S(=O)([N-]c1ccccc1O)c1ccccc1S(=O)(=O)c1ccccc1 (3D coordinates assigned)
O=S(=O)([N-]c1ccccc1O)c1ccccc1S(=O)(=O)c1ccccc1 (optimized conformer: 51.578864451147815 kcal/mol)

>  <smiles>  (10) 
O=S(=O)(Nc1ccccc1O)c1ccccc1S(=O)(=O)c1ccccc1

>  <score_type>  (10) 
oracle

>  <origin>  (10) 
adgpu

>  <m_score__min__energy>  (10) 
-10.83

>  <m_primary>  (10) 
energy

$$$$
10:0
     RDKit          3D

 62 65  0  0  0  0  0  0  0  0999 V2000
   -0.7600   26.3810  -26.0590 C   0  0  0  0  0  0  0  0  0  0  0  0
   -0.7240   24.9270  -25.6890 C   0  0  0  0  0  0  0  0  0  0  0  0
   -0.4600   24.5480  -24.3690 C   0  0  0  0  0  0  0  0  0  0  0  0
   -0.4760   23.1960  -24.0290 C   0  0  0  0  0  0  0  0  0  0  0  0
   -0.7530   22.2530  -24.9690 N   0  0  0  0  0  0  0  0  0  0  0  0
   -1.0150   22.5810  -26.2670 C   0  0  0  0  0  0  0  0  0  0  0  0
   -1.2900   21.6240  -27.1120 N   0  0  0  0  0  0  0  0  0  0  0  0
   -1.5000   21.7430  -28.5280 C   0  0  0  0  0  0  0  0  0  0  0  0
   -0.3990   21.9380  -29.3680 C   0  0  0  0  0  0  0  0  0  0  0  0
   -0.5820   22.0900  -30.7460 C   0  0  0  0  0  0  0  0  0  0  0  0
   -1.8700   22.0800  -31.2870 C   0  0  0  0  0  0  0  0  0  0  0  0
   -2.9850   21.9430  -30.4480 C   0  0  0  0  0  0  0  0  0  0  0  0
   -4.3450   21.9510  -31.0190 C   0  0  0  0  0  0  0  0  0  0  0  0
   -4.7500   20.8390  -31.7750 C   0  0  0  0  0  0  0  0  0  0  0  0
   -6.0360   20.7780  -32.3300 C   0  0  0  0  0  0  0  0  0  0  0  0
   -6.4560   19.6110  -33.0620 N   0  0  0  0  0  0  0  0  0  0  0  0
   -7.6300   18.8430  -32.6450 C   0  0  0  0  0  0  0  0  0  0  0  0
   -7.1950   17.4000  -32.4060 C   0  0  0  0  0  0  0  0  0  0  0  0
   -6.5930   16.7870  -33.6110 N   0  0  0  0  0  0  0  0  0  0  0  0
   -5.3730   15.6080  -33.1830 S   0  0  0  0  0  0  0  0  0  0  0  0
   -3.7990   15.9800  -33.9350 C   0  0  0  0  0  0  0  0  0  0  0  0
   -5.2010   15.5890  -31.6890 O   0  0  0  0  0  0  0  0  0  0  0  0
   -5.8160   14.2450  -33.6320 O   0  0  0  0  0  0  0  0  0  0  0  0
   -6.1180   17.7270  -34.6580 C   0  0  0  0  0  0  0  0  0  0  0  0
   -5.5810   19.0610  -34.1040 C   0  0  0  0  0  0  0  0  0  0  0  0
   -6.9210   21.8430  -32.1210 C   0  0  0  0  0  0  0  0  0  0  0  0
   -6.5260   22.9570  -31.3810 C   0  0  0  0  0  0  0  0  0  0  0  0
   -5.2390   23.0310  -30.8260 C   0  0  0  0  0  0  0  0  0  0  0  0
   -4.7860   24.4880  -29.9190 S   0  0  0  0  0  0  0  0  0  0  0  0
   -4.5300   24.1230  -28.1940 C   0  0  0  0  0  0  0  0  0  0  0  0
   -3.4990   25.0420  -30.4620 O   0  0  0  0  0  0  0  0  0  0  0  0
   -5.8560   25.5330  -30.0640 O   0  0  0  0  0  0  0  0  0  0  0  0
   -2.7960   21.7680  -29.0700 C   0  0  0  0  0  0  0  0  0  0  0  0
   -1.0230   23.9420  -26.6410 C   0  0  0  0  0  0  0  0  0  0  0  0
   -0.7751   26.9918  -25.1443 H   0  0  0  0  0  0  0  0  0  0  0  0
    0.1322   26.6307  -26.6519 H   0  0  0  0  0  0  0  0  0  0  0  0
   -1.6635   26.5862  -26.6519 H   0  0  0  0  0  0  0  0  0  0  0  0
   -0.2417   25.3096  -23.6060 H   0  0  0  0  0  0  0  0  0  0  0  0
   -0.2633   22.8901  -22.9940 H   0  0  0  0  0  0  0  0  0  0  0  0
   -0.7590   21.2490  -24.6780 H   0  0  0  0  0  0  0  0  0  0  0  0
    0.6150   21.9719  -28.9430 H   0  0  0  0  0  0  0  0  0  0  0  0
    0.2895   22.2176  -31.4050 H   0  0  0  0  0  0  0  0  0  0  0  0
   -2.0097   22.1798  -32.3735 H   0  0  0  0  0  0  0  0  0  0  0  0
   -4.0497   20.0057  -31.9336 H   0  0  0  0  0  0  0  0  0  0  0  0
   -8.0417   19.2665  -31.7170 H   0  0  0  0  0  0  0  0  0  0  0  0
   -8.4060   18.8821  -33.4236 H   0  0  0  0  0  0  0  0  0  0  0  0
   -6.4538   17.3841  -31.5934 H   0  0  0  0  0  0  0  0  0  0  0  0
   -8.0909   16.8178  -32.1446 H   0  0  0  0  0  0  0  0  0  0  0  0
   -3.0499   16.1570  -33.1492 H   0  0  0  0  0  0  0  0  0  0  0  0
   -3.4816   15.1321  -34.5598 H   0  0  0  0  0  0  0  0  0  0  0  0
   -3.8948   16.8803  -34.5598 H   0  0  0  0  0  0  0  0  0  0  0  0
   -5.3113   17.2370  -35.2229 H   0  0  0  0  0  0  0  0  0  0  0  0
   -6.9874   17.9698  -35.2866 H   0  0  0  0  0  0  0  0  0  0  0  0
   -4.5814   18.8924  -33.6769 H   0  0  0  0  0  0  0  0  0  0  0  0
   -5.5407   19.7834  -34.9325 H   0  0  0  0  0  0  0  0  0  0  0  0
   -7.9356   21.8005  -32.5438 H   0  0  0  0  0  0  0  0  0  0  0  0
   -7.2314   23.7875  -31.2305 H   0  0  0  0  0  0  0  0  0  0  0  0
   -5.0539   24.8699  -27.5795 H   0  0  0  0  0  0  0  0  0  0  0  0
   -4.9243   23.1211  -27.9688 H   0  0  0  0  0  0  0  0  0  0  0  0
   -3.4537   24.1526  -27.9688 H   0  0  0  0  0  0  0  0  0  0  0  0
   -3.6674   21.6496  -28.4092 H   0  0  0  0  0  0  0  0  0  0  0  0
   -1.2629   24.2288  -27.6755 H   0  0  0  0  0  0  0  0  0  0  0  0
  1  2  1  0
  2  3  1  0
  3  4  2  0
  4  5  1  0
  5  6  1  0
  6  7  2  3
  7  8  1  0
  8  9  2  0
  9 10  1  0
 10 11  2  0
 11 12  1  0
 12 13  1  0
 13 14  2  0
 14 15  1  0
 15 16  1  0
 16 17  1  0
 17 18  1  0
 18 19  1  0
 19 20  1  0
 20 21  1  0
 20 22  2  0
 20 23  2  0
 19 24  1  0
 24 25  1  0
 15 26  2  0
 26 27  1  0
 27 28  2  0
 28 29  1  0
 29 30  1  0
 29 31  2  0
 29 32  2  0
 12 33  2  0
  6 34  1  0
 34  2  2  0
 33  8  1  0
 28 13  1  0
 25 16  1  0
  1 35  1  0
  1 36  1  0
  1 37  1  0
  3 38  1  0
  4 39  1  0
  5 40  1  0
  9 41  1  0
 10 42  1  0
 11 43  1  0
 14 44  1  0
 17 45  1  0
 17 46  1  0
 18 47  1  0
 18 48  1  0
 21 49  1  0
 21 50  1  0
 21 51  1  0
 24 52  1  0
 24 53  1  0
 25 54  1  0
 25 55  1  0
 26 56  1  0
 27 57  1  0
 30 58  1  0
 30 59  1  0
 30 60  1  0
 33 61  1  0
 34 62  1  0
M  END
>  <UniqueID>  (11) 
11

>  <SMILES>  (11) 
Cc1cc[nH]c(=Nc2cccc(-c3cc(N4CCN(S(C)(=O)=O)CC4)ccc3S(C)(=O)=O)c2)c1

>  <Energy>  (11) 
86.23749304204935

>  <Genealogy>  (11) 
Cc1cc[nH]c(=Nc2cccc(-c3cc(N4CCN(S(C)(=O)=O)CC4)ccc3S(C)(=O)=O)c2)c1 (3D coordinates assigned)
Cc1cc[nH]c(=Nc2cccc(-c3cc(N4CCN(S(C)(=O)=O)CC4)ccc3S(C)(=O)=O)c2)c1 (nonaromatic ring conformer: 86.23749304204935 kcal/mol)

>  <smiles>  (11) 
Cc1cc[nH]c(=Nc2cccc(-c3cc(N4CCN(S(C)(=O)=O)CC4)ccc3S(C)(=O)=O)c2)c1

>  <score_type>  (11) 
oracle

>  <origin>  (11) 
adgpu

>  <m_score__min__energy>  (11) 
-10.81

>  <m_primary>  (11) 
energy

$$$$
11:0
     RDKit          3D

 42 44  0  0  0  0  0  0  0  0999 V2000
   -0.7500   19.1320  -30.5230 C   0  0  0  0  0  0  0  0  0  0  0  0
   -1.3530   20.4850  -30.2870 C   0  0  0  0  0  0  0  0  0  0  0  0
   -0.6150   21.6470  -30.5640 C   0  0  0  0  0  0  0  0  0  0  0  0
   -1.1630   22.9060  -30.3070 C   0  0  0  0  0  0  0  0  0  0  0  0
   -2.4480   23.0190  -29.7590 C   0  0  0  0  0  0  0  0  0  0  0  0
   -3.1390   24.6010  -29.4010 S   0  0  0  0  0  0  0  0  0  0  0  0
   -4.1590   24.4840  -28.3020 O   0  0  0  0  0  0  0  0  0  0  0  0
   -2.0400   25.5110  -28.9290 O   0  0  0  0  0  0  0  0  0  0  0  0
   -3.8850   25.2990  -30.8130 N   0  0  0  0  0  0  0  0  0  0  0  0
   -5.3460   25.2880  -30.7120 C   0  0  0  0  0  0  0  0  0  0  0  0
   -5.9070   23.9650  -31.1280 C   0  0  0  0  0  0  0  0  0  0  0  0
   -7.1880   23.5140  -30.8760 C   0  0  0  0  0  0  0  0  0  0  0  0
   -7.2260   22.2610  -31.4540 C   0  0  0  0  0  0  0  0  0  0  0  0
   -8.4040   21.3360  -31.4210 C   0  0  0  0  0  0  0  0  0  0  0  0
   -6.0270   22.0100  -32.0310 N   0  0  0  0  0  0  0  0  0  0  0  0
   -5.6190   20.8320  -32.7440 C   0  0  0  0  0  0  0  0  0  0  0  0
   -4.2650   20.4560  -32.7540 C   0  0  0  0  0  0  0  0  0  0  0  0
   -3.8520   19.3220  -33.4600 C   0  0  0  0  0  0  0  0  0  0  0  0
   -4.7830   18.5630  -34.1720 C   0  0  0  0  0  0  0  0  0  0  0  0
   -6.1280   18.9410  -34.1870 C   0  0  0  0  0  0  0  0  0  0  0  0
   -6.5450   20.0740  -33.4820 C   0  0  0  0  0  0  0  0  0  0  0  0
   -5.2180   23.0380  -31.8220 N   0  0  0  0  0  0  0  0  0  0  0  0
   -3.1770   21.8610  -29.4630 C   0  0  0  0  0  0  0  0  0  0  0  0
   -2.6310   20.5990  -29.7200 C   0  0  0  0  0  0  0  0  0  0  0  0
   -0.5362   18.6522  -29.5565 H   0  0  0  0  0  0  0  0  0  0  0  0
   -1.4562   18.5102  -31.0928 H   0  0  0  0  0  0  0  0  0  0  0  0
    0.1846   19.2414  -31.0928 H   0  0  0  0  0  0  0  0  0  0  0  0
    0.3981   21.5656  -30.9848 H   0  0  0  0  0  0  0  0  0  0  0  0
   -0.5835   23.8126  -30.5357 H   0  0  0  0  0  0  0  0  0  0  0  0
   -5.6352   25.4887  -29.6698 H   0  0  0  0  0  0  0  0  0  0  0  0
   -5.7473   26.0627  -31.3819 H   0  0  0  0  0  0  0  0  0  0  0  0
   -7.9938   24.0344  -30.3377 H   0  0  0  0  0  0  0  0  0  0  0  0
   -8.6743   21.1237  -30.3761 H   0  0  0  0  0  0  0  0  0  0  0  0
   -9.2560   21.8089  -31.9313 H   0  0  0  0  0  0  0  0  0  0  0  0
   -8.1466   20.3962  -31.9313 H   0  0  0  0  0  0  0  0  0  0  0  0
   -3.5262   21.0570  -32.2035 H   0  0  0  0  0  0  0  0  0  0  0  0
   -2.7922   19.0274  -33.4545 H   0  0  0  0  0  0  0  0  0  0  0  0
   -4.4574   17.6673  -34.7212 H   0  0  0  0  0  0  0  0  0  0  0  0
   -6.8595   18.3466  -34.7540 H   0  0  0  0  0  0  0  0  0  0  0  0
   -7.6031   20.3739  -33.5048 H   0  0  0  0  0  0  0  0  0  0  0  0
   -4.1833   21.9439  -29.0265 H   0  0  0  0  0  0  0  0  0  0  0  0
   -3.2056   19.6931  -29.4767 H   0  0  0  0  0  0  0  0  0  0  0  0
  1  2  1  0
  2  3  2  0
  3  4  1  0
  4  5  2  0
  5  6  1  0
  6  7  2  0
  6  8  2  0
  6  9  1  0
  9 10  1  0
 10 11  1  0
 11 12  1  0
 12 13  2  0
 13 14  1  0
 13 15  1  0
 15 16  1  0
 16 17  2  0
 17 18  1  0
 18 19  2  0
 19 20  1  0
 20 21  2  0
 15 22  1  0
  5 23  1  0
 23 24  2  0
 24  2  1  0
 22 11  2  0
 21 16  1  0
  1 25  1  0
  1 26  1  0
  1 27  1  0
  3 28  1  0
  4 29  1  0
 10 30  1  0
 10 31  1  0
 12 32  1  0
 14 33  1  0
 14 34  1  0
 14 35  1  0
 17 36  1  0
 18 37  1  0
 19 38  1  0
 20 39  1  0
 21 40  1  0
 23 41  1  0
 24 42  1  0
M  CHG  1   9  -1
M  END
>  <UniqueID>  (12) 
12

>  <SMILES>  (12) 
Cc1ccc(S(=O)(=O)[N-]Cc2cc(C)n(-c3ccccc3)n2)cc1

>  <Energy>  (12) 
75.30224423422943

>  <Genealogy>  (12) 
Cc1ccc(S(=O)(=O)[N-]Cc2cc(C)n(-c3ccccc3)n2)cc1 (protonated)
Cc1ccc(S(=O)(=O)[N-]Cc2cc(C)n(-c3ccccc3)n2)cc1 (3D coordinates assigned)
Cc1ccc(S(=O)(=O)[N-]Cc2cc(C)n(-c3ccccc3)n2)cc1 (optimized conformer: 75.30224423422943 kcal/mol)

>  <smiles>  (12) 
Cc1ccc(S(=O)(=O)NCc2cc(C)n(-c3ccccc3)n2)cc1

>  <score_type>  (12) 
oracle

>  <origin>  (12) 
adgpu

>  <m_score__min__energy>  (12) 
-10.27

>  <m_primary>  (12) 
energy

$$$$
12:0
     RDKit          3D

 44 46  0  0  0  0  0  0  0  0999 V2000
   -6.8560   17.8650  -31.3180 C   0  0  0  0  0  0  0  0  0  0  0  0
   -7.9270   17.8760  -32.4130 C   0  0  0  0  0  0  0  0  0  0  0  0
   -9.1530   18.5790  -31.9890 N   0  0  0  0  0  0  0  0  0  0  0  0
   -9.2530   19.9490  -32.5180 C   0  0  0  0  0  0  0  0  0  0  0  0
   -8.1390   20.8360  -32.0180 C   0  0  0  0  0  0  0  0  0  0  0  0
   -6.9240   20.9130  -32.7140 C   0  0  0  0  0  0  0  0  0  0  0  0
   -5.9070   21.7610  -32.2670 C   0  0  0  0  0  0  0  0  0  0  0  0
   -6.0840   22.5340  -31.1090 C   0  0  0  0  0  0  0  0  0  0  0  0
   -5.0110   23.4460  -30.6560 C   0  0  0  0  0  0  0  0  0  0  0  0
   -4.9250   24.8050  -30.9070 C   0  0  0  0  0  0  0  0  0  0  0  0
   -3.8120   25.3030  -30.3320 N   0  0  0  0  0  0  0  0  0  0  0  0
   -3.1810   24.3130  -29.7180 N   0  0  0  0  0  0  0  0  0  0  0  0
   -1.9270   24.4960  -29.0380 C   0  0  0  0  0  0  0  0  0  0  0  0
   -0.9970   23.4500  -28.9090 C   0  0  0  0  0  0  0  0  0  0  0  0
    0.1980   23.6730  -28.2220 C   0  0  0  0  0  0  0  0  0  0  0  0
    0.4550   24.9230  -27.6520 C   0  0  0  0  0  0  0  0  0  0  0  0
    1.9640   25.2200  -26.7930 S   0  0  0  0  0  0  0  0  0  0  0  0
    2.9770   23.8260  -26.9090 N   0  0  0  0  0  0  0  0  0  0  0  0
    1.6760   25.5150  -25.3480 O   0  0  0  0  0  0  0  0  0  0  0  0
    2.6690   26.4030  -27.3950 O   0  0  0  0  0  0  0  0  0  0  0  0
   -0.4990   25.9380  -27.7870 C   0  0  0  0  0  0  0  0  0  0  0  0
   -1.6550   25.7010  -28.4620 N   0  0  0  0  0  0  0  0  0  0  0  0
   -3.8730   23.1680  -29.9150 C   0  0  0  0  0  0  0  0  0  0  0  0
   -3.4480   21.9930  -29.5710 N   0  0  0  0  0  0  0  0  0  0  0  0
   -7.3080   22.4700  -30.4230 C   0  0  0  0  0  0  0  0  0  0  0  0
   -8.3260   21.6230  -30.8720 C   0  0  0  0  0  0  0  0  0  0  0  0
   -7.3410   17.8700  -30.3307 H   0  0  0  0  0  0  0  0  0  0  0  0
   -6.2382   16.9605  -31.4185 H   0  0  0  0  0  0  0  0  0  0  0  0
   -6.2197   18.7567  -31.4185 H   0  0  0  0  0  0  0  0  0  0  0  0
   -7.5194   18.3801  -33.3017 H   0  0  0  0  0  0  0  0  0  0  0  0
   -8.1959   16.8320  -32.6318 H   0  0  0  0  0  0  0  0  0  0  0  0
  -10.0140   18.0350  -32.2280 H   0  0  0  0  0  0  0  0  0  0  0  0
   -9.2079   19.9088  -33.6163 H   0  0  0  0  0  0  0  0  0  0  0  0
  -10.2058   20.3759  -32.1718 H   0  0  0  0  0  0  0  0  0  0  0  0
   -6.7706   20.3029  -33.6163 H   0  0  0  0  0  0  0  0  0  0  0  0
   -4.9618   21.8230  -32.8263 H   0  0  0  0  0  0  0  0  0  0  0  0
   -5.6541   25.3895  -31.4874 H   0  0  0  0  0  0  0  0  0  0  0  0
   -1.2090   22.4631  -29.3460 H   0  0  0  0  0  0  0  0  0  0  0  0
    0.9378   22.8642  -28.1293 H   0  0  0  0  0  0  0  0  0  0  0  0
    3.7830   23.9810  -26.2620 H   0  0  0  0  0  0  0  0  0  0  0  0
   -0.3133   26.9287  -27.3464 H   0  0  0  0  0  0  0  0  0  0  0  0
   -3.9610   21.1140  -29.8010 H   0  0  0  0  0  0  0  0  0  0  0  0
   -7.4666   23.0894  -29.5279 H   0  0  0  0  0  0  0  0  0  0  0  0
   -9.2783   21.5736  -30.3237 H   0  0  0  0  0  0  0  0  0  0  0  0
  1  2  1  0
  2  3  1  0
  3  4  1  0
  4  5  1  0
  5  6  2  0
  6  7  1  0
  7  8  2  0
  8  9  1  0
  9 10  2  0
 10 11  1  0
 11 12  1  0
 12 13  1  0
 13 14  2  0
 14 15  1  0
 15 16  2  0
 16 17  1  0
 17 18  1  0
 17 19  2  0
 17 20  2  0
 16 21  1  0
 21 22  2  0
 12 23  1  0
 23 24  2  3
  8 25  1  0
 25 26  2  0
 26  5  1  0
 23  9  1  0
 22 13  1  0
  1 27  1  0
  1 28  1  0
  1 29  1  0
  2 30  1  0
  2 31  1  0
  3 32  1  0
  4 33  1  0
  4 34  1  0
  6 35  1  0
  7 36  1  0
 10 37  1  0
 14 38  1  0
 15 39  1  0
 18 40  1  0
 21 41  1  0
 24 42  1  0
 25 43  1  0
 26 44  1  0
M  CHG  2  11  -1  18  -1
M  END
>  <UniqueID>  (13) 
13

>  <SMILES>  (13) 
CCNCc1ccc(-c2c[n-]n(-c3ccc(S([NH-])(=O)=O)cn3)c2=N)cc1

>  <Energy>  (13) 
87.60777618102591

>  <Genealogy>  (13) 
CCNCc1ccc(-c2c[n-]n(-c3ccc(S([NH-])(=O)=O)cn3)c2=N)cc1 (protonated)
CCNCc1ccc(-c2c[n-]n(-c3ccc(S([NH-])(=O)=O)cn3)c2=N)cc1 (3D coordinates assigned)
CCNCc1ccc(-c2c[n-]n(-c3ccc(S([NH-])(=O)=O)cn3)c2=N)cc1 (optimized conformer: 87.60777618102591 kcal/mol)

>  <smiles>  (13) 
CCNCc1ccc(-c2c[nH]n(-c3ccc(S(N)(=O)=O)cn3)c2=N)cc1

>  <score_type>  (13) 
oracle

>  <origin>  (13) 
adgpu

>  <m_score__min__energy>  (13) 
-10.359999999999999

>  <m_primary>  (13) 
energy

$$$$
13:0
     RDKit          3D

 50 52  0  0  0  0  0  0  0  0999 V2000
    2.1520   29.8440  -21.7770 C   0  0  0  0  0  0  0  0  0  0  0  0
    1.7900   28.5350  -22.2040 O   0  0  0  0  0  0  0  0  0  0  0  0
    1.2170   28.2390  -23.4500 C   0  0  0  0  0  0  0  0  0  0  0  0
    0.1530   27.3290  -23.4930 C   0  0  0  0  0  0  0  0  0  0  0  0
   -0.4520   27.0030  -24.7090 C   0  0  0  0  0  0  0  0  0  0  0  0
   -0.0180   27.5950  -25.9020 C   0  0  0  0  0  0  0  0  0  0  0  0
   -0.6450   27.2280  -27.1420 N   0  0  0  0  0  0  0  0  0  0  0  0
   -0.3800   26.0080  -27.8480 C   0  0  0  0  0  0  0  0  0  0  0  0
    0.6230   25.3040  -27.5500 O   0  0  0  0  0  0  0  0  0  0  0  0
   -1.2110   25.6500  -28.9580 N   0  0  0  0  0  0  0  0  0  0  0  0
   -1.6270   24.3240  -29.3200 C   0  0  0  0  0  0  0  0  0  0  0  0
   -0.9200   23.1940  -28.8930 C   0  0  0  0  0  0  0  0  0  0  0  0
   -1.3650   21.9190  -29.2280 C   0  0  0  0  0  0  0  0  0  0  0  0
   -2.5220   21.7370  -30.0040 C   0  0  0  0  0  0  0  0  0  0  0  0
   -2.9670   20.3230  -30.2740 C   0  0  0  0  0  0  0  0  0  0  0  0
   -3.2560   22.8760  -30.4410 C   0  0  0  0  0  0  0  0  0  0  0  0
   -4.7290   22.7490  -31.4500 S   0  0  0  0  0  0  0  0  0  0  0  0
   -4.3320   22.2450  -32.8090 O   0  0  0  0  0  0  0  0  0  0  0  0
   -5.3490   24.1010  -31.6610 O   0  0  0  0  0  0  0  0  0  0  0  0
   -5.9480   21.6730  -30.7850 N   0  0  0  0  0  0  0  0  0  0  0  0
   -7.1690   22.3700  -30.3330 C   0  0  0  0  0  0  0  0  0  0  0  0
   -8.2990   22.3350  -31.3790 C   0  0  0  0  0  0  0  0  0  0  0  0
   -7.7800   22.1450  -32.6760 O   0  0  0  0  0  0  0  0  0  0  0  0
   -7.2250   20.8500  -32.7870 C   0  0  0  0  0  0  0  0  0  0  0  0
   -6.2360   20.5150  -31.6470 C   0  0  0  0  0  0  0  0  0  0  0  0
   -2.8040   24.1620  -30.0610 C   0  0  0  0  0  0  0  0  0  0  0  0
   -3.5190   25.2980  -30.4230 O   0  0  0  0  0  0  0  0  0  0  0  0
    1.0630   28.4960  -25.8650 C   0  0  0  0  0  0  0  0  0  0  0  0
    1.6720   28.8190  -24.6480 C   0  0  0  0  0  0  0  0  0  0  0  0
    2.1623   29.8813  -20.6777 H   0  0  0  0  0  0  0  0  0  0  0  0
    3.1523   30.0916  -22.1617 H   0  0  0  0  0  0  0  0  0  0  0  0
    1.4210   30.5704  -22.1617 H   0  0  0  0  0  0  0  0  0  0  0  0
   -0.2088   26.8677  -22.5622 H   0  0  0  0  0  0  0  0  0  0  0  0
   -1.2764   26.2751  -24.7300 H   0  0  0  0  0  0  0  0  0  0  0  0
   -1.2780   27.9200  -27.6020 H   0  0  0  0  0  0  0  0  0  0  0  0
   -0.0082   23.3145  -28.2897 H   0  0  0  0  0  0  0  0  0  0  0  0
   -0.8024   21.0401  -28.8800 H   0  0  0  0  0  0  0  0  0  0  0  0
   -3.1311   19.8016  -29.3194 H   0  0  0  0  0  0  0  0  0  0  0  0
   -3.9041   20.3372  -30.8499 H   0  0  0  0  0  0  0  0  0  0  0  0
   -2.1907   19.7979  -30.8499 H   0  0  0  0  0  0  0  0  0  0  0  0
   -7.5280   21.8880  -29.4117 H   0  0  0  0  0  0  0  0  0  0  0  0
   -6.9053   23.4248  -30.1660 H   0  0  0  0  0  0  0  0  0  0  0  0
   -8.9843   21.5082  -31.1409 H   0  0  0  0  0  0  0  0  0  0  0  0
   -8.8321   23.2968  -31.3519 H   0  0  0  0  0  0  0  0  0  0  0  0
   -8.0435   20.1154  -32.7677 H   0  0  0  0  0  0  0  0  0  0  0  0
   -6.6619   20.8140  -33.7313 H   0  0  0  0  0  0  0  0  0  0  0  0
   -6.6699   19.7154  -31.0286 H   0  0  0  0  0  0  0  0  0  0  0  0
   -5.2886   20.2026  -32.1106 H   0  0  0  0  0  0  0  0  0  0  0  0
    1.4306   28.9483  -26.7979 H   0  0  0  0  0  0  0  0  0  0  0  0
    2.5110   29.5301  -24.6276 H   0  0  0  0  0  0  0  0  0  0  0  0
  1  2  1  0
  2  3  1  0
  3  4  2  0
  4  5  1  0
  5  6  2  0
  6  7  1  0
  7  8  1  0
  8  9  2  0
  8 10  1  0
 10 11  1  0
 11 12  2  0
 12 13  1  0
 13 14  2  0
 14 15  1  0
 14 16  1  0
 16 17  1  0
 17 18  2  0
 17 19  2  0
 17 20  1  0
 20 21  1  0
 21 22  1  0
 22 23  1  0
 23 24  1  0
 24 25  1  0
 16 26  2  0
 26 27  1  0
  6 28  1  0
 28 29  2  0
 29  3  1  0
 26 11  1  0
 25 20  1  0
  1 30  1  0
  1 31  1  0
  1 32  1  0
  4 33  1  0
  5 34  1  0
  7 35  1  0
 12 36  1  0
 13 37  1  0
 15 38  1  0
 15 39  1  0
 15 40  1  0
 21 41  1  0
 21 42  1  0
 22 43  1  0
 22 44  1  0
 24 45  1  0
 24 46  1  0
 25 47  1  0
 25 48  1  0
 28 49  1  0
 29 50  1  0
M  CHG  2  10  -1  27  -1
M  END
>  <UniqueID>  (14) 
14

>  <SMILES>  (14) 
COc1ccc(NC(=O)[N-]c2ccc(C)c(S(=O)(=O)N3CCOCC3)c2[O-])cc1

>  <Energy>  (14) 
73.6788794682465

>  <Genealogy>  (14) 
COc1ccc(NC(=O)[N-]c2ccc(C)c(S(=O)(=O)N3CCOCC3)c2[O-])cc1 (protonated)
COc1ccc(NC(=O)[N-]c2ccc(C)c(S(=O)(=O)N3CCOCC3)c2[O-])cc1 (3D coordinates assigned)
COc1ccc(NC(=O)[N-]c2ccc(C)c(S(=O)(=O)N3CCOCC3)c2[O-])cc1 (nonaromatic ring conformer: 73.6788794682465 kcal/mol)

>  <smiles>  (14) 
COc1ccc(NC(=O)Nc2ccc(C)c(S(=O)(=O)N3CCOCC3)c2O)cc1

>  <score_type>  (14) 
oracle

>  <origin>  (14) 
adgpu

>  <m_score__min__energy>  (14) 
-12.960000000000001

>  <m_primary>  (14) 
energy

$$$$
14:0
     RDKit          3D

 50 53  0  0  0  0  0  0  0  0999 V2000
   -9.1880   18.9560  -33.0690 O   0  0  0  0  0  0  0  0  0  0  0  0
   -8.7160   20.0050  -32.5560 C   0  0  0  0  0  0  0  0  0  0  0  0
   -9.5740   20.9580  -31.9860 C   0  0  0  0  0  0  0  0  0  0  0  0
   -9.0360   22.1150  -31.4170 C   0  0  0  0  0  0  0  0  0  0  0  0
   -7.6480   22.3100  -31.4200 C   0  0  0  0  0  0  0  0  0  0  0  0
   -7.0740   23.4550  -30.8490 C   0  0  0  0  0  0  0  0  0  0  0  0
   -5.6820   23.6200  -30.8470 C   0  0  0  0  0  0  0  0  0  0  0  0
   -4.9780   25.0530  -30.1060 S   0  0  0  0  0  0  0  0  0  0  0  0
   -5.3730   26.2580  -30.9110 O   0  0  0  0  0  0  0  0  0  0  0  0
   -5.4830   25.2390  -28.7040 O   0  0  0  0  0  0  0  0  0  0  0  0
   -3.2480   24.9230  -30.0960 N   0  0  0  0  0  0  0  0  0  0  0  0
   -2.4370   24.6690  -28.9400 C   0  0  0  0  0  0  0  0  0  0  0  0
   -2.9360   24.0210  -27.7990 C   0  0  0  0  0  0  0  0  0  0  0  0
   -2.1140   23.8170  -26.6880 C   0  0  0  0  0  0  0  0  0  0  0  0
   -0.7840   24.2540  -26.7010 C   0  0  0  0  0  0  0  0  0  0  0  0
    0.2530   24.0090  -25.2970 S   0  0  0  0  0  0  0  0  0  0  0  0
   -0.1550   22.7290  -24.6190 O   0  0  0  0  0  0  0  0  0  0  0  0
    1.6790   23.8690  -25.7530 O   0  0  0  0  0  0  0  0  0  0  0  0
    0.0800   25.3650  -24.1990 N   0  0  0  0  0  0  0  0  0  0  0  0
    1.2630   26.2550  -24.2490 C   0  0  0  0  0  0  0  0  0  0  0  0
    1.3450   27.0720  -25.5530 C   0  0  0  0  0  0  0  0  0  0  0  0
   -0.0250   27.5740  -26.0430 C   0  0  0  0  0  0  0  0  0  0  0  0
   -1.0790   27.5080  -24.9410 C   0  0  0  0  0  0  0  0  0  0  0  0
   -1.2170   26.0730  -24.3960 C   0  0  0  0  0  0  0  0  0  0  0  0
   -0.2770   24.8810  -27.8460 C   0  0  0  0  0  0  0  0  0  0  0  0
   -1.1000   25.0890  -28.9560 C   0  0  0  0  0  0  0  0  0  0  0  0
   -4.8650   22.6340  -31.4250 C   0  0  0  0  0  0  0  0  0  0  0  0
   -5.4310   21.4950  -32.0080 C   0  0  0  0  0  0  0  0  0  0  0  0
   -6.8190   21.3240  -32.0060 C   0  0  0  0  0  0  0  0  0  0  0  0
   -7.3710   20.2090  -32.5550 N   0  0  0  0  0  0  0  0  0  0  0  0
  -10.6619   20.7953  -31.9872 H   0  0  0  0  0  0  0  0  0  0  0  0
   -9.6989   22.8697  -30.9686 H   0  0  0  0  0  0  0  0  0  0  0  0
   -7.7181   24.2261  -30.4013 H   0  0  0  0  0  0  0  0  0  0  0  0
   -3.9791   23.6723  -27.7797 H   0  0  0  0  0  0  0  0  0  0  0  0
   -2.5142   23.3100  -25.7976 H   0  0  0  0  0  0  0  0  0  0  0  0
    0.0670   24.9440  -23.2410 H   0  0  0  0  0  0  0  0  0  0  0  0
    1.2131   26.9529  -23.4002 H   0  0  0  0  0  0  0  0  0  0  0  0
    2.1579   25.6170  -24.2028 H   0  0  0  0  0  0  0  0  0  0  0  0
    1.9944   27.9427  -25.3794 H   0  0  0  0  0  0  0  0  0  0  0  0
    1.7455   26.4054  -26.3310 H   0  0  0  0  0  0  0  0  0  0  0  0
    0.0764   28.6172  -26.3769 H   0  0  0  0  0  0  0  0  0  0  0  0
   -0.3520   26.9251  -26.8688 H   0  0  0  0  0  0  0  0  0  0  0  0
   -0.7839   28.1780  -24.1200 H   0  0  0  0  0  0  0  0  0  0  0  0
   -2.0468   27.8183  -25.3618 H   0  0  0  0  0  0  0  0  0  0  0  0
   -1.7343   26.1209  -23.4264 H   0  0  0  0  0  0  0  0  0  0  0  0
   -1.7768   25.5014  -25.1510 H   0  0  0  0  0  0  0  0  0  0  0  0
    0.7721   25.2107  -27.8717 H   0  0  0  0  0  0  0  0  0  0  0  0
   -0.6952   25.5865  -29.8497 H   0  0  0  0  0  0  0  0  0  0  0  0
   -3.7721   22.7584  -31.4192 H   0  0  0  0  0  0  0  0  0  0  0  0
   -4.7840   20.7337  -32.4681 H   0  0  0  0  0  0  0  0  0  0  0  0
  1  2  2  0
  2  3  1  0
  3  4  2  0
  4  5  1  0
  5  6  2  0
  6  7  1  0
  7  8  1  0
  8  9  2  0
  8 10  2  0
  8 11  1  0
 11 12  1  0
 12 13  2  0
 13 14  1  0
 14 15  2  0
 15 16  1  0
 16 17  2  0
 16 18  2  0
 16 19  1  0
 19 20  1  0
 20 21  1  0
 21 22  1  0
 22 23  1  0
 23 24  1  0
 15 25  1  0
 25 26  2  0
  7 27  2  0
 27 28  1  0
 28 29  2  0
 29 30  1  0
 30  2  1  0
 29  5  1  0
 26 12  1  0
 24 19  1  0
  3 31  1  0
  4 32  1  0
  6 33  1  0
 13 34  1  0
 14 35  1  0
 19 36  1  0
 20 37  1  0
 20 38  1  0
 21 39  1  0
 21 40  1  0
 22 41  1  0
 22 42  1  0
 23 43  1  0
 23 44  1  0
 24 45  1  0
 24 46  1  0
 25 47  1  0
 26 48  1  0
 27 49  1  0
 28 50  1  0
M  CHG  3  11  -1  19   1  30  -1
M  END
>  <UniqueID>  (15) 
15

>  <SMILES>  (15) 
O=c1ccc2cc(S(=O)(=O)[N-]c3ccc(S(=O)(=O)[NH+]4CCCCC4)cc3)ccc2[n-]1

>  <Energy>  (15) 
67.40981626239974

>  <Genealogy>  (15) 
O=c1ccc2cc(S(=O)(=O)[N-]c3ccc(S(=O)(=O)[NH+]4CCCCC4)cc3)ccc2[n-]1 (protonated)
O=c1ccc2cc(S(=O)(=O)[N-]c3ccc(S(=O)(=O)[NH+]4CCCCC4)cc3)ccc2[n-]1 (3D coordinates assigned)
O=c1ccc2cc(S(=O)(=O)[N-]c3ccc(S(=O)(=O)[NH+]4CCCCC4)cc3)ccc2[n-]1 (nonaromatic ring conformer: 67.40981626239974 kcal/mol)

>  <smiles>  (15) 
O=c1ccc2cc(S(=O)(=O)Nc3ccc(S(=O)(=O)N4CCCCC4)cc3)ccc2[nH]1

>  <score_type>  (15) 
oracle

>  <origin>  (15) 
adgpu

>  <m_score__min__energy>  (15) 
-11.92

>  <m_primary>  (15) 
energy

$$$$
15:0
     RDKit          3D

 34 36  0  0  0  0  0  0  0  0999 V2000
    0.8470   23.0090  -24.4430 N   0  0  0  0  0  0  0  0  0  0  0  0
    0.8270   23.9240  -25.5360 C   0  0  0  0  0  0  0  0  0  0  0  0
    1.7230   24.8070  -25.6150 O   0  0  0  0  0  0  0  0  0  0  0  0
   -0.2350   23.8410  -26.5680 C   0  0  0  0  0  0  0  0  0  0  0  0
   -1.0600   22.7080  -26.6520 C   0  0  0  0  0  0  0  0  0  0  0  0
   -2.0610   22.6290  -27.6220 C   0  0  0  0  0  0  0  0  0  0  0  0
   -2.2630   23.6800  -28.5360 C   0  0  0  0  0  0  0  0  0  0  0  0
   -3.3050   23.5930  -29.5290 N   0  0  0  0  0  0  0  0  0  0  0  0
   -4.1490   22.5640  -29.7410 C   0  0  0  0  0  0  0  0  0  0  0  0
   -4.9710   22.9400  -30.7870 C   0  0  0  0  0  0  0  0  0  0  0  0
   -6.0660   22.1580  -31.4120 C   0  0  0  0  0  0  0  0  0  0  0  0
   -7.3810   22.3030  -30.9470 C   0  0  0  0  0  0  0  0  0  0  0  0
   -8.4210   21.5760  -31.5260 C   0  0  0  0  0  0  0  0  0  0  0  0
   -8.1770   20.6890  -32.5780 C   0  0  0  0  0  0  0  0  0  0  0  0
   -9.2690   20.0020  -33.1140 O   0  0  0  0  0  0  0  0  0  0  0  0
   -6.8540   20.5240  -33.0560 C   0  0  0  0  0  0  0  0  0  0  0  0
   -6.5340   19.6200  -34.1240 N   0  0  0  0  0  0  0  0  0  0  0  0
   -5.8140   21.2640  -32.4680 C   0  0  0  0  0  0  0  0  0  0  0  0
   -4.6060   24.1790  -31.1760 N   0  0  0  0  0  0  0  0  0  0  0  0
   -3.5990   24.5480  -30.3990 N   0  0  0  0  0  0  0  0  0  0  0  0
   -1.4330   24.8170  -28.4530 C   0  0  0  0  0  0  0  0  0  0  0  0
   -1.5820   25.8750  -29.3430 O   0  0  0  0  0  0  0  0  0  0  0  0
   -0.4330   24.8930  -27.4770 C   0  0  0  0  0  0  0  0  0  0  0  0
    0.6600   23.3330  -23.4680 H   0  0  0  0  0  0  0  0  0  0  0  0
   -0.9164   21.8755  -25.9475 H   0  0  0  0  0  0  0  0  0  0  0  0
   -2.6994   21.7346  -27.6725 H   0  0  0  0  0  0  0  0  0  0  0  0
   -4.1781   21.6123  -29.1902 H   0  0  0  0  0  0  0  0  0  0  0  0
   -7.5939   22.9954  -30.1192 H   0  0  0  0  0  0  0  0  0  0  0  0
   -9.4468   21.7025  -31.1496 H   0  0  0  0  0  0  0  0  0  0  0  0
   -9.3150   19.6620  -34.0630 H   0  0  0  0  0  0  0  0  0  0  0  0
   -7.2050   19.3700  -34.8810 H   0  0  0  0  0  0  0  0  0  0  0  0
   -5.6000   19.1550  -34.1570 H   0  0  0  0  0  0  0  0  0  0  0  0
   -4.7860   21.1420  -32.8398 H   0  0  0  0  0  0  0  0  0  0  0  0
    0.2053   25.7871  -27.4212 H   0  0  0  0  0  0  0  0  0  0  0  0
  1  2  1  0
  2  3  2  0
  2  4  1  0
  4  5  2  0
  5  6  1  0
  6  7  2  0
  7  8  1  0
  8  9  1  0
  9 10  2  0
 10 11  1  0
 11 12  2  0
 12 13  1  0
 13 14  2  0
 14 15  1  0
 14 16  1  0
 16 17  1  0
 16 18  2  0
 10 19  1  0
 19 20  2  0
  7 21  1  0
 21 22  1  0
 21 23  2  0
 23  4  1  0
 20  8  1  0
 18 11  1  0
  1 24  1  0
  5 25  1  0
  6 26  1  0
  9 27  1  0
 12 28  1  0
 13 29  1  0
 15 30  1  0
 17 31  1  0
 17 32  1  0
 18 33  1  0
 23 34  1  0
M  CHG  2   1  -1  22  -1
M  END
>  <UniqueID>  (16) 
16

>  <SMILES>  (16) 
[NH-]C(=O)c1ccc(-n2cc(-c3ccc(O)c(N)c3)nn2)c([O-])c1

>  <Energy>  (16) 
79.16886506701363

>  <Genealogy>  (16) 
[NH-]C(=O)c1ccc(-n2cc(-c3ccc(O)c(N)c3)nn2)c([O-])c1 (protonated)
[NH-]C(=O)c1ccc(-n2cc(-c3ccc(O)c(N)c3)nn2)c([O-])c1 (3D coordinates assigned)
[NH-]C(=O)c1ccc(-n2cc(-c3ccc(O)c(N)c3)nn2)c([O-])c1 (optimized conformer: 79.16886506701363 kcal/mol)

>  <smiles>  (16) 
NC(=O)c1ccc(-n2cc(-c3ccc(O)c(N)c3)nn2)c(O)c1

>  <score_type>  (16) 
oracle

>  <origin>  (16) 
adgpu

>  <m_score__min__energy>  (16) 
-11.07

>  <m_primary>  (16) 
energy

$$$$
16:0
     RDKit          3D

 64 67  0  0  0  0  0  0  0  0999 V2000
   -6.2330   17.3870  -31.0720 O   0  0  0  0  0  0  0  0  0  0  0  0
   -6.9210   17.8160  -32.0420 C   0  0  0  0  0  0  0  0  0  0  0  0
   -7.1000   16.9970  -33.2050 N   0  0  0  0  0  0  0  0  0  0  0  0
   -6.0140   16.2970  -33.8840 C   0  0  0  0  0  0  0  0  0  0  0  0
   -5.2360   17.2710  -34.7880 C   0  0  0  0  0  0  0  0  0  0  0  0
   -4.3220   18.1630  -33.9900 C   0  0  0  0  0  0  0  0  0  0  0  0
   -3.1600   17.6400  -33.4050 C   0  0  0  0  0  0  0  0  0  0  0  0
   -2.2990   18.4710  -32.6830 C   0  0  0  0  0  0  0  0  0  0  0  0
   -2.5880   19.8350  -32.5370 C   0  0  0  0  0  0  0  0  0  0  0  0
   -1.5020   20.8860  -31.6250 S   0  0  0  0  0  0  0  0  0  0  0  0
   -0.1610   20.9120  -32.3070 O   0  0  0  0  0  0  0  0  0  0  0  0
   -2.0520   22.2860  -31.6270 O   0  0  0  0  0  0  0  0  0  0  0  0
   -1.3090   20.3520  -29.9700 N   0  0  0  0  0  0  0  0  0  0  0  0
   -2.5310   20.6100  -29.1890 C   0  0  0  0  0  0  0  0  0  0  0  0
   -2.3560   20.1160  -27.7320 C   0  0  0  0  0  0  0  0  0  0  0  0
   -1.0160   19.7570  -27.4370 O   0  0  0  0  0  0  0  0  0  0  0  0
   -0.1410   20.8040  -27.8120 C   0  0  0  0  0  0  0  0  0  0  0  0
   -0.1420   21.0080  -29.3440 C   0  0  0  0  0  0  0  0  0  0  0  0
   -3.7490   20.3590  -33.1210 C   0  0  0  0  0  0  0  0  0  0  0  0
   -4.6040   19.5320  -33.8550 C   0  0  0  0  0  0  0  0  0  0  0  0
   -7.5350   19.1620  -31.9800 C   0  0  0  0  0  0  0  0  0  0  0  0
   -8.9340   19.3140  -32.0470 C   0  0  0  0  0  0  0  0  0  0  0  0
   -9.5090   20.5870  -32.0460 C   0  0  0  0  0  0  0  0  0  0  0  0
   -8.7020   21.7240  -31.9760 C   0  0  0  0  0  0  0  0  0  0  0  0
   -7.3090   21.5920  -31.8990 C   0  0  0  0  0  0  0  0  0  0  0  0
   -6.2880   23.0260  -31.8150 S   0  0  0  0  0  0  0  0  0  0  0  0
   -6.9660   24.1340  -32.5740 O   0  0  0  0  0  0  0  0  0  0  0  0
   -4.9560   22.7340  -32.4480 O   0  0  0  0  0  0  0  0  0  0  0  0
   -6.0620   23.4900  -30.1410 N   0  0  0  0  0  0  0  0  0  0  0  0
   -4.7030   23.1660  -29.6530 C   0  0  0  0  0  0  0  0  0  0  0  0
   -3.7690   24.3870  -29.6290 C   0  0  0  0  0  0  0  0  0  0  0  0
   -4.0930   25.2700  -30.6800 O   0  0  0  0  0  0  0  0  0  0  0  0
   -5.3460   25.8810  -30.4350 C   0  0  0  0  0  0  0  0  0  0  0  0
   -6.4240   24.9010  -29.9150 C   0  0  0  0  0  0  0  0  0  0  0  0
   -6.7300   20.3140  -31.8900 C   0  0  0  0  0  0  0  0  0  0  0  0
   -5.3303   15.8727  -33.1340 H   0  0  0  0  0  0  0  0  0  0  0  0
   -6.4376   15.4930  -34.5038 H   0  0  0  0  0  0  0  0  0  0  0  0
   -4.6333   16.6904  -35.5019 H   0  0  0  0  0  0  0  0  0  0  0  0
   -5.9639   17.9075  -35.3124 H   0  0  0  0  0  0  0  0  0  0  0  0
   -2.9251   16.5710  -33.5148 H   0  0  0  0  0  0  0  0  0  0  0  0
   -1.3897   18.0526  -32.2268 H   0  0  0  0  0  0  0  0  0  0  0  0
   -1.1420   19.3180  -30.0010 H   0  0  0  0  0  0  0  0  0  0  0  0
   -2.7356   21.6908  -29.1830 H   0  0  0  0  0  0  0  0  0  0  0  0
   -3.3699   20.0685  -29.6506 H   0  0  0  0  0  0  0  0  0  0  0  0
   -2.6646   20.9200  -27.0476 H   0  0  0  0  0  0  0  0  0  0  0  0
   -2.9778   19.2173  -27.6071 H   0  0  0  0  0  0  0  0  0  0  0  0
   -0.4659   21.7354  -27.3253 H   0  0  0  0  0  0  0  0  0  0  0  0
    0.8783   20.5377  -27.4956 H   0  0  0  0  0  0  0  0  0  0  0  0
   -0.1762   22.0856  -29.5624 H   0  0  0  0  0  0  0  0  0  0  0  0
    0.7731   20.5575  -29.7559 H   0  0  0  0  0  0  0  0  0  0  0  0
   -3.9886   21.4259  -33.0013 H   0  0  0  0  0  0  0  0  0  0  0  0
   -5.5018   19.9555  -34.3290 H   0  0  0  0  0  0  0  0  0  0  0  0
   -9.5781   18.4239  -32.1005 H   0  0  0  0  0  0  0  0  0  0  0  0
  -10.6024   20.6940  -32.1006 H   0  0  0  0  0  0  0  0  0  0  0  0
   -9.1599   22.7242  -31.9813 H   0  0  0  0  0  0  0  0  0  0  0  0
   -4.7831   22.7652  -28.6317 H   0  0  0  0  0  0  0  0  0  0  0  0
   -4.2690   22.4320  -30.3479 H   0  0  0  0  0  0  0  0  0  0  0  0
   -3.8800   24.9103  -28.6678 H   0  0  0  0  0  0  0  0  0  0  0  0
   -2.7305   24.0465  -29.7541 H   0  0  0  0  0  0  0  0  0  0  0  0
   -5.2055   26.6729  -29.6846 H   0  0  0  0  0  0  0  0  0  0  0  0
   -5.7059   26.2741  -31.3973 H   0  0  0  0  0  0  0  0  0  0  0  0
   -6.5557   25.0625  -28.8349 H   0  0  0  0  0  0  0  0  0  0  0  0
   -7.3522   25.1005  -30.4706 H   0  0  0  0  0  0  0  0  0  0  0  0
   -5.6376   20.2110  -31.8120 H   0  0  0  0  0  0  0  0  0  0  0  0
  1  2  2  0
  2  3  1  0
  3  4  1  0
  4  5  1  0
  5  6  1  0
  6  7  2  0
  7  8  1  0
  8  9  2  0
  9 10  1  0
 10 11  2  0
 10 12  2  0
 10 13  1  0
 13 14  1  0
 14 15  1  0
 15 16  1  0
 16 17  1  0
 17 18  1  0
  9 19  1  0
 19 20  2  0
  2 21  1  0
 21 22  2  0
 22 23  1  0
 23 24  2  0
 24 25  1  0
 25 26  1  0
 26 27  2  0
 26 28  2  0
 26 29  1  0
 29 30  1  0
 30 31  1  0
 31 32  1  0
 32 33  1  0
 33 34  1  0
 25 35  2  0
 20  6  1  0
 35 21  1  0
 18 13  1  0
 34 29  1  0
  4 36  1  0
  4 37  1  0
  5 38  1  0
  5 39  1  0
  7 40  1  0
  8 41  1  0
 13 42  1  0
 14 43  1  0
 14 44  1  0
 15 45  1  0
 15 46  1  0
 17 47  1  0
 17 48  1  0
 18 49  1  0
 18 50  1  0
 19 51  1  0
 20 52  1  0
 22 53  1  0
 23 54  1  0
 24 55  1  0
 30 56  1  0
 30 57  1  0
 31 58  1  0
 31 59  1  0
 33 60  1  0
 33 61  1  0
 34 62  1  0
 34 63  1  0
 35 64  1  0
M  CHG  2   3  -1  13   1
M  END
>  <UniqueID>  (17) 
17

>  <SMILES>  (17) 
O=C([N-]CCc1ccc(S(=O)(=O)[NH+]2CCOCC2)cc1)c1cccc(S(=O)(=O)N2CCOCC2)c1

>  <Energy>  (17) 
84.74856027327307

>  <Genealogy>  (17) 
O=C([N-]CCc1ccc(S(=O)(=O)[NH+]2CCOCC2)cc1)c1cccc(S(=O)(=O)N2CCOCC2)c1 (protonated)
O=C([N-]CCc1ccc(S(=O)(=O)[NH+]2CCOCC2)cc1)c1cccc(S(=O)(=O)N2CCOCC2)c1 (3D coordinates assigned)
O=C([N-]CCc1ccc(S(=O)(=O)[NH+]2CCOCC2)cc1)c1cccc(S(=O)(=O)N2CCOCC2)c1 (nonaromatic ring conformer: 84.74856027327307 kcal/mol)

>  <smiles>  (17) 
O=C(NCCc1ccc(S(=O)(=O)N2CCOCC2)cc1)c1cccc(S(=O)(=O)N2CCOCC2)c1

>  <score_type>  (17) 
oracle

>  <origin>  (17) 
adgpu

>  <m_score__min__energy>  (17) 
-12.68

>  <m_primary>  (17) 
energy

$$$$
17:0
     RDKit          3D

 50 53  0  0  0  0  0  0  0  0999 V2000
   -5.1210   15.5100  -33.1000 C   0  0  0  0  0  0  0  0  0  0  0  0
   -5.5470   16.4540  -34.2150 C   0  0  0  0  0  0  0  0  0  0  0  0
   -6.1620   17.6950  -33.6530 C   0  0  0  0  0  0  0  0  0  0  0  0
   -7.2680   17.6900  -32.8710 N   0  0  0  0  0  0  0  0  0  0  0  0
   -7.6400   18.9180  -32.5230 N   0  0  0  0  0  0  0  0  0  0  0  0
   -8.7050   19.2090  -31.7350 C   0  0  0  0  0  0  0  0  0  0  0  0
   -9.4350   18.2910  -31.2760 O   0  0  0  0  0  0  0  0  0  0  0  0
   -8.9780   20.5500  -31.4350 C   0  0  0  0  0  0  0  0  0  0  0  0
   -8.1300   21.5500  -31.9530 C   0  0  0  0  0  0  0  0  0  0  0  0
   -8.3490   22.9980  -31.6260 C   0  0  0  0  0  0  0  0  0  0  0  0
   -7.2120   23.7700  -32.0140 O   0  0  0  0  0  0  0  0  0  0  0  0
   -5.9620   23.7500  -31.3740 C   0  0  0  0  0  0  0  0  0  0  0  0
   -4.8650   23.0260  -31.8780 C   0  0  0  0  0  0  0  0  0  0  0  0
   -3.6370   23.0610  -31.2160 C   0  0  0  0  0  0  0  0  0  0  0  0
   -3.4820   23.7960  -30.0360 C   0  0  0  0  0  0  0  0  0  0  0  0
   -2.1880   23.8340  -29.4200 N   0  0  0  0  0  0  0  0  0  0  0  0
   -1.6550   24.8610  -28.5750 C   0  0  0  0  0  0  0  0  0  0  0  0
   -1.6080   26.0570  -28.9660 O   0  0  0  0  0  0  0  0  0  0  0  0
   -1.2330   24.5360  -27.1710 C   0  0  0  0  0  0  0  0  0  0  0  0
   -0.2900   23.4610  -27.1420 O   0  0  0  0  0  0  0  0  0  0  0  0
   -0.5980   22.0990  -27.3000 C   0  0  0  0  0  0  0  0  0  0  0  0
   -0.2270   21.3580  -28.4420 C   0  0  0  0  0  0  0  0  0  0  0  0
   -0.5510   20.0010  -28.5360 C   0  0  0  0  0  0  0  0  0  0  0  0
   -1.2480   19.3740  -27.5020 C   0  0  0  0  0  0  0  0  0  0  0  0
   -1.6230   20.1020  -26.3700 C   0  0  0  0  0  0  0  0  0  0  0  0
   -1.3010   21.4580  -26.2710 C   0  0  0  0  0  0  0  0  0  0  0  0
   -4.5750   24.5230  -29.5330 C   0  0  0  0  0  0  0  0  0  0  0  0
   -5.8060   24.4860  -30.1950 C   0  0  0  0  0  0  0  0  0  0  0  0
   -7.0790   21.2010  -32.7480 N   0  0  0  0  0  0  0  0  0  0  0  0
   -6.8540   19.8940  -33.0220 C   0  0  0  0  0  0  0  0  0  0  0  0
   -5.6080   19.2710  -33.9570 S   0  0  0  0  0  0  0  0  0  0  0  0
   -5.3309   15.9752  -32.1255 H   0  0  0  0  0  0  0  0  0  0  0  0
   -5.6807   14.5668  -33.1842 H   0  0  0  0  0  0  0  0  0  0  0  0
   -4.0434   15.3057  -33.1842 H   0  0  0  0  0  0  0  0  0  0  0  0
   -4.6651   16.7273  -34.8129 H   0  0  0  0  0  0  0  0  0  0  0  0
   -6.2922   15.9443  -34.8434 H   0  0  0  0  0  0  0  0  0  0  0  0
   -9.8396   20.8181  -30.8058 H   0  0  0  0  0  0  0  0  0  0  0  0
   -9.2361   23.3619  -32.1652 H   0  0  0  0  0  0  0  0  0  0  0  0
   -8.4992   23.1016  -30.5412 H   0  0  0  0  0  0  0  0  0  0  0  0
   -4.9761   22.4309  -32.7964 H   0  0  0  0  0  0  0  0  0  0  0  0
   -2.7816   22.5045  -31.6266 H   0  0  0  0  0  0  0  0  0  0  0  0
   -0.7723   25.4277  -26.7209 H   0  0  0  0  0  0  0  0  0  0  0  0
   -2.1247   24.2278  -26.6055 H   0  0  0  0  0  0  0  0  0  0  0  0
    0.3188   21.8494  -29.2609 H   0  0  0  0  0  0  0  0  0  0  0  0
   -0.2560   19.4266  -29.4265 H   0  0  0  0  0  0  0  0  0  0  0  0
   -1.5021   18.3065  -27.5784 H   0  0  0  0  0  0  0  0  0  0  0  0
   -2.1724   19.6070  -25.5557 H   0  0  0  0  0  0  0  0  0  0  0  0
   -1.6016   22.0267  -25.3787 H   0  0  0  0  0  0  0  0  0  0  0  0
   -4.4616   25.1218  -28.6173 H   0  0  0  0  0  0  0  0  0  0  0  0
   -6.6614   25.0420  -29.7839 H   0  0  0  0  0  0  0  0  0  0  0  0
  1  2  1  0
  2  3  1  0
  3  4  2  0
  4  5  1  0
  5  6  1  0
  6  7  2  0
  6  8  1  0
  8  9  2  0
  9 10  1  0
 10 11  1  0
 11 12  1  0
 12 13  2  0
 13 14  1  0
 14 15  2  0
 15 16  1  0
 16 17  1  0
 17 18  2  0
 17 19  1  0
 19 20  1  0
 20 21  1  0
 21 22  2  0
 22 23  1  0
 23 24  2  0
 24 25  1  0
 25 26  2  0
 15 27  1  0
 27 28  2  0
  9 29  1  0
 29 30  2  0
 30 31  1  0
 31  3  1  0
 30  5  1  0
 28 12  1  0
 26 21  1  0
  1 32  1  0
  1 33  1  0
  1 34  1  0
  2 35  1  0
  2 36  1  0
  8 37  1  0
 10 38  1  0
 10 39  1  0
 13 40  1  0
 14 41  1  0
 19 42  1  0
 19 43  1  0
 22 44  1  0
 23 45  1  0
 24 46  1  0
 25 47  1  0
 26 48  1  0
 27 49  1  0
 28 50  1  0
M  CHG  1  16  -1
M  END
>  <UniqueID>  (18) 
18

>  <SMILES>  (18) 
CCc1nn2c(=O)cc(COc3ccc([N-]C(=O)COc4ccccc4)cc3)nc2s1

>  <Energy>  (18) 
91.63394807998084

>  <Genealogy>  (18) 
CCc1nn2c(=O)cc(COc3ccc([N-]C(=O)COc4ccccc4)cc3)nc2s1 (protonated)
CCc1nn2c(=O)cc(COc3ccc([N-]C(=O)COc4ccccc4)cc3)nc2s1 (3D coordinates assigned)
CCc1nn2c(=O)cc(COc3ccc([N-]C(=O)COc4ccccc4)cc3)nc2s1 (optimized conformer: 91.63394807998084 kcal/mol)

>  <smiles>  (18) 
CCc1nn2c(=O)cc(COc3ccc(NC(=O)COc4ccccc4)cc3)nc2s1

>  <score_type>  (18) 
oracle

>  <origin>  (18) 
adgpu

>  <m_score__min__energy>  (18) 
-11.07

>  <m_primary>  (18) 
energy

$$$$
18:0
     RDKit          3D

 53 56  0  0  0  0  0  0  0  0999 V2000
   -5.3570   26.4740  -30.4340 O   0  0  0  0  0  0  0  0  0  0  0  0
   -5.0020   25.2710  -30.5750 C   0  0  0  0  0  0  0  0  0  0  0  0
   -3.6090   24.9290  -30.5010 N   0  0  0  0  0  0  0  0  0  0  0  0
   -3.1290   23.5860  -30.3670 C   0  0  0  0  0  0  0  0  0  0  0  0
   -3.2070   22.7320  -31.4710 C   0  0  0  0  0  0  0  0  0  0  0  0
   -2.7060   21.4250  -31.3980 C   0  0  0  0  0  0  0  0  0  0  0  0
   -2.7790   20.3630  -32.8090 S   0  0  0  0  0  0  0  0  0  0  0  0
   -2.6290   18.9370  -32.3520 O   0  0  0  0  0  0  0  0  0  0  0  0
   -4.1270   20.5030  -33.4610 O   0  0  0  0  0  0  0  0  0  0  0  0
   -1.5370   20.7210  -33.9860 N   0  0  0  0  0  0  0  0  0  0  0  0
   -0.9490   19.5120  -34.5650 C   0  0  0  0  0  0  0  0  0  0  0  0
    0.4520   19.8880  -35.0260 C   0  0  0  0  0  0  0  0  0  0  0  0
    0.7980   21.1660  -34.2760 C   0  0  0  0  0  0  0  0  0  0  0  0
   -0.4180   21.4680  -33.4100 C   0  0  0  0  0  0  0  0  0  0  0  0
   -2.1550   20.9650  -30.1960 C   0  0  0  0  0  0  0  0  0  0  0  0
   -2.1000   21.8010  -29.0810 C   0  0  0  0  0  0  0  0  0  0  0  0
   -2.5940   23.1120  -29.1500 C   0  0  0  0  0  0  0  0  0  0  0  0
   -2.6140   23.9330  -27.9670 N   0  0  0  0  0  0  0  0  0  0  0  0
   -3.8110   23.9370  -27.1210 C   0  0  0  0  0  0  0  0  0  0  0  0
   -3.8680   25.2350  -26.3060 C   0  0  0  0  0  0  0  0  0  0  0  0
   -2.6530   25.4530  -25.6140 O   0  0  0  0  0  0  0  0  0  0  0  0
   -1.5970   25.6410  -26.5370 C   0  0  0  0  0  0  0  0  0  0  0  0
   -1.3560   24.3710  -27.3610 C   0  0  0  0  0  0  0  0  0  0  0  0
   -6.0180   24.2240  -30.8240 C   0  0  0  0  0  0  0  0  0  0  0  0
   -6.6730   23.5990  -29.7490 C   0  0  0  0  0  0  0  0  0  0  0  0
   -7.5890   22.5780  -29.9990 C   0  0  0  0  0  0  0  0  0  0  0  0
   -7.8460   22.1870  -31.2760 N   0  0  0  0  0  0  0  0  0  0  0  0
   -7.2280   22.7690  -32.3370 C   0  0  0  0  0  0  0  0  0  0  0  0
   -6.3040   23.7990  -32.1310 C   0  0  0  0  0  0  0  0  0  0  0  0
   -3.6655   23.0888  -32.4051 H   0  0  0  0  0  0  0  0  0  0  0  0
   -1.9680   21.2900  -34.7530 H   0  0  0  0  0  0  0  0  0  0  0  0
   -0.8986   18.7148  -33.8088 H   0  0  0  0  0  0  0  0  0  0  0  0
   -1.5555   19.1379  -35.4030 H   0  0  0  0  0  0  0  0  0  0  0  0
    1.1663   19.0899  -34.7753 H   0  0  0  0  0  0  0  0  0  0  0  0
    0.4986   20.0293  -36.1159 H   0  0  0  0  0  0  0  0  0  0  0  0
    1.6892   21.0151  -33.6491 H   0  0  0  0  0  0  0  0  0  0  0  0
    1.0273   21.9942  -34.9627 H   0  0  0  0  0  0  0  0  0  0  0  0
   -0.2371   21.1426  -32.3749 H   0  0  0  0  0  0  0  0  0  0  0  0
   -0.6309   22.5470  -33.3873 H   0  0  0  0  0  0  0  0  0  0  0  0
   -1.7635   19.9391  -30.1307 H   0  0  0  0  0  0  0  0  0  0  0  0
   -1.6662   21.4296  -28.1409 H   0  0  0  0  0  0  0  0  0  0  0  0
   -4.7067   23.8648  -27.7555 H   0  0  0  0  0  0  0  0  0  0  0  0
   -3.7726   23.0787  -26.4341 H   0  0  0  0  0  0  0  0  0  0  0  0
   -4.0508   26.0795  -26.9868 H   0  0  0  0  0  0  0  0  0  0  0  0
   -4.6807   25.1510  -25.5694 H   0  0  0  0  0  0  0  0  0  0  0  0
   -1.8553   26.4669  -27.2160 H   0  0  0  0  0  0  0  0  0  0  0  0
   -0.6795   25.8754  -25.9773 H   0  0  0  0  0  0  0  0  0  0  0  0
   -0.6222   24.5821  -28.1528 H   0  0  0  0  0  0  0  0  0  0  0  0
   -0.9709   23.5770  -26.7043 H   0  0  0  0  0  0  0  0  0  0  0  0
   -6.4641   23.9137  -28.7159 H   0  0  0  0  0  0  0  0  0  0  0  0
   -8.1054   22.0872  -29.1608 H   0  0  0  0  0  0  0  0  0  0  0  0
   -7.4544   22.4300  -33.3587 H   0  0  0  0  0  0  0  0  0  0  0  0
   -5.8043   24.2733  -32.9885 H   0  0  0  0  0  0  0  0  0  0  0  0
  1  2  2  0
  2  3  1  0
  3  4  1  0
  4  5  2  0
  5  6  1  0
  6  7  1  0
  7  8  2  0
  7  9  2  0
  7 10  1  0
 10 11  1  0
 11 12  1  0
 12 13  1  0
 13 14  1  0
  6 15  2  0
 15 16  1  0
 16 17  2  0
 17 18  1  0
 18 19  1  0
 19 20  1  0
 20 21  1  0
 21 22  1  0
 22 23  1  0
  2 24  1  0
 24 25  2  0
 25 26  1  0
 26 27  2  0
 27 28  1  0
 28 29  2  0
 17  4  1  0
 23 18  1  0
 29 24  1  0
 14 10  1  0
  5 30  1  0
 10 31  1  0
 11 32  1  0
 11 33  1  0
 12 34  1  0
 12 35  1  0
 13 36  1  0
 13 37  1  0
 14 38  1  0
 14 39  1  0
 15 40  1  0
 16 41  1  0
 19 42  1  0
 19 43  1  0
 20 44  1  0
 20 45  1  0
 22 46  1  0
 22 47  1  0
 23 48  1  0
 23 49  1  0
 25 50  1  0
 26 51  1  0
 28 52  1  0
 29 53  1  0
M  CHG  2   3  -1  10   1
M  END
>  <UniqueID>  (19) 
19

>  <SMILES>  (19) 
O=C([N-]c1cc(S(=O)(=O)[NH+]2CCCC2)ccc1N1CCOCC1)c1ccncc1

>  <Energy>  (19) 
67.46628434441536

>  <Genealogy>  (19) 
O=C([N-]c1cc(S(=O)(=O)[NH+]2CCCC2)ccc1N1CCOCC1)c1ccncc1 (protonated)
O=C([N-]c1cc(S(=O)(=O)[NH+]2CCCC2)ccc1N1CCOCC1)c1ccncc1 (3D coordinates assigned)
O=C([N-]c1cc(S(=O)(=O)[NH+]2CCCC2)ccc1N1CCOCC1)c1ccncc1 (nonaromatic ring conformer: 67.46628434441536 kcal/mol)

>  <smiles>  (19) 
O=C(Nc1cc(S(=O)(=O)N2CCCC2)ccc1N1CCOCC1)c1ccncc1

>  <score_type>  (19) 
oracle

>  <origin>  (19) 
adgpu

>  <m_score__min__energy>  (19) 
-9.8100000000000005

>  <m_primary>  (19) 
energy

$$$$
19:0
     RDKit          3D

 39 41  0  0  0  0  0  0  0  0999 V2000
   -9.0640   19.7450  -32.4400 C   0  0  0  0  0  0  0  0  0  0  0  0
   -7.2860   19.7350  -32.4930 S   0  0  0  0  0  0  0  0  0  0  0  0
   -6.7770   18.7120  -31.5160 O   0  0  0  0  0  0  0  0  0  0  0  0
   -6.8210   19.3650  -33.8730 O   0  0  0  0  0  0  0  0  0  0  0  0
   -6.6760   21.3340  -32.0780 C   0  0  0  0  0  0  0  0  0  0  0  0
   -5.2970   21.5800  -32.0050 C   0  0  0  0  0  0  0  0  0  0  0  0
   -4.8270   22.8530  -31.6740 C   0  0  0  0  0  0  0  0  0  0  0  0
   -5.7280   23.8930  -31.3980 C   0  0  0  0  0  0  0  0  0  0  0  0
   -5.2240   25.2710  -31.0850 C   0  0  0  0  0  0  0  0  0  0  0  0
   -3.9100   25.1730  -30.4660 N   0  0  0  0  0  0  0  0  0  0  0  0
   -3.6910   24.5510  -29.1960 C   0  0  0  0  0  0  0  0  0  0  0  0
   -4.6410   24.4550  -28.3710 O   0  0  0  0  0  0  0  0  0  0  0  0
   -2.3470   24.0280  -28.8710 C   0  0  0  0  0  0  0  0  0  0  0  0
   -2.2280   22.7230  -28.5040 N   0  0  0  0  0  0  0  0  0  0  0  0
   -1.0300   22.1600  -28.1900 C   0  0  0  0  0  0  0  0  0  0  0  0
   -0.9730   20.7370  -27.8020 C   0  0  0  0  0  0  0  0  0  0  0  0
   -1.9110   20.0760  -27.0150 C   0  0  0  0  0  0  0  0  0  0  0  0
   -1.6080   18.7240  -26.8060 C   0  0  0  0  0  0  0  0  0  0  0  0
   -0.4330   18.3130  -27.4210 C   0  0  0  0  0  0  0  0  0  0  0  0
    0.2270   19.6320  -28.2270 S   0  0  0  0  0  0  0  0  0  0  0  0
    0.1220   22.9570  -28.2440 C   0  0  0  0  0  0  0  0  0  0  0  0
    0.0170   24.2600  -28.6080 N   0  0  0  0  0  0  0  0  0  0  0  0
   -1.1810   24.8200  -28.9230 C   0  0  0  0  0  0  0  0  0  0  0  0
   -1.2260   26.0340  -29.2540 O   0  0  0  0  0  0  0  0  0  0  0  0
   -7.1080   23.6480  -31.4870 C   0  0  0  0  0  0  0  0  0  0  0  0
   -7.5780   22.3750  -31.8200 C   0  0  0  0  0  0  0  0  0  0  0  0
   -9.3996   19.7469  -31.3924 H   0  0  0  0  0  0  0  0  0  0  0  0
   -9.4409   20.6453  -32.9474 H   0  0  0  0  0  0  0  0  0  0  0  0
   -9.4510   18.8490  -32.9474 H   0  0  0  0  0  0  0  0  0  0  0  0
   -4.5836   20.7680  -32.2090 H   0  0  0  0  0  0  0  0  0  0  0  0
   -3.7442   23.0415  -31.6294 H   0  0  0  0  0  0  0  0  0  0  0  0
   -5.1500   25.8551  -32.0141 H   0  0  0  0  0  0  0  0  0  0  0  0
   -5.9202   25.7704  -30.3952 H   0  0  0  0  0  0  0  0  0  0  0  0
   -2.8028   20.5666  -26.5979 H   0  0  0  0  0  0  0  0  0  0  0  0
   -2.2420   18.0509  -26.2102 H   0  0  0  0  0  0  0  0  0  0  0  0
   -0.0075   17.2992  -27.3867 H   0  0  0  0  0  0  0  0  0  0  0  0
    1.1039   22.5292  -27.9931 H   0  0  0  0  0  0  0  0  0  0  0  0
   -7.8221   24.4620  -31.2937 H   0  0  0  0  0  0  0  0  0  0  0  0
   -8.6605   22.1892  -31.8799 H   0  0  0  0  0  0  0  0  0  0  0  0
  1  2  1  0
  2  3  2  0
  2  4  2  0
  2  5  1  0
  5  6  2  0
  6  7  1  0
  7  8  2  0
  8  9  1  0
  9 10  1  0
 10 11  1  0
 11 12  2  0
 11 13  1  0
 13 14  2  0
 14 15  1  0
 15 16  1  0
 16 17  2  0
 17 18  1  0
 18 19  2  0
 19 20  1  0
 15 21  2  0
 21 22  1  0
 22 23  1  0
 23 24  2  0
  8 25  1  0
 25 26  2  0
 26  5  1  0
 23 13  1  0
 20 16  1  0
  1 27  1  0
  1 28  1  0
  1 29  1  0
  6 30  1  0
  7 31  1  0
  9 32  1  0
  9 33  1  0
 17 34  1  0
 18 35  1  0
 19 36  1  0
 21 37  1  0
 25 38  1  0
 26 39  1  0
M  CHG  2  10  -1  22  -1
M  END
>  <UniqueID>  (20) 
20

>  <SMILES>  (20) 
CS(=O)(=O)c1ccc(C[N-]C(=O)c2nc(-c3cccs3)c[n-]c2=O)cc1

>  <Energy>  (20) 
65.53737978929551

>  <Genealogy>  (20) 
CS(=O)(=O)c1ccc(C[N-]C(=O)c2nc(-c3cccs3)c[n-]c2=O)cc1 (protonated)
CS(=O)(=O)c1ccc(C[N-]C(=O)c2nc(-c3cccs3)c[n-]c2=O)cc1 (3D coordinates assigned)
CS(=O)(=O)c1ccc(C[N-]C(=O)c2nc(-c3cccs3)c[n-]c2=O)cc1 (optimized conformer: 65.53737978929551 kcal/mol)

>  <smiles>  (20) 
CS(=O)(=O)c1ccc(CNC(=O)c2nc(-c3cccs3)c[nH]c2=O)cc1

>  <score_type>  (20) 
oracle

>  <origin>  (20) 
adgpu

>  <m_score__min__energy>  (20) 
-11.699999999999999

>  <m_primary>  (20) 
energy

$$$$
20:0
     RDKit          3D

 47 49  0  0  1  0  0  0  0  0999 V2000
   -2.8080   19.3010  -26.0940 C   0  0  0  0  0  0  0  0  0  0  0  0
   -1.5390   19.4220  -26.8700 C   0  0  0  0  0  0  0  0  0  0  0  0
   -1.0270   20.6870  -27.1000 C   0  0  0  0  0  0  0  0  0  0  0  0
    0.1490   20.7510  -27.8230 C   0  0  0  0  0  0  0  0  0  0  0  0
    0.7420   21.8600  -28.1130 N   0  0  0  0  0  0  0  0  0  0  0  0
    0.0410   23.3440  -27.5780 S   0  0  0  0  0  0  0  0  0  0  0  0
    0.8990   24.5240  -27.8400 O   0  0  0  0  0  0  0  0  0  0  0  0
   -0.2920   23.2870  -26.0980 O   0  0  0  0  0  0  0  0  0  0  0  0
   -1.5180   23.4780  -28.3980 C   0  0  0  0  0  0  0  0  0  0  0  0
   -1.6160   23.0620  -29.7160 C   0  0  0  0  0  0  0  0  0  0  0  0
   -2.8360   23.1610  -30.3730 C   0  0  0  0  0  0  0  0  0  0  0  0
   -3.9660   23.6630  -29.7620 C   0  0  0  0  0  0  0  0  0  0  0  0
   -5.2020   23.7300  -30.5280 C   0  0  0  0  0  0  0  0  0  0  0  0
   -5.1770   24.4190  -31.5810 O   0  0  0  0  0  0  0  0  0  0  0  0
   -6.4000   23.0780  -30.1560 N   0  0  0  0  0  0  0  0  0  0  0  0
   -7.6340   23.1290  -30.8930 C   0  0  0  0  0  0  0  0  0  0  0  0
   -7.9710   21.8860  -31.6120 C   0  0  0  0  0  0  0  0  0  0  0  0
   -9.2220   21.3080  -31.6230 C   0  0  0  0  0  0  0  0  0  0  0  0
   -9.4840   20.1340  -32.3150 C   0  0  0  0  0  0  0  0  0  0  0  0
   -8.5150   19.5140  -33.0060 N   0  0  0  0  0  0  0  0  0  0  0  0
   -7.2880   20.0590  -33.0080 C   0  0  0  0  0  0  0  0  0  0  0  0
   -6.9730   21.2260  -32.3370 C   0  0  0  0  0  0  0  0  0  0  0  0
   -3.8450   24.0690  -28.4570 C   0  0  0  0  0  0  0  0  0  0  0  0
   -2.6330   23.9780  -27.7820 C   0  0  0  0  0  0  0  0  0  0  0  0
    0.7680   19.6240  -28.2820 N   0  0  0  0  0  0  0  0  0  0  0  0
    0.2390   18.4120  -28.0380 C   0  0  0  0  0  0  0  0  0  0  0  0
    0.9670   17.2290  -28.5680 C   0  0  0  0  0  0  0  0  0  0  0  0
   -0.9140   18.3030  -27.3330 N   0  0  0  0  0  0  0  0  0  0  0  0
   -2.5830   19.3225  -25.0175 H   0  0  0  0  0  0  0  0  0  0  0  0
   -3.4735   20.1398  -26.3463 H   0  0  0  0  0  0  0  0  0  0  0  0
   -3.3029   18.3516  -26.3463 H   0  0  0  0  0  0  0  0  0  0  0  0
   -1.5288   21.5923  -26.7276 H   0  0  0  0  0  0  0  0  0  0  0  0
   -0.7360   22.6571  -30.2373 H   0  0  0  0  0  0  0  0  0  0  0  0
   -2.9033   22.8268  -31.4188 H   0  0  0  0  0  0  0  0  0  0  0  0
   -6.3590   22.5130  -29.2590 H   0  0  0  0  0  0  0  0  0  0  0  0
   -8.4475   23.3476  -30.1856 H   0  0  0  0  0  0  0  0  0  0  0  0
   -7.5078   23.9082  -31.6591 H   0  0  0  0  0  0  0  0  0  0  0  0
  -10.0379   21.7921  -31.0662 H   0  0  0  0  0  0  0  0  0  0  0  0
  -10.4975   19.7068  -32.2969 H   0  0  0  0  0  0  0  0  0  0  0  0
   -6.4924   19.5508  -33.5726 H   0  0  0  0  0  0  0  0  0  0  0  0
   -5.9507   21.6304  -32.3727 H   0  0  0  0  0  0  0  0  0  0  0  0
   -4.7241   24.4744  -27.9346 H   0  0  0  0  0  0  0  0  0  0  0  0
   -2.5693   24.3132  -26.7363 H   0  0  0  0  0  0  0  0  0  0  0  0
    1.6670   19.6960  -28.8330 H   0  0  0  0  0  0  0  0  0  0  0  0
    1.3403   16.6224  -27.7298 H   0  0  0  0  0  0  0  0  0  0  0  0
    0.2847   16.6240  -29.1832 H   0  0  0  0  0  0  0  0  0  0  0  0
    1.8146   17.5654  -29.1832 H   0  0  0  0  0  0  0  0  0  0  0  0
  1  2  1  0
  2  3  2  0
  3  4  1  0
  4  5  2  0
  5  6  1  0
  6  7  2  0
  6  8  2  0
  6  9  1  0
  9 10  2  0
 10 11  1  0
 11 12  2  0
 12 13  1  0
 13 14  2  0
 13 15  1  0
 15 16  1  0
 16 17  1  0
 17 18  2  0
 18 19  1  0
 19 20  2  0
 20 21  1  0
 21 22  2  0
 12 23  1  0
 23 24  2  0
  4 25  1  0
 25 26  1  0
 26 27  1  0
 26 28  2  0
 28  2  1  0
 24  9  1  0
 22 17  1  0
  1 29  1  0
  1 30  1  0
  1 31  1  0
  3 32  1  0
 10 33  1  0
 11 34  1  0
 15 35  1  0
 16 36  1  0
 16 37  1  0
 18 38  1  0
 19 39  1  0
 21 40  1  0
 22 41  1  0
 23 42  1  0
 24 43  1  0
 25 44  1  0
 27 45  1  0
 27 46  1  0
 27 47  1  0
M  END
>  <smiles>  (21) 
Cc1cc(=NS(=O)(=O)c2ccc(C(=O)NCc3ccncc3)cc2)[nH]c(C)n1

>  <score_type>  (21) 
oracle

>  <origin>  (21) 
adgpu

>  <m_score__min__energy>  (21) 
-8.8800000000000008

>  <m_primary>  (21) 
energy

$$$$
21:0
     RDKit          3D

 42 45  0  0  0  0  0  0  0  0999 V2000
   -1.2370   26.0540  -29.3360 O   0  0  0  0  0  0  0  0  0  0  0  0
   -1.2430   25.0100  -28.6330 C   0  0  0  0  0  0  0  0  0  0  0  0
   -1.2330   25.1040  -27.2380 C   0  0  0  0  0  0  0  0  0  0  0  0
   -1.2420   23.9370  -26.4730 C   0  0  0  0  0  0  0  0  0  0  0  0
   -1.2590   22.6870  -27.1060 C   0  0  0  0  0  0  0  0  0  0  0  0
   -1.2760   21.5010  -26.3590 C   0  0  0  0  0  0  0  0  0  0  0  0
   -1.3050   20.2680  -27.0110 C   0  0  0  0  0  0  0  0  0  0  0  0
   -1.3100   20.2070  -28.4060 C   0  0  0  0  0  0  0  0  0  0  0  0
   -1.2760   21.3820  -29.1730 C   0  0  0  0  0  0  0  0  0  0  0  0
   -1.2670   21.2590  -30.9380 S   0  0  0  0  0  0  0  0  0  0  0  0
    0.1420   21.4610  -31.4170 O   0  0  0  0  0  0  0  0  0  0  0  0
   -1.7480   19.9110  -31.3960 O   0  0  0  0  0  0  0  0  0  0  0  0
   -2.2740   22.4840  -31.6410 N   0  0  0  0  0  0  0  0  0  0  0  0
   -3.6920   22.6620  -31.4710 C   0  0  0  0  0  0  0  0  0  0  0  0
   -4.5190   21.5920  -31.8310 C   0  0  0  0  0  0  0  0  0  0  0  0
   -5.9150   21.6800  -31.7190 C   0  0  0  0  0  0  0  0  0  0  0  0
   -6.4980   22.8820  -31.2610 C   0  0  0  0  0  0  0  0  0  0  0  0
   -5.6710   23.9430  -30.8690 C   0  0  0  0  0  0  0  0  0  0  0  0
   -4.2770   23.8440  -30.9640 C   0  0  0  0  0  0  0  0  0  0  0  0
   -3.4940   24.9140  -30.5370 O   0  0  0  0  0  0  0  0  0  0  0  0
   -7.9930   23.0120  -31.0710 C   0  0  0  0  0  0  0  0  0  0  0  0
   -8.7820   21.9780  -31.8780 C   0  0  0  0  0  0  0  0  0  0  0  0
   -8.1950   20.5820  -31.6710 C   0  0  0  0  0  0  0  0  0  0  0  0
   -6.7590   20.5230  -32.1990 C   0  0  0  0  0  0  0  0  0  0  0  0
   -1.2640   22.6320  -28.5200 C   0  0  0  0  0  0  0  0  0  0  0  0
   -1.2580   23.7910  -29.2340 N   0  0  0  0  0  0  0  0  0  0  0  0
   -1.2182   26.0888  -26.7481 H   0  0  0  0  0  0  0  0  0  0  0  0
   -1.2358   23.9982  -25.3747 H   0  0  0  0  0  0  0  0  0  0  0  0
   -1.2665   21.5425  -25.2598 H   0  0  0  0  0  0  0  0  0  0  0  0
   -1.3240   19.3386  -26.4229 H   0  0  0  0  0  0  0  0  0  0  0  0
   -1.3409   19.2290  -28.9085 H   0  0  0  0  0  0  0  0  0  0  0  0
   -4.0658   20.6638  -32.2092 H   0  0  0  0  0  0  0  0  0  0  0  0
   -6.1233   24.8676  -30.4808 H   0  0  0  0  0  0  0  0  0  0  0  0
   -2.4890   24.9240  -30.6580 H   0  0  0  0  0  0  0  0  0  0  0  0
   -8.2253   22.8780  -30.0042 H   0  0  0  0  0  0  0  0  0  0  0  0
   -8.2884   24.0093  -31.4289 H   0  0  0  0  0  0  0  0  0  0  0  0
   -9.8310   21.9831  -31.5470 H   0  0  0  0  0  0  0  0  0  0  0  0
   -8.7220   22.2363  -32.9456 H   0  0  0  0  0  0  0  0  0  0  0  0
   -8.1964   20.3439  -30.5971 H   0  0  0  0  0  0  0  0  0  0  0  0
   -8.8075   19.8523  -32.2208 H   0  0  0  0  0  0  0  0  0  0  0  0
   -6.2968   19.5847  -31.8584 H   0  0  0  0  0  0  0  0  0  0  0  0
   -6.8054   20.5777  -33.2967 H   0  0  0  0  0  0  0  0  0  0  0  0
  1  2  2  0
  2  3  1  0
  3  4  2  0
  4  5  1  0
  5  6  2  0
  6  7  1  0
  7  8  2  0
  8  9  1  0
  9 10  1  0
 10 11  2  0
 10 12  2  0
 10 13  1  0
 13 14  1  0
 14 15  2  0
 15 16  1  0
 16 17  2  0
 17 18  1  0
 18 19  2  0
 19 20  1  0
 17 21  1  0
 21 22  1  0
 22 23  1  0
 23 24  1  0
  9 25  2  0
 25 26  1  0
 26  2  1  0
 25  5  1  0
 19 14  1  0
 24 16  1  0
  3 27  1  0
  4 28  1  0
  6 29  1  0
  7 30  1  0
  8 31  1  0
 15 32  1  0
 18 33  1  0
 20 34  1  0
 21 35  1  0
 21 36  1  0
 22 37  1  0
 22 38  1  0
 23 39  1  0
 23 40  1  0
 24 41  1  0
 24 42  1  0
M  CHG  2  13  -1  26  -1
M  END
>  <UniqueID>  (22) 
21

>  <SMILES>  (22) 
O=c1ccc2cccc(S(=O)(=O)[N-]c3cc4c(cc3O)CCCC4)c2[n-]1

>  <Energy>  (22) 
55.458289003058105

>  <Genealogy>  (22) 
O=c1ccc2cccc(S(=O)(=O)[N-]c3cc4c(cc3O)CCCC4)c2[n-]1 (protonated)
O=c1ccc2cccc(S(=O)(=O)[N-]c3cc4c(cc3O)CCCC4)c2[n-]1 (3D coordinates assigned)
O=c1ccc2cccc(S(=O)(=O)[N-]c3cc4c(cc3O)CCCC4)c2[n-]1 (nonaromatic ring conformer: 55.458289003058105 kcal/mol)

>  <smiles>  (22) 
O=c1ccc2cccc(S(=O)(=O)Nc3cc4c(cc3O)CCCC4)c2[nH]1

>  <score_type>  (22) 
oracle

>  <origin>  (22) 
adgpu

>  <m_score__min__energy>  (22) 
-12.449999999999999

>  <m_primary>  (22) 
energy

$$$$
22:0
     RDKit          3D

 59 62  0  0  0  0  0  0  0  0999 V2000
   -0.3590   18.5680  -28.5330 C   0  0  0  0  0  0  0  0  0  0  0  0
   -0.9900   19.9350  -28.5120 C   0  0  0  0  0  0  0  0  0  0  0  0
   -1.1920   20.5720  -27.2760 C   0  0  0  0  0  0  0  0  0  0  0  0
   -1.7720   21.8390  -27.2140 C   0  0  0  0  0  0  0  0  0  0  0  0
   -2.1450   22.5050  -28.3910 C   0  0  0  0  0  0  0  0  0  0  0  0
   -2.7680   23.7980  -28.3640 N   0  0  0  0  0  0  0  0  0  0  0  0
   -2.5680   24.8430  -29.3200 C   0  0  0  0  0  0  0  0  0  0  0  0
   -1.6350   25.6680  -29.1380 O   0  0  0  0  0  0  0  0  0  0  0  0
   -3.4890   25.0150  -30.4070 N   0  0  0  0  0  0  0  0  0  0  0  0
   -4.6880   24.2610  -30.6470 C   0  0  0  0  0  0  0  0  0  0  0  0
   -5.9320   24.7130  -30.1860 C   0  0  0  0  0  0  0  0  0  0  0  0
   -7.0850   23.9730  -30.4250 C   0  0  0  0  0  0  0  0  0  0  0  0
   -7.0300   22.7700  -31.1440 C   0  0  0  0  0  0  0  0  0  0  0  0
   -8.3100   22.0030  -31.3490 C   0  0  0  0  0  0  0  0  0  0  0  0
   -5.7910   22.3340  -31.6830 C   0  0  0  0  0  0  0  0  0  0  0  0
   -5.6870   20.8400  -32.6520 S   0  0  0  0  0  0  0  0  0  0  0  0
   -6.8590   20.7760  -33.5920 O   0  0  0  0  0  0  0  0  0  0  0  0
   -4.4410   20.8410  -33.4940 O   0  0  0  0  0  0  0  0  0  0  0  0
   -5.6870   19.3590  -31.6370 C   0  0  0  0  0  0  0  0  0  0  0  0
   -5.7810   18.0240  -32.3620 C   0  0  0  0  0  0  0  0  0  0  0  0
   -7.0030   18.5990  -31.6680 C   0  0  0  0  0  0  0  0  0  0  0  0
   -4.6190   23.0800  -31.4110 C   0  0  0  0  0  0  0  0  0  0  0  0
   -3.3870   22.6320  -31.8890 O   0  0  0  0  0  0  0  0  0  0  0  0
   -1.9640   21.8700  -29.6240 C   0  0  0  0  0  0  0  0  0  0  0  0
   -1.3740   20.5980  -29.7020 C   0  0  0  0  0  0  0  0  0  0  0  0
   -1.1760   19.8440  -31.2960 S   0  0  0  0  0  0  0  0  0  0  0  0
   -0.5630   18.4780  -31.1480 O   0  0  0  0  0  0  0  0  0  0  0  0
   -2.5260   19.6890  -31.9420 O   0  0  0  0  0  0  0  0  0  0  0  0
   -0.1520   20.8410  -32.3010 N   0  0  0  0  0  0  0  0  0  0  0  0
    0.9790   20.0420  -32.8140 C   0  0  0  0  0  0  0  0  0  0  0  0
    1.5720   20.6870  -34.0770 C   0  0  0  0  0  0  0  0  0  0  0  0
    0.6480   20.8210  -35.1510 O   0  0  0  0  0  0  0  0  0  0  0  0
   -0.7120   20.8230  -34.7410 C   0  0  0  0  0  0  0  0  0  0  0  0
   -0.9310   21.4960  -33.3750 C   0  0  0  0  0  0  0  0  0  0  0  0
   -0.1993   18.2220  -27.5011 H   0  0  0  0  0  0  0  0  0  0  0  0
   -1.0238   17.8653  -29.0566 H   0  0  0  0  0  0  0  0  0  0  0  0
    0.6071   18.6181  -29.0566 H   0  0  0  0  0  0  0  0  0  0  0  0
   -0.8895   20.0661  -26.3473 H   0  0  0  0  0  0  0  0  0  0  0  0
   -1.9377   22.3181  -26.2378 H   0  0  0  0  0  0  0  0  0  0  0  0
   -5.9969   25.6604  -29.6308 H   0  0  0  0  0  0  0  0  0  0  0  0
   -8.0517   24.3355  -30.0456 H   0  0  0  0  0  0  0  0  0  0  0  0
   -8.7427   21.7437  -30.3715 H   0  0  0  0  0  0  0  0  0  0  0  0
   -9.0227   22.6230  -31.9126 H   0  0  0  0  0  0  0  0  0  0  0  0
   -8.0994   21.0821  -31.9126 H   0  0  0  0  0  0  0  0  0  0  0  0
   -5.0132   19.7601  -30.8655 H   0  0  0  0  0  0  0  0  0  0  0  0
   -5.7373   17.9904  -33.4606 H   0  0  0  0  0  0  0  0  0  0  0  0
   -5.2340   17.0710  -32.3112 H   0  0  0  0  0  0  0  0  0  0  0  0
   -7.8446   18.9814  -32.2642 H   0  0  0  0  0  0  0  0  0  0  0  0
   -7.7077   18.2340  -30.9063 H   0  0  0  0  0  0  0  0  0  0  0  0
   -3.2490   21.7070  -32.2740 H   0  0  0  0  0  0  0  0  0  0  0  0
   -2.2885   22.3743  -30.5461 H   0  0  0  0  0  0  0  0  0  0  0  0
    1.7582   19.9809  -32.0400 H   0  0  0  0  0  0  0  0  0  0  0  0
    0.6141   19.0361  -33.0689 H   0  0  0  0  0  0  0  0  0  0  0  0
    1.9411   21.6888  -33.8122 H   0  0  0  0  0  0  0  0  0  0  0  0
    2.3714   20.0181  -34.4286 H   0  0  0  0  0  0  0  0  0  0  0  0
   -1.3040   21.3619  -35.4954 H   0  0  0  0  0  0  0  0  0  0  0  0
   -1.0259   19.7733  -34.6429 H   0  0  0  0  0  0  0  0  0  0  0  0
   -0.6225   22.5495  -33.4450 H   0  0  0  0  0  0  0  0  0  0  0  0
   -1.9978   21.4088  -33.1213 H   0  0  0  0  0  0  0  0  0  0  0  0
  1  2  1  0
  2  3  2  0
  3  4  1  0
  4  5  2  0
  5  6  1  0
  6  7  1  0
  7  8  2  0
  7  9  1  0
  9 10  1  0
 10 11  2  0
 11 12  1  0
 12 13  2  0
 13 14  1  0
 13 15  1  0
 15 16  1  0
 16 17  2  0
 16 18  2  0
 16 19  1  0
 19 20  1  0
 20 21  1  0
 15 22  2  0
 22 23  1  0
  5 24  1  0
 24 25  2  0
 25 26  1  0
 26 27  2  0
 26 28  2  0
 26 29  1  0
 29 30  1  0
 30 31  1  0
 31 32  1  0
 32 33  1  0
 33 34  1  0
 25  2  1  0
 34 29  1  0
 22 10  1  0
 21 19  1  0
  1 35  1  0
  1 36  1  0
  1 37  1  0
  3 38  1  0
  4 39  1  0
 11 40  1  0
 12 41  1  0
 14 42  1  0
 14 43  1  0
 14 44  1  0
 19 45  1  0
 20 46  1  0
 20 47  1  0
 21 48  1  0
 21 49  1  0
 23 50  1  0
 24 51  1  0
 30 52  1  0
 30 53  1  0
 31 54  1  0
 31 55  1  0
 33 56  1  0
 33 57  1  0
 34 58  1  0
 34 59  1  0
M  CHG  2   6  -1   9  -1
M  END
>  <UniqueID>  (23) 
22

>  <SMILES>  (23) 
Cc1ccc([N-]C(=O)[N-]c2ccc(C)c(S(=O)(=O)C3CC3)c2O)cc1S(=O)(=O)N1CCOCC1

>  <Energy>  (23) 
347.76568962644717

>  <Genealogy>  (23) 
Cc1ccc([N-]C(=O)[N-]c2ccc(C)c(S(=O)(=O)C3CC3)c2O)cc1S(=O)(=O)N1CCOCC1 (protonated)
Cc1ccc([N-]C(=O)[N-]c2ccc(C)c(S(=O)(=O)C3CC3)c2O)cc1S(=O)(=O)N1CCOCC1 (3D coordinates assigned)
Cc1ccc([N-]C(=O)[N-]c2ccc(C)c(S(=O)(=O)C3CC3)c2O)cc1S(=O)(=O)N1CCOCC1 (nonaromatic ring conformer: 347.76568962644717 kcal/mol)

>  <smiles>  (23) 
Cc1ccc(NC(=O)Nc2ccc(C)c(S(=O)(=O)C3CC3)c2O)cc1S(=O)(=O)N1CCOCC1

>  <score_type>  (23) 
oracle

>  <origin>  (23) 
adgpu

>  <m_score__min__energy>  (23) 
-14.33

>  <m_primary>  (23) 
energy

$$$$
23:0
     RDKit          3D

 41 43  0  0  0  0  0  0  0  0999 V2000
   -6.4100   24.7000  -30.4760 C   0  0  0  0  0  0  0  0  0  0  0  0
   -6.4670   23.9190  -31.6650 O   0  0  0  0  0  0  0  0  0  0  0  0
   -7.2540   22.7670  -31.8260 C   0  0  0  0  0  0  0  0  0  0  0  0
   -8.6620   22.8210  -31.7490 C   0  0  0  0  0  0  0  0  0  0  0  0
   -9.4270   21.6640  -31.9170 C   0  0  0  0  0  0  0  0  0  0  0  0
   -8.8030   20.4420  -32.1670 C   0  0  0  0  0  0  0  0  0  0  0  0
   -7.4110   20.3730  -32.2490 C   0  0  0  0  0  0  0  0  0  0  0  0
   -6.6280   21.5250  -32.0740 C   0  0  0  0  0  0  0  0  0  0  0  0
   -4.8740   21.3710  -32.2450 S   0  0  0  0  0  0  0  0  0  0  0  0
   -4.3340   20.1910  -31.4870 O   0  0  0  0  0  0  0  0  0  0  0  0
   -4.5530   21.1830  -33.7010 O   0  0  0  0  0  0  0  0  0  0  0  0
   -4.1180   22.8270  -31.6790 N   0  0  0  0  0  0  0  0  0  0  0  0
   -3.3770   22.8770  -30.4480 C   0  0  0  0  0  0  0  0  0  0  0  0
   -2.9480   21.6970  -29.8200 C   0  0  0  0  0  0  0  0  0  0  0  0
   -2.2430   21.7410  -28.6080 C   0  0  0  0  0  0  0  0  0  0  0  0
   -1.9780   22.9900  -28.0010 C   0  0  0  0  0  0  0  0  0  0  0  0
   -2.3750   24.1680  -28.6490 C   0  0  0  0  0  0  0  0  0  0  0  0
   -3.0730   24.1150  -29.8600 C   0  0  0  0  0  0  0  0  0  0  0  0
   -3.4730   25.3020  -30.4660 O   0  0  0  0  0  0  0  0  0  0  0  0
   -1.1770   23.0930  -26.7230 C   0  0  0  0  0  0  0  0  0  0  0  0
   -1.1460   21.7770  -25.9380 C   0  0  0  0  0  0  0  0  0  0  0  0
   -0.7980   20.6120  -26.8650 C   0  0  0  0  0  0  0  0  0  0  0  0
   -1.8790   20.4410  -27.9340 C   0  0  0  0  0  0  0  0  0  0  0  0
   -6.4584   24.0373  -29.5994 H   0  0  0  0  0  0  0  0  0  0  0  0
   -5.4680   25.2677  -30.4550 H   0  0  0  0  0  0  0  0  0  0  0  0
   -7.2596   25.3984  -30.4550 H   0  0  0  0  0  0  0  0  0  0  0  0
   -9.1613   23.7818  -31.5551 H   0  0  0  0  0  0  0  0  0  0  0  0
  -10.5238   21.7170  -31.8519 H   0  0  0  0  0  0  0  0  0  0  0  0
   -9.4076   19.5326  -32.2996 H   0  0  0  0  0  0  0  0  0  0  0  0
   -6.9237   19.4080  -32.4524 H   0  0  0  0  0  0  0  0  0  0  0  0
   -4.4040   23.7190  -32.1420 H   0  0  0  0  0  0  0  0  0  0  0  0
   -3.1677   20.7245  -30.2847 H   0  0  0  0  0  0  0  0  0  0  0  0
   -2.1353   25.1435  -28.2008 H   0  0  0  0  0  0  0  0  0  0  0  0
   -0.1447   23.3763  -26.9763 H   0  0  0  0  0  0  0  0  0  0  0  0
   -1.6612   23.8486  -26.0868 H   0  0  0  0  0  0  0  0  0  0  0  0
   -0.3886   21.8467  -25.1433 H   0  0  0  0  0  0  0  0  0  0  0  0
   -2.1389   21.5997  -25.4991 H   0  0  0  0  0  0  0  0  0  0  0  0
    0.1667   20.8132  -27.3538 H   0  0  0  0  0  0  0  0  0  0  0  0
   -0.7346   19.6889  -26.2702 H   0  0  0  0  0  0  0  0  0  0  0  0
   -1.5110   19.7399  -28.6975 H   0  0  0  0  0  0  0  0  0  0  0  0
   -2.7827   20.0615  -27.4346 H   0  0  0  0  0  0  0  0  0  0  0  0
  1  2  1  0
  2  3  1  0
  3  4  2  0
  4  5  1  0
  5  6  2  0
  6  7  1  0
  7  8  2  0
  8  9  1  0
  9 10  2  0
  9 11  2  0
  9 12  1  0
 12 13  1  0
 13 14  2  0
 14 15  1  0
 15 16  2  0
 16 17  1  0
 17 18  2  0
 18 19  1  0
 16 20  1  0
 20 21  1  0
 21 22  1  0
 22 23  1  0
  8  3  1  0
 18 13  1  0
 23 15  1  0
  1 24  1  0
  1 25  1  0
  1 26  1  0
  4 27  1  0
  5 28  1  0
  6 29  1  0
  7 30  1  0
 12 31  1  0
 14 32  1  0
 17 33  1  0
 20 34  1  0
 20 35  1  0
 21 36  1  0
 21 37  1  0
 22 38  1  0
 22 39  1  0
 23 40  1  0
 23 41  1  0
M  CHG  1  19  -1
M  END
>  <UniqueID>  (24) 
23

>  <SMILES>  (24) 
COc1ccccc1S(=O)(=O)Nc1cc2c(cc1[O-])CCCC2

>  <Energy>  (24) 
45.30539605077169

>  <Genealogy>  (24) 
COc1ccccc1S(=O)(=O)Nc1cc2c(cc1[O-])CCCC2 (protonated)
COc1ccccc1S(=O)(=O)Nc1cc2c(cc1[O-])CCCC2 (3D coordinates assigned)
COc1ccccc1S(=O)(=O)Nc1cc2c(cc1[O-])CCCC2 (nonaromatic ring conformer: 45.30539605077169 kcal/mol)

>  <smiles>  (24) 
COc1ccccc1S(=O)(=O)Nc1cc2c(cc1O)CCCC2

>  <score_type>  (24) 
oracle

>  <origin>  (24) 
adgpu

>  <m_score__min__energy>  (24) 
-12.15

>  <m_primary>  (24) 
energy

$$$$
24:0
     RDKit          3D

 41 43  0  0  0  0  0  0  0  0999 V2000
   -6.8260   16.0390  -33.8410 C   0  0  0  0  0  0  0  0  0  0  0  0
   -6.4030   17.4700  -33.8690 C   0  0  0  0  0  0  0  0  0  0  0  0
   -6.3760   18.3250  -32.7890 C   0  0  0  0  0  0  0  0  0  0  0  0
   -5.8480   19.4920  -33.3130 C   0  0  0  0  0  0  0  0  0  0  0  0
   -5.5940   20.7660  -32.6030 C   0  0  0  0  0  0  0  0  0  0  0  0
   -6.5990   21.3240  -31.7950 C   0  0  0  0  0  0  0  0  0  0  0  0
   -6.3780   22.5250  -31.1140 C   0  0  0  0  0  0  0  0  0  0  0  0
   -5.1480   23.1830  -31.2280 C   0  0  0  0  0  0  0  0  0  0  0  0
   -4.8610   24.6930  -30.3680 S   0  0  0  0  0  0  0  0  0  0  0  0
   -5.5770   24.6790  -29.0460 O   0  0  0  0  0  0  0  0  0  0  0  0
   -5.3780   25.8350  -31.1950 O   0  0  0  0  0  0  0  0  0  0  0  0
   -3.1540   24.9060  -30.1010 N   0  0  0  0  0  0  0  0  0  0  0  0
   -2.7840   24.5690  -28.7200 C   0  0  0  0  0  0  0  0  0  0  0  0
   -3.0910   23.0840  -28.4680 C   0  0  0  0  0  0  0  0  0  0  0  0
   -2.2550   22.1480  -29.3650 C   0  0  0  0  0  0  0  0  0  0  0  0
   -0.8600   22.7090  -29.7070 C   0  0  0  0  0  0  0  0  0  0  0  0
   -0.3530   23.6700  -28.6290 C   0  0  0  0  0  0  0  0  0  0  0  0
   -1.2870   24.8880  -28.4730 C   0  0  0  0  0  0  0  0  0  0  0  0
   -4.1440   22.6370  -32.0350 C   0  0  0  0  0  0  0  0  0  0  0  0
   -4.3620   21.4360  -32.7170 C   0  0  0  0  0  0  0  0  0  0  0  0
   -5.5900   19.2960  -34.5870 O   0  0  0  0  0  0  0  0  0  0  0  0
   -5.9050   18.0870  -34.9550 N   0  0  0  0  0  0  0  0  0  0  0  0
   -6.9244   15.7061  -32.7972 H   0  0  0  0  0  0  0  0  0  0  0  0
   -7.7940   15.9327  -34.3526 H   0  0  0  0  0  0  0  0  0  0  0  0
   -6.0714   15.4235  -34.3526 H   0  0  0  0  0  0  0  0  0  0  0  0
   -6.6976   18.1271  -31.7559 H   0  0  0  0  0  0  0  0  0  0  0  0
   -7.5676   20.8118  -31.6974 H   0  0  0  0  0  0  0  0  0  0  0  0
   -7.1733   22.9540  -30.4867 H   0  0  0  0  0  0  0  0  0  0  0  0
   -3.3713   25.1757  -28.0150 H   0  0  0  0  0  0  0  0  0  0  0  0
   -2.8721   22.8521  -27.4152 H   0  0  0  0  0  0  0  0  0  0  0  0
   -4.1517   22.9166  -28.7066 H   0  0  0  0  0  0  0  0  0  0  0  0
   -2.1261   21.1886  -28.8426 H   0  0  0  0  0  0  0  0  0  0  0  0
   -2.8005   22.0362  -30.3136 H   0  0  0  0  0  0  0  0  0  0  0  0
   -0.1524   21.8718  -29.7988 H   0  0  0  0  0  0  0  0  0  0  0  0
   -0.9383   23.2664  -30.6521 H   0  0  0  0  0  0  0  0  0  0  0  0
   -0.3000   23.1349  -27.6694 H   0  0  0  0  0  0  0  0  0  0  0  0
    0.6407   24.0333  -28.9301 H   0  0  0  0  0  0  0  0  0  0  0  0
   -1.1803   25.2772  -27.4497 H   0  0  0  0  0  0  0  0  0  0  0  0
   -0.9867   25.6199  -29.2373 H   0  0  0  0  0  0  0  0  0  0  0  0
   -3.1786   23.1550  -32.1334 H   0  0  0  0  0  0  0  0  0  0  0  0
   -3.5655   21.0124  -33.3465 H   0  0  0  0  0  0  0  0  0  0  0  0
  1  2  1  0
  2  3  1  0
  3  4  2  0
  4  5  1  0
  5  6  2  0
  6  7  1  0
  7  8  2  0
  8  9  1  0
  9 10  2  0
  9 11  2  0
  9 12  1  0
 12 13  1  0
 13 14  1  0
 14 15  1  0
 15 16  1  0
 16 17  1  0
 17 18  1  0
  8 19  1  0
 19 20  2  0
  4 21  1  0
 21 22  1  0
 22  2  2  0
 20  5  1  0
 18 13  1  0
  1 23  1  0
  1 24  1  0
  1 25  1  0
  3 26  1  0
  6 27  1  0
  7 28  1  0
 13 29  1  0
 14 30  1  0
 14 31  1  0
 15 32  1  0
 15 33  1  0
 16 34  1  0
 16 35  1  0
 17 36  1  0
 17 37  1  0
 18 38  1  0
 18 39  1  0
 19 40  1  0
 20 41  1  0
M  CHG  1  12  -1
M  END
>  <UniqueID>  (25) 
24

>  <SMILES>  (25) 
Cc1cc(-c2ccc(S(=O)(=O)[N-]C3CCCCC3)cc2)on1

>  <Energy>  (25) 
73.28731869979997

>  <Genealogy>  (25) 
Cc1cc(-c2ccc(S(=O)(=O)[N-]C3CCCCC3)cc2)on1 (protonated)
Cc1cc(-c2ccc(S(=O)(=O)[N-]C3CCCCC3)cc2)on1 (3D coordinates assigned)
Cc1cc(-c2ccc(S(=O)(=O)[N-]C3CCCCC3)cc2)on1 (nonaromatic ring conformer: 73.28731869979997 kcal/mol)

>  <smiles>  (25) 
Cc1cc(-c2ccc(S(=O)(=O)NC3CCCCC3)cc2)on1

>  <score_type>  (25) 
oracle

>  <origin>  (25) 
adgpu

>  <m_score__min__energy>  (25) 
-9.8300000000000001

>  <m_primary>  (25) 
energy

$$$$
25:0
     RDKit          3D

 60 64  0  0  0  0  0  0  0  0999 V2000
   -7.1700   20.6490  -32.2930 C   0  0  0  0  0  0  0  0  0  0  0  0
   -6.6810   21.9720  -31.7690 C   0  0  0  0  0  0  0  0  0  0  0  0
   -7.6490   22.9370  -31.3720 C   0  0  0  0  0  0  0  0  0  0  0  0
   -7.2620   24.1920  -30.8760 C   0  0  0  0  0  0  0  0  0  0  0  0
   -5.9030   24.4550  -30.7840 C   0  0  0  0  0  0  0  0  0  0  0  0
   -5.2070   25.5630  -30.3630 C   0  0  0  0  0  0  0  0  0  0  0  0
   -3.8850   25.3000  -30.4880 N   0  0  0  0  0  0  0  0  0  0  0  0
   -3.7290   24.0690  -30.9700 N   0  0  0  0  0  0  0  0  0  0  0  0
   -4.9560   23.5450  -31.1520 C   0  0  0  0  0  0  0  0  0  0  0  0
   -5.2900   22.2780  -31.6460 C   0  0  0  0  0  0  0  0  0  0  0  0
   -3.9760   21.1940  -32.1470 S   0  0  0  0  0  0  0  0  0  0  0  0
   -4.2550   19.8180  -31.6130 O   0  0  0  0  0  0  0  0  0  0  0  0
   -3.8430   21.0890  -33.6400 O   0  0  0  0  0  0  0  0  0  0  0  0
   -2.4950   21.7720  -31.4580 N   0  0  0  0  0  0  0  0  0  0  0  0
   -1.5510   20.8720  -30.8670 C   0  0  0  0  0  0  0  0  0  0  0  0
   -0.5130   20.3190  -31.6320 C   0  0  0  0  0  0  0  0  0  0  0  0
    0.4060   19.4500  -31.0420 C   0  0  0  0  0  0  0  0  0  0  0  0
    0.2920   19.1170  -29.6900 C   0  0  0  0  0  0  0  0  0  0  0  0
   -0.7590   19.6420  -28.9150 C   0  0  0  0  0  0  0  0  0  0  0  0
   -0.8820   19.3040  -27.4780 C   0  0  0  0  0  0  0  0  0  0  0  0
   -0.4100   18.2140  -27.0560 O   0  0  0  0  0  0  0  0  0  0  0  0
   -1.5740   20.1570  -26.5540 N   0  0  0  0  0  0  0  0  0  0  0  0
   -1.0930   21.4090  -26.0410 C   0  0  0  0  0  0  0  0  0  0  0  0
   -0.8760   21.6070  -24.6650 C   0  0  0  0  0  0  0  0  0  0  0  0
   -0.4200   22.8440  -24.1980 C   0  0  0  0  0  0  0  0  0  0  0  0
   -0.1930   23.8920  -25.0920 C   0  0  0  0  0  0  0  0  0  0  0  0
   -0.4360   23.7140  -26.4620 C   0  0  0  0  0  0  0  0  0  0  0  0
   -0.1810   25.0480  -27.5900 S   0  0  0  0  0  0  0  0  0  0  0  0
    1.2530   25.4920  -27.5140 O   0  0  0  0  0  0  0  0  0  0  0  0
   -0.4420   24.5660  -28.9900 O   0  0  0  0  0  0  0  0  0  0  0  0
   -1.2270   26.4130  -27.2430 N   0  0  0  0  0  0  0  0  0  0  0  0
   -2.1660   26.1020  -26.1600 C   0  0  0  0  0  0  0  0  0  0  0  0
   -1.6110   26.6730  -24.8640 C   0  0  0  0  0  0  0  0  0  0  0  0
   -0.4730   27.5910  -25.2670 C   0  0  0  0  0  0  0  0  0  0  0  0
   -0.4490   27.5700  -26.7880 C   0  0  0  0  0  0  0  0  0  0  0  0
   -0.8880   22.4710  -26.9310 C   0  0  0  0  0  0  0  0  0  0  0  0
   -1.6760   20.5220  -29.5140 C   0  0  0  0  0  0  0  0  0  0  0  0
   -7.4144   19.9878  -31.4485 H   0  0  0  0  0  0  0  0  0  0  0  0
   -8.0690   20.8074  -32.9068 H   0  0  0  0  0  0  0  0  0  0  0  0
   -6.3841   20.1846  -32.9068 H   0  0  0  0  0  0  0  0  0  0  0  0
   -8.7189   22.6952  -31.4553 H   0  0  0  0  0  0  0  0  0  0  0  0
   -8.0092   24.9396  -30.5714 H   0  0  0  0  0  0  0  0  0  0  0  0
   -5.6472   26.4995  -29.9898 H   0  0  0  0  0  0  0  0  0  0  0  0
   -2.1520   22.7020  -31.7910 H   0  0  0  0  0  0  0  0  0  0  0  0
   -0.4233   20.5709  -32.6990 H   0  0  0  0  0  0  0  0  0  0  0  0
    1.2232   19.0257  -31.6438 H   0  0  0  0  0  0  0  0  0  0  0  0
    1.0273   18.4412  -29.2289 H   0  0  0  0  0  0  0  0  0  0  0  0
   -1.0652   20.7879  -23.9556 H   0  0  0  0  0  0  0  0  0  0  0  0
   -0.2397   22.9916  -23.1230 H   0  0  0  0  0  0  0  0  0  0  0  0
    0.1772   24.8593  -24.7213 H   0  0  0  0  0  0  0  0  0  0  0  0
   -3.1451   26.5544  -26.3760 H   0  0  0  0  0  0  0  0  0  0  0  0
   -2.2914   25.0129  -26.0698 H   0  0  0  0  0  0  0  0  0  0  0  0
   -2.3891   27.2395  -24.3315 H   0  0  0  0  0  0  0  0  0  0  0  0
   -1.2671   25.8771  -24.1870 H   0  0  0  0  0  0  0  0  0  0  0  0
   -0.6549   28.6119  -24.9000 H   0  0  0  0  0  0  0  0  0  0  0  0
    0.4859   27.2618  -24.8404 H   0  0  0  0  0  0  0  0  0  0  0  0
   -0.8948   28.4960  -27.1802 H   0  0  0  0  0  0  0  0  0  0  0  0
    0.5870   27.4974  -27.1505 H   0  0  0  0  0  0  0  0  0  0  0  0
   -1.0826   22.3298  -28.0044 H   0  0  0  0  0  0  0  0  0  0  0  0
   -2.4995   20.9404  -28.9167 H   0  0  0  0  0  0  0  0  0  0  0  0
  1  2  1  0
  2  3  1  0
  3  4  2  0
  4  5  1  0
  5  6  2  0
  6  7  1  0
  7  8  1  0
  8  9  2  0
  9 10  1  0
 10 11  1  0
 11 12  2  0
 11 13  2  0
 11 14  1  0
 14 15  1  0
 15 16  2  0
 16 17  1  0
 17 18  2  0
 18 19  1  0
 19 20  1  0
 20 21  2  0
 20 22  1  0
 22 23  1  0
 23 24  2  0
 24 25  1  0
 25 26  2  0
 26 27  1  0
 27 28  1  0
 28 29  2  0
 28 30  2  0
 28 31  1  0
 31 32  1  0
 32 33  1  0
 33 34  1  0
 34 35  1  0
 27 36  2  0
 19 37  2  0
 10  2  2  0
 37 15  1  0
  9  5  1  0
 36 23  1  0
 35 31  1  0
  1 38  1  0
  1 39  1  0
  1 40  1  0
  3 41  1  0
  4 42  1  0
  6 43  1  0
 14 44  1  0
 16 45  1  0
 17 46  1  0
 18 47  1  0
 24 48  1  0
 25 49  1  0
 26 50  1  0
 32 51  1  0
 32 52  1  0
 33 53  1  0
 33 54  1  0
 34 55  1  0
 34 56  1  0
 35 57  1  0
 35 58  1  0
 36 59  1  0
 37 60  1  0
M  CHG  2   7  -1  22  -1
M  END
>  <UniqueID>  (26) 
25

>  <SMILES>  (26) 
Cc1ccc2c[n-]nc2c1S(=O)(=O)Nc1cccc(C(=O)[N-]c2cccc(S(=O)(=O)N3CCCC3)c2)c1

>  <Energy>  (26) 
117.31402654593721

>  <Genealogy>  (26) 
Cc1ccc2c[n-]nc2c1S(=O)(=O)Nc1cccc(C(=O)[N-]c2cccc(S(=O)(=O)N3CCCC3)c2)c1 (protonated)
Cc1ccc2c[n-]nc2c1S(=O)(=O)Nc1cccc(C(=O)[N-]c2cccc(S(=O)(=O)N3CCCC3)c2)c1 (3D coordinates assigned)
Cc1ccc2c[n-]nc2c1S(=O)(=O)Nc1cccc(C(=O)[N-]c2cccc(S(=O)(=O)N3CCCC3)c2)c1 (nonaromatic ring conformer: 117.31402654593721 kcal/mol)

>  <smiles>  (26) 
Cc1ccc2c[nH]nc2c1S(=O)(=O)Nc1cccc(C(=O)Nc2cccc(S(=O)(=O)N3CCCC3)c2)c1

>  <score_type>  (26) 
oracle

>  <origin>  (26) 
adgpu

>  <m_score__min__energy>  (26) 
-15.42

>  <m_primary>  (26) 
energy

$$$$
26:0
     RDKit          3D

 47 49  0  0  0  0  0  0  0  0999 V2000
   -3.6380   20.7800  -30.7510 C   0  0  0  0  0  0  0  0  0  0  0  0
   -2.7040   22.1690  -31.4800 S   0  0  0  0  0  0  0  0  0  0  0  0
   -2.2880   22.8900  -29.8820 C   0  0  0  0  0  0  0  0  0  0  0  0
   -1.5150   22.1530  -28.9800 C   0  0  0  0  0  0  0  0  0  0  0  0
   -1.1990   22.6830  -27.7260 C   0  0  0  0  0  0  0  0  0  0  0  0
   -1.6650   23.9450  -27.3660 C   0  0  0  0  0  0  0  0  0  0  0  0
   -2.4230   24.6940  -28.2690 C   0  0  0  0  0  0  0  0  0  0  0  0
   -2.7220   24.1820  -29.5410 C   0  0  0  0  0  0  0  0  0  0  0  0
   -3.5300   24.9250  -30.4600 N   0  0  0  0  0  0  0  0  0  0  0  0
   -5.2590   25.0150  -30.3600 S   0  0  0  0  0  0  0  0  0  0  0  0
   -5.6550   25.2860  -28.9340 O   0  0  0  0  0  0  0  0  0  0  0  0
   -5.7320   26.1640  -31.2050 O   0  0  0  0  0  0  0  0  0  0  0  0
   -6.0250   23.5390  -30.9370 C   0  0  0  0  0  0  0  0  0  0  0  0
   -6.8580   22.7960  -30.0920 C   0  0  0  0  0  0  0  0  0  0  0  0
   -7.4500   21.6140  -30.5450 C   0  0  0  0  0  0  0  0  0  0  0  0
   -7.2240   21.1700  -31.8530 C   0  0  0  0  0  0  0  0  0  0  0  0
   -7.9870   19.6830  -32.4240 S   0  0  0  0  0  0  0  0  0  0  0  0
   -8.3270   18.8130  -31.2450 O   0  0  0  0  0  0  0  0  0  0  0  0
   -9.2690   20.0320  -33.1310 O   0  0  0  0  0  0  0  0  0  0  0  0
   -6.9460   18.7970  -33.5160 N   0  0  0  0  0  0  0  0  0  0  0  0
   -5.5320   19.1190  -33.2670 C   0  0  0  0  0  0  0  0  0  0  0  0
   -4.6210   18.3410  -34.2450 C   0  0  0  0  0  0  0  0  0  0  0  0
   -5.3300   17.3620  -34.9880 O   0  0  0  0  0  0  0  0  0  0  0  0
   -6.0730   16.5380  -34.1110 C   0  0  0  0  0  0  0  0  0  0  0  0
   -7.1780   17.3440  -33.3930 C   0  0  0  0  0  0  0  0  0  0  0  0
   -6.3890   21.9120  -32.7000 C   0  0  0  0  0  0  0  0  0  0  0  0
   -5.7900   23.0910  -32.2420 C   0  0  0  0  0  0  0  0  0  0  0  0
   -3.5945   20.8447  -29.6538 H   0  0  0  0  0  0  0  0  0  0  0  0
   -4.6864   20.8304  -31.0800 H   0  0  0  0  0  0  0  0  0  0  0  0
   -3.1958   19.8280  -31.0800 H   0  0  0  0  0  0  0  0  0  0  0  0
   -1.1540   21.1519  -29.2584 H   0  0  0  0  0  0  0  0  0  0  0  0
   -0.5822   22.1034  -27.0234 H   0  0  0  0  0  0  0  0  0  0  0  0
   -1.4360   24.3521  -26.3701 H   0  0  0  0  0  0  0  0  0  0  0  0
   -2.7878   25.6911  -27.9814 H   0  0  0  0  0  0  0  0  0  0  0  0
   -7.0475   23.1445  -29.0660 H   0  0  0  0  0  0  0  0  0  0  0  0
   -8.0955   21.0309  -29.8717 H   0  0  0  0  0  0  0  0  0  0  0  0
   -7.1950   19.0970  -34.4890 H   0  0  0  0  0  0  0  0  0  0  0  0
   -5.3761   20.1988  -33.4077 H   0  0  0  0  0  0  0  0  0  0  0  0
   -5.2769   18.8311  -32.2365 H   0  0  0  0  0  0  0  0  0  0  0  0
   -4.1663   19.0554  -34.9471 H   0  0  0  0  0  0  0  0  0  0  0  0
   -3.8590   17.8191  -33.6475 H   0  0  0  0  0  0  0  0  0  0  0  0
   -6.5386   15.7261  -34.6890 H   0  0  0  0  0  0  0  0  0  0  0  0
   -5.3894   16.1296  -33.3521 H   0  0  0  0  0  0  0  0  0  0  0  0
   -8.1513   17.0970  -33.8421 H   0  0  0  0  0  0  0  0  0  0  0  0
   -7.1642   17.0787  -32.3256 H   0  0  0  0  0  0  0  0  0  0  0  0
   -6.2040   21.5665  -33.7278 H   0  0  0  0  0  0  0  0  0  0  0  0
   -5.1326   23.6673  -32.9096 H   0  0  0  0  0  0  0  0  0  0  0  0
  1  2  1  0
  2  3  1  0
  3  4  2  0
  4  5  1  0
  5  6  2  0
  6  7  1  0
  7  8  2  0
  8  9  1  0
  9 10  1  0
 10 11  2  0
 10 12  2  0
 10 13  1  0
 13 14  2  0
 14 15  1  0
 15 16  2  0
 16 17  1  0
 17 18  2  0
 17 19  2  0
 17 20  1  0
 20 21  1  0
 21 22  1  0
 22 23  1  0
 23 24  1  0
 24 25  1  0
 16 26  1  0
 26 27  2  0
  8  3  1  0
 27 13  1  0
 25 20  1  0
  1 28  1  0
  1 29  1  0
  1 30  1  0
  4 31  1  0
  5 32  1  0
  6 33  1  0
  7 34  1  0
 14 35  1  0
 15 36  1  0
 20 37  1  0
 21 38  1  0
 21 39  1  0
 22 40  1  0
 22 41  1  0
 24 42  1  0
 24 43  1  0
 25 44  1  0
 25 45  1  0
 26 46  1  0
 27 47  1  0
M  CHG  2   9  -1  20   1
M  END
>  <UniqueID>  (27) 
26

>  <SMILES>  (27) 
CSc1ccccc1[N-]S(=O)(=O)c1ccc(S(=O)(=O)[NH+]2CCOCC2)cc1

>  <Energy>  (27) 
59.68856928758182

>  <Genealogy>  (27) 
CSc1ccccc1[N-]S(=O)(=O)c1ccc(S(=O)(=O)[NH+]2CCOCC2)cc1 (protonated)
CSc1ccccc1[N-]S(=O)(=O)c1ccc(S(=O)(=O)[NH+]2CCOCC2)cc1 (3D coordinates assigned)
CSc1ccccc1[N-]S(=O)(=O)c1ccc(S(=O)(=O)[NH+]2CCOCC2)cc1 (nonaromatic ring conformer: 59.68856928758182 kcal/mol)

>  <smiles>  (27) 
CSc1ccccc1NS(=O)(=O)c1ccc(S(=O)(=O)N2CCOCC2)cc1

>  <score_type>  (27) 
oracle

>  <origin>  (27) 
adgpu

>  <m_score__min__energy>  (27) 
-10.869999999999999

>  <m_primary>  (27) 
energy

$$$$
27:0
     RDKit          3D

 51 54  0  0  0  0  0  0  0  0999 V2000
   -4.3580   25.6430  -30.5470 O   0  0  0  0  0  0  0  0  0  0  0  0
   -3.7790   24.5250  -30.5030 C   0  0  0  0  0  0  0  0  0  0  0  0
   -4.2150   23.4490  -31.3430 N   0  0  0  0  0  0  0  0  0  0  0  0
   -5.5490   22.9300  -31.4410 C   0  0  0  0  0  0  0  0  0  0  0  0
   -6.6720   23.7740  -31.5290 C   0  0  0  0  0  0  0  0  0  0  0  0
   -7.9520   23.2290  -31.6620 C   0  0  0  0  0  0  0  0  0  0  0  0
   -8.1230   21.8430  -31.7200 C   0  0  0  0  0  0  0  0  0  0  0  0
   -7.0120   20.9940  -31.6490 C   0  0  0  0  0  0  0  0  0  0  0  0
   -7.2390   19.2500  -31.7550 S   0  0  0  0  0  0  0  0  0  0  0  0
   -6.1740   18.5430  -30.9610 O   0  0  0  0  0  0  0  0  0  0  0  0
   -8.5800   18.9090  -31.1680 O   0  0  0  0  0  0  0  0  0  0  0  0
   -7.1820   18.7500  -33.4330 N   0  0  0  0  0  0  0  0  0  0  0  0
   -6.1070   19.4500  -34.1440 C   0  0  0  0  0  0  0  0  0  0  0  0
   -4.8630   18.5730  -34.1100 C   0  0  0  0  0  0  0  0  0  0  0  0
   -5.3440   17.1980  -33.6860 C   0  0  0  0  0  0  0  0  0  0  0  0
   -6.8510   17.3250  -33.5320 C   0  0  0  0  0  0  0  0  0  0  0  0
   -5.7260   21.5420  -31.5220 C   0  0  0  0  0  0  0  0  0  0  0  0
   -2.6510   24.3020  -29.5820 C   0  0  0  0  0  0  0  0  0  0  0  0
   -1.9970   25.3130  -28.9830 N   0  0  0  0  0  0  0  0  0  0  0  0
   -1.1030   24.7020  -28.1780 C   0  0  0  0  0  0  0  0  0  0  0  0
   -1.1540   23.3570  -28.2380 N   0  0  0  0  0  0  0  0  0  0  0  0
   -2.1350   23.0990  -29.1230 C   0  0  0  0  0  0  0  0  0  0  0  0
   -2.4770   21.7310  -29.5660 C   0  0  0  0  0  0  0  0  0  0  0  0
   -3.1930   21.0100  -28.8200 O   0  0  0  0  0  0  0  0  0  0  0  0
   -2.0560   21.2270  -30.8510 N   0  0  0  0  0  0  0  0  0  0  0  0
   -0.9370   21.8400  -31.5760 C   0  0  0  0  0  0  0  0  0  0  0  0
   -0.2360   20.7910  -32.4450 C   0  0  0  0  0  0  0  0  0  0  0  0
   -1.1680   20.1090  -33.2600 O   0  0  0  0  0  0  0  0  0  0  0  0
   -2.0470   19.3560  -32.4460 C   0  0  0  0  0  0  0  0  0  0  0  0
   -2.9090   20.2780  -31.5790 C   0  0  0  0  0  0  0  0  0  0  0  0
   -6.5418   24.8657  -31.4930 H   0  0  0  0  0  0  0  0  0  0  0  0
   -8.8273   23.8926  -31.7212 H   0  0  0  0  0  0  0  0  0  0  0  0
   -9.1326   21.4184  -31.8216 H   0  0  0  0  0  0  0  0  0  0  0  0
   -6.4066   19.6307  -35.1869 H   0  0  0  0  0  0  0  0  0  0  0  0
   -5.9020   20.4182  -33.6638 H   0  0  0  0  0  0  0  0  0  0  0  0
   -4.3985   18.5269  -35.1060 H   0  0  0  0  0  0  0  0  0  0  0  0
   -4.1044   18.9696  -33.4191 H   0  0  0  0  0  0  0  0  0  0  0  0
   -5.0977   16.4506  -34.4546 H   0  0  0  0  0  0  0  0  0  0  0  0
   -4.8646   16.8676  -32.7527 H   0  0  0  0  0  0  0  0  0  0  0  0
   -7.3532   16.8858  -34.4066 H   0  0  0  0  0  0  0  0  0  0  0  0
   -7.1874   16.7928  -32.6300 H   0  0  0  0  0  0  0  0  0  0  0  0
   -4.8505   20.8771  -31.4858 H   0  0  0  0  0  0  0  0  0  0  0  0
   -0.3994   25.2499  -27.5340 H   0  0  0  0  0  0  0  0  0  0  0  0
   -1.3181   22.6483  -32.2175 H   0  0  0  0  0  0  0  0  0  0  0  0
   -0.2170   22.2464  -30.8505 H   0  0  0  0  0  0  0  0  0  0  0  0
    0.5053   21.2908  -33.0858 H   0  0  0  0  0  0  0  0  0  0  0  0
    0.2568   20.0606  -31.7865 H   0  0  0  0  0  0  0  0  0  0  0  0
   -2.7018   18.7486  -33.0881 H   0  0  0  0  0  0  0  0  0  0  0  0
   -1.4498   18.7088  -31.7868 H   0  0  0  0  0  0  0  0  0  0  0  0
   -3.6068   20.8347  -32.2218 H   0  0  0  0  0  0  0  0  0  0  0  0
   -3.4717   19.6702  -30.8552 H   0  0  0  0  0  0  0  0  0  0  0  0
  1  2  2  0
  2  3  1  0
  3  4  1  0
  4  5  2  0
  5  6  1  0
  6  7  2  0
  7  8  1  0
  8  9  1  0
  9 10  2  0
  9 11  2  0
  9 12  1  0
 12 13  1  0
 13 14  1  0
 14 15  1  0
 15 16  1  0
  8 17  2  0
  2 18  1  0
 18 19  1  0
 19 20  1  0
 20 21  2  0
 21 22  1  0
 22 23  1  0
 23 24  2  0
 23 25  1  0
 25 26  1  0
 26 27  1  0
 27 28  1  0
 28 29  1  0
 29 30  1  0
 17  4  1  0
 22 18  2  0
 30 25  1  0
 16 12  1  0
  5 31  1  0
  6 32  1  0
  7 33  1  0
 13 34  1  0
 13 35  1  0
 14 36  1  0
 14 37  1  0
 15 38  1  0
 15 39  1  0
 16 40  1  0
 16 41  1  0
 17 42  1  0
 20 43  1  0
 26 44  1  0
 26 45  1  0
 27 46  1  0
 27 47  1  0
 29 48  1  0
 29 49  1  0
 30 50  1  0
 30 51  1  0
M  CHG  2   3  -1  19  -1
M  END
>  <UniqueID>  (28) 
27

>  <SMILES>  (28) 
O=C([N-]c1cccc(S(=O)(=O)N2CCCC2)c1)c1[n-]cnc1C(=O)N1CCOCC1

>  <Energy>  (28) 
92.08822331549328

>  <Genealogy>  (28) 
O=C([N-]c1cccc(S(=O)(=O)N2CCCC2)c1)c1[n-]cnc1C(=O)N1CCOCC1 (protonated)
O=C([N-]c1cccc(S(=O)(=O)N2CCCC2)c1)c1[n-]cnc1C(=O)N1CCOCC1 (3D coordinates assigned)
O=C([N-]c1cccc(S(=O)(=O)N2CCCC2)c1)c1[n-]cnc1C(=O)N1CCOCC1 (nonaromatic ring conformer: 92.08822331549328 kcal/mol)

>  <smiles>  (28) 
O=C(Nc1cccc(S(=O)(=O)N2CCCC2)c1)c1[nH]cnc1C(=O)N1CCOCC1

>  <score_type>  (28) 
oracle

>  <origin>  (28) 
adgpu

>  <m_score__min__energy>  (28) 
-11.539999999999999

>  <m_primary>  (28) 
energy

$$$$
28:0
     RDKit          3D

 56 59  0  0  0  0  0  0  0  0999 V2000
   -3.1190   21.1520  -29.9800 O   0  0  0  0  0  0  0  0  0  0  0  0
   -3.1750   22.3670  -29.6380 C   0  0  0  0  0  0  0  0  0  0  0  0
   -4.3110   23.1740  -30.1380 C   0  0  0  0  0  0  0  0  0  0  0  0
   -5.5040   22.5170  -30.4800 C   0  0  0  0  0  0  0  0  0  0  0  0
   -6.5810   23.2310  -31.0170 C   0  0  0  0  0  0  0  0  0  0  0  0
   -8.0570   22.3890  -31.4900 S   0  0  0  0  0  0  0  0  0  0  0  0
   -8.9970   23.3860  -32.1070 O   0  0  0  0  0  0  0  0  0  0  0  0
   -8.7210   21.8440  -30.2560 O   0  0  0  0  0  0  0  0  0  0  0  0
   -7.7900   21.0890  -32.6370 N   0  0  0  0  0  0  0  0  0  0  0  0
   -6.4070   20.5700  -32.6500 C   0  0  0  0  0  0  0  0  0  0  0  0
   -6.1690   19.4380  -31.6370 C   0  0  0  0  0  0  0  0  0  0  0  0
   -7.2230   18.3450  -31.7750 C   0  0  0  0  0  0  0  0  0  0  0  0
   -8.6180   18.9400  -31.6280 C   0  0  0  0  0  0  0  0  0  0  0  0
   -8.8450   20.0550  -32.6540 C   0  0  0  0  0  0  0  0  0  0  0  0
   -6.4890   24.6230  -31.1520 C   0  0  0  0  0  0  0  0  0  0  0  0
   -5.3170   25.2890  -30.7860 C   0  0  0  0  0  0  0  0  0  0  0  0
   -4.2270   24.5720  -30.2830 C   0  0  0  0  0  0  0  0  0  0  0  0
   -3.0750   25.2590  -29.9230 O   0  0  0  0  0  0  0  0  0  0  0  0
   -2.0970   22.9210  -28.8380 N   0  0  0  0  0  0  0  0  0  0  0  0
   -0.9820   21.9440  -28.7110 C   0  0  0  0  0  0  0  0  0  0  0  0
   -0.1290   22.1480  -27.4410 C   0  0  0  0  0  0  0  0  0  0  0  0
   -0.1260   23.5610  -27.0350 N   0  0  0  0  0  0  0  0  0  0  0  0
    1.1150   24.2660  -26.8140 C   0  0  0  0  0  0  0  0  0  0  0  0
    1.6890   24.3560  -25.5310 C   0  0  0  0  0  0  0  0  0  0  0  0
    2.8780   25.0670  -25.3540 C   0  0  0  0  0  0  0  0  0  0  0  0
    3.4920   25.6810  -26.4470 C   0  0  0  0  0  0  0  0  0  0  0  0
    2.9040   25.5740  -27.7080 C   0  0  0  0  0  0  0  0  0  0  0  0
    1.7440   24.8800  -27.8590 N   0  0  0  0  0  0  0  0  0  0  0  0
   -1.4190   24.2400  -26.8620 C   0  0  0  0  0  0  0  0  0  0  0  0
   -2.5510   23.4450  -27.5300 C   0  0  0  0  0  0  0  0  0  0  0  0
   -5.5927   21.4317  -30.3244 H   0  0  0  0  0  0  0  0  0  0  0  0
   -6.1877   20.1876  -33.6578 H   0  0  0  0  0  0  0  0  0  0  0  0
   -5.7456   21.4023  -32.3676 H   0  0  0  0  0  0  0  0  0  0  0  0
   -5.1746   19.0020  -31.8131 H   0  0  0  0  0  0  0  0  0  0  0  0
   -6.2336   19.8586  -30.6226 H   0  0  0  0  0  0  0  0  0  0  0  0
   -7.1310   17.8740  -32.7648 H   0  0  0  0  0  0  0  0  0  0  0  0
   -7.0675   17.5938  -30.9866 H   0  0  0  0  0  0  0  0  0  0  0  0
   -9.3659   18.1486  -31.7841 H   0  0  0  0  0  0  0  0  0  0  0  0
   -8.7153   19.3651  -30.6181 H   0  0  0  0  0  0  0  0  0  0  0  0
   -8.8766   19.6050  -33.6573 H   0  0  0  0  0  0  0  0  0  0  0  0
   -9.7912   20.5509  -32.3919 H   0  0  0  0  0  0  0  0  0  0  0  0
   -7.3426   25.1930  -31.5475 H   0  0  0  0  0  0  0  0  0  0  0  0
   -5.2513   26.3817  -30.8939 H   0  0  0  0  0  0  0  0  0  0  0  0
   -1.7320   23.7440  -29.3780 H   0  0  0  0  0  0  0  0  0  0  0  0
   -1.4081   20.9302  -28.6855 H   0  0  0  0  0  0  0  0  0  0  0  0
   -0.3184   22.0949  -29.5752 H   0  0  0  0  0  0  0  0  0  0  0  0
   -0.5458   21.5393  -26.6251 H   0  0  0  0  0  0  0  0  0  0  0  0
    0.9049   21.8415  -27.6579 H   0  0  0  0  0  0  0  0  0  0  0  0
    1.2033   23.8688  -24.6727 H   0  0  0  0  0  0  0  0  0  0  0  0
    3.3303   25.1431  -24.3542 H   0  0  0  0  0  0  0  0  0  0  0  0
    4.4286   26.2427  -26.3158 H   0  0  0  0  0  0  0  0  0  0  0  0
    3.3781   26.0503  -28.5788 H   0  0  0  0  0  0  0  0  0  0  0  0
   -1.6333   24.3376  -25.7875 H   0  0  0  0  0  0  0  0  0  0  0  0
   -1.3605   25.2316  -27.3345 H   0  0  0  0  0  0  0  0  0  0  0  0
   -2.8386   22.6049  -26.8808 H   0  0  0  0  0  0  0  0  0  0  0  0
   -3.4148   24.1079  -27.6863 H   0  0  0  0  0  0  0  0  0  0  0  0
  1  2  2  0
  2  3  1  0
  3  4  2  0
  4  5  1  0
  5  6  1  0
  6  7  2  0
  6  8  2  0
  6  9  1  0
  9 10  1  0
 10 11  1  0
 11 12  1  0
 12 13  1  0
 13 14  1  0
  5 15  2  0
 15 16  1  0
 16 17  2  0
 17 18  1  0
  2 19  1  0
 19 20  1  0
 20 21  1  0
 21 22  1  0
 22 23  1  0
 23 24  2  0
 24 25  1  0
 25 26  2  0
 26 27  1  0
 27 28  2  0
 22 29  1  0
 29 30  1  0
 17  3  1  0
 30 19  1  0
 14  9  1  0
 28 23  1  0
  4 31  1  0
 10 32  1  0
 10 33  1  0
 11 34  1  0
 11 35  1  0
 12 36  1  0
 12 37  1  0
 13 38  1  0
 13 39  1  0
 14 40  1  0
 14 41  1  0
 15 42  1  0
 16 43  1  0
 19 44  1  0
 20 45  1  0
 20 46  1  0
 21 47  1  0
 21 48  1  0
 24 49  1  0
 25 50  1  0
 26 51  1  0
 27 52  1  0
 29 53  1  0
 29 54  1  0
 30 55  1  0
 30 56  1  0
M  CHG  2  18  -1  19   1
M  END
>  <UniqueID>  (29) 
28

>  <SMILES>  (29) 
O=C(c1cc(S(=O)(=O)N2CCCCC2)ccc1[O-])[NH+]1CCN(c2ccccn2)CC1

>  <Energy>  (29) 
78.90437703356102

>  <Genealogy>  (29) 
O=C(c1cc(S(=O)(=O)N2CCCCC2)ccc1[O-])[NH+]1CCN(c2ccccn2)CC1 (protonated)
O=C(c1cc(S(=O)(=O)N2CCCCC2)ccc1[O-])[NH+]1CCN(c2ccccn2)CC1 (3D coordinates assigned)
O=C(c1cc(S(=O)(=O)N2CCCCC2)ccc1[O-])[NH+]1CCN(c2ccccn2)CC1 (nonaromatic ring conformer: 78.90437703356102 kcal/mol)

>  <smiles>  (29) 
O=C(c1cc(S(=O)(=O)N2CCCCC2)ccc1O)N1CCN(c2ccccn2)CC1

>  <score_type>  (29) 
oracle

>  <origin>  (29) 
adgpu

>  <m_score__min__energy>  (29) 
-12.529999999999999

>  <m_primary>  (29) 
energy

$$$$
29:0
     RDKit          3D

 62 65  0  0  0  0  0  0  0  0999 V2000
   -5.2990   25.2730  -28.9510 O   0  0  0  0  0  0  0  0  0  0  0  0
   -4.7200   24.6640  -29.8890 C   0  0  0  0  0  0  0  0  0  0  0  0
   -3.3250   24.9130  -30.1180 N   0  0  0  0  0  0  0  0  0  0  0  0
   -2.2310   24.4010  -29.3410 C   0  0  0  0  0  0  0  0  0  0  0  0
   -1.7060   25.1940  -28.3150 C   0  0  0  0  0  0  0  0  0  0  0  0
   -0.6650   24.7140  -27.5150 C   0  0  0  0  0  0  0  0  0  0  0  0
   -0.1550   23.4310  -27.7250 C   0  0  0  0  0  0  0  0  0  0  0  0
   -0.6800   22.6200  -28.7420 C   0  0  0  0  0  0  0  0  0  0  0  0
   -0.0370   20.9950  -29.0040 S   0  0  0  0  0  0  0  0  0  0  0  0
    1.2130   20.8150  -28.1850 O   0  0  0  0  0  0  0  0  0  0  0  0
    0.3310   20.8360  -30.4520 O   0  0  0  0  0  0  0  0  0  0  0  0
   -1.1990   19.7660  -28.5630 N   0  0  0  0  0  0  0  0  0  0  0  0
   -2.5850   20.3010  -28.5570 C   0  0  0  0  0  0  0  0  0  0  0  0
   -3.1300   20.5370  -27.1400 C   0  0  0  0  0  0  0  0  0  0  0  0
   -3.1250   19.2320  -26.3270 C   0  0  0  0  0  0  0  0  0  0  0  0
   -1.9510   18.3070  -26.6960 C   0  0  0  0  0  0  0  0  0  0  0  0
   -0.7900   19.1000  -27.3080 C   0  0  0  0  0  0  0  0  0  0  0  0
   -1.7250   23.1040  -29.5400 C   0  0  0  0  0  0  0  0  0  0  0  0
   -5.4970   23.7240  -30.7230 C   0  0  0  0  0  0  0  0  0  0  0  0
   -4.8350   22.6240  -31.2920 C   0  0  0  0  0  0  0  0  0  0  0  0
   -5.5250   21.7160  -32.1040 C   0  0  0  0  0  0  0  0  0  0  0  0
   -4.6640   20.3840  -32.8720 S   0  0  0  0  0  0  0  0  0  0  0  0
   -3.5880   20.9520  -33.7570 O   0  0  0  0  0  0  0  0  0  0  0  0
   -3.9860   19.5690  -31.8050 O   0  0  0  0  0  0  0  0  0  0  0  0
   -5.6930   19.3330  -33.8230 N   0  0  0  0  0  0  0  0  0  0  0  0
   -6.9180   18.8900  -33.1280 C   0  0  0  0  0  0  0  0  0  0  0  0
   -6.7260   17.6030  -32.3150 C   0  0  0  0  0  0  0  0  0  0  0  0
   -6.1070   16.5070  -33.1720 C   0  0  0  0  0  0  0  0  0  0  0  0
   -4.7800   16.9860  -33.7500 C   0  0  0  0  0  0  0  0  0  0  0  0
   -4.9680   18.2770  -34.5600 C   0  0  0  0  0  0  0  0  0  0  0  0
   -6.8850   21.9150  -32.3600 C   0  0  0  0  0  0  0  0  0  0  0  0
   -7.5570   22.9990  -31.7920 C   0  0  0  0  0  0  0  0  0  0  0  0
   -6.8800   23.9010  -30.9650 C   0  0  0  0  0  0  0  0  0  0  0  0
   -7.6110   24.9360  -30.3770 O   0  0  0  0  0  0  0  0  0  0  0  0
   -2.1142   26.1998  -28.1370 H   0  0  0  0  0  0  0  0  0  0  0  0
   -0.2470   25.3477  -26.7190 H   0  0  0  0  0  0  0  0  0  0  0  0
    0.6613   23.0551  -27.0907 H   0  0  0  0  0  0  0  0  0  0  0  0
   -2.5941   21.2575  -29.1001 H   0  0  0  0  0  0  0  0  0  0  0  0
   -3.2300   19.5506  -29.0374 H   0  0  0  0  0  0  0  0  0  0  0  0
   -2.4999   21.2811  -26.6309 H   0  0  0  0  0  0  0  0  0  0  0  0
   -4.1657   20.8996  -27.2172 H   0  0  0  0  0  0  0  0  0  0  0  0
   -3.0528   19.4832  -25.2585 H   0  0  0  0  0  0  0  0  0  0  0  0
   -4.0567   18.6941  -26.5561 H   0  0  0  0  0  0  0  0  0  0  0  0
   -1.5974   17.7967  -25.7879 H   0  0  0  0  0  0  0  0  0  0  0  0
   -2.3037   17.5770  -27.4394 H   0  0  0  0  0  0  0  0  0  0  0  0
   -0.4584   19.8632  -26.5886 H   0  0  0  0  0  0  0  0  0  0  0  0
    0.0274   18.4001  -27.5360 H   0  0  0  0  0  0  0  0  0  0  0  0
   -2.1524   22.4655  -30.3272 H   0  0  0  0  0  0  0  0  0  0  0  0
   -3.7627   22.4742  -31.0976 H   0  0  0  0  0  0  0  0  0  0  0  0
   -7.2395   19.6895  -32.4443 H   0  0  0  0  0  0  0  0  0  0  0  0
   -7.6707   18.6763  -33.9012 H   0  0  0  0  0  0  0  0  0  0  0  0
   -6.0631   17.8111  -31.4622 H   0  0  0  0  0  0  0  0  0  0  0  0
   -7.7097   17.2600  -31.9618 H   0  0  0  0  0  0  0  0  0  0  0  0
   -5.9340   15.6143  -32.5531 H   0  0  0  0  0  0  0  0  0  0  0  0
   -6.7929   16.2615  -33.9962 H   0  0  0  0  0  0  0  0  0  0  0  0
   -4.0766   17.1772  -32.9262 H   0  0  0  0  0  0  0  0  0  0  0  0
   -4.3865   16.2062  -34.4187 H   0  0  0  0  0  0  0  0  0  0  0  0
   -3.9756   18.6631  -34.8357 H   0  0  0  0  0  0  0  0  0  0  0  0
   -5.5748   18.0215  -35.4412 H   0  0  0  0  0  0  0  0  0  0  0  0
   -7.4279   21.2146  -33.0117 H   0  0  0  0  0  0  0  0  0  0  0  0
   -8.6279   23.1448  -31.9967 H   0  0  0  0  0  0  0  0  0  0  0  0
   -7.3510   25.3590  -29.4970 H   0  0  0  0  0  0  0  0  0  0  0  0
  1  2  2  0
  2  3  1  0
  3  4  1  0
  4  5  2  0
  5  6  1  0
  6  7  2  0
  7  8  1  0
  8  9  1  0
  9 10  2  0
  9 11  2  0
  9 12  1  0
 12 13  1  0
 13 14  1  0
 14 15  1  0
 15 16  1  0
 16 17  1  0
  8 18  2  0
  2 19  1  0
 19 20  2  0
 20 21  1  0
 21 22  1  0
 22 23  2  0
 22 24  2  0
 22 25  1  0
 25 26  1  0
 26 27  1  0
 27 28  1  0
 28 29  1  0
 29 30  1  0
 21 31  2  0
 31 32  1  0
 32 33  2  0
 33 34  1  0
 18  4  1  0
 33 19  1  0
 17 12  1  0
 30 25  1  0
  5 35  1  0
  6 36  1  0
  7 37  1  0
 13 38  1  0
 13 39  1  0
 14 40  1  0
 14 41  1  0
 15 42  1  0
 15 43  1  0
 16 44  1  0
 16 45  1  0
 17 46  1  0
 17 47  1  0
 18 48  1  0
 20 49  1  0
 26 50  1  0
 26 51  1  0
 27 52  1  0
 27 53  1  0
 28 54  1  0
 28 55  1  0
 29 56  1  0
 29 57  1  0
 30 58  1  0
 30 59  1  0
 31 60  1  0
 32 61  1  0
 34 62  1  0
M  CHG  1   3  -1
M  END
>  <UniqueID>  (30) 
29

>  <SMILES>  (30) 
O=C([N-]c1cccc(S(=O)(=O)N2CCCCC2)c1)c1cc(S(=O)(=O)N2CCCCC2)ccc1O

>  <Energy>  (30) 
74.283769521365

>  <Genealogy>  (30) 
O=C([N-]c1cccc(S(=O)(=O)N2CCCCC2)c1)c1cc(S(=O)(=O)N2CCCCC2)ccc1O (protonated)
O=C([N-]c1cccc(S(=O)(=O)N2CCCCC2)c1)c1cc(S(=O)(=O)N2CCCCC2)ccc1O (3D coordinates assigned)
O=C([N-]c1cccc(S(=O)(=O)N2CCCCC2)c1)c1cc(S(=O)(=O)N2CCCCC2)ccc1O (nonaromatic ring conformer: 74.283769521365 kcal/mol)

>  <smiles>  (30) 
O=C(Nc1cccc(S(=O)(=O)N2CCCCC2)c1)c1cc(S(=O)(=O)N2CCCCC2)ccc1O

>  <score_type>  (30) 
oracle

>  <origin>  (30) 
adgpu

>  <m_score__min__energy>  (30) 
-12.91

>  <m_primary>  (30) 
energy

$$$$
30:0
     RDKit          3D

 42 43  0  0  0  0  0  0  0  0999 V2000
   -2.9030   18.5970  -33.0640 C   0  0  0  0  0  0  0  0  0  0  0  0
   -2.9230   20.0550  -33.2790 N   0  0  0  0  0  0  0  0  0  0  0  0
   -1.7480   20.4430  -34.0810 C   0  0  0  0  0  0  0  0  0  0  0  0
   -2.9440   20.7930  -31.9860 C   0  0  0  0  0  0  0  0  0  0  0  0
   -3.4160   22.2560  -32.1310 C   0  0  0  0  0  0  0  0  0  0  0  0
   -4.6580   22.5410  -31.3880 N   0  0  0  0  0  0  0  0  0  0  0  0
   -4.6220   22.6090  -29.9170 C   0  0  0  0  0  0  0  0  0  0  0  0
   -3.3940   23.3380  -29.4270 C   0  0  0  0  0  0  0  0  0  0  0  0
   -2.4650   22.6860  -28.6040 C   0  0  0  0  0  0  0  0  0  0  0  0
   -1.3450   23.3340  -28.1910 N   0  0  0  0  0  0  0  0  0  0  0  0
   -1.1060   24.6190  -28.5570 C   0  0  0  0  0  0  0  0  0  0  0  0
   -0.0620   25.2000  -28.1670 O   0  0  0  0  0  0  0  0  0  0  0  0
   -1.9970   25.2780  -29.3410 N   0  0  0  0  0  0  0  0  0  0  0  0
   -3.1310   24.6730  -29.7800 C   0  0  0  0  0  0  0  0  0  0  0  0
   -3.9370   25.3210  -30.4990 O   0  0  0  0  0  0  0  0  0  0  0  0
   -5.9340   22.5740  -32.0620 C   0  0  0  0  0  0  0  0  0  0  0  0
   -6.3180   23.6380  -32.6170 O   0  0  0  0  0  0  0  0  0  0  0  0
   -6.8070   21.3860  -32.1270 C   0  0  0  0  0  0  0  0  0  0  0  0
   -7.9240   21.3000  -31.2800 C   0  0  0  0  0  0  0  0  0  0  0  0
   -8.7640   20.1840  -31.3280 C   0  0  0  0  0  0  0  0  0  0  0  0
   -8.4860   19.1370  -32.2110 C   0  0  0  0  0  0  0  0  0  0  0  0
   -7.3630   19.2020  -33.0400 C   0  0  0  0  0  0  0  0  0  0  0  0
   -6.5170   20.3150  -32.9950 C   0  0  0  0  0  0  0  0  0  0  0  0
   -5.3820   20.3400  -33.7990 O   0  0  0  0  0  0  0  0  0  0  0  0
   -2.9001   18.3856  -31.9845 H   0  0  0  0  0  0  0  0  0  0  0  0
   -3.7950   18.1463  -33.5235 H   0  0  0  0  0  0  0  0  0  0  0  0
   -1.9989   18.1710  -33.5235 H   0  0  0  0  0  0  0  0  0  0  0  0
   -3.7690   20.2900  -33.8470 H   0  0  0  0  0  0  0  0  0  0  0  0
   -0.9202   20.7163  -33.4101 H   0  0  0  0  0  0  0  0  0  0  0  0
   -1.4420   19.5982  -34.7156 H   0  0  0  0  0  0  0  0  0  0  0  0
   -2.0053   21.3039  -34.7156 H   0  0  0  0  0  0  0  0  0  0  0  0
   -3.6249   20.2722  -31.2967 H   0  0  0  0  0  0  0  0  0  0  0  0
   -1.9122   20.8175  -31.6056 H   0  0  0  0  0  0  0  0  0  0  0  0
   -2.6229   22.9185  -31.7539 H   0  0  0  0  0  0  0  0  0  0  0  0
   -3.6253   22.4284  -33.1971 H   0  0  0  0  0  0  0  0  0  0  0  0
   -5.5180   23.1390  -29.5616 H   0  0  0  0  0  0  0  0  0  0  0  0
   -4.5933   21.5818  -29.5245 H   0  0  0  0  0  0  0  0  0  0  0  0
   -2.6437   21.6465  -28.2918 H   0  0  0  0  0  0  0  0  0  0  0  0
   -8.1391   22.1161  -30.5745 H   0  0  0  0  0  0  0  0  0  0  0  0
   -9.6442   20.1297  -30.6706 H   0  0  0  0  0  0  0  0  0  0  0  0
   -9.1511   18.2619  -32.2534 H   0  0  0  0  0  0  0  0  0  0  0  0
   -7.1434   18.3746  -33.7308 H   0  0  0  0  0  0  0  0  0  0  0  0
  1  2  1  0
  2  3  1  0
  2  4  1  0
  4  5  1  0
  5  6  1  0
  6  7  1  0
  7  8  1  0
  8  9  2  0
  9 10  1  0
 10 11  1  0
 11 12  2  0
 11 13  1  0
 13 14  1  0
 14 15  2  0
  6 16  1  0
 16 17  2  0
 16 18  1  0
 18 19  2  0
 19 20  1  0
 20 21  2  0
 21 22  1  0
 22 23  2  0
 23 24  1  0
 14  8  1  0
 23 18  1  0
  1 25  1  0
  1 26  1  0
  1 27  1  0
  2 28  1  0
  3 29  1  0
  3 30  1  0
  3 31  1  0
  4 32  1  0
  4 33  1  0
  5 34  1  0
  5 35  1  0
  7 36  1  0
  7 37  1  0
  9 38  1  0
 19 39  1  0
 20 40  1  0
 21 41  1  0
 22 42  1  0
M  CHG  4   2   1  10  -1  13  -1  24  -1
M  END
>  <UniqueID>  (31) 
30

>  <SMILES>  (31) 
C[NH+](C)CCN(Cc1c[n-]c(=O)[n-]c1=O)C(=O)c1ccccc1[O-]

>  <Energy>  (31) 
49.98403045957806

>  <Genealogy>  (31) 
C[NH+](C)CCN(Cc1c[n-]c(=O)[n-]c1=O)C(=O)c1ccccc1[O-] (protonated)
C[NH+](C)CCN(Cc1c[n-]c(=O)[n-]c1=O)C(=O)c1ccccc1[O-] (3D coordinates assigned)
C[NH+](C)CCN(Cc1c[n-]c(=O)[n-]c1=O)C(=O)c1ccccc1[O-] (optimized conformer: 49.98403045957806 kcal/mol)

>  <smiles>  (31) 
CN(C)CCN(Cc1c[nH]c(=O)[nH]c1=O)C(=O)c1ccccc1O

>  <score_type>  (31) 
oracle

>  <origin>  (31) 
adgpu

>  <m_score__min__energy>  (31) 
-10.109999999999999

>  <m_primary>  (31) 
energy

$$$$
31:0
     RDKit          3D

 74 77  0  0  0  0  0  0  0  0999 V2000
   -5.0380   15.8960  -32.2260 C   0  0  0  0  0  0  0  0  0  0  0  0
   -5.7450   16.9350  -31.4640 N   0  0  0  0  0  0  0  0  0  0  0  0
   -6.4930   17.9060  -32.2920 C   0  0  0  0  0  0  0  0  0  0  0  0
   -6.0070   19.3630  -32.1140 C   0  0  0  0  0  0  0  0  0  0  0  0
   -6.9670   20.3230  -32.8290 C   0  0  0  0  0  0  0  0  0  0  0  0
   -8.3710   20.2200  -32.3510 N   0  0  0  0  0  0  0  0  0  0  0  0
   -8.8840   21.6650  -31.5060 S   0  0  0  0  0  0  0  0  0  0  0  0
   -9.5140   21.2670  -30.2000 O   0  0  0  0  0  0  0  0  0  0  0  0
   -9.9180   22.4000  -32.3150 O   0  0  0  0  0  0  0  0  0  0  0  0
   -7.5150   22.7320  -31.1910 C   0  0  0  0  0  0  0  0  0  0  0  0
   -6.9080   23.4290  -32.2450 C   0  0  0  0  0  0  0  0  0  0  0  0
   -5.7480   24.1750  -32.0190 C   0  0  0  0  0  0  0  0  0  0  0  0
   -5.1800   24.2250  -30.7340 C   0  0  0  0  0  0  0  0  0  0  0  0
   -3.9500   24.9200  -30.4910 N   0  0  0  0  0  0  0  0  0  0  0  0
   -2.9540   24.5030  -29.5500 C   0  0  0  0  0  0  0  0  0  0  0  0
   -2.0310   25.3050  -29.2390 O   0  0  0  0  0  0  0  0  0  0  0  0
   -3.0210   23.2020  -28.9410 N   0  0  0  0  0  0  0  0  0  0  0  0
   -1.9150   22.6560  -28.2180 C   0  0  0  0  0  0  0  0  0  0  0  0
   -1.2500   23.4350  -27.2630 C   0  0  0  0  0  0  0  0  0  0  0  0
   -0.1860   22.8970  -26.5190 C   0  0  0  0  0  0  0  0  0  0  0  0
    0.4790   23.7120  -25.4370 C   0  0  0  0  0  0  0  0  0  0  0  0
   -0.2080   24.8950  -25.2240 F   0  0  0  0  0  0  0  0  0  0  0  0
    1.7820   24.0260  -25.7910 F   0  0  0  0  0  0  0  0  0  0  0  0
    0.4950   22.9820  -24.2610 F   0  0  0  0  0  0  0  0  0  0  0  0
    0.1720   21.5530  -26.7170 C   0  0  0  0  0  0  0  0  0  0  0  0
   -0.4880   20.7760  -27.6750 C   0  0  0  0  0  0  0  0  0  0  0  0
   -1.5270   21.3270  -28.4400 C   0  0  0  0  0  0  0  0  0  0  0  0
   -2.2240   20.5710  -29.3940 O   0  0  0  0  0  0  0  0  0  0  0  0
   -2.4090   20.9160  -30.7400 C   0  0  0  0  0  0  0  0  0  0  0  0
   -3.6570   21.3250  -31.2480 C   0  0  0  0  0  0  0  0  0  0  0  0
   -3.7980   21.6290  -32.6020 C   0  0  0  0  0  0  0  0  0  0  0  0
   -2.7020   21.5230  -33.4630 C   0  0  0  0  0  0  0  0  0  0  0  0
   -1.4530   21.1110  -32.9730 C   0  0  0  0  0  0  0  0  0  0  0  0
   -0.3040   20.9680  -33.8970 C   0  0  0  0  0  0  0  0  0  0  0  0
    0.5950   21.8530  -33.8890 O   0  0  0  0  0  0  0  0  0  0  0  0
   -0.1810   19.8460  -34.7960 N   0  0  0  0  0  0  0  0  0  0  0  0
   -0.6740   18.5200  -34.4060 C   0  0  0  0  0  0  0  0  0  0  0  0
    0.5540   20.0160  -36.0510 C   0  0  0  0  0  0  0  0  0  0  0  0
   -1.3240   20.7870  -31.6120 C   0  0  0  0  0  0  0  0  0  0  0  0
   -5.8280   23.5900  -29.6690 C   0  0  0  0  0  0  0  0  0  0  0  0
   -6.9810   22.8330  -29.8980 C   0  0  0  0  0  0  0  0  0  0  0  0
   -8.6670   19.0240  -31.5310 C   0  0  0  0  0  0  0  0  0  0  0  0
   -8.0290   17.7610  -32.1240 C   0  0  0  0  0  0  0  0  0  0  0  0
   -4.5591   15.1922  -31.5293 H   0  0  0  0  0  0  0  0  0  0  0  0
   -5.7554   15.3538  -32.8595 H   0  0  0  0  0  0  0  0  0  0  0  0
   -4.2703   16.3643  -32.8595 H   0  0  0  0  0  0  0  0  0  0  0  0
   -6.4200   16.4590  -30.8190 H   0  0  0  0  0  0  0  0  0  0  0  0
   -6.2665   17.6492  -33.3373 H   0  0  0  0  0  0  0  0  0  0  0  0
   -5.9757   19.6090  -31.0423 H   0  0  0  0  0  0  0  0  0  0  0  0
   -5.0014   19.4656  -32.5478 H   0  0  0  0  0  0  0  0  0  0  0  0
   -6.6173   21.3528  -32.6639 H   0  0  0  0  0  0  0  0  0  0  0  0
   -6.9661   20.0489  -33.8943 H   0  0  0  0  0  0  0  0  0  0  0  0
   -7.3461   23.3886  -33.2532 H   0  0  0  0  0  0  0  0  0  0  0  0
   -5.2784   24.7242  -32.8484 H   0  0  0  0  0  0  0  0  0  0  0  0
   -3.8370   22.5770  -29.1250 H   0  0  0  0  0  0  0  0  0  0  0  0
   -1.5628   24.4759  -27.0939 H   0  0  0  0  0  0  0  0  0  0  0  0
    0.9774   21.1082  -26.1141 H   0  0  0  0  0  0  0  0  0  0  0  0
   -0.1909   19.7282  -27.8292 H   0  0  0  0  0  0  0  0  0  0  0  0
   -4.5234   21.4050  -30.5750 H   0  0  0  0  0  0  0  0  0  0  0  0
   -4.7738   21.9529  -32.9930 H   0  0  0  0  0  0  0  0  0  0  0  0
   -2.8190   21.7637  -34.5300 H   0  0  0  0  0  0  0  0  0  0  0  0
   -0.7011   18.4470  -33.3088 H   0  0  0  0  0  0  0  0  0  0  0  0
   -1.6871   18.3725  -34.8084 H   0  0  0  0  0  0  0  0  0  0  0  0
   -0.0034   17.7465  -34.8084 H   0  0  0  0  0  0  0  0  0  0  0  0
    1.6040   20.2589  -35.8309 H   0  0  0  0  0  0  0  0  0  0  0  0
    0.5074   19.0834  -36.6324 H   0  0  0  0  0  0  0  0  0  0  0  0
    0.1027   20.8335  -36.6324 H   0  0  0  0  0  0  0  0  0  0  0  0
   -0.3579   20.4276  -31.2281 H   0  0  0  0  0  0  0  0  0  0  0  0
   -5.4292   23.6866  -28.6484 H   0  0  0  0  0  0  0  0  0  0  0  0
   -7.4712   22.3146  -29.0608 H   0  0  0  0  0  0  0  0  0  0  0  0
   -8.2726   19.1804  -30.5161 H   0  0  0  0  0  0  0  0  0  0  0  0
   -9.7576   18.8818  -31.5109 H   0  0  0  0  0  0  0  0  0  0  0  0
   -8.2340   16.9125  -31.4547 H   0  0  0  0  0  0  0  0  0  0  0  0
   -8.4646   17.5977  -33.1208 H   0  0  0  0  0  0  0  0  0  0  0  0
  1  2  1  0
  2  3  1  0
  3  4  1  0
  4  5  1  0
  5  6  1  0
  6  7  1  0
  7  8  2  0
  7  9  2  0
  7 10  1  0
 10 11  2  0
 11 12  1  0
 12 13  2  0
 13 14  1  0
 14 15  1  0
 15 16  2  0
 15 17  1  0
 17 18  1  0
 18 19  2  0
 19 20  1  0
 20 21  1  0
 21 22  1  0
 21 23  1  0
 21 24  1  0
 20 25  2  0
 25 26  1  0
 26 27  2  0
 27 28  1  0
 28 29  1  0
 29 30  2  0
 30 31  1  0
 31 32  2  0
 32 33  1  0
 33 34  1  0
 34 35  2  0
 34 36  1  0
 36 37  1  0
 36 38  1  0
 33 39  2  0
 13 40  1  0
 40 41  2  0
  6 42  1  0
 42 43  1  0
 43  3  1  0
 41 10  1  0
 27 18  1  0
 39 29  1  0
  1 44  1  0
  1 45  1  0
  1 46  1  0
  2 47  1  0
  3 48  1  0
  4 49  1  0
  4 50  1  0
  5 51  1  0
  5 52  1  0
 11 53  1  0
 12 54  1  0
 17 55  1  0
 19 56  1  0
 25 57  1  0
 26 58  1  0
 30 59  1  0
 31 60  1  0
 32 61  1  0
 37 62  1  0
 37 63  1  0
 37 64  1  0
 38 65  1  0
 38 66  1  0
 38 67  1  0
 39 68  1  0
 40 69  1  0
 41 70  1  0
 42 71  1  0
 42 72  1  0
 43 73  1  0
 43 74  1  0
M  CHG  1  14  -1
M  END
>  <UniqueID>  (32) 
31

>  <SMILES>  (32) 
CNC1CCN(S(=O)(=O)c2ccc([N-]C(=O)Nc3cc(C(F)(F)F)ccc3Oc3cccc(C(=O)N(C)C)c3)cc2)CC1

>  <Energy>  (32) 
104.42291509956407

>  <Genealogy>  (32) 
CNC1CCN(S(=O)(=O)c2ccc([N-]C(=O)Nc3cc(C(F)(F)F)ccc3Oc3cccc(C(=O)N(C)C)c3)cc2)CC1 (protonated)
CNC1CCN(S(=O)(=O)c2ccc([N-]C(=O)Nc3cc(C(F)(F)F)ccc3Oc3cccc(C(=O)N(C)C)c3)cc2)CC1 (3D coordinates assigned)
CNC1CCN(S(=O)(=O)c2ccc([N-]C(=O)Nc3cc(C(F)(F)F)ccc3Oc3cccc(C(=O)N(C)C)c3)cc2)CC1 (nonaromatic ring conformer: 104.42291509956407 kcal/mol)

>  <smiles>  (32) 
CNC1CCN(S(=O)(=O)c2ccc(NC(=O)Nc3cc(C(F)(F)F)ccc3Oc3cccc(C(=O)N(C)C)c3)cc2)CC1

>  <score_type>  (32) 
oracle

>  <origin>  (32) 
adgpu

>  <m_score__min__energy>  (32) 
-12.880000000000001

>  <m_primary>  (32) 
energy

$$$$
32:0
     RDKit          3D

 61 64  0  0  0  0  0  0  0  0999 V2000
    0.8480   26.2200  -24.9660 C   0  0  0  0  0  0  0  0  0  0  0  0
   -0.1820   25.4440  -25.6800 N   0  0  0  0  0  0  0  0  0  0  0  0
   -0.8210   24.4300  -24.8190 C   0  0  0  0  0  0  0  0  0  0  0  0
    0.0650   23.1900  -24.5930 C   0  0  0  0  0  0  0  0  0  0  0  0
    0.5990   22.6230  -25.8460 N   0  0  0  0  0  0  0  0  0  0  0  0
   -0.5670   21.6340  -26.7030 S   0  0  0  0  0  0  0  0  0  0  0  0
    0.1090   20.5330  -27.4710 O   0  0  0  0  0  0  0  0  0  0  0  0
   -1.5190   21.0090  -25.7220 O   0  0  0  0  0  0  0  0  0  0  0  0
   -1.4930   22.6420  -27.8110 C   0  0  0  0  0  0  0  0  0  0  0  0
   -2.5280   23.4480  -27.3180 C   0  0  0  0  0  0  0  0  0  0  0  0
   -3.2590   24.2630  -28.1860 C   0  0  0  0  0  0  0  0  0  0  0  0
   -2.9490   24.2970  -29.5570 C   0  0  0  0  0  0  0  0  0  0  0  0
   -3.6830   25.1080  -30.4860 N   0  0  0  0  0  0  0  0  0  0  0  0
   -5.0530   25.5190  -30.3720 C   0  0  0  0  0  0  0  0  0  0  0  0
   -5.3660   26.7350  -30.4670 O   0  0  0  0  0  0  0  0  0  0  0  0
   -6.0850   24.5550  -30.1410 N   0  0  0  0  0  0  0  0  0  0  0  0
   -6.2440   23.3020  -30.8210 C   0  0  0  0  0  0  0  0  0  0  0  0
   -5.1620   22.4280  -31.0300 C   0  0  0  0  0  0  0  0  0  0  0  0
   -5.3490   21.2330  -31.7300 C   0  0  0  0  0  0  0  0  0  0  0  0
   -6.6100   20.9040  -32.2480 C   0  0  0  0  0  0  0  0  0  0  0  0
   -6.8390   19.4120  -33.1650 S   0  0  0  0  0  0  0  0  0  0  0  0
   -8.2800   18.9900  -33.0730 O   0  0  0  0  0  0  0  0  0  0  0  0
   -6.5240   19.6690  -34.6120 O   0  0  0  0  0  0  0  0  0  0  0  0
   -5.8160   18.1180  -32.5730 N   0  0  0  0  0  0  0  0  0  0  0  0
   -4.5340   18.0740  -33.2950 C   0  0  0  0  0  0  0  0  0  0  0  0
   -4.4380   16.7460  -34.0330 C   0  0  0  0  0  0  0  0  0  0  0  0
   -5.8300   16.1610  -33.9760 C   0  0  0  0  0  0  0  0  0  0  0  0
   -6.4560   16.8110  -32.7590 C   0  0  0  0  0  0  0  0  0  0  0  0
   -7.6840   21.7840  -32.0510 C   0  0  0  0  0  0  0  0  0  0  0  0
   -7.4970   22.9800  -31.3540 C   0  0  0  0  0  0  0  0  0  0  0  0
   -1.9280   23.4730  -30.0480 C   0  0  0  0  0  0  0  0  0  0  0  0
   -1.1960   22.6570  -29.1800 C   0  0  0  0  0  0  0  0  0  0  0  0
    1.2250   23.6410  -26.7060 C   0  0  0  0  0  0  0  0  0  0  0  0
    0.3190   24.8610  -26.9400 C   0  0  0  0  0  0  0  0  0  0  0  0
    0.7030   26.1107  -23.8811 H   0  0  0  0  0  0  0  0  0  0  0  0
    1.8453   25.8468  -25.2420 H   0  0  0  0  0  0  0  0  0  0  0  0
    0.7644   27.2815  -25.2420 H   0  0  0  0  0  0  0  0  0  0  0  0
   -1.0408   24.8868  -23.8428 H   0  0  0  0  0  0  0  0  0  0  0  0
   -1.7356   24.0933  -25.3290 H   0  0  0  0  0  0  0  0  0  0  0  0
    0.9105   23.4765  -23.9503 H   0  0  0  0  0  0  0  0  0  0  0  0
   -0.5646   22.4181  -24.1263 H   0  0  0  0  0  0  0  0  0  0  0  0
   -2.7657   23.4390  -26.2440 H   0  0  0  0  0  0  0  0  0  0  0  0
   -4.0808   24.8809  -27.7950 H   0  0  0  0  0  0  0  0  0  0  0  0
   -4.1658   22.6858  -30.6414 H   0  0  0  0  0  0  0  0  0  0  0  0
   -4.5020   20.5464  -31.8755 H   0  0  0  0  0  0  0  0  0  0  0  0
   -4.4862   18.9032  -34.0163 H   0  0  0  0  0  0  0  0  0  0  0  0
   -3.6993   18.1708  -32.5852 H   0  0  0  0  0  0  0  0  0  0  0  0
   -4.1289   16.9058  -35.0765 H   0  0  0  0  0  0  0  0  0  0  0  0
   -3.6914   16.0767  -33.5806 H   0  0  0  0  0  0  0  0  0  0  0  0
   -6.3956   16.4103  -34.8859 H   0  0  0  0  0  0  0  0  0  0  0  0
   -5.8235   15.0629  -33.9111 H   0  0  0  0  0  0  0  0  0  0  0  0
   -7.5365   16.9421  -32.9183 H   0  0  0  0  0  0  0  0  0  0  0  0
   -6.3120   16.1812  -31.8687 H   0  0  0  0  0  0  0  0  0  0  0  0
   -8.6785   21.5312  -32.4473 H   0  0  0  0  0  0  0  0  0  0  0  0
   -8.3407   23.6736  -31.2232 H   0  0  0  0  0  0  0  0  0  0  0  0
   -1.7005   23.4679  -31.1242 H   0  0  0  0  0  0  0  0  0  0  0  0
   -0.3854   22.0256  -29.5728 H   0  0  0  0  0  0  0  0  0  0  0  0
    2.1558   23.9807  -26.2283 H   0  0  0  0  0  0  0  0  0  0  0  0
    1.4151   23.1766  -27.6849 H   0  0  0  0  0  0  0  0  0  0  0  0
    0.8933   25.6284  -27.4797 H   0  0  0  0  0  0  0  0  0  0  0  0
   -0.5518   24.5236  -27.5212 H   0  0  0  0  0  0  0  0  0  0  0  0
  1  2  1  0
  2  3  1  0
  3  4  1  0
  4  5  1  0
  5  6  1  0
  6  7  2  0
  6  8  2  0
  6  9  1  0
  9 10  2  0
 10 11  1  0
 11 12  2  0
 12 13  1  0
 13 14  1  0
 14 15  2  0
 14 16  1  0
 16 17  1  0
 17 18  2  0
 18 19  1  0
 19 20  2  0
 20 21  1  0
 21 22  2  0
 21 23  2  0
 21 24  1  0
 24 25  1  0
 25 26  1  0
 26 27  1  0
 27 28  1  0
 20 29  1  0
 29 30  2  0
 12 31  1  0
 31 32  2  0
  5 33  1  0
 33 34  1  0
 34  2  1  0
 32  9  1  0
 30 17  1  0
 28 24  1  0
  1 35  1  0
  1 36  1  0
  1 37  1  0
  3 38  1  0
  3 39  1  0
  4 40  1  0
  4 41  1  0
 10 42  1  0
 11 43  1  0
 18 44  1  0
 19 45  1  0
 25 46  1  0
 25 47  1  0
 26 48  1  0
 26 49  1  0
 27 50  1  0
 27 51  1  0
 28 52  1  0
 28 53  1  0
 29 54  1  0
 30 55  1  0
 31 56  1  0
 32 57  1  0
 33 58  1  0
 33 59  1  0
 34 60  1  0
 34 61  1  0
M  CHG  2  13  -1  16  -1
M  END
>  <UniqueID>  (33) 
32

>  <SMILES>  (33) 
CN1CCN(S(=O)(=O)c2ccc([N-]C(=O)[N-]c3ccc(S(=O)(=O)N4CCCC4)cc3)cc2)CC1

>  <Energy>  (33) 
76.73785381580426

>  <Genealogy>  (33) 
CN1CCN(S(=O)(=O)c2ccc([N-]C(=O)[N-]c3ccc(S(=O)(=O)N4CCCC4)cc3)cc2)CC1 (protonated)
CN1CCN(S(=O)(=O)c2ccc([N-]C(=O)[N-]c3ccc(S(=O)(=O)N4CCCC4)cc3)cc2)CC1 (3D coordinates assigned)
CN1CCN(S(=O)(=O)c2ccc([N-]C(=O)[N-]c3ccc(S(=O)(=O)N4CCCC4)cc3)cc2)CC1 (nonaromatic ring conformer: 76.73785381580426 kcal/mol)

>  <smiles>  (33) 
CN1CCN(S(=O)(=O)c2ccc(NC(=O)Nc3ccc(S(=O)(=O)N4CCCC4)cc3)cc2)CC1

>  <score_type>  (33) 
oracle

>  <origin>  (33) 
adgpu

>  <m_score__min__energy>  (33) 
-12.73

>  <m_primary>  (33) 
energy

$$$$
33:0
     RDKit          3D

 56 59  0  0  0  0  0  0  0  0999 V2000
   -7.9940   23.0430  -31.4760 C   0  0  0  0  0  0  0  0  0  0  0  0
   -6.7010   23.6340  -30.9930 C   0  0  0  0  0  0  0  0  0  0  0  0
   -6.6170   24.9940  -30.6910 C   0  0  0  0  0  0  0  0  0  0  0  0
   -5.4250   25.5280  -30.2160 C   0  0  0  0  0  0  0  0  0  0  0  0
   -4.3090   24.7100  -30.0180 C   0  0  0  0  0  0  0  0  0  0  0  0
   -3.1700   25.2840  -29.5610 N   0  0  0  0  0  0  0  0  0  0  0  0
   -2.0440   24.5760  -29.3350 C   0  0  0  0  0  0  0  0  0  0  0  0
   -2.0180   23.2000  -29.5620 C   0  0  0  0  0  0  0  0  0  0  0  0
   -0.5310   22.3060  -29.1730 S   0  0  0  0  0  0  0  0  0  0  0  0
    0.5830   23.2940  -28.9670 O   0  0  0  0  0  0  0  0  0  0  0  0
   -0.7060   21.5000  -27.9150 O   0  0  0  0  0  0  0  0  0  0  0  0
   -0.1440   21.1990  -30.4900 C   0  0  0  0  0  0  0  0  0  0  0  0
    0.6030   20.0400  -30.2500 C   0  0  0  0  0  0  0  0  0  0  0  0
    1.0100   19.2330  -31.3140 C   0  0  0  0  0  0  0  0  0  0  0  0
    0.6740   19.5700  -32.6360 C   0  0  0  0  0  0  0  0  0  0  0  0
    1.1580   18.6990  -33.7660 C   0  0  0  0  0  0  0  0  0  0  0  0
   -0.0980   20.7300  -32.8820 C   0  0  0  0  0  0  0  0  0  0  0  0
   -0.4640   21.1430  -34.2850 C   0  0  0  0  0  0  0  0  0  0  0  0
   -0.4970   21.5360  -31.8010 C   0  0  0  0  0  0  0  0  0  0  0  0
   -3.1710   22.5360  -30.0490 C   0  0  0  0  0  0  0  0  0  0  0  0
   -3.0420   21.2410  -30.2180 N   0  0  0  0  0  0  0  0  0  0  0  0
   -3.9110   20.1260  -30.5750 C   0  0  0  0  0  0  0  0  0  0  0  0
   -4.3410   20.2290  -32.0440 C   0  0  0  0  0  0  0  0  0  0  0  0
   -5.7500   19.7360  -32.2200 C   0  0  0  0  0  0  0  0  0  0  0  0
   -6.1240   18.4730  -31.7290 C   0  0  0  0  0  0  0  0  0  0  0  0
   -7.4270   18.0020  -31.9170 C   0  0  0  0  0  0  0  0  0  0  0  0
   -8.3620   18.7830  -32.6030 C   0  0  0  0  0  0  0  0  0  0  0  0
   -7.9930   20.0360  -33.1040 C   0  0  0  0  0  0  0  0  0  0  0  0
   -6.6910   20.5110  -32.9190 C   0  0  0  0  0  0  0  0  0  0  0  0
   -4.3630   23.3110  -30.2880 C   0  0  0  0  0  0  0  0  0  0  0  0
   -5.5870   22.8040  -30.7900 C   0  0  0  0  0  0  0  0  0  0  0  0
   -8.6132   22.7600  -30.6120 H   0  0  0  0  0  0  0  0  0  0  0  0
   -8.5314   23.7849  -32.0849 H   0  0  0  0  0  0  0  0  0  0  0  0
   -7.7847   22.1512  -32.0849 H   0  0  0  0  0  0  0  0  0  0  0  0
   -7.4942   25.6432  -30.8289 H   0  0  0  0  0  0  0  0  0  0  0  0
   -5.3593   26.6034  -29.9940 H   0  0  0  0  0  0  0  0  0  0  0  0
   -1.1410   25.0870  -28.9695 H   0  0  0  0  0  0  0  0  0  0  0  0
    0.8704   19.7640  -29.2193 H   0  0  0  0  0  0  0  0  0  0  0  0
    1.5989   18.3253  -31.1156 H   0  0  0  0  0  0  0  0  0  0  0  0
    1.6536   17.8071  -33.3551 H   0  0  0  0  0  0  0  0  0  0  0  0
    0.3018   18.3907  -34.3840 H   0  0  0  0  0  0  0  0  0  0  0  0
    1.8720   19.2632  -34.3840 H   0  0  0  0  0  0  0  0  0  0  0  0
   -1.1931   21.9657  -34.2466 H   0  0  0  0  0  0  0  0  0  0  0  0
    0.4392   21.4780  -34.8160 H   0  0  0  0  0  0  0  0  0  0  0  0
   -0.9051   20.2866  -34.8160 H   0  0  0  0  0  0  0  0  0  0  0  0
   -1.0931   22.4413  -31.9883 H   0  0  0  0  0  0  0  0  0  0  0  0
   -3.3690   19.1811  -30.4219 H   0  0  0  0  0  0  0  0  0  0  0  0
   -4.8079   20.1560  -29.9388 H   0  0  0  0  0  0  0  0  0  0  0  0
   -4.2832   21.2797  -32.3645 H   0  0  0  0  0  0  0  0  0  0  0  0
   -3.6694   19.6069  -32.6539 H   0  0  0  0  0  0  0  0  0  0  0  0
   -5.3889   17.8530  -31.1949 H   0  0  0  0  0  0  0  0  0  0  0  0
   -7.7168   17.0160  -31.5248 H   0  0  0  0  0  0  0  0  0  0  0  0
   -9.3874   18.4124  -32.7487 H   0  0  0  0  0  0  0  0  0  0  0  0
   -8.7290   20.6491  -33.6448 H   0  0  0  0  0  0  0  0  0  0  0  0
   -6.4027   21.4933  -33.3214 H   0  0  0  0  0  0  0  0  0  0  0  0
   -5.6665   21.7327  -31.0268 H   0  0  0  0  0  0  0  0  0  0  0  0
  1  2  1  0
  2  3  2  0
  3  4  1  0
  4  5  2  0
  5  6  1  0
  6  7  1  0
  7  8  2  0
  8  9  1  0
  9 10  2  0
  9 11  2  0
  9 12  1  0
 12 13  2  0
 13 14  1  0
 14 15  2  0
 15 16  1  0
 15 17  1  0
 17 18  1  0
 17 19  2  0
  8 20  1  0
 20 21  2  3
 21 22  1  0
 22 23  1  0
 23 24  1  0
 24 25  2  0
 25 26  1  0
 26 27  2  0
 27 28  1  0
 28 29  2  0
 20 30  1  0
 30 31  2  0
 31  2  1  0
 30  5  1  0
 19 12  1  0
 29 24  1  0
  1 32  1  0
  1 33  1  0
  1 34  1  0
  3 35  1  0
  4 36  1  0
  7 37  1  0
 13 38  1  0
 14 39  1  0
 16 40  1  0
 16 41  1  0
 16 42  1  0
 18 43  1  0
 18 44  1  0
 18 45  1  0
 19 46  1  0
 22 47  1  0
 22 48  1  0
 23 49  1  0
 23 50  1  0
 25 51  1  0
 26 52  1  0
 27 53  1  0
 28 54  1  0
 29 55  1  0
 31 56  1  0
M  CHG  1   6  -1
M  END
>  <UniqueID>  (34) 
33

>  <SMILES>  (34) 
Cc1ccc2[n-]cc(S(=O)(=O)c3ccc(C)c(C)c3)c(=NCCc3ccccc3)c2c1

>  <Energy>  (34) 
78.77622325037765

>  <Genealogy>  (34) 
Cc1ccc2[n-]cc(S(=O)(=O)c3ccc(C)c(C)c3)c(=NCCc3ccccc3)c2c1 (protonated)
Cc1ccc2[n-]cc(S(=O)(=O)c3ccc(C)c(C)c3)c(=NCCc3ccccc3)c2c1 (3D coordinates assigned)
Cc1ccc2[n-]cc(S(=O)(=O)c3ccc(C)c(C)c3)c(=NCCc3ccccc3)c2c1 (optimized conformer: 78.77622325037765 kcal/mol)

>  <smiles>  (34) 
Cc1ccc2[nH]cc(S(=O)(=O)c3ccc(C)c(C)c3)c(=NCCc3ccccc3)c2c1

>  <score_type>  (34) 
oracle

>  <origin>  (34) 
adgpu

>  <m_score__min__energy>  (34) 
-10.619999999999999

>  <m_primary>  (34) 
energy

$$$$
34:0
     RDKit          3D

 29 31  0  0  0  0  0  0  0  0999 V2000
    1.7820   23.4490  -26.8600 O   0  0  0  0  0  0  0  0  0  0  0  0
    0.5940   23.5380  -27.5750 C   0  0  0  0  0  0  0  0  0  0  0  0
   -0.0870   22.3770  -27.9440 C   0  0  0  0  0  0  0  0  0  0  0  0
   -1.2810   22.4630  -28.6640 C   0  0  0  0  0  0  0  0  0  0  0  0
   -1.8140   23.7170  -29.0270 C   0  0  0  0  0  0  0  0  0  0  0  0
   -3.0850   23.7950  -29.7980 C   0  0  0  0  0  0  0  0  0  0  0  0
   -4.0090   22.7820  -29.9800 C   0  0  0  0  0  0  0  0  0  0  0  0
   -4.9960   23.3520  -30.7630 C   0  0  0  0  0  0  0  0  0  0  0  0
   -6.2360   22.7040  -31.2560 C   0  0  0  0  0  0  0  0  0  0  0  0
   -6.2400   21.3630  -31.6890 C   0  0  0  0  0  0  0  0  0  0  0  0
   -7.4190   20.7700  -32.1500 C   0  0  0  0  0  0  0  0  0  0  0  0
   -8.6100   21.5050  -32.1860 C   0  0  0  0  0  0  0  0  0  0  0  0
   -9.7910   20.9240  -32.6420 O   0  0  0  0  0  0  0  0  0  0  0  0
   -8.6170   22.8350  -31.7590 C   0  0  0  0  0  0  0  0  0  0  0  0
   -7.4400   23.4320  -31.2980 C   0  0  0  0  0  0  0  0  0  0  0  0
   -4.6670   24.6320  -31.0270 N   0  0  0  0  0  0  0  0  0  0  0  0
   -3.5110   24.9000  -30.4420 N   0  0  0  0  0  0  0  0  0  0  0  0
   -1.1150   24.8850  -28.6470 C   0  0  0  0  0  0  0  0  0  0  0  0
   -1.5980   26.1490  -28.9660 O   0  0  0  0  0  0  0  0  0  0  0  0
    0.0810   24.7880  -27.9260 C   0  0  0  0  0  0  0  0  0  0  0  0
    0.3173   21.3921  -27.6673 H   0  0  0  0  0  0  0  0  0  0  0  0
   -1.8110   21.5428  -28.9508 H   0  0  0  0  0  0  0  0  0  0  0  0
   -3.9680   21.7544  -29.5898 H   0  0  0  0  0  0  0  0  0  0  0  0
   -5.3085   20.7785  -31.6641 H   0  0  0  0  0  0  0  0  0  0  0  0
   -7.4109   19.7225  -32.4856 H   0  0  0  0  0  0  0  0  0  0  0  0
  -10.6910   21.1770  -32.2510 H   0  0  0  0  0  0  0  0  0  0  0  0
   -9.5516   23.4144  -31.7856 H   0  0  0  0  0  0  0  0  0  0  0  0
   -7.4549   24.4803  -30.9650 H   0  0  0  0  0  0  0  0  0  0  0  0
    0.6195   25.7018  -27.6344 H   0  0  0  0  0  0  0  0  0  0  0  0
  1  2  1  0
  2  3  2  0
  3  4  1  0
  4  5  2  0
  5  6  1  0
  6  7  1  0
  7  8  2  0
  8  9  1  0
  9 10  2  0
 10 11  1  0
 11 12  2  0
 12 13  1  0
 12 14  1  0
 14 15  2  0
  8 16  1  0
 16 17  1  0
  5 18  1  0
 18 19  1  0
 18 20  2  0
 20  2  1  0
 17  6  2  0
 15  9  1  0
  3 21  1  0
  4 22  1  0
  7 23  1  0
 10 24  1  0
 11 25  1  0
 13 26  1  0
 14 27  1  0
 15 28  1  0
 20 29  1  0
M  CHG  3   1  -1  16  -1  19  -1
M  END
>  <UniqueID>  (35) 
34

>  <SMILES>  (35) 
[O-]c1ccc(-c2cc(-c3ccc(O)cc3)[n-]n2)c([O-])c1

>  <Energy>  (35) 
65.84633268019827

>  <Genealogy>  (35) 
[O-]c1ccc(-c2cc(-c3ccc(O)cc3)[n-]n2)c([O-])c1 (protonated)
[O-]c1ccc(-c2cc(-c3ccc(O)cc3)[n-]n2)c([O-])c1 (3D coordinates assigned)
[O-]c1ccc(-c2cc(-c3ccc(O)cc3)[n-]n2)c([O-])c1 (optimized conformer: 65.84633268019827 kcal/mol)

>  <smiles>  (35) 
Oc1ccc(-c2cc(-c3ccc(O)cc3O)n[nH]2)cc1

>  <score_type>  (35) 
oracle

>  <origin>  (35) 
adgpu

>  <m_score__min__energy>  (35) 
-12

>  <m_primary>  (35) 
energy

$$$$
35:0
     RDKit          3D

 66 70  0  0  0  0  0  0  0  0999 V2000
   -4.5130   17.7520  -32.5060 H   0  0  0  0  0  0  0  0  0  0  0  0
   -5.3790   17.5160  -32.0310 O   0  0  0  0  0  0  0  0  0  0  0  0
   -6.5410   18.2680  -32.2160 C   0  0  0  0  0  0  0  0  0  0  0  0
   -7.7720   17.7960  -31.7360 C   0  0  0  0  0  0  0  0  0  0  0  0
   -7.8201   16.8302  -31.2117 H   0  0  0  0  0  0  0  0  0  0  0  0
   -8.9390   18.5460  -31.9200 C   0  0  0  0  0  0  0  0  0  0  0  0
   -9.8983   18.1770  -31.5282 H   0  0  0  0  0  0  0  0  0  0  0  0
   -8.8840   19.7640  -32.6020 C   0  0  0  0  0  0  0  0  0  0  0  0
   -9.8036   20.3457  -32.7628 H   0  0  0  0  0  0  0  0  0  0  0  0
   -7.6620   20.2440  -33.0800 C   0  0  0  0  0  0  0  0  0  0  0  0
   -7.6259   21.1986  -33.6254 H   0  0  0  0  0  0  0  0  0  0  0  0
   -6.4790   19.5160  -32.8690 C   0  0  0  0  0  0  0  0  0  0  0  0
   -5.2080   20.0610  -33.3760 C   0  0  0  0  0  0  0  0  0  0  0  0
   -4.4370   19.2860  -34.0080 O   0  0  0  0  0  0  0  0  0  0  0  0
   -4.7840   21.4210  -33.1880 N   0  0  0  0  0  0  0  0  0  0  0  0
   -5.1510   22.4460  -32.2420 C   0  0  0  0  0  0  0  0  0  0  0  0
   -6.4670   22.9310  -32.2950 C   0  0  0  0  0  0  0  0  0  0  0  0
   -7.1794   22.4895  -33.0074 H   0  0  0  0  0  0  0  0  0  0  0  0
   -6.8840   23.9650  -31.4570 C   0  0  0  0  0  0  0  0  0  0  0  0
   -7.9236   24.3218  -31.5020 H   0  0  0  0  0  0  0  0  0  0  0  0
   -5.9810   24.5520  -30.5560 C   0  0  0  0  0  0  0  0  0  0  0  0
   -6.4300   25.6780  -29.6650 C   0  0  0  0  0  0  0  0  0  0  0  0
   -6.3119   25.3819  -28.6122 H   0  0  0  0  0  0  0  0  0  0  0  0
   -5.8189   26.5704  -29.8657 H   0  0  0  0  0  0  0  0  0  0  0  0
   -7.4874   25.9050  -29.8657 H   0  0  0  0  0  0  0  0  0  0  0  0
   -4.6600   24.0640  -30.4800 C   0  0  0  0  0  0  0  0  0  0  0  0
   -3.7040   24.7120  -29.6230 N   0  0  0  0  0  0  0  0  0  0  0  0
   -2.7750   24.1160  -28.9380 C   0  0  0  0  0  0  0  0  0  0  0  0
   -2.6910   22.7580  -28.8980 N   0  0  0  0  0  0  0  0  0  0  0  0
   -1.7720   22.1490  -28.1020 C   0  0  0  0  0  0  0  0  0  0  0  0
   -1.7270   20.7160  -28.0230 N   0  0  0  0  0  0  0  0  0  0  0  0
   -0.5790   19.9690  -28.5470 C   0  0  0  0  0  0  0  0  0  0  0  0
   -0.8779   19.4195  -29.4518 H   0  0  0  0  0  0  0  0  0  0  0  0
    0.2340   20.6651  -28.8008 H   0  0  0  0  0  0  0  0  0  0  0  0
   -0.1000   18.9780  -27.4770 C   0  0  0  0  0  0  0  0  0  0  0  0
    0.6808   18.3331  -27.9065 H   0  0  0  0  0  0  0  0  0  0  0  0
    0.2990   19.5462  -26.6238 H   0  0  0  0  0  0  0  0  0  0  0  0
   -1.1720   18.1700  -27.0230 O   0  0  0  0  0  0  0  0  0  0  0  0
   -2.1310   18.9710  -26.3550 C   0  0  0  0  0  0  0  0  0  0  0  0
   -2.9116   18.3222  -25.9310 H   0  0  0  0  0  0  0  0  0  0  0  0
   -1.6274   19.5336  -25.5550 H   0  0  0  0  0  0  0  0  0  0  0  0
   -2.7770   19.9670  -27.3290 C   0  0  0  0  0  0  0  0  0  0  0  0
   -3.3852   19.4199  -28.0643 H   0  0  0  0  0  0  0  0  0  0  0  0
   -3.4193   20.6641  -26.7709 H   0  0  0  0  0  0  0  0  0  0  0  0
   -0.9370   22.9050  -27.3440 N   0  0  0  0  0  0  0  0  0  0  0  0
   -0.9920   24.2620  -27.3980 C   0  0  0  0  0  0  0  0  0  0  0  0
   -0.1050   25.0590  -26.5930 N   0  0  0  0  0  0  0  0  0  0  0  0
   -0.0390   26.5180  -26.7540 C   0  0  0  0  0  0  0  0  0  0  0  0
    0.9746   26.8047  -27.0709 H   0  0  0  0  0  0  0  0  0  0  0  0
   -0.7687   26.8323  -27.5148 H   0  0  0  0  0  0  0  0  0  0  0  0
   -0.3690   27.2040  -25.4230 C   0  0  0  0  0  0  0  0  0  0  0  0
   -0.0735   28.2612  -25.4936 H   0  0  0  0  0  0  0  0  0  0  0  0
   -1.4495   27.0828  -25.2559 H   0  0  0  0  0  0  0  0  0  0  0  0
    0.3550   26.5720  -24.2040 C   0  0  0  0  0  0  0  0  0  0  0  0
    0.9576   27.3640  -23.7354 H   0  0  0  0  0  0  0  0  0  0  0  0
   -0.5990   26.0820  -23.2940 O   0  0  0  0  0  0  0  0  0  0  0  0
   -0.1340   25.4310  -22.7040 H   0  0  0  0  0  0  0  0  0  0  0  0
    1.3380   25.4470  -24.6020 C   0  0  0  0  0  0  0  0  0  0  0  0
    2.1963   25.8918  -25.1268 H   0  0  0  0  0  0  0  0  0  0  0  0
    1.6623   24.9326  -23.6854 H   0  0  0  0  0  0  0  0  0  0  0  0
    0.6700   24.4130  -25.5240 C   0  0  0  0  0  0  0  0  0  0  0  0
    1.4498   23.7844  -25.9788 H   0  0  0  0  0  0  0  0  0  0  0  0
   -0.0200   23.8077  -24.9177 H   0  0  0  0  0  0  0  0  0  0  0  0
   -1.9250   24.8600  -28.1900 N   0  0  0  0  0  0  0  0  0  0  0  0
   -4.2680   22.9860  -31.2870 C   0  0  0  0  0  0  0  0  0  0  0  0
   -3.2611   22.5581  -31.1729 H   0  0  0  0  0  0  0  0  0  0  0  0
  1  2  1  0
  2  3  1  0
  3  4  2  0
  4  5  1  0
  4  6  1  0
  6  7  1  0
  6  8  2  0
  8  9  1  0
  8 10  1  0
 10 11  1  0
 10 12  2  0
 12 13  1  0
 13 14  2  0
 13 15  1  0
 15 16  1  0
 16 17  2  0
 17 18  1  0
 17 19  1  0
 19 20  1  0
 19 21  2  0
 21 22  1  0
 22 23  1  0
 22 24  1  0
 22 25  1  0
 21 26  1  0
 26 27  1  0
 27 28  2  0
 28 29  1  0
 29 30  2  0
 30 31  1  0
 31 32  1  0
 32 33  1  0
 32 34  1  0
 32 35  1  0
 35 36  1  0
 35 37  1  0
 35 38  1  0
 38 39  1  0
 39 40  1  0
 39 41  1  0
 39 42  1  0
 42 43  1  0
 42 44  1  0
 30 45  1  0
 45 46  1  0
 46 47  1  0
 47 48  1  0
 48 49  1  0
 48 50  1  0
 48 51  1  0
 51 52  1  0
 51 53  1  0
 51 54  1  0
 54 55  1  0
 54 56  1  0
 56 57  1  0
 54 58  1  0
 58 59  1  0
 58 60  1  0
 58 61  1  0
 61 62  1  0
 61 63  1  0
 46 64  2  0
 26 65  2  0
 65 66  1  0
 12  3  1  0
 65 16  1  0
 64 28  1  0
 42 31  1  0
 61 47  1  0
M  CHG  2  15  -1  45  -1
M  END
>  <UniqueID>  (36) 
35

>  <SMILES>  (36) 
Cc1ccc([N-]C(=O)c2ccccc2O)cc1/N=c1\nc(N2CCOCC2)[n-]c(N2CCC(O)CC2)n1

>  <Energy>  (36) 
95.92245967391348

>  <Genealogy>  (36) 
Cc1ccc([N-]C(=O)c2ccccc2O)cc1N=c1nc(N2CCOCC2)[n-]c(N2CCC(O)CC2)n1 (protonated)
Cc1ccc([N-]C(=O)c2ccccc2O)cc1/N=c1\nc(N2CCOCC2)[n-]c(N2CCC(O)CC2)n1 (cis-trans isomerization)
Cc1ccc([N-]C(=O)c2ccccc2O)cc1/N=c1\nc(N2CCOCC2)[n-]c(N2CCC(O)CC2)n1 (3D coordinates assigned)
Cc1ccc([N-]C(=O)c2ccccc2O)cc1/N=c1\nc(N2CCOCC2)[n-]c(N2CCC(O)CC2)n1 (nonaromatic ring conformer: 95.92245967391348 kcal/mol)

>  <smiles>  (36) 
Cc1ccc(NC(=O)c2ccccc2O)cc1N=c1nc(N2CCOCC2)[nH]c(N2CCC(O)CC2)n1

>  <score_type>  (36) 
oracle

>  <origin>  (36) 
adgpu

>  <m_score__min__energy>  (36) 
-11.42

>  <m_primary>  (36) 
energy

$$$$
36:0
     RDKit          3D

 59 62  0  0  0  0  0  0  0  0999 V2000
   -0.4330   19.3760  -29.3860 C   0  0  0  0  0  0  0  0  0  0  0  0
   -1.4570   20.4760  -29.3000 C   0  0  0  0  0  0  0  0  0  0  0  0
   -1.9240   20.8950  -28.0420 C   0  0  0  0  0  0  0  0  0  0  0  0
   -2.8690   21.9200  -27.9420 C   0  0  0  0  0  0  0  0  0  0  0  0
   -3.3730   22.5390  -29.0890 C   0  0  0  0  0  0  0  0  0  0  0  0
   -4.3550   23.5720  -28.9380 N   0  0  0  0  0  0  0  0  0  0  0  0
   -5.2230   24.3480  -30.2260 S   0  0  0  0  0  0  0  0  0  0  0  0
   -6.0580   25.4530  -29.6420 O   0  0  0  0  0  0  0  0  0  0  0  0
   -4.2740   24.9620  -31.2160 O   0  0  0  0  0  0  0  0  0  0  0  0
   -6.2840   23.1800  -31.0160 C   0  0  0  0  0  0  0  0  0  0  0  0
   -7.6180   23.5050  -31.3020 C   0  0  0  0  0  0  0  0  0  0  0  0
   -8.4410   22.5920  -31.9690 C   0  0  0  0  0  0  0  0  0  0  0  0
   -7.9400   21.3410  -32.3500 C   0  0  0  0  0  0  0  0  0  0  0  0
   -8.7660   20.4260  -32.9960 O   0  0  0  0  0  0  0  0  0  0  0  0
   -6.6020   21.0100  -32.0640 C   0  0  0  0  0  0  0  0  0  0  0  0
   -6.0690   19.7310  -32.4370 N   0  0  0  0  0  0  0  0  0  0  0  0
   -6.2040   18.5920  -31.5200 C   0  0  0  0  0  0  0  0  0  0  0  0
   -5.8480   17.2830  -32.2250 C   0  0  0  0  0  0  0  0  0  0  0  0
   -6.3640   17.3290  -33.6050 N   0  0  0  0  0  0  0  0  0  0  0  0
   -6.3150   15.9940  -34.2180 C   0  0  0  0  0  0  0  0  0  0  0  0
   -5.5980   18.2970  -34.4220 C   0  0  0  0  0  0  0  0  0  0  0  0
   -5.2790   19.6070  -33.6670 C   0  0  0  0  0  0  0  0  0  0  0  0
   -5.7830   21.9300  -31.3970 C   0  0  0  0  0  0  0  0  0  0  0  0
   -2.8910   22.1440  -30.3470 C   0  0  0  0  0  0  0  0  0  0  0  0
   -1.9500   21.1090  -30.4620 C   0  0  0  0  0  0  0  0  0  0  0  0
   -1.4990   20.7180  -31.8110 C   0  0  0  0  0  0  0  0  0  0  0  0
   -1.9810   19.5490  -32.4130 C   0  0  0  0  0  0  0  0  0  0  0  0
   -1.5970   19.2250  -33.6770 N   0  0  0  0  0  0  0  0  0  0  0  0
   -0.7380   20.0010  -34.3890 C   0  0  0  0  0  0  0  0  0  0  0  0
   -0.4130   19.6530  -35.5560 O   0  0  0  0  0  0  0  0  0  0  0  0
   -0.2200   21.1810  -33.8290 C   0  0  0  0  0  0  0  0  0  0  0  0
    0.7050   21.9710  -34.5960 N   0  0  0  0  0  0  0  0  0  0  0  0
    0.4280   22.6830  -35.8030 C   0  0  0  0  0  0  0  0  0  0  0  0
    1.3650   23.2660  -36.4110 O   0  0  0  0  0  0  0  0  0  0  0  0
   -0.6220   21.5410  -32.5300 C   0  0  0  0  0  0  0  0  0  0  0  0
   -0.1432   19.0647  -28.3716 H   0  0  0  0  0  0  0  0  0  0  0  0
   -0.8611   18.5178  -29.9246 H   0  0  0  0  0  0  0  0  0  0  0  0
    0.4536   19.7417  -29.9246 H   0  0  0  0  0  0  0  0  0  0  0  0
   -1.5430   20.4127  -27.1297 H   0  0  0  0  0  0  0  0  0  0  0  0
   -3.2195   22.2426  -26.9505 H   0  0  0  0  0  0  0  0  0  0  0  0
   -8.0192   24.4837  -30.9999 H   0  0  0  0  0  0  0  0  0  0  0  0
   -9.4844   22.8571  -32.1949 H   0  0  0  0  0  0  0  0  0  0  0  0
   -8.4950   19.9860  -33.8700 H   0  0  0  0  0  0  0  0  0  0  0  0
   -5.5284   18.7360  -30.6640 H   0  0  0  0  0  0  0  0  0  0  0  0
   -7.2481   18.5360  -31.1782 H   0  0  0  0  0  0  0  0  0  0  0  0
   -4.7552   17.1586  -32.2432 H   0  0  0  0  0  0  0  0  0  0  0  0
   -6.2974   16.4354  -31.6869 H   0  0  0  0  0  0  0  0  0  0  0  0
   -6.2869   15.2287  -33.4283 H   0  0  0  0  0  0  0  0  0  0  0  0
   -7.2082   15.8441  -34.8422 H   0  0  0  0  0  0  0  0  0  0  0  0
   -5.4132   15.9100  -34.8422 H   0  0  0  0  0  0  0  0  0  0  0  0
   -4.6504   17.8274  -34.7246 H   0  0  0  0  0  0  0  0  0  0  0  0
   -6.2215   18.5610  -35.2890 H   0  0  0  0  0  0  0  0  0  0  0  0
   -4.2103   19.6172  -33.4067 H   0  0  0  0  0  0  0  0  0  0  0  0
   -5.5330   20.4518  -34.3241 H   0  0  0  0  0  0  0  0  0  0  0  0
   -4.7388   21.6682  -31.1711 H   0  0  0  0  0  0  0  0  0  0  0  0
   -3.2549   22.6513  -31.2527 H   0  0  0  0  0  0  0  0  0  0  0  0
   -2.6709   18.8921  -31.8630 H   0  0  0  0  0  0  0  0  0  0  0  0
   -0.5974   22.7221  -36.1993 H   0  0  0  0  0  0  0  0  0  0  0  0
   -0.2470   22.4709  -32.0775 H   0  0  0  0  0  0  0  0  0  0  0  0
  1  2  1  0
  2  3  2  0
  3  4  1  0
  4  5  2  0
  5  6  1  0
  6  7  1  0
  7  8  2  0
  7  9  2  0
  7 10  1  0
 10 11  2  0
 11 12  1  0
 12 13  2  0
 13 14  1  0
 13 15  1  0
 15 16  1  0
 16 17  1  0
 17 18  1  0
 18 19  1  0
 19 20  1  0
 19 21  1  0
 21 22  1  0
 15 23  2  0
  5 24  1  0
 24 25  2  0
 25 26  1  0
 26 27  2  0
 27 28  1  0
 28 29  1  0
 29 30  2  0
 29 31  1  0
 31 32  1  0
 32 33  1  0
 33 34  2  0
 31 35  2  0
 25  2  1  0
 35 26  1  0
 23 10  1  0
 22 16  1  0
  1 36  1  0
  1 37  1  0
  1 38  1  0
  3 39  1  0
  4 40  1  0
 11 41  1  0
 12 42  1  0
 14 43  1  0
 17 44  1  0
 17 45  1  0
 18 46  1  0
 18 47  1  0
 20 48  1  0
 20 49  1  0
 20 50  1  0
 21 51  1  0
 21 52  1  0
 22 53  1  0
 22 54  1  0
 23 55  1  0
 24 56  1  0
 27 57  1  0
 33 58  1  0
 35 59  1  0
M  CHG  3   6  -1  28  -1  32  -1
M  END
>  <UniqueID>  (37) 
36

>  <SMILES>  (37) 
Cc1ccc([N-]S(=O)(=O)c2ccc(O)c(N3CCN(C)CC3)c2)cc1-c1c[n-]c(=O)c([N-]C=O)c1

>  <Energy>  (37) 
86.83384072528645

>  <Genealogy>  (37) 
Cc1ccc([N-]S(=O)(=O)c2ccc(O)c(N3CCN(C)CC3)c2)cc1-c1c[n-]c(=O)c([N-]C=O)c1 (protonated)
Cc1ccc([N-]S(=O)(=O)c2ccc(O)c(N3CCN(C)CC3)c2)cc1-c1c[n-]c(=O)c([N-]C=O)c1 (3D coordinates assigned)
Cc1ccc([N-]S(=O)(=O)c2ccc(O)c(N3CCN(C)CC3)c2)cc1-c1c[n-]c(=O)c([N-]C=O)c1 (nonaromatic ring conformer: 86.83384072528645 kcal/mol)

>  <smiles>  (37) 
Cc1ccc(NS(=O)(=O)c2ccc(O)c(N3CCN(C)CC3)c2)cc1-c1c[nH]c(=O)c(NC=O)c1

>  <score_type>  (37) 
oracle

>  <origin>  (37) 
adgpu

>  <m_score__min__energy>  (37) 
-12.16

>  <m_primary>  (37) 
energy

$$$$
37:0
     RDKit          3D

 79 84  0  0  0  0  0  0  0  0999 V2000
    0.2530   19.7940  -37.2050 O   0  0  0  0  0  0  0  0  0  0  0  0
    0.5450   18.9410  -36.0030 S   0  0  0  0  0  0  0  0  0  0  0  0
    2.0260   18.7010  -35.9320 O   0  0  0  0  0  0  0  0  0  0  0  0
   -0.2730   17.4190  -36.1280 N   0  0  0  0  0  0  0  0  0  0  0  0
   -0.1250   16.3620  -35.1750 C   0  0  0  0  0  0  0  0  0  0  0  0
   -1.1890   15.9640  -34.3490 C   0  0  0  0  0  0  0  0  0  0  0  0
   -1.0270   14.8960  -33.4620 C   0  0  0  0  0  0  0  0  0  0  0  0
    0.2070   14.2290  -33.3690 C   0  0  0  0  0  0  0  0  0  0  0  0
    0.3800   13.0790  -32.4100 C   0  0  0  0  0  0  0  0  0  0  0  0
    0.7930   13.5630  -31.0140 C   0  0  0  0  0  0  0  0  0  0  0  0
    1.2400   14.9640  -31.0750 N   0  0  0  0  0  0  0  0  0  0  0  0
    0.2820   15.8820  -30.4370 C   0  0  0  0  0  0  0  0  0  0  0  0
    0.3340   17.3060  -31.0220 C   0  0  2  0  0  0  0  0  0  0  0  0
    1.2950   17.3760  -32.0440 O   0  0  0  0  0  0  0  0  0  0  0  0
    0.5860   18.3450  -29.9440 C   0  0  0  0  0  0  0  0  0  0  0  0
    1.8880   18.7530  -29.5940 C   0  0  0  0  0  0  0  0  0  0  0  0
    2.0780   19.7140  -28.6000 C   0  0  0  0  0  0  0  0  0  0  0  0
    0.9660   20.2520  -27.9510 C   0  0  0  0  0  0  0  0  0  0  0  0
   -0.2860   19.8330  -28.2800 N   0  0  0  0  0  0  0  0  0  0  0  0
   -0.4980   18.9000  -29.2450 C   0  0  0  0  0  0  0  0  0  0  0  0
    1.2710   14.6380  -34.1910 C   0  0  0  0  0  0  0  0  0  0  0  0
    1.0990   15.6840  -35.1010 C   0  0  0  0  0  0  0  0  0  0  0  0
    0.0280   19.7320  -34.5190 C   0  0  0  0  0  0  0  0  0  0  0  0
   -1.2770   19.5320  -34.0600 C   0  0  0  0  0  0  0  0  0  0  0  0
   -1.7220   20.1670  -32.8980 C   0  0  0  0  0  0  0  0  0  0  0  0
   -0.8650   21.0160  -32.1770 C   0  0  0  0  0  0  0  0  0  0  0  0
   -1.3450   21.6900  -30.9500 C   0  0  0  0  0  0  0  0  0  0  0  0
   -0.5560   22.4460  -30.1530 N   0  0  0  0  0  0  0  0  0  0  0  0
   -1.4070   22.8260  -29.1820 C   0  0  0  0  0  0  0  0  0  0  0  0
   -1.0230   23.7340  -28.0880 C   0  0  0  0  0  0  0  0  0  0  0  0
   -0.4740   23.2020  -26.9100 C   0  0  0  0  0  0  0  0  0  0  0  0
   -0.0610   24.0500  -25.8800 C   0  0  0  0  0  0  0  0  0  0  0  0
   -0.2050   25.4340  -26.0130 C   0  0  0  0  0  0  0  0  0  0  0  0
   -0.7730   25.9710  -27.1720 C   0  0  0  0  0  0  0  0  0  0  0  0
   -1.1870   25.1250  -28.2080 C   0  0  0  0  0  0  0  0  0  0  0  0
   -1.7730   25.6730  -29.3430 O   0  0  0  0  0  0  0  0  0  0  0  0
   -2.6470   22.3370  -29.3900 N   0  0  0  0  0  0  0  0  0  0  0  0
   -3.8750   22.6510  -28.6620 C   0  0  0  0  0  0  0  0  0  0  0  0
   -4.9120   23.1970  -29.6040 C   0  0  0  0  0  0  0  0  0  0  0  0
   -5.2710   24.5550  -29.5500 C   0  0  0  0  0  0  0  0  0  0  0  0
   -6.2680   25.0520  -30.3950 C   0  0  0  0  0  0  0  0  0  0  0  0
   -6.9190   24.2000  -31.2910 C   0  0  0  0  0  0  0  0  0  0  0  0
   -6.5680   22.8470  -31.3500 C   0  0  0  0  0  0  0  0  0  0  0  0
   -5.5690   22.3450  -30.5100 C   0  0  0  0  0  0  0  0  0  0  0  0
   -2.6190   21.6270  -30.5050 N   0  0  0  0  0  0  0  0  0  0  0  0
    0.4480   21.2130  -32.6400 C   0  0  0  0  0  0  0  0  0  0  0  0
    0.8920   20.5750  -33.8050 C   0  0  0  0  0  0  0  0  0  0  0  0
   -2.1516   16.4938  -34.4003 H   0  0  0  0  0  0  0  0  0  0  0  0
   -1.8704   14.5754  -32.8328 H   0  0  0  0  0  0  0  0  0  0  0  0
   -0.5722   12.5339  -32.3313 H   0  0  0  0  0  0  0  0  0  0  0  0
    1.1765   12.4263  -32.7967 H   0  0  0  0  0  0  0  0  0  0  0  0
   -0.0672   13.4851  -30.3329 H   0  0  0  0  0  0  0  0  0  0  0  0
    1.6198   12.9374  -30.6466 H   0  0  0  0  0  0  0  0  0  0  0  0
    2.1350   15.0400  -30.5330 H   0  0  0  0  0  0  0  0  0  0  0  0
   -0.7332   15.4822  -30.5767 H   0  0  0  0  0  0  0  0  0  0  0  0
    0.5519   15.9527  -29.3730 H   0  0  0  0  0  0  0  0  0  0  0  0
   -0.6494   17.5352  -31.4583 H   0  0  0  0  0  0  0  0  0  0  0  0
    1.5480   16.4410  -32.2620 H   0  0  0  0  0  0  0  0  0  0  0  0
    2.7570   18.3132  -30.1053 H   0  0  0  0  0  0  0  0  0  0  0  0
    3.0925   20.0435  -28.3313 H   0  0  0  0  0  0  0  0  0  0  0  0
    1.1019   21.0164  -27.1718 H   0  0  0  0  0  0  0  0  0  0  0  0
   -1.5234   18.5781  -29.4796 H   0  0  0  0  0  0  0  0  0  0  0  0
    2.2448   14.1317  -34.1175 H   0  0  0  0  0  0  0  0  0  0  0  0
    1.9280   15.9766  -35.7622 H   0  0  0  0  0  0  0  0  0  0  0  0
   -1.9574   18.8709  -34.6168 H   0  0  0  0  0  0  0  0  0  0  0  0
   -2.7505   20.0013  -32.5448 H   0  0  0  0  0  0  0  0  0  0  0  0
   -0.3688   22.1128  -26.7980 H   0  0  0  0  0  0  0  0  0  0  0  0
    0.3778   23.6285  -24.9636 H   0  0  0  0  0  0  0  0  0  0  0  0
    0.1290   26.1013  -25.2048 H   0  0  0  0  0  0  0  0  0  0  0  0
   -0.8949   27.0598  -27.2702 H   0  0  0  0  0  0  0  0  0  0  0  0
   -4.2604   21.7362  -28.1880 H   0  0  0  0  0  0  0  0  0  0  0  0
   -3.6538   23.4072  -27.8944 H   0  0  0  0  0  0  0  0  0  0  0  0
   -4.7664   25.2282  -28.8414 H   0  0  0  0  0  0  0  0  0  0  0  0
   -6.5407   26.1169  -30.3543 H   0  0  0  0  0  0  0  0  0  0  0  0
   -7.7073   24.5930  -31.9498 H   0  0  0  0  0  0  0  0  0  0  0  0
   -7.0784   22.1774  -32.0579 H   0  0  0  0  0  0  0  0  0  0  0  0
   -5.2961   21.2805  -30.5580 H   0  0  0  0  0  0  0  0  0  0  0  0
    1.1306   21.8723  -32.0838 H   0  0  0  0  0  0  0  0  0  0  0  0
    1.9205   20.7354  -34.1607 H   0  0  0  0  0  0  0  0  0  0  0  0
  1  2  2  0
  2  3  2  0
  2  4  1  0
  4  5  1  0
  5  6  2  0
  6  7  1  0
  7  8  2  0
  8  9  1  0
  9 10  1  0
 10 11  1  0
 11 12  1  0
 12 13  1  0
 13 14  1  0
 13 15  1  0
 15 16  2  0
 16 17  1  0
 17 18  2  0
 18 19  1  0
 19 20  2  0
  8 21  1  0
 21 22  2  0
  2 23  1  0
 23 24  2  0
 24 25  1  0
 25 26  2  0
 26 27  1  0
 27 28  1  0
 28 29  2  0
 29 30  1  0
 30 31  2  0
 31 32  1  0
 32 33  2  0
 33 34  1  0
 34 35  2  0
 35 36  1  0
 29 37  1  0
 37 38  1  0
 38 39  1  0
 39 40  2  0
 40 41  1  0
 41 42  2  0
 42 43  1  0
 43 44  2  0
 37 45  1  0
 26 46  1  0
 46 47  2  0
 22  5  1  0
 47 23  1  0
 20 15  1  0
 45 27  2  0
 35 30  1  0
 44 39  1  0
  6 48  1  0
  7 49  1  0
  9 50  1  0
  9 51  1  0
 10 52  1  0
 10 53  1  0
 11 54  1  0
 12 55  1  0
 12 56  1  0
 13 57  1  6
 14 58  1  0
 16 59  1  0
 17 60  1  0
 18 61  1  0
 20 62  1  0
 21 63  1  0
 22 64  1  0
 24 65  1  0
 25 66  1  0
 31 67  1  0
 32 68  1  0
 33 69  1  0
 34 70  1  0
 38 71  1  0
 38 72  1  0
 40 73  1  0
 41 74  1  0
 42 75  1  0
 43 76  1  0
 44 77  1  0
 46 78  1  0
 47 79  1  0
M  CHG  2   4  -1  36  -1
M  END
>  <UniqueID>  (38) 
37

>  <SMILES>  (38) 
O=S(=O)([N-]c1ccc(CCNC[C@H](O)c2cccnc2)cc1)c1ccc(-c2nc(-c3ccccc3[O-])n(Cc3ccccc3)n2)cc1

>  <Energy>  (38) 
131.39214145557364

>  <Genealogy>  (38) 
O=S(=O)([N-]c1ccc(CCNCC(O)c2cccnc2)cc1)c1ccc(-c2nc(-c3ccccc3[O-])n(Cc3ccccc3)n2)cc1 (protonated)
O=S(=O)([N-]c1ccc(CCNC[C@H](O)c2cccnc2)cc1)c1ccc(-c2nc(-c3ccccc3[O-])n(Cc3ccccc3)n2)cc1 (chirality)
O=S(=O)([N-]c1ccc(CCNC[C@H](O)c2cccnc2)cc1)c1ccc(-c2nc(-c3ccccc3[O-])n(Cc3ccccc3)n2)cc1 (3D coordinates assigned)
O=S(=O)([N-]c1ccc(CCNC[C@H](O)c2cccnc2)cc1)c1ccc(-c2nc(-c3ccccc3[O-])n(Cc3ccccc3)n2)cc1 (optimized conformer: 131.39214145557364 kcal/mol)

>  <smiles>  (38) 
O=S(=O)(Nc1ccc(CCNCC(O)c2cccnc2)cc1)c1ccc(-c2nc(-c3ccccc3O)n(Cc3ccccc3)n2)cc1

>  <score_type>  (38) 
oracle

>  <origin>  (38) 
adgpu

>  <m_score__min__energy>  (38) 
-13.4

>  <m_primary>  (38) 
energy

$$$$
38:0
     RDKit          3D

 40 41  0  0  0  0  0  0  0  0999 V2000
   -2.9200   23.5840  -28.2850 C   0  0  0  0  0  0  0  0  0  0  0  0
   -2.7350   24.7240  -29.2290 C   0  0  0  0  0  0  0  0  0  0  0  0
   -1.8790   25.6110  -28.9690 O   0  0  0  0  0  0  0  0  0  0  0  0
   -3.5120   24.7780  -30.4320 N   0  0  0  0  0  0  0  0  0  0  0  0
   -4.7970   24.1760  -30.6520 C   0  0  0  0  0  0  0  0  0  0  0  0
   -5.8290   24.2450  -29.6970 C   0  0  0  0  0  0  0  0  0  0  0  0
   -7.0590   23.6290  -29.9440 C   0  0  0  0  0  0  0  0  0  0  0  0
   -7.2690   22.9250  -31.1370 C   0  0  0  0  0  0  0  0  0  0  0  0
   -8.8230   22.1690  -31.4720 S   0  0  0  0  0  0  0  0  0  0  0  0
   -9.7880   23.1660  -32.0510 O   0  0  0  0  0  0  0  0  0  0  0  0
   -9.3970   21.6340  -30.1910 O   0  0  0  0  0  0  0  0  0  0  0  0
   -8.6040   20.8640  -32.5880 N   0  0  0  0  0  0  0  0  0  0  0  0
   -9.0660   19.5380  -32.3210 C   0  0  0  0  0  0  0  0  0  0  0  0
   -9.7970   18.9390  -33.1560 O   0  0  0  0  0  0  0  0  0  0  0  0
   -8.7330   18.9050  -31.0770 N   0  0  0  0  0  0  0  0  0  0  0  0
   -7.6380   17.9480  -31.2830 C   0  0  0  0  0  0  0  0  0  0  0  0
   -6.5800   18.5440  -32.1750 C   0  0  0  0  0  0  0  0  0  0  0  0
   -6.4530   18.1140  -33.5070 C   0  0  0  0  0  0  0  0  0  0  0  0
   -5.4510   18.6440  -34.3250 C   0  0  0  0  0  0  0  0  0  0  0  0
   -4.5660   19.6010  -33.8190 C   0  0  0  0  0  0  0  0  0  0  0  0
   -4.6770   20.0220  -32.4910 C   0  0  0  0  0  0  0  0  0  0  0  0
   -5.6760   19.4920  -31.6680 C   0  0  0  0  0  0  0  0  0  0  0  0
   -6.2360   22.8360  -32.0780 C   0  0  0  0  0  0  0  0  0  0  0  0
   -5.0040   23.4470  -31.8300 C   0  0  0  0  0  0  0  0  0  0  0  0
   -2.8603   23.9516  -27.2500 H   0  0  0  0  0  0  0  0  0  0  0  0
   -3.9046   23.1237  -28.4544 H   0  0  0  0  0  0  0  0  0  0  0  0
   -2.1315   22.8360  -28.4544 H   0  0  0  0  0  0  0  0  0  0  0  0
   -5.6667   24.7857  -28.7529 H   0  0  0  0  0  0  0  0  0  0  0  0
   -7.8653   23.6972  -29.1989 H   0  0  0  0  0  0  0  0  0  0  0  0
   -9.5780   18.4070  -30.7120 H   0  0  0  0  0  0  0  0  0  0  0  0
   -8.4440   19.6360  -30.3840 H   0  0  0  0  0  0  0  0  0  0  0  0
   -7.1911   17.6939  -30.3105 H   0  0  0  0  0  0  0  0  0  0  0  0
   -8.0404   17.0433  -31.7622 H   0  0  0  0  0  0  0  0  0  0  0  0
   -7.1444   17.3578  -33.9072 H   0  0  0  0  0  0  0  0  0  0  0  0
   -5.3586   18.3077  -35.3683 H   0  0  0  0  0  0  0  0  0  0  0  0
   -3.7826   20.0224  -34.4660 H   0  0  0  0  0  0  0  0  0  0  0  0
   -3.9775   20.7715  -32.0923 H   0  0  0  0  0  0  0  0  0  0  0  0
   -5.7540   19.8186  -30.6205 H   0  0  0  0  0  0  0  0  0  0  0  0
   -6.3948   22.2832  -33.0157 H   0  0  0  0  0  0  0  0  0  0  0  0
   -4.1909   23.3548  -32.5651 H   0  0  0  0  0  0  0  0  0  0  0  0
  1  2  1  0
  2  3  2  0
  2  4  1  0
  4  5  1  0
  5  6  2  0
  6  7  1  0
  7  8  2  0
  8  9  1  0
  9 10  2  0
  9 11  2  0
  9 12  1  0
 12 13  1  0
 13 14  2  0
 13 15  1  0
 15 16  1  0
 16 17  1  0
 17 18  2  0
 18 19  1  0
 19 20  2  0
 20 21  1  0
 21 22  2  0
  8 23  1  0
 23 24  2  0
 24  5  1  0
 22 17  1  0
  1 25  1  0
  1 26  1  0
  1 27  1  0
  6 28  1  0
  7 29  1  0
 15 30  1  0
 15 31  1  0
 16 32  1  0
 16 33  1  0
 18 34  1  0
 19 35  1  0
 20 36  1  0
 21 37  1  0
 22 38  1  0
 23 39  1  0
 24 40  1  0
M  CHG  3   4  -1  12  -1  15   1
M  END
>  <UniqueID>  (39) 
38

>  <SMILES>  (39) 
CC(=O)[N-]c1ccc(S(=O)(=O)[N-]C(=O)[NH2+]Cc2ccccc2)cc1

>  <Energy>  (39) 
42.99608789563099

>  <Genealogy>  (39) 
CC(=O)[N-]c1ccc(S(=O)(=O)[N-]C(=O)[NH2+]Cc2ccccc2)cc1 (protonated)
CC(=O)[N-]c1ccc(S(=O)(=O)[N-]C(=O)[NH2+]Cc2ccccc2)cc1 (3D coordinates assigned)
CC(=O)[N-]c1ccc(S(=O)(=O)[N-]C(=O)[NH2+]Cc2ccccc2)cc1 (optimized conformer: 42.99608789563099 kcal/mol)

>  <smiles>  (39) 
CC(=O)Nc1ccc(S(=O)(=O)NC(=O)NCc2ccccc2)cc1

>  <score_type>  (39) 
oracle

>  <origin>  (39) 
adgpu

>  <m_score__min__energy>  (39) 
-9.6600000000000001

>  <m_primary>  (39) 
energy

$$$$
39:0
     RDKit          3D

 37 38  0  0  0  0  0  0  0  0999 V2000
   -1.5610   20.6630  -30.0350 C   0  0  0  0  0  0  0  0  0  0  0  0
   -0.9280   22.3250  -30.4240 S   0  0  0  0  0  0  0  0  0  0  0  0
   -1.0480   22.8930  -28.7270 C   0  0  0  0  0  0  0  0  0  0  0  0
   -0.5520   22.1490  -27.7050 N   0  0  0  0  0  0  0  0  0  0  0  0
   -0.9110   23.0140  -26.3340 S   0  0  0  0  0  0  0  0  0  0  0  0
   -1.6630   24.3440  -26.9950 C   0  0  0  0  0  0  0  0  0  0  0  0
   -2.5050   25.6270  -26.0620 S   0  0  0  0  0  0  0  0  0  0  0  0
   -1.1150   25.8900  -24.9160 C   0  0  0  0  0  0  0  0  0  0  0  0
   -1.6590   24.1180  -28.3730 C   0  0  0  0  0  0  0  0  0  0  0  0
   -2.3440   24.9280  -29.3380 N   0  0  0  0  0  0  0  0  0  0  0  0
   -3.4960   24.5310  -30.0850 C   0  0  0  0  0  0  0  0  0  0  0  0
   -4.0840   25.3610  -30.8290 O   0  0  0  0  0  0  0  0  0  0  0  0
   -3.9180   23.1620  -30.0520 N   0  0  0  0  0  0  0  0  0  0  0  0
   -5.1900   22.6990  -30.5380 C   0  0  0  0  0  0  0  0  0  0  0  0
   -6.3640   23.2720  -30.0380 C   0  0  0  0  0  0  0  0  0  0  0  0
   -7.6110   22.8570  -30.5070 C   0  0  0  0  0  0  0  0  0  0  0  0
   -7.7080   21.8710  -31.5010 C   0  0  0  0  0  0  0  0  0  0  0  0
   -9.0690   21.4410  -31.9850 C   0  0  0  0  0  0  0  0  0  0  0  0
   -6.5270   21.2940  -32.0250 C   0  0  0  0  0  0  0  0  0  0  0  0
   -6.5810   20.2480  -33.1090 C   0  0  0  0  0  0  0  0  0  0  0  0
   -5.2770   21.7250  -31.5480 C   0  0  0  0  0  0  0  0  0  0  0  0
   -1.6096   20.5354  -28.9435 H   0  0  0  0  0  0  0  0  0  0  0  0
   -2.5673   20.5444  -30.4632 H   0  0  0  0  0  0  0  0  0  0  0  0
   -0.8886   19.9050  -30.4632 H   0  0  0  0  0  0  0  0  0  0  0  0
   -1.4765   25.8216  -23.8793 H   0  0  0  0  0  0  0  0  0  0  0  0
   -0.3474   25.1212  -25.0881 H   0  0  0  0  0  0  0  0  0  0  0  0
   -0.6813   26.8861  -25.0881 H   0  0  0  0  0  0  0  0  0  0  0  0
   -3.2320   22.4540  -29.7000 H   0  0  0  0  0  0  0  0  0  0  0  0
   -6.3037   24.0561  -29.2689 H   0  0  0  0  0  0  0  0  0  0  0  0
   -8.5260   23.3066  -30.0940 H   0  0  0  0  0  0  0  0  0  0  0  0
   -9.7177   21.2361  -31.1206 H   0  0  0  0  0  0  0  0  0  0  0  0
   -9.5119   22.2430  -32.5938 H   0  0  0  0  0  0  0  0  0  0  0  0
   -8.9707   20.5301  -32.5938 H   0  0  0  0  0  0  0  0  0  0  0  0
   -6.6326   19.2487  -32.6521 H   0  0  0  0  0  0  0  0  0  0  0  0
   -7.4719   20.4123  -33.7330 H   0  0  0  0  0  0  0  0  0  0  0  0
   -5.6780   20.3197  -33.7330 H   0  0  0  0  0  0  0  0  0  0  0  0
   -4.3564   21.2953  -31.9698 H   0  0  0  0  0  0  0  0  0  0  0  0
  1  2  1  0
  2  3  1  0
  3  4  2  0
  4  5  1  0
  5  6  1  0
  6  7  1  0
  7  8  1  0
  6  9  2  0
  9 10  1  0
 10 11  1  0
 11 12  2  0
 11 13  1  0
 13 14  1  0
 14 15  2  0
 15 16  1  0
 16 17  2  0
 17 18  1  0
 17 19  1  0
 19 20  1  0
 19 21  2  0
  9  3  1  0
 21 14  1  0
  1 22  1  0
  1 23  1  0
  1 24  1  0
  8 25  1  0
  8 26  1  0
  8 27  1  0
 13 28  1  0
 15 29  1  0
 16 30  1  0
 18 31  1  0
 18 32  1  0
 18 33  1  0
 20 34  1  0
 20 35  1  0
 20 36  1  0
 21 37  1  0
M  CHG  1  10  -1
M  END
>  <UniqueID>  (40) 
39

>  <SMILES>  (40) 
CSc1nsc(SC)c1[N-]C(=O)Nc1ccc(C)c(C)c1

>  <Energy>  (40) 
70.18068185142111

>  <Genealogy>  (40) 
CSc1nsc(SC)c1[N-]C(=O)Nc1ccc(C)c(C)c1 (protonated)
CSc1nsc(SC)c1[N-]C(=O)Nc1ccc(C)c(C)c1 (3D coordinates assigned)
CSc1nsc(SC)c1[N-]C(=O)Nc1ccc(C)c(C)c1 (optimized conformer: 70.18068185142111 kcal/mol)

>  <smiles>  (40) 
CSc1nsc(SC)c1NC(=O)Nc1ccc(C)c(C)c1

>  <score_type>  (40) 
oracle

>  <origin>  (40) 
adgpu

>  <m_score__min__energy>  (40) 
-8.4900000000000002

>  <m_primary>  (40) 
energy

$$$$
40:0
     RDKit          3D

 40 42  0  0  0  0  0  0  0  0999 V2000
    1.2950   18.9240  -30.7980 C   0  0  0  0  0  0  0  0  0  0  0  0
    0.8980   20.1580  -31.3870 O   0  0  0  0  0  0  0  0  0  0  0  0
   -0.3930   20.4450  -31.8560 C   0  0  0  0  0  0  0  0  0  0  0  0
   -0.6020   20.9290  -33.1650 C   0  0  0  0  0  0  0  0  0  0  0  0
   -1.8930   21.1620  -33.6390 C   0  0  0  0  0  0  0  0  0  0  0  0
   -2.9930   20.9130  -32.8220 C   0  0  0  0  0  0  0  0  0  0  0  0
   -2.8040   20.4420  -31.5220 C   0  0  0  0  0  0  0  0  0  0  0  0
   -1.5150   20.2230  -31.0180 C   0  0  0  0  0  0  0  0  0  0  0  0
   -1.4080   19.7500  -29.6650 N   0  0  0  0  0  0  0  0  0  0  0  0
   -1.9410   20.5570  -28.2260 S   0  0  0  0  0  0  0  0  0  0  0  0
   -3.3710   20.1930  -27.9350 O   0  0  0  0  0  0  0  0  0  0  0  0
   -1.0770   20.1660  -27.0590 O   0  0  0  0  0  0  0  0  0  0  0  0
   -1.7990   22.2930  -28.4720 C   0  0  0  0  0  0  0  0  0  0  0  0
   -0.8360   23.0380  -27.7790 C   0  0  0  0  0  0  0  0  0  0  0  0
   -0.7510   24.4200  -27.9640 C   0  0  0  0  0  0  0  0  0  0  0  0
   -1.6220   25.0700  -28.8460 C   0  0  0  0  0  0  0  0  0  0  0  0
   -1.5580   26.4540  -28.9590 O   0  0  0  0  0  0  0  0  0  0  0  0
   -2.5700   24.3230  -29.5740 C   0  0  0  0  0  0  0  0  0  0  0  0
   -3.4900   24.9420  -30.4840 N   0  0  0  0  0  0  0  0  0  0  0  0
   -4.9170   24.8340  -30.4260 C   0  0  0  0  0  0  0  0  0  0  0  0
   -5.6100   25.7660  -29.9370 O   0  0  0  0  0  0  0  0  0  0  0  0
   -5.5860   23.6560  -30.9870 C   0  0  0  0  0  0  0  0  0  0  0  0
   -6.5720   22.9110  -30.3700 C   0  0  0  0  0  0  0  0  0  0  0  0
   -6.8960   21.9130  -31.2650 C   0  0  0  0  0  0  0  0  0  0  0  0
   -6.0900   22.1110  -32.3690 C   0  0  0  0  0  0  0  0  0  0  0  0
   -5.3210   23.1570  -32.1730 O   0  0  0  0  0  0  0  0  0  0  0  0
   -2.6700   22.9420  -29.3570 C   0  0  0  0  0  0  0  0  0  0  0  0
    1.2658   19.0146  -29.7021 H   0  0  0  0  0  0  0  0  0  0  0  0
    0.6079   18.1270  -31.1184 H   0  0  0  0  0  0  0  0  0  0  0  0
    2.3179   18.6771  -31.1184 H   0  0  0  0  0  0  0  0  0  0  0  0
    0.2615   21.1244  -33.8178 H   0  0  0  0  0  0  0  0  0  0  0  0
   -2.0425   21.5431  -34.6600 H   0  0  0  0  0  0  0  0  0  0  0  0
   -4.0107   21.0876  -33.2013 H   0  0  0  0  0  0  0  0  0  0  0  0
   -3.6778   20.2402  -30.8850 H   0  0  0  0  0  0  0  0  0  0  0  0
   -0.1451   22.5335  -27.0875 H   0  0  0  0  0  0  0  0  0  0  0  0
    0.0043   25.0003  -27.4137 H   0  0  0  0  0  0  0  0  0  0  0  0
   -7.0074   23.0786  -29.3738 H   0  0  0  0  0  0  0  0  0  0  0  0
   -7.6452   21.1194  -31.1274 H   0  0  0  0  0  0  0  0  0  0  0  0
   -6.0920   21.4871  -33.2749 H   0  0  0  0  0  0  0  0  0  0  0  0
   -3.4399   22.3619  -29.8868 H   0  0  0  0  0  0  0  0  0  0  0  0
  1  2  1  0
  2  3  1  0
  3  4  2  0
  4  5  1  0
  5  6  2  0
  6  7  1  0
  7  8  2  0
  8  9  1  0
  9 10  1  0
 10 11  2  0
 10 12  2  0
 10 13  1  0
 13 14  2  0
 14 15  1  0
 15 16  2  0
 16 17  1  0
 16 18  1  0
 18 19  1  0
 19 20  1  0
 20 21  2  0
 20 22  1  0
 22 23  2  0
 23 24  1  0
 24 25  2  0
 25 26  1  0
 18 27  2  0
  8  3  1  0
 27 13  1  0
 26 22  1  0
  1 28  1  0
  1 29  1  0
  1 30  1  0
  4 31  1  0
  5 32  1  0
  6 33  1  0
  7 34  1  0
 14 35  1  0
 15 36  1  0
 23 37  1  0
 24 38  1  0
 25 39  1  0
 27 40  1  0
M  CHG  3   9  -1  17  -1  19  -1
M  END
>  <UniqueID>  (41) 
40

>  <SMILES>  (41) 
COc1ccccc1[N-]S(=O)(=O)c1ccc([O-])c([N-]C(=O)c2ccco2)c1

>  <Energy>  (41) 
80.15040831135705

>  <Genealogy>  (41) 
COc1ccccc1[N-]S(=O)(=O)c1ccc([O-])c([N-]C(=O)c2ccco2)c1 (protonated)
COc1ccccc1[N-]S(=O)(=O)c1ccc([O-])c([N-]C(=O)c2ccco2)c1 (3D coordinates assigned)
COc1ccccc1[N-]S(=O)(=O)c1ccc([O-])c([N-]C(=O)c2ccco2)c1 (optimized conformer: 80.15040831135705 kcal/mol)

>  <smiles>  (41) 
COc1ccccc1NS(=O)(=O)c1ccc(O)c(NC(=O)c2ccco2)c1

>  <score_type>  (41) 
oracle

>  <origin>  (41) 
adgpu

>  <m_score__min__energy>  (41) 
-11.720000000000001

>  <m_primary>  (41) 
energy

$$$$
41:0
     RDKit          3D

 34 35  0  0  0  0  0  0  0  0999 V2000
   -3.1460   18.9350  -26.4690 C   0  0  0  0  0  0  0  0  0  0  0  0
   -2.5100   19.6660  -27.5630 N   0  0  0  0  0  0  0  0  0  0  0  0
   -1.1780   20.6030  -26.9540 S   0  0  0  0  0  0  0  0  0  0  0  0
   -1.2680   20.6860  -25.4550 O   0  0  0  0  0  0  0  0  0  0  0  0
    0.1110   19.9290  -27.3310 O   0  0  0  0  0  0  0  0  0  0  0  0
   -1.1990   22.2210  -27.6490 C   0  0  0  0  0  0  0  0  0  0  0  0
   -0.0160   22.9630  -27.7530 C   0  0  0  0  0  0  0  0  0  0  0  0
   -0.0360   24.2380  -28.3230 C   0  0  0  0  0  0  0  0  0  0  0  0
   -1.2390   24.7860  -28.7800 C   0  0  0  0  0  0  0  0  0  0  0  0
   -1.2430   26.0560  -29.3470 O   0  0  0  0  0  0  0  0  0  0  0  0
   -2.4350   24.0630  -28.6610 C   0  0  0  0  0  0  0  0  0  0  0  0
   -3.6540   24.6460  -29.1530 N   0  0  0  0  0  0  0  0  0  0  0  0
   -4.3430   24.2370  -30.1790 C   0  0  0  0  0  0  0  0  0  0  0  0
   -4.0730   23.1250  -30.8930 N   0  0  0  0  0  0  0  0  0  0  0  0
   -5.0270   23.0140  -31.8050 N   0  0  0  0  0  0  0  0  0  0  0  0
   -5.1350   21.8940  -32.7280 C   0  0  0  0  0  0  0  0  0  0  0  0
   -5.9240   24.0120  -31.6680 C   0  0  0  0  0  0  0  0  0  0  0  0
   -5.5010   24.8300  -30.6400 C   0  0  0  0  0  0  0  0  0  0  0  0
   -6.2270   26.0020  -30.0610 C   0  0  0  0  0  0  0  0  0  0  0  0
   -2.4010   22.7620  -28.1230 C   0  0  0  0  0  0  0  0  0  0  0  0
   -2.7960   19.3373  -25.5069 H   0  0  0  0  0  0  0  0  0  0  0  0
   -4.2380   19.0483  -26.5383 H   0  0  0  0  0  0  0  0  0  0  0  0
   -2.8828   17.8692  -26.5383 H   0  0  0  0  0  0  0  0  0  0  0  0
   -2.1140   18.9630  -28.2270 H   0  0  0  0  0  0  0  0  0  0  0  0
    0.9308   22.5410  -27.3851 H   0  0  0  0  0  0  0  0  0  0  0  0
    0.8974   24.8130  -28.4128 H   0  0  0  0  0  0  0  0  0  0  0  0
   -5.2253   20.9571  -32.1587 H   0  0  0  0  0  0  0  0  0  0  0  0
   -6.0246   22.0254  -33.3615 H   0  0  0  0  0  0  0  0  0  0  0  0
   -4.2366   21.8530  -33.3615 H   0  0  0  0  0  0  0  0  0  0  0  0
   -6.8339   24.1499  -32.2705 H   0  0  0  0  0  0  0  0  0  0  0  0
   -6.1936   25.9480  -28.9628 H   0  0  0  0  0  0  0  0  0  0  0  0
   -5.7472   26.9331  -30.3971 H   0  0  0  0  0  0  0  0  0  0  0  0
   -7.2743   25.9871  -30.3971 H   0  0  0  0  0  0  0  0  0  0  0  0
   -3.3246   22.1666  -28.0747 H   0  0  0  0  0  0  0  0  0  0  0  0
  1  2  1  0
  2  3  1  0
  3  4  2  0
  3  5  2  0
  3  6  1  0
  6  7  2  0
  7  8  1  0
  8  9  2  0
  9 10  1  0
  9 11  1  0
 11 12  1  0
 12 13  2  3
 13 14  1  0
 14 15  1  0
 15 16  1  0
 15 17  1  0
 17 18  2  0
 18 19  1  0
 11 20  2  0
 20  6  1  0
 18 13  1  0
  1 21  1  0
  1 22  1  0
  1 23  1  0
  2 24  1  0
  7 25  1  0
  8 26  1  0
 16 27  1  0
 16 28  1  0
 16 29  1  0
 17 30  1  0
 19 31  1  0
 19 32  1  0
 19 33  1  0
 20 34  1  0
M  CHG  2  10  -1  14  -1
M  END
>  <UniqueID>  (42) 
41

>  <SMILES>  (42) 
CNS(=O)(=O)c1ccc([O-])c(N=c2[n-]n(C)cc2C)c1

>  <Energy>  (42) 
65.57500333222737

>  <Genealogy>  (42) 
CNS(=O)(=O)c1ccc([O-])c(N=c2[n-]n(C)cc2C)c1 (protonated)
CNS(=O)(=O)c1ccc([O-])c(N=c2[n-]n(C)cc2C)c1 (3D coordinates assigned)
CNS(=O)(=O)c1ccc([O-])c(N=c2[n-]n(C)cc2C)c1 (optimized conformer: 65.57500333222737 kcal/mol)

>  <smiles>  (42) 
CNS(=O)(=O)c1ccc(O)c(N=c2[nH]n(C)cc2C)c1

>  <score_type>  (42) 
oracle

>  <origin>  (42) 
adgpu

>  <m_score__min__energy>  (42) 
-10.35

>  <m_primary>  (42) 
energy

$$$$
42:0
     RDKit          3D

 62 66  0  0  0  0  0  0  0  0999 V2000
    0.2570   16.6980  -27.4730 C   0  0  0  0  0  0  0  0  0  0  0  0
    0.0290   18.1710  -27.7010 C   0  0  0  0  0  0  0  0  0  0  0  0
   -1.1150   18.7770  -27.1590 C   0  0  0  0  0  0  0  0  0  0  0  0
   -1.3530   20.1400  -27.3430 C   0  0  0  0  0  0  0  0  0  0  0  0
   -0.4440   20.9320  -28.0600 C   0  0  0  0  0  0  0  0  0  0  0  0
   -0.7040   22.3700  -28.2990 C   0  0  0  0  0  0  0  0  0  0  0  0
   -1.8990   22.7380  -28.8390 N   0  0  0  0  0  0  0  0  0  0  0  0
   -2.2370   24.0350  -29.0760 C   0  0  0  0  0  0  0  0  0  0  0  0
   -3.5670   24.3170  -29.6570 C   0  0  0  0  0  0  0  0  0  0  0  0
   -4.4910   24.8000  -28.9480 O   0  0  0  0  0  0  0  0  0  0  0  0
   -3.7910   24.0660  -31.0500 N   0  0  0  0  0  0  0  0  0  0  0  0
   -4.6410   23.0330  -31.5670 C   0  0  0  0  0  0  0  0  0  0  0  0
   -6.0080   23.2970  -31.7020 C   0  0  0  0  0  0  0  0  0  0  0  0
   -6.8750   22.3190  -32.1900 C   0  0  0  0  0  0  0  0  0  0  0  0
   -6.3840   21.0700  -32.5750 C   0  0  0  0  0  0  0  0  0  0  0  0
   -5.0050   20.7970  -32.5040 C   0  0  0  0  0  0  0  0  0  0  0  0
   -4.4620   19.5640  -32.9320 C   0  0  0  0  0  0  0  0  0  0  0  0
   -5.2910   18.5300  -33.4870 N   0  0  0  0  0  0  0  0  0  0  0  0
   -6.2400   17.8230  -32.6260 C   0  0  0  0  0  0  0  0  0  0  0  0
   -6.8610   16.6310  -33.3700 C   0  0  0  0  0  0  0  0  0  0  0  0
   -5.8380   15.8240  -34.0710 N   0  0  0  0  0  0  0  0  0  0  0  0
   -5.0770   14.9820  -33.1320 C   0  0  0  0  0  0  0  0  0  0  0  0
   -4.9360   16.6030  -34.9650 C   0  0  0  0  0  0  0  0  0  0  0  0
   -5.1340   18.1240  -34.8850 C   0  0  0  0  0  0  0  0  0  0  0  0
   -3.0820   19.3530  -32.8410 C   0  0  0  0  0  0  0  0  0  0  0  0
   -2.2570   20.3620  -32.3460 C   0  0  0  0  0  0  0  0  0  0  0  0
   -2.7900   21.5430  -31.9410 N   0  0  0  0  0  0  0  0  0  0  0  0
   -4.1280   21.7890  -31.9910 C   0  0  0  0  0  0  0  0  0  0  0  0
   -1.3200   25.0530  -28.7500 C   0  0  0  0  0  0  0  0  0  0  0  0
   -1.6140   26.3940  -28.9650 O   0  0  0  0  0  0  0  0  0  0  0  0
   -0.0820   24.7070  -28.2090 C   0  0  0  0  0  0  0  0  0  0  0  0
    0.2410   23.3660  -27.9900 C   0  0  0  0  0  0  0  0  0  0  0  0
    1.5020   23.0410  -27.5020 O   0  0  0  0  0  0  0  0  0  0  0  0
    0.6990   20.3300  -28.6060 C   0  0  0  0  0  0  0  0  0  0  0  0
    0.9590   18.9620  -28.4160 C   0  0  0  0  0  0  0  0  0  0  0  0
    2.1990   18.3580  -29.0210 C   0  0  0  0  0  0  0  0  0  0  0  0
    0.2885   16.4948  -26.3924 H   0  0  0  0  0  0  0  0  0  0  0  0
   -0.5631   16.1249  -27.9301 H   0  0  0  0  0  0  0  0  0  0  0  0
    1.2120   16.3997  -27.9301 H   0  0  0  0  0  0  0  0  0  0  0  0
   -1.8311   18.1719  -26.5836 H   0  0  0  0  0  0  0  0  0  0  0  0
   -2.2609   20.5968  -26.9223 H   0  0  0  0  0  0  0  0  0  0  0  0
   -6.4029   24.2845  -31.4209 H   0  0  0  0  0  0  0  0  0  0  0  0
   -7.9509   22.5330  -32.2719 H   0  0  0  0  0  0  0  0  0  0  0  0
   -7.0777   20.2961  -32.9353 H   0  0  0  0  0  0  0  0  0  0  0  0
   -5.7137   17.4568  -31.7322 H   0  0  0  0  0  0  0  0  0  0  0  0
   -7.0424   18.5178  -32.3372 H   0  0  0  0  0  0  0  0  0  0  0  0
   -7.3823   15.9907  -32.6432 H   0  0  0  0  0  0  0  0  0  0  0  0
   -7.5587   17.0256  -34.1233 H   0  0  0  0  0  0  0  0  0  0  0  0
   -5.3309   15.2629  -32.0992 H   0  0  0  0  0  0  0  0  0  0  0  0
   -5.3323   13.9249  -33.2978 H   0  0  0  0  0  0  0  0  0  0  0  0
   -3.9996   15.1294  -33.2978 H   0  0  0  0  0  0  0  0  0  0  0  0
   -3.8957   16.3752  -34.6895 H   0  0  0  0  0  0  0  0  0  0  0  0
   -5.1775   16.3056  -35.9961 H   0  0  0  0  0  0  0  0  0  0  0  0
   -4.2574   18.6297  -35.3161 H   0  0  0  0  0  0  0  0  0  0  0  0
   -6.0366   18.4033  -35.4483 H   0  0  0  0  0  0  0  0  0  0  0  0
   -2.6489   18.3933  -33.1593 H   0  0  0  0  0  0  0  0  0  0  0  0
   -1.1707   20.2006  -32.2834 H   0  0  0  0  0  0  0  0  0  0  0  0
    0.6432   25.4937  -27.9537 H   0  0  0  0  0  0  0  0  0  0  0  0
    1.4033   20.9384  -29.1924 H   0  0  0  0  0  0  0  0  0  0  0  0
    2.8754   18.0285  -28.2185 H   0  0  0  0  0  0  0  0  0  0  0  0
    1.9203   17.4947  -29.6432 H   0  0  0  0  0  0  0  0  0  0  0  0
    2.7069   19.1096  -29.6432 H   0  0  0  0  0  0  0  0  0  0  0  0
  1  2  1  0
  2  3  2  0
  3  4  1  0
  4  5  2  0
  5  6  1  0
  6  7  2  0
  7  8  1  0
  8  9  1  0
  9 10  2  0
  9 11  1  0
 11 12  1  0
 12 13  2  0
 13 14  1  0
 14 15  2  0
 15 16  1  0
 16 17  2  0
 17 18  1  0
 18 19  1  0
 19 20  1  0
 20 21  1  0
 21 22  1  0
 21 23  1  0
 23 24  1  0
 17 25  1  0
 25 26  2  0
 26 27  1  0
 27 28  2  0
  8 29  2  0
 29 30  1  0
 29 31  1  0
 31 32  2  0
 32 33  1  0
  5 34  1  0
 34 35  2  0
 35 36  1  0
 35  2  1  0
 32  6  1  0
 28 12  1  0
 28 16  1  0
 24 18  1  0
  1 37  1  0
  1 38  1  0
  1 39  1  0
  3 40  1  0
  4 41  1  0
 13 42  1  0
 14 43  1  0
 15 44  1  0
 19 45  1  0
 19 46  1  0
 20 47  1  0
 20 48  1  0
 22 49  1  0
 22 50  1  0
 22 51  1  0
 23 52  1  0
 23 53  1  0
 24 54  1  0
 24 55  1  0
 25 56  1  0
 26 57  1  0
 31 58  1  0
 34 59  1  0
 36 60  1  0
 36 61  1  0
 36 62  1  0
M  CHG  3  11  -1  30  -1  33  -1
M  END
>  <UniqueID>  (43) 
42

>  <SMILES>  (43) 
Cc1ccc(-c2nc(C(=O)[N-]c3cccc4c(N5CCN(C)CC5)ccnc34)c([O-])cc2[O-])cc1C

>  <Energy>  (43) 
98.1940204790352

>  <Genealogy>  (43) 
Cc1ccc(-c2nc(C(=O)[N-]c3cccc4c(N5CCN(C)CC5)ccnc34)c([O-])cc2[O-])cc1C (protonated)
Cc1ccc(-c2nc(C(=O)[N-]c3cccc4c(N5CCN(C)CC5)ccnc34)c([O-])cc2[O-])cc1C (3D coordinates assigned)
Cc1ccc(-c2nc(C(=O)[N-]c3cccc4c(N5CCN(C)CC5)ccnc34)c([O-])cc2[O-])cc1C (nonaromatic ring conformer: 98.1940204790352 kcal/mol)

>  <smiles>  (43) 
Cc1ccc(-c2nc(C(=O)Nc3cccc4c(N5CCN(C)CC5)ccnc34)c(O)cc2O)cc1C

>  <score_type>  (43) 
oracle

>  <origin>  (43) 
adgpu

>  <m_score__min__energy>  (43) 
-14.470000000000001

>  <m_primary>  (43) 
energy

$$$$
43:0
     RDKit          3D

 57 60  0  0  0  0  0  0  0  0999 V2000
   -3.0030   20.1760  -27.3680 C   0  0  0  0  0  0  0  0  0  0  0  0
   -2.5120   21.4280  -28.0310 C   0  0  0  0  0  0  0  0  0  0  0  0
   -1.2380   21.9360  -27.7390 C   0  0  0  0  0  0  0  0  0  0  0  0
   -0.7990   23.1190  -28.3360 C   0  0  0  0  0  0  0  0  0  0  0  0
   -1.6290   23.8090  -29.2230 C   0  0  0  0  0  0  0  0  0  0  0  0
   -2.9080   23.3120  -29.5320 C   0  0  0  0  0  0  0  0  0  0  0  0
   -3.8010   24.0330  -30.4690 C   0  0  0  0  0  0  0  0  0  0  0  0
   -3.8040   25.2930  -30.4730 O   0  0  0  0  0  0  0  0  0  0  0  0
   -4.6510   23.3430  -31.3950 N   0  0  0  0  0  0  0  0  0  0  0  0
   -4.2780   22.1790  -32.1420 C   0  0  0  0  0  0  0  0  0  0  0  0
   -2.9240   21.9840  -32.4370 C   0  0  0  0  0  0  0  0  0  0  0  0
   -2.4910   20.8080  -33.0620 C   0  0  0  0  0  0  0  0  0  0  0  0
   -0.7680   20.5270  -33.3310 S   0  0  0  0  0  0  0  0  0  0  0  0
   -0.1840   21.7140  -34.0450 O   0  0  0  0  0  0  0  0  0  0  0  0
   -0.6000   19.3220  -34.2150 O   0  0  0  0  0  0  0  0  0  0  0  0
    0.1040   20.2710  -31.8390 N   0  0  0  0  0  0  0  0  0  0  0  0
   -0.7830   20.1680  -30.6780 C   0  0  0  0  0  0  0  0  0  0  0  0
   -0.0520   19.3250  -29.6410 C   0  0  0  0  0  0  0  0  0  0  0  0
    1.0640   18.6210  -30.4010 C   0  0  0  0  0  0  0  0  0  0  0  0
    0.8840   19.0320  -31.8540 C   0  0  0  0  0  0  0  0  0  0  0  0
   -3.4330   19.8470  -33.4520 C   0  0  0  0  0  0  0  0  0  0  0  0
   -4.7890   20.0520  -33.2030 C   0  0  0  0  0  0  0  0  0  0  0  0
   -5.2290   21.2130  -32.5460 C   0  0  0  0  0  0  0  0  0  0  0  0
   -6.6400   21.4350  -32.3770 N   0  0  0  0  0  0  0  0  0  0  0  0
   -7.5100   20.3180  -31.9860 C   0  0  0  0  0  0  0  0  0  0  0  0
   -8.7210   20.8480  -31.2140 C   0  0  0  0  0  0  0  0  0  0  0  0
   -8.2990   21.8560  -30.3180 O   0  0  0  0  0  0  0  0  0  0  0  0
   -7.9430   23.0420  -31.0170 C   0  0  0  0  0  0  0  0  0  0  0  0
   -7.1850   22.7960  -32.3430 C   0  0  0  0  0  0  0  0  0  0  0  0
   -3.3520   22.1340  -28.9070 C   0  0  0  0  0  0  0  0  0  0  0  0
   -2.9556   20.2968  -26.2757 H   0  0  0  0  0  0  0  0  0  0  0  0
   -4.0429   19.9843  -27.6710 H   0  0  0  0  0  0  0  0  0  0  0  0
   -2.3706   19.3285  -27.6710 H   0  0  0  0  0  0  0  0  0  0  0  0
   -0.5822   21.4003  -27.0369 H   0  0  0  0  0  0  0  0  0  0  0  0
    0.2037   23.5092  -28.1073 H   0  0  0  0  0  0  0  0  0  0  0  0
   -1.2804   24.7459  -29.6821 H   0  0  0  0  0  0  0  0  0  0  0  0
   -2.1923   22.7625  -32.1752 H   0  0  0  0  0  0  0  0  0  0  0  0
    0.7560   21.0800  -31.6980 H   0  0  0  0  0  0  0  0  0  0  0  0
   -0.9942   21.1685  -30.2725 H   0  0  0  0  0  0  0  0  0  0  0  0
   -1.7439   19.7094  -30.9541 H   0  0  0  0  0  0  0  0  0  0  0  0
    0.3661   19.9656  -28.8505 H   0  0  0  0  0  0  0  0  0  0  0  0
   -0.7262   18.6079  -29.1498 H   0  0  0  0  0  0  0  0  0  0  0  0
    2.0471   18.9445  -30.0284 H   0  0  0  0  0  0  0  0  0  0  0  0
    1.0188   17.5291  -30.2759 H   0  0  0  0  0  0  0  0  0  0  0  0
    1.8631   19.2044  -32.3248 H   0  0  0  0  0  0  0  0  0  0  0  0
    0.3739   18.2463  -32.4306 H   0  0  0  0  0  0  0  0  0  0  0  0
   -3.1013   18.9275  -33.9565 H   0  0  0  0  0  0  0  0  0  0  0  0
   -5.5218   19.2971  -33.5242 H   0  0  0  0  0  0  0  0  0  0  0  0
   -7.8544   19.7906  -32.8878 H   0  0  0  0  0  0  0  0  0  0  0  0
   -6.9452   19.6259  -31.3441 H   0  0  0  0  0  0  0  0  0  0  0  0
   -9.4525   21.2672  -31.9206 H   0  0  0  0  0  0  0  0  0  0  0  0
   -9.1875   20.0262  -30.6509 H   0  0  0  0  0  0  0  0  0  0  0  0
   -8.8647   23.5974  -31.2450 H   0  0  0  0  0  0  0  0  0  0  0  0
   -7.2585   23.6005  -30.3617 H   0  0  0  0  0  0  0  0  0  0  0  0
   -7.8781   22.9298  -33.1866 H   0  0  0  0  0  0  0  0  0  0  0  0
   -6.3550   23.5140  -32.4173 H   0  0  0  0  0  0  0  0  0  0  0  0
   -4.3677   21.7615  -29.1061 H   0  0  0  0  0  0  0  0  0  0  0  0
  1  2  1  0
  2  3  2  0
  3  4  1  0
  4  5  2  0
  5  6  1  0
  6  7  1  0
  7  8  2  0
  7  9  1  0
  9 10  1  0
 10 11  2  0
 11 12  1  0
 12 13  1  0
 13 14  2  0
 13 15  2  0
 13 16  1  0
 16 17  1  0
 17 18  1  0
 18 19  1  0
 19 20  1  0
 12 21  2  0
 21 22  1  0
 22 23  2  0
 23 24  1  0
 24 25  1  0
 25 26  1  0
 26 27  1  0
 27 28  1  0
 28 29  1  0
  6 30  2  0
 30  2  1  0
 23 10  1  0
 29 24  1  0
 20 16  1  0
  1 31  1  0
  1 32  1  0
  1 33  1  0
  3 34  1  0
  4 35  1  0
  5 36  1  0
 11 37  1  0
 16 38  1  0
 17 39  1  0
 17 40  1  0
 18 41  1  0
 18 42  1  0
 19 43  1  0
 19 44  1  0
 20 45  1  0
 20 46  1  0
 21 47  1  0
 22 48  1  0
 25 49  1  0
 25 50  1  0
 26 51  1  0
 26 52  1  0
 28 53  1  0
 28 54  1  0
 29 55  1  0
 29 56  1  0
 30 57  1  0
M  CHG  2   9  -1  16   1
M  END
>  <UniqueID>  (44) 
43

>  <SMILES>  (44) 
Cc1cccc(C(=O)[N-]c2cc(S(=O)(=O)[NH+]3CCCC3)ccc2N2CCOCC2)c1

>  <Energy>  (44) 
77.47822669569985

>  <Genealogy>  (44) 
Cc1cccc(C(=O)[N-]c2cc(S(=O)(=O)[NH+]3CCCC3)ccc2N2CCOCC2)c1 (protonated)
Cc1cccc(C(=O)[N-]c2cc(S(=O)(=O)[NH+]3CCCC3)ccc2N2CCOCC2)c1 (3D coordinates assigned)
Cc1cccc(C(=O)[N-]c2cc(S(=O)(=O)[NH+]3CCCC3)ccc2N2CCOCC2)c1 (nonaromatic ring conformer: 77.47822669569985 kcal/mol)

>  <smiles>  (44) 
Cc1cccc(C(=O)Nc2cc(S(=O)(=O)N3CCCC3)ccc2N2CCOCC2)c1

>  <score_type>  (44) 
oracle

>  <origin>  (44) 
adgpu

>  <m_score__min__energy>  (44) 
-10.08

>  <m_primary>  (44) 
energy

$$$$
44:0
     RDKit          3D

 54 56  0  0  0  0  0  0  0  0999 V2000
   -7.9300   20.1020  -33.4620 N   0  0  0  0  0  0  0  0  0  0  0  0
   -8.5020   20.7750  -31.9780 S   0  0  0  0  0  0  0  0  0  0  0  0
   -8.4520   19.7270  -30.9010 O   0  0  0  0  0  0  0  0  0  0  0  0
   -9.9270   21.2260  -32.1460 O   0  0  0  0  0  0  0  0  0  0  0  0
   -7.4930   22.1440  -31.5250 C   0  0  0  0  0  0  0  0  0  0  0  0
   -6.6040   22.7040  -32.4520 C   0  0  0  0  0  0  0  0  0  0  0  0
   -5.8110   23.7990  -32.0950 C   0  0  0  0  0  0  0  0  0  0  0  0
   -5.9100   24.3560  -30.8110 C   0  0  0  0  0  0  0  0  0  0  0  0
   -5.0330   25.5070  -30.4140 C   0  0  0  0  0  0  0  0  0  0  0  0
   -3.6380   25.0890  -30.4570 N   0  0  0  0  0  0  0  0  0  0  0  0
   -2.8270   24.8380  -29.3040 C   0  0  0  0  0  0  0  0  0  0  0  0
   -1.9720   25.7000  -28.9660 O   0  0  0  0  0  0  0  0  0  0  0  0
   -3.0060   23.6100  -28.4530 C   0  0  0  0  0  0  0  0  0  0  0  0
   -2.0930   22.5850  -28.8440 O   0  0  0  0  0  0  0  0  0  0  0  0
   -2.1940   21.8170  -30.0150 C   0  0  0  0  0  0  0  0  0  0  0  0
   -1.5530   20.5730  -30.0490 C   0  0  0  0  0  0  0  0  0  0  0  0
   -1.6250   19.7680  -31.1890 C   0  0  0  0  0  0  0  0  0  0  0  0
   -2.3440   20.1950  -32.3120 C   0  0  0  0  0  0  0  0  0  0  0  0
   -2.4550   19.1680  -33.7440 S   0  0  0  0  0  0  0  0  0  0  0  0
   -1.7920   17.8490  -33.4600 O   0  0  0  0  0  0  0  0  0  0  0  0
   -1.7180   19.8210  -34.8800 O   0  0  0  0  0  0  0  0  0  0  0  0
   -4.1170   18.8970  -34.2130 N   0  0  0  0  0  0  0  0  0  0  0  0
   -5.0640   19.4110  -33.1910 C   0  0  0  0  0  0  0  0  0  0  0  0
   -5.6790   18.2980  -32.3300 C   0  0  0  0  0  0  0  0  0  0  0  0
   -6.4270   17.2720  -33.1990 C   0  0  0  0  0  0  0  0  0  0  0  0
   -5.8070   17.1130  -34.5990 C   0  0  0  0  0  0  0  0  0  0  0  0
   -4.3210   17.4810  -34.5880 C   0  0  0  0  0  0  0  0  0  0  0  0
   -2.9820   21.4430  -32.2870 C   0  0  0  0  0  0  0  0  0  0  0  0
   -2.9130   22.2490  -31.1470 C   0  0  0  0  0  0  0  0  0  0  0  0
   -6.7950   23.7880  -29.8810 C   0  0  0  0  0  0  0  0  0  0  0  0
   -7.5870   22.6940  -30.2390 C   0  0  0  0  0  0  0  0  0  0  0  0
   -8.7490   20.0480  -34.1080 H   0  0  0  0  0  0  0  0  0  0  0  0
   -6.5296   22.2806  -33.4645 H   0  0  0  0  0  0  0  0  0  0  0  0
   -5.1064   24.2256  -32.8241 H   0  0  0  0  0  0  0  0  0  0  0  0
   -5.1872   26.3436  -31.1114 H   0  0  0  0  0  0  0  0  0  0  0  0
   -5.2889   25.8295  -29.3940 H   0  0  0  0  0  0  0  0  0  0  0  0
   -2.8252   23.8715  -27.3999 H   0  0  0  0  0  0  0  0  0  0  0  0
   -4.0324   23.2367  -28.5840 H   0  0  0  0  0  0  0  0  0  0  0  0
   -0.9880   20.2263  -29.1712 H   0  0  0  0  0  0  0  0  0  0  0  0
   -1.1142   18.7939  -31.2042 H   0  0  0  0  0  0  0  0  0  0  0  0
   -4.5246   20.1068  -32.5316 H   0  0  0  0  0  0  0  0  0  0  0  0
   -5.8877   19.9072  -33.7253 H   0  0  0  0  0  0  0  0  0  0  0  0
   -4.8765   17.7850  -31.7797 H   0  0  0  0  0  0  0  0  0  0  0  0
   -6.3973   18.7536  -31.6325 H   0  0  0  0  0  0  0  0  0  0  0  0
   -6.4029   16.2967  -32.6909 H   0  0  0  0  0  0  0  0  0  0  0  0
   -7.4562   17.6371  -33.3315 H   0  0  0  0  0  0  0  0  0  0  0  0
   -5.9160   16.0677  -34.9237 H   0  0  0  0  0  0  0  0  0  0  0  0
   -6.3295   17.7891  -35.2917 H   0  0  0  0  0  0  0  0  0  0  0  0
   -3.7992   16.8401  -33.8621 H   0  0  0  0  0  0  0  0  0  0  0  0
   -3.9203   17.3307  -35.6013 H   0  0  0  0  0  0  0  0  0  0  0  0
   -3.5399   21.7899  -33.1692 H   0  0  0  0  0  0  0  0  0  0  0  0
   -3.4219   23.2241  -31.1337 H   0  0  0  0  0  0  0  0  0  0  0  0
   -6.8653   24.2060  -28.8660 H   0  0  0  0  0  0  0  0  0  0  0  0
   -8.2873   22.2625  -29.5086 H   0  0  0  0  0  0  0  0  0  0  0  0
  1  2  1  0
  2  3  2  0
  2  4  2  0
  2  5  1  0
  5  6  2  0
  6  7  1  0
  7  8  2  0
  8  9  1  0
  9 10  1  0
 10 11  1  0
 11 12  2  0
 11 13  1  0
 13 14  1  0
 14 15  1  0
 15 16  2  0
 16 17  1  0
 17 18  2  0
 18 19  1  0
 19 20  2  0
 19 21  2  0
 19 22  1  0
 22 23  1  0
 23 24  1  0
 24 25  1  0
 25 26  1  0
 26 27  1  0
 18 28  1  0
 28 29  2  0
  8 30  1  0
 30 31  2  0
 31  5  1  0
 29 15  1  0
 27 22  1  0
  1 32  1  0
  6 33  1  0
  7 34  1  0
  9 35  1  0
  9 36  1  0
 13 37  1  0
 13 38  1  0
 16 39  1  0
 17 40  1  0
 23 41  1  0
 23 42  1  0
 24 43  1  0
 24 44  1  0
 25 45  1  0
 25 46  1  0
 26 47  1  0
 26 48  1  0
 27 49  1  0
 27 50  1  0
 28 51  1  0
 29 52  1  0
 30 53  1  0
 31 54  1  0
M  CHG  2   1  -1  10  -1
M  END
>  <UniqueID>  (45) 
44

>  <SMILES>  (45) 
[NH-]S(=O)(=O)c1ccc(C[N-]C(=O)COc2ccc(S(=O)(=O)N3CCCCC3)cc2)cc1

>  <Energy>  (45) 
56.395544312094536

>  <Genealogy>  (45) 
[NH-]S(=O)(=O)c1ccc(C[N-]C(=O)COc2ccc(S(=O)(=O)N3CCCCC3)cc2)cc1 (protonated)
[NH-]S(=O)(=O)c1ccc(C[N-]C(=O)COc2ccc(S(=O)(=O)N3CCCCC3)cc2)cc1 (3D coordinates assigned)
[NH-]S(=O)(=O)c1ccc(C[N-]C(=O)COc2ccc(S(=O)(=O)N3CCCCC3)cc2)cc1 (nonaromatic ring conformer: 56.395544312094536 kcal/mol)

>  <smiles>  (45) 
NS(=O)(=O)c1ccc(CNC(=O)COc2ccc(S(=O)(=O)N3CCCCC3)cc2)cc1

>  <score_type>  (45) 
oracle

>  <origin>  (45) 
adgpu

>  <m_score__min__energy>  (45) 
-12.27

>  <m_primary>  (45) 
energy

$$$$
45:0
     RDKit          3D

 62 65  0  0  0  0  0  0  0  0999 V2000
   -0.4520   20.4350  -27.4450 C   0  0  0  0  0  0  0  0  0  0  0  0
   -1.5750   21.3150  -27.0850 N   0  0  0  0  0  0  0  0  0  0  0  0
   -2.7820   20.9480  -27.8580 C   0  0  0  0  0  0  0  0  0  0  0  0
   -3.8130   22.0870  -27.8430 C   0  0  0  0  0  0  0  0  0  0  0  0
   -3.2770   23.3400  -28.4290 N   0  0  0  0  0  0  0  0  0  0  0  0
   -3.9270   23.6380  -30.0280 S   0  0  0  0  0  0  0  0  0  0  0  0
   -5.4290   23.5530  -29.9760 O   0  0  0  0  0  0  0  0  0  0  0  0
   -3.5550   25.0250  -30.4700 O   0  0  0  0  0  0  0  0  0  0  0  0
   -3.3210   22.4700  -31.2070 C   0  0  0  0  0  0  0  0  0  0  0  0
   -3.9780   22.2970  -32.4330 C   0  0  0  0  0  0  0  0  0  0  0  0
   -3.5040   21.3690  -33.3620 C   0  0  0  0  0  0  0  0  0  0  0  0
   -2.3530   20.6150  -33.0940 C   0  0  0  0  0  0  0  0  0  0  0  0
   -1.9290   19.6440  -34.0640 N   0  0  0  0  0  0  0  0  0  0  0  0
   -2.0070   18.2180  -33.9550 C   0  0  0  0  0  0  0  0  0  0  0  0
   -0.9800   17.5390  -33.6910 O   0  0  0  0  0  0  0  0  0  0  0  0
   -3.2760   17.5810  -34.1460 N   0  0  0  0  0  0  0  0  0  0  0  0
   -4.5430   17.9740  -33.5940 C   0  0  0  0  0  0  0  0  0  0  0  0
   -5.0740   17.3860  -32.4300 C   0  0  0  0  0  0  0  0  0  0  0  0
   -6.3110   17.8070  -31.9300 C   0  0  0  0  0  0  0  0  0  0  0  0
   -7.0350   18.8120  -32.5870 C   0  0  0  0  0  0  0  0  0  0  0  0
   -8.6000   19.3370  -31.9560 S   0  0  0  0  0  0  0  0  0  0  0  0
   -9.2000   18.2130  -31.1550 O   0  0  0  0  0  0  0  0  0  0  0  0
   -9.5220   19.6150  -33.1110 O   0  0  0  0  0  0  0  0  0  0  0  0
   -8.4940   20.7640  -30.9410 N   0  0  0  0  0  0  0  0  0  0  0  0
   -7.1900   21.4490  -31.0290 C   0  0  0  0  0  0  0  0  0  0  0  0
   -7.1680   22.5410  -32.1090 C   0  0  0  0  0  0  0  0  0  0  0  0
   -8.2460   23.4380  -31.9360 O   0  0  0  0  0  0  0  0  0  0  0  0
   -9.4590   22.7460  -32.1420 C   0  0  0  0  0  0  0  0  0  0  0  0
   -9.6580   21.6670  -31.0660 C   0  0  0  0  0  0  0  0  0  0  0  0
   -6.5300   19.3620  -33.7720 C   0  0  0  0  0  0  0  0  0  0  0  0
   -5.2910   18.9450  -34.2710 C   0  0  0  0  0  0  0  0  0  0  0  0
   -1.7000   20.7770  -31.8580 C   0  0  0  0  0  0  0  0  0  0  0  0
   -2.1770   21.7070  -30.9260 C   0  0  0  0  0  0  0  0  0  0  0  0
   -1.8010   23.4060  -28.4550 C   0  0  0  0  0  0  0  0  0  0  0  0
   -1.1990   22.7480  -27.2050 C   0  0  0  0  0  0  0  0  0  0  0  0
    0.0276   20.0592  -26.5291 H   0  0  0  0  0  0  0  0  0  0  0  0
   -0.8260   19.5870  -28.0375 H   0  0  0  0  0  0  0  0  0  0  0  0
    0.2820   21.0009  -28.0375 H   0  0  0  0  0  0  0  0  0  0  0  0
   -2.4928   20.7382  -28.8984 H   0  0  0  0  0  0  0  0  0  0  0  0
   -3.2360   20.0583  -27.3973 H   0  0  0  0  0  0  0  0  0  0  0  0
   -4.6940   21.7742  -28.4226 H   0  0  0  0  0  0  0  0  0  0  0  0
   -4.0736   22.2909  -26.7939 H   0  0  0  0  0  0  0  0  0  0  0  0
   -4.8715   22.8954  -32.6643 H   0  0  0  0  0  0  0  0  0  0  0  0
   -4.0386   21.2281  -34.3130 H   0  0  0  0  0  0  0  0  0  0  0  0
   -4.5145   16.5931  -31.9121 H   0  0  0  0  0  0  0  0  0  0  0  0
   -6.7175   17.3473  -31.0171 H   0  0  0  0  0  0  0  0  0  0  0  0
   -6.9686   21.9115  -30.0558 H   0  0  0  0  0  0  0  0  0  0  0  0
   -6.4358   20.6959  -31.3013 H   0  0  0  0  0  0  0  0  0  0  0  0
   -6.2214   23.0971  -32.0407 H   0  0  0  0  0  0  0  0  0  0  0  0
   -7.2607   22.0637  -33.0957 H   0  0  0  0  0  0  0  0  0  0  0  0
  -10.2944   23.4601  -32.0962 H   0  0  0  0  0  0  0  0  0  0  0  0
   -9.4260   22.2602  -33.1283 H   0  0  0  0  0  0  0  0  0  0  0  0
   -9.8249   22.1620  -30.0979 H   0  0  0  0  0  0  0  0  0  0  0  0
  -10.5222   21.0555  -31.3647 H   0  0  0  0  0  0  0  0  0  0  0  0
   -7.1097   20.1248  -34.3125 H   0  0  0  0  0  0  0  0  0  0  0  0
   -4.9018   19.3832  -35.2019 H   0  0  0  0  0  0  0  0  0  0  0  0
   -0.8123   20.1713  -31.6233 H   0  0  0  0  0  0  0  0  0  0  0  0
   -1.6522   21.8402  -29.9685 H   0  0  0  0  0  0  0  0  0  0  0  0
   -1.4331   22.8824  -29.3497 H   0  0  0  0  0  0  0  0  0  0  0  0
   -1.4976   24.4631  -28.4753 H   0  0  0  0  0  0  0  0  0  0  0  0
   -0.1029   22.8227  -27.2591 H   0  0  0  0  0  0  0  0  0  0  0  0
   -1.5947   23.2745  -26.3240 H   0  0  0  0  0  0  0  0  0  0  0  0
  1  2  1  0
  2  3  1  0
  3  4  1  0
  4  5  1  0
  5  6  1  0
  6  7  2  0
  6  8  2  0
  6  9  1  0
  9 10  2  0
 10 11  1  0
 11 12  2  0
 12 13  1  0
 13 14  1  0
 14 15  2  0
 14 16  1  0
 16 17  1  0
 17 18  2  0
 18 19  1  0
 19 20  2  0
 20 21  1  0
 21 22  2  0
 21 23  2  0
 21 24  1  0
 24 25  1  0
 25 26  1  0
 26 27  1  0
 27 28  1  0
 28 29  1  0
 20 30  1  0
 30 31  2  0
 12 32  1  0
 32 33  2  0
  5 34  1  0
 34 35  1  0
 35  2  1  0
 33  9  1  0
 31 17  1  0
 29 24  1  0
  1 36  1  0
  1 37  1  0
  1 38  1  0
  3 39  1  0
  3 40  1  0
  4 41  1  0
  4 42  1  0
 10 43  1  0
 11 44  1  0
 18 45  1  0
 19 46  1  0
 25 47  1  0
 25 48  1  0
 26 49  1  0
 26 50  1  0
 28 51  1  0
 28 52  1  0
 29 53  1  0
 29 54  1  0
 30 55  1  0
 31 56  1  0
 32 57  1  0
 33 58  1  0
 34 59  1  0
 34 60  1  0
 35 61  1  0
 35 62  1  0
M  CHG  2  13  -1  16  -1
M  END
>  <UniqueID>  (46) 
45

>  <SMILES>  (46) 
CN1CCN(S(=O)(=O)c2ccc([N-]C(=O)[N-]c3ccc(S(=O)(=O)N4CCOCC4)cc3)cc2)CC1

>  <Energy>  (46) 
86.2237913696009

>  <Genealogy>  (46) 
CN1CCN(S(=O)(=O)c2ccc([N-]C(=O)[N-]c3ccc(S(=O)(=O)N4CCOCC4)cc3)cc2)CC1 (protonated)
CN1CCN(S(=O)(=O)c2ccc([N-]C(=O)[N-]c3ccc(S(=O)(=O)N4CCOCC4)cc3)cc2)CC1 (3D coordinates assigned)
CN1CCN(S(=O)(=O)c2ccc([N-]C(=O)[N-]c3ccc(S(=O)(=O)N4CCOCC4)cc3)cc2)CC1 (nonaromatic ring conformer: 86.2237913696009 kcal/mol)

>  <smiles>  (46) 
CN1CCN(S(=O)(=O)c2ccc(NC(=O)Nc3ccc(S(=O)(=O)N4CCOCC4)cc3)cc2)CC1

>  <score_type>  (46) 
oracle

>  <origin>  (46) 
adgpu

>  <m_score__min__energy>  (46) 
-12.630000000000001

>  <m_primary>  (46) 
energy

$$$$
46:0
     RDKit          3D

 52 55  0  0  0  0  0  0  0  0999 V2000
   -0.3287   30.0007  -25.0305 H   0  0  0  0  0  0  0  0  0  0  0  0
   -0.1820   29.0580  -25.5780 C   0  0  0  0  0  0  0  0  0  0  0  0
    0.9510   28.8820  -26.3760 C   0  0  0  0  0  0  0  0  0  0  0  0
    1.6999   29.6842  -26.4504 H   0  0  0  0  0  0  0  0  0  0  0  0
    1.1350   27.6890  -27.0800 C   0  0  0  0  0  0  0  0  0  0  0  0
    2.0382   27.5494  -27.6922 H   0  0  0  0  0  0  0  0  0  0  0  0
    0.1760   26.6690  -27.0110 C   0  0  0  0  0  0  0  0  0  0  0  0
    0.4200   25.4430  -27.7220 N   0  0  0  0  0  0  0  0  0  0  0  0
   -0.4440   24.7510  -28.4060 C   0  0  0  0  0  0  0  0  0  0  0  0
   -0.0510   23.5830  -28.9760 N   0  0  0  0  0  0  0  0  0  0  0  0
   -0.9200   22.8480  -29.7190 C   0  0  0  0  0  0  0  0  0  0  0  0
   -0.5070   21.6030  -30.3180 N   0  0  0  0  0  0  0  0  0  0  0  0
   -0.3030   20.4010  -29.4950 C   0  0  0  0  0  0  0  0  0  0  0  0
   -0.0829   20.7106  -28.4627 H   0  0  0  0  0  0  0  0  0  0  0  0
   -1.2212   19.7971  -29.5421 H   0  0  0  0  0  0  0  0  0  0  0  0
    0.8660   19.5340  -30.0160 C   0  0  0  0  0  0  0  0  0  0  0  0
    1.7684   19.7906  -29.4417 H   0  0  0  0  0  0  0  0  0  0  0  0
    0.5629   18.4845  -29.8872 H   0  0  0  0  0  0  0  0  0  0  0  0
    1.1630   19.7170  -31.4520 N   0  0  0  0  0  0  0  0  0  0  0  0
    1.9030   20.4490  -31.5650 H   0  0  0  0  0  0  0  0  0  0  0  0
    1.5390   18.8210  -31.8390 H   0  0  0  0  0  0  0  0  0  0  0  0
   -0.0210   20.1030  -32.2270 C   0  0  0  0  0  0  0  0  0  0  0  0
    0.2355   20.1305  -33.2963 H   0  0  0  0  0  0  0  0  0  0  0  0
   -0.8219   19.3684  -32.0568 H   0  0  0  0  0  0  0  0  0  0  0  0
   -0.5020   21.4870  -31.7840 C   0  0  0  0  0  0  0  0  0  0  0  0
    0.1694   22.2513  -32.2023 H   0  0  0  0  0  0  0  0  0  0  0  0
   -1.5295   21.6325  -32.1489 H   0  0  0  0  0  0  0  0  0  0  0  0
   -2.1910   23.3000  -29.8930 N   0  0  0  0  0  0  0  0  0  0  0  0
   -2.5960   24.4650  -29.3260 C   0  0  0  0  0  0  0  0  0  0  0  0
   -3.8020   24.9210  -29.5050 N   0  0  0  0  0  0  0  0  0  0  0  0
   -4.8750   24.2670  -30.2060 C   0  0  0  0  0  0  0  0  0  0  0  0
   -4.5600   23.4220  -31.2780 C   0  0  0  0  0  0  0  0  0  0  0  0
   -3.5074   23.2564  -31.5511 H   0  0  0  0  0  0  0  0  0  0  0  0
   -5.5720   22.7880  -32.0030 C   0  0  0  0  0  0  0  0  0  0  0  0
   -5.3115   22.1044  -32.8245 H   0  0  0  0  0  0  0  0  0  0  0  0
   -6.9210   23.0200  -31.6870 C   0  0  0  0  0  0  0  0  0  0  0  0
   -7.9840   22.3610  -32.3890 N   0  0  0  0  0  0  0  0  0  0  0  0
   -8.8320   21.3230  -31.8810 C   0  0  0  0  0  0  0  0  0  0  0  0
   -9.8340   21.6400  -31.1880 O   0  0  0  0  0  0  0  0  0  0  0  0
   -8.5890   19.8750  -32.1840 C   0  0  0  0  0  0  0  0  0  0  0  0
   -8.4949   19.3141  -31.2424 H   0  0  0  0  0  0  0  0  0  0  0  0
   -9.4327   19.4756  -32.7659 H   0  0  0  0  0  0  0  0  0  0  0  0
   -7.6612   19.7729  -32.7659 H   0  0  0  0  0  0  0  0  0  0  0  0
   -7.2380   23.8650  -30.6180 C   0  0  0  0  0  0  0  0  0  0  0  0
   -8.2909   24.0287  -30.3450 H   0  0  0  0  0  0  0  0  0  0  0  0
   -6.2260   24.5030  -29.8940 C   0  0  0  0  0  0  0  0  0  0  0  0
   -6.4875   25.1920  -29.0774 H   0  0  0  0  0  0  0  0  0  0  0  0
   -1.7160   25.1930  -28.5950 N   0  0  0  0  0  0  0  0  0  0  0  0
   -0.9500   26.8400  -26.1810 C   0  0  0  0  0  0  0  0  0  0  0  0
   -1.6901   26.0317  -26.0872 H   0  0  0  0  0  0  0  0  0  0  0  0
   -1.1290   28.0350  -25.4760 C   0  0  0  0  0  0  0  0  0  0  0  0
   -2.0165   28.1698  -24.8403 H   0  0  0  0  0  0  0  0  0  0  0  0
  1  2  1  0
  2  3  2  0
  3  4  1  0
  3  5  1  0
  5  6  1  0
  5  7  2  0
  7  8  1  0
  8  9  2  3
  9 10  1  0
 10 11  2  0
 11 12  1  0
 12 13  1  0
 13 14  1  0
 13 15  1  0
 13 16  1  0
 16 17  1  0
 16 18  1  0
 16 19  1  0
 19 20  1  0
 19 21  1  0
 19 22  1  0
 22 23  1  0
 22 24  1  0
 22 25  1  0
 25 26  1  0
 25 27  1  0
 11 28  1  0
 28 29  1  0
 29 30  2  0
 30 31  1  0
 31 32  2  0
 32 33  1  0
 32 34  1  0
 34 35  1  0
 34 36  2  0
 36 37  1  0
 37 38  1  0
 38 39  2  0
 38 40  1  0
 40 41  1  0
 40 42  1  0
 40 43  1  0
 36 44  1  0
 44 45  1  0
 44 46  2  0
 46 47  1  0
 29 48  1  0
  7 49  1  0
 49 50  1  0
 49 51  2  0
 51 52  1  0
 51  2  1  0
 48  9  1  0
 25 12  1  0
 46 31  1  0
M  CHG  4  19   1  28  -1  37  -1  48  -1
M  END
>  <UniqueID>  (47) 
46

>  <SMILES>  (47) 
CC(=O)[N-]c1ccc(/N=c2\[n-]c(N3CC[NH2+]CC3)nc(=Nc3ccccc3)[n-]2)cc1

>  <Energy>  (47) 
75.45094712358797

>  <Genealogy>  (47) 
CC(=O)[N-]c1ccc(N=c2[n-]c(N3CC[NH2+]CC3)nc(=Nc3ccccc3)[n-]2)cc1 (protonated)
CC(=O)[N-]c1ccc(/N=c2\[n-]c(N3CC[NH2+]CC3)nc(=Nc3ccccc3)[n-]2)cc1 (cis-trans isomerization)
CC(=O)[N-]c1ccc(/N=c2\[n-]c(N3CC[NH2+]CC3)nc(=Nc3ccccc3)[n-]2)cc1 (3D coordinates assigned)
CC(=O)[N-]c1ccc(/N=c2\[n-]c(N3CC[NH2+]CC3)nc(=Nc3ccccc3)[n-]2)cc1 (nonaromatic ring conformer: 75.45094712358797 kcal/mol)

>  <smiles>  (47) 
CC(=O)Nc1ccc(N=c2[nH]c(N3CCNCC3)nc(=Nc3ccccc3)[nH]2)cc1

>  <score_type>  (47) 
oracle

>  <origin>  (47) 
adgpu

>  <m_score__min__energy>  (47) 
-9.3499999999999996

>  <m_primary>  (47) 
energy

$$$$
47:0
     RDKit          3D

 61 64  0  0  0  0  0  0  0  0999 V2000
   -0.1960   23.1520  -34.7500 H   0  0  0  0  0  0  0  0  0  0  0  0
    0.1770   22.2220  -35.0500 N   0  0  0  0  0  0  0  0  0  0  0  0
   -0.3720   21.1060  -34.6920 C   0  0  0  0  0  0  0  0  0  0  0  0
    0.1660   19.9300  -35.1180 N   0  0  0  0  0  0  0  0  0  0  0  0
   -0.3680   18.7290  -34.7720 C   0  0  0  0  0  0  0  0  0  0  0  0
    0.0914   17.7980  -35.1357 H   0  0  0  0  0  0  0  0  0  0  0  0
   -1.5010   18.6760  -33.9540 C   0  0  0  0  0  0  0  0  0  0  0  0
   -2.0670   17.4080  -33.5790 C   0  0  0  0  0  0  0  0  0  0  0  0
   -2.5400   16.3440  -33.2680 C   0  0  0  0  0  0  0  0  0  0  0  0
   -3.1090   15.0680  -32.8950 C   0  0  0  0  0  0  0  0  0  0  0  0
   -4.4460   14.9670  -32.4430 C   0  0  0  0  0  0  0  0  0  0  0  0
   -5.3630   16.1310  -32.3920 C   0  0  0  0  0  0  0  0  0  0  0  0
   -5.7700   16.6430  -31.1510 C   0  0  0  0  0  0  0  0  0  0  0  0
   -5.4019   16.1819  -30.2226 H   0  0  0  0  0  0  0  0  0  0  0  0
   -6.6400   17.7350  -31.0860 C   0  0  0  0  0  0  0  0  0  0  0  0
   -6.9508   18.1273  -30.1064 H   0  0  0  0  0  0  0  0  0  0  0  0
   -7.1210   18.3360  -32.2620 C   0  0  0  0  0  0  0  0  0  0  0  0
   -8.0460   19.4910  -32.1970 C   0  0  0  0  0  0  0  0  0  0  0  0
   -9.2900   19.2880  -32.1970 O   0  0  0  0  0  0  0  0  0  0  0  0
   -7.5560   20.8400  -32.1170 N   0  0  0  0  0  0  0  0  0  0  0  0
   -6.5880   21.3480  -33.0940 C   0  0  0  0  0  0  0  0  0  0  0  0
   -6.0002   20.5124  -33.5018 H   0  0  0  0  0  0  0  0  0  0  0  0
   -7.1156   21.8495  -33.9187 H   0  0  0  0  0  0  0  0  0  0  0  0
   -5.6570   22.3380  -32.3920 C   0  0  0  0  0  0  0  0  0  0  0  0
   -5.1210   21.8101  -31.5895 H   0  0  0  0  0  0  0  0  0  0  0  0
   -4.9633   22.7375  -33.1464 H   0  0  0  0  0  0  0  0  0  0  0  0
   -6.3920   23.4880  -31.7990 N   0  0  0  0  0  0  0  0  0  0  0  0
   -6.3660   24.2700  -32.4950 H   0  0  0  0  0  0  0  0  0  0  0  0
   -5.5400   24.0740  -30.3860 S   0  0  0  0  0  0  0  0  0  0  0  0
   -4.2440   24.7120  -30.8060 O   0  0  0  0  0  0  0  0  0  0  0  0
   -5.2430   22.9360  -29.4500 O   0  0  0  0  0  0  0  0  0  0  0  0
   -6.5120   25.2990  -29.5330 C   0  0  0  0  0  0  0  0  0  0  0  0
   -6.4034   25.1621  -28.4470 H   0  0  0  0  0  0  0  0  0  0  0  0
   -6.1629   26.3039  -29.8126 H   0  0  0  0  0  0  0  0  0  0  0  0
   -7.5700   25.1874  -29.8126 H   0  0  0  0  0  0  0  0  0  0  0  0
   -7.8230   23.2230  -31.4890 C   0  0  0  0  0  0  0  0  0  0  0  0
   -8.1202   23.8624  -30.6447 H   0  0  0  0  0  0  0  0  0  0  0  0
   -8.3968   23.4419  -32.4016 H   0  0  0  0  0  0  0  0  0  0  0  0
   -8.1110   21.7580  -31.1150 C   0  0  0  0  0  0  0  0  0  0  0  0
   -7.6566   21.5405  -30.1371 H   0  0  0  0  0  0  0  0  0  0  0  0
   -9.2009   21.6147  -31.0742 H   0  0  0  0  0  0  0  0  0  0  0  0
   -6.7460   17.7960  -33.5030 C   0  0  0  0  0  0  0  0  0  0  0  0
   -7.1370   18.2384  -34.4311 H   0  0  0  0  0  0  0  0  0  0  0  0
   -5.8800   16.7010  -33.5680 C   0  0  0  0  0  0  0  0  0  0  0  0
   -5.6011   16.2824  -34.5463 H   0  0  0  0  0  0  0  0  0  0  0  0
   -4.9100   13.7650  -32.0090 N   0  0  0  0  0  0  0  0  0  0  0  0
   -4.1300   12.6560  -32.0200 C   0  0  0  0  0  0  0  0  0  0  0  0
   -4.5342   11.6969  -31.6639 H   0  0  0  0  0  0  0  0  0  0  0  0
   -2.8530   12.7270  -32.4690 N   0  0  0  0  0  0  0  0  0  0  0  0
   -2.3210   13.8960  -32.9140 C   0  0  0  0  0  0  0  0  0  0  0  0
   -0.8810   13.9030  -33.3610 C   0  0  0  0  0  0  0  0  0  0  0  0
   -0.3863   14.8030  -32.9670 H   0  0  0  0  0  0  0  0  0  0  0  0
   -0.3906   12.9956  -32.9787 H   0  0  0  0  0  0  0  0  0  0  0  0
   -0.7820   13.9050  -34.8830 C   0  0  0  0  0  0  0  0  0  0  0  0
    0.2765   13.9264  -35.1816 H   0  0  0  0  0  0  0  0  0  0  0  0
   -1.2574   12.9971  -35.2826 H   0  0  0  0  0  0  0  0  0  0  0  0
   -1.2937   14.7930  -35.2826 H   0  0  0  0  0  0  0  0  0  0  0  0
   -2.0750   19.8680  -33.5030 C   0  0  0  0  0  0  0  0  0  0  0  0
   -2.9676   19.8424  -32.8606 H   0  0  0  0  0  0  0  0  0  0  0  0
   -1.5110   21.0920  -33.8710 C   0  0  0  0  0  0  0  0  0  0  0  0
   -1.9549   22.0356  -33.5210 H   0  0  0  0  0  0  0  0  0  0  0  0
  1  2  1  0
  2  3  2  0
  3  4  1  0
  4  5  1  0
  5  6  1  0
  5  7  2  0
  7  8  1  0
  8  9  3  0
  9 10  1  0
 10 11  1  0
 11 12  1  0
 12 13  2  0
 13 14  1  0
 13 15  1  0
 15 16  1  0
 15 17  2  0
 17 18  1  0
 18 19  2  0
 18 20  1  0
 20 21  1  0
 21 22  1  0
 21 23  1  0
 21 24  1  0
 24 25  1  0
 24 26  1  0
 24 27  1  0
 27 28  1  0
 27 29  1  0
 29 30  2  0
 29 31  2  0
 29 32  1  0
 32 33  1  0
 32 34  1  0
 32 35  1  0
 27 36  1  0
 36 37  1  0
 36 38  1  0
 36 39  1  0
 39 40  1  0
 39 41  1  0
 17 42  1  0
 42 43  1  0
 42 44  2  0
 44 45  1  0
 11 46  2  0
 46 47  1  0
 47 48  1  0
 47 49  2  0
 49 50  1  0
 50 51  1  0
 51 52  1  0
 51 53  1  0
 51 54  1  0
 54 55  1  0
 54 56  1  0
 54 57  1  0
  7 58  1  0
 58 59  1  0
 58 60  2  0
 60 61  1  0
 60  3  1  0
 50 10  2  0
 44 12  1  0
 39 20  1  0
M  CHG  2   4  -1  27   1
M  END
>  <UniqueID>  (48) 
47

>  <SMILES>  (48) 
[H]/N=c1\ccc(C#Cc2c(CC)ncnc2-c2ccc(C(=O)N3CC[NH+](S(C)(=O)=O)CC3)cc2)c[n-]1

>  <Energy>  (48) 
73.11892185180452

>  <Genealogy>  (48) 
CCc1ncnc(-c2ccc(C(=O)N3CC[NH+](S(C)(=O)=O)CC3)cc2)c1C#Cc1ccc(=N)[n-]c1 (protonated)
[H]/N=c1\ccc(C#Cc2c(CC)ncnc2-c2ccc(C(=O)N3CC[NH+](S(C)(=O)=O)CC3)cc2)c[n-]1 (cis-trans isomerization)
[H]/N=c1\ccc(C#Cc2c(CC)ncnc2-c2ccc(C(=O)N3CC[NH+](S(C)(=O)=O)CC3)cc2)c[n-]1 (3D coordinates assigned)
[H]/N=c1\ccc(C#Cc2c(CC)ncnc2-c2ccc(C(=O)N3CC[NH+](S(C)(=O)=O)CC3)cc2)c[n-]1 (nonaromatic ring conformer: 73.11892185180452 kcal/mol)

>  <smiles>  (48) 
CCc1ncnc(-c2ccc(C(=O)N3CCN(S(C)(=O)=O)CC3)cc2)c1C#Cc1ccc(=N)[nH]c1

>  <score_type>  (48) 
oracle

>  <origin>  (48) 
adgpu

>  <m_score__min__energy>  (48) 
-11.15

>  <m_primary>  (48) 
energy

$$$$
48:0
     RDKit          3D

 37 39  0  0  0  0  0  0  0  0999 V2000
   -5.6050   20.8520  -31.7890 C   0  0  0  0  0  0  0  0  0  0  0  0
   -4.1730   21.1060  -32.1550 C   0  0  0  0  0  0  0  0  0  0  0  0
   -3.7940   20.9080  -33.4470 N   0  0  0  0  0  0  0  0  0  0  0  0
   -2.5380   21.1030  -33.8540 N   0  0  0  0  0  0  0  0  0  0  0  0
   -1.5740   21.5160  -32.9900 C   0  0  0  0  0  0  0  0  0  0  0  0
   -0.3970   21.7060  -33.3960 O   0  0  0  0  0  0  0  0  0  0  0  0
   -1.8970   21.7260  -31.6510 C   0  0  0  0  0  0  0  0  0  0  0  0
   -3.2030   21.4990  -31.2110 C   0  0  0  0  0  0  0  0  0  0  0  0
   -3.5900   21.7770  -29.4720 S   0  0  0  0  0  0  0  0  0  0  0  0
   -4.6790   23.1740  -29.7950 C   0  0  0  0  0  0  0  0  0  0  0  0
   -6.0660   22.9930  -29.7060 C   0  0  0  0  0  0  0  0  0  0  0  0
   -6.9330   24.0630  -29.9370 C   0  0  0  0  0  0  0  0  0  0  0  0
   -6.4200   25.3250  -30.2320 C   0  0  0  0  0  0  0  0  0  0  0  0
   -5.0390   25.5240  -30.2980 C   0  0  0  0  0  0  0  0  0  0  0  0
   -4.1540   24.4460  -30.0940 C   0  0  0  0  0  0  0  0  0  0  0  0
   -2.7300   24.6330  -30.0910 N   0  0  0  0  0  0  0  0  0  0  0  0
   -1.8890   24.8940  -28.9590 C   0  0  0  0  0  0  0  0  0  0  0  0
   -1.6220   26.0800  -28.6250 O   0  0  0  0  0  0  0  0  0  0  0  0
   -1.2760   23.7660  -28.2210 C   0  0  0  0  0  0  0  0  0  0  0  0
   -1.5160   23.5930  -26.8470 C   0  0  0  0  0  0  0  0  0  0  0  0
   -0.9240   22.5240  -26.1690 C   0  0  0  0  0  0  0  0  0  0  0  0
   -0.1180   21.6560  -26.8350 N   0  0  0  0  0  0  0  0  0  0  0  0
    0.1350   21.7960  -28.1630 C   0  0  0  0  0  0  0  0  0  0  0  0
   -0.4370   22.8490  -28.8800 C   0  0  0  0  0  0  0  0  0  0  0  0
   -5.7059   20.8341  -30.6938 H   0  0  0  0  0  0  0  0  0  0  0  0
   -6.2366   21.6521  -32.2024 H   0  0  0  0  0  0  0  0  0  0  0  0
   -5.9229   19.8835  -32.2024 H   0  0  0  0  0  0  0  0  0  0  0  0
   -2.3010   20.9380  -34.8580 H   0  0  0  0  0  0  0  0  0  0  0  0
   -1.1273   22.0689  -30.9439 H   0  0  0  0  0  0  0  0  0  0  0  0
   -6.4736   22.0031  -29.4529 H   0  0  0  0  0  0  0  0  0  0  0  0
   -8.0211   23.9099  -29.8861 H   0  0  0  0  0  0  0  0  0  0  0  0
   -7.1047   26.1666  -30.4134 H   0  0  0  0  0  0  0  0  0  0  0  0
   -4.6401   26.5269  -30.5102 H   0  0  0  0  0  0  0  0  0  0  0  0
   -2.1673   24.2963  -26.3074 H   0  0  0  0  0  0  0  0  0  0  0  0
   -1.1108   22.3849  -25.0939 H   0  0  0  0  0  0  0  0  0  0  0  0
    0.7924   21.0776  -28.6746 H   0  0  0  0  0  0  0  0  0  0  0  0
   -0.2325   22.9609  -29.9550 H   0  0  0  0  0  0  0  0  0  0  0  0
  1  2  1  0
  2  3  2  0
  3  4  1  0
  4  5  1  0
  5  6  2  0
  5  7  1  0
  7  8  2  0
  8  9  1  0
  9 10  1  0
 10 11  2  0
 11 12  1  0
 12 13  2  0
 13 14  1  0
 14 15  2  0
 15 16  1  0
 16 17  1  0
 17 18  2  0
 17 19  1  0
 19 20  2  0
 20 21  1  0
 21 22  2  0
 22 23  1  0
 23 24  2  0
  8  2  1  0
 15 10  1  0
 24 19  1  0
  1 25  1  0
  1 26  1  0
  1 27  1  0
  4 28  1  0
  7 29  1  0
 11 30  1  0
 12 31  1  0
 13 32  1  0
 14 33  1  0
 20 34  1  0
 21 35  1  0
 23 36  1  0
 24 37  1  0
M  CHG  1  16  -1
M  END
>  <UniqueID>  (49) 
48

>  <SMILES>  (49) 
Cc1n[nH]c(=O)cc1Sc1ccccc1[N-]C(=O)c1ccncc1

>  <Energy>  (49) 
41.475539413294705

>  <Genealogy>  (49) 
Cc1n[nH]c(=O)cc1Sc1ccccc1[N-]C(=O)c1ccncc1 (protonated)
Cc1n[nH]c(=O)cc1Sc1ccccc1[N-]C(=O)c1ccncc1 (3D coordinates assigned)
Cc1n[nH]c(=O)cc1Sc1ccccc1[N-]C(=O)c1ccncc1 (optimized conformer: 41.475539413294705 kcal/mol)

>  <smiles>  (49) 
Cc1n[nH]c(=O)cc1Sc1ccccc1NC(=O)c1ccncc1

>  <score_type>  (49) 
oracle

>  <origin>  (49) 
adgpu

>  <m_score__min__energy>  (49) 
-9.4900000000000002

>  <m_primary>  (49) 
energy

$$$$
49:0
     RDKit          3D

 48 50  0  0  0  0  0  0  0  0999 V2000
   -7.5940   22.5200  -30.6380 C   0  0  0  0  0  0  0  0  0  0  0  0
   -7.0670   23.8980  -31.0230 C   0  0  0  0  0  0  0  0  0  0  0  0
   -5.3790   24.1180  -30.4690 S   0  0  0  0  0  0  0  0  0  0  0  0
   -5.3150   23.8800  -28.9870 O   0  0  0  0  0  0  0  0  0  0  0  0
   -4.9780   25.5370  -30.7670 O   0  0  0  0  0  0  0  0  0  0  0  0
   -4.2750   22.9990  -31.2950 C   0  0  0  0  0  0  0  0  0  0  0  0
   -4.6780   22.4340  -32.5280 C   0  0  0  0  0  0  0  0  0  0  0  0
   -3.8020   21.6130  -33.2470 C   0  0  0  0  0  0  0  0  0  0  0  0
   -2.5700   21.3800  -32.7330 N   0  0  0  0  0  0  0  0  0  0  0  0
   -1.5440   20.6480  -33.1970 C   0  0  0  0  0  0  0  0  0  0  0  0
   -1.5370   19.9190  -34.4270 N   0  0  0  0  0  0  0  0  0  0  0  0
   -0.5140   20.7240  -32.2780 C   0  0  0  0  0  0  0  0  0  0  0  0
    0.8180   20.0580  -32.3810 C   0  0  0  0  0  0  0  0  0  0  0  0
   -0.8910   21.5010  -31.2340 N   0  0  0  0  0  0  0  0  0  0  0  0
   -2.1500   21.8800  -31.5560 C   0  0  0  0  0  0  0  0  0  0  0  0
   -2.9850   22.6890  -30.7750 C   0  0  0  0  0  0  0  0  0  0  0  0
   -2.4900   23.1820  -29.4740 C   0  0  0  0  0  0  0  0  0  0  0  0
   -2.3130   24.4880  -29.2450 C   0  0  0  0  0  0  0  0  0  0  0  0
   -1.8290   25.0480  -27.9590 C   0  0  0  0  0  0  0  0  0  0  0  0
   -0.5910   25.7120  -27.9410 C   0  0  0  0  0  0  0  0  0  0  0  0
   -0.0960   26.2610  -26.7560 C   0  0  0  0  0  0  0  0  0  0  0  0
   -0.8370   26.1690  -25.5710 C   0  0  0  0  0  0  0  0  0  0  0  0
   -0.2080   26.8480  -24.0740 S   0  0  0  0  0  0  0  0  0  0  0  0
    1.2720   26.0540  -23.6590 N   0  0  0  0  0  0  0  0  0  0  0  0
    0.0440   28.3190  -24.2460 O   0  0  0  0  0  0  0  0  0  0  0  0
   -1.2110   26.6560  -22.9700 O   0  0  0  0  0  0  0  0  0  0  0  0
   -2.0740   25.5150  -25.5810 C   0  0  0  0  0  0  0  0  0  0  0  0
   -2.5730   24.9630  -26.7660 C   0  0  0  0  0  0  0  0  0  0  0  0
   -7.6272   22.4332  -29.5419 H   0  0  0  0  0  0  0  0  0  0  0  0
   -8.6064   22.3871  -31.0472 H   0  0  0  0  0  0  0  0  0  0  0  0
   -6.9286   21.7455  -31.0472 H   0  0  0  0  0  0  0  0  0  0  0  0
   -7.1030   24.0039  -32.1173 H   0  0  0  0  0  0  0  0  0  0  0  0
   -7.6960   24.6607  -30.5407 H   0  0  0  0  0  0  0  0  0  0  0  0
   -5.6836   22.6409  -32.9229 H   0  0  0  0  0  0  0  0  0  0  0  0
   -4.1060   21.1678  -34.2058 H   0  0  0  0  0  0  0  0  0  0  0  0
   -1.3060   18.9010  -34.4480 H   0  0  0  0  0  0  0  0  0  0  0  0
   -1.7640   20.3960  -35.3260 H   0  0  0  0  0  0  0  0  0  0  0  0
    1.2092   19.8624  -31.3717 H   0  0  0  0  0  0  0  0  0  0  0  0
    0.7115   19.1071  -32.9236 H   0  0  0  0  0  0  0  0  0  0  0  0
    1.5148   20.7137  -32.9236 H   0  0  0  0  0  0  0  0  0  0  0  0
   -2.2620   22.4599  -28.6762 H   0  0  0  0  0  0  0  0  0  0  0  0
   -2.5403   25.1903  -30.0606 H   0  0  0  0  0  0  0  0  0  0  0  0
   -0.0063   25.8003  -28.8685 H   0  0  0  0  0  0  0  0  0  0  0  0
    0.8802   26.7679  -26.7533 H   0  0  0  0  0  0  0  0  0  0  0  0
    1.5700   26.4290  -22.7310 H   0  0  0  0  0  0  0  0  0  0  0  0
    1.0470   25.0440  -23.5180 H   0  0  0  0  0  0  0  0  0  0  0  0
   -2.6575   25.4344  -24.6520 H   0  0  0  0  0  0  0  0  0  0  0  0
   -3.5513   24.4601  -26.7659 H   0  0  0  0  0  0  0  0  0  0  0  0
  1  2  1  0
  2  3  1  0
  3  4  2  0
  3  5  2  0
  3  6  1  0
  6  7  1  0
  7  8  2  0
  8  9  1  0
  9 10  1  0
 10 11  1  0
 10 12  2  0
 12 13  1  0
 12 14  1  0
 14 15  2  0
 15 16  1  0
 16 17  1  0
 17 18  2  3
 18 19  1  0
 19 20  2  0
 20 21  1  0
 21 22  2  0
 22 23  1  0
 23 24  1  0
 23 25  2  0
 23 26  2  0
 22 27  1  0
 27 28  2  0
 16  6  2  0
 28 19  1  0
 15  9  1  0
  1 29  1  0
  1 30  1  0
  1 31  1  0
  2 32  1  0
  2 33  1  0
  7 34  1  0
  8 35  1  0
 11 36  1  0
 11 37  1  0
 13 38  1  0
 13 39  1  0
 13 40  1  0
 17 41  1  0
 18 42  1  0
 20 43  1  0
 21 44  1  0
 24 45  1  0
 24 46  1  0
 27 47  1  0
 28 48  1  0
M  END
>  <UniqueID>  (50) 
49

>  <SMILES>  (50) 
CCS(=O)(=O)c1ccn2c(N)c(C)nc2c1C=Cc1ccc(S(N)(=O)=O)cc1

>  <Energy>  (50) 
88.13635896225782

>  <Genealogy>  (50) 
CCS(=O)(=O)c1ccn2c(N)c(C)nc2c1C=Cc1ccc(S(N)(=O)=O)cc1 (3D coordinates assigned)
CCS(=O)(=O)c1ccn2c(N)c(C)nc2c1C=Cc1ccc(S(N)(=O)=O)cc1 (optimized conformer: 88.13635896225782 kcal/mol)

>  <smiles>  (50) 
CCS(=O)(=O)c1ccn2c(N)c(C)nc2c1C=Cc1ccc(S(N)(=O)=O)cc1

>  <score_type>  (50) 
oracle

>  <origin>  (50) 
adgpu

>  <m_score__min__energy>  (50) 
-8.8599999999999994

>  <m_primary>  (50) 
energy

$$$$
