0:0
     RDKit          3D

 27 29  0  0  0  0  0  0  0  0999 V2000
   -5.0000   15.1200  -35.0250 H   0  0  0  0  0  0  0  0  0  0  0  0
   -5.8590   15.3380  -34.4720 N   0  0  0  0  0  0  0  0  0  0  0  0
   -6.0210   16.4860  -33.8990 C   0  0  0  0  0  0  0  0  0  0  0  0
   -7.1520   16.7290  -33.1870 N   0  0  0  0  0  0  0  0  0  0  0  0
   -7.3580   17.9240  -32.5730 C   0  0  0  0  0  0  0  0  0  0  0  0
   -8.4200   18.1110  -31.9220 O   0  0  0  0  0  0  0  0  0  0  0  0
   -6.3840   18.9310  -32.6710 C   0  0  0  0  0  0  0  0  0  0  0  0
   -6.5220   20.1890  -32.0650 C   0  0  0  0  0  0  0  0  0  0  0  0
   -7.4259   20.4214  -31.4828 H   0  0  0  0  0  0  0  0  0  0  0  0
   -5.5080   21.1530  -32.2000 C   0  0  0  0  0  0  0  0  0  0  0  0
   -5.6390   22.4900  -31.5650 C   0  0  0  0  0  0  0  0  0  0  0  0
   -6.9050   22.9920  -31.2090 C   0  0  0  0  0  0  0  0  0  0  0  0
   -7.8052   22.3898  -31.4013 H   0  0  0  0  0  0  0  0  0  0  0  0
   -7.0260   24.2500  -30.6130 C   0  0  0  0  0  0  0  0  0  0  0  0
   -8.0200   24.6329  -30.3384 H   0  0  0  0  0  0  0  0  0  0  0  0
   -5.8870   25.0250  -30.3640 C   0  0  0  0  0  0  0  0  0  0  0  0
   -6.0020   26.2810  -29.7710 O   0  0  0  0  0  0  0  0  0  0  0  0
   -5.3670   26.5830  -29.0410 H   0  0  0  0  0  0  0  0  0  0  0  0
   -4.6240   24.5340  -30.7140 C   0  0  0  0  0  0  0  0  0  0  0  0
   -3.4880   25.2960  -30.4670 O   0  0  0  0  0  0  0  0  0  0  0  0
   -4.5000   23.2760  -31.3120 C   0  0  0  0  0  0  0  0  0  0  0  0
   -3.5041   22.8981  -31.5867 H   0  0  0  0  0  0  0  0  0  0  0  0
   -4.3660   20.8240  -32.9510 C   0  0  0  0  0  0  0  0  0  0  0  0
   -3.5591   21.5622  -33.0689 H   0  0  0  0  0  0  0  0  0  0  0  0
   -4.2510   19.6000  -33.5330 N   0  0  0  0  0  0  0  0  0  0  0  0
   -5.2190   18.6570  -33.4120 C   0  0  0  0  0  0  0  0  0  0  0  0
   -5.0640   17.4470  -34.0070 N   0  0  0  0  0  0  0  0  0  0  0  0
  1  2  1  0
  2  3  2  0
  3  4  1  0
  4  5  1  0
  5  6  2  0
  5  7  1  0
  7  8  2  0
  8  9  1  0
  8 10  1  0
 10 11  1  0
 11 12  2  0
 12 13  1  0
 12 14  1  0
 14 15  1  0
 14 16  2  0
 16 17  1  0
 17 18  1  0
 16 19  1  0
 19 20  1  0
 19 21  2  0
 21 22  1  0
 10 23  2  0
 23 24  1  0
 23 25  1  0
 25 26  2  0
 26 27  1  0
 27  3  1  0
 26  7  1  0
 21 11  1  0
M  CHG  3   4  -1  20  -1  27  -1
M  END
>  <UniqueID>  (1) 
1

>  <SMILES>  (1) 
[H]/N=c1/[n-]c(=O)c2cc(-c3ccc(O)c([O-])c3)cnc2[n-]1

>  <Energy>  (1) 
40.373712538028705

>  <Genealogy>  (1) 
N=c1[n-]c(=O)c2cc(-c3ccc(O)c([O-])c3)cnc2[n-]1 (protonated)
[H]/N=c1/[n-]c(=O)c2cc(-c3ccc(O)c([O-])c3)cnc2[n-]1 (cis-trans isomerization)
[H]/N=c1/[n-]c(=O)c2cc(-c3ccc(O)c([O-])c3)cnc2[n-]1 (3D coordinates assigned)
[H]/N=c1/[n-]c(=O)c2cc(-c3ccc(O)c([O-])c3)cnc2[n-]1 (optimized conformer: 40.373712538028705 kcal/mol)

>  <smiles>  (1) 
N=c1[nH]c(=O)c2cc(-c3ccc(O)c(O)c3)cnc2[nH]1

>  <score_type>  (1) 
oracle

>  <origin>  (1) 
adgpu

>  <m_score__min__energy>  (1) 
-10.380000000000001

>  <m_primary>  (1) 
energy

$$$$
1:0
     RDKit          3D

 30 31  0  0  0  0  0  0  0  0999 V2000
   -4.2300   25.2580  -30.2120 N   0  0  0  0  0  0  0  0  0  0  0  0
   -4.8400   24.1810  -30.5430 C   0  0  0  0  0  0  0  0  0  0  0  0
   -4.3200   23.4080  -31.5200 N   0  0  0  0  0  0  0  0  0  0  0  0
   -4.9000   22.2590  -31.9280 C   0  0  0  0  0  0  0  0  0  0  0  0
   -4.3340   21.4090  -33.0010 C   0  0  0  0  0  0  0  0  0  0  0  0
   -3.0930   21.9140  -33.3190 O   0  0  0  0  0  0  0  0  0  0  0  0
   -6.0720   21.8820  -31.3040 C   0  0  0  0  0  0  0  0  0  0  0  0
   -6.8010   20.6660  -31.6440 C   0  0  0  0  0  0  0  0  0  0  0  0
   -8.0350   20.6770  -32.2600 C   0  0  0  0  0  0  0  0  0  0  0  0
   -8.6640   19.4680  -32.5520 C   0  0  0  0  0  0  0  0  0  0  0  0
   -8.0220   18.2820  -32.2090 C   0  0  0  0  0  0  0  0  0  0  0  0
   -6.7880   18.2790  -31.5920 C   0  0  0  0  0  0  0  0  0  0  0  0
   -6.1380   17.0390  -31.2430 N   0  0  0  0  0  0  0  0  0  0  0  0
   -6.1730   19.4630  -31.3060 C   0  0  0  0  0  0  0  0  0  0  0  0
   -6.6300   22.6630  -30.2900 C   0  0  0  0  0  0  0  0  0  0  0  0
   -7.7340   22.3000  -29.7060 N   0  0  0  0  0  0  0  0  0  0  0  0
   -5.9800   23.7990  -29.9460 N   0  0  0  0  0  0  0  0  0  0  0  0
   -4.6340   25.8450  -29.4630 H   0  0  0  0  0  0  0  0  0  0  0  0
   -3.4280   23.7300  -31.9680 H   0  0  0  0  0  0  0  0  0  0  0  0
   -4.2378   20.3720  -32.6470 H   0  0  0  0  0  0  0  0  0  0  0  0
   -4.9906   21.4114  -33.8835 H   0  0  0  0  0  0  0  0  0  0  0  0
   -2.8970   21.8740  -34.2690 H   0  0  0  0  0  0  0  0  0  0  0  0
   -8.5181   21.6309  -32.5184 H   0  0  0  0  0  0  0  0  0  0  0  0
   -9.6479   19.4517  -33.0436 H   0  0  0  0  0  0  0  0  0  0  0  0
   -8.5106   17.3229  -32.4355 H   0  0  0  0  0  0  0  0  0  0  0  0
   -6.1040   16.6750  -30.2770 H   0  0  0  0  0  0  0  0  0  0  0  0
   -5.7020   16.5410  -32.0730 H   0  0  0  0  0  0  0  0  0  0  0  0
   -5.1898   19.4712  -30.8129 H   0  0  0  0  0  0  0  0  0  0  0  0
   -8.1120   22.9230  -28.9490 H   0  0  0  0  0  0  0  0  0  0  0  0
   -6.4220   24.3680  -29.1810 H   0  0  0  0  0  0  0  0  0  0  0  0
  1  2  2  3
  2  3  1  0
  3  4  1  0
  4  5  1  0
  5  6  1  0
  4  7  2  0
  7  8  1  0
  8  9  2  0
  9 10  1  0
 10 11  2  0
 11 12  1  0
 12 13  1  0
 12 14  2  0
  7 15  1  0
 15 16  2  3
 15 17  1  0
 17  2  1  0
 14  8  1  0
  1 18  1  0
  3 19  1  0
  5 20  1  0
  5 21  1  0
  6 22  1  0
  9 23  1  0
 10 24  1  0
 11 25  1  0
 13 26  1  0
 13 27  1  0
 14 28  1  0
 16 29  1  0
 17 30  1  0
M  END
>  <smiles>  (2) 
N=c1[nH]c(CO)c(-c2cccc(N)c2)c(=N)[nH]1

>  <score_type>  (2) 
oracle

>  <origin>  (2) 
adgpu

>  <m_score__min__energy>  (2) 
-6.3700000000000001

>  <m_primary>  (2) 
energy

$$$$
2:0
     RDKit          3D

 53 57  0  0  0  0  0  0  0  0999 V2000
   -4.0520   14.7710  -33.3810 F   0  0  0  0  0  0  0  0  0  0  0  0
   -4.6500   15.9600  -33.6410 C   0  0  0  0  0  0  0  0  0  0  0  0
   -4.2020   16.7510  -34.7040 C   0  0  0  0  0  0  0  0  0  0  0  0
   -4.8110   17.9810  -34.9660 C   0  0  0  0  0  0  0  0  0  0  0  0
   -5.8720   18.4220  -34.1690 C   0  0  0  0  0  0  0  0  0  0  0  0
   -6.3380   17.6270  -33.1100 C   0  0  0  0  0  0  0  0  0  0  0  0
   -7.4550   18.1170  -32.2240 C   0  0  0  0  0  0  0  0  0  0  0  0
   -8.4500   18.8590  -33.0150 N   0  0  0  0  0  0  0  0  0  0  0  0
   -9.2350   19.7890  -32.1840 C   0  0  0  0  0  0  0  0  0  0  0  0
   -8.5290   21.1130  -32.0010 C   0  0  0  0  0  0  0  0  0  0  0  0
   -9.2480   22.3130  -32.0940 C   0  0  0  0  0  0  0  0  0  0  0  0
   -8.5950   23.5380  -31.9470 C   0  0  0  0  0  0  0  0  0  0  0  0
   -7.2180   23.5760  -31.7150 C   0  0  0  0  0  0  0  0  0  0  0  0
   -6.4780   22.3840  -31.6320 C   0  0  0  0  0  0  0  0  0  0  0  0
   -5.0150   22.4200  -31.3840 C   0  0  0  0  0  0  0  0  0  0  0  0
   -4.4950   23.2450  -30.3710 C   0  0  0  0  0  0  0  0  0  0  0  0
   -3.1120   23.2970  -30.1220 C   0  0  0  0  0  0  0  0  0  0  0  0
   -2.5720   24.1710  -29.0560 C   0  0  0  0  0  0  0  0  0  0  0  0
   -2.8650   23.9960  -27.7390 N   0  0  0  0  0  0  0  0  0  0  0  0
   -2.1770   24.9860  -27.1500 C   0  0  0  0  0  0  0  0  0  0  0  0
   -2.1110   25.2880  -25.7920 C   0  0  0  0  0  0  0  0  0  0  0  0
   -1.3150   26.3840  -25.4060 C   0  0  0  0  0  0  0  0  0  0  0  0
   -0.6180   27.1380  -26.3780 C   0  0  0  0  0  0  0  0  0  0  0  0
   -0.7110   26.8020  -27.7420 C   0  0  0  0  0  0  0  0  0  0  0  0
   -1.5070   25.7110  -28.0850 C   0  0  0  0  0  0  0  0  0  0  0  0
   -1.7390   25.2160  -29.3090 N   0  0  0  0  0  0  0  0  0  0  0  0
   -2.2490   22.5080  -30.9010 C   0  0  0  0  0  0  0  0  0  0  0  0
   -2.7580   21.6820  -31.9040 C   0  0  0  0  0  0  0  0  0  0  0  0
   -4.1320   21.6330  -32.1480 C   0  0  0  0  0  0  0  0  0  0  0  0
   -4.5990   20.7890  -33.1030 F   0  0  0  0  0  0  0  0  0  0  0  0
   -7.1440   21.1540  -31.7730 C   0  0  0  0  0  0  0  0  0  0  0  0
   -5.7120   16.3970  -32.8420 C   0  0  0  0  0  0  0  0  0  0  0  0
   -3.3696   16.4045  -35.3342 H   0  0  0  0  0  0  0  0  0  0  0  0
   -4.4553   18.6033  -35.8004 H   0  0  0  0  0  0  0  0  0  0  0  0
   -6.3430   19.3950  -34.3725 H   0  0  0  0  0  0  0  0  0  0  0  0
   -7.9425   17.2549  -31.7452 H   0  0  0  0  0  0  0  0  0  0  0  0
   -7.0357   18.7872  -31.4592 H   0  0  0  0  0  0  0  0  0  0  0  0
   -9.1150   18.1750  -33.4490 H   0  0  0  0  0  0  0  0  0  0  0  0
   -7.9730   19.3850  -33.7850 H   0  0  0  0  0  0  0  0  0  0  0  0
  -10.2057   19.9675  -32.6697 H   0  0  0  0  0  0  0  0  0  0  0  0
   -9.3666   19.3324  -31.1920 H   0  0  0  0  0  0  0  0  0  0  0  0
  -10.3313   22.2891  -32.2836 H   0  0  0  0  0  0  0  0  0  0  0  0
   -9.1662   24.4757  -32.0140 H   0  0  0  0  0  0  0  0  0  0  0  0
   -6.7099   24.5444  -31.5966 H   0  0  0  0  0  0  0  0  0  0  0  0
   -5.1790   23.8577  -29.7654 H   0  0  0  0  0  0  0  0  0  0  0  0
   -2.6604   24.6924  -25.0481 H   0  0  0  0  0  0  0  0  0  0  0  0
   -1.2352   26.6548  -24.3428 H   0  0  0  0  0  0  0  0  0  0  0  0
    0.0008   27.9925  -26.0665 H   0  0  0  0  0  0  0  0  0  0  0  0
   -0.1747   27.3798  -28.5092 H   0  0  0  0  0  0  0  0  0  0  0  0
   -1.1647   22.5416  -30.7190 H   0  0  0  0  0  0  0  0  0  0  0  0
   -2.0732   21.0662  -32.5056 H   0  0  0  0  0  0  0  0  0  0  0  0
   -6.5750   20.2151  -31.7041 H   0  0  0  0  0  0  0  0  0  0  0  0
   -6.0581   15.7767  -32.0021 H   0  0  0  0  0  0  0  0  0  0  0  0
  1  2  1  0
  2  3  2  0
  3  4  1  0
  4  5  2  0
  5  6  1  0
  6  7  1  0
  7  8  1  0
  8  9  1  0
  9 10  1  0
 10 11  2  0
 11 12  1  0
 12 13  2  0
 13 14  1  0
 14 15  1  0
 15 16  2  0
 16 17  1  0
 17 18  1  0
 18 19  2  0
 19 20  1  0
 20 21  2  0
 21 22  1  0
 22 23  2  0
 23 24  1  0
 24 25  2  0
 25 26  1  0
 17 27  2  0
 27 28  1  0
 28 29  2  0
 29 30  1  0
 14 31  2  0
  6 32  2  0
 32  2  1  0
 31 10  1  0
 29 15  1  0
 26 18  1  0
 25 20  1  0
  3 33  1  0
  4 34  1  0
  5 35  1  0
  7 36  1  0
  7 37  1  0
  8 38  1  0
  8 39  1  0
  9 40  1  0
  9 41  1  0
 11 42  1  0
 12 43  1  0
 13 44  1  0
 16 45  1  0
 21 46  1  0
 22 47  1  0
 23 48  1  0
 24 49  1  0
 27 50  1  0
 28 51  1  0
 31 52  1  0
 32 53  1  0
M  CHG  2   8   1  26  -1
M  END
>  <UniqueID>  (3) 
2

>  <SMILES>  (3) 
Fc1cccc(C[NH2+]Cc2cccc(-c3cc(-c4nc5ccccc5[n-]4)ccc3F)c2)c1

>  <Energy>  (3) 
100.20070504425735

>  <Genealogy>  (3) 
Fc1cccc(C[NH2+]Cc2cccc(-c3cc(-c4nc5ccccc5[n-]4)ccc3F)c2)c1 (protonated)
Fc1cccc(C[NH2+]Cc2cccc(-c3cc(-c4nc5ccccc5[n-]4)ccc3F)c2)c1 (3D coordinates assigned)
Fc1cccc(C[NH2+]Cc2cccc(-c3cc(-c4nc5ccccc5[n-]4)ccc3F)c2)c1 (optimized conformer: 100.20070504425735 kcal/mol)

>  <smiles>  (3) 
Fc1cccc(CNCc2cccc(-c3cc(-c4nc5ccccc5[nH]4)ccc3F)c2)c1

>  <score_type>  (3) 
oracle

>  <origin>  (3) 
adgpu

>  <m_score__min__energy>  (3) 
-10.81

>  <m_primary>  (3) 
energy

$$$$
3:0
     RDKit          3D

 37 39  0  0  0  0  0  0  0  0999 V2000
   -5.7940   25.9750  -29.5120 O   0  0  0  0  0  0  0  0  0  0  0  0
   -5.2320   25.4470  -30.5060 C   0  0  0  0  0  0  0  0  0  0  0  0
   -3.8060   25.3000  -30.5550 N   0  0  0  0  0  0  0  0  0  0  0  0
   -2.9740   24.5380  -29.6700 C   0  0  0  0  0  0  0  0  0  0  0  0
   -1.9030   25.1120  -28.9620 C   0  0  0  0  0  0  0  0  0  0  0  0
   -1.1070   24.3220  -28.1280 C   0  0  0  0  0  0  0  0  0  0  0  0
   -1.3610   22.9520  -28.0040 C   0  0  0  0  0  0  0  0  0  0  0  0
   -0.5620   22.1770  -27.1700 O   0  0  0  0  0  0  0  0  0  0  0  0
   -2.4110   22.3690  -28.7240 C   0  0  0  0  0  0  0  0  0  0  0  0
   -2.7390   20.6480  -28.5940 Cl  0  0  0  0  0  0  0  0  0  0  0  0
   -3.2070   23.1610  -29.5580 C   0  0  0  0  0  0  0  0  0  0  0  0
   -6.0370   24.9590  -31.5850 N   0  0  0  0  0  0  0  0  0  0  0  0
   -6.5080   23.6080  -31.6600 C   0  0  0  0  0  0  0  0  0  0  0  0
   -7.8570   23.3610  -31.4050 C   0  0  0  0  0  0  0  0  0  0  0  0
   -8.3880   22.0860  -31.5900 C   0  0  0  0  0  0  0  0  0  0  0  0
   -7.5740   21.0350  -32.0200 C   0  0  0  0  0  0  0  0  0  0  0  0
   -8.3480   19.4860  -32.3370 Cl  0  0  0  0  0  0  0  0  0  0  0  0
   -6.1890   21.2470  -32.2160 C   0  0  0  0  0  0  0  0  0  0  0  0
   -5.1430   19.9190  -32.7730 S   0  0  0  0  0  0  0  0  0  0  0  0
   -3.7630   20.4230  -33.0950 O   0  0  0  0  0  0  0  0  0  0  0  0
   -5.0000   18.9040  -31.6730 O   0  0  0  0  0  0  0  0  0  0  0  0
   -5.8280   19.1050  -34.2190 C   0  0  0  0  0  0  0  0  0  0  0  0
   -6.1250   17.6250  -34.0210 C   0  0  0  0  0  0  0  0  0  0  0  0
   -4.9500   18.0520  -34.8830 C   0  0  0  0  0  0  0  0  0  0  0  0
   -5.6550   22.5410  -32.0240 C   0  0  0  0  0  0  0  0  0  0  0  0
   -4.2830   22.7510  -32.1850 O   0  0  0  0  0  0  0  0  0  0  0  0
   -1.6911   26.1865  -29.0650 H   0  0  0  0  0  0  0  0  0  0  0  0
   -0.2782   24.7789  -27.5674 H   0  0  0  0  0  0  0  0  0  0  0  0
   -4.0238   22.6983  -30.1314 H   0  0  0  0  0  0  0  0  0  0  0  0
   -8.5057   24.1778  -31.0557 H   0  0  0  0  0  0  0  0  0  0  0  0
   -9.4557   21.9057  -31.3961 H   0  0  0  0  0  0  0  0  0  0  0  0
   -6.3818   19.9834  -34.5818 H   0  0  0  0  0  0  0  0  0  0  0  0
   -5.9468   17.1547  -33.0427 H   0  0  0  0  0  0  0  0  0  0  0  0
   -7.0052   16.9823  -34.1702 H   0  0  0  0  0  0  0  0  0  0  0  0
   -3.9211   17.8911  -34.5288 H   0  0  0  0  0  0  0  0  0  0  0  0
   -4.6273   17.8467  -35.9144 H   0  0  0  0  0  0  0  0  0  0  0  0
   -3.8300   23.6290  -31.9690 H   0  0  0  0  0  0  0  0  0  0  0  0
  1  2  2  0
  2  3  1  0
  3  4  1  0
  4  5  2  0
  5  6  1  0
  6  7  2  0
  7  8  1  0
  7  9  1  0
  9 10  1  0
  9 11  2  0
  2 12  1  0
 12 13  1  0
 13 14  2  0
 14 15  1  0
 15 16  2  0
 16 17  1  0
 16 18  1  0
 18 19  1  0
 19 20  2  0
 19 21  2  0
 19 22  1  0
 22 23  1  0
 23 24  1  0
 18 25  2  0
 25 26  1  0
 11  4  1  0
 25 13  1  0
 24 22  1  0
  5 27  1  0
  6 28  1  0
 11 29  1  0
 14 30  1  0
 15 31  1  0
 22 32  1  0
 23 33  1  0
 23 34  1  0
 24 35  1  0
 24 36  1  0
 26 37  1  0
M  CHG  3   3  -1   8  -1  12  -1
M  END
>  <UniqueID>  (4) 
3

>  <SMILES>  (4) 
O=C([N-]c1ccc([O-])c(Cl)c1)[N-]c1ccc(Cl)c(S(=O)(=O)C2CC2)c1O

>  <Energy>  (4) 
314.87354602322205

>  <Genealogy>  (4) 
O=C([N-]c1ccc([O-])c(Cl)c1)[N-]c1ccc(Cl)c(S(=O)(=O)C2CC2)c1O (protonated)
O=C([N-]c1ccc([O-])c(Cl)c1)[N-]c1ccc(Cl)c(S(=O)(=O)C2CC2)c1O (3D coordinates assigned)
O=C([N-]c1ccc([O-])c(Cl)c1)[N-]c1ccc(Cl)c(S(=O)(=O)C2CC2)c1O (nonaromatic ring conformer: 314.87354602322205 kcal/mol)

>  <smiles>  (4) 
O=C(Nc1ccc(O)c(Cl)c1)Nc1ccc(Cl)c(S(=O)(=O)C2CC2)c1O

>  <score_type>  (4) 
oracle

>  <origin>  (4) 
adgpu

>  <m_score__min__energy>  (4) 
-11.880000000000001

>  <m_primary>  (4) 
energy

$$$$
4:0
     RDKit          3D

 25 26  0  0  0  0  0  0  0  0999 V2000
   -8.3530   23.5270  -31.5720 O   0  0  0  0  0  0  0  0  0  0  0  0
   -7.1060   23.4050  -31.4480 C   0  0  0  0  0  0  0  0  0  0  0  0
   -6.5100   22.1520  -31.5570 C   0  0  0  0  0  0  0  0  0  0  0  0
   -5.1270   22.0590  -31.4140 C   0  0  0  0  0  0  0  0  0  0  0  0
   -4.3740   23.1760  -31.1750 N   0  0  0  0  0  0  0  0  0  0  0  0
   -2.9180   23.0400  -30.9970 C   0  0  0  0  0  0  0  0  0  0  0  0
   -2.5750   22.8940  -29.5330 C   0  0  0  0  0  0  0  0  0  0  0  0
   -2.5660   21.6120  -28.9600 C   0  0  0  0  0  0  0  0  0  0  0  0
   -2.2800   21.4420  -27.6050 C   0  0  0  0  0  0  0  0  0  0  0  0
   -2.2720   19.6910  -26.8430 Br  0  0  0  0  0  0  0  0  0  0  0  0
   -2.0030   22.5520  -26.8060 C   0  0  0  0  0  0  0  0  0  0  0  0
   -2.0080   23.8380  -27.3560 C   0  0  0  0  0  0  0  0  0  0  0  0
   -1.6170   25.3130  -26.1950 Br  0  0  0  0  0  0  0  0  0  0  0  0
   -2.2940   24.0180  -28.7250 C   0  0  0  0  0  0  0  0  0  0  0  0
   -2.2990   25.2940  -29.2970 O   0  0  0  0  0  0  0  0  0  0  0  0
   -4.9920   24.3980  -31.0670 C   0  0  0  0  0  0  0  0  0  0  0  0
   -4.3220   25.4400  -30.8410 O   0  0  0  0  0  0  0  0  0  0  0  0
   -6.3400   24.4960  -31.2060 N   0  0  0  0  0  0  0  0  0  0  0  0
   -7.1169   21.2555  -31.7516 H   0  0  0  0  0  0  0  0  0  0  0  0
   -4.6359   21.0780  -31.4941 H   0  0  0  0  0  0  0  0  0  0  0  0
   -2.5684   22.1502  -31.5411 H   0  0  0  0  0  0  0  0  0  0  0  0
   -2.4260   23.9422  -31.3893 H   0  0  0  0  0  0  0  0  0  0  0  0
   -2.7864   20.7340  -29.5850 H   0  0  0  0  0  0  0  0  0  0  0  0
   -1.7795   22.4149  -25.7377 H   0  0  0  0  0  0  0  0  0  0  0  0
   -3.1040   25.6830  -29.7720 H   0  0  0  0  0  0  0  0  0  0  0  0
  1  2  2  0
  2  3  1  0
  3  4  2  0
  4  5  1  0
  5  6  1  0
  6  7  1  0
  7  8  2  0
  8  9  1  0
  9 10  1  0
  9 11  2  0
 11 12  1  0
 12 13  1  0
 12 14  2  0
 14 15  1  0
  5 16  1  0
 16 17  2  0
 16 18  1  0
 18  2  1  0
 14  7  1  0
  3 19  1  0
  4 20  1  0
  6 21  1  0
  6 22  1  0
  8 23  1  0
 11 24  1  0
 15 25  1  0
M  CHG  1  18  -1
M  END
>  <UniqueID>  (5) 
4

>  <SMILES>  (5) 
O=c1ccn(Cc2cc(Br)cc(Br)c2O)c(=O)[n-]1

>  <Energy>  (5) 
29.533862143975394

>  <Genealogy>  (5) 
O=c1ccn(Cc2cc(Br)cc(Br)c2O)c(=O)[n-]1 (protonated)
O=c1ccn(Cc2cc(Br)cc(Br)c2O)c(=O)[n-]1 (3D coordinates assigned)
O=c1ccn(Cc2cc(Br)cc(Br)c2O)c(=O)[n-]1 (optimized conformer: 29.533862143975394 kcal/mol)

>  <smiles>  (5) 
O=c1ccn(Cc2cc(Br)cc(Br)c2O)c(=O)[nH]1

>  <score_type>  (5) 
oracle

>  <origin>  (5) 
adgpu

>  <m_score__min__energy>  (5) 
-8.6199999999999992

>  <m_primary>  (5) 
energy

$$$$
5:0
     RDKit          3D

 50 53  0  0  0  0  0  0  0  0999 V2000
   -3.2670   23.5480  -29.7970 C   0  0  0  0  0  0  0  0  0  0  0  0
   -3.1140   23.4230  -31.2070 O   0  0  0  0  0  0  0  0  0  0  0  0
   -3.5000   22.2790  -31.9090 C   0  0  0  0  0  0  0  0  0  0  0  0
   -4.7630   21.7280  -31.6890 C   0  0  0  0  0  0  0  0  0  0  0  0
   -5.1350   20.5790  -32.4050 C   0  0  0  0  0  0  0  0  0  0  0  0
   -6.4630   19.9400  -32.2220 C   0  0  0  0  0  0  0  0  0  0  0  0
   -6.5570   18.5380  -32.1200 C   0  0  0  0  0  0  0  0  0  0  0  0
   -7.8000   17.9200  -31.9530 C   0  0  0  0  0  0  0  0  0  0  0  0
   -8.9640   18.6900  -31.8930 C   0  0  0  0  0  0  0  0  0  0  0  0
   -8.8870   20.0800  -32.0040 C   0  0  0  0  0  0  0  0  0  0  0  0
   -7.6470   20.7040  -32.1700 C   0  0  0  0  0  0  0  0  0  0  0  0
   -4.2450   20.0310  -33.2780 N   0  0  0  0  0  0  0  0  0  0  0  0
   -3.0140   20.5680  -33.4780 C   0  0  0  0  0  0  0  0  0  0  0  0
   -2.2140   20.0190  -34.3440 N   0  0  0  0  0  0  0  0  0  0  0  0
   -0.8670   20.4180  -34.6500 C   0  0  0  0  0  0  0  0  0  0  0  0
   -0.4790   20.8140  -35.9440 C   0  0  0  0  0  0  0  0  0  0  0  0
    0.8340   21.2240  -36.1930 C   0  0  0  0  0  0  0  0  0  0  0  0
    1.7700   21.2640  -35.1510 C   0  0  0  0  0  0  0  0  0  0  0  0
    3.4190   21.8080  -35.4430 S   0  0  0  0  0  0  0  0  0  0  0  0
    3.7800   21.6570  -36.8950 O   0  0  0  0  0  0  0  0  0  0  0  0
    4.3620   20.9710  -34.6270 O   0  0  0  0  0  0  0  0  0  0  0  0
    3.5790   23.4710  -34.9770 N   0  0  0  0  0  0  0  0  0  0  0  0
    2.8160   24.4230  -35.4240 C   0  0  0  0  0  0  0  0  0  0  0  0
    3.0200   25.7350  -34.9810 C   0  0  0  0  0  0  0  0  0  0  0  0
    2.1940   26.7620  -35.4580 C   0  0  0  0  0  0  0  0  0  0  0  0
    2.3870   28.1070  -35.0150 N   0  0  0  0  0  0  0  0  0  0  0  0
    1.1770   26.4580  -36.3710 C   0  0  0  0  0  0  0  0  0  0  0  0
    1.0040   25.1390  -36.7910 C   0  0  0  0  0  0  0  0  0  0  0  0
    1.8190   24.1600  -36.3150 N   0  0  0  0  0  0  0  0  0  0  0  0
    1.3760   20.9070  -33.8550 C   0  0  0  0  0  0  0  0  0  0  0  0
    0.0650   20.4940  -33.6070 C   0  0  0  0  0  0  0  0  0  0  0  0
   -2.6580   21.6940  -32.8010 N   0  0  0  0  0  0  0  0  0  0  0  0
   -2.5110   22.9304  -29.2900 H   0  0  0  0  0  0  0  0  0  0  0  0
   -3.1358   24.6006  -29.5058 H   0  0  0  0  0  0  0  0  0  0  0  0
   -4.2723   23.2096  -29.5058 H   0  0  0  0  0  0  0  0  0  0  0  0
   -5.4552   22.1859  -30.9671 H   0  0  0  0  0  0  0  0  0  0  0  0
   -5.6453   17.9247  -32.1722 H   0  0  0  0  0  0  0  0  0  0  0  0
   -7.8615   16.8250  -31.8687 H   0  0  0  0  0  0  0  0  0  0  0  0
   -9.9405   18.2018  -31.7584 H   0  0  0  0  0  0  0  0  0  0  0  0
   -9.8044   20.6854  -31.9607 H   0  0  0  0  0  0  0  0  0  0  0  0
   -7.5946   21.7990  -32.2607 H   0  0  0  0  0  0  0  0  0  0  0  0
   -1.2128   20.8007  -36.7634 H   0  0  0  0  0  0  0  0  0  0  0  0
    1.1334   21.5162  -37.2103 H   0  0  0  0  0  0  0  0  0  0  0  0
    3.8231   25.9586  -34.2634 H   0  0  0  0  0  0  0  0  0  0  0  0
    2.7480   28.8380  -35.6670 H   0  0  0  0  0  0  0  0  0  0  0  0
    2.1700   28.3830  -34.0300 H   0  0  0  0  0  0  0  0  0  0  0  0
    0.5198   27.2526  -36.7540 H   0  0  0  0  0  0  0  0  0  0  0  0
    0.2076   24.8906  -37.5079 H   0  0  0  0  0  0  0  0  0  0  0  0
    2.1018   20.9521  -33.0296 H   0  0  0  0  0  0  0  0  0  0  0  0
   -0.2382   20.2262  -32.5841 H   0  0  0  0  0  0  0  0  0  0  0  0
  1  2  1  0
  2  3  1  0
  3  4  1  0
  4  5  2  0
  5  6  1  0
  6  7  2  0
  7  8  1  0
  8  9  2  0
  9 10  1  0
 10 11  2  0
  5 12  1  0
 12 13  1  0
 13 14  2  3
 14 15  1  0
 15 16  2  0
 16 17  1  0
 17 18  2  0
 18 19  1  0
 19 20  2  0
 19 21  2  0
 19 22  1  0
 22 23  2  3
 23 24  1  0
 24 25  2  0
 25 26  1  0
 25 27  1  0
 27 28  2  0
 28 29  1  0
 18 30  1  0
 30 31  2  0
 13 32  1  0
 32  3  2  0
 11  6  1  0
 31 15  1  0
 29 23  1  0
  1 33  1  0
  1 34  1  0
  1 35  1  0
  4 36  1  0
  7 37  1  0
  8 38  1  0
  9 39  1  0
 10 40  1  0
 11 41  1  0
 16 42  1  0
 17 43  1  0
 24 44  1  0
 26 45  1  0
 26 46  1  0
 27 47  1  0
 28 48  1  0
 30 49  1  0
 31 50  1  0
M  CHG  2  12  -1  29  -1
M  END
>  <UniqueID>  (6) 
5

>  <SMILES>  (6) 
COc1cc(-c2ccccc2)[n-]c(=Nc2ccc(S(=O)(=O)N=c3cc(N)cc[n-]3)cc2)n1

>  <Energy>  (6) 
65.9057166906098

>  <Genealogy>  (6) 
COc1cc(-c2ccccc2)[n-]c(=Nc2ccc(S(=O)(=O)N=c3cc(N)cc[n-]3)cc2)n1 (protonated)
COc1cc(-c2ccccc2)[n-]c(=Nc2ccc(S(=O)(=O)N=c3cc(N)cc[n-]3)cc2)n1 (3D coordinates assigned)
COc1cc(-c2ccccc2)[n-]c(=Nc2ccc(S(=O)(=O)N=c3cc(N)cc[n-]3)cc2)n1 (optimized conformer: 65.9057166906098 kcal/mol)

>  <smiles>  (6) 
COc1cc(-c2ccccc2)[nH]c(=Nc2ccc(S(=O)(=O)N=c3cc(N)cc[nH]3)cc2)n1

>  <score_type>  (6) 
oracle

>  <origin>  (6) 
adgpu

>  <m_score__min__energy>  (6) 
-9.6699999999999999

>  <m_primary>  (6) 
energy

$$$$
6:0
     RDKit          3D

 32 34  0  0  0  0  0  0  0  0999 V2000
   -4.2310   25.2960  -30.8530 N   0  0  0  0  0  0  0  0  0  0  0  0
   -5.0880   24.5730  -31.1410 C   0  0  0  0  0  0  0  0  0  0  0  0
   -6.1710   23.6570  -31.5060 C   0  0  0  0  0  0  0  0  0  0  0  0
   -6.0800   22.1430  -30.4940 S   0  0  0  0  0  0  0  0  0  0  0  0
   -4.9770   21.2710  -31.6250 C   0  0  0  0  0  0  0  0  0  0  0  0
   -3.6840   21.6710  -31.6800 N   0  0  0  0  0  0  0  0  0  0  0  0
   -2.7920   21.0830  -32.5080 C   0  0  0  0  0  0  0  0  0  0  0  0
   -1.4690   21.5410  -32.5300 C   0  0  0  0  0  0  0  0  0  0  0  0
   -0.5350   20.9450  -33.3800 C   0  0  0  0  0  0  0  0  0  0  0  0
   -0.9190   19.8920  -34.2100 C   0  0  0  0  0  0  0  0  0  0  0  0
   -2.2370   19.4280  -34.1950 C   0  0  0  0  0  0  0  0  0  0  0  0
   -3.1960   20.0190  -33.3400 C   0  0  0  0  0  0  0  0  0  0  0  0
   -4.5480   19.5980  -33.2720 C   0  0  0  0  0  0  0  0  0  0  0  0
   -5.0740   18.3330  -34.2020 S   0  0  0  0  0  0  0  0  0  0  0  0
   -5.4170   20.2360  -32.4120 N   0  0  0  0  0  0  0  0  0  0  0  0
   -6.7950   19.8240  -32.3170 C   0  0  0  0  0  0  0  0  0  0  0  0
   -7.1240   18.5760  -31.7670 C   0  0  0  0  0  0  0  0  0  0  0  0
   -8.4600   18.1770  -31.6810 C   0  0  0  0  0  0  0  0  0  0  0  0
   -9.4750   19.0220  -32.1410 C   0  0  0  0  0  0  0  0  0  0  0  0
   -9.1520   20.2690  -32.6880 C   0  0  0  0  0  0  0  0  0  0  0  0
   -7.8170   20.6700  -32.7760 C   0  0  0  0  0  0  0  0  0  0  0  0
   -7.1387   24.1513  -31.3348 H   0  0  0  0  0  0  0  0  0  0  0  0
   -6.0711   23.3867  -32.5676 H   0  0  0  0  0  0  0  0  0  0  0  0
   -1.1648   22.3719  -31.8765 H   0  0  0  0  0  0  0  0  0  0  0  0
    0.5039   21.3061  -33.3949 H   0  0  0  0  0  0  0  0  0  0  0  0
   -0.1814   19.4249  -34.8791 H   0  0  0  0  0  0  0  0  0  0  0  0
   -2.5307   18.5969  -34.8531 H   0  0  0  0  0  0  0  0  0  0  0  0
   -6.3280   17.9100  -31.4026 H   0  0  0  0  0  0  0  0  0  0  0  0
   -8.7140   17.1969  -31.2509 H   0  0  0  0  0  0  0  0  0  0  0  0
  -10.5266   18.7067  -32.0729 H   0  0  0  0  0  0  0  0  0  0  0  0
   -9.9504   20.9340  -33.0490 H   0  0  0  0  0  0  0  0  0  0  0  0
   -7.5658   21.6509  -33.2059 H   0  0  0  0  0  0  0  0  0  0  0  0
  1  2  3  0
  2  3  1  0
  3  4  1  0
  4  5  1  0
  5  6  2  0
  6  7  1  0
  7  8  2  0
  8  9  1  0
  9 10  2  0
 10 11  1  0
 11 12  2  0
 12 13  1  0
 13 14  2  0
 13 15  1  0
 15 16  1  0
 16 17  2  0
 17 18  1  0
 18 19  2  0
 19 20  1  0
 20 21  2  0
 15  5  1  0
 21 16  1  0
 12  7  1  0
  3 22  1  0
  3 23  1  0
  8 24  1  0
  9 25  1  0
 10 26  1  0
 11 27  1  0
 17 28  1  0
 18 29  1  0
 19 30  1  0
 20 31  1  0
 21 32  1  0
M  END
>  <UniqueID>  (7) 
6

>  <SMILES>  (7) 
N#CCSc1nc2ccccc2c(=S)n1-c1ccccc1

>  <Energy>  (7) 
47.92184867227174

>  <Genealogy>  (7) 
N#CCSc1nc2ccccc2c(=S)n1-c1ccccc1 (3D coordinates assigned)
N#CCSc1nc2ccccc2c(=S)n1-c1ccccc1 (optimized conformer: 47.92184867227174 kcal/mol)

>  <smiles>  (7) 
N#CCSc1nc2ccccc2c(=S)n1-c1ccccc1

>  <score_type>  (7) 
oracle

>  <origin>  (7) 
adgpu

>  <m_score__min__energy>  (7) 
-8.0800000000000001

>  <m_primary>  (7) 
energy

$$$$
7:0
     RDKit          3D

 50 53  0  0  0  0  0  0  0  0999 V2000
   -4.6250   24.9180  -27.4660 N   0  0  0  0  0  0  0  0  0  0  0  0
   -3.3300   24.4130  -27.8140 C   0  0  0  0  0  0  0  0  0  0  0  0
   -2.5680   23.7580  -26.8330 C   0  0  0  0  0  0  0  0  0  0  0  0
   -1.2600   23.3490  -27.1080 C   0  0  0  0  0  0  0  0  0  0  0  0
   -0.5270   22.7300  -26.1490 F   0  0  0  0  0  0  0  0  0  0  0  0
   -0.6980   23.5970  -28.3610 C   0  0  0  0  0  0  0  0  0  0  0  0
   -1.4470   24.2420  -29.3470 C   0  0  0  0  0  0  0  0  0  0  0  0
   -2.7720   24.6270  -29.0960 C   0  0  0  0  0  0  0  0  0  0  0  0
   -3.5140   25.2540  -30.1520 N   0  0  0  0  0  0  0  0  0  0  0  0
   -4.9270   25.1220  -30.3490 C   0  0  0  0  0  0  0  0  0  0  0  0
   -5.6640   26.1140  -30.1130 O   0  0  0  0  0  0  0  0  0  0  0  0
   -5.5340   23.8640  -30.8450 C   0  0  0  0  0  0  0  0  0  0  0  0
   -6.8620   23.5410  -30.5140 C   0  0  0  0  0  0  0  0  0  0  0  0
   -7.4630   22.3910  -31.0360 C   0  0  0  0  0  0  0  0  0  0  0  0
   -6.7430   21.5390  -31.8860 C   0  0  0  0  0  0  0  0  0  0  0  0
   -7.5280   20.1340  -32.6160 S   0  0  0  0  0  0  0  0  0  0  0  0
   -7.2250   20.1130  -34.0900 O   0  0  0  0  0  0  0  0  0  0  0  0
   -9.0160   20.3050  -32.4630 O   0  0  0  0  0  0  0  0  0  0  0  0
   -7.0610   18.5940  -31.9190 N   0  0  1  0  0  0  0  0  0  0  0  0
   -7.5440   17.4280  -32.6890 C   0  0  0  0  0  0  0  0  0  0  0  0
   -6.7960   17.2130  -34.0120 C   0  0  0  0  0  0  0  0  0  0  0  0
   -5.3160   17.4560  -33.9010 C   0  0  0  0  0  0  0  0  0  0  0  0
   -4.4760   17.0560  -34.9540 C   0  0  0  0  0  0  0  0  0  0  0  0
   -3.1010   17.2990  -34.8910 C   0  0  0  0  0  0  0  0  0  0  0  0
   -2.5560   17.9630  -33.7910 C   0  0  0  0  0  0  0  0  0  0  0  0
   -3.3850   18.3780  -32.7460 C   0  0  0  0  0  0  0  0  0  0  0  0
   -4.7680   18.1380  -32.7970 C   0  0  0  0  0  0  0  0  0  0  0  0
   -5.6190   18.5210  -31.6130 C   0  0  0  0  0  0  0  0  0  0  0  0
   -5.4230   21.8670  -32.2280 C   0  0  0  0  0  0  0  0  0  0  0  0
   -4.8230   23.0170  -31.7120 C   0  0  0  0  0  0  0  0  0  0  0  0
   -5.0710   24.6450  -26.5620 H   0  0  0  0  0  0  0  0  0  0  0  0
   -5.1080   25.6450  -28.0360 H   0  0  0  0  0  0  0  0  0  0  0  0
   -3.0034   23.5655  -25.8414 H   0  0  0  0  0  0  0  0  0  0  0  0
    0.3353   23.2842  -28.5719 H   0  0  0  0  0  0  0  0  0  0  0  0
   -0.9946   24.4497  -30.3279 H   0  0  0  0  0  0  0  0  0  0  0  0
   -7.4320   24.1973  -29.8399 H   0  0  0  0  0  0  0  0  0  0  0  0
   -8.5058   22.1536  -30.7785 H   0  0  0  0  0  0  0  0  0  0  0  0
   -7.5590   18.5590  -30.9980 H   0  0  0  0  0  0  0  0  0  0  0  0
   -7.4213   16.5272  -32.0697 H   0  0  0  0  0  0  0  0  0  0  0  0
   -8.5970   17.6217  -32.9414 H   0  0  0  0  0  0  0  0  0  0  0  0
   -6.9565   16.1753  -34.3399 H   0  0  0  0  0  0  0  0  0  0  0  0
   -7.1938   17.9405  -34.7349 H   0  0  0  0  0  0  0  0  0  0  0  0
   -4.9026   16.5492  -35.8322 H   0  0  0  0  0  0  0  0  0  0  0  0
   -2.4469   16.9661  -35.7103 H   0  0  0  0  0  0  0  0  0  0  0  0
   -1.4746   18.1594  -33.7469 H   0  0  0  0  0  0  0  0  0  0  0  0
   -2.9519   18.8961  -31.8776 H   0  0  0  0  0  0  0  0  0  0  0  0
   -5.4693   17.7726  -30.8209 H   0  0  0  0  0  0  0  0  0  0  0  0
   -5.3043   19.5283  -31.3027 H   0  0  0  0  0  0  0  0  0  0  0  0
   -4.8565   21.2135  -32.9076 H   0  0  0  0  0  0  0  0  0  0  0  0
   -3.7862   23.2619  -31.9861 H   0  0  0  0  0  0  0  0  0  0  0  0
  1  2  1  0
  2  3  2  0
  3  4  1  0
  4  5  1  0
  4  6  2  0
  6  7  1  0
  7  8  2  0
  8  9  1  0
  9 10  1  0
 10 11  2  0
 10 12  1  0
 12 13  2  0
 13 14  1  0
 14 15  2  0
 15 16  1  0
 16 17  2  0
 16 18  2  0
 16 19  1  0
 19 20  1  0
 20 21  1  0
 21 22  1  0
 22 23  2  0
 23 24  1  0
 24 25  2  0
 25 26  1  0
 26 27  2  0
 27 28  1  0
 15 29  1  0
 29 30  2  0
  8  2  1  0
 30 12  1  0
 28 19  1  0
 27 22  1  0
  1 31  1  0
  1 32  1  0
  3 33  1  0
  6 34  1  0
  7 35  1  0
 13 36  1  0
 14 37  1  0
 19 38  1  1
 20 39  1  0
 20 40  1  0
 21 41  1  0
 21 42  1  0
 23 43  1  0
 24 44  1  0
 25 45  1  0
 26 46  1  0
 28 47  1  0
 28 48  1  0
 29 49  1  0
 30 50  1  0
M  CHG  2   9  -1  19   1
M  END
>  <UniqueID>  (8) 
7

>  <SMILES>  (8) 
Nc1cc(F)ccc1[N-]C(=O)c1ccc(S(=O)(=O)[N@H+]2CCc3ccccc3C2)cc1

>  <Energy>  (8) 
66.22671608384438

>  <Genealogy>  (8) 
Nc1cc(F)ccc1[N-]C(=O)c1ccc(S(=O)(=O)[NH+]2CCc3ccccc3C2)cc1 (protonated)
Nc1cc(F)ccc1[N-]C(=O)c1ccc(S(=O)(=O)[N@H+]2CCc3ccccc3C2)cc1 (chirality)
Nc1cc(F)ccc1[N-]C(=O)c1ccc(S(=O)(=O)[N@H+]2CCc3ccccc3C2)cc1 (3D coordinates assigned)
Nc1cc(F)ccc1[N-]C(=O)c1ccc(S(=O)(=O)[N@H+]2CCc3ccccc3C2)cc1 (nonaromatic ring conformer: 66.22671608384438 kcal/mol)

>  <smiles>  (8) 
Nc1cc(F)ccc1NC(=O)c1ccc(S(=O)(=O)N2CCc3ccccc3C2)cc1

>  <score_type>  (8) 
oracle

>  <origin>  (8) 
adgpu

>  <m_score__min__energy>  (8) 
-11.82

>  <m_primary>  (8) 
energy

$$$$
8:0
     RDKit          3D

 26 27  0  0  0  0  0  0  0  0999 V2000
   -3.8900   25.3140  -30.6190 O   0  0  0  0  0  0  0  0  0  0  0  0
   -3.9310   24.0530  -30.6460 C   0  0  0  0  0  0  0  0  0  0  0  0
   -4.6590   23.3900  -31.6880 N   0  0  0  0  0  0  0  0  0  0  0  0
   -5.8330   22.5800  -31.5310 C   0  0  0  0  0  0  0  0  0  0  0  0
   -6.8810   23.0640  -30.7370 C   0  0  0  0  0  0  0  0  0  0  0  0
   -8.0510   22.3160  -30.5740 C   0  0  0  0  0  0  0  0  0  0  0  0
   -8.1890   21.0840  -31.2170 C   0  0  0  0  0  0  0  0  0  0  0  0
   -7.1590   20.6020  -32.0330 C   0  0  0  0  0  0  0  0  0  0  0  0
   -7.3450   19.0680  -32.8630 Cl  0  0  0  0  0  0  0  0  0  0  0  0
   -5.9860   21.3490  -32.1960 C   0  0  0  0  0  0  0  0  0  0  0  0
   -3.1690   23.2710  -29.6350 C   0  0  0  0  0  0  0  0  0  0  0  0
   -3.5150   21.9250  -29.3980 C   0  0  0  0  0  0  0  0  0  0  0  0
   -2.8230   21.1640  -28.4540 C   0  0  0  0  0  0  0  0  0  0  0  0
   -1.7740   21.7290  -27.7310 C   0  0  0  0  0  0  0  0  0  0  0  0
   -1.4110   23.0580  -27.9530 C   0  0  0  0  0  0  0  0  0  0  0  0
   -2.0960   23.8350  -28.9000 C   0  0  0  0  0  0  0  0  0  0  0  0
   -1.7010   25.1560  -29.1080 O   0  0  0  0  0  0  0  0  0  0  0  0
   -6.7826   24.0395  -30.2383 H   0  0  0  0  0  0  0  0  0  0  0  0
   -8.8635   22.6983  -29.9387 H   0  0  0  0  0  0  0  0  0  0  0  0
   -9.1067   20.4927  -31.0822 H   0  0  0  0  0  0  0  0  0  0  0  0
   -5.1819   20.9728  -32.8455 H   0  0  0  0  0  0  0  0  0  0  0  0
   -4.3405   21.4687  -29.9639 H   0  0  0  0  0  0  0  0  0  0  0  0
   -3.1065   20.1154  -28.2804 H   0  0  0  0  0  0  0  0  0  0  0  0
   -1.2325   21.1277  -26.9858 H   0  0  0  0  0  0  0  0  0  0  0  0
   -0.5816   23.5000  -27.3814 H   0  0  0  0  0  0  0  0  0  0  0  0
   -2.0040   25.6820  -29.9200 H   0  0  0  0  0  0  0  0  0  0  0  0
  1  2  2  0
  2  3  1  0
  3  4  1  0
  4  5  2  0
  5  6  1  0
  6  7  2  0
  7  8  1  0
  8  9  1  0
  8 10  2  0
  2 11  1  0
 11 12  2  0
 12 13  1  0
 13 14  2  0
 14 15  1  0
 15 16  2  0
 16 17  1  0
 10  4  1  0
 16 11  1  0
  5 18  1  0
  6 19  1  0
  7 20  1  0
 10 21  1  0
 12 22  1  0
 13 23  1  0
 14 24  1  0
 15 25  1  0
 17 26  1  0
M  CHG  1   3  -1
M  END
>  <UniqueID>  (9) 
8

>  <SMILES>  (9) 
O=C([N-]c1cccc(Cl)c1)c1ccccc1O

>  <Energy>  (9) 
32.82500148871689

>  <Genealogy>  (9) 
O=C([N-]c1cccc(Cl)c1)c1ccccc1O (protonated)
O=C([N-]c1cccc(Cl)c1)c1ccccc1O (3D coordinates assigned)
O=C([N-]c1cccc(Cl)c1)c1ccccc1O (optimized conformer: 32.82500148871689 kcal/mol)

>  <smiles>  (9) 
O=C(Nc1cccc(Cl)c1)c1ccccc1O

>  <score_type>  (9) 
oracle

>  <origin>  (9) 
adgpu

>  <m_score__min__energy>  (9) 
-8.7100000000000009

>  <m_primary>  (9) 
energy

$$$$
9:0
     RDKit          3D

 45 47  0  0  0  0  0  0  0  0999 V2000
   -3.3470   16.0220  -33.0990 C   0  0  0  0  0  0  0  0  0  0  0  0
   -4.5720   16.1970  -32.4000 O   0  0  0  0  0  0  0  0  0  0  0  0
   -5.4800   17.2420  -32.6350 C   0  0  0  0  0  0  0  0  0  0  0  0
   -5.4100   18.0730  -33.7730 C   0  0  0  0  0  0  0  0  0  0  0  0
   -6.3250   19.1140  -33.9420 C   0  0  0  0  0  0  0  0  0  0  0  0
   -7.3100   19.3580  -32.9700 C   0  0  0  0  0  0  0  0  0  0  0  0
   -8.2290   20.4530  -33.0630 N   0  0  0  0  0  0  0  0  0  0  0  0
   -8.6810   21.5200  -31.7700 S   0  0  0  0  0  0  0  0  0  0  0  0
   -9.8240   22.3830  -32.2270 O   0  0  0  0  0  0  0  0  0  0  0  0
   -9.1400   20.7260  -30.5790 O   0  0  0  0  0  0  0  0  0  0  0  0
   -7.3150   22.5520  -31.3650 C   0  0  0  0  0  0  0  0  0  0  0  0
   -7.2600   23.2390  -30.1460 C   0  0  0  0  0  0  0  0  0  0  0  0
   -6.1540   24.0410  -29.8440 C   0  0  0  0  0  0  0  0  0  0  0  0
   -5.0860   24.1460  -30.7520 C   0  0  0  0  0  0  0  0  0  0  0  0
   -3.9230   24.9300  -30.4580 N   0  0  0  0  0  0  0  0  0  0  0  0
   -2.7660   24.4750  -29.7420 C   0  0  0  0  0  0  0  0  0  0  0  0
   -1.9910   25.3270  -29.2350 O   0  0  0  0  0  0  0  0  0  0  0  0
   -2.4700   23.0800  -29.5730 N   0  0  0  0  0  0  0  0  0  0  0  0
   -2.6910   22.0440  -30.5380 C   0  0  0  0  0  0  0  0  0  0  0  0
   -3.7380   21.1150  -30.3980 C   0  0  0  0  0  0  0  0  0  0  0  0
   -3.9220   20.1140  -31.3570 C   0  0  0  0  0  0  0  0  0  0  0  0
   -3.0760   20.0420  -32.4670 C   0  0  0  0  0  0  0  0  0  0  0  0
   -2.0470   20.9820  -32.6250 C   0  0  0  0  0  0  0  0  0  0  0  0
   -1.1740   20.9270  -33.7670 C   0  0  0  0  0  0  0  0  0  0  0  0
   -0.4620   20.8920  -34.6760 N   0  0  0  0  0  0  0  0  0  0  0  0
   -1.8610   21.9840  -31.6630 C   0  0  0  0  0  0  0  0  0  0  0  0
   -5.1600   23.4830  -31.9800 C   0  0  0  0  0  0  0  0  0  0  0  0
   -6.2640   22.6830  -32.2810 C   0  0  0  0  0  0  0  0  0  0  0  0
   -7.3900   18.5140  -31.8560 C   0  0  0  0  0  0  0  0  0  0  0  0
   -6.4890   17.4600  -31.6950 C   0  0  0  0  0  0  0  0  0  0  0  0
   -2.5260   15.9047  -32.3763 H   0  0  0  0  0  0  0  0  0  0  0  0
   -3.4104   15.1238  -33.7308 H   0  0  0  0  0  0  0  0  0  0  0  0
   -3.1564   16.9020  -33.7308 H   0  0  0  0  0  0  0  0  0  0  0  0
   -4.6312   17.9000  -34.5304 H   0  0  0  0  0  0  0  0  0  0  0  0
   -6.2745   19.7464  -34.8406 H   0  0  0  0  0  0  0  0  0  0  0  0
   -8.0864   23.1481  -29.4258 H   0  0  0  0  0  0  0  0  0  0  0  0
   -6.1201   24.5915  -28.8923 H   0  0  0  0  0  0  0  0  0  0  0  0
   -4.4136   21.1761  -29.5321 H   0  0  0  0  0  0  0  0  0  0  0  0
   -4.7342   19.3819  -31.2374 H   0  0  0  0  0  0  0  0  0  0  0  0
   -3.2169   19.2489  -33.2161 H   0  0  0  0  0  0  0  0  0  0  0  0
   -1.0595   22.7261  -31.7928 H   0  0  0  0  0  0  0  0  0  0  0  0
   -4.3459   23.5918  -32.7117 H   0  0  0  0  0  0  0  0  0  0  0  0
   -6.3084   22.1524  -33.2435 H   0  0  0  0  0  0  0  0  0  0  0  0
   -8.1708   18.6831  -31.0998 H   0  0  0  0  0  0  0  0  0  0  0  0
   -6.5746   16.7967  -30.8216 H   0  0  0  0  0  0  0  0  0  0  0  0
  1  2  1  0
  2  3  1  0
  3  4  2  0
  4  5  1  0
  5  6  2  0
  6  7  1  0
  7  8  1  0
  8  9  2  0
  8 10  2  0
  8 11  1  0
 11 12  2  0
 12 13  1  0
 13 14  2  0
 14 15  1  0
 15 16  1  0
 16 17  2  0
 16 18  1  0
 18 19  1  0
 19 20  2  0
 20 21  1  0
 21 22  2  0
 22 23  1  0
 23 24  1  0
 24 25  3  0
 23 26  2  0
 14 27  1  0
 27 28  2  0
  6 29  1  0
 29 30  2  0
 30  3  1  0
 28 11  1  0
 26 19  1  0
  1 31  1  0
  1 32  1  0
  1 33  1  0
  4 34  1  0
  5 35  1  0
 12 36  1  0
 13 37  1  0
 20 38  1  0
 21 39  1  0
 22 40  1  0
 26 41  1  0
 27 42  1  0
 28 43  1  0
 29 44  1  0
 30 45  1  0
M  CHG  3   7  -1  15  -1  18  -1
M  END
>  <UniqueID>  (10) 
9

>  <SMILES>  (10) 
COc1ccc([N-]S(=O)(=O)c2ccc([N-]C(=O)[N-]c3cccc(C#N)c3)cc2)cc1

>  <Energy>  (10) 
54.367018385335015

>  <Genealogy>  (10) 
COc1ccc([N-]S(=O)(=O)c2ccc([N-]C(=O)[N-]c3cccc(C#N)c3)cc2)cc1 (protonated)
COc1ccc([N-]S(=O)(=O)c2ccc([N-]C(=O)[N-]c3cccc(C#N)c3)cc2)cc1 (3D coordinates assigned)
COc1ccc([N-]S(=O)(=O)c2ccc([N-]C(=O)[N-]c3cccc(C#N)c3)cc2)cc1 (optimized conformer: 54.367018385335015 kcal/mol)

>  <smiles>  (10) 
COc1ccc(NS(=O)(=O)c2ccc(NC(=O)Nc3cccc(C#N)c3)cc2)cc1

>  <score_type>  (10) 
oracle

>  <origin>  (10) 
adgpu

>  <m_score__min__energy>  (10) 
-12.609999999999999

>  <m_primary>  (10) 
energy

$$$$
10:0
     RDKit          3D

 46 48  0  0  0  0  0  0  0  0999 V2000
   -9.1560   19.1050  -33.4670 H   0  0  0  0  0  0  0  0  0  0  0  0
   -9.2510   20.0420  -33.0190 N   0  0  0  0  0  0  0  0  0  0  0  0
   -8.2720   20.6410  -32.4180 C   0  0  0  0  0  0  0  0  0  0  0  0
   -8.3880   21.8370  -31.7470 C   0  0  0  0  0  0  0  0  0  0  0  0
   -9.2639   22.4993  -31.6820 H   0  0  0  0  0  0  0  0  0  0  0  0
   -7.1390   22.0080  -31.1730 C   0  0  0  0  0  0  0  0  0  0  0  0
   -6.7540   23.1090  -30.2300 C   0  0  0  0  0  0  0  0  0  0  0  0
   -7.6403   23.4089  -29.6517 H   0  0  0  0  0  0  0  0  0  0  0  0
   -5.9602   22.7314  -29.5687 H   0  0  0  0  0  0  0  0  0  0  0  0
   -6.2100   24.3350  -30.9780 C   0  0  0  0  0  0  0  0  0  0  0  0
   -6.3722   24.1966  -32.0571 H   0  0  0  0  0  0  0  0  0  0  0  0
   -6.7420   25.2263  -30.6139 H   0  0  0  0  0  0  0  0  0  0  0  0
   -4.7460   24.5250  -30.7260 C   0  0  0  0  0  0  0  0  0  0  0  0
   -4.2380   25.6740  -30.8250 O   0  0  0  0  0  0  0  0  0  0  0  0
   -3.9430   23.3910  -30.3730 N   0  0  0  0  0  0  0  0  0  0  0  0
   -3.5140   22.3260  -31.2340 C   0  0  0  0  0  0  0  0  0  0  0  0
   -4.0080   22.2910  -32.5430 C   0  0  0  0  0  0  0  0  0  0  0  0
   -4.7513   23.0350  -32.8654 H   0  0  0  0  0  0  0  0  0  0  0  0
   -3.5650   21.3190  -33.4440 C   0  0  0  0  0  0  0  0  0  0  0  0
   -3.9697   21.2983  -34.4667 H   0  0  0  0  0  0  0  0  0  0  0  0
   -2.6110   20.3720  -33.0560 C   0  0  0  0  0  0  0  0  0  0  0  0
   -2.1860   19.4280  -34.0010 O   0  0  0  0  0  0  0  0  0  0  0  0
   -2.1440   18.0230  -33.7700 C   0  0  0  0  0  0  0  0  0  0  0  0
   -2.1382   17.8295  -32.6872 H   0  0  0  0  0  0  0  0  0  0  0  0
   -3.0284   17.5505  -34.2222 H   0  0  0  0  0  0  0  0  0  0  0  0
   -1.2329   17.6041  -34.2222 H   0  0  0  0  0  0  0  0  0  0  0  0
   -2.1070   20.4070  -31.7420 C   0  0  0  0  0  0  0  0  0  0  0  0
   -1.3609   19.6644  -31.4228 H   0  0  0  0  0  0  0  0  0  0  0  0
   -2.5490   21.3800  -30.8400 C   0  0  0  0  0  0  0  0  0  0  0  0
   -2.1410   21.4062  -29.8188 H   0  0  0  0  0  0  0  0  0  0  0  0
   -6.3340   20.9710  -31.4870 N   0  0  0  0  0  0  0  0  0  0  0  0
   -7.0220   20.1450  -32.2620 N   0  0  0  0  0  0  0  0  0  0  0  0
   -6.4710   18.9270  -32.7900 C   0  0  0  0  0  0  0  0  0  0  0  0
   -6.2630   17.8310  -31.9410 C   0  0  0  0  0  0  0  0  0  0  0  0
   -6.5363   17.9043  -30.8780 H   0  0  0  0  0  0  0  0  0  0  0  0
   -5.7110   16.6460  -32.4350 C   0  0  0  0  0  0  0  0  0  0  0  0
   -5.5567   15.7907  -31.7607 H   0  0  0  0  0  0  0  0  0  0  0  0
   -5.3530   16.5430  -33.7870 C   0  0  0  0  0  0  0  0  0  0  0  0
   -4.7230   15.2870  -34.3090 C   0  0  0  0  0  0  0  0  0  0  0  0
   -4.4070   14.6569  -33.4645 H   0  0  0  0  0  0  0  0  0  0  0  0
   -5.4527   14.7385  -34.9228 H   0  0  0  0  0  0  0  0  0  0  0  0
   -3.8470   15.5439  -34.9228 H   0  0  0  0  0  0  0  0  0  0  0  0
   -5.5180   17.6530  -34.6290 C   0  0  0  0  0  0  0  0  0  0  0  0
   -5.2096   17.5913  -35.6831 H   0  0  0  0  0  0  0  0  0  0  0  0
   -6.0730   18.8380  -34.1340 C   0  0  0  0  0  0  0  0  0  0  0  0
   -6.1983   19.7041  -34.8005 H   0  0  0  0  0  0  0  0  0  0  0  0
  1  2  1  0
  2  3  2  0
  3  4  1  0
  4  5  1  0
  4  6  2  0
  6  7  1  0
  7  8  1  0
  7  9  1  0
  7 10  1  0
 10 11  1  0
 10 12  1  0
 10 13  1  0
 13 14  2  0
 13 15  1  0
 15 16  1  0
 16 17  2  0
 17 18  1  0
 17 19  1  0
 19 20  1  0
 19 21  2  0
 21 22  1  0
 22 23  1  0
 23 24  1  0
 23 25  1  0
 23 26  1  0
 21 27  1  0
 27 28  1  0
 27 29  2  0
 29 30  1  0
  6 31  1  0
 31 32  1  0
 32 33  1  0
 33 34  2  0
 34 35  1  0
 34 36  1  0
 36 37  1  0
 36 38  2  0
 38 39  1  0
 39 40  1  0
 39 41  1  0
 39 42  1  0
 38 43  1  0
 43 44  1  0
 43 45  2  0
 45 46  1  0
 32  3  1  0
 45 33  1  0
 29 16  1  0
M  CHG  2  15  -1  31  -1
M  END
>  <UniqueID>  (11) 
10

>  <SMILES>  (11) 
[H]/N=c1/cc(CCC(=O)[N-]c2ccc(OC)cc2)[n-]n1-c1ccc(C)cc1

>  <Energy>  (11) 
80.43343767538134

>  <Genealogy>  (11) 
COc1ccc([N-]C(=O)CCc2cc(=N)n(-c3ccc(C)cc3)[n-]2)cc1 (protonated)
[H]/N=c1/cc(CCC(=O)[N-]c2ccc(OC)cc2)[n-]n1-c1ccc(C)cc1 (cis-trans isomerization)
[H]/N=c1/cc(CCC(=O)[N-]c2ccc(OC)cc2)[n-]n1-c1ccc(C)cc1 (3D coordinates assigned)
[H]/N=c1/cc(CCC(=O)[N-]c2ccc(OC)cc2)[n-]n1-c1ccc(C)cc1 (optimized conformer: 80.43343767538134 kcal/mol)

>  <smiles>  (11) 
COc1ccc(NC(=O)CCc2cc(=N)n(-c3ccc(C)cc3)[nH]2)cc1

>  <score_type>  (11) 
oracle

>  <origin>  (11) 
adgpu

>  <m_score__min__energy>  (11) 
-9.9399999999999995

>  <m_primary>  (11) 
energy

$$$$
11:0
     RDKit          3D

 45 48  0  0  0  0  0  0  0  0999 V2000
   -8.2840   20.5160  -32.2490 C   0  0  0  0  0  0  0  0  0  0  0  0
   -6.9870   20.7400  -32.7170 C   0  0  0  0  0  0  0  0  0  0  0  0
   -6.2570   21.8400  -32.2570 C   0  0  0  0  0  0  0  0  0  0  0  0
   -6.8230   22.7290  -31.3280 C   0  0  0  0  0  0  0  0  0  0  0  0
   -6.0220   23.8980  -30.8120 C   0  0  0  0  0  0  0  0  0  0  0  0
   -4.7970   23.4390  -29.9860 C   0  0  1  0  0  0  0  0  0  0  0  0
   -3.5140   23.4310  -30.8550 C   0  0  0  0  0  0  0  0  0  0  0  0
   -2.2240   23.0280  -30.1190 C   0  0  0  0  0  0  0  0  0  0  0  0
   -1.7450   24.0140  -29.0370 C   0  0  0  0  0  0  0  0  0  0  0  0
   -2.3800   23.7690  -27.7300 N   0  0  0  0  0  0  0  0  0  0  0  0
   -1.5590   23.6460  -26.5580 C   0  0  0  0  0  0  0  0  0  0  0  0
   -1.0270   22.4360  -26.2110 N   0  0  0  0  0  0  0  0  0  0  0  0
   -0.2490   22.2880  -25.0930 C   0  0  0  0  0  0  0  0  0  0  0  0
    0.0090   23.3570  -24.2810 N   0  0  0  0  0  0  0  0  0  0  0  0
   -0.5210   24.5580  -24.6140 C   0  0  0  0  0  0  0  0  0  0  0  0
   -0.4030   25.6970  -23.9150 N   0  0  0  0  0  0  0  0  0  0  0  0
   -1.1310   26.6120  -24.5950 C   0  0  0  0  0  0  0  0  0  0  0  0
   -1.7090   26.0450  -25.7280 C   0  0  0  0  0  0  0  0  0  0  0  0
   -1.2960   24.7290  -25.7200 C   0  0  0  0  0  0  0  0  0  0  0  0
   -3.8320   23.5540  -27.5790 C   0  0  0  0  0  0  0  0  0  0  0  0
   -4.6740   24.2450  -28.6640 C   0  0  0  0  0  0  0  0  0  0  0  0
   -8.1270   22.4920  -30.8580 C   0  0  0  0  0  0  0  0  0  0  0  0
   -8.8530   21.3910  -31.3200 C   0  0  0  0  0  0  0  0  0  0  0  0
   -8.8576   19.6504  -32.6120 H   0  0  0  0  0  0  0  0  0  0  0  0
   -6.5397   20.0504  -33.4480 H   0  0  0  0  0  0  0  0  0  0  0  0
   -5.2342   22.0103  -32.6243 H   0  0  0  0  0  0  0  0  0  0  0  0
   -5.6709   24.4937  -31.6675 H   0  0  0  0  0  0  0  0  0  0  0  0
   -6.6727   24.4931  -30.1544 H   0  0  0  0  0  0  0  0  0  0  0  0
   -4.9456   22.3952  -29.6723 H   0  0  0  0  0  0  0  0  0  0  0  0
   -3.6685   22.7230  -31.6826 H   0  0  0  0  0  0  0  0  0  0  0  0
   -3.3640   24.4693  -31.1856 H   0  0  0  0  0  0  0  0  0  0  0  0
   -2.3980   22.0543  -29.6377 H   0  0  0  0  0  0  0  0  0  0  0  0
   -1.4328   23.0086  -30.8829 H   0  0  0  0  0  0  0  0  0  0  0  0
   -0.6555   23.9125  -28.9245 H   0  0  0  0  0  0  0  0  0  0  0  0
   -2.0253   25.0274  -29.3603 H   0  0  0  0  0  0  0  0  0  0  0  0
    0.1712   21.3016  -24.8470 H   0  0  0  0  0  0  0  0  0  0  0  0
    0.1240   25.8430  -23.0250 H   0  0  0  0  0  0  0  0  0  0  0  0
   -1.2505   27.6631  -24.2935 H   0  0  0  0  0  0  0  0  0  0  0  0
   -2.3548   26.5394  -26.4686 H   0  0  0  0  0  0  0  0  0  0  0  0
   -4.0295   22.4727  -27.6220 H   0  0  0  0  0  0  0  0  0  0  0  0
   -4.1243   23.9954  -26.6148 H   0  0  0  0  0  0  0  0  0  0  0  0
   -5.6857   24.4074  -28.2639 H   0  0  0  0  0  0  0  0  0  0  0  0
   -4.1579   25.1838  -28.9137 H   0  0  0  0  0  0  0  0  0  0  0  0
   -8.5774   23.1761  -30.1237 H   0  0  0  0  0  0  0  0  0  0  0  0
   -9.8741   21.2129  -30.9517 H   0  0  0  0  0  0  0  0  0  0  0  0
  1  2  2  0
  2  3  1  0
  3  4  2  0
  4  5  1  0
  5  6  1  0
  6  7  1  0
  7  8  1  0
  8  9  1  0
  9 10  1  0
 10 11  1  0
 11 12  2  0
 12 13  1  0
 13 14  2  0
 14 15  1  0
 15 16  1  0
 16 17  1  0
 17 18  2  0
 18 19  1  0
 10 20  1  0
 20 21  1  0
  4 22  1  0
 22 23  2  0
 23  1  1  0
 21  6  1  0
 19 11  1  0
 19 15  2  0
  1 24  1  0
  2 25  1  0
  3 26  1  0
  5 27  1  0
  5 28  1  0
  6 29  1  1
  7 30  1  0
  7 31  1  0
  8 32  1  0
  8 33  1  0
  9 34  1  0
  9 35  1  0
 13 36  1  0
 16 37  1  0
 17 38  1  0
 18 39  1  0
 20 40  1  0
 20 41  1  0
 21 42  1  0
 21 43  1  0
 22 44  1  0
 23 45  1  0
M  END
>  <UniqueID>  (12) 
11

>  <SMILES>  (12) 
c1ccc(C[C@H]2CCCN(c3ncnc4[nH]ccc34)CC2)cc1

>  <Energy>  (12) 
92.47190944235376

>  <Genealogy>  (12) 
c1ccc(C[C@H]2CCCN(c3ncnc4[nH]ccc34)CC2)cc1 (chirality)
c1ccc(C[C@H]2CCCN(c3ncnc4[nH]ccc34)CC2)cc1 (3D coordinates assigned)
c1ccc(C[C@H]2CCCN(c3ncnc4[nH]ccc34)CC2)cc1 (nonaromatic ring conformer: 92.47190944235376 kcal/mol)

>  <smiles>  (12) 
c1ccc(CC2CCCN(c3ncnc4[nH]ccc34)CC2)cc1

>  <score_type>  (12) 
oracle

>  <origin>  (12) 
adgpu

>  <m_score__min__energy>  (12) 
-5.8799999999999999

>  <m_primary>  (12) 
energy

$$$$
12:0
     RDKit          3D

 68 72  0  0  0  0  0  0  0  0999 V2000
   -1.8990   21.8810  -33.1430 O   0  0  0  0  0  0  0  0  0  0  0  0
   -1.9750   20.9700  -32.2760 C   0  0  0  0  0  0  0  0  0  0  0  0
   -2.2530   19.5800  -32.7070 C   0  0  0  0  0  0  0  0  0  0  0  0
   -1.2080   18.6510  -32.8460 C   0  0  0  0  0  0  0  0  0  0  0  0
   -1.4770   17.3400  -33.2470 C   0  0  0  0  0  0  0  0  0  0  0  0
   -2.7890   16.9430  -33.5130 C   0  0  0  0  0  0  0  0  0  0  0  0
   -3.8410   17.8590  -33.3880 C   0  0  0  0  0  0  0  0  0  0  0  0
   -5.5020   17.3680  -33.7150 S   0  0  0  0  0  0  0  0  0  0  0  0
   -5.7040   17.2030  -35.1960 O   0  0  0  0  0  0  0  0  0  0  0  0
   -5.7520   16.0430  -33.0480 O   0  0  0  0  0  0  0  0  0  0  0  0
   -6.6120   18.5640  -33.0900 N   0  0  0  0  0  0  0  0  0  0  0  0
   -6.4510   18.7270  -31.6240 C   0  0  0  0  0  0  0  0  0  0  0  0
   -5.6210   19.9580  -31.2390 C   0  0  0  0  0  0  0  0  0  0  0  0
   -6.1930   21.1670  -31.8440 N   0  0  0  0  0  0  0  0  0  0  0  0
   -6.0470   22.4540  -31.2050 C   0  0  0  0  0  0  0  0  0  0  0  0
   -4.8930   23.2290  -31.4310 C   0  0  0  0  0  0  0  0  0  0  0  0
   -4.7510   24.4820  -30.8310 C   0  0  0  0  0  0  0  0  0  0  0  0
   -5.7560   24.9800  -30.0000 C   0  0  0  0  0  0  0  0  0  0  0  0
   -6.9010   24.2200  -29.7590 C   0  0  0  0  0  0  0  0  0  0  0  0
   -7.0520   22.9610  -30.3520 C   0  0  0  0  0  0  0  0  0  0  0  0
   -8.1600   22.2330  -30.0710 F   0  0  0  0  0  0  0  0  0  0  0  0
   -6.9700   21.0390  -33.0840 C   0  0  0  0  0  0  0  0  0  0  0  0
   -6.4910   19.8170  -33.8710 C   0  0  0  0  0  0  0  0  0  0  0  0
   -3.5690   19.1780  -32.9980 C   0  0  0  0  0  0  0  0  0  0  0  0
   -1.8170   21.3040  -30.8840 N   0  0  0  0  0  0  0  0  0  0  0  0
   -2.7000   20.7400  -29.8600 C   0  0  0  0  0  0  0  0  0  0  0  0
   -3.3470   21.8750  -29.0510 C   0  0  0  0  0  0  0  0  0  0  0  0
   -2.3630   22.8720  -28.5650 N   0  0  0  0  0  0  0  0  0  0  0  0
   -1.5460   22.3870  -27.4300 C   0  0  0  0  0  0  0  0  0  0  0  0
   -1.3020   23.5000  -26.4440 C   0  0  0  0  0  0  0  0  0  0  0  0
   -0.3940   23.3300  -25.3850 C   0  0  0  0  0  0  0  0  0  0  0  0
   -0.1860   24.3620  -24.4640 C   0  0  0  0  0  0  0  0  0  0  0  0
   -0.8870   25.5650  -24.5910 C   0  0  0  0  0  0  0  0  0  0  0  0
   -1.7950   25.7390  -25.6400 C   0  0  0  0  0  0  0  0  0  0  0  0
   -2.0030   24.7100  -26.5640 C   0  0  0  0  0  0  0  0  0  0  0  0
   -1.5370   23.4100  -29.6690 C   0  0  0  0  0  0  0  0  0  0  0  0
   -0.8320   22.2990  -30.4580 C   0  0  0  0  0  0  0  0  0  0  0  0
   -0.1723   18.9577  -32.6379 H   0  0  0  0  0  0  0  0  0  0  0  0
   -0.6533   16.6188  -33.3534 H   0  0  0  0  0  0  0  0  0  0  0  0
   -2.9969   15.9078  -33.8216 H   0  0  0  0  0  0  0  0  0  0  0  0
   -7.4490   18.8231  -31.1715 H   0  0  0  0  0  0  0  0  0  0  0  0
   -5.9125   17.8419  -31.2545 H   0  0  0  0  0  0  0  0  0  0  0  0
   -5.6185   20.0662  -30.1443 H   0  0  0  0  0  0  0  0  0  0  0  0
   -4.5927   19.8258  -31.6066 H   0  0  0  0  0  0  0  0  0  0  0  0
   -4.0970   22.8442  -32.0855 H   0  0  0  0  0  0  0  0  0  0  0  0
   -3.8448   25.0781  -31.0137 H   0  0  0  0  0  0  0  0  0  0  0  0
   -5.6453   25.9709  -29.5355 H   0  0  0  0  0  0  0  0  0  0  0  0
   -7.6892   24.6122  -29.0995 H   0  0  0  0  0  0  0  0  0  0  0  0
   -8.0353   20.9199  -32.8370 H   0  0  0  0  0  0  0  0  0  0  0  0
   -6.8305   21.9427  -33.6954 H   0  0  0  0  0  0  0  0  0  0  0  0
   -7.0967   19.7246  -34.7845 H   0  0  0  0  0  0  0  0  0  0  0  0
   -5.4271   19.9648  -34.1084 H   0  0  0  0  0  0  0  0  0  0  0  0
   -4.3914   19.9042  -32.9190 H   0  0  0  0  0  0  0  0  0  0  0  0
   -3.4862   20.1421  -30.3442 H   0  0  0  0  0  0  0  0  0  0  0  0
   -2.1125   20.1007  -29.1847 H   0  0  0  0  0  0  0  0  0  0  0  0
   -4.0797   22.3884  -29.6910 H   0  0  0  0  0  0  0  0  0  0  0  0
   -3.8207   21.4217  -28.1677 H   0  0  0  0  0  0  0  0  0  0  0  0
   -2.0773   21.5663  -26.9258 H   0  0  0  0  0  0  0  0  0  0  0  0
   -0.5781   22.0320  -27.8135 H   0  0  0  0  0  0  0  0  0  0  0  0
    0.1548   22.3825  -25.2800 H   0  0  0  0  0  0  0  0  0  0  0  0
    0.5294   24.2270  -23.6394 H   0  0  0  0  0  0  0  0  0  0  0  0
   -0.7241   26.3753  -23.8651 H   0  0  0  0  0  0  0  0  0  0  0  0
   -2.3461   26.6859  -25.7385 H   0  0  0  0  0  0  0  0  0  0  0  0
   -2.7185   24.8495  -27.3877 H   0  0  0  0  0  0  0  0  0  0  0  0
   -2.1859   23.9747  -30.3546 H   0  0  0  0  0  0  0  0  0  0  0  0
   -0.7629   24.0557  -29.2287 H   0  0  0  0  0  0  0  0  0  0  0  0
   -0.3416   22.7317  -31.3424 H   0  0  0  0  0  0  0  0  0  0  0  0
   -0.0768   21.8177  -29.8192 H   0  0  0  0  0  0  0  0  0  0  0  0
  1  2  2  0
  2  3  1  0
  3  4  2  0
  4  5  1  0
  5  6  2  0
  6  7  1  0
  7  8  1  0
  8  9  2  0
  8 10  2  0
  8 11  1  0
 11 12  1  0
 12 13  1  0
 13 14  1  0
 14 15  1  0
 15 16  2  0
 16 17  1  0
 17 18  2  0
 18 19  1  0
 19 20  2  0
 20 21  1  0
 14 22  1  0
 22 23  1  0
  7 24  2  0
  2 25  1  0
 25 26  1  0
 26 27  1  0
 27 28  1  0
 28 29  1  0
 29 30  1  0
 30 31  2  0
 31 32  1  0
 32 33  2  0
 33 34  1  0
 34 35  2  0
 28 36  1  0
 36 37  1  0
 24  3  1  0
 37 25  1  0
 23 11  1  0
 35 30  1  0
 20 15  1  0
  4 38  1  0
  5 39  1  0
  6 40  1  0
 12 41  1  0
 12 42  1  0
 13 43  1  0
 13 44  1  0
 16 45  1  0
 17 46  1  0
 18 47  1  0
 19 48  1  0
 22 49  1  0
 22 50  1  0
 23 51  1  0
 23 52  1  0
 24 53  1  0
 26 54  1  0
 26 55  1  0
 27 56  1  0
 27 57  1  0
 29 58  1  0
 29 59  1  0
 31 60  1  0
 32 61  1  0
 33 62  1  0
 34 63  1  0
 35 64  1  0
 36 65  1  0
 36 66  1  0
 37 67  1  0
 37 68  1  0
M  END
>  <UniqueID>  (13) 
12

>  <SMILES>  (13) 
O=C(c1cccc(S(=O)(=O)N2CCN(c3ccccc3F)CC2)c1)N1CCN(Cc2ccccc2)CC1

>  <Energy>  (13) 
90.79635112839846

>  <Genealogy>  (13) 
O=C(c1cccc(S(=O)(=O)N2CCN(c3ccccc3F)CC2)c1)N1CCN(Cc2ccccc2)CC1 (3D coordinates assigned)
O=C(c1cccc(S(=O)(=O)N2CCN(c3ccccc3F)CC2)c1)N1CCN(Cc2ccccc2)CC1 (nonaromatic ring conformer: 90.79635112839846 kcal/mol)

>  <smiles>  (13) 
O=C(c1cccc(S(=O)(=O)N2CCN(c3ccccc3F)CC2)c1)N1CCN(Cc2ccccc2)CC1

>  <score_type>  (13) 
oracle

>  <origin>  (13) 
adgpu

>  <m_score__min__energy>  (13) 
-11.82

>  <m_primary>  (13) 
energy

$$$$
13:0
     RDKit          3D

 27 28  0  0  0  0  0  0  0  0999 V2000
    1.3850   15.5960  -27.8800 N   0  0  0  0  0  0  0  0  0  0  0  0
    1.2810   17.0220  -27.8870 C   0  0  0  0  0  0  0  0  0  0  0  0
    0.0230   17.6370  -27.9360 C   0  0  0  0  0  0  0  0  0  0  0  0
   -0.0790   19.0300  -27.9400 C   0  0  0  0  0  0  0  0  0  0  0  0
    1.0710   19.8280  -27.8770 C   0  0  0  0  0  0  0  0  0  0  0  0
    0.9170   21.2540  -27.8930 N   0  0  0  0  0  0  0  0  0  0  0  0
   -0.1650   21.9820  -27.2970 C   0  0  0  0  0  0  0  0  0  0  0  0
   -0.4090   21.8490  -26.0670 O   0  0  0  0  0  0  0  0  0  0  0  0
   -1.0270   22.8490  -28.1340 C   0  0  0  0  0  0  0  0  0  0  0  0
   -2.0560   22.2920  -28.9160 C   0  0  0  0  0  0  0  0  0  0  0  0
   -2.8710   23.1110  -29.7040 C   0  0  0  0  0  0  0  0  0  0  0  0
   -2.6690   24.4930  -29.7220 C   0  0  0  0  0  0  0  0  0  0  0  0
   -3.4830   25.3010  -30.5090 O   0  0  0  0  0  0  0  0  0  0  0  0
   -1.6510   25.0600  -28.9480 C   0  0  0  0  0  0  0  0  0  0  0  0
   -1.4460   26.4340  -28.9630 O   0  0  0  0  0  0  0  0  0  0  0  0
   -0.8340   24.2440  -28.1590 C   0  0  0  0  0  0  0  0  0  0  0  0
    2.3380   19.2110  -27.8680 C   0  0  0  0  0  0  0  0  0  0  0  0
    3.5030   19.9690  -27.9050 O   0  0  0  0  0  0  0  0  0  0  0  0
    2.4370   17.8150  -27.8570 C   0  0  0  0  0  0  0  0  0  0  0  0
    1.0820   15.0420  -27.0480 H   0  0  0  0  0  0  0  0  0  0  0  0
    1.7660   15.0840  -28.7060 H   0  0  0  0  0  0  0  0  0  0  0  0
   -0.8874   17.0206  -27.9714 H   0  0  0  0  0  0  0  0  0  0  0  0
   -1.0700   19.5044  -27.9930 H   0  0  0  0  0  0  0  0  0  0  0  0
   -2.2205   21.2044  -28.9074 H   0  0  0  0  0  0  0  0  0  0  0  0
   -3.6730   22.6658  -30.3111 H   0  0  0  0  0  0  0  0  0  0  0  0
   -0.0344   24.6952  -27.5532 H   0  0  0  0  0  0  0  0  0  0  0  0
    3.4273   17.3372  -27.8246 H   0  0  0  0  0  0  0  0  0  0  0  0
  1  2  1  0
  2  3  2  0
  3  4  1  0
  4  5  2  0
  5  6  1  0
  6  7  1  0
  7  8  2  0
  7  9  1  0
  9 10  2  0
 10 11  1  0
 11 12  2  0
 12 13  1  0
 12 14  1  0
 14 15  1  0
 14 16  2  0
  5 17  1  0
 17 18  1  0
 17 19  2  0
 19  2  1  0
 16  9  1  0
  1 20  1  0
  1 21  1  0
  3 22  1  0
  4 23  1  0
 10 24  1  0
 11 25  1  0
 16 26  1  0
 19 27  1  0
M  CHG  4   6  -1  13  -1  15  -1  18  -1
M  END
>  <UniqueID>  (14) 
13

>  <SMILES>  (14) 
Nc1ccc([N-]C(=O)c2ccc([O-])c([O-])c2)c([O-])c1

>  <Energy>  (14) 
33.8926956295349

>  <Genealogy>  (14) 
Nc1ccc([N-]C(=O)c2ccc([O-])c([O-])c2)c([O-])c1 (protonated)
Nc1ccc([N-]C(=O)c2ccc([O-])c([O-])c2)c([O-])c1 (3D coordinates assigned)
Nc1ccc([N-]C(=O)c2ccc([O-])c([O-])c2)c([O-])c1 (optimized conformer: 33.8926956295349 kcal/mol)

>  <smiles>  (14) 
Nc1ccc(NC(=O)c2ccc(O)c(O)c2)c(O)c1

>  <score_type>  (14) 
oracle

>  <origin>  (14) 
adgpu

>  <m_score__min__energy>  (14) 
-11.5

>  <m_primary>  (14) 
energy

$$$$
14:0
     RDKit          3D

 37 39  0  0  0  0  0  0  0  0999 V2000
    2.5280   24.9500  -27.9760 C   0  0  0  0  0  0  0  0  0  0  0  0
    1.8770   25.0620  -26.6660 N   0  0  0  0  0  0  0  0  0  0  0  0
    2.6490   24.8430  -25.4640 C   0  0  0  0  0  0  0  0  0  0  0  0
    3.8460   24.4510  -25.5360 O   0  0  0  0  0  0  0  0  0  0  0  0
    2.0250   25.0350  -24.1130 C   0  0  0  0  0  0  0  0  0  0  0  0
    0.9930   26.5310  -24.1480 S   0  0  0  0  0  0  0  0  0  0  0  0
   -0.0930   25.8650  -25.4120 C   0  0  0  0  0  0  0  0  0  0  0  0
   -1.4790   25.9340  -25.2370 C   0  0  0  0  0  0  0  0  0  0  0  0
   -2.3360   25.4570  -26.2290 C   0  0  0  0  0  0  0  0  0  0  0  0
   -1.8150   24.9080  -27.4100 C   0  0  0  0  0  0  0  0  0  0  0  0
   -2.6820   24.3720  -28.4230 N   0  0  0  0  0  0  0  0  0  0  0  0
   -2.3870   23.2080  -29.2220 C   0  0  0  0  0  0  0  0  0  0  0  0
   -1.1600   22.1910  -28.8200 S   0  0  0  0  0  0  0  0  0  0  0  0
   -3.1840   22.8910  -30.3720 N   0  0  0  0  0  0  0  0  0  0  0  0
   -4.5390   23.3310  -30.5530 C   0  0  0  0  0  0  0  0  0  0  0  0
   -5.5670   22.3780  -30.6090 C   0  0  0  0  0  0  0  0  0  0  0  0
   -6.8960   22.7820  -30.7650 C   0  0  0  0  0  0  0  0  0  0  0  0
   -7.2100   24.1400  -30.8510 C   0  0  0  0  0  0  0  0  0  0  0  0
   -6.1970   25.0980  -30.7680 C   0  0  0  0  0  0  0  0  0  0  0  0
   -4.8640   24.7010  -30.6070 C   0  0  0  0  0  0  0  0  0  0  0  0
   -3.8750   25.6700  -30.4810 O   0  0  0  0  0  0  0  0  0  0  0  0
   -0.4260   24.7880  -27.5600 C   0  0  0  0  0  0  0  0  0  0  0  0
    0.4490   25.2700  -26.5670 C   0  0  0  0  0  0  0  0  0  0  0  0
    3.6033   24.7650  -27.8364 H   0  0  0  0  0  0  0  0  0  0  0  0
    2.0821   24.1154  -28.5369 H   0  0  0  0  0  0  0  0  0  0  0  0
    2.3867   25.8857  -28.5369 H   0  0  0  0  0  0  0  0  0  0  0  0
    1.4021   24.1625  -23.8666 H   0  0  0  0  0  0  0  0  0  0  0  0
    2.8113   25.1425  -23.3513 H   0  0  0  0  0  0  0  0  0  0  0  0
   -1.8945   26.3657  -24.3145 H   0  0  0  0  0  0  0  0  0  0  0  0
   -3.4251   25.5116  -26.0845 H   0  0  0  0  0  0  0  0  0  0  0  0
   -3.5990   24.8530  -28.5550 H   0  0  0  0  0  0  0  0  0  0  0  0
   -2.7330   22.3620  -31.1540 H   0  0  0  0  0  0  0  0  0  0  0  0
   -5.3260   21.3077  -30.5298 H   0  0  0  0  0  0  0  0  0  0  0  0
   -7.6959   22.0289  -30.8201 H   0  0  0  0  0  0  0  0  0  0  0  0
   -8.2554   24.4553  -30.9841 H   0  0  0  0  0  0  0  0  0  0  0  0
   -6.4472   26.1674  -30.8293 H   0  0  0  0  0  0  0  0  0  0  0  0
   -0.0153   24.3124  -28.4628 H   0  0  0  0  0  0  0  0  0  0  0  0
  1  2  1  0
  2  3  1  0
  3  4  2  0
  3  5  1  0
  5  6  1  0
  6  7  1  0
  7  8  2  0
  8  9  1  0
  9 10  2  0
 10 11  1  0
 11 12  1  0
 12 13  2  0
 12 14  1  0
 14 15  1  0
 15 16  2  0
 16 17  1  0
 17 18  2  0
 18 19  1  0
 19 20  2  0
 20 21  1  0
 10 22  1  0
 22 23  2  0
 23  2  1  0
 23  7  1  0
 20 15  1  0
  1 24  1  0
  1 25  1  0
  1 26  1  0
  5 27  1  0
  5 28  1  0
  8 29  1  0
  9 30  1  0
 11 31  1  0
 14 32  1  0
 16 33  1  0
 17 34  1  0
 18 35  1  0
 19 36  1  0
 22 37  1  0
M  CHG  1  21  -1
M  END
>  <UniqueID>  (15) 
14

>  <SMILES>  (15) 
CN1C(=O)CSc2ccc(NC(=S)Nc3ccccc3[O-])cc21

>  <Energy>  (15) 
56.48647147164503

>  <Genealogy>  (15) 
CN1C(=O)CSc2ccc(NC(=S)Nc3ccccc3[O-])cc21 (protonated)
CN1C(=O)CSc2ccc(NC(=S)Nc3ccccc3[O-])cc21 (3D coordinates assigned)
CN1C(=O)CSc2ccc(NC(=S)Nc3ccccc3[O-])cc21 (nonaromatic ring conformer: 56.48647147164503 kcal/mol)

>  <smiles>  (15) 
CN1C(=O)CSc2ccc(NC(=S)Nc3ccccc3O)cc21

>  <score_type>  (15) 
oracle

>  <origin>  (15) 
adgpu

>  <m_score__min__energy>  (15) 
-11.699999999999999

>  <m_primary>  (15) 
energy

$$$$
15:0
     RDKit          3D

 43 45  0  0  0  0  0  0  0  0999 V2000
    0.9190   21.5680  -35.4550 C   0  0  0  0  0  0  0  0  0  0  0  0
   -0.2380   21.8900  -34.6890 O   0  0  0  0  0  0  0  0  0  0  0  0
   -0.5360   21.3370  -33.4340 C   0  0  0  0  0  0  0  0  0  0  0  0
    0.5080   20.7830  -32.6860 C   0  0  0  0  0  0  0  0  0  0  0  0
    0.2630   20.2260  -31.4270 C   0  0  0  0  0  0  0  0  0  0  0  0
   -1.0310   20.2170  -30.8950 C   0  0  0  0  0  0  0  0  0  0  0  0
   -1.2340   19.6550  -29.5900 N   0  0  0  0  0  0  0  0  0  0  0  0
   -1.9120   20.4990  -28.2340 S   0  0  0  0  0  0  0  0  0  0  0  0
   -1.1480   20.1320  -26.9940 O   0  0  0  0  0  0  0  0  0  0  0  0
   -3.3480   20.0870  -28.0700 O   0  0  0  0  0  0  0  0  0  0  0  0
   -1.7910   22.2370  -28.4840 C   0  0  0  0  0  0  0  0  0  0  0  0
   -0.8920   22.9990  -27.7250 C   0  0  0  0  0  0  0  0  0  0  0  0
   -0.8370   24.3860  -27.8880 C   0  0  0  0  0  0  0  0  0  0  0  0
   -1.6860   25.0220  -28.8010 C   0  0  0  0  0  0  0  0  0  0  0  0
   -1.5940   26.4000  -28.9650 O   0  0  0  0  0  0  0  0  0  0  0  0
   -2.6050   24.2630  -29.5550 C   0  0  0  0  0  0  0  0  0  0  0  0
   -3.5180   24.8760  -30.4770 N   0  0  0  0  0  0  0  0  0  0  0  0
   -4.9440   24.7350  -30.4500 C   0  0  0  0  0  0  0  0  0  0  0  0
   -5.6270   25.6190  -29.8690 O   0  0  0  0  0  0  0  0  0  0  0  0
   -5.6350   23.6030  -31.1170 C   0  0  0  0  0  0  0  0  0  0  0  0
   -4.8900   22.6430  -31.8230 C   0  0  0  0  0  0  0  0  0  0  0  0
   -5.5320   21.5730  -32.4540 C   0  0  0  0  0  0  0  0  0  0  0  0
   -6.9210   21.4480  -32.3810 C   0  0  0  0  0  0  0  0  0  0  0  0
   -7.6700   22.3860  -31.6680 C   0  0  0  0  0  0  0  0  0  0  0  0
   -7.0330   23.4560  -31.0310 C   0  0  0  0  0  0  0  0  0  0  0  0
   -2.6260   22.8710  -29.4150 C   0  0  0  0  0  0  0  0  0  0  0  0
   -2.0870   20.7610  -31.6490 C   0  0  0  0  0  0  0  0  0  0  0  0
   -1.8410   21.3170  -32.9080 C   0  0  0  0  0  0  0  0  0  0  0  0
    1.7541   21.3356  -34.7778 H   0  0  0  0  0  0  0  0  0  0  0  0
    0.7074   20.6946  -36.0894 H   0  0  0  0  0  0  0  0  0  0  0  0
    1.1890   22.4251  -36.0894 H   0  0  0  0  0  0  0  0  0  0  0  0
    1.5305   20.7855  -33.0916 H   0  0  0  0  0  0  0  0  0  0  0  0
    1.0934   19.7919  -30.8509 H   0  0  0  0  0  0  0  0  0  0  0  0
   -0.2288   22.5046  -27.0000 H   0  0  0  0  0  0  0  0  0  0  0  0
   -0.1242   24.9797  -27.2968 H   0  0  0  0  0  0  0  0  0  0  0  0
   -3.7952   22.7339  -31.8795 H   0  0  0  0  0  0  0  0  0  0  0  0
   -4.9420   20.8286  -33.0088 H   0  0  0  0  0  0  0  0  0  0  0  0
   -7.4250   20.6104  -32.8853 H   0  0  0  0  0  0  0  0  0  0  0  0
   -8.7635   22.2833  -31.6071 H   0  0  0  0  0  0  0  0  0  0  0  0
   -7.6264   24.1857  -30.4605 H   0  0  0  0  0  0  0  0  0  0  0  0
   -3.3026   22.2696  -30.0399 H   0  0  0  0  0  0  0  0  0  0  0  0
   -3.1105   20.7488  -31.2462 H   0  0  0  0  0  0  0  0  0  0  0  0
   -2.6721   21.7411  -33.4905 H   0  0  0  0  0  0  0  0  0  0  0  0
  1  2  1  0
  2  3  1  0
  3  4  2  0
  4  5  1  0
  5  6  2  0
  6  7  1  0
  7  8  1  0
  8  9  2  0
  8 10  2  0
  8 11  1  0
 11 12  2  0
 12 13  1  0
 13 14  2  0
 14 15  1  0
 14 16  1  0
 16 17  1  0
 17 18  1  0
 18 19  2  0
 18 20  1  0
 20 21  2  0
 21 22  1  0
 22 23  2  0
 23 24  1  0
 24 25  2  0
 16 26  2  0
  6 27  1  0
 27 28  2  0
 28  3  1  0
 26 11  1  0
 25 20  1  0
  1 29  1  0
  1 30  1  0
  1 31  1  0
  4 32  1  0
  5 33  1  0
 12 34  1  0
 13 35  1  0
 21 36  1  0
 22 37  1  0
 23 38  1  0
 24 39  1  0
 25 40  1  0
 26 41  1  0
 27 42  1  0
 28 43  1  0
M  CHG  3   7  -1  15  -1  17  -1
M  END
>  <UniqueID>  (16) 
15

>  <SMILES>  (16) 
COc1ccc([N-]S(=O)(=O)c2ccc([O-])c([N-]C(=O)c3ccccc3)c2)cc1

>  <Energy>  (16) 
54.854356803141755

>  <Genealogy>  (16) 
COc1ccc([N-]S(=O)(=O)c2ccc([O-])c([N-]C(=O)c3ccccc3)c2)cc1 (protonated)
COc1ccc([N-]S(=O)(=O)c2ccc([O-])c([N-]C(=O)c3ccccc3)c2)cc1 (3D coordinates assigned)
COc1ccc([N-]S(=O)(=O)c2ccc([O-])c([N-]C(=O)c3ccccc3)c2)cc1 (optimized conformer: 54.854356803141755 kcal/mol)

>  <smiles>  (16) 
COc1ccc(NS(=O)(=O)c2ccc(O)c(NC(=O)c3ccccc3)c2)cc1

>  <score_type>  (16) 
oracle

>  <origin>  (16) 
adgpu

>  <m_score__min__energy>  (16) 
-12.75

>  <m_primary>  (16) 
energy

$$$$
16:0
     RDKit          3D

 30 31  0  0  0  0  0  0  0  0999 V2000
   -5.1940   19.0470  -33.7900 C   0  0  0  0  0  0  0  0  0  0  0  0
   -6.4040   19.3510  -32.9660 C   0  0  0  0  0  0  0  0  0  0  0  0
   -7.3250   18.3400  -32.6610 C   0  0  0  0  0  0  0  0  0  0  0  0
   -8.4550   18.6520  -31.9040 C   0  0  0  0  0  0  0  0  0  0  0  0
   -8.6590   19.9600  -31.4620 C   0  0  0  0  0  0  0  0  0  0  0  0
   -7.7180   20.9490  -31.7840 C   0  0  0  0  0  0  0  0  0  0  0  0
   -7.9140   22.3730  -31.3540 C   0  0  0  0  0  0  0  0  0  0  0  0
   -6.7780   22.8160  -30.5530 N   0  0  0  0  0  0  0  0  0  0  0  0
   -5.5560   23.3130  -31.1110 C   0  0  0  0  0  0  0  0  0  0  0  0
   -5.5410   23.7210  -32.3050 O   0  0  0  0  0  0  0  0  0  0  0  0
   -4.3190   23.3490  -30.2860 C   0  0  0  0  0  0  0  0  0  0  0  0
   -3.9010   22.1860  -29.6090 C   0  0  0  0  0  0  0  0  0  0  0  0
   -2.7420   22.1920  -28.8280 C   0  0  0  0  0  0  0  0  0  0  0  0
   -1.9830   23.3550  -28.7100 C   0  0  0  0  0  0  0  0  0  0  0  0
   -2.3790   24.5190  -29.3720 C   0  0  0  0  0  0  0  0  0  0  0  0
   -1.6150   25.6730  -29.2480 O   0  0  0  0  0  0  0  0  0  0  0  0
   -3.5400   24.5240  -30.1590 C   0  0  0  0  0  0  0  0  0  0  0  0
   -3.9050   25.7020  -30.8050 O   0  0  0  0  0  0  0  0  0  0  0  0
   -6.6250   20.6210  -32.5280 N   0  0  0  0  0  0  0  0  0  0  0  0
   -4.3429   18.8332  -33.1267 H   0  0  0  0  0  0  0  0  0  0  0  0
   -5.3933   18.1710  -34.4248 H   0  0  0  0  0  0  0  0  0  0  0  0
   -4.9556   19.9132  -34.4248 H   0  0  0  0  0  0  0  0  0  0  0  0
   -7.1591   17.3116  -33.0144 H   0  0  0  0  0  0  0  0  0  0  0  0
   -9.1847   17.8673  -31.6557 H   0  0  0  0  0  0  0  0  0  0  0  0
   -9.5490   20.2128  -30.8670 H   0  0  0  0  0  0  0  0  0  0  0  0
   -8.0029   23.0129  -32.2443 H   0  0  0  0  0  0  0  0  0  0  0  0
   -8.8301   22.4435  -30.7492 H   0  0  0  0  0  0  0  0  0  0  0  0
   -4.4934   21.2633  -29.6962 H   0  0  0  0  0  0  0  0  0  0  0  0
   -2.4280   21.2766  -28.3051 H   0  0  0  0  0  0  0  0  0  0  0  0
   -1.0711   23.3560  -28.0948 H   0  0  0  0  0  0  0  0  0  0  0  0
  1  2  1  0
  2  3  2  0
  3  4  1  0
  4  5  2  0
  5  6  1  0
  6  7  1  0
  7  8  1  0
  8  9  1  0
  9 10  2  0
  9 11  1  0
 11 12  2  0
 12 13  1  0
 13 14  2  0
 14 15  1  0
 15 16  1  0
 15 17  2  0
 17 18  1  0
  6 19  2  0
 19  2  1  0
 17 11  1  0
  1 20  1  0
  1 21  1  0
  1 22  1  0
  3 23  1  0
  4 24  1  0
  5 25  1  0
  7 26  1  0
  7 27  1  0
 12 28  1  0
 13 29  1  0
 14 30  1  0
M  CHG  3   8  -1  16  -1  18  -1
M  END
>  <UniqueID>  (17) 
16

>  <SMILES>  (17) 
Cc1cccc(C[N-]C(=O)c2cccc([O-])c2[O-])n1

>  <Energy>  (17) 
30.186111028425554

>  <Genealogy>  (17) 
Cc1cccc(C[N-]C(=O)c2cccc([O-])c2[O-])n1 (protonated)
Cc1cccc(C[N-]C(=O)c2cccc([O-])c2[O-])n1 (3D coordinates assigned)
Cc1cccc(C[N-]C(=O)c2cccc([O-])c2[O-])n1 (optimized conformer: 30.186111028425554 kcal/mol)

>  <smiles>  (17) 
Cc1cccc(CNC(=O)c2cccc(O)c2O)n1

>  <score_type>  (17) 
oracle

>  <origin>  (17) 
adgpu

>  <m_score__min__energy>  (17) 
-13.91

>  <m_primary>  (17) 
energy

$$$$
17:0
     RDKit          3D

 40 43  0  0  0  0  0  0  0  0999 V2000
   -6.3690   13.9450  -34.5110 C   0  0  0  0  0  0  0  0  0  0  0  0
   -5.9790   15.3600  -34.2030 C   0  0  0  0  0  0  0  0  0  0  0  0
   -4.7180   15.8580  -34.6230 C   0  0  0  0  0  0  0  0  0  0  0  0
   -4.3570   17.1960  -34.3730 C   0  0  0  0  0  0  0  0  0  0  0  0
   -5.2810   18.0030  -33.7150 C   0  0  0  0  0  0  0  0  0  0  0  0
   -5.1520   19.2940  -33.3820 N   0  0  0  0  0  0  0  0  0  0  0  0
   -6.3410   19.5670  -32.7780 C   0  0  0  0  0  0  0  0  0  0  0  0
   -6.6760   20.9010  -32.2280 C   0  0  0  0  0  0  0  0  0  0  0  0
   -7.9630   21.1610  -31.7280 C   0  0  0  0  0  0  0  0  0  0  0  0
   -8.2800   22.4230  -31.2180 C   0  0  0  0  0  0  0  0  0  0  0  0
   -7.3160   23.4330  -31.1930 C   0  0  0  0  0  0  0  0  0  0  0  0
   -6.0180   23.1820  -31.6660 C   0  0  0  0  0  0  0  0  0  0  0  0
   -5.0040   24.1990  -31.6670 N   0  0  0  0  0  0  0  0  0  0  0  0
   -4.4080   24.8020  -30.5100 C   0  0  0  0  0  0  0  0  0  0  0  0
   -4.4860   26.0510  -30.3730 O   0  0  0  0  0  0  0  0  0  0  0  0
   -3.6750   24.0070  -29.4960 C   0  0  0  0  0  0  0  0  0  0  0  0
   -4.2280   22.7990  -29.0380 C   0  0  0  0  0  0  0  0  0  0  0  0
   -3.5500   22.0220  -28.0930 C   0  0  0  0  0  0  0  0  0  0  0  0
   -2.3190   22.4490  -27.5920 C   0  0  0  0  0  0  0  0  0  0  0  0
   -1.7690   23.6570  -28.0230 C   0  0  0  0  0  0  0  0  0  0  0  0
   -2.4440   24.4440  -28.9640 C   0  0  0  0  0  0  0  0  0  0  0  0
   -1.8940   25.6640  -29.3420 O   0  0  0  0  0  0  0  0  0  0  0  0
   -5.7110   21.9240  -32.2000 C   0  0  0  0  0  0  0  0  0  0  0  0
   -7.1950   18.5090  -32.7240 N   0  0  0  0  0  0  0  0  0  0  0  0
   -6.4970   17.5360  -33.3240 C   0  0  0  0  0  0  0  0  0  0  0  0
   -6.8920   16.2200  -33.5520 C   0  0  0  0  0  0  0  0  0  0  0  0
   -6.5209   13.3937  -33.5713 H   0  0  0  0  0  0  0  0  0  0  0  0
   -7.3019   13.9404  -35.0938 H   0  0  0  0  0  0  0  0  0  0  0  0
   -5.5702   13.4631  -35.0938 H   0  0  0  0  0  0  0  0  0  0  0  0
   -4.0166   15.1931  -35.1483 H   0  0  0  0  0  0  0  0  0  0  0  0
   -3.3790   17.5898  -34.6867 H   0  0  0  0  0  0  0  0  0  0  0  0
   -8.7247   20.3675  -31.7380 H   0  0  0  0  0  0  0  0  0  0  0  0
   -9.2920   22.6213  -30.8351 H   0  0  0  0  0  0  0  0  0  0  0  0
   -7.5742   24.4281  -30.8016 H   0  0  0  0  0  0  0  0  0  0  0  0
   -5.2009   22.4621  -29.4254 H   0  0  0  0  0  0  0  0  0  0  0  0
   -3.9868   21.0745  -27.7446 H   0  0  0  0  0  0  0  0  0  0  0  0
   -1.7817   21.8324  -26.8564 H   0  0  0  0  0  0  0  0  0  0  0  0
   -0.8012   23.9923  -27.6218 H   0  0  0  0  0  0  0  0  0  0  0  0
   -4.7047   21.7341  -32.6017 H   0  0  0  0  0  0  0  0  0  0  0  0
   -7.8827   15.8616  -33.2355 H   0  0  0  0  0  0  0  0  0  0  0  0
  1  2  1  0
  2  3  2  0
  3  4  1  0
  4  5  2  0
  5  6  1  0
  6  7  1  0
  7  8  1  0
  8  9  2  0
  9 10  1  0
 10 11  2  0
 11 12  1  0
 12 13  1  0
 13 14  1  0
 14 15  2  0
 14 16  1  0
 16 17  2  0
 17 18  1  0
 18 19  2  0
 19 20  1  0
 20 21  2  0
 21 22  1  0
 12 23  2  0
  7 24  2  0
 24 25  1  0
 25 26  2  0
 26  2  1  0
 25  5  1  0
 23  8  1  0
 21 16  1  0
  1 27  1  0
  1 28  1  0
  1 29  1  0
  3 30  1  0
  4 31  1  0
  9 32  1  0
 10 33  1  0
 11 34  1  0
 17 35  1  0
 18 36  1  0
 19 37  1  0
 20 38  1  0
 23 39  1  0
 26 40  1  0
M  CHG  3   6  -1  13  -1  22  -1
M  END
>  <UniqueID>  (18) 
17

>  <SMILES>  (18) 
Cc1ccc2[n-]c(-c3cccc([N-]C(=O)c4ccccc4[O-])c3)nc2c1

>  <Energy>  (18) 
87.97675759251787

>  <Genealogy>  (18) 
Cc1ccc2[n-]c(-c3cccc([N-]C(=O)c4ccccc4[O-])c3)nc2c1 (protonated)
Cc1ccc2[n-]c(-c3cccc([N-]C(=O)c4ccccc4[O-])c3)nc2c1 (3D coordinates assigned)
Cc1ccc2[n-]c(-c3cccc([N-]C(=O)c4ccccc4[O-])c3)nc2c1 (optimized conformer: 87.97675759251787 kcal/mol)

>  <smiles>  (18) 
Cc1ccc2[nH]c(-c3cccc(NC(=O)c4ccccc4O)c3)nc2c1

>  <score_type>  (18) 
oracle

>  <origin>  (18) 
adgpu

>  <m_score__min__energy>  (18) 
-13.050000000000001

>  <m_primary>  (18) 
energy

$$$$
18:0
     RDKit          3D

 49 51  0  0  0  0  0  0  0  0999 V2000
    3.9500   19.7350  -34.8390 C   0  0  0  0  0  0  0  0  0  0  0  0
    2.8480   20.7280  -35.0950 C   0  0  0  0  0  0  0  0  0  0  0  0
    1.5180   20.3860  -34.8020 C   0  0  0  0  0  0  0  0  0  0  0  0
    0.4790   21.2860  -35.0540 C   0  0  0  0  0  0  0  0  0  0  0  0
   -0.8710   20.9140  -34.7320 N   0  0  0  0  0  0  0  0  0  0  0  0
   -1.2570   20.4020  -33.4450 C   0  0  0  0  0  0  0  0  0  0  0  0
   -0.3990   20.3170  -32.5230 O   0  0  0  0  0  0  0  0  0  0  0  0
   -2.6490   19.9680  -33.1720 C   0  0  0  0  0  0  0  0  0  0  0  0
   -3.3470   19.1290  -34.0610 C   0  0  0  0  0  0  0  0  0  0  0  0
   -4.6590   18.7350  -33.7810 C   0  0  0  0  0  0  0  0  0  0  0  0
   -5.2970   19.1770  -32.6170 C   0  0  0  0  0  0  0  0  0  0  0  0
   -6.9440   18.6530  -32.2770 S   0  0  0  0  0  0  0  0  0  0  0  0
   -6.9470   17.9590  -30.9430 O   0  0  0  0  0  0  0  0  0  0  0  0
   -7.4240   17.6930  -33.3300 O   0  0  0  0  0  0  0  0  0  0  0  0
   -8.0010   20.0350  -32.2390 N   0  0  0  0  0  0  0  0  0  0  0  0
   -9.4080   19.8650  -32.6030 C   0  0  0  0  0  0  0  0  0  0  0  0
   -7.5110   21.3210  -31.8120 C   0  0  0  0  0  0  0  0  0  0  0  0
   -7.7340   21.7710  -30.4980 C   0  0  0  0  0  0  0  0  0  0  0  0
   -7.2650   23.0240  -30.0890 C   0  0  0  0  0  0  0  0  0  0  0  0
   -6.5740   23.8390  -30.9860 C   0  0  0  0  0  0  0  0  0  0  0  0
   -6.3520   23.4070  -32.2950 C   0  0  0  0  0  0  0  0  0  0  0  0
   -6.8200   22.1560  -32.7100 C   0  0  0  0  0  0  0  0  0  0  0  0
   -4.6150   20.0220  -31.7330 C   0  0  0  0  0  0  0  0  0  0  0  0
   -3.3040   20.4180  -32.0100 C   0  0  0  0  0  0  0  0  0  0  0  0
    0.7970   22.5590  -35.5600 C   0  0  0  0  0  0  0  0  0  0  0  0
   -0.1000   23.4270  -35.7310 O   0  0  0  0  0  0  0  0  0  0  0  0
    2.0880   22.8730  -35.8430 N   0  0  0  0  0  0  0  0  0  0  0  0
    3.1130   22.0020  -35.6420 C   0  0  0  0  0  0  0  0  0  0  0  0
    4.5060   22.4380  -35.9860 C   0  0  0  0  0  0  0  0  0  0  0  0
    4.0874   19.6112  -33.7547 H   0  0  0  0  0  0  0  0  0  0  0  0
    3.6827   18.7669  -35.2876 H   0  0  0  0  0  0  0  0  0  0  0  0
    4.8852   20.1013  -35.2876 H   0  0  0  0  0  0  0  0  0  0  0  0
    1.2917   19.4001  -34.3699 H   0  0  0  0  0  0  0  0  0  0  0  0
   -1.6020   21.1190  -35.4500 H   0  0  0  0  0  0  0  0  0  0  0  0
   -2.8569   18.7810  -34.9823 H   0  0  0  0  0  0  0  0  0  0  0  0
   -5.1925   18.0739  -34.4798 H   0  0  0  0  0  0  0  0  0  0  0  0
  -10.0167   19.7915  -31.6897 H   0  0  0  0  0  0  0  0  0  0  0  0
   -9.7402   20.7295  -33.1965 H   0  0  0  0  0  0  0  0  0  0  0  0
   -9.5248   18.9462  -33.1965 H   0  0  0  0  0  0  0  0  0  0  0  0
   -8.2807   21.1336  -29.7875 H   0  0  0  0  0  0  0  0  0  0  0  0
   -7.4413   23.3670  -29.0588 H   0  0  0  0  0  0  0  0  0  0  0  0
   -6.2038   24.8227  -30.6617 H   0  0  0  0  0  0  0  0  0  0  0  0
   -5.8081   24.0516  -33.0011 H   0  0  0  0  0  0  0  0  0  0  0  0
   -6.6471   21.8228  -33.7440 H   0  0  0  0  0  0  0  0  0  0  0  0
   -5.1128   20.3751  -30.8178 H   0  0  0  0  0  0  0  0  0  0  0  0
   -2.7786   21.0878  -31.3134 H   0  0  0  0  0  0  0  0  0  0  0  0
    5.0736   22.6157  -35.0607 H   0  0  0  0  0  0  0  0  0  0  0  0
    5.0014   21.6519  -36.5748 H   0  0  0  0  0  0  0  0  0  0  0  0
    4.4648   23.3662  -36.5748 H   0  0  0  0  0  0  0  0  0  0  0  0
  1  2  1  0
  2  3  1  0
  3  4  2  0
  4  5  1  0
  5  6  1  0
  6  7  2  0
  6  8  1  0
  8  9  2  0
  9 10  1  0
 10 11  2  0
 11 12  1  0
 12 13  2  0
 12 14  2  0
 12 15  1  0
 15 16  1  0
 15 17  1  0
 17 18  2  0
 18 19  1  0
 19 20  2  0
 20 21  1  0
 21 22  2  0
 11 23  1  0
 23 24  2  0
  4 25  1  0
 25 26  2  0
 25 27  1  0
 27 28  1  0
 28 29  1  0
 28  2  2  0
 24  8  1  0
 22 17  1  0
  1 30  1  0
  1 31  1  0
  1 32  1  0
  3 33  1  0
  5 34  1  0
  9 35  1  0
 10 36  1  0
 16 37  1  0
 16 38  1  0
 16 39  1  0
 18 40  1  0
 19 41  1  0
 20 42  1  0
 21 43  1  0
 22 44  1  0
 23 45  1  0
 24 46  1  0
 29 47  1  0
 29 48  1  0
 29 49  1  0
M  CHG  1  27  -1
M  END
>  <UniqueID>  (19) 
18

>  <SMILES>  (19) 
Cc1cc(NC(=O)c2ccc(S(=O)(=O)N(C)c3ccccc3)cc2)c(=O)[n-]c1C

>  <Energy>  (19) 
64.8034823839857

>  <Genealogy>  (19) 
Cc1cc(NC(=O)c2ccc(S(=O)(=O)N(C)c3ccccc3)cc2)c(=O)[n-]c1C (protonated)
Cc1cc(NC(=O)c2ccc(S(=O)(=O)N(C)c3ccccc3)cc2)c(=O)[n-]c1C (3D coordinates assigned)
Cc1cc(NC(=O)c2ccc(S(=O)(=O)N(C)c3ccccc3)cc2)c(=O)[n-]c1C (optimized conformer: 64.8034823839857 kcal/mol)

>  <smiles>  (19) 
Cc1cc(NC(=O)c2ccc(S(=O)(=O)N(C)c3ccccc3)cc2)c(=O)[nH]c1C

>  <score_type>  (19) 
oracle

>  <origin>  (19) 
adgpu

>  <m_score__min__energy>  (19) 
-10.06

>  <m_primary>  (19) 
energy

$$$$
19:0
     RDKit          3D

 41 43  0  0  0  0  0  0  0  0999 V2000
   -6.5220   16.3170  -34.2150 C   0  0  0  0  0  0  0  0  0  0  0  0
   -6.8440   17.5370  -33.4190 C   0  0  0  0  0  0  0  0  0  0  0  0
   -6.0460   18.6540  -33.2920 C   0  0  0  0  0  0  0  0  0  0  0  0
   -6.7470   19.4530  -32.4060 C   0  0  0  0  0  0  0  0  0  0  0  0
   -6.3640   20.7910  -31.9030 C   0  0  0  0  0  0  0  0  0  0  0  0
   -7.3330   21.7250  -31.4900 C   0  0  0  0  0  0  0  0  0  0  0  0
   -6.9480   22.9830  -31.0160 C   0  0  0  0  0  0  0  0  0  0  0  0
   -5.5930   23.3280  -30.9500 C   0  0  0  0  0  0  0  0  0  0  0  0
   -5.1220   24.9100  -30.3320 S   0  0  0  0  0  0  0  0  0  0  0  0
   -3.7500   25.2720  -30.8290 O   0  0  0  0  0  0  0  0  0  0  0  0
   -6.0940   25.9390  -30.8380 O   0  0  0  0  0  0  0  0  0  0  0  0
   -5.1470   24.9140  -28.5900 N   0  0  0  0  0  0  0  0  0  0  0  0
   -4.2220   23.9140  -28.0410 C   0  0  0  0  0  0  0  0  0  0  0  0
   -3.3320   24.5430  -26.9660 C   0  0  0  0  0  0  0  0  0  0  0  0
   -1.8980   24.5710  -27.4180 C   0  0  0  0  0  0  0  0  0  0  0  0
   -1.4680   23.7380  -28.4620 C   0  0  0  0  0  0  0  0  0  0  0  0
   -0.1250   23.7500  -28.8440 C   0  0  0  0  0  0  0  0  0  0  0  0
    0.7590   24.5590  -28.2020 N   0  0  0  0  0  0  0  0  0  0  0  0
    0.3730   25.3680  -27.1790 C   0  0  0  0  0  0  0  0  0  0  0  0
   -0.9610   25.3860  -26.7650 C   0  0  0  0  0  0  0  0  0  0  0  0
   -4.6230   22.4020  -31.3550 C   0  0  0  0  0  0  0  0  0  0  0  0
   -5.0060   21.1440  -31.8280 C   0  0  0  0  0  0  0  0  0  0  0  0
   -7.8470   18.8230  -32.0580 O   0  0  0  0  0  0  0  0  0  0  0  0
   -7.9360   17.6640  -32.6410 N   0  0  0  0  0  0  0  0  0  0  0  0
   -6.3016   15.4821  -33.5335 H   0  0  0  0  0  0  0  0  0  0  0  0
   -7.3819   16.0555  -34.8492 H   0  0  0  0  0  0  0  0  0  0  0  0
   -5.6451   16.5139  -34.8492 H   0  0  0  0  0  0  0  0  0  0  0  0
   -5.0816   18.8608  -33.7790 H   0  0  0  0  0  0  0  0  0  0  0  0
   -8.4003   21.4634  -31.5405 H   0  0  0  0  0  0  0  0  0  0  0  0
   -7.7132   23.7045  -30.6936 H   0  0  0  0  0  0  0  0  0  0  0  0
   -6.1170   24.6460  -28.3100 H   0  0  0  0  0  0  0  0  0  0  0  0
   -4.8005   23.0908  -27.5964 H   0  0  0  0  0  0  0  0  0  0  0  0
   -3.5853   23.5333  -28.8532 H   0  0  0  0  0  0  0  0  0  0  0  0
   -3.6705   25.5716  -26.7724 H   0  0  0  0  0  0  0  0  0  0  0  0
   -3.4036   23.9406  -26.0484 H   0  0  0  0  0  0  0  0  0  0  0  0
   -2.1840   23.0800  -28.9761 H   0  0  0  0  0  0  0  0  0  0  0  0
    0.2182   23.1040  -29.6655 H   0  0  0  0  0  0  0  0  0  0  0  0
    1.1125   26.0091  -26.6769 H   0  0  0  0  0  0  0  0  0  0  0  0
   -1.2745   26.0342  -25.9334 H   0  0  0  0  0  0  0  0  0  0  0  0
   -3.5565   22.6659  -31.3005 H   0  0  0  0  0  0  0  0  0  0  0  0
   -4.2374   20.4236  -32.1445 H   0  0  0  0  0  0  0  0  0  0  0  0
  1  2  1  0
  2  3  1  0
  3  4  2  0
  4  5  1  0
  5  6  2  0
  6  7  1  0
  7  8  2  0
  8  9  1  0
  9 10  2  0
  9 11  2  0
  9 12  1  0
 12 13  1  0
 13 14  1  0
 14 15  1  0
 15 16  2  0
 16 17  1  0
 17 18  2  0
 18 19  1  0
 19 20  2  0
  8 21  1  0
 21 22  2  0
  4 23  1  0
 23 24  1  0
 24  2  2  0
 22  5  1  0
 20 15  1  0
  1 25  1  0
  1 26  1  0
  1 27  1  0
  3 28  1  0
  6 29  1  0
  7 30  1  0
 12 31  1  0
 13 32  1  0
 13 33  1  0
 14 34  1  0
 14 35  1  0
 16 36  1  0
 17 37  1  0
 19 38  1  0
 20 39  1  0
 21 40  1  0
 22 41  1  0
M  END
>  <UniqueID>  (20) 
19

>  <SMILES>  (20) 
Cc1cc(-c2ccc(S(=O)(=O)NCCc3ccncc3)cc2)on1

>  <Energy>  (20) 
70.25342679642357

>  <Genealogy>  (20) 
Cc1cc(-c2ccc(S(=O)(=O)NCCc3ccncc3)cc2)on1 (3D coordinates assigned)
Cc1cc(-c2ccc(S(=O)(=O)NCCc3ccncc3)cc2)on1 (optimized conformer: 70.25342679642357 kcal/mol)

>  <smiles>  (20) 
Cc1cc(-c2ccc(S(=O)(=O)NCCc3ccncc3)cc2)on1

>  <score_type>  (20) 
oracle

>  <origin>  (20) 
adgpu

>  <m_score__min__energy>  (20) 
-9.3300000000000001

>  <m_primary>  (20) 
energy

$$$$
20:0
     RDKit          3D

 34 35  0  0  0  0  0  0  0  0999 V2000
   -2.4230   17.0610  -34.7880 C   0  0  0  0  0  0  0  0  0  0  0  0
   -3.8660   16.8670  -34.4270 C   0  0  0  0  0  0  0  0  0  0  0  0
   -4.3970   15.5750  -34.3040 C   0  0  0  0  0  0  0  0  0  0  0  0
   -5.7470   15.3970  -33.9940 C   0  0  0  0  0  0  0  0  0  0  0  0
   -6.5820   16.5050  -33.8260 C   0  0  0  0  0  0  0  0  0  0  0  0
   -6.0740   17.8070  -33.9860 C   0  0  0  0  0  0  0  0  0  0  0  0
   -6.9080   18.9650  -33.8040 N   0  0  0  0  0  0  0  0  0  0  0  0
   -7.8090   19.1400  -32.6990 C   0  0  0  0  0  0  0  0  0  0  0  0
   -8.2210   18.1410  -32.0530 O   0  0  0  0  0  0  0  0  0  0  0  0
   -8.3320   20.4340  -32.3790 N   0  0  0  0  0  0  0  0  0  0  0  0
   -7.5930   21.5250  -31.8150 C   0  0  0  0  0  0  0  0  0  0  0  0
   -6.4420   22.0410  -32.4400 C   0  0  0  0  0  0  0  0  0  0  0  0
   -5.7310   23.0890  -31.8490 C   0  0  0  0  0  0  0  0  0  0  0  0
   -6.1450   23.6190  -30.6200 C   0  0  0  0  0  0  0  0  0  0  0  0
   -5.2540   24.9490  -29.8850 S   0  0  0  0  0  0  0  0  0  0  0  0
   -3.8490   25.2960  -30.8300 N   0  0  0  0  0  0  0  0  0  0  0  0
   -6.1260   26.1710  -29.8190 O   0  0  0  0  0  0  0  0  0  0  0  0
   -4.8420   24.5760  -28.4890 O   0  0  0  0  0  0  0  0  0  0  0  0
   -7.2800   23.0950  -29.9880 C   0  0  0  0  0  0  0  0  0  0  0  0
   -7.9920   22.0460  -30.5780 C   0  0  0  0  0  0  0  0  0  0  0  0
   -4.7110   17.9790  -34.2750 C   0  0  0  0  0  0  0  0  0  0  0  0
   -1.8229   17.1417  -33.8696 H   0  0  0  0  0  0  0  0  0  0  0  0
   -2.0743   16.2017  -35.3795 H   0  0  0  0  0  0  0  0  0  0  0  0
   -2.3136   17.9819  -35.3795 H   0  0  0  0  0  0  0  0  0  0  0  0
   -3.7483   14.6991  -34.4521 H   0  0  0  0  0  0  0  0  0  0  0  0
   -6.1544   14.3814  -33.8817 H   0  0  0  0  0  0  0  0  0  0  0  0
   -7.6411   16.3584  -33.5675 H   0  0  0  0  0  0  0  0  0  0  0  0
   -6.9250   19.6830  -34.5630 H   0  0  0  0  0  0  0  0  0  0  0  0
   -6.1012   21.6180  -33.3965 H   0  0  0  0  0  0  0  0  0  0  0  0
   -4.8425   23.4995  -32.3510 H   0  0  0  0  0  0  0  0  0  0  0  0
   -3.9610   26.2680  -31.1960 H   0  0  0  0  0  0  0  0  0  0  0  0
   -7.6121   23.5099  -29.0249 H   0  0  0  0  0  0  0  0  0  0  0  0
   -8.8715   21.6273  -30.0669 H   0  0  0  0  0  0  0  0  0  0  0  0
   -4.3008   18.9939  -34.3834 H   0  0  0  0  0  0  0  0  0  0  0  0
  1  2  1  0
  2  3  2  0
  3  4  1  0
  4  5  2  0
  5  6  1  0
  6  7  1  0
  7  8  1  0
  8  9  2  0
  8 10  1  0
 10 11  1  0
 11 12  2  0
 12 13  1  0
 13 14  2  0
 14 15  1  0
 15 16  1  0
 15 17  2  0
 15 18  2  0
 14 19  1  0
 19 20  2  0
  6 21  2  0
 21  2  1  0
 20 11  1  0
  1 22  1  0
  1 23  1  0
  1 24  1  0
  3 25  1  0
  4 26  1  0
  5 27  1  0
  7 28  1  0
 12 29  1  0
 13 30  1  0
 16 31  1  0
 19 32  1  0
 20 33  1  0
 21 34  1  0
M  CHG  2  10  -1  16  -1
M  END
>  <UniqueID>  (21) 
20

>  <SMILES>  (21) 
Cc1cccc(NC(=O)[N-]c2ccc(S([NH-])(=O)=O)cc2)c1

>  <Energy>  (21) 
40.23692941641197

>  <Genealogy>  (21) 
Cc1cccc(NC(=O)[N-]c2ccc(S([NH-])(=O)=O)cc2)c1 (protonated)
Cc1cccc(NC(=O)[N-]c2ccc(S([NH-])(=O)=O)cc2)c1 (3D coordinates assigned)
Cc1cccc(NC(=O)[N-]c2ccc(S([NH-])(=O)=O)cc2)c1 (optimized conformer: 40.23692941641197 kcal/mol)

>  <smiles>  (21) 
Cc1cccc(NC(=O)Nc2ccc(S(N)(=O)=O)cc2)c1

>  <score_type>  (21) 
oracle

>  <origin>  (21) 
adgpu

>  <m_score__min__energy>  (21) 
-10.380000000000001

>  <m_primary>  (21) 
energy

$$$$
21:0
     RDKit          3D

 36 38  0  0  0  0  0  0  0  0999 V2000
   -5.4185   24.7765  -29.8561 H   0  0  0  0  0  0  0  0  0  0  0  0
   -5.3540   23.6950  -29.6660 C   0  0  0  0  0  0  0  0  0  0  0  0
   -4.4540   23.2380  -28.7850 C   0  0  0  0  0  0  0  0  0  0  0  0
   -4.3986   22.1523  -28.6170 H   0  0  0  0  0  0  0  0  0  0  0  0
   -3.5280   24.1110  -28.0230 C   0  0  0  0  0  0  0  0  0  0  0  0
   -2.2780   24.5140  -28.5270 C   0  0  0  0  0  0  0  0  0  0  0  0
   -1.9617   24.1844  -29.5276 H   0  0  0  0  0  0  0  0  0  0  0  0
   -1.4340   25.3300  -27.7670 C   0  0  0  0  0  0  0  0  0  0  0  0
   -0.4627   25.6402  -28.1797 H   0  0  0  0  0  0  0  0  0  0  0  0
   -1.8120   25.7600  -26.4790 C   0  0  0  0  0  0  0  0  0  0  0  0
   -0.9360   26.6100  -25.6910 N   0  0  0  0  0  0  0  0  0  0  0  0
   -0.8280   26.4280  -24.2380 C   0  0  0  0  0  0  0  0  0  0  0  0
   -1.3248   27.2651  -23.7257 H   0  0  0  0  0  0  0  0  0  0  0  0
   -1.3116   25.4829  -23.9499 H   0  0  0  0  0  0  0  0  0  0  0  0
    0.2332   26.3996  -23.9499 H   0  0  0  0  0  0  0  0  0  0  0  0
   -0.1410   27.6630  -26.3340 C   0  0  0  0  0  0  0  0  0  0  0  0
    0.3314   28.2887  -25.5624 H   0  0  0  0  0  0  0  0  0  0  0  0
    0.6375   27.2036  -26.9608 H   0  0  0  0  0  0  0  0  0  0  0  0
   -0.7961   28.2859  -26.9608 H   0  0  0  0  0  0  0  0  0  0  0  0
   -3.0590   25.3400  -25.9760 C   0  0  0  0  0  0  0  0  0  0  0  0
   -3.3749   25.6590  -24.9718 H   0  0  0  0  0  0  0  0  0  0  0  0
   -3.9000   24.5230  -26.7370 C   0  0  0  0  0  0  0  0  0  0  0  0
   -4.8656   24.1997  -26.3209 H   0  0  0  0  0  0  0  0  0  0  0  0
   -6.2580   22.7840  -30.3850 C   0  0  0  0  0  0  0  0  0  0  0  0
   -7.6080   22.9470  -30.3900 N   0  0  0  0  0  0  0  0  0  0  0  0
   -8.0090   21.9150  -31.1530 C   0  0  0  0  0  0  0  0  0  0  0  0
   -9.3090   21.5690  -31.5110 C   0  0  0  0  0  0  0  0  0  0  0  0
  -10.1706   22.1612  -31.1691 H   0  0  0  0  0  0  0  0  0  0  0  0
   -9.4820   20.4330  -32.3270 C   0  0  0  0  0  0  0  0  0  0  0  0
  -10.4939   20.1271  -32.6312 H   0  0  0  0  0  0  0  0  0  0  0  0
   -8.3620   19.6840  -32.7570 C   0  0  0  0  0  0  0  0  0  0  0  0
   -8.5078   18.7988  -33.3935 H   0  0  0  0  0  0  0  0  0  0  0  0
   -7.0610   20.0650  -32.3750 C   0  0  0  0  0  0  0  0  0  0  0  0
   -6.1799   19.4935  -32.7021 H   0  0  0  0  0  0  0  0  0  0  0  0
   -6.9320   21.1920  -31.5680 C   0  0  0  0  0  0  0  0  0  0  0  0
   -5.8490   21.7380  -31.0880 O   0  0  0  0  0  0  0  0  0  0  0  0
  1  2  1  0
  2  3  2  0
  3  4  1  0
  3  5  1  0
  5  6  2  0
  6  7  1  0
  6  8  1  0
  8  9  1  0
  8 10  2  0
 10 11  1  0
 11 12  1  0
 12 13  1  0
 12 14  1  0
 12 15  1  0
 11 16  1  0
 16 17  1  0
 16 18  1  0
 16 19  1  0
 10 20  1  0
 20 21  1  0
 20 22  2  0
 22 23  1  0
  2 24  1  0
 24 25  2  0
 25 26  1  0
 26 27  2  0
 27 28  1  0
 27 29  1  0
 29 30  1  0
 29 31  2  0
 31 32  1  0
 31 33  1  0
 33 34  1  0
 33 35  2  0
 35 36  1  0
 22  5  1  0
 36 24  1  0
 35 26  1  0
M  END
>  <UniqueID>  (22) 
21

>  <SMILES>  (22) 
CN(C)c1ccc(/C=C/c2nc3ccccc3o2)cc1

>  <Energy>  (22) 
78.10269588744504

>  <Genealogy>  (22) 
CN(C)c1ccc(/C=C/c2nc3ccccc3o2)cc1 (cis-trans isomerization)
CN(C)c1ccc(/C=C/c2nc3ccccc3o2)cc1 (3D coordinates assigned)
CN(C)c1ccc(/C=C/c2nc3ccccc3o2)cc1 (optimized conformer: 78.10269588744504 kcal/mol)

>  <smiles>  (22) 
CN(C)c1ccc(C=Cc2nc3ccccc3o2)cc1

>  <score_type>  (22) 
oracle

>  <origin>  (22) 
adgpu

>  <m_score__min__energy>  (22) 
-6.79

>  <m_primary>  (22) 
energy

$$$$
22:0
     RDKit          3D

 45 48  0  0  0  0  0  0  0  0999 V2000
   -7.6860   18.9810  -31.6590 C   0  0  0  0  0  0  0  0  0  0  0  0
   -6.6160   18.2520  -32.4240 C   0  0  0  0  0  0  0  0  0  0  0  0
   -6.8510   16.9650  -32.7890 N   0  0  0  0  0  0  0  0  0  0  0  0
   -5.9390   16.2450  -33.4850 C   0  0  0  0  0  0  0  0  0  0  0  0
   -6.2180   14.9210  -33.8450 C   0  0  0  0  0  0  0  0  0  0  0  0
   -5.2790   14.1780  -34.5650 C   0  0  0  0  0  0  0  0  0  0  0  0
   -4.0580   14.7550  -34.9280 C   0  0  0  0  0  0  0  0  0  0  0  0
   -3.7710   16.0770  -34.5710 C   0  0  0  0  0  0  0  0  0  0  0  0
   -4.7120   16.8330  -33.8460 C   0  0  0  0  0  0  0  0  0  0  0  0
   -4.4740   18.1620  -33.4600 C   0  0  0  0  0  0  0  0  0  0  0  0
   -3.3800   18.7180  -33.7630 O   0  0  0  0  0  0  0  0  0  0  0  0
   -5.4240   18.8530  -32.7520 N   0  0  0  0  0  0  0  0  0  0  0  0
   -5.1600   20.2140  -32.3610 C   0  0  0  0  0  0  0  0  0  0  0  0
   -6.0850   21.2230  -32.6590 C   0  0  0  0  0  0  0  0  0  0  0  0
   -5.8300   22.5460  -32.2820 C   0  0  0  0  0  0  0  0  0  0  0  0
   -4.6350   22.8740  -31.6140 C   0  0  0  0  0  0  0  0  0  0  0  0
   -4.3440   24.2130  -31.1890 N   0  0  0  0  0  0  0  0  0  0  0  0
   -3.9120   24.6180  -29.8840 C   0  0  0  0  0  0  0  0  0  0  0  0
   -4.7560   24.8950  -28.9890 O   0  0  0  0  0  0  0  0  0  0  0  0
   -2.5110   24.7900  -29.6350 N   0  0  0  0  0  0  0  0  0  0  0  0
   -1.9540   25.0340  -28.3300 C   0  0  0  0  0  0  0  0  0  0  0  0
   -1.2430   26.2200  -28.0670 C   0  0  0  0  0  0  0  0  0  0  0  0
   -0.7270   26.4690  -26.7930 C   0  0  0  0  0  0  0  0  0  0  0  0
   -0.9220   25.5440  -25.7640 C   0  0  0  0  0  0  0  0  0  0  0  0
   -0.2740   25.8600  -24.1650 Cl  0  0  0  0  0  0  0  0  0  0  0  0
   -1.6410   24.3710  -26.0090 C   0  0  0  0  0  0  0  0  0  0  0  0
   -2.1630   24.1140  -27.2830 C   0  0  0  0  0  0  0  0  0  0  0  0
   -3.0400   22.6120  -27.5450 Cl  0  0  0  0  0  0  0  0  0  0  0  0
   -3.7240   21.8570  -31.3010 C   0  0  0  0  0  0  0  0  0  0  0  0
   -3.9790   20.5360  -31.6800 C   0  0  0  0  0  0  0  0  0  0  0  0
   -7.5109   18.8617  -30.5796 H   0  0  0  0  0  0  0  0  0  0  0  0
   -7.6592   20.0495  -31.9189 H   0  0  0  0  0  0  0  0  0  0  0  0
   -8.6706   18.5650  -31.9189 H   0  0  0  0  0  0  0  0  0  0  0  0
   -7.1778   14.4651  -33.5606 H   0  0  0  0  0  0  0  0  0  0  0  0
   -5.5004   13.1380  -34.8466 H   0  0  0  0  0  0  0  0  0  0  0  0
   -3.3212   14.1679  -35.4958 H   0  0  0  0  0  0  0  0  0  0  0  0
   -2.8087   16.5265  -34.8572 H   0  0  0  0  0  0  0  0  0  0  0  0
   -7.0150   20.9743  -33.1912 H   0  0  0  0  0  0  0  0  0  0  0  0
   -6.5654   23.3322  -32.5082 H   0  0  0  0  0  0  0  0  0  0  0  0
   -1.8700   24.7800  -30.4600 H   0  0  0  0  0  0  0  0  0  0  0  0
   -1.0926   26.9561  -28.8705 H   0  0  0  0  0  0  0  0  0  0  0  0
   -0.1660   27.3952  -26.5994 H   0  0  0  0  0  0  0  0  0  0  0  0
   -1.7978   23.6457  -25.1970 H   0  0  0  0  0  0  0  0  0  0  0  0
   -2.8015   22.0997  -30.7531 H   0  0  0  0  0  0  0  0  0  0  0  0
   -3.2502   19.7470  -31.4428 H   0  0  0  0  0  0  0  0  0  0  0  0
  1  2  1  0
  2  3  2  0
  3  4  1  0
  4  5  2  0
  5  6  1  0
  6  7  2  0
  7  8  1  0
  8  9  2  0
  9 10  1  0
 10 11  2  0
 10 12  1  0
 12 13  1  0
 13 14  2  0
 14 15  1  0
 15 16  2  0
 16 17  1  0
 17 18  1  0
 18 19  2  0
 18 20  1  0
 20 21  1  0
 21 22  2  0
 22 23  1  0
 23 24  2  0
 24 25  1  0
 24 26  1  0
 26 27  2  0
 27 28  1  0
 16 29  1  0
 29 30  2  0
 12  2  1  0
 30 13  1  0
  9  4  1  0
 27 21  1  0
  1 31  1  0
  1 32  1  0
  1 33  1  0
  5 34  1  0
  6 35  1  0
  7 36  1  0
  8 37  1  0
 14 38  1  0
 15 39  1  0
 20 40  1  0
 22 41  1  0
 23 42  1  0
 26 43  1  0
 29 44  1  0
 30 45  1  0
M  CHG  1  17  -1
M  END
>  <UniqueID>  (23) 
22

>  <SMILES>  (23) 
Cc1nc2ccccc2c(=O)n1-c1ccc([N-]C(=O)Nc2ccc(Cl)cc2Cl)cc1

>  <Energy>  (23) 
71.20159832028942

>  <Genealogy>  (23) 
Cc1nc2ccccc2c(=O)n1-c1ccc([N-]C(=O)Nc2ccc(Cl)cc2Cl)cc1 (protonated)
Cc1nc2ccccc2c(=O)n1-c1ccc([N-]C(=O)Nc2ccc(Cl)cc2Cl)cc1 (3D coordinates assigned)
Cc1nc2ccccc2c(=O)n1-c1ccc([N-]C(=O)Nc2ccc(Cl)cc2Cl)cc1 (optimized conformer: 71.20159832028942 kcal/mol)

>  <smiles>  (23) 
Cc1nc2ccccc2c(=O)n1-c1ccc(NC(=O)Nc2ccc(Cl)cc2Cl)cc1

>  <score_type>  (23) 
oracle

>  <origin>  (23) 
adgpu

>  <m_score__min__energy>  (23) 
-10.449999999999999

>  <m_primary>  (23) 
energy

$$$$
23:0
     RDKit          3D

 56 58  0  0  0  0  0  0  0  0999 V2000
   -2.7970   24.3860  -28.8630 C   0  0  0  0  0  0  0  0  0  0  0  0
   -3.8820   24.5230  -29.8860 C   0  0  0  0  0  0  0  0  0  0  0  0
   -3.8770   25.4670  -30.8470 N   0  0  0  0  0  0  0  0  0  0  0  0
   -4.9760   25.3200  -31.5290 O   0  0  0  0  0  0  0  0  0  0  0  0
   -5.7030   24.3290  -31.0670 C   0  0  0  0  0  0  0  0  0  0  0  0
   -6.8500   24.0220  -31.6080 N   0  0  0  0  0  0  0  0  0  0  0  0
   -7.9730   22.7600  -31.2110 S   0  0  0  0  0  0  0  0  0  0  0  0
   -9.3500   23.1540  -31.6590 O   0  0  0  0  0  0  0  0  0  0  0  0
   -7.9920   22.6040  -29.7170 O   0  0  0  0  0  0  0  0  0  0  0  0
   -7.4790   21.2210  -31.9060 C   0  0  0  0  0  0  0  0  0  0  0  0
   -8.0380   20.0220  -31.4450 C   0  0  0  0  0  0  0  0  0  0  0  0
   -7.6610   18.8040  -32.0180 C   0  0  0  0  0  0  0  0  0  0  0  0
   -6.6930   18.7670  -33.0380 C   0  0  0  0  0  0  0  0  0  0  0  0
   -6.3140   17.5330  -33.6670 N   0  0  0  0  0  0  0  0  0  0  0  0
   -4.9540   17.1060  -33.8120 C   0  0  0  0  0  0  0  0  0  0  0  0
   -3.7260   17.7310  -34.0000 C   0  0  0  0  0  0  0  0  0  0  0  0
   -3.2390   19.0680  -34.1700 N   0  0  0  0  0  0  0  0  0  0  0  0
   -2.1710   19.6660  -33.3610 C   0  0  1  0  0  0  0  0  0  0  0  0
   -0.9810   19.9910  -34.2800 C   0  0  0  0  0  0  0  0  0  0  0  0
   -2.7010   20.8890  -32.5280 C   0  0  0  0  0  0  0  0  0  0  0  0
   -3.4680   21.9030  -33.4070 C   0  0  0  0  0  0  0  0  0  0  0  0
   -3.6550   20.3860  -31.4200 C   0  0  0  0  0  0  0  0  0  0  0  0
   -1.5260   21.6200  -31.8380 C   0  0  0  0  0  0  0  0  0  0  0  0
   -3.1030   16.4980  -33.9960 C   0  0  0  0  0  0  0  0  0  0  0  0
   -1.9150   16.1040  -34.1230 O   0  0  0  0  0  0  0  0  0  0  0  0
   -4.3150   15.8770  -33.7920 C   0  0  0  0  0  0  0  0  0  0  0  0
   -4.6840   14.6820  -33.6380 O   0  0  0  0  0  0  0  0  0  0  0  0
   -6.1400   19.9730  -33.4970 C   0  0  0  0  0  0  0  0  0  0  0  0
   -6.5260   21.1910  -32.9300 C   0  0  0  0  0  0  0  0  0  0  0  0
   -5.0310   23.7520  -29.9850 C   0  0  0  0  0  0  0  0  0  0  0  0
   -5.4410   22.6740  -29.0220 C   0  0  0  0  0  0  0  0  0  0  0  0
   -3.2342   24.4412  -27.8551 H   0  0  0  0  0  0  0  0  0  0  0  0
   -2.2924   23.4170  -28.9912 H   0  0  0  0  0  0  0  0  0  0  0  0
   -2.0674   25.1991  -28.9912 H   0  0  0  0  0  0  0  0  0  0  0  0
   -8.7760   20.0391  -30.6295 H   0  0  0  0  0  0  0  0  0  0  0  0
   -8.1239   17.8691  -31.6693 H   0  0  0  0  0  0  0  0  0  0  0  0
   -7.0620   16.9690  -34.1240 H   0  0  0  0  0  0  0  0  0  0  0  0
   -3.7010   19.6530  -34.9040 H   0  0  0  0  0  0  0  0  0  0  0  0
   -1.8139   18.9533  -32.6030 H   0  0  0  0  0  0  0  0  0  0  0  0
   -0.0997   20.2317  -33.6674 H   0  0  0  0  0  0  0  0  0  0  0  0
   -0.7596   19.1204  -34.9149 H   0  0  0  0  0  0  0  0  0  0  0  0
   -1.2328   20.8533  -34.9149 H   0  0  0  0  0  0  0  0  0  0  0  0
   -4.0057   22.6139  -32.7624 H   0  0  0  0  0  0  0  0  0  0  0  0
   -2.7557   22.4502  -34.0421 H   0  0  0  0  0  0  0  0  0  0  0  0
   -4.1884   21.3665  -34.0421 H   0  0  0  0  0  0  0  0  0  0  0  0
   -3.2238   20.6133  -30.4339 H   0  0  0  0  0  0  0  0  0  0  0  0
   -4.6288   20.8879  -31.5189 H   0  0  0  0  0  0  0  0  0  0  0  0
   -3.7910   19.2989  -31.5189 H   0  0  0  0  0  0  0  0  0  0  0  0
   -1.6403   21.5489  -30.7463 H   0  0  0  0  0  0  0  0  0  0  0  0
   -0.5765   21.1530  -32.1384 H   0  0  0  0  0  0  0  0  0  0  0  0
   -1.5254   22.6782  -32.1384 H   0  0  0  0  0  0  0  0  0  0  0  0
   -5.3977   19.9594  -34.3086 H   0  0  0  0  0  0  0  0  0  0  0  0
   -6.0789   22.1293  -33.2902 H   0  0  0  0  0  0  0  0  0  0  0  0
   -5.3048   23.0322  -27.9909 H   0  0  0  0  0  0  0  0  0  0  0  0
   -6.4987   22.4196  -29.1850 H   0  0  0  0  0  0  0  0  0  0  0  0
   -4.8197   21.7810  -29.1850 H   0  0  0  0  0  0  0  0  0  0  0  0
  1  2  1  0
  2  3  1  0
  3  4  1  0
  4  5  1  0
  5  6  2  3
  6  7  1  0
  7  8  2  0
  7  9  2  0
  7 10  1  0
 10 11  2  0
 11 12  1  0
 12 13  2  0
 13 14  1  0
 14 15  1  0
 15 16  2  0
 16 17  1  0
 17 18  1  0
 18 19  1  0
 18 20  1  0
 20 21  1  0
 20 22  1  0
 20 23  1  0
 16 24  1  0
 24 25  2  0
 24 26  1  0
 26 27  2  0
 13 28  1  0
 28 29  2  0
  5 30  1  0
 30 31  1  0
 30  2  2  0
 29 10  1  0
 26 15  1  0
  1 32  1  0
  1 33  1  0
  1 34  1  0
 11 35  1  0
 12 36  1  0
 14 37  1  0
 17 38  1  0
 18 39  1  1
 19 40  1  0
 19 41  1  0
 19 42  1  0
 21 43  1  0
 21 44  1  0
 21 45  1  0
 22 46  1  0
 22 47  1  0
 22 48  1  0
 23 49  1  0
 23 50  1  0
 23 51  1  0
 28 52  1  0
 29 53  1  0
 31 54  1  0
 31 55  1  0
 31 56  1  0
M  CHG  1   3  -1
M  END
>  <UniqueID>  (24) 
23

>  <SMILES>  (24) 
Cc1[n-]oc(=NS(=O)(=O)c2ccc(Nc3c(N[C@@H](C)C(C)(C)C)c(=O)c3=O)cc2)c1C

>  <Energy>  (24) 
85.93303320755348

>  <Genealogy>  (24) 
Cc1[n-]oc(=NS(=O)(=O)c2ccc(Nc3c(NC(C)C(C)(C)C)c(=O)c3=O)cc2)c1C (protonated)
Cc1[n-]oc(=NS(=O)(=O)c2ccc(Nc3c(N[C@@H](C)C(C)(C)C)c(=O)c3=O)cc2)c1C (chirality)
Cc1[n-]oc(=NS(=O)(=O)c2ccc(Nc3c(N[C@@H](C)C(C)(C)C)c(=O)c3=O)cc2)c1C (3D coordinates assigned)
Cc1[n-]oc(=NS(=O)(=O)c2ccc(Nc3c(N[C@@H](C)C(C)(C)C)c(=O)c3=O)cc2)c1C (optimized conformer: 85.93303320755348 kcal/mol)

>  <smiles>  (24) 
Cc1[nH]oc(=NS(=O)(=O)c2ccc(Nc3c(NC(C)C(C)(C)C)c(=O)c3=O)cc2)c1C

>  <score_type>  (24) 
oracle

>  <origin>  (24) 
adgpu

>  <m_score__min__energy>  (24) 
-10.83

>  <m_primary>  (24) 
energy

$$$$
24:0
     RDKit          3D

 49 52  0  0  0  0  0  0  0  0999 V2000
   -5.2100   15.3130  -33.0070 C   0  0  0  0  0  0  0  0  0  0  0  0
   -5.4260   16.7690  -32.9520 N   0  0  0  0  0  0  0  0  0  0  0  0
   -6.8610   17.0660  -32.7880 C   0  0  0  0  0  0  0  0  0  0  0  0
   -7.0760   18.5770  -32.5920 C   0  0  0  0  0  0  0  0  0  0  0  0
   -6.2700   19.4120  -33.5150 N   0  0  0  0  0  0  0  0  0  0  0  0
   -5.0990   20.3990  -32.6700 S   0  0  0  0  0  0  0  0  0  0  0  0
   -4.4110   19.6000  -31.5970 O   0  0  0  0  0  0  0  0  0  0  0  0
   -4.0600   20.9080  -33.6300 O   0  0  0  0  0  0  0  0  0  0  0  0
   -5.9200   21.7840  -31.9530 C   0  0  0  0  0  0  0  0  0  0  0  0
   -7.3140   21.7980  -31.8170 C   0  0  0  0  0  0  0  0  0  0  0  0
   -7.9520   22.9060  -31.2590 C   0  0  0  0  0  0  0  0  0  0  0  0
   -7.2050   24.0080  -30.8350 C   0  0  0  0  0  0  0  0  0  0  0  0
   -5.8040   24.0140  -30.9690 C   0  0  0  0  0  0  0  0  0  0  0  0
   -5.0080   25.1800  -30.5190 C   0  0  0  0  0  0  0  0  0  0  0  0
   -5.5930   26.2320  -30.1440 O   0  0  0  0  0  0  0  0  0  0  0  0
   -3.5770   25.0950  -30.4650 N   0  0  0  0  0  0  0  0  0  0  0  0
   -2.7910   24.5630  -29.3880 C   0  0  0  0  0  0  0  0  0  0  0  0
   -3.3880   23.6180  -28.5190 C   0  0  0  0  0  0  0  0  0  0  0  0
   -2.6540   23.0510  -27.4620 C   0  0  0  0  0  0  0  0  0  0  0  0
   -1.3260   23.4370  -27.3140 C   0  0  0  0  0  0  0  0  0  0  0  0
   -0.7390   24.3260  -28.1540 C   0  0  0  0  0  0  0  0  0  0  0  0
   -1.4300   24.9120  -29.2110 C   0  0  0  0  0  0  0  0  0  0  0  0
    0.5790   24.5080  -27.7820 O   0  0  0  0  0  0  0  0  0  0  0  0
    0.8340   23.6850  -26.6360 C   0  0  0  0  0  0  0  0  0  0  0  0
   -0.4070   23.0180  -26.3710 O   0  0  0  0  0  0  0  0  0  0  0  0
   -5.1710   22.8910  -31.5340 C   0  0  0  0  0  0  0  0  0  0  0  0
   -5.6570   18.6610  -34.6250 C   0  0  0  0  0  0  0  0  0  0  0  0
   -4.8500   17.4330  -34.1510 C   0  0  0  0  0  0  0  0  0  0  0  0
   -5.1505   14.9123  -31.9843 H   0  0  0  0  0  0  0  0  0  0  0  0
   -6.0475   14.8379  -33.5389 H   0  0  0  0  0  0  0  0  0  0  0  0
   -4.2706   15.1015  -33.5389 H   0  0  0  0  0  0  0  0  0  0  0  0
   -4.9250   17.1160  -32.0990 H   0  0  0  0  0  0  0  0  0  0  0  0
   -7.4045   16.7358  -33.6855 H   0  0  0  0  0  0  0  0  0  0  0  0
   -7.2370   16.5337  -31.9018 H   0  0  0  0  0  0  0  0  0  0  0  0
   -8.1399   18.8020  -32.7576 H   0  0  0  0  0  0  0  0  0  0  0  0
   -6.7534   18.8205  -31.5689 H   0  0  0  0  0  0  0  0  0  0  0  0
   -7.9068   20.9336  -32.1508 H   0  0  0  0  0  0  0  0  0  0  0  0
   -9.0468   22.9121  -31.1525 H   0  0  0  0  0  0  0  0  0  0  0  0
   -7.7153   24.8767  -30.3935 H   0  0  0  0  0  0  0  0  0  0  0  0
   -4.4369   23.3243  -28.6723 H   0  0  0  0  0  0  0  0  0  0  0  0
   -3.1149   22.3261  -26.7749 H   0  0  0  0  0  0  0  0  0  0  0  0
   -0.9343   25.6238  -29.8875 H   0  0  0  0  0  0  0  0  0  0  0  0
    1.6263   22.9539  -26.8543 H   0  0  0  0  0  0  0  0  0  0  0  0
    1.1770   24.2750  -25.7733 H   0  0  0  0  0  0  0  0  0  0  0  0
   -4.0769   22.8826  -31.6477 H   0  0  0  0  0  0  0  0  0  0  0  0
   -6.4558   18.3166  -35.2983 H   0  0  0  0  0  0  0  0  0  0  0  0
   -4.9553   19.3393  -35.1326 H   0  0  0  0  0  0  0  0  0  0  0  0
   -4.8165   16.7011  -34.9715 H   0  0  0  0  0  0  0  0  0  0  0  0
   -3.8492   17.7933  -33.8707 H   0  0  0  0  0  0  0  0  0  0  0  0
  1  2  1  0
  2  3  1  0
  3  4  1  0
  4  5  1  0
  5  6  1  0
  6  7  2  0
  6  8  2  0
  6  9  1  0
  9 10  2  0
 10 11  1  0
 11 12  2  0
 12 13  1  0
 13 14  1  0
 14 15  2  0
 14 16  1  0
 16 17  1  0
 17 18  2  0
 18 19  1  0
 19 20  2  0
 20 21  1  0
 21 22  2  0
 21 23  1  0
 23 24  1  0
 24 25  1  0
 13 26  2  0
  5 27  1  0
 27 28  1  0
 28  2  1  0
 26  9  1  0
 22 17  1  0
 25 20  1  0
  1 29  1  0
  1 30  1  0
  1 31  1  0
  2 32  1  0
  3 33  1  0
  3 34  1  0
  4 35  1  0
  4 36  1  0
 10 37  1  0
 11 38  1  0
 12 39  1  0
 18 40  1  0
 19 41  1  0
 22 42  1  0
 24 43  1  0
 24 44  1  0
 26 45  1  0
 27 46  1  0
 27 47  1  0
 28 48  1  0
 28 49  1  0
M  CHG  2   2   1  16  -1
M  END
>  <UniqueID>  (25) 
24

>  <SMILES>  (25) 
C[NH+]1CCN(S(=O)(=O)c2cccc(C(=O)[N-]c3ccc4c(c3)OCO4)c2)CC1

>  <Energy>  (25) 
95.32695456731916

>  <Genealogy>  (25) 
C[NH+]1CCN(S(=O)(=O)c2cccc(C(=O)[N-]c3ccc4c(c3)OCO4)c2)CC1 (protonated)
C[NH+]1CCN(S(=O)(=O)c2cccc(C(=O)[N-]c3ccc4c(c3)OCO4)c2)CC1 (3D coordinates assigned)
C[NH+]1CCN(S(=O)(=O)c2cccc(C(=O)[N-]c3ccc4c(c3)OCO4)c2)CC1 (nonaromatic ring conformer: 95.32695456731916 kcal/mol)

>  <smiles>  (25) 
CN1CCN(S(=O)(=O)c2cccc(C(=O)Nc3ccc4c(c3)OCO4)c2)CC1

>  <score_type>  (25) 
oracle

>  <origin>  (25) 
adgpu

>  <m_score__min__energy>  (25) 
-10.050000000000001

>  <m_primary>  (25) 
energy

$$$$
25:0
     RDKit          3D

 46 49  0  0  0  0  0  0  0  0999 V2000
    1.6590   26.2410  -37.6090 C   0  0  0  0  0  0  0  0  0  0  0  0
    0.3770   25.8900  -37.1770 C   0  0  0  0  0  0  0  0  0  0  0  0
    0.1830   24.7200  -36.4340 C   0  0  0  0  0  0  0  0  0  0  0  0
    1.2740   23.8920  -36.1180 C   0  0  0  0  0  0  0  0  0  0  0  0
    1.0770   22.6530  -35.3380 C   0  0  0  0  0  0  0  0  0  0  0  0
   -0.1030   22.2950  -34.7870 N   0  0  0  0  0  0  0  0  0  0  0  0
    0.1770   21.1170  -34.1980 C   0  0  0  0  0  0  0  0  0  0  0  0
   -0.8280   20.2830  -33.4470 C   0  0  0  0  0  0  0  0  0  0  0  0
   -2.2360   20.5690  -33.8180 N   0  0  0  0  0  0  0  0  0  0  0  0
   -2.9210   21.3840  -32.7810 C   0  0  0  0  0  0  0  0  0  0  0  0
   -4.4410   21.3910  -32.9750 C   0  0  0  0  0  0  0  0  0  0  0  0
   -4.9630   20.0180  -32.9430 N   0  0  0  0  0  0  0  0  0  0  0  0
   -6.3380   19.7690  -32.5760 C   0  0  0  0  0  0  0  0  0  0  0  0
   -6.7850   18.4580  -32.3170 C   0  0  0  0  0  0  0  0  0  0  0  0
   -8.1160   18.2190  -31.9640 C   0  0  0  0  0  0  0  0  0  0  0  0
   -9.0180   19.2810  -31.8700 C   0  0  0  0  0  0  0  0  0  0  0  0
   -8.5900   20.5840  -32.1270 C   0  0  0  0  0  0  0  0  0  0  0  0
   -7.2600   20.8300  -32.4790 C   0  0  0  0  0  0  0  0  0  0  0  0
   -4.0490   18.9040  -33.2260 C   0  0  0  0  0  0  0  0  0  0  0  0
   -2.9810   19.3450  -34.2380 C   0  0  0  0  0  0  0  0  0  0  0  0
    1.5040   20.8080  -34.4010 C   0  0  0  0  0  0  0  0  0  0  0  0
    2.0290   21.7750  -35.1080 O   0  0  0  0  0  0  0  0  0  0  0  0
    2.5580   24.2520  -36.5580 C   0  0  0  0  0  0  0  0  0  0  0  0
    2.7490   25.4230  -37.3000 C   0  0  0  0  0  0  0  0  0  0  0  0
    1.8100   27.1613  -38.1923 H   0  0  0  0  0  0  0  0  0  0  0  0
   -0.4806   26.5341  -37.4213 H   0  0  0  0  0  0  0  0  0  0  0  0
   -0.8276   24.4472  -36.0959 H   0  0  0  0  0  0  0  0  0  0  0  0
   -0.6229   19.2222  -33.6537 H   0  0  0  0  0  0  0  0  0  0  0  0
   -0.7195   20.5312  -32.3809 H   0  0  0  0  0  0  0  0  0  0  0  0
   -2.1770   21.1810  -34.6680 H   0  0  0  0  0  0  0  0  0  0  0  0
   -2.6905   20.9661  -31.7900 H   0  0  0  0  0  0  0  0  0  0  0  0
   -2.5606   22.4197  -32.8669 H   0  0  0  0  0  0  0  0  0  0  0  0
   -4.9075   21.9760  -32.1686 H   0  0  0  0  0  0  0  0  0  0  0  0
   -4.6762   21.8417  -33.9504 H   0  0  0  0  0  0  0  0  0  0  0  0
   -6.0810   17.6163  -32.3932 H   0  0  0  0  0  0  0  0  0  0  0  0
   -8.4538   17.1923  -31.7598 H   0  0  0  0  0  0  0  0  0  0  0  0
  -10.0655   19.0904  -31.5935 H   0  0  0  0  0  0  0  0  0  0  0  0
   -9.3013   21.4198  -32.0524 H   0  0  0  0  0  0  0  0  0  0  0  0
   -6.9305   21.8597  -32.6818 H   0  0  0  0  0  0  0  0  0  0  0  0
   -3.5588   18.5890  -32.2930 H   0  0  0  0  0  0  0  0  0  0  0  0
   -4.6219   18.0651  -33.6480 H   0  0  0  0  0  0  0  0  0  0  0  0
   -2.2599   18.5239  -34.3641 H   0  0  0  0  0  0  0  0  0  0  0  0
   -3.5025   19.5878  -35.1756 H   0  0  0  0  0  0  0  0  0  0  0  0
    2.0266   19.9118  -34.0353 H   0  0  0  0  0  0  0  0  0  0  0  0
    3.4184   23.6100  -36.3181 H   0  0  0  0  0  0  0  0  0  0  0  0
    3.7578   25.6997  -37.6402 H   0  0  0  0  0  0  0  0  0  0  0  0
  1  2  2  0
  2  3  1  0
  3  4  2  0
  4  5  1  0
  5  6  2  0
  6  7  1  0
  7  8  1  0
  8  9  1  0
  9 10  1  0
 10 11  1  0
 11 12  1  0
 12 13  1  0
 13 14  2  0
 14 15  1  0
 15 16  2  0
 16 17  1  0
 17 18  2  0
 12 19  1  0
 19 20  1  0
  7 21  2  0
 21 22  1  0
  4 23  1  0
 23 24  2  0
 24  1  1  0
 22  5  1  0
 20  9  1  0
 18 13  1  0
  1 25  1  0
  2 26  1  0
  3 27  1  0
  8 28  1  0
  8 29  1  0
  9 30  1  0
 10 31  1  0
 10 32  1  0
 11 33  1  0
 11 34  1  0
 14 35  1  0
 15 36  1  0
 16 37  1  0
 17 38  1  0
 18 39  1  0
 19 40  1  0
 19 41  1  0
 20 42  1  0
 20 43  1  0
 21 44  1  0
 23 45  1  0
 24 46  1  0
M  CHG  1   9   1
M  END
>  <UniqueID>  (26) 
25

>  <SMILES>  (26) 
c1ccc(-c2nc(C[NH+]3CCN(c4ccccc4)CC3)co2)cc1

>  <Energy>  (26) 
90.64878689156016

>  <Genealogy>  (26) 
c1ccc(-c2nc(C[NH+]3CCN(c4ccccc4)CC3)co2)cc1 (protonated)
c1ccc(-c2nc(C[NH+]3CCN(c4ccccc4)CC3)co2)cc1 (3D coordinates assigned)
c1ccc(-c2nc(C[NH+]3CCN(c4ccccc4)CC3)co2)cc1 (nonaromatic ring conformer: 90.64878689156016 kcal/mol)

>  <smiles>  (26) 
c1ccc(-c2nc(CN3CCN(c4ccccc4)CC3)co2)cc1

>  <score_type>  (26) 
oracle

>  <origin>  (26) 
adgpu

>  <m_score__min__energy>  (26) 
-8.3800000000000008

>  <m_primary>  (26) 
energy

$$$$
26:0
     RDKit          3D

 45 46  0  0  0  0  0  0  0  0999 V2000
   -2.4140   25.2760  -29.3320 N   0  0  0  0  0  0  0  0  0  0  0  0
   -3.5130   24.8120  -30.1110 C   0  0  0  0  0  0  0  0  0  0  0  0
   -4.2440   25.6360  -30.7200 O   0  0  0  0  0  0  0  0  0  0  0  0
   -3.7710   23.3390  -30.2420 C   0  0  0  0  0  0  0  0  0  0  0  0
   -4.6760   23.0290  -31.4420 C   0  0  2  0  0  0  0  0  0  0  0  0
   -5.8560   22.3020  -30.9800 N   0  0  0  0  0  0  0  0  0  0  0  0
   -7.0280   22.1000  -31.7800 C   0  0  0  0  0  0  0  0  0  0  0  0
   -7.5560   23.0800  -32.3740 O   0  0  0  0  0  0  0  0  0  0  0  0
   -7.6170   20.7470  -31.9100 C   0  0  0  0  0  0  0  0  0  0  0  0
   -8.9400   20.5850  -32.3670 C   0  0  0  0  0  0  0  0  0  0  0  0
   -9.4950   19.3070  -32.4900 C   0  0  0  0  0  0  0  0  0  0  0  0
   -8.7390   18.1800  -32.1620 C   0  0  0  0  0  0  0  0  0  0  0  0
   -7.4260   18.3280  -31.7090 C   0  0  0  0  0  0  0  0  0  0  0  0
   -6.8650   19.6030  -31.5830 C   0  0  0  0  0  0  0  0  0  0  0  0
   -3.9460   22.2120  -32.4720 C   0  0  0  0  0  0  0  0  0  0  0  0
   -4.2300   22.3410  -33.6940 O   0  0  0  0  0  0  0  0  0  0  0  0
   -2.9470   21.2750  -32.0490 N   0  0  0  0  0  0  0  0  0  0  0  0
   -2.1860   20.3840  -32.9270 C   0  0  1  0  0  0  0  0  0  0  0  0
   -0.7150   20.7020  -32.8520 C   0  0  0  0  0  0  0  0  0  0  0  0
   -0.2230   21.5300  -33.6010 O   0  0  0  0  0  0  0  0  0  0  0  0
   -2.4860   18.9090  -32.5900 C   0  0  0  0  0  0  0  0  0  0  0  0
   -3.7330   18.4120  -33.2760 C   0  0  0  0  0  0  0  0  0  0  0  0
   -4.5890   19.3160  -33.9290 C   0  0  0  0  0  0  0  0  0  0  0  0
   -5.7370   18.8560  -34.5810 C   0  0  0  0  0  0  0  0  0  0  0  0
   -6.0360   17.4910  -34.5900 C   0  0  0  0  0  0  0  0  0  0  0  0
   -5.1890   16.5840  -33.9480 C   0  0  0  0  0  0  0  0  0  0  0  0
   -4.0410   17.0410  -33.2940 C   0  0  0  0  0  0  0  0  0  0  0  0
   -1.5650   25.6770  -29.7880 H   0  0  0  0  0  0  0  0  0  0  0  0
   -2.8110   22.8188  -30.3750 H   0  0  0  0  0  0  0  0  0  0  0  0
   -4.2801   22.9962  -29.3292 H   0  0  0  0  0  0  0  0  0  0  0  0
   -4.9785   23.9777  -31.9093 H   0  0  0  0  0  0  0  0  0  0  0  0
   -9.5400   21.4690  -32.6286 H   0  0  0  0  0  0  0  0  0  0  0  0
  -10.5292   19.1896  -32.8459 H   0  0  0  0  0  0  0  0  0  0  0  0
   -9.1772   17.1759  -32.2603 H   0  0  0  0  0  0  0  0  0  0  0  0
   -6.8315   17.4393  -31.4506 H   0  0  0  0  0  0  0  0  0  0  0  0
   -5.8302   19.7123  -31.2263 H   0  0  0  0  0  0  0  0  0  0  0  0
   -2.5003   20.5480  -33.9683 H   0  0  0  0  0  0  0  0  0  0  0  0
   -0.0807   20.1844  -32.1173 H   0  0  0  0  0  0  0  0  0  0  0  0
   -1.6344   18.2915  -32.9117 H   0  0  0  0  0  0  0  0  0  0  0  0
   -2.6451   18.8356  -31.5040 H   0  0  0  0  0  0  0  0  0  0  0  0
   -4.3544   20.3907  -33.9269 H   0  0  0  0  0  0  0  0  0  0  0  0
   -6.4049   19.5686  -35.0870 H   0  0  0  0  0  0  0  0  0  0  0  0
   -6.9395   17.1300  -35.1033 H   0  0  0  0  0  0  0  0  0  0  0  0
   -5.4256   15.5098  -33.9572 H   0  0  0  0  0  0  0  0  0  0  0  0
   -3.3756   16.3239  -32.7910 H   0  0  0  0  0  0  0  0  0  0  0  0
  1  2  1  0
  2  3  2  0
  2  4  1  0
  4  5  1  0
  5  6  1  0
  6  7  1  0
  7  8  2  0
  7  9  1  0
  9 10  2  0
 10 11  1  0
 11 12  2  0
 12 13  1  0
 13 14  2  0
  5 15  1  0
 15 16  2  0
 15 17  1  0
 17 18  1  0
 18 19  1  0
 19 20  2  0
 18 21  1  0
 21 22  1  0
 22 23  2  0
 23 24  1  0
 24 25  2  0
 25 26  1  0
 26 27  2  0
 14  9  1  0
 27 22  1  0
  1 28  1  0
  4 29  1  0
  4 30  1  0
  5 31  1  6
 10 32  1  0
 11 33  1  0
 12 34  1  0
 13 35  1  0
 14 36  1  0
 18 37  1  6
 19 38  1  0
 21 39  1  0
 21 40  1  0
 23 41  1  0
 24 42  1  0
 25 43  1  0
 26 44  1  0
 27 45  1  0
M  CHG  3   1  -1   6  -1  17  -1
M  END
>  <UniqueID>  (27) 
26

>  <SMILES>  (27) 
[NH-]C(=O)C[C@H]([N-]C(=O)c1ccccc1)C(=O)[N-][C@@H](C=O)Cc1ccccc1

>  <Energy>  (27) 
36.79475937803447

>  <Genealogy>  (27) 
[NH-]C(=O)CC([N-]C(=O)c1ccccc1)C(=O)[N-]C(C=O)Cc1ccccc1 (protonated)
[NH-]C(=O)C[C@H]([N-]C(=O)c1ccccc1)C(=O)[N-][C@@H](C=O)Cc1ccccc1 (chirality)
[NH-]C(=O)C[C@H]([N-]C(=O)c1ccccc1)C(=O)[N-][C@@H](C=O)Cc1ccccc1 (3D coordinates assigned)
[NH-]C(=O)C[C@H]([N-]C(=O)c1ccccc1)C(=O)[N-][C@@H](C=O)Cc1ccccc1 (optimized conformer: 36.79475937803447 kcal/mol)

>  <smiles>  (27) 
NC(=O)CC(NC(=O)c1ccccc1)C(=O)NC(C=O)Cc1ccccc1

>  <score_type>  (27) 
oracle

>  <origin>  (27) 
adgpu

>  <m_score__min__energy>  (27) 
-12.44

>  <m_primary>  (27) 
energy

$$$$
27:0
     RDKit          3D

 25 27  0  0  0  0  0  0  0  0999 V2000
   -1.9930   25.4580  -29.3420 O   0  0  0  0  0  0  0  0  0  0  0  0
   -2.9400   24.5460  -29.7920 C   0  0  0  0  0  0  0  0  0  0  0  0
   -2.6060   23.1960  -29.9180 C   0  0  0  0  0  0  0  0  0  0  0  0
   -3.5580   22.2780  -30.3690 C   0  0  0  0  0  0  0  0  0  0  0  0
   -4.8600   22.6990  -30.7020 C   0  0  0  0  0  0  0  0  0  0  0  0
   -5.8580   21.7070  -31.1800 C   0  0  0  0  0  0  0  0  0  0  0  0
   -7.1880   21.9860  -31.2570 N   0  0  0  0  0  0  0  0  0  0  0  0
   -7.7140   20.8420  -31.7270 C   0  0  0  0  0  0  0  0  0  0  0  0
   -9.0520   20.5660  -31.9990 C   0  0  0  0  0  0  0  0  0  0  0  0
   -9.3680   19.2850  -32.4910 C   0  0  0  0  0  0  0  0  0  0  0  0
   -8.3490   18.3250  -32.6950 C   0  0  0  0  0  0  0  0  0  0  0  0
   -7.0070   18.6400  -32.4090 C   0  0  0  0  0  0  0  0  0  0  0  0
   -6.7350   19.9180  -31.9250 C   0  0  0  0  0  0  0  0  0  0  0  0
   -5.5530   20.4440  -31.5850 N   0  0  0  0  0  0  0  0  0  0  0  0
   -5.1830   24.0650  -30.5700 C   0  0  0  0  0  0  0  0  0  0  0  0
   -4.2270   24.9790  -30.1170 C   0  0  0  0  0  0  0  0  0  0  0  0
   -1.5921   22.8548  -29.6619 H   0  0  0  0  0  0  0  0  0  0  0  0
   -3.2878   21.2160  -30.4649 H   0  0  0  0  0  0  0  0  0  0  0  0
   -9.8341   21.3220  -31.8352 H   0  0  0  0  0  0  0  0  0  0  0  0
  -10.4135   19.0292  -32.7181 H   0  0  0  0  0  0  0  0  0  0  0  0
   -8.6067   17.3270  -33.0792 H   0  0  0  0  0  0  0  0  0  0  0  0
   -6.2033   17.9047  -32.5619 H   0  0  0  0  0  0  0  0  0  0  0  0
   -4.6240   19.9700  -31.6290 H   0  0  0  0  0  0  0  0  0  0  0  0
   -6.1944   24.4141  -30.8253 H   0  0  0  0  0  0  0  0  0  0  0  0
   -4.4895   26.0425  -30.0163 H   0  0  0  0  0  0  0  0  0  0  0  0
  1  2  1  0
  2  3  2  0
  3  4  1  0
  4  5  2  0
  5  6  1  0
  6  7  2  0
  7  8  1  0
  8  9  2  0
  9 10  1  0
 10 11  2  0
 11 12  1  0
 12 13  2  0
 13 14  1  0
  5 15  1  0
 15 16  2  0
 16  2  1  0
 14  6  1  0
 13  8  1  0
  3 17  1  0
  4 18  1  0
  9 19  1  0
 10 20  1  0
 11 21  1  0
 12 22  1  0
 14 23  1  0
 15 24  1  0
 16 25  1  0
M  CHG  1   1  -1
M  END
>  <UniqueID>  (28) 
27

>  <SMILES>  (28) 
[O-]c1ccc(-c2nc3ccccc3[nH]2)cc1

>  <Energy>  (28) 
65.9808789896092

>  <Genealogy>  (28) 
[O-]c1ccc(-c2nc3ccccc3[nH]2)cc1 (protonated)
[O-]c1ccc(-c2nc3ccccc3[nH]2)cc1 (3D coordinates assigned)
[O-]c1ccc(-c2nc3ccccc3[nH]2)cc1 (optimized conformer: 65.9808789896092 kcal/mol)

>  <smiles>  (28) 
Oc1ccc(-c2nc3ccccc3[nH]2)cc1

>  <score_type>  (28) 
oracle

>  <origin>  (28) 
adgpu

>  <m_score__min__energy>  (28) 
-9.1099999999999994

>  <m_primary>  (28) 
energy

$$$$
28:0
     RDKit          3D

 27 28  0  0  0  0  0  0  0  0999 V2000
   -5.0244   26.3420  -30.6235 H   0  0  0  0  0  0  0  0  0  0  0  0
   -5.0280   25.2450  -30.5430 C   0  0  0  0  0  0  0  0  0  0  0  0
   -6.1680   24.5220  -30.9090 C   0  0  0  0  0  0  0  0  0  0  0  0
   -7.0652   25.0524  -31.2608 H   0  0  0  0  0  0  0  0  0  0  0  0
   -6.1690   23.1200  -30.8280 C   0  0  0  0  0  0  0  0  0  0  0  0
   -7.3390   22.3620  -31.1590 N   0  0  0  0  0  0  0  0  0  0  0  0
   -7.4040   21.3960  -32.0320 C   0  0  0  0  0  0  0  0  0  0  0  0
   -8.7330   20.7250  -32.2570 C   0  0  0  0  0  0  0  0  0  0  0  0
   -9.4056   20.9636  -31.4200 H   0  0  0  0  0  0  0  0  0  0  0  0
   -9.1611   21.0899  -33.2023 H   0  0  0  0  0  0  0  0  0  0  0  0
   -8.5600   19.2320  -32.3440 C   0  0  0  0  0  0  0  0  0  0  0  0
   -9.4330   18.4950  -31.9120 O   0  0  0  0  0  0  0  0  0  0  0  0
   -7.3350   18.6330  -32.9850 C   0  0  0  0  0  0  0  0  0  0  0  0
   -6.7260   18.1470  -32.2085 H   0  0  0  0  0  0  0  0  0  0  0  0
   -7.6612   17.9019  -33.7394 H   0  0  0  0  0  0  0  0  0  0  0  0
   -6.4890   19.7050  -33.6850 C   0  0  0  0  0  0  0  0  0  0  0  0
   -5.5453   19.2507  -34.0214 H   0  0  0  0  0  0  0  0  0  0  0  0
   -7.0656   20.0939  -34.5372 H   0  0  0  0  0  0  0  0  0  0  0  0
   -6.1700   20.8780  -32.7490 C   0  0  0  0  0  0  0  0  0  0  0  0
   -5.4394   20.5427  -31.9981 H   0  0  0  0  0  0  0  0  0  0  0  0
   -5.7685   21.6981  -33.3624 H   0  0  0  0  0  0  0  0  0  0  0  0
   -5.0390   22.4570  -30.3310 C   0  0  0  0  0  0  0  0  0  0  0  0
   -5.0478   21.3619  -30.2275 H   0  0  0  0  0  0  0  0  0  0  0  0
   -3.9000   23.1820  -29.9660 C   0  0  0  0  0  0  0  0  0  0  0  0
   -3.0092   22.6553  -29.5930 H   0  0  0  0  0  0  0  0  0  0  0  0
   -3.8930   24.5760  -30.0750 C   0  0  0  0  0  0  0  0  0  0  0  0
   -2.7610   25.2960  -29.7140 O   0  0  0  0  0  0  0  0  0  0  0  0
  1  2  1  0
  2  3  2  0
  3  4  1  0
  3  5  1  0
  5  6  1  0
  6  7  2  0
  7  8  1  0
  8  9  1  0
  8 10  1  0
  8 11  1  0
 11 12  2  0
 11 13  1  0
 13 14  1  0
 13 15  1  0
 13 16  1  0
 16 17  1  0
 16 18  1  0
 16 19  1  0
 19 20  1  0
 19 21  1  0
  5 22  2  0
 22 23  1  0
 22 24  1  0
 24 25  1  0
 24 26  2  0
 26 27  1  0
 26  2  1  0
 19  7  1  0
M  CHG  1  27  -1
M  END
>  <UniqueID>  (29) 
28

>  <SMILES>  (29) 
O=C1CCC/C(=N\c2ccc([O-])cc2)C1

>  <Energy>  (29) 
32.08161075962421

>  <Genealogy>  (29) 
O=C1CCCC(=Nc2ccc([O-])cc2)C1 (protonated)
O=C1CCC/C(=N\c2ccc([O-])cc2)C1 (cis-trans isomerization)
O=C1CCC/C(=N\c2ccc([O-])cc2)C1 (3D coordinates assigned)
O=C1CCC/C(=N\c2ccc([O-])cc2)C1 (nonaromatic ring conformer: 32.08161075962421 kcal/mol)

>  <smiles>  (29) 
O=C1CCCC(=Nc2ccc(O)cc2)C1

>  <score_type>  (29) 
oracle

>  <origin>  (29) 
adgpu

>  <m_score__min__energy>  (29) 
-10.41

>  <m_primary>  (29) 
energy

$$$$
29:0
     RDKit          3D

 33 34  0  0  0  0  0  0  0  0999 V2000
   -1.9210   23.4410  -27.7000 C   0  0  0  0  0  0  0  0  0  0  0  0
   -1.6370   24.5640  -28.6510 C   0  0  0  0  0  0  0  0  0  0  0  0
   -0.4430   24.9270  -28.8250 O   0  0  0  0  0  0  0  0  0  0  0  0
   -2.6820   25.2630  -29.3390 N   0  0  0  0  0  0  0  0  0  0  0  0
   -3.7440   24.6790  -30.1060 C   0  0  0  0  0  0  0  0  0  0  0  0
   -3.5590   23.4930  -30.8360 C   0  0  0  0  0  0  0  0  0  0  0  0
   -4.6070   22.9640  -31.5960 C   0  0  0  0  0  0  0  0  0  0  0  0
   -5.8490   23.6140  -31.6510 C   0  0  0  0  0  0  0  0  0  0  0  0
   -6.9080   23.0360  -32.4350 N   0  0  0  0  0  0  0  0  0  0  0  0
   -8.0800   21.9200  -31.8070 S   0  0  0  0  0  0  0  0  0  0  0  0
   -8.0990   22.0190  -30.3070 O   0  0  0  0  0  0  0  0  0  0  0  0
   -9.4390   22.2780  -32.3370 O   0  0  0  0  0  0  0  0  0  0  0  0
   -7.6860   20.2820  -32.3180 C   0  0  0  0  0  0  0  0  0  0  0  0
   -8.3060   19.1790  -31.7120 C   0  0  0  0  0  0  0  0  0  0  0  0
   -7.9810   17.8810  -32.1160 C   0  0  0  0  0  0  0  0  0  0  0  0
   -7.0380   17.6770  -33.1280 C   0  0  0  0  0  0  0  0  0  0  0  0
   -6.7240   16.4160  -33.5160 F   0  0  0  0  0  0  0  0  0  0  0  0
   -6.4210   18.7740  -33.7400 C   0  0  0  0  0  0  0  0  0  0  0  0
   -5.5070   18.5790  -34.7220 F   0  0  0  0  0  0  0  0  0  0  0  0
   -6.7460   20.0730  -33.3370 C   0  0  0  0  0  0  0  0  0  0  0  0
   -6.0160   24.8230  -30.9490 C   0  0  0  0  0  0  0  0  0  0  0  0
   -4.9670   25.3500  -30.1890 C   0  0  0  0  0  0  0  0  0  0  0  0
   -1.8291   23.8042  -26.6658 H   0  0  0  0  0  0  0  0  0  0  0  0
   -2.9419   23.0675  -27.8681 H   0  0  0  0  0  0  0  0  0  0  0  0
   -1.2004   22.6271  -27.8681 H   0  0  0  0  0  0  0  0  0  0  0  0
   -2.5869   22.9789  -30.8097 H   0  0  0  0  0  0  0  0  0  0  0  0
   -4.4560   22.0293  -32.1560 H   0  0  0  0  0  0  0  0  0  0  0  0
   -6.9410   23.2260  -33.4620 H   0  0  0  0  0  0  0  0  0  0  0  0
   -9.0498   19.3361  -30.9169 H   0  0  0  0  0  0  0  0  0  0  0  0
   -8.4678   17.0187  -31.6371 H   0  0  0  0  0  0  0  0  0  0  0  0
   -6.2623   20.9341  -33.8213 H   0  0  0  0  0  0  0  0  0  0  0  0
   -6.9770   25.3560  -30.9986 H   0  0  0  0  0  0  0  0  0  0  0  0
   -5.1057   26.3001  -29.6523 H   0  0  0  0  0  0  0  0  0  0  0  0
  1  2  1  0
  2  3  2  0
  2  4  1  0
  4  5  1  0
  5  6  2  0
  6  7  1  0
  7  8  2  0
  8  9  1  0
  9 10  1  0
 10 11  2  0
 10 12  2  0
 10 13  1  0
 13 14  2  0
 14 15  1  0
 15 16  2  0
 16 17  1  0
 16 18  1  0
 18 19  1  0
 18 20  2  0
  8 21  1  0
 21 22  2  0
 22  5  1  0
 20 13  1  0
  1 23  1  0
  1 24  1  0
  1 25  1  0
  6 26  1  0
  7 27  1  0
  9 28  1  0
 14 29  1  0
 15 30  1  0
 20 31  1  0
 21 32  1  0
 22 33  1  0
M  CHG  1   4  -1
M  END
>  <UniqueID>  (30) 
29

>  <SMILES>  (30) 
CC(=O)[N-]c1ccc(NS(=O)(=O)c2ccc(F)c(F)c2)cc1

>  <Energy>  (30) 
39.54203220813996

>  <Genealogy>  (30) 
CC(=O)[N-]c1ccc(NS(=O)(=O)c2ccc(F)c(F)c2)cc1 (protonated)
CC(=O)[N-]c1ccc(NS(=O)(=O)c2ccc(F)c(F)c2)cc1 (3D coordinates assigned)
CC(=O)[N-]c1ccc(NS(=O)(=O)c2ccc(F)c(F)c2)cc1 (optimized conformer: 39.54203220813996 kcal/mol)

>  <smiles>  (30) 
CC(=O)Nc1ccc(NS(=O)(=O)c2ccc(F)c(F)c2)cc1

>  <score_type>  (30) 
oracle

>  <origin>  (30) 
adgpu

>  <m_score__min__energy>  (30) 
-10.27

>  <m_primary>  (30) 
energy

$$$$
30:0
     RDKit          3D

 49 52  0  0  0  0  0  0  0  0999 V2000
   -2.6460   20.4600  -29.0110 C   0  0  0  0  0  0  0  0  0  0  0  0
   -2.6060   21.2910  -30.1660 O   0  0  0  0  0  0  0  0  0  0  0  0
   -2.6750   20.8170  -31.4850 C   0  0  0  0  0  0  0  0  0  0  0  0
   -1.9310   21.4780  -32.4680 C   0  0  0  0  0  0  0  0  0  0  0  0
   -1.9660   21.0450  -33.7960 C   0  0  0  0  0  0  0  0  0  0  0  0
   -2.7480   19.9440  -34.1520 C   0  0  0  0  0  0  0  0  0  0  0  0
   -3.5030   19.2690  -33.1810 C   0  0  0  0  0  0  0  0  0  0  0  0
   -4.3150   18.1410  -33.5500 N   0  0  0  0  0  0  0  0  0  0  0  0
   -5.6650   18.0130  -33.4920 C   0  0  0  0  0  0  0  0  0  0  0  0
   -6.5990   18.9710  -32.8600 C   0  0  0  0  0  0  0  0  0  0  0  0
   -7.8800   18.5680  -32.4460 C   0  0  0  0  0  0  0  0  0  0  0  0
   -8.7550   19.4910  -31.8670 C   0  0  0  0  0  0  0  0  0  0  0  0
   -8.3680   20.8230  -31.7130 C   0  0  0  0  0  0  0  0  0  0  0  0
   -7.1050   21.2450  -32.1470 C   0  0  0  0  0  0  0  0  0  0  0  0
   -6.6270   22.9360  -31.9890 S   0  0  0  0  0  0  0  0  0  0  0  0
   -5.3400   23.1580  -32.7350 O   0  0  0  0  0  0  0  0  0  0  0  0
   -7.6810   23.7960  -32.6300 O   0  0  0  0  0  0  0  0  0  0  0  0
   -6.4200   23.4250  -30.3190 N   0  0  0  0  0  0  0  0  0  0  0  0
   -5.1470   22.9510  -29.7360 C   0  0  0  0  0  0  0  0  0  0  0  0
   -4.0750   24.0510  -29.6620 C   0  0  0  0  0  0  0  0  0  0  0  0
   -4.2540   24.9840  -30.7010 O   0  0  0  0  0  0  0  0  0  0  0  0
   -5.4280   25.7380  -30.4680 C   0  0  0  0  0  0  0  0  0  0  0  0
   -6.6580   24.8660  -30.1190 C   0  0  0  0  0  0  0  0  0  0  0  0
   -6.2230   20.3150  -32.7170 C   0  0  0  0  0  0  0  0  0  0  0  0
   -6.0770   16.8670  -34.0760 N   0  0  0  0  0  0  0  0  0  0  0  0
   -4.9870   16.2530  -34.5060 N   0  0  0  0  0  0  0  0  0  0  0  0
   -3.9290   17.0170  -34.1910 C   0  0  0  0  0  0  0  0  0  0  0  0
   -2.3940   16.6710  -34.6550 S   0  0  0  0  0  0  0  0  0  0  0  0
   -3.4640   19.7080  -31.8480 C   0  0  0  0  0  0  0  0  0  0  0  0
   -2.6158   21.0865  -28.1073 H   0  0  0  0  0  0  0  0  0  0  0  0
   -3.5736   19.8689  -29.0166 H   0  0  0  0  0  0  0  0  0  0  0  0
   -1.7794   19.7825  -29.0166 H   0  0  0  0  0  0  0  0  0  0  0  0
   -1.3133   22.3458  -32.1933 H   0  0  0  0  0  0  0  0  0  0  0  0
   -1.3773   21.5716  -34.5616 H   0  0  0  0  0  0  0  0  0  0  0  0
   -2.7721   19.6046  -35.1981 H   0  0  0  0  0  0  0  0  0  0  0  0
   -8.1950   17.5224  -32.5782 H   0  0  0  0  0  0  0  0  0  0  0  0
   -9.7513   19.1669  -31.5318 H   0  0  0  0  0  0  0  0  0  0  0  0
   -9.0573   21.5439  -31.2492 H   0  0  0  0  0  0  0  0  0  0  0  0
   -5.3429   22.5831  -28.7180 H   0  0  0  0  0  0  0  0  0  0  0  0
   -4.7598   22.1570  -30.3915 H   0  0  0  0  0  0  0  0  0  0  0  0
   -4.1526   24.5677  -28.6940 H   0  0  0  0  0  0  0  0  0  0  0  0
   -3.0825   23.5884  -29.7661 H   0  0  0  0  0  0  0  0  0  0  0  0
   -5.2399   26.4268  -29.6312 H   0  0  0  0  0  0  0  0  0  0  0  0
   -5.6620   26.2720  -31.4008 H   0  0  0  0  0  0  0  0  0  0  0  0
   -6.9188   25.0347  -29.0638 H   0  0  0  0  0  0  0  0  0  0  0  0
   -7.4727   25.1613  -30.7966 H   0  0  0  0  0  0  0  0  0  0  0  0
   -5.2285   20.6422  -33.0546 H   0  0  0  0  0  0  0  0  0  0  0  0
   -4.9810   15.3450  -35.0220 H   0  0  0  0  0  0  0  0  0  0  0  0
   -4.0534   19.1825  -31.0821 H   0  0  0  0  0  0  0  0  0  0  0  0
  1  2  1  0
  2  3  1  0
  3  4  2  0
  4  5  1  0
  5  6  2  0
  6  7  1  0
  7  8  1  0
  8  9  1  0
  9 10  1  0
 10 11  2  0
 11 12  1  0
 12 13  2  0
 13 14  1  0
 14 15  1  0
 15 16  2  0
 15 17  2  0
 15 18  1  0
 18 19  1  0
 19 20  1  0
 20 21  1  0
 21 22  1  0
 22 23  1  0
 14 24  2  0
  9 25  2  0
 25 26  1  0
 26 27  1  0
 27 28  2  0
  7 29  2  0
 29  3  1  0
 27  8  1  0
 24 10  1  0
 23 18  1  0
  1 30  1  0
  1 31  1  0
  1 32  1  0
  4 33  1  0
  5 34  1  0
  6 35  1  0
 11 36  1  0
 12 37  1  0
 13 38  1  0
 19 39  1  0
 19 40  1  0
 20 41  1  0
 20 42  1  0
 22 43  1  0
 22 44  1  0
 23 45  1  0
 23 46  1  0
 24 47  1  0
 26 48  1  0
 29 49  1  0
M  END
>  <UniqueID>  (31) 
30

>  <SMILES>  (31) 
COc1cccc(-n2c(-c3cccc(S(=O)(=O)N4CCOCC4)c3)n[nH]c2=S)c1

>  <Energy>  (31) 
107.92363084386854

>  <Genealogy>  (31) 
COc1cccc(-n2c(-c3cccc(S(=O)(=O)N4CCOCC4)c3)n[nH]c2=S)c1 (3D coordinates assigned)
COc1cccc(-n2c(-c3cccc(S(=O)(=O)N4CCOCC4)c3)n[nH]c2=S)c1 (nonaromatic ring conformer: 107.92363084386854 kcal/mol)

>  <smiles>  (31) 
COc1cccc(-n2c(-c3cccc(S(=O)(=O)N4CCOCC4)c3)n[nH]c2=S)c1

>  <score_type>  (31) 
oracle

>  <origin>  (31) 
adgpu

>  <m_score__min__energy>  (31) 
-10.01

>  <m_primary>  (31) 
energy

$$$$
31:0
     RDKit          3D

 63 67  0  0  0  0  0  0  0  0999 V2000
    0.2340   19.3560  -33.5730 O   0  0  0  0  0  0  0  0  0  0  0  0
   -0.8300   19.7920  -34.0870 C   0  0  0  0  0  0  0  0  0  0  0  0
   -0.8580   21.0740  -34.7350 N   0  0  0  0  0  0  0  0  0  0  0  0
    0.3160   21.8210  -35.1060 C   0  0  0  0  0  0  0  0  0  0  0  0
    1.6080   21.2880  -34.9530 C   0  0  0  0  0  0  0  0  0  0  0  0
    2.7280   22.0270  -35.3460 C   0  0  0  0  0  0  0  0  0  0  0  0
    2.5690   23.2930  -35.9130 C   0  0  0  0  0  0  0  0  0  0  0  0
    1.2880   23.8240  -36.0990 C   0  0  0  0  0  0  0  0  0  0  0  0
    1.1030   25.4210  -36.8210 S   0  0  0  0  0  0  0  0  0  0  0  0
    1.1990   25.3200  -38.3180 O   0  0  0  0  0  0  0  0  0  0  0  0
    2.2280   26.2920  -36.3340 O   0  0  0  0  0  0  0  0  0  0  0  0
   -0.4250   26.1400  -36.3580 N   0  0  0  0  0  0  0  0  0  0  0  0
   -1.1940   26.6200  -37.5230 C   0  0  0  0  0  0  0  0  0  0  0  0
   -0.6050   27.9030  -38.1390 C   0  0  0  0  0  0  0  0  0  0  0  0
   -0.0880   28.8970  -37.0850 C   0  0  0  0  0  0  0  0  0  0  0  0
   -0.6250   28.5820  -35.6910 C   0  0  0  0  0  0  0  0  0  0  0  0
   -0.2600   27.1440  -35.2770 C   0  0  0  0  0  0  0  0  0  0  0  0
    0.1650   23.0850  -35.6960 C   0  0  0  0  0  0  0  0  0  0  0  0
   -2.0560   18.9860  -33.9860 C   0  0  0  0  0  0  0  0  0  0  0  0
   -3.3010   19.4920  -34.1290 N   0  0  0  0  0  0  0  0  0  0  0  0
   -4.0710   18.3980  -33.9730 C   0  0  0  0  0  0  0  0  0  0  0  0
   -5.8170   18.4180  -34.2080 S   0  0  0  0  0  0  0  0  0  0  0  0
   -6.3960   17.0980  -33.7850 O   0  0  0  0  0  0  0  0  0  0  0  0
   -6.1190   18.6360  -35.6650 O   0  0  0  0  0  0  0  0  0  0  0  0
   -6.5380   19.6880  -33.2220 C   0  0  0  0  0  0  0  0  0  0  0  0
   -5.8060   20.8350  -32.8800 C   0  0  0  0  0  0  0  0  0  0  0  0
   -6.3720   21.8060  -32.0490 C   0  0  0  0  0  0  0  0  0  0  0  0
   -7.6720   21.6410  -31.5620 C   0  0  0  0  0  0  0  0  0  0  0  0
   -8.4090   20.5050  -31.9090 C   0  0  0  0  0  0  0  0  0  0  0  0
   -7.8450   19.5310  -32.7370 C   0  0  0  0  0  0  0  0  0  0  0  0
   -3.3240   17.2970  -33.7550 N   0  0  0  0  0  0  0  0  0  0  0  0
   -3.7670   15.9420  -33.6000 C   0  0  0  0  0  0  0  0  0  0  0  0
   -3.7740   15.0650  -34.6940 C   0  0  0  0  0  0  0  0  0  0  0  0
   -4.1720   13.7350  -34.5250 C   0  0  0  0  0  0  0  0  0  0  0  0
   -4.5730   13.2780  -33.2660 C   0  0  0  0  0  0  0  0  0  0  0  0
   -4.5840   14.1540  -32.1760 C   0  0  0  0  0  0  0  0  0  0  0  0
   -4.1900   15.4850  -32.3430 C   0  0  0  0  0  0  0  0  0  0  0  0
   -2.0550   17.6550  -33.7740 N   0  0  0  0  0  0  0  0  0  0  0  0
   -1.7880   21.5300  -34.8800 H   0  0  0  0  0  0  0  0  0  0  0  0
    1.7384   20.2844  -34.5219 H   0  0  0  0  0  0  0  0  0  0  0  0
    3.7366   21.6101  -35.2082 H   0  0  0  0  0  0  0  0  0  0  0  0
    3.4530   23.8743  -36.2142 H   0  0  0  0  0  0  0  0  0  0  0  0
   -1.1985   25.8317  -38.2902 H   0  0  0  0  0  0  0  0  0  0  0  0
   -2.2104   26.8560  -37.1747 H   0  0  0  0  0  0  0  0  0  0  0  0
    0.2315   27.6235  -38.7964 H   0  0  0  0  0  0  0  0  0  0  0  0
   -1.4144   28.4027  -38.6915 H   0  0  0  0  0  0  0  0  0  0  0  0
    1.0108   28.8503  -37.0614 H   0  0  0  0  0  0  0  0  0  0  0  0
   -0.4372   29.9018  -37.3650 H   0  0  0  0  0  0  0  0  0  0  0  0
   -0.1885   29.2872  -34.9684 H   0  0  0  0  0  0  0  0  0  0  0  0
   -1.7207   28.6778  -35.7050 H   0  0  0  0  0  0  0  0  0  0  0  0
    0.7916   27.1341  -34.9544 H   0  0  0  0  0  0  0  0  0  0  0  0
   -0.9547   26.8602  -34.4728 H   0  0  0  0  0  0  0  0  0  0  0  0
   -0.8427   23.5005  -35.8440 H   0  0  0  0  0  0  0  0  0  0  0  0
   -4.7850   20.9704  -33.2664 H   0  0  0  0  0  0  0  0  0  0  0  0
   -5.7936   22.7015  -31.7778 H   0  0  0  0  0  0  0  0  0  0  0  0
   -8.1148   22.4049  -30.9059 H   0  0  0  0  0  0  0  0  0  0  0  0
   -9.4337   20.3778  -31.5299 H   0  0  0  0  0  0  0  0  0  0  0  0
   -8.4275   18.6385  -33.0094 H   0  0  0  0  0  0  0  0  0  0  0  0
   -3.4658   15.4238  -35.6871 H   0  0  0  0  0  0  0  0  0  0  0  0
   -4.1695   13.0476  -35.3837 H   0  0  0  0  0  0  0  0  0  0  0  0
   -4.8797   12.2300  -33.1329 H   0  0  0  0  0  0  0  0  0  0  0  0
   -4.9030   13.7955  -31.1862 H   0  0  0  0  0  0  0  0  0  0  0  0
   -4.2118   16.1753  -31.4869 H   0  0  0  0  0  0  0  0  0  0  0  0
  1  2  2  0
  2  3  1  0
  3  4  1  0
  4  5  2  0
  5  6  1  0
  6  7  2  0
  7  8  1  0
  8  9  1  0
  9 10  2  0
  9 11  2  0
  9 12  1  0
 12 13  1  0
 13 14  1  0
 14 15  1  0
 15 16  1  0
 16 17  1  0
  8 18  2  0
  2 19  1  0
 19 20  1  0
 20 21  2  0
 21 22  1  0
 22 23  2  0
 22 24  2  0
 22 25  1  0
 25 26  2  0
 26 27  1  0
 27 28  2  0
 28 29  1  0
 29 30  2  0
 21 31  1  0
 31 32  1  0
 32 33  2  0
 33 34  1  0
 34 35  2  0
 35 36  1  0
 36 37  2  0
 31 38  1  0
 18  4  1  0
 38 19  2  0
 17 12  1  0
 30 25  1  0
 37 32  1  0
  3 39  1  0
  5 40  1  0
  6 41  1  0
  7 42  1  0
 13 43  1  0
 13 44  1  0
 14 45  1  0
 14 46  1  0
 15 47  1  0
 15 48  1  0
 16 49  1  0
 16 50  1  0
 17 51  1  0
 17 52  1  0
 18 53  1  0
 26 54  1  0
 27 55  1  0
 28 56  1  0
 29 57  1  0
 30 58  1  0
 33 59  1  0
 34 60  1  0
 35 61  1  0
 36 62  1  0
 37 63  1  0
M  END
>  <UniqueID>  (32) 
31

>  <SMILES>  (32) 
O=C(Nc1cccc(S(=O)(=O)N2CCCCC2)c1)c1nc(S(=O)(=O)c2ccccc2)n(-c2ccccc2)n1

>  <Energy>  (32) 
116.16861798968868

>  <Genealogy>  (32) 
O=C(Nc1cccc(S(=O)(=O)N2CCCCC2)c1)c1nc(S(=O)(=O)c2ccccc2)n(-c2ccccc2)n1 (3D coordinates assigned)
O=C(Nc1cccc(S(=O)(=O)N2CCCCC2)c1)c1nc(S(=O)(=O)c2ccccc2)n(-c2ccccc2)n1 (nonaromatic ring conformer: 116.16861798968868 kcal/mol)

>  <smiles>  (32) 
O=C(Nc1cccc(S(=O)(=O)N2CCCCC2)c1)c1nc(S(=O)(=O)c2ccccc2)n(-c2ccccc2)n1

>  <score_type>  (32) 
oracle

>  <origin>  (32) 
adgpu

>  <m_score__min__energy>  (32) 
-11.85

>  <m_primary>  (32) 
energy

$$$$
32:0
     RDKit          3D

 41 43  0  0  0  0  0  0  0  0999 V2000
   -4.2590   20.0070  -31.2420 C   0  0  0  0  0  0  0  0  0  0  0  0
   -3.0150   20.4190  -31.5390 C   0  0  0  0  0  0  0  0  0  0  0  0
   -2.3430   21.5130  -30.9790 C   0  0  0  0  0  0  0  0  0  0  0  0
   -2.8210   22.3640  -30.0450 C   0  0  0  0  0  0  0  0  0  0  0  0
   -2.1000   23.5320  -29.4900 C   0  0  0  0  0  0  0  0  0  0  0  0
   -0.9860   23.4890  -28.7360 N   0  0  0  0  0  0  0  0  0  0  0  0
   -0.7000   24.7920  -28.5190 C   0  0  0  0  0  0  0  0  0  0  0  0
    0.2890   25.1640  -27.8360 O   0  0  0  0  0  0  0  0  0  0  0  0
   -1.5550   25.6620  -29.0950 N   0  0  0  0  0  0  0  0  0  0  0  0
   -2.4320   24.8490  -29.7070 C   0  0  0  0  0  0  0  0  0  0  0  0
   -3.5130   25.3030  -30.4520 O   0  0  0  0  0  0  0  0  0  0  0  0
   -1.0780   21.5240  -31.5590 C   0  0  0  0  0  0  0  0  0  0  0  0
   -1.0370   20.4660  -32.4440 C   0  0  0  0  0  0  0  0  0  0  0  0
    0.1550   20.0980  -33.2750 C   0  0  0  0  0  0  0  0  0  0  0  0
   -2.2070   19.7920  -32.4300 N   0  0  0  0  0  0  0  0  0  0  0  0
   -2.5200   18.6350  -33.2290 C   0  0  0  0  0  0  0  0  0  0  0  0
   -3.6090   18.6580  -34.1060 C   0  0  0  0  0  0  0  0  0  0  0  0
   -3.9230   17.5330  -34.8730 C   0  0  0  0  0  0  0  0  0  0  0  0
   -3.1510   16.3560  -34.7760 C   0  0  0  0  0  0  0  0  0  0  0  0
   -3.4730   15.1850  -35.5720 N   0  0  0  0  0  0  0  0  0  0  0  0
   -2.9500   15.0430  -36.9370 C   0  0  0  0  0  0  0  0  0  0  0  0
   -4.3290   14.1230  -35.0270 C   0  0  0  0  0  0  0  0  0  0  0  0
   -2.0570   16.3460  -33.8850 C   0  0  0  0  0  0  0  0  0  0  0  0
   -1.7480   17.4730  -33.1200 C   0  0  0  0  0  0  0  0  0  0  0  0
   -4.6836   19.1288  -31.7504 H   0  0  0  0  0  0  0  0  0  0  0  0
   -4.8528   20.5479  -30.4905 H   0  0  0  0  0  0  0  0  0  0  0  0
   -3.8347   22.1724  -29.6634 H   0  0  0  0  0  0  0  0  0  0  0  0
   -0.2674   22.2381  -31.3520 H   0  0  0  0  0  0  0  0  0  0  0  0
    0.9959   19.8384  -32.6151 H   0  0  0  0  0  0  0  0  0  0  0  0
   -0.0930   19.2346  -33.9098 H   0  0  0  0  0  0  0  0  0  0  0  0
    0.4368   20.9510  -33.9098 H   0  0  0  0  0  0  0  0  0  0  0  0
   -4.2221   19.5672  -34.1926 H   0  0  0  0  0  0  0  0  0  0  0  0
   -4.7815   17.5654  -35.5600 H   0  0  0  0  0  0  0  0  0  0  0  0
   -1.8892   14.7550  -36.8951 H   0  0  0  0  0  0  0  0  0  0  0  0
   -3.5199   14.2671  -37.4691 H   0  0  0  0  0  0  0  0  0  0  0  0
   -3.0492   16.0006  -37.4691 H   0  0  0  0  0  0  0  0  0  0  0  0
   -4.3012   14.1575  -33.9279 H   0  0  0  0  0  0  0  0  0  0  0  0
   -5.3627   14.2717  -35.3725 H   0  0  0  0  0  0  0  0  0  0  0  0
   -3.9641   13.1445  -35.3725 H   0  0  0  0  0  0  0  0  0  0  0  0
   -1.4402   15.4400  -33.7918 H   0  0  0  0  0  0  0  0  0  0  0  0
   -0.8932   17.4470  -32.4281 H   0  0  0  0  0  0  0  0  0  0  0  0
  1  2  2  0
  2  3  1  0
  3  4  2  3
  4  5  1  0
  5  6  1  0
  6  7  1  0
  7  8  2  0
  7  9  1  0
  9 10  1  0
 10 11  1  0
  3 12  1  0
 12 13  2  0
 13 14  1  0
 13 15  1  0
 15 16  1  0
 16 17  2  0
 17 18  1  0
 18 19  2  0
 19 20  1  0
 20 21  1  0
 20 22  1  0
 19 23  1  0
 23 24  2  0
 15  2  1  0
 24 16  1  0
 10  5  2  0
  1 25  1  0
  1 26  1  0
  4 27  1  0
 12 28  1  0
 14 29  1  0
 14 30  1  0
 14 31  1  0
 17 32  1  0
 18 33  1  0
 21 34  1  0
 21 35  1  0
 21 36  1  0
 22 37  1  0
 22 38  1  0
 22 39  1  0
 23 40  1  0
 24 41  1  0
M  CHG  3   6  -1   9  -1  11  -1
M  END
>  <UniqueID>  (33) 
32

>  <SMILES>  (33) 
C=c1c(=Cc2[n-]c(=O)[n-]c2[O-])cc(C)n1-c1ccc(N(C)C)cc1

>  <Energy>  (33) 
112.6636435896796

>  <Genealogy>  (33) 
C=c1c(=Cc2[n-]c(=O)[n-]c2[O-])cc(C)n1-c1ccc(N(C)C)cc1 (protonated)
C=c1c(=Cc2[n-]c(=O)[n-]c2[O-])cc(C)n1-c1ccc(N(C)C)cc1 (3D coordinates assigned)
C=c1c(=Cc2[n-]c(=O)[n-]c2[O-])cc(C)n1-c1ccc(N(C)C)cc1 (optimized conformer: 112.6636435896796 kcal/mol)

>  <smiles>  (33) 
C=c1c(=Cc2[nH]c(=O)[nH]c2O)cc(C)n1-c1ccc(N(C)C)cc1

>  <score_type>  (33) 
oracle

>  <origin>  (33) 
adgpu

>  <m_score__min__energy>  (33) 
-11.68

>  <m_primary>  (33) 
energy

$$$$
33:0
     RDKit          3D

 36 37  0  0  0  0  0  0  0  0999 V2000
   -3.0230   24.4950  -27.3190 C   0  0  0  0  0  0  0  0  0  0  0  0
   -1.9750   24.8630  -28.3620 C   0  0  0  0  0  0  0  0  0  0  0  0
   -2.5720   24.9200  -29.6920 N   0  0  0  0  0  0  0  0  0  0  0  0
   -3.2660   23.8240  -30.3000 C   0  0  0  0  0  0  0  0  0  0  0  0
   -2.6200   22.8110  -30.6810 O   0  0  0  0  0  0  0  0  0  0  0  0
   -4.7360   23.8980  -30.4970 C   0  0  0  0  0  0  0  0  0  0  0  0
   -5.4710   24.8670  -29.7880 C   0  0  0  0  0  0  0  0  0  0  0  0
   -6.8480   24.9980  -29.9770 C   0  0  0  0  0  0  0  0  0  0  0  0
   -7.5140   24.1640  -30.8710 C   0  0  0  0  0  0  0  0  0  0  0  0
   -6.8080   23.1900  -31.5770 C   0  0  0  0  0  0  0  0  0  0  0  0
   -5.4190   23.0480  -31.4070 C   0  0  0  0  0  0  0  0  0  0  0  0
   -4.7300   21.9810  -32.0800 N   0  0  0  0  0  0  0  0  0  0  0  0
   -5.3670   20.7410  -32.4350 C   0  0  0  0  0  0  0  0  0  0  0  0
   -6.5760   20.5460  -32.1300 O   0  0  0  0  0  0  0  0  0  0  0  0
   -4.6270   19.6800  -33.1600 C   0  0  0  0  0  0  0  0  0  0  0  0
   -5.3340   18.7170  -33.9040 C   0  0  0  0  0  0  0  0  0  0  0  0
   -4.6510   17.7130  -34.5970 C   0  0  0  0  0  0  0  0  0  0  0  0
   -3.2530   17.6650  -34.5670 C   0  0  0  0  0  0  0  0  0  0  0  0
   -2.5500   16.6320  -35.2830 C   0  0  0  0  0  0  0  0  0  0  0  0
   -1.9840   15.8030  -35.8590 N   0  0  0  0  0  0  0  0  0  0  0  0
   -2.5390   18.6270  -33.8420 C   0  0  0  0  0  0  0  0  0  0  0  0
   -3.2210   19.6300  -33.1450 C   0  0  0  0  0  0  0  0  0  0  0  0
   -2.6054   24.6416  -26.3120 H   0  0  0  0  0  0  0  0  0  0  0  0
   -3.9077   25.1363  -27.4460 H   0  0  0  0  0  0  0  0  0  0  0  0
   -3.3125   23.4414  -27.4460 H   0  0  0  0  0  0  0  0  0  0  0  0
   -1.5486   25.8464  -28.1147 H   0  0  0  0  0  0  0  0  0  0  0  0
   -1.1873   24.0952  -28.3595 H   0  0  0  0  0  0  0  0  0  0  0  0
   -4.9544   25.5285  -29.0770 H   0  0  0  0  0  0  0  0  0  0  0  0
   -7.4082   25.7621  -29.4181 H   0  0  0  0  0  0  0  0  0  0  0  0
   -8.5983   24.2733  -31.0207 H   0  0  0  0  0  0  0  0  0  0  0  0
   -7.3424   22.5268  -32.2731 H   0  0  0  0  0  0  0  0  0  0  0  0
   -3.7220   22.1290  -32.3070 H   0  0  0  0  0  0  0  0  0  0  0  0
   -6.4328   18.7545  -33.9406 H   0  0  0  0  0  0  0  0  0  0  0  0
   -5.2139   16.9592  -35.1670 H   0  0  0  0  0  0  0  0  0  0  0  0
   -1.4397   18.5939  -33.8205 H   0  0  0  0  0  0  0  0  0  0  0  0
   -2.6538   20.3852  -32.5810 H   0  0  0  0  0  0  0  0  0  0  0  0
  1  2  1  0
  2  3  1  0
  3  4  1  0
  4  5  2  0
  4  6  1  0
  6  7  2  0
  7  8  1  0
  8  9  2  0
  9 10  1  0
 10 11  2  0
 11 12  1  0
 12 13  1  0
 13 14  2  0
 13 15  1  0
 15 16  2  0
 16 17  1  0
 17 18  2  0
 18 19  1  0
 19 20  3  0
 18 21  1  0
 21 22  2  0
 11  6  1  0
 22 15  1  0
  1 23  1  0
  1 24  1  0
  1 25  1  0
  2 26  1  0
  2 27  1  0
  7 28  1  0
  8 29  1  0
  9 30  1  0
 10 31  1  0
 12 32  1  0
 16 33  1  0
 17 34  1  0
 21 35  1  0
 22 36  1  0
M  CHG  1   3  -1
M  END
>  <UniqueID>  (34) 
33

>  <SMILES>  (34) 
CC[N-]C(=O)c1ccccc1NC(=O)c1ccc(C#N)cc1

>  <Energy>  (34) 
42.05364183399444

>  <Genealogy>  (34) 
CC[N-]C(=O)c1ccccc1NC(=O)c1ccc(C#N)cc1 (protonated)
CC[N-]C(=O)c1ccccc1NC(=O)c1ccc(C#N)cc1 (3D coordinates assigned)
CC[N-]C(=O)c1ccccc1NC(=O)c1ccc(C#N)cc1 (optimized conformer: 42.05364183399444 kcal/mol)

>  <smiles>  (34) 
CCNC(=O)c1ccccc1NC(=O)c1ccc(C#N)cc1

>  <score_type>  (34) 
oracle

>  <origin>  (34) 
adgpu

>  <m_score__min__energy>  (34) 
-7.9500000000000002

>  <m_primary>  (34) 
energy

$$$$
34:0
     RDKit          3D

 50 52  0  0  0  0  0  0  0  0999 V2000
   -0.5480   18.5140  -27.9130 C   0  0  0  0  0  0  0  0  0  0  0  0
   -0.8250   19.9930  -27.9220 C   0  0  0  0  0  0  0  0  0  0  0  0
    0.1270   20.8670  -28.4790 C   0  0  0  0  0  0  0  0  0  0  0  0
   -0.1040   22.2430  -28.5070 C   0  0  0  0  0  0  0  0  0  0  0  0
   -1.2860   22.7710  -27.9820 C   0  0  0  0  0  0  0  0  0  0  0  0
   -1.5570   24.5100  -28.0350 S   0  0  0  0  0  0  0  0  0  0  0  0
   -2.3730   24.9690  -26.8590 O   0  0  0  0  0  0  0  0  0  0  0  0
   -0.2280   25.2090  -27.9850 O   0  0  0  0  0  0  0  0  0  0  0  0
   -2.3580   24.9290  -29.5160 N   0  0  0  0  0  0  0  0  0  0  0  0
   -3.5740   24.3470  -30.0060 C   0  0  0  0  0  0  0  0  0  0  0  0
   -3.4920   23.2130  -30.8240 C   0  0  0  0  0  0  0  0  0  0  0  0
   -4.6490   22.6160  -31.3340 C   0  0  0  0  0  0  0  0  0  0  0  0
   -5.9160   23.1530  -31.0430 C   0  0  0  0  0  0  0  0  0  0  0  0
   -7.1610   22.5690  -31.6110 C   0  0  0  0  0  0  0  0  0  0  0  0
   -7.8240   23.2540  -32.4380 O   0  0  0  0  0  0  0  0  0  0  0  0
   -7.6150   21.2350  -31.2600 N   0  0  0  0  0  0  0  0  0  0  0  0
   -9.0980   21.2070  -31.0820 C   0  0  0  0  0  0  0  0  0  0  0  0
   -9.8380   20.7140  -32.3370 C   0  0  0  0  0  0  0  0  0  0  0  0
   -9.3980   19.2880  -32.7150 C   0  0  0  0  0  0  0  0  0  0  0  0
   -7.9530   18.9770  -32.2820 C   0  0  0  0  0  0  0  0  0  0  0  0
   -7.1050   20.2540  -32.2580 C   0  0  0  0  0  0  0  0  0  0  0  0
   -5.9950   24.2950  -30.2240 C   0  0  0  0  0  0  0  0  0  0  0  0
   -4.8390   24.8810  -29.7030 C   0  0  0  0  0  0  0  0  0  0  0  0
   -2.2500   21.9110  -27.4370 C   0  0  0  0  0  0  0  0  0  0  0  0
   -2.0380   20.5190  -27.4150 C   0  0  0  0  0  0  0  0  0  0  0  0
   -3.0960   19.6220  -26.8270 C   0  0  0  0  0  0  0  0  0  0  0  0
   -0.4816   18.1597  -26.8737 H   0  0  0  0  0  0  0  0  0  0  0  0
   -1.3627   17.9852  -28.4293 H   0  0  0  0  0  0  0  0  0  0  0  0
    0.4029   18.3159  -28.4293 H   0  0  0  0  0  0  0  0  0  0  0  0
    1.0610   20.4622  -28.8958 H   0  0  0  0  0  0  0  0  0  0  0  0
    0.6486   22.9153  -28.9447 H   0  0  0  0  0  0  0  0  0  0  0  0
   -2.5073   22.7877  -31.0677 H   0  0  0  0  0  0  0  0  0  0  0  0
   -4.5678   21.7202  -31.9672 H   0  0  0  0  0  0  0  0  0  0  0  0
   -7.2110   20.9820  -30.3270 H   0  0  0  0  0  0  0  0  0  0  0  0
   -9.3392   20.5354  -30.2449 H   0  0  0  0  0  0  0  0  0  0  0  0
   -9.4282   22.2377  -30.8854 H   0  0  0  0  0  0  0  0  0  0  0  0
  -10.9202   20.7158  -32.1400 H   0  0  0  0  0  0  0  0  0  0  0  0
   -9.5962   21.3874  -33.1725 H   0  0  0  0  0  0  0  0  0  0  0  0
  -10.0738   18.5703  -32.2269 H   0  0  0  0  0  0  0  0  0  0  0  0
   -9.4410   19.2068  -33.8112 H   0  0  0  0  0  0  0  0  0  0  0  0
   -7.9657   18.5336  -31.2754 H   0  0  0  0  0  0  0  0  0  0  0  0
   -7.5120   18.2744  -33.0044 H   0  0  0  0  0  0  0  0  0  0  0  0
   -6.0689   19.9892  -32.0003 H   0  0  0  0  0  0  0  0  0  0  0  0
   -7.1569   20.7190  -33.2535 H   0  0  0  0  0  0  0  0  0  0  0  0
   -6.9779   24.7308  -29.9917 H   0  0  0  0  0  0  0  0  0  0  0  0
   -4.9186   25.7645  -29.0525 H   0  0  0  0  0  0  0  0  0  0  0  0
   -3.1802   22.3273  -27.0229 H   0  0  0  0  0  0  0  0  0  0  0  0
   -3.0448   19.6654  -25.7291 H   0  0  0  0  0  0  0  0  0  0  0  0
   -4.0887   19.9579  -27.1613 H   0  0  0  0  0  0  0  0  0  0  0  0
   -2.9271   18.5877  -27.1613 H   0  0  0  0  0  0  0  0  0  0  0  0
  1  2  1  0
  2  3  2  0
  3  4  1  0
  4  5  2  0
  5  6  1  0
  6  7  2  0
  6  8  2  0
  6  9  1  0
  9 10  1  0
 10 11  2  0
 11 12  1  0
 12 13  2  0
 13 14  1  0
 14 15  2  0
 14 16  1  0
 16 17  1  0
 17 18  1  0
 18 19  1  0
 19 20  1  0
 20 21  1  0
 13 22  1  0
 22 23  2  0
  5 24  1  0
 24 25  2  0
 25 26  1  0
 25  2  1  0
 23 10  1  0
 21 16  1  0
  1 27  1  0
  1 28  1  0
  1 29  1  0
  3 30  1  0
  4 31  1  0
 11 32  1  0
 12 33  1  0
 16 34  1  0
 17 35  1  0
 17 36  1  0
 18 37  1  0
 18 38  1  0
 19 39  1  0
 19 40  1  0
 20 41  1  0
 20 42  1  0
 21 43  1  0
 21 44  1  0
 22 45  1  0
 23 46  1  0
 24 47  1  0
 26 48  1  0
 26 49  1  0
 26 50  1  0
M  CHG  2   9  -1  16   1
M  END
>  <UniqueID>  (35) 
34

>  <SMILES>  (35) 
Cc1ccc(S(=O)(=O)[N-]c2ccc(C(=O)[NH+]3CCCCC3)cc2)cc1C

>  <Energy>  (35) 
66.51873945856238

>  <Genealogy>  (35) 
Cc1ccc(S(=O)(=O)[N-]c2ccc(C(=O)[NH+]3CCCCC3)cc2)cc1C (protonated)
Cc1ccc(S(=O)(=O)[N-]c2ccc(C(=O)[NH+]3CCCCC3)cc2)cc1C (3D coordinates assigned)
Cc1ccc(S(=O)(=O)[N-]c2ccc(C(=O)[NH+]3CCCCC3)cc2)cc1C (nonaromatic ring conformer: 66.51873945856238 kcal/mol)

>  <smiles>  (35) 
Cc1ccc(S(=O)(=O)Nc2ccc(C(=O)N3CCCCC3)cc2)cc1C

>  <score_type>  (35) 
oracle

>  <origin>  (35) 
adgpu

>  <m_score__min__energy>  (35) 
-10.949999999999999

>  <m_primary>  (35) 
energy

$$$$
35:0
     RDKit          3D

 53 56  0  0  0  0  0  0  0  0999 V2000
   -1.5770   25.6510  -29.2670 O   0  0  0  0  0  0  0  0  0  0  0  0
   -2.6030   24.9230  -29.3430 C   0  0  0  0  0  0  0  0  0  0  0  0
   -2.8320   23.9410  -28.3260 N   0  0  0  0  0  0  0  0  0  0  0  0
   -2.1900   22.6620  -28.2250 C   0  0  0  0  0  0  0  0  0  0  0  0
   -0.8300   22.5650  -28.5410 C   0  0  0  0  0  0  0  0  0  0  0  0
   -0.1740   21.3320  -28.4750 C   0  0  0  0  0  0  0  0  0  0  0  0
   -0.8760   20.1790  -28.1020 C   0  0  0  0  0  0  0  0  0  0  0  0
   -0.0440   18.6260  -28.0480 S   0  0  0  0  0  0  0  0  0  0  0  0
    1.3690   18.8630  -27.5910 O   0  0  0  0  0  0  0  0  0  0  0  0
   -0.7160   17.7250  -27.0480 O   0  0  0  0  0  0  0  0  0  0  0  0
   -0.0220   17.8820  -29.6330 N   0  0  0  0  0  0  0  0  0  0  0  0
    1.2900   17.2880  -29.9470 C   0  0  0  0  0  0  0  0  0  0  0  0
    2.3570   18.3610  -30.2700 C   0  0  0  0  0  0  0  0  0  0  0  0
    1.8100   19.6250  -30.6050 O   0  0  0  0  0  0  0  0  0  0  0  0
    0.6950   19.4640  -31.4520 C   0  0  0  0  0  0  0  0  0  0  0  0
   -0.4750   18.8210  -30.6840 C   0  0  0  0  0  0  0  0  0  0  0  0
   -2.2450   20.2660  -27.8170 C   0  0  0  0  0  0  0  0  0  0  0  0
   -2.9010   21.4980  -27.8830 C   0  0  0  0  0  0  0  0  0  0  0  0
   -3.5270   25.0850  -30.4250 N   0  0  0  0  0  0  0  0  0  0  0  0
   -4.6980   24.2880  -30.6480 C   0  0  0  0  0  0  0  0  0  0  0  0
   -5.9470   24.9230  -30.6480 C   0  0  0  0  0  0  0  0  0  0  0  0
   -7.1150   24.1890  -30.8650 C   0  0  0  0  0  0  0  0  0  0  0  0
   -7.0430   22.8150  -31.0950 C   0  0  0  0  0  0  0  0  0  0  0  0
   -5.8020   22.1750  -31.1330 C   0  0  0  0  0  0  0  0  0  0  0  0
   -4.6170   22.9100  -30.9420 C   0  0  0  0  0  0  0  0  0  0  0  0
   -3.3590   22.2900  -31.0240 O   0  0  0  0  0  0  0  0  0  0  0  0
   -2.9790   21.3380  -31.9810 C   0  0  0  0  0  0  0  0  0  0  0  0
   -3.7030   20.1420  -32.0620 C   0  0  0  0  0  0  0  0  0  0  0  0
   -3.3450   19.1600  -32.9920 C   0  0  0  0  0  0  0  0  0  0  0  0
   -2.2520   19.3640  -33.8390 C   0  0  0  0  0  0  0  0  0  0  0  0
   -1.5120   20.5470  -33.7530 C   0  0  0  0  0  0  0  0  0  0  0  0
   -1.8680   21.5300  -32.8230 C   0  0  0  0  0  0  0  0  0  0  0  0
   -0.2737   23.4645  -28.8432 H   0  0  0  0  0  0  0  0  0  0  0  0
    0.8971   21.2674  -28.7169 H   0  0  0  0  0  0  0  0  0  0  0  0
    1.6292   16.7010  -29.0807 H   0  0  0  0  0  0  0  0  0  0  0  0
    1.1686   16.6546  -30.8381 H   0  0  0  0  0  0  0  0  0  0  0  0
    3.0032   18.4847  -29.3885 H   0  0  0  0  0  0  0  0  0  0  0  0
    2.9126   18.0072  -31.1510 H   0  0  0  0  0  0  0  0  0  0  0  0
    0.3825   20.4484  -31.8306 H   0  0  0  0  0  0  0  0  0  0  0  0
    0.9751   18.8081  -32.2894 H   0  0  0  0  0  0  0  0  0  0  0  0
   -1.0665   19.6190  -30.2115 H   0  0  0  0  0  0  0  0  0  0  0  0
   -1.0714   18.2463  -31.4080 H   0  0  0  0  0  0  0  0  0  0  0  0
   -2.8056   19.3609  -27.5402 H   0  0  0  0  0  0  0  0  0  0  0  0
   -3.9779   21.5575  -27.6666 H   0  0  0  0  0  0  0  0  0  0  0  0
   -6.0080   26.0077  -30.4758 H   0  0  0  0  0  0  0  0  0  0  0  0
   -8.0920   24.6944  -30.8546 H   0  0  0  0  0  0  0  0  0  0  0  0
   -7.9650   22.2346  -31.2467 H   0  0  0  0  0  0  0  0  0  0  0  0
   -5.7506   21.0911  -31.3131 H   0  0  0  0  0  0  0  0  0  0  0  0
   -4.5580   19.9737  -31.3907 H   0  0  0  0  0  0  0  0  0  0  0  0
   -3.9240   18.2269  -33.0567 H   0  0  0  0  0  0  0  0  0  0  0  0
   -1.9740   18.5936  -34.5733 H   0  0  0  0  0  0  0  0  0  0  0  0
   -0.6493   20.7052  -34.4169 H   0  0  0  0  0  0  0  0  0  0  0  0
   -1.2778   22.4554  -32.7499 H   0  0  0  0  0  0  0  0  0  0  0  0
  1  2  2  0
  2  3  1  0
  3  4  1  0
  4  5  2  0
  5  6  1  0
  6  7  2  0
  7  8  1  0
  8  9  2  0
  8 10  2  0
  8 11  1  0
 11 12  1  0
 12 13  1  0
 13 14  1  0
 14 15  1  0
 15 16  1  0
  7 17  1  0
 17 18  2  0
  2 19  1  0
 19 20  1  0
 20 21  2  0
 21 22  1  0
 22 23  2  0
 23 24  1  0
 24 25  2  0
 25 26  1  0
 26 27  1  0
 27 28  2  0
 28 29  1  0
 29 30  2  0
 30 31  1  0
 31 32  2  0
 18  4  1  0
 25 20  1  0
 32 27  1  0
 16 11  1  0
  5 33  1  0
  6 34  1  0
 12 35  1  0
 12 36  1  0
 13 37  1  0
 13 38  1  0
 15 39  1  0
 15 40  1  0
 16 41  1  0
 16 42  1  0
 17 43  1  0
 18 44  1  0
 21 45  1  0
 22 46  1  0
 23 47  1  0
 24 48  1  0
 28 49  1  0
 29 50  1  0
 30 51  1  0
 31 52  1  0
 32 53  1  0
M  CHG  2   3  -1  19  -1
M  END
>  <UniqueID>  (36) 
35

>  <SMILES>  (36) 
O=C([N-]c1ccc(S(=O)(=O)N2CCOCC2)cc1)[N-]c1ccccc1Oc1ccccc1

>  <Energy>  (36) 
82.61066641021499

>  <Genealogy>  (36) 
O=C([N-]c1ccc(S(=O)(=O)N2CCOCC2)cc1)[N-]c1ccccc1Oc1ccccc1 (protonated)
O=C([N-]c1ccc(S(=O)(=O)N2CCOCC2)cc1)[N-]c1ccccc1Oc1ccccc1 (3D coordinates assigned)
O=C([N-]c1ccc(S(=O)(=O)N2CCOCC2)cc1)[N-]c1ccccc1Oc1ccccc1 (nonaromatic ring conformer: 82.61066641021499 kcal/mol)

>  <smiles>  (36) 
O=C(Nc1ccc(S(=O)(=O)N2CCOCC2)cc1)Nc1ccccc1Oc1ccccc1

>  <score_type>  (36) 
oracle

>  <origin>  (36) 
adgpu

>  <m_score__min__energy>  (36) 
-12.890000000000001

>  <m_primary>  (36) 
energy

$$$$
36:0
     RDKit          3D

 56 59  0  0  0  0  0  0  0  0999 V2000
   -4.5140   24.6150  -30.9370 O   0  0  0  0  0  0  0  0  0  0  0  0
   -4.1400   23.6150  -30.2640 C   0  0  0  0  0  0  0  0  0  0  0  0
   -4.9480   22.4230  -30.2420 N   0  0  0  0  0  0  0  0  0  0  0  0
   -6.2380   22.3180  -30.8670 C   0  0  0  0  0  0  0  0  0  0  0  0
   -7.0480   23.4480  -31.0730 C   0  0  0  0  0  0  0  0  0  0  0  0
   -8.3130   23.3130  -31.6520 C   0  0  0  0  0  0  0  0  0  0  0  0
   -8.7870   22.0500  -32.0180 C   0  0  0  0  0  0  0  0  0  0  0  0
   -7.9950   20.9140  -31.8040 C   0  0  0  0  0  0  0  0  0  0  0  0
   -8.6110   19.3200  -32.2300 S   0  0  0  0  0  0  0  0  0  0  0  0
   -8.9880   18.5840  -30.9740 O   0  0  0  0  0  0  0  0  0  0  0  0
   -9.8400   19.4630  -33.0860 O   0  0  0  0  0  0  0  0  0  0  0  0
   -7.3720   18.4300  -33.0770 N   0  0  0  0  0  0  0  0  0  0  0  0
   -6.5020   17.7120  -32.1460 C   0  0  0  0  0  0  0  0  0  0  0  0
   -5.1580   17.5600  -32.8390 C   0  0  0  0  0  0  0  0  0  0  0  0
   -5.1450   18.6200  -33.9300 C   0  0  0  0  0  0  0  0  0  0  0  0
   -6.4890   19.3250  -33.8240 C   0  0  0  0  0  0  0  0  0  0  0  0
   -6.7300   21.0510  -31.2160 C   0  0  0  0  0  0  0  0  0  0  0  0
   -2.8630   23.6930  -29.5150 C   0  0  0  0  0  0  0  0  0  0  0  0
   -2.1040   22.5270  -29.3120 C   0  0  0  0  0  0  0  0  0  0  0  0
   -0.8960   22.5800  -28.6110 C   0  0  0  0  0  0  0  0  0  0  0  0
   -0.4290   23.7960  -28.0990 C   0  0  0  0  0  0  0  0  0  0  0  0
    1.1080   23.8670  -27.2340 S   0  0  0  0  0  0  0  0  0  0  0  0
    1.8380   22.5650  -27.4180 O   0  0  0  0  0  0  0  0  0  0  0  0
    1.9570   24.9590  -27.8230 O   0  0  0  0  0  0  0  0  0  0  0  0
    0.8870   24.1680  -25.5230 N   0  0  0  0  0  0  0  0  0  0  0  0
    1.1580   25.5710  -25.1920 C   0  0  0  0  0  0  0  0  0  0  0  0
   -0.1690   26.3120  -25.1190 C   0  0  0  0  0  0  0  0  0  0  0  0
   -1.2390   25.2410  -25.0660 C   0  0  0  0  0  0  0  0  0  0  0  0
   -0.4990   23.9120  -25.1150 C   0  0  0  0  0  0  0  0  0  0  0  0
   -1.1920   24.9570  -28.2760 C   0  0  0  0  0  0  0  0  0  0  0  0
   -2.4000   24.9080  -28.9780 C   0  0  0  0  0  0  0  0  0  0  0  0
   -4.5700   21.5600  -29.7930 H   0  0  0  0  0  0  0  0  0  0  0  0
   -6.6847   24.4432  -30.7772 H   0  0  0  0  0  0  0  0  0  0  0  0
   -8.9372   24.2030  -31.8201 H   0  0  0  0  0  0  0  0  0  0  0  0
   -9.7826   21.9477  -32.4744 H   0  0  0  0  0  0  0  0  0  0  0  0
   -6.3864   18.2860  -31.2148 H   0  0  0  0  0  0  0  0  0  0  0  0
   -6.9258   16.7319  -31.8819 H   0  0  0  0  0  0  0  0  0  0  0  0
   -4.3365   17.7298  -32.1274 H   0  0  0  0  0  0  0  0  0  0  0  0
   -5.0208   16.5486  -33.2491 H   0  0  0  0  0  0  0  0  0  0  0  0
   -4.3228   19.3320  -33.7652 H   0  0  0  0  0  0  0  0  0  0  0  0
   -4.9913   18.1799  -34.9263 H   0  0  0  0  0  0  0  0  0  0  0  0
   -6.3758   20.2797  -33.2895 H   0  0  0  0  0  0  0  0  0  0  0  0
   -6.8999   19.5478  -34.8197 H   0  0  0  0  0  0  0  0  0  0  0  0
   -6.1174   20.1573  -31.0264 H   0  0  0  0  0  0  0  0  0  0  0  0
   -2.4636   21.5658  -29.7079 H   0  0  0  0  0  0  0  0  0  0  0  0
   -0.3095   21.6616  -28.4610 H   0  0  0  0  0  0  0  0  0  0  0  0
    1.6711   25.6312  -24.2208 H   0  0  0  0  0  0  0  0  0  0  0  0
    1.8017   26.0233  -25.9608 H   0  0  0  0  0  0  0  0  0  0  0  0
   -0.2087   26.9379  -24.2153 H   0  0  0  0  0  0  0  0  0  0  0  0
   -0.3074   26.9794  -25.9824 H   0  0  0  0  0  0  0  0  0  0  0  0
   -1.8173   25.3232  -24.1339 H   0  0  0  0  0  0  0  0  0  0  0  0
   -1.9509   25.3387  -25.8989 H   0  0  0  0  0  0  0  0  0  0  0  0
   -0.5127   23.4424  -24.1204 H   0  0  0  0  0  0  0  0  0  0  0  0
   -0.9852   23.2351  -25.8329 H   0  0  0  0  0  0  0  0  0  0  0  0
   -0.8390   25.9124  -27.8605 H   0  0  0  0  0  0  0  0  0  0  0  0
   -2.9922   25.8253  -29.1113 H   0  0  0  0  0  0  0  0  0  0  0  0
  1  2  2  0
  2  3  1  0
  3  4  1  0
  4  5  2  0
  5  6  1  0
  6  7  2  0
  7  8  1  0
  8  9  1  0
  9 10  2  0
  9 11  2  0
  9 12  1  0
 12 13  1  0
 13 14  1  0
 14 15  1  0
 15 16  1  0
  8 17  2  0
  2 18  1  0
 18 19  2  0
 19 20  1  0
 20 21  2  0
 21 22  1  0
 22 23  2  0
 22 24  2  0
 22 25  1  0
 25 26  1  0
 26 27  1  0
 27 28  1  0
 28 29  1  0
 21 30  1  0
 30 31  2  0
 17  4  1  0
 31 18  1  0
 16 12  1  0
 29 25  1  0
  3 32  1  0
  5 33  1  0
  6 34  1  0
  7 35  1  0
 13 36  1  0
 13 37  1  0
 14 38  1  0
 14 39  1  0
 15 40  1  0
 15 41  1  0
 16 42  1  0
 16 43  1  0
 17 44  1  0
 19 45  1  0
 20 46  1  0
 26 47  1  0
 26 48  1  0
 27 49  1  0
 27 50  1  0
 28 51  1  0
 28 52  1  0
 29 53  1  0
 29 54  1  0
 30 55  1  0
 31 56  1  0
M  END
>  <UniqueID>  (37) 
36

>  <SMILES>  (37) 
O=C(Nc1cccc(S(=O)(=O)N2CCCC2)c1)c1ccc(S(=O)(=O)N2CCCC2)cc1

>  <Energy>  (37) 
65.26436810780164

>  <Genealogy>  (37) 
O=C(Nc1cccc(S(=O)(=O)N2CCCC2)c1)c1ccc(S(=O)(=O)N2CCCC2)cc1 (3D coordinates assigned)
O=C(Nc1cccc(S(=O)(=O)N2CCCC2)c1)c1ccc(S(=O)(=O)N2CCCC2)cc1 (nonaromatic ring conformer: 65.26436810780164 kcal/mol)

>  <smiles>  (37) 
O=C(Nc1cccc(S(=O)(=O)N2CCCC2)c1)c1ccc(S(=O)(=O)N2CCCC2)cc1

>  <score_type>  (37) 
oracle

>  <origin>  (37) 
adgpu

>  <m_score__min__energy>  (37) 
-10.67

>  <m_primary>  (37) 
energy

$$$$
37:0
     RDKit          3D

 66 70  0  0  0  0  0  0  0  0999 V2000
   -4.0688   25.3641  -26.6256 H   0  0  0  0  0  0  0  0  0  0  0  0
   -3.4920   24.7480  -27.3310 C   0  0  0  0  0  0  0  0  0  0  0  0
   -4.2350   24.0590  -28.4130 C   0  0  0  0  0  0  0  0  0  0  0  0
   -5.3600   24.6820  -28.9700 C   0  0  0  0  0  0  0  0  0  0  0  0
   -5.6637   25.6782  -28.6159 H   0  0  0  0  0  0  0  0  0  0  0  0
   -6.0990   24.0470  -29.9720 C   0  0  0  0  0  0  0  0  0  0  0  0
   -6.9689   24.5548  -30.4141 H   0  0  0  0  0  0  0  0  0  0  0  0
   -5.7390   22.7660  -30.4180 C   0  0  0  0  0  0  0  0  0  0  0  0
   -6.4970   22.1140  -31.4570 N   0  0  0  0  0  0  0  0  0  0  0  0
   -7.8910   22.5200  -31.7060 C   0  0  0  0  0  0  0  0  0  0  0  0
   -8.1404   23.3739  -31.0589 H   0  0  0  0  0  0  0  0  0  0  0  0
   -7.9957   22.8026  -32.7639 H   0  0  0  0  0  0  0  0  0  0  0  0
   -8.8460   21.3660  -31.4060 C   0  0  0  0  0  0  0  0  0  0  0  0
   -8.7880   21.1118  -30.3374 H   0  0  0  0  0  0  0  0  0  0  0  0
   -9.8731   21.6681  -31.6586 H   0  0  0  0  0  0  0  0  0  0  0  0
   -8.3930   19.9430  -32.3790 S   0  0  0  0  0  0  0  0  0  0  0  0
   -9.4390   19.6810  -33.4270 O   0  0  0  0  0  0  0  0  0  0  0  0
   -8.2590   18.7380  -31.4920 O   0  0  0  0  0  0  0  0  0  0  0  0
   -6.8330   20.2950  -33.1640 C   0  0  0  0  0  0  0  0  0  0  0  0
   -6.3802   19.3535  -33.5084 H   0  0  0  0  0  0  0  0  0  0  0  0
   -7.0073   20.9659  -34.0181 H   0  0  0  0  0  0  0  0  0  0  0  0
   -5.8800   20.9830  -32.1780 C   0  0  0  0  0  0  0  0  0  0  0  0
   -5.5463   20.2393  -31.4394 H   0  0  0  0  0  0  0  0  0  0  0  0
   -5.0441   21.3903  -32.7656 H   0  0  0  0  0  0  0  0  0  0  0  0
   -4.6290   22.1290  -29.8400 C   0  0  0  0  0  0  0  0  0  0  0  0
   -4.3406   21.1221  -30.1762 H   0  0  0  0  0  0  0  0  0  0  0  0
   -3.8880   22.7660  -28.8400 C   0  0  0  0  0  0  0  0  0  0  0  0
   -3.0285   22.2521  -28.3849 H   0  0  0  0  0  0  0  0  0  0  0  0
   -2.1500   24.6710  -27.1510 C   0  0  0  0  0  0  0  0  0  0  0  0
   -1.4550   23.8980  -28.0160 N   0  0  0  0  0  0  0  0  0  0  0  0
   -0.1400   23.6760  -28.1900 C   0  0  0  0  0  0  0  0  0  0  0  0
    0.1429   22.7768  -28.7570 H   0  0  0  0  0  0  0  0  0  0  0  0
    0.8900   24.4720  -27.7230 C   0  0  0  0  0  0  0  0  0  0  0  0
    1.8809   24.2644  -28.1530 H   0  0  0  0  0  0  0  0  0  0  0  0
    0.8470   25.5120  -26.7730 C   0  0  0  0  0  0  0  0  0  0  0  0
    1.9220   26.3760  -26.7000 C   0  0  0  0  0  0  0  0  0  0  0  0
    1.9260   27.5170  -25.8140 N   0  0  0  0  0  0  0  0  0  0  0  0
    1.0850   28.6780  -26.0510 C   0  0  0  0  0  0  0  0  0  0  0  0
    0.1590   28.7150  -27.1150 C   0  0  0  0  0  0  0  0  0  0  0  0
    0.0867   27.8618  -27.8055 H   0  0  0  0  0  0  0  0  0  0  0  0
   -0.6660   29.8260  -27.2980 C   0  0  0  0  0  0  0  0  0  0  0  0
   -1.3907   29.8407  -28.1254 H   0  0  0  0  0  0  0  0  0  0  0  0
   -0.5740   30.9170  -26.4350 C   0  0  0  0  0  0  0  0  0  0  0  0
   -1.2348   31.7851  -26.5754 H   0  0  0  0  0  0  0  0  0  0  0  0
    0.3550   30.9100  -25.3930 C   0  0  0  0  0  0  0  0  0  0  0  0
    0.4274   31.7763  -24.7190 H   0  0  0  0  0  0  0  0  0  0  0  0
    1.2000   29.8000  -25.2000 C   0  0  0  0  0  0  0  0  0  0  0  0
    2.2080   29.7950  -24.1660 N   0  0  0  0  0  0  0  0  0  0  0  0
    2.0990   30.6580  -22.9850 C   0  0  0  0  0  0  0  0  0  0  0  0
    2.1764   30.0453  -22.0747 H   0  0  0  0  0  0  0  0  0  0  0  0
    2.9105   31.4005  -22.9973 H   0  0  0  0  0  0  0  0  0  0  0  0
    1.1284   31.1754  -22.9973 H   0  0  0  0  0  0  0  0  0  0  0  0
    3.3360   28.8710  -24.3100 C   0  0  0  0  0  0  0  0  0  0  0  0
    3.9024   28.8352  -23.3677 H   0  0  0  0  0  0  0  0  0  0  0  0
    3.9921   29.2194  -25.1212 H   0  0  0  0  0  0  0  0  0  0  0  0
    2.8160   27.4760  -24.6430 C   0  0  0  0  0  0  0  0  0  0  0  0
    2.2587   27.0831  -23.7798 H   0  0  0  0  0  0  0  0  0  0  0  0
    3.6727   26.8256  -24.8733 H   0  0  0  0  0  0  0  0  0  0  0  0
    3.1210   26.2780  -27.6160 C   0  0  0  0  0  0  0  0  0  0  0  0
    4.0379   26.2031  -27.0130 H   0  0  0  0  0  0  0  0  0  0  0  0
    3.0255   25.3847  -28.2507 H   0  0  0  0  0  0  0  0  0  0  0  0
    3.1718   27.1750  -28.2507 H   0  0  0  0  0  0  0  0  0  0  0  0
   -0.2120   25.6240  -25.8300 C   0  0  0  0  0  0  0  0  0  0  0  0
    0.0700   26.0990  -24.6920 O   0  0  0  0  0  0  0  0  0  0  0  0
   -1.5710   25.3030  -26.0260 C   0  0  0  0  0  0  0  0  0  0  0  0
   -2.3540   25.6440  -25.0910 O   0  0  0  0  0  0  0  0  0  0  0  0
  1  2  1  0
  2  3  1  0
  3  4  2  0
  4  5  1  0
  4  6  1  0
  6  7  1  0
  6  8  2  0
  8  9  1  0
  9 10  1  0
 10 11  1  0
 10 12  1  0
 10 13  1  0
 13 14  1  0
 13 15  1  0
 13 16  1  0
 16 17  2  0
 16 18  2  0
 16 19  1  0
 19 20  1  0
 19 21  1  0
 19 22  1  0
 22 23  1  0
 22 24  1  0
  8 25  1  0
 25 26  1  0
 25 27  2  0
 27 28  1  0
  2 29  2  3
 29 30  1  0
 30 31  1  0
 31 32  1  0
 31 33  2  0
 33 34  1  0
 33 35  1  0
 35 36  2  0
 36 37  1  0
 37 38  1  0
 38 39  2  0
 39 40  1  0
 39 41  1  0
 41 42  1  0
 41 43  2  0
 43 44  1  0
 43 45  1  0
 45 46  1  0
 45 47  2  0
 47 48  1  0
 48 49  1  0
 49 50  1  0
 49 51  1  0
 49 52  1  0
 48 53  1  0
 53 54  1  0
 53 55  1  0
 53 56  1  0
 56 57  1  0
 56 58  1  0
 36 59  1  0
 59 60  1  0
 59 61  1  0
 59 62  1  0
 35 63  1  0
 63 64  2  0
 63 65  1  0
 65 66  2  0
 27  3  1  0
 65 29  1  0
 22  9  1  0
 56 37  1  0
 47 38  1  0
M  CHG  1  30  -1
M  END
>  <UniqueID>  (38) 
37

>  <SMILES>  (38) 
C/C(=c1\cc[n-]c(=Cc2ccc(N3CCS(=O)(=O)CC3)cc2)c(=O)c1=O)N1CCN(C)c2ccccc21

>  <Energy>  (38) 
131.1327580025028

>  <Genealogy>  (38) 
CC(=c1cc[n-]c(=Cc2ccc(N3CCS(=O)(=O)CC3)cc2)c(=O)c1=O)N1CCN(C)c2ccccc21 (protonated)
C/C(=c1\cc[n-]c(=Cc2ccc(N3CCS(=O)(=O)CC3)cc2)c(=O)c1=O)N1CCN(C)c2ccccc21 (cis-trans isomerization)
C/C(=c1\cc[n-]c(=Cc2ccc(N3CCS(=O)(=O)CC3)cc2)c(=O)c1=O)N1CCN(C)c2ccccc21 (3D coordinates assigned)
C/C(=c1\cc[n-]c(=Cc2ccc(N3CCS(=O)(=O)CC3)cc2)c(=O)c1=O)N1CCN(C)c2ccccc21 (nonaromatic ring conformer: 131.1327580025028 kcal/mol)

>  <smiles>  (38) 
CC(=c1cc[nH]c(=Cc2ccc(N3CCS(=O)(=O)CC3)cc2)c(=O)c1=O)N1CCN(C)c2ccccc21

>  <score_type>  (38) 
oracle

>  <origin>  (38) 
adgpu

>  <m_score__min__energy>  (38) 
-8.5600000000000005

>  <m_primary>  (38) 
energy

$$$$
38:0
     RDKit          3D

 52 55  0  0  0  0  0  0  0  0999 V2000
   -1.5860   23.2430  -30.9750 H   0  0  0  0  0  0  0  0  0  0  0  0
   -2.3610   22.9840  -31.5760 O   0  0  0  0  0  0  0  0  0  0  0  0
   -3.6770   22.9080  -31.1100 C   0  0  0  0  0  0  0  0  0  0  0  0
   -4.1690   23.8520  -30.1870 C   0  0  0  0  0  0  0  0  0  0  0  0
   -3.3350   24.9290  -29.7370 N   0  0  0  0  0  0  0  0  0  0  0  0
   -2.2660   24.8660  -28.9870 C   0  0  0  0  0  0  0  0  0  0  0  0
   -1.7020   26.0430  -28.5970 N   0  0  0  0  0  0  0  0  0  0  0  0
   -0.5920   26.0910  -27.8190 C   0  0  0  0  0  0  0  0  0  0  0  0
   -0.0460   27.3190  -27.4270 C   0  0  0  0  0  0  0  0  0  0  0  0
   -0.5175   28.2596  -27.7479 H   0  0  0  0  0  0  0  0  0  0  0  0
    1.1010   27.3470  -26.6260 C   0  0  0  0  0  0  0  0  0  0  0  0
    1.5319   28.3109  -26.3172 H   0  0  0  0  0  0  0  0  0  0  0  0
    1.7010   26.1500  -26.2170 C   0  0  0  0  0  0  0  0  0  0  0  0
    2.6013   26.1758  -25.5855 H   0  0  0  0  0  0  0  0  0  0  0  0
    1.1590   24.9210  -26.6090 C   0  0  0  0  0  0  0  0  0  0  0  0
    1.6340   23.9817  -26.2894 H   0  0  0  0  0  0  0  0  0  0  0  0
    0.0120   24.8900  -27.4080 C   0  0  0  0  0  0  0  0  0  0  0  0
   -0.5230   23.7110  -27.8080 N   0  0  0  0  0  0  0  0  0  0  0  0
   -1.6430   23.6480  -28.5810 C   0  0  0  0  0  0  0  0  0  0  0  0
   -2.0790   22.4980  -29.0090 N   0  0  0  0  0  0  0  0  0  0  0  0
   -1.5840   21.1890  -28.6830 C   0  0  0  0  0  0  0  0  0  0  0  0
   -0.7050   20.4850  -29.5260 C   0  0  0  0  0  0  0  0  0  0  0  0
   -0.3909   20.9277  -30.4827 H   0  0  0  0  0  0  0  0  0  0  0  0
   -0.2290   19.2240  -29.1520 C   0  0  0  0  0  0  0  0  0  0  0  0
    0.4387   18.6687  -29.8271 H   0  0  0  0  0  0  0  0  0  0  0  0
   -0.5990   18.6640  -27.9200 C   0  0  0  0  0  0  0  0  0  0  0  0
   -0.1110   17.2970  -27.5410 C   0  0  0  0  0  0  0  0  0  0  0  0
   -0.0798   17.2096  -26.4449 H   0  0  0  0  0  0  0  0  0  0  0  0
   -0.7935   16.5375  -27.9501 H   0  0  0  0  0  0  0  0  0  0  0  0
    0.8982   17.1415  -27.9501 H   0  0  0  0  0  0  0  0  0  0  0  0
   -1.4560   19.3790  -27.0690 C   0  0  0  0  0  0  0  0  0  0  0  0
   -1.7547   18.9460  -26.1029 H   0  0  0  0  0  0  0  0  0  0  0  0
   -1.9310   20.6370  -27.4430 C   0  0  0  0  0  0  0  0  0  0  0  0
   -2.5831   21.1996  -26.7586 H   0  0  0  0  0  0  0  0  0  0  0  0
   -5.5000   23.7720  -29.7500 C   0  0  0  0  0  0  0  0  0  0  0  0
   -5.8927   24.5243  -29.0502 H   0  0  0  0  0  0  0  0  0  0  0  0
   -6.3270   22.7430  -30.1990 C   0  0  0  0  0  0  0  0  0  0  0  0
   -7.3671   22.6808  -29.8464 H   0  0  0  0  0  0  0  0  0  0  0  0
   -5.8370   21.7920  -31.0950 C   0  0  0  0  0  0  0  0  0  0  0  0
   -6.4945   20.9828  -31.4457 H   0  0  0  0  0  0  0  0  0  0  0  0
   -4.5120   21.8600  -31.5520 C   0  0  0  0  0  0  0  0  0  0  0  0
   -4.0190   20.8610  -32.5230 C   0  0  0  0  0  0  0  0  0  0  0  0
   -2.9860   21.1270  -33.1970 O   0  0  0  0  0  0  0  0  0  0  0  0
   -4.6910   19.5990  -32.7170 N   0  0  0  0  0  0  0  0  0  0  0  0
   -5.4810   19.0020  -31.6330 C   0  0  0  0  0  0  0  0  0  0  0  0
   -5.0674   19.3146  -30.6628 H   0  0  0  0  0  0  0  0  0  0  0  0
   -6.5252   19.3386  -31.7120 H   0  0  0  0  0  0  0  0  0  0  0  0
   -5.4422   17.9055  -31.7120 H   0  0  0  0  0  0  0  0  0  0  0  0
   -4.4680   18.8560  -33.9600 C   0  0  0  0  0  0  0  0  0  0  0  0
   -4.1593   17.8274  -33.7220 H   0  0  0  0  0  0  0  0  0  0  0  0
   -5.3989   18.8332  -34.5456 H   0  0  0  0  0  0  0  0  0  0  0  0
   -3.6784   19.3496  -34.5456 H   0  0  0  0  0  0  0  0  0  0  0  0
  1  2  1  0
  2  3  1  0
  3  4  2  0
  4  5  1  0
  5  6  2  0
  6  7  1  0
  7  8  1  0
  8  9  2  0
  9 10  1  0
  9 11  1  0
 11 12  1  0
 11 13  2  0
 13 14  1  0
 13 15  1  0
 15 16  1  0
 15 17  2  0
 17 18  1  0
 18 19  1  0
 19 20  2  3
 20 21  1  0
 21 22  2  0
 22 23  1  0
 22 24  1  0
 24 25  1  0
 24 26  2  0
 26 27  1  0
 27 28  1  0
 27 29  1  0
 27 30  1  0
 26 31  1  0
 31 32  1  0
 31 33  2  0
 33 34  1  0
  4 35  1  0
 35 36  1  0
 35 37  2  0
 37 38  1  0
 37 39  1  0
 39 40  1  0
 39 41  2  0
 41 42  1  0
 42 43  2  0
 42 44  1  0
 44 45  1  0
 45 46  1  0
 45 47  1  0
 45 48  1  0
 44 49  1  0
 49 50  1  0
 49 51  1  0
 49 52  1  0
 41  3  1  0
 19  6  1  0
 33 21  1  0
 17  8  1  0
M  CHG  2   7  -1  18  -1
M  END
>  <UniqueID>  (39) 
38

>  <SMILES>  (39) 
Cc1ccc(N=c2[n-]c3ccccc3[n-]/c2=N/c2cccc(C(=O)N(C)C)c2O)cc1

>  <Energy>  (39) 
82.40379201590999

>  <Genealogy>  (39) 
Cc1ccc(N=c2[n-]c3ccccc3[n-]c2=Nc2cccc(C(=O)N(C)C)c2O)cc1 (protonated)
Cc1ccc(N=c2[n-]c3ccccc3[n-]/c2=N/c2cccc(C(=O)N(C)C)c2O)cc1 (cis-trans isomerization)
Cc1ccc(N=c2[n-]c3ccccc3[n-]/c2=N/c2cccc(C(=O)N(C)C)c2O)cc1 (3D coordinates assigned)
Cc1ccc(N=c2[n-]c3ccccc3[n-]/c2=N/c2cccc(C(=O)N(C)C)c2O)cc1 (optimized conformer: 82.40379201590999 kcal/mol)

>  <smiles>  (39) 
Cc1ccc(N=c2[nH]c3ccccc3[nH]c2=Nc2cccc(C(=O)N(C)C)c2O)cc1

>  <score_type>  (39) 
oracle

>  <origin>  (39) 
adgpu

>  <m_score__min__energy>  (39) 
-10.19

>  <m_primary>  (39) 
energy

$$$$
39:0
     RDKit          3D

 48 51  0  0  0  0  0  0  0  0999 V2000
   -1.0747   20.6091  -30.5470 H   0  0  0  0  0  0  0  0  0  0  0  0
   -1.5500   21.5980  -30.4680 C   0  0  0  0  0  0  0  0  0  0  0  0
   -0.9770   22.5830  -29.6580 C   0  0  0  0  0  0  0  0  0  0  0  0
   -0.0485   22.3650  -29.1100 H   0  0  0  0  0  0  0  0  0  0  0  0
   -1.5750   23.8480  -29.5370 C   0  0  0  0  0  0  0  0  0  0  0  0
   -0.9370   24.8730  -28.6790 C   0  0  0  0  0  0  0  0  0  0  0  0
    0.2010   24.6500  -28.1840 O   0  0  0  0  0  0  0  0  0  0  0  0
   -1.5680   26.1310  -28.4300 N   0  0  0  0  0  0  0  0  0  0  0  0
   -1.1280   26.8160  -27.7750 H   0  0  0  0  0  0  0  0  0  0  0  0
   -2.4150   26.4260  -28.9620 H   0  0  0  0  0  0  0  0  0  0  0  0
   -2.7920   24.0950  -30.2080 C   0  0  0  0  0  0  0  0  0  0  0  0
   -3.4640   25.3030  -30.0530 O   0  0  0  0  0  0  0  0  0  0  0  0
   -3.3570   23.1070  -31.0220 C   0  0  0  0  0  0  0  0  0  0  0  0
   -4.3049   23.3085  -31.5425 H   0  0  0  0  0  0  0  0  0  0  0  0
   -2.7310   21.8660  -31.1820 C   0  0  0  0  0  0  0  0  0  0  0  0
   -3.3700   20.8730  -32.0010 N   0  0  0  0  0  0  0  0  0  0  0  0
   -4.6500   20.7230  -32.1960 C   0  0  0  0  0  0  0  0  0  0  0  0
   -5.5570   21.4920  -31.5280 N   0  0  0  0  0  0  0  0  0  0  0  0
   -6.8930   21.3300  -31.7020 C   0  0  0  0  0  0  0  0  0  0  0  0
   -7.8070   22.1340  -31.0120 C   0  0  0  0  0  0  0  0  0  0  0  0
   -7.4465   22.9096  -30.3203 H   0  0  0  0  0  0  0  0  0  0  0  0
   -9.1810   21.9490  -31.2040 C   0  0  0  0  0  0  0  0  0  0  0  0
   -9.9004   22.5806  -30.6623 H   0  0  0  0  0  0  0  0  0  0  0  0
   -9.6420   20.9630  -32.0830 C   0  0  0  0  0  0  0  0  0  0  0  0
  -10.7229   20.8215  -32.2300 H   0  0  0  0  0  0  0  0  0  0  0  0
   -8.7320   20.1560  -32.7760 C   0  0  0  0  0  0  0  0  0  0  0  0
   -9.0962   19.3813  -33.4669 H   0  0  0  0  0  0  0  0  0  0  0  0
   -7.3580   20.3380  -32.5870 C   0  0  0  0  0  0  0  0  0  0  0  0
   -6.4590   19.5640  -33.2450 N   0  0  0  0  0  0  0  0  0  0  0  0
   -5.1170   19.7230  -33.0730 C   0  0  0  0  0  0  0  0  0  0  0  0
   -4.2720   18.9590  -33.7060 N   0  0  0  0  0  0  0  0  0  0  0  0
   -4.6440   17.8840  -34.6260 C   0  0  0  0  0  0  0  0  0  0  0  0
   -3.9396   17.8710  -35.4708 H   0  0  0  0  0  0  0  0  0  0  0  0
   -5.6673   18.0640  -34.9872 H   0  0  0  0  0  0  0  0  0  0  0  0
   -4.6030   16.5520  -33.9270 C   0  0  0  0  0  0  0  0  0  0  0  0
   -4.9880   16.4530  -32.5810 C   0  0  0  0  0  0  0  0  0  0  0  0
   -5.2996   17.3550  -32.0339 H   0  0  0  0  0  0  0  0  0  0  0  0
   -4.9780   15.2150  -31.9310 C   0  0  0  0  0  0  0  0  0  0  0  0
   -5.2751   15.1483  -30.8740 H   0  0  0  0  0  0  0  0  0  0  0  0
   -4.5900   14.0570  -32.6230 C   0  0  0  0  0  0  0  0  0  0  0  0
   -4.5660   12.7240  -31.9370 C   0  0  0  0  0  0  0  0  0  0  0  0
   -4.5687   12.8724  -30.8471 H   0  0  0  0  0  0  0  0  0  0  0  0
   -5.4539   12.1446  -32.2303 H   0  0  0  0  0  0  0  0  0  0  0  0
   -3.6579   12.1770  -32.2303 H   0  0  0  0  0  0  0  0  0  0  0  0
   -4.2030   14.1560  -33.9680 C   0  0  0  0  0  0  0  0  0  0  0  0
   -3.8915   13.2540  -34.5152 H   0  0  0  0  0  0  0  0  0  0  0  0
   -4.2110   15.3930  -34.6160 C   0  0  0  0  0  0  0  0  0  0  0  0
   -3.9087   15.4598  -35.6715 H   0  0  0  0  0  0  0  0  0  0  0  0
  1  2  1  0
  2  3  2  0
  3  4  1  0
  3  5  1  0
  5  6  1  0
  6  7  2  0
  6  8  1  0
  8  9  1  0
  8 10  1  0
  5 11  2  0
 11 12  1  0
 11 13  1  0
 13 14  1  0
 13 15  2  0
 15 16  1  0
 16 17  2  0
 17 18  1  0
 18 19  1  0
 19 20  2  0
 20 21  1  0
 20 22  1  0
 22 23  1  0
 22 24  2  0
 24 25  1  0
 24 26  1  0
 26 27  1  0
 26 28  2  0
 28 29  1  0
 29 30  1  0
 30 31  2  0
 31 32  1  0
 32 33  1  0
 32 34  1  0
 32 35  1  0
 35 36  2  0
 36 37  1  0
 36 38  1  0
 38 39  1  0
 38 40  2  0
 40 41  1  0
 41 42  1  0
 41 43  1  0
 41 44  1  0
 40 45  1  0
 45 46  1  0
 45 47  2  0
 47 48  1  0
 15  2  1  0
 30 17  1  0
 47 35  1  0
 28 19  1  0
M  CHG  3  12  -1  18  -1  29  -1
M  END
>  <UniqueID>  (40) 
39

>  <SMILES>  (40) 
Cc1ccc(C/N=c2\[n-]c3ccccc3[n-]\c2=N/c2ccc(C(N)=O)c([O-])c2)cc1

>  <Energy>  (40) 
64.84280516120428

>  <Genealogy>  (40) 
Cc1ccc(CN=c2[n-]c3ccccc3[n-]c2=Nc2ccc(C(N)=O)c([O-])c2)cc1 (protonated)
Cc1ccc(C/N=c2\[n-]c3ccccc3[n-]\c2=N/c2ccc(C(N)=O)c([O-])c2)cc1 (cis-trans isomerization)
Cc1ccc(C/N=c2\[n-]c3ccccc3[n-]\c2=N/c2ccc(C(N)=O)c([O-])c2)cc1 (3D coordinates assigned)
Cc1ccc(C/N=c2\[n-]c3ccccc3[n-]\c2=N/c2ccc(C(N)=O)c([O-])c2)cc1 (optimized conformer: 64.84280516120428 kcal/mol)

>  <smiles>  (40) 
Cc1ccc(CN=c2[nH]c3ccccc3[nH]c2=Nc2ccc(C(N)=O)c(O)c2)cc1

>  <score_type>  (40) 
oracle

>  <origin>  (40) 
adgpu

>  <m_score__min__energy>  (40) 
-12.460000000000001

>  <m_primary>  (40) 
energy

$$$$
40:0
     RDKit          3D

 48 51  0  0  0  0  0  0  0  0999 V2000
    0.3870   24.1690  -28.7720 O   0  0  0  0  0  0  0  0  0  0  0  0
   -0.6690   24.7690  -28.4350 C   0  0  0  0  0  0  0  0  0  0  0  0
   -0.6130   26.1450  -28.0350 N   0  0  0  0  0  0  0  0  0  0  0  0
   -0.2680   26.6350  -26.7300 C   0  0  0  0  0  0  0  0  0  0  0  0
   -1.0220   26.3030  -25.5880 C   0  0  0  0  0  0  0  0  0  0  0  0
   -0.6790   26.8310  -24.3390 C   0  0  0  0  0  0  0  0  0  0  0  0
    0.4130   27.6990  -24.2180 C   0  0  0  0  0  0  0  0  0  0  0  0
    0.7620   28.2350  -22.9800 O   0  0  0  0  0  0  0  0  0  0  0  0
    1.1590   28.0390  -25.3540 C   0  0  0  0  0  0  0  0  0  0  0  0
    0.8110   27.5180  -26.6050 C   0  0  0  0  0  0  0  0  0  0  0  0
   -1.9710   24.0660  -28.5080 C   0  0  0  0  0  0  0  0  0  0  0  0
   -2.2170   22.9270  -27.7210 C   0  0  0  0  0  0  0  0  0  0  0  0
   -3.4530   22.2760  -27.7840 C   0  0  0  0  0  0  0  0  0  0  0  0
   -4.4580   22.7580  -28.6240 C   0  0  0  0  0  0  0  0  0  0  0  0
   -4.2350   23.8960  -29.4080 C   0  0  0  0  0  0  0  0  0  0  0  0
   -5.5310   24.5630  -30.4040 S   0  0  0  0  0  0  0  0  0  0  0  0
   -6.8550   24.2850  -29.7480 O   0  0  0  0  0  0  0  0  0  0  0  0
   -5.3690   26.0540  -30.5040 O   0  0  0  0  0  0  0  0  0  0  0  0
   -5.5240   23.8500  -32.0040 N   0  0  0  0  0  0  0  0  0  0  0  0
   -4.7140   22.5980  -32.0430 C   0  0  0  0  0  0  0  0  0  0  0  0
   -5.4080   21.4020  -32.7170 C   0  0  0  0  0  0  0  0  0  0  0  0
   -6.8200   21.2950  -32.2300 C   0  0  0  0  0  0  0  0  0  0  0  0
   -7.3980   20.0670  -31.8740 C   0  0  0  0  0  0  0  0  0  0  0  0
   -8.7290   20.0230  -31.4420 C   0  0  0  0  0  0  0  0  0  0  0  0
   -9.4890   21.1980  -31.3880 C   0  0  0  0  0  0  0  0  0  0  0  0
   -8.9170   22.4200  -31.7600 C   0  0  0  0  0  0  0  0  0  0  0  0
   -7.5730   22.4700  -32.1600 C   0  0  0  0  0  0  0  0  0  0  0  0
   -6.9010   23.7590  -32.5490 C   0  0  0  0  0  0  0  0  0  0  0  0
   -2.9880   24.5370  -29.3600 C   0  0  0  0  0  0  0  0  0  0  0  0
   -1.8841   25.6258  -25.6785 H   0  0  0  0  0  0  0  0  0  0  0  0
   -1.2686   26.5637  -23.4496 H   0  0  0  0  0  0  0  0  0  0  0  0
    0.2920   29.0510  -22.6040 H   0  0  0  0  0  0  0  0  0  0  0  0
    2.0203   28.7171  -25.2622 H   0  0  0  0  0  0  0  0  0  0  0  0
    1.3890   27.8041  -27.4961 H   0  0  0  0  0  0  0  0  0  0  0  0
   -1.4320   22.5456  -27.0514 H   0  0  0  0  0  0  0  0  0  0  0  0
   -3.6337   21.3815  -27.1698 H   0  0  0  0  0  0  0  0  0  0  0  0
   -5.4284   22.2420  -28.6701 H   0  0  0  0  0  0  0  0  0  0  0  0
   -3.7846   22.8086  -32.5924 H   0  0  0  0  0  0  0  0  0  0  0  0
   -4.5426   22.3071  -30.9961 H   0  0  0  0  0  0  0  0  0  0  0  0
   -5.4077   21.5466  -33.8075 H   0  0  0  0  0  0  0  0  0  0  0  0
   -4.8659   20.4784  -32.4656 H   0  0  0  0  0  0  0  0  0  0  0  0
   -6.8069   19.1413  -31.9342 H   0  0  0  0  0  0  0  0  0  0  0  0
   -9.1784   19.0641  -31.1446 H   0  0  0  0  0  0  0  0  0  0  0  0
  -10.5361   21.1605  -31.0530 H   0  0  0  0  0  0  0  0  0  0  0  0
   -9.5201   23.3397  -31.7388 H   0  0  0  0  0  0  0  0  0  0  0  0
   -6.8541   23.8188  -33.6464 H   0  0  0  0  0  0  0  0  0  0  0  0
   -7.4889   24.5900  -32.1320 H   0  0  0  0  0  0  0  0  0  0  0  0
   -2.8030   25.4164  -29.9944 H   0  0  0  0  0  0  0  0  0  0  0  0
  1  2  2  0
  2  3  1  0
  3  4  1  0
  4  5  2  0
  5  6  1  0
  6  7  2  0
  7  8  1  0
  7  9  1  0
  9 10  2  0
  2 11  1  0
 11 12  2  0
 12 13  1  0
 13 14  2  0
 14 15  1  0
 15 16  1  0
 16 17  2  0
 16 18  2  0
 16 19  1  0
 19 20  1  0
 20 21  1  0
 21 22  1  0
 22 23  2  0
 23 24  1  0
 24 25  2  0
 25 26  1  0
 26 27  2  0
 27 28  1  0
 15 29  2  0
 10  4  1  0
 29 11  1  0
 28 19  1  0
 27 22  1  0
  5 30  1  0
  6 31  1  0
  8 32  1  0
  9 33  1  0
 10 34  1  0
 12 35  1  0
 13 36  1  0
 14 37  1  0
 20 38  1  0
 20 39  1  0
 21 40  1  0
 21 41  1  0
 23 42  1  0
 24 43  1  0
 25 44  1  0
 26 45  1  0
 28 46  1  0
 28 47  1  0
 29 48  1  0
M  CHG  1   3  -1
M  END
>  <UniqueID>  (41) 
40

>  <SMILES>  (41) 
O=C([N-]c1ccc(O)cc1)c1cccc(S(=O)(=O)N2CCc3ccccc3C2)c1

>  <Energy>  (41) 
62.703057549102404

>  <Genealogy>  (41) 
O=C([N-]c1ccc(O)cc1)c1cccc(S(=O)(=O)N2CCc3ccccc3C2)c1 (protonated)
O=C([N-]c1ccc(O)cc1)c1cccc(S(=O)(=O)N2CCc3ccccc3C2)c1 (3D coordinates assigned)
O=C([N-]c1ccc(O)cc1)c1cccc(S(=O)(=O)N2CCc3ccccc3C2)c1 (nonaromatic ring conformer: 62.703057549102404 kcal/mol)

>  <smiles>  (41) 
O=C(Nc1ccc(O)cc1)c1cccc(S(=O)(=O)N2CCc3ccccc3C2)c1

>  <score_type>  (41) 
oracle

>  <origin>  (41) 
adgpu

>  <m_score__min__energy>  (41) 
-11.109999999999999

>  <m_primary>  (41) 
energy

$$$$
41:0
     RDKit          3D

 32 33  0  0  0  0  0  0  0  0999 V2000
   -1.8450   25.6770  -28.9890 O   0  0  0  0  0  0  0  0  0  0  0  0
   -2.3910   24.4770  -29.4280 C   0  0  0  0  0  0  0  0  0  0  0  0
   -1.8970   23.2680  -28.9330 C   0  0  0  0  0  0  0  0  0  0  0  0
   -2.4340   22.0580  -29.3730 C   0  0  0  0  0  0  0  0  0  0  0  0
   -3.4640   22.0390  -30.3300 C   0  0  0  0  0  0  0  0  0  0  0  0
   -3.9970   20.7110  -30.8220 C   0  0  0  0  0  0  0  0  0  0  0  0
   -4.1890   20.6660  -32.3500 C   0  0  0  0  0  0  0  0  0  0  0  0
   -5.1080   19.5290  -32.8370 C   0  0  0  0  0  0  0  0  0  0  0  0
   -6.5730   19.7910  -32.5740 C   0  0  0  0  0  0  0  0  0  0  0  0
   -7.0310   21.0950  -32.3180 C   0  0  0  0  0  0  0  0  0  0  0  0
   -8.3820   21.3270  -32.0470 C   0  0  0  0  0  0  0  0  0  0  0  0
   -9.2900   20.2660  -32.0490 C   0  0  0  0  0  0  0  0  0  0  0  0
   -8.8490   18.9710  -32.3330 C   0  0  0  0  0  0  0  0  0  0  0  0
   -7.4990   18.7330  -32.6040 C   0  0  0  0  0  0  0  0  0  0  0  0
   -3.9790   23.2620  -30.8130 C   0  0  0  0  0  0  0  0  0  0  0  0
   -5.0200   23.2620  -31.7440 O   0  0  0  0  0  0  0  0  0  0  0  0
   -3.4340   24.4780  -30.3620 C   0  0  0  0  0  0  0  0  0  0  0  0
   -3.9210   25.6880  -30.8420 O   0  0  0  0  0  0  0  0  0  0  0  0
   -1.0822   23.2699  -28.1941 H   0  0  0  0  0  0  0  0  0  0  0  0
   -2.0484   21.1108  -28.9679 H   0  0  0  0  0  0  0  0  0  0  0  0
   -3.2876   19.9209  -30.5348 H   0  0  0  0  0  0  0  0  0  0  0  0
   -4.9855   20.5636  -30.3625 H   0  0  0  0  0  0  0  0  0  0  0  0
   -4.6246   21.6235  -32.6715 H   0  0  0  0  0  0  0  0  0  0  0  0
   -3.1972   20.4810  -32.7883 H   0  0  0  0  0  0  0  0  0  0  0  0
   -4.9646   19.4038  -33.9204 H   0  0  0  0  0  0  0  0  0  0  0  0
   -4.8327   18.6241  -32.2755 H   0  0  0  0  0  0  0  0  0  0  0  0
   -6.3228   21.9366  -32.3311 H   0  0  0  0  0  0  0  0  0  0  0  0
   -8.7311   22.3477  -31.8316 H   0  0  0  0  0  0  0  0  0  0  0  0
  -10.3516   20.4497  -31.8271 H   0  0  0  0  0  0  0  0  0  0  0  0
   -9.5661   18.1370  -32.3433 H   0  0  0  0  0  0  0  0  0  0  0  0
   -7.1593   17.7141  -32.8417 H   0  0  0  0  0  0  0  0  0  0  0  0
   -5.4210   24.1190  -32.1060 H   0  0  0  0  0  0  0  0  0  0  0  0
  1  2  1  0
  2  3  2  0
  3  4  1  0
  4  5  2  0
  5  6  1  0
  6  7  1  0
  7  8  1  0
  8  9  1  0
  9 10  2  0
 10 11  1  0
 11 12  2  0
 12 13  1  0
 13 14  2  0
  5 15  1  0
 15 16  1  0
 15 17  2  0
 17 18  1  0
 17  2  1  0
 14  9  1  0
  3 19  1  0
  4 20  1  0
  6 21  1  0
  6 22  1  0
  7 23  1  0
  7 24  1  0
  8 25  1  0
  8 26  1  0
 10 27  1  0
 11 28  1  0
 12 29  1  0
 13 30  1  0
 14 31  1  0
 16 32  1  0
M  CHG  2   1  -1  18  -1
M  END
>  <UniqueID>  (42) 
41

>  <SMILES>  (42) 
[O-]c1ccc(CCCc2ccccc2)c(O)c1[O-]

>  <Energy>  (42) 
28.346988249566202

>  <Genealogy>  (42) 
[O-]c1ccc(CCCc2ccccc2)c(O)c1[O-] (protonated)
[O-]c1ccc(CCCc2ccccc2)c(O)c1[O-] (3D coordinates assigned)
[O-]c1ccc(CCCc2ccccc2)c(O)c1[O-] (optimized conformer: 28.346988249566202 kcal/mol)

>  <smiles>  (42) 
Oc1ccc(CCCc2ccccc2)c(O)c1O

>  <score_type>  (42) 
oracle

>  <origin>  (42) 
adgpu

>  <m_score__min__energy>  (42) 
-12.15

>  <m_primary>  (42) 
energy

$$$$
42:0
     RDKit          3D

 63 66  0  0  0  0  0  0  0  0999 V2000
   -2.9260   18.4330  -33.4000 C   0  0  0  0  0  0  0  0  0  0  0  0
   -3.1210   19.9310  -33.6870 C   0  0  0  0  0  0  0  0  0  0  0  0
   -4.3980   20.4580  -33.0040 C   0  0  0  0  0  0  0  0  0  0  0  0
   -4.2420   20.5070  -31.4780 C   0  0  0  0  0  0  0  0  0  0  0  0
   -2.9400   21.0680  -31.0840 N   0  0  0  0  0  0  0  0  0  0  0  0
   -2.7610   21.3820  -29.6950 C   0  0  0  0  0  0  0  0  0  0  0  0
   -2.7850   20.3450  -28.7500 C   0  0  0  0  0  0  0  0  0  0  0  0
   -2.4240   20.5910  -27.4190 C   0  0  0  0  0  0  0  0  0  0  0  0
   -2.5020   19.3000  -26.2230 S   0  0  0  0  0  0  0  0  0  0  0  0
   -4.1360   18.7660  -26.0360 N   0  0  0  0  0  0  0  0  0  0  0  0
   -1.9820   19.8050  -24.9050 O   0  0  0  0  0  0  0  0  0  0  0  0
   -1.6520   18.1400  -26.6590 O   0  0  0  0  0  0  0  0  0  0  0  0
   -1.9970   21.8690  -27.0430 C   0  0  0  0  0  0  0  0  0  0  0  0
   -1.9880   22.9120  -27.9750 C   0  0  0  0  0  0  0  0  0  0  0  0
   -2.4110   22.6860  -29.2910 C   0  0  0  0  0  0  0  0  0  0  0  0
   -2.5800   23.8070  -30.1720 N   0  0  0  0  0  0  0  0  0  0  0  0
   -3.8440   24.4210  -30.4560 C   0  0  0  0  0  0  0  0  0  0  0  0
   -3.9160   25.6740  -30.4600 O   0  0  0  0  0  0  0  0  0  0  0  0
   -5.0580   23.6140  -30.7540 C   0  0  0  0  0  0  0  0  0  0  0  0
   -5.5580   23.5270  -32.0650 C   0  0  0  0  0  0  0  0  0  0  0  0
   -6.7660   22.8780  -32.3190 C   0  0  0  0  0  0  0  0  0  0  0  0
   -7.4920   22.3010  -31.2680 C   0  0  0  0  0  0  0  0  0  0  0  0
   -9.1090   21.6480  -31.5640 S   0  0  0  0  0  0  0  0  0  0  0  0
   -9.8550   21.5710  -30.2620 O   0  0  0  0  0  0  0  0  0  0  0  0
   -9.8590   22.5790  -32.4780 O   0  0  0  0  0  0  0  0  0  0  0  0
   -9.0560   20.0530  -32.2850 N   0  0  0  0  0  0  0  0  0  0  0  0
   -7.8900   19.8790  -33.1570 C   0  0  0  0  0  0  0  0  0  0  0  0
   -7.3430   18.4720  -32.9310 C   0  0  0  0  0  0  0  0  0  0  0  0
   -8.2640   17.8310  -31.9130 C   0  0  0  0  0  0  0  0  0  0  0  0
   -8.9870   18.9970  -31.2720 C   0  0  0  0  0  0  0  0  0  0  0  0
   -6.9410   22.2860  -29.9790 C   0  0  0  0  0  0  0  0  0  0  0  0
   -5.7190   22.9200  -29.7290 C   0  0  0  0  0  0  0  0  0  0  0  0
   -2.0730   21.6940  -32.0880 C   0  0  0  0  0  0  0  0  0  0  0  0
   -1.8640   20.7560  -33.2930 C   0  0  0  0  0  0  0  0  0  0  0  0
   -2.9045   18.2677  -32.3127 H   0  0  0  0  0  0  0  0  0  0  0  0
   -3.7576   17.8639  -33.8410 H   0  0  0  0  0  0  0  0  0  0  0  0
   -1.9764   18.0958  -33.8410 H   0  0  0  0  0  0  0  0  0  0  0  0
   -3.2523   20.0556  -34.7720 H   0  0  0  0  0  0  0  0  0  0  0  0
   -4.6086   21.4722  -33.3743 H   0  0  0  0  0  0  0  0  0  0  0  0
   -5.2248   19.7733  -33.2440 H   0  0  0  0  0  0  0  0  0  0  0  0
   -5.0425   21.1333  -31.0573 H   0  0  0  0  0  0  0  0  0  0  0  0
   -4.3041   19.4785  -31.0928 H   0  0  0  0  0  0  0  0  0  0  0  0
   -3.0890   19.3331  -29.0561 H   0  0  0  0  0  0  0  0  0  0  0  0
   -4.7540   19.5860  -26.2460 H   0  0  0  0  0  0  0  0  0  0  0  0
   -4.2770   18.5330  -25.0240 H   0  0  0  0  0  0  0  0  0  0  0  0
   -1.6670   22.0545  -26.0102 H   0  0  0  0  0  0  0  0  0  0  0  0
   -1.6474   23.9135  -27.6733 H   0  0  0  0  0  0  0  0  0  0  0  0
   -4.9926   23.9738  -32.8961 H   0  0  0  0  0  0  0  0  0  0  0  0
   -7.1504   22.8187  -33.3479 H   0  0  0  0  0  0  0  0  0  0  0  0
   -8.1882   19.9999  -34.2089 H   0  0  0  0  0  0  0  0  0  0  0  0
   -7.1217   20.6313  -32.9253 H   0  0  0  0  0  0  0  0  0  0  0  0
   -7.3541   17.9009  -33.8711 H   0  0  0  0  0  0  0  0  0  0  0  0
   -6.3014   18.4939  -32.5781 H   0  0  0  0  0  0  0  0  0  0  0  0
   -8.9774   17.1539  -32.4055 H   0  0  0  0  0  0  0  0  0  0  0  0
   -7.7173   17.2216  -31.1783 H   0  0  0  0  0  0  0  0  0  0  0  0
  -10.0003   18.6951  -30.9685 H   0  0  0  0  0  0  0  0  0  0  0  0
   -8.4599   19.3445  -30.3712 H   0  0  0  0  0  0  0  0  0  0  0  0
   -7.4708   21.7744  -29.1619 H   0  0  0  0  0  0  0  0  0  0  0  0
   -5.2742   22.8742  -28.7240 H   0  0  0  0  0  0  0  0  0  0  0  0
   -2.5391   22.6281  -32.4348 H   0  0  0  0  0  0  0  0  0  0  0  0
   -1.0950   21.9011  -31.6290 H   0  0  0  0  0  0  0  0  0  0  0  0
   -1.5681   21.3674  -34.1582 H   0  0  0  0  0  0  0  0  0  0  0  0
   -1.0913   20.0310  -32.9975 H   0  0  0  0  0  0  0  0  0  0  0  0
  1  2  1  0
  2  3  1  0
  3  4  1  0
  4  5  1  0
  5  6  1  0
  6  7  2  0
  7  8  1  0
  8  9  1  0
  9 10  1  0
  9 11  2  0
  9 12  2  0
  8 13  2  0
 13 14  1  0
 14 15  2  0
 15 16  1  0
 16 17  1  0
 17 18  2  0
 17 19  1  0
 19 20  2  0
 20 21  1  0
 21 22  2  0
 22 23  1  0
 23 24  2  0
 23 25  2  0
 23 26  1  0
 26 27  1  0
 27 28  1  0
 28 29  1  0
 29 30  1  0
 22 31  1  0
 31 32  2  0
  5 33  1  0
 33 34  1  0
 34  2  1  0
 15  6  1  0
 32 19  1  0
 30 26  1  0
  1 35  1  0
  1 36  1  0
  1 37  1  0
  2 38  1  0
  3 39  1  0
  3 40  1  0
  4 41  1  0
  4 42  1  0
  7 43  1  0
 10 44  1  0
 10 45  1  0
 13 46  1  0
 14 47  1  0
 20 48  1  0
 21 49  1  0
 27 50  1  0
 27 51  1  0
 28 52  1  0
 28 53  1  0
 29 54  1  0
 29 55  1  0
 30 56  1  0
 30 57  1  0
 31 58  1  0
 32 59  1  0
 33 60  1  0
 33 61  1  0
 34 62  1  0
 34 63  1  0
M  CHG  1  16  -1
M  END
>  <UniqueID>  (43) 
42

>  <SMILES>  (43) 
CC1CCN(c2cc(S(N)(=O)=O)ccc2[N-]C(=O)c2ccc(S(=O)(=O)N3CCCC3)cc2)CC1

>  <Energy>  (43) 
77.51069987982433

>  <Genealogy>  (43) 
CC1CCN(c2cc(S(N)(=O)=O)ccc2[N-]C(=O)c2ccc(S(=O)(=O)N3CCCC3)cc2)CC1 (protonated)
CC1CCN(c2cc(S(N)(=O)=O)ccc2[N-]C(=O)c2ccc(S(=O)(=O)N3CCCC3)cc2)CC1 (3D coordinates assigned)
CC1CCN(c2cc(S(N)(=O)=O)ccc2[N-]C(=O)c2ccc(S(=O)(=O)N3CCCC3)cc2)CC1 (nonaromatic ring conformer: 77.51069987982433 kcal/mol)

>  <smiles>  (43) 
CC1CCN(c2cc(S(N)(=O)=O)ccc2NC(=O)c2ccc(S(=O)(=O)N3CCCC3)cc2)CC1

>  <score_type>  (43) 
oracle

>  <origin>  (43) 
adgpu

>  <m_score__min__energy>  (43) 
-13.15

>  <m_primary>  (43) 
energy

$$$$
43:0
     RDKit          3D

 42 45  0  0  0  0  0  0  0  0999 V2000
   -1.5790   19.8010  -32.7690 O   0  0  0  0  0  0  0  0  0  0  0  0
   -2.7660   20.2230  -32.8080 C   0  0  0  0  0  0  0  0  0  0  0  0
   -3.1010   21.3990  -32.1370 C   0  0  0  0  0  0  0  0  0  0  0  0
   -4.4230   21.8680  -32.1890 C   0  0  0  0  0  0  0  0  0  0  0  0
   -4.8130   23.1100  -31.4850 C   0  0  0  0  0  0  0  0  0  0  0  0
   -3.8610   23.7730  -30.6890 C   0  0  0  0  0  0  0  0  0  0  0  0
   -4.2120   24.9100  -29.9610 C   0  0  0  0  0  0  0  0  0  0  0  0
   -5.5150   25.4010  -30.0190 C   0  0  0  0  0  0  0  0  0  0  0  0
   -6.4700   24.7620  -30.8100 C   0  0  0  0  0  0  0  0  0  0  0  0
   -6.1370   23.6100  -31.5490 C   0  0  0  0  0  0  0  0  0  0  0  0
   -7.1110   22.9960  -32.4170 N   0  0  0  0  0  0  0  0  0  0  0  0
   -8.4110   22.5060  -31.9570 C   0  0  0  0  0  0  0  0  0  0  0  0
   -8.4410   21.0040  -31.9940 C   0  0  0  0  0  0  0  0  0  0  0  0
   -7.4910   20.2670  -31.2680 C   0  0  0  0  0  0  0  0  0  0  0  0
   -7.5420   18.8700  -31.2560 C   0  0  0  0  0  0  0  0  0  0  0  0
   -8.5450   18.2000  -31.9620 C   0  0  0  0  0  0  0  0  0  0  0  0
   -9.4970   18.9270  -32.6830 C   0  0  0  0  0  0  0  0  0  0  0  0
   -9.4500   20.3240  -32.6970 C   0  0  0  0  0  0  0  0  0  0  0  0
   -5.3430   21.1860  -32.8690 O   0  0  0  0  0  0  0  0  0  0  0  0
   -5.0720   20.0570  -33.5170 C   0  0  0  0  0  0  0  0  0  0  0  0
   -6.0920   19.3850  -34.2010 C   0  0  0  0  0  0  0  0  0  0  0  0
   -5.8160   18.2000  -34.8870 C   0  0  0  0  0  0  0  0  0  0  0  0
   -4.5200   17.6770  -34.8930 C   0  0  0  0  0  0  0  0  0  0  0  0
   -3.4920   18.3340  -34.2090 C   0  0  0  0  0  0  0  0  0  0  0  0
   -3.7600   19.5280  -33.5150 C   0  0  0  0  0  0  0  0  0  0  0  0
   -2.3368   21.9535  -31.5726 H   0  0  0  0  0  0  0  0  0  0  0  0
   -2.8305   23.3913  -30.6403 H   0  0  0  0  0  0  0  0  0  0  0  0
   -3.4598   25.4194  -29.3407 H   0  0  0  0  0  0  0  0  0  0  0  0
   -5.7910   26.2944  -29.4397 H   0  0  0  0  0  0  0  0  0  0  0  0
   -7.4937   25.1619  -30.8571 H   0  0  0  0  0  0  0  0  0  0  0  0
   -6.8560   22.8070  -33.4120 H   0  0  0  0  0  0  0  0  0  0  0  0
   -8.5842   22.8478  -30.9259 H   0  0  0  0  0  0  0  0  0  0  0  0
   -9.1974   22.8976  -32.6190 H   0  0  0  0  0  0  0  0  0  0  0  0
   -6.7036   20.7912  -30.7065 H   0  0  0  0  0  0  0  0  0  0  0  0
   -6.7920   18.2976  -30.6904 H   0  0  0  0  0  0  0  0  0  0  0  0
   -8.5854   17.1008  -31.9504 H   0  0  0  0  0  0  0  0  0  0  0  0
  -10.2845   18.3986  -33.2403 H   0  0  0  0  0  0  0  0  0  0  0  0
  -10.2049   20.8926  -33.2599 H   0  0  0  0  0  0  0  0  0  0  0  0
   -7.1141   19.7915  -34.1982 H   0  0  0  0  0  0  0  0  0  0  0  0
   -6.6210   17.6769  -35.4240 H   0  0  0  0  0  0  0  0  0  0  0  0
   -4.3076   16.7452  -35.4377 H   0  0  0  0  0  0  0  0  0  0  0  0
   -2.4741   17.9171  -34.2137 H   0  0  0  0  0  0  0  0  0  0  0  0
  1  2  2  0
  2  3  1  0
  3  4  2  0
  4  5  1  0
  5  6  2  0
  6  7  1  0
  7  8  2  0
  8  9  1  0
  9 10  2  0
 10 11  1  0
 11 12  1  0
 12 13  1  0
 13 14  2  0
 14 15  1  0
 15 16  2  0
 16 17  1  0
 17 18  2  0
  4 19  1  0
 19 20  1  0
 20 21  2  0
 21 22  1  0
 22 23  2  0
 23 24  1  0
 24 25  2  0
 25  2  1  0
 10  5  1  0
 18 13  1  0
 25 20  1  0
  3 26  1  0
  6 27  1  0
  7 28  1  0
  8 29  1  0
  9 30  1  0
 11 31  1  0
 12 32  1  0
 12 33  1  0
 14 34  1  0
 15 35  1  0
 16 36  1  0
 17 37  1  0
 18 38  1  0
 21 39  1  0
 22 40  1  0
 23 41  1  0
 24 42  1  0
M  END
>  <UniqueID>  (44) 
43

>  <SMILES>  (44) 
O=c1cc(-c2ccccc2NCc2ccccc2)oc2ccccc12

>  <Energy>  (44) 
56.66123118434895

>  <Genealogy>  (44) 
O=c1cc(-c2ccccc2NCc2ccccc2)oc2ccccc12 (3D coordinates assigned)
O=c1cc(-c2ccccc2NCc2ccccc2)oc2ccccc12 (optimized conformer: 56.66123118434895 kcal/mol)

>  <smiles>  (44) 
O=c1cc(-c2ccccc2NCc2ccccc2)oc2ccccc12

>  <score_type>  (44) 
oracle

>  <origin>  (44) 
adgpu

>  <m_score__min__energy>  (44) 
-8.6300000000000008

>  <m_primary>  (44) 
energy

$$$$
44:0
     RDKit          3D

 67 70  0  0  0  0  0  0  0  0999 V2000
   -2.0440   20.5910  -27.4840 C   0  0  0  0  0  0  0  0  0  0  0  0
   -2.4830   21.8860  -28.1200 C   0  0  0  0  0  0  0  0  0  0  0  0
   -3.8160   21.9760  -28.5530 C   0  0  0  0  0  0  0  0  0  0  0  0
   -4.2810   23.1140  -29.2050 C   0  0  0  0  0  0  0  0  0  0  0  0
   -3.4160   24.1800  -29.4610 C   0  0  0  0  0  0  0  0  0  0  0  0
   -3.8490   25.2950  -30.2530 N   0  0  0  0  0  0  0  0  0  0  0  0
   -5.1900   25.5070  -30.7060 C   0  0  0  0  0  0  0  0  0  0  0  0
   -5.9000   26.3730  -30.1270 O   0  0  0  0  0  0  0  0  0  0  0  0
   -5.7320   24.7940  -31.8260 N   0  0  0  0  0  0  0  0  0  0  0  0
   -6.2780   23.4650  -31.8200 C   0  0  0  0  0  0  0  0  0  0  0  0
   -5.6390   22.3840  -32.4600 C   0  0  0  0  0  0  0  0  0  0  0  0
   -6.2320   21.1200  -32.4660 C   0  0  0  0  0  0  0  0  0  0  0  0
   -7.4380   20.9020  -31.7840 C   0  0  0  0  0  0  0  0  0  0  0  0
   -8.2130   19.3170  -31.8360 S   0  0  0  0  0  0  0  0  0  0  0  0
   -9.0790   19.2320  -33.0640 O   0  0  0  0  0  0  0  0  0  0  0  0
   -9.0980   19.1550  -30.6330 O   0  0  0  0  0  0  0  0  0  0  0  0
   -7.0340   18.0240  -31.8390 N   0  0  0  0  0  0  0  0  0  0  0  0
   -7.1670   17.1920  -33.0490 C   0  0  0  0  0  0  0  0  0  0  0  0
   -5.8590   16.4490  -33.3520 C   0  0  0  0  0  0  0  0  0  0  0  0
   -4.7610   17.3140  -33.6020 O   0  0  0  0  0  0  0  0  0  0  0  0
   -4.8390   18.5640  -32.9260 C   0  0  0  0  0  0  0  0  0  0  0  0
   -5.6580   18.5250  -31.6200 C   0  0  0  0  0  0  0  0  0  0  0  0
   -8.0300   21.9570  -31.0770 C   0  0  0  0  0  0  0  0  0  0  0  0
   -7.4570   23.2310  -31.1040 C   0  0  0  0  0  0  0  0  0  0  0  0
   -2.0940   24.1390  -29.0020 C   0  0  0  0  0  0  0  0  0  0  0  0
   -1.2980   25.2620  -29.2640 O   0  0  0  0  0  0  0  0  0  0  0  0
   -1.6130   23.0030  -28.2870 C   0  0  0  0  0  0  0  0  0  0  0  0
    0.0500   23.0140  -27.6230 S   0  0  0  0  0  0  0  0  0  0  0  0
    0.9710   23.8700  -28.4450 O   0  0  0  0  0  0  0  0  0  0  0  0
    0.5980   21.6150  -27.6790 O   0  0  0  0  0  0  0  0  0  0  0  0
    0.0540   23.5900  -25.9080 C   0  0  0  0  0  0  0  0  0  0  0  0
    1.2760   24.4810  -25.6180 C   0  0  0  0  0  0  0  0  0  0  0  0
    1.1520   25.9060  -26.2080 C   0  0  0  0  0  0  0  0  0  0  0  0
   -0.2330   26.2480  -26.6010 N   0  0  0  0  0  0  0  0  0  0  0  0
   -0.3490   27.6930  -26.8510 C   0  0  0  0  0  0  0  0  0  0  0  0
   -1.1900   25.8260  -25.5640 C   0  0  0  0  0  0  0  0  0  0  0  0
   -1.2680   24.2900  -25.5070 C   0  0  0  0  0  0  0  0  0  0  0  0
   -2.0777   20.6904  -26.3890 H   0  0  0  0  0  0  0  0  0  0  0  0
   -2.7177   19.7807  -27.7995 H   0  0  0  0  0  0  0  0  0  0  0  0
   -1.0165   20.3574  -27.7995 H   0  0  0  0  0  0  0  0  0  0  0  0
   -4.5022   21.1350  -28.3742 H   0  0  0  0  0  0  0  0  0  0  0  0
   -5.3333   23.1741  -29.5198 H   0  0  0  0  0  0  0  0  0  0  0  0
   -4.6694   22.5367  -32.9566 H   0  0  0  0  0  0  0  0  0  0  0  0
   -5.7515   20.2920  -33.0077 H   0  0  0  0  0  0  0  0  0  0  0  0
   -7.9705   16.4570  -32.8936 H   0  0  0  0  0  0  0  0  0  0  0  0
   -7.4033   17.8471  -33.9005 H   0  0  0  0  0  0  0  0  0  0  0  0
   -5.6119   15.8131  -32.4891 H   0  0  0  0  0  0  0  0  0  0  0  0
   -6.0245   15.8631  -34.2682 H   0  0  0  0  0  0  0  0  0  0  0  0
   -3.8167   18.8893  -32.6828 H   0  0  0  0  0  0  0  0  0  0  0  0
   -5.3567   19.2587  -33.6038 H   0  0  0  0  0  0  0  0  0  0  0  0
   -5.1500   17.8638  -30.9026 H   0  0  0  0  0  0  0  0  0  0  0  0
   -5.7295   19.5528  -31.2348 H   0  0  0  0  0  0  0  0  0  0  0  0
   -8.9491   21.7816  -30.4987 H   0  0  0  0  0  0  0  0  0  0  0  0
   -7.9367   24.0567  -30.5579 H   0  0  0  0  0  0  0  0  0  0  0  0
   -1.6160   26.0970  -29.7290 H   0  0  0  0  0  0  0  0  0  0  0  0
    0.1325   22.6924  -25.2770 H   0  0  0  0  0  0  0  0  0  0  0  0
    1.3958   24.5643  -24.5277 H   0  0  0  0  0  0  0  0  0  0  0  0
    2.1449   24.0060  -26.0969 H   0  0  0  0  0  0  0  0  0  0  0  0
    1.4912   26.6296  -25.4521 H   0  0  0  0  0  0  0  0  0  0  0  0
    1.7714   25.9422  -27.1163 H   0  0  0  0  0  0  0  0  0  0  0  0
   -0.3920   28.2289  -25.8913 H   0  0  0  0  0  0  0  0  0  0  0  0
    0.5244   28.0372  -27.4243 H   0  0  0  0  0  0  0  0  0  0  0  0
   -1.2661   27.8935  -27.4243 H   0  0  0  0  0  0  0  0  0  0  0  0
   -0.8602   26.2097  -24.5873 H   0  0  0  0  0  0  0  0  0  0  0  0
   -2.1846   26.2273  -25.8084 H   0  0  0  0  0  0  0  0  0  0  0  0
   -1.5221   23.9920  -24.4791 H   0  0  0  0  0  0  0  0  0  0  0  0
   -2.0332   23.9773  -26.2327 H   0  0  0  0  0  0  0  0  0  0  0  0
  1  2  1  0
  2  3  2  0
  3  4  1  0
  4  5  2  0
  5  6  1  0
  6  7  1  0
  7  8  2  0
  7  9  1  0
  9 10  1  0
 10 11  2  0
 11 12  1  0
 12 13  2  0
 13 14  1  0
 14 15  2  0
 14 16  2  0
 14 17  1  0
 17 18  1  0
 18 19  1  0
 19 20  1  0
 20 21  1  0
 21 22  1  0
 13 23  1  0
 23 24  2  0
  5 25  1  0
 25 26  1  0
 25 27  2  0
 27 28  1  0
 28 29  2  0
 28 30  2  0
 28 31  1  0
 31 32  1  0
 32 33  1  0
 33 34  1  0
 34 35  1  0
 34 36  1  0
 36 37  1  0
 27  2  1  0
 37 31  1  0
 24 10  1  0
 22 17  1  0
  1 38  1  0
  1 39  1  0
  1 40  1  0
  3 41  1  0
  4 42  1  0
 11 43  1  0
 12 44  1  0
 18 45  1  0
 18 46  1  0
 19 47  1  0
 19 48  1  0
 21 49  1  0
 21 50  1  0
 22 51  1  0
 22 52  1  0
 23 53  1  0
 24 54  1  0
 26 55  1  0
 31 56  1  0
 32 57  1  0
 32 58  1  0
 33 59  1  0
 33 60  1  0
 35 61  1  0
 35 62  1  0
 35 63  1  0
 36 64  1  0
 36 65  1  0
 37 66  1  0
 37 67  1  0
M  CHG  2   6  -1   9  -1
M  END
>  <UniqueID>  (45) 
44

>  <SMILES>  (45) 
Cc1ccc([N-]C(=O)[N-]c2ccc(S(=O)(=O)N3CCOCC3)cc2)c(O)c1S(=O)(=O)C1CCN(C)CC1

>  <Energy>  (45) 
98.31730253871582

>  <Genealogy>  (45) 
Cc1ccc([N-]C(=O)[N-]c2ccc(S(=O)(=O)N3CCOCC3)cc2)c(O)c1S(=O)(=O)C1CCN(C)CC1 (protonated)
Cc1ccc([N-]C(=O)[N-]c2ccc(S(=O)(=O)N3CCOCC3)cc2)c(O)c1S(=O)(=O)C1CCN(C)CC1 (3D coordinates assigned)
Cc1ccc([N-]C(=O)[N-]c2ccc(S(=O)(=O)N3CCOCC3)cc2)c(O)c1S(=O)(=O)C1CCN(C)CC1 (nonaromatic ring conformer: 98.31730253871582 kcal/mol)

>  <smiles>  (45) 
Cc1ccc(NC(=O)Nc2ccc(S(=O)(=O)N3CCOCC3)cc2)c(O)c1S(=O)(=O)C1CCN(C)CC1

>  <score_type>  (45) 
oracle

>  <origin>  (45) 
adgpu

>  <m_score__min__energy>  (45) 
-14.41

>  <m_primary>  (45) 
energy

$$$$
45:0
     RDKit          3D

 53 56  0  0  0  0  0  0  0  0999 V2000
  -10.3531   22.2783  -31.1256 H   0  0  0  0  0  0  0  0  0  0  0  0
   -9.3740   21.9040  -31.4590 C   0  0  0  0  0  0  0  0  0  0  0  0
   -9.3010   20.7900  -32.2960 C   0  0  0  0  0  0  0  0  0  0  0  0
  -10.2226   20.2786  -32.6107 H   0  0  0  0  0  0  0  0  0  0  0  0
   -8.0600   20.3230  -32.7350 C   0  0  0  0  0  0  0  0  0  0  0  0
   -8.0109   19.4452  -33.3961 H   0  0  0  0  0  0  0  0  0  0  0  0
   -6.8740   20.9640  -32.3400 C   0  0  0  0  0  0  0  0  0  0  0  0
   -5.3360   20.4080  -33.0250 S   0  0  0  0  0  0  0  0  0  0  0  0
   -4.6120   19.5530  -32.0260 O   0  0  0  0  0  0  0  0  0  0  0  0
   -5.5930   19.5950  -34.2660 O   0  0  0  0  0  0  0  0  0  0  0  0
   -4.3520   21.7640  -33.4480 N   0  0  0  0  0  0  0  0  0  0  0  0
   -4.8640   22.6210  -33.1420 H   0  0  0  0  0  0  0  0  0  0  0  0
   -4.3010   21.7980  -34.4910 H   0  0  0  0  0  0  0  0  0  0  0  0
   -6.9480   22.0770  -31.4640 C   0  0  0  0  0  0  0  0  0  0  0  0
   -5.7460   22.7780  -30.9750 C   0  0  0  0  0  0  0  0  0  0  0  0
   -5.3980   23.9760  -31.5180 N   0  0  0  0  0  0  0  0  0  0  0  0
   -4.3370   24.6570  -31.0820 N   0  0  0  0  0  0  0  0  0  0  0  0
   -3.5590   24.2050  -30.0620 C   0  0  0  0  0  0  0  0  0  0  0  0
   -2.5330   24.9210  -29.6960 N   0  0  0  0  0  0  0  0  0  0  0  0
   -1.6610   24.6900  -28.5780 C   0  0  0  0  0  0  0  0  0  0  0  0
   -1.6580   25.5980  -27.5140 C   0  0  0  0  0  0  0  0  0  0  0  0
   -2.2787   26.5047  -27.5653 H   0  0  0  0  0  0  0  0  0  0  0  0
   -0.8690   25.3570  -26.3860 C   0  0  0  0  0  0  0  0  0  0  0  0
   -0.8447   26.0926  -25.5685 H   0  0  0  0  0  0  0  0  0  0  0  0
   -0.1080   24.1830  -26.2900 C   0  0  0  0  0  0  0  0  0  0  0  0
    0.8620   23.8810  -24.8040 S   0  0  0  0  0  0  0  0  0  0  0  0
    1.4190   25.5860  -24.6870 C   0  0  0  0  0  0  0  0  0  0  0  0
    2.5380   26.0150  -25.3060 N   0  0  0  0  0  0  0  0  0  0  0  0
    2.5840   27.3320  -25.0260 C   0  0  0  0  0  0  0  0  0  0  0  0
    3.6400   28.2510  -25.5530 C   0  0  0  0  0  0  0  0  0  0  0  0
    4.1745   28.7161  -24.7116 H   0  0  0  0  0  0  0  0  0  0  0  0
    4.3507   27.6788  -26.1675 H   0  0  0  0  0  0  0  0  0  0  0  0
    3.1714   29.0339  -26.1675 H   0  0  0  0  0  0  0  0  0  0  0  0
    1.4930   27.6840  -24.2520 C   0  0  0  0  0  0  0  0  0  0  0  0
    1.1320   29.0620  -23.7780 C   0  0  0  0  0  0  0  0  0  0  0  0
    1.1268   29.0818  -22.6782 H   0  0  0  0  0  0  0  0  0  0  0  0
    1.8712   29.7845  -24.1543 H   0  0  0  0  0  0  0  0  0  0  0  0
    0.1335   29.3293  -24.1543 H   0  0  0  0  0  0  0  0  0  0  0  0
    0.7690   26.5710  -24.0260 N   0  0  0  0  0  0  0  0  0  0  0  0
   -0.5150   26.4740  -23.3430 C   0  0  0  0  0  0  0  0  0  0  0  0
   -0.3534   26.4862  -22.2550 H   0  0  0  0  0  0  0  0  0  0  0  0
   -1.1479   27.3269  -23.6293 H   0  0  0  0  0  0  0  0  0  0  0  0
   -1.0126   25.5357  -23.6293 H   0  0  0  0  0  0  0  0  0  0  0  0
   -0.1110   23.2650  -27.3570 C   0  0  0  0  0  0  0  0  0  0  0  0
    0.8930   21.8200  -27.3350 Cl  0  0  0  0  0  0  0  0  0  0  0  0
   -0.8980   23.5140  -28.4870 C   0  0  0  0  0  0  0  0  0  0  0  0
   -0.9193   22.7840  -29.3095 H   0  0  0  0  0  0  0  0  0  0  0  0
   -3.8770   22.9690  -29.4680 C   0  0  0  0  0  0  0  0  0  0  0  0
   -3.2575   22.5683  -28.6521 H   0  0  0  0  0  0  0  0  0  0  0  0
   -4.9850   22.2590  -29.9250 C   0  0  0  0  0  0  0  0  0  0  0  0
   -5.2580   21.2987  -29.4633 H   0  0  0  0  0  0  0  0  0  0  0  0
   -8.2050   22.5430  -31.0450 C   0  0  0  0  0  0  0  0  0  0  0  0
   -8.2683   23.4201  -30.3842 H   0  0  0  0  0  0  0  0  0  0  0  0
  1  2  1  0
  2  3  2  0
  3  4  1  0
  3  5  1  0
  5  6  1  0
  5  7  2  0
  7  8  1  0
  8  9  2  0
  8 10  2  0
  8 11  1  0
 11 12  1  0
 11 13  1  0
  7 14  1  0
 14 15  1  0
 15 16  2  0
 16 17  1  0
 17 18  1  0
 18 19  2  0
 19 20  1  0
 20 21  2  0
 21 22  1  0
 21 23  1  0
 23 24  1  0
 23 25  2  0
 25 26  1  0
 26 27  1  0
 27 28  2  0
 28 29  1  0
 29 30  1  0
 30 31  1  0
 30 32  1  0
 30 33  1  0
 29 34  2  0
 34 35  1  0
 35 36  1  0
 35 37  1  0
 35 38  1  0
 34 39  1  0
 39 40  1  0
 40 41  1  0
 40 42  1  0
 40 43  1  0
 25 44  1  0
 44 45  1  0
 44 46  2  0
 46 47  1  0
 18 48  1  0
 48 49  1  0
 48 50  2  0
 50 51  1  0
 14 52  2  0
 52 53  1  0
 52  2  1  0
 50 15  1  0
 46 20  1  0
 39 27  1  0
M  CHG  1  17  -1
M  END
>  <UniqueID>  (46) 
45

>  <SMILES>  (46) 
Cc1nc(Sc2ccc(/N=c3\ccc(-c4ccccc4S(N)(=O)=O)n[n-]3)cc2Cl)n(C)c1C

>  <Energy>  (46) 
100.35734167370364

>  <Genealogy>  (46) 
Cc1nc(Sc2ccc(N=c3ccc(-c4ccccc4S(N)(=O)=O)n[n-]3)cc2Cl)n(C)c1C (protonated)
Cc1nc(Sc2ccc(/N=c3\ccc(-c4ccccc4S(N)(=O)=O)n[n-]3)cc2Cl)n(C)c1C (cis-trans isomerization)
Cc1nc(Sc2ccc(/N=c3\ccc(-c4ccccc4S(N)(=O)=O)n[n-]3)cc2Cl)n(C)c1C (3D coordinates assigned)
Cc1nc(Sc2ccc(/N=c3\ccc(-c4ccccc4S(N)(=O)=O)n[n-]3)cc2Cl)n(C)c1C (optimized conformer: 100.35734167370364 kcal/mol)

>  <smiles>  (46) 
Cc1nc(Sc2ccc(N=c3ccc(-c4ccccc4S(N)(=O)=O)n[nH]3)cc2Cl)n(C)c1C

>  <score_type>  (46) 
oracle

>  <origin>  (46) 
adgpu

>  <m_score__min__energy>  (46) 
-12.470000000000001

>  <m_primary>  (46) 
energy

$$$$
46:0
     RDKit          3D

 39 41  0  0  0  0  0  0  0  0999 V2000
   -5.3830   22.2470  -33.2670 H   0  0  0  0  0  0  0  0  0  0  0  0
   -4.8720   22.9800  -32.7290 N   0  0  0  0  0  0  0  0  0  0  0  0
   -5.3530   23.6160  -31.7060 C   0  0  0  0  0  0  0  0  0  0  0  0
   -4.5870   24.5850  -31.1340 N   0  0  0  0  0  0  0  0  0  0  0  0
   -5.0250   25.3390  -30.0930 C   0  0  0  0  0  0  0  0  0  0  0  0
   -4.3694   26.1068  -29.6564 H   0  0  0  0  0  0  0  0  0  0  0  0
   -6.3030   25.1410  -29.5780 C   0  0  0  0  0  0  0  0  0  0  0  0
   -6.6669   25.7575  -28.7428 H   0  0  0  0  0  0  0  0  0  0  0  0
   -7.1170   24.1540  -30.1310 C   0  0  0  0  0  0  0  0  0  0  0  0
   -8.1281   23.9916  -29.7294 H   0  0  0  0  0  0  0  0  0  0  0  0
   -6.6550   23.3650  -31.1980 C   0  0  0  0  0  0  0  0  0  0  0  0
   -7.5190   22.2740  -31.7080 C   0  0  0  0  0  0  0  0  0  0  0  0
   -6.9600   21.2120  -32.3450 N   0  0  0  0  0  0  0  0  0  0  0  0
   -7.7100   20.1670  -32.7900 C   0  0  0  0  0  0  0  0  0  0  0  0
   -7.1690   19.1700  -33.4260 N   0  0  0  0  0  0  0  0  0  0  0  0
   -5.7680   18.9660  -33.6790 C   0  0  0  0  0  0  0  0  0  0  0  0
   -5.3760   17.8550  -34.4350 C   0  0  0  0  0  0  0  0  0  0  0  0
   -6.1382   17.1689  -34.8329 H   0  0  0  0  0  0  0  0  0  0  0  0
   -4.0230   17.6110  -34.6880 C   0  0  0  0  0  0  0  0  0  0  0  0
   -3.7255   16.7411  -35.2920 H   0  0  0  0  0  0  0  0  0  0  0  0
   -3.0480   18.4700  -34.1750 C   0  0  0  0  0  0  0  0  0  0  0  0
   -1.9847   18.2811  -34.3842 H   0  0  0  0  0  0  0  0  0  0  0  0
   -3.4220   19.5710  -33.3950 C   0  0  0  0  0  0  0  0  0  0  0  0
   -2.2020   20.6430  -32.7090 S   0  0  0  0  0  0  0  0  0  0  0  0
   -1.6490   21.5130  -33.8020 O   0  0  0  0  0  0  0  0  0  0  0  0
   -1.0740   19.8360  -32.1260 O   0  0  0  0  0  0  0  0  0  0  0  0
   -2.9010   21.6480  -31.4770 N   0  0  0  0  0  0  0  0  0  0  0  0
   -3.6910   22.1710  -31.9170 H   0  0  0  0  0  0  0  0  0  0  0  0
   -3.4580   20.8130  -30.4140 C   0  0  0  0  0  0  0  0  0  0  0  0
   -3.1792   21.2309  -29.4354 H   0  0  0  0  0  0  0  0  0  0  0  0
   -4.5541   20.7883  -30.5034 H   0  0  0  0  0  0  0  0  0  0  0  0
   -3.0598   19.7915  -30.5034 H   0  0  0  0  0  0  0  0  0  0  0  0
   -4.7780   19.8070  -33.1310 C   0  0  0  0  0  0  0  0  0  0  0  0
   -5.0716   20.6533  -32.4925 H   0  0  0  0  0  0  0  0  0  0  0  0
   -9.0560   20.1850  -32.6060 N   0  0  0  0  0  0  0  0  0  0  0  0
   -9.6620   21.2190  -31.9680 C   0  0  0  0  0  0  0  0  0  0  0  0
  -10.7522   21.2114  -31.8219 H   0  0  0  0  0  0  0  0  0  0  0  0
   -8.9040   22.2900  -31.4980 C   0  0  0  0  0  0  0  0  0  0  0  0
   -9.3830   23.1299  -30.9734 H   0  0  0  0  0  0  0  0  0  0  0  0
  1  2  1  0
  2  3  2  0
  3  4  1  0
  4  5  1  0
  5  6  1  0
  5  7  2  0
  7  8  1  0
  7  9  1  0
  9 10  1  0
  9 11  2  0
 11 12  1  0
 12 13  2  0
 13 14  1  0
 14 15  2  3
 15 16  1  0
 16 17  2  0
 17 18  1  0
 17 19  1  0
 19 20  1  0
 19 21  2  0
 21 22  1  0
 21 23  1  0
 23 24  1  0
 24 25  2  0
 24 26  2  0
 24 27  1  0
 27 28  1  0
 27 29  1  0
 29 30  1  0
 29 31  1  0
 29 32  1  0
 23 33  2  0
 33 34  1  0
 14 35  1  0
 35 36  1  0
 36 37  1  0
 36 38  2  0
 38 39  1  0
 11  3  1  0
 38 12  1  0
 33 16  1  0
M  CHG  2   4  -1  35  -1
M  END
>  <UniqueID>  (47) 
46

>  <SMILES>  (47) 
[H]/N=c1/[n-]cccc1-c1cc[n-]c(=Nc2cccc(S(=O)(=O)NC)c2)n1

>  <Energy>  (47) 
54.144746501289454

>  <Genealogy>  (47) 
CNS(=O)(=O)c1cccc(N=c2nc(-c3ccc[n-]c3=N)cc[n-]2)c1 (protonated)
[H]/N=c1/[n-]cccc1-c1cc[n-]c(=Nc2cccc(S(=O)(=O)NC)c2)n1 (cis-trans isomerization)
[H]/N=c1/[n-]cccc1-c1cc[n-]c(=Nc2cccc(S(=O)(=O)NC)c2)n1 (3D coordinates assigned)
[H]/N=c1/[n-]cccc1-c1cc[n-]c(=Nc2cccc(S(=O)(=O)NC)c2)n1 (optimized conformer: 54.144746501289454 kcal/mol)

>  <smiles>  (47) 
CNS(=O)(=O)c1cccc(N=c2nc(-c3ccc[nH]c3=N)cc[nH]2)c1

>  <score_type>  (47) 
oracle

>  <origin>  (47) 
adgpu

>  <m_score__min__energy>  (47) 
-10.27

>  <m_primary>  (47) 
energy

$$$$
47:0
     RDKit          3D

 52 55  0  0  0  0  0  0  0  0999 V2000
   -5.4790   17.0760  -34.3970 H   0  0  0  0  0  0  0  0  0  0  0  0
   -4.5460   17.4670  -34.3840 O   0  0  0  0  0  0  0  0  0  0  0  0
   -4.2010   18.5140  -33.5310 C   0  0  0  0  0  0  0  0  0  0  0  0
   -5.0470   19.1320  -32.6420 C   0  0  0  0  0  0  0  0  0  0  0  0
   -6.7190   18.7080  -32.3380 S   0  0  0  0  0  0  0  0  0  0  0  0
   -7.2420   17.8780  -33.4770 O   0  0  0  0  0  0  0  0  0  0  0  0
   -6.8150   17.8960  -31.0760 O   0  0  0  0  0  0  0  0  0  0  0  0
   -7.6700   20.1820  -32.1890 C   0  0  0  0  0  0  0  0  0  0  0  0
   -7.0300   21.4270  -32.1060 C   0  0  0  0  0  0  0  0  0  0  0  0
   -5.9325   21.4847  -32.1518 H   0  0  0  0  0  0  0  0  0  0  0  0
   -7.7860   22.5960  -31.9650 C   0  0  0  0  0  0  0  0  0  0  0  0
   -7.2823   23.5721  -31.9052 H   0  0  0  0  0  0  0  0  0  0  0  0
   -9.1810   22.5250  -31.9000 C   0  0  0  0  0  0  0  0  0  0  0  0
   -9.7740   23.4451  -31.7914 H   0  0  0  0  0  0  0  0  0  0  0  0
   -9.8220   21.2850  -31.9730 C   0  0  0  0  0  0  0  0  0  0  0  0
  -10.9192   21.2294  -31.9187 H   0  0  0  0  0  0  0  0  0  0  0  0
   -9.0690   20.1150  -32.1150 C   0  0  0  0  0  0  0  0  0  0  0  0
   -9.5752   19.1399  -32.1688 H   0  0  0  0  0  0  0  0  0  0  0  0
   -4.3930   20.1210  -32.0030 N   0  0  0  0  0  0  0  0  0  0  0  0
   -3.1490   20.0820  -32.5380 C   0  0  0  0  0  0  0  0  0  0  0  0
   -2.1700   20.8460  -32.1460 N   0  0  0  0  0  0  0  0  0  0  0  0
   -2.2500   21.9160  -31.1900 C   0  0  0  0  0  0  0  0  0  0  0  0
   -1.3500   21.9280  -30.1220 C   0  0  0  0  0  0  0  0  0  0  0  0
   -0.6159   21.1154  -30.0185 H   0  0  0  0  0  0  0  0  0  0  0  0
   -1.3740   22.9620  -29.1850 C   0  0  0  0  0  0  0  0  0  0  0  0
   -0.6685   22.9514  -28.3411 H   0  0  0  0  0  0  0  0  0  0  0  0
   -2.2950   24.0180  -29.3130 C   0  0  0  0  0  0  0  0  0  0  0  0
   -2.3540   25.0730  -28.3890 O   0  0  0  0  0  0  0  0  0  0  0  0
   -2.7080   24.9250  -27.0170 C   0  0  0  0  0  0  0  0  0  0  0  0
   -1.8776   25.2722  -26.3846 H   0  0  0  0  0  0  0  0  0  0  0  0
   -3.6063   25.5229  -26.8035 H   0  0  0  0  0  0  0  0  0  0  0  0
   -2.9134   23.8656  -26.8035 H   0  0  0  0  0  0  0  0  0  0  0  0
   -3.1850   24.0330  -30.3990 C   0  0  0  0  0  0  0  0  0  0  0  0
   -4.0830   25.1060  -30.5100 O   0  0  0  0  0  0  0  0  0  0  0  0
   -5.4840   25.0160  -30.2750 C   0  0  0  0  0  0  0  0  0  0  0  0
   -5.6740   25.0038  -29.1916 H   0  0  0  0  0  0  0  0  0  0  0  0
   -5.9879   25.8836  -30.7259 H   0  0  0  0  0  0  0  0  0  0  0  0
   -5.8727   24.0910  -30.7259 H   0  0  0  0  0  0  0  0  0  0  0  0
   -3.1510   22.9850  -31.3410 C   0  0  0  0  0  0  0  0  0  0  0  0
   -3.8354   23.0035  -32.2020 H   0  0  0  0  0  0  0  0  0  0  0  0
   -2.9940   19.1080  -33.4650 N   0  0  0  0  0  0  0  0  0  0  0  0
   -1.7960   18.7620  -34.1820 C   0  0  0  0  0  0  0  0  0  0  0  0
   -1.4920   17.4170  -34.4510 C   0  0  0  0  0  0  0  0  0  0  0  0
   -2.1789   16.6236  -34.1213 H   0  0  0  0  0  0  0  0  0  0  0  0
   -0.3200   17.0830  -35.1360 C   0  0  0  0  0  0  0  0  0  0  0  0
   -0.0900   16.0287  -35.3495 H   0  0  0  0  0  0  0  0  0  0  0  0
    0.5600   18.0870  -35.5500 C   0  0  0  0  0  0  0  0  0  0  0  0
    1.4813   17.8228  -36.0897 H   0  0  0  0  0  0  0  0  0  0  0  0
    0.2690   19.4270  -35.2780 C   0  0  0  0  0  0  0  0  0  0  0  0
    0.9629   20.2168  -35.6017 H   0  0  0  0  0  0  0  0  0  0  0  0
   -0.9030   19.7640  -34.5950 C   0  0  0  0  0  0  0  0  0  0  0  0
   -1.1270   20.8193  -34.3799 H   0  0  0  0  0  0  0  0  0  0  0  0
  1  2  1  0
  2  3  1  0
  3  4  2  0
  4  5  1  0
  5  6  2  0
  5  7  2  0
  5  8  1  0
  8  9  2  0
  9 10  1  0
  9 11  1  0
 11 12  1  0
 11 13  2  0
 13 14  1  0
 13 15  1  0
 15 16  1  0
 15 17  2  0
 17 18  1  0
  4 19  1  0
 19 20  1  0
 20 21  2  0
 21 22  1  0
 22 23  2  0
 23 24  1  0
 23 25  1  0
 25 26  1  0
 25 27  2  0
 27 28  1  0
 28 29  1  0
 29 30  1  0
 29 31  1  0
 29 32  1  0
 27 33  1  0
 33 34  1  0
 34 35  1  0
 35 36  1  0
 35 37  1  0
 35 38  1  0
 33 39  2  0
 39 40  1  0
 20 41  1  0
 41 42  1  0
 42 43  2  0
 43 44  1  0
 43 45  1  0
 45 46  1  0
 45 47  2  0
 47 48  1  0
 47 49  1  0
 49 50  1  0
 49 51  2  0
 51 52  1  0
 41  3  1  0
 51 42  1  0
 17  8  1  0
 39 22  1  0
M  CHG  1  19  -1
M  END
>  <UniqueID>  (48) 
47

>  <SMILES>  (48) 
COc1ccc(/N=c2\[n-]c(S(=O)(=O)c3ccccc3)c(O)n2-c2ccccc2)cc1OC

>  <Energy>  (48) 
100.04964193017628

>  <Genealogy>  (48) 
COc1ccc(N=c2[n-]c(S(=O)(=O)c3ccccc3)c(O)n2-c2ccccc2)cc1OC (protonated)
COc1ccc(/N=c2\[n-]c(S(=O)(=O)c3ccccc3)c(O)n2-c2ccccc2)cc1OC (cis-trans isomerization)
COc1ccc(/N=c2\[n-]c(S(=O)(=O)c3ccccc3)c(O)n2-c2ccccc2)cc1OC (3D coordinates assigned)
COc1ccc(/N=c2\[n-]c(S(=O)(=O)c3ccccc3)c(O)n2-c2ccccc2)cc1OC (optimized conformer: 100.04964193017628 kcal/mol)

>  <smiles>  (48) 
COc1ccc(N=c2[nH]c(S(=O)(=O)c3ccccc3)c(O)n2-c2ccccc2)cc1OC

>  <score_type>  (48) 
oracle

>  <origin>  (48) 
adgpu

>  <m_score__min__energy>  (48) 
-9.0399999999999991

>  <m_primary>  (48) 
energy

$$$$
48:0
     RDKit          3D

 39 41  0  0  0  0  0  0  0  0999 V2000
   -5.4040   14.9790  -33.7790 C   0  0  0  0  0  0  0  0  0  0  0  0
   -6.8690   15.9620  -34.2180 S   0  0  0  0  0  0  0  0  0  0  0  0
   -6.0490   17.5280  -33.9160 C   0  0  0  0  0  0  0  0  0  0  0  0
   -4.8930   17.8920  -34.5020 N   0  0  0  0  0  0  0  0  0  0  0  0
   -4.6150   19.1190  -34.0800 N   0  0  0  0  0  0  0  0  0  0  0  0
   -5.6040   19.4870  -33.2390 C   0  0  0  0  0  0  0  0  0  0  0  0
   -5.6390   20.7940  -32.5520 C   0  0  0  0  0  0  0  0  0  0  0  0
   -4.4470   21.5050  -32.3430 C   0  0  0  0  0  0  0  0  0  0  0  0
   -4.4620   22.7310  -31.6710 C   0  0  0  0  0  0  0  0  0  0  0  0
   -5.6670   23.2520  -31.1840 C   0  0  0  0  0  0  0  0  0  0  0  0
   -5.6940   24.7850  -30.3180 S   0  0  0  0  0  0  0  0  0  0  0  0
   -5.2640   25.9120  -31.2160 O   0  0  0  0  0  0  0  0  0  0  0  0
   -7.0950   25.0450  -29.8420 O   0  0  0  0  0  0  0  0  0  0  0  0
   -4.6290   24.7140  -28.9500 N   0  0  0  0  0  0  0  0  0  0  0  0
   -3.5020   23.8190  -28.8560 C   0  0  0  0  0  0  0  0  0  0  0  0
   -3.6740   22.4470  -28.5810 C   0  0  0  0  0  0  0  0  0  0  0  0
   -2.5680   21.5990  -28.4890 C   0  0  0  0  0  0  0  0  0  0  0  0
   -1.2800   22.1020  -28.6780 C   0  0  0  0  0  0  0  0  0  0  0  0
   -1.0950   23.4560  -28.9600 C   0  0  0  0  0  0  0  0  0  0  0  0
   -2.1970   24.3140  -29.0510 C   0  0  0  0  0  0  0  0  0  0  0  0
   -1.9860   25.6600  -29.3280 O   0  0  0  0  0  0  0  0  0  0  0  0
   -6.8570   22.5390  -31.3740 C   0  0  0  0  0  0  0  0  0  0  0  0
   -6.8430   21.3120  -32.0460 C   0  0  0  0  0  0  0  0  0  0  0  0
   -6.5170   18.5020  -33.1180 N   0  0  0  0  0  0  0  0  0  0  0  0
   -7.7660   18.5450  -32.4790 N   0  0  0  0  0  0  0  0  0  0  0  0
   -5.3165   14.9203  -32.6841 H   0  0  0  0  0  0  0  0  0  0  0  0
   -5.5050   13.9652  -34.1937 H   0  0  0  0  0  0  0  0  0  0  0  0
   -4.5041   15.4568  -34.1937 H   0  0  0  0  0  0  0  0  0  0  0  0
   -3.4947   21.0949  -32.7103 H   0  0  0  0  0  0  0  0  0  0  0  0
   -3.5247   23.2877  -31.5245 H   0  0  0  0  0  0  0  0  0  0  0  0
   -4.8890   25.3010  -28.1260 H   0  0  0  0  0  0  0  0  0  0  0  0
   -4.6865   22.0415  -28.4379 H   0  0  0  0  0  0  0  0  0  0  0  0
   -2.7126   20.5314  -28.2669 H   0  0  0  0  0  0  0  0  0  0  0  0
   -0.4111   21.4314  -28.6047 H   0  0  0  0  0  0  0  0  0  0  0  0
   -0.0794   23.8505  -29.1113 H   0  0  0  0  0  0  0  0  0  0  0  0
   -7.8060   22.9449  -30.9937 H   0  0  0  0  0  0  0  0  0  0  0  0
   -7.7793   20.7501  -32.1789 H   0  0  0  0  0  0  0  0  0  0  0  0
   -8.6350   18.7750  -33.0070 H   0  0  0  0  0  0  0  0  0  0  0  0
   -7.8600   18.2620  -31.4770 H   0  0  0  0  0  0  0  0  0  0  0  0
  1  2  1  0
  2  3  1  0
  3  4  2  0
  4  5  1  0
  5  6  2  0
  6  7  1  0
  7  8  2  0
  8  9  1  0
  9 10  2  0
 10 11  1  0
 11 12  2  0
 11 13  2  0
 11 14  1  0
 14 15  1  0
 15 16  2  0
 16 17  1  0
 17 18  2  0
 18 19  1  0
 19 20  2  0
 20 21  1  0
 10 22  1  0
 22 23  2  0
  6 24  1  0
 24 25  1  0
 24  3  1  0
 23  7  1  0
 20 15  1  0
  1 26  1  0
  1 27  1  0
  1 28  1  0
  8 29  1  0
  9 30  1  0
 14 31  1  0
 16 32  1  0
 17 33  1  0
 18 34  1  0
 19 35  1  0
 22 36  1  0
 23 37  1  0
 25 38  1  0
 25 39  1  0
M  CHG  1  21  -1
M  END
>  <UniqueID>  (49) 
48

>  <SMILES>  (49) 
CSc1nnc(-c2ccc(S(=O)(=O)Nc3ccccc3[O-])cc2)n1N

>  <Energy>  (49) 
81.55257602060767

>  <Genealogy>  (49) 
CSc1nnc(-c2ccc(S(=O)(=O)Nc3ccccc3[O-])cc2)n1N (protonated)
CSc1nnc(-c2ccc(S(=O)(=O)Nc3ccccc3[O-])cc2)n1N (3D coordinates assigned)
CSc1nnc(-c2ccc(S(=O)(=O)Nc3ccccc3[O-])cc2)n1N (optimized conformer: 81.55257602060767 kcal/mol)

>  <smiles>  (49) 
CSc1nnc(-c2ccc(S(=O)(=O)Nc3ccccc3O)cc2)n1N

>  <score_type>  (49) 
oracle

>  <origin>  (49) 
adgpu

>  <m_score__min__energy>  (49) 
-11.91

>  <m_primary>  (49) 
energy

$$$$
49:0
     RDKit          3D

 47 49  0  0  0  0  0  0  0  0999 V2000
   -2.6300   16.9920  -34.4270 C   0  0  0  0  0  0  0  0  0  0  0  0
   -3.8200   17.5600  -34.9650 O   0  0  0  0  0  0  0  0  0  0  0  0
   -4.8950   18.0310  -34.1930 C   0  0  0  0  0  0  0  0  0  0  0  0
   -6.1230   17.3480  -34.1280 C   0  0  0  0  0  0  0  0  0  0  0  0
   -7.1690   17.8470  -33.3510 C   0  0  0  0  0  0  0  0  0  0  0  0
   -7.0150   19.0370  -32.6230 C   0  0  0  0  0  0  0  0  0  0  0  0
   -8.1260   19.5640  -31.7960 C   0  0  0  0  0  0  0  0  0  0  0  0
   -8.7260   18.8020  -30.9890 O   0  0  0  0  0  0  0  0  0  0  0  0
   -8.4850   20.9520  -31.8740 N   0  0  0  0  0  0  0  0  0  0  0  0
   -7.6320   22.0730  -31.6000 C   0  0  0  0  0  0  0  0  0  0  0  0
   -7.6580   22.6390  -30.3210 C   0  0  0  0  0  0  0  0  0  0  0  0
   -6.8300   23.7190  -30.0050 C   0  0  0  0  0  0  0  0  0  0  0  0
   -5.9440   24.2440  -30.9630 C   0  0  0  0  0  0  0  0  0  0  0  0
   -5.0670   25.3890  -30.6290 C   0  0  0  0  0  0  0  0  0  0  0  0
   -5.5670   26.5300  -30.4210 O   0  0  0  0  0  0  0  0  0  0  0  0
   -3.6490   25.2050  -30.5190 N   0  0  0  0  0  0  0  0  0  0  0  0
   -3.0080   24.4920  -29.4540 C   0  0  0  0  0  0  0  0  0  0  0  0
   -3.5830   23.2940  -29.0120 C   0  0  0  0  0  0  0  0  0  0  0  0
   -3.0150   22.5870  -27.9490 C   0  0  0  0  0  0  0  0  0  0  0  0
   -1.8610   23.0660  -27.3280 C   0  0  0  0  0  0  0  0  0  0  0  0
   -1.2590   24.2430  -27.7820 C   0  0  0  0  0  0  0  0  0  0  0  0
   -1.8100   24.9500  -28.8590 C   0  0  0  0  0  0  0  0  0  0  0  0
   -1.1290   26.0730  -29.3310 O   0  0  0  0  0  0  0  0  0  0  0  0
   -5.9010   23.6570  -32.2400 C   0  0  0  0  0  0  0  0  0  0  0  0
   -6.7320   22.5770  -32.5540 C   0  0  0  0  0  0  0  0  0  0  0  0
   -5.7860   19.7190  -32.6880 C   0  0  0  0  0  0  0  0  0  0  0  0
   -4.7260   19.2210  -33.4710 C   0  0  0  0  0  0  0  0  0  0  0  0
   -3.4880   19.8800  -33.5560 O   0  0  0  0  0  0  0  0  0  0  0  0
   -3.2630   21.2300  -33.1650 C   0  0  0  0  0  0  0  0  0  0  0  0
   -2.6772   17.0145  -33.3282 H   0  0  0  0  0  0  0  0  0  0  0  0
   -2.5337   15.9508  -34.7686 H   0  0  0  0  0  0  0  0  0  0  0  0
   -1.7599   17.5719  -34.7686 H   0  0  0  0  0  0  0  0  0  0  0  0
   -6.2596   16.4144  -34.6934 H   0  0  0  0  0  0  0  0  0  0  0  0
   -8.1238   17.3023  -33.3086 H   0  0  0  0  0  0  0  0  0  0  0  0
   -8.3362   22.2302  -29.5575 H   0  0  0  0  0  0  0  0  0  0  0  0
   -6.8713   24.1622  -28.9991 H   0  0  0  0  0  0  0  0  0  0  0  0
   -4.4873   22.9072  -29.5046 H   0  0  0  0  0  0  0  0  0  0  0  0
   -3.4781   21.6518  -27.6014 H   0  0  0  0  0  0  0  0  0  0  0  0
   -1.4246   22.5170  -26.4805 H   0  0  0  0  0  0  0  0  0  0  0  0
   -0.3480   24.6161  -27.2913 H   0  0  0  0  0  0  0  0  0  0  0  0
   -1.2430   26.4290  -30.2710 H   0  0  0  0  0  0  0  0  0  0  0  0
   -5.2080   24.0505  -32.9982 H   0  0  0  0  0  0  0  0  0  0  0  0
   -6.6808   22.1197  -33.5531 H   0  0  0  0  0  0  0  0  0  0  0  0
   -5.6513   20.6518  -32.1209 H   0  0  0  0  0  0  0  0  0  0  0  0
   -3.2519   21.2967  -32.0671 H   0  0  0  0  0  0  0  0  0  0  0  0
   -2.2957   21.5706  -33.5629 H   0  0  0  0  0  0  0  0  0  0  0  0
   -4.0675   21.8659  -33.5629 H   0  0  0  0  0  0  0  0  0  0  0  0
  1  2  1  0
  2  3  1  0
  3  4  2  0
  4  5  1  0
  5  6  2  0
  6  7  1  0
  7  8  2  0
  7  9  1  0
  9 10  1  0
 10 11  2  0
 11 12  1  0
 12 13  2  0
 13 14  1  0
 14 15  2  0
 14 16  1  0
 16 17  1  0
 17 18  2  0
 18 19  1  0
 19 20  2  0
 20 21  1  0
 21 22  2  0
 22 23  1  0
 13 24  1  0
 24 25  2  0
  6 26  1  0
 26 27  2  0
 27 28  1  0
 28 29  1  0
 27  3  1  0
 25 10  1  0
 22 17  1  0
  1 30  1  0
  1 31  1  0
  1 32  1  0
  4 33  1  0
  5 34  1  0
 11 35  1  0
 12 36  1  0
 18 37  1  0
 19 38  1  0
 20 39  1  0
 21 40  1  0
 23 41  1  0
 24 42  1  0
 25 43  1  0
 26 44  1  0
 29 45  1  0
 29 46  1  0
 29 47  1  0
M  CHG  2   9  -1  16  -1
M  END
>  <UniqueID>  (50) 
49

>  <SMILES>  (50) 
COc1ccc(C(=O)[N-]c2ccc(C(=O)[N-]c3ccccc3O)cc2)cc1OC

>  <Energy>  (50) 
60.99816693288501

>  <Genealogy>  (50) 
COc1ccc(C(=O)[N-]c2ccc(C(=O)[N-]c3ccccc3O)cc2)cc1OC (protonated)
COc1ccc(C(=O)[N-]c2ccc(C(=O)[N-]c3ccccc3O)cc2)cc1OC (3D coordinates assigned)
COc1ccc(C(=O)[N-]c2ccc(C(=O)[N-]c3ccccc3O)cc2)cc1OC (optimized conformer: 60.99816693288501 kcal/mol)

>  <smiles>  (50) 
COc1ccc(C(=O)Nc2ccc(C(=O)Nc3ccccc3O)cc2)cc1OC

>  <score_type>  (50) 
oracle

>  <origin>  (50) 
adgpu

>  <m_score__min__energy>  (50) 
-11.880000000000001

>  <m_primary>  (50) 
energy

$$$$
