0:0
     RDKit          3D

 39 41  0  0  0  0  0  0  0  0999 V2000
   -4.3720   25.2990  -31.2010 O   0  0  0  0  0  0  0  0  0  0  0  0
   -5.1210   24.5620  -30.1270 S   0  0  0  0  0  0  0  0  0  0  0  0
   -5.9370   25.5580  -29.3510 O   0  0  0  0  0  0  0  0  0  0  0  0
   -6.2080   23.3740  -30.8370 C   0  0  0  0  0  0  0  0  0  0  0  0
   -6.0250   22.9340  -32.1570 C   0  0  0  0  0  0  0  0  0  0  0  0
   -6.8880   21.9780  -32.7040 C   0  0  0  0  0  0  0  0  0  0  0  0
   -7.9350   21.4590  -31.9370 C   0  0  0  0  0  0  0  0  0  0  0  0
   -8.1210   21.8960  -30.6230 C   0  0  0  0  0  0  0  0  0  0  0  0
   -7.2600   22.8510  -30.0740 C   0  0  0  0  0  0  0  0  0  0  0  0
   -3.9750   23.7540  -29.0890 N   0  0  0  0  0  0  0  0  0  0  0  0
   -3.9640   22.2880  -29.0270 C   0  0  0  0  0  0  0  0  0  0  0  0
   -3.3850   21.7020  -30.2880 C   0  0  0  0  0  0  0  0  0  0  0  0
   -2.1550   22.1660  -30.7840 C   0  0  0  0  0  0  0  0  0  0  0  0
   -1.6330   21.6440  -31.9720 C   0  0  0  0  0  0  0  0  0  0  0  0
   -2.3350   20.6590  -32.6720 C   0  0  0  0  0  0  0  0  0  0  0  0
   -3.5580   20.1930  -32.1860 C   0  0  0  0  0  0  0  0  0  0  0  0
   -4.0840   20.7110  -30.9980 C   0  0  0  0  0  0  0  0  0  0  0  0
   -3.0370   24.5090  -28.3050 C   0  0  0  0  0  0  0  0  0  0  0  0
   -3.1390   24.5520  -26.9070 C   0  0  0  0  0  0  0  0  0  0  0  0
   -2.1980   25.2780  -26.1730 C   0  0  0  0  0  0  0  0  0  0  0  0
   -1.1630   25.9410  -26.8330 C   0  0  0  0  0  0  0  0  0  0  0  0
   -1.0810   25.8620  -28.2250 C   0  0  0  0  0  0  0  0  0  0  0  0
   -2.0070   25.1520  -28.9210 N   0  0  0  0  0  0  0  0  0  0  0  0
   -5.2019   23.3413  -32.7625 H   0  0  0  0  0  0  0  0  0  0  0  0
   -6.7423   21.6345  -33.7388 H   0  0  0  0  0  0  0  0  0  0  0  0
   -8.6122   20.7068  -32.3678 H   0  0  0  0  0  0  0  0  0  0  0  0
   -8.9456   21.4883  -30.0199 H   0  0  0  0  0  0  0  0  0  0  0  0
   -7.4092   23.1929  -29.0392 H   0  0  0  0  0  0  0  0  0  0  0  0
   -3.3552   21.9682  -28.1685 H   0  0  0  0  0  0  0  0  0  0  0  0
   -4.9992   21.9327  -28.9169 H   0  0  0  0  0  0  0  0  0  0  0  0
   -1.6008   22.9424  -30.2362 H   0  0  0  0  0  0  0  0  0  0  0  0
   -0.6689   22.0091  -32.3557 H   0  0  0  0  0  0  0  0  0  0  0  0
   -1.9236   20.2505  -33.6068 H   0  0  0  0  0  0  0  0  0  0  0  0
   -4.1088   19.4173  -32.7382 H   0  0  0  0  0  0  0  0  0  0  0  0
   -5.0480   20.3415  -30.6182 H   0  0  0  0  0  0  0  0  0  0  0  0
   -3.9525   24.0189  -26.3932 H   0  0  0  0  0  0  0  0  0  0  0  0
   -2.2729   25.3269  -25.0766 H   0  0  0  0  0  0  0  0  0  0  0  0
   -0.4203   26.5192  -26.2637 H   0  0  0  0  0  0  0  0  0  0  0  0
   -0.2666   26.3747  -28.7579 H   0  0  0  0  0  0  0  0  0  0  0  0
  1  2  2  0
  2  3  2  0
  2  4  1  0
  4  5  2  0
  5  6  1  0
  6  7  2  0
  7  8  1  0
  8  9  2  0
  2 10  1  0
 10 11  1  0
 11 12  1  0
 12 13  2  0
 13 14  1  0
 14 15  2  0
 15 16  1  0
 16 17  2  0
 10 18  1  0
 18 19  2  0
 19 20  1  0
 20 21  2  0
 21 22  1  0
 22 23  2  0
  9  4  1  0
 17 12  1  0
 23 18  1  0
  5 24  1  0
  6 25  1  0
  7 26  1  0
  8 27  1  0
  9 28  1  0
 11 29  1  0
 11 30  1  0
 13 31  1  0
 14 32  1  0
 15 33  1  0
 16 34  1  0
 17 35  1  0
 19 36  1  0
 20 37  1  0
 21 38  1  0
 22 39  1  0
M  END
>  <UniqueID>  (1) 
1

>  <SMILES>  (1) 
O=S(=O)(c1ccccc1)N(Cc1ccccc1)c1ccccn1

>  <Energy>  (1) 
46.652217440726034

>  <Genealogy>  (1) 
O=S(=O)(c1ccccc1)N(Cc1ccccc1)c1ccccn1 (3D coordinates assigned)
O=S(=O)(c1ccccc1)N(Cc1ccccc1)c1ccccn1 (optimized conformer: 46.652217440726034 kcal/mol)

>  <smiles>  (1) 
O=S(=O)(c1ccccc1)N(Cc1ccccc1)c1ccccn1

>  <score_type>  (1) 
oracle

>  <origin>  (1) 
adgpu

>  <m_score__min__energy>  (1) 
-8.1999999999999993

>  <m_primary>  (1) 
energy

$$$$
1:0
     RDKit          3D

 28 30  0  0  0  0  0  0  0  0999 V2000
   -3.4940   25.2980  -30.4730 O   0  0  0  0  0  0  0  0  0  0  0  0
   -4.7420   24.7140  -30.6560 C   0  0  0  0  0  0  0  0  0  0  0  0
   -5.8720   25.2920  -30.0770 C   0  0  0  0  0  0  0  0  0  0  0  0
   -7.1270   24.7140  -30.2680 C   0  0  0  0  0  0  0  0  0  0  0  0
   -7.2690   23.5540  -31.0410 C   0  0  0  0  0  0  0  0  0  0  0  0
   -8.5620   23.0720  -31.2570 O   0  0  0  0  0  0  0  0  0  0  0  0
   -6.1190   22.9380  -31.5970 C   0  0  0  0  0  0  0  0  0  0  0  0
   -6.1760   21.6570  -32.3380 C   0  0  0  0  0  0  0  0  0  0  0  0
   -7.3150   21.0870  -32.7790 N   0  0  0  0  0  0  0  0  0  0  0  0
   -6.9450   19.9610  -33.3080 O   0  0  0  0  0  0  0  0  0  0  0  0
   -5.6470   19.8230  -33.1970 C   0  0  0  0  0  0  0  0  0  0  0  0
   -4.8770   18.6560  -33.6860 C   0  0  0  0  0  0  0  0  0  0  0  0
   -5.5140   17.4080  -33.8230 C   0  0  0  0  0  0  0  0  0  0  0  0
   -4.8040   16.2960  -34.2820 C   0  0  0  0  0  0  0  0  0  0  0  0
   -3.4530   16.4140  -34.6100 C   0  0  0  0  0  0  0  0  0  0  0  0
   -2.8080   17.6450  -34.4780 C   0  0  0  0  0  0  0  0  0  0  0  0
   -3.5100   18.7660  -34.0190 C   0  0  0  0  0  0  0  0  0  0  0  0
   -2.8370   19.9770  -33.9000 O   0  0  0  0  0  0  0  0  0  0  0  0
   -5.0960   20.8830  -32.5700 N   0  0  0  0  0  0  0  0  0  0  0  0
   -4.8630   23.5460  -31.4130 C   0  0  0  0  0  0  0  0  0  0  0  0
   -5.7733   26.2038  -29.4697 H   0  0  0  0  0  0  0  0  0  0  0  0
   -8.0140   25.1734  -29.8072 H   0  0  0  0  0  0  0  0  0  0  0  0
   -8.7660   22.2550  -31.8160 H   0  0  0  0  0  0  0  0  0  0  0  0
   -6.5790   17.3078  -33.5666 H   0  0  0  0  0  0  0  0  0  0  0  0
   -5.3111   15.3253  -34.3851 H   0  0  0  0  0  0  0  0  0  0  0  0
   -2.8963   15.5373  -34.9725 H   0  0  0  0  0  0  0  0  0  0  0  0
   -1.7425   17.7347  -34.7360 H   0  0  0  0  0  0  0  0  0  0  0  0
   -3.9684   23.0974  -31.8695 H   0  0  0  0  0  0  0  0  0  0  0  0
  1  2  1  0
  2  3  2  0
  3  4  1  0
  4  5  2  0
  5  6  1  0
  5  7  1  0
  7  8  1  0
  8  9  2  0
  9 10  1  0
 10 11  1  0
 11 12  1  0
 12 13  2  0
 13 14  1  0
 14 15  2  0
 15 16  1  0
 16 17  2  0
 17 18  1  0
 11 19  2  0
  7 20  2  0
 20  2  1  0
 19  8  1  0
 17 12  1  0
  3 21  1  0
  4 22  1  0
  6 23  1  0
 13 24  1  0
 14 25  1  0
 15 26  1  0
 16 27  1  0
 20 28  1  0
M  CHG  2   1  -1  18  -1
M  END
>  <UniqueID>  (2) 
2

>  <SMILES>  (2) 
[O-]c1ccc(O)c(-c2noc(-c3ccccc3[O-])n2)c1

>  <Energy>  (2) 
71.09373127341331

>  <Genealogy>  (2) 
[O-]c1ccc(O)c(-c2noc(-c3ccccc3[O-])n2)c1 (protonated)
[O-]c1ccc(O)c(-c2noc(-c3ccccc3[O-])n2)c1 (3D coordinates assigned)
[O-]c1ccc(O)c(-c2noc(-c3ccccc3[O-])n2)c1 (optimized conformer: 71.09373127341331 kcal/mol)

>  <smiles>  (2) 
Oc1ccc(O)c(-c2noc(-c3ccccc3O)n2)c1

>  <score_type>  (2) 
oracle

>  <origin>  (2) 
adgpu

>  <m_score__min__energy>  (2) 
-10.699999999999999

>  <m_primary>  (2) 
energy

$$$$
2:0
     RDKit          3D

 26 28  0  0  0  0  0  0  0  0999 V2000
   -1.1830   25.9730  -29.1440 N   0  0  0  0  0  0  0  0  0  0  0  0
   -1.8900   24.7580  -28.8670 C   0  0  0  0  0  0  0  0  0  0  0  0
   -1.4120   23.8920  -27.8760 C   0  0  0  0  0  0  0  0  0  0  0  0
   -2.0820   22.7020  -27.6000 C   0  0  0  0  0  0  0  0  0  0  0  0
   -3.2390   22.3680  -28.3050 C   0  0  0  0  0  0  0  0  0  0  0  0
   -3.7490   23.2240  -29.3000 C   0  0  0  0  0  0  0  0  0  0  0  0
   -4.9910   22.8270  -30.0150 C   0  0  0  0  0  0  0  0  0  0  0  0
   -5.1010   21.6570  -30.6980 N   0  0  0  0  0  0  0  0  0  0  0  0
   -6.3370   21.5060  -31.2390 C   0  0  0  0  0  0  0  0  0  0  0  0
   -6.7380   20.4030  -31.9960 C   0  0  0  0  0  0  0  0  0  0  0  0
   -8.0520   20.3710  -32.4980 C   0  0  0  0  0  0  0  0  0  0  0  0
   -8.9420   21.4320  -32.2370 C   0  0  0  0  0  0  0  0  0  0  0  0
   -8.5270   22.5350  -31.4730 C   0  0  0  0  0  0  0  0  0  0  0  0
   -7.2210   22.5410  -30.9900 C   0  0  0  0  0  0  0  0  0  0  0  0
   -6.4490   23.7000  -30.0590 S   0  0  0  0  0  0  0  0  0  0  0  0
   -3.0560   24.4240  -29.5850 C   0  0  0  0  0  0  0  0  0  0  0  0
   -3.4990   25.2830  -30.5860 O   0  0  0  0  0  0  0  0  0  0  0  0
   -1.2360   26.4170  -30.0880 H   0  0  0  0  0  0  0  0  0  0  0  0
   -0.6000   26.4430  -28.4170 H   0  0  0  0  0  0  0  0  0  0  0  0
   -0.5036   24.1523  -27.3129 H   0  0  0  0  0  0  0  0  0  0  0  0
   -1.6977   22.0237  -26.8240 H   0  0  0  0  0  0  0  0  0  0  0  0
   -3.7588   21.4248  -28.0808 H   0  0  0  0  0  0  0  0  0  0  0  0
   -6.0407   19.5760  -32.1957 H   0  0  0  0  0  0  0  0  0  0  0  0
   -8.3868   19.5121  -33.0982 H   0  0  0  0  0  0  0  0  0  0  0  0
   -9.9673   21.3961  -32.6338 H   0  0  0  0  0  0  0  0  0  0  0  0
   -9.2129   23.3689  -31.2626 H   0  0  0  0  0  0  0  0  0  0  0  0
  1  2  1  0
  2  3  2  0
  3  4  1  0
  4  5  2  0
  5  6  1  0
  6  7  1  0
  7  8  2  0
  8  9  1  0
  9 10  2  0
 10 11  1  0
 11 12  2  0
 12 13  1  0
 13 14  2  0
 14 15  1  0
  6 16  2  0
 16 17  1  0
 16  2  1  0
 15  7  1  0
 14  9  1  0
  1 18  1  0
  1 19  1  0
  3 20  1  0
  4 21  1  0
  5 22  1  0
 10 23  1  0
 11 24  1  0
 12 25  1  0
 13 26  1  0
M  CHG  1  17  -1
M  END
>  <UniqueID>  (3) 
3

>  <SMILES>  (3) 
Nc1cccc(-c2nc3ccccc3s2)c1[O-]

>  <Energy>  (3) 
66.91170314147239

>  <Genealogy>  (3) 
Nc1cccc(-c2nc3ccccc3s2)c1[O-] (protonated)
Nc1cccc(-c2nc3ccccc3s2)c1[O-] (3D coordinates assigned)
Nc1cccc(-c2nc3ccccc3s2)c1[O-] (optimized conformer: 66.91170314147239 kcal/mol)

>  <smiles>  (3) 
Nc1cccc(-c2nc3ccccc3s2)c1O

>  <score_type>  (3) 
oracle

>  <origin>  (3) 
adgpu

>  <m_score__min__energy>  (3) 
-10.619999999999999

>  <m_primary>  (3) 
energy

$$$$
3:0
     RDKit          3D

 43 45  0  0  1  0  0  0  0  0999 V2000
   -1.8820   25.2460  -27.4880 C   0  0  0  0  0  0  0  0  0  0  0  0
   -1.8370   25.3150  -28.8960 O   0  0  0  0  0  0  0  0  0  0  0  0
   -2.1460   24.1820  -29.6590 C   0  0  0  0  0  0  0  0  0  0  0  0
   -1.2980   23.0760  -29.5690 C   0  0  0  0  0  0  0  0  0  0  0  0
   -1.6170   21.9670  -30.3230 C   0  0  0  0  0  0  0  0  0  0  0  0
   -2.7220   21.9160  -31.1470 C   0  0  0  0  0  0  0  0  0  0  0  0
   -3.0410   20.7390  -31.9370 C   0  0  0  0  0  0  0  0  0  0  0  0
   -4.1500   19.9730  -31.7430 N   0  0  0  0  0  0  0  0  0  0  0  0
   -4.1220   18.9600  -32.6300 C   0  0  0  0  0  0  0  0  0  0  0  0
   -4.9570   17.9970  -32.8130 N   0  0  0  0  0  0  0  0  0  0  0  0
   -6.1150   17.9500  -31.9670 C   0  0  0  0  0  0  0  0  0  0  0  0
   -6.2340   17.0610  -31.0970 O   0  0  0  0  0  0  0  0  0  0  0  0
   -7.1980   18.9460  -32.0940 C   0  0  0  0  0  0  0  0  0  0  0  0
   -8.4950   18.5420  -32.4300 C   0  0  0  0  0  0  0  0  0  0  0  0
   -9.4800   19.5180  -32.5330 C   0  0  0  0  0  0  0  0  0  0  0  0
   -9.1970   20.8470  -32.3090 C   0  0  0  0  0  0  0  0  0  0  0  0
   -7.9180   21.2480  -31.9780 C   0  0  0  0  0  0  0  0  0  0  0  0
   -7.6390   22.6890  -31.7480 C   0  0  0  0  0  0  0  0  0  0  0  0
   -6.9230   20.2830  -31.8730 C   0  0  0  0  0  0  0  0  0  0  0  0
   -2.9920   19.0860  -33.3830 N   0  0  0  0  0  0  0  0  0  0  0  0
   -2.3660   20.1660  -32.9420 N   0  0  0  0  0  0  0  0  0  0  0  0
   -3.5390   23.0490  -31.2020 C   0  0  0  0  0  0  0  0  0  0  0  0
   -3.2620   24.1780  -30.4690 C   0  0  0  0  0  0  0  0  0  0  0  0
   -4.0270   25.3270  -30.4820 O   0  0  0  0  0  0  0  0  0  0  0  0
   -5.4260   25.2760  -30.2800 C   0  0  0  0  0  0  0  0  0  0  0  0
   -1.3281   26.0953  -27.0614 H   0  0  0  0  0  0  0  0  0  0  0  0
   -2.9288   25.2851  -27.1522 H   0  0  0  0  0  0  0  0  0  0  0  0
   -1.4242   24.3038  -27.1522 H   0  0  0  0  0  0  0  0  0  0  0  0
   -0.4092   23.0893  -28.9210 H   0  0  0  0  0  0  0  0  0  0  0  0
   -0.9623   21.0849  -30.2651 H   0  0  0  0  0  0  0  0  0  0  0  0
   -8.7288   17.4819  -32.6077 H   0  0  0  0  0  0  0  0  0  0  0  0
  -10.5058   19.2227  -32.7987 H   0  0  0  0  0  0  0  0  0  0  0  0
   -9.9977   21.5963  -32.3946 H   0  0  0  0  0  0  0  0  0  0  0  0
   -7.6007   22.8870  -30.6666 H   0  0  0  0  0  0  0  0  0  0  0  0
   -6.6731   22.9527  -32.2035 H   0  0  0  0  0  0  0  0  0  0  0  0
   -8.4367   23.2942  -32.2035 H   0  0  0  0  0  0  0  0  0  0  0  0
   -5.8995   20.5881  -31.6096 H   0  0  0  0  0  0  0  0  0  0  0  0
   -2.6990   18.4440  -34.1640 H   0  0  0  0  0  0  0  0  0  0  0  0
   -1.4530   20.5510  -33.3040 H   0  0  0  0  0  0  0  0  0  0  0  0
   -4.4280   23.0365  -31.8497 H   0  0  0  0  0  0  0  0  0  0  0  0
   -5.6407   25.2682  -29.2012 H   0  0  0  0  0  0  0  0  0  0  0  0
   -5.8954   26.1576  -30.7409 H   0  0  0  0  0  0  0  0  0  0  0  0
   -5.8300   24.3625  -30.7409 H   0  0  0  0  0  0  0  0  0  0  0  0
  1  2  1  0
  2  3  1  0
  3  4  2  0
  4  5  1  0
  5  6  2  0
  6  7  1  0
  7  8  2  0
  8  9  1  0
  9 10  2  0
 10 11  1  0
 11 12  2  0
 11 13  1  0
 13 14  2  0
 14 15  1  0
 15 16  2  0
 16 17  1  0
 17 18  1  0
 17 19  2  0
  9 20  1  0
 20 21  1  0
  6 22  1  0
 22 23  2  0
 23 24  1  0
 24 25  1  0
 23  3  1  0
 21  7  1  0
 19 13  1  0
  1 26  1  0
  1 27  1  0
  1 28  1  0
  4 29  1  0
  5 30  1  0
 14 31  1  0
 15 32  1  0
 16 33  1  0
 18 34  1  0
 18 35  1  0
 18 36  1  0
 19 37  1  0
 20 38  1  0
 21 39  1  0
 22 40  1  0
 25 41  1  0
 25 42  1  0
 25 43  1  0
M  END
>  <smiles>  (4) 
COc1ccc(-c2nc(=NC(=O)c3cccc(C)c3)[nH][nH]2)cc1OC

>  <score_type>  (4) 
oracle

>  <origin>  (4) 
adgpu

>  <m_score__min__energy>  (4) 
-8.8800000000000008

>  <m_primary>  (4) 
energy

$$$$
4:0
     RDKit          3D

 40 42  0  0  0  0  0  0  0  0999 V2000
   -1.1470   26.1430  -28.4280 C   0  0  0  0  0  0  0  0  0  0  0  0
   -1.8340   24.9310  -28.9630 C   0  0  0  0  0  0  0  0  0  0  0  0
   -3.1200   24.9210  -29.3790 N   0  0  0  0  0  0  0  0  0  0  0  0
   -3.4300   23.6790  -29.7240 N   0  0  0  0  0  0  0  0  0  0  0  0
   -4.7350   23.2930  -30.2020 C   0  0  0  0  0  0  0  0  0  0  0  0
   -4.8910   22.2460  -31.1290 C   0  0  0  0  0  0  0  0  0  0  0  0
   -6.1620   21.8920  -31.5890 C   0  0  0  0  0  0  0  0  0  0  0  0
   -7.2940   22.5860  -31.1410 C   0  0  0  0  0  0  0  0  0  0  0  0
   -8.8960   22.1270  -31.7070 S   0  0  0  0  0  0  0  0  0  0  0  0
   -8.7790   20.6340  -32.6650 C   0  0  0  0  0  0  0  0  0  0  0  0
   -9.4700   23.2260  -32.5580 O   0  0  0  0  0  0  0  0  0  0  0  0
   -9.8070   21.9020  -30.5330 O   0  0  0  0  0  0  0  0  0  0  0  0
   -7.1440   23.6330  -30.2230 C   0  0  0  0  0  0  0  0  0  0  0  0
   -5.8730   23.9890  -29.7640 C   0  0  0  0  0  0  0  0  0  0  0  0
   -2.3580   22.8880  -29.5040 C   0  0  0  0  0  0  0  0  0  0  0  0
   -2.3330   21.6400  -29.6720 O   0  0  0  0  0  0  0  0  0  0  0  0
   -1.3210   23.6470  -29.0170 C   0  0  0  0  0  0  0  0  0  0  0  0
    0.3080   23.0790  -28.5240 S   0  0  0  0  0  0  0  0  0  0  0  0
   -0.3240   21.5300  -27.8800 C   0  0  0  0  0  0  0  0  0  0  0  0
   -1.1610   21.5260  -26.7570 C   0  0  0  0  0  0  0  0  0  0  0  0
   -1.6590   20.3180  -26.2590 C   0  0  0  0  0  0  0  0  0  0  0  0
   -1.3180   19.1090  -26.8750 C   0  0  0  0  0  0  0  0  0  0  0  0
   -1.8230   17.9130  -26.3690 O   0  0  0  0  0  0  0  0  0  0  0  0
   -0.4730   19.1120  -27.9940 C   0  0  0  0  0  0  0  0  0  0  0  0
    0.0260   20.3200  -28.4930 C   0  0  0  0  0  0  0  0  0  0  0  0
   -1.1615   26.1173  -27.3284 H   0  0  0  0  0  0  0  0  0  0  0  0
   -0.1052   26.1596  -28.7806 H   0  0  0  0  0  0  0  0  0  0  0  0
   -1.6679   27.0454  -28.7806 H   0  0  0  0  0  0  0  0  0  0  0  0
   -4.0068   21.7028  -31.4938 H   0  0  0  0  0  0  0  0  0  0  0  0
   -6.2745   21.0652  -32.3057 H   0  0  0  0  0  0  0  0  0  0  0  0
   -8.7112   19.7689  -31.9890 H   0  0  0  0  0  0  0  0  0  0  0  0
   -9.6721   20.5345  -33.2994 H   0  0  0  0  0  0  0  0  0  0  0  0
   -7.8813   20.6748  -33.2994 H   0  0  0  0  0  0  0  0  0  0  0  0
   -8.0295   24.1768  -29.8621 H   0  0  0  0  0  0  0  0  0  0  0  0
   -5.7632   24.8216  -29.0535 H   0  0  0  0  0  0  0  0  0  0  0  0
   -1.4268   22.4740  -26.2664 H   0  0  0  0  0  0  0  0  0  0  0  0
   -2.3208   20.3183  -25.3804 H   0  0  0  0  0  0  0  0  0  0  0  0
   -1.2190   17.1200  -26.1850 H   0  0  0  0  0  0  0  0  0  0  0  0
   -0.2021   18.1632  -28.4802 H   0  0  0  0  0  0  0  0  0  0  0  0
    0.6936   20.3197  -29.3672 H   0  0  0  0  0  0  0  0  0  0  0  0
  1  2  1  0
  2  3  1  0
  3  4  1  0
  4  5  1  0
  5  6  2  0
  6  7  1  0
  7  8  2  0
  8  9  1  0
  9 10  1  0
  9 11  2  0
  9 12  2  0
  8 13  1  0
 13 14  2  0
  4 15  1  0
 15 16  2  0
 15 17  1  0
 17 18  1  0
 18 19  1  0
 19 20  2  0
 20 21  1  0
 21 22  2  0
 22 23  1  0
 22 24  1  0
 24 25  2  0
 17  2  2  0
 25 19  1  0
 14  5  1  0
  1 26  1  0
  1 27  1  0
  1 28  1  0
  6 29  1  0
  7 30  1  0
 10 31  1  0
 10 32  1  0
 10 33  1  0
 13 34  1  0
 14 35  1  0
 20 36  1  0
 21 37  1  0
 23 38  1  0
 24 39  1  0
 25 40  1  0
M  CHG  1   3  -1
M  END
>  <UniqueID>  (5) 
4

>  <SMILES>  (5) 
Cc1[n-]n(-c2ccc(S(C)(=O)=O)cc2)c(=O)c1Sc1ccc(O)cc1

>  <Energy>  (5) 
70.42641116279982

>  <Genealogy>  (5) 
Cc1[n-]n(-c2ccc(S(C)(=O)=O)cc2)c(=O)c1Sc1ccc(O)cc1 (protonated)
Cc1[n-]n(-c2ccc(S(C)(=O)=O)cc2)c(=O)c1Sc1ccc(O)cc1 (3D coordinates assigned)
Cc1[n-]n(-c2ccc(S(C)(=O)=O)cc2)c(=O)c1Sc1ccc(O)cc1 (optimized conformer: 70.42641116279982 kcal/mol)

>  <smiles>  (5) 
Cc1[nH]n(-c2ccc(S(C)(=O)=O)cc2)c(=O)c1Sc1ccc(O)cc1

>  <score_type>  (5) 
oracle

>  <origin>  (5) 
adgpu

>  <m_score__min__energy>  (5) 
-9.0899999999999999

>  <m_primary>  (5) 
energy

$$$$
5:0
     RDKit          3D

 37 38  0  0  0  0  0  0  0  0999 V2000
   -7.4550   22.9430  -31.9810 C   0  0  0  0  0  0  0  0  0  0  0  0
   -7.1010   21.8150  -32.7740 O   0  0  0  0  0  0  0  0  0  0  0  0
   -7.5270   20.5000  -32.5270 C   0  0  0  0  0  0  0  0  0  0  0  0
   -8.7230   20.2270  -31.8310 C   0  0  0  0  0  0  0  0  0  0  0  0
   -9.1150   18.9080  -31.5900 C   0  0  0  0  0  0  0  0  0  0  0  0
   -8.3240   17.8490  -32.0350 C   0  0  0  0  0  0  0  0  0  0  0  0
   -7.1400   18.1040  -32.7280 C   0  0  0  0  0  0  0  0  0  0  0  0
   -6.7360   19.4250  -32.9880 C   0  0  0  0  0  0  0  0  0  0  0  0
   -5.4360   19.6770  -33.7090 C   0  0  0  0  0  0  0  0  0  0  0  0
   -4.4430   20.3080  -32.7810 C   0  0  0  0  0  0  0  0  0  0  0  0
   -3.5460   19.5930  -32.2590 O   0  0  0  0  0  0  0  0  0  0  0  0
   -4.4670   21.7280  -32.5630 N   0  0  0  0  0  0  0  0  0  0  0  0
   -3.6570   22.4060  -31.5870 C   0  0  0  0  0  0  0  0  0  0  0  0
   -2.3400   21.9990  -31.3130 C   0  0  0  0  0  0  0  0  0  0  0  0
   -1.5830   22.6630  -30.3430 C   0  0  0  0  0  0  0  0  0  0  0  0
   -2.1370   23.7280  -29.6220 C   0  0  0  0  0  0  0  0  0  0  0  0
   -1.1790   24.5740  -28.4100 S   0  0  0  0  0  0  0  0  0  0  0  0
   -1.2710   26.2760  -28.6870 N   0  0  0  0  0  0  0  0  0  0  0  0
    0.2550   24.1310  -28.4930 O   0  0  0  0  0  0  0  0  0  0  0  0
   -1.7020   24.2590  -27.0380 O   0  0  0  0  0  0  0  0  0  0  0  0
   -3.4540   24.1270  -29.8820 C   0  0  0  0  0  0  0  0  0  0  0  0
   -4.2120   23.4640  -30.8500 C   0  0  0  0  0  0  0  0  0  0  0  0
   -7.3732   22.6823  -30.9155 H   0  0  0  0  0  0  0  0  0  0  0  0
   -6.7757   23.7781  -32.2074 H   0  0  0  0  0  0  0  0  0  0  0  0
   -8.4896   23.2402  -32.2074 H   0  0  0  0  0  0  0  0  0  0  0  0
   -9.3508   21.0576  -31.4759 H   0  0  0  0  0  0  0  0  0  0  0  0
  -10.0501   18.7041  -31.0478 H   0  0  0  0  0  0  0  0  0  0  0  0
   -8.6338   16.8118  -31.8395 H   0  0  0  0  0  0  0  0  0  0  0  0
   -6.5181   17.2650  -33.0734 H   0  0  0  0  0  0  0  0  0  0  0  0
   -5.0334   18.7216  -34.0768 H   0  0  0  0  0  0  0  0  0  0  0  0
   -5.6202   20.3572  -34.5537 H   0  0  0  0  0  0  0  0  0  0  0  0
   -5.0400   22.3100  -33.2140 H   0  0  0  0  0  0  0  0  0  0  0  0
   -1.9025   21.1537  -31.8645 H   0  0  0  0  0  0  0  0  0  0  0  0
   -0.5479   22.3475  -30.1454 H   0  0  0  0  0  0  0  0  0  0  0  0
   -1.2360   26.4190  -29.7220 H   0  0  0  0  0  0  0  0  0  0  0  0
   -3.8932   24.9656  -29.3218 H   0  0  0  0  0  0  0  0  0  0  0  0
   -5.2511   23.7731  -31.0361 H   0  0  0  0  0  0  0  0  0  0  0  0
  1  2  1  0
  2  3  1  0
  3  4  2  0
  4  5  1  0
  5  6  2  0
  6  7  1  0
  7  8  2  0
  8  9  1  0
  9 10  1  0
 10 11  2  0
 10 12  1  0
 12 13  1  0
 13 14  2  0
 14 15  1  0
 15 16  2  0
 16 17  1  0
 17 18  1  0
 17 19  2  0
 17 20  2  0
 16 21  1  0
 21 22  2  0
  8  3  1  0
 22 13  1  0
  1 23  1  0
  1 24  1  0
  1 25  1  0
  4 26  1  0
  5 27  1  0
  6 28  1  0
  7 29  1  0
  9 30  1  0
  9 31  1  0
 12 32  1  0
 14 33  1  0
 15 34  1  0
 18 35  1  0
 21 36  1  0
 22 37  1  0
M  CHG  1  18  -1
M  END
>  <UniqueID>  (6) 
5

>  <SMILES>  (6) 
COc1ccccc1CC(=O)Nc1ccc(S([NH-])(=O)=O)cc1

>  <Energy>  (6) 
38.20300437382627

>  <Genealogy>  (6) 
COc1ccccc1CC(=O)Nc1ccc(S([NH-])(=O)=O)cc1 (protonated)
COc1ccccc1CC(=O)Nc1ccc(S([NH-])(=O)=O)cc1 (3D coordinates assigned)
COc1ccccc1CC(=O)Nc1ccc(S([NH-])(=O)=O)cc1 (optimized conformer: 38.20300437382627 kcal/mol)

>  <smiles>  (6) 
COc1ccccc1CC(=O)Nc1ccc(S(N)(=O)=O)cc1

>  <score_type>  (6) 
oracle

>  <origin>  (6) 
adgpu

>  <m_score__min__energy>  (6) 
-9.6400000000000006

>  <m_primary>  (6) 
energy

$$$$
6:0
     RDKit          3D

 41 44  0  0  0  0  0  0  0  0999 V2000
    3.0360   14.9580  -26.7060 N   0  0  0  0  0  0  0  0  0  0  0  0
    2.3360   16.1430  -27.0910 C   0  0  0  0  0  0  0  0  0  0  0  0
    3.0450   17.3020  -27.4310 C   0  0  0  0  0  0  0  0  0  0  0  0
    2.3630   18.4620  -27.8080 C   0  0  0  0  0  0  0  0  0  0  0  0
    0.9560   18.4810  -27.8490 C   0  0  0  0  0  0  0  0  0  0  0  0
    0.2280   19.7120  -28.2480 C   0  0  0  0  0  0  0  0  0  0  0  0
   -0.9560   19.6270  -28.9980 C   0  0  0  0  0  0  0  0  0  0  0  0
   -1.6460   20.7800  -29.3770 C   0  0  0  0  0  0  0  0  0  0  0  0
   -1.1630   22.0570  -29.0230 C   0  0  0  0  0  0  0  0  0  0  0  0
   -1.8410   23.2480  -29.3960 C   0  0  0  0  0  0  0  0  0  0  0  0
   -3.0660   23.2200  -30.2300 C   0  0  0  0  0  0  0  0  0  0  0  0
   -4.2090   23.9270  -29.8280 C   0  0  0  0  0  0  0  0  0  0  0  0
   -5.3610   23.9080  -30.6200 C   0  0  0  0  0  0  0  0  0  0  0  0
   -6.4930   24.6070  -30.2150 O   0  0  0  0  0  0  0  0  0  0  0  0
   -5.3760   23.1870  -31.8180 C   0  0  0  0  0  0  0  0  0  0  0  0
   -4.2350   22.4840  -32.2300 C   0  0  0  0  0  0  0  0  0  0  0  0
   -4.2380   21.7640  -33.4220 O   0  0  0  0  0  0  0  0  0  0  0  0
   -3.0830   22.5040  -31.4370 C   0  0  0  0  0  0  0  0  0  0  0  0
   -1.3320   24.4930  -28.9800 C   0  0  0  0  0  0  0  0  0  0  0  0
   -1.9770   25.6740  -29.3350 O   0  0  0  0  0  0  0  0  0  0  0  0
   -0.1650   24.5610  -28.2170 C   0  0  0  0  0  0  0  0  0  0  0  0
    0.5130   23.3980  -27.8600 C   0  0  0  0  0  0  0  0  0  0  0  0
    0.0250   22.1450  -28.2520 C   0  0  0  0  0  0  0  0  0  0  0  0
    0.7090   20.9780  -27.8780 C   0  0  0  0  0  0  0  0  0  0  0  0
    0.2500   17.3130  -27.5040 C   0  0  0  0  0  0  0  0  0  0  0  0
    0.9360   16.1540  -27.1290 C   0  0  0  0  0  0  0  0  0  0  0  0
    3.2630   14.2190  -27.4090 H   0  0  0  0  0  0  0  0  0  0  0  0
    3.3350   14.8100  -25.7160 H   0  0  0  0  0  0  0  0  0  0  0  0
    4.1446   17.2992  -27.4011 H   0  0  0  0  0  0  0  0  0  0  0  0
    2.9295   19.3665  -28.0745 H   0  0  0  0  0  0  0  0  0  0  0  0
   -1.3445   18.6403  -29.2904 H   0  0  0  0  0  0  0  0  0  0  0  0
   -2.5760   20.6916  -29.9577 H   0  0  0  0  0  0  0  0  0  0  0  0
   -4.1989   24.4976  -28.8876 H   0  0  0  0  0  0  0  0  0  0  0  0
   -6.2844   23.1713  -32.4382 H   0  0  0  0  0  0  0  0  0  0  0  0
   -4.5620   22.1760  -34.2890 H   0  0  0  0  0  0  0  0  0  0  0  0
   -2.1860   21.9559  -31.7609 H   0  0  0  0  0  0  0  0  0  0  0  0
    0.2216   25.5394  -27.8957 H   0  0  0  0  0  0  0  0  0  0  0  0
    1.4370   23.4639  -27.2668 H   0  0  0  0  0  0  0  0  0  0  0  0
    1.6337   21.0562  -27.2875 H   0  0  0  0  0  0  0  0  0  0  0  0
   -0.8497   17.3122  -27.5297 H   0  0  0  0  0  0  0  0  0  0  0  0
    0.3738   15.2468  -26.8626 H   0  0  0  0  0  0  0  0  0  0  0  0
  1  2  1  0
  2  3  2  0
  3  4  1  0
  4  5  2  0
  5  6  1  0
  6  7  2  0
  7  8  1  0
  8  9  2  0
  9 10  1  0
 10 11  1  0
 11 12  2  0
 12 13  1  0
 13 14  1  0
 13 15  2  0
 15 16  1  0
 16 17  1  0
 16 18  2  0
 10 19  2  0
 19 20  1  0
 19 21  1  0
 21 22  2  0
 22 23  1  0
 23 24  2  0
  5 25  1  0
 25 26  2  0
 26  2  1  0
 24  6  1  0
 23  9  1  0
 18 11  1  0
  1 27  1  0
  1 28  1  0
  3 29  1  0
  4 30  1  0
  7 31  1  0
  8 32  1  0
 12 33  1  0
 15 34  1  0
 17 35  1  0
 18 36  1  0
 21 37  1  0
 22 38  1  0
 24 39  1  0
 25 40  1  0
 26 41  1  0
M  CHG  2  14  -1  20  -1
M  END
>  <UniqueID>  (7) 
6

>  <SMILES>  (7) 
Nc1ccc(-c2ccc3c(-c4cc([O-])cc(O)c4)c([O-])ccc3c2)cc1

>  <Energy>  (7) 
62.856898959777105

>  <Genealogy>  (7) 
Nc1ccc(-c2ccc3c(-c4cc([O-])cc(O)c4)c([O-])ccc3c2)cc1 (protonated)
Nc1ccc(-c2ccc3c(-c4cc([O-])cc(O)c4)c([O-])ccc3c2)cc1 (3D coordinates assigned)
Nc1ccc(-c2ccc3c(-c4cc([O-])cc(O)c4)c([O-])ccc3c2)cc1 (optimized conformer: 62.856898959777105 kcal/mol)

>  <smiles>  (7) 
Nc1ccc(-c2ccc3c(-c4cc(O)cc(O)c4)c(O)ccc3c2)cc1

>  <score_type>  (7) 
oracle

>  <origin>  (7) 
adgpu

>  <m_score__min__energy>  (7) 
-10.130000000000001

>  <m_primary>  (7) 
energy

$$$$
7:0
     RDKit          3D

 41 43  0  0  0  0  0  0  0  0999 V2000
   -1.3070   25.7130  -28.9790 N   0  0  0  0  0  0  0  0  0  0  0  0
   -0.8180   24.1160  -28.5370 S   0  0  0  0  0  0  0  0  0  0  0  0
    0.6630   23.9660  -28.7500 O   0  0  0  0  0  0  0  0  0  0  0  0
   -1.1210   23.8850  -27.0830 O   0  0  0  0  0  0  0  0  0  0  0  0
   -1.6840   22.9430  -29.5230 C   0  0  0  0  0  0  0  0  0  0  0  0
   -2.8230   22.3000  -29.0200 C   0  0  0  0  0  0  0  0  0  0  0  0
   -3.5180   21.3790  -29.8100 C   0  0  0  0  0  0  0  0  0  0  0  0
   -3.0930   21.1050  -31.1190 C   0  0  0  0  0  0  0  0  0  0  0  0
   -3.8110   20.1490  -31.9180 N   0  0  0  0  0  0  0  0  0  0  0  0
   -3.2430   19.0510  -32.3930 N   0  0  0  0  0  0  0  0  0  0  0  0
   -4.1530   18.4170  -33.1580 C   0  0  0  0  0  0  0  0  0  0  0  0
   -3.8750   17.1620  -33.9230 C   0  0  0  0  0  0  0  0  0  0  0  0
   -2.5100   16.9950  -34.0750 F   0  0  0  0  0  0  0  0  0  0  0  0
   -4.4630   17.2280  -35.1720 F   0  0  0  0  0  0  0  0  0  0  0  0
   -4.3920   16.0810  -33.2340 F   0  0  0  0  0  0  0  0  0  0  0  0
   -5.3290   19.1410  -33.1930 C   0  0  0  0  0  0  0  0  0  0  0  0
   -5.0830   20.2310  -32.3780 C   0  0  0  0  0  0  0  0  0  0  0  0
   -6.0880   21.2520  -32.0070 C   0  0  0  0  0  0  0  0  0  0  0  0
   -7.4490   21.0590  -32.2990 C   0  0  0  0  0  0  0  0  0  0  0  0
   -8.3890   22.0300  -31.9470 C   0  0  0  0  0  0  0  0  0  0  0  0
   -7.9800   23.2070  -31.3170 C   0  0  0  0  0  0  0  0  0  0  0  0
   -6.6220   23.4250  -31.0450 C   0  0  0  0  0  0  0  0  0  0  0  0
   -6.1030   24.9030  -30.2410 S   0  0  0  0  0  0  0  0  0  0  0  0
   -5.0980   24.5000  -28.8930 N   0  0  0  0  0  0  0  0  0  0  0  0
   -5.3350   25.7610  -31.2070 O   0  0  0  0  0  0  0  0  0  0  0  0
   -7.3010   25.6710  -29.7590 O   0  0  0  0  0  0  0  0  0  0  0  0
   -5.6810   22.4460  -31.3900 C   0  0  0  0  0  0  0  0  0  0  0  0
   -1.9420   21.7400  -31.6150 C   0  0  0  0  0  0  0  0  0  0  0  0
   -1.2480   22.6600  -30.8240 C   0  0  0  0  0  0  0  0  0  0  0  0
   -1.6130   25.6740  -29.9770 H   0  0  0  0  0  0  0  0  0  0  0  0
   -3.1715   22.5205  -28.0002 H   0  0  0  0  0  0  0  0  0  0  0  0
   -4.4024   20.8667  -29.4033 H   0  0  0  0  0  0  0  0  0  0  0  0
   -6.2513   18.9044  -33.7438 H   0  0  0  0  0  0  0  0  0  0  0  0
   -7.7752   20.1394  -32.8069 H   0  0  0  0  0  0  0  0  0  0  0  0
   -9.4545   21.8671  -32.1667 H   0  0  0  0  0  0  0  0  0  0  0  0
   -8.7250   23.9650  -31.0334 H   0  0  0  0  0  0  0  0  0  0  0  0
   -4.6380   25.3850  -28.5810 H   0  0  0  0  0  0  0  0  0  0  0  0
   -5.7320   24.2010  -28.1180 H   0  0  0  0  0  0  0  0  0  0  0  0
   -4.6152   22.6139  -31.1759 H   0  0  0  0  0  0  0  0  0  0  0  0
   -1.5854   21.5121  -32.6303 H   0  0  0  0  0  0  0  0  0  0  0  0
   -0.3560   23.1638  -31.2246 H   0  0  0  0  0  0  0  0  0  0  0  0
  1  2  1  0
  2  3  2  0
  2  4  2  0
  2  5  1  0
  5  6  2  0
  6  7  1  0
  7  8  2  0
  8  9  1  0
  9 10  1  0
 10 11  2  0
 11 12  1  0
 12 13  1  0
 12 14  1  0
 12 15  1  0
 11 16  1  0
 16 17  2  0
 17 18  1  0
 18 19  2  0
 19 20  1  0
 20 21  2  0
 21 22  1  0
 22 23  1  0
 23 24  1  0
 23 25  2  0
 23 26  2  0
 22 27  2  0
  8 28  1  0
 28 29  2  0
 29  5  1  0
 17  9  1  0
 27 18  1  0
  1 30  1  0
  6 31  1  0
  7 32  1  0
 16 33  1  0
 19 34  1  0
 20 35  1  0
 21 36  1  0
 24 37  1  0
 24 38  1  0
 27 39  1  0
 28 40  1  0
 29 41  1  0
M  CHG  1   1  -1
M  END
>  <UniqueID>  (8) 
7

>  <SMILES>  (8) 
[NH-]S(=O)(=O)c1ccc(-n2nc(C(F)(F)F)cc2-c2cccc(S(N)(=O)=O)c2)cc1

>  <Energy>  (8) 
79.57804998149457

>  <Genealogy>  (8) 
[NH-]S(=O)(=O)c1ccc(-n2nc(C(F)(F)F)cc2-c2cccc(S(N)(=O)=O)c2)cc1 (protonated)
[NH-]S(=O)(=O)c1ccc(-n2nc(C(F)(F)F)cc2-c2cccc(S(N)(=O)=O)c2)cc1 (3D coordinates assigned)
[NH-]S(=O)(=O)c1ccc(-n2nc(C(F)(F)F)cc2-c2cccc(S(N)(=O)=O)c2)cc1 (optimized conformer: 79.57804998149457 kcal/mol)

>  <smiles>  (8) 
NS(=O)(=O)c1ccc(-n2nc(C(F)(F)F)cc2-c2cccc(S(N)(=O)=O)c2)cc1

>  <score_type>  (8) 
oracle

>  <origin>  (8) 
adgpu

>  <m_score__min__energy>  (8) 
-11.369999999999999

>  <m_primary>  (8) 
energy

$$$$
8:0
     RDKit          3D

 49 51  0  0  0  0  0  0  0  0999 V2000
   -6.3740   23.9310  -31.0360 C   0  0  0  0  0  0  0  0  0  0  0  0
   -4.8380   24.4750  -30.3180 S   0  0  0  0  0  0  0  0  0  0  0  0
   -4.7740   25.9760  -30.2920 O   0  0  0  0  0  0  0  0  0  0  0  0
   -4.7580   23.9630  -28.9080 O   0  0  0  0  0  0  0  0  0  0  0  0
   -3.5000   23.8370  -31.2180 N   0  0  0  0  0  0  0  0  0  0  0  0
   -3.3170   22.4630  -31.5890 C   0  0  0  0  0  0  0  0  0  0  0  0
   -4.0400   21.9640  -32.6790 C   0  0  0  0  0  0  0  0  0  0  0  0
   -3.8740   20.6400  -33.0930 C   0  0  0  0  0  0  0  0  0  0  0  0
   -2.9910   19.8000  -32.4120 C   0  0  0  0  0  0  0  0  0  0  0  0
   -2.2940   20.2730  -31.2880 C   0  0  0  0  0  0  0  0  0  0  0  0
   -1.3130   19.4520  -30.6420 N   0  0  0  0  0  0  0  0  0  0  0  0
   -0.0280   19.3450  -30.8680 C   0  0  0  0  0  0  0  0  0  0  0  0
    0.6170   19.8530  -32.0350 C   0  0  0  0  0  0  0  0  0  0  0  0
   -0.0880   20.4040  -33.1680 C   0  0  0  0  0  0  0  0  0  0  0  0
   -0.6460   20.8430  -34.0830 N   0  0  0  0  0  0  0  0  0  0  0  0
    2.0000   19.6880  -32.1730 C   0  0  0  0  0  0  0  0  0  0  0  0
    2.7150   19.0190  -31.2350 N   0  0  0  0  0  0  0  0  0  0  0  0
    2.1290   18.4940  -30.1320 C   0  0  0  0  0  0  0  0  0  0  0  0
    0.7570   18.6540  -29.9110 C   0  0  0  0  0  0  0  0  0  0  0  0
    0.1860   18.0640  -28.6740 C   0  0  0  0  0  0  0  0  0  0  0  0
   -0.4780   18.7420  -27.7230 C   0  0  0  0  0  0  0  0  0  0  0  0
   -0.6730   20.2080  -27.6990 C   0  0  0  0  0  0  0  0  0  0  0  0
    0.4030   21.1000  -27.8440 C   0  0  0  0  0  0  0  0  0  0  0  0
    0.1800   22.4800  -27.8480 C   0  0  0  0  0  0  0  0  0  0  0  0
   -1.1180   22.9860  -27.6970 C   0  0  0  0  0  0  0  0  0  0  0  0
   -1.3980   24.7260  -27.7210 S   0  0  0  0  0  0  0  0  0  0  0  0
   -2.4060   25.1630  -29.0580 N   0  0  0  0  0  0  0  0  0  0  0  0
   -2.0590   25.1410  -26.4370 O   0  0  0  0  0  0  0  0  0  0  0  0
   -0.0860   25.4460  -27.8610 O   0  0  0  0  0  0  0  0  0  0  0  0
   -2.1860   22.1000  -27.5070 C   0  0  0  0  0  0  0  0  0  0  0  0
   -1.9640   20.7190  -27.5000 C   0  0  0  0  0  0  0  0  0  0  0  0
   -2.4340   21.6110  -30.9000 C   0  0  0  0  0  0  0  0  0  0  0  0
   -7.0845   23.6794  -30.2348 H   0  0  0  0  0  0  0  0  0  0  0  0
   -6.7930   24.7354  -31.6584 H   0  0  0  0  0  0  0  0  0  0  0  0
   -6.1934   23.0422  -31.6584 H   0  0  0  0  0  0  0  0  0  0  0  0
   -4.7438   22.6190  -33.2133 H   0  0  0  0  0  0  0  0  0  0  0  0
   -4.4395   20.2591  -33.9562 H   0  0  0  0  0  0  0  0  0  0  0  0
   -2.8409   18.7661  -32.7562 H   0  0  0  0  0  0  0  0  0  0  0  0
    2.5126   20.1057  -33.0521 H   0  0  0  0  0  0  0  0  0  0  0  0
    2.7373   17.9372  -29.4040 H   0  0  0  0  0  0  0  0  0  0  0  0
    0.3175   16.9823  -28.5237 H   0  0  0  0  0  0  0  0  0  0  0  0
   -0.9113   18.1603  -26.8960 H   0  0  0  0  0  0  0  0  0  0  0  0
    1.4257   20.7105  -27.9549 H   0  0  0  0  0  0  0  0  0  0  0  0
    1.0268   23.1714  -27.9702 H   0  0  0  0  0  0  0  0  0  0  0  0
   -2.6510   24.2820  -29.5630 H   0  0  0  0  0  0  0  0  0  0  0  0
   -3.2940   25.5500  -28.6680 H   0  0  0  0  0  0  0  0  0  0  0  0
   -3.2037   22.4919  -27.3627 H   0  0  0  0  0  0  0  0  0  0  0  0
   -2.8061   20.0302  -27.3376 H   0  0  0  0  0  0  0  0  0  0  0  0
   -1.8505   21.9984  -30.0518 H   0  0  0  0  0  0  0  0  0  0  0  0
  1  2  1  0
  2  3  2  0
  2  4  2  0
  2  5  1  0
  5  6  1  0
  6  7  2  0
  7  8  1  0
  8  9  2  0
  9 10  1  0
 10 11  1  0
 11 12  2  3
 12 13  1  0
 13 14  1  0
 14 15  3  0
 13 16  2  0
 16 17  1  0
 17 18  1  0
 18 19  2  0
 19 20  1  0
 20 21  2  3
 21 22  1  0
 22 23  2  0
 23 24  1  0
 24 25  2  0
 25 26  1  0
 26 27  1  0
 26 28  2  0
 26 29  2  0
 25 30  1  0
 30 31  2  0
 10 32  2  0
 32  6  1  0
 19 12  1  0
 31 22  1  0
  1 33  1  0
  1 34  1  0
  1 35  1  0
  7 36  1  0
  8 37  1  0
  9 38  1  0
 16 39  1  0
 18 40  1  0
 20 41  1  0
 21 42  1  0
 23 43  1  0
 24 44  1  0
 27 45  1  0
 27 46  1  0
 30 47  1  0
 31 48  1  0
 32 49  1  0
M  CHG  2   5  -1  17  -1
M  END
>  <UniqueID>  (9) 
8

>  <SMILES>  (9) 
CS(=O)(=O)[N-]c1cccc(N=c2c(C#N)c[n-]cc2C=Cc2ccc(S(N)(=O)=O)cc2)c1

>  <Energy>  (9) 
73.37121588705233

>  <Genealogy>  (9) 
CS(=O)(=O)[N-]c1cccc(N=c2c(C#N)c[n-]cc2C=Cc2ccc(S(N)(=O)=O)cc2)c1 (protonated)
CS(=O)(=O)[N-]c1cccc(N=c2c(C#N)c[n-]cc2C=Cc2ccc(S(N)(=O)=O)cc2)c1 (3D coordinates assigned)
CS(=O)(=O)[N-]c1cccc(N=c2c(C#N)c[n-]cc2C=Cc2ccc(S(N)(=O)=O)cc2)c1 (optimized conformer: 73.37121588705233 kcal/mol)

>  <smiles>  (9) 
CS(=O)(=O)Nc1cccc(N=c2c(C#N)c[nH]cc2C=Cc2ccc(S(N)(=O)=O)cc2)c1

>  <score_type>  (9) 
oracle

>  <origin>  (9) 
adgpu

>  <m_score__min__energy>  (9) 
-9.6600000000000001

>  <m_primary>  (9) 
energy

$$$$
9:0
     RDKit          3D

 34 36  0  0  0  0  0  0  0  0999 V2000
   -7.2080   13.2730  -34.6840 C   0  0  0  0  0  0  0  0  0  0  0  0
   -5.9730   13.9470  -34.4640 O   0  0  0  0  0  0  0  0  0  0  0  0
   -5.8960   15.3210  -34.2240 C   0  0  0  0  0  0  0  0  0  0  0  0
   -6.9260   15.9470  -33.6030 N   0  0  0  0  0  0  0  0  0  0  0  0
   -6.8740   17.2820  -33.3590 C   0  0  0  0  0  0  0  0  0  0  0  0
   -7.8760   17.8570  -32.7600 N   0  0  0  0  0  0  0  0  0  0  0  0
   -7.9870   19.2480  -32.4270 C   0  0  0  0  0  0  0  0  0  0  0  0
   -6.9430   20.0500  -32.1260 N   0  0  0  0  0  0  0  0  0  0  0  0
   -7.3360   21.3250  -31.8480 C   0  0  0  0  0  0  0  0  0  0  0  0
   -6.3470   22.3750  -31.4850 C   0  0  0  0  0  0  0  0  0  0  0  0
   -4.9700   22.0790  -31.5140 C   0  0  0  0  0  0  0  0  0  0  0  0
   -4.0250   23.0520  -31.1780 C   0  0  0  0  0  0  0  0  0  0  0  0
   -4.4380   24.3340  -30.8130 C   0  0  0  0  0  0  0  0  0  0  0  0
   -3.4950   25.3000  -30.4800 O   0  0  0  0  0  0  0  0  0  0  0  0
   -5.7980   24.6460  -30.7850 C   0  0  0  0  0  0  0  0  0  0  0  0
   -6.7500   23.6760  -31.1190 C   0  0  0  0  0  0  0  0  0  0  0  0
   -8.7180   21.5300  -31.9280 C   0  0  0  0  0  0  0  0  0  0  0  0
   -9.4430   20.0740  -32.3590 S   0  0  0  0  0  0  0  0  0  0  0  0
   -5.7770   17.9890  -33.7420 N   0  0  0  0  0  0  0  0  0  0  0  0
   -4.7420   17.3710  -34.3640 C   0  0  0  0  0  0  0  0  0  0  0  0
   -3.6270   18.1190  -34.7480 O   0  0  0  0  0  0  0  0  0  0  0  0
   -3.0270   19.0940  -33.9030 C   0  0  0  0  0  0  0  0  0  0  0  0
   -4.8040   16.0350  -34.6040 N   0  0  0  0  0  0  0  0  0  0  0  0
   -7.6666   13.0227  -33.7160 H   0  0  0  0  0  0  0  0  0  0  0  0
   -7.8859   13.9262  -35.2530 H   0  0  0  0  0  0  0  0  0  0  0  0
   -7.0254   12.3495  -35.2530 H   0  0  0  0  0  0  0  0  0  0  0  0
   -4.6354   21.0720  -31.8040 H   0  0  0  0  0  0  0  0  0  0  0  0
   -2.9529   22.8068  -31.2013 H   0  0  0  0  0  0  0  0  0  0  0  0
   -6.1227   25.6575  -30.4995 H   0  0  0  0  0  0  0  0  0  0  0  0
   -7.8200   23.9301  -31.0959 H   0  0  0  0  0  0  0  0  0  0  0  0
   -9.2406   22.4798  -31.7412 H   0  0  0  0  0  0  0  0  0  0  0  0
   -3.1952   18.8207  -32.8508 H   0  0  0  0  0  0  0  0  0  0  0  0
   -1.9461   19.1368  -34.1025 H   0  0  0  0  0  0  0  0  0  0  0  0
   -3.4759   20.0782  -34.1025 H   0  0  0  0  0  0  0  0  0  0  0  0
  1  2  1  0
  2  3  1  0
  3  4  2  0
  4  5  1  0
  5  6  2  3
  6  7  1  0
  7  8  2  0
  8  9  1  0
  9 10  1  0
 10 11  2  0
 11 12  1  0
 12 13  2  0
 13 14  1  0
 13 15  1  0
 15 16  2  0
  9 17  2  0
 17 18  1  0
  5 19  1  0
 19 20  2  0
 20 21  1  0
 21 22  1  0
 20 23  1  0
 23  3  1  0
 18  7  1  0
 16 10  1  0
  1 24  1  0
  1 25  1  0
  1 26  1  0
 11 27  1  0
 12 28  1  0
 15 29  1  0
 16 30  1  0
 17 31  1  0
 22 32  1  0
 22 33  1  0
 22 34  1  0
M  CHG  2  14  -1  23  -1
M  END
>  <UniqueID>  (10) 
9

>  <SMILES>  (10) 
COc1nc(=Nc2nc(-c3ccc([O-])cc3)cs2)nc(OC)[n-]1

>  <Energy>  (10) 
67.23697153284373

>  <Genealogy>  (10) 
COc1nc(=Nc2nc(-c3ccc([O-])cc3)cs2)nc(OC)[n-]1 (protonated)
COc1nc(=Nc2nc(-c3ccc([O-])cc3)cs2)nc(OC)[n-]1 (3D coordinates assigned)
COc1nc(=Nc2nc(-c3ccc([O-])cc3)cs2)nc(OC)[n-]1 (optimized conformer: 67.23697153284373 kcal/mol)

>  <smiles>  (10) 
COc1nc(=Nc2nc(-c3ccc(O)cc3)cs2)nc(OC)[nH]1

>  <score_type>  (10) 
oracle

>  <origin>  (10) 
adgpu

>  <m_score__min__energy>  (10) 
-10.52

>  <m_primary>  (10) 
energy

$$$$
10:0
     RDKit          3D

 44 46  0  0  0  0  0  0  0  0999 V2000
   -0.7390   26.6750  -23.7170 C   0  0  0  0  0  0  0  0  0  0  0  0
   -1.7610   26.5920  -24.7060 O   0  0  0  0  0  0  0  0  0  0  0  0
   -1.6500   25.8680  -25.9030 C   0  0  0  0  0  0  0  0  0  0  0  0
   -2.7600   25.2820  -26.5380 C   0  0  0  0  0  0  0  0  0  0  0  0
   -2.6010   24.5750  -27.7410 C   0  0  0  0  0  0  0  0  0  0  0  0
   -3.7180   23.9500  -28.3950 N   0  0  0  0  0  0  0  0  0  0  0  0
   -4.1000   24.2090  -29.7560 C   0  0  0  0  0  0  0  0  0  0  0  0
   -3.5020   25.0890  -30.4310 O   0  0  0  0  0  0  0  0  0  0  0  0
   -5.2100   23.4760  -30.3900 C   0  0  0  0  0  0  0  0  0  0  0  0
   -6.3810   24.0400  -30.6330 O   0  0  0  0  0  0  0  0  0  0  0  0
   -7.1530   23.1400  -31.1910 C   0  0  0  0  0  0  0  0  0  0  0  0
   -8.4710   23.2950  -31.6070 C   0  0  0  0  0  0  0  0  0  0  0  0
   -9.1160   22.1890  -32.1880 C   0  0  0  0  0  0  0  0  0  0  0  0
   -8.4310   20.9490  -32.3420 C   0  0  0  0  0  0  0  0  0  0  0  0
   -9.0400   19.8240  -32.9160 O   0  0  0  0  0  0  0  0  0  0  0  0
   -9.1170   18.5470  -32.2930 C   0  0  0  0  0  0  0  0  0  0  0  0
   -7.0960   20.8340  -31.9080 C   0  0  0  0  0  0  0  0  0  0  0  0
   -6.4880   21.9520  -31.3340 C   0  0  0  0  0  0  0  0  0  0  0  0
   -5.2170   22.1490  -30.8360 C   0  0  0  0  0  0  0  0  0  0  0  0
   -4.0960   21.1530  -30.8270 C   0  0  0  0  0  0  0  0  0  0  0  0
   -1.3170   24.4210  -28.2840 C   0  0  0  0  0  0  0  0  0  0  0  0
   -0.2010   25.0030  -27.6580 C   0  0  0  0  0  0  0  0  0  0  0  0
    1.0980   24.8860  -28.1750 O   0  0  0  0  0  0  0  0  0  0  0  0
    2.2620   24.6660  -27.3840 C   0  0  0  0  0  0  0  0  0  0  0  0
   -0.3810   25.7260  -26.4740 C   0  0  0  0  0  0  0  0  0  0  0  0
   -1.1936   26.6381  -22.7160 H   0  0  0  0  0  0  0  0  0  0  0  0
   -0.0444   25.8303  -23.8357 H   0  0  0  0  0  0  0  0  0  0  0  0
   -0.1898   27.6207  -23.8357 H   0  0  0  0  0  0  0  0  0  0  0  0
   -3.7596   25.3782  -26.0891 H   0  0  0  0  0  0  0  0  0  0  0  0
   -4.2360   23.2220  -27.8560 H   0  0  0  0  0  0  0  0  0  0  0  0
   -8.9937   24.2551  -31.4850 H   0  0  0  0  0  0  0  0  0  0  0  0
  -10.1585   22.2817  -32.5266 H   0  0  0  0  0  0  0  0  0  0  0  0
   -9.1095   18.6712  -31.2001 H   0  0  0  0  0  0  0  0  0  0  0  0
  -10.0470   18.0454  -32.5987 H   0  0  0  0  0  0  0  0  0  0  0  0
   -8.2540   17.9373  -32.5987 H   0  0  0  0  0  0  0  0  0  0  0  0
   -6.5465   19.8875  -32.0185 H   0  0  0  0  0  0  0  0  0  0  0  0
   -3.8266   20.9136  -29.7877 H   0  0  0  0  0  0  0  0  0  0  0  0
   -4.4161   20.2360  -31.3433 H   0  0  0  0  0  0  0  0  0  0  0  0
   -3.2230   21.5788  -31.3433 H   0  0  0  0  0  0  0  0  0  0  0  0
   -1.1821   23.8396  -29.2080 H   0  0  0  0  0  0  0  0  0  0  0  0
    1.9957   24.7163  -26.3179 H   0  0  0  0  0  0  0  0  0  0  0  0
    2.6778   23.6734  -27.6116 H   0  0  0  0  0  0  0  0  0  0  0  0
    3.0114   25.4384  -27.6116 H   0  0  0  0  0  0  0  0  0  0  0  0
    0.4883   26.1897  -25.9848 H   0  0  0  0  0  0  0  0  0  0  0  0
  1  2  1  0
  2  3  1  0
  3  4  2  0
  4  5  1  0
  5  6  1  0
  6  7  1  0
  7  8  2  0
  7  9  1  0
  9 10  1  0
 10 11  1  0
 11 12  2  0
 12 13  1  0
 13 14  2  0
 14 15  1  0
 15 16  1  0
 14 17  1  0
 17 18  2  0
 18 19  1  0
 19 20  1  0
  5 21  2  0
 21 22  1  0
 22 23  1  0
 23 24  1  0
 22 25  2  0
 25  3  1  0
 19  9  2  0
 18 11  1  0
  1 26  1  0
  1 27  1  0
  1 28  1  0
  4 29  1  0
  6 30  1  0
 12 31  1  0
 13 32  1  0
 16 33  1  0
 16 34  1  0
 16 35  1  0
 17 36  1  0
 20 37  1  0
 20 38  1  0
 20 39  1  0
 21 40  1  0
 24 41  1  0
 24 42  1  0
 24 43  1  0
 25 44  1  0
M  END
>  <UniqueID>  (11) 
10

>  <SMILES>  (11) 
COc1cc(NC(=O)c2oc3ccc(OC)cc3c2C)cc(OC)c1

>  <Energy>  (11) 
84.46726762543364

>  <Genealogy>  (11) 
COc1cc(NC(=O)c2oc3ccc(OC)cc3c2C)cc(OC)c1 (3D coordinates assigned)
COc1cc(NC(=O)c2oc3ccc(OC)cc3c2C)cc(OC)c1 (optimized conformer: 84.46726762543364 kcal/mol)

>  <smiles>  (11) 
COc1cc(NC(=O)c2oc3ccc(OC)cc3c2C)cc(OC)c1

>  <score_type>  (11) 
oracle

>  <origin>  (11) 
adgpu

>  <m_score__min__energy>  (11) 
-7.5300000000000002

>  <m_primary>  (11) 
energy

$$$$
11:0
     RDKit          3D

 27 28  0  0  0  0  0  0  0  0999 V2000
   -8.0030   20.3070  -32.1720 C   0  0  0  0  0  0  0  0  0  0  0  0
   -7.3580   21.6140  -32.1410 N   0  0  0  0  0  0  0  0  0  0  0  0
   -7.9440   22.8130  -31.9840 C   0  0  0  0  0  0  0  0  0  0  0  0
   -7.0450   23.8100  -32.1000 N   0  0  0  0  0  0  0  0  0  0  0  0
   -5.8690   23.2500  -32.3490 N   0  0  0  0  0  0  0  0  0  0  0  0
   -6.0710   21.9200  -32.3820 C   0  0  0  0  0  0  0  0  0  0  0  0
   -4.7750   20.7240  -32.7180 S   0  0  0  0  0  0  0  0  0  0  0  0
   -4.3890   20.4170  -30.9590 C   0  0  0  0  0  0  0  0  0  0  0  0
   -2.9730   20.8130  -30.6370 C   0  0  0  0  0  0  0  0  0  0  0  0
   -2.0710   19.9440  -30.7830 O   0  0  0  0  0  0  0  0  0  0  0  0
   -2.6050   22.1830  -30.1830 C   0  0  0  0  0  0  0  0  0  0  0  0
   -1.4580   22.4200  -29.3980 C   0  0  0  0  0  0  0  0  0  0  0  0
   -1.1360   23.7160  -28.9830 C   0  0  0  0  0  0  0  0  0  0  0  0
   -1.9470   24.7930  -29.3440 C   0  0  0  0  0  0  0  0  0  0  0  0
   -1.6180   26.0780  -28.9280 O   0  0  0  0  0  0  0  0  0  0  0  0
   -3.0870   24.5750  -30.1230 C   0  0  0  0  0  0  0  0  0  0  0  0
   -3.9000   25.6430  -30.4860 O   0  0  0  0  0  0  0  0  0  0  0  0
   -3.4140   23.2800  -30.5400 C   0  0  0  0  0  0  0  0  0  0  0  0
   -8.1750   19.9585  -31.1429 H   0  0  0  0  0  0  0  0  0  0  0  0
   -8.9658   20.3856  -32.6982 H   0  0  0  0  0  0  0  0  0  0  0  0
   -7.3549   19.5907  -32.6982 H   0  0  0  0  0  0  0  0  0  0  0  0
   -9.0160   22.9611  -31.7868 H   0  0  0  0  0  0  0  0  0  0  0  0
   -5.0772   21.0036  -30.3326 H   0  0  0  0  0  0  0  0  0  0  0  0
   -4.5048   19.3416  -30.7588 H   0  0  0  0  0  0  0  0  0  0  0  0
   -0.8110   21.5784  -29.1096 H   0  0  0  0  0  0  0  0  0  0  0  0
   -0.2394   23.8874  -28.3692 H   0  0  0  0  0  0  0  0  0  0  0  0
   -4.3125   23.1166  -31.1532 H   0  0  0  0  0  0  0  0  0  0  0  0
  1  2  1  0
  2  3  1  0
  3  4  2  0
  4  5  1  0
  5  6  2  0
  6  7  1  0
  7  8  1  0
  8  9  1  0
  9 10  2  0
  9 11  1  0
 11 12  2  0
 12 13  1  0
 13 14  2  0
 14 15  1  0
 14 16  1  0
 16 17  1  0
 16 18  2  0
  6  2  1  0
 18 11  1  0
  1 19  1  0
  1 20  1  0
  1 21  1  0
  3 22  1  0
  8 23  1  0
  8 24  1  0
 12 25  1  0
 13 26  1  0
 18 27  1  0
M  CHG  2  15  -1  17  -1
M  END
>  <UniqueID>  (12) 
11

>  <SMILES>  (12) 
Cn1cnnc1SCC(=O)c1ccc([O-])c([O-])c1

>  <Energy>  (12) 
59.0390699669698

>  <Genealogy>  (12) 
Cn1cnnc1SCC(=O)c1ccc([O-])c([O-])c1 (protonated)
Cn1cnnc1SCC(=O)c1ccc([O-])c([O-])c1 (3D coordinates assigned)
Cn1cnnc1SCC(=O)c1ccc([O-])c([O-])c1 (optimized conformer: 59.0390699669698 kcal/mol)

>  <smiles>  (12) 
Cn1cnnc1SCC(=O)c1ccc(O)c(O)c1

>  <score_type>  (12) 
oracle

>  <origin>  (12) 
adgpu

>  <m_score__min__energy>  (12) 
-11.619999999999999

>  <m_primary>  (12) 
energy

$$$$
12:0
     RDKit          3D

 46 48  0  0  0  0  0  0  0  0999 V2000
   -2.9250   18.7330  -26.2500 C   0  0  0  0  0  0  0  0  0  0  0  0
   -2.2860   19.2380  -27.4190 O   0  0  0  0  0  0  0  0  0  0  0  0
   -2.4220   20.5520  -27.8960 C   0  0  0  0  0  0  0  0  0  0  0  0
   -3.4800   21.3860  -27.4930 C   0  0  0  0  0  0  0  0  0  0  0  0
   -3.5820   22.6870  -27.9890 C   0  0  0  0  0  0  0  0  0  0  0  0
   -2.6380   23.1770  -28.9040 C   0  0  0  0  0  0  0  0  0  0  0  0
   -2.7480   24.5530  -29.4440 C   0  0  0  0  0  0  0  0  0  0  0  0
   -1.9960   25.4560  -28.9900 O   0  0  0  0  0  0  0  0  0  0  0  0
   -3.7180   24.9030  -30.4400 N   0  0  0  0  0  0  0  0  0  0  0  0
   -4.7950   24.0670  -30.8910 C   0  0  0  0  0  0  0  0  0  0  0  0
   -4.5630   23.0020  -31.7780 C   0  0  0  0  0  0  0  0  0  0  0  0
   -5.6130   22.1740  -32.1760 C   0  0  0  0  0  0  0  0  0  0  0  0
   -6.9130   22.3970  -31.6920 C   0  0  0  0  0  0  0  0  0  0  0  0
   -8.0030   21.5370  -32.0500 N   0  0  0  0  0  0  0  0  0  0  0  0
   -8.0520   20.1180  -31.8440 C   0  0  0  0  0  0  0  0  0  0  0  0
   -8.7540   19.6700  -30.8990 O   0  0  0  0  0  0  0  0  0  0  0  0
   -7.2700   19.1740  -32.6800 C   0  0  0  0  0  0  0  0  0  0  0  0
   -7.2340   17.8080  -32.3520 C   0  0  0  0  0  0  0  0  0  0  0  0
   -6.5060   16.9120  -33.1420 C   0  0  0  0  0  0  0  0  0  0  0  0
   -5.8020   17.3710  -34.2570 C   0  0  0  0  0  0  0  0  0  0  0  0
   -5.8180   18.7300  -34.5810 C   0  0  0  0  0  0  0  0  0  0  0  0
   -6.5420   19.6300  -33.7940 C   0  0  0  0  0  0  0  0  0  0  0  0
   -7.1570   23.4990  -30.8660 C   0  0  0  0  0  0  0  0  0  0  0  0
   -6.1060   24.3320  -30.4640 C   0  0  0  0  0  0  0  0  0  0  0  0
   -6.4470   25.6820  -29.3890 Cl  0  0  0  0  0  0  0  0  0  0  0  0
   -1.5730   22.3490  -29.2950 C   0  0  0  0  0  0  0  0  0  0  0  0
   -1.4640   21.0350  -28.8000 C   0  0  0  0  0  0  0  0  0  0  0  0
   -0.4180   20.1790  -29.1810 O   0  0  0  0  0  0  0  0  0  0  0  0
    0.5550   19.6460  -28.2890 C   0  0  0  0  0  0  0  0  0  0  0  0
   -2.4218   19.1306  -25.3563 H   0  0  0  0  0  0  0  0  0  0  0  0
   -3.9801   19.0439  -26.2456 H   0  0  0  0  0  0  0  0  0  0  0  0
   -2.8664   17.6346  -26.2456 H   0  0  0  0  0  0  0  0  0  0  0  0
   -4.2317   21.0111  -26.7828 H   0  0  0  0  0  0  0  0  0  0  0  0
   -4.4091   23.3331  -27.6598 H   0  0  0  0  0  0  0  0  0  0  0  0
   -3.5479   22.8202  -32.1607 H   0  0  0  0  0  0  0  0  0  0  0  0
   -5.4223   21.3433  -32.8714 H   0  0  0  0  0  0  0  0  0  0  0  0
   -7.7805   17.4418  -31.4704 H   0  0  0  0  0  0  0  0  0  0  0  0
   -6.4881   15.8428  -32.8841 H   0  0  0  0  0  0  0  0  0  0  0  0
   -5.2353   16.6633  -34.8798 H   0  0  0  0  0  0  0  0  0  0  0  0
   -5.2599   19.0922  -35.4569 H   0  0  0  0  0  0  0  0  0  0  0  0
   -6.5425   20.7005  -34.0470 H   0  0  0  0  0  0  0  0  0  0  0  0
   -8.1823   23.7128  -30.5297 H   0  0  0  0  0  0  0  0  0  0  0  0
   -0.8158   22.7310  -29.9955 H   0  0  0  0  0  0  0  0  0  0  0  0
    0.2357   19.8209  -27.2510 H   0  0  0  0  0  0  0  0  0  0  0  0
    0.6591   18.5649  -28.4634 H   0  0  0  0  0  0  0  0  0  0  0  0
    1.5221   20.1403  -28.4634 H   0  0  0  0  0  0  0  0  0  0  0  0
  1  2  1  0
  2  3  1  0
  3  4  2  0
  4  5  1  0
  5  6  2  0
  6  7  1  0
  7  8  2  0
  7  9  1  0
  9 10  1  0
 10 11  2  0
 11 12  1  0
 12 13  2  0
 13 14  1  0
 14 15  1  0
 15 16  2  0
 15 17  1  0
 17 18  2  0
 18 19  1  0
 19 20  2  0
 20 21  1  0
 21 22  2  0
 13 23  1  0
 23 24  2  0
 24 25  1  0
  6 26  1  0
 26 27  2  0
 27 28  1  0
 28 29  1  0
 27  3  1  0
 24 10  1  0
 22 17  1  0
  1 30  1  0
  1 31  1  0
  1 32  1  0
  4 33  1  0
  5 34  1  0
 11 35  1  0
 12 36  1  0
 18 37  1  0
 19 38  1  0
 20 39  1  0
 21 40  1  0
 22 41  1  0
 23 42  1  0
 26 43  1  0
 29 44  1  0
 29 45  1  0
 29 46  1  0
M  CHG  2   9  -1  14  -1
M  END
>  <UniqueID>  (13) 
12

>  <SMILES>  (13) 
COc1ccc(C(=O)[N-]c2ccc([N-]C(=O)c3ccccc3)cc2Cl)cc1OC

>  <Energy>  (13) 
59.85410829489291

>  <Genealogy>  (13) 
COc1ccc(C(=O)[N-]c2ccc([N-]C(=O)c3ccccc3)cc2Cl)cc1OC (protonated)
COc1ccc(C(=O)[N-]c2ccc([N-]C(=O)c3ccccc3)cc2Cl)cc1OC (3D coordinates assigned)
COc1ccc(C(=O)[N-]c2ccc([N-]C(=O)c3ccccc3)cc2Cl)cc1OC (optimized conformer: 59.85410829489291 kcal/mol)

>  <smiles>  (13) 
COc1ccc(C(=O)Nc2ccc(NC(=O)c3ccccc3)cc2Cl)cc1OC

>  <score_type>  (13) 
oracle

>  <origin>  (13) 
adgpu

>  <m_score__min__energy>  (13) 
-10.94

>  <m_primary>  (13) 
energy

$$$$
13:0
     RDKit          3D

 47 51  0  0  0  0  0  0  0  0999 V2000
   -0.0250   21.0380  -31.5550 C   0  0  0  0  0  0  0  0  0  0  0  0
   -1.5160   21.0130  -31.7120 C   0  0  0  0  0  0  0  0  0  0  0  0
   -2.3410   20.7720  -30.6030 C   0  0  0  0  0  0  0  0  0  0  0  0
   -3.7300   20.7190  -30.7560 C   0  0  0  0  0  0  0  0  0  0  0  0
   -4.3090   20.8950  -32.0210 C   0  0  0  0  0  0  0  0  0  0  0  0
   -5.7760   20.8350  -32.1810 C   0  0  0  0  0  0  0  0  0  0  0  0
   -6.4980   19.8230  -32.7960 C   0  0  0  0  0  0  0  0  0  0  0  0
   -6.0070   18.5900  -33.4320 C   0  0  0  0  0  0  0  0  0  0  0  0
   -5.5190   17.5300  -32.7620 N   0  0  0  0  0  0  0  0  0  0  0  0
   -5.2080   16.6900  -33.7700 C   0  0  0  0  0  0  0  0  0  0  0  0
   -4.6310   15.3450  -33.5670 C   0  0  0  0  0  0  0  0  0  0  0  0
   -4.0920   14.6270  -34.6500 C   0  0  0  0  0  0  0  0  0  0  0  0
   -3.5480   13.3540  -34.4530 C   0  0  0  0  0  0  0  0  0  0  0  0
   -3.5380   12.7850  -33.1760 C   0  0  0  0  0  0  0  0  0  0  0  0
   -3.0110   11.5500  -32.9880 F   0  0  0  0  0  0  0  0  0  0  0  0
   -4.0720   13.4900  -32.0950 C   0  0  0  0  0  0  0  0  0  0  0  0
   -4.6170   14.7640  -32.2860 C   0  0  0  0  0  0  0  0  0  0  0  0
   -5.4880   17.2170  -34.9800 N   0  0  0  0  0  0  0  0  0  0  0  0
   -5.9790   18.3930  -34.7270 O   0  0  0  0  0  0  0  0  0  0  0  0
   -7.8070   20.2640  -32.7910 C   0  0  0  0  0  0  0  0  0  0  0  0
   -7.8680   21.4790  -32.2120 N   0  0  0  0  0  0  0  0  0  0  0  0
   -6.6420   21.8210  -31.8400 N   0  0  0  0  0  0  0  0  0  0  0  0
   -6.3490   23.0600  -31.1710 C   0  0  0  0  0  0  0  0  0  0  0  0
   -7.3680   23.7410  -30.4850 C   0  0  0  0  0  0  0  0  0  0  0  0
   -7.0940   24.9420  -29.8260 C   0  0  0  0  0  0  0  0  0  0  0  0
   -5.8010   25.4690  -29.8350 C   0  0  0  0  0  0  0  0  0  0  0  0
   -4.7740   24.7890  -30.4980 C   0  0  0  0  0  0  0  0  0  0  0  0
   -3.4840   25.3050  -30.4970 O   0  0  0  0  0  0  0  0  0  0  0  0
   -5.0450   23.5850  -31.1580 C   0  0  0  0  0  0  0  0  0  0  0  0
   -3.4830   21.1060  -33.1340 C   0  0  0  0  0  0  0  0  0  0  0  0
   -2.0950   21.1630  -32.9820 C   0  0  0  0  0  0  0  0  0  0  0  0
    0.2310   21.0423  -30.4852 H   0  0  0  0  0  0  0  0  0  0  0  0
    0.4089   20.1470  -32.0323 H   0  0  0  0  0  0  0  0  0  0  0  0
    0.3788   21.9430  -32.0323 H   0  0  0  0  0  0  0  0  0  0  0  0
   -1.8934   20.6241  -29.6091 H   0  0  0  0  0  0  0  0  0  0  0  0
   -4.3710   20.5385  -29.8805 H   0  0  0  0  0  0  0  0  0  0  0  0
   -4.0985   15.0693  -35.6571 H   0  0  0  0  0  0  0  0  0  0  0  0
   -3.1271   12.7992  -35.3045 H   0  0  0  0  0  0  0  0  0  0  0  0
   -4.0640   13.0420  -31.0904 H   0  0  0  0  0  0  0  0  0  0  0  0
   -5.0365   15.3140  -31.4307 H   0  0  0  0  0  0  0  0  0  0  0  0
   -8.6660   19.7094  -33.1967 H   0  0  0  0  0  0  0  0  0  0  0  0
   -8.3868   23.3267  -30.4665 H   0  0  0  0  0  0  0  0  0  0  0  0
   -7.8993   25.4741  -29.2984 H   0  0  0  0  0  0  0  0  0  0  0  0
   -5.5901   26.4184  -29.3210 H   0  0  0  0  0  0  0  0  0  0  0  0
   -4.2334   23.0466  -31.6693 H   0  0  0  0  0  0  0  0  0  0  0  0
   -3.9297   21.2273  -34.1319 H   0  0  0  0  0  0  0  0  0  0  0  0
   -1.4538   21.3260  -33.8608 H   0  0  0  0  0  0  0  0  0  0  0  0
  1  2  1  0
  2  3  2  0
  3  4  1  0
  4  5  2  0
  5  6  1  0
  6  7  2  0
  7  8  1  0
  8  9  2  0
  9 10  1  0
 10 11  1  0
 11 12  2  0
 12 13  1  0
 13 14  2  0
 14 15  1  0
 14 16  1  0
 16 17  2  0
 10 18  2  0
 18 19  1  0
  7 20  1  0
 20 21  2  0
 21 22  1  0
 22 23  1  0
 23 24  2  0
 24 25  1  0
 25 26  2  0
 26 27  1  0
 27 28  1  0
 27 29  2  0
  5 30  1  0
 30 31  2  0
 31  2  1  0
 22  6  1  0
 29 23  1  0
 19  8  1  0
 17 11  1  0
  1 32  1  0
  1 33  1  0
  1 34  1  0
  3 35  1  0
  4 36  1  0
 12 37  1  0
 13 38  1  0
 16 39  1  0
 17 40  1  0
 20 41  1  0
 24 42  1  0
 25 43  1  0
 26 44  1  0
 29 45  1  0
 30 46  1  0
 31 47  1  0
M  CHG  1  28  -1
M  END
>  <UniqueID>  (14) 
13

>  <SMILES>  (14) 
Cc1ccc(-c2c(-c3nc(-c4ccc(F)cc4)no3)cnn2-c2cccc([O-])c2)cc1

>  <Energy>  (14) 
126.19674985452708

>  <Genealogy>  (14) 
Cc1ccc(-c2c(-c3nc(-c4ccc(F)cc4)no3)cnn2-c2cccc([O-])c2)cc1 (protonated)
Cc1ccc(-c2c(-c3nc(-c4ccc(F)cc4)no3)cnn2-c2cccc([O-])c2)cc1 (3D coordinates assigned)
Cc1ccc(-c2c(-c3nc(-c4ccc(F)cc4)no3)cnn2-c2cccc([O-])c2)cc1 (optimized conformer: 126.19674985452708 kcal/mol)

>  <smiles>  (14) 
Cc1ccc(-c2c(-c3nc(-c4ccc(F)cc4)no3)cnn2-c2cccc(O)c2)cc1

>  <score_type>  (14) 
oracle

>  <origin>  (14) 
adgpu

>  <m_score__min__energy>  (14) 
-12.44

>  <m_primary>  (14) 
energy

$$$$
14:0
     RDKit          3D

 35 37  0  0  0  0  0  0  0  0999 V2000
   -5.0620   26.3380  -30.4490 O   0  0  0  0  0  0  0  0  0  0  0  0
   -4.8440   25.0990  -30.5110 C   0  0  0  0  0  0  0  0  0  0  0  0
   -3.4930   24.6410  -30.3580 N   0  0  0  0  0  0  0  0  0  0  0  0
   -3.0450   23.3580  -29.8160 C   0  0  0  0  0  0  0  0  0  0  0  0
   -2.0410   22.6600  -30.7440 C   0  0  0  0  0  0  0  0  0  0  0  0
   -2.7110   21.6480  -31.6180 C   0  0  0  0  0  0  0  0  0  0  0  0
   -3.9580   21.1840  -31.3900 N   0  0  0  0  0  0  0  0  0  0  0  0
   -4.3820   20.3320  -32.3640 C   0  0  0  0  0  0  0  0  0  0  0  0
   -5.7350   19.7190  -32.3150 C   0  0  0  0  0  0  0  0  0  0  0  0
   -6.8430   20.3220  -32.9450 C   0  0  0  0  0  0  0  0  0  0  0  0
   -8.1050   19.7240  -32.8810 C   0  0  0  0  0  0  0  0  0  0  0  0
   -8.2790   18.5200  -32.1970 C   0  0  0  0  0  0  0  0  0  0  0  0
   -7.1900   17.9070  -31.5750 C   0  0  0  0  0  0  0  0  0  0  0  0
   -5.9250   18.5010  -31.6330 C   0  0  0  0  0  0  0  0  0  0  0  0
   -3.4570   20.1280  -33.3940 C   0  0  0  0  0  0  0  0  0  0  0  0
   -2.0880   21.0460  -33.0560 S   0  0  0  0  0  0  0  0  0  0  0  0
   -5.9830   24.1810  -30.7410 C   0  0  0  0  0  0  0  0  0  0  0  0
   -6.5790   24.0910  -32.0070 C   0  0  0  0  0  0  0  0  0  0  0  0
   -7.6590   23.2250  -32.1780 C   0  0  0  0  0  0  0  0  0  0  0  0
   -8.1170   22.4960  -31.1290 N   0  0  0  0  0  0  0  0  0  0  0  0
   -7.5370   22.5980  -29.9050 C   0  0  0  0  0  0  0  0  0  0  0  0
   -6.4840   23.4370  -29.7200 N   0  0  0  0  0  0  0  0  0  0  0  0
   -2.5658   23.5323  -28.8413 H   0  0  0  0  0  0  0  0  0  0  0  0
   -3.9251   22.7058  -29.7161 H   0  0  0  0  0  0  0  0  0  0  0  0
   -1.5570   23.4161  -31.3796 H   0  0  0  0  0  0  0  0  0  0  0  0
   -1.3001   22.1390  -30.1198 H   0  0  0  0  0  0  0  0  0  0  0  0
   -6.7136   21.2686  -33.4901 H   0  0  0  0  0  0  0  0  0  0  0  0
   -8.9643   20.2044  -33.3717 H   0  0  0  0  0  0  0  0  0  0  0  0
   -9.2743   18.0541  -32.1480 H   0  0  0  0  0  0  0  0  0  0  0  0
   -7.3268   16.9562  -31.0389 H   0  0  0  0  0  0  0  0  0  0  0  0
   -5.0706   18.0126  -31.1416 H   0  0  0  0  0  0  0  0  0  0  0  0
   -3.5999   19.4804  -34.2716 H   0  0  0  0  0  0  0  0  0  0  0  0
   -6.2024   24.6912  -32.8484 H   0  0  0  0  0  0  0  0  0  0  0  0
   -8.1395   23.1330  -33.1632 H   0  0  0  0  0  0  0  0  0  0  0  0
   -7.9195   22.0016  -29.0636 H   0  0  0  0  0  0  0  0  0  0  0  0
  1  2  2  0
  2  3  1  0
  3  4  1  0
  4  5  1  0
  5  6  1  0
  6  7  2  0
  7  8  1  0
  8  9  1  0
  9 10  2  0
 10 11  1  0
 11 12  2  0
 12 13  1  0
 13 14  2  0
  8 15  2  0
 15 16  1  0
  2 17  1  0
 17 18  2  0
 18 19  1  0
 19 20  2  0
 20 21  1  0
 21 22  2  0
 16  6  1  0
 22 17  1  0
 14  9  1  0
  4 23  1  0
  4 24  1  0
  5 25  1  0
  5 26  1  0
 10 27  1  0
 11 28  1  0
 12 29  1  0
 13 30  1  0
 14 31  1  0
 15 32  1  0
 18 33  1  0
 19 34  1  0
 21 35  1  0
M  CHG  1   3  -1
M  END
>  <UniqueID>  (15) 
14

>  <SMILES>  (15) 
O=C([N-]CCc1nc(-c2ccccc2)cs1)c1ccncn1

>  <Energy>  (15) 
68.71864277594418

>  <Genealogy>  (15) 
O=C([N-]CCc1nc(-c2ccccc2)cs1)c1ccncn1 (protonated)
O=C([N-]CCc1nc(-c2ccccc2)cs1)c1ccncn1 (3D coordinates assigned)
O=C([N-]CCc1nc(-c2ccccc2)cs1)c1ccncn1 (optimized conformer: 68.71864277594418 kcal/mol)

>  <smiles>  (15) 
O=C(NCCc1nc(-c2ccccc2)cs1)c1ccncn1

>  <score_type>  (15) 
oracle

>  <origin>  (15) 
adgpu

>  <m_score__min__energy>  (15) 
-9.2799999999999994

>  <m_primary>  (15) 
energy

$$$$
15:0
     RDKit          3D

 48 50  0  0  0  0  0  0  0  0999 V2000
   -0.8200   25.7590  -27.3860 C   0  0  0  0  0  0  0  0  0  0  0  0
   -1.0200   24.9410  -28.6600 C   0  0  2  0  0  0  0  0  0  0  0  0
   -2.2650   25.3020  -29.2590 O   0  0  0  0  0  0  0  0  0  0  0  0
   -3.3070   24.3920  -29.4720 C   0  0  0  0  0  0  0  0  0  0  0  0
   -4.0260   24.0090  -28.5080 O   0  0  0  0  0  0  0  0  0  0  0  0
   -3.5730   23.9370  -30.8050 N   0  0  0  0  0  0  0  0  0  0  0  0
   -4.4990   22.8870  -31.1350 C   0  0  0  0  0  0  0  0  0  0  0  0
   -5.7120   22.7960  -30.4360 C   0  0  0  0  0  0  0  0  0  0  0  0
   -6.6370   21.7970  -30.7500 C   0  0  0  0  0  0  0  0  0  0  0  0
   -6.3650   20.8860  -31.7760 C   0  0  0  0  0  0  0  0  0  0  0  0
   -7.5300   19.6310  -32.1590 S   0  0  0  0  0  0  0  0  0  0  0  0
   -8.7380   20.1460  -33.2090 O   0  0  0  0  0  0  0  0  0  0  0  0
   -6.8050   18.1090  -32.6340 C   0  0  0  0  0  0  0  0  0  0  0  0
   -5.8000   17.5260  -31.8580 C   0  0  0  0  0  0  0  0  0  0  0  0
   -5.2440   16.3100  -32.2590 C   0  0  0  0  0  0  0  0  0  0  0  0
   -5.7040   15.6730  -33.4220 C   0  0  0  0  0  0  0  0  0  0  0  0
   -5.0780   14.3860  -33.8950 C   0  0  0  0  0  0  0  0  0  0  0  0
   -4.8140   13.5490  -32.8250 F   0  0  0  0  0  0  0  0  0  0  0  0
   -3.8940   14.6690  -34.5490 F   0  0  0  0  0  0  0  0  0  0  0  0
   -5.9260   13.7230  -34.7650 F   0  0  0  0  0  0  0  0  0  0  0  0
   -6.6960   16.3110  -34.1840 C   0  0  0  0  0  0  0  0  0  0  0  0
   -7.2220   17.4960  -33.7730 N   0  0  0  0  0  0  0  0  0  0  0  0
   -5.1700   20.9850  -32.4950 C   0  0  0  0  0  0  0  0  0  0  0  0
   -4.2430   21.9830  -32.1820 C   0  0  0  0  0  0  0  0  0  0  0  0
   -0.9870   23.4620  -28.3420 C   0  0  0  0  0  0  0  0  0  0  0  0
   -0.6850   22.5190  -29.3420 C   0  0  0  0  0  0  0  0  0  0  0  0
   -0.6760   21.1530  -29.0450 C   0  0  0  0  0  0  0  0  0  0  0  0
   -0.9760   20.7150  -27.7530 C   0  0  0  0  0  0  0  0  0  0  0  0
   -1.2890   21.6430  -26.7560 C   0  0  0  0  0  0  0  0  0  0  0  0
   -1.2990   23.0110  -27.0470 C   0  0  0  0  0  0  0  0  0  0  0  0
   -0.9775   25.1150  -26.5083 H   0  0  0  0  0  0  0  0  0  0  0  0
    0.2032   26.1623  -27.3660 H   0  0  0  0  0  0  0  0  0  0  0  0
   -1.5417   26.5889  -27.3660 H   0  0  0  0  0  0  0  0  0  0  0  0
   -0.2056   25.1550  -29.3678 H   0  0  0  0  0  0  0  0  0  0  0  0
   -3.1290   24.4700  -31.5870 H   0  0  0  0  0  0  0  0  0  0  0  0
   -5.9364   23.5161  -29.6353 H   0  0  0  0  0  0  0  0  0  0  0  0
   -7.5808   21.7268  -30.1894 H   0  0  0  0  0  0  0  0  0  0  0  0
   -8.8410   19.4060  -33.8590 H   0  0  0  0  0  0  0  0  0  0  0  0
   -5.4502   18.0205  -30.9398 H   0  0  0  0  0  0  0  0  0  0  0  0
   -4.4431   15.8497  -31.6618 H   0  0  0  0  0  0  0  0  0  0  0  0
   -7.0495   15.8500  -35.1181 H   0  0  0  0  0  0  0  0  0  0  0  0
   -4.9589   20.2758  -33.3089 H   0  0  0  0  0  0  0  0  0  0  0  0
   -3.3087   22.0620  -32.7571 H   0  0  0  0  0  0  0  0  0  0  0  0
   -0.4548   22.8585  -30.3627 H   0  0  0  0  0  0  0  0  0  0  0  0
   -0.4323   20.4219  -29.8300 H   0  0  0  0  0  0  0  0  0  0  0  0
   -0.9659   19.6399  -27.5203 H   0  0  0  0  0  0  0  0  0  0  0  0
   -1.5281   21.2966  -25.7397 H   0  0  0  0  0  0  0  0  0  0  0  0
   -1.5518   23.7368  -26.2601 H   0  0  0  0  0  0  0  0  0  0  0  0
  1  2  1  0
  2  3  1  0
  3  4  1  0
  4  5  2  0
  4  6  1  0
  6  7  1  0
  7  8  2  0
  8  9  1  0
  9 10  2  0
 10 11  1  0
 11 12  1  6
 11 13  1  0
 13 14  2  0
 14 15  1  0
 15 16  2  0
 16 17  1  0
 17 18  1  0
 17 19  1  0
 17 20  1  0
 16 21  1  0
 21 22  2  0
 10 23  1  0
 23 24  2  0
  2 25  1  0
 25 26  2  0
 26 27  1  0
 27 28  2  0
 28 29  1  0
 29 30  2  0
 24  7  1  0
 30 25  1  0
 22 13  1  0
  1 31  1  0
  1 32  1  0
  1 33  1  0
  2 34  1  6
  6 35  1  0
  8 36  1  0
  9 37  1  0
 12 38  1  0
 14 39  1  0
 15 40  1  0
 21 41  1  0
 23 42  1  0
 24 43  1  0
 26 44  1  0
 27 45  1  0
 28 46  1  0
 29 47  1  0
 30 48  1  0
M  CHG  1  11   1
M  END
>  <UniqueID>  (16) 
15

>  <SMILES>  (16) 
C[C@H](OC(=O)Nc1ccc([S@@+](O)c2ccc(C(F)(F)F)cn2)cc1)c1ccccc1

>  <Energy>  (16) 
48.423257363429045

>  <Genealogy>  (16) 
CC(OC(=O)Nc1ccc([S+](O)c2ccc(C(F)(F)F)cn2)cc1)c1ccccc1 (protonated)
C[C@H](OC(=O)Nc1ccc([S@@+](O)c2ccc(C(F)(F)F)cn2)cc1)c1ccccc1 (chirality)
C[C@H](OC(=O)Nc1ccc([S@@+](O)c2ccc(C(F)(F)F)cn2)cc1)c1ccccc1 (3D coordinates assigned)
C[C@H](OC(=O)Nc1ccc([S@@+](O)c2ccc(C(F)(F)F)cn2)cc1)c1ccccc1 (optimized conformer: 48.423257363429045 kcal/mol)

>  <smiles>  (16) 
CC(OC(=O)Nc1ccc([S+]([O-])c2ccc(C(F)(F)F)cn2)cc1)c1ccccc1

>  <score_type>  (16) 
oracle

>  <origin>  (16) 
adgpu

>  <m_score__min__energy>  (16) 
-8.0700000000000003

>  <m_primary>  (16) 
energy

$$$$
16:0
     RDKit          3D

 29 30  0  0  0  0  0  0  0  0999 V2000
   -4.6380   26.3290  -30.7968 H   0  0  0  0  0  0  0  0  0  0  0  0
   -4.8460   25.3060  -30.4500 C   0  0  0  0  0  0  0  0  0  0  0  0
   -6.0530   24.6890  -30.7960 C   0  0  0  0  0  0  0  0  0  0  0  0
   -6.7951   25.2339  -31.3980 H   0  0  0  0  0  0  0  0  0  0  0  0
   -6.3190   23.3770  -30.3770 C   0  0  0  0  0  0  0  0  0  0  0  0
   -7.5720   22.7510  -30.6830 N   0  0  0  0  0  0  0  0  0  0  0  0
   -8.3730   22.9660  -30.0470 H   0  0  0  0  0  0  0  0  0  0  0  0
   -7.7560   21.9000  -31.6560 C   0  0  0  0  0  0  0  0  0  0  0  0
   -9.3870   21.1900  -31.8900 S   0  0  0  0  0  0  0  0  0  0  0  0
   -8.7360   19.5010  -31.7470 C   0  0  0  0  0  0  0  0  0  0  0  0
   -9.5722   18.7873  -31.7084 H   0  0  0  0  0  0  0  0  0  0  0  0
   -8.1384   19.4139  -30.8276 H   0  0  0  0  0  0  0  0  0  0  0  0
   -7.8570   19.1920  -32.9590 C   0  0  0  0  0  0  0  0  0  0  0  0
   -8.4726   19.2684  -33.8674 H   0  0  0  0  0  0  0  0  0  0  0  0
   -7.4518   18.1785  -32.8226 H   0  0  0  0  0  0  0  0  0  0  0  0
   -6.6860   20.1330  -33.0910 C   0  0  0  0  0  0  0  0  0  0  0  0
   -5.7020   19.7770  -33.7940 O   0  0  0  0  0  0  0  0  0  0  0  0
   -6.6690   21.4290  -32.4720 N   0  0  0  0  0  0  0  0  0  0  0  0
   -5.7850   21.9780  -32.5480 H   0  0  0  0  0  0  0  0  0  0  0  0
   -5.3890   22.7090  -29.5700 C   0  0  0  0  0  0  0  0  0  0  0  0
   -5.6088   21.6943  -29.2066 H   0  0  0  0  0  0  0  0  0  0  0  0
   -4.1820   23.3260  -29.2240 C   0  0  0  0  0  0  0  0  0  0  0  0
   -3.4497   22.7882  -28.6039 H   0  0  0  0  0  0  0  0  0  0  0  0
   -3.9010   24.6340  -29.6670 C   0  0  0  0  0  0  0  0  0  0  0  0
   -2.7060   25.2950  -29.3490 O   0  0  0  0  0  0  0  0  0  0  0  0
   -1.8460   24.9290  -28.2750 C   0  0  0  0  0  0  0  0  0  0  0  0
   -2.3444   25.1411  -27.3176 H   0  0  0  0  0  0  0  0  0  0  0  0
   -1.6163   23.8551  -28.3388 H   0  0  0  0  0  0  0  0  0  0  0  0
   -0.9129   25.5080  -28.3388 H   0  0  0  0  0  0  0  0  0  0  0  0
  1  2  1  0
  2  3  2  0
  3  4  1  0
  3  5  1  0
  5  6  1  0
  6  7  1  0
  6  8  2  0
  8  9  1  0
  9 10  1  0
 10 11  1  0
 10 12  1  0
 10 13  1  0
 13 14  1  0
 13 15  1  0
 13 16  1  0
 16 17  2  0
 16 18  1  0
 18 19  1  0
  5 20  2  0
 20 21  1  0
 20 22  1  0
 22 23  1  0
 22 24  2  0
 24 25  1  0
 25 26  1  0
 26 27  1  0
 26 28  1  0
 26 29  1  0
 24  2  1  0
 18  8  1  0
M  CHG  1   6   1
M  END
>  <UniqueID>  (17) 
16

>  <SMILES>  (17) 
COc1ccc(/[NH+]=C2\NC(=O)CCS2)cc1

>  <Energy>  (17) 
35.996953803345676

>  <Genealogy>  (17) 
COc1ccc([NH+]=C2NC(=O)CCS2)cc1 (protonated)
COc1ccc(/[NH+]=C2\NC(=O)CCS2)cc1 (cis-trans isomerization)
COc1ccc(/[NH+]=C2\NC(=O)CCS2)cc1 (3D coordinates assigned)
COc1ccc(/[NH+]=C2\NC(=O)CCS2)cc1 (nonaromatic ring conformer: 35.996953803345676 kcal/mol)

>  <smiles>  (17) 
COc1ccc(N=C2NC(=O)CCS2)cc1

>  <score_type>  (17) 
oracle

>  <origin>  (17) 
adgpu

>  <m_score__min__energy>  (17) 
-6.5999999999999996

>  <m_primary>  (17) 
energy

$$$$
17:0
     RDKit          3D

 30 32  0  0  0  0  0  0  0  0999 V2000
   -1.4170   20.5290  -32.8840 C   0  0  0  0  0  0  0  0  0  0  0  0
   -2.6780   21.2870  -32.7180 C   0  0  0  0  0  0  0  0  0  0  0  0
   -3.0510   21.9830  -31.5740 C   0  0  0  0  0  0  0  0  0  0  0  0
   -4.2830   22.5190  -31.8840 C   0  0  0  0  0  0  0  0  0  0  0  0
   -5.0790   23.3440  -30.9760 C   0  0  0  0  0  0  0  0  0  0  0  0
   -6.4130   23.2070  -30.6670 C   0  0  0  0  0  0  0  0  0  0  0  0
   -7.3260   22.1930  -31.1940 C   0  0  0  0  0  0  0  0  0  0  0  0
   -6.9000   20.9140  -31.3820 C   0  0  0  0  0  0  0  0  0  0  0  0
   -7.7120   19.8960  -31.8800 C   0  0  0  0  0  0  0  0  0  0  0  0
   -9.0130   20.2330  -32.1890 C   0  0  0  0  0  0  0  0  0  0  0  0
   -9.8160   19.2790  -32.6670 F   0  0  0  0  0  0  0  0  0  0  0  0
   -9.4540   21.5250  -32.0010 C   0  0  0  0  0  0  0  0  0  0  0  0
   -8.6440   22.5280  -31.5080 C   0  0  0  0  0  0  0  0  0  0  0  0
   -6.7200   24.1720  -29.8000 N   0  0  0  0  0  0  0  0  0  0  0  0
   -5.6520   24.9060  -29.5470 N   0  0  0  0  0  0  0  0  0  0  0  0
   -4.5880   24.4300  -30.2600 C   0  0  0  0  0  0  0  0  0  0  0  0
   -3.3850   24.8540  -30.2980 N   0  0  0  0  0  0  0  0  0  0  0  0
   -4.5810   22.1540  -33.1050 O   0  0  0  0  0  0  0  0  0  0  0  0
   -3.6500   21.4230  -33.6290 N   0  0  0  0  0  0  0  0  0  0  0  0
   -1.0051   20.2814  -31.8946 H   0  0  0  0  0  0  0  0  0  0  0  0
   -1.6173   19.6015  -33.4404 H   0  0  0  0  0  0  0  0  0  0  0  0
   -0.6918   21.1410  -33.4404 H   0  0  0  0  0  0  0  0  0  0  0  0
   -2.4897   22.0835  -30.6333 H   0  0  0  0  0  0  0  0  0  0  0  0
   -5.8581   20.6703  -31.1271 H   0  0  0  0  0  0  0  0  0  0  0  0
   -7.3330   18.8729  -32.0198 H   0  0  0  0  0  0  0  0  0  0  0  0
  -10.4965   21.7674  -32.2548 H   0  0  0  0  0  0  0  0  0  0  0  0
   -9.0224   23.5513  -31.3681 H   0  0  0  0  0  0  0  0  0  0  0  0
   -7.6670   24.3340  -29.3730 H   0  0  0  0  0  0  0  0  0  0  0  0
   -5.5410   25.7370  -28.9170 H   0  0  0  0  0  0  0  0  0  0  0  0
   -3.1170   25.6690  -29.7300 H   0  0  0  0  0  0  0  0  0  0  0  0
  1  2  1  0
  2  3  1  0
  3  4  2  0
  4  5  1  0
  5  6  2  0
  6  7  1  0
  7  8  2  0
  8  9  1  0
  9 10  2  0
 10 11  1  0
 10 12  1  0
 12 13  2  0
  6 14  1  0
 14 15  1  0
 15 16  1  0
 16 17  2  3
  4 18  1  0
 18 19  1  0
 19  2  2  0
 16  5  1  0
 13  7  1  0
  1 20  1  0
  1 21  1  0
  1 22  1  0
  3 23  1  0
  8 24  1  0
  9 25  1  0
 12 26  1  0
 13 27  1  0
 14 28  1  0
 15 29  1  0
 17 30  1  0
M  END
>  <smiles>  (18) 
Cc1cc(-c2c(-c3ccc(F)cc3)[nH][nH]c2=N)on1

>  <score_type>  (18) 
oracle

>  <origin>  (18) 
adgpu

>  <m_score__min__energy>  (18) 
-7.6399999999999997

>  <m_primary>  (18) 
energy

$$$$
18:0
     RDKit          3D

 39 41  0  0  0  0  0  0  0  0999 V2000
   -3.7659   18.0735  -34.9211 H   0  0  0  0  0  0  0  0  0  0  0  0
   -4.0060   18.6460  -34.0130 C   0  0  0  0  0  0  0  0  0  0  0  0
   -3.3090   19.7210  -33.7650 N   0  0  0  0  0  0  0  0  0  0  0  0
   -3.5420   20.6880  -32.7280 C   0  0  0  0  0  0  0  0  0  0  0  0
   -2.9220   20.5880  -31.4710 C   0  0  0  0  0  0  0  0  0  0  0  0
   -2.2435   19.7481  -31.2607 H   0  0  0  0  0  0  0  0  0  0  0  0
   -3.1630   21.5500  -30.4870 C   0  0  0  0  0  0  0  0  0  0  0  0
   -2.6582   21.4742  -29.5126 H   0  0  0  0  0  0  0  0  0  0  0  0
   -4.0460   22.6130  -30.7350 C   0  0  0  0  0  0  0  0  0  0  0  0
   -4.2830   23.6120  -29.7250 N   0  0  0  0  0  0  0  0  0  0  0  0
   -4.8450   24.8910  -30.0930 C   0  0  0  0  0  0  0  0  0  0  0  0
   -4.1990   25.6720  -30.8450 O   0  0  0  0  0  0  0  0  0  0  0  0
   -6.1990   25.3200  -29.6110 C   0  0  0  0  0  0  0  0  0  0  0  0
   -6.2123   25.3242  -28.5111 H   0  0  0  0  0  0  0  0  0  0  0  0
   -6.4176   26.3314  -29.9842 H   0  0  0  0  0  0  0  0  0  0  0  0
   -6.9601   24.6190  -29.9842 H   0  0  0  0  0  0  0  0  0  0  0  0
   -4.0740   23.2690  -28.3140 C   0  0  0  0  0  0  0  0  0  0  0  0
   -4.5408   24.0351  -27.6774 H   0  0  0  0  0  0  0  0  0  0  0  0
   -4.5292   22.2900  -28.1033 H   0  0  0  0  0  0  0  0  0  0  0  0
   -2.9953   23.2247  -28.1033 H   0  0  0  0  0  0  0  0  0  0  0  0
   -4.7040   22.6810  -31.9740 C   0  0  0  0  0  0  0  0  0  0  0  0
   -5.4156   23.4963  -32.1711 H   0  0  0  0  0  0  0  0  0  0  0  0
   -4.4600   21.7190  -32.9580 C   0  0  0  0  0  0  0  0  0  0  0  0
   -4.9927   21.7725  -33.9189 H   0  0  0  0  0  0  0  0  0  0  0  0
   -5.0960   18.1510  -33.1510 C   0  0  0  0  0  0  0  0  0  0  0  0
   -5.0330   17.0220  -32.3430 C   0  0  0  0  0  0  0  0  0  0  0  0
   -4.1601   16.3579  -32.2595 H   0  0  0  0  0  0  0  0  0  0  0  0
   -6.1960   16.8550  -31.6740 N   0  0  0  0  0  0  0  0  0  0  0  0
   -6.4260   16.0890  -31.0010 H   0  0  0  0  0  0  0  0  0  0  0  0
   -6.9850   17.8810  -32.0360 C   0  0  0  0  0  0  0  0  0  0  0  0
   -8.2760   18.1520  -31.5830 C   0  0  0  0  0  0  0  0  0  0  0  0
   -8.7808   17.4801  -30.8733 H   0  0  0  0  0  0  0  0  0  0  0  0
   -8.9120   19.3110  -32.0620 C   0  0  0  0  0  0  0  0  0  0  0  0
   -9.9355   19.5473  -31.7353 H   0  0  0  0  0  0  0  0  0  0  0  0
   -8.2460   20.1730  -32.9590 C   0  0  0  0  0  0  0  0  0  0  0  0
   -8.7508   21.0810  -33.3205 H   0  0  0  0  0  0  0  0  0  0  0  0
   -6.9410   19.8790  -33.3940 C   0  0  0  0  0  0  0  0  0  0  0  0
   -6.4066   20.5523  -34.0803 H   0  0  0  0  0  0  0  0  0  0  0  0
   -6.3450   18.7050  -32.9270 C   0  0  0  0  0  0  0  0  0  0  0  0
  1  2  1  0
  2  3  2  0
  3  4  1  0
  4  5  2  0
  5  6  1  0
  5  7  1  0
  7  8  1  0
  7  9  2  0
  9 10  1  0
 10 11  1  0
 11 12  2  0
 11 13  1  0
 13 14  1  0
 13 15  1  0
 13 16  1  0
 10 17  1  0
 17 18  1  0
 17 19  1  0
 17 20  1  0
  9 21  1  0
 21 22  1  0
 21 23  2  0
 23 24  1  0
  2 25  1  0
 25 26  2  0
 26 27  1  0
 26 28  1  0
 28 29  1  0
 28 30  1  0
 30 31  2  0
 31 32  1  0
 31 33  1  0
 33 34  1  0
 33 35  2  0
 35 36  1  0
 35 37  1  0
 37 38  1  0
 37 39  2  0
 23  4  1  0
 39 25  1  0
 39 30  1  0
M  END
>  <UniqueID>  (19) 
17

>  <SMILES>  (19) 
CC(=O)N(C)c1ccc(/N=C\c2c[nH]c3ccccc23)cc1

>  <Energy>  (19) 
88.8976916110472

>  <Genealogy>  (19) 
CC(=O)N(C)c1ccc(/N=C\c2c[nH]c3ccccc23)cc1 (cis-trans isomerization)
CC(=O)N(C)c1ccc(/N=C\c2c[nH]c3ccccc23)cc1 (3D coordinates assigned)
CC(=O)N(C)c1ccc(/N=C\c2c[nH]c3ccccc23)cc1 (optimized conformer: 88.8976916110472 kcal/mol)

>  <smiles>  (19) 
CC(=O)N(C)c1ccc(N=Cc2c[nH]c3ccccc23)cc1

>  <score_type>  (19) 
oracle

>  <origin>  (19) 
adgpu

>  <m_score__min__energy>  (19) 
-8.6600000000000001

>  <m_primary>  (19) 
energy

$$$$
19:0
     RDKit          3D

 32 33  0  0  0  0  0  0  0  0999 V2000
   -6.8800   17.1800  -33.5400 C   0  0  0  0  0  0  0  0  0  0  0  0
   -6.2810   18.3960  -32.9120 C   0  0  0  0  0  0  0  0  0  0  0  0
   -5.3530   18.2620  -32.0700 O   0  0  0  0  0  0  0  0  0  0  0  0
   -6.6990   19.7010  -33.3420 N   0  0  0  0  0  0  0  0  0  0  0  0
   -6.3260   20.9240  -32.6850 C   0  0  0  0  0  0  0  0  0  0  0  0
   -4.9830   21.3370  -32.6060 C   0  0  0  0  0  0  0  0  0  0  0  0
   -4.6450   22.5190  -31.9390 C   0  0  0  0  0  0  0  0  0  0  0  0
   -5.6400   23.2940  -31.3300 C   0  0  0  0  0  0  0  0  0  0  0  0
   -5.2170   24.7770  -30.4800 S   0  0  0  0  0  0  0  0  0  0  0  0
   -5.7430   25.9800  -31.2130 O   0  0  0  0  0  0  0  0  0  0  0  0
   -5.8270   24.7390  -29.1070 O   0  0  0  0  0  0  0  0  0  0  0  0
   -3.4910   24.9130  -30.3290 N   0  0  0  0  0  0  0  0  0  0  0  0
   -2.7930   24.7710  -29.2390 C   0  0  0  0  0  0  0  0  0  0  0  0
   -3.3830   24.4710  -27.9930 C   0  0  0  0  0  0  0  0  0  0  0  0
   -2.5710   24.3400  -26.8630 C   0  0  0  0  0  0  0  0  0  0  0  0
   -1.1910   24.5050  -26.9750 C   0  0  0  0  0  0  0  0  0  0  0  0
   -0.6380   24.7980  -28.2210 C   0  0  0  0  0  0  0  0  0  0  0  0
   -1.4420   24.9230  -29.3110 N   0  0  0  0  0  0  0  0  0  0  0  0
   -6.9750   22.8790  -31.3930 C   0  0  0  0  0  0  0  0  0  0  0  0
   -7.3150   21.6970  -32.0570 C   0  0  0  0  0  0  0  0  0  0  0  0
   -7.2197   16.4905  -32.7531 H   0  0  0  0  0  0  0  0  0  0  0  0
   -7.7364   17.4740  -34.1646 H   0  0  0  0  0  0  0  0  0  0  0  0
   -6.1250   16.6802  -34.1646 H   0  0  0  0  0  0  0  0  0  0  0  0
   -7.2400   19.7670  -34.2340 H   0  0  0  0  0  0  0  0  0  0  0  0
   -4.1948   20.7269  -33.0713 H   0  0  0  0  0  0  0  0  0  0  0  0
   -3.5942   22.8410  -31.8926 H   0  0  0  0  0  0  0  0  0  0  0  0
   -4.4723   24.3414  -27.9116 H   0  0  0  0  0  0  0  0  0  0  0  0
   -3.0202   24.1070  -25.8863 H   0  0  0  0  0  0  0  0  0  0  0  0
   -0.5455   24.4051  -26.0899 H   0  0  0  0  0  0  0  0  0  0  0  0
    0.4495   24.9282  -28.3226 H   0  0  0  0  0  0  0  0  0  0  0  0
   -7.7601   23.4856  -30.9179 H   0  0  0  0  0  0  0  0  0  0  0  0
   -8.3649   21.3703  -32.0876 H   0  0  0  0  0  0  0  0  0  0  0  0
  1  2  1  0
  2  3  2  0
  2  4  1  0
  4  5  1  0
  5  6  2  0
  6  7  1  0
  7  8  2  0
  8  9  1  0
  9 10  2  0
  9 11  2  0
  9 12  1  0
 12 13  2  3
 13 14  1  0
 14 15  2  0
 15 16  1  0
 16 17  2  0
 17 18  1  0
  8 19  1  0
 19 20  2  0
 20  5  1  0
 18 13  1  0
  1 21  1  0
  1 22  1  0
  1 23  1  0
  4 24  1  0
  6 25  1  0
  7 26  1  0
 14 27  1  0
 15 28  1  0
 16 29  1  0
 17 30  1  0
 19 31  1  0
 20 32  1  0
M  CHG  1  18  -1
M  END
>  <UniqueID>  (20) 
18

>  <SMILES>  (20) 
CC(=O)Nc1ccc(S(=O)(=O)N=c2cccc[n-]2)cc1

>  <Energy>  (20) 
40.05525810943827

>  <Genealogy>  (20) 
CC(=O)Nc1ccc(S(=O)(=O)N=c2cccc[n-]2)cc1 (protonated)
CC(=O)Nc1ccc(S(=O)(=O)N=c2cccc[n-]2)cc1 (3D coordinates assigned)
CC(=O)Nc1ccc(S(=O)(=O)N=c2cccc[n-]2)cc1 (optimized conformer: 40.05525810943827 kcal/mol)

>  <smiles>  (20) 
CC(=O)Nc1ccc(S(=O)(=O)N=c2cccc[nH]2)cc1

>  <score_type>  (20) 
oracle

>  <origin>  (20) 
adgpu

>  <m_score__min__energy>  (20) 
-9.1799999999999997

>  <m_primary>  (20) 
energy

$$$$
20:0
     RDKit          3D

 46 49  0  0  0  0  0  0  0  0999 V2000
   -4.9950   17.7900  -35.2270 O   0  0  0  0  0  0  0  0  0  0  0  0
   -5.3670   18.4180  -33.9140 S   0  0  0  0  0  0  0  0  0  0  0  0
   -5.7590   17.3360  -32.9470 O   0  0  0  0  0  0  0  0  0  0  0  0
   -6.7160   19.4850  -34.1490 N   0  0  0  0  0  0  0  0  0  0  0  0
   -7.1720   20.4260  -33.1620 C   0  0  0  0  0  0  0  0  0  0  0  0
   -8.4970   20.4210  -32.6910 C   0  0  0  0  0  0  0  0  0  0  0  0
   -8.9040   21.3370  -31.7190 C   0  0  0  0  0  0  0  0  0  0  0  0
   -8.0000   22.2690  -31.2100 C   0  0  0  0  0  0  0  0  0  0  0  0
   -6.6740   22.3090  -31.6780 C   0  0  0  0  0  0  0  0  0  0  0  0
   -5.7230   23.3020  -31.1130 C   0  0  0  0  0  0  0  0  0  0  0  0
   -5.9480   24.6840  -31.2100 C   0  0  0  0  0  0  0  0  0  0  0  0
   -5.0060   25.5560  -30.6660 C   0  0  0  0  0  0  0  0  0  0  0  0
   -3.9040   25.0640  -30.0470 N   0  0  0  0  0  0  0  0  0  0  0  0
   -3.7000   23.7230  -29.9350 C   0  0  0  0  0  0  0  0  0  0  0  0
   -2.6340   23.2460  -29.3620 N   0  0  0  0  0  0  0  0  0  0  0  0
   -1.5910   23.9880  -28.7060 C   0  0  0  0  0  0  0  0  0  0  0  0
   -0.2730   23.5020  -28.6070 C   0  0  0  0  0  0  0  0  0  0  0  0
    0.7150   24.2710  -27.9830 C   0  0  0  0  0  0  0  0  0  0  0  0
    0.4030   25.5340  -27.4730 C   0  0  0  0  0  0  0  0  0  0  0  0
    1.3840   26.2940  -26.8490 O   0  0  0  0  0  0  0  0  0  0  0  0
   -0.8950   26.0350  -27.5980 C   0  0  0  0  0  0  0  0  0  0  0  0
   -1.8850   25.2690  -28.2200 C   0  0  0  0  0  0  0  0  0  0  0  0
   -4.6040   22.8640  -30.4730 N   0  0  0  0  0  0  0  0  0  0  0  0
   -6.2710   21.3750  -32.6530 C   0  0  0  0  0  0  0  0  0  0  0  0
   -3.9870   19.3310  -33.3110 C   0  0  0  0  0  0  0  0  0  0  0  0
   -2.9750   19.7270  -34.1950 C   0  0  0  0  0  0  0  0  0  0  0  0
   -1.8880   20.4710  -33.7290 C   0  0  0  0  0  0  0  0  0  0  0  0
   -1.8060   20.8210  -32.3780 C   0  0  0  0  0  0  0  0  0  0  0  0
   -0.7520   21.5450  -31.9280 F   0  0  0  0  0  0  0  0  0  0  0  0
   -2.8120   20.4240  -31.4910 C   0  0  0  0  0  0  0  0  0  0  0  0
   -3.9000   19.6790  -31.9550 C   0  0  0  0  0  0  0  0  0  0  0  0
   -7.1450   19.4990  -35.1000 H   0  0  0  0  0  0  0  0  0  0  0  0
   -9.2168   19.6914  -33.0905 H   0  0  0  0  0  0  0  0  0  0  0  0
   -9.9414   21.3235  -31.3534 H   0  0  0  0  0  0  0  0  0  0  0  0
   -8.3267   22.9790  -30.4359 H   0  0  0  0  0  0  0  0  0  0  0  0
   -6.8502   25.0716  -31.7057 H   0  0  0  0  0  0  0  0  0  0  0  0
   -5.1565   26.6432  -30.7388 H   0  0  0  0  0  0  0  0  0  0  0  0
   -0.0197   22.5150  -29.0215 H   0  0  0  0  0  0  0  0  0  0  0  0
    1.7395   23.8807  -27.8936 H   0  0  0  0  0  0  0  0  0  0  0  0
   -1.1383   27.0337  -27.2064 H   0  0  0  0  0  0  0  0  0  0  0  0
   -2.9017   25.6745  -28.3287 H   0  0  0  0  0  0  0  0  0  0  0  0
   -5.2345   21.3895  -33.0211 H   0  0  0  0  0  0  0  0  0  0  0  0
   -3.0362   19.4516  -35.2582 H   0  0  0  0  0  0  0  0  0  0  0  0
   -1.0958   20.7817  -34.4260 H   0  0  0  0  0  0  0  0  0  0  0  0
   -2.7470   20.6982  -30.4277 H   0  0  0  0  0  0  0  0  0  0  0  0
   -4.6890   19.3652  -31.2557 H   0  0  0  0  0  0  0  0  0  0  0  0
  1  2  2  0
  2  3  2  0
  2  4  1  0
  4  5  1  0
  5  6  2  0
  6  7  1  0
  7  8  2  0
  8  9  1  0
  9 10  1  0
 10 11  2  0
 11 12  1  0
 12 13  2  0
 13 14  1  0
 14 15  2  3
 15 16  1  0
 16 17  2  0
 17 18  1  0
 18 19  2  0
 19 20  1  0
 19 21  1  0
 21 22  2  0
 14 23  1  0
  9 24  2  0
  2 25  1  0
 25 26  2  0
 26 27  1  0
 27 28  2  0
 28 29  1  0
 28 30  1  0
 30 31  2  0
 24  5  1  0
 31 25  1  0
 23 10  1  0
 22 16  1  0
  4 32  1  0
  6 33  1  0
  7 34  1  0
  8 35  1  0
 11 36  1  0
 12 37  1  0
 17 38  1  0
 18 39  1  0
 21 40  1  0
 22 41  1  0
 24 42  1  0
 26 43  1  0
 27 44  1  0
 30 45  1  0
 31 46  1  0
M  CHG  2  20  -1  23  -1
M  END
>  <UniqueID>  (21) 
19

>  <SMILES>  (21) 
O=S(=O)(Nc1cccc(-c2ccnc(=Nc3ccc([O-])cc3)[n-]2)c1)c1ccc(F)cc1

>  <Energy>  (21) 
65.24666644116223

>  <Genealogy>  (21) 
O=S(=O)(Nc1cccc(-c2ccnc(=Nc3ccc([O-])cc3)[n-]2)c1)c1ccc(F)cc1 (protonated)
O=S(=O)(Nc1cccc(-c2ccnc(=Nc3ccc([O-])cc3)[n-]2)c1)c1ccc(F)cc1 (3D coordinates assigned)
O=S(=O)(Nc1cccc(-c2ccnc(=Nc3ccc([O-])cc3)[n-]2)c1)c1ccc(F)cc1 (optimized conformer: 65.24666644116223 kcal/mol)

>  <smiles>  (21) 
O=S(=O)(Nc1cccc(-c2ccnc(=Nc3ccc(O)cc3)[nH]2)c1)c1ccc(F)cc1

>  <score_type>  (21) 
oracle

>  <origin>  (21) 
adgpu

>  <m_score__min__energy>  (21) 
-10.970000000000001

>  <m_primary>  (21) 
energy

$$$$
21:0
     RDKit          3D

 45 47  0  0  0  0  0  0  0  0999 V2000
   -5.2000   25.8000  -30.4620 C   0  0  0  0  0  0  0  0  0  0  0  0
   -3.8630   25.3080  -30.4690 O   0  0  0  0  0  0  0  0  0  0  0  0
   -3.4790   24.0450  -29.9920 C   0  0  0  0  0  0  0  0  0  0  0  0
   -2.6880   23.8890  -28.8360 C   0  0  0  0  0  0  0  0  0  0  0  0
   -2.3230   22.6100  -28.3880 C   0  0  0  0  0  0  0  0  0  0  0  0
   -1.5020   22.4520  -27.1320 C   0  0  0  0  0  0  0  0  0  0  0  0
   -0.0050   22.3370  -27.4420 C   0  0  0  0  0  0  0  0  0  0  0  0
    0.5590   23.6290  -27.8540 C   0  0  0  0  0  0  0  0  0  0  0  0
    1.0020   24.6470  -28.1790 N   0  0  0  0  0  0  0  0  0  0  0  0
   -2.7730   21.4820  -29.0870 C   0  0  0  0  0  0  0  0  0  0  0  0
   -3.5560   21.6290  -30.2320 C   0  0  0  0  0  0  0  0  0  0  0  0
   -3.8980   22.9100  -30.7010 C   0  0  0  0  0  0  0  0  0  0  0  0
   -4.6990   23.0840  -31.8410 O   0  0  0  0  0  0  0  0  0  0  0  0
   -6.0410   22.6880  -31.9640 C   0  0  0  0  0  0  0  0  0  0  0  0
   -7.0850   23.5070  -31.5020 C   0  0  0  0  0  0  0  0  0  0  0  0
   -8.4050   23.0710  -31.6110 C   0  0  0  0  0  0  0  0  0  0  0  0
   -8.6790   21.8580  -32.1560 N   0  0  0  0  0  0  0  0  0  0  0  0
   -7.6930   21.0360  -32.6010 C   0  0  0  0  0  0  0  0  0  0  0  0
   -6.3450   21.4220  -32.5030 C   0  0  0  0  0  0  0  0  0  0  0  0
   -5.2750   20.5310  -33.0120 C   0  0  0  0  0  0  0  0  0  0  0  0
   -4.1580   21.0320  -33.3170 O   0  0  0  0  0  0  0  0  0  0  0  0
   -5.4800   19.0720  -33.1860 C   0  0  0  0  0  0  0  0  0  0  0  0
   -5.7290   18.2570  -32.0660 C   0  0  0  0  0  0  0  0  0  0  0  0
   -5.9380   16.8830  -32.2220 C   0  0  0  0  0  0  0  0  0  0  0  0
   -5.9100   16.3090  -33.4950 C   0  0  0  0  0  0  0  0  0  0  0  0
   -5.6770   17.1100  -34.6160 C   0  0  0  0  0  0  0  0  0  0  0  0
   -5.4680   18.4840  -34.4660 C   0  0  0  0  0  0  0  0  0  0  0  0
   -5.5393   25.9249  -29.4231 H   0  0  0  0  0  0  0  0  0  0  0  0
   -5.2363   26.7704  -30.9787 H   0  0  0  0  0  0  0  0  0  0  0  0
   -5.8567   25.0846  -30.9787 H   0  0  0  0  0  0  0  0  0  0  0  0
   -2.3538   24.7774  -28.2801 H   0  0  0  0  0  0  0  0  0  0  0  0
   -1.6659   23.3277  -26.4868 H   0  0  0  0  0  0  0  0  0  0  0  0
   -1.8196   21.5263  -26.6297 H   0  0  0  0  0  0  0  0  0  0  0  0
    0.5210   21.9881  -26.5411 H   0  0  0  0  0  0  0  0  0  0  0  0
    0.1227   21.6243  -28.2701 H   0  0  0  0  0  0  0  0  0  0  0  0
   -2.5075   20.4756  -28.7310 H   0  0  0  0  0  0  0  0  0  0  0  0
   -3.9082   20.7374  -30.7715 H   0  0  0  0  0  0  0  0  0  0  0  0
   -6.8621   24.4877  -31.0564 H   0  0  0  0  0  0  0  0  0  0  0  0
   -9.2258   23.7109  -31.2548 H   0  0  0  0  0  0  0  0  0  0  0  0
   -7.9514   20.0616  -33.0411 H   0  0  0  0  0  0  0  0  0  0  0  0
   -5.7594   18.7037  -31.0612 H   0  0  0  0  0  0  0  0  0  0  0  0
   -6.1249   16.2528  -31.3400 H   0  0  0  0  0  0  0  0  0  0  0  0
   -6.0712   15.2275  -33.6150 H   0  0  0  0  0  0  0  0  0  0  0  0
   -5.6580   16.6583  -35.6188 H   0  0  0  0  0  0  0  0  0  0  0  0
   -5.2930   19.1101  -35.3533 H   0  0  0  0  0  0  0  0  0  0  0  0
  1  2  1  0
  2  3  1  0
  3  4  2  0
  4  5  1  0
  5  6  1  0
  6  7  1  0
  7  8  1  0
  8  9  3  0
  5 10  2  0
 10 11  1  0
 11 12  2  0
 12 13  1  0
 13 14  1  0
 14 15  2  0
 15 16  1  0
 16 17  2  0
 17 18  1  0
 18 19  2  0
 19 20  1  0
 20 21  2  0
 20 22  1  0
 22 23  2  0
 23 24  1  0
 24 25  2  0
 25 26  1  0
 26 27  2  0
 12  3  1  0
 19 14  1  0
 27 22  1  0
  1 28  1  0
  1 29  1  0
  1 30  1  0
  4 31  1  0
  6 32  1  0
  6 33  1  0
  7 34  1  0
  7 35  1  0
 10 36  1  0
 11 37  1  0
 15 38  1  0
 16 39  1  0
 18 40  1  0
 23 41  1  0
 24 42  1  0
 25 43  1  0
 26 44  1  0
 27 45  1  0
M  END
>  <UniqueID>  (22) 
20

>  <SMILES>  (22) 
COc1cc(CCC#N)ccc1Oc1ccncc1C(=O)c1ccccc1

>  <Energy>  (22) 
57.733131282951874

>  <Genealogy>  (22) 
COc1cc(CCC#N)ccc1Oc1ccncc1C(=O)c1ccccc1 (3D coordinates assigned)
COc1cc(CCC#N)ccc1Oc1ccncc1C(=O)c1ccccc1 (optimized conformer: 57.733131282951874 kcal/mol)

>  <smiles>  (22) 
COc1cc(CCC#N)ccc1Oc1ccncc1C(=O)c1ccccc1

>  <score_type>  (22) 
oracle

>  <origin>  (22) 
adgpu

>  <m_score__min__energy>  (22) 
-9.2200000000000006

>  <m_primary>  (22) 
energy

$$$$
22:0
     RDKit          3D

 48 50  0  0  0  0  0  0  0  0999 V2000
   -9.1060   21.5450  -31.1880 C   0  0  0  0  0  0  0  0  0  0  0  0
   -8.7030   22.8570  -31.5560 O   0  0  0  0  0  0  0  0  0  0  0  0
   -7.4360   23.3990  -31.2900 C   0  0  0  0  0  0  0  0  0  0  0  0
   -6.3360   22.8920  -31.9900 C   0  0  0  0  0  0  0  0  0  0  0  0
   -5.0510   23.3900  -31.7520 C   0  0  0  0  0  0  0  0  0  0  0  0
   -4.8490   24.4050  -30.8000 C   0  0  0  0  0  0  0  0  0  0  0  0
   -3.5520   24.9460  -30.5240 N   0  0  0  0  0  0  0  0  0  0  0  0
   -2.5880   24.5690  -29.1340 S   0  0  0  0  0  0  0  0  0  0  0  0
   -1.5920   25.6730  -28.9190 O   0  0  0  0  0  0  0  0  0  0  0  0
   -3.4790   24.4760  -27.9290 O   0  0  0  0  0  0  0  0  0  0  0  0
   -1.7670   23.0260  -29.3580 C   0  0  0  0  0  0  0  0  0  0  0  0
   -0.6750   22.6860  -28.5560 C   0  0  0  0  0  0  0  0  0  0  0  0
   -0.0270   21.4640  -28.7340 C   0  0  0  0  0  0  0  0  0  0  0  0
   -0.4680   20.5560  -29.7130 C   0  0  0  0  0  0  0  0  0  0  0  0
    0.2640   19.2500  -29.8750 C   0  0  0  0  0  0  0  0  0  0  0  0
   -1.5910   20.8820  -30.5170 C   0  0  0  0  0  0  0  0  0  0  0  0
   -2.0970   19.9360  -31.4820 N   0  0  0  0  0  0  0  0  0  0  0  0
   -2.8840   20.3850  -32.9630 S   0  0  0  0  0  0  0  0  0  0  0  0
   -3.0130   21.8810  -33.0190 O   0  0  0  0  0  0  0  0  0  0  0  0
   -2.0490   19.9260  -34.1270 O   0  0  0  0  0  0  0  0  0  0  0  0
   -4.4970   19.6810  -33.0250 C   0  0  0  0  0  0  0  0  0  0  0  0
   -5.3880   19.8490  -31.9550 C   0  0  0  0  0  0  0  0  0  0  0  0
   -6.6490   19.2450  -31.9920 C   0  0  0  0  0  0  0  0  0  0  0  0
   -7.0240   18.4730  -33.0970 C   0  0  0  0  0  0  0  0  0  0  0  0
   -6.1440   18.3140  -34.1690 C   0  0  0  0  0  0  0  0  0  0  0  0
   -4.8810   18.9140  -34.1340 C   0  0  0  0  0  0  0  0  0  0  0  0
   -2.2200   22.1300  -30.3310 C   0  0  0  0  0  0  0  0  0  0  0  0
   -5.9490   24.9100  -30.0970 C   0  0  0  0  0  0  0  0  0  0  0  0
   -7.2350   24.4190  -30.3420 C   0  0  0  0  0  0  0  0  0  0  0  0
   -9.1311   21.4632  -30.0913 H   0  0  0  0  0  0  0  0  0  0  0  0
  -10.1080   21.3418  -31.5939 H   0  0  0  0  0  0  0  0  0  0  0  0
   -8.3909   20.8144  -31.5939 H   0  0  0  0  0  0  0  0  0  0  0  0
   -6.4830   22.0950  -32.7338 H   0  0  0  0  0  0  0  0  0  0  0  0
   -4.1947   22.9860  -32.3119 H   0  0  0  0  0  0  0  0  0  0  0  0
   -0.3251   23.3844  -27.7815 H   0  0  0  0  0  0  0  0  0  0  0  0
    0.8369   21.2081  -28.1029 H   0  0  0  0  0  0  0  0  0  0  0  0
    0.4968   18.8347  -28.8834 H   0  0  0  0  0  0  0  0  0  0  0  0
   -0.3685   18.5415  -30.4300 H   0  0  0  0  0  0  0  0  0  0  0  0
    1.1984   19.4198  -30.4300 H   0  0  0  0  0  0  0  0  0  0  0  0
   -1.9770   18.9120  -31.3280 H   0  0  0  0  0  0  0  0  0  0  0  0
   -5.0949   20.4563  -31.0859 H   0  0  0  0  0  0  0  0  0  0  0  0
   -7.3465   19.3770  -31.1517 H   0  0  0  0  0  0  0  0  0  0  0  0
   -8.0126   17.9912  -33.1211 H   0  0  0  0  0  0  0  0  0  0  0  0
   -6.4442   17.7162  -35.0422 H   0  0  0  0  0  0  0  0  0  0  0  0
   -4.1878   18.7838  -34.9781 H   0  0  0  0  0  0  0  0  0  0  0  0
   -3.0798   22.4028  -30.9606 H   0  0  0  0  0  0  0  0  0  0  0  0
   -5.8005   25.6996  -29.3457 H   0  0  0  0  0  0  0  0  0  0  0  0
   -8.0931   24.8319  -29.7913 H   0  0  0  0  0  0  0  0  0  0  0  0
  1  2  1  0
  2  3  1  0
  3  4  2  0
  4  5  1  0
  5  6  2  0
  6  7  1  0
  7  8  1  0
  8  9  2  0
  8 10  2  0
  8 11  1  0
 11 12  2  0
 12 13  1  0
 13 14  2  0
 14 15  1  0
 14 16  1  0
 16 17  1  0
 17 18  1  0
 18 19  2  0
 18 20  2  0
 18 21  1  0
 21 22  2  0
 22 23  1  0
 23 24  2  0
 24 25  1  0
 25 26  2  0
 16 27  2  0
  6 28  1  0
 28 29  2  0
 29  3  1  0
 27 11  1  0
 26 21  1  0
  1 30  1  0
  1 31  1  0
  1 32  1  0
  4 33  1  0
  5 34  1  0
 12 35  1  0
 13 36  1  0
 15 37  1  0
 15 38  1  0
 15 39  1  0
 17 40  1  0
 22 41  1  0
 23 42  1  0
 24 43  1  0
 25 44  1  0
 26 45  1  0
 27 46  1  0
 28 47  1  0
 29 48  1  0
M  CHG  1   7  -1
M  END
>  <UniqueID>  (23) 
21

>  <SMILES>  (23) 
COc1ccc([N-]S(=O)(=O)c2ccc(C)c(NS(=O)(=O)c3ccccc3)c2)cc1

>  <Energy>  (23) 
52.14268235977526

>  <Genealogy>  (23) 
COc1ccc([N-]S(=O)(=O)c2ccc(C)c(NS(=O)(=O)c3ccccc3)c2)cc1 (protonated)
COc1ccc([N-]S(=O)(=O)c2ccc(C)c(NS(=O)(=O)c3ccccc3)c2)cc1 (3D coordinates assigned)
COc1ccc([N-]S(=O)(=O)c2ccc(C)c(NS(=O)(=O)c3ccccc3)c2)cc1 (optimized conformer: 52.14268235977526 kcal/mol)

>  <smiles>  (23) 
COc1ccc(NS(=O)(=O)c2ccc(C)c(NS(=O)(=O)c3ccccc3)c2)cc1

>  <score_type>  (23) 
oracle

>  <origin>  (23) 
adgpu

>  <m_score__min__energy>  (23) 
-11.550000000000001

>  <m_primary>  (23) 
energy

$$$$
23:0
     RDKit          3D

 38 40  0  0  0  0  0  0  0  0999 V2000
   -8.6900   19.0990  -31.8490 C   0  0  0  0  0  0  0  0  0  0  0  0
   -7.9020   19.0650  -33.0790 N   0  0  0  0  0  0  0  0  0  0  0  0
   -6.3250   19.7370  -32.7860 S   0  0  0  0  0  0  0  0  0  0  0  0
   -5.5020   19.6470  -34.0420 O   0  0  0  0  0  0  0  0  0  0  0  0
   -5.6470   18.9510  -31.7000 O   0  0  0  0  0  0  0  0  0  0  0  0
   -6.4670   21.4150  -32.2720 C   0  0  0  0  0  0  0  0  0  0  0  0
   -7.7030   22.0740  -32.3210 C   0  0  0  0  0  0  0  0  0  0  0  0
   -7.7990   23.4110  -31.9280 C   0  0  0  0  0  0  0  0  0  0  0  0
   -6.6670   24.0930  -31.4740 C   0  0  0  0  0  0  0  0  0  0  0  0
   -5.4330   23.4370  -31.3920 C   0  0  0  0  0  0  0  0  0  0  0  0
   -4.2800   24.1740  -30.9540 N   0  0  0  0  0  0  0  0  0  0  0  0
   -3.8360   24.2610  -29.7340 C   0  0  0  0  0  0  0  0  0  0  0  0
   -4.4380   23.7690  -28.5870 C   0  0  0  0  0  0  0  0  0  0  0  0
   -3.5960   24.1700  -27.5720 C   0  0  0  0  0  0  0  0  0  0  0  0
   -2.5640   24.8620  -28.1040 N   0  0  0  0  0  0  0  0  0  0  0  0
   -1.4670   25.4750  -27.3960 C   0  0  0  0  0  0  0  0  0  0  0  0
   -0.1300   25.2780  -27.8010 C   0  0  0  0  0  0  0  0  0  0  0  0
    0.9180   25.8830  -27.1040 C   0  0  0  0  0  0  0  0  0  0  0  0
    0.6520   26.6930  -25.9980 C   0  0  0  0  0  0  0  0  0  0  0  0
    1.6720   27.2790  -25.3240 F   0  0  0  0  0  0  0  0  0  0  0  0
   -0.6670   26.9010  -25.5890 C   0  0  0  0  0  0  0  0  0  0  0  0
   -1.7200   26.2990  -26.2830 C   0  0  0  0  0  0  0  0  0  0  0  0
   -2.7110   24.9280  -29.4200 N   0  0  0  0  0  0  0  0  0  0  0  0
   -5.3300   22.1050  -31.8270 C   0  0  0  0  0  0  0  0  0  0  0  0
   -8.0155   19.0699  -30.9805 H   0  0  0  0  0  0  0  0  0  0  0  0
   -9.2851   20.0237  -31.8203 H   0  0  0  0  0  0  0  0  0  0  0  0
   -9.3626   18.2290  -31.8203 H   0  0  0  0  0  0  0  0  0  0  0  0
   -8.3750   19.6840  -33.7770 H   0  0  0  0  0  0  0  0  0  0  0  0
   -8.5982   21.5379  -32.6692 H   0  0  0  0  0  0  0  0  0  0  0  0
   -8.7685   23.9285  -31.9760 H   0  0  0  0  0  0  0  0  0  0  0  0
   -6.7459   25.1500  -31.1798 H   0  0  0  0  0  0  0  0  0  0  0  0
   -5.3712   23.1923  -28.5054 H   0  0  0  0  0  0  0  0  0  0  0  0
   -3.7406   23.9606  -26.5018 H   0  0  0  0  0  0  0  0  0  0  0  0
    0.0886   24.6431  -28.6723 H   0  0  0  0  0  0  0  0  0  0  0  0
    1.9568   25.7209  -27.4274 H   0  0  0  0  0  0  0  0  0  0  0  0
   -0.8775   27.5400  -24.7188 H   0  0  0  0  0  0  0  0  0  0  0  0
   -2.7563   26.4706  -25.9565 H   0  0  0  0  0  0  0  0  0  0  0  0
   -4.3524   21.6007  -31.8185 H   0  0  0  0  0  0  0  0  0  0  0  0
  1  2  1  0
  2  3  1  0
  3  4  2  0
  3  5  2  0
  3  6  1  0
  6  7  2  0
  7  8  1  0
  8  9  2  0
  9 10  1  0
 10 11  1  0
 11 12  2  3
 12 13  1  0
 13 14  2  0
 14 15  1  0
 15 16  1  0
 16 17  2  0
 17 18  1  0
 18 19  2  0
 19 20  1  0
 19 21  1  0
 21 22  2  0
 15 23  1  0
 10 24  2  0
 24  6  1  0
 23 12  1  0
 22 16  1  0
  1 25  1  0
  1 26  1  0
  1 27  1  0
  2 28  1  0
  7 29  1  0
  8 30  1  0
  9 31  1  0
 13 32  1  0
 14 33  1  0
 17 34  1  0
 18 35  1  0
 21 36  1  0
 22 37  1  0
 24 38  1  0
M  CHG  1  23  -1
M  END
>  <UniqueID>  (24) 
22

>  <SMILES>  (24) 
CNS(=O)(=O)c1cccc(N=c2ccn(-c3ccc(F)cc3)[n-]2)c1

>  <Energy>  (24) 
77.72297690558838

>  <Genealogy>  (24) 
CNS(=O)(=O)c1cccc(N=c2ccn(-c3ccc(F)cc3)[n-]2)c1 (protonated)
CNS(=O)(=O)c1cccc(N=c2ccn(-c3ccc(F)cc3)[n-]2)c1 (3D coordinates assigned)
CNS(=O)(=O)c1cccc(N=c2ccn(-c3ccc(F)cc3)[n-]2)c1 (optimized conformer: 77.72297690558838 kcal/mol)

>  <smiles>  (24) 
CNS(=O)(=O)c1cccc(N=c2ccn(-c3ccc(F)cc3)[nH]2)c1

>  <score_type>  (24) 
oracle

>  <origin>  (24) 
adgpu

>  <m_score__min__energy>  (24) 
-9.6400000000000006

>  <m_primary>  (24) 
energy

$$$$
24:0
     RDKit          3D

 40 42  0  0  0  0  0  0  0  0999 V2000
    0.1020   25.7100  -25.4260 C   0  0  0  0  0  0  0  0  0  0  0  0
   -1.1040   25.2760  -26.2050 C   0  0  0  0  0  0  0  0  0  0  0  0
   -2.3860   25.3970  -25.6480 C   0  0  0  0  0  0  0  0  0  0  0  0
   -3.5140   25.0280  -26.3870 C   0  0  0  0  0  0  0  0  0  0  0  0
   -3.3750   24.5290  -27.6950 C   0  0  0  0  0  0  0  0  0  0  0  0
   -4.5220   24.1640  -28.4830 N   0  0  0  0  0  0  0  0  0  0  0  0
   -4.6150   24.3720  -29.9020 C   0  0  0  0  0  0  0  0  0  0  0  0
   -3.8900   25.2450  -30.4550 O   0  0  0  0  0  0  0  0  0  0  0  0
   -5.5880   23.6090  -30.7210 C   0  0  0  0  0  0  0  0  0  0  0  0
   -6.9680   23.8170  -30.5660 C   0  0  0  0  0  0  0  0  0  0  0  0
   -7.8580   23.1120  -31.3130 N   0  0  0  0  0  0  0  0  0  0  0  0
   -7.4560   22.2050  -32.2400 C   0  0  0  0  0  0  0  0  0  0  0  0
   -6.0890   21.9800  -32.4620 C   0  0  0  0  0  0  0  0  0  0  0  0
   -5.6330   21.0100  -33.4190 N   0  0  0  0  0  0  0  0  0  0  0  0
   -6.0300   19.6280  -33.4300 C   0  0  0  0  0  0  0  0  0  0  0  0
   -5.6860   18.8190  -34.5250 C   0  0  0  0  0  0  0  0  0  0  0  0
   -6.0860   17.4810  -34.5690 C   0  0  0  0  0  0  0  0  0  0  0  0
   -6.8460   16.9420  -33.5280 C   0  0  0  0  0  0  0  0  0  0  0  0
   -7.2350   15.6440  -33.5730 F   0  0  0  0  0  0  0  0  0  0  0  0
   -7.2150   17.7450  -32.4450 C   0  0  0  0  0  0  0  0  0  0  0  0
   -6.8170   19.0840  -32.3980 C   0  0  0  0  0  0  0  0  0  0  0  0
   -5.1590   22.6770  -31.6810 C   0  0  0  0  0  0  0  0  0  0  0  0
   -2.0940   24.4460  -28.2620 C   0  0  0  0  0  0  0  0  0  0  0  0
   -0.9660   24.8160  -27.5220 C   0  0  0  0  0  0  0  0  0  0  0  0
   -0.1100   25.6337  -24.3493 H   0  0  0  0  0  0  0  0  0  0  0  0
    0.9544   25.0622  -25.6787 H   0  0  0  0  0  0  0  0  0  0  0  0
    0.3461   26.7524  -25.6787 H   0  0  0  0  0  0  0  0  0  0  0  0
   -2.5042   25.7840  -24.6251 H   0  0  0  0  0  0  0  0  0  0  0  0
   -4.5155   25.1284  -25.9433 H   0  0  0  0  0  0  0  0  0  0  0  0
   -5.3750   23.8340  -27.9780 H   0  0  0  0  0  0  0  0  0  0  0  0
   -7.3309   24.5550  -29.8355 H   0  0  0  0  0  0  0  0  0  0  0  0
   -8.2048   21.6446  -32.8190 H   0  0  0  0  0  0  0  0  0  0  0  0
   -4.9660   21.3310  -34.1580 H   0  0  0  0  0  0  0  0  0  0  0  0
   -5.0980   19.2413  -35.3532 H   0  0  0  0  0  0  0  0  0  0  0  0
   -5.8020   16.8509  -35.4248 H   0  0  0  0  0  0  0  0  0  0  0  0
   -7.8194   17.3226  -31.6287 H   0  0  0  0  0  0  0  0  0  0  0  0
   -7.1204   19.7157  -31.5501 H   0  0  0  0  0  0  0  0  0  0  0  0
   -4.0834   22.4934  -31.8202 H   0  0  0  0  0  0  0  0  0  0  0  0
   -1.9761   24.0876  -29.2953 H   0  0  0  0  0  0  0  0  0  0  0  0
    0.0337   24.7457  -27.9755 H   0  0  0  0  0  0  0  0  0  0  0  0
  1  2  1  0
  2  3  2  0
  3  4  1  0
  4  5  2  0
  5  6  1  0
  6  7  1  0
  7  8  2  0
  7  9  1  0
  9 10  2  0
 10 11  1  0
 11 12  2  0
 12 13  1  0
 13 14  1  0
 14 15  1  0
 15 16  2  0
 16 17  1  0
 17 18  2  0
 18 19  1  0
 18 20  1  0
 20 21  2  0
 13 22  2  0
  5 23  1  0
 23 24  2  0
 24  2  1  0
 22  9  1  0
 21 15  1  0
  1 25  1  0
  1 26  1  0
  1 27  1  0
  3 28  1  0
  4 29  1  0
  6 30  1  0
 10 31  1  0
 12 32  1  0
 14 33  1  0
 16 34  1  0
 17 35  1  0
 20 36  1  0
 21 37  1  0
 22 38  1  0
 23 39  1  0
 24 40  1  0
M  END
>  <UniqueID>  (25) 
23

>  <SMILES>  (25) 
Cc1ccc(NC(=O)c2cncc(Nc3ccc(F)cc3)c2)cc1

>  <Energy>  (25) 
53.67061445518808

>  <Genealogy>  (25) 
Cc1ccc(NC(=O)c2cncc(Nc3ccc(F)cc3)c2)cc1 (3D coordinates assigned)
Cc1ccc(NC(=O)c2cncc(Nc3ccc(F)cc3)c2)cc1 (optimized conformer: 53.67061445518808 kcal/mol)

>  <smiles>  (25) 
Cc1ccc(NC(=O)c2cncc(Nc3ccc(F)cc3)c2)cc1

>  <score_type>  (25) 
oracle

>  <origin>  (25) 
adgpu

>  <m_score__min__energy>  (25) 
-8.9900000000000002

>  <m_primary>  (25) 
energy

$$$$
25:0
     RDKit          3D

 54 57  0  0  0  0  0  0  0  0999 V2000
   -9.8900   21.2000  -31.9810 C   0  0  0  0  0  0  0  0  0  0  0  0
   -8.5480   20.5150  -32.0640 C   0  0  0  0  0  0  0  0  0  0  0  0
   -8.5090   19.1180  -32.2250 C   0  0  0  0  0  0  0  0  0  0  0  0
   -7.2900   18.4450  -32.2910 C   0  0  0  0  0  0  0  0  0  0  0  0
   -6.0920   19.1520  -32.1960 C   0  0  0  0  0  0  0  0  0  0  0  0
   -6.0990   20.5450  -32.0510 C   0  0  0  0  0  0  0  0  0  0  0  0
   -4.8470   21.2340  -31.9290 N   0  0  0  0  0  0  0  0  0  0  0  0
   -4.4750   21.8500  -30.6540 C   0  0  0  0  0  0  0  0  0  0  0  0
   -3.3300   22.8550  -30.8510 C   0  0  0  0  0  0  0  0  0  0  0  0
   -2.1710   22.2800  -31.5850 N   0  0  0  0  0  0  0  0  0  0  0  0
   -1.1440   21.7400  -30.6690 C   0  0  0  0  0  0  0  0  0  0  0  0
   -1.2900   22.3360  -29.2990 C   0  0  0  0  0  0  0  0  0  0  0  0
   -0.9680   23.6060  -28.9940 N   0  0  0  0  0  0  0  0  0  0  0  0
   -1.2840   23.7030  -27.6800 C   0  0  0  0  0  0  0  0  0  0  0  0
   -1.1100   24.9380  -26.8840 C   0  0  0  0  0  0  0  0  0  0  0  0
   -0.9850   24.8650  -25.4820 C   0  0  0  0  0  0  0  0  0  0  0  0
   -0.8040   26.0270  -24.7240 C   0  0  0  0  0  0  0  0  0  0  0  0
   -0.7460   27.2710  -25.3510 C   0  0  0  0  0  0  0  0  0  0  0  0
   -0.8700   27.3570  -26.7400 C   0  0  0  0  0  0  0  0  0  0  0  0
   -1.0530   26.2010  -27.5090 C   0  0  0  0  0  0  0  0  0  0  0  0
   -1.1670   26.3200  -28.8550 F   0  0  0  0  0  0  0  0  0  0  0  0
   -1.7720   22.5790  -27.1930 O   0  0  0  0  0  0  0  0  0  0  0  0
   -1.7930   21.7130  -28.1740 C   0  0  0  0  0  0  0  0  0  0  0  0
   -2.2560   20.3000  -28.0470 C   0  0  0  0  0  0  0  0  0  0  0  0
   -2.5200   21.2920  -32.6400 C   0  0  0  0  0  0  0  0  0  0  0  0
   -3.9770   21.3890  -33.0940 C   0  0  0  0  0  0  0  0  0  0  0  0
   -7.3310   21.2470  -32.0110 C   0  0  0  0  0  0  0  0  0  0  0  0
   -7.3380   22.7520  -31.8630 C   0  0  0  0  0  0  0  0  0  0  0  0
  -10.1653   21.3405  -30.9253 H   0  0  0  0  0  0  0  0  0  0  0  0
   -9.8332   22.1794  -32.4786 H   0  0  0  0  0  0  0  0  0  0  0  0
  -10.6498   20.5795  -32.4786 H   0  0  0  0  0  0  0  0  0  0  0  0
   -9.4490   18.5515  -32.2995 H   0  0  0  0  0  0  0  0  0  0  0  0
   -7.2732   17.3525  -32.4185 H   0  0  0  0  0  0  0  0  0  0  0  0
   -5.1346   18.6119  -32.2352 H   0  0  0  0  0  0  0  0  0  0  0  0
   -5.3480   22.3740  -30.2377 H   0  0  0  0  0  0  0  0  0  0  0  0
   -4.1391   21.0614  -29.9645 H   0  0  0  0  0  0  0  0  0  0  0  0
   -3.7129   23.7154  -31.4194 H   0  0  0  0  0  0  0  0  0  0  0  0
   -2.9741   23.1478  -29.8522 H   0  0  0  0  0  0  0  0  0  0  0  0
   -1.2580   20.6480  -30.6019 H   0  0  0  0  0  0  0  0  0  0  0  0
   -0.1491   21.9960  -31.0622 H   0  0  0  0  0  0  0  0  0  0  0  0
   -1.0301   23.8872  -24.9801 H   0  0  0  0  0  0  0  0  0  0  0  0
   -0.7072   25.9589  -23.6304 H   0  0  0  0  0  0  0  0  0  0  0  0
   -0.6029   28.1832  -24.7531 H   0  0  0  0  0  0  0  0  0  0  0  0
   -0.8236   28.3393  -27.2328 H   0  0  0  0  0  0  0  0  0  0  0  0
   -2.3423   20.0367  -26.9825 H   0  0  0  0  0  0  0  0  0  0  0  0
   -3.2370   20.1906  -28.5325 H   0  0  0  0  0  0  0  0  0  0  0  0
   -1.5300   19.6312  -28.5325 H   0  0  0  0  0  0  0  0  0  0  0  0
   -1.8698   21.4647  -33.5103 H   0  0  0  0  0  0  0  0  0  0  0  0
   -2.3761   20.2894  -32.2111 H   0  0  0  0  0  0  0  0  0  0  0  0
   -4.1543   22.3698  -33.5595 H   0  0  0  0  0  0  0  0  0  0  0  0
   -4.1923   20.5984  -33.8280 H   0  0  0  0  0  0  0  0  0  0  0  0
   -7.3392   23.0154  -30.7950 H   0  0  0  0  0  0  0  0  0  0  0  0
   -6.4418   23.1718  -32.3432 H   0  0  0  0  0  0  0  0  0  0  0  0
   -8.2381   23.1635  -32.3432 H   0  0  0  0  0  0  0  0  0  0  0  0
  1  2  1  0
  2  3  2  0
  3  4  1  0
  4  5  2  0
  5  6  1  0
  6  7  1  0
  7  8  1  0
  8  9  1  0
  9 10  1  0
 10 11  1  0
 11 12  1  0
 12 13  1  0
 13 14  2  0
 14 15  1  0
 15 16  2  0
 16 17  1  0
 17 18  2  0
 18 19  1  0
 19 20  2  0
 20 21  1  0
 14 22  1  0
 22 23  1  0
 23 24  1  0
 10 25  1  0
 25 26  1  0
  6 27  2  0
 27 28  1  0
 27  2  1  0
 26  7  1  0
 23 12  2  0
 20 15  1  0
  1 29  1  0
  1 30  1  0
  1 31  1  0
  3 32  1  0
  4 33  1  0
  5 34  1  0
  8 35  1  0
  8 36  1  0
  9 37  1  0
  9 38  1  0
 11 39  1  0
 11 40  1  0
 16 41  1  0
 17 42  1  0
 18 43  1  0
 19 44  1  0
 24 45  1  0
 24 46  1  0
 24 47  1  0
 25 48  1  0
 25 49  1  0
 26 50  1  0
 26 51  1  0
 28 52  1  0
 28 53  1  0
 28 54  1  0
M  END
>  <UniqueID>  (26) 
24

>  <SMILES>  (26) 
Cc1cccc(N2CCN(Cc3nc(-c4ccccc4F)oc3C)CC2)c1C

>  <Energy>  (26) 
99.95728607872455

>  <Genealogy>  (26) 
Cc1cccc(N2CCN(Cc3nc(-c4ccccc4F)oc3C)CC2)c1C (3D coordinates assigned)
Cc1cccc(N2CCN(Cc3nc(-c4ccccc4F)oc3C)CC2)c1C (nonaromatic ring conformer: 99.95728607872455 kcal/mol)

>  <smiles>  (26) 
Cc1cccc(N2CCN(Cc3nc(-c4ccccc4F)oc3C)CC2)c1C

>  <score_type>  (26) 
oracle

>  <origin>  (26) 
adgpu

>  <m_score__min__energy>  (26) 
-8.9199999999999999

>  <m_primary>  (26) 
energy

$$$$
26:0
     RDKit          3D

 34 35  0  0  0  0  0  0  0  0999 V2000
   -7.0640   18.2670  -31.7860 C   0  0  0  0  0  0  0  0  0  0  0  0
   -6.7500   19.4310  -32.6240 N   0  0  0  0  0  0  0  0  0  0  0  0
   -6.0970   19.2160  -33.9220 C   0  0  0  0  0  0  0  0  0  0  0  0
   -7.0820   20.7720  -32.1780 C   0  0  0  0  0  0  0  0  0  0  0  0
   -8.3840   21.2850  -32.3440 C   0  0  0  0  0  0  0  0  0  0  0  0
   -8.7030   22.5720  -31.9100 C   0  0  0  0  0  0  0  0  0  0  0  0
   -7.7330   23.3740  -31.3090 C   0  0  0  0  0  0  0  0  0  0  0  0
   -6.4230   22.8970  -31.1380 C   0  0  0  0  0  0  0  0  0  0  0  0
   -5.3860   23.7410  -30.4960 C   0  0  0  0  0  0  0  0  0  0  0  0
   -4.6560   24.4800  -31.2120 O   0  0  0  0  0  0  0  0  0  0  0  0
   -5.2350   23.7630  -29.0660 N   0  0  0  0  0  0  0  0  0  0  0  0
   -4.0420   24.2060  -28.3960 C   0  0  0  0  0  0  0  0  0  0  0  0
   -2.8010   24.2540  -29.0590 C   0  0  0  0  0  0  0  0  0  0  0  0
   -1.6530   24.6670  -28.3770 C   0  0  0  0  0  0  0  0  0  0  0  0
   -1.7270   25.0250  -27.0280 C   0  0  0  0  0  0  0  0  0  0  0  0
   -0.1560   25.5870  -26.0980 Br  0  0  0  0  0  0  0  0  0  0  0  0
   -2.9520   24.9610  -26.3560 C   0  0  0  0  0  0  0  0  0  0  0  0
   -4.1030   24.5470  -27.0350 C   0  0  0  0  0  0  0  0  0  0  0  0
   -6.1100   21.5940  -31.5690 C   0  0  0  0  0  0  0  0  0  0  0  0
   -6.9882   18.5478  -30.7251 H   0  0  0  0  0  0  0  0  0  0  0  0
   -8.0866   17.9245  -32.0025 H   0  0  0  0  0  0  0  0  0  0  0  0
   -6.3524   17.4566  -32.0025 H   0  0  0  0  0  0  0  0  0  0  0  0
   -5.0635   18.8757  -33.7606 H   0  0  0  0  0  0  0  0  0  0  0  0
   -6.6501   18.4525  -34.4887 H   0  0  0  0  0  0  0  0  0  0  0  0
   -6.0884   20.1587  -34.4887 H   0  0  0  0  0  0  0  0  0  0  0  0
   -9.1569   20.6642  -32.8207 H   0  0  0  0  0  0  0  0  0  0  0  0
   -9.7251   22.9563  -32.0425 H   0  0  0  0  0  0  0  0  0  0  0  0
   -7.9954   24.3860  -30.9669 H   0  0  0  0  0  0  0  0  0  0  0  0
   -6.0740   23.5520  -28.4810 H   0  0  0  0  0  0  0  0  0  0  0  0
   -2.7345   23.9652  -30.1183 H   0  0  0  0  0  0  0  0  0  0  0  0
   -0.6882   24.7104  -28.9036 H   0  0  0  0  0  0  0  0  0  0  0  0
   -3.0105   25.2364  -25.2926 H   0  0  0  0  0  0  0  0  0  0  0  0
   -5.0620   24.4882  -26.4994 H   0  0  0  0  0  0  0  0  0  0  0  0
   -5.0890   21.2095  -31.4285 H   0  0  0  0  0  0  0  0  0  0  0  0
  1  2  1  0
  2  3  1  0
  2  4  1  0
  4  5  2  0
  5  6  1  0
  6  7  2  0
  7  8  1  0
  8  9  1  0
  9 10  2  0
  9 11  1  0
 11 12  1  0
 12 13  2  0
 13 14  1  0
 14 15  2  0
 15 16  1  0
 15 17  1  0
 17 18  2  0
  8 19  2  0
 19  4  1  0
 18 12  1  0
  1 20  1  0
  1 21  1  0
  1 22  1  0
  3 23  1  0
  3 24  1  0
  3 25  1  0
  5 26  1  0
  6 27  1  0
  7 28  1  0
 11 29  1  0
 13 30  1  0
 14 31  1  0
 17 32  1  0
 18 33  1  0
 19 34  1  0
M  END
>  <UniqueID>  (27) 
25

>  <SMILES>  (27) 
CN(C)c1cccc(C(=O)Nc2ccc(Br)cc2)c1

>  <Energy>  (27) 
41.28856841093112

>  <Genealogy>  (27) 
CN(C)c1cccc(C(=O)Nc2ccc(Br)cc2)c1 (3D coordinates assigned)
CN(C)c1cccc(C(=O)Nc2ccc(Br)cc2)c1 (optimized conformer: 41.28856841093112 kcal/mol)

>  <smiles>  (27) 
CN(C)c1cccc(C(=O)Nc2ccc(Br)cc2)c1

>  <score_type>  (27) 
oracle

>  <origin>  (27) 
adgpu

>  <m_score__min__energy>  (27) 
-7.8499999999999996

>  <m_primary>  (27) 
energy

$$$$
27:0
     RDKit          3D

 32 33  0  0  0  0  0  0  0  0999 V2000
   -5.7280   26.0530  -30.3520 C   0  0  0  0  0  0  0  0  0  0  0  0
   -4.8920   24.8290  -30.5300 C   0  0  0  0  0  0  0  0  0  0  0  0
   -3.6320   24.7030  -30.0700 N   0  0  0  0  0  0  0  0  0  0  0  0
   -3.1870   23.5100  -30.4340 N   0  0  0  0  0  0  0  0  0  0  0  0
   -1.8350   23.0480  -30.1390 C   0  0  0  0  0  0  0  0  0  0  0  0
   -4.1530   22.8530  -31.1200 C   0  0  0  0  0  0  0  0  0  0  0  0
   -4.0350   21.5050  -31.7090 C   0  0  0  0  0  0  0  0  0  0  0  0
   -3.6860   20.5400  -30.9770 O   0  0  0  0  0  0  0  0  0  0  0  0
   -4.2840   21.2900  -33.1050 N   0  0  0  0  0  0  0  0  0  0  0  0
   -4.4980   19.9580  -33.6640 C   0  0  0  0  0  0  0  0  0  0  0  0
   -5.8050   19.3990  -33.1750 C   0  0  0  0  0  0  0  0  0  0  0  0
   -5.9930   18.0090  -33.1070 C   0  0  0  0  0  0  0  0  0  0  0  0
   -7.2190   17.4830  -32.6910 C   0  0  0  0  0  0  0  0  0  0  0  0
   -8.2690   18.3390  -32.3470 C   0  0  0  0  0  0  0  0  0  0  0  0
   -9.4560   17.8170  -31.9480 F   0  0  0  0  0  0  0  0  0  0  0  0
   -8.0940   19.7260  -32.4210 C   0  0  0  0  0  0  0  0  0  0  0  0
   -9.5260   20.9080  -31.9640 Br  0  0  0  0  0  0  0  0  0  0  0  0
   -6.8670   20.2550  -32.8370 C   0  0  0  0  0  0  0  0  0  0  0  0
   -5.2530   23.6850  -31.2170 C   0  0  0  0  0  0  0  0  0  0  0  0
   -6.7900   23.3600  -32.0030 Cl  0  0  0  0  0  0  0  0  0  0  0  0
   -5.8636   26.2515  -29.2786 H   0  0  0  0  0  0  0  0  0  0  0  0
   -5.2265   26.9112  -30.8231 H   0  0  0  0  0  0  0  0  0  0  0  0
   -6.7099   25.8981  -30.8231 H   0  0  0  0  0  0  0  0  0  0  0  0
   -1.6936   22.9997  -29.0492 H   0  0  0  0  0  0  0  0  0  0  0  0
   -1.6864   22.0481  -30.5727 H   0  0  0  0  0  0  0  0  0  0  0  0
   -1.1056   23.7479  -30.5727 H   0  0  0  0  0  0  0  0  0  0  0  0
   -4.2910   22.1060  -33.7550 H   0  0  0  0  0  0  0  0  0  0  0  0
   -4.5174   20.0225  -34.7619 H   0  0  0  0  0  0  0  0  0  0  0  0
   -3.6798   19.2963  -33.3436 H   0  0  0  0  0  0  0  0  0  0  0  0
   -5.1715   17.3312  -33.3824 H   0  0  0  0  0  0  0  0  0  0  0  0
   -7.3580   16.3933  -32.6342 H   0  0  0  0  0  0  0  0  0  0  0  0
   -6.7333   21.3450  -32.8997 H   0  0  0  0  0  0  0  0  0  0  0  0
  1  2  1  0
  2  3  2  0
  3  4  1  0
  4  5  1  0
  4  6  1  0
  6  7  1  0
  7  8  2  0
  7  9  1  0
  9 10  1  0
 10 11  1  0
 11 12  2  0
 12 13  1  0
 13 14  2  0
 14 15  1  0
 14 16  1  0
 16 17  1  0
 16 18  2  0
  6 19  2  0
 19 20  1  0
 19  2  1  0
 18 11  1  0
  1 21  1  0
  1 22  1  0
  1 23  1  0
  5 24  1  0
  5 25  1  0
  5 26  1  0
  9 27  1  0
 10 28  1  0
 10 29  1  0
 12 30  1  0
 13 31  1  0
 18 32  1  0
M  END
>  <UniqueID>  (28) 
26

>  <SMILES>  (28) 
Cc1nn(C)c(C(=O)NCc2ccc(F)c(Br)c2)c1Cl

>  <Energy>  (28) 
61.67419184695509

>  <Genealogy>  (28) 
Cc1nn(C)c(C(=O)NCc2ccc(F)c(Br)c2)c1Cl (3D coordinates assigned)
Cc1nn(C)c(C(=O)NCc2ccc(F)c(Br)c2)c1Cl (optimized conformer: 61.67419184695509 kcal/mol)

>  <smiles>  (28) 
Cc1nn(C)c(C(=O)NCc2ccc(F)c(Br)c2)c1Cl

>  <score_type>  (28) 
oracle

>  <origin>  (28) 
adgpu

>  <m_score__min__energy>  (28) 
-7.8899999999999997

>  <m_primary>  (28) 
energy

$$$$
28:0
     RDKit          3D

 61 64  0  0  0  0  0  0  0  0999 V2000
   -5.0330   21.8410  -32.7080 C   0  0  0  0  0  0  0  0  0  0  0  0
   -6.4880   21.8310  -32.3270 C   0  0  0  0  0  0  0  0  0  0  0  0
   -7.2000   23.0430  -32.2900 C   0  0  0  0  0  0  0  0  0  0  0  0
   -8.5510   23.0600  -31.9400 C   0  0  0  0  0  0  0  0  0  0  0  0
   -9.2030   21.8730  -31.6120 C   0  0  0  0  0  0  0  0  0  0  0  0
   -8.5070   20.6630  -31.6340 C   0  0  0  0  0  0  0  0  0  0  0  0
   -7.1490   20.6230  -31.9980 C   0  0  0  0  0  0  0  0  0  0  0  0
   -6.4290   19.3780  -31.9880 N   0  0  0  0  0  0  0  0  0  0  0  0
   -6.0760   18.4800  -33.4350 S   0  0  0  0  0  0  0  0  0  0  0  0
   -6.4880   19.2960  -34.6300 O   0  0  0  0  0  0  0  0  0  0  0  0
   -6.8500   17.1920  -33.4180 O   0  0  0  0  0  0  0  0  0  0  0  0
   -4.3520   18.1240  -33.5920 C   0  0  0  0  0  0  0  0  0  0  0  0
   -3.8630   16.8120  -33.5120 C   0  0  0  0  0  0  0  0  0  0  0  0
   -2.5000   16.5590  -33.6810 C   0  0  0  0  0  0  0  0  0  0  0  0
   -1.6150   17.6100  -33.9310 C   0  0  0  0  0  0  0  0  0  0  0  0
   -2.0830   18.9270  -33.9970 C   0  0  0  0  0  0  0  0  0  0  0  0
   -1.1490   19.9760  -34.2900 N   0  0  0  0  0  0  0  0  0  0  0  0
   -0.6100   20.9180  -33.3530 C   0  0  0  0  0  0  0  0  0  0  0  0
    0.2440   21.7640  -33.7350 O   0  0  0  0  0  0  0  0  0  0  0  0
   -1.1220   20.9730  -31.9640 C   0  0  0  0  0  0  0  0  0  0  0  0
   -1.9870   22.0230  -31.6010 C   0  0  0  0  0  0  0  0  0  0  0  0
   -2.5020   22.1150  -30.3030 C   0  0  0  0  0  0  0  0  0  0  0  0
   -3.6020   23.4280  -29.8910 S   0  0  0  0  0  0  0  0  0  0  0  0
   -4.8480   22.8400  -29.2900 O   0  0  0  0  0  0  0  0  0  0  0  0
   -3.9820   24.1890  -31.1320 O   0  0  0  0  0  0  0  0  0  0  0  0
   -2.8330   24.4950  -28.7430 N   0  0  0  0  0  0  0  0  0  0  0  0
   -3.2510   24.1450  -27.3760 C   0  0  0  0  0  0  0  0  0  0  0  0
   -2.7540   25.2040  -26.3730 C   0  0  0  0  0  0  0  0  0  0  0  0
   -1.5310   25.9760  -26.8920 C   0  0  0  0  0  0  0  0  0  0  0  0
   -0.6130   25.0650  -27.7090 C   0  0  0  0  0  0  0  0  0  0  0  0
   -1.3650   24.4030  -28.8860 C   0  0  0  0  0  0  0  0  0  0  0  0
   -2.1590   21.1480  -29.3520 C   0  0  0  0  0  0  0  0  0  0  0  0
   -1.2950   20.1060  -29.6920 C   0  0  0  0  0  0  0  0  0  0  0  0
   -0.7690   20.0100  -30.9860 C   0  0  0  0  0  0  0  0  0  0  0  0
    0.3810   18.7120  -31.2990 Cl  0  0  0  0  0  0  0  0  0  0  0  0
   -3.4590   19.1770  -33.8450 C   0  0  0  0  0  0  0  0  0  0  0  0
   -4.4156   21.8452  -31.7976 H   0  0  0  0  0  0  0  0  0  0  0  0
   -4.8035   20.9444  -33.3025 H   0  0  0  0  0  0  0  0  0  0  0  0
   -4.8158   22.7407  -33.3025 H   0  0  0  0  0  0  0  0  0  0  0  0
   -6.6885   23.9846  -32.5387 H   0  0  0  0  0  0  0  0  0  0  0  0
   -9.1019   24.0119  -31.9231 H   0  0  0  0  0  0  0  0  0  0  0  0
  -10.2675   21.8894  -31.3354 H   0  0  0  0  0  0  0  0  0  0  0  0
   -9.0259   19.7315  -31.3639 H   0  0  0  0  0  0  0  0  0  0  0  0
   -6.1260   18.9830  -31.0740 H   0  0  0  0  0  0  0  0  0  0  0  0
   -4.5550   15.9798  -33.3156 H   0  0  0  0  0  0  0  0  0  0  0  0
   -2.1221   15.5280  -33.6170 H   0  0  0  0  0  0  0  0  0  0  0  0
   -0.5448   17.4015  -34.0767 H   0  0  0  0  0  0  0  0  0  0  0  0
   -2.2619   22.7819  -32.3484 H   0  0  0  0  0  0  0  0  0  0  0  0
   -4.3491   24.0943  -27.3348 H   0  0  0  0  0  0  0  0  0  0  0  0
   -2.8166   23.1702  -27.1093 H   0  0  0  0  0  0  0  0  0  0  0  0
   -3.5679   25.9190  -26.1823 H   0  0  0  0  0  0  0  0  0  0  0  0
   -2.4536   24.6796  -25.4539 H   0  0  0  0  0  0  0  0  0  0  0  0
   -1.8729   26.8057  -27.5281 H   0  0  0  0  0  0  0  0  0  0  0  0
   -0.9665   26.3588  -26.0290 H   0  0  0  0  0  0  0  0  0  0  0  0
    0.2189   25.6633  -28.1089 H   0  0  0  0  0  0  0  0  0  0  0  0
   -0.2429   24.2683  -27.0470 H   0  0  0  0  0  0  0  0  0  0  0  0
   -1.0695   24.9038  -29.8197 H   0  0  0  0  0  0  0  0  0  0  0  0
   -1.0964   23.3363  -28.8966 H   0  0  0  0  0  0  0  0  0  0  0  0
   -2.5712   21.2091  -28.3340 H   0  0  0  0  0  0  0  0  0  0  0  0
   -1.0249   19.3534  -28.9366 H   0  0  0  0  0  0  0  0  0  0  0  0
   -3.8383   20.2064  -33.9251 H   0  0  0  0  0  0  0  0  0  0  0  0
  1  2  1  0
  2  3  2  0
  3  4  1  0
  4  5  2  0
  5  6  1  0
  6  7  2  0
  7  8  1  0
  8  9  1  0
  9 10  2  0
  9 11  2  0
  9 12  1  0
 12 13  2  0
 13 14  1  0
 14 15  2  0
 15 16  1  0
 16 17  1  0
 17 18  1  0
 18 19  2  0
 18 20  1  0
 20 21  2  0
 21 22  1  0
 22 23  1  0
 23 24  2  0
 23 25  2  0
 23 26  1  0
 26 27  1  0
 27 28  1  0
 28 29  1  0
 29 30  1  0
 30 31  1  0
 22 32  2  0
 32 33  1  0
 33 34  2  0
 34 35  1  0
 16 36  2  0
  7  2  1  0
 36 12  1  0
 34 20  1  0
 31 26  1  0
  1 37  1  0
  1 38  1  0
  1 39  1  0
  3 40  1  0
  4 41  1  0
  5 42  1  0
  6 43  1  0
  8 44  1  0
 13 45  1  0
 14 46  1  0
 15 47  1  0
 21 48  1  0
 27 49  1  0
 27 50  1  0
 28 51  1  0
 28 52  1  0
 29 53  1  0
 29 54  1  0
 30 55  1  0
 30 56  1  0
 31 57  1  0
 31 58  1  0
 32 59  1  0
 33 60  1  0
 36 61  1  0
M  CHG  1  17  -1
M  END
>  <UniqueID>  (29) 
27

>  <SMILES>  (29) 
Cc1ccccc1NS(=O)(=O)c1cccc([N-]C(=O)c2cc(S(=O)(=O)N3CCCCC3)ccc2Cl)c1

>  <Energy>  (29) 
82.01261001122576

>  <Genealogy>  (29) 
Cc1ccccc1NS(=O)(=O)c1cccc([N-]C(=O)c2cc(S(=O)(=O)N3CCCCC3)ccc2Cl)c1 (protonated)
Cc1ccccc1NS(=O)(=O)c1cccc([N-]C(=O)c2cc(S(=O)(=O)N3CCCCC3)ccc2Cl)c1 (3D coordinates assigned)
Cc1ccccc1NS(=O)(=O)c1cccc([N-]C(=O)c2cc(S(=O)(=O)N3CCCCC3)ccc2Cl)c1 (nonaromatic ring conformer: 82.01261001122576 kcal/mol)

>  <smiles>  (29) 
Cc1ccccc1NS(=O)(=O)c1cccc(NC(=O)c2cc(S(=O)(=O)N3CCCCC3)ccc2Cl)c1

>  <score_type>  (29) 
oracle

>  <origin>  (29) 
adgpu

>  <m_score__min__energy>  (29) 
-12.51

>  <m_primary>  (29) 
energy

$$$$
29:0
     RDKit          3D

 38 40  0  0  0  0  0  0  0  0999 V2000
   -9.3860   21.1730  -31.9880 C   0  0  0  0  0  0  0  0  0  0  0  0
   -8.1130   21.9420  -31.8740 C   0  0  0  0  0  0  0  0  0  0  0  0
   -8.0060   23.3250  -31.7880 C   0  0  0  0  0  0  0  0  0  0  0  0
   -6.6880   23.7660  -31.6200 C   0  0  0  0  0  0  0  0  0  0  0  0
   -5.7640   22.7280  -31.5460 C   0  0  0  0  0  0  0  0  0  0  0  0
   -4.3040   22.8640  -31.4080 C   0  0  0  0  0  0  0  0  0  0  0  0
   -3.8270   23.9520  -30.9880 O   0  0  0  0  0  0  0  0  0  0  0  0
   -3.4180   21.7850  -31.7440 N   0  0  0  0  0  0  0  0  0  0  0  0
   -2.3070   21.4470  -30.8450 C   0  0  0  0  0  0  0  0  0  0  0  0
   -0.9750   21.5550  -31.5960 C   0  0  0  0  0  0  0  0  0  0  0  0
   -1.0560   20.9270  -32.9250 N   0  0  0  0  0  0  0  0  0  0  0  0
    0.0370   21.0770  -33.8450 C   0  0  0  0  0  0  0  0  0  0  0  0
   -0.1080   21.8960  -34.9770 C   0  0  0  0  0  0  0  0  0  0  0  0
    0.9540   22.0560  -35.8720 C   0  0  0  0  0  0  0  0  0  0  0  0
    2.1670   21.4010  -35.6440 C   0  0  0  0  0  0  0  0  0  0  0  0
    3.1960   21.5570  -36.5140 F   0  0  0  0  0  0  0  0  0  0  0  0
    2.3180   20.5810  -34.5230 C   0  0  0  0  0  0  0  0  0  0  0  0
    1.2590   20.4170  -33.6230 C   0  0  0  0  0  0  0  0  0  0  0  0
    1.4150   19.5910  -32.5590 F   0  0  0  0  0  0  0  0  0  0  0  0
   -2.2940   20.2630  -33.3520 C   0  0  0  0  0  0  0  0  0  0  0  0
   -3.4940   21.1770  -33.0830 C   0  0  0  0  0  0  0  0  0  0  0  0
   -6.5830   21.2660  -31.7130 S   0  0  0  0  0  0  0  0  0  0  0  0
   -9.7668   20.9430  -30.9820 H   0  0  0  0  0  0  0  0  0  0  0  0
  -10.1294   21.7732  -32.5331 H   0  0  0  0  0  0  0  0  0  0  0  0
   -9.2006   20.2357  -32.5331 H   0  0  0  0  0  0  0  0  0  0  0  0
   -8.8693   24.0042  -31.8460 H   0  0  0  0  0  0  0  0  0  0  0  0
   -6.4101   24.8282  -31.5531 H   0  0  0  0  0  0  0  0  0  0  0  0
   -2.3027   22.1430  -29.9932 H   0  0  0  0  0  0  0  0  0  0  0  0
   -2.4355   20.4162  -30.4831 H   0  0  0  0  0  0  0  0  0  0  0  0
   -0.7175   22.6175  -31.7172 H   0  0  0  0  0  0  0  0  0  0  0  0
   -0.2043   21.0311  -31.0116 H   0  0  0  0  0  0  0  0  0  0  0  0
   -1.0612   22.4136  -35.1600 H   0  0  0  0  0  0  0  0  0  0  0  0
    0.8345   22.6984  -36.7569 H   0  0  0  0  0  0  0  0  0  0  0  0
    3.2722   20.0627  -34.3473 H   0  0  0  0  0  0  0  0  0  0  0  0
   -2.2373   20.0423  -34.4281 H   0  0  0  0  0  0  0  0  0  0  0  0
   -2.4171   19.3272  -32.7871 H   0  0  0  0  0  0  0  0  0  0  0  0
   -3.5112   21.9764  -33.8384 H   0  0  0  0  0  0  0  0  0  0  0  0
   -4.4097   20.5698  -33.1356 H   0  0  0  0  0  0  0  0  0  0  0  0
  1  2  1  0
  2  3  2  0
  3  4  1  0
  4  5  2  0
  5  6  1  0
  6  7  2  0
  6  8  1  0
  8  9  1  0
  9 10  1  0
 10 11  1  0
 11 12  1  0
 12 13  2  0
 13 14  1  0
 14 15  2  0
 15 16  1  0
 15 17  1  0
 17 18  2  0
 18 19  1  0
 11 20  1  0
 20 21  1  0
  5 22  1  0
 22  2  1  0
 21  8  1  0
 18 12  1  0
  1 23  1  0
  1 24  1  0
  1 25  1  0
  3 26  1  0
  4 27  1  0
  9 28  1  0
  9 29  1  0
 10 30  1  0
 10 31  1  0
 13 32  1  0
 14 33  1  0
 17 34  1  0
 20 35  1  0
 20 36  1  0
 21 37  1  0
 21 38  1  0
M  END
>  <UniqueID>  (30) 
28

>  <SMILES>  (30) 
Cc1ccc(C(=O)N2CCN(c3ccc(F)cc3F)CC2)s1

>  <Energy>  (30) 
73.89477213025282

>  <Genealogy>  (30) 
Cc1ccc(C(=O)N2CCN(c3ccc(F)cc3F)CC2)s1 (3D coordinates assigned)
Cc1ccc(C(=O)N2CCN(c3ccc(F)cc3F)CC2)s1 (nonaromatic ring conformer: 73.89477213025282 kcal/mol)

>  <smiles>  (30) 
Cc1ccc(C(=O)N2CCN(c3ccc(F)cc3F)CC2)s1

>  <score_type>  (30) 
oracle

>  <origin>  (30) 
adgpu

>  <m_score__min__energy>  (30) 
-6.9100000000000001

>  <m_primary>  (30) 
energy

$$$$
30:0
     RDKit          3D

 40 42  0  0  0  0  0  0  0  0999 V2000
   -2.5640   25.3860  -26.0200 C   0  0  0  0  0  0  0  0  0  0  0  0
   -1.2030   25.8530  -26.5280 C   0  0  0  0  0  0  0  0  0  0  0  0
   -0.9790   25.4380  -27.9590 C   0  0  0  0  0  0  0  0  0  0  0  0
    0.1180   24.9100  -28.2850 O   0  0  0  0  0  0  0  0  0  0  0  0
   -1.9930   25.5940  -28.9610 N   0  0  0  0  0  0  0  0  0  0  0  0
   -2.7140   24.5400  -29.6130 C   0  0  0  0  0  0  0  0  0  0  0  0
   -2.1500   23.2610  -29.6550 C   0  0  0  0  0  0  0  0  0  0  0  0
   -2.8110   22.2180  -30.3060 C   0  0  0  0  0  0  0  0  0  0  0  0
   -4.0400   22.4440  -30.9430 C   0  0  0  0  0  0  0  0  0  0  0  0
   -4.7090   21.3560  -31.6070 N   0  0  0  0  0  0  0  0  0  0  0  0
   -6.0020   21.0740  -31.2690 C   0  0  0  0  0  0  0  0  0  0  0  0
   -6.6690   20.0610  -31.8760 N   0  0  0  0  0  0  0  0  0  0  0  0
   -6.0750   19.2990  -32.8280 C   0  0  0  0  0  0  0  0  0  0  0  0
   -6.7870   18.2610  -33.4390 C   0  0  0  0  0  0  0  0  0  0  0  0
   -6.1750   17.4730  -34.4180 C   0  0  0  0  0  0  0  0  0  0  0  0
   -4.8490   17.7210  -34.7890 C   0  0  0  0  0  0  0  0  0  0  0  0
   -4.1290   18.7550  -34.1830 C   0  0  0  0  0  0  0  0  0  0  0  0
   -4.7390   19.5540  -33.1980 C   0  0  0  0  0  0  0  0  0  0  0  0
   -4.0630   20.6060  -32.5550 C   0  0  0  0  0  0  0  0  0  0  0  0
   -2.8580   20.8510  -32.8460 O   0  0  0  0  0  0  0  0  0  0  0  0
   -4.6120   23.7310  -30.9230 C   0  0  0  0  0  0  0  0  0  0  0  0
   -5.8500   23.9280  -31.5550 O   0  0  0  0  0  0  0  0  0  0  0  0
   -7.0850   24.1180  -30.8720 C   0  0  0  0  0  0  0  0  0  0  0  0
   -3.9330   24.7780  -30.2690 C   0  0  0  0  0  0  0  0  0  0  0  0
   -2.5645   25.3858  -24.9200 H   0  0  0  0  0  0  0  0  0  0  0  0
   -3.3458   26.0673  -26.3869 H   0  0  0  0  0  0  0  0  0  0  0  0
   -2.7628   24.3682  -26.3869 H   0  0  0  0  0  0  0  0  0  0  0  0
   -1.1531   26.9498  -26.4613 H   0  0  0  0  0  0  0  0  0  0  0  0
   -0.4232   25.3886  -25.9065 H   0  0  0  0  0  0  0  0  0  0  0  0
   -1.1793   23.0757  -29.1719 H   0  0  0  0  0  0  0  0  0  0  0  0
   -2.3652   21.2125  -30.3195 H   0  0  0  0  0  0  0  0  0  0  0  0
   -6.5069   21.6739  -30.4975 H   0  0  0  0  0  0  0  0  0  0  0  0
   -7.8297   18.0648  -33.1486 H   0  0  0  0  0  0  0  0  0  0  0  0
   -6.7364   16.6573  -34.8971 H   0  0  0  0  0  0  0  0  0  0  0  0
   -4.3709   17.0998  -35.5607 H   0  0  0  0  0  0  0  0  0  0  0  0
   -3.0858   18.9440  -34.4761 H   0  0  0  0  0  0  0  0  0  0  0  0
   -6.9114   24.0913  -29.7861 H   0  0  0  0  0  0  0  0  0  0  0  0
   -7.5122   25.0924  -31.1511 H   0  0  0  0  0  0  0  0  0  0  0  0
   -7.7854   23.3170  -31.1511 H   0  0  0  0  0  0  0  0  0  0  0  0
   -4.3614   25.7911  -30.2721 H   0  0  0  0  0  0  0  0  0  0  0  0
  1  2  1  0
  2  3  1  0
  3  4  2  0
  3  5  1  0
  5  6  1  0
  6  7  2  0
  7  8  1  0
  8  9  2  0
  9 10  1  0
 10 11  1  0
 11 12  2  0
 12 13  1  0
 13 14  2  0
 14 15  1  0
 15 16  2  0
 16 17  1  0
 17 18  2  0
 18 19  1  0
 19 20  2  0
  9 21  1  0
 21 22  1  0
 22 23  1  0
 21 24  2  0
 24  6  1  0
 19 10  1  0
 18 13  1  0
  1 25  1  0
  1 26  1  0
  1 27  1  0
  2 28  1  0
  2 29  1  0
  7 30  1  0
  8 31  1  0
 11 32  1  0
 14 33  1  0
 15 34  1  0
 16 35  1  0
 17 36  1  0
 23 37  1  0
 23 38  1  0
 23 39  1  0
 24 40  1  0
M  CHG  1   5  -1
M  END
>  <UniqueID>  (31) 
29

>  <SMILES>  (31) 
CCC(=O)[N-]c1ccc(-n2cnc3ccccc3c2=O)c(OC)c1

>  <Energy>  (31) 
56.64827901086059

>  <Genealogy>  (31) 
CCC(=O)[N-]c1ccc(-n2cnc3ccccc3c2=O)c(OC)c1 (protonated)
CCC(=O)[N-]c1ccc(-n2cnc3ccccc3c2=O)c(OC)c1 (3D coordinates assigned)
CCC(=O)[N-]c1ccc(-n2cnc3ccccc3c2=O)c(OC)c1 (optimized conformer: 56.64827901086059 kcal/mol)

>  <smiles>  (31) 
CCC(=O)Nc1ccc(-n2cnc3ccccc3c2=O)c(OC)c1

>  <score_type>  (31) 
oracle

>  <origin>  (31) 
adgpu

>  <m_score__min__energy>  (31) 
-8.8699999999999992

>  <m_primary>  (31) 
energy

$$$$
31:0
     RDKit          3D

 33 35  0  0  0  0  0  0  0  0999 V2000
   -2.2920   21.5100  -31.8010 C   0  0  0  0  0  0  0  0  0  0  0  0
   -2.8560   22.7980  -31.5710 O   0  0  0  0  0  0  0  0  0  0  0  0
   -4.2120   23.0370  -31.2970 C   0  0  0  0  0  0  0  0  0  0  0  0
   -5.2250   22.1430  -31.6980 C   0  0  0  0  0  0  0  0  0  0  0  0
   -6.5760   22.4070  -31.4060 C   0  0  0  0  0  0  0  0  0  0  0  0
   -7.6410   21.4630  -31.8330 C   0  0  0  0  0  0  0  0  0  0  0  0
   -7.3870   20.1720  -32.3340 C   0  0  0  0  0  0  0  0  0  0  0  0
   -8.5330   19.4650  -32.6700 C   0  0  0  0  0  0  0  0  0  0  0  0
   -9.8610   20.4390  -32.3490 S   0  0  0  0  0  0  0  0  0  0  0  0
   -9.0030   21.7650  -31.7780 C   0  0  0  0  0  0  0  0  0  0  0  0
   -6.9010   23.5770  -30.7010 C   0  0  0  0  0  0  0  0  0  0  0  0
   -5.9030   24.4650  -30.2990 C   0  0  0  0  0  0  0  0  0  0  0  0
   -4.5580   24.2110  -30.6110 C   0  0  0  0  0  0  0  0  0  0  0  0
   -3.5160   25.1050  -30.1900 N   0  0  0  0  0  0  0  0  0  0  0  0
   -2.4490   24.7900  -29.2850 C   0  0  0  0  0  0  0  0  0  0  0  0
   -1.6250   25.6910  -28.9810 O   0  0  0  0  0  0  0  0  0  0  0  0
   -2.3200   23.4640  -28.6560 C   0  0  0  0  0  0  0  0  0  0  0  0
   -3.2660   22.8240  -27.8740 C   0  0  0  0  0  0  0  0  0  0  0  0
   -2.6900   21.6280  -27.4990 C   0  0  0  0  0  0  0  0  0  0  0  0
   -1.4330   21.6130  -28.0650 C   0  0  0  0  0  0  0  0  0  0  0  0
   -1.2400   22.7210  -28.7460 O   0  0  0  0  0  0  0  0  0  0  0  0
   -2.0797   21.0252  -30.8367 H   0  0  0  0  0  0  0  0  0  0  0  0
   -3.0032   20.8949  -32.3719 H   0  0  0  0  0  0  0  0  0  0  0  0
   -1.3577   21.6155  -32.3719 H   0  0  0  0  0  0  0  0  0  0  0  0
   -4.9563   21.2278  -32.2459 H   0  0  0  0  0  0  0  0  0  0  0  0
   -6.3730   19.7613  -32.4486 H   0  0  0  0  0  0  0  0  0  0  0  0
   -8.5651   18.4433  -33.0763 H   0  0  0  0  0  0  0  0  0  0  0  0
   -9.4394   22.7098  -31.4217 H   0  0  0  0  0  0  0  0  0  0  0  0
   -7.9526   23.7955  -30.4634 H   0  0  0  0  0  0  0  0  0  0  0  0
   -6.1716   25.3698  -29.7341 H   0  0  0  0  0  0  0  0  0  0  0  0
   -4.2677   23.1922  -27.6073 H   0  0  0  0  0  0  0  0  0  0  0  0
   -3.1426   20.8440  -26.8741 H   0  0  0  0  0  0  0  0  0  0  0  0
   -0.7021   20.7974  -27.9624 H   0  0  0  0  0  0  0  0  0  0  0  0
  1  2  1  0
  2  3  1  0
  3  4  2  0
  4  5  1  0
  5  6  1  0
  6  7  1  0
  7  8  2  0
  8  9  1  0
  9 10  1  0
  5 11  2  0
 11 12  1  0
 12 13  2  0
 13 14  1  0
 14 15  1  0
 15 16  2  0
 15 17  1  0
 17 18  2  0
 18 19  1  0
 19 20  2  0
 20 21  1  0
 13  3  1  0
 21 17  1  0
 10  6  2  0
  1 22  1  0
  1 23  1  0
  1 24  1  0
  4 25  1  0
  7 26  1  0
  8 27  1  0
 10 28  1  0
 11 29  1  0
 12 30  1  0
 18 31  1  0
 19 32  1  0
 20 33  1  0
M  CHG  1  14  -1
M  END
>  <UniqueID>  (32) 
30

>  <SMILES>  (32) 
COc1cc(-c2ccsc2)ccc1[N-]C(=O)c1ccco1

>  <Energy>  (32) 
95.23292456747502

>  <Genealogy>  (32) 
COc1cc(-c2ccsc2)ccc1[N-]C(=O)c1ccco1 (protonated)
COc1cc(-c2ccsc2)ccc1[N-]C(=O)c1ccco1 (3D coordinates assigned)
COc1cc(-c2ccsc2)ccc1[N-]C(=O)c1ccco1 (optimized conformer: 95.23292456747502 kcal/mol)

>  <smiles>  (32) 
COc1cc(-c2ccsc2)ccc1NC(=O)c1ccco1

>  <score_type>  (32) 
oracle

>  <origin>  (32) 
adgpu

>  <m_score__min__energy>  (32) 
-9.1400000000000006

>  <m_primary>  (32) 
energy

$$$$
32:0
     RDKit          3D

 51 53  0  0  0  0  0  0  0  0999 V2000
   -5.4230   15.9430  -33.0680 C   0  0  0  0  0  0  0  0  0  0  0  0
   -5.7160   16.9210  -32.0760 O   0  0  0  0  0  0  0  0  0  0  0  0
   -6.5760   18.0140  -32.2640 C   0  0  0  0  0  0  0  0  0  0  0  0
   -7.7410   18.1880  -31.4890 C   0  0  0  0  0  0  0  0  0  0  0  0
   -8.5750   19.2870  -31.7050 C   0  0  0  0  0  0  0  0  0  0  0  0
   -8.2560   20.2250  -32.6870 C   0  0  0  0  0  0  0  0  0  0  0  0
   -7.1080   20.0630  -33.4630 C   0  0  0  0  0  0  0  0  0  0  0  0
   -6.2680   18.9540  -33.2660 C   0  0  0  0  0  0  0  0  0  0  0  0
   -5.0870   18.7920  -34.0630 N   0  0  0  0  0  0  0  0  0  0  0  0
   -3.5160   19.1940  -33.4450 S   0  0  0  0  0  0  0  0  0  0  0  0
   -2.5760   19.4140  -34.5940 O   0  0  0  0  0  0  0  0  0  0  0  0
   -2.9960   18.0640  -32.6030 O   0  0  0  0  0  0  0  0  0  0  0  0
   -3.6130   20.6720  -32.4920 C   0  0  0  0  0  0  0  0  0  0  0  0
   -2.7090   20.9030  -31.4460 C   0  0  0  0  0  0  0  0  0  0  0  0
   -2.7830   22.0840  -30.7010 C   0  0  0  0  0  0  0  0  0  0  0  0
   -3.7670   23.0400  -30.9920 C   0  0  0  0  0  0  0  0  0  0  0  0
   -3.9320   24.5000  -30.0200 S   0  0  0  0  0  0  0  0  0  0  0  0
   -4.8940   24.2300  -28.8970 O   0  0  0  0  0  0  0  0  0  0  0  0
   -4.4740   25.6310  -30.8530 O   0  0  0  0  0  0  0  0  0  0  0  0
   -2.3770   24.9200  -29.3540 N   0  0  0  0  0  0  0  0  0  0  0  0
   -2.2870   24.5850  -27.9300 C   0  0  0  0  0  0  0  0  0  0  0  0
   -1.9930   23.1210  -27.7210 C   0  0  0  0  0  0  0  0  0  0  0  0
   -3.0410   22.2100  -27.5140 C   0  0  0  0  0  0  0  0  0  0  0  0
   -2.7730   20.8440  -27.3950 C   0  0  0  0  0  0  0  0  0  0  0  0
   -1.4540   20.3720  -27.4610 C   0  0  0  0  0  0  0  0  0  0  0  0
   -1.1810   18.9010  -27.3610 C   0  0  0  0  0  0  0  0  0  0  0  0
   -0.4030   21.2840  -27.6430 C   0  0  0  0  0  0  0  0  0  0  0  0
   -0.6710   22.6500  -27.7700 C   0  0  0  0  0  0  0  0  0  0  0  0
   -4.6630   22.8110  -32.0430 C   0  0  0  0  0  0  0  0  0  0  0  0
   -4.5820   21.6370  -32.7940 C   0  0  0  0  0  0  0  0  0  0  0  0
   -5.1401   14.9988  -32.5797 H   0  0  0  0  0  0  0  0  0  0  0  0
   -6.3116   15.7795  -33.6954 H   0  0  0  0  0  0  0  0  0  0  0  0
   -4.5909   16.2950  -33.6954 H   0  0  0  0  0  0  0  0  0  0  0  0
   -7.9943   17.4539  -30.7099 H   0  0  0  0  0  0  0  0  0  0  0  0
   -9.4849   19.4132  -31.0999 H   0  0  0  0  0  0  0  0  0  0  0  0
   -8.9107   21.0938  -32.8498 H   0  0  0  0  0  0  0  0  0  0  0  0
   -6.8590   20.8076  -34.2334 H   0  0  0  0  0  0  0  0  0  0  0  0
   -5.1850   18.7470  -35.1010 H   0  0  0  0  0  0  0  0  0  0  0  0
   -1.9393   20.1532  -31.2106 H   0  0  0  0  0  0  0  0  0  0  0  0
   -2.0678   22.2636  -29.8848 H   0  0  0  0  0  0  0  0  0  0  0  0
   -1.4816   25.1794  -27.4738 H   0  0  0  0  0  0  0  0  0  0  0  0
   -3.2563   24.8112  -27.4617 H   0  0  0  0  0  0  0  0  0  0  0  0
   -4.0771   22.5731  -27.4452 H   0  0  0  0  0  0  0  0  0  0  0  0
   -3.6011   20.1348  -27.2487 H   0  0  0  0  0  0  0  0  0  0  0  0
   -1.1269   18.6093  -26.3018 H   0  0  0  0  0  0  0  0  0  0  0  0
   -1.9910   18.3434  -27.8539 H   0  0  0  0  0  0  0  0  0  0  0  0
   -0.2249   18.6712  -27.8539 H   0  0  0  0  0  0  0  0  0  0  0  0
    0.6351   20.9227  -27.6859 H   0  0  0  0  0  0  0  0  0  0  0  0
    0.1579   23.3596  -27.9090 H   0  0  0  0  0  0  0  0  0  0  0  0
   -5.4342   23.5594  -32.2781 H   0  0  0  0  0  0  0  0  0  0  0  0
   -5.2818   21.4693  -33.6260 H   0  0  0  0  0  0  0  0  0  0  0  0
  1  2  1  0
  2  3  1  0
  3  4  2  0
  4  5  1  0
  5  6  2  0
  6  7  1  0
  7  8  2  0
  8  9  1  0
  9 10  1  0
 10 11  2  0
 10 12  2  0
 10 13  1  0
 13 14  2  0
 14 15  1  0
 15 16  2  0
 16 17  1  0
 17 18  2  0
 17 19  2  0
 17 20  1  0
 20 21  1  0
 21 22  1  0
 22 23  2  0
 23 24  1  0
 24 25  2  0
 25 26  1  0
 25 27  1  0
 27 28  2  0
 16 29  1  0
 29 30  2  0
  8  3  1  0
 30 13  1  0
 28 22  1  0
  1 31  1  0
  1 32  1  0
  1 33  1  0
  4 34  1  0
  5 35  1  0
  6 36  1  0
  7 37  1  0
  9 38  1  0
 14 39  1  0
 15 40  1  0
 21 41  1  0
 21 42  1  0
 23 43  1  0
 24 44  1  0
 26 45  1  0
 26 46  1  0
 26 47  1  0
 27 48  1  0
 28 49  1  0
 29 50  1  0
 30 51  1  0
M  CHG  1  20  -1
M  END
>  <UniqueID>  (33) 
31

>  <SMILES>  (33) 
COc1ccccc1NS(=O)(=O)c1ccc(S(=O)(=O)[N-]Cc2ccc(C)cc2)cc1

>  <Energy>  (33) 
49.85588217679118

>  <Genealogy>  (33) 
COc1ccccc1NS(=O)(=O)c1ccc(S(=O)(=O)[N-]Cc2ccc(C)cc2)cc1 (protonated)
COc1ccccc1NS(=O)(=O)c1ccc(S(=O)(=O)[N-]Cc2ccc(C)cc2)cc1 (3D coordinates assigned)
COc1ccccc1NS(=O)(=O)c1ccc(S(=O)(=O)[N-]Cc2ccc(C)cc2)cc1 (optimized conformer: 49.85588217679118 kcal/mol)

>  <smiles>  (33) 
COc1ccccc1NS(=O)(=O)c1ccc(S(=O)(=O)NCc2ccc(C)cc2)cc1

>  <score_type>  (33) 
oracle

>  <origin>  (33) 
adgpu

>  <m_score__min__energy>  (33) 
-11.779999999999999

>  <m_primary>  (33) 
energy

$$$$
33:0
     RDKit          3D

 47 49  0  0  0  0  0  0  0  0999 V2000
   -4.0230   15.0480  -32.6080 C   0  0  0  0  0  0  0  0  0  0  0  0
   -5.0720   16.0960  -32.4170 C   0  0  0  0  0  0  0  0  0  0  0  0
   -5.7140   16.3280  -31.2540 N   0  0  0  0  0  0  0  0  0  0  0  0
   -6.5750   17.2840  -31.4480 O   0  0  0  0  0  0  0  0  0  0  0  0
   -6.5300   17.6800  -32.7000 C   0  0  0  0  0  0  0  0  0  0  0  0
   -7.2610   18.6250  -33.2040 N   0  0  0  0  0  0  0  0  0  0  0  0
   -8.4240   19.4980  -32.2640 S   0  0  0  0  0  0  0  0  0  0  0  0
   -9.4930   20.0480  -33.1660 O   0  0  0  0  0  0  0  0  0  0  0  0
   -9.0670   18.5630  -31.2790 O   0  0  0  0  0  0  0  0  0  0  0  0
   -7.6210   20.7970  -31.3880 C   0  0  0  0  0  0  0  0  0  0  0  0
   -6.2570   21.0360  -31.5920 C   0  0  0  0  0  0  0  0  0  0  0  0
   -5.6150   22.0800  -30.9200 C   0  0  0  0  0  0  0  0  0  0  0  0
   -6.3340   22.9070  -30.0350 C   0  0  0  0  0  0  0  0  0  0  0  0
   -5.7040   23.9940  -29.3300 N   0  0  0  0  0  0  0  0  0  0  0  0
   -4.3030   23.9650  -28.9040 C   0  0  0  0  0  0  0  0  0  0  0  0
   -3.4600   24.8960  -29.7340 C   0  0  0  0  0  0  0  0  0  0  0  0
   -3.9080   25.3160  -30.8350 O   0  0  0  0  0  0  0  0  0  0  0  0
   -2.1440   25.2970  -29.3280 N   0  0  0  0  0  0  0  0  0  0  0  0
   -1.4920   24.9580  -28.0950 C   0  0  0  0  0  0  0  0  0  0  0  0
   -1.9120   25.5830  -26.9130 C   0  0  0  0  0  0  0  0  0  0  0  0
   -1.3180   25.2540  -25.6910 C   0  0  0  0  0  0  0  0  0  0  0  0
   -0.3120   24.2840  -25.6400 C   0  0  0  0  0  0  0  0  0  0  0  0
    0.0920   23.6350  -26.8090 C   0  0  0  0  0  0  0  0  0  0  0  0
    1.0520   22.6780  -26.7560 F   0  0  0  0  0  0  0  0  0  0  0  0
   -0.5010   23.9620  -28.0340 C   0  0  0  0  0  0  0  0  0  0  0  0
   -7.7050   22.6650  -29.8410 C   0  0  0  0  0  0  0  0  0  0  0  0
   -8.3430   21.6190  -30.5130 C   0  0  0  0  0  0  0  0  0  0  0  0
   -5.5910   16.9370  -33.3870 C   0  0  0  0  0  0  0  0  0  0  0  0
   -5.1610   17.0820  -34.8130 C   0  0  0  0  0  0  0  0  0  0  0  0
   -3.6720   14.6973  -31.6263 H   0  0  0  0  0  0  0  0  0  0  0  0
   -4.4474   14.2024  -33.1691 H   0  0  0  0  0  0  0  0  0  0  0  0
   -3.1778   15.4732  -33.1691 H   0  0  0  0  0  0  0  0  0  0  0  0
   -5.5580   15.8410  -30.3430 H   0  0  0  0  0  0  0  0  0  0  0  0
   -5.6874   20.3990  -32.2847 H   0  0  0  0  0  0  0  0  0  0  0  0
   -4.5417   22.2569  -31.0833 H   0  0  0  0  0  0  0  0  0  0  0  0
   -6.2760   24.8490  -29.1350 H   0  0  0  0  0  0  0  0  0  0  0  0
   -4.2427   24.2712  -27.8492 H   0  0  0  0  0  0  0  0  0  0  0  0
   -3.9214   22.9416  -29.0343 H   0  0  0  0  0  0  0  0  0  0  0  0
   -2.7130   26.3362  -26.9470 H   0  0  0  0  0  0  0  0  0  0  0  0
   -1.6422   25.7585  -24.7689 H   0  0  0  0  0  0  0  0  0  0  0  0
    0.1611   24.0321  -24.6794 H   0  0  0  0  0  0  0  0  0  0  0  0
   -0.1913   23.4389  -28.9508 H   0  0  0  0  0  0  0  0  0  0  0  0
   -8.2802   23.3040  -29.1548 H   0  0  0  0  0  0  0  0  0  0  0  0
   -9.4167   21.4403  -30.3543 H   0  0  0  0  0  0  0  0  0  0  0  0
   -4.1192   17.4333  -34.8479 H   0  0  0  0  0  0  0  0  0  0  0  0
   -5.2369   16.1086  -35.3196 H   0  0  0  0  0  0  0  0  0  0  0  0
   -5.8109   17.8107  -35.3196 H   0  0  0  0  0  0  0  0  0  0  0  0
  1  2  1  0
  2  3  1  0
  3  4  1  0
  4  5  1  0
  5  6  2  3
  6  7  1  0
  7  8  2  0
  7  9  2  0
  7 10  1  0
 10 11  2  0
 11 12  1  0
 12 13  2  0
 13 14  1  0
 14 15  1  0
 15 16  1  0
 16 17  2  0
 16 18  1  0
 18 19  1  0
 19 20  2  0
 20 21  1  0
 21 22  2  0
 22 23  1  0
 23 24  1  0
 23 25  2  0
 13 26  1  0
 26 27  2  0
  5 28  1  0
 28 29  1  0
 28  2  2  0
 27 10  1  0
 25 19  1  0
  1 30  1  0
  1 31  1  0
  1 32  1  0
  3 33  1  0
 11 34  1  0
 12 35  1  0
 14 36  1  0
 15 37  1  0
 15 38  1  0
 20 39  1  0
 21 40  1  0
 22 41  1  0
 25 42  1  0
 26 43  1  0
 27 44  1  0
 29 45  1  0
 29 46  1  0
 29 47  1  0
M  CHG  1  18  -1
M  END
>  <UniqueID>  (34) 
32

>  <SMILES>  (34) 
Cc1[nH]oc(=NS(=O)(=O)c2ccc(NCC(=O)[N-]c3cccc(F)c3)cc2)c1C

>  <Energy>  (34) 
86.34001248055343

>  <Genealogy>  (34) 
Cc1[nH]oc(=NS(=O)(=O)c2ccc(NCC(=O)[N-]c3cccc(F)c3)cc2)c1C (protonated)
Cc1[nH]oc(=NS(=O)(=O)c2ccc(NCC(=O)[N-]c3cccc(F)c3)cc2)c1C (3D coordinates assigned)
Cc1[nH]oc(=NS(=O)(=O)c2ccc(NCC(=O)[N-]c3cccc(F)c3)cc2)c1C (optimized conformer: 86.34001248055343 kcal/mol)

>  <smiles>  (34) 
Cc1[nH]oc(=NS(=O)(=O)c2ccc(NCC(=O)Nc3cccc(F)c3)cc2)c1C

>  <score_type>  (34) 
oracle

>  <origin>  (34) 
adgpu

>  <m_score__min__energy>  (34) 
-11.470000000000001

>  <m_primary>  (34) 
energy

$$$$
34:0
     RDKit          3D

 36 38  0  0  0  0  0  0  0  0999 V2000
   -4.3471   16.4418  -32.7669 H   0  0  0  0  0  0  0  0  0  0  0  0
   -5.1510   17.1880  -32.8500 C   0  0  0  0  0  0  0  0  0  0  0  0
   -6.1710   17.2260  -31.8970 C   0  0  0  0  0  0  0  0  0  0  0  0
   -6.1692   16.5098  -31.0621 H   0  0  0  0  0  0  0  0  0  0  0  0
   -7.1950   18.1730  -32.0020 C   0  0  0  0  0  0  0  0  0  0  0  0
   -7.9941   18.1986  -31.2465 H   0  0  0  0  0  0  0  0  0  0  0  0
   -7.2110   19.0920  -33.0650 C   0  0  0  0  0  0  0  0  0  0  0  0
   -8.2820   20.0490  -33.1480 N   0  0  0  0  0  0  0  0  0  0  0  0
   -8.8300   20.1200  -34.0340 H   0  0  0  0  0  0  0  0  0  0  0  0
   -8.6650   21.1890  -31.8970 S   0  0  0  0  0  0  0  0  0  0  0  0
   -9.1340   20.4420  -30.6790 O   0  0  0  0  0  0  0  0  0  0  0  0
   -9.7690   22.0910  -32.3710 O   0  0  0  0  0  0  0  0  0  0  0  0
   -7.2520   22.1710  -31.5230 C   0  0  0  0  0  0  0  0  0  0  0  0
   -7.2750   23.0380  -30.4240 C   0  0  0  0  0  0  0  0  0  0  0  0
   -8.1722   23.0964  -29.7902 H   0  0  0  0  0  0  0  0  0  0  0  0
   -6.1620   23.8290  -30.1300 C   0  0  0  0  0  0  0  0  0  0  0  0
   -6.1955   24.5215  -29.2760 H   0  0  0  0  0  0  0  0  0  0  0  0
   -5.0040   23.7480  -30.9130 C   0  0  0  0  0  0  0  0  0  0  0  0
   -3.8940   24.6040  -30.5910 N   0  0  0  0  0  0  0  0  0  0  0  0
   -3.1240   24.5160  -29.5470 C   0  0  0  0  0  0  0  0  0  0  0  0
   -3.2880   23.6360  -28.5380 N   0  0  0  0  0  0  0  0  0  0  0  0
   -2.3190   23.8930  -27.6730 N   0  0  0  0  0  0  0  0  0  0  0  0
   -1.6140   24.9190  -28.1870 C   0  0  0  0  0  0  0  0  0  0  0  0
   -0.4090   25.5130  -27.5400 C   0  0  0  0  0  0  0  0  0  0  0  0
   -0.5163   25.4601  -26.4465 H   0  0  0  0  0  0  0  0  0  0  0  0
    0.4862   24.9530  -27.8481 H   0  0  0  0  0  0  0  0  0  0  0  0
   -0.3080   26.5641  -27.8481 H   0  0  0  0  0  0  0  0  0  0  0  0
   -2.1030   25.3080  -29.3400 O   0  0  0  0  0  0  0  0  0  0  0  0
   -4.9920   22.8930  -32.0320 C   0  0  0  0  0  0  0  0  0  0  0  0
   -4.1017   22.8463  -32.6764 H   0  0  0  0  0  0  0  0  0  0  0  0
   -6.1080   22.1030  -32.3270 C   0  0  0  0  0  0  0  0  0  0  0  0
   -6.0866   21.4260  -33.1937 H   0  0  0  0  0  0  0  0  0  0  0  0
   -6.1730   19.0490  -34.0190 C   0  0  0  0  0  0  0  0  0  0  0  0
   -6.1659   19.7660  -34.8532 H   0  0  0  0  0  0  0  0  0  0  0  0
   -5.1530   18.0990  -33.9090 C   0  0  0  0  0  0  0  0  0  0  0  0
   -4.3491   18.0689  -34.6592 H   0  0  0  0  0  0  0  0  0  0  0  0
  1  2  1  0
  2  3  2  0
  3  4  1  0
  3  5  1  0
  5  6  1  0
  5  7  2  0
  7  8  1  0
  8  9  1  0
  8 10  1  0
 10 11  2  0
 10 12  2  0
 10 13  1  0
 13 14  2  0
 14 15  1  0
 14 16  1  0
 16 17  1  0
 16 18  2  0
 18 19  1  0
 19 20  2  0
 20 21  1  0
 21 22  1  0
 22 23  2  0
 23 24  1  0
 24 25  1  0
 24 26  1  0
 24 27  1  0
 23 28  1  0
 18 29  1  0
 29 30  1  0
 29 31  2  0
 31 32  1  0
  7 33  1  0
 33 34  1  0
 33 35  2  0
 35 36  1  0
 35  2  1  0
 31 13  1  0
 28 20  1  0
M  CHG  1  21  -1
M  END
>  <UniqueID>  (35) 
33

>  <SMILES>  (35) 
Cc1n[n-]/c(=N\c2ccc(S(=O)(=O)Nc3ccccc3)cc2)o1

>  <Energy>  (35) 
80.68255416611618

>  <Genealogy>  (35) 
Cc1n[n-]c(=Nc2ccc(S(=O)(=O)Nc3ccccc3)cc2)o1 (protonated)
Cc1n[n-]/c(=N\c2ccc(S(=O)(=O)Nc3ccccc3)cc2)o1 (cis-trans isomerization)
Cc1n[n-]/c(=N\c2ccc(S(=O)(=O)Nc3ccccc3)cc2)o1 (3D coordinates assigned)
Cc1n[n-]/c(=N\c2ccc(S(=O)(=O)Nc3ccccc3)cc2)o1 (optimized conformer: 80.68255416611618 kcal/mol)

>  <smiles>  (35) 
Cc1n[nH]c(=Nc2ccc(S(=O)(=O)Nc3ccccc3)cc2)o1

>  <score_type>  (35) 
oracle

>  <origin>  (35) 
adgpu

>  <m_score__min__energy>  (35) 
-10.85

>  <m_primary>  (35) 
energy

$$$$
35:0
     RDKit          3D

 42 43  0  0  0  0  0  0  0  0999 V2000
   -5.4160   25.5780  -30.4610 C   0  0  0  0  0  0  0  0  0  0  0  0
   -4.0210   25.2990  -30.5200 O   0  0  0  0  0  0  0  0  0  0  0  0
   -3.4530   24.0360  -30.2910 C   0  0  0  0  0  0  0  0  0  0  0  0
   -4.0790   22.8440  -30.7070 C   0  0  0  0  0  0  0  0  0  0  0  0
   -3.4770   21.5990  -30.4630 C   0  0  0  0  0  0  0  0  0  0  0  0
   -4.1180   20.3280  -30.9530 C   0  0  0  0  0  0  0  0  0  0  0  0
   -4.3550   20.4070  -32.4000 N   0  0  0  0  0  0  0  0  0  0  0  0
   -5.4230   21.3630  -32.7190 C   0  0  0  0  0  0  0  0  0  0  0  0
   -6.7490   20.7860  -32.3060 C   0  0  0  0  0  0  0  0  0  0  0  0
   -7.8890   21.5320  -32.0280 C   0  0  0  0  0  0  0  0  0  0  0  0
   -7.9860   23.0240  -31.9990 C   0  0  0  0  0  0  0  0  0  0  0  0
   -8.9450   20.7160  -31.8500 N   0  0  0  0  0  0  0  0  0  0  0  0
   -8.5190   19.4740  -32.0000 N   0  0  0  0  0  0  0  0  0  0  0  0
   -9.3900   18.3070  -31.9390 C   0  0  0  0  0  0  0  0  0  0  0  0
   -7.2040   19.4660  -32.2990 C   0  0  0  0  0  0  0  0  0  0  0  0
   -6.5090   18.2740  -32.5610 O   0  0  0  0  0  0  0  0  0  0  0  0
   -6.2120   17.7500  -33.8470 C   0  0  0  0  0  0  0  0  0  0  0  0
   -2.2400   21.5490  -29.8060 C   0  0  0  0  0  0  0  0  0  0  0  0
   -1.6160   22.7270  -29.3880 C   0  0  0  0  0  0  0  0  0  0  0  0
   -2.2190   23.9680  -29.6290 C   0  0  0  0  0  0  0  0  0  0  0  0
   -1.5940   25.1430  -29.2140 O   0  0  0  0  0  0  0  0  0  0  0  0
   -5.7331   25.6414  -29.4096 H   0  0  0  0  0  0  0  0  0  0  0  0
   -5.6202   26.5348  -30.9639 H   0  0  0  0  0  0  0  0  0  0  0  0
   -5.9724   24.7734  -30.9639 H   0  0  0  0  0  0  0  0  0  0  0  0
   -5.0472   22.8891  -31.2271 H   0  0  0  0  0  0  0  0  0  0  0  0
   -3.4521   19.4790  -30.7393 H   0  0  0  0  0  0  0  0  0  0  0  0
   -5.0799   20.1884  -30.4380 H   0  0  0  0  0  0  0  0  0  0  0  0
   -4.6580   19.4610  -32.7290 H   0  0  0  0  0  0  0  0  0  0  0  0
   -5.2473   22.3040  -32.1770 H   0  0  0  0  0  0  0  0  0  0  0  0
   -5.4288   21.5601  -33.8012 H   0  0  0  0  0  0  0  0  0  0  0  0
   -8.0085   23.3698  -30.9550 H   0  0  0  0  0  0  0  0  0  0  0  0
   -7.1142   23.4581  -32.5103 H   0  0  0  0  0  0  0  0  0  0  0  0
   -8.9067   23.3416  -32.5103 H   0  0  0  0  0  0  0  0  0  0  0  0
   -9.5832   18.0482  -30.8875 H   0  0  0  0  0  0  0  0  0  0  0  0
  -10.3419   18.5332  -32.4417 H   0  0  0  0  0  0  0  0  0  0  0  0
   -8.9023   17.4588  -32.4417 H   0  0  0  0  0  0  0  0  0  0  0  0
   -5.6722   16.7976  -33.7392 H   0  0  0  0  0  0  0  0  0  0  0  0
   -7.1482   17.5804  -34.3990 H   0  0  0  0  0  0  0  0  0  0  0  0
   -5.5855   18.4661  -34.3990 H   0  0  0  0  0  0  0  0  0  0  0  0
   -1.7583   20.5780  -29.6186 H   0  0  0  0  0  0  0  0  0  0  0  0
   -0.6479   22.6797  -28.8679 H   0  0  0  0  0  0  0  0  0  0  0  0
   -2.0180   26.0500  -29.3620 H   0  0  0  0  0  0  0  0  0  0  0  0
  1  2  1  0
  2  3  1  0
  3  4  2  0
  4  5  1  0
  5  6  1  0
  6  7  1  0
  7  8  1  0
  8  9  1  0
  9 10  1  0
 10 11  1  0
 10 12  2  0
 12 13  1  0
 13 14  1  0
 13 15  1  0
 15 16  1  0
 16 17  1  0
  5 18  2  0
 18 19  1  0
 19 20  2  0
 20 21  1  0
 20  3  1  0
 15  9  2  0
  1 22  1  0
  1 23  1  0
  1 24  1  0
  4 25  1  0
  6 26  1  0
  6 27  1  0
  7 28  1  0
  8 29  1  0
  8 30  1  0
 11 31  1  0
 11 32  1  0
 11 33  1  0
 14 34  1  0
 14 35  1  0
 14 36  1  0
 17 37  1  0
 17 38  1  0
 17 39  1  0
 18 40  1  0
 19 41  1  0
 21 42  1  0
M  END
>  <UniqueID>  (36) 
34

>  <SMILES>  (36) 
COc1cc(CNCc2c(C)nn(C)c2OC)ccc1O

>  <Energy>  (36) 
68.48956066981425

>  <Genealogy>  (36) 
COc1cc(CNCc2c(C)nn(C)c2OC)ccc1O (3D coordinates assigned)
COc1cc(CNCc2c(C)nn(C)c2OC)ccc1O (optimized conformer: 68.48956066981425 kcal/mol)

>  <smiles>  (36) 
COc1cc(CNCc2c(C)nn(C)c2OC)ccc1O

>  <score_type>  (36) 
oracle

>  <origin>  (36) 
adgpu

>  <m_score__min__energy>  (36) 
-7.2599999999999998

>  <m_primary>  (36) 
energy

$$$$
36:0
     RDKit          3D

 51 53  0  0  0  0  0  0  0  0999 V2000
   -8.6390   22.3370  -31.9130 C   0  0  0  0  0  0  0  0  0  0  0  0
   -7.5320   23.1920  -32.1780 O   0  0  0  0  0  0  0  0  0  0  0  0
   -6.5380   23.5120  -31.2410 C   0  0  0  0  0  0  0  0  0  0  0  0
   -5.7670   24.6600  -31.4570 C   0  0  0  0  0  0  0  0  0  0  0  0
   -4.7530   25.0130  -30.5610 C   0  0  0  0  0  0  0  0  0  0  0  0
   -4.4830   24.2080  -29.4430 C   0  0  0  0  0  0  0  0  0  0  0  0
   -3.3540   24.5490  -28.5060 C   0  0  0  0  0  0  0  0  0  0  0  0
   -2.1440   24.9030  -29.2540 N   0  0  0  0  0  0  0  0  0  0  0  0
   -0.6970   24.5020  -28.3690 S   0  0  0  0  0  0  0  0  0  0  0  0
    0.4030   24.1740  -29.3380 O   0  0  0  0  0  0  0  0  0  0  0  0
   -0.2760   25.7000  -27.5680 O   0  0  0  0  0  0  0  0  0  0  0  0
   -0.9860   23.1640  -27.2490 C   0  0  0  0  0  0  0  0  0  0  0  0
   -0.6430   23.1540  -25.9040 C   0  0  0  0  0  0  0  0  0  0  0  0
    0.0570   24.2460  -25.1580 C   0  0  0  0  0  0  0  0  0  0  0  0
   -0.8850   21.9410  -25.3710 N   0  0  0  0  0  0  0  0  0  0  0  0
   -1.3870   21.1720  -26.3530 C   0  0  0  0  0  0  0  0  0  0  0  0
   -1.7220   19.7230  -26.1770 C   0  0  0  0  0  0  0  0  0  0  0  0
   -1.4610   21.8870  -27.5380 C   0  0  0  0  0  0  0  0  0  0  0  0
   -1.8440   21.3310  -28.8470 C   0  0  0  0  0  0  0  0  0  0  0  0
   -2.2730   20.1470  -28.9030 O   0  0  0  0  0  0  0  0  0  0  0  0
   -1.7460   22.1300  -30.0360 N   0  0  0  0  0  0  0  0  0  0  0  0
   -2.1820   21.6990  -31.3350 C   0  0  0  0  0  0  0  0  0  0  0  0
   -3.5560   21.5690  -31.5910 C   0  0  0  0  0  0  0  0  0  0  0  0
   -4.0050   21.1290  -32.8390 C   0  0  0  0  0  0  0  0  0  0  0  0
   -3.0850   20.7970  -33.8370 C   0  0  0  0  0  0  0  0  0  0  0  0
   -1.7140   20.8990  -33.5860 C   0  0  0  0  0  0  0  0  0  0  0  0
   -0.8220   20.5570  -34.5470 F   0  0  0  0  0  0  0  0  0  0  0  0
   -1.2610   21.3400  -32.3380 C   0  0  0  0  0  0  0  0  0  0  0  0
   -5.2770   23.0770  -29.2070 C   0  0  0  0  0  0  0  0  0  0  0  0
   -6.2920   22.7240  -30.1010 C   0  0  0  0  0  0  0  0  0  0  0  0
   -8.7713   22.2348  -30.8258 H   0  0  0  0  0  0  0  0  0  0  0  0
   -9.5495   22.7686  -32.3542 H   0  0  0  0  0  0  0  0  0  0  0  0
   -8.4515   21.3470  -32.3542 H   0  0  0  0  0  0  0  0  0  0  0  0
   -5.9601   25.2894  -32.3383 H   0  0  0  0  0  0  0  0  0  0  0  0
   -4.1640   25.9260  -30.7331 H   0  0  0  0  0  0  0  0  0  0  0  0
   -3.6519   25.4016  -27.8780 H   0  0  0  0  0  0  0  0  0  0  0  0
   -3.1372   23.6699  -27.8814 H   0  0  0  0  0  0  0  0  0  0  0  0
   -0.0505   24.0783  -24.0762 H   0  0  0  0  0  0  0  0  0  0  0  0
    1.1242   24.2465  -25.4247 H   0  0  0  0  0  0  0  0  0  0  0  0
   -0.3881   25.2159  -25.4247 H   0  0  0  0  0  0  0  0  0  0  0  0
   -0.6810   21.6430  -24.3910 H   0  0  0  0  0  0  0  0  0  0  0  0
   -1.7766   19.4870  -25.1040 H   0  0  0  0  0  0  0  0  0  0  0  0
   -2.6928   19.5112  -26.6489 H   0  0  0  0  0  0  0  0  0  0  0  0
   -0.9427   19.1065  -26.6489 H   0  0  0  0  0  0  0  0  0  0  0  0
   -1.2620   23.0500  -29.9710 H   0  0  0  0  0  0  0  0  0  0  0  0
   -4.2841   21.8151  -30.8040 H   0  0  0  0  0  0  0  0  0  0  0  0
   -5.0839   21.0439  -33.0360 H   0  0  0  0  0  0  0  0  0  0  0  0
   -3.4400   20.4553  -34.8205 H   0  0  0  0  0  0  0  0  0  0  0  0
   -0.1811   21.4066  -32.1394 H   0  0  0  0  0  0  0  0  0  0  0  0
   -5.1000   22.4628  -28.3118 H   0  0  0  0  0  0  0  0  0  0  0  0
   -6.9006   21.8272  -29.9129 H   0  0  0  0  0  0  0  0  0  0  0  0
  1  2  1  0
  2  3  1  0
  3  4  2  0
  4  5  1  0
  5  6  2  0
  6  7  1  0
  7  8  1  0
  8  9  1  0
  9 10  2  0
  9 11  2  0
  9 12  1  0
 12 13  2  0
 13 14  1  0
 13 15  1  0
 15 16  1  0
 16 17  1  0
 16 18  2  0
 18 19  1  0
 19 20  2  0
 19 21  1  0
 21 22  1  0
 22 23  2  0
 23 24  1  0
 24 25  2  0
 25 26  1  0
 26 27  1  0
 26 28  2  0
  6 29  1  0
 29 30  2  0
 30  3  1  0
 18 12  1  0
 28 22  1  0
  1 31  1  0
  1 32  1  0
  1 33  1  0
  4 34  1  0
  5 35  1  0
  7 36  1  0
  7 37  1  0
 14 38  1  0
 14 39  1  0
 14 40  1  0
 15 41  1  0
 17 42  1  0
 17 43  1  0
 17 44  1  0
 21 45  1  0
 23 46  1  0
 24 47  1  0
 25 48  1  0
 28 49  1  0
 29 50  1  0
 30 51  1  0
M  CHG  1   8  -1
M  END
>  <UniqueID>  (37) 
35

>  <SMILES>  (37) 
COc1ccc(C[N-]S(=O)(=O)c2c(C)[nH]c(C)c2C(=O)Nc2cccc(F)c2)cc1

>  <Energy>  (37) 
80.8930916175015

>  <Genealogy>  (37) 
COc1ccc(C[N-]S(=O)(=O)c2c(C)[nH]c(C)c2C(=O)Nc2cccc(F)c2)cc1 (protonated)
COc1ccc(C[N-]S(=O)(=O)c2c(C)[nH]c(C)c2C(=O)Nc2cccc(F)c2)cc1 (3D coordinates assigned)
COc1ccc(C[N-]S(=O)(=O)c2c(C)[nH]c(C)c2C(=O)Nc2cccc(F)c2)cc1 (optimized conformer: 80.8930916175015 kcal/mol)

>  <smiles>  (37) 
COc1ccc(CNS(=O)(=O)c2c(C)[nH]c(C)c2C(=O)Nc2cccc(F)c2)cc1

>  <score_type>  (37) 
oracle

>  <origin>  (37) 
adgpu

>  <m_score__min__energy>  (37) 
-9.3699999999999992

>  <m_primary>  (37) 
energy

$$$$
37:0
     RDKit          3D

 43 44  0  0  0  0  0  0  0  0999 V2000
   -6.4940   25.6590  -29.3390 C   0  0  0  0  0  0  0  0  0  0  0  0
   -5.6940   25.4110  -30.6130 C   0  0  0  0  0  0  0  0  0  0  0  0
   -5.0740   24.0790  -30.5770 N   0  0  0  0  0  0  0  0  0  0  0  0
   -5.7940   22.9580  -31.1220 C   0  0  0  0  0  0  0  0  0  0  0  0
   -5.2660   22.2330  -32.2000 C   0  0  0  0  0  0  0  0  0  0  0  0
   -5.9660   21.1470  -32.7320 C   0  0  0  0  0  0  0  0  0  0  0  0
   -7.2110   20.7660  -32.1930 C   0  0  0  0  0  0  0  0  0  0  0  0
   -7.9810   19.5880  -32.7580 C   0  0  0  0  0  0  0  0  0  0  0  0
   -9.1110   19.1630  -31.8130 C   0  0  0  0  0  0  0  0  0  0  0  0
   -7.0470   18.4120  -33.0650 C   0  0  0  0  0  0  0  0  0  0  0  0
   -7.7360   21.4980  -31.1140 C   0  0  0  0  0  0  0  0  0  0  0  0
   -7.0340   22.5850  -30.5850 C   0  0  0  0  0  0  0  0  0  0  0  0
   -3.7080   23.9170  -30.1390 C   0  0  0  0  0  0  0  0  0  0  0  0
   -3.1190   24.8710  -29.3650 N   0  0  0  0  0  0  0  0  0  0  0  0
   -1.8330   24.7460  -28.9430 C   0  0  0  0  0  0  0  0  0  0  0  0
   -1.2170   25.8170  -28.1010 C   0  0  0  0  0  0  0  0  0  0  0  0
   -1.0900   23.6220  -29.3150 C   0  0  0  0  0  0  0  0  0  0  0  0
   -1.7020   22.6510  -30.1120 C   0  0  0  0  0  0  0  0  0  0  0  0
   -0.9440   21.4350  -30.5410 C   0  0  0  0  0  0  0  0  0  0  0  0
   -2.9910   22.8210  -30.5080 N   0  0  0  0  0  0  0  0  0  0  0  0
   -5.8587   25.4620  -28.4629 H   0  0  0  0  0  0  0  0  0  0  0  0
   -6.8343   26.7048  -29.3175 H   0  0  0  0  0  0  0  0  0  0  0  0
   -7.3662   24.9891  -29.3175 H   0  0  0  0  0  0  0  0  0  0  0  0
   -6.3662   25.4746  -31.4814 H   0  0  0  0  0  0  0  0  0  0  0  0
   -4.9027   26.1711  -30.6913 H   0  0  0  0  0  0  0  0  0  0  0  0
   -4.2950   22.5209  -32.6293 H   0  0  0  0  0  0  0  0  0  0  0  0
   -5.5422   20.5855  -33.5776 H   0  0  0  0  0  0  0  0  0  0  0  0
   -8.4376   19.9096  -33.7057 H   0  0  0  0  0  0  0  0  0  0  0  0
   -8.7829   19.2864  -30.7703 H   0  0  0  0  0  0  0  0  0  0  0  0
   -9.9966   19.7895  -31.9953 H   0  0  0  0  0  0  0  0  0  0  0  0
   -9.3642   18.1082  -31.9953 H   0  0  0  0  0  0  0  0  0  0  0  0
   -6.6944   17.9680  -32.1224 H   0  0  0  0  0  0  0  0  0  0  0  0
   -7.5915   17.6534  -33.6465 H   0  0  0  0  0  0  0  0  0  0  0  0
   -6.1849   18.7706  -33.6465 H   0  0  0  0  0  0  0  0  0  0  0  0
   -8.7069   21.2133  -30.6824 H   0  0  0  0  0  0  0  0  0  0  0  0
   -7.4572   23.1511  -29.7422 H   0  0  0  0  0  0  0  0  0  0  0  0
   -1.3571   25.5734  -27.0375 H   0  0  0  0  0  0  0  0  0  0  0  0
   -0.1418   25.8850  -28.3230 H   0  0  0  0  0  0  0  0  0  0  0  0
   -1.6989   26.7806  -28.3230 H   0  0  0  0  0  0  0  0  0  0  0  0
   -0.0465   23.5044  -28.9876 H   0  0  0  0  0  0  0  0  0  0  0  0
   -0.6008   20.8845  -29.6526 H   0  0  0  0  0  0  0  0  0  0  0  0
   -1.5990   20.7880  -31.1429 H   0  0  0  0  0  0  0  0  0  0  0  0
   -0.0747   21.7382  -31.1429 H   0  0  0  0  0  0  0  0  0  0  0  0
  1  2  1  0
  2  3  1  0
  3  4  1  0
  4  5  2  0
  5  6  1  0
  6  7  2  0
  7  8  1  0
  8  9  1  0
  8 10  1  0
  7 11  1  0
 11 12  2  0
  3 13  1  0
 13 14  2  0
 14 15  1  0
 15 16  1  0
 15 17  2  0
 17 18  1  0
 18 19  1  0
 18 20  2  0
 12  4  1  0
 20 13  1  0
  1 21  1  0
  1 22  1  0
  1 23  1  0
  2 24  1  0
  2 25  1  0
  5 26  1  0
  6 27  1  0
  8 28  1  0
  9 29  1  0
  9 30  1  0
  9 31  1  0
 10 32  1  0
 10 33  1  0
 10 34  1  0
 11 35  1  0
 12 36  1  0
 16 37  1  0
 16 38  1  0
 16 39  1  0
 17 40  1  0
 19 41  1  0
 19 42  1  0
 19 43  1  0
M  END
>  <UniqueID>  (38) 
36

>  <SMILES>  (38) 
CCN(c1ccc(C(C)C)cc1)c1nc(C)cc(C)n1

>  <Energy>  (38) 
39.8980595123676

>  <Genealogy>  (38) 
CCN(c1ccc(C(C)C)cc1)c1nc(C)cc(C)n1 (3D coordinates assigned)
CCN(c1ccc(C(C)C)cc1)c1nc(C)cc(C)n1 (optimized conformer: 39.8980595123676 kcal/mol)

>  <smiles>  (38) 
CCN(c1ccc(C(C)C)cc1)c1nc(C)cc(C)n1

>  <score_type>  (38) 
oracle

>  <origin>  (38) 
adgpu

>  <m_score__min__energy>  (38) 
-7.5

>  <m_primary>  (38) 
energy

$$$$
38:0
     RDKit          3D

 57 62  0  0  0  0  0  0  0  0999 V2000
    1.5810   24.9814  -36.2452 H   0  0  0  0  0  0  0  0  0  0  0  0
    1.6630   23.8900  -36.1350 C   0  0  0  0  0  0  0  0  0  0  0  0
    0.6710   23.1890  -35.5310 N   0  0  0  0  0  0  0  0  0  0  0  0
    0.7580   21.8650  -35.3900 N   0  0  0  0  0  0  0  0  0  0  0  0
    1.8390   21.1790  -35.8480 C   0  0  0  0  0  0  0  0  0  0  0  0
    1.9280   19.8910  -35.7160 N   0  0  0  0  0  0  0  0  0  0  0  0
    0.7130   18.9140  -34.9560 S   0  0  0  0  0  0  0  0  0  0  0  0
   -0.2610   18.4170  -35.9880 O   0  0  0  0  0  0  0  0  0  0  0  0
    1.3530   17.7360  -34.2760 O   0  0  0  0  0  0  0  0  0  0  0  0
   -0.1360   19.8890  -33.7620 C   0  0  0  0  0  0  0  0  0  0  0  0
    0.5640   20.4410  -32.6810 C   0  0  0  0  0  0  0  0  0  0  0  0
    1.6436   20.2574  -32.5775 H   0  0  0  0  0  0  0  0  0  0  0  0
   -0.1020   21.2240  -31.7330 C   0  0  0  0  0  0  0  0  0  0  0  0
    0.4508   21.6474  -30.8814 H   0  0  0  0  0  0  0  0  0  0  0  0
   -1.4740   21.4680  -31.8700 C   0  0  0  0  0  0  0  0  0  0  0  0
   -2.1870   20.9340  -32.9660 C   0  0  0  0  0  0  0  0  0  0  0  0
   -1.5100   20.1350  -33.9000 C   0  0  0  0  0  0  0  0  0  0  0  0
   -2.0607   19.6985  -34.7463 H   0  0  0  0  0  0  0  0  0  0  0  0
   -3.6980   21.1070  -33.0670 C   0  0  0  0  0  0  0  0  0  0  0  0
   -3.9791   21.0953  -34.1304 H   0  0  0  0  0  0  0  0  0  0  0  0
   -4.1558   20.2801  -32.5042 H   0  0  0  0  0  0  0  0  0  0  0  0
   -4.2140   22.4240  -32.4390 C   0  0  0  0  0  0  0  0  0  0  0  0
   -4.0415   23.2521  -33.1423 H   0  0  0  0  0  0  0  0  0  0  0  0
   -5.2891   22.3207  -32.2303 H   0  0  0  0  0  0  0  0  0  0  0  0
   -3.4960   22.7110  -31.1530 C   0  0  0  0  0  0  0  0  0  0  0  0
   -2.2060   22.3150  -30.9220 C   0  0  0  0  0  0  0  0  0  0  0  0
   -1.7300   22.8830  -29.8000 N   0  0  0  0  0  0  0  0  0  0  0  0
   -2.7080   23.6310  -29.3050 N   0  0  0  0  0  0  0  0  0  0  0  0
   -2.5490   24.4400  -28.1350 C   0  0  0  0  0  0  0  0  0  0  0  0
   -1.4070   25.2420  -27.9910 C   0  0  0  0  0  0  0  0  0  0  0  0
   -0.6313   25.2359  -28.7709 H   0  0  0  0  0  0  0  0  0  0  0  0
   -1.2510   26.0490  -26.8600 C   0  0  0  0  0  0  0  0  0  0  0  0
   -0.3601   26.6859  -26.7570 H   0  0  0  0  0  0  0  0  0  0  0  0
   -2.2280   26.0460  -25.8600 C   0  0  0  0  0  0  0  0  0  0  0  0
   -2.0750   26.8290  -24.7630 F   0  0  0  0  0  0  0  0  0  0  0  0
   -3.3570   25.2310  -25.9860 C   0  0  0  0  0  0  0  0  0  0  0  0
   -4.1195   25.2233  -25.1932 H   0  0  0  0  0  0  0  0  0  0  0  0
   -3.5190   24.4260  -27.1170 C   0  0  0  0  0  0  0  0  0  0  0  0
   -4.6020   23.6150  -27.2110 F   0  0  0  0  0  0  0  0  0  0  0  0
   -3.7950   23.5740  -30.1150 C   0  0  0  0  0  0  0  0  0  0  0  0
   -5.0130   24.4550  -30.0090 C   0  0  0  0  0  0  0  0  0  0  0  0
   -5.1761   24.7203  -28.9540 H   0  0  0  0  0  0  0  0  0  0  0  0
   -4.8470   25.3618  -30.6092 H   0  0  0  0  0  0  0  0  0  0  0  0
   -6.2320   23.7430  -30.5340 C   0  0  0  0  0  0  0  0  0  0  0  0
   -6.8280   22.7180  -29.7820 C   0  0  0  0  0  0  0  0  0  0  0  0
   -6.4169   22.4522  -28.7969 H   0  0  0  0  0  0  0  0  0  0  0  0
   -7.9420   22.0330  -30.2790 C   0  0  0  0  0  0  0  0  0  0  0  0
   -8.4047   21.2313  -29.6847 H   0  0  0  0  0  0  0  0  0  0  0  0
   -8.4670   22.3670  -31.5300 C   0  0  0  0  0  0  0  0  0  0  0  0
   -9.3414   21.8260  -31.9209 H   0  0  0  0  0  0  0  0  0  0  0  0
   -7.8830   23.3870  -32.2850 C   0  0  0  0  0  0  0  0  0  0  0  0
   -8.2989   23.6493  -33.2690 H   0  0  0  0  0  0  0  0  0  0  0  0
   -6.7700   24.0750  -31.7910 C   0  0  0  0  0  0  0  0  0  0  0  0
   -6.3135   24.8787  -32.3874 H   0  0  0  0  0  0  0  0  0  0  0  0
    2.8640   21.8920  -36.4710 C   0  0  0  0  0  0  0  0  0  0  0  0
    3.7521   21.3671  -36.8527 H   0  0  0  0  0  0  0  0  0  0  0  0
    2.7560   23.2380  -36.6020 N   0  0  0  0  0  0  0  0  0  0  0  0
  1  2  1  0
  2  3  2  0
  3  4  1  0
  4  5  1  0
  5  6  2  0
  6  7  1  0
  7  8  2  0
  7  9  2  0
  7 10  1  0
 10 11  2  0
 11 12  1  0
 11 13  1  0
 13 14  1  0
 13 15  2  0
 15 16  1  0
 16 17  2  0
 17 18  1  0
 16 19  1  0
 19 20  1  0
 19 21  1  0
 19 22  1  0
 22 23  1  0
 22 24  1  0
 22 25  1  0
 25 26  1  0
 26 27  2  0
 27 28  1  0
 28 29  1  0
 29 30  2  0
 30 31  1  0
 30 32  1  0
 32 33  1  0
 32 34  2  0
 34 35  1  0
 34 36  1  0
 36 37  1  0
 36 38  2  0
 38 39  1  0
 28 40  1  0
 40 41  1  0
 41 42  1  0
 41 43  1  0
 41 44  1  0
 44 45  2  0
 45 46  1  0
 45 47  1  0
 47 48  1  0
 47 49  2  0
 49 50  1  0
 49 51  1  0
 51 52  1  0
 51 53  2  0
 53 54  1  0
  5 55  1  0
 55 56  1  0
 55 57  2  0
 57  2  1  0
 17 10  1  0
 40 25  2  0
 53 44  1  0
 26 15  1  0
 38 29  1  0
M  CHG  1   4  -1
M  END
>  <UniqueID>  (39) 
37

>  <SMILES>  (39) 
O=S(=O)(/N=c1/cncn[n-]1)c1ccc2c(c1)CCc1c-2nn(-c2ccc(F)cc2F)c1Cc1ccccc1

>  <Energy>  (39) 
111.12035258690563

>  <Genealogy>  (39) 
O=S(=O)(N=c1cncn[n-]1)c1ccc2c(c1)CCc1c-2nn(-c2ccc(F)cc2F)c1Cc1ccccc1 (protonated)
O=S(=O)(/N=c1/cncn[n-]1)c1ccc2c(c1)CCc1c-2nn(-c2ccc(F)cc2F)c1Cc1ccccc1 (cis-trans isomerization)
O=S(=O)(/N=c1/cncn[n-]1)c1ccc2c(c1)CCc1c-2nn(-c2ccc(F)cc2F)c1Cc1ccccc1 (3D coordinates assigned)
O=S(=O)(/N=c1/cncn[n-]1)c1ccc2c(c1)CCc1c-2nn(-c2ccc(F)cc2F)c1Cc1ccccc1 (nonaromatic ring conformer: 111.12035258690563 kcal/mol)

>  <smiles>  (39) 
O=S(=O)(N=c1cncn[nH]1)c1ccc2c(c1)CCc1c-2nn(-c2ccc(F)cc2F)c1Cc1ccccc1

>  <score_type>  (39) 
oracle

>  <origin>  (39) 
adgpu

>  <m_score__min__energy>  (39) 
-12.130000000000001

>  <m_primary>  (39) 
energy

$$$$
39:0
     RDKit          3D

 41 43  0  0  0  0  0  0  0  0999 V2000
    4.1450   24.1790  -36.1100 C   0  0  0  0  0  0  0  0  0  0  0  0
    2.8040   23.5240  -36.2130 C   0  0  0  0  0  0  0  0  0  0  0  0
    1.7660   24.0670  -36.8750 N   0  0  0  0  0  0  0  0  0  0  0  0
    0.7760   23.2300  -36.7830 O   0  0  0  0  0  0  0  0  0  0  0  0
    1.1080   22.1630  -36.0950 C   0  0  0  0  0  0  0  0  0  0  0  0
    0.2600   21.1930  -35.9010 N   0  0  0  0  0  0  0  0  0  0  0  0
    0.4490   19.7000  -35.0350 S   0  0  0  0  0  0  0  0  0  0  0  0
   -0.5350   18.6880  -35.5540 O   0  0  0  0  0  0  0  0  0  0  0  0
    1.8360   19.1810  -35.2910 O   0  0  0  0  0  0  0  0  0  0  0  0
    0.2800   19.9390  -33.3010 C   0  0  0  0  0  0  0  0  0  0  0  0
    0.4690   18.8680  -32.4170 C   0  0  0  0  0  0  0  0  0  0  0  0
    0.3270   19.0610  -31.0390 C   0  0  0  0  0  0  0  0  0  0  0  0
    0.0160   20.3270  -30.5290 C   0  0  0  0  0  0  0  0  0  0  0  0
   -0.1370   20.4860  -29.1120 N   0  0  0  0  0  0  0  0  0  0  0  0
   -1.2450   21.1070  -28.4440 C   0  0  0  0  0  0  0  0  0  0  0  0
   -1.6030   20.6540  -27.3240 O   0  0  0  0  0  0  0  0  0  0  0  0
   -1.9400   22.2900  -29.0050 C   0  0  0  0  0  0  0  0  0  0  0  0
   -3.0730   22.1380  -29.8240 C   0  0  0  0  0  0  0  0  0  0  0  0
   -3.7210   23.2600  -30.3500 C   0  0  0  0  0  0  0  0  0  0  0  0
   -3.2380   24.5430  -30.0750 C   0  0  0  0  0  0  0  0  0  0  0  0
   -3.8870   25.6530  -30.6020 O   0  0  0  0  0  0  0  0  0  0  0  0
   -2.1020   24.7030  -29.2750 C   0  0  0  0  0  0  0  0  0  0  0  0
   -1.6150   25.9770  -29.0020 O   0  0  0  0  0  0  0  0  0  0  0  0
   -1.4530   23.5830  -28.7460 C   0  0  0  0  0  0  0  0  0  0  0  0
   -0.1870   21.3970  -31.4200 C   0  0  0  0  0  0  0  0  0  0  0  0
   -0.0450   21.2040  -32.7960 C   0  0  0  0  0  0  0  0  0  0  0  0
    2.4350   22.2990  -35.6760 C   0  0  0  0  0  0  0  0  0  0  0  0
    3.3490   21.3640  -34.9410 C   0  0  0  0  0  0  0  0  0  0  0  0
    4.4095   24.3082  -35.0501 H   0  0  0  0  0  0  0  0  0  0  0  0
    4.8999   23.5482  -36.6021 H   0  0  0  0  0  0  0  0  0  0  0  0
    4.1116   25.1622  -36.6021 H   0  0  0  0  0  0  0  0  0  0  0  0
    0.7296   17.8733  -32.8078 H   0  0  0  0  0  0  0  0  0  0  0  0
    0.4605   18.2126  -30.3517 H   0  0  0  0  0  0  0  0  0  0  0  0
   -3.4517   21.1308  -30.0522 H   0  0  0  0  0  0  0  0  0  0  0  0
   -4.6127   23.1330  -30.9815 H   0  0  0  0  0  0  0  0  0  0  0  0
   -0.5558   23.7146  -28.1233 H   0  0  0  0  0  0  0  0  0  0  0  0
   -0.4586   22.3895  -31.0312 H   0  0  0  0  0  0  0  0  0  0  0  0
   -0.1890   22.0488  -33.4856 H   0  0  0  0  0  0  0  0  0  0  0  0
    3.2172   21.4988  -33.8573 H   0  0  0  0  0  0  0  0  0  0  0  0
    3.1078   20.3259  -35.2134 H   0  0  0  0  0  0  0  0  0  0  0  0
    4.3923   21.5816  -35.2134 H   0  0  0  0  0  0  0  0  0  0  0  0
  1  2  1  0
  2  3  1  0
  3  4  1  0
  4  5  1  0
  5  6  2  3
  6  7  1  0
  7  8  2  0
  7  9  2  0
  7 10  1  0
 10 11  2  0
 11 12  1  0
 12 13  2  0
 13 14  1  0
 14 15  1  0
 15 16  2  0
 15 17  1  0
 17 18  2  0
 18 19  1  0
 19 20  2  0
 20 21  1  0
 20 22  1  0
 22 23  1  0
 22 24  2  0
 13 25  1  0
 25 26  2  0
  5 27  1  0
 27 28  1  0
 27  2  2  0
 26 10  1  0
 24 17  1  0
  1 29  1  0
  1 30  1  0
  1 31  1  0
 11 32  1  0
 12 33  1  0
 18 34  1  0
 19 35  1  0
 24 36  1  0
 25 37  1  0
 26 38  1  0
 28 39  1  0
 28 40  1  0
 28 41  1  0
M  CHG  4   3  -1  14  -1  21  -1  23  -1
M  END
>  <UniqueID>  (40) 
38

>  <SMILES>  (40) 
Cc1[n-]oc(=NS(=O)(=O)c2ccc([N-]C(=O)c3ccc([O-])c([O-])c3)cc2)c1C

>  <Energy>  (40) 
90.11400018148933

>  <Genealogy>  (40) 
Cc1[n-]oc(=NS(=O)(=O)c2ccc([N-]C(=O)c3ccc([O-])c([O-])c3)cc2)c1C (protonated)
Cc1[n-]oc(=NS(=O)(=O)c2ccc([N-]C(=O)c3ccc([O-])c([O-])c3)cc2)c1C (3D coordinates assigned)
Cc1[n-]oc(=NS(=O)(=O)c2ccc([N-]C(=O)c3ccc([O-])c([O-])c3)cc2)c1C (optimized conformer: 90.11400018148933 kcal/mol)

>  <smiles>  (40) 
Cc1[nH]oc(=NS(=O)(=O)c2ccc(NC(=O)c3ccc(O)c(O)c3)cc2)c1C

>  <score_type>  (40) 
oracle

>  <origin>  (40) 
adgpu

>  <m_score__min__energy>  (40) 
-14.029999999999999

>  <m_primary>  (40) 
energy

$$$$
40:0
     RDKit          3D

 63 66  0  0  0  0  0  0  0  0999 V2000
   -6.5700   19.6620  -33.3500 C   0  0  0  0  0  0  0  0  0  0  0  0
   -6.2120   20.9530  -32.6640 C   0  0  0  0  0  0  0  0  0  0  0  0
   -7.2080   21.6510  -31.9570 C   0  0  0  0  0  0  0  0  0  0  0  0
   -6.9130   22.8500  -31.3090 C   0  0  0  0  0  0  0  0  0  0  0  0
   -5.6210   23.3790  -31.3660 C   0  0  0  0  0  0  0  0  0  0  0  0
   -5.2060   24.8420  -30.4760 S   0  0  0  0  0  0  0  0  0  0  0  0
   -5.8110   24.7950  -29.1010 O   0  0  0  0  0  0  0  0  0  0  0  0
   -5.7340   26.0500  -31.1970 O   0  0  0  0  0  0  0  0  0  0  0  0
   -3.4840   24.9430  -30.3330 N   0  0  0  0  0  0  0  0  0  0  0  0
   -2.8370   24.5410  -29.1270 C   0  0  0  0  0  0  0  0  0  0  0  0
   -2.9990   23.3290  -28.4790 C   0  0  0  0  0  0  0  0  0  0  0  0
   -3.9980   22.2720  -28.8390 C   0  0  0  0  0  0  0  0  0  0  0  0
   -1.9810   23.1770  -27.5940 N   0  0  0  0  0  0  0  0  0  0  0  0
   -1.7280   21.9830  -26.7810 C   0  0  0  0  0  0  0  0  0  0  0  0
   -1.2020   24.2550  -27.6440 N   0  0  0  0  0  0  0  0  0  0  0  0
   -0.0160   24.4770  -26.8570 C   0  0  0  0  0  0  0  0  0  0  0  0
   -0.1200   24.8240  -25.4990 C   0  0  0  0  0  0  0  0  0  0  0  0
    1.0320   25.0340  -24.7360 C   0  0  0  0  0  0  0  0  0  0  0  0
    2.2940   24.9070  -25.3230 C   0  0  0  0  0  0  0  0  0  0  0  0
    2.4050   24.5750  -26.6760 C   0  0  0  0  0  0  0  0  0  0  0  0
    1.2560   24.3660  -27.4420 C   0  0  0  0  0  0  0  0  0  0  0  0
   -1.6890   25.0810  -28.5940 C   0  0  0  0  0  0  0  0  0  0  0  0
   -1.1550   26.1690  -28.9430 O   0  0  0  0  0  0  0  0  0  0  0  0
   -4.6250   22.6970  -32.0720 C   0  0  0  0  0  0  0  0  0  0  0  0
   -4.8960   21.4740  -32.7130 C   0  0  0  0  0  0  0  0  0  0  0  0
   -3.8420   20.7490  -33.3830 N   0  0  0  0  0  0  0  0  0  0  0  0
   -2.4540   21.2100  -33.4600 C   0  0  0  0  0  0  0  0  0  0  0  0
   -1.7300   20.9040  -32.1760 C   0  0  0  0  0  0  0  0  0  0  0  0
   -1.4060   21.9260  -31.2710 C   0  0  0  0  0  0  0  0  0  0  0  0
   -0.7090   21.6340  -30.0950 C   0  0  0  0  0  0  0  0  0  0  0  0
   -0.3240   20.3160  -29.8110 C   0  0  0  0  0  0  0  0  0  0  0  0
    0.5500   19.9370  -28.3310 S   0  0  0  0  0  0  0  0  0  0  0  0
    1.8850   18.9040  -28.7030 N   0  0  0  0  0  0  0  0  0  0  0  0
    1.0490   21.2070  -27.7020 O   0  0  0  0  0  0  0  0  0  0  0  0
   -0.3600   19.2410  -27.3580 O   0  0  0  0  0  0  0  0  0  0  0  0
   -0.6530   19.2920  -30.7090 C   0  0  0  0  0  0  0  0  0  0  0  0
   -1.3500   19.5840  -31.8850 C   0  0  0  0  0  0  0  0  0  0  0  0
   -6.7835   18.8920  -32.5940 H   0  0  0  0  0  0  0  0  0  0  0  0
   -7.4595   19.8152  -33.9787 H   0  0  0  0  0  0  0  0  0  0  0  0
   -5.7286   19.3352  -33.9787 H   0  0  0  0  0  0  0  0  0  0  0  0
   -8.2302   21.2468  -31.9149 H   0  0  0  0  0  0  0  0  0  0  0  0
   -7.6991   23.3805  -30.7517 H   0  0  0  0  0  0  0  0  0  0  0  0
   -4.4136   21.8322  -27.9204 H   0  0  0  0  0  0  0  0  0  0  0  0
   -4.8096   22.7208  -29.4305 H   0  0  0  0  0  0  0  0  0  0  0  0
   -3.5042   21.4870  -29.4305 H   0  0  0  0  0  0  0  0  0  0  0  0
   -1.7839   22.2469  -25.7146 H   0  0  0  0  0  0  0  0  0  0  0  0
   -2.4838   21.2171  -27.0093 H   0  0  0  0  0  0  0  0  0  0  0  0
   -0.7265   21.5894  -27.0093 H   0  0  0  0  0  0  0  0  0  0  0  0
   -1.1116   24.9307  -25.0350 H   0  0  0  0  0  0  0  0  0  0  0  0
    0.9453   25.2996  -23.6721 H   0  0  0  0  0  0  0  0  0  0  0  0
    3.1998   25.0683  -24.7201 H   0  0  0  0  0  0  0  0  0  0  0  0
    3.3985   24.4782  -27.1382 H   0  0  0  0  0  0  0  0  0  0  0  0
    1.3477   24.1132  -28.5086 H   0  0  0  0  0  0  0  0  0  0  0  0
   -3.6127   23.1238  -32.1272 H   0  0  0  0  0  0  0  0  0  0  0  0
   -4.0700   19.8690  -33.8970 H   0  0  0  0  0  0  0  0  0  0  0  0
   -1.9477   20.6996  -34.2926 H   0  0  0  0  0  0  0  0  0  0  0  0
   -2.4467   22.2976  -33.6245 H   0  0  0  0  0  0  0  0  0  0  0  0
   -1.7021   22.9629  -31.4881 H   0  0  0  0  0  0  0  0  0  0  0  0
   -0.4617   22.4412  -29.3898 H   0  0  0  0  0  0  0  0  0  0  0  0
    2.7240   19.5170  -28.8120 H   0  0  0  0  0  0  0  0  0  0  0  0
    1.6940   18.4850  -29.6420 H   0  0  0  0  0  0  0  0  0  0  0  0
   -0.3618   18.2546  -30.4878 H   0  0  0  0  0  0  0  0  0  0  0  0
   -1.6022   18.7751  -32.5864 H   0  0  0  0  0  0  0  0  0  0  0  0
  1  2  1  0
  2  3  2  0
  3  4  1  0
  4  5  2  0
  5  6  1  0
  6  7  2  0
  6  8  2  0
  6  9  1  0
  9 10  1  0
 10 11  2  0
 11 12  1  0
 11 13  1  0
 13 14  1  0
 13 15  1  0
 15 16  1  0
 16 17  2  0
 17 18  1  0
 18 19  2  0
 19 20  1  0
 20 21  2  0
 15 22  1  0
 22 23  2  0
  5 24  1  0
 24 25  2  0
 25 26  1  0
 26 27  1  0
 27 28  1  0
 28 29  2  0
 29 30  1  0
 30 31  2  0
 31 32  1  0
 32 33  1  0
 32 34  2  0
 32 35  2  0
 31 36  1  0
 36 37  2  0
 25  2  1  0
 37 28  1  0
 22 10  1  0
 21 16  1  0
  1 38  1  0
  1 39  1  0
  1 40  1  0
  3 41  1  0
  4 42  1  0
 12 43  1  0
 12 44  1  0
 12 45  1  0
 14 46  1  0
 14 47  1  0
 14 48  1  0
 17 49  1  0
 18 50  1  0
 19 51  1  0
 20 52  1  0
 21 53  1  0
 24 54  1  0
 26 55  1  0
 27 56  1  0
 27 57  1  0
 29 58  1  0
 30 59  1  0
 33 60  1  0
 33 61  1  0
 36 62  1  0
 37 63  1  0
M  CHG  1   9  -1
M  END
>  <UniqueID>  (41) 
39

>  <SMILES>  (41) 
Cc1ccc(S(=O)(=O)[N-]c2c(C)n(C)n(-c3ccccc3)c2=O)cc1NCc1ccc(S(N)(=O)=O)cc1

>  <Energy>  (41) 
111.50162160153845

>  <Genealogy>  (41) 
Cc1ccc(S(=O)(=O)[N-]c2c(C)n(C)n(-c3ccccc3)c2=O)cc1NCc1ccc(S(N)(=O)=O)cc1 (protonated)
Cc1ccc(S(=O)(=O)[N-]c2c(C)n(C)n(-c3ccccc3)c2=O)cc1NCc1ccc(S(N)(=O)=O)cc1 (3D coordinates assigned)
Cc1ccc(S(=O)(=O)[N-]c2c(C)n(C)n(-c3ccccc3)c2=O)cc1NCc1ccc(S(N)(=O)=O)cc1 (optimized conformer: 111.50162160153845 kcal/mol)

>  <smiles>  (41) 
Cc1ccc(S(=O)(=O)Nc2c(C)n(C)n(-c3ccccc3)c2=O)cc1NCc1ccc(S(N)(=O)=O)cc1

>  <score_type>  (41) 
oracle

>  <origin>  (41) 
adgpu

>  <m_score__min__energy>  (41) 
-12.24

>  <m_primary>  (41) 
energy

$$$$
41:0
     RDKit          3D

 31 33  0  0  0  0  0  0  0  0999 V2000
   -3.7640   22.4390  -27.8590 C   0  0  0  0  0  0  0  0  0  0  0  0
   -2.8340   23.5140  -28.3230 C   0  0  0  0  0  0  0  0  0  0  0  0
   -1.5800   23.7600  -27.8060 C   0  0  0  0  0  0  0  0  0  0  0  0
   -1.1100   24.8740  -28.4700 C   0  0  0  0  0  0  0  0  0  0  0  0
   -2.0040   25.2830  -29.3410 O   0  0  0  0  0  0  0  0  0  0  0  0
   -3.0460   24.4840  -29.2930 C   0  0  0  0  0  0  0  0  0  0  0  0
   -4.2270   24.6630  -30.1570 C   0  0  0  0  0  0  0  0  0  0  0  0
   -4.2810   25.6760  -30.9030 O   0  0  0  0  0  0  0  0  0  0  0  0
   -5.3000   23.7130  -30.2070 N   0  0  0  0  0  0  0  0  0  0  0  0
   -5.4520   22.6490  -31.1610 C   0  0  0  0  0  0  0  0  0  0  0  0
   -4.3210   22.2490  -31.8760 C   0  0  0  0  0  0  0  0  0  0  0  0
   -4.4310   21.2860  -32.8800 C   0  0  0  0  0  0  0  0  0  0  0  0
   -3.4110   20.9530  -33.5410 O   0  0  0  0  0  0  0  0  0  0  0  0
   -5.6340   20.7150  -33.1520 N   0  0  0  0  0  0  0  0  0  0  0  0
   -6.7540   21.0310  -32.4380 C   0  0  0  0  0  0  0  0  0  0  0  0
   -7.9700   20.3900  -32.7180 C   0  0  0  0  0  0  0  0  0  0  0  0
   -9.1060   20.6700  -31.9580 C   0  0  0  0  0  0  0  0  0  0  0  0
   -9.0350   21.5760  -30.9000 C   0  0  0  0  0  0  0  0  0  0  0  0
   -7.8320   22.2260  -30.6100 C   0  0  0  0  0  0  0  0  0  0  0  0
   -6.6850   21.9940  -31.3960 C   0  0  0  0  0  0  0  0  0  0  0  0
   -3.7815   22.4188  -26.7593 H   0  0  0  0  0  0  0  0  0  0  0  0
   -4.7766   22.6413  -28.2382 H   0  0  0  0  0  0  0  0  0  0  0  0
   -3.4181   21.4661  -28.2382 H   0  0  0  0  0  0  0  0  0  0  0  0
   -1.0608   23.1859  -27.0245 H   0  0  0  0  0  0  0  0  0  0  0  0
   -0.1330   25.3486  -28.2961 H   0  0  0  0  0  0  0  0  0  0  0  0
   -3.3414   22.6940  -31.6473 H   0  0  0  0  0  0  0  0  0  0  0  0
   -5.6900   20.0020  -33.9160 H   0  0  0  0  0  0  0  0  0  0  0  0
   -8.0281   19.6627  -33.5412 H   0  0  0  0  0  0  0  0  0  0  0  0
  -10.0597   20.1751  -32.1937 H   0  0  0  0  0  0  0  0  0  0  0  0
   -9.9286   21.7797  -30.2918 H   0  0  0  0  0  0  0  0  0  0  0  0
   -7.7799   22.9242  -29.7616 H   0  0  0  0  0  0  0  0  0  0  0  0
  1  2  1  0
  2  3  1  0
  3  4  2  0
  4  5  1  0
  5  6  1  0
  6  7  1  0
  7  8  2  0
  7  9  1  0
  9 10  1  0
 10 11  2  0
 11 12  1  0
 12 13  2  0
 12 14  1  0
 14 15  1  0
 15 16  2  0
 16 17  1  0
 17 18  2  0
 18 19  1  0
 19 20  2  0
  6  2  2  0
 20 10  1  0
 20 15  1  0
  1 21  1  0
  1 22  1  0
  1 23  1  0
  3 24  1  0
  4 25  1  0
 11 26  1  0
 14 27  1  0
 16 28  1  0
 17 29  1  0
 18 30  1  0
 19 31  1  0
M  CHG  1   9  -1
M  END
>  <UniqueID>  (42) 
40

>  <SMILES>  (42) 
Cc1ccoc1C(=O)[N-]c1cc(=O)[nH]c2ccccc12

>  <Energy>  (42) 
73.29270009493099

>  <Genealogy>  (42) 
Cc1ccoc1C(=O)[N-]c1cc(=O)[nH]c2ccccc12 (protonated)
Cc1ccoc1C(=O)[N-]c1cc(=O)[nH]c2ccccc12 (3D coordinates assigned)
Cc1ccoc1C(=O)[N-]c1cc(=O)[nH]c2ccccc12 (optimized conformer: 73.29270009493099 kcal/mol)

>  <smiles>  (42) 
Cc1ccoc1C(=O)Nc1cc(=O)[nH]c2ccccc12

>  <score_type>  (42) 
oracle

>  <origin>  (42) 
adgpu

>  <m_score__min__energy>  (42) 
-8.7100000000000009

>  <m_primary>  (42) 
energy

$$$$
42:0
     RDKit          3D

 26 27  0  0  0  0  0  0  0  0999 V2000
   -8.6990   19.4460  -32.0970 C   0  0  0  0  0  0  0  0  0  0  0  0
   -7.4090   20.2080  -32.2650 C   0  0  0  0  0  0  0  0  0  0  0  0
   -6.4000   19.6550  -33.0690 C   0  0  0  0  0  0  0  0  0  0  0  0
   -5.1890   20.3220  -33.2470 C   0  0  0  0  0  0  0  0  0  0  0  0
   -4.9650   21.5430  -32.6190 C   0  0  0  0  0  0  0  0  0  0  0  0
   -5.9560   22.1260  -31.8180 C   0  0  0  0  0  0  0  0  0  0  0  0
   -5.6670   23.3640  -31.1460 N   0  0  0  0  0  0  0  0  0  0  0  0
   -6.2680   24.5500  -31.3640 C   0  0  0  0  0  0  0  0  0  0  0  0
   -5.7420   25.4740  -30.4840 C   0  0  0  0  0  0  0  0  0  0  0  0
   -4.8200   24.8630  -29.7160 N   0  0  0  0  0  0  0  0  0  0  0  0
   -4.7980   23.5830  -30.1330 C   0  0  0  0  0  0  0  0  0  0  0  0
   -3.7880   22.4530  -29.5090 S   0  0  0  0  0  0  0  0  0  0  0  0
   -7.2080   21.4770  -31.6620 C   0  0  0  0  0  0  0  0  0  0  0  0
   -8.2980   22.1200  -30.8350 C   0  0  0  0  0  0  0  0  0  0  0  0
   -8.9132   19.3195  -31.0255 H   0  0  0  0  0  0  0  0  0  0  0  0
   -9.5193   20.0046  -32.5715 H   0  0  0  0  0  0  0  0  0  0  0  0
   -8.6057   18.4580  -32.5715 H   0  0  0  0  0  0  0  0  0  0  0  0
   -6.5664   18.6864  -33.5631 H   0  0  0  0  0  0  0  0  0  0  0  0
   -4.4088   19.8819  -33.8854 H   0  0  0  0  0  0  0  0  0  0  0  0
   -4.0009   22.0556  -32.7525 H   0  0  0  0  0  0  0  0  0  0  0  0
   -7.0460   24.7482  -32.1159 H   0  0  0  0  0  0  0  0  0  0  0  0
   -6.0285   26.5341  -30.4205 H   0  0  0  0  0  0  0  0  0  0  0  0
   -4.2440   25.2960  -28.9600 H   0  0  0  0  0  0  0  0  0  0  0  0
   -8.0737   21.9877  -29.7663 H   0  0  0  0  0  0  0  0  0  0  0  0
   -8.3504   23.1937  -31.0685 H   0  0  0  0  0  0  0  0  0  0  0  0
   -9.2630   21.6465  -31.0685 H   0  0  0  0  0  0  0  0  0  0  0  0
  1  2  1  0
  2  3  2  0
  3  4  1  0
  4  5  2  0
  5  6  1  0
  6  7  1  0
  7  8  1  0
  8  9  2  0
  9 10  1  0
 10 11  1  0
 11 12  2  0
  6 13  2  0
 13 14  1  0
 13  2  1  0
 11  7  1  0
  1 15  1  0
  1 16  1  0
  1 17  1  0
  3 18  1  0
  4 19  1  0
  5 20  1  0
  8 21  1  0
  9 22  1  0
 10 23  1  0
 14 24  1  0
 14 25  1  0
 14 26  1  0
M  END
>  <UniqueID>  (43) 
41

>  <SMILES>  (43) 
Cc1cccc(-n2cc[nH]c2=S)c1C

>  <Energy>  (43) 
66.07374993241305

>  <Genealogy>  (43) 
Cc1cccc(-n2cc[nH]c2=S)c1C (3D coordinates assigned)
Cc1cccc(-n2cc[nH]c2=S)c1C (optimized conformer: 66.07374993241305 kcal/mol)

>  <smiles>  (43) 
Cc1cccc(-n2cc[nH]c2=S)c1C

>  <score_type>  (43) 
oracle

>  <origin>  (43) 
adgpu

>  <m_score__min__energy>  (43) 
-6.1699999999999999

>  <m_primary>  (43) 
energy

$$$$
43:0
     RDKit          3D

 41 43  0  0  1  0  0  0  0  0999 V2000
   -6.8500   16.9180  -33.2240 C   0  0  0  0  0  0  0  0  0  0  0  0
   -7.0730   18.2610  -32.6090 C   0  0  0  0  0  0  0  0  0  0  0  0
   -7.0430   18.4620  -31.3720 O   0  0  0  0  0  0  0  0  0  0  0  0
   -7.3370   19.4160  -33.4300 N   0  0  0  0  0  0  0  0  0  0  0  0
   -7.5330   20.6400  -32.7280 C   0  0  0  0  0  0  0  0  0  0  0  0
   -8.8210   20.9630  -32.3120 C   0  0  0  0  0  0  0  0  0  0  0  0
   -8.9720   22.1650  -31.6300 C   0  0  0  0  0  0  0  0  0  0  0  0
   -7.8960   23.0010  -31.3770 C   0  0  0  0  0  0  0  0  0  0  0  0
   -6.6130   22.6830  -31.7910 C   0  0  0  0  0  0  0  0  0  0  0  0
   -5.4850   23.4840  -31.5670 N   0  0  0  0  0  0  0  0  0  0  0  0
   -4.7860   23.4780  -30.4830 C   0  0  0  0  0  0  0  0  0  0  0  0
   -5.1360   22.6570  -29.4760 N   0  0  0  0  0  0  0  0  0  0  0  0
   -4.3700   22.6970  -28.3720 C   0  0  0  0  0  0  0  0  0  0  0  0
   -3.2750   23.5270  -28.2520 C   0  0  0  0  0  0  0  0  0  0  0  0
   -2.9730   24.3400  -29.3200 C   0  0  0  0  0  0  0  0  0  0  0  0
   -1.9700   25.1430  -29.2920 N   0  0  0  0  0  0  0  0  0  0  0  0
   -1.1110   25.2430  -28.1620 C   0  0  0  0  0  0  0  0  0  0  0  0
   -0.0800   24.2990  -28.1040 C   0  0  0  0  0  0  0  0  0  0  0  0
    0.8270   24.2710  -27.0750 C   0  0  0  0  0  0  0  0  0  0  0  0
    0.6810   25.2260  -26.0810 C   0  0  0  0  0  0  0  0  0  0  0  0
    1.5770   25.1940  -25.0680 F   0  0  0  0  0  0  0  0  0  0  0  0
   -0.3470   26.1690  -26.1330 C   0  0  0  0  0  0  0  0  0  0  0  0
   -1.2540   26.1840  -27.1770 C   0  0  0  0  0  0  0  0  0  0  0  0
   -3.7350   24.3080  -30.4320 N   0  0  0  0  0  0  0  0  0  0  0  0
   -6.4620   21.4900  -32.4670 C   0  0  0  0  0  0  0  0  0  0  0  0
   -6.7253   16.1672  -32.4298 H   0  0  0  0  0  0  0  0  0  0  0  0
   -7.7162   16.6518  -33.8475 H   0  0  0  0  0  0  0  0  0  0  0  0
   -5.9442   16.9461  -33.8475 H   0  0  0  0  0  0  0  0  0  0  0  0
   -7.3790   19.3310  -34.4700 H   0  0  0  0  0  0  0  0  0  0  0  0
   -9.6762   20.3009  -32.5126 H   0  0  0  0  0  0  0  0  0  0  0  0
   -9.9727   22.4605  -31.2817 H   0  0  0  0  0  0  0  0  0  0  0  0
   -8.0653   23.9420  -30.8330 H   0  0  0  0  0  0  0  0  0  0  0  0
   -5.9660   22.0380  -29.5850 H   0  0  0  0  0  0  0  0  0  0  0  0
   -4.6275   22.0397  -27.5284 H   0  0  0  0  0  0  0  0  0  0  0  0
   -2.6657   23.5385  -27.3362 H   0  0  0  0  0  0  0  0  0  0  0  0
    0.0062   23.5550  -28.9097 H   0  0  0  0  0  0  0  0  0  0  0  0
    1.6339   23.5242  -27.0403 H   0  0  0  0  0  0  0  0  0  0  0  0
   -0.4373   26.9140  -25.3287 H   0  0  0  0  0  0  0  0  0  0  0  0
   -2.0639   26.9274  -27.2151 H   0  0  0  0  0  0  0  0  0  0  0  0
   -3.4880   24.9280  -31.2190 H   0  0  0  0  0  0  0  0  0  0  0  0
   -5.4587   21.1998  -32.8124 H   0  0  0  0  0  0  0  0  0  0  0  0
  1  2  1  0
  2  3  2  0
  2  4  1  0
  4  5  1  0
  5  6  2  0
  6  7  1  0
  7  8  2  0
  8  9  1  0
  9 10  1  0
 10 11  2  0
 11 12  1  0
 12 13  1  0
 13 14  2  0
 14 15  1  0
 15 16  2  0
 16 17  1  0
 17 18  2  0
 18 19  1  0
 19 20  2  0
 20 21  1  0
 20 22  1  0
 22 23  2  0
 15 24  1  0
  9 25  2  0
 25  5  1  0
 24 11  1  0
 23 17  1  0
  1 26  1  0
  1 27  1  0
  1 28  1  0
  4 29  1  0
  6 30  1  0
  7 31  1  0
  8 32  1  0
 12 33  1  0
 13 34  1  0
 14 35  1  0
 18 36  1  0
 19 37  1  0
 22 38  1  0
 23 39  1  0
 24 40  1  0
 25 41  1  0
M  END
>  <smiles>  (44) 
CC(=O)Nc1cccc(N=c2[nH]ccc(=Nc3ccc(F)cc3)[nH]2)c1

>  <score_type>  (44) 
oracle

>  <origin>  (44) 
adgpu

>  <m_score__min__energy>  (44) 
-8.5800000000000001

>  <m_primary>  (44) 
energy

$$$$
44:0
     RDKit          3D

 48 50  0  0  0  0  0  0  0  0999 V2000
    1.5380   25.4670  -36.3900 C   0  0  0  0  0  0  0  0  0  0  0  0
    1.7920   24.1540  -36.8780 O   0  0  0  0  0  0  0  0  0  0  0  0
    1.5040   22.9760  -36.1710 C   0  0  0  0  0  0  0  0  0  0  0  0
    2.5530   22.0890  -35.9020 C   0  0  0  0  0  0  0  0  0  0  0  0
    2.3200   20.9040  -35.1940 C   0  0  0  0  0  0  0  0  0  0  0  0
    1.0260   20.5880  -34.7540 C   0  0  0  0  0  0  0  0  0  0  0  0
    0.7890   19.3290  -33.9640 C   0  0  0  0  0  0  0  0  0  0  0  0
    1.5600   19.3570  -32.7280 N   0  0  0  0  0  0  0  0  0  0  0  0
    1.0230   19.7750  -31.4680 C   0  0  0  0  0  0  0  0  0  0  0  0
    1.4270   19.2400  -30.4000 O   0  0  0  0  0  0  0  0  0  0  0  0
    0.0650   20.8420  -31.4330 N   0  0  0  0  0  0  0  0  0  0  0  0
   -0.6520   21.2440  -30.2530 C   0  0  0  0  0  0  0  0  0  0  0  0
   -0.8270   20.3710  -29.1650 C   0  0  0  0  0  0  0  0  0  0  0  0
   -1.5280   20.7890  -28.0310 C   0  0  0  0  0  0  0  0  0  0  0  0
   -2.0760   22.0740  -27.9780 C   0  0  0  0  0  0  0  0  0  0  0  0
   -1.9380   22.9410  -29.0710 C   0  0  0  0  0  0  0  0  0  0  0  0
   -2.6590   24.5480  -29.0330 S   0  0  0  0  0  0  0  0  0  0  0  0
   -3.5370   24.7130  -27.8230 O   0  0  0  0  0  0  0  0  0  0  0  0
   -1.5620   25.5730  -28.9810 O   0  0  0  0  0  0  0  0  0  0  0  0
   -3.6070   24.8010  -30.4620 N   0  0  0  0  0  0  0  0  0  0  0  0
   -4.6270   23.9150  -30.9470 C   0  0  0  0  0  0  0  0  0  0  0  0
   -4.3210   22.8160  -31.7740 C   0  0  0  0  0  0  0  0  0  0  0  0
   -5.3410   21.9810  -32.2420 C   0  0  0  0  0  0  0  0  0  0  0  0
   -6.6690   22.2280  -31.8880 C   0  0  0  0  0  0  0  0  0  0  0  0
   -6.9810   23.3110  -31.0630 C   0  0  0  0  0  0  0  0  0  0  0  0
   -5.9670   24.1540  -30.5920 C   0  0  0  0  0  0  0  0  0  0  0  0
   -6.4430   25.6480  -29.4900 Br  0  0  0  0  0  0  0  0  0  0  0  0
   -1.2340   22.5210  -30.2070 C   0  0  0  0  0  0  0  0  0  0  0  0
   -0.0290   21.4740  -35.0210 C   0  0  0  0  0  0  0  0  0  0  0  0
    0.2050   22.6590  -35.7260 C   0  0  0  0  0  0  0  0  0  0  0  0
    1.5401   25.4561  -35.2901 H   0  0  0  0  0  0  0  0  0  0  0  0
    2.3206   26.1503  -36.7514 H   0  0  0  0  0  0  0  0  0  0  0  0
    0.5570   25.8091  -36.7514 H   0  0  0  0  0  0  0  0  0  0  0  0
    3.5694   22.3252  -36.2500 H   0  0  0  0  0  0  0  0  0  0  0  0
    3.1540   20.2187  -34.9821 H   0  0  0  0  0  0  0  0  0  0  0  0
   -0.2811   19.2476  -33.7228 H   0  0  0  0  0  0  0  0  0  0  0  0
    1.1058   18.4637  -34.5647 H   0  0  0  0  0  0  0  0  0  0  0  0
   -0.0370   21.4220  -32.2970 H   0  0  0  0  0  0  0  0  0  0  0  0
   -0.4100   19.3540  -29.2067 H   0  0  0  0  0  0  0  0  0  0  0  0
   -1.6490   20.1053  -27.1778 H   0  0  0  0  0  0  0  0  0  0  0  0
   -2.6156   22.4049  -27.0784 H   0  0  0  0  0  0  0  0  0  0  0  0
   -3.2762   22.6139  -32.0526 H   0  0  0  0  0  0  0  0  0  0  0  0
   -5.0962   21.1272  -32.8909 H   0  0  0  0  0  0  0  0  0  0  0  0
   -7.4689   21.5701  -32.2586 H   0  0  0  0  0  0  0  0  0  0  0  0
   -8.0272   23.5024  -30.7822 H   0  0  0  0  0  0  0  0  0  0  0  0
   -1.1364   23.1967  -31.0695 H   0  0  0  0  0  0  0  0  0  0  0  0
   -1.0452   21.2353  -34.6740 H   0  0  0  0  0  0  0  0  0  0  0  0
   -0.6283   23.3463  -35.9340 H   0  0  0  0  0  0  0  0  0  0  0  0
  1  2  1  0
  2  3  1  0
  3  4  2  0
  4  5  1  0
  5  6  2  0
  6  7  1  0
  7  8  1  0
  8  9  1  0
  9 10  2  0
  9 11  1  0
 11 12  1  0
 12 13  2  0
 13 14  1  0
 14 15  2  0
 15 16  1  0
 16 17  1  0
 17 18  2  0
 17 19  2  0
 17 20  1  0
 20 21  1  0
 21 22  2  0
 22 23  1  0
 23 24  2  0
 24 25  1  0
 25 26  2  0
 26 27  1  0
 16 28  2  0
  6 29  1  0
 29 30  2  0
 30  3  1  0
 28 12  1  0
 26 21  1  0
  1 31  1  0
  1 32  1  0
  1 33  1  0
  4 34  1  0
  5 35  1  0
  7 36  1  0
  7 37  1  0
 11 38  1  0
 13 39  1  0
 14 40  1  0
 15 41  1  0
 22 42  1  0
 23 43  1  0
 24 44  1  0
 25 45  1  0
 28 46  1  0
 29 47  1  0
 30 48  1  0
M  CHG  2   8  -1  20  -1
M  END
>  <UniqueID>  (45) 
42

>  <SMILES>  (45) 
COc1ccc(C[N-]C(=O)Nc2cccc(S(=O)(=O)[N-]c3ccccc3Br)c2)cc1

>  <Energy>  (45) 
53.93856090916977

>  <Genealogy>  (45) 
COc1ccc(C[N-]C(=O)Nc2cccc(S(=O)(=O)[N-]c3ccccc3Br)c2)cc1 (protonated)
COc1ccc(C[N-]C(=O)Nc2cccc(S(=O)(=O)[N-]c3ccccc3Br)c2)cc1 (3D coordinates assigned)
COc1ccc(C[N-]C(=O)Nc2cccc(S(=O)(=O)[N-]c3ccccc3Br)c2)cc1 (optimized conformer: 53.93856090916977 kcal/mol)

>  <smiles>  (45) 
COc1ccc(CNC(=O)Nc2cccc(S(=O)(=O)Nc3ccccc3Br)c2)cc1

>  <score_type>  (45) 
oracle

>  <origin>  (45) 
adgpu

>  <m_score__min__energy>  (45) 
-10.68

>  <m_primary>  (45) 
energy

$$$$
45:0
     RDKit          3D

 22 23  0  0  0  0  0  0  0  0999 V2000
    0.8770   17.6830  -27.1550 O   0  0  0  0  0  0  0  0  0  0  0  0
    0.2150   18.8070  -27.6350 C   0  0  0  0  0  0  0  0  0  0  0  0
   -1.1600   18.9470  -27.4240 C   0  0  0  0  0  0  0  0  0  0  0  0
   -1.8330   20.0750  -27.9030 C   0  0  0  0  0  0  0  0  0  0  0  0
   -1.1360   21.0770  -28.6030 C   0  0  0  0  0  0  0  0  0  0  0  0
   -1.8490   22.2760  -29.1140 C   0  0  0  0  0  0  0  0  0  0  0  0
   -2.9950   22.1370  -29.9190 C   0  0  0  0  0  0  0  0  0  0  0  0
   -3.6660   23.2660  -30.3980 C   0  0  0  0  0  0  0  0  0  0  0  0
   -3.2020   24.5460  -30.0820 C   0  0  0  0  0  0  0  0  0  0  0  0
   -3.8750   25.6650  -30.5620 O   0  0  0  0  0  0  0  0  0  0  0  0
   -2.0630   24.6990  -29.2840 C   0  0  0  0  0  0  0  0  0  0  0  0
   -1.5950   25.9690  -28.9690 O   0  0  0  0  0  0  0  0  0  0  0  0
   -1.3910   23.5700  -28.8020 C   0  0  0  0  0  0  0  0  0  0  0  0
    0.2480   20.9260  -28.8110 C   0  0  0  0  0  0  0  0  0  0  0  0
    0.9180   19.7970  -28.3290 C   0  0  0  0  0  0  0  0  0  0  0  0
    2.2860   19.6630  -28.5390 O   0  0  0  0  0  0  0  0  0  0  0  0
   -1.7137   18.1677  -26.8798 H   0  0  0  0  0  0  0  0  0  0  0  0
   -2.9145   20.1798  -27.7315 H   0  0  0  0  0  0  0  0  0  0  0  0
   -3.3654   21.1329  -30.1731 H   0  0  0  0  0  0  0  0  0  0  0  0
   -4.5617   23.1467  -31.0253 H   0  0  0  0  0  0  0  0  0  0  0  0
   -0.4968   23.6949  -28.1736 H   0  0  0  0  0  0  0  0  0  0  0  0
    0.8063   21.7012  -29.3563 H   0  0  0  0  0  0  0  0  0  0  0  0
  1  2  1  0
  2  3  2  0
  3  4  1  0
  4  5  2  0
  5  6  1  0
  6  7  2  0
  7  8  1  0
  8  9  2  0
  9 10  1  0
  9 11  1  0
 11 12  1  0
 11 13  2  0
  5 14  1  0
 14 15  2  0
 15 16  1  0
 15  2  1  0
 13  6  1  0
  3 17  1  0
  4 18  1  0
  7 19  1  0
  8 20  1  0
 13 21  1  0
 14 22  1  0
M  CHG  4   1  -1  10  -1  12  -1  16  -1
M  END
>  <UniqueID>  (46) 
43

>  <SMILES>  (46) 
[O-]c1ccc(-c2ccc([O-])c([O-])c2)cc1[O-]

>  <Energy>  (46) 
29.060588748480615

>  <Genealogy>  (46) 
[O-]c1ccc(-c2ccc([O-])c([O-])c2)cc1[O-] (protonated)
[O-]c1ccc(-c2ccc([O-])c([O-])c2)cc1[O-] (3D coordinates assigned)
[O-]c1ccc(-c2ccc([O-])c([O-])c2)cc1[O-] (optimized conformer: 29.060588748480615 kcal/mol)

>  <smiles>  (46) 
Oc1ccc(-c2ccc(O)c(O)c2)cc1O

>  <score_type>  (46) 
oracle

>  <origin>  (46) 
adgpu

>  <m_score__min__energy>  (46) 
-11.44

>  <m_primary>  (46) 
energy

$$$$
46:0
     RDKit          3D

 52 54  0  0  0  0  0  0  0  0999 V2000
   -0.8280   26.7880  -27.9140 C   0  0  0  0  0  0  0  0  0  0  0  0
   -1.3540   26.0000  -28.9780 O   0  0  0  0  0  0  0  0  0  0  0  0
   -1.5130   24.6090  -28.9260 C   0  0  0  0  0  0  0  0  0  0  0  0
   -0.6890   23.7950  -28.1190 C   0  0  0  0  0  0  0  0  0  0  0  0
   -0.8540   22.4070  -28.1160 C   0  0  0  0  0  0  0  0  0  0  0  0
   -1.8200   21.8160  -28.9310 C   0  0  0  0  0  0  0  0  0  0  0  0
   -2.6530   22.6130  -29.7200 C   0  0  0  0  0  0  0  0  0  0  0  0
   -2.5200   24.0080  -29.7090 C   0  0  0  0  0  0  0  0  0  0  0  0
   -3.4230   24.7920  -30.4980 N   0  0  0  0  0  0  0  0  0  0  0  0
   -5.0850   25.0080  -30.0530 S   0  0  0  0  0  0  0  0  0  0  0  0
   -5.2550   24.8600  -28.5660 O   0  0  0  0  0  0  0  0  0  0  0  0
   -5.5210   26.3930  -30.4450 O   0  0  0  0  0  0  0  0  0  0  0  0
   -6.0770   23.8240  -30.8980 C   0  0  0  0  0  0  0  0  0  0  0  0
   -7.4700   23.9560  -30.9380 C   0  0  0  0  0  0  0  0  0  0  0  0
   -8.2400   23.0420  -31.6620 C   0  0  0  0  0  0  0  0  0  0  0  0
   -7.6250   22.0030  -32.3650 C   0  0  0  0  0  0  0  0  0  0  0  0
   -6.2240   21.8680  -32.3520 C   0  0  0  0  0  0  0  0  0  0  0  0
   -5.5750   20.8180  -33.1750 C   0  0  0  0  0  0  0  0  0  0  0  0
   -4.3200   20.7980  -33.2810 O   0  0  0  0  0  0  0  0  0  0  0  0
   -6.3500   19.8130  -33.8510 N   0  0  0  0  0  0  0  0  0  0  0  0
   -5.9460   18.4370  -33.9670 C   0  0  0  0  0  0  0  0  0  0  0  0
   -6.7880   17.4330  -33.4710 C   0  0  0  0  0  0  0  0  0  0  0  0
   -6.4180   16.0890  -33.5610 C   0  0  0  0  0  0  0  0  0  0  0  0
   -5.1920   15.7230  -34.1510 C   0  0  0  0  0  0  0  0  0  0  0  0
   -4.7930   14.3830  -34.2740 O   0  0  0  0  0  0  0  0  0  0  0  0
   -4.2530   13.6020  -33.2130 C   0  0  0  0  0  0  0  0  0  0  0  0
   -4.3320   16.7200  -34.6340 C   0  0  0  0  0  0  0  0  0  0  0  0
   -3.1170   16.3240  -35.2200 O   0  0  0  0  0  0  0  0  0  0  0  0
   -1.8420   16.8520  -34.8670 C   0  0  0  0  0  0  0  0  0  0  0  0
   -4.7050   18.0760  -34.5240 C   0  0  0  0  0  0  0  0  0  0  0  0
   -5.4640   22.7780  -31.5940 C   0  0  0  0  0  0  0  0  0  0  0  0
   -1.1226   26.3466  -26.9505 H   0  0  0  0  0  0  0  0  0  0  0  0
    0.2694   26.8143  -27.9850 H   0  0  0  0  0  0  0  0  0  0  0  0
   -1.2246   27.8115  -27.9850 H   0  0  0  0  0  0  0  0  0  0  0  0
    0.0867   24.2553  -27.4894 H   0  0  0  0  0  0  0  0  0  0  0  0
   -0.2216   21.7799  -27.4704 H   0  0  0  0  0  0  0  0  0  0  0  0
   -1.9258   20.7213  -28.9523 H   0  0  0  0  0  0  0  0  0  0  0  0
   -3.4186   22.1423  -30.3543 H   0  0  0  0  0  0  0  0  0  0  0  0
   -7.9592   24.7805  -30.3987 H   0  0  0  0  0  0  0  0  0  0  0  0
   -9.3354   23.1410  -31.6785 H   0  0  0  0  0  0  0  0  0  0  0  0
   -8.2386   21.2870  -32.9314 H   0  0  0  0  0  0  0  0  0  0  0  0
   -7.2270   20.0980  -34.3330 H   0  0  0  0  0  0  0  0  0  0  0  0
   -7.7476   17.7051  -33.0072 H   0  0  0  0  0  0  0  0  0  0  0  0
   -7.0888   15.3106  -33.1683 H   0  0  0  0  0  0  0  0  0  0  0  0
   -4.5535   14.0365  -32.2482 H   0  0  0  0  0  0  0  0  0  0  0  0
   -4.6329   12.5723  -33.2856 H   0  0  0  0  0  0  0  0  0  0  0  0
   -3.1554   13.5938  -33.2856 H   0  0  0  0  0  0  0  0  0  0  0  0
   -1.7513   16.8896  -33.7714 H   0  0  0  0  0  0  0  0  0  0  0  0
   -1.0514   16.2073  -35.2785 H   0  0  0  0  0  0  0  0  0  0  0  0
   -1.7387   17.8669  -35.2785 H   0  0  0  0  0  0  0  0  0  0  0  0
   -4.0186   18.8596  -34.8773 H   0  0  0  0  0  0  0  0  0  0  0  0
   -4.3708   22.6645  -31.5484 H   0  0  0  0  0  0  0  0  0  0  0  0
  1  2  1  0
  2  3  1  0
  3  4  2  0
  4  5  1  0
  5  6  2  0
  6  7  1  0
  7  8  2  0
  8  9  1  0
  9 10  1  0
 10 11  2  0
 10 12  2  0
 10 13  1  0
 13 14  2  0
 14 15  1  0
 15 16  2  0
 16 17  1  0
 17 18  1  0
 18 19  2  0
 18 20  1  0
 20 21  1  0
 21 22  2  0
 22 23  1  0
 23 24  2  0
 24 25  1  0
 25 26  1  0
 24 27  1  0
 27 28  1  0
 28 29  1  0
 27 30  2  0
 17 31  2  0
  8  3  1  0
 31 13  1  0
 30 21  1  0
  1 32  1  0
  1 33  1  0
  1 34  1  0
  4 35  1  0
  5 36  1  0
  6 37  1  0
  7 38  1  0
 14 39  1  0
 15 40  1  0
 16 41  1  0
 20 42  1  0
 22 43  1  0
 23 44  1  0
 26 45  1  0
 26 46  1  0
 26 47  1  0
 29 48  1  0
 29 49  1  0
 29 50  1  0
 30 51  1  0
 31 52  1  0
M  CHG  1   9  -1
M  END
>  <UniqueID>  (47) 
44

>  <SMILES>  (47) 
COc1ccccc1[N-]S(=O)(=O)c1cccc(C(=O)Nc2ccc(OC)c(OC)c2)c1

>  <Energy>  (47) 
65.96573681361225

>  <Genealogy>  (47) 
COc1ccccc1[N-]S(=O)(=O)c1cccc(C(=O)Nc2ccc(OC)c(OC)c2)c1 (protonated)
COc1ccccc1[N-]S(=O)(=O)c1cccc(C(=O)Nc2ccc(OC)c(OC)c2)c1 (3D coordinates assigned)
COc1ccccc1[N-]S(=O)(=O)c1cccc(C(=O)Nc2ccc(OC)c(OC)c2)c1 (optimized conformer: 65.96573681361225 kcal/mol)

>  <smiles>  (47) 
COc1ccccc1NS(=O)(=O)c1cccc(C(=O)Nc2ccc(OC)c(OC)c2)c1

>  <score_type>  (47) 
oracle

>  <origin>  (47) 
adgpu

>  <m_score__min__energy>  (47) 
-10.99

>  <m_primary>  (47) 
energy

$$$$
47:0
     RDKit          3D

 66 71  0  0  1  0  0  0  0  0999 V2000
   -0.8210   30.7580  -37.3740 C   0  0  0  0  0  0  0  0  0  0  0  0
    0.2600   30.2130  -36.5030 C   0  0  0  0  0  0  0  0  0  0  0  0
    0.6470   30.8610  -35.3260 C   0  0  0  0  0  0  0  0  0  0  0  0
    1.6650   30.3330  -34.5240 C   0  0  0  0  0  0  0  0  0  0  0  0
    2.2960   29.1560  -34.8990 C   0  0  0  0  0  0  0  0  0  0  0  0
    1.9050   28.5090  -36.0780 C   0  0  0  0  0  0  0  0  0  0  0  0
    2.5880   27.3070  -36.4130 N   0  0  0  0  0  0  0  0  0  0  0  0
    1.9560   26.0870  -35.9810 C   0  0  0  0  0  0  0  0  0  0  0  0
    0.8820   26.2120  -35.3660 O   0  0  0  0  0  0  0  0  0  0  0  0
    2.5570   24.8520  -36.2640 N   0  0  0  0  0  0  0  0  0  0  0  0
    2.0620   23.5780  -35.9090 C   0  0  0  0  0  0  0  0  0  0  0  0
    0.7650   23.1600  -36.0790 C   0  0  0  0  0  0  0  0  0  0  0  0
    0.3350   21.8830  -35.6980 C   0  0  0  0  0  0  0  0  0  0  0  0
    1.2250   21.0010  -35.1320 C   0  0  0  0  0  0  0  0  0  0  0  0
    0.8220   19.6760  -34.7190 N   0  0  0  0  0  0  0  0  0  0  0  0
    1.6310   19.1070  -33.6550 C   0  0  0  0  0  0  0  0  0  0  0  0
    1.2320   17.7370  -33.4000 N   0  0  0  0  0  0  0  0  0  0  0  0
   -0.1580   17.4570  -33.4210 C   0  0  0  0  0  0  0  0  0  0  0  0
   -0.8910   18.0610  -34.4190 C   0  0  0  0  0  0  0  0  0  0  0  0
   -2.2210   17.7450  -34.5170 N   0  0  0  0  0  0  0  0  0  0  0  0
   -2.7730   16.8730  -33.6600 C   0  0  0  0  0  0  0  0  0  0  0  0
   -4.1930   16.5430  -33.7870 C   0  0  0  0  0  0  0  0  0  0  0  0
   -5.2580   17.4050  -34.1070 C   0  0  0  0  0  0  0  0  0  0  0  0
   -6.4780   16.9050  -34.1820 C   0  0  0  0  0  0  0  0  0  0  0  0
   -6.6990   15.5770  -33.9520 C   0  0  0  0  0  0  0  0  0  0  0  0
   -4.9500   14.9770  -33.5870 S   0  0  0  0  0  0  0  0  0  0  0  0
   -2.0670   16.2790  -32.6790 N   0  0  0  0  0  0  0  0  0  0  0  0
   -0.7460   16.5780  -32.5610 C   0  0  0  0  0  0  0  0  0  0  0  0
   -0.1340   16.0940  -31.5810 N   0  0  0  0  0  0  0  0  0  0  0  0
    1.1650   16.3090  -31.1540 C   0  0  0  0  0  0  0  0  0  0  0  0
    2.2350   15.4260  -31.4160 C   0  0  0  0  0  0  0  0  0  0  0  0
    1.9260   14.0080  -32.3980 Cl  0  0  0  0  0  0  0  0  0  0  0  0
    3.4710   15.7200  -30.8890 C   0  0  0  0  0  0  0  0  0  0  0  0
    3.6990   16.8510  -30.1140 C   0  0  0  0  0  0  0  0  0  0  0  0
    2.6430   17.7330  -29.8490 C   0  0  0  0  0  0  0  0  0  0  0  0
    1.3980   17.4530  -30.3670 C   0  0  0  0  0  0  0  0  0  0  0  0
   -0.0830   18.6240  -29.9690 Br  0  0  0  0  0  0  0  0  0  0  0  0
   -0.2840   19.0370  -35.3550 C   0  0  0  0  0  0  0  0  0  0  0  0
    2.5250   21.4070  -34.9570 C   0  0  0  0  0  0  0  0  0  0  0  0
    2.9300   22.6690  -35.3380 C   0  0  0  0  0  0  0  0  0  0  0  0
    0.9010   29.0380  -36.8610 C   0  0  0  0  0  0  0  0  0  0  0  0
   -1.6276   31.1647  -36.7463 H   0  0  0  0  0  0  0  0  0  0  0  0
   -0.4120   31.5576  -38.0091 H   0  0  0  0  0  0  0  0  0  0  0  0
   -1.2207   29.9537  -38.0091 H   0  0  0  0  0  0  0  0  0  0  0  0
    0.1468   31.7942  -35.0278 H   0  0  0  0  0  0  0  0  0  0  0  0
    1.9637   30.8493  -33.5998 H   0  0  0  0  0  0  0  0  0  0  0  0
    3.0975   28.7339  -34.2750 H   0  0  0  0  0  0  0  0  0  0  0  0
    3.4880   27.3060  -36.9350 H   0  0  0  0  0  0  0  0  0  0  0  0
    3.4740   24.8940  -36.7980 H   0  0  0  0  0  0  0  0  0  0  0  0
    0.0388   23.8522  -36.5300 H   0  0  0  0  0  0  0  0  0  0  0  0
   -0.7130   21.5860  -35.8513 H   0  0  0  0  0  0  0  0  0  0  0  0
    2.6897   19.1275  -33.9530 H   0  0  0  0  0  0  0  0  0  0  0  0
    1.4868   19.6989  -32.7391 H   0  0  0  0  0  0  0  0  0  0  0  0
    1.9060   16.9800  -33.2440 H   0  0  0  0  0  0  0  0  0  0  0  0
   -5.0780   18.4744  -34.2911 H   0  0  0  0  0  0  0  0  0  0  0  0
   -7.3230   17.5634  -34.4317 H   0  0  0  0  0  0  0  0  0  0  0  0
   -7.6420   15.0111  -33.9739 H   0  0  0  0  0  0  0  0  0  0  0  0
   -2.5340   15.6080  -32.0340 H   0  0  0  0  0  0  0  0  0  0  0  0
    4.3089   15.0356  -31.0880 H   0  0  0  0  0  0  0  0  0  0  0  0
    4.7025   17.0525  -29.7111 H   0  0  0  0  0  0  0  0  0  0  0  0
    2.8055   18.6332  -29.2380 H   0  0  0  0  0  0  0  0  0  0  0  0
    0.0638   18.5131  -36.2575 H   0  0  0  0  0  0  0  0  0  0  0  0
   -1.0330   19.7917  -35.6370 H   0  0  0  0  0  0  0  0  0  0  0  0
    3.2532   20.7163  -34.5068 H   0  0  0  0  0  0  0  0  0  0  0  0
    3.9790   22.9609  -35.1818 H   0  0  0  0  0  0  0  0  0  0  0  0
    0.6042   28.5191  -37.7844 H   0  0  0  0  0  0  0  0  0  0  0  0
  1  2  1  0
  2  3  2  0
  3  4  1  0
  4  5  2  0
  5  6  1  0
  6  7  1  0
  7  8  1  0
  8  9  2  0
  8 10  1  0
 10 11  1  0
 11 12  2  0
 12 13  1  0
 13 14  2  0
 14 15  1  0
 15 16  1  0
 16 17  1  0
 17 18  1  0
 18 19  2  0
 19 20  1  0
 20 21  2  0
 21 22  1  0
 22 23  2  0
 23 24  1  0
 24 25  2  0
 25 26  1  0
 21 27  1  0
 27 28  1  0
 28 29  2  0
 29 30  1  0
 30 31  2  0
 31 32  1  0
 31 33  1  0
 33 34  2  0
 34 35  1  0
 35 36  2  0
 36 37  1  0
 19 38  1  0
 14 39  1  0
 39 40  2  0
  6 41  2  0
 41  2  1  0
 40 11  1  0
 38 15  1  0
 28 18  1  0
 36 30  1  0
 26 22  1  0
  1 42  1  0
  1 43  1  0
  1 44  1  0
  3 45  1  0
  4 46  1  0
  5 47  1  0
  7 48  1  0
 10 49  1  0
 12 50  1  0
 13 51  1  0
 16 52  1  0
 16 53  1  0
 17 54  1  0
 23 55  1  0
 24 56  1  0
 25 57  1  0
 27 58  1  0
 33 59  1  0
 34 60  1  0
 35 61  1  0
 38 62  1  0
 38 63  1  0
 39 64  1  0
 40 65  1  0
 41 66  1  0
M  END
>  <smiles>  (48) 
Cc1cccc(NC(=O)Nc2ccc(N3CNc4c(nc(-c5cccs5)[nH]c4=Nc4c(Cl)cccc4Br)C3)cc2)c1

>  <score_type>  (48) 
oracle

>  <origin>  (48) 
adgpu

>  <m_score__min__energy>  (48) 
-10.82

>  <m_primary>  (48) 
energy

$$$$
48:0
     RDKit          3D

 46 49  0  0  0  0  0  0  0  0999 V2000
   -1.6066   21.7479  -31.2486 H   0  0  0  0  0  0  0  0  0  0  0  0
   -1.6390   22.5410  -30.4870 C   0  0  0  0  0  0  0  0  0  0  0  0
   -0.5060   22.8880  -29.8220 N   0  0  0  0  0  0  0  0  0  0  0  0
   -0.4970   23.8610  -28.8690 C   0  0  0  0  0  0  0  0  0  0  0  0
    0.6840   24.2010  -28.2020 O   0  0  0  0  0  0  0  0  0  0  0  0
    0.7320   24.4630  -26.8050 C   0  0  0  0  0  0  0  0  0  0  0  0
    0.5608   23.5285  -26.2506 H   0  0  0  0  0  0  0  0  0  0  0  0
    1.7196   24.8697  -26.5419 H   0  0  0  0  0  0  0  0  0  0  0  0
   -0.0473   25.1934  -26.5419 H   0  0  0  0  0  0  0  0  0  0  0  0
   -1.6820   24.5290  -28.5530 C   0  0  0  0  0  0  0  0  0  0  0  0
   -1.6863   25.3160  -27.7845 H   0  0  0  0  0  0  0  0  0  0  0  0
   -2.8600   24.1910  -29.2190 C   0  0  0  0  0  0  0  0  0  0  0  0
   -3.7982   24.7089  -28.9708 H   0  0  0  0  0  0  0  0  0  0  0  0
   -2.8520   23.1920  -30.2050 C   0  0  0  0  0  0  0  0  0  0  0  0
   -4.1010   22.8200  -30.9130 C   0  0  0  0  0  0  0  0  0  0  0  0
   -4.3300   21.4720  -31.2420 C   0  0  0  0  0  0  0  0  0  0  0  0
   -3.5870   20.7108  -30.9618 H   0  0  0  0  0  0  0  0  0  0  0  0
   -5.4940   21.0860  -31.9230 C   0  0  0  0  0  0  0  0  0  0  0  0
   -5.7280   19.6710  -32.2730 C   0  0  0  0  0  0  0  0  0  0  0  0
   -6.6410   18.8760  -31.6720 N   0  0  0  0  0  0  0  0  0  0  0  0
   -6.5390   17.6990  -32.2640 N   0  0  0  0  0  0  0  0  0  0  0  0
   -7.1460   16.8780  -32.0480 H   0  0  0  0  0  0  0  0  0  0  0  0
   -5.5760   17.8120  -33.1980 C   0  0  0  0  0  0  0  0  0  0  0  0
   -5.1950   16.8720  -34.0130 N   0  0  0  0  0  0  0  0  0  0  0  0
   -5.6390   15.5070  -33.9980 C   0  0  0  0  0  0  0  0  0  0  0  0
   -6.8670   15.1280  -34.5690 C   0  0  0  0  0  0  0  0  0  0  0  0
   -7.4917   15.8791  -35.0746 H   0  0  0  0  0  0  0  0  0  0  0  0
   -7.2960   13.8000  -34.4960 C   0  0  0  0  0  0  0  0  0  0  0  0
   -8.2487   13.5045  -34.9598 H   0  0  0  0  0  0  0  0  0  0  0  0
   -6.5170   12.8470  -33.8350 C   0  0  0  0  0  0  0  0  0  0  0  0
   -6.8518   11.8003  -33.7871 H   0  0  0  0  0  0  0  0  0  0  0  0
   -5.3110   13.2240  -33.2340 C   0  0  0  0  0  0  0  0  0  0  0  0
   -4.3440   12.0320  -32.3850 Cl  0  0  0  0  0  0  0  0  0  0  0  0
   -4.8800   14.5540  -33.3060 C   0  0  0  0  0  0  0  0  0  0  0  0
   -3.9409   14.8523  -32.8169 H   0  0  0  0  0  0  0  0  0  0  0  0
   -5.0750   19.0220  -33.2150 O   0  0  0  0  0  0  0  0  0  0  0  0
   -6.4380   22.0610  -32.2730 C   0  0  0  0  0  0  0  0  0  0  0  0
   -7.3520   21.7684  -32.8105 H   0  0  0  0  0  0  0  0  0  0  0  0
   -6.2260   23.4010  -31.9440 C   0  0  0  0  0  0  0  0  0  0  0  0
   -6.9750   24.1561  -32.2247 H   0  0  0  0  0  0  0  0  0  0  0  0
   -5.0620   23.7950  -31.2560 C   0  0  0  0  0  0  0  0  0  0  0  0
   -4.8430   25.1320  -30.8840 O   0  0  0  0  0  0  0  0  0  0  0  0
   -5.7350   25.9070  -30.0890 C   0  0  0  0  0  0  0  0  0  0  0  0
   -5.5276   25.7268  -29.0239 H   0  0  0  0  0  0  0  0  0  0  0  0
   -5.5941   26.9744  -30.3146 H   0  0  0  0  0  0  0  0  0  0  0  0
   -6.7722   25.6184  -30.3146 H   0  0  0  0  0  0  0  0  0  0  0  0
  1  2  1  0
  2  3  2  0
  3  4  1  0
  4  5  1  0
  5  6  1  0
  6  7  1  0
  6  8  1  0
  6  9  1  0
  4 10  2  0
 10 11  1  0
 10 12  1  0
 12 13  1  0
 12 14  2  0
 14 15  1  0
 15 16  2  0
 16 17  1  0
 16 18  1  0
 18 19  1  0
 19 20  2  0
 20 21  1  0
 21 22  1  0
 21 23  1  0
 23 24  2  0
 24 25  1  0
 25 26  2  0
 26 27  1  0
 26 28  1  0
 28 29  1  0
 28 30  2  0
 30 31  1  0
 30 32  1  0
 32 33  1  0
 32 34  2  0
 34 35  1  0
 23 36  1  0
 18 37  2  0
 37 38  1  0
 37 39  1  0
 39 40  1  0
 39 41  2  0
 41 42  1  0
 42 43  1  0
 43 44  1  0
 43 45  1  0
 43 46  1  0
 14  2  1  0
 41 15  1  0
 36 19  1  0
 34 25  1  0
M  END
>  <UniqueID>  (49) 
45

>  <SMILES>  (49) 
COc1ccc(-c2cc(-c3n[nH]/c(=N\c4cccc(Cl)c4)o3)ccc2OC)cn1

>  <Energy>  (49) 
98.63629921628058

>  <Genealogy>  (49) 
COc1ccc(-c2cc(-c3n[nH]/c(=N\c4cccc(Cl)c4)o3)ccc2OC)cn1 (cis-trans isomerization)
COc1ccc(-c2cc(-c3n[nH]/c(=N\c4cccc(Cl)c4)o3)ccc2OC)cn1 (3D coordinates assigned)
COc1ccc(-c2cc(-c3n[nH]/c(=N\c4cccc(Cl)c4)o3)ccc2OC)cn1 (optimized conformer: 98.63629921628058 kcal/mol)

>  <smiles>  (49) 
COc1ccc(-c2cc(-c3n[nH]c(=Nc4cccc(Cl)c4)o3)ccc2OC)cn1

>  <score_type>  (49) 
oracle

>  <origin>  (49) 
adgpu

>  <m_score__min__energy>  (49) 
-9.5199999999999996

>  <m_primary>  (49) 
energy

$$$$
49:0
     RDKit          3D

 50 52  0  0  0  0  0  0  0  0999 V2000
   -3.0550   19.1060  -26.4920 C   0  0  0  0  0  0  0  0  0  0  0  0
   -1.3550   18.9300  -27.1090 S   0  0  0  0  0  0  0  0  0  0  0  0
   -1.2580   20.6250  -27.6840 C   0  0  0  0  0  0  0  0  0  0  0  0
   -1.5940   21.6770  -26.8260 C   0  0  0  0  0  0  0  0  0  0  0  0
   -1.5250   23.0000  -27.2740 C   0  0  0  0  0  0  0  0  0  0  0  0
   -1.1300   23.2790  -28.5930 C   0  0  0  0  0  0  0  0  0  0  0  0
   -1.0330   24.6990  -29.0680 C   0  0  0  0  0  0  0  0  0  0  0  0
   -2.3600   25.3010  -29.0680 N   0  0  0  0  0  0  0  0  0  0  0  0
   -3.4870   24.7690  -29.7740 C   0  0  0  0  0  0  0  0  0  0  0  0
   -3.8380   25.3280  -30.8470 O   0  0  0  0  0  0  0  0  0  0  0  0
   -4.2880   23.6130  -29.2050 C   0  0  0  0  0  0  0  0  0  0  0  0
   -4.6490   22.5660  -30.1850 N   0  0  0  0  0  0  0  0  0  0  0  0
   -5.9660   22.7790  -30.8300 C   0  0  0  0  0  0  0  0  0  0  0  0
   -6.0620   22.1410  -32.2270 C   0  0  0  0  0  0  0  0  0  0  0  0
   -5.2950   20.8920  -32.2670 N   0  0  0  0  0  0  0  0  0  0  0  0
   -5.9400   19.6520  -32.6080 C   0  0  0  0  0  0  0  0  0  0  0  0
   -7.1450   19.2990  -31.9760 C   0  0  0  0  0  0  0  0  0  0  0  0
   -7.7810   18.0940  -32.2860 C   0  0  0  0  0  0  0  0  0  0  0  0
   -7.2170   17.2280  -33.2260 C   0  0  0  0  0  0  0  0  0  0  0  0
   -6.0220   17.5690  -33.8630 C   0  0  0  0  0  0  0  0  0  0  0  0
   -5.3800   18.7820  -33.5630 C   0  0  0  0  0  0  0  0  0  0  0  0
   -4.2030   19.1270  -34.2210 O   0  0  0  0  0  0  0  0  0  0  0  0
   -3.9000   20.8870  -31.8060 C   0  0  0  0  0  0  0  0  0  0  0  0
   -3.5530   22.2050  -31.1050 C   0  0  0  0  0  0  0  0  0  0  0  0
   -0.7830   22.2190  -29.4470 C   0  0  0  0  0  0  0  0  0  0  0  0
   -0.8530   20.8980  -28.9960 C   0  0  0  0  0  0  0  0  0  0  0  0
   -3.0478   19.1053  -25.3920 H   0  0  0  0  0  0  0  0  0  0  0  0
   -3.4807   20.0530  -26.8552 H   0  0  0  0  0  0  0  0  0  0  0  0
   -3.6657   18.2663  -26.8552 H   0  0  0  0  0  0  0  0  0  0  0  0
   -1.9136   21.4632  -25.7954 H   0  0  0  0  0  0  0  0  0  0  0  0
   -1.7807   23.8242  -26.5919 H   0  0  0  0  0  0  0  0  0  0  0  0
   -0.3725   25.2665  -28.3959 H   0  0  0  0  0  0  0  0  0  0  0  0
   -0.6209   24.7180  -30.0877 H   0  0  0  0  0  0  0  0  0  0  0  0
   -3.6929   23.1444  -28.4074 H   0  0  0  0  0  0  0  0  0  0  0  0
   -5.2357   24.0405  -28.8458 H   0  0  0  0  0  0  0  0  0  0  0  0
   -6.7450   22.3394  -30.1897 H   0  0  0  0  0  0  0  0  0  0  0  0
   -6.0998   23.8638  -30.9540 H   0  0  0  0  0  0  0  0  0  0  0  0
   -7.1162   21.9275  -32.4573 H   0  0  0  0  0  0  0  0  0  0  0  0
   -5.6493   22.8396  -32.9698 H   0  0  0  0  0  0  0  0  0  0  0  0
   -7.5904   19.9761  -31.2322 H   0  0  0  0  0  0  0  0  0  0  0  0
   -8.7258   17.8273  -31.7898 H   0  0  0  0  0  0  0  0  0  0  0  0
   -7.7147   16.2765  -33.4646 H   0  0  0  0  0  0  0  0  0  0  0  0
   -5.5814   16.8847  -34.6030 H   0  0  0  0  0  0  0  0  0  0  0  0
   -3.7840   20.0430  -34.1130 H   0  0  0  0  0  0  0  0  0  0  0  0
   -3.7563   20.0550  -31.1010 H   0  0  0  0  0  0  0  0  0  0  0  0
   -3.2410   20.7680  -32.6787 H   0  0  0  0  0  0  0  0  0  0  0  0
   -2.6192   22.0849  -30.5362 H   0  0  0  0  0  0  0  0  0  0  0  0
   -3.4213   22.9996  -31.8542 H   0  0  0  0  0  0  0  0  0  0  0  0
   -0.4546   22.4296  -30.4755 H   0  0  0  0  0  0  0  0  0  0  0  0
   -0.5895   20.0718  -29.6727 H   0  0  0  0  0  0  0  0  0  0  0  0
  1  2  1  0
  2  3  1  0
  3  4  2  0
  4  5  1  0
  5  6  2  0
  6  7  1  0
  7  8  1  0
  8  9  1  0
  9 10  2  0
  9 11  1  0
 11 12  1  0
 12 13  1  0
 13 14  1  0
 14 15  1  0
 15 16  1  0
 16 17  2  0
 17 18  1  0
 18 19  2  0
 19 20  1  0
 20 21  2  0
 21 22  1  0
 15 23  1  0
 23 24  1  0
  6 25  1  0
 25 26  2  0
 26  3  1  0
 24 12  1  0
 21 16  1  0
  1 27  1  0
  1 28  1  0
  1 29  1  0
  4 30  1  0
  5 31  1  0
  7 32  1  0
  7 33  1  0
 11 34  1  0
 11 35  1  0
 13 36  1  0
 13 37  1  0
 14 38  1  0
 14 39  1  0
 17 40  1  0
 18 41  1  0
 19 42  1  0
 20 43  1  0
 22 44  1  0
 23 45  1  0
 23 46  1  0
 24 47  1  0
 24 48  1  0
 25 49  1  0
 26 50  1  0
M  CHG  1   8  -1
M  END
>  <UniqueID>  (50) 
46

>  <SMILES>  (50) 
CSc1ccc(C[N-]C(=O)CN2CCN(c3ccccc3O)CC2)cc1

>  <Energy>  (50) 
59.6065069961927

>  <Genealogy>  (50) 
CSc1ccc(C[N-]C(=O)CN2CCN(c3ccccc3O)CC2)cc1 (protonated)
CSc1ccc(C[N-]C(=O)CN2CCN(c3ccccc3O)CC2)cc1 (3D coordinates assigned)
CSc1ccc(C[N-]C(=O)CN2CCN(c3ccccc3O)CC2)cc1 (nonaromatic ring conformer: 59.6065069961927 kcal/mol)

>  <smiles>  (50) 
CSc1ccc(CNC(=O)CN2CCN(c3ccccc3O)CC2)cc1

>  <score_type>  (50) 
oracle

>  <origin>  (50) 
adgpu

>  <m_score__min__energy>  (50) 
-10.050000000000001

>  <m_primary>  (50) 
energy

$$$$
