0:0
     RDKit          3D

 45 47  0  0  0  0  0  0  0  0999 V2000
   -3.4012   21.5870  -27.1523 H   0  0  0  0  0  0  0  0  0  0  0  0
   -3.4190   22.4640  -27.8160 C   0  0  0  0  0  0  0  0  0  0  0  0
   -2.2770   23.1500  -28.2090 C   0  0  0  0  0  0  0  0  0  0  0  0
   -0.6380   22.7570  -27.7370 Cl  0  0  0  0  0  0  0  0  0  0  0  0
   -2.7120   24.4230  -29.2170 S   0  0  0  0  0  0  0  0  0  0  0  0
   -4.3640   24.1100  -29.1550 C   0  0  0  0  0  0  0  0  0  0  0  0
   -5.5890   25.0340  -30.0000 S   0  0  0  0  0  0  0  0  0  0  0  0
   -6.1330   26.0910  -29.0810 O   0  0  0  0  0  0  0  0  0  0  0  0
   -4.9790   25.6760  -31.2150 O   0  0  0  0  0  0  0  0  0  0  0  0
   -6.8630   23.9660  -30.4940 N   0  0  0  0  0  0  0  0  0  0  0  0
   -6.6600   22.8050  -31.0400 C   0  0  0  0  0  0  0  0  0  0  0  0
   -5.3970   22.3520  -31.2670 N   0  0  0  0  0  0  0  0  0  0  0  0
   -5.1410   21.1380  -31.8280 C   0  0  0  0  0  0  0  0  0  0  0  0
   -3.7040   20.7770  -32.1070 C   0  0  0  0  0  0  0  0  0  0  0  0
   -3.4675   19.8264  -31.6065 H   0  0  0  0  0  0  0  0  0  0  0  0
   -3.5698   20.6815  -33.1946 H   0  0  0  0  0  0  0  0  0  0  0  0
   -2.7620   21.8610  -31.5920 C   0  0  0  0  0  0  0  0  0  0  0  0
   -2.7652   21.8573  -30.4920 H   0  0  0  0  0  0  0  0  0  0  0  0
   -1.7429   21.6645  -31.9563 H   0  0  0  0  0  0  0  0  0  0  0  0
   -3.0987   22.8428  -31.9563 H   0  0  0  0  0  0  0  0  0  0  0  0
   -6.2240   20.3100  -32.2100 C   0  0  0  0  0  0  0  0  0  0  0  0
   -6.0310   18.9870  -32.8380 C   0  0  0  0  0  0  0  0  0  0  0  0
   -6.1020   17.8180  -32.0680 C   0  0  0  0  0  0  0  0  0  0  0  0
   -6.2913   17.8846  -30.9865 H   0  0  0  0  0  0  0  0  0  0  0  0
   -5.9330   16.5680  -32.6700 C   0  0  0  0  0  0  0  0  0  0  0  0
   -5.9773   15.6570  -32.0551 H   0  0  0  0  0  0  0  0  0  0  0  0
   -5.7080   16.4640  -34.0470 C   0  0  0  0  0  0  0  0  0  0  0  0
   -5.5430   15.1820  -34.5960 O   0  0  0  0  0  0  0  0  0  0  0  0
   -6.1350   13.9820  -34.0990 C   0  0  0  0  0  0  0  0  0  0  0  0
   -6.3474   14.1019  -33.0264 H   0  0  0  0  0  0  0  0  0  0  0  0
   -5.4337   13.1499  -34.2595 H   0  0  0  0  0  0  0  0  0  0  0  0
   -7.4350   13.6750  -34.8350 C   0  0  0  0  0  0  0  0  0  0  0  0
   -8.2346   13.4862  -34.1036 H   0  0  0  0  0  0  0  0  0  0  0  0
   -7.7104   14.5328  -35.4661 H   0  0  0  0  0  0  0  0  0  0  0  0
   -7.2976   12.7846  -35.4661 H   0  0  0  0  0  0  0  0  0  0  0  0
   -5.6500   17.6390  -34.8220 C   0  0  0  0  0  0  0  0  0  0  0  0
   -5.4726   17.5721  -35.9055 H   0  0  0  0  0  0  0  0  0  0  0  0
   -5.8170   18.8900  -34.2200 C   0  0  0  0  0  0  0  0  0  0  0  0
   -5.7803   19.8022  -34.8337 H   0  0  0  0  0  0  0  0  0  0  0  0
   -7.5310   20.7720  -31.9970 C   0  0  0  0  0  0  0  0  0  0  0  0
   -8.3867   20.1494  -32.2971 H   0  0  0  0  0  0  0  0  0  0  0  0
   -7.7520   22.0160  -31.4070 C   0  0  0  0  0  0  0  0  0  0  0  0
   -8.7778   22.3727  -31.2322 H   0  0  0  0  0  0  0  0  0  0  0  0
   -4.5950   23.0030  -28.3510 C   0  0  0  0  0  0  0  0  0  0  0  0
   -5.5964   22.5923  -28.1547 H   0  0  0  0  0  0  0  0  0  0  0  0
  1  2  1  0
  2  3  2  0
  3  4  1  0
  3  5  1  0
  5  6  1  0
  6  7  1  0
  7  8  2  0
  7  9  2  0
  7 10  1  0
 10 11  2  0
 11 12  1  0
 12 13  1  0
 13 14  1  0
 14 15  1  0
 14 16  1  0
 14 17  1  0
 17 18  1  0
 17 19  1  0
 17 20  1  0
 13 21  2  0
 21 22  1  0
 22 23  2  0
 23 24  1  0
 23 25  1  0
 25 26  1  0
 25 27  2  0
 27 28  1  0
 28 29  1  0
 29 30  1  0
 29 31  1  0
 29 32  1  0
 32 33  1  0
 32 34  1  0
 32 35  1  0
 27 36  1  0
 36 37  1  0
 36 38  2  0
 38 39  1  0
 21 40  1  0
 40 41  1  0
 40 42  2  0
 42 43  1  0
  6 44  2  0
 44 45  1  0
 44  2  1  0
 42 11  1  0
 38 22  1  0
M  CHG  1  12  -1
M  END
>  <UniqueID>  (1) 
1

>  <SMILES>  (1) 
CCOc1ccc(-c2cc/c(=N/S(=O)(=O)c3ccc(Cl)s3)[n-]c2CC)cc1

>  <Energy>  (1) 
80.0165782000655

>  <Genealogy>  (1) 
CCOc1ccc(-c2ccc(=NS(=O)(=O)c3ccc(Cl)s3)[n-]c2CC)cc1 (protonated)
CCOc1ccc(-c2cc/c(=N/S(=O)(=O)c3ccc(Cl)s3)[n-]c2CC)cc1 (cis-trans isomerization)
CCOc1ccc(-c2cc/c(=N/S(=O)(=O)c3ccc(Cl)s3)[n-]c2CC)cc1 (3D coordinates assigned)
CCOc1ccc(-c2cc/c(=N/S(=O)(=O)c3ccc(Cl)s3)[n-]c2CC)cc1 (optimized conformer: 80.0165782000655 kcal/mol)

>  <smiles>  (1) 
CCOc1ccc(-c2ccc(=NS(=O)(=O)c3ccc(Cl)s3)[nH]c2CC)cc1

>  <score_type>  (1) 
oracle

>  <origin>  (1) 
adgpu

>  <m_score__min__energy>  (1) 
-9

>  <m_primary>  (1) 
energy

$$$$
1:0
     RDKit          3D

 28 30  0  0  0  0  0  0  0  0999 V2000
   -3.4930   21.2170  -32.4900 F   0  0  0  0  0  0  0  0  0  0  0  0
   -4.7810   21.1370  -32.0710 C   0  0  0  0  0  0  0  0  0  0  0  0
   -5.5730   20.0710  -32.5110 C   0  0  0  0  0  0  0  0  0  0  0  0
   -6.9200   19.9950  -32.1410 C   0  0  0  0  0  0  0  0  0  0  0  0
   -7.9070   18.6570  -32.6960 Cl  0  0  0  0  0  0  0  0  0  0  0  0
   -7.4800   20.9940  -31.3390 C   0  0  0  0  0  0  0  0  0  0  0  0
   -6.6940   22.0610  -30.8980 C   0  0  0  0  0  0  0  0  0  0  0  0
   -5.3340   22.1330  -31.2430 C   0  0  0  0  0  0  0  0  0  0  0  0
   -4.5220   23.2670  -30.7560 C   0  0  0  0  0  0  0  0  0  0  0  0
   -4.7850   24.5500  -31.0780 N   0  0  0  0  0  0  0  0  0  0  0  0
   -3.8720   25.2990  -30.4800 N   0  0  0  0  0  0  0  0  0  0  0  0
   -3.0630   24.4640  -29.8020 C   0  0  0  0  0  0  0  0  0  0  0  0
   -1.8580   24.9900  -28.8250 S   0  0  0  0  0  0  0  0  0  0  0  0
   -3.4420   23.1750  -29.9460 N   0  0  0  0  0  0  0  0  0  0  0  0
   -2.9250   22.0170  -29.2640 C   0  0  0  0  0  0  0  0  0  0  0  0
   -1.8700   21.2780  -29.8220 C   0  0  0  0  0  0  0  0  0  0  0  0
   -1.3580   20.1630  -29.1530 C   0  0  0  0  0  0  0  0  0  0  0  0
   -1.8960   19.7780  -27.9200 C   0  0  0  0  0  0  0  0  0  0  0  0
   -1.2530   18.3790  -27.0800 Cl  0  0  0  0  0  0  0  0  0  0  0  0
   -2.9480   20.5100  -27.3590 C   0  0  0  0  0  0  0  0  0  0  0  0
   -3.4610   21.6250  -28.0270 C   0  0  0  0  0  0  0  0  0  0  0  0
   -5.1351   19.2900  -33.1500 H   0  0  0  0  0  0  0  0  0  0  0  0
   -8.5413   20.9395  -31.0549 H   0  0  0  0  0  0  0  0  0  0  0  0
   -7.1427   22.8500  -30.2766 H   0  0  0  0  0  0  0  0  0  0  0  0
   -1.4441   21.5781  -30.7908 H   0  0  0  0  0  0  0  0  0  0  0  0
   -0.5316   19.5877  -29.5959 H   0  0  0  0  0  0  0  0  0  0  0  0
   -3.3721   20.2073  -26.3902 H   0  0  0  0  0  0  0  0  0  0  0  0
   -4.2880   22.1978  -27.5820 H   0  0  0  0  0  0  0  0  0  0  0  0
  1  2  1  0
  2  3  2  0
  3  4  1  0
  4  5  1  0
  4  6  2  0
  6  7  1  0
  7  8  2  0
  8  9  1  0
  9 10  2  0
 10 11  1  0
 11 12  1  0
 12 13  2  0
 12 14  1  0
 14 15  1  0
 15 16  2  0
 16 17  1  0
 17 18  2  0
 18 19  1  0
 18 20  1  0
 20 21  2  0
  8  2  1  0
 14  9  1  0
 21 15  1  0
  3 22  1  0
  6 23  1  0
  7 24  1  0
 16 25  1  0
 17 26  1  0
 20 27  1  0
 21 28  1  0
M  CHG  1  11  -1
M  END
>  <UniqueID>  (2) 
2

>  <SMILES>  (2) 
Fc1cc(Cl)ccc1-c1n[n-]c(=S)n1-c1ccc(Cl)cc1

>  <Energy>  (2) 
77.43391020175545

>  <Genealogy>  (2) 
Fc1cc(Cl)ccc1-c1n[n-]c(=S)n1-c1ccc(Cl)cc1 (protonated)
Fc1cc(Cl)ccc1-c1n[n-]c(=S)n1-c1ccc(Cl)cc1 (3D coordinates assigned)
Fc1cc(Cl)ccc1-c1n[n-]c(=S)n1-c1ccc(Cl)cc1 (optimized conformer: 77.43391020175545 kcal/mol)

>  <smiles>  (2) 
Fc1cc(Cl)ccc1-c1n[nH]c(=S)n1-c1ccc(Cl)cc1

>  <score_type>  (2) 
oracle

>  <origin>  (2) 
adgpu

>  <m_score__min__energy>  (2) 
-9.1300000000000008

>  <m_primary>  (2) 
energy

$$$$
2:0
     RDKit          3D

 26 27  0  0  0  0  0  0  0  0999 V2000
   -3.4930   25.2620  -30.5120 N   0  0  0  0  0  0  0  0  0  0  0  0
   -5.1270   24.7640  -30.2540 S   0  0  0  0  0  0  0  0  0  0  0  0
   -6.0590   25.7890  -30.8380 O   0  0  0  0  0  0  0  0  0  0  0  0
   -5.3930   24.6570  -28.7790 O   0  0  0  0  0  0  0  0  0  0  0  0
   -5.3950   23.2040  -31.0230 C   0  0  0  0  0  0  0  0  0  0  0  0
   -4.3100   22.3730  -31.3260 C   0  0  0  0  0  0  0  0  0  0  0  0
   -4.5190   21.1380  -31.9480 C   0  0  0  0  0  0  0  0  0  0  0  0
   -5.8200   20.7210  -32.2840 C   0  0  0  0  0  0  0  0  0  0  0  0
   -6.0470   19.4100  -32.9380 C   0  0  0  0  0  0  0  0  0  0  0  0
   -5.3600   19.0880  -34.1230 C   0  0  0  0  0  0  0  0  0  0  0  0
   -5.5700   17.8570  -34.7510 C   0  0  0  0  0  0  0  0  0  0  0  0
   -6.4630   16.9340  -34.2030 C   0  0  0  0  0  0  0  0  0  0  0  0
   -7.1470   17.2390  -33.0240 C   0  0  0  0  0  0  0  0  0  0  0  0
   -6.9420   18.4680  -32.3900 C   0  0  0  0  0  0  0  0  0  0  0  0
   -7.5910   18.7220  -31.2240 F   0  0  0  0  0  0  0  0  0  0  0  0
   -6.9050   21.5600  -31.9790 C   0  0  0  0  0  0  0  0  0  0  0  0
   -6.6930   22.7960  -31.3580 C   0  0  0  0  0  0  0  0  0  0  0  0
   -3.5180   26.0350  -31.2150 H   0  0  0  0  0  0  0  0  0  0  0  0
   -3.2882   22.6929  -31.0737 H   0  0  0  0  0  0  0  0  0  0  0  0
   -3.6609   20.4886  -32.1759 H   0  0  0  0  0  0  0  0  0  0  0  0
   -4.6530   19.8098  -34.5580 H   0  0  0  0  0  0  0  0  0  0  0  0
   -5.0307   17.6149  -35.6787 H   0  0  0  0  0  0  0  0  0  0  0  0
   -6.6278   15.9666  -34.6999 H   0  0  0  0  0  0  0  0  0  0  0  0
   -7.8491   16.5100  -32.5931 H   0  0  0  0  0  0  0  0  0  0  0  0
   -7.9280   21.2431  -32.2301 H   0  0  0  0  0  0  0  0  0  0  0  0
   -7.5484   23.4496  -31.1320 H   0  0  0  0  0  0  0  0  0  0  0  0
  1  2  1  0
  2  3  2  0
  2  4  2  0
  2  5  1  0
  5  6  2  0
  6  7  1  0
  7  8  2  0
  8  9  1  0
  9 10  2  0
 10 11  1  0
 11 12  2  0
 12 13  1  0
 13 14  2  0
 14 15  1  0
  8 16  1  0
 16 17  2  0
 17  5  1  0
 14  9  1  0
  1 18  1  0
  6 19  1  0
  7 20  1  0
 10 21  1  0
 11 22  1  0
 12 23  1  0
 13 24  1  0
 16 25  1  0
 17 26  1  0
M  CHG  1   1  -1
M  END
>  <UniqueID>  (3) 
3

>  <SMILES>  (3) 
[NH-]S(=O)(=O)c1ccc(-c2ccccc2F)cc1

>  <Energy>  (3) 
32.749781961876344

>  <Genealogy>  (3) 
[NH-]S(=O)(=O)c1ccc(-c2ccccc2F)cc1 (protonated)
[NH-]S(=O)(=O)c1ccc(-c2ccccc2F)cc1 (3D coordinates assigned)
[NH-]S(=O)(=O)c1ccc(-c2ccccc2F)cc1 (optimized conformer: 32.749781961876344 kcal/mol)

>  <smiles>  (3) 
NS(=O)(=O)c1ccc(-c2ccccc2F)cc1

>  <score_type>  (3) 
oracle

>  <origin>  (3) 
adgpu

>  <m_score__min__energy>  (3) 
-9.6300000000000008

>  <m_primary>  (3) 
energy

$$$$
3:0
     RDKit          3D

 30 32  0  0  0  0  0  0  0  0999 V2000
   -9.1320   20.7310  -32.2660 C   0  0  0  0  0  0  0  0  0  0  0  0
   -7.8370   21.4080  -31.9140 C   0  0  0  0  0  0  0  0  0  0  0  0
   -7.8900   22.6510  -31.3680 N   0  0  0  0  0  0  0  0  0  0  0  0
   -6.7670   23.3230  -31.0180 C   0  0  0  0  0  0  0  0  0  0  0  0
   -6.8630   24.6010  -30.4560 C   0  0  0  0  0  0  0  0  0  0  0  0
   -5.7050   25.2940  -30.0920 C   0  0  0  0  0  0  0  0  0  0  0  0
   -4.4490   24.7130  -30.2890 C   0  0  0  0  0  0  0  0  0  0  0  0
   -4.3450   23.4360  -30.8500 C   0  0  0  0  0  0  0  0  0  0  0  0
   -5.5070   22.7300  -31.2190 C   0  0  0  0  0  0  0  0  0  0  0  0
   -5.4590   21.4470  -31.7880 C   0  0  0  0  0  0  0  0  0  0  0  0
   -4.3430   20.8880  -31.9890 O   0  0  0  0  0  0  0  0  0  0  0  0
   -6.6220   20.8040  -32.1320 N   0  0  0  0  0  0  0  0  0  0  0  0
   -6.5540   19.4910  -32.7200 C   0  0  0  0  0  0  0  0  0  0  0  0
   -6.9260   18.3650  -31.9730 C   0  0  0  0  0  0  0  0  0  0  0  0
   -6.8580   17.0890  -32.5430 C   0  0  0  0  0  0  0  0  0  0  0  0
   -6.4130   16.9340  -33.8600 C   0  0  0  0  0  0  0  0  0  0  0  0
   -6.0350   18.0550  -34.6080 C   0  0  0  0  0  0  0  0  0  0  0  0
   -6.1030   19.3300  -34.0390 C   0  0  0  0  0  0  0  0  0  0  0  0
   -9.6631   20.4533  -31.3436 H   0  0  0  0  0  0  0  0  0  0  0  0
   -9.7564   21.4181  -32.8560 H   0  0  0  0  0  0  0  0  0  0  0  0
   -8.9242   19.8262  -32.8560 H   0  0  0  0  0  0  0  0  0  0  0  0
   -7.8503   25.0604  -30.3006 H   0  0  0  0  0  0  0  0  0  0  0  0
   -5.7822   26.2982  -29.6498 H   0  0  0  0  0  0  0  0  0  0  0  0
   -3.5398   25.2617  -30.0020 H   0  0  0  0  0  0  0  0  0  0  0  0
   -3.3547   22.9824  -31.0033 H   0  0  0  0  0  0  0  0  0  0  0  0
   -7.2723   18.4847  -30.9358 H   0  0  0  0  0  0  0  0  0  0  0  0
   -7.1545   16.2077  -31.9554 H   0  0  0  0  0  0  0  0  0  0  0  0
   -6.3601   15.9308  -34.3080 H   0  0  0  0  0  0  0  0  0  0  0  0
   -5.6845   17.9327  -35.6435 H   0  0  0  0  0  0  0  0  0  0  0  0
   -5.8021   20.2097  -34.6269 H   0  0  0  0  0  0  0  0  0  0  0  0
  1  2  1  0
  2  3  2  0
  3  4  1  0
  4  5  2  0
  5  6  1  0
  6  7  2  0
  7  8  1  0
  8  9  2  0
  9 10  1  0
 10 11  2  0
 10 12  1  0
 12 13  1  0
 13 14  2  0
 14 15  1  0
 15 16  2  0
 16 17  1  0
 17 18  2  0
 12  2  1  0
 18 13  1  0
  9  4  1  0
  1 19  1  0
  1 20  1  0
  1 21  1  0
  5 22  1  0
  6 23  1  0
  7 24  1  0
  8 25  1  0
 14 26  1  0
 15 27  1  0
 16 28  1  0
 17 29  1  0
 18 30  1  0
M  END
>  <UniqueID>  (4) 
4

>  <SMILES>  (4) 
Cc1nc2ccccc2c(=O)n1-c1ccccc1

>  <Energy>  (4) 
46.547082393773614

>  <Genealogy>  (4) 
Cc1nc2ccccc2c(=O)n1-c1ccccc1 (3D coordinates assigned)
Cc1nc2ccccc2c(=O)n1-c1ccccc1 (optimized conformer: 46.547082393773614 kcal/mol)

>  <smiles>  (4) 
Cc1nc2ccccc2c(=O)n1-c1ccccc1

>  <score_type>  (4) 
oracle

>  <origin>  (4) 
adgpu

>  <m_score__min__energy>  (4) 
-7.4100000000000001

>  <m_primary>  (4) 
energy

$$$$
4:0
     RDKit          3D

 43 45  0  0  0  0  0  0  0  0999 V2000
   -9.1120   18.5100  -31.6160 C   0  0  0  0  0  0  0  0  0  0  0  0
   -9.4650   19.7270  -32.4800 C   0  0  0  0  0  0  0  0  0  0  0  0
   -8.6270   20.9150  -32.1760 N   0  0  0  0  0  0  0  0  0  0  0  0
   -9.3800   22.0360  -31.5450 C   0  0  0  0  0  0  0  0  0  0  0  0
   -9.3600   23.3570  -32.3310 C   0  0  0  0  0  0  0  0  0  0  0  0
   -7.4390   20.5070  -31.3820 C   0  0  0  0  0  0  0  0  0  0  0  0
   -6.1790   20.4350  -32.2220 C   0  0  0  0  0  0  0  0  0  0  0  0
   -5.1520   21.3800  -32.2850 C   0  0  0  0  0  0  0  0  0  0  0  0
   -5.1140   22.7010  -31.6300 C   0  0  0  0  0  0  0  0  0  0  0  0
   -4.0070   23.0520  -30.8400 C   0  0  0  0  0  0  0  0  0  0  0  0
   -3.9590   24.2980  -30.2070 C   0  0  0  0  0  0  0  0  0  0  0  0
   -5.0090   25.2060  -30.3690 C   0  0  0  0  0  0  0  0  0  0  0  0
   -6.1020   24.8740  -31.1720 C   0  0  0  0  0  0  0  0  0  0  0  0
   -6.1540   23.6280  -31.8060 C   0  0  0  0  0  0  0  0  0  0  0  0
   -4.1080   20.8840  -32.9890 N   0  0  0  0  0  0  0  0  0  0  0  0
   -4.5250   19.6570  -33.3540 C   0  0  0  0  0  0  0  0  0  0  0  0
   -3.7820   18.7400  -34.0950 C   0  0  0  0  0  0  0  0  0  0  0  0
   -4.3620   17.4910  -34.3610 C   0  0  0  0  0  0  0  0  0  0  0  0
   -5.6520   17.1910  -33.8830 C   0  0  0  0  0  0  0  0  0  0  0  0
   -6.3740   15.6270  -34.2110 Cl  0  0  0  0  0  0  0  0  0  0  0  0
   -6.3540   18.1520  -33.1400 C   0  0  0  0  0  0  0  0  0  0  0  0
   -5.7580   19.3530  -32.9080 N   0  0  0  0  0  0  0  0  0  0  0  0
   -9.1904   18.7802  -30.5526 H   0  0  0  0  0  0  0  0  0  0  0  0
   -9.8088   17.6883  -31.8379 H   0  0  0  0  0  0  0  0  0  0  0  0
   -8.0836   18.1887  -31.8379 H   0  0  0  0  0  0  0  0  0  0  0  0
   -9.3238   19.4593  -33.5376 H   0  0  0  0  0  0  0  0  0  0  0  0
  -10.5091   19.9952  -32.2612 H   0  0  0  0  0  0  0  0  0  0  0  0
   -8.2740   21.2700  -33.0960 H   0  0  0  0  0  0  0  0  0  0  0  0
  -10.4282   21.7220  -31.4324 H   0  0  0  0  0  0  0  0  0  0  0  0
   -8.8796   22.2411  -30.5871 H   0  0  0  0  0  0  0  0  0  0  0  0
   -9.3472   24.2023  -31.6272 H   0  0  0  0  0  0  0  0  0  0  0  0
   -8.4612   23.3934  -32.9641 H   0  0  0  0  0  0  0  0  0  0  0  0
  -10.2573   23.4206  -32.9641 H   0  0  0  0  0  0  0  0  0  0  0  0
   -7.2846   21.2392  -30.5757 H   0  0  0  0  0  0  0  0  0  0  0  0
   -7.6328   19.5010  -30.9815 H   0  0  0  0  0  0  0  0  0  0  0  0
   -3.1742   22.3437  -30.7187 H   0  0  0  0  0  0  0  0  0  0  0  0
   -3.0943   24.5636  -29.5812 H   0  0  0  0  0  0  0  0  0  0  0  0
   -4.9744   26.1825  -29.8638 H   0  0  0  0  0  0  0  0  0  0  0  0
   -6.9234   25.5932  -31.3063 H   0  0  0  0  0  0  0  0  0  0  0  0
   -7.0127   23.3735  -32.4447 H   0  0  0  0  0  0  0  0  0  0  0  0
   -2.7740   18.9875  -34.4592 H   0  0  0  0  0  0  0  0  0  0  0  0
   -3.8068   16.7426  -34.9455 H   0  0  0  0  0  0  0  0  0  0  0  0
   -7.3620   17.9396  -32.7543 H   0  0  0  0  0  0  0  0  0  0  0  0
  1  2  1  0
  2  3  1  0
  3  4  1  0
  4  5  1  0
  3  6  1  0
  6  7  1  0
  7  8  2  0
  8  9  1  0
  9 10  2  0
 10 11  1  0
 11 12  2  0
 12 13  1  0
 13 14  2  0
  8 15  1  0
 15 16  2  0
 16 17  1  0
 17 18  2  0
 18 19  1  0
 19 20  1  0
 19 21  2  0
 21 22  1  0
 22  7  1  0
 14  9  1  0
 22 16  1  0
  1 23  1  0
  1 24  1  0
  1 25  1  0
  2 26  1  0
  2 27  1  0
  3 28  1  0
  4 29  1  0
  4 30  1  0
  5 31  1  0
  5 32  1  0
  5 33  1  0
  6 34  1  0
  6 35  1  0
 10 36  1  0
 11 37  1  0
 12 38  1  0
 13 39  1  0
 14 40  1  0
 17 41  1  0
 18 42  1  0
 21 43  1  0
M  CHG  1   3   1
M  END
>  <UniqueID>  (5) 
5

>  <SMILES>  (5) 
CC[NH+](CC)Cc1c(-c2ccccc2)nc2ccc(Cl)cn12

>  <Energy>  (5) 
87.115178257455

>  <Genealogy>  (5) 
CC[NH+](CC)Cc1c(-c2ccccc2)nc2ccc(Cl)cn12 (protonated)
CC[NH+](CC)Cc1c(-c2ccccc2)nc2ccc(Cl)cn12 (3D coordinates assigned)
CC[NH+](CC)Cc1c(-c2ccccc2)nc2ccc(Cl)cn12 (optimized conformer: 87.115178257455 kcal/mol)

>  <smiles>  (5) 
CCN(CC)Cc1c(-c2ccccc2)nc2ccc(Cl)cn12

>  <score_type>  (5) 
oracle

>  <origin>  (5) 
adgpu

>  <m_score__min__energy>  (5) 
-6.8600000000000003

>  <m_primary>  (5) 
energy

$$$$
5:0
     RDKit          3D

 33 35  0  0  0  0  0  0  0  0999 V2000
   -8.0010   18.6500  -32.5100 C   0  0  0  0  0  0  0  0  0  0  0  0
   -6.8660   19.3730  -32.8860 C   0  0  0  0  0  0  0  0  0  0  0  0
   -6.8370   20.7620  -32.7290 C   0  0  0  0  0  0  0  0  0  0  0  0
   -7.9510   21.4380  -32.2040 C   0  0  0  0  0  0  0  0  0  0  0  0
   -7.9080   22.9280  -31.9990 C   0  0  0  0  0  0  0  0  0  0  0  0
   -6.7330   23.3020  -31.1380 C   0  0  0  0  0  0  0  0  0  0  0  0
   -5.7360   24.1600  -31.6120 C   0  0  0  0  0  0  0  0  0  0  0  0
   -4.6650   24.4540  -30.8300 N   0  0  0  0  0  0  0  0  0  0  0  0
   -4.5300   23.9240  -29.5840 C   0  0  0  0  0  0  0  0  0  0  0  0
   -3.3510   24.2600  -28.7480 C   0  0  0  0  0  0  0  0  0  0  0  0
   -3.5010   24.5510  -27.3780 C   0  0  0  0  0  0  0  0  0  0  0  0
   -2.3870   24.8680  -26.5940 C   0  0  0  0  0  0  0  0  0  0  0  0
   -1.1130   24.8990  -27.1660 C   0  0  0  0  0  0  0  0  0  0  0  0
   -0.9500   24.6140  -28.5220 C   0  0  0  0  0  0  0  0  0  0  0  0
   -2.0590   24.2960  -29.3110 C   0  0  0  0  0  0  0  0  0  0  0  0
   -5.4860   23.0760  -29.1130 N   0  0  0  0  0  0  0  0  0  0  0  0
   -6.5740   22.7540  -29.8610 C   0  0  0  0  0  0  0  0  0  0  0  0
   -9.0840   20.7030  -31.8170 C   0  0  0  0  0  0  0  0  0  0  0  0
   -9.1080   19.3130  -31.9750 C   0  0  0  0  0  0  0  0  0  0  0  0
   -8.0228   17.5574  -32.6354 H   0  0  0  0  0  0  0  0  0  0  0  0
   -5.9947   18.8490  -33.3058 H   0  0  0  0  0  0  0  0  0  0  0  0
   -5.9387   21.3275  -33.0176 H   0  0  0  0  0  0  0  0  0  0  0  0
   -7.8158   23.4262  -32.9753 H   0  0  0  0  0  0  0  0  0  0  0  0
   -8.8343   23.2476  -31.4992 H   0  0  0  0  0  0  0  0  0  0  0  0
   -5.8189   24.5969  -32.6181 H   0  0  0  0  0  0  0  0  0  0  0  0
   -4.5015   24.5288  -26.9214 H   0  0  0  0  0  0  0  0  0  0  0  0
   -2.5143   25.0933  -25.5249 H   0  0  0  0  0  0  0  0  0  0  0  0
   -0.2383   25.1481  -26.5473 H   0  0  0  0  0  0  0  0  0  0  0  0
    0.0538   24.6396  -28.9712 H   0  0  0  0  0  0  0  0  0  0  0  0
   -1.9227   24.0721  -30.3793 H   0  0  0  0  0  0  0  0  0  0  0  0
   -7.3301   22.0619  -29.4619 H   0  0  0  0  0  0  0  0  0  0  0  0
   -9.9544   21.2216  -31.3887 H   0  0  0  0  0  0  0  0  0  0  0  0
   -9.9997   18.7416  -31.6776 H   0  0  0  0  0  0  0  0  0  0  0  0
  1  2  2  0
  2  3  1  0
  3  4  2  0
  4  5  1  0
  5  6  1  0
  6  7  2  0
  7  8  1  0
  8  9  2  0
  9 10  1  0
 10 11  2  0
 11 12  1  0
 12 13  2  0
 13 14  1  0
 14 15  2  0
  9 16  1  0
 16 17  2  0
  4 18  1  0
 18 19  2  0
 19  1  1  0
 17  6  1  0
 15 10  1  0
  1 20  1  0
  2 21  1  0
  3 22  1  0
  5 23  1  0
  5 24  1  0
  7 25  1  0
 11 26  1  0
 12 27  1  0
 13 28  1  0
 14 29  1  0
 15 30  1  0
 17 31  1  0
 18 32  1  0
 19 33  1  0
M  END
>  <UniqueID>  (6) 
6

>  <SMILES>  (6) 
c1ccc(Cc2cnc(-c3ccccc3)nc2)cc1

>  <Energy>  (6) 
36.946687183262036

>  <Genealogy>  (6) 
c1ccc(Cc2cnc(-c3ccccc3)nc2)cc1 (3D coordinates assigned)
c1ccc(Cc2cnc(-c3ccccc3)nc2)cc1 (optimized conformer: 36.946687183262036 kcal/mol)

>  <smiles>  (6) 
c1ccc(Cc2cnc(-c3ccccc3)nc2)cc1

>  <score_type>  (6) 
oracle

>  <origin>  (6) 
adgpu

>  <m_score__min__energy>  (6) 
-7.8600000000000003

>  <m_primary>  (6) 
energy

$$$$
6:0
     RDKit          3D

 20 20  0  0  0  0  0  0  0  0999 V2000
   -2.6450   24.5350  -29.3420 C   0  0  0  0  0  0  0  0  0  0  0  0
   -3.5040   24.9260  -30.4080 O   0  0  0  0  0  0  0  0  0  0  0  0
   -4.7140   24.2910  -30.7250 C   0  0  0  0  0  0  0  0  0  0  0  0
   -5.9000   24.8150  -30.1960 C   0  0  0  0  0  0  0  0  0  0  0  0
   -7.1310   24.2180  -30.4850 C   0  0  0  0  0  0  0  0  0  0  0  0
   -7.1870   23.0900  -31.3100 C   0  0  0  0  0  0  0  0  0  0  0  0
   -8.7660   22.3200  -31.6760 S   0  0  0  0  0  0  0  0  0  0  0  0
   -8.0180   20.7300  -32.1510 C   0  0  0  0  0  0  0  0  0  0  0  0
   -6.0070   22.5560  -31.8400 C   0  0  0  0  0  0  0  0  0  0  0  0
   -4.7750   23.1520  -31.5540 C   0  0  0  0  0  0  0  0  0  0  0  0
   -3.1305   24.7560  -28.3800 H   0  0  0  0  0  0  0  0  0  0  0  0
   -2.4425   23.4560  -29.4112 H   0  0  0  0  0  0  0  0  0  0  0  0
   -1.6983   25.0909  -29.4112 H   0  0  0  0  0  0  0  0  0  0  0  0
   -5.8629   25.7032  -29.5481 H   0  0  0  0  0  0  0  0  0  0  0  0
   -8.0567   24.6361  -30.0629 H   0  0  0  0  0  0  0  0  0  0  0  0
   -7.7521   20.1648  -31.2455 H   0  0  0  0  0  0  0  0  0  0  0  0
   -8.7376   20.1498  -32.7473 H   0  0  0  0  0  0  0  0  0  0  0  0
   -7.1122   20.9145  -32.7473 H   0  0  0  0  0  0  0  0  0  0  0  0
   -6.0489   21.6648  -32.4834 H   0  0  0  0  0  0  0  0  0  0  0  0
   -3.8508   22.7312  -31.9768 H   0  0  0  0  0  0  0  0  0  0  0  0
  1  2  1  0
  2  3  1  0
  3  4  2  0
  4  5  1  0
  5  6  2  0
  6  7  1  0
  7  8  1  0
  6  9  1  0
  9 10  2  0
 10  3  1  0
  1 11  1  0
  1 12  1  0
  1 13  1  0
  4 14  1  0
  5 15  1  0
  8 16  1  0
  8 17  1  0
  8 18  1  0
  9 19  1  0
 10 20  1  0
M  END
>  <UniqueID>  (7) 
7

>  <SMILES>  (7) 
COc1ccc(SC)cc1

>  <Energy>  (7) 
13.319408049291232

>  <Genealogy>  (7) 
COc1ccc(SC)cc1 (3D coordinates assigned)
COc1ccc(SC)cc1 (optimized conformer: 13.319408049291232 kcal/mol)

>  <smiles>  (7) 
COc1ccc(SC)cc1

>  <score_type>  (7) 
oracle

>  <origin>  (7) 
adgpu

>  <m_score__min__energy>  (7) 
-4.9800000000000004

>  <m_primary>  (7) 
energy

$$$$
7:0
     RDKit          3D

 31 32  0  0  0  0  0  0  0  0999 V2000
   -4.2360   15.0770  -34.6150 C   0  0  0  0  0  0  0  0  0  0  0  0
   -4.9580   16.3030  -34.1360 C   0  0  0  0  0  0  0  0  0  0  0  0
   -5.0860   17.4210  -34.9740 C   0  0  0  0  0  0  0  0  0  0  0  0
   -5.7250   18.5750  -34.5140 C   0  0  0  0  0  0  0  0  0  0  0  0
   -6.2470   18.6300  -33.2130 C   0  0  0  0  0  0  0  0  0  0  0  0
   -6.8820   19.8320  -32.7460 N   0  0  0  0  0  0  0  0  0  0  0  0
   -6.3130   21.0250  -32.8430 N   0  0  0  0  0  0  0  0  0  0  0  0
   -7.1630   21.9310  -32.3220 C   0  0  0  0  0  0  0  0  0  0  0  0
   -6.8780   23.3970  -32.2600 C   0  0  0  0  0  0  0  0  0  0  0  0
   -8.3060   21.2940  -31.8700 C   0  0  0  0  0  0  0  0  0  0  0  0
   -9.5370   21.9260  -31.2990 C   0  0  0  0  0  0  0  0  0  0  0  0
   -8.1090   19.9610  -32.1850 C   0  0  0  0  0  0  0  0  0  0  0  0
   -9.1020   18.8540  -31.9800 C   0  0  0  0  0  0  0  0  0  0  0  0
   -6.0830   17.5240  -32.3630 C   0  0  0  0  0  0  0  0  0  0  0  0
   -5.4440   16.3680  -32.8220 C   0  0  0  0  0  0  0  0  0  0  0  0
   -3.8917   14.4924  -33.7491 H   0  0  0  0  0  0  0  0  0  0  0  0
   -4.9175   14.4644  -35.2234 H   0  0  0  0  0  0  0  0  0  0  0  0
   -3.3697   15.3759  -35.2234 H   0  0  0  0  0  0  0  0  0  0  0  0
   -4.6819   17.3888  -35.9966 H   0  0  0  0  0  0  0  0  0  0  0  0
   -5.8196   19.4475  -35.1772 H   0  0  0  0  0  0  0  0  0  0  0  0
   -6.8163   23.7144  -31.2086 H   0  0  0  0  0  0  0  0  0  0  0  0
   -5.9223   23.6063  -32.7629 H   0  0  0  0  0  0  0  0  0  0  0  0
   -7.6856   23.9491  -32.7629 H   0  0  0  0  0  0  0  0  0  0  0  0
   -9.4866   21.9001  -30.2005 H   0  0  0  0  0  0  0  0  0  0  0  0
   -9.6043   22.9701  -31.6385 H   0  0  0  0  0  0  0  0  0  0  0  0
  -10.4247   21.3721  -31.6385 H   0  0  0  0  0  0  0  0  0  0  0  0
   -9.2500   18.6890  -30.9026 H   0  0  0  0  0  0  0  0  0  0  0  0
  -10.0604   19.1306  -32.4436 H   0  0  0  0  0  0  0  0  0  0  0  0
   -8.7233   17.9312  -32.4436 H   0  0  0  0  0  0  0  0  0  0  0  0
   -6.4594   17.5674  -31.3303 H   0  0  0  0  0  0  0  0  0  0  0  0
   -5.3220   15.5060  -32.1497 H   0  0  0  0  0  0  0  0  0  0  0  0
  1  2  1  0
  2  3  2  0
  3  4  1  0
  4  5  2  0
  5  6  1  0
  6  7  1  0
  7  8  2  0
  8  9  1  0
  8 10  1  0
 10 11  1  0
 10 12  2  0
 12 13  1  0
  5 14  1  0
 14 15  2  0
 15  2  1  0
 12  6  1  0
  1 16  1  0
  1 17  1  0
  1 18  1  0
  3 19  1  0
  4 20  1  0
  9 21  1  0
  9 22  1  0
  9 23  1  0
 11 24  1  0
 11 25  1  0
 11 26  1  0
 13 27  1  0
 13 28  1  0
 13 29  1  0
 14 30  1  0
 15 31  1  0
M  END
>  <UniqueID>  (8) 
8

>  <SMILES>  (8) 
Cc1ccc(-n2nc(C)c(C)c2C)cc1

>  <Energy>  (8) 
62.91002449211087

>  <Genealogy>  (8) 
Cc1ccc(-n2nc(C)c(C)c2C)cc1 (3D coordinates assigned)
Cc1ccc(-n2nc(C)c(C)c2C)cc1 (optimized conformer: 62.91002449211087 kcal/mol)

>  <smiles>  (8) 
Cc1ccc(-n2nc(C)c(C)c2C)cc1

>  <score_type>  (8) 
oracle

>  <origin>  (8) 
adgpu

>  <m_score__min__energy>  (8) 
-6.4800000000000004

>  <m_primary>  (8) 
energy

$$$$
8:0
     RDKit          3D

 31 32  0  0  0  0  0  0  0  0999 V2000
   -4.1334   19.0765  -34.0253 H   0  0  0  0  0  0  0  0  0  0  0  0
   -4.8120   19.8090  -33.5640 C   0  0  0  0  0  0  0  0  0  0  0  0
   -4.3090   21.0280  -33.0890 C   0  0  0  0  0  0  0  0  0  0  0  0
   -2.9660   21.4010  -33.2550 O   0  0  0  0  0  0  0  0  0  0  0  0
   -2.0260   21.5150  -32.1920 C   0  0  0  0  0  0  0  0  0  0  0  0
   -2.5527   21.4511  -31.2284 H   0  0  0  0  0  0  0  0  0  0  0  0
   -1.2914   20.6994  -32.2631 H   0  0  0  0  0  0  0  0  0  0  0  0
   -1.5076   22.4826  -32.2631 H   0  0  0  0  0  0  0  0  0  0  0  0
   -5.1680   21.9210  -32.4390 C   0  0  0  0  0  0  0  0  0  0  0  0
   -4.7771   22.8922  -32.1015 H   0  0  0  0  0  0  0  0  0  0  0  0
   -6.5230   21.6060  -32.2060 C   0  0  0  0  0  0  0  0  0  0  0  0
   -7.4380   22.4530  -31.5020 C   0  0  0  0  0  0  0  0  0  0  0  0
   -7.1230   23.3850  -30.6390 N   0  0  0  0  0  0  0  0  0  0  0  0
   -5.8750   23.7850  -29.9850 C   0  0  0  0  0  0  0  0  0  0  0  0
   -5.9552   23.5888  -28.9056 H   0  0  0  0  0  0  0  0  0  0  0  0
   -5.0483   23.2047  -30.4208 H   0  0  0  0  0  0  0  0  0  0  0  0
   -5.5950   25.2790  -30.2050 C   0  0  0  0  0  0  0  0  0  0  0  0
   -6.2402   25.6408  -31.0191 H   0  0  0  0  0  0  0  0  0  0  0  0
   -5.8028   25.7967  -29.2570 H   0  0  0  0  0  0  0  0  0  0  0  0
   -4.2040   25.5510  -30.5570 N   0  0  0  0  0  0  0  0  0  0  0  0
   -3.8830   26.4210  -30.0750 H   0  0  0  0  0  0  0  0  0  0  0  0
   -4.1380   25.6940  -31.5910 H   0  0  0  0  0  0  0  0  0  0  0  0
   -8.8100   22.2080  -31.6480 C   0  0  0  0  0  0  0  0  0  0  0  0
   -9.5370   22.9243  -31.2377 H   0  0  0  0  0  0  0  0  0  0  0  0
   -9.2630   21.0690  -32.3060 C   0  0  0  0  0  0  0  0  0  0  0  0
  -10.3432   20.8837  -32.3996 H   0  0  0  0  0  0  0  0  0  0  0  0
   -8.3790   20.1870  -32.8320 N   0  0  0  0  0  0  0  0  0  0  0  0
   -8.7570   19.3270  -33.2920 H   0  0  0  0  0  0  0  0  0  0  0  0
   -7.0380   20.4260  -32.8180 C   0  0  0  0  0  0  0  0  0  0  0  0
   -6.1710   19.5250  -33.4520 C   0  0  0  0  0  0  0  0  0  0  0  0
   -6.5675   18.5855  -33.8646 H   0  0  0  0  0  0  0  0  0  0  0  0
  1  2  1  0
  2  3  2  0
  3  4  1  0
  4  5  1  0
  5  6  1  0
  5  7  1  0
  5  8  1  0
  3  9  1  0
  9 10  1  0
  9 11  2  0
 11 12  1  0
 12 13  2  0
 13 14  1  0
 14 15  1  0
 14 16  1  0
 14 17  1  0
 17 18  1  0
 17 19  1  0
 17 20  1  0
 20 21  1  0
 20 22  1  0
 12 23  1  0
 23 24  1  0
 23 25  2  0
 25 26  1  0
 25 27  1  0
 27 28  1  0
 27 29  1  0
 29 30  2  0
 30 31  1  0
 30  2  1  0
 29 11  1  0
M  END
>  <UniqueID>  (9) 
9

>  <SMILES>  (9) 
COc1ccc2[nH]cc/c(=N/CCN)c2c1

>  <Energy>  (9) 
53.46881318105579

>  <Genealogy>  (9) 
COc1ccc2[nH]cc/c(=N/CCN)c2c1 (cis-trans isomerization)
COc1ccc2[nH]cc/c(=N/CCN)c2c1 (3D coordinates assigned)
COc1ccc2[nH]cc/c(=N/CCN)c2c1 (optimized conformer: 53.46881318105579 kcal/mol)

>  <smiles>  (9) 
COc1ccc2[nH]ccc(=NCCN)c2c1

>  <score_type>  (9) 
oracle

>  <origin>  (9) 
adgpu

>  <m_score__min__energy>  (9) 
-7.2199999999999998

>  <m_primary>  (9) 
energy

$$$$
9:0
     RDKit          3D

 24 24  0  0  0  0  0  0  0  0999 V2000
   -7.1090   24.2660  -30.4650 C   0  0  0  0  0  0  0  0  0  0  0  0
   -6.0470   25.3130  -30.1550 C   0  0  0  0  0  0  0  0  0  0  0  0
   -4.7280   24.6580  -29.8790 C   0  0  0  0  0  0  0  0  0  0  0  0
   -3.7910   24.7680  -30.7160 O   0  0  0  0  0  0  0  0  0  0  0  0
   -4.5260   23.9360  -28.6540 N   0  0  0  0  0  0  0  0  0  0  0  0
   -3.2690   23.3340  -28.3140 C   0  0  0  0  0  0  0  0  0  0  0  0
   -3.2620   22.0290  -27.8030 C   0  0  0  0  0  0  0  0  0  0  0  0
   -2.0550   21.3960  -27.4890 C   0  0  0  0  0  0  0  0  0  0  0  0
   -2.0580   19.7550  -26.8690 Cl  0  0  0  0  0  0  0  0  0  0  0  0
   -0.8460   22.0700  -27.6770 C   0  0  0  0  0  0  0  0  0  0  0  0
   -0.8420   23.3800  -28.1600 C   0  0  0  0  0  0  0  0  0  0  0  0
   -2.0470   24.0300  -28.4680 C   0  0  0  0  0  0  0  0  0  0  0  0
   -2.0160   25.4020  -28.8820 N   0  0  0  0  0  0  0  0  0  0  0  0
   -7.5149   23.8658  -29.5242 H   0  0  0  0  0  0  0  0  0  0  0  0
   -7.9200   24.7276  -31.0473 H   0  0  0  0  0  0  0  0  0  0  0  0
   -6.6589   23.4485  -31.0473 H   0  0  0  0  0  0  0  0  0  0  0  0
   -5.9423   25.9884  -31.0169 H   0  0  0  0  0  0  0  0  0  0  0  0
   -6.3558   25.8795  -29.2641 H   0  0  0  0  0  0  0  0  0  0  0  0
   -5.3650   23.6790  -28.0860 H   0  0  0  0  0  0  0  0  0  0  0  0
   -4.2131   21.4985  -27.6477 H   0  0  0  0  0  0  0  0  0  0  0  0
    0.1046   21.5678  -27.4441 H   0  0  0  0  0  0  0  0  0  0  0  0
    0.1134   23.9068  -28.3002 H   0  0  0  0  0  0  0  0  0  0  0  0
   -2.0900   26.1710  -28.1790 H   0  0  0  0  0  0  0  0  0  0  0  0
   -1.9940   25.6710  -29.8900 H   0  0  0  0  0  0  0  0  0  0  0  0
  1  2  1  0
  2  3  1  0
  3  4  2  0
  3  5  1  0
  5  6  1  0
  6  7  2  0
  7  8  1  0
  8  9  1  0
  8 10  2  0
 10 11  1  0
 11 12  2  0
 12 13  1  0
 12  6  1  0
  1 14  1  0
  1 15  1  0
  1 16  1  0
  2 17  1  0
  2 18  1  0
  5 19  1  0
  7 20  1  0
 10 21  1  0
 11 22  1  0
 13 23  1  0
 13 24  1  0
M  END
>  <UniqueID>  (10) 
10

>  <SMILES>  (10) 
CCC(=O)Nc1cc(Cl)ccc1N

>  <Energy>  (10) 
23.074137252581426

>  <Genealogy>  (10) 
CCC(=O)Nc1cc(Cl)ccc1N (3D coordinates assigned)
CCC(=O)Nc1cc(Cl)ccc1N (optimized conformer: 23.074137252581426 kcal/mol)

>  <smiles>  (10) 
CCC(=O)Nc1cc(Cl)ccc1N

>  <score_type>  (10) 
oracle

>  <origin>  (10) 
adgpu

>  <m_score__min__energy>  (10) 
-6.3200000000000003

>  <m_primary>  (10) 
energy

$$$$
10:0
     RDKit          3D

 19 20  0  0  0  0  0  0  0  0999 V2000
   -3.8680   25.4440  -30.8410 O   0  0  0  0  0  0  0  0  0  0  0  0
   -4.9490   24.7980  -30.8140 C   0  0  0  0  0  0  0  0  0  0  0  0
   -6.0430   25.2860  -30.1030 C   0  0  0  0  0  0  0  0  0  0  0  0
   -7.1840   24.5550  -30.1040 N   0  0  0  0  0  0  0  0  0  0  0  0
   -7.2510   23.4010  -30.7660 N   0  0  0  0  0  0  0  0  0  0  0  0
   -6.1740   22.9330  -31.4570 C   0  0  0  0  0  0  0  0  0  0  0  0
   -6.2480   21.6500  -32.1940 C   0  0  0  0  0  0  0  0  0  0  0  0
   -7.4780   20.9780  -32.3250 C   0  0  0  0  0  0  0  0  0  0  0  0
   -7.5520   19.7680  -33.0200 C   0  0  0  0  0  0  0  0  0  0  0  0
   -6.4040   19.2150  -33.5920 C   0  0  0  0  0  0  0  0  0  0  0  0
   -6.4790   18.0410  -34.2660 F   0  0  0  0  0  0  0  0  0  0  0  0
   -5.1780   19.8730  -33.4690 C   0  0  0  0  0  0  0  0  0  0  0  0
   -5.0980   21.0840  -32.7740 C   0  0  0  0  0  0  0  0  0  0  0  0
   -5.0490   23.6440  -31.4630 O   0  0  0  0  0  0  0  0  0  0  0  0
   -5.9823   26.2384  -29.5559 H   0  0  0  0  0  0  0  0  0  0  0  0
   -8.3863   21.4080  -31.8776 H   0  0  0  0  0  0  0  0  0  0  0  0
   -8.5172   19.2494  -33.1169 H   0  0  0  0  0  0  0  0  0  0  0  0
   -4.2738   19.4379  -33.9196 H   0  0  0  0  0  0  0  0  0  0  0  0
   -4.1296   21.5973  -32.6802 H   0  0  0  0  0  0  0  0  0  0  0  0
  1  2  2  0
  2  3  1  0
  3  4  2  0
  4  5  1  0
  5  6  2  0
  6  7  1  0
  7  8  2  0
  8  9  1  0
  9 10  2  0
 10 11  1  0
 10 12  1  0
 12 13  2  0
  6 14  1  0
 14  2  1  0
 13  7  1  0
  3 15  1  0
  8 16  1  0
  9 17  1  0
 12 18  1  0
 13 19  1  0
M  END
>  <UniqueID>  (11) 
11

>  <SMILES>  (11) 
O=c1cnnc(-c2ccc(F)cc2)o1

>  <Energy>  (11) 
23.804234153779507

>  <Genealogy>  (11) 
O=c1cnnc(-c2ccc(F)cc2)o1 (3D coordinates assigned)
O=c1cnnc(-c2ccc(F)cc2)o1 (optimized conformer: 23.804234153779507 kcal/mol)

>  <smiles>  (11) 
O=c1cnnc(-c2ccc(F)cc2)o1

>  <score_type>  (11) 
oracle

>  <origin>  (11) 
adgpu

>  <m_score__min__energy>  (11) 
-6.2199999999999998

>  <m_primary>  (11) 
energy

$$$$
11:0
     RDKit          3D

 34 34  0  0  0  0  0  0  0  0999 V2000
   -6.1600   25.3030  -29.7540 C   0  0  0  0  0  0  0  0  0  0  0  0
   -5.7340   24.9060  -31.1670 C   0  0  0  0  0  0  0  0  0  0  0  0
   -4.9940   23.5640  -31.1910 C   0  0  0  0  0  0  0  0  0  0  0  0
   -5.0440   22.9640  -32.5320 N   0  0  0  0  0  0  0  0  0  0  0  0
   -5.3410   21.5270  -32.4600 C   0  0  0  0  0  0  0  0  0  0  0  0
   -6.8260   21.2880  -32.3180 C   0  0  0  0  0  0  0  0  0  0  0  0
   -7.6700   22.3570  -31.9670 C   0  0  0  0  0  0  0  0  0  0  0  0
   -9.0410   22.1520  -31.7960 C   0  0  0  0  0  0  0  0  0  0  0  0
   -9.5850   20.8790  -31.9690 C   0  0  0  0  0  0  0  0  0  0  0  0
   -8.7600   19.8060  -32.3120 C   0  0  0  0  0  0  0  0  0  0  0  0
   -7.3820   20.0000  -32.4920 C   0  0  0  0  0  0  0  0  0  0  0  0
   -6.5500   18.8820  -32.8380 N   0  0  0  0  0  0  0  0  0  0  0  0
   -6.1140   18.7290  -34.2250 C   0  0  0  0  0  0  0  0  0  0  0  0
   -6.5460   17.7050  -31.9710 C   0  0  0  0  0  0  0  0  0  0  0  0
   -5.5607   24.7445  -29.0198 H   0  0  0  0  0  0  0  0  0  0  0  0
   -6.0006   26.3822  -29.6126 H   0  0  0  0  0  0  0  0  0  0  0  0
   -7.2253   25.0681  -29.6126 H   0  0  0  0  0  0  0  0  0  0  0  0
   -6.6309   24.8277  -31.7989 H   0  0  0  0  0  0  0  0  0  0  0  0
   -5.0468   25.6783  -31.5429 H   0  0  0  0  0  0  0  0  0  0  0  0
   -3.9436   23.7263  -30.9075 H   0  0  0  0  0  0  0  0  0  0  0  0
   -5.4812   22.8801  -30.4804 H   0  0  0  0  0  0  0  0  0  0  0  0
   -5.8300   23.4170  -33.0550 H   0  0  0  0  0  0  0  0  0  0  0  0
   -4.9844   21.0394  -33.3793 H   0  0  0  0  0  0  0  0  0  0  0  0
   -4.8325   21.1075  -31.5794 H   0  0  0  0  0  0  0  0  0  0  0  0
   -7.2469   23.3626  -31.8260 H   0  0  0  0  0  0  0  0  0  0  0  0
   -9.6928   22.9955  -31.5245 H   0  0  0  0  0  0  0  0  0  0  0  0
  -10.6652   20.7204  -31.8350 H   0  0  0  0  0  0  0  0  0  0  0  0
   -9.1927   18.8031  -32.4418 H   0  0  0  0  0  0  0  0  0  0  0  0
   -5.0762   18.3648  -34.2451 H   0  0  0  0  0  0  0  0  0  0  0  0
   -6.7663   18.0060  -34.7368 H   0  0  0  0  0  0  0  0  0  0  0  0
   -6.1715   19.7010  -34.7368 H   0  0  0  0  0  0  0  0  0  0  0  0
   -6.5471   18.0249  -30.9185 H   0  0  0  0  0  0  0  0  0  0  0  0
   -7.4421   17.0992  -32.1710 H   0  0  0  0  0  0  0  0  0  0  0  0
   -5.6458   17.1053  -32.1710 H   0  0  0  0  0  0  0  0  0  0  0  0
  1  2  1  0
  2  3  1  0
  3  4  1  0
  4  5  1  0
  5  6  1  0
  6  7  2  0
  7  8  1  0
  8  9  2  0
  9 10  1  0
 10 11  2  0
 11 12  1  0
 12 13  1  0
 12 14  1  0
 11  6  1  0
  1 15  1  0
  1 16  1  0
  1 17  1  0
  2 18  1  0
  2 19  1  0
  3 20  1  0
  3 21  1  0
  4 22  1  0
  5 23  1  0
  5 24  1  0
  7 25  1  0
  8 26  1  0
  9 27  1  0
 10 28  1  0
 13 29  1  0
 13 30  1  0
 13 31  1  0
 14 32  1  0
 14 33  1  0
 14 34  1  0
M  END
>  <UniqueID>  (12) 
12

>  <SMILES>  (12) 
CCCNCc1ccccc1N(C)C

>  <Energy>  (12) 
29.063134211373097

>  <Genealogy>  (12) 
CCCNCc1ccccc1N(C)C (3D coordinates assigned)
CCCNCc1ccccc1N(C)C (optimized conformer: 29.063134211373097 kcal/mol)

>  <smiles>  (12) 
CCCNCc1ccccc1N(C)C

>  <score_type>  (12) 
oracle

>  <origin>  (12) 
adgpu

>  <m_score__min__energy>  (12) 
-5.7199999999999998

>  <m_primary>  (12) 
energy

$$$$
12:0
     RDKit          3D

 29 30  0  0  0  0  0  0  0  0999 V2000
   -6.1480   25.6850  -29.4710 C   0  0  0  0  0  0  0  0  0  0  0  0
   -5.9830   24.4750  -30.3500 C   0  0  0  0  0  0  0  0  0  0  0  0
   -7.1060   23.7070  -30.7030 C   0  0  0  0  0  0  0  0  0  0  0  0
   -6.9650   22.5860  -31.5250 C   0  0  0  0  0  0  0  0  0  0  0  0
   -8.3740   21.6370  -31.9640 Cl  0  0  0  0  0  0  0  0  0  0  0  0
   -5.7050   22.2220  -32.0000 C   0  0  0  0  0  0  0  0  0  0  0  0
   -4.5810   22.9770  -31.6560 C   0  0  0  0  0  0  0  0  0  0  0  0
   -4.7080   24.1120  -30.8320 C   0  0  0  0  0  0  0  0  0  0  0  0
   -3.5690   24.9100  -30.4720 N   0  0  0  0  0  0  0  0  0  0  0  0
   -2.4600   24.5550  -29.1850 S   0  0  0  0  0  0  0  0  0  0  0  0
   -3.1190   24.8680  -27.8710 O   0  0  0  0  0  0  0  0  0  0  0  0
   -1.2380   25.4140  -29.3390 O   0  0  0  0  0  0  0  0  0  0  0  0
   -1.9800   22.8630  -29.2550 C   0  0  0  0  0  0  0  0  0  0  0  0
   -1.2660   22.3720  -30.3570 C   0  0  0  0  0  0  0  0  0  0  0  0
   -0.8750   21.0310  -30.3990 C   0  0  0  0  0  0  0  0  0  0  0  0
   -1.1940   20.1750  -29.3420 C   0  0  0  0  0  0  0  0  0  0  0  0
   -1.9090   20.6580  -28.2410 C   0  0  0  0  0  0  0  0  0  0  0  0
   -2.3450   19.4890  -26.7950 Br  0  0  0  0  0  0  0  0  0  0  0  0
   -2.3050   21.9990  -28.1990 C   0  0  0  0  0  0  0  0  0  0  0  0
   -6.1063   25.3796  -28.4151 H   0  0  0  0  0  0  0  0  0  0  0  0
   -5.3392   26.4014  -29.6777 H   0  0  0  0  0  0  0  0  0  0  0  0
   -7.1190   26.1587  -29.6777 H   0  0  0  0  0  0  0  0  0  0  0  0
   -8.1014   23.9901  -30.3301 H   0  0  0  0  0  0  0  0  0  0  0  0
   -5.5962   21.3388  -32.6467 H   0  0  0  0  0  0  0  0  0  0  0  0
   -3.5898   22.6829  -32.0314 H   0  0  0  0  0  0  0  0  0  0  0  0
   -1.0130   23.0438  -31.1905 H   0  0  0  0  0  0  0  0  0  0  0  0
   -0.3153   20.6489  -31.2655 H   0  0  0  0  0  0  0  0  0  0  0  0
   -0.8827   19.1205  -29.3756 H   0  0  0  0  0  0  0  0  0  0  0  0
   -2.8726   22.3768  -27.3358 H   0  0  0  0  0  0  0  0  0  0  0  0
  1  2  1  0
  2  3  2  0
  3  4  1  0
  4  5  1  0
  4  6  2  0
  6  7  1  0
  7  8  2  0
  8  9  1  0
  9 10  1  0
 10 11  2  0
 10 12  2  0
 10 13  1  0
 13 14  2  0
 14 15  1  0
 15 16  2  0
 16 17  1  0
 17 18  1  0
 17 19  2  0
  8  2  1  0
 19 13  1  0
  1 20  1  0
  1 21  1  0
  1 22  1  0
  3 23  1  0
  6 24  1  0
  7 25  1  0
 14 26  1  0
 15 27  1  0
 16 28  1  0
 19 29  1  0
M  CHG  1   9  -1
M  END
>  <UniqueID>  (13) 
13

>  <SMILES>  (13) 
Cc1cc(Cl)ccc1[N-]S(=O)(=O)c1cccc(Br)c1

>  <Energy>  (13) 
32.2379412256074

>  <Genealogy>  (13) 
Cc1cc(Cl)ccc1[N-]S(=O)(=O)c1cccc(Br)c1 (protonated)
Cc1cc(Cl)ccc1[N-]S(=O)(=O)c1cccc(Br)c1 (3D coordinates assigned)
Cc1cc(Cl)ccc1[N-]S(=O)(=O)c1cccc(Br)c1 (optimized conformer: 32.2379412256074 kcal/mol)

>  <smiles>  (13) 
Cc1cc(Cl)ccc1NS(=O)(=O)c1cccc(Br)c1

>  <score_type>  (13) 
oracle

>  <origin>  (13) 
adgpu

>  <m_score__min__energy>  (13) 
-9.6099999999999994

>  <m_primary>  (13) 
energy

$$$$
13:0
     RDKit          3D

 29 30  0  0  0  0  0  0  0  0999 V2000
   -3.4360   21.4540  -33.1950 C   0  0  0  0  0  0  0  0  0  0  0  0
   -3.3060   22.3730  -31.6310 S   0  0  0  0  0  0  0  0  0  0  0  0
   -5.0900   22.5490  -31.4460 C   0  0  0  0  0  0  0  0  0  0  0  0
   -5.8930   21.4260  -31.6900 C   0  0  0  0  0  0  0  0  0  0  0  0
   -7.2740   21.4880  -31.4940 C   0  0  0  0  0  0  0  0  0  0  0  0
   -7.8630   22.6700  -31.0450 C   0  0  0  0  0  0  0  0  0  0  0  0
   -7.0760   23.7980  -30.8040 C   0  0  0  0  0  0  0  0  0  0  0  0
   -5.6880   23.7600  -31.0220 C   0  0  0  0  0  0  0  0  0  0  0  0
   -4.8970   24.9870  -30.7820 C   0  0  0  0  0  0  0  0  0  0  0  0
   -5.4790   26.1040  -30.8120 O   0  0  0  0  0  0  0  0  0  0  0  0
   -3.4930   24.9490  -30.4930 N   0  0  0  0  0  0  0  0  0  0  0  0
   -2.8880   24.5570  -29.2520 C   0  0  0  0  0  0  0  0  0  0  0  0
   -3.6490   23.8210  -28.3330 C   0  0  0  0  0  0  0  0  0  0  0  0
   -3.0940   23.4270  -27.1110 C   0  0  0  0  0  0  0  0  0  0  0  0
   -1.7800   23.7810  -26.7920 C   0  0  0  0  0  0  0  0  0  0  0  0
   -1.0220   24.5370  -27.6920 C   0  0  0  0  0  0  0  0  0  0  0  0
   -1.5740   24.9320  -28.9150 C   0  0  0  0  0  0  0  0  0  0  0  0
   -3.5871   20.3856  -32.9810 H   0  0  0  0  0  0  0  0  0  0  0  0
   -4.2890   21.8361  -33.7750 H   0  0  0  0  0  0  0  0  0  0  0  0
   -2.5105   21.5845  -33.7750 H   0  0  0  0  0  0  0  0  0  0  0  0
   -5.4320   20.4899  -32.0381 H   0  0  0  0  0  0  0  0  0  0  0  0
   -7.8978   20.6043  -31.6938 H   0  0  0  0  0  0  0  0  0  0  0  0
   -8.9497   22.7136  -30.8804 H   0  0  0  0  0  0  0  0  0  0  0  0
   -7.5461   24.7237  -30.4406 H   0  0  0  0  0  0  0  0  0  0  0  0
   -4.6880   23.5520  -28.5742 H   0  0  0  0  0  0  0  0  0  0  0  0
   -3.6923   22.8379  -26.4003 H   0  0  0  0  0  0  0  0  0  0  0  0
   -1.3423   23.4651  -25.8335 H   0  0  0  0  0  0  0  0  0  0  0  0
    0.0097   24.8214  -27.4377 H   0  0  0  0  0  0  0  0  0  0  0  0
   -0.9796   25.5373  -29.6152 H   0  0  0  0  0  0  0  0  0  0  0  0
  1  2  1  0
  2  3  1  0
  3  4  2  0
  4  5  1  0
  5  6  2  0
  6  7  1  0
  7  8  2  0
  8  9  1  0
  9 10  2  0
  9 11  1  0
 11 12  1  0
 12 13  2  0
 13 14  1  0
 14 15  2  0
 15 16  1  0
 16 17  2  0
  8  3  1  0
 17 12  1  0
  1 18  1  0
  1 19  1  0
  1 20  1  0
  4 21  1  0
  5 22  1  0
  6 23  1  0
  7 24  1  0
 13 25  1  0
 14 26  1  0
 15 27  1  0
 16 28  1  0
 17 29  1  0
M  CHG  1  11  -1
M  END
>  <UniqueID>  (14) 
14

>  <SMILES>  (14) 
CSc1ccccc1C(=O)[N-]c1ccccc1

>  <Energy>  (14) 
34.82475243519293

>  <Genealogy>  (14) 
CSc1ccccc1C(=O)[N-]c1ccccc1 (protonated)
CSc1ccccc1C(=O)[N-]c1ccccc1 (3D coordinates assigned)
CSc1ccccc1C(=O)[N-]c1ccccc1 (optimized conformer: 34.82475243519293 kcal/mol)

>  <smiles>  (14) 
CSc1ccccc1C(=O)Nc1ccccc1

>  <score_type>  (14) 
oracle

>  <origin>  (14) 
adgpu

>  <m_score__min__energy>  (14) 
-8.1799999999999997

>  <m_primary>  (14) 
energy

$$$$
14:0
     RDKit          3D

 26 27  0  0  0  0  0  0  0  0999 V2000
   -3.4007   20.2594  -32.3940 H   0  0  0  0  0  0  0  0  0  0  0  0
   -3.5160   21.2610  -31.9540 C   0  0  0  0  0  0  0  0  0  0  0  0
   -4.6680   22.0220  -32.2160 C   0  0  0  0  0  0  0  0  0  0  0  0
   -5.7090   21.5370  -33.0190 O   0  0  0  0  0  0  0  0  0  0  0  0
   -6.6050   20.5160  -32.6620 C   0  0  0  0  0  0  0  0  0  0  0  0
   -6.3500   19.1690  -32.9800 C   0  0  0  0  0  0  0  0  0  0  0  0
   -5.4242   18.8967  -33.5079 H   0  0  0  0  0  0  0  0  0  0  0  0
   -7.2680   18.1760  -32.6280 C   0  0  0  0  0  0  0  0  0  0  0  0
   -7.0587   17.1236  -32.8702 H   0  0  0  0  0  0  0  0  0  0  0  0
   -8.4510   18.5180  -31.9690 C   0  0  0  0  0  0  0  0  0  0  0  0
   -9.1703   17.7345  -31.6886 H   0  0  0  0  0  0  0  0  0  0  0  0
   -8.7210   19.8540  -31.6660 C   0  0  0  0  0  0  0  0  0  0  0  0
   -9.6555   20.1218  -31.1511 H   0  0  0  0  0  0  0  0  0  0  0  0
   -7.8050   20.8540  -32.0160 C   0  0  0  0  0  0  0  0  0  0  0  0
   -8.2030   22.6770  -31.5910 Br  0  0  0  0  0  0  0  0  0  0  0  0
   -4.8020   23.2480  -31.6400 N   0  0  0  0  0  0  0  0  0  0  0  0
   -3.8430   23.7820  -30.8320 C   0  0  0  0  0  0  0  0  0  0  0  0
   -3.9980   24.9590  -30.3010 N   0  0  0  0  0  0  0  0  0  0  0  0
   -5.1710   25.8000  -30.5100 C   0  0  0  0  0  0  0  0  0  0  0  0
   -5.5867   26.0980  -29.5362 H   0  0  0  0  0  0  0  0  0  0  0  0
   -4.8822   26.6981  -31.0757 H   0  0  0  0  0  0  0  0  0  0  0  0
   -5.9289   25.2382  -31.0757 H   0  0  0  0  0  0  0  0  0  0  0  0
   -2.6770   23.0540  -30.5680 C   0  0  0  0  0  0  0  0  0  0  0  0
   -1.8923   23.4765  -29.9232 H   0  0  0  0  0  0  0  0  0  0  0  0
   -2.5200   21.7870  -31.1310 C   0  0  0  0  0  0  0  0  0  0  0  0
   -1.6108   21.2029  -30.9259 H   0  0  0  0  0  0  0  0  0  0  0  0
  1  2  1  0
  2  3  2  0
  3  4  1  0
  4  5  1  0
  5  6  2  0
  6  7  1  0
  6  8  1  0
  8  9  1  0
  8 10  2  0
 10 11  1  0
 10 12  1  0
 12 13  1  0
 12 14  2  0
 14 15  1  0
  3 16  1  0
 16 17  1  0
 17 18  2  0
 18 19  1  0
 19 20  1  0
 19 21  1  0
 19 22  1  0
 17 23  1  0
 23 24  1  0
 23 25  2  0
 25 26  1  0
 25  2  1  0
 14  5  1  0
M  CHG  1  16  -1
M  END
>  <UniqueID>  (15) 
15

>  <SMILES>  (15) 
C/N=c1/cccc(Oc2ccccc2Br)[n-]1

>  <Energy>  (15) 
32.889182278895404

>  <Genealogy>  (15) 
CN=c1cccc(Oc2ccccc2Br)[n-]1 (protonated)
C/N=c1/cccc(Oc2ccccc2Br)[n-]1 (cis-trans isomerization)
C/N=c1/cccc(Oc2ccccc2Br)[n-]1 (3D coordinates assigned)
C/N=c1/cccc(Oc2ccccc2Br)[n-]1 (optimized conformer: 32.889182278895404 kcal/mol)

>  <smiles>  (15) 
CN=c1cccc(Oc2ccccc2Br)[nH]1

>  <score_type>  (15) 
oracle

>  <origin>  (15) 
adgpu

>  <m_score__min__energy>  (15) 
-7.9500000000000002

>  <m_primary>  (15) 
energy

$$$$
15:0
     RDKit          3D

 47 50  0  0  0  0  0  0  0  0999 V2000
   -4.2330   23.8080  -27.0360 C   0  0  0  0  0  0  0  0  0  0  0  0
   -3.1680   22.9310  -27.6290 C   0  0  0  0  0  0  0  0  0  0  0  0
   -3.0180   21.6790  -27.1160 N   0  0  0  0  0  0  0  0  0  0  0  0
   -2.0640   20.8190  -27.5580 C   0  0  0  0  0  0  0  0  0  0  0  0
   -1.9570   19.5400  -26.9990 C   0  0  0  0  0  0  0  0  0  0  0  0
   -0.9670   18.6610  -27.4510 C   0  0  0  0  0  0  0  0  0  0  0  0
   -0.0820   19.0570  -28.4600 C   0  0  0  0  0  0  0  0  0  0  0  0
   -0.1820   20.3340  -29.0220 C   0  0  0  0  0  0  0  0  0  0  0  0
   -1.1730   21.2210  -28.5740 C   0  0  0  0  0  0  0  0  0  0  0  0
   -1.3060   22.4990  -29.1250 C   0  0  0  0  0  0  0  0  0  0  0  0
   -2.3240   23.3590  -28.6840 C   0  0  0  0  0  0  0  0  0  0  0  0
   -2.4700   24.6790  -29.3400 C   0  0  0  0  0  0  0  0  0  0  0  0
   -1.7160   25.6240  -28.9890 O   0  0  0  0  0  0  0  0  0  0  0  0
   -3.4580   24.9230  -30.3480 N   0  0  0  0  0  0  0  0  0  0  0  0
   -4.4960   24.0120  -30.7360 C   0  0  0  0  0  0  0  0  0  0  0  0
   -5.8570   24.2140  -30.5970 C   0  0  0  0  0  0  0  0  0  0  0  0
   -6.5070   25.3930  -29.9370 C   0  0  0  0  0  0  0  0  0  0  0  0
   -6.5050   23.1150  -31.0580 N   0  0  0  0  0  0  0  0  0  0  0  0
   -7.9540   22.9010  -31.0310 C   0  0  0  0  0  0  0  0  0  0  0  0
   -5.6060   22.2560  -31.5330 N   0  0  0  0  0  0  0  0  0  0  0  0
   -5.8900   20.9840  -32.1440 C   0  0  0  0  0  0  0  0  0  0  0  0
   -6.8520   20.1300  -31.5810 C   0  0  0  0  0  0  0  0  0  0  0  0
   -7.1190   18.8880  -32.1650 C   0  0  0  0  0  0  0  0  0  0  0  0
   -6.4250   18.4880  -33.3110 C   0  0  0  0  0  0  0  0  0  0  0  0
   -5.4580   19.3280  -33.8700 C   0  0  0  0  0  0  0  0  0  0  0  0
   -5.1880   20.5700  -33.2880 C   0  0  0  0  0  0  0  0  0  0  0  0
   -4.3770   22.7810  -31.3500 C   0  0  0  0  0  0  0  0  0  0  0  0
   -3.3070   22.2420  -31.7380 O   0  0  0  0  0  0  0  0  0  0  0  0
   -4.1769   23.7618  -25.9384 H   0  0  0  0  0  0  0  0  0  0  0  0
   -4.0802   24.8456  -27.3676 H   0  0  0  0  0  0  0  0  0  0  0  0
   -5.2221   23.4590  -27.3676 H   0  0  0  0  0  0  0  0  0  0  0  0
   -2.6508   19.2265  -26.2050 H   0  0  0  0  0  0  0  0  0  0  0  0
   -0.8840   17.6558  -27.0120 H   0  0  0  0  0  0  0  0  0  0  0  0
    0.6945   18.3621  -28.8122 H   0  0  0  0  0  0  0  0  0  0  0  0
    0.5156   20.6428  -29.8145 H   0  0  0  0  0  0  0  0  0  0  0  0
   -0.6093   22.8324  -29.9082 H   0  0  0  0  0  0  0  0  0  0  0  0
   -6.4455   25.2815  -28.8444 H   0  0  0  0  0  0  0  0  0  0  0  0
   -5.9896   26.3148  -30.2412 H   0  0  0  0  0  0  0  0  0  0  0  0
   -7.5627   25.4476  -30.2412 H   0  0  0  0  0  0  0  0  0  0  0  0
   -8.2978   22.8502  -29.9873 H   0  0  0  0  0  0  0  0  0  0  0  0
   -8.4573   23.7345  -31.5427 H   0  0  0  0  0  0  0  0  0  0  0  0
   -8.1949   21.9575  -31.5427 H   0  0  0  0  0  0  0  0  0  0  0  0
   -7.3975   20.4392  -30.6772 H   0  0  0  0  0  0  0  0  0  0  0  0
   -7.8763   18.2244  -31.7221 H   0  0  0  0  0  0  0  0  0  0  0  0
   -6.6400   17.5128  -33.7723 H   0  0  0  0  0  0  0  0  0  0  0  0
   -4.9087   19.0115  -34.7690 H   0  0  0  0  0  0  0  0  0  0  0  0
   -4.4224   21.2260  -33.7279 H   0  0  0  0  0  0  0  0  0  0  0  0
  1  2  1  0
  2  3  2  0
  3  4  1  0
  4  5  2  0
  5  6  1  0
  6  7  2  0
  7  8  1  0
  8  9  2  0
  9 10  1  0
 10 11  2  0
 11 12  1  0
 12 13  2  0
 12 14  1  0
 14 15  1  0
 15 16  2  0
 16 17  1  0
 16 18  1  0
 18 19  1  0
 18 20  1  0
 20 21  1  0
 21 22  2  0
 22 23  1  0
 23 24  2  0
 24 25  1  0
 25 26  2  0
 20 27  1  0
 27 28  2  0
 11  2  1  0
 27 15  1  0
  9  4  1  0
 26 21  1  0
  1 29  1  0
  1 30  1  0
  1 31  1  0
  5 32  1  0
  6 33  1  0
  7 34  1  0
  8 35  1  0
 10 36  1  0
 17 37  1  0
 17 38  1  0
 17 39  1  0
 19 40  1  0
 19 41  1  0
 19 42  1  0
 22 43  1  0
 23 44  1  0
 24 45  1  0
 25 46  1  0
 26 47  1  0
M  CHG  1  14  -1
M  END
>  <UniqueID>  (16) 
16

>  <SMILES>  (16) 
Cc1nc2ccccc2cc1C(=O)[N-]c1c(C)n(C)n(-c2ccccc2)c1=O

>  <Energy>  (16) 
103.01501236932313

>  <Genealogy>  (16) 
Cc1nc2ccccc2cc1C(=O)[N-]c1c(C)n(C)n(-c2ccccc2)c1=O (protonated)
Cc1nc2ccccc2cc1C(=O)[N-]c1c(C)n(C)n(-c2ccccc2)c1=O (3D coordinates assigned)
Cc1nc2ccccc2cc1C(=O)[N-]c1c(C)n(C)n(-c2ccccc2)c1=O (optimized conformer: 103.01501236932313 kcal/mol)

>  <smiles>  (16) 
Cc1nc2ccccc2cc1C(=O)Nc1c(C)n(C)n(-c2ccccc2)c1=O

>  <score_type>  (16) 
oracle

>  <origin>  (16) 
adgpu

>  <m_score__min__energy>  (16) 
-11.18

>  <m_primary>  (16) 
energy

$$$$
16:0
     RDKit          3D

 35 37  0  0  0  0  0  0  0  0999 V2000
   -5.3310   17.1250  -34.0810 C   0  0  0  0  0  0  0  0  0  0  0  0
   -4.8660   18.4190  -34.3330 C   0  0  0  0  0  0  0  0  0  0  0  0
   -5.5650   19.5260  -33.8410 C   0  0  0  0  0  0  0  0  0  0  0  0
   -6.7340   19.3390  -33.0950 C   0  0  0  0  0  0  0  0  0  0  0  0
   -7.4170   20.4130  -32.6130 N   0  0  0  0  0  0  0  0  0  0  0  0
   -8.5580   20.2730  -31.8840 C   0  0  0  0  0  0  0  0  0  0  0  0
   -9.2530   21.4960  -31.3490 C   0  0  0  0  0  0  0  0  0  0  0  0
   -8.3620   22.6680  -31.3260 N   0  0  0  0  0  0  0  0  0  0  0  0
   -7.6130   22.7660  -30.0620 C   0  0  0  0  0  0  0  0  0  0  0  0
   -6.3350   23.5380  -30.2660 C   0  0  0  0  0  0  0  0  0  0  0  0
   -5.1350   22.8650  -30.5370 C   0  0  0  0  0  0  0  0  0  0  0  0
   -3.9680   23.6020  -30.7590 C   0  0  0  0  0  0  0  0  0  0  0  0
   -4.0030   24.9610  -30.7220 N   0  0  0  0  0  0  0  0  0  0  0  0
   -5.1550   25.6380  -30.4740 C   0  0  0  0  0  0  0  0  0  0  0  0
   -6.3440   24.9400  -30.2480 C   0  0  0  0  0  0  0  0  0  0  0  0
   -9.0540   18.9900  -31.6060 C   0  0  0  0  0  0  0  0  0  0  0  0
   -8.3760   17.8680  -32.0870 C   0  0  0  0  0  0  0  0  0  0  0  0
   -7.2060   18.0310  -32.8380 C   0  0  0  0  0  0  0  0  0  0  0  0
   -6.4990   16.9270  -33.3360 C   0  0  0  0  0  0  0  0  0  0  0  0
   -4.7763   16.2584  -34.4701 H   0  0  0  0  0  0  0  0  0  0  0  0
   -3.9476   18.5670  -34.9200 H   0  0  0  0  0  0  0  0  0  0  0  0
   -5.1961   20.5429  -34.0403 H   0  0  0  0  0  0  0  0  0  0  0  0
  -10.1197   21.7207  -31.9881 H   0  0  0  0  0  0  0  0  0  0  0  0
   -9.5661   21.2855  -30.3157 H   0  0  0  0  0  0  0  0  0  0  0  0
   -7.6810   22.5730  -32.1160 H   0  0  0  0  0  0  0  0  0  0  0  0
   -8.9210   23.5420  -31.4780 H   0  0  0  0  0  0  0  0  0  0  0  0
   -8.2321   23.2816  -29.3131 H   0  0  0  0  0  0  0  0  0  0  0  0
   -7.3653   21.7520  -29.7150 H   0  0  0  0  0  0  0  0  0  0  0  0
   -5.1121   21.7659  -30.5746 H   0  0  0  0  0  0  0  0  0  0  0  0
   -3.0205   23.0822  -30.9638 H   0  0  0  0  0  0  0  0  0  0  0  0
   -5.1513   26.7378  -30.4512 H   0  0  0  0  0  0  0  0  0  0  0  0
   -7.2797   25.4860  -30.0575 H   0  0  0  0  0  0  0  0  0  0  0  0
   -9.9721   18.8688  -31.0123 H   0  0  0  0  0  0  0  0  0  0  0  0
   -8.7602   16.8590  -31.8764 H   0  0  0  0  0  0  0  0  0  0  0  0
   -6.8619   15.9070  -33.1413 H   0  0  0  0  0  0  0  0  0  0  0  0
  1  2  2  0
  2  3  1  0
  3  4  2  0
  4  5  1  0
  5  6  2  0
  6  7  1  0
  7  8  1  0
  8  9  1  0
  9 10  1  0
 10 11  2  0
 11 12  1  0
 12 13  2  0
 13 14  1  0
 14 15  2  0
  6 16  1  0
 16 17  2  0
 17 18  1  0
 18 19  2  0
 19  1  1  0
 18  4  1  0
 15 10  1  0
  1 20  1  0
  2 21  1  0
  3 22  1  0
  7 23  1  0
  7 24  1  0
  8 25  1  0
  8 26  1  0
  9 27  1  0
  9 28  1  0
 11 29  1  0
 12 30  1  0
 14 31  1  0
 15 32  1  0
 16 33  1  0
 17 34  1  0
 19 35  1  0
M  CHG  1   8   1
M  END
>  <UniqueID>  (17) 
17

>  <SMILES>  (17) 
c1ccc2nc(C[NH2+]Cc3ccncc3)ccc2c1

>  <Energy>  (17) 
40.025884536518525

>  <Genealogy>  (17) 
c1ccc2nc(C[NH2+]Cc3ccncc3)ccc2c1 (protonated)
c1ccc2nc(C[NH2+]Cc3ccncc3)ccc2c1 (3D coordinates assigned)
c1ccc2nc(C[NH2+]Cc3ccncc3)ccc2c1 (optimized conformer: 40.025884536518525 kcal/mol)

>  <smiles>  (17) 
c1ccc2nc(CNCc3ccncc3)ccc2c1

>  <score_type>  (17) 
oracle

>  <origin>  (17) 
adgpu

>  <m_score__min__energy>  (17) 
-7.3799999999999999

>  <m_primary>  (17) 
energy

$$$$
17:0
     RDKit          3D

 31 32  0  0  0  0  0  0  0  0999 V2000
   -5.4690   18.3620  -34.8250 C   0  0  0  0  0  0  0  0  0  0  0  0
   -5.3830   19.3080  -33.6290 C   0  0  0  0  0  0  0  0  0  0  0  0
   -6.7270   19.5180  -32.9780 C   0  0  0  0  0  0  0  0  0  0  0  0
   -7.3210   20.7350  -32.6780 C   0  0  0  0  0  0  0  0  0  0  0  0
   -6.8590   22.0260  -32.9590 O   0  0  0  0  0  0  0  0  0  0  0  0
   -6.0330   22.7680  -32.1080 C   0  0  0  0  0  0  0  0  0  0  0  0
   -4.6380   22.5990  -32.0910 C   0  0  0  0  0  0  0  0  0  0  0  0
   -3.8700   23.3460  -31.2530 N   0  0  0  0  0  0  0  0  0  0  0  0
   -4.4140   24.2730  -30.4210 C   0  0  0  0  0  0  0  0  0  0  0  0
   -5.7950   24.4870  -30.4200 C   0  0  0  0  0  0  0  0  0  0  0  0
   -6.5040   25.6900  -29.3580 Cl  0  0  0  0  0  0  0  0  0  0  0  0
   -6.6040   23.7330  -31.2740 C   0  0  0  0  0  0  0  0  0  0  0  0
   -8.4510   20.4230  -31.9530 C   0  0  0  0  0  0  0  0  0  0  0  0
   -9.3990   21.3950  -31.3350 C   0  0  0  0  0  0  0  0  0  0  0  0
   -8.5350   19.0870  -31.8090 N   0  0  0  0  0  0  0  0  0  0  0  0
   -7.4910   18.5470  -32.4220 N   0  0  0  0  0  0  0  0  0  0  0  0
   -7.2600   17.1060  -32.4650 C   0  0  0  0  0  0  0  0  0  0  0  0
   -5.5632   17.3261  -34.4671 H   0  0  0  0  0  0  0  0  0  0  0  0
   -6.3473   18.6206  -35.4346 H   0  0  0  0  0  0  0  0  0  0  0  0
   -4.5584   18.4580  -35.4346 H   0  0  0  0  0  0  0  0  0  0  0  0
   -4.6918   18.8811  -32.8874 H   0  0  0  0  0  0  0  0  0  0  0  0
   -5.0246   20.2828  -33.9915 H   0  0  0  0  0  0  0  0  0  0  0  0
   -4.1663   21.8612  -32.7567 H   0  0  0  0  0  0  0  0  0  0  0  0
   -3.7670   24.8550  -29.7482 H   0  0  0  0  0  0  0  0  0  0  0  0
   -7.6913   23.8992  -31.2898 H   0  0  0  0  0  0  0  0  0  0  0  0
   -9.3320   21.3263  -30.2392 H   0  0  0  0  0  0  0  0  0  0  0  0
   -9.1390   22.4148  -31.6551 H   0  0  0  0  0  0  0  0  0  0  0  0
  -10.4250   21.1606  -31.6551 H   0  0  0  0  0  0  0  0  0  0  0  0
   -7.1972   16.7140  -31.4392 H   0  0  0  0  0  0  0  0  0  0  0  0
   -8.0912   16.6170  -32.9941 H   0  0  0  0  0  0  0  0  0  0  0  0
   -6.3176   16.9014  -32.9941 H   0  0  0  0  0  0  0  0  0  0  0  0
  1  2  1  0
  2  3  1  0
  3  4  2  0
  4  5  1  0
  5  6  1  0
  6  7  2  0
  7  8  1  0
  8  9  2  0
  9 10  1  0
 10 11  1  0
 10 12  2  0
  4 13  1  0
 13 14  1  0
 13 15  2  0
 15 16  1  0
 16 17  1  0
 16  3  1  0
 12  6  1  0
  1 18  1  0
  1 19  1  0
  1 20  1  0
  2 21  1  0
  2 22  1  0
  7 23  1  0
  9 24  1  0
 12 25  1  0
 14 26  1  0
 14 27  1  0
 14 28  1  0
 17 29  1  0
 17 30  1  0
 17 31  1  0
M  END
>  <UniqueID>  (18) 
18

>  <SMILES>  (18) 
CCc1c(Oc2cncc(Cl)c2)c(C)nn1C

>  <Energy>  (18) 
65.57208418735375

>  <Genealogy>  (18) 
CCc1c(Oc2cncc(Cl)c2)c(C)nn1C (3D coordinates assigned)
CCc1c(Oc2cncc(Cl)c2)c(C)nn1C (optimized conformer: 65.57208418735375 kcal/mol)

>  <smiles>  (18) 
CCc1c(Oc2cncc(Cl)c2)c(C)nn1C

>  <score_type>  (18) 
oracle

>  <origin>  (18) 
adgpu

>  <m_score__min__energy>  (18) 
-6.4699999999999998

>  <m_primary>  (18) 
energy

$$$$
18:0
     RDKit          3D

 36 38  0  0  0  0  0  0  0  0999 V2000
   -4.0510   21.8130  -31.1140 N   0  0  0  0  0  0  0  0  0  0  0  0
   -4.1750   24.0630  -28.4600 C   0  0  0  0  0  0  0  0  0  0  0  0
   -5.3760   23.7010  -30.8350 C   0  0  0  0  0  0  0  0  0  0  0  0
   -5.9770   23.4160  -32.1550 C   0  0  0  0  0  0  0  0  0  0  0  0
   -7.1130   22.4810  -32.1030 C   0  0  0  0  0  0  0  0  0  0  0  0
   -8.3750   23.0130  -31.9250 C   0  0  0  0  0  0  0  0  0  0  0  0
   -9.4810   22.1920  -31.8680 C   0  0  0  0  0  0  0  0  0  0  0  0
   -9.3840   20.8200  -31.9840 C   0  0  0  0  0  0  0  0  0  0  0  0
   -8.1110   20.2800  -32.1630 C   0  0  0  0  0  0  0  0  0  0  0  0
   -7.9250   18.5360  -32.3170 Cl  0  0  0  0  0  0  0  0  0  0  0  0
   -6.9870   21.1100  -32.2220 C   0  0  0  0  0  0  0  0  0  0  0  0
   -5.7530   24.7850  -30.0620 C   0  0  0  0  0  0  0  0  0  0  0  0
   -5.1100   24.9190  -28.8670 N   0  0  0  0  0  0  0  0  0  0  0  0
   -4.3990   22.8240  -30.3870 C   0  0  0  0  0  0  0  0  0  0  0  0
   -3.6450   24.2930  -27.3240 O   0  0  0  0  0  0  0  0  0  0  0  0
   -3.7840   22.9860  -29.2020 N   0  0  0  0  0  0  0  0  0  0  0  0
   -2.7910   22.1360  -28.6970 C   0  0  0  0  0  0  0  0  0  0  0  0
   -1.4530   22.2340  -29.0420 C   0  0  0  0  0  0  0  0  0  0  0  0
   -0.4890   21.3880  -28.5350 C   0  0  0  0  0  0  0  0  0  0  0  0
   -0.8560   20.3850  -27.6350 C   0  0  0  0  0  0  0  0  0  0  0  0
   -2.1970   20.2640  -27.2710 C   0  0  0  0  0  0  0  0  0  0  0  0
   -3.1240   21.1350  -27.8060 C   0  0  0  0  0  0  0  0  0  0  0  0
   -4.4760   21.6130  -32.0450 H   0  0  0  0  0  0  0  0  0  0  0  0
   -6.3283   24.3643  -32.5878 H   0  0  0  0  0  0  0  0  0  0  0  0
   -5.1967   22.9373  -32.7649 H   0  0  0  0  0  0  0  0  0  0  0  0
   -8.4988   24.1017  -31.8278 H   0  0  0  0  0  0  0  0  0  0  0  0
  -10.4732   22.6451  -31.7254 H   0  0  0  0  0  0  0  0  0  0  0  0
  -10.2759   20.1779  -31.9371 H   0  0  0  0  0  0  0  0  0  0  0  0
   -5.9907   20.6662  -32.3648 H   0  0  0  0  0  0  0  0  0  0  0  0
   -6.5250   25.4959  -30.3917 H   0  0  0  0  0  0  0  0  0  0  0  0
   -5.3860   25.7330  -28.2730 H   0  0  0  0  0  0  0  0  0  0  0  0
   -1.1468   23.0188  -29.7494 H   0  0  0  0  0  0  0  0  0  0  0  0
    0.5624   21.5025  -28.8376 H   0  0  0  0  0  0  0  0  0  0  0  0
   -0.1001   19.7019  -27.2202 H   0  0  0  0  0  0  0  0  0  0  0  0
   -2.5125   19.4821  -26.5645 H   0  0  0  0  0  0  0  0  0  0  0  0
   -4.1775   21.0268  -27.5088 H   0  0  0  0  0  0  0  0  0  0  0  0
  1  2  2  3
  2  3  1  0
  3  4  1  0
  4  5  1  0
  5  6  2  0
  6  7  1  0
  7  8  2  0
  8  9  1  0
  9 10  1  0
  9 11  2  0
  3 12  2  0
 12 13  1  0
 13 14  1  0
 14 15  2  0
 14 16  1  0
 16 17  1  0
 17 18  2  0
 18 19  1  0
 19 20  2  0
 20 21  1  0
 21 22  2  0
 16  2  1  0
 22 17  1  0
 11  5  1  0
  1 23  1  0
  4 24  1  0
  4 25  1  0
  6 26  1  0
  7 27  1  0
  8 28  1  0
 11 29  1  0
 12 30  1  0
 13 31  1  0
 18 32  1  0
 19 33  1  0
 20 34  1  0
 21 35  1  0
 22 36  1  0
M  END
>  <smiles>  (19) 
N=c1c(Cc2cccc(Cl)c2)c[nH]c(=O)n1-c1ccccc1

>  <score_type>  (19) 
oracle

>  <origin>  (19) 
adgpu

>  <m_score__min__energy>  (19) 
-8.3800000000000008

>  <m_primary>  (19) 
energy

$$$$
19:0
     RDKit          3D

 40 41  0  0  0  0  0  0  0  0999 V2000
   -9.7060   21.9020  -32.1460 C   0  0  0  0  0  0  0  0  0  0  0  0
   -8.4000   22.3900  -31.5930 C   0  0  0  0  0  0  0  0  0  0  0  0
   -7.5190   23.1230  -32.4030 C   0  0  0  0  0  0  0  0  0  0  0  0
   -6.3190   23.6110  -31.8790 C   0  0  0  0  0  0  0  0  0  0  0  0
   -5.9920   23.3820  -30.5350 C   0  0  0  0  0  0  0  0  0  0  0  0
   -4.4940   24.0070  -29.8510 S   0  0  0  0  0  0  0  0  0  0  0  0
   -3.8870   24.9610  -30.8410 O   0  0  0  0  0  0  0  0  0  0  0  0
   -4.7820   24.7560  -28.5780 O   0  0  0  0  0  0  0  0  0  0  0  0
   -3.3980   22.6810  -29.5330 N   0  0  0  0  0  0  0  0  0  0  0  0
   -2.8520   22.8270  -28.1770 C   0  0  0  0  0  0  0  0  0  0  0  0
   -2.3030   22.6680  -30.5210 C   0  0  0  0  0  0  0  0  0  0  0  0
   -2.7310   21.9530  -31.7680 C   0  0  0  0  0  0  0  0  0  0  0  0
   -1.9530   21.9150  -32.7610 O   0  0  0  0  0  0  0  0  0  0  0  0
   -4.0100   21.3070  -31.8240 N   0  0  0  0  0  0  0  0  0  0  0  0
   -4.4860   20.6130  -33.0170 C   0  0  0  0  0  0  0  0  0  0  0  0
   -5.7460   19.8680  -32.7090 C   0  0  0  0  0  0  0  0  0  0  0  0
   -6.4460   19.0640  -33.5860 C   0  0  0  0  0  0  0  0  0  0  0  0
   -7.5160   18.5760  -32.8660 C   0  0  0  0  0  0  0  0  0  0  0  0
   -7.4010   19.1130  -31.5990 C   0  0  0  0  0  0  0  0  0  0  0  0
   -6.3350   19.8770  -31.5360 O   0  0  0  0  0  0  0  0  0  0  0  0
   -6.8810   22.6710  -29.7190 C   0  0  0  0  0  0  0  0  0  0  0  0
   -8.0810   22.1810  -30.2420 C   0  0  0  0  0  0  0  0  0  0  0  0
  -10.3835   21.6489  -31.3172 H   0  0  0  0  0  0  0  0  0  0  0  0
  -10.1606   22.6909  -32.7632 H   0  0  0  0  0  0  0  0  0  0  0  0
   -9.5318   21.0083  -32.7632 H   0  0  0  0  0  0  0  0  0  0  0  0
   -7.7744   23.3144  -33.4557 H   0  0  0  0  0  0  0  0  0  0  0  0
   -5.6291   24.1763  -32.5227 H   0  0  0  0  0  0  0  0  0  0  0  0
   -3.6405   22.6162  -27.4396 H   0  0  0  0  0  0  0  0  0  0  0  0
   -2.0213   22.1194  -28.0380 H   0  0  0  0  0  0  0  0  0  0  0  0
   -2.4853   23.8547  -28.0380 H   0  0  0  0  0  0  0  0  0  0  0  0
   -2.0299   23.7034  -30.7727 H   0  0  0  0  0  0  0  0  0  0  0  0
   -1.4386   22.1431  -30.0881 H   0  0  0  0  0  0  0  0  0  0  0  0
   -4.6390   21.3540  -30.9900 H   0  0  0  0  0  0  0  0  0  0  0  0
   -4.6827   21.3479  -33.8115 H   0  0  0  0  0  0  0  0  0  0  0  0
   -3.7176   19.8995  -33.3495 H   0  0  0  0  0  0  0  0  0  0  0  0
   -6.2016   18.8562  -34.6382 H   0  0  0  0  0  0  0  0  0  0  0  0
   -8.3019   17.8966  -33.2276 H   0  0  0  0  0  0  0  0  0  0  0  0
   -8.0975   18.9285  -30.7678 H   0  0  0  0  0  0  0  0  0  0  0  0
   -6.6336   22.4974  -28.6613 H   0  0  0  0  0  0  0  0  0  0  0  0
   -8.7775   21.6299  -29.5930 H   0  0  0  0  0  0  0  0  0  0  0  0
  1  2  1  0
  2  3  2  0
  3  4  1  0
  4  5  2  0
  5  6  1  0
  6  7  2  0
  6  8  2  0
  6  9  1  0
  9 10  1  0
  9 11  1  0
 11 12  1  0
 12 13  2  0
 12 14  1  0
 14 15  1  0
 15 16  1  0
 16 17  2  0
 17 18  1  0
 18 19  2  0
 19 20  1  0
  5 21  1  0
 21 22  2  0
 22  2  1  0
 20 16  1  0
  1 23  1  0
  1 24  1  0
  1 25  1  0
  3 26  1  0
  4 27  1  0
 10 28  1  0
 10 29  1  0
 10 30  1  0
 11 31  1  0
 11 32  1  0
 14 33  1  0
 15 34  1  0
 15 35  1  0
 17 36  1  0
 18 37  1  0
 19 38  1  0
 21 39  1  0
 22 40  1  0
M  END
>  <UniqueID>  (20) 
19

>  <SMILES>  (20) 
Cc1ccc(S(=O)(=O)N(C)CC(=O)NCc2ccco2)cc1

>  <Energy>  (20) 
59.56424170132119

>  <Genealogy>  (20) 
Cc1ccc(S(=O)(=O)N(C)CC(=O)NCc2ccco2)cc1 (3D coordinates assigned)
Cc1ccc(S(=O)(=O)N(C)CC(=O)NCc2ccco2)cc1 (optimized conformer: 59.56424170132119 kcal/mol)

>  <smiles>  (20) 
Cc1ccc(S(=O)(=O)N(C)CC(=O)NCc2ccco2)cc1

>  <score_type>  (20) 
oracle

>  <origin>  (20) 
adgpu

>  <m_score__min__energy>  (20) 
-8.8200000000000003

>  <m_primary>  (20) 
energy

$$$$
20:0
     RDKit          3D

 28 29  0  0  0  0  0  0  0  0999 V2000
   -4.2000   25.6910  -31.7970 H   0  0  0  0  0  0  0  0  0  0  0  0
   -4.2420   25.7310  -30.7860 O   0  0  0  0  0  0  0  0  0  0  0  0
   -3.6140   24.7680  -30.0010 C   0  0  0  0  0  0  0  0  0  0  0  0
   -2.4470   24.9950  -29.3520 N   0  0  0  0  0  0  0  0  0  0  0  0
   -2.1880   23.8320  -28.7200 C   0  0  0  0  0  0  0  0  0  0  0  0
   -1.0850   23.5620  -27.9130 C   0  0  0  0  0  0  0  0  0  0  0  0
   -0.3154   24.3270  -27.7329 H   0  0  0  0  0  0  0  0  0  0  0  0
   -0.9830   22.2840  -27.3350 C   0  0  0  0  0  0  0  0  0  0  0  0
   -0.1231   22.0416  -26.6932 H   0  0  0  0  0  0  0  0  0  0  0  0
   -1.9770   21.3100  -27.5730 C   0  0  0  0  0  0  0  0  0  0  0  0
   -1.8210   19.5800  -26.7790 Br  0  0  0  0  0  0  0  0  0  0  0  0
   -3.0830   21.6050  -28.3920 C   0  0  0  0  0  0  0  0  0  0  0  0
   -3.8636   20.8543  -28.5843 H   0  0  0  0  0  0  0  0  0  0  0  0
   -3.1570   22.8830  -28.9530 C   0  0  0  0  0  0  0  0  0  0  0  0
   -4.0840   23.4850  -29.7820 C   0  0  0  0  0  0  0  0  0  0  0  0
   -5.2900   22.9390  -30.3270 N   0  0  0  0  0  0  0  0  0  0  0  0
   -5.5760   23.0320  -31.5610 N   0  0  0  0  0  0  0  0  0  0  0  0
   -6.7750   22.4960  -32.1380 C   0  0  0  0  0  0  0  0  0  0  0  0
   -8.1490   23.3690  -31.9770 S   0  0  0  0  0  0  0  0  0  0  0  0
   -6.8290   21.2400  -32.8460 N   0  0  0  0  0  0  0  0  0  0  0  0
   -7.7580   20.9480  -33.2250 H   0  0  0  0  0  0  0  0  0  0  0  0
   -5.6820   20.3570  -33.0650 C   0  0  0  0  0  0  0  0  0  0  0  0
   -5.2878   20.0313  -32.0911 H   0  0  0  0  0  0  0  0  0  0  0  0
   -4.9151   20.9116  -33.6256 H   0  0  0  0  0  0  0  0  0  0  0  0
   -6.0840   19.1280  -33.8770 C   0  0  0  0  0  0  0  0  0  0  0  0
   -6.3520   18.3087  -33.1937 H   0  0  0  0  0  0  0  0  0  0  0  0
   -6.9484   19.3742  -34.5111 H   0  0  0  0  0  0  0  0  0  0  0  0
   -5.2412   18.8157  -34.5111 H   0  0  0  0  0  0  0  0  0  0  0  0
  1  2  1  0
  2  3  1  0
  3  4  1  0
  4  5  1  0
  5  6  2  0
  6  7  1  0
  6  8  1  0
  8  9  1  0
  8 10  2  0
 10 11  1  0
 10 12  1  0
 12 13  1  0
 12 14  2  0
 14 15  1  0
 15 16  1  0
 16 17  2  0
 17 18  1  0
 18 19  2  0
 18 20  1  0
 20 21  1  0
 20 22  1  0
 22 23  1  0
 22 24  1  0
 22 25  1  0
 25 26  1  0
 25 27  1  0
 25 28  1  0
 15  3  2  0
 14  5  1  0
M  CHG  1   4  -1
M  END
>  <UniqueID>  (21) 
20

>  <SMILES>  (21) 
CCNC(=S)/N=N/c1c(O)[n-]c2ccc(Br)cc12

>  <Energy>  (21) 
58.50282455842038

>  <Genealogy>  (21) 
CCNC(=S)N=Nc1c(O)[n-]c2ccc(Br)cc12 (protonated)
CCNC(=S)/N=N/c1c(O)[n-]c2ccc(Br)cc12 (cis-trans isomerization)
CCNC(=S)/N=N/c1c(O)[n-]c2ccc(Br)cc12 (3D coordinates assigned)
CCNC(=S)/N=N/c1c(O)[n-]c2ccc(Br)cc12 (optimized conformer: 58.50282455842038 kcal/mol)

>  <smiles>  (21) 
CCNC(=S)N=Nc1c(O)[nH]c2ccc(Br)cc12

>  <score_type>  (21) 
oracle

>  <origin>  (21) 
adgpu

>  <m_score__min__energy>  (21) 
-9.2599999999999998

>  <m_primary>  (21) 
energy

$$$$
21:0
     RDKit          3D

 34 35  0  0  0  0  0  0  0  0999 V2000
   -9.1270   19.6420  -32.6460 C   0  0  0  0  0  0  0  0  0  0  0  0
   -7.9740   20.3840  -32.0540 C   0  0  0  0  0  0  0  0  0  0  0  0
   -7.0140   19.7370  -31.5560 O   0  0  0  0  0  0  0  0  0  0  0  0
   -8.0120   21.8170  -31.9740 N   0  0  0  0  0  0  0  0  0  0  0  0
   -6.8920   22.6330  -31.5920 C   0  0  0  0  0  0  0  0  0  0  0  0
   -7.0540   23.7760  -30.7900 C   0  0  0  0  0  0  0  0  0  0  0  0
   -5.9460   24.5410  -30.4170 C   0  0  0  0  0  0  0  0  0  0  0  0
   -4.6570   24.1770  -30.8420 C   0  0  0  0  0  0  0  0  0  0  0  0
   -3.4970   24.9340  -30.4680 N   0  0  0  0  0  0  0  0  0  0  0  0
   -2.5770   24.6080  -29.4170 C   0  0  0  0  0  0  0  0  0  0  0  0
   -1.8520   25.5250  -28.9460 O   0  0  0  0  0  0  0  0  0  0  0  0
   -2.4940   23.2470  -28.8360 C   0  0  0  0  0  0  0  0  0  0  0  0
   -3.5620   22.7370  -28.0820 C   0  0  0  0  0  0  0  0  0  0  0  0
   -3.4930   21.4540  -27.5310 C   0  0  0  0  0  0  0  0  0  0  0  0
   -2.3580   20.6500  -27.7330 C   0  0  0  0  0  0  0  0  0  0  0  0
   -2.2900   19.3300  -27.1630 N   0  0  0  0  0  0  0  0  0  0  0  0
   -3.3180   18.7730  -26.7210 O   0  0  0  0  0  0  0  0  0  0  0  0
   -1.0920   18.6570  -27.0970 O   0  0  0  0  0  0  0  0  0  0  0  0
   -1.2970   21.1550  -28.5040 C   0  0  0  0  0  0  0  0  0  0  0  0
   -1.3660   22.4380  -29.0550 C   0  0  0  0  0  0  0  0  0  0  0  0
   -4.4900   23.0140  -31.6020 C   0  0  0  0  0  0  0  0  0  0  0  0
   -5.5990   22.2470  -31.9740 C   0  0  0  0  0  0  0  0  0  0  0  0
   -9.7558   19.2374  -31.8392 H   0  0  0  0  0  0  0  0  0  0  0  0
   -9.7233   20.3263  -33.2674 H   0  0  0  0  0  0  0  0  0  0  0  0
   -8.7512   18.8158  -33.2674 H   0  0  0  0  0  0  0  0  0  0  0  0
   -8.9350   22.2870  -32.1230 H   0  0  0  0  0  0  0  0  0  0  0  0
   -8.0593   24.0700  -30.4540 H   0  0  0  0  0  0  0  0  0  0  0  0
   -6.0833   25.4326  -29.7876 H   0  0  0  0  0  0  0  0  0  0  0  0
   -4.4604   23.3515  -27.9233 H   0  0  0  0  0  0  0  0  0  0  0  0
   -4.3339   21.0706  -26.9345 H   0  0  0  0  0  0  0  0  0  0  0  0
   -0.4045   20.5353  -28.6754 H   0  0  0  0  0  0  0  0  0  0  0  0
   -0.5319   22.8167  -29.6639 H   0  0  0  0  0  0  0  0  0  0  0  0
   -3.4810   22.7012  -31.9086 H   0  0  0  0  0  0  0  0  0  0  0  0
   -5.4559   21.3341  -32.5707 H   0  0  0  0  0  0  0  0  0  0  0  0
  1  2  1  0
  2  3  2  0
  2  4  1  0
  4  5  1  0
  5  6  2  0
  6  7  1  0
  7  8  2  0
  8  9  1  0
  9 10  1  0
 10 11  2  0
 10 12  1  0
 12 13  2  0
 13 14  1  0
 14 15  2  0
 15 16  1  0
 16 17  2  0
 16 18  1  0
 15 19  1  0
 19 20  2  0
  8 21  1  0
 21 22  2  0
 22  5  1  0
 20 12  1  0
  1 23  1  0
  1 24  1  0
  1 25  1  0
  4 26  1  0
  6 27  1  0
  7 28  1  0
 13 29  1  0
 14 30  1  0
 19 31  1  0
 20 32  1  0
 21 33  1  0
 22 34  1  0
M  CHG  3   9  -1  16   1  18  -1
M  END
>  <UniqueID>  (22) 
21

>  <SMILES>  (22) 
CC(=O)Nc1ccc([N-]C(=O)c2ccc([N+](=O)[O-])cc2)cc1

>  <Energy>  (22) 
44.13668188652687

>  <Genealogy>  (22) 
CC(=O)Nc1ccc([N-]C(=O)c2ccc([N+](=O)[O-])cc2)cc1 (protonated)
CC(=O)Nc1ccc([N-]C(=O)c2ccc([N+](=O)[O-])cc2)cc1 (3D coordinates assigned)
CC(=O)Nc1ccc([N-]C(=O)c2ccc([N+](=O)[O-])cc2)cc1 (optimized conformer: 44.13668188652687 kcal/mol)

>  <smiles>  (22) 
CC(=O)Nc1ccc(NC(=O)c2ccc([N+](=O)[O-])cc2)cc1

>  <score_type>  (22) 
oracle

>  <origin>  (22) 
adgpu

>  <m_score__min__energy>  (22) 
-9.1999999999999993

>  <m_primary>  (22) 
energy

$$$$
22:0
     RDKit          3D

 40 43  0  0  1  0  0  0  0  0999 V2000
   -6.5450   24.4720  -29.5990 O   0  0  0  0  0  0  0  0  0  0  0  0
   -5.1930   24.1980  -30.2700 S   0  0  0  0  0  0  0  0  0  0  0  0
   -5.0380   25.3620  -31.2290 O   0  0  0  0  0  0  0  0  0  0  0  0
   -5.3900   22.6950  -31.0640 N   0  0  0  0  0  0  0  0  0  0  0  0
   -6.4930   22.1430  -31.4000 C   0  0  0  0  0  0  0  0  0  0  0  0
   -7.6420   22.7760  -31.1170 N   0  0  0  0  0  0  0  0  0  0  0  0
   -8.8580   22.3080  -31.4420 C   0  0  0  0  0  0  0  0  0  0  0  0
   -8.9670   21.1160  -32.0990 N   0  0  0  0  0  0  0  0  0  0  0  0
   -7.8330   20.4450  -32.4030 C   0  0  0  0  0  0  0  0  0  0  0  0
   -7.9570   19.2620  -33.0750 N   0  0  0  0  0  0  0  0  0  0  0  0
   -6.8430   18.5690  -33.4110 C   0  0  0  0  0  0  0  0  0  0  0  0
   -5.5870   19.0520  -33.0740 C   0  0  0  0  0  0  0  0  0  0  0  0
   -5.4440   20.2620  -32.3840 C   0  0  0  0  0  0  0  0  0  0  0  0
   -4.1000   20.6460  -32.0290 C   0  0  0  0  0  0  0  0  0  0  0  0
   -3.3100   21.1910  -33.0490 C   0  0  0  0  0  0  0  0  0  0  0  0
   -1.9970   21.5410  -32.7960 C   0  0  0  0  0  0  0  0  0  0  0  0
   -1.4340   21.3680  -31.5520 C   0  0  0  0  0  0  0  0  0  0  0  0
   -2.1950   20.8320  -30.5340 C   0  0  0  0  0  0  0  0  0  0  0  0
   -3.5040   20.4910  -30.8160 C   0  0  0  0  0  0  0  0  0  0  0  0
   -6.5900   20.9400  -32.0620 C   0  0  0  0  0  0  0  0  0  0  0  0
   -3.9970   24.2110  -29.0270 C   0  0  0  0  0  0  0  0  0  0  0  0
   -2.6550   24.0070  -29.3680 C   0  0  0  0  0  0  0  0  0  0  0  0
   -1.6590   24.0040  -28.4060 C   0  0  0  0  0  0  0  0  0  0  0  0
   -1.9470   24.2020  -27.0710 C   0  0  0  0  0  0  0  0  0  0  0  0
   -3.2670   24.4060  -26.7190 C   0  0  0  0  0  0  0  0  0  0  0  0
   -4.2460   24.4050  -27.6870 C   0  0  0  0  0  0  0  0  0  0  0  0
   -7.5970   23.6870  -30.6170 H   0  0  0  0  0  0  0  0  0  0  0  0
   -9.7600   22.8809  -31.1808 H   0  0  0  0  0  0  0  0  0  0  0  0
   -6.9347   17.6171  -33.9546 H   0  0  0  0  0  0  0  0  0  0  0  0
   -4.6916   18.4769  -33.3525 H   0  0  0  0  0  0  0  0  0  0  0  0
   -3.7349   21.3407  -34.0525 H   0  0  0  0  0  0  0  0  0  0  0  0
   -1.3884   21.9674  -33.6070 H   0  0  0  0  0  0  0  0  0  0  0  0
   -0.3874   21.6544  -31.3714 H   0  0  0  0  0  0  0  0  0  0  0  0
   -1.7731   20.6808  -29.5294 H   0  0  0  0  0  0  0  0  0  0  0  0
   -4.1072   20.0637  -30.0015 H   0  0  0  0  0  0  0  0  0  0  0  0
   -2.3858   23.8457  -30.4223 H   0  0  0  0  0  0  0  0  0  0  0  0
   -0.6154   23.8402  -28.7127 H   0  0  0  0  0  0  0  0  0  0  0  0
   -1.1511   24.1975  -26.3117 H   0  0  0  0  0  0  0  0  0  0  0  0
   -3.5361   24.5693  -25.6650 H   0  0  0  0  0  0  0  0  0  0  0  0
   -5.2870   24.5686  -27.3716 H   0  0  0  0  0  0  0  0  0  0  0  0
  1  2  2  0
  2  3  2  0
  2  4  1  0
  4  5  2  0
  5  6  1  0
  6  7  1  0
  7  8  2  0
  8  9  1  0
  9 10  2  0
 10 11  1  0
 11 12  2  0
 12 13  1  0
 13 14  1  0
 14 15  2  0
 15 16  1  0
 16 17  2  0
 17 18  1  0
 18 19  2  0
 13 20  2  0
  2 21  1  0
 21 22  2  0
 22 23  1  0
 23 24  2  0
 24 25  1  0
 25 26  2  0
 20  5  1  0
 26 21  1  0
 20  9  1  0
 19 14  1  0
  6 27  1  0
  7 28  1  0
 11 29  1  0
 12 30  1  0
 15 31  1  0
 16 32  1  0
 17 33  1  0
 18 34  1  0
 19 35  1  0
 22 36  1  0
 23 37  1  0
 24 38  1  0
 25 39  1  0
 26 40  1  0
M  END
>  <smiles>  (23) 
O=S(=O)(N=c1[nH]cnc2nccc(-c3ccccc3)c12)c1ccccc1

>  <score_type>  (23) 
oracle

>  <origin>  (23) 
adgpu

>  <m_score__min__energy>  (23) 
-8.6500000000000004

>  <m_primary>  (23) 
energy

$$$$
23:0
     RDKit          3D

 31 32  0  0  0  0  0  0  0  0999 V2000
   -5.7490   25.2940  -29.3160 C   0  0  0  0  0  0  0  0  0  0  0  0
   -5.2440   25.0710  -30.7440 C   0  0  1  0  0  0  0  0  0  0  0  0
   -3.7840   25.0150  -30.7650 N   0  0  0  0  0  0  0  0  0  0  0  0
   -2.9800   24.5900  -29.6570 C   0  0  0  0  0  0  0  0  0  0  0  0
   -2.3590   25.4460  -28.9690 O   0  0  0  0  0  0  0  0  0  0  0  0
   -2.8710   23.1490  -29.3260 C   0  0  0  0  0  0  0  0  0  0  0  0
   -2.3460   22.2380  -30.2630 C   0  0  0  0  0  0  0  0  0  0  0  0
   -2.2440   20.8790  -29.9480 C   0  0  0  0  0  0  0  0  0  0  0  0
   -2.6610   20.4160  -28.6990 C   0  0  0  0  0  0  0  0  0  0  0  0
   -3.1820   21.3100  -27.7610 C   0  0  0  0  0  0  0  0  0  0  0  0
   -3.2880   22.6700  -28.0700 C   0  0  0  0  0  0  0  0  0  0  0  0
   -5.8090   23.7860  -31.3050 C   0  0  0  0  0  0  0  0  0  0  0  0
   -7.1550   23.4460  -31.0780 C   0  0  0  0  0  0  0  0  0  0  0  0
   -7.6750   22.2470  -31.5750 C   0  0  0  0  0  0  0  0  0  0  0  0
   -6.8570   21.3720  -32.2940 C   0  0  0  0  0  0  0  0  0  0  0  0
   -7.3630   20.2090  -32.7730 F   0  0  0  0  0  0  0  0  0  0  0  0
   -5.5140   21.6930  -32.5150 C   0  0  0  0  0  0  0  0  0  0  0  0
   -4.9900   22.8910  -32.0210 C   0  0  0  0  0  0  0  0  0  0  0  0
   -4.9851   24.9567  -28.6000 H   0  0  0  0  0  0  0  0  0  0  0  0
   -5.9496   26.3644  -29.1610 H   0  0  0  0  0  0  0  0  0  0  0  0
   -6.6752   24.7212  -29.1610 H   0  0  0  0  0  0  0  0  0  0  0  0
   -5.5796   25.9143  -31.3654 H   0  0  0  0  0  0  0  0  0  0  0  0
   -2.0142   22.5973  -31.2483 H   0  0  0  0  0  0  0  0  0  0  0  0
   -1.8343   20.1737  -30.6861 H   0  0  0  0  0  0  0  0  0  0  0  0
   -2.5793   19.3469  -28.4535 H   0  0  0  0  0  0  0  0  0  0  0  0
   -3.5097   20.9437  -26.7769 H   0  0  0  0  0  0  0  0  0  0  0  0
   -3.6996   23.3691  -27.3272 H   0  0  0  0  0  0  0  0  0  0  0  0
   -7.8022   24.1273  -30.5062 H   0  0  0  0  0  0  0  0  0  0  0  0
   -8.7306   21.9921  -31.3995 H   0  0  0  0  0  0  0  0  0  0  0  0
   -4.8694   21.0021  -33.0781 H   0  0  0  0  0  0  0  0  0  0  0  0
   -3.9315   23.1364  -32.1924 H   0  0  0  0  0  0  0  0  0  0  0  0
  1  2  1  0
  2  3  1  0
  3  4  1  0
  4  5  2  0
  4  6  1  0
  6  7  2  0
  7  8  1  0
  8  9  2  0
  9 10  1  0
 10 11  2  0
  2 12  1  0
 12 13  2  0
 13 14  1  0
 14 15  2  0
 15 16  1  0
 15 17  1  0
 17 18  2  0
 11  6  1  0
 18 12  1  0
  1 19  1  0
  1 20  1  0
  1 21  1  0
  2 22  1  6
  7 23  1  0
  8 24  1  0
  9 25  1  0
 10 26  1  0
 11 27  1  0
 13 28  1  0
 14 29  1  0
 17 30  1  0
 18 31  1  0
M  CHG  1   3  -1
M  END
>  <UniqueID>  (24) 
22

>  <SMILES>  (24) 
C[C@@H]([N-]C(=O)c1ccccc1)c1ccc(F)cc1

>  <Energy>  (24) 
28.89947941253826

>  <Genealogy>  (24) 
CC([N-]C(=O)c1ccccc1)c1ccc(F)cc1 (protonated)
C[C@@H]([N-]C(=O)c1ccccc1)c1ccc(F)cc1 (chirality)
C[C@@H]([N-]C(=O)c1ccccc1)c1ccc(F)cc1 (3D coordinates assigned)
C[C@@H]([N-]C(=O)c1ccccc1)c1ccc(F)cc1 (optimized conformer: 28.89947941253826 kcal/mol)

>  <smiles>  (24) 
CC(NC(=O)c1ccccc1)c1ccc(F)cc1

>  <score_type>  (24) 
oracle

>  <origin>  (24) 
adgpu

>  <m_score__min__energy>  (24) 
-8.1199999999999992

>  <m_primary>  (24) 
energy

$$$$
24:0
     RDKit          3D

 46 51  0  0  0  0  0  0  0  0999 V2000
   -0.1560   19.3830  -30.0700 C   0  0  0  0  0  0  0  0  0  0  0  0
   -0.6010   20.4010  -31.0250 N   0  0  0  0  0  0  0  0  0  0  0  0
   -0.1970   20.3350  -32.3990 C   0  0  0  0  0  0  0  0  0  0  0  0
    1.1380   20.0390  -32.7270 C   0  0  0  0  0  0  0  0  0  0  0  0
    1.5410   19.9740  -34.0620 C   0  0  0  0  0  0  0  0  0  0  0  0
    0.6150   20.1940  -35.0820 C   0  0  0  0  0  0  0  0  0  0  0  0
   -0.7140   20.4830  -34.7670 C   0  0  0  0  0  0  0  0  0  0  0  0
   -1.1260   20.5800  -33.4320 C   0  0  0  0  0  0  0  0  0  0  0  0
   -2.5250   20.7700  -33.1710 N   0  0  0  0  0  0  0  0  0  0  0  0
   -3.1030   21.3940  -32.1820 C   0  0  0  0  0  0  0  0  0  0  0  0
   -4.5880   21.3880  -32.1360 C   0  0  0  0  0  0  0  0  0  0  0  0
   -5.3060   22.5960  -32.0710 C   0  0  0  0  0  0  0  0  0  0  0  0
   -6.7010   22.5950  -32.0170 C   0  0  0  0  0  0  0  0  0  0  0  0
   -7.4080   21.3830  -32.0190 C   0  0  0  0  0  0  0  0  0  0  0  0
   -8.8090   21.3720  -31.9660 C   0  0  0  0  0  0  0  0  0  0  0  0
   -9.5010   20.1560  -31.9660 C   0  0  0  0  0  0  0  0  0  0  0  0
   -8.8010   18.9490  -32.0190 C   0  0  0  0  0  0  0  0  0  0  0  0
   -7.4040   18.9480  -32.0720 C   0  0  0  0  0  0  0  0  0  0  0  0
   -6.6970   20.1610  -32.0720 C   0  0  0  0  0  0  0  0  0  0  0  0
   -5.2950   20.1720  -32.1270 C   0  0  0  0  0  0  0  0  0  0  0  0
   -2.3360   22.1640  -31.1620 C   0  0  0  0  0  0  0  0  0  0  0  0
   -2.8260   23.4250  -30.7410 C   0  0  0  0  0  0  0  0  0  0  0  0
   -2.1500   24.0920  -29.7260 C   0  0  0  0  0  0  0  0  0  0  0  0
   -2.4520   25.2810  -29.1850 N   0  0  0  0  0  0  0  0  0  0  0  0
   -1.4710   25.4280  -28.2590 C   0  0  0  0  0  0  0  0  0  0  0  0
   -1.3900   26.4400  -27.5170 O   0  0  0  0  0  0  0  0  0  0  0  0
   -0.5800   24.4050  -28.1920 N   0  0  0  0  0  0  0  0  0  0  0  0
   -1.0430   23.5720  -29.1370 C   0  0  0  0  0  0  0  0  0  0  0  0
   -0.5130   22.3470  -29.5210 C   0  0  0  0  0  0  0  0  0  0  0  0
   -1.1610   21.6330  -30.5550 C   0  0  0  0  0  0  0  0  0  0  0  0
   -0.3154   19.7477  -29.0445 H   0  0  0  0  0  0  0  0  0  0  0  0
   -0.7322   18.4588  -30.2242 H   0  0  0  0  0  0  0  0  0  0  0  0
    0.9137   19.1782  -30.2242 H   0  0  0  0  0  0  0  0  0  0  0  0
    1.8698   19.8574  -31.9261 H   0  0  0  0  0  0  0  0  0  0  0  0
    2.5889   19.7493  -34.3097 H   0  0  0  0  0  0  0  0  0  0  0  0
    0.9319   20.1398  -36.1340 H   0  0  0  0  0  0  0  0  0  0  0  0
   -1.4445   20.6360  -35.5751 H   0  0  0  0  0  0  0  0  0  0  0  0
   -4.7621   23.5521  -32.0626 H   0  0  0  0  0  0  0  0  0  0  0  0
   -7.2481   23.5482  -31.9727 H   0  0  0  0  0  0  0  0  0  0  0  0
   -9.3647   22.3204  -31.9244 H   0  0  0  0  0  0  0  0  0  0  0  0
  -10.6002   20.1508  -31.9241 H   0  0  0  0  0  0  0  0  0  0  0  0
   -9.3504   17.9960  -32.0191 H   0  0  0  0  0  0  0  0  0  0  0  0
   -6.8573   17.9944  -32.1138 H   0  0  0  0  0  0  0  0  0  0  0  0
   -4.7436   19.2209  -32.1634 H   0  0  0  0  0  0  0  0  0  0  0  0
   -3.7201   23.8656  -31.2063 H   0  0  0  0  0  0  0  0  0  0  0  0
    0.3867   21.9432  -29.0337 H   0  0  0  0  0  0  0  0  0  0  0  0
  1  2  1  0
  2  3  1  0
  3  4  2  0
  4  5  1  0
  5  6  2  0
  6  7  1  0
  7  8  2  0
  8  9  1  0
  9 10  2  0
 10 11  1  0
 11 12  2  0
 12 13  1  0
 13 14  2  0
 14 15  1  0
 15 16  2  0
 16 17  1  0
 17 18  2  0
 18 19  1  0
 19 20  2  0
 10 21  1  0
 21 22  2  0
 22 23  1  0
 23 24  1  0
 24 25  1  0
 25 26  2  0
 25 27  1  0
 27 28  1  0
 28 29  1  0
 29 30  2  0
 30  2  1  0
  8  3  1  0
 20 11  1  0
 30 21  1  0
 19 14  1  0
 28 23  2  0
  1 31  1  0
  1 32  1  0
  1 33  1  0
  4 34  1  0
  5 35  1  0
  6 36  1  0
  7 37  1  0
 12 38  1  0
 13 39  1  0
 15 40  1  0
 16 41  1  0
 17 42  1  0
 18 43  1  0
 20 44  1  0
 22 45  1  0
 29 46  1  0
M  CHG  2  24  -1  27  -1
M  END
>  <UniqueID>  (25) 
23

>  <SMILES>  (25) 
CN1c2ccccc2N=C(c2ccc3ccccc3c2)c2cc3[n-]c(=O)[n-]c3cc21

>  <Energy>  (25) 
119.25098576027176

>  <Genealogy>  (25) 
CN1c2ccccc2N=C(c2ccc3ccccc3c2)c2cc3[n-]c(=O)[n-]c3cc21 (protonated)
CN1c2ccccc2N=C(c2ccc3ccccc3c2)c2cc3[n-]c(=O)[n-]c3cc21 (3D coordinates assigned)
CN1c2ccccc2N=C(c2ccc3ccccc3c2)c2cc3[n-]c(=O)[n-]c3cc21 (nonaromatic ring conformer: 119.25098576027176 kcal/mol)

>  <smiles>  (25) 
CN1c2ccccc2N=C(c2ccc3ccccc3c2)c2cc3[nH]c(=O)[nH]c3cc21

>  <score_type>  (25) 
oracle

>  <origin>  (25) 
adgpu

>  <m_score__min__energy>  (25) 
-12.19

>  <m_primary>  (25) 
energy

$$$$
25:0
     RDKit          3D

 26 27  0  0  0  0  0  0  0  0999 V2000
   -3.5020   25.5770  -29.5280 H   0  0  0  0  0  0  0  0  0  0  0  0
   -3.8310   25.2990  -30.4800 N   0  0  0  0  0  0  0  0  0  0  0  0
   -4.8770   24.5560  -30.6430 C   0  0  0  0  0  0  0  0  0  0  0  0
   -5.3290   24.1710  -31.8490 N   0  0  0  0  0  0  0  0  0  0  0  0
   -6.4030   23.4240  -31.6370 N   0  0  0  0  0  0  0  0  0  0  0  0
   -7.1460   22.7690  -32.7120 C   0  0  0  0  0  0  0  0  0  0  0  0
   -8.1416   23.2289  -32.7976 H   0  0  0  0  0  0  0  0  0  0  0  0
   -6.5927   22.8902  -33.6549 H   0  0  0  0  0  0  0  0  0  0  0  0
   -7.3010   21.2990  -32.4200 C   0  0  0  0  0  0  0  0  0  0  0  0
   -6.1570   20.4910  -32.3020 C   0  0  0  0  0  0  0  0  0  0  0  0
   -5.1589   20.9339  -32.4347 H   0  0  0  0  0  0  0  0  0  0  0  0
   -6.2800   19.1280  -32.0170 C   0  0  0  0  0  0  0  0  0  0  0  0
   -5.3797   18.5027  -31.9257 H   0  0  0  0  0  0  0  0  0  0  0  0
   -7.5440   18.5590  -31.8480 C   0  0  0  0  0  0  0  0  0  0  0  0
   -7.6388   17.4865  -31.6228 H   0  0  0  0  0  0  0  0  0  0  0  0
   -8.6880   19.3520  -31.9650 C   0  0  0  0  0  0  0  0  0  0  0  0
   -9.6828   18.9017  -31.8326 H   0  0  0  0  0  0  0  0  0  0  0  0
   -8.5730   20.7170  -32.2500 C   0  0  0  0  0  0  0  0  0  0  0  0
   -9.7010   21.4640  -32.3600 F   0  0  0  0  0  0  0  0  0  0  0  0
   -6.6330   23.3290  -30.3060 C   0  0  0  0  0  0  0  0  0  0  0  0
   -7.7090   22.5090  -29.6660 C   0  0  0  0  0  0  0  0  0  0  0  0
   -7.6199   22.5769  -28.5717 H   0  0  0  0  0  0  0  0  0  0  0  0
   -8.6934   22.8880  -29.9779 H   0  0  0  0  0  0  0  0  0  0  0  0
   -7.6046   21.4593  -29.9779 H   0  0  0  0  0  0  0  0  0  0  0  0
   -5.6630   24.0440  -29.6290 C   0  0  0  0  0  0  0  0  0  0  0  0
   -5.5452   24.1741  -28.5431 H   0  0  0  0  0  0  0  0  0  0  0  0
  1  2  1  0
  2  3  2  0
  3  4  1  0
  4  5  1  0
  5  6  1  0
  6  7  1  0
  6  8  1  0
  6  9  1  0
  9 10  2  0
 10 11  1  0
 10 12  1  0
 12 13  1  0
 12 14  2  0
 14 15  1  0
 14 16  1  0
 16 17  1  0
 16 18  2  0
 18 19  1  0
  5 20  1  0
 20 21  1  0
 21 22  1  0
 21 23  1  0
 21 24  1  0
 20 25  2  0
 25 26  1  0
 25  3  1  0
 18  9  1  0
M  CHG  1   4  -1
M  END
>  <UniqueID>  (26) 
24

>  <SMILES>  (26) 
[H]/N=c1\cc(C)n(Cc2ccccc2F)[n-]1

>  <Energy>  (26) 
55.11767434549851

>  <Genealogy>  (26) 
Cc1cc(=N)[n-]n1Cc1ccccc1F (protonated)
[H]/N=c1\cc(C)n(Cc2ccccc2F)[n-]1 (cis-trans isomerization)
[H]/N=c1\cc(C)n(Cc2ccccc2F)[n-]1 (3D coordinates assigned)
[H]/N=c1\cc(C)n(Cc2ccccc2F)[n-]1 (optimized conformer: 55.11767434549851 kcal/mol)

>  <smiles>  (26) 
Cc1cc(=N)[nH]n1Cc1ccccc1F

>  <score_type>  (26) 
oracle

>  <origin>  (26) 
adgpu

>  <m_score__min__energy>  (26) 
-8.1400000000000006

>  <m_primary>  (26) 
energy

$$$$
26:0
     RDKit          3D

 31 33  0  0  0  0  0  0  0  0999 V2000
   -6.0960   18.7400  -34.1520 C   0  0  0  0  0  0  0  0  0  0  0  0
   -7.1990   18.7980  -33.2530 O   0  0  0  0  0  0  0  0  0  0  0  0
   -7.6030   19.9540  -32.5690 C   0  0  0  0  0  0  0  0  0  0  0  0
   -8.9530   20.2300  -32.2840 C   0  0  0  0  0  0  0  0  0  0  0  0
   -9.3030   21.3960  -31.6000 C   0  0  0  0  0  0  0  0  0  0  0  0
   -8.3140   22.2960  -31.1930 C   0  0  0  0  0  0  0  0  0  0  0  0
   -6.9640   22.0360  -31.4680 C   0  0  0  0  0  0  0  0  0  0  0  0
   -5.9230   22.9890  -31.0370 C   0  0  0  0  0  0  0  0  0  0  0  0
   -5.3820   23.9380  -31.8270 N   0  0  0  0  0  0  0  0  0  0  0  0
   -4.4960   24.5810  -31.0820 N   0  0  0  0  0  0  0  0  0  0  0  0
   -4.5280   24.0020  -29.8660 C   0  0  0  0  0  0  0  0  0  0  0  0
   -3.6910   24.4120  -28.7210 C   0  0  0  0  0  0  0  0  0  0  0  0
   -4.2580   24.5310  -27.4410 C   0  0  0  0  0  0  0  0  0  0  0  0
   -3.4690   24.9180  -26.3540 C   0  0  0  0  0  0  0  0  0  0  0  0
   -2.1090   25.1920  -26.5340 C   0  0  0  0  0  0  0  0  0  0  0  0
   -1.0350   25.7210  -25.0470 Br  0  0  0  0  0  0  0  0  0  0  0  0
   -1.5380   25.0750  -27.8050 C   0  0  0  0  0  0  0  0  0  0  0  0
   -2.3240   24.6880  -28.8950 C   0  0  0  0  0  0  0  0  0  0  0  0
   -5.4030   23.0250  -29.8330 O   0  0  0  0  0  0  0  0  0  0  0  0
   -6.6160   20.8610  -32.1580 C   0  0  0  0  0  0  0  0  0  0  0  0
   -5.1582   18.6907  -33.5791 H   0  0  0  0  0  0  0  0  0  0  0  0
   -6.1861   17.8453  -34.7856 H   0  0  0  0  0  0  0  0  0  0  0  0
   -6.0917   19.6392  -34.7856 H   0  0  0  0  0  0  0  0  0  0  0  0
   -9.7354   19.5248  -32.6011 H   0  0  0  0  0  0  0  0  0  0  0  0
  -10.3601   21.6069  -31.3808 H   0  0  0  0  0  0  0  0  0  0  0  0
   -8.5962   23.2126  -30.6544 H   0  0  0  0  0  0  0  0  0  0  0  0
   -5.3272   24.3187  -27.2937 H   0  0  0  0  0  0  0  0  0  0  0  0
   -3.9188   25.0074  -25.3541 H   0  0  0  0  0  0  0  0  0  0  0  0
   -0.4683   25.2878  -27.9478 H   0  0  0  0  0  0  0  0  0  0  0  0
   -1.8702   24.5992  -29.8931 H   0  0  0  0  0  0  0  0  0  0  0  0
   -5.5587   20.6514  -32.3775 H   0  0  0  0  0  0  0  0  0  0  0  0
  1  2  1  0
  2  3  1  0
  3  4  2  0
  4  5  1  0
  5  6  2  0
  6  7  1  0
  7  8  1  0
  8  9  2  0
  9 10  1  0
 10 11  2  0
 11 12  1  0
 12 13  2  0
 13 14  1  0
 14 15  2  0
 15 16  1  0
 15 17  1  0
 17 18  2  0
 11 19  1  0
  7 20  2  0
 20  3  1  0
 19  8  1  0
 18 12  1  0
  1 21  1  0
  1 22  1  0
  1 23  1  0
  4 24  1  0
  5 25  1  0
  6 26  1  0
 13 27  1  0
 14 28  1  0
 17 29  1  0
 18 30  1  0
 20 31  1  0
M  END
>  <UniqueID>  (27) 
25

>  <SMILES>  (27) 
COc1cccc(-c2nnc(-c3ccc(Br)cc3)o2)c1

>  <Energy>  (27) 
67.73935037217511

>  <Genealogy>  (27) 
COc1cccc(-c2nnc(-c3ccc(Br)cc3)o2)c1 (3D coordinates assigned)
COc1cccc(-c2nnc(-c3ccc(Br)cc3)o2)c1 (optimized conformer: 67.73935037217511 kcal/mol)

>  <smiles>  (27) 
COc1cccc(-c2nnc(-c3ccc(Br)cc3)o2)c1

>  <score_type>  (27) 
oracle

>  <origin>  (27) 
adgpu

>  <m_score__min__energy>  (27) 
-8.1899999999999995

>  <m_primary>  (27) 
energy

$$$$
27:0
     RDKit          3D

 39 41  0  0  0  0  0  0  0  0999 V2000
   -6.8030   16.8650  -33.8640 C   0  0  0  0  0  0  0  0  0  0  0  0
   -6.7960   18.0470  -32.9500 C   0  0  0  0  0  0  0  0  0  0  0  0
   -6.3990   17.9130  -31.7610 O   0  0  0  0  0  0  0  0  0  0  0  0
   -7.1910   19.3350  -33.4440 N   0  0  0  0  0  0  0  0  0  0  0  0
   -7.1520   20.5130  -32.6250 C   0  0  0  0  0  0  0  0  0  0  0  0
   -8.3590   21.0200  -32.1340 C   0  0  0  0  0  0  0  0  0  0  0  0
   -8.3790   22.1780  -31.3630 C   0  0  0  0  0  0  0  0  0  0  0  0
   -7.1950   22.8470  -31.0660 C   0  0  0  0  0  0  0  0  0  0  0  0
   -5.9530   22.3600  -31.5250 C   0  0  0  0  0  0  0  0  0  0  0  0
   -4.7300   23.0180  -31.2240 C   0  0  0  0  0  0  0  0  0  0  0  0
   -4.6690   24.5550  -30.3370 S   0  0  0  0  0  0  0  0  0  0  0  0
   -5.5420   24.4490  -29.1190 O   0  0  0  0  0  0  0  0  0  0  0  0
   -5.1630   25.6830  -31.2010 O   0  0  0  0  0  0  0  0  0  0  0  0
   -3.0540   24.9250  -29.8200 N   0  0  0  0  0  0  0  0  0  0  0  0
   -2.2280   24.0760  -29.0090 C   0  0  0  0  0  0  0  0  0  0  0  0
   -0.8290   24.2210  -28.9540 C   0  0  0  0  0  0  0  0  0  0  0  0
   -0.0640   23.3620  -28.1580 C   0  0  0  0  0  0  0  0  0  0  0  0
   -0.6860   22.3560  -27.4130 C   0  0  0  0  0  0  0  0  0  0  0  0
   -2.0730   22.2050  -27.4670 C   0  0  0  0  0  0  0  0  0  0  0  0
   -2.8410   23.0600  -28.2630 C   0  0  0  0  0  0  0  0  0  0  0  0
   -3.5190   22.4380  -31.6320 C   0  0  0  0  0  0  0  0  0  0  0  0
   -3.5050   21.2470  -32.3490 C   0  0  0  0  0  0  0  0  0  0  0  0
   -4.6960   20.6110  -32.6820 C   0  0  0  0  0  0  0  0  0  0  0  0
   -5.9330   21.1580  -32.2940 C   0  0  0  0  0  0  0  0  0  0  0  0
   -6.8085   15.9406  -33.2679 H   0  0  0  0  0  0  0  0  0  0  0  0
   -7.7010   16.8974  -34.4985 H   0  0  0  0  0  0  0  0  0  0  0  0
   -5.9047   16.8868  -34.4985 H   0  0  0  0  0  0  0  0  0  0  0  0
   -7.2980   19.4560  -34.4770 H   0  0  0  0  0  0  0  0  0  0  0  0
   -9.3011   20.4987  -32.3593 H   0  0  0  0  0  0  0  0  0  0  0  0
   -9.3362   22.5672  -30.9859 H   0  0  0  0  0  0  0  0  0  0  0  0
   -7.2282   23.7679  -30.4653 H   0  0  0  0  0  0  0  0  0  0  0  0
   -0.3360   25.0118  -29.5385 H   0  0  0  0  0  0  0  0  0  0  0  0
    1.0291   23.4784  -28.1182 H   0  0  0  0  0  0  0  0  0  0  0  0
   -0.0832   21.6838  -26.7847 H   0  0  0  0  0  0  0  0  0  0  0  0
   -2.5622   21.4120  -26.8823 H   0  0  0  0  0  0  0  0  0  0  0  0
   -3.9331   22.9346  -28.3041 H   0  0  0  0  0  0  0  0  0  0  0  0
   -2.5687   22.9320  -31.3813 H   0  0  0  0  0  0  0  0  0  0  0  0
   -2.5454   20.8048  -32.6550 H   0  0  0  0  0  0  0  0  0  0  0  0
   -4.6708   19.6717  -33.2539 H   0  0  0  0  0  0  0  0  0  0  0  0
  1  2  1  0
  2  3  2  0
  2  4  1  0
  4  5  1  0
  5  6  2  0
  6  7  1  0
  7  8  2  0
  8  9  1  0
  9 10  2  0
 10 11  1  0
 11 12  2  0
 11 13  2  0
 11 14  1  0
 14 15  1  0
 15 16  2  0
 16 17  1  0
 17 18  2  0
 18 19  1  0
 19 20  2  0
 10 21  1  0
 21 22  2  0
 22 23  1  0
 23 24  2  0
 24  5  1  0
 24  9  1  0
 20 15  1  0
  1 25  1  0
  1 26  1  0
  1 27  1  0
  4 28  1  0
  6 29  1  0
  7 30  1  0
  8 31  1  0
 16 32  1  0
 17 33  1  0
 18 34  1  0
 19 35  1  0
 20 36  1  0
 21 37  1  0
 22 38  1  0
 23 39  1  0
M  CHG  1  14  -1
M  END
>  <UniqueID>  (28) 
26

>  <SMILES>  (28) 
CC(=O)Nc1cccc2c(S(=O)(=O)[N-]c3ccccc3)cccc12

>  <Energy>  (28) 
56.63279764376205

>  <Genealogy>  (28) 
CC(=O)Nc1cccc2c(S(=O)(=O)[N-]c3ccccc3)cccc12 (protonated)
CC(=O)Nc1cccc2c(S(=O)(=O)[N-]c3ccccc3)cccc12 (3D coordinates assigned)
CC(=O)Nc1cccc2c(S(=O)(=O)[N-]c3ccccc3)cccc12 (optimized conformer: 56.63279764376205 kcal/mol)

>  <smiles>  (28) 
CC(=O)Nc1cccc2c(S(=O)(=O)Nc3ccccc3)cccc12

>  <score_type>  (28) 
oracle

>  <origin>  (28) 
adgpu

>  <m_score__min__energy>  (28) 
-10.76

>  <m_primary>  (28) 
energy

$$$$
28:0
     RDKit          3D

 25 26  0  0  0  0  0  0  0  0999 V2000
   -6.4140   24.8770  -29.5830 N   0  0  0  0  0  0  0  0  0  0  0  0
   -6.4690   23.7330  -30.4440 C   0  0  0  0  0  0  0  0  0  0  0  0
   -7.6340   23.4950  -31.1890 C   0  0  0  0  0  0  0  0  0  0  0  0
   -7.7340   22.3700  -32.0090 C   0  0  0  0  0  0  0  0  0  0  0  0
   -6.6690   21.4720  -32.1000 C   0  0  0  0  0  0  0  0  0  0  0  0
   -6.7920   20.0660  -33.1410 Cl  0  0  0  0  0  0  0  0  0  0  0  0
   -5.5000   21.7010  -31.3690 C   0  0  0  0  0  0  0  0  0  0  0  0
   -5.3870   22.8250  -30.5310 C   0  0  0  0  0  0  0  0  0  0  0  0
   -4.1590   23.0770  -29.8290 N   0  0  0  0  0  0  0  0  0  0  0  0
   -3.5050   24.3550  -29.8250 C   0  0  0  0  0  0  0  0  0  0  0  0
   -3.9000   25.2750  -30.5920 O   0  0  0  0  0  0  0  0  0  0  0  0
   -2.3500   24.5910  -28.9460 C   0  0  0  0  0  0  0  0  0  0  0  0
   -1.8760   23.7240  -27.9810 C   0  0  0  0  0  0  0  0  0  0  0  0
   -0.7900   24.3590  -27.4140 C   0  0  0  0  0  0  0  0  0  0  0  0
   -0.6700   25.5690  -28.0660 C   0  0  0  0  0  0  0  0  0  0  0  0
   -1.6140   25.6780  -28.9740 O   0  0  0  0  0  0  0  0  0  0  0  0
   -5.8900   25.7340  -29.8730 H   0  0  0  0  0  0  0  0  0  0  0  0
   -6.9330   24.9160  -28.6790 H   0  0  0  0  0  0  0  0  0  0  0  0
   -8.4753   24.2008  -31.1263 H   0  0  0  0  0  0  0  0  0  0  0  0
   -8.6539   22.1906  -32.5848 H   0  0  0  0  0  0  0  0  0  0  0  0
   -4.6601   20.9953  -31.4498 H   0  0  0  0  0  0  0  0  0  0  0  0
   -3.7100   22.2860  -29.3140 H   0  0  0  0  0  0  0  0  0  0  0  0
   -2.2796   22.7347  -27.7193 H   0  0  0  0  0  0  0  0  0  0  0  0
   -0.1493   23.9775  -26.6054 H   0  0  0  0  0  0  0  0  0  0  0  0
    0.0990   26.3274  -27.8575 H   0  0  0  0  0  0  0  0  0  0  0  0
  1  2  1  0
  2  3  2  0
  3  4  1  0
  4  5  2  0
  5  6  1  0
  5  7  1  0
  7  8  2  0
  8  9  1  0
  9 10  1  0
 10 11  2  0
 10 12  1  0
 12 13  2  0
 13 14  1  0
 14 15  2  0
 15 16  1  0
  8  2  1  0
 16 12  1  0
  1 17  1  0
  1 18  1  0
  3 19  1  0
  4 20  1  0
  7 21  1  0
  9 22  1  0
 13 23  1  0
 14 24  1  0
 15 25  1  0
M  END
>  <UniqueID>  (29) 
27

>  <SMILES>  (29) 
Nc1ccc(Cl)cc1NC(=O)c1ccco1

>  <Energy>  (29) 
54.825559144242696

>  <Genealogy>  (29) 
Nc1ccc(Cl)cc1NC(=O)c1ccco1 (3D coordinates assigned)
Nc1ccc(Cl)cc1NC(=O)c1ccco1 (optimized conformer: 54.825559144242696 kcal/mol)

>  <smiles>  (29) 
Nc1ccc(Cl)cc1NC(=O)c1ccco1

>  <score_type>  (29) 
oracle

>  <origin>  (29) 
adgpu

>  <m_score__min__energy>  (29) 
-6.79

>  <m_primary>  (29) 
energy

$$$$
29:0
     RDKit          3D

 31 33  0  0  0  0  0  0  0  0999 V2000
   -9.1030   19.5210  -32.3380 C   0  0  0  0  0  0  0  0  0  0  0  0
   -8.0510   20.5240  -31.9410 C   0  0  0  0  0  0  0  0  0  0  0  0
   -8.2940   21.3820  -30.8540 C   0  0  0  0  0  0  0  0  0  0  0  0
   -7.3350   22.3160  -30.4600 C   0  0  0  0  0  0  0  0  0  0  0  0
   -6.1160   22.4060  -31.1390 C   0  0  0  0  0  0  0  0  0  0  0  0
   -5.1340   23.3720  -30.7350 N   0  0  0  0  0  0  0  0  0  0  0  0
   -3.7860   23.3120  -30.8350 C   0  0  0  0  0  0  0  0  0  0  0  0
   -2.9920   22.1330  -31.2310 C   0  0  0  0  0  0  0  0  0  0  0  0
   -2.3770   21.2520  -30.3490 C   0  0  0  0  0  0  0  0  0  0  0  0
   -1.7380   20.1800  -30.9850 C   0  0  0  0  0  0  0  0  0  0  0  0
   -1.8570   20.2000  -32.3680 C   0  0  0  0  0  0  0  0  0  0  0  0
   -2.7600   21.5520  -32.7960 S   0  0  0  0  0  0  0  0  0  0  0  0
   -3.2200   24.4810  -30.4680 N   0  0  0  0  0  0  0  0  0  0  0  0
   -4.2000   25.3050  -30.1310 N   0  0  0  0  0  0  0  0  0  0  0  0
   -5.3500   24.6280  -30.2910 C   0  0  0  0  0  0  0  0  0  0  0  0
   -6.8250   25.3010  -30.0560 S   0  0  0  0  0  0  0  0  0  0  0  0
   -5.8670   21.5620  -32.2280 C   0  0  0  0  0  0  0  0  0  0  0  0
   -6.8190   20.6110  -32.6330 C   0  0  0  0  0  0  0  0  0  0  0  0
   -6.5140   19.7120  -33.8030 C   0  0  0  0  0  0  0  0  0  0  0  0
   -9.5568   19.0884  -31.4342 H   0  0  0  0  0  0  0  0  0  0  0  0
   -9.8799   20.0212  -32.9348 H   0  0  0  0  0  0  0  0  0  0  0  0
   -8.6404   18.7212  -32.9348 H   0  0  0  0  0  0  0  0  0  0  0  0
   -9.2477   21.3165  -30.3098 H   0  0  0  0  0  0  0  0  0  0  0  0
   -7.5391   22.9849  -29.6109 H   0  0  0  0  0  0  0  0  0  0  0  0
   -2.3908   21.3840  -29.2570 H   0  0  0  0  0  0  0  0  0  0  0  0
   -1.1928   19.3956  -30.4396 H   0  0  0  0  0  0  0  0  0  0  0  0
   -1.4339   19.4598  -33.0631 H   0  0  0  0  0  0  0  0  0  0  0  0
   -4.9150   21.6443  -32.7729 H   0  0  0  0  0  0  0  0  0  0  0  0
   -6.1810   18.7306  -33.4343 H   0  0  0  0  0  0  0  0  0  0  0  0
   -7.4197   19.5860  -34.4145 H   0  0  0  0  0  0  0  0  0  0  0  0
   -5.7186   20.1631  -34.4145 H   0  0  0  0  0  0  0  0  0  0  0  0
  1  2  1  0
  2  3  2  0
  3  4  1  0
  4  5  2  0
  5  6  1  0
  6  7  1  0
  7  8  1  0
  8  9  2  0
  9 10  1  0
 10 11  2  0
 11 12  1  0
  7 13  2  0
 13 14  1  0
 14 15  1  0
 15 16  2  0
  5 17  1  0
 17 18  2  0
 18 19  1  0
 18  2  1  0
 15  6  1  0
 12  8  1  0
  1 20  1  0
  1 21  1  0
  1 22  1  0
  3 23  1  0
  4 24  1  0
  9 25  1  0
 10 26  1  0
 11 27  1  0
 17 28  1  0
 19 29  1  0
 19 30  1  0
 19 31  1  0
M  CHG  1  14  -1
M  END
>  <UniqueID>  (30) 
28

>  <SMILES>  (30) 
Cc1ccc(-n2c(-c3cccs3)n[n-]c2=S)cc1C

>  <Energy>  (30) 
102.94242027482547

>  <Genealogy>  (30) 
Cc1ccc(-n2c(-c3cccs3)n[n-]c2=S)cc1C (protonated)
Cc1ccc(-n2c(-c3cccs3)n[n-]c2=S)cc1C (3D coordinates assigned)
Cc1ccc(-n2c(-c3cccs3)n[n-]c2=S)cc1C (optimized conformer: 102.94242027482547 kcal/mol)

>  <smiles>  (30) 
Cc1ccc(-n2c(-c3cccs3)n[nH]c2=S)cc1C

>  <score_type>  (30) 
oracle

>  <origin>  (30) 
adgpu

>  <m_score__min__energy>  (30) 
-8.8599999999999994

>  <m_primary>  (30) 
energy

$$$$
30:0
     RDKit          3D

 25 26  0  0  0  0  0  0  0  0999 V2000
   -4.5720   15.5650  -34.3630 C   0  0  0  0  0  0  0  0  0  0  0  0
   -5.3920   16.7420  -33.9220 C   0  0  0  0  0  0  0  0  0  0  0  0
   -6.1420   16.6760  -32.7400 C   0  0  0  0  0  0  0  0  0  0  0  0
   -6.8770   17.7850  -32.3070 C   0  0  0  0  0  0  0  0  0  0  0  0
   -6.8620   18.9830  -33.0440 C   0  0  0  0  0  0  0  0  0  0  0  0
   -7.6420   20.1610  -32.5860 C   0  0  0  0  0  0  0  0  0  0  0  0
   -7.0030   21.3930  -32.3430 C   0  0  0  0  0  0  0  0  0  0  0  0
   -7.7400   22.5000  -31.9110 C   0  0  0  0  0  0  0  0  0  0  0  0
   -9.1190   22.3920  -31.7160 C   0  0  0  0  0  0  0  0  0  0  0  0
   -9.7640   21.1760  -31.9540 C   0  0  0  0  0  0  0  0  0  0  0  0
   -9.0330   20.0650  -32.3860 C   0  0  0  0  0  0  0  0  0  0  0  0
   -6.0930   19.0480  -34.2200 C   0  0  0  0  0  0  0  0  0  0  0  0
   -5.3600   17.9380  -34.6510 C   0  0  0  0  0  0  0  0  0  0  0  0
   -4.1974   15.0274  -33.4794 H   0  0  0  0  0  0  0  0  0  0  0  0
   -5.1957   14.8890  -34.9664 H   0  0  0  0  0  0  0  0  0  0  0  0
   -3.7218   15.9159  -34.9664 H   0  0  0  0  0  0  0  0  0  0  0  0
   -6.1529   15.7478  -32.1498 H   0  0  0  0  0  0  0  0  0  0  0  0
   -7.4709   17.7196  -31.3834 H   0  0  0  0  0  0  0  0  0  0  0  0
   -5.9173   21.4846  -32.4941 H   0  0  0  0  0  0  0  0  0  0  0  0
   -7.2327   23.4580  -31.7243 H   0  0  0  0  0  0  0  0  0  0  0  0
   -9.6966   23.2639  -31.3753 H   0  0  0  0  0  0  0  0  0  0  0  0
  -10.8501   21.0922  -31.8011 H   0  0  0  0  0  0  0  0  0  0  0  0
   -9.5473   19.1103  -32.5708 H   0  0  0  0  0  0  0  0  0  0  0  0
   -6.0681   19.9792  -34.8051 H   0  0  0  0  0  0  0  0  0  0  0  0
   -4.7550   18.0042  -35.5673 H   0  0  0  0  0  0  0  0  0  0  0  0
  1  2  1  0
  2  3  2  0
  3  4  1  0
  4  5  2  0
  5  6  1  0
  6  7  2  0
  7  8  1  0
  8  9  2  0
  9 10  1  0
 10 11  2  0
  5 12  1  0
 12 13  2  0
 13  2  1  0
 11  6  1  0
  1 14  1  0
  1 15  1  0
  1 16  1  0
  3 17  1  0
  4 18  1  0
  7 19  1  0
  8 20  1  0
  9 21  1  0
 10 22  1  0
 11 23  1  0
 12 24  1  0
 13 25  1  0
M  END
>  <UniqueID>  (31) 
29

>  <SMILES>  (31) 
Cc1ccc(-c2ccccc2)cc1

>  <Energy>  (31) 
30.09079833624733

>  <Genealogy>  (31) 
Cc1ccc(-c2ccccc2)cc1 (3D coordinates assigned)
Cc1ccc(-c2ccccc2)cc1 (optimized conformer: 30.09079833624733 kcal/mol)

>  <smiles>  (31) 
Cc1ccc(-c2ccccc2)cc1

>  <score_type>  (31) 
oracle

>  <origin>  (31) 
adgpu

>  <m_score__min__energy>  (31) 
-6.2000000000000002

>  <m_primary>  (31) 
energy

$$$$
31:0
     RDKit          3D

 25 26  0  0  0  0  0  0  0  0999 V2000
   -1.8010   25.4120  -28.9430 O   0  0  0  0  0  0  0  0  0  0  0  0
   -2.5670   24.5450  -29.4440 C   0  0  0  0  0  0  0  0  0  0  0  0
   -3.5030   24.9260  -30.4630 N   0  0  0  0  0  0  0  0  0  0  0  0
   -4.7740   24.3160  -30.7290 C   0  0  0  0  0  0  0  0  0  0  0  0
   -4.9030   23.1880  -31.5620 C   0  0  0  0  0  0  0  0  0  0  0  0
   -6.1650   22.6410  -31.8140 C   0  0  0  0  0  0  0  0  0  0  0  0
   -7.3050   23.2190  -31.2510 C   0  0  0  0  0  0  0  0  0  0  0  0
   -7.1880   24.3530  -30.4430 C   0  0  0  0  0  0  0  0  0  0  0  0
   -5.9270   24.9040  -30.1890 C   0  0  0  0  0  0  0  0  0  0  0  0
   -2.4520   23.1260  -29.0170 C   0  0  0  0  0  0  0  0  0  0  0  0
   -3.1980   22.6650  -27.9130 C   0  0  0  0  0  0  0  0  0  0  0  0
   -3.1060   21.3360  -27.4950 C   0  0  0  0  0  0  0  0  0  0  0  0
   -2.2700   20.4450  -28.1690 C   0  0  0  0  0  0  0  0  0  0  0  0
   -1.5250   20.8830  -29.2650 C   0  0  0  0  0  0  0  0  0  0  0  0
   -1.6100   22.2120  -29.6930 C   0  0  0  0  0  0  0  0  0  0  0  0
   -0.8710   22.5910  -30.7650 F   0  0  0  0  0  0  0  0  0  0  0  0
   -4.0087   22.7360  -32.0157 H   0  0  0  0  0  0  0  0  0  0  0  0
   -6.2601   21.7536  -32.4570 H   0  0  0  0  0  0  0  0  0  0  0  0
   -8.2956   22.7813  -31.4438 H   0  0  0  0  0  0  0  0  0  0  0  0
   -8.0871   24.8126  -30.0066 H   0  0  0  0  0  0  0  0  0  0  0  0
   -5.8396   25.8036  -29.5621 H   0  0  0  0  0  0  0  0  0  0  0  0
   -3.8597   23.3599  -27.3752 H   0  0  0  0  0  0  0  0  0  0  0  0
   -3.6941   20.9904  -26.6320 H   0  0  0  0  0  0  0  0  0  0  0  0
   -2.1982   19.3988  -27.8370 H   0  0  0  0  0  0  0  0  0  0  0  0
   -0.8671   20.1789  -29.7954 H   0  0  0  0  0  0  0  0  0  0  0  0
  1  2  2  0
  2  3  1  0
  3  4  1  0
  4  5  2  0
  5  6  1  0
  6  7  2  0
  7  8  1  0
  8  9  2  0
  2 10  1  0
 10 11  2  0
 11 12  1  0
 12 13  2  0
 13 14  1  0
 14 15  2  0
 15 16  1  0
  9  4  1  0
 15 10  1  0
  5 17  1  0
  6 18  1  0
  7 19  1  0
  8 20  1  0
  9 21  1  0
 11 22  1  0
 12 23  1  0
 13 24  1  0
 14 25  1  0
M  CHG  1   3  -1
M  END
>  <UniqueID>  (32) 
30

>  <SMILES>  (32) 
O=C([N-]c1ccccc1)c1ccccc1F

>  <Energy>  (32) 
31.630601641492447

>  <Genealogy>  (32) 
O=C([N-]c1ccccc1)c1ccccc1F (protonated)
O=C([N-]c1ccccc1)c1ccccc1F (3D coordinates assigned)
O=C([N-]c1ccccc1)c1ccccc1F (optimized conformer: 31.630601641492447 kcal/mol)

>  <smiles>  (32) 
O=C(Nc1ccccc1)c1ccccc1F

>  <score_type>  (32) 
oracle

>  <origin>  (32) 
adgpu

>  <m_score__min__energy>  (32) 
-7.7599999999999998

>  <m_primary>  (32) 
energy

$$$$
32:0
     RDKit          3D

 30 31  0  0  0  0  0  0  0  0999 V2000
   -6.1140   15.3200  -34.0500 C   0  0  0  0  0  0  0  0  0  0  0  0
   -6.7140   16.5470  -34.4540 O   0  0  0  0  0  0  0  0  0  0  0  0
   -6.6660   17.7360  -33.7120 C   0  0  0  0  0  0  0  0  0  0  0  0
   -7.6010   18.0350  -32.7040 C   0  0  0  0  0  0  0  0  0  0  0  0
   -7.5110   19.2350  -31.9910 C   0  0  0  0  0  0  0  0  0  0  0  0
   -6.4860   20.1570  -32.2710 C   0  0  0  0  0  0  0  0  0  0  0  0
   -6.3920   21.4310  -31.5130 C   0  0  0  0  0  0  0  0  0  0  0  0
   -7.5120   21.9470  -30.8440 C   0  0  0  0  0  0  0  0  0  0  0  0
   -7.4220   23.1410  -30.1270 C   0  0  0  0  0  0  0  0  0  0  0  0
   -6.2150   23.8480  -30.0640 C   0  0  0  0  0  0  0  0  0  0  0  0
   -6.1420   25.0230  -29.2460 N   0  0  0  0  0  0  0  0  0  0  0  0
   -5.0840   23.3580  -30.7580 C   0  0  0  0  0  0  0  0  0  0  0  0
   -3.8480   24.0890  -30.7830 N   0  0  0  0  0  0  0  0  0  0  0  0
   -3.8590   25.3360  -30.8430 O   0  0  0  0  0  0  0  0  0  0  0  0
   -2.6600   23.4500  -30.5150 O   0  0  0  0  0  0  0  0  0  0  0  0
   -5.1820   22.1460  -31.4620 C   0  0  0  0  0  0  0  0  0  0  0  0
   -5.5560   19.8520  -33.2790 C   0  0  0  0  0  0  0  0  0  0  0  0
   -5.6480   18.6530  -33.9910 C   0  0  0  0  0  0  0  0  0  0  0  0
   -6.0888   15.2684  -32.9515 H   0  0  0  0  0  0  0  0  0  0  0  0
   -6.7018   14.4775  -34.4432 H   0  0  0  0  0  0  0  0  0  0  0  0
   -5.0881   15.2665  -34.4432 H   0  0  0  0  0  0  0  0  0  0  0  0
   -8.4066   17.3217  -32.4756 H   0  0  0  0  0  0  0  0  0  0  0  0
   -8.2474   19.4595  -31.2053 H   0  0  0  0  0  0  0  0  0  0  0  0
   -8.4689   21.4061  -30.8849 H   0  0  0  0  0  0  0  0  0  0  0  0
   -8.3088   23.5308  -29.6058 H   0  0  0  0  0  0  0  0  0  0  0  0
   -6.9000   25.2760  -28.5770 H   0  0  0  0  0  0  0  0  0  0  0  0
   -5.3750   25.7180  -29.3850 H   0  0  0  0  0  0  0  0  0  0  0  0
   -4.2974   21.7497  -31.9820 H   0  0  0  0  0  0  0  0  0  0  0  0
   -4.7488   20.5628  -33.5097 H   0  0  0  0  0  0  0  0  0  0  0  0
   -4.9129   18.4286  -34.7780 H   0  0  0  0  0  0  0  0  0  0  0  0
  1  2  1  0
  2  3  1  0
  3  4  2  0
  4  5  1  0
  5  6  2  0
  6  7  1  0
  7  8  2  0
  8  9  1  0
  9 10  2  0
 10 11  1  0
 10 12  1  0
 12 13  1  0
 13 14  2  0
 13 15  1  0
 12 16  2  0
  6 17  1  0
 17 18  2  0
 18  3  1  0
 16  7  1  0
  1 19  1  0
  1 20  1  0
  1 21  1  0
  4 22  1  0
  5 23  1  0
  8 24  1  0
  9 25  1  0
 11 26  1  0
 11 27  1  0
 16 28  1  0
 17 29  1  0
 18 30  1  0
M  CHG  2  13   1  15  -1
M  END
>  <UniqueID>  (33) 
31

>  <SMILES>  (33) 
COc1ccc(-c2ccc(N)c([N+](=O)[O-])c2)cc1

>  <Energy>  (33) 
40.51492408176424

>  <Genealogy>  (33) 
COc1ccc(-c2ccc(N)c([N+](=O)[O-])c2)cc1 (3D coordinates assigned)
COc1ccc(-c2ccc(N)c([N+](=O)[O-])c2)cc1 (optimized conformer: 40.51492408176424 kcal/mol)

>  <smiles>  (33) 
COc1ccc(-c2ccc(N)c([N+](=O)[O-])c2)cc1

>  <score_type>  (33) 
oracle

>  <origin>  (33) 
adgpu

>  <m_score__min__energy>  (33) 
-7.5300000000000002

>  <m_primary>  (33) 
energy

$$$$
33:0
     RDKit          3D

 54 58  0  0  0  0  0  0  0  0999 V2000
   -7.9110   19.2070  -32.6340 C   0  0  0  0  0  0  0  0  0  0  0  0
   -9.0940   19.8150  -32.2050 C   0  0  0  0  0  0  0  0  0  0  0  0
   -9.1020   21.1730  -31.8680 C   0  0  0  0  0  0  0  0  0  0  0  0
   -7.9210   21.9280  -31.9480 C   0  0  0  0  0  0  0  0  0  0  0  0
   -7.9360   23.3970  -31.6240 C   0  0  0  0  0  0  0  0  0  0  0  0
   -6.6180   23.8200  -31.1670 N   0  0  0  0  0  0  0  0  0  0  0  0
   -5.7760   24.5430  -31.8850 N   0  0  0  0  0  0  0  0  0  0  0  0
   -4.6820   24.7590  -31.1710 N   0  0  0  0  0  0  0  0  0  0  0  0
   -4.9070   24.1330  -29.9970 C   0  0  0  0  0  0  0  0  0  0  0  0
   -3.9600   24.0980  -28.8800 C   0  0  0  0  0  0  0  0  0  0  0  0
   -4.2250   24.4840  -27.5800 C   0  0  0  0  0  0  0  0  0  0  0  0
   -3.0530   24.2780  -26.8830 C   0  0  0  0  0  0  0  0  0  0  0  0
   -2.1500   23.7860  -27.8070 C   0  0  0  0  0  0  0  0  0  0  0  0
   -0.7370   23.3880  -27.5220 C   0  0  0  0  0  0  0  0  0  0  0  0
   -0.6760   21.9690  -27.1100 N   0  0  0  0  0  0  0  0  0  0  0  0
    0.2900   21.1890  -27.8910 C   0  0  0  0  0  0  0  0  0  0  0  0
   -0.0870   21.1080  -29.3740 C   0  0  0  0  0  0  0  0  0  0  0  0
   -1.5330   20.9450  -29.6300 N   0  0  0  0  0  0  0  0  0  0  0  0
   -1.9880   20.7570  -31.0080 C   0  0  0  0  0  0  0  0  0  0  0  0
   -1.4380   19.7430  -31.8310 C   0  0  0  0  0  0  0  0  0  0  0  0
   -1.8750   19.5660  -33.1480 C   0  0  0  0  0  0  0  0  0  0  0  0
   -2.8620   20.3930  -33.6770 C   0  0  0  0  0  0  0  0  0  0  0  0
   -3.4160   21.4020  -32.8920 C   0  0  0  0  0  0  0  0  0  0  0  0
   -2.9870   21.5860  -31.5750 C   0  0  0  0  0  0  0  0  0  0  0  0
   -2.5440   21.1110  -28.5610 C   0  0  0  0  0  0  0  0  0  0  0  0
   -1.9800   21.2910  -27.1420 C   0  0  0  0  0  0  0  0  0  0  0  0
   -2.7180   23.6860  -28.9860 O   0  0  0  0  0  0  0  0  0  0  0  0
   -6.1150   23.5420  -29.9760 N   0  0  0  0  0  0  0  0  0  0  0  0
   -6.7380   21.3140  -32.3930 C   0  0  0  0  0  0  0  0  0  0  0  0
   -6.7340   19.9560  -32.7300 C   0  0  0  0  0  0  0  0  0  0  0  0
   -7.9057   18.1387  -32.8963 H   0  0  0  0  0  0  0  0  0  0  0  0
  -10.0198   19.2254  -32.1322 H   0  0  0  0  0  0  0  0  0  0  0  0
  -10.0367   21.6507  -31.5393 H   0  0  0  0  0  0  0  0  0  0  0  0
   -8.2092   23.9660  -32.5249 H   0  0  0  0  0  0  0  0  0  0  0  0
   -8.6715   23.5837  -30.8277 H   0  0  0  0  0  0  0  0  0  0  0  0
   -5.1738   24.8745  -27.1834 H   0  0  0  0  0  0  0  0  0  0  0  0
   -2.8739   24.4661  -25.8141 H   0  0  0  0  0  0  0  0  0  0  0  0
   -0.1305   23.5289  -28.4288 H   0  0  0  0  0  0  0  0  0  0  0  0
   -0.3467   24.0143  -26.7062 H   0  0  0  0  0  0  0  0  0  0  0  0
    1.2792   21.6621  -27.8034 H   0  0  0  0  0  0  0  0  0  0  0  0
    0.2960   20.1646  -27.4902 H   0  0  0  0  0  0  0  0  0  0  0  0
    0.2466   22.0344  -29.8645 H   0  0  0  0  0  0  0  0  0  0  0  0
    0.4050   20.2089  -29.7735 H   0  0  0  0  0  0  0  0  0  0  0  0
   -0.6547   19.0844  -31.4277 H   0  0  0  0  0  0  0  0  0  0  0  0
   -1.4369   18.7701  -33.7682 H   0  0  0  0  0  0  0  0  0  0  0  0
   -3.2038   20.2501  -34.7127 H   0  0  0  0  0  0  0  0  0  0  0  0
   -4.1945   22.0566  -33.3109 H   0  0  0  0  0  0  0  0  0  0  0  0
   -3.4325   22.3881  -30.9683 H   0  0  0  0  0  0  0  0  0  0  0  0
   -3.1489   21.9979  -28.8008 H   0  0  0  0  0  0  0  0  0  0  0  0
   -3.1208   20.1746  -28.5413 H   0  0  0  0  0  0  0  0  0  0  0  0
   -2.6960   21.8858  -26.5558 H   0  0  0  0  0  0  0  0  0  0  0  0
   -1.8314   20.2847  -26.7233 H   0  0  0  0  0  0  0  0  0  0  0  0
   -5.8125   21.9026  -32.4767 H   0  0  0  0  0  0  0  0  0  0  0  0
   -5.8042   19.4771  -33.0708 H   0  0  0  0  0  0  0  0  0  0  0  0
  1  2  2  0
  2  3  1  0
  3  4  2  0
  4  5  1  0
  5  6  1  0
  6  7  1  0
  7  8  2  0
  8  9  1  0
  9 10  1  0
 10 11  2  0
 11 12  1  0
 12 13  2  0
 13 14  1  0
 14 15  1  0
 15 16  1  0
 16 17  1  0
 17 18  1  0
 18 19  1  0
 19 20  2  0
 20 21  1  0
 21 22  2  0
 22 23  1  0
 23 24  2  0
 18 25  1  0
 25 26  1  0
 13 27  1  0
  9 28  2  0
  4 29  1  0
 29 30  2  0
 30  1  1  0
 28  6  1  0
 27 10  1  0
 26 15  1  0
 24 19  1  0
  1 31  1  0
  2 32  1  0
  3 33  1  0
  5 34  1  0
  5 35  1  0
 11 36  1  0
 12 37  1  0
 14 38  1  0
 14 39  1  0
 16 40  1  0
 16 41  1  0
 17 42  1  0
 17 43  1  0
 20 44  1  0
 21 45  1  0
 22 46  1  0
 23 47  1  0
 24 48  1  0
 25 49  1  0
 25 50  1  0
 26 51  1  0
 26 52  1  0
 29 53  1  0
 30 54  1  0
M  END
>  <UniqueID>  (34) 
32

>  <SMILES>  (34) 
c1ccc(Cn2nnc(-c3ccc(CN4CCN(c5ccccc5)CC4)o3)n2)cc1

>  <Energy>  (34) 
131.94020040635434

>  <Genealogy>  (34) 
c1ccc(Cn2nnc(-c3ccc(CN4CCN(c5ccccc5)CC4)o3)n2)cc1 (3D coordinates assigned)
c1ccc(Cn2nnc(-c3ccc(CN4CCN(c5ccccc5)CC4)o3)n2)cc1 (nonaromatic ring conformer: 131.94020040635434 kcal/mol)

>  <smiles>  (34) 
c1ccc(Cn2nnc(-c3ccc(CN4CCN(c5ccccc5)CC4)o3)n2)cc1

>  <score_type>  (34) 
oracle

>  <origin>  (34) 
adgpu

>  <m_score__min__energy>  (34) 
-9.6300000000000008

>  <m_primary>  (34) 
energy

$$$$
34:0
     RDKit          3D

 27 29  0  0  0  0  0  0  0  0999 V2000
   -7.2630   18.0690  -32.6730 Br  0  0  0  0  0  0  0  0  0  0  0  0
   -7.7060   19.8660  -32.1970 C   0  0  0  0  0  0  0  0  0  0  0  0
   -9.0340   20.2970  -32.2550 C   0  0  0  0  0  0  0  0  0  0  0  0
   -9.3600   21.6100  -31.9070 C   0  0  0  0  0  0  0  0  0  0  0  0
   -8.3580   22.4960  -31.5000 C   0  0  0  0  0  0  0  0  0  0  0  0
   -7.0190   22.0740  -31.4380 C   0  0  0  0  0  0  0  0  0  0  0  0
   -5.9650   23.0120  -31.0070 C   0  0  0  0  0  0  0  0  0  0  0  0
   -5.4260   23.9680  -31.7910 N   0  0  0  0  0  0  0  0  0  0  0  0
   -4.5250   24.5930  -31.0500 N   0  0  0  0  0  0  0  0  0  0  0  0
   -4.5470   23.9980  -29.8410 C   0  0  0  0  0  0  0  0  0  0  0  0
   -3.6930   24.3850  -28.7020 C   0  0  0  0  0  0  0  0  0  0  0  0
   -2.3160   24.5950  -28.8900 C   0  0  0  0  0  0  0  0  0  0  0  0
   -1.5040   24.9630  -27.8130 C   0  0  0  0  0  0  0  0  0  0  0  0
   -2.0580   25.1220  -26.5400 C   0  0  0  0  0  0  0  0  0  0  0  0
   -3.4260   24.9140  -26.3420 C   0  0  0  0  0  0  0  0  0  0  0  0
   -4.2420   24.5480  -27.4170 C   0  0  0  0  0  0  0  0  0  0  0  0
   -5.4290   23.0270  -29.8100 O   0  0  0  0  0  0  0  0  0  0  0  0
   -6.7000   20.7490  -31.7890 C   0  0  0  0  0  0  0  0  0  0  0  0
   -9.8237   19.6014  -32.5751 H   0  0  0  0  0  0  0  0  0  0  0  0
  -10.4060   21.9471  -31.9532 H   0  0  0  0  0  0  0  0  0  0  0  0
   -8.6192   23.5290  -31.2268 H   0  0  0  0  0  0  0  0  0  0  0  0
   -1.8749   24.4691  -29.8898 H   0  0  0  0  0  0  0  0  0  0  0  0
   -0.4275   25.1276  -27.9679 H   0  0  0  0  0  0  0  0  0  0  0  0
   -1.4175   25.4109  -25.6937 H   0  0  0  0  0  0  0  0  0  0  0  0
   -3.8611   25.0384  -25.3394 H   0  0  0  0  0  0  0  0  0  0  0  0
   -5.3183   24.3868  -27.2571 H   0  0  0  0  0  0  0  0  0  0  0  0
   -5.6558   20.4061  -31.7424 H   0  0  0  0  0  0  0  0  0  0  0  0
  1  2  1  0
  2  3  2  0
  3  4  1  0
  4  5  2  0
  5  6  1  0
  6  7  1  0
  7  8  2  0
  8  9  1  0
  9 10  2  0
 10 11  1  0
 11 12  2  0
 12 13  1  0
 13 14  2  0
 14 15  1  0
 15 16  2  0
 10 17  1  0
  6 18  2  0
 18  2  1  0
 17  7  1  0
 16 11  1  0
  3 19  1  0
  4 20  1  0
  5 21  1  0
 12 22  1  0
 13 23  1  0
 14 24  1  0
 15 25  1  0
 16 26  1  0
 18 27  1  0
M  END
>  <UniqueID>  (35) 
33

>  <SMILES>  (35) 
Brc1cccc(-c2nnc(-c3ccccc3)o2)c1

>  <Energy>  (35) 
64.51143412847001

>  <Genealogy>  (35) 
Brc1cccc(-c2nnc(-c3ccccc3)o2)c1 (3D coordinates assigned)
Brc1cccc(-c2nnc(-c3ccccc3)o2)c1 (optimized conformer: 64.51143412847001 kcal/mol)

>  <smiles>  (35) 
Brc1cccc(-c2nnc(-c3ccccc3)o2)c1

>  <score_type>  (35) 
oracle

>  <origin>  (35) 
adgpu

>  <m_score__min__energy>  (35) 
-8.1600000000000001

>  <m_primary>  (35) 
energy

$$$$
35:0
     RDKit          3D

 34 36  0  0  0  0  0  0  0  0999 V2000
   -6.5450   25.2670  -29.9860 C   0  0  0  0  0  0  0  0  0  0  0  0
   -5.9610   24.0750  -30.6000 N   0  0  0  0  0  0  0  0  0  0  0  0
   -6.7660   23.0530  -30.9070 N   0  0  0  0  0  0  0  0  0  0  0  0
   -6.3110   21.9040  -31.4760 C   0  0  0  0  0  0  0  0  0  0  0  0
   -7.2830   20.8170  -31.7240 C   0  0  0  0  0  0  0  0  0  0  0  0
   -6.9980   19.4900  -31.3480 C   0  0  0  0  0  0  0  0  0  0  0  0
   -7.9310   18.4760  -31.5800 C   0  0  0  0  0  0  0  0  0  0  0  0
   -9.1590   18.7760  -32.1720 C   0  0  0  0  0  0  0  0  0  0  0  0
   -9.4600   20.0930  -32.5280 C   0  0  0  0  0  0  0  0  0  0  0  0
   -8.5300   21.1110  -32.3000 C   0  0  0  0  0  0  0  0  0  0  0  0
   -4.9350   21.7900  -31.7780 C   0  0  0  0  0  0  0  0  0  0  0  0
   -4.3660   20.6220  -32.4940 C   0  0  0  0  0  0  0  0  0  0  0  0
   -5.0700   20.0220  -33.5530 C   0  0  0  0  0  0  0  0  0  0  0  0
   -4.5300   18.9210  -34.2230 C   0  0  0  0  0  0  0  0  0  0  0  0
   -3.2810   18.4160  -33.8500 C   0  0  0  0  0  0  0  0  0  0  0  0
   -2.5690   19.0150  -32.8070 C   0  0  0  0  0  0  0  0  0  0  0  0
   -3.1060   20.1160  -32.1330 C   0  0  0  0  0  0  0  0  0  0  0  0
   -4.0900   22.8510  -31.4340 C   0  0  0  0  0  0  0  0  0  0  0  0
   -4.6190   23.9970  -30.8410 C   0  0  0  0  0  0  0  0  0  0  0  0
   -3.8520   24.9530  -30.5420 O   0  0  0  0  0  0  0  0  0  0  0  0
   -6.4999   25.1748  -28.8908 H   0  0  0  0  0  0  0  0  0  0  0  0
   -5.9807   26.1565  -30.3027 H   0  0  0  0  0  0  0  0  0  0  0  0
   -7.5937   25.3662  -30.3027 H   0  0  0  0  0  0  0  0  0  0  0  0
   -6.0368   19.2508  -30.8696 H   0  0  0  0  0  0  0  0  0  0  0  0
   -7.6973   17.4394  -31.2956 H   0  0  0  0  0  0  0  0  0  0  0  0
   -9.8899   17.9753  -32.3583 H   0  0  0  0  0  0  0  0  0  0  0  0
  -10.4306   20.3291  -32.9885 H   0  0  0  0  0  0  0  0  0  0  0  0
   -8.7758   22.1478  -32.5730 H   0  0  0  0  0  0  0  0  0  0  0  0
   -6.0496   20.4208  -33.8552 H   0  0  0  0  0  0  0  0  0  0  0  0
   -5.0888   18.4508  -35.0455 H   0  0  0  0  0  0  0  0  0  0  0  0
   -2.8588   17.5477  -34.3770 H   0  0  0  0  0  0  0  0  0  0  0  0
   -1.5846   18.6196  -32.5160 H   0  0  0  0  0  0  0  0  0  0  0  0
   -2.5396   20.5880  -31.3167 H   0  0  0  0  0  0  0  0  0  0  0  0
   -3.0100   22.7812  -31.6310 H   0  0  0  0  0  0  0  0  0  0  0  0
  1  2  1  0
  2  3  1  0
  3  4  2  0
  4  5  1  0
  5  6  2  0
  6  7  1  0
  7  8  2  0
  8  9  1  0
  9 10  2  0
  4 11  1  0
 11 12  1  0
 12 13  2  0
 13 14  1  0
 14 15  2  0
 15 16  1  0
 16 17  2  0
 11 18  2  0
 18 19  1  0
 19 20  2  0
 19  2  1  0
 10  5  1  0
 17 12  1  0
  1 21  1  0
  1 22  1  0
  1 23  1  0
  6 24  1  0
  7 25  1  0
  8 26  1  0
  9 27  1  0
 10 28  1  0
 13 29  1  0
 14 30  1  0
 15 31  1  0
 16 32  1  0
 17 33  1  0
 18 34  1  0
M  END
>  <UniqueID>  (36) 
34

>  <SMILES>  (36) 
Cn1nc(-c2ccccc2)c(-c2ccccc2)cc1=O

>  <Energy>  (36) 
49.71212685858973

>  <Genealogy>  (36) 
Cn1nc(-c2ccccc2)c(-c2ccccc2)cc1=O (3D coordinates assigned)
Cn1nc(-c2ccccc2)c(-c2ccccc2)cc1=O (optimized conformer: 49.71212685858973 kcal/mol)

>  <smiles>  (36) 
Cn1nc(-c2ccccc2)c(-c2ccccc2)cc1=O

>  <score_type>  (36) 
oracle

>  <origin>  (36) 
adgpu

>  <m_score__min__energy>  (36) 
-8.0600000000000005

>  <m_primary>  (36) 
energy

$$$$
36:0
     RDKit          3D

 36 37  0  0  0  0  0  0  0  0999 V2000
    0.5590   18.5340  -28.2310 C   0  0  0  0  0  0  0  0  0  0  0  0
   -0.5530   19.0140  -28.9770 O   0  0  0  0  0  0  0  0  0  0  0  0
   -0.9800   20.3520  -28.9990 C   0  0  0  0  0  0  0  0  0  0  0  0
   -0.5260   21.2680  -29.9680 C   0  0  0  0  0  0  0  0  0  0  0  0
   -0.9780   22.5910  -29.9580 C   0  0  0  0  0  0  0  0  0  0  0  0
   -1.8930   23.0160  -28.9880 C   0  0  0  0  0  0  0  0  0  0  0  0
   -2.5080   24.6660  -28.9890 S   0  0  0  0  0  0  0  0  0  0  0  0
   -3.3500   24.8710  -27.7610 O   0  0  0  0  0  0  0  0  0  0  0  0
   -1.3800   25.6620  -28.9750 O   0  0  0  0  0  0  0  0  0  0  0  0
   -3.4830   24.9270  -30.3990 N   0  0  0  0  0  0  0  0  0  0  0  0
   -4.7980   24.3890  -30.6170 C   0  0  0  0  0  0  0  0  0  0  0  0
   -5.9430   25.0670  -30.1610 C   0  0  0  0  0  0  0  0  0  0  0  0
   -7.2140   24.5550  -30.4050 C   0  0  0  0  0  0  0  0  0  0  0  0
   -7.3670   23.3640  -31.1070 C   0  0  0  0  0  0  0  0  0  0  0  0
   -6.2440   22.6600  -31.5730 C   0  0  0  0  0  0  0  0  0  0  0  0
   -6.4600   21.3810  -32.3430 C   0  0  0  0  0  0  0  0  0  0  0  0
   -4.9410   23.1610  -31.3050 C   0  0  0  0  0  0  0  0  0  0  0  0
   -3.7110   22.4470  -31.8220 C   0  0  0  0  0  0  0  0  0  0  0  0
   -2.3450   22.1120  -28.0210 C   0  0  0  0  0  0  0  0  0  0  0  0
   -1.8920   20.7870  -28.0240 C   0  0  0  0  0  0  0  0  0  0  0  0
   -2.4850   19.6750  -26.8020 Cl  0  0  0  0  0  0  0  0  0  0  0  0
    0.3463   18.6258  -27.1557 H   0  0  0  0  0  0  0  0  0  0  0  0
    0.7394   17.4779  -28.4802 H   0  0  0  0  0  0  0  0  0  0  0  0
    1.4513   19.1271  -28.4802 H   0  0  0  0  0  0  0  0  0  0  0  0
    0.1886   20.9404  -30.7374 H   0  0  0  0  0  0  0  0  0  0  0  0
   -0.6131   23.3005  -30.7153 H   0  0  0  0  0  0  0  0  0  0  0  0
   -5.8329   26.0106  -29.6064 H   0  0  0  0  0  0  0  0  0  0  0  0
   -8.1010   25.0944  -30.0412 H   0  0  0  0  0  0  0  0  0  0  0  0
   -8.3759   22.9699  -31.2990 H   0  0  0  0  0  0  0  0  0  0  0  0
   -6.6007   20.5481  -31.6384 H   0  0  0  0  0  0  0  0  0  0  0  0
   -7.3540   21.4807  -32.9761 H   0  0  0  0  0  0  0  0  0  0  0  0
   -5.5828   21.1815  -32.9761 H   0  0  0  0  0  0  0  0  0  0  0  0
   -3.1065   22.0961  -30.9726 H   0  0  0  0  0  0  0  0  0  0  0  0
   -4.0171   21.5862  -32.4346 H   0  0  0  0  0  0  0  0  0  0  0  0
   -3.1153   23.1397  -32.4346 H   0  0  0  0  0  0  0  0  0  0  0  0
   -3.0603   22.4438  -27.2540 H   0  0  0  0  0  0  0  0  0  0  0  0
  1  2  1  0
  2  3  1  0
  3  4  2  0
  4  5  1  0
  5  6  2  0
  6  7  1  0
  7  8  2  0
  7  9  2  0
  7 10  1  0
 10 11  1  0
 11 12  2  0
 12 13  1  0
 13 14  2  0
 14 15  1  0
 15 16  1  0
 15 17  2  0
 17 18  1  0
  6 19  1  0
 19 20  2  0
 20 21  1  0
 20  3  1  0
 17 11  1  0
  1 22  1  0
  1 23  1  0
  1 24  1  0
  4 25  1  0
  5 26  1  0
 12 27  1  0
 13 28  1  0
 14 29  1  0
 16 30  1  0
 16 31  1  0
 16 32  1  0
 18 33  1  0
 18 34  1  0
 18 35  1  0
 19 36  1  0
M  CHG  1  10  -1
M  END
>  <UniqueID>  (37) 
35

>  <SMILES>  (37) 
COc1ccc(S(=O)(=O)[N-]c2cccc(C)c2C)cc1Cl

>  <Energy>  (37) 
41.004752069980896

>  <Genealogy>  (37) 
COc1ccc(S(=O)(=O)[N-]c2cccc(C)c2C)cc1Cl (protonated)
COc1ccc(S(=O)(=O)[N-]c2cccc(C)c2C)cc1Cl (3D coordinates assigned)
COc1ccc(S(=O)(=O)[N-]c2cccc(C)c2C)cc1Cl (optimized conformer: 41.004752069980896 kcal/mol)

>  <smiles>  (37) 
COc1ccc(S(=O)(=O)Nc2cccc(C)c2C)cc1Cl

>  <score_type>  (37) 
oracle

>  <origin>  (37) 
adgpu

>  <m_score__min__energy>  (37) 
-8.9199999999999999

>  <m_primary>  (37) 
energy

$$$$
37:0
     RDKit          3D

 43 45  0  0  1  0  0  0  0  0999 V2000
   -1.5880   24.9830  -28.2530 C   0  0  0  0  0  0  0  0  0  0  0  0
   -2.4110   25.2900  -29.3410 O   0  0  0  0  0  0  0  0  0  0  0  0
   -3.5640   24.6040  -29.6910 C   0  0  0  0  0  0  0  0  0  0  0  0
   -3.8810   23.4180  -29.0480 C   0  0  0  0  0  0  0  0  0  0  0  0
   -5.0000   22.6810  -29.3340 C   0  0  0  0  0  0  0  0  0  0  0  0
   -5.8870   23.1430  -30.3370 C   0  0  0  0  0  0  0  0  0  0  0  0
   -6.9380   22.3990  -30.7370 N   0  0  0  0  0  0  0  0  0  0  0  0
   -7.0470   21.4470  -31.5080 C   0  0  0  0  0  0  0  0  0  0  0  0
   -8.2860   20.9160  -31.6890 N   0  0  0  0  0  0  0  0  0  0  0  0
   -8.4970   19.8870  -32.5050 C   0  0  0  0  0  0  0  0  0  0  0  0
   -9.8590   19.2870  -32.7160 C   0  0  0  0  0  0  0  0  0  0  0  0
   -7.4750   19.3420  -33.1770 N   0  0  0  0  0  0  0  0  0  0  0  0
   -6.2450   19.8570  -33.0090 C   0  0  0  0  0  0  0  0  0  0  0  0
   -5.2240   19.2750  -33.7120 C   0  0  0  0  0  0  0  0  0  0  0  0
   -3.9660   19.7960  -33.5440 C   0  0  0  0  0  0  0  0  0  0  0  0
   -2.9250   19.2140  -34.2520 O   0  0  0  0  0  0  0  0  0  0  0  0
   -2.1190   18.2960  -33.5560 C   0  0  0  0  0  0  0  0  0  0  0  0
   -3.6420   20.8430  -32.7370 C   0  0  0  0  0  0  0  0  0  0  0  0
   -2.3520   21.2910  -32.6370 O   0  0  0  0  0  0  0  0  0  0  0  0
   -1.6630   21.5420  -31.4520 C   0  0  0  0  0  0  0  0  0  0  0  0
   -4.7110   21.4220  -32.0270 C   0  0  0  0  0  0  0  0  0  0  0  0
   -5.9730   20.9250  -32.1740 C   0  0  0  0  0  0  0  0  0  0  0  0
   -5.5860   24.3510  -31.0100 C   0  0  0  0  0  0  0  0  0  0  0  0
   -4.4380   25.0430  -30.6680 C   0  0  0  0  0  0  0  0  0  0  0  0
   -2.1282   25.1845  -27.3162 H   0  0  0  0  0  0  0  0  0  0  0  0
   -1.3081   23.9200  -28.2934 H   0  0  0  0  0  0  0  0  0  0  0  0
   -0.6803   25.6030  -28.2934 H   0  0  0  0  0  0  0  0  0  0  0  0
   -3.1990   23.0493  -28.2677 H   0  0  0  0  0  0  0  0  0  0  0  0
   -5.2063   21.7455  -28.7934 H   0  0  0  0  0  0  0  0  0  0  0  0
  -10.3244   19.0820  -31.7406 H   0  0  0  0  0  0  0  0  0  0  0  0
  -10.4867   19.9919  -33.2809 H   0  0  0  0  0  0  0  0  0  0  0  0
   -9.7625   18.3481  -33.2809 H   0  0  0  0  0  0  0  0  0  0  0  0
   -7.6540   18.5320  -33.8170 H   0  0  0  0  0  0  0  0  0  0  0  0
   -5.4053   18.4237  -34.3846 H   0  0  0  0  0  0  0  0  0  0  0  0
   -2.2475   18.4424  -32.4734 H   0  0  0  0  0  0  0  0  0  0  0  0
   -2.4144   17.2711  -33.8250 H   0  0  0  0  0  0  0  0  0  0  0  0
   -1.0645   18.4563  -33.8250 H   0  0  0  0  0  0  0  0  0  0  0  0
   -2.3103   21.3062  -30.5945 H   0  0  0  0  0  0  0  0  0  0  0  0
   -0.7600   20.9151  -31.4131 H   0  0  0  0  0  0  0  0  0  0  0  0
   -1.3748   22.6029  -31.4131 H   0  0  0  0  0  0  0  0  0  0  0  0
   -4.5290   22.2736  -31.3549 H   0  0  0  0  0  0  0  0  0  0  0  0
   -6.2555   24.7343  -31.7941 H   0  0  0  0  0  0  0  0  0  0  0  0
   -4.2112   25.9814  -31.1953 H   0  0  0  0  0  0  0  0  0  0  0  0
  1  2  1  0
  2  3  1  0
  3  4  2  0
  4  5  1  0
  5  6  2  0
  6  7  1  0
  7  8  2  0
  8  9  1  0
  9 10  2  0
 10 11  1  0
 10 12  1  0
 12 13  1  0
 13 14  2  0
 14 15  1  0
 15 16  1  0
 16 17  1  0
 15 18  2  0
 18 19  1  0
 19 20  1  0
 18 21  1  0
 21 22  2  0
  6 23  1  0
 23 24  2  0
 24  3  1  0
 22  8  1  0
 22 13  1  0
  1 25  1  0
  1 26  1  0
  1 27  1  0
  4 28  1  0
  5 29  1  0
 11 30  1  0
 11 31  1  0
 11 32  1  0
 12 33  1  0
 14 34  1  0
 17 35  1  0
 17 36  1  0
 17 37  1  0
 20 38  1  0
 20 39  1  0
 20 40  1  0
 21 41  1  0
 23 42  1  0
 24 43  1  0
M  END
>  <smiles>  (38) 
COc1ccc(N=c2nc(C)[nH]c3cc(OC)c(OC)cc23)cc1

>  <score_type>  (38) 
oracle

>  <origin>  (38) 
adgpu

>  <m_score__min__energy>  (38) 
-7.46

>  <m_primary>  (38) 
energy

$$$$
38:0
     RDKit          3D

 29 30  0  0  0  0  0  0  0  0999 V2000
   -4.3340   24.9190  -26.3370 C   0  0  0  0  0  0  0  0  0  0  0  0
   -2.9370   24.9030  -26.8930 C   0  0  0  0  0  0  0  0  0  0  0  0
   -1.8910   25.4850  -26.1550 C   0  0  0  0  0  0  0  0  0  0  0  0
   -0.5860   25.4750  -26.6500 C   0  0  0  0  0  0  0  0  0  0  0  0
   -0.3060   24.8740  -27.8760 C   0  0  0  0  0  0  0  0  0  0  0  0
   -1.3330   24.2810  -28.6150 C   0  0  0  0  0  0  0  0  0  0  0  0
   -2.6560   24.2960  -28.1390 C   0  0  0  0  0  0  0  0  0  0  0  0
   -3.7030   23.6480  -28.8840 N   0  0  0  0  0  0  0  0  0  0  0  0
   -4.2760   24.2000  -30.0830 C   0  0  0  0  0  0  0  0  0  0  0  0
   -3.8620   25.3070  -30.5250 O   0  0  0  0  0  0  0  0  0  0  0  0
   -5.3560   23.4940  -30.8140 C   0  0  0  0  0  0  0  0  0  0  0  0
   -6.6930   23.9290  -30.7420 C   0  0  0  0  0  0  0  0  0  0  0  0
   -7.6950   23.2520  -31.4450 C   0  0  0  0  0  0  0  0  0  0  0  0
   -7.3760   22.1420  -32.2270 C   0  0  0  0  0  0  0  0  0  0  0  0
   -6.0520   21.7080  -32.3160 C   0  0  0  0  0  0  0  0  0  0  0  0
   -5.0450   22.3810  -31.6180 C   0  0  0  0  0  0  0  0  0  0  0  0
   -4.2912   24.9185  -25.2378 H   0  0  0  0  0  0  0  0  0  0  0  0
   -4.8561   25.8232  -26.6832 H   0  0  0  0  0  0  0  0  0  0  0  0
   -4.8767   24.0270  -26.6832 H   0  0  0  0  0  0  0  0  0  0  0  0
   -2.1026   25.9511  -25.1814 H   0  0  0  0  0  0  0  0  0  0  0  0
    0.2238   25.9428  -26.0709 H   0  0  0  0  0  0  0  0  0  0  0  0
    0.7240   24.8665  -28.2620 H   0  0  0  0  0  0  0  0  0  0  0  0
   -1.1047   23.7986  -29.5768 H   0  0  0  0  0  0  0  0  0  0  0  0
   -4.0710   22.7460  -28.5100 H   0  0  0  0  0  0  0  0  0  0  0  0
   -6.9510   24.8057  -30.1298 H   0  0  0  0  0  0  0  0  0  0  0  0
   -8.7378   23.5961  -31.3809 H   0  0  0  0  0  0  0  0  0  0  0  0
   -8.1676   21.6085  -32.7736 H   0  0  0  0  0  0  0  0  0  0  0  0
   -5.8008   20.8351  -32.9364 H   0  0  0  0  0  0  0  0  0  0  0  0
   -4.0027   22.0386  -31.6975 H   0  0  0  0  0  0  0  0  0  0  0  0
  1  2  1  0
  2  3  2  0
  3  4  1  0
  4  5  2  0
  5  6  1  0
  6  7  2  0
  7  8  1  0
  8  9  1  0
  9 10  2  0
  9 11  1  0
 11 12  2  0
 12 13  1  0
 13 14  2  0
 14 15  1  0
 15 16  2  0
  7  2  1  0
 16 11  1  0
  1 17  1  0
  1 18  1  0
  1 19  1  0
  3 20  1  0
  4 21  1  0
  5 22  1  0
  6 23  1  0
  8 24  1  0
 12 25  1  0
 13 26  1  0
 14 27  1  0
 15 28  1  0
 16 29  1  0
M  END
>  <UniqueID>  (39) 
36

>  <SMILES>  (39) 
Cc1ccccc1NC(=O)c1ccccc1

>  <Energy>  (39) 
36.920239730551415

>  <Genealogy>  (39) 
Cc1ccccc1NC(=O)c1ccccc1 (3D coordinates assigned)
Cc1ccccc1NC(=O)c1ccccc1 (optimized conformer: 36.920239730551415 kcal/mol)

>  <smiles>  (39) 
Cc1ccccc1NC(=O)c1ccccc1

>  <score_type>  (39) 
oracle

>  <origin>  (39) 
adgpu

>  <m_score__min__energy>  (39) 
-6.7000000000000002

>  <m_primary>  (39) 
energy

$$$$
39:0
     RDKit          3D

 12 12  0  0  0  0  0  0  0  0999 V2000
   -3.4880   25.2970  -30.4770 O   0  0  0  0  0  0  0  0  0  0  0  0
   -4.6550   24.5450  -30.5500 C   0  0  0  0  0  0  0  0  0  0  0  0
   -5.8930   25.1680  -30.3560 C   0  0  0  0  0  0  0  0  0  0  0  0
   -7.0730   24.4210  -30.4270 C   0  0  0  0  0  0  0  0  0  0  0  0
   -7.0170   23.0490  -30.6930 C   0  0  0  0  0  0  0  0  0  0  0  0
   -8.1620   22.3250  -30.7620 F   0  0  0  0  0  0  0  0  0  0  0  0
   -5.7810   22.4230  -30.8880 C   0  0  0  0  0  0  0  0  0  0  0  0
   -4.5980   23.1690  -30.8170 C   0  0  0  0  0  0  0  0  0  0  0  0
   -2.9180   22.2940  -31.0870 Br  0  0  0  0  0  0  0  0  0  0  0  0
   -5.9380   26.2471  -30.1473 H   0  0  0  0  0  0  0  0  0  0  0  0
   -8.0451   24.9124  -30.2737 H   0  0  0  0  0  0  0  0  0  0  0  0
   -5.7385   21.3439  -31.0973 H   0  0  0  0  0  0  0  0  0  0  0  0
  1  2  1  0
  2  3  2  0
  3  4  1  0
  4  5  2  0
  5  6  1  0
  5  7  1  0
  7  8  2  0
  8  9  1  0
  8  2  1  0
  3 10  1  0
  4 11  1  0
  7 12  1  0
M  CHG  1   1  -1
M  END
>  <UniqueID>  (40) 
37

>  <SMILES>  (40) 
[O-]c1ccc(F)cc1Br

>  <Energy>  (40) 
11.140030760893158

>  <Genealogy>  (40) 
[O-]c1ccc(F)cc1Br (protonated)
[O-]c1ccc(F)cc1Br (3D coordinates assigned)
[O-]c1ccc(F)cc1Br (optimized conformer: 11.140030760893158 kcal/mol)

>  <smiles>  (40) 
Oc1ccc(F)cc1Br

>  <score_type>  (40) 
oracle

>  <origin>  (40) 
adgpu

>  <m_score__min__energy>  (40) 
-7.5

>  <m_primary>  (40) 
energy

$$$$
40:0
     RDKit          3D

 31 32  0  0  0  0  0  0  0  0999 V2000
   -5.6650   18.2130  -35.4820 O   0  0  0  0  0  0  0  0  0  0  0  0
   -5.4360   18.8390  -34.4260 N   0  0  0  0  0  0  0  0  0  0  0  0
   -4.1640   19.3170  -34.2030 O   0  0  0  0  0  0  0  0  0  0  0  0
   -6.4790   19.0570  -33.4590 C   0  0  0  0  0  0  0  0  0  0  0  0
   -7.2470   17.9760  -32.9880 C   0  0  0  0  0  0  0  0  0  0  0  0
   -8.2610   18.1860  -32.0500 C   0  0  0  0  0  0  0  0  0  0  0  0
   -8.5230   19.4710  -31.5730 C   0  0  0  0  0  0  0  0  0  0  0  0
   -7.7700   20.5600  -32.0320 C   0  0  0  0  0  0  0  0  0  0  0  0
   -8.1020   22.1870  -31.4330 S   0  0  0  0  0  0  0  0  0  0  0  0
   -8.7120   22.0910  -30.0620 O   0  0  0  0  0  0  0  0  0  0  0  0
   -9.0980   22.8540  -32.3400 O   0  0  0  0  0  0  0  0  0  0  0  0
   -6.6510   23.1580  -31.3520 N   0  0  0  0  0  0  0  0  0  0  0  0
   -5.5220   22.3630  -30.8320 C   0  0  0  0  0  0  0  0  0  0  0  0
   -4.3240   23.2660  -30.4640 C   0  0  0  0  0  0  0  0  0  0  0  0
   -4.4670   24.5540  -31.0270 O   0  0  0  0  0  0  0  0  0  0  0  0
   -5.5840   25.2090  -30.4520 C   0  0  0  0  0  0  0  0  0  0  0  0
   -6.8700   24.3540  -30.5220 C   0  0  0  0  0  0  0  0  0  0  0  0
   -6.7490   20.3480  -32.9710 C   0  0  0  0  0  0  0  0  0  0  0  0
   -7.0480   16.9602  -33.3603 H   0  0  0  0  0  0  0  0  0  0  0  0
   -8.8553   17.3349  -31.6860 H   0  0  0  0  0  0  0  0  0  0  0  0
   -9.3228   19.6295  -30.8347 H   0  0  0  0  0  0  0  0  0  0  0  0
   -6.4310   23.4630  -32.3300 H   0  0  0  0  0  0  0  0  0  0  0  0
   -5.8501   21.8189  -29.9340 H   0  0  0  0  0  0  0  0  0  0  0  0
   -5.2007   21.6612  -31.6157 H   0  0  0  0  0  0  0  0  0  0  0  0
   -4.2653   23.3568  -29.3693 H   0  0  0  0  0  0  0  0  0  0  0  0
   -3.4063   22.8096  -30.8635 H   0  0  0  0  0  0  0  0  0  0  0  0
   -5.3614   25.4262  -29.3969 H   0  0  0  0  0  0  0  0  0  0  0  0
   -5.7631   26.1309  -31.0247 H   0  0  0  0  0  0  0  0  0  0  0  0
   -7.1529   24.0422  -29.5057 H   0  0  0  0  0  0  0  0  0  0  0  0
   -7.6730   24.9564  -30.9719 H   0  0  0  0  0  0  0  0  0  0  0  0
   -6.1535   21.2007  -33.3292 H   0  0  0  0  0  0  0  0  0  0  0  0
  1  2  2  0
  2  3  1  0
  2  4  1  0
  4  5  2  0
  5  6  1  0
  6  7  2  0
  7  8  1  0
  8  9  1  0
  9 10  2  0
  9 11  2  0
  9 12  1  0
 12 13  1  0
 13 14  1  0
 14 15  1  0
 15 16  1  0
 16 17  1  0
  8 18  2  0
 18  4  1  0
 17 12  1  0
  5 19  1  0
  6 20  1  0
  7 21  1  0
 12 22  1  0
 13 23  1  0
 13 24  1  0
 14 25  1  0
 14 26  1  0
 16 27  1  0
 16 28  1  0
 17 29  1  0
 17 30  1  0
 18 31  1  0
M  CHG  3   2   1   3  -1  12   1
M  END
>  <UniqueID>  (41) 
38

>  <SMILES>  (41) 
O=[N+]([O-])c1cccc(S(=O)(=O)[NH+]2CCOCC2)c1

>  <Energy>  (41) 
38.825503361916496

>  <Genealogy>  (41) 
O=[N+]([O-])c1cccc(S(=O)(=O)[NH+]2CCOCC2)c1 (protonated)
O=[N+]([O-])c1cccc(S(=O)(=O)[NH+]2CCOCC2)c1 (3D coordinates assigned)
O=[N+]([O-])c1cccc(S(=O)(=O)[NH+]2CCOCC2)c1 (nonaromatic ring conformer: 38.825503361916496 kcal/mol)

>  <smiles>  (41) 
O=[N+]([O-])c1cccc(S(=O)(=O)N2CCOCC2)c1

>  <score_type>  (41) 
oracle

>  <origin>  (41) 
adgpu

>  <m_score__min__energy>  (41) 
-7.25

>  <m_primary>  (41) 
energy

$$$$
41:0
     RDKit          3D

 46 47  0  0  0  0  0  0  0  0999 V2000
   -6.8750   17.1270  -33.1640 C   0  0  0  0  0  0  0  0  0  0  0  0
   -7.3800   18.2140  -32.2090 C   0  0  0  0  0  0  0  0  0  0  0  0
   -7.6920   19.4860  -32.9040 N   0  0  0  0  0  0  0  0  0  0  0  0
   -6.4710   20.1340  -33.4450 C   0  0  0  0  0  0  0  0  0  0  0  0
   -5.2240   19.9810  -32.5630 C   0  0  0  0  0  0  0  0  0  0  0  0
   -8.6240   20.5740  -31.8860 S   0  0  0  0  0  0  0  0  0  0  0  0
   -9.0870   19.8610  -30.6450 O   0  0  0  0  0  0  0  0  0  0  0  0
   -9.8350   21.0540  -32.6370 O   0  0  0  0  0  0  0  0  0  0  0  0
   -7.6770   21.9950  -31.4420 C   0  0  0  0  0  0  0  0  0  0  0  0
   -7.3390   22.2450  -30.1050 C   0  0  0  0  0  0  0  0  0  0  0  0
   -6.5550   23.3540  -29.7730 C   0  0  0  0  0  0  0  0  0  0  0  0
   -6.0900   24.2210  -30.7750 C   0  0  0  0  0  0  0  0  0  0  0  0
   -5.2330   25.3760  -30.4200 C   0  0  0  0  0  0  0  0  0  0  0  0
   -5.7710   26.4770  -30.1280 O   0  0  0  0  0  0  0  0  0  0  0  0
   -3.8010   25.2950  -30.4430 N   0  0  0  0  0  0  0  0  0  0  0  0
   -2.9950   24.3880  -29.6760 C   0  0  0  0  0  0  0  0  0  0  0  0
   -3.0550   22.9970  -29.8720 C   0  0  0  0  0  0  0  0  0  0  0  0
   -2.2610   22.1420  -29.1030 C   0  0  0  0  0  0  0  0  0  0  0  0
   -1.4010   22.6630  -28.1260 C   0  0  0  0  0  0  0  0  0  0  0  0
   -0.5780   21.7410  -27.2740 C   0  0  0  0  0  0  0  0  0  0  0  0
   -1.3740   24.0480  -27.9000 C   0  0  0  0  0  0  0  0  0  0  0  0
   -2.1670   24.9030  -28.6710 C   0  0  0  0  0  0  0  0  0  0  0  0
   -6.4560   23.9820  -32.1110 C   0  0  0  0  0  0  0  0  0  0  0  0
   -7.2410   22.8730  -32.4410 C   0  0  0  0  0  0  0  0  0  0  0  0
   -6.4819   16.2808  -32.5814 H   0  0  0  0  0  0  0  0  0  0  0  0
   -7.7049   16.7816  -33.7980 H   0  0  0  0  0  0  0  0  0  0  0  0
   -6.0758   17.5384  -33.7980 H   0  0  0  0  0  0  0  0  0  0  0  0
   -8.2923   17.8508  -31.7133 H   0  0  0  0  0  0  0  0  0  0  0  0
   -6.5778   18.4190  -31.4848 H   0  0  0  0  0  0  0  0  0  0  0  0
   -8.2940   19.2680  -33.7320 H   0  0  0  0  0  0  0  0  0  0  0  0
   -6.2532   19.6900  -34.4276 H   0  0  0  0  0  0  0  0  0  0  0  0
   -6.6863   21.2115  -33.4975 H   0  0  0  0  0  0  0  0  0  0  0  0
   -5.5176   20.0170  -31.5035 H   0  0  0  0  0  0  0  0  0  0  0  0
   -4.7398   19.0167  -32.7767 H   0  0  0  0  0  0  0  0  0  0  0  0
   -4.5210   20.7996  -32.7767 H   0  0  0  0  0  0  0  0  0  0  0  0
   -7.6917   21.5665  -29.3143 H   0  0  0  0  0  0  0  0  0  0  0  0
   -6.3009   23.5485  -28.7206 H   0  0  0  0  0  0  0  0  0  0  0  0
   -3.7299   22.5800  -30.6340 H   0  0  0  0  0  0  0  0  0  0  0  0
   -2.3110   21.0551  -29.2650 H   0  0  0  0  0  0  0  0  0  0  0  0
   -0.7690   21.9549  -26.2120 H   0  0  0  0  0  0  0  0  0  0  0  0
   -0.8510   20.6981  -27.4928 H   0  0  0  0  0  0  0  0  0  0  0  0
    0.4891   21.8943  -27.4928 H   0  0  0  0  0  0  0  0  0  0  0  0
   -0.7264   24.4623  -27.1132 H   0  0  0  0  0  0  0  0  0  0  0  0
   -2.1404   25.9872  -28.4870 H   0  0  0  0  0  0  0  0  0  0  0  0
   -6.1230   24.6711  -32.9011 H   0  0  0  0  0  0  0  0  0  0  0  0
   -7.5170   22.6898  -33.4899 H   0  0  0  0  0  0  0  0  0  0  0  0
  1  2  1  0
  2  3  1  0
  3  4  1  0
  4  5  1  0
  3  6  1  0
  6  7  2  0
  6  8  2  0
  6  9  1  0
  9 10  2  0
 10 11  1  0
 11 12  2  0
 12 13  1  0
 13 14  2  0
 13 15  1  0
 15 16  1  0
 16 17  2  0
 17 18  1  0
 18 19  2  0
 19 20  1  0
 19 21  1  0
 21 22  2  0
 12 23  1  0
 23 24  2  0
 24  9  1  0
 22 16  1  0
  1 25  1  0
  1 26  1  0
  1 27  1  0
  2 28  1  0
  2 29  1  0
  3 30  1  0
  4 31  1  0
  4 32  1  0
  5 33  1  0
  5 34  1  0
  5 35  1  0
 10 36  1  0
 11 37  1  0
 17 38  1  0
 18 39  1  0
 20 40  1  0
 20 41  1  0
 20 42  1  0
 21 43  1  0
 22 44  1  0
 23 45  1  0
 24 46  1  0
M  CHG  2   3   1  15  -1
M  END
>  <UniqueID>  (42) 
39

>  <SMILES>  (42) 
CC[NH+](CC)S(=O)(=O)c1ccc(C(=O)[N-]c2ccc(C)cc2)cc1

>  <Energy>  (42) 
51.34144814144142

>  <Genealogy>  (42) 
CC[NH+](CC)S(=O)(=O)c1ccc(C(=O)[N-]c2ccc(C)cc2)cc1 (protonated)
CC[NH+](CC)S(=O)(=O)c1ccc(C(=O)[N-]c2ccc(C)cc2)cc1 (3D coordinates assigned)
CC[NH+](CC)S(=O)(=O)c1ccc(C(=O)[N-]c2ccc(C)cc2)cc1 (optimized conformer: 51.34144814144142 kcal/mol)

>  <smiles>  (42) 
CCN(CC)S(=O)(=O)c1ccc(C(=O)Nc2ccc(C)cc2)cc1

>  <score_type>  (42) 
oracle

>  <origin>  (42) 
adgpu

>  <m_score__min__energy>  (42) 
-10.380000000000001

>  <m_primary>  (42) 
energy

$$$$
42:0
     RDKit          3D

 44 46  0  0  0  0  0  0  0  0999 V2000
    0.5860   22.0420  -35.4690 C   0  0  0  0  0  0  0  0  0  0  0  0
    0.0840   20.6710  -35.0140 C   0  0  0  0  0  0  0  0  0  0  0  0
    0.2610   20.4520  -33.5040 C   0  0  0  0  0  0  0  0  0  0  0  0
   -0.8550   21.0840  -32.7100 C   0  0  0  0  0  0  0  0  0  0  0  0
   -0.6190   21.5500  -31.4070 C   0  0  0  0  0  0  0  0  0  0  0  0
   -1.6410   22.1690  -30.6820 C   0  0  0  0  0  0  0  0  0  0  0  0
   -2.9180   22.3250  -31.2420 C   0  0  0  0  0  0  0  0  0  0  0  0
   -3.9400   22.9990  -30.4880 N   0  0  0  0  0  0  0  0  0  0  0  0
   -3.6960   24.1150  -29.6190 C   0  0  0  0  0  0  0  0  0  0  0  0
   -2.6310   24.7840  -29.7160 O   0  0  0  0  0  0  0  0  0  0  0  0
   -4.7280   24.5190  -28.6120 C   0  0  0  0  0  0  0  0  0  0  0  0
   -6.1250   25.3700  -29.4220 S   0  0  0  0  0  0  0  0  0  0  0  0
   -6.3620   24.1040  -30.6660 C   0  0  0  0  0  0  0  0  0  0  0  0
   -5.8890   24.1840  -31.9220 N   0  0  0  0  0  0  0  0  0  0  0  0
   -6.2580   23.0670  -32.5260 N   0  0  0  0  0  0  0  0  0  0  0  0
   -6.9440   22.3490  -31.6140 C   0  0  0  0  0  0  0  0  0  0  0  0
   -7.5400   21.0230  -31.8690 C   0  0  0  0  0  0  0  0  0  0  0  0
   -6.7210   19.8830  -31.9400 C   0  0  0  0  0  0  0  0  0  0  0  0
   -7.2820   18.6240  -32.1840 C   0  0  0  0  0  0  0  0  0  0  0  0
   -8.6630   18.4950  -32.3600 C   0  0  0  0  0  0  0  0  0  0  0  0
   -9.4840   19.6220  -32.2870 C   0  0  0  0  0  0  0  0  0  0  0  0
   -8.9280   20.8820  -32.0430 C   0  0  0  0  0  0  0  0  0  0  0  0
   -7.0120   22.9840  -30.4680 O   0  0  0  0  0  0  0  0  0  0  0  0
   -3.1480   21.8780  -32.5560 C   0  0  0  0  0  0  0  0  0  0  0  0
   -2.1260   21.2590  -33.2810 C   0  0  0  0  0  0  0  0  0  0  0  0
    0.8125   22.6605  -34.5880 H   0  0  0  0  0  0  0  0  0  0  0  0
    1.4967   21.9170  -36.0732 H   0  0  0  0  0  0  0  0  0  0  0  0
   -0.1901   22.5347  -36.0732 H   0  0  0  0  0  0  0  0  0  0  0  0
   -0.9849   20.5872  -35.2598 H   0  0  0  0  0  0  0  0  0  0  0  0
    0.6796   19.9069  -35.5349 H   0  0  0  0  0  0  0  0  0  0  0  0
    0.2745   19.3711  -33.3005 H   0  0  0  0  0  0  0  0  0  0  0  0
    1.2065   20.9244  -33.1993 H   0  0  0  0  0  0  0  0  0  0  0  0
    0.3759   21.4273  -30.9541 H   0  0  0  0  0  0  0  0  0  0  0  0
   -1.4427   22.5368  -29.6644 H   0  0  0  0  0  0  0  0  0  0  0  0
   -4.9300   22.6840  -30.6090 H   0  0  0  0  0  0  0  0  0  0  0  0
   -5.1016   23.6210  -28.0982 H   0  0  0  0  0  0  0  0  0  0  0  0
   -4.2657   25.2084  -27.8902 H   0  0  0  0  0  0  0  0  0  0  0  0
   -5.6339   19.9806  -31.8032 H   0  0  0  0  0  0  0  0  0  0  0  0
   -6.6358   17.7354  -32.2373 H   0  0  0  0  0  0  0  0  0  0  0  0
   -9.1026   17.5059  -32.5559 H   0  0  0  0  0  0  0  0  0  0  0  0
  -10.5708   19.5187  -32.4217 H   0  0  0  0  0  0  0  0  0  0  0  0
   -9.5795   21.7665  -31.9870 H   0  0  0  0  0  0  0  0  0  0  0  0
   -4.1378   22.0165  -33.0154 H   0  0  0  0  0  0  0  0  0  0  0  0
   -2.3184   20.9067  -34.3052 H   0  0  0  0  0  0  0  0  0  0  0  0
  1  2  1  0
  2  3  1  0
  3  4  1  0
  4  5  2  0
  5  6  1  0
  6  7  2  0
  7  8  1  0
  8  9  1  0
  9 10  2  0
  9 11  1  0
 11 12  1  0
 12 13  1  0
 13 14  2  0
 14 15  1  0
 15 16  2  0
 16 17  1  0
 17 18  2  0
 18 19  1  0
 19 20  2  0
 20 21  1  0
 21 22  2  0
 16 23  1  0
  7 24  1  0
 24 25  2  0
 25  4  1  0
 23 13  1  0
 22 17  1  0
  1 26  1  0
  1 27  1  0
  1 28  1  0
  2 29  1  0
  2 30  1  0
  3 31  1  0
  3 32  1  0
  5 33  1  0
  6 34  1  0
  8 35  1  0
 11 36  1  0
 11 37  1  0
 18 38  1  0
 19 39  1  0
 20 40  1  0
 21 41  1  0
 22 42  1  0
 24 43  1  0
 25 44  1  0
M  END
>  <UniqueID>  (43) 
40

>  <SMILES>  (43) 
CCCc1ccc(NC(=O)CSc2nnc(-c3ccccc3)o2)cc1

>  <Energy>  (43) 
74.04590938705608

>  <Genealogy>  (43) 
CCCc1ccc(NC(=O)CSc2nnc(-c3ccccc3)o2)cc1 (3D coordinates assigned)
CCCc1ccc(NC(=O)CSc2nnc(-c3ccccc3)o2)cc1 (optimized conformer: 74.04590938705608 kcal/mol)

>  <smiles>  (43) 
CCCc1ccc(NC(=O)CSc2nnc(-c3ccccc3)o2)cc1

>  <score_type>  (43) 
oracle

>  <origin>  (43) 
adgpu

>  <m_score__min__energy>  (43) 
-8.5899999999999999

>  <m_primary>  (43) 
energy

$$$$
43:0
     RDKit          3D

 27 28  0  0  0  0  0  0  0  0999 V2000
   -3.1810   25.6720  -31.6090 H   0  0  0  0  0  0  0  0  0  0  0  0
   -3.4930   25.2910  -30.7240 O   0  0  0  0  0  0  0  0  0  0  0  0
   -4.8160   24.9030  -30.5070 C   0  0  0  0  0  0  0  0  0  0  0  0
   -5.7450   25.7810  -29.9630 C   0  0  0  0  0  0  0  0  0  0  0  0
   -5.5545   26.8214  -29.6609 H   0  0  0  0  0  0  0  0  0  0  0  0
   -7.2120   24.9690  -29.8490 S   0  0  0  0  0  0  0  0  0  0  0  0
   -6.6160   23.5380  -30.4930 C   0  0  0  0  0  0  0  0  0  0  0  0
   -7.3720   22.4870  -30.6490 N   0  0  0  0  0  0  0  0  0  0  0  0
   -7.0150   21.1790  -31.1880 C   0  0  0  0  0  0  0  0  0  0  0  0
   -7.0808   20.4235  -30.3912 H   0  0  0  0  0  0  0  0  0  0  0  0
   -5.9871   21.2109  -31.5783 H   0  0  0  0  0  0  0  0  0  0  0  0
   -7.9740   20.8160  -32.3120 C   0  0  0  0  0  0  0  0  0  0  0  0
   -8.9217   20.4573  -31.8839 H   0  0  0  0  0  0  0  0  0  0  0  0
   -8.1648   21.7041  -32.9324 H   0  0  0  0  0  0  0  0  0  0  0  0
   -7.5289   20.0241  -32.9324 H   0  0  0  0  0  0  0  0  0  0  0  0
   -5.2900   23.6540  -30.8050 N   0  0  0  0  0  0  0  0  0  0  0  0
   -4.4500   22.6380  -31.3720 C   0  0  0  0  0  0  0  0  0  0  0  0
   -3.4850   22.0010  -30.5790 C   0  0  0  0  0  0  0  0  0  0  0  0
   -3.3917   22.2590  -29.5138 H   0  0  0  0  0  0  0  0  0  0  0  0
   -2.6410   21.0380  -31.1410 C   0  0  0  0  0  0  0  0  0  0  0  0
   -1.8933   20.5295  -30.5146 H   0  0  0  0  0  0  0  0  0  0  0  0
   -2.7470   20.7210  -32.4990 C   0  0  0  0  0  0  0  0  0  0  0  0
   -2.0858   19.9599  -32.9390 H   0  0  0  0  0  0  0  0  0  0  0  0
   -3.6930   21.3710  -33.2980 C   0  0  0  0  0  0  0  0  0  0  0  0
   -3.7718   21.1249  -34.3672 H   0  0  0  0  0  0  0  0  0  0  0  0
   -4.5390   22.3340  -32.7380 C   0  0  0  0  0  0  0  0  0  0  0  0
   -5.2747   22.8533  -33.3697 H   0  0  0  0  0  0  0  0  0  0  0  0
  1  2  1  0
  2  3  1  0
  3  4  2  0
  4  5  1  0
  4  6  1  0
  6  7  1  0
  7  8  2  0
  8  9  1  0
  9 10  1  0
  9 11  1  0
  9 12  1  0
 12 13  1  0
 12 14  1  0
 12 15  1  0
  7 16  1  0
 16 17  1  0
 17 18  2  0
 18 19  1  0
 18 20  1  0
 20 21  1  0
 20 22  2  0
 22 23  1  0
 22 24  1  0
 24 25  1  0
 24 26  2  0
 26 27  1  0
 16  3  1  0
 26 17  1  0
M  END
>  <UniqueID>  (44) 
41

>  <SMILES>  (44) 
CC/N=c1/scc(O)n1-c1ccccc1

>  <Energy>  (44) 
66.05176851092811

>  <Genealogy>  (44) 
CC/N=c1/scc(O)n1-c1ccccc1 (cis-trans isomerization)
CC/N=c1/scc(O)n1-c1ccccc1 (3D coordinates assigned)
CC/N=c1/scc(O)n1-c1ccccc1 (optimized conformer: 66.05176851092811 kcal/mol)

>  <smiles>  (44) 
CCN=c1scc(O)n1-c1ccccc1

>  <score_type>  (44) 
oracle

>  <origin>  (44) 
adgpu

>  <m_score__min__energy>  (44) 
-6.5899999999999999

>  <m_primary>  (44) 
energy

$$$$
44:0
     RDKit          3D

 38 40  0  0  0  0  0  0  0  0999 V2000
   -6.2010   17.8510  -34.1930 C   0  0  0  0  0  0  0  0  0  0  0  0
   -5.7460   19.2480  -34.1230 N   0  0  0  0  0  0  0  0  0  0  0  0
   -4.2870   19.3290  -33.8540 C   0  0  0  0  0  0  0  0  0  0  0  0
   -3.9520   19.7010  -32.4020 C   0  0  0  0  0  0  0  0  0  0  0  0
   -4.6390   20.9430  -32.0200 N   0  0  0  0  0  0  0  0  0  0  0  0
   -4.0910   21.8300  -31.0230 C   0  0  0  0  0  0  0  0  0  0  0  0
   -3.4540   21.3390  -29.8780 C   0  0  0  0  0  0  0  0  0  0  0  0
   -2.9430   22.2430  -28.9450 C   0  0  0  0  0  0  0  0  0  0  0  0
   -2.3540   21.7990  -27.9220 O   0  0  0  0  0  0  0  0  0  0  0  0
   -3.0750   23.5930  -29.1480 N   0  0  0  0  0  0  0  0  0  0  0  0
   -2.5470   24.5260  -28.1820 C   0  0  0  0  0  0  0  0  0  0  0  0
   -3.1500   24.6570  -26.9190 C   0  0  0  0  0  0  0  0  0  0  0  0
   -2.6380   25.5610  -25.9850 C   0  0  0  0  0  0  0  0  0  0  0  0
   -1.5210   26.3430  -26.3020 C   0  0  0  0  0  0  0  0  0  0  0  0
   -0.8800   27.4770  -25.1280 Cl  0  0  0  0  0  0  0  0  0  0  0  0
   -0.9170   26.2180  -27.5580 C   0  0  0  0  0  0  0  0  0  0  0  0
   -1.4270   25.3140  -28.4950 C   0  0  0  0  0  0  0  0  0  0  0  0
   -3.7130   24.0510  -30.2710 C   0  0  0  0  0  0  0  0  0  0  0  0
   -3.8620   25.2870  -30.4700 O   0  0  0  0  0  0  0  0  0  0  0  0
   -4.2070   23.1740  -31.1820 N   0  0  0  0  0  0  0  0  0  0  0  0
   -5.8980   21.2910  -32.6910 C   0  0  0  0  0  0  0  0  0  0  0  0
   -6.5940   20.0210  -33.1860 C   0  0  0  0  0  0  0  0  0  0  0  0
   -6.3297   17.4558  -33.1745 H   0  0  0  0  0  0  0  0  0  0  0  0
   -7.1608   17.8044  -34.7284 H   0  0  0  0  0  0  0  0  0  0  0  0
   -5.4528   17.2481  -34.7284 H   0  0  0  0  0  0  0  0  0  0  0  0
   -3.8372   18.3499  -34.0753 H   0  0  0  0  0  0  0  0  0  0  0  0
   -3.8836   20.1274  -34.4941 H   0  0  0  0  0  0  0  0  0  0  0  0
   -4.2757   18.8879  -31.7356 H   0  0  0  0  0  0  0  0  0  0  0  0
   -2.8660   19.8521  -32.3137 H   0  0  0  0  0  0  0  0  0  0  0  0
   -3.3572   20.2554  -29.7153 H   0  0  0  0  0  0  0  0  0  0  0  0
   -4.0283   24.0454  -26.6651 H   0  0  0  0  0  0  0  0  0  0  0  0
   -3.1138   25.6586  -24.9980 H   0  0  0  0  0  0  0  0  0  0  0  0
   -0.0394   26.8320  -27.8087 H   0  0  0  0  0  0  0  0  0  0  0  0
   -0.9492   25.2195  -29.4813 H   0  0  0  0  0  0  0  0  0  0  0  0
   -6.5562   21.8148  -31.9822 H   0  0  0  0  0  0  0  0  0  0  0  0
   -5.6818   21.9432  -33.5500 H   0  0  0  0  0  0  0  0  0  0  0  0
   -6.8332   19.3872  -32.3193 H   0  0  0  0  0  0  0  0  0  0  0  0
   -7.5046   20.3225  -33.7244 H   0  0  0  0  0  0  0  0  0  0  0  0
  1  2  1  0
  2  3  1  0
  3  4  1  0
  4  5  1  0
  5  6  1  0
  6  7  2  0
  7  8  1  0
  8  9  2  0
  8 10  1  0
 10 11  1  0
 11 12  2  0
 12 13  1  0
 13 14  2  0
 14 15  1  0
 14 16  1  0
 16 17  2  0
 10 18  1  0
 18 19  2  0
 18 20  1  0
  5 21  1  0
 21 22  1  0
 22  2  1  0
 20  6  1  0
 17 11  1  0
  1 23  1  0
  1 24  1  0
  1 25  1  0
  3 26  1  0
  3 27  1  0
  4 28  1  0
  4 29  1  0
  7 30  1  0
 12 31  1  0
 13 32  1  0
 16 33  1  0
 17 34  1  0
 21 35  1  0
 21 36  1  0
 22 37  1  0
 22 38  1  0
M  CHG  1  20  -1
M  END
>  <UniqueID>  (45) 
42

>  <SMILES>  (45) 
CN1CCN(c2cc(=O)n(-c3ccc(Cl)cc3)c(=O)[n-]2)CC1

>  <Energy>  (45) 
58.52140775711568

>  <Genealogy>  (45) 
CN1CCN(c2cc(=O)n(-c3ccc(Cl)cc3)c(=O)[n-]2)CC1 (protonated)
CN1CCN(c2cc(=O)n(-c3ccc(Cl)cc3)c(=O)[n-]2)CC1 (3D coordinates assigned)
CN1CCN(c2cc(=O)n(-c3ccc(Cl)cc3)c(=O)[n-]2)CC1 (nonaromatic ring conformer: 58.52140775711568 kcal/mol)

>  <smiles>  (45) 
CN1CCN(c2cc(=O)n(-c3ccc(Cl)cc3)c(=O)[nH]2)CC1

>  <score_type>  (45) 
oracle

>  <origin>  (45) 
adgpu

>  <m_score__min__energy>  (45) 
-8.1500000000000004

>  <m_primary>  (45) 
energy

$$$$
45:0
     RDKit          3D

 40 42  0  0  0  0  0  0  0  0999 V2000
   -1.4000   21.1810  -31.3320 O   0  0  0  0  0  0  0  0  0  0  0  0
   -2.2420   21.9750  -30.8310 C   0  0  0  0  0  0  0  0  0  0  0  0
   -3.5980   21.9730  -31.3060 N   0  0  0  0  0  0  0  0  0  0  0  0
   -4.1840   20.8920  -32.0530 C   0  0  0  0  0  0  0  0  0  0  0  0
   -3.5560   20.3650  -33.1970 C   0  0  0  0  0  0  0  0  0  0  0  0
   -4.1360   19.2980  -33.8900 C   0  0  0  0  0  0  0  0  0  0  0  0
   -5.3370   18.7420  -33.4450 C   0  0  0  0  0  0  0  0  0  0  0  0
   -5.9570   19.2460  -32.2990 C   0  0  0  0  0  0  0  0  0  0  0  0
   -7.1190   18.6990  -31.8610 F   0  0  0  0  0  0  0  0  0  0  0  0
   -5.3800   20.3120  -31.6010 C   0  0  0  0  0  0  0  0  0  0  0  0
   -1.8190   22.9300  -29.7720 C   0  0  0  0  0  0  0  0  0  0  0  0
   -0.7790   22.5660  -28.8980 C   0  0  0  0  0  0  0  0  0  0  0  0
   -0.3450   23.4440  -27.9030 C   0  0  0  0  0  0  0  0  0  0  0  0
   -0.9410   24.6960  -27.7670 C   0  0  0  0  0  0  0  0  0  0  0  0
   -1.9740   25.0760  -28.6240 C   0  0  0  0  0  0  0  0  0  0  0  0
   -2.4250   24.2030  -29.6340 C   0  0  0  0  0  0  0  0  0  0  0  0
   -3.5090   24.5730  -30.5010 N   0  0  0  0  0  0  0  0  0  0  0  0
   -5.1100   25.0080  -29.9950 S   0  0  0  0  0  0  0  0  0  0  0  0
   -5.4290   26.4040  -30.4520 O   0  0  0  0  0  0  0  0  0  0  0  0
   -5.1940   24.9230  -28.4960 O   0  0  0  0  0  0  0  0  0  0  0  0
   -6.2650   23.8920  -30.7130 C   0  0  0  0  0  0  0  0  0  0  0  0
   -7.0850   23.1020  -29.8930 C   0  0  0  0  0  0  0  0  0  0  0  0
   -7.9980   22.2100  -30.4640 C   0  0  0  0  0  0  0  0  0  0  0  0
   -8.0960   22.1000  -31.8540 C   0  0  0  0  0  0  0  0  0  0  0  0
   -8.9810   21.2350  -32.4060 F   0  0  0  0  0  0  0  0  0  0  0  0
   -7.2750   22.8810  -32.6750 C   0  0  0  0  0  0  0  0  0  0  0  0
   -6.3610   23.7740  -32.1070 C   0  0  0  0  0  0  0  0  0  0  0  0
   -4.1560   22.8500  -31.1960 H   0  0  0  0  0  0  0  0  0  0  0  0
   -2.6056   20.7940  -33.5472 H   0  0  0  0  0  0  0  0  0  0  0  0
   -3.6448   18.8955  -34.7882 H   0  0  0  0  0  0  0  0  0  0  0  0
   -5.7948   17.9075  -33.9965 H   0  0  0  0  0  0  0  0  0  0  0  0
   -5.8660   20.6981  -30.6928 H   0  0  0  0  0  0  0  0  0  0  0  0
   -0.3027   21.5796  -28.9994 H   0  0  0  0  0  0  0  0  0  0  0  0
    0.4689   23.1468  -27.2253 H   0  0  0  0  0  0  0  0  0  0  0  0
   -0.5964   25.3859  -26.9826 H   0  0  0  0  0  0  0  0  0  0  0  0
   -2.4405   26.0657  -28.5104 H   0  0  0  0  0  0  0  0  0  0  0  0
   -7.0094   23.1846  -28.7987 H   0  0  0  0  0  0  0  0  0  0  0  0
   -8.6404   21.5936  -29.8180 H   0  0  0  0  0  0  0  0  0  0  0  0
   -7.3487   22.7924  -33.7689 H   0  0  0  0  0  0  0  0  0  0  0  0
   -5.7159   24.3853  -32.7552 H   0  0  0  0  0  0  0  0  0  0  0  0
  1  2  2  0
  2  3  1  0
  3  4  1  0
  4  5  2  0
  5  6  1  0
  6  7  2  0
  7  8  1  0
  8  9  1  0
  8 10  2  0
  2 11  1  0
 11 12  2  0
 12 13  1  0
 13 14  2  0
 14 15  1  0
 15 16  2  0
 16 17  1  0
 17 18  1  0
 18 19  2  0
 18 20  2  0
 18 21  1  0
 21 22  2  0
 22 23  1  0
 23 24  2  0
 24 25  1  0
 24 26  1  0
 26 27  2  0
 10  4  1  0
 16 11  1  0
 27 21  1  0
  3 28  1  0
  5 29  1  0
  6 30  1  0
  7 31  1  0
 10 32  1  0
 12 33  1  0
 13 34  1  0
 14 35  1  0
 15 36  1  0
 22 37  1  0
 23 38  1  0
 26 39  1  0
 27 40  1  0
M  CHG  1  17  -1
M  END
>  <UniqueID>  (46) 
43

>  <SMILES>  (46) 
O=C(Nc1cccc(F)c1)c1ccccc1[N-]S(=O)(=O)c1ccc(F)cc1

>  <Energy>  (46) 
54.553964880712286

>  <Genealogy>  (46) 
O=C(Nc1cccc(F)c1)c1ccccc1[N-]S(=O)(=O)c1ccc(F)cc1 (protonated)
O=C(Nc1cccc(F)c1)c1ccccc1[N-]S(=O)(=O)c1ccc(F)cc1 (3D coordinates assigned)
O=C(Nc1cccc(F)c1)c1ccccc1[N-]S(=O)(=O)c1ccc(F)cc1 (optimized conformer: 54.553964880712286 kcal/mol)

>  <smiles>  (46) 
O=C(Nc1cccc(F)c1)c1ccccc1NS(=O)(=O)c1ccc(F)cc1

>  <score_type>  (46) 
oracle

>  <origin>  (46) 
adgpu

>  <m_score__min__energy>  (46) 
-9.5199999999999996

>  <m_primary>  (46) 
energy

$$$$
46:0
     RDKit          3D

 33 35  0  0  0  0  0  0  0  0999 V2000
   -5.6720   25.8420  -30.8250 C   0  0  0  0  0  0  0  0  0  0  0  0
   -4.6720   24.8160  -30.3800 C   0  0  0  0  0  0  0  0  0  0  0  0
   -3.4870   25.2690  -29.8900 N   0  0  0  0  0  0  0  0  0  0  0  0
   -2.5160   24.4380  -29.4400 C   0  0  0  0  0  0  0  0  0  0  0  0
   -1.3180   24.9700  -28.9490 C   0  0  0  0  0  0  0  0  0  0  0  0
   -0.3170   24.1210  -28.4710 C   0  0  0  0  0  0  0  0  0  0  0  0
   -0.5090   22.7360  -28.4790 C   0  0  0  0  0  0  0  0  0  0  0  0
    0.4650   21.9160  -28.0140 F   0  0  0  0  0  0  0  0  0  0  0  0
   -1.7030   22.1960  -28.9680 C   0  0  0  0  0  0  0  0  0  0  0  0
   -2.7190   23.0430  -29.4540 C   0  0  0  0  0  0  0  0  0  0  0  0
   -3.9320   22.5400  -29.9570 C   0  0  0  0  0  0  0  0  0  0  0  0
   -4.1430   21.2960  -29.9490 O   0  0  0  0  0  0  0  0  0  0  0  0
   -4.9150   23.4210  -30.4580 C   0  0  0  0  0  0  0  0  0  0  0  0
   -6.4270   22.7490  -31.1280 S   0  0  0  0  0  0  0  0  0  0  0  0
   -7.1710   23.7490  -31.9670 O   0  0  0  0  0  0  0  0  0  0  0  0
   -7.3070   22.3370  -29.9810 O   0  0  0  0  0  0  0  0  0  0  0  0
   -6.0830   21.3600  -32.1700 C   0  0  0  0  0  0  0  0  0  0  0  0
   -4.7800   21.1670  -32.6610 C   0  0  0  0  0  0  0  0  0  0  0  0
   -4.4910   20.0830  -33.4910 C   0  0  0  0  0  0  0  0  0  0  0  0
   -5.4970   19.1800  -33.8390 C   0  0  0  0  0  0  0  0  0  0  0  0
   -6.7950   19.3590  -33.3570 C   0  0  0  0  0  0  0  0  0  0  0  0
   -7.0960   20.4430  -32.5230 C   0  0  0  0  0  0  0  0  0  0  0  0
   -8.7510   20.6160  -31.9470 Cl  0  0  0  0  0  0  0  0  0  0  0  0
   -6.1311   26.3131  -29.9433 H   0  0  0  0  0  0  0  0  0  0  0  0
   -5.1659   26.6095  -31.4290 H   0  0  0  0  0  0  0  0  0  0  0  0
   -6.4522   25.3557  -31.4290 H   0  0  0  0  0  0  0  0  0  0  0  0
   -1.1644   26.0592  -28.9395 H   0  0  0  0  0  0  0  0  0  0  0  0
    0.6239   24.5427  -28.0877 H   0  0  0  0  0  0  0  0  0  0  0  0
   -1.8495   21.1058  -28.9732 H   0  0  0  0  0  0  0  0  0  0  0  0
   -3.9831   21.8749  -32.3892 H   0  0  0  0  0  0  0  0  0  0  0  0
   -3.4689   19.9399  -33.8716 H   0  0  0  0  0  0  0  0  0  0  0  0
   -5.2668   18.3265  -34.4937 H   0  0  0  0  0  0  0  0  0  0  0  0
   -7.5850   18.6452  -33.6336 H   0  0  0  0  0  0  0  0  0  0  0  0
  1  2  1  0
  2  3  1  0
  3  4  1  0
  4  5  2  0
  5  6  1  0
  6  7  2  0
  7  8  1  0
  7  9  1  0
  9 10  2  0
 10 11  1  0
 11 12  2  0
 11 13  1  0
 13 14  1  0
 14 15  2  0
 14 16  2  0
 14 17  1  0
 17 18  2  0
 18 19  1  0
 19 20  2  0
 20 21  1  0
 21 22  2  0
 22 23  1  0
 13  2  2  0
 22 17  1  0
 10  4  1  0
  1 24  1  0
  1 25  1  0
  1 26  1  0
  5 27  1  0
  6 28  1  0
  9 29  1  0
 18 30  1  0
 19 31  1  0
 20 32  1  0
 21 33  1  0
M  CHG  1   3  -1
M  END
>  <UniqueID>  (47) 
44

>  <SMILES>  (47) 
Cc1[n-]c2ccc(F)cc2c(=O)c1S(=O)(=O)c1ccccc1Cl

>  <Energy>  (47) 
47.28710208490709

>  <Genealogy>  (47) 
Cc1[n-]c2ccc(F)cc2c(=O)c1S(=O)(=O)c1ccccc1Cl (protonated)
Cc1[n-]c2ccc(F)cc2c(=O)c1S(=O)(=O)c1ccccc1Cl (3D coordinates assigned)
Cc1[n-]c2ccc(F)cc2c(=O)c1S(=O)(=O)c1ccccc1Cl (optimized conformer: 47.28710208490709 kcal/mol)

>  <smiles>  (47) 
Cc1[nH]c2ccc(F)cc2c(=O)c1S(=O)(=O)c1ccccc1Cl

>  <score_type>  (47) 
oracle

>  <origin>  (47) 
adgpu

>  <m_score__min__energy>  (47) 
-9.7300000000000004

>  <m_primary>  (47) 
energy

$$$$
47:0
     RDKit          3D

 55 58  0  0  0  0  0  0  0  0999 V2000
   -0.8150   26.6810  -23.6230 C   0  0  0  0  0  0  0  0  0  0  0  0
   -0.9240   26.9570  -25.0160 O   0  0  0  0  0  0  0  0  0  0  0  0
   -1.5340   26.1080  -25.9500 C   0  0  0  0  0  0  0  0  0  0  0  0
   -2.8300   25.6590  -25.6890 C   0  0  0  0  0  0  0  0  0  0  0  0
   -3.4780   24.8070  -26.5790 C   0  0  0  0  0  0  0  0  0  0  0  0
   -2.8310   24.3700  -27.7380 C   0  0  0  0  0  0  0  0  0  0  0  0
   -3.5170   23.4680  -28.6180 N   0  0  0  0  0  0  0  0  0  0  0  0
   -3.8150   23.8060  -29.9830 C   0  0  0  0  0  0  0  0  0  0  0  0
   -3.5950   24.9720  -30.4090 O   0  0  0  0  0  0  0  0  0  0  0  0
   -4.2520   22.7350  -30.9410 C   0  0  0  0  0  0  0  0  0  0  0  0
   -2.8900   22.1620  -32.0220 S   0  0  0  0  0  0  0  0  0  0  0  0
   -3.6230   20.5670  -32.4090 C   0  0  0  0  0  0  0  0  0  0  0  0
   -3.0870   19.8610  -33.3550 N   0  0  0  0  0  0  0  0  0  0  0  0
   -3.5130   18.5760  -33.8270 C   0  0  0  0  0  0  0  0  0  0  0  0
   -2.5250   17.7350  -34.3660 C   0  0  0  0  0  0  0  0  0  0  0  0
   -2.8650   16.5010  -34.9210 C   0  0  0  0  0  0  0  0  0  0  0  0
   -4.1990   16.0960  -34.9570 C   0  0  0  0  0  0  0  0  0  0  0  0
   -5.1950   16.9260  -34.4400 C   0  0  0  0  0  0  0  0  0  0  0  0
   -4.8720   18.1630  -33.8670 C   0  0  0  0  0  0  0  0  0  0  0  0
   -5.9660   18.9940  -33.4480 N   0  0  0  0  0  0  0  0  0  0  0  0
   -5.9810   19.8650  -32.4850 C   0  0  0  0  0  0  0  0  0  0  0  0
   -7.2490   20.5860  -32.2090 C   0  0  0  0  0  0  0  0  0  0  0  0
   -8.4950   19.9720  -32.4430 C   0  0  0  0  0  0  0  0  0  0  0  0
   -9.6850   20.6710  -32.2150 C   0  0  0  0  0  0  0  0  0  0  0  0
   -9.6450   21.9940  -31.7590 C   0  0  0  0  0  0  0  0  0  0  0  0
   -8.4120   22.6170  -31.5380 C   0  0  0  0  0  0  0  0  0  0  0  0
   -7.2220   21.9210  -31.7600 C   0  0  0  0  0  0  0  0  0  0  0  0
   -4.7790   20.0650  -31.6040 C   0  0  0  0  0  0  0  0  0  0  0  0
   -1.5370   24.8360  -28.0360 C   0  0  0  0  0  0  0  0  0  0  0  0
   -0.9350   24.4390  -29.2430 O   0  0  0  0  0  0  0  0  0  0  0  0
   -0.5590   23.1020  -29.5560 C   0  0  0  0  0  0  0  0  0  0  0  0
   -0.8900   25.7010  -27.1310 C   0  0  0  0  0  0  0  0  0  0  0  0
   -1.1595   27.5534  -23.0483 H   0  0  0  0  0  0  0  0  0  0  0  0
   -1.4360   25.8083  -23.3724 H   0  0  0  0  0  0  0  0  0  0  0  0
    0.2347   26.4681  -23.3724 H   0  0  0  0  0  0  0  0  0  0  0  0
   -3.3439   25.9815  -24.7714 H   0  0  0  0  0  0  0  0  0  0  0  0
   -4.5056   24.4757  -26.3687 H   0  0  0  0  0  0  0  0  0  0  0  0
   -3.5650   22.4620  -28.3380 H   0  0  0  0  0  0  0  0  0  0  0  0
   -4.6285   21.8777  -30.3637 H   0  0  0  0  0  0  0  0  0  0  0  0
   -5.0333   23.1628  -31.5865 H   0  0  0  0  0  0  0  0  0  0  0  0
   -1.4721   18.0529  -34.3502 H   0  0  0  0  0  0  0  0  0  0  0  0
   -2.0807   15.8473  -35.3303 H   0  0  0  0  0  0  0  0  0  0  0  0
   -4.4664   15.1221  -35.3930 H   0  0  0  0  0  0  0  0  0  0  0  0
   -6.2462   16.6050  -34.4830 H   0  0  0  0  0  0  0  0  0  0  0  0
   -8.5325   18.9349  -32.8078 H   0  0  0  0  0  0  0  0  0  0  0  0
  -10.6532   20.1806  -32.3942 H   0  0  0  0  0  0  0  0  0  0  0  0
  -10.5807   22.5423  -31.5749 H   0  0  0  0  0  0  0  0  0  0  0  0
   -8.3798   23.6593  -31.1879 H   0  0  0  0  0  0  0  0  0  0  0  0
   -6.2570   22.4185  -31.5831 H   0  0  0  0  0  0  0  0  0  0  0  0
   -5.0213   20.7982  -30.8206 H   0  0  0  0  0  0  0  0  0  0  0  0
   -4.5058   19.1022  -31.1476 H   0  0  0  0  0  0  0  0  0  0  0  0
   -0.4004   22.5382  -28.6249 H   0  0  0  0  0  0  0  0  0  0  0  0
   -1.3576   22.6243  -30.1425 H   0  0  0  0  0  0  0  0  0  0  0  0
    0.3716   23.1106  -30.1425 H   0  0  0  0  0  0  0  0  0  0  0  0
    0.1263   26.0602  -27.3505 H   0  0  0  0  0  0  0  0  0  0  0  0
  1  2  1  0
  2  3  1  0
  3  4  2  0
  4  5  1  0
  5  6  2  0
  6  7  1  0
  7  8  1  0
  8  9  2  0
  8 10  1  0
 10 11  1  0
 11 12  1  0
 12 13  2  0
 13 14  1  0
 14 15  2  0
 15 16  1  0
 16 17  2  0
 17 18  1  0
 18 19  2  0
 19 20  1  0
 20 21  2  0
 21 22  1  0
 22 23  2  0
 23 24  1  0
 24 25  2  0
 25 26  1  0
 26 27  2  0
 21 28  1  0
  6 29  1  0
 29 30  1  0
 30 31  1  0
 29 32  2  0
 32  3  1  0
 28 12  1  0
 19 14  1  0
 27 22  1  0
  1 33  1  0
  1 34  1  0
  1 35  1  0
  4 36  1  0
  5 37  1  0
  7 38  1  0
 10 39  1  0
 10 40  1  0
 15 41  1  0
 16 42  1  0
 17 43  1  0
 18 44  1  0
 23 45  1  0
 24 46  1  0
 25 47  1  0
 26 48  1  0
 27 49  1  0
 28 50  1  0
 28 51  1  0
 31 52  1  0
 31 53  1  0
 31 54  1  0
 32 55  1  0
M  END
>  <UniqueID>  (48) 
45

>  <SMILES>  (48) 
COc1ccc(NC(=O)CSC2=Nc3ccccc3N=C(c3ccccc3)C2)c(OC)c1

>  <Energy>  (48) 
74.78493529124583

>  <Genealogy>  (48) 
COc1ccc(NC(=O)CSC2=Nc3ccccc3N=C(c3ccccc3)C2)c(OC)c1 (3D coordinates assigned)
COc1ccc(NC(=O)CSC2=Nc3ccccc3N=C(c3ccccc3)C2)c(OC)c1 (nonaromatic ring conformer: 74.78493529124583 kcal/mol)

>  <smiles>  (48) 
COc1ccc(NC(=O)CSC2=Nc3ccccc3N=C(c3ccccc3)C2)c(OC)c1

>  <score_type>  (48) 
oracle

>  <origin>  (48) 
adgpu

>  <m_score__min__energy>  (48) 
-8.5800000000000001

>  <m_primary>  (48) 
energy

$$$$
48:0
     RDKit          3D

 39 41  0  0  0  0  0  0  0  0999 V2000
   -2.6460   18.3960  -33.7110 C   0  0  0  0  0  0  0  0  0  0  0  0
   -3.8720   18.8840  -34.2450 O   0  0  0  0  0  0  0  0  0  0  0  0
   -4.7910   19.6810  -33.5410 C   0  0  0  0  0  0  0  0  0  0  0  0
   -4.3860   20.8230  -32.8280 C   0  0  0  0  0  0  0  0  0  0  0  0
   -5.3210   21.5990  -32.1340 C   0  0  0  0  0  0  0  0  0  0  0  0
   -4.8960   22.7990  -31.3850 C   0  0  0  0  0  0  0  0  0  0  0  0
   -5.1570   24.0670  -31.7610 N   0  0  0  0  0  0  0  0  0  0  0  0
   -4.6150   24.8480  -30.8400 N   0  0  0  0  0  0  0  0  0  0  0  0
   -4.0440   24.0300  -29.9350 C   0  0  0  0  0  0  0  0  0  0  0  0
   -3.3230   24.4860  -28.7310 C   0  0  0  0  0  0  0  0  0  0  0  0
   -3.9740   24.5130  -27.4860 C   0  0  0  0  0  0  0  0  0  0  0  0
   -3.2940   24.9450  -26.3430 C   0  0  0  0  0  0  0  0  0  0  0  0
   -1.9600   25.3540  -26.4330 C   0  0  0  0  0  0  0  0  0  0  0  0
   -1.1090   25.8950  -24.9970 Cl  0  0  0  0  0  0  0  0  0  0  0  0
   -1.3050   25.3300  -27.6680 C   0  0  0  0  0  0  0  0  0  0  0  0
   -1.9810   24.8990  -28.8130 C   0  0  0  0  0  0  0  0  0  0  0  0
   -4.2140   22.7720  -30.2650 O   0  0  0  0  0  0  0  0  0  0  0  0
   -6.6720   21.2280  -32.1550 C   0  0  0  0  0  0  0  0  0  0  0  0
   -7.1000   20.0880  -32.8640 C   0  0  0  0  0  0  0  0  0  0  0  0
   -8.4550   19.7210  -32.8810 O   0  0  0  0  0  0  0  0  0  0  0  0
   -9.0670   18.8020  -31.9810 C   0  0  0  0  0  0  0  0  0  0  0  0
   -6.1440   19.3070  -33.5640 C   0  0  0  0  0  0  0  0  0  0  0  0
   -6.4680   18.1520  -34.3000 O   0  0  0  0  0  0  0  0  0  0  0  0
   -6.3150   16.8020  -33.8730 C   0  0  0  0  0  0  0  0  0  0  0  0
   -2.6917   18.4142  -32.6121 H   0  0  0  0  0  0  0  0  0  0  0  0
   -2.4816   17.3639  -34.0541 H   0  0  0  0  0  0  0  0  0  0  0  0
   -1.8173   19.0328  -34.0541 H   0  0  0  0  0  0  0  0  0  0  0  0
   -3.3240   21.1092  -32.8156 H   0  0  0  0  0  0  0  0  0  0  0  0
   -5.0236   24.1928  -27.4101 H   0  0  0  0  0  0  0  0  0  0  0  0
   -3.8095   24.9631  -25.3714 H   0  0  0  0  0  0  0  0  0  0  0  0
   -0.2553   25.6510  -27.7387 H   0  0  0  0  0  0  0  0  0  0  0  0
   -1.4612   24.8827  -29.7823 H   0  0  0  0  0  0  0  0  0  0  0  0
   -7.4094   21.8357  -31.6100 H   0  0  0  0  0  0  0  0  0  0  0  0
   -8.8613   19.1108  -30.9455 H   0  0  0  0  0  0  0  0  0  0  0  0
  -10.1537   18.7906  -32.1513 H   0  0  0  0  0  0  0  0  0  0  0  0
   -8.6586   17.7949  -32.1513 H   0  0  0  0  0  0  0  0  0  0  0  0
   -6.3106   16.7634  -32.7737 H   0  0  0  0  0  0  0  0  0  0  0  0
   -7.1505   16.1988  -34.2578 H   0  0  0  0  0  0  0  0  0  0  0  0
   -5.3657   16.4011  -34.2578 H   0  0  0  0  0  0  0  0  0  0  0  0
  1  2  1  0
  2  3  1  0
  3  4  2  0
  4  5  1  0
  5  6  1  0
  6  7  2  0
  7  8  1  0
  8  9  2  0
  9 10  1  0
 10 11  2  0
 11 12  1  0
 12 13  2  0
 13 14  1  0
 13 15  1  0
 15 16  2  0
  9 17  1  0
  5 18  2  0
 18 19  1  0
 19 20  1  0
 20 21  1  0
 19 22  2  0
 22 23  1  0
 23 24  1  0
 22  3  1  0
 17  6  1  0
 16 10  1  0
  1 25  1  0
  1 26  1  0
  1 27  1  0
  4 28  1  0
 11 29  1  0
 12 30  1  0
 15 31  1  0
 16 32  1  0
 18 33  1  0
 21 34  1  0
 21 35  1  0
 21 36  1  0
 24 37  1  0
 24 38  1  0
 24 39  1  0
M  END
>  <UniqueID>  (49) 
46

>  <SMILES>  (49) 
COc1cc(-c2nnc(-c3ccc(Cl)cc3)o2)cc(OC)c1OC

>  <Energy>  (49) 
77.71723262139042

>  <Genealogy>  (49) 
COc1cc(-c2nnc(-c3ccc(Cl)cc3)o2)cc(OC)c1OC (3D coordinates assigned)
COc1cc(-c2nnc(-c3ccc(Cl)cc3)o2)cc(OC)c1OC (optimized conformer: 77.71723262139042 kcal/mol)

>  <smiles>  (49) 
COc1cc(-c2nnc(-c3ccc(Cl)cc3)o2)cc(OC)c1OC

>  <score_type>  (49) 
oracle

>  <origin>  (49) 
adgpu

>  <m_score__min__energy>  (49) 
-7.4199999999999999

>  <m_primary>  (49) 
energy

$$$$
