0:0
     RDKit          3D

 38 40  0  0  0  0  0  0  0  0999 V2000
   -4.3318   20.9568  -33.4734 H   0  0  0  0  0  0  0  0  0  0  0  0
   -5.1530   20.2370  -33.3410 C   0  0  0  0  0  0  0  0  0  0  0  0
   -5.0220   18.9680  -33.8090 N   0  0  0  0  0  0  0  0  0  0  0  0
   -6.0030   18.0300  -33.6780 C   0  0  0  0  0  0  0  0  0  0  0  0
   -5.7910   16.6980  -34.2050 N   0  0  0  0  0  0  0  0  0  0  0  0
   -4.4710   16.3470  -34.7420 C   0  0  0  0  0  0  0  0  0  0  0  0
   -3.7745   16.1618  -33.9110 H   0  0  0  0  0  0  0  0  0  0  0  0
   -4.5554   15.4401  -35.3588 H   0  0  0  0  0  0  0  0  0  0  0  0
   -4.0938   17.1760  -35.3588 H   0  0  0  0  0  0  0  0  0  0  0  0
   -6.8660   15.6980  -34.2080 C   0  0  0  0  0  0  0  0  0  0  0  0
   -7.1360   15.4468  -33.1717 H   0  0  0  0  0  0  0  0  0  0  0  0
   -7.7454   16.1066  -34.7273 H   0  0  0  0  0  0  0  0  0  0  0  0
   -6.5220   14.7914  -34.7273 H   0  0  0  0  0  0  0  0  0  0  0  0
   -7.2000   18.3910  -33.0320 C   0  0  0  0  0  0  0  0  0  0  0  0
   -8.0081   17.6541  -32.9139 H   0  0  0  0  0  0  0  0  0  0  0  0
   -7.3570   19.6880  -32.5420 C   0  0  0  0  0  0  0  0  0  0  0  0
   -8.2921   19.9708  -32.0364 H   0  0  0  0  0  0  0  0  0  0  0  0
   -6.3320   20.6340  -32.6890 C   0  0  0  0  0  0  0  0  0  0  0  0
   -6.5040   22.0110  -32.1660 C   0  0  0  0  0  0  0  0  0  0  0  0
   -7.7040   22.6050  -32.0010 N   0  0  0  0  0  0  0  0  0  0  0  0
   -7.4810   23.7960  -31.5260 O   0  0  0  0  0  0  0  0  0  0  0  0
   -6.1960   24.0080  -31.3710 C   0  0  0  0  0  0  0  0  0  0  0  0
   -5.6030   25.2770  -30.8460 C   0  0  0  0  0  0  0  0  0  0  0  0
   -5.7633   26.0812  -31.5792 H   0  0  0  0  0  0  0  0  0  0  0  0
   -6.0907   25.5279  -29.8925 H   0  0  0  0  0  0  0  0  0  0  0  0
   -4.1660   25.1180  -30.6130 N   0  0  0  0  0  0  0  0  0  0  0  0
   -3.5900   24.5530  -29.5880 C   0  0  0  0  0  0  0  0  0  0  0  0
   -4.3230   24.0100  -28.5120 C   0  0  0  0  0  0  0  0  0  0  0  0
   -5.4221   24.0542  -28.5124 H   0  0  0  0  0  0  0  0  0  0  0  0
   -3.6620   23.4320  -27.4750 N   0  0  0  0  0  0  0  0  0  0  0  0
   -2.3070   23.3670  -27.4490 C   0  0  0  0  0  0  0  0  0  0  0  0
   -1.7904   22.8941  -26.6008 H   0  0  0  0  0  0  0  0  0  0  0  0
   -1.5750   23.9050  -28.5070 C   0  0  0  0  0  0  0  0  0  0  0  0
   -0.4759   23.8608  -28.4986 H   0  0  0  0  0  0  0  0  0  0  0  0
   -2.2290   24.4850  -29.5500 N   0  0  0  0  0  0  0  0  0  0  0  0
   -1.6650   24.8830  -30.3360 H   0  0  0  0  0  0  0  0  0  0  0  0
   -5.5050   22.8850  -31.7730 C   0  0  0  0  0  0  0  0  0  0  0  0
   -4.4172   22.7219  -31.7799 H   0  0  0  0  0  0  0  0  0  0  0  0
  1  2  1  0
  2  3  2  0
  3  4  1  0
  4  5  1  0
  5  6  1  0
  6  7  1  0
  6  8  1  0
  6  9  1  0
  5 10  1  0
 10 11  1  0
 10 12  1  0
 10 13  1  0
  4 14  2  0
 14 15  1  0
 14 16  1  0
 16 17  1  0
 16 18  2  0
 18 19  1  0
 19 20  2  0
 20 21  1  0
 21 22  1  0
 22 23  1  0
 23 24  1  0
 23 25  1  0
 23 26  1  0
 26 27  2  0
 27 28  1  0
 28 29  1  0
 28 30  2  0
 30 31  1  0
 31 32  1  0
 31 33  2  0
 33 34  1  0
 33 35  1  0
 35 36  1  0
 22 37  2  0
 37 38  1  0
 18  2  1  0
 37 19  1  0
 35 27  1  0
M  END
>  <UniqueID>  (1) 
1

>  <SMILES>  (1) 
CN(C)c1ccc(-c2cc(C/N=c3\cncc[nH]3)on2)cn1

>  <Energy>  (1) 
74.10774734957899

>  <Genealogy>  (1) 
CN(C)c1ccc(-c2cc(C/N=c3\cncc[nH]3)on2)cn1 (cis-trans isomerization)
CN(C)c1ccc(-c2cc(C/N=c3\cncc[nH]3)on2)cn1 (3D coordinates assigned)
CN(C)c1ccc(-c2cc(C/N=c3\cncc[nH]3)on2)cn1 (optimized conformer: 74.10774734957899 kcal/mol)

>  <smiles>  (1) 
CN(C)c1ccc(-c2cc(CN=c3cncc[nH]3)on2)cn1

>  <score_type>  (1) 
oracle

>  <origin>  (1) 
adgpu

>  <m_score__min__energy>  (1) 
-7.4699999999999998

>  <m_primary>  (1) 
energy

$$$$
1:0
     RDKit          3D

 41 44  0  0  0  0  0  0  0  0999 V2000
   -5.4610   26.1200  -30.0800 O   0  0  0  0  0  0  0  0  0  0  0  0
   -4.9370   25.0960  -30.5960 C   0  0  0  0  0  0  0  0  0  0  0  0
   -3.5240   24.8840  -30.5110 N   0  0  0  0  0  0  0  0  0  0  0  0
   -2.8700   24.2000  -29.4330 C   0  0  0  0  0  0  0  0  0  0  0  0
   -2.5770   24.9250  -28.2710 C   0  0  0  0  0  0  0  0  0  0  0  0
   -1.8650   24.3350  -27.2130 C   0  0  0  0  0  0  0  0  0  0  0  0
   -1.5800   25.1170  -25.9550 C   0  0  0  0  0  0  0  0  0  0  0  0
   -0.7020   26.1560  -26.2110 F   0  0  0  0  0  0  0  0  0  0  0  0
   -1.0190   24.2750  -25.0140 F   0  0  0  0  0  0  0  0  0  0  0  0
   -2.7470   25.6550  -25.4400 F   0  0  0  0  0  0  0  0  0  0  0  0
   -1.4980   22.9840  -27.3090 C   0  0  0  0  0  0  0  0  0  0  0  0
   -1.8170   22.2430  -28.4480 C   0  0  0  0  0  0  0  0  0  0  0  0
   -2.5190   22.8310  -29.5130 C   0  0  0  0  0  0  0  0  0  0  0  0
   -2.9290   22.0100  -30.6220 N   0  0  0  0  0  0  0  0  0  0  0  0
   -3.4580   20.7710  -30.5500 C   0  0  0  0  0  0  0  0  0  0  0  0
   -3.6750   20.2830  -31.8230 C   0  0  0  0  0  0  0  0  0  0  0  0
   -3.2470   21.2620  -32.6990 C   0  0  0  0  0  0  0  0  0  0  0  0
   -2.7850   22.3080  -31.9270 C   0  0  0  0  0  0  0  0  0  0  0  0
   -5.7770   24.1040  -31.2720 C   0  0  0  0  0  0  0  0  0  0  0  0
   -5.9780   22.7960  -30.8860 C   0  0  0  0  0  0  0  0  0  0  0  0
   -6.8480   22.3030  -31.8440 C   0  0  0  0  0  0  0  0  0  0  0  0
   -7.4080   20.9330  -31.9230 C   0  0  0  0  0  0  0  0  0  0  0  0
   -6.7400   19.9370  -32.6550 C   0  0  0  0  0  0  0  0  0  0  0  0
   -7.2660   18.6470  -32.7300 C   0  0  0  0  0  0  0  0  0  0  0  0
   -8.4630   18.3570  -32.0740 C   0  0  0  0  0  0  0  0  0  0  0  0
   -9.1040   19.3260  -31.3710 N   0  0  0  0  0  0  0  0  0  0  0  0
   -8.6130   20.5910  -31.2800 C   0  0  0  0  0  0  0  0  0  0  0  0
   -7.1300   23.2810  -32.7310 N   0  0  0  0  0  0  0  0  0  0  0  0
   -6.4730   24.3400  -32.3580 O   0  0  0  0  0  0  0  0  0  0  0  0
   -2.9087   25.9703  -28.1855 H   0  0  0  0  0  0  0  0  0  0  0  0
   -0.9550   22.5055  -26.4806 H   0  0  0  0  0  0  0  0  0  0  0  0
   -1.5154   21.1871  -28.5123 H   0  0  0  0  0  0  0  0  0  0  0  0
   -3.6824   20.2314  -29.6181 H   0  0  0  0  0  0  0  0  0  0  0  0
   -4.1047   19.3057  -32.0881 H   0  0  0  0  0  0  0  0  0  0  0  0
   -3.2701   21.2164  -33.7978 H   0  0  0  0  0  0  0  0  0  0  0  0
   -2.3624   23.2449  -32.3189 H   0  0  0  0  0  0  0  0  0  0  0  0
   -5.5488   22.2685  -30.0214 H   0  0  0  0  0  0  0  0  0  0  0  0
   -5.7983   20.1753  -33.1711 H   0  0  0  0  0  0  0  0  0  0  0  0
   -6.7422   17.8660  -33.3007 H   0  0  0  0  0  0  0  0  0  0  0  0
   -8.8873   17.3435  -32.1263 H   0  0  0  0  0  0  0  0  0  0  0  0
   -9.1597   21.3503  -30.7015 H   0  0  0  0  0  0  0  0  0  0  0  0
  1  2  2  0
  2  3  1  0
  3  4  1  0
  4  5  2  0
  5  6  1  0
  6  7  1  0
  7  8  1  0
  7  9  1  0
  7 10  1  0
  6 11  2  0
 11 12  1  0
 12 13  2  0
 13 14  1  0
 14 15  1  0
 15 16  2  0
 16 17  1  0
 17 18  2  0
  2 19  1  0
 19 20  2  0
 20 21  1  0
 21 22  1  0
 22 23  2  0
 23 24  1  0
 24 25  2  0
 25 26  1  0
 26 27  2  0
 21 28  2  0
 28 29  1  0
 13  4  1  0
 18 14  1  0
 29 19  1  0
 27 22  1  0
  5 30  1  0
 11 31  1  0
 12 32  1  0
 15 33  1  0
 16 34  1  0
 17 35  1  0
 18 36  1  0
 20 37  1  0
 23 38  1  0
 24 39  1  0
 25 40  1  0
 27 41  1  0
M  CHG  1   3  -1
M  END
>  <UniqueID>  (2) 
2

>  <SMILES>  (2) 
O=C([N-]c1cc(C(F)(F)F)ccc1-n1cccc1)c1cc(-c2cccnc2)no1

>  <Energy>  (2) 
113.6564508156938

>  <Genealogy>  (2) 
O=C([N-]c1cc(C(F)(F)F)ccc1-n1cccc1)c1cc(-c2cccnc2)no1 (protonated)
O=C([N-]c1cc(C(F)(F)F)ccc1-n1cccc1)c1cc(-c2cccnc2)no1 (3D coordinates assigned)
O=C([N-]c1cc(C(F)(F)F)ccc1-n1cccc1)c1cc(-c2cccnc2)no1 (optimized conformer: 113.6564508156938 kcal/mol)

>  <smiles>  (2) 
O=C(Nc1cc(C(F)(F)F)ccc1-n1cccc1)c1cc(-c2cccnc2)no1

>  <score_type>  (2) 
oracle

>  <origin>  (2) 
adgpu

>  <m_score__min__energy>  (2) 
-10.16

>  <m_primary>  (2) 
energy

$$$$
2:0
     RDKit          3D

 30 31  0  0  0  0  0  0  0  0999 V2000
   -2.9880   24.5420  -27.4810 C   0  0  0  0  0  0  0  0  0  0  0  0
   -2.2660   24.8390  -29.0820 S   0  0  0  0  0  0  0  0  0  0  0  0
   -1.2800   25.9670  -28.9630 O   0  0  0  0  0  0  0  0  0  0  0  0
   -1.5430   23.6140  -29.5660 O   0  0  0  0  0  0  0  0  0  0  0  0
   -3.4960   25.2920  -30.2170 N   0  0  0  0  0  0  0  0  0  0  0  0
   -4.7360   24.6030  -30.4350 C   0  0  0  0  0  0  0  0  0  0  0  0
   -5.9440   25.0410  -29.8640 C   0  0  0  0  0  0  0  0  0  0  0  0
   -7.1260   24.3370  -30.0930 C   0  0  0  0  0  0  0  0  0  0  0  0
   -7.1200   23.1930  -30.8940 C   0  0  0  0  0  0  0  0  0  0  0  0
   -5.9250   22.7410  -31.4780 C   0  0  0  0  0  0  0  0  0  0  0  0
   -5.9330   21.5280  -32.3320 C   0  0  0  0  0  0  0  0  0  0  0  0
   -4.7590   20.7850  -32.5280 C   0  0  0  0  0  0  0  0  0  0  0  0
   -4.7780   19.6420  -33.3260 C   0  0  0  0  0  0  0  0  0  0  0  0
   -5.9750   19.2400  -33.9250 C   0  0  0  0  0  0  0  0  0  0  0  0
   -5.9930   18.1770  -34.6670 N   0  0  0  0  0  0  0  0  0  0  0  0
   -7.1130   19.9650  -33.7220 N   0  0  0  0  0  0  0  0  0  0  0  0
   -7.1150   21.0840  -32.9470 C   0  0  0  0  0  0  0  0  0  0  0  0
   -4.7310   23.4530  -31.2380 C   0  0  0  0  0  0  0  0  0  0  0  0
   -3.5550   23.0120  -31.7530 F   0  0  0  0  0  0  0  0  0  0  0  0
   -2.2745   24.8355  -26.6969 H   0  0  0  0  0  0  0  0  0  0  0  0
   -3.9093   25.1342  -27.3787 H   0  0  0  0  0  0  0  0  0  0  0  0
   -3.2260   23.4729  -27.3787 H   0  0  0  0  0  0  0  0  0  0  0  0
   -5.9568   25.9427  -29.2341 H   0  0  0  0  0  0  0  0  0  0  0  0
   -8.0668   24.6842  -29.6409 H   0  0  0  0  0  0  0  0  0  0  0  0
   -8.0563   22.6427  -31.0686 H   0  0  0  0  0  0  0  0  0  0  0  0
   -3.8211   21.1052  -32.0507 H   0  0  0  0  0  0  0  0  0  0  0  0
   -3.8574   19.0607  -33.4831 H   0  0  0  0  0  0  0  0  0  0  0  0
   -6.8660   17.8390  -35.1320 H   0  0  0  0  0  0  0  0  0  0  0  0
   -8.0120   19.6640  -34.1620 H   0  0  0  0  0  0  0  0  0  0  0  0
   -8.0499   21.6450  -32.8012 H   0  0  0  0  0  0  0  0  0  0  0  0
  1  2  1  0
  2  3  2  0
  2  4  2  0
  2  5  1  0
  5  6  1  0
  6  7  2  0
  7  8  1  0
  8  9  2  0
  9 10  1  0
 10 11  1  0
 11 12  1  0
 12 13  2  0
 13 14  1  0
 14 15  2  3
 14 16  1  0
 16 17  1  0
 10 18  2  0
 18 19  1  0
 18  6  1  0
 17 11  2  0
  1 20  1  0
  1 21  1  0
  1 22  1  0
  7 23  1  0
  8 24  1  0
  9 25  1  0
 12 26  1  0
 13 27  1  0
 15 28  1  0
 16 29  1  0
 17 30  1  0
M  CHG  1   5  -1
M  END
>  <UniqueID>  (3) 
3

>  <SMILES>  (3) 
CS(=O)(=O)[N-]c1cccc(-c2ccc(=N)[nH]c2)c1F

>  <Energy>  (3) 
36.38540961963524

>  <Genealogy>  (3) 
CS(=O)(=O)[N-]c1cccc(-c2ccc(=N)[nH]c2)c1F (protonated)
CS(=O)(=O)[N-]c1cccc(-c2ccc(=N)[nH]c2)c1F (3D coordinates assigned)
CS(=O)(=O)[N-]c1cccc(-c2ccc(=N)[nH]c2)c1F (optimized conformer: 36.38540961963524 kcal/mol)

>  <smiles>  (3) 
CS(=O)(=O)Nc1cccc(-c2ccc(=N)[nH]c2)c1F

>  <score_type>  (3) 
oracle

>  <origin>  (3) 
adgpu

>  <m_score__min__energy>  (3) 
-9.6300000000000008

>  <m_primary>  (3) 
energy

$$$$
3:0
     RDKit          3D

 39 42  0  0  0  0  0  0  0  0999 V2000
   -6.2770   15.5990  -34.2340 C   0  0  0  0  0  0  0  0  0  0  0  0
   -7.1960   16.6590  -33.9880 O   0  0  0  0  0  0  0  0  0  0  0  0
   -6.8450   17.8970  -33.4290 C   0  0  0  0  0  0  0  0  0  0  0  0
   -5.7070   18.5470  -33.9130 C   0  0  0  0  0  0  0  0  0  0  0  0
   -5.3150   19.7820  -33.3900 C   0  0  0  0  0  0  0  0  0  0  0  0
   -6.0610   20.3930  -32.3660 C   0  0  0  0  0  0  0  0  0  0  0  0
   -5.6320   21.7040  -31.8210 C   0  0  0  0  0  0  0  0  0  0  0  0
   -5.4870   22.0480  -30.4860 C   0  0  0  0  0  0  0  0  0  0  0  0
   -5.0680   23.3600  -30.5320 C   0  0  0  0  0  0  0  0  0  0  0  0
   -4.7460   24.2300  -29.3580 C   0  0  0  0  0  0  0  0  0  0  0  0
   -3.2700   24.1850  -29.0520 C   0  0  0  0  0  0  0  0  0  0  0  0
   -2.5300   25.2890  -29.3380 N   0  0  0  0  0  0  0  0  0  0  0  0
   -1.2240   25.3550  -29.0830 N   0  0  0  0  0  0  0  0  0  0  0  0
   -0.5540   24.3230  -28.5150 C   0  0  0  0  0  0  0  0  0  0  0  0
    0.6810   24.4370  -28.2950 O   0  0  0  0  0  0  0  0  0  0  0  0
   -1.2480   23.1490  -28.1800 C   0  0  0  0  0  0  0  0  0  0  0  0
   -0.5900   22.0570  -27.5800 C   0  0  0  0  0  0  0  0  0  0  0  0
   -1.3000   20.9020  -27.2500 C   0  0  0  0  0  0  0  0  0  0  0  0
   -2.6670   20.8220  -27.5100 C   0  0  0  0  0  0  0  0  0  0  0  0
   -3.3360   21.8960  -28.1050 C   0  0  0  0  0  0  0  0  0  0  0  0
   -2.6370   23.0720  -28.4480 C   0  0  0  0  0  0  0  0  0  0  0  0
   -4.9820   23.7370  -31.7850 O   0  0  0  0  0  0  0  0  0  0  0  0
   -5.3130   22.7690  -32.5880 N   0  0  0  0  0  0  0  0  0  0  0  0
   -7.2070   19.7390  -31.8800 C   0  0  0  0  0  0  0  0  0  0  0  0
   -7.5960   18.5020  -32.4040 C   0  0  0  0  0  0  0  0  0  0  0  0
   -5.9231   15.1908  -33.2758 H   0  0  0  0  0  0  0  0  0  0  0  0
   -6.7777   14.8054  -34.8081 H   0  0  0  0  0  0  0  0  0  0  0  0
   -5.4205   15.9821  -34.8081 H   0  0  0  0  0  0  0  0  0  0  0  0
   -5.1136   18.0818  -34.7139 H   0  0  0  0  0  0  0  0  0  0  0  0
   -4.4161   20.2802  -33.7821 H   0  0  0  0  0  0  0  0  0  0  0  0
   -5.6645   21.4216  -29.5993 H   0  0  0  0  0  0  0  0  0  0  0  0
   -5.0364   25.2662  -29.5857 H   0  0  0  0  0  0  0  0  0  0  0  0
   -5.3008   23.8627  -28.4821 H   0  0  0  0  0  0  0  0  0  0  0  0
    0.4883   22.1153  -27.3708 H   0  0  0  0  0  0  0  0  0  0  0  0
   -0.7796   20.0525  -26.7835 H   0  0  0  0  0  0  0  0  0  0  0  0
   -3.2221   19.9098  -27.2459 H   0  0  0  0  0  0  0  0  0  0  0  0
   -4.4149   21.8232  -28.3070 H   0  0  0  0  0  0  0  0  0  0  0  0
   -7.8027   20.2043  -31.0808 H   0  0  0  0  0  0  0  0  0  0  0  0
   -8.4931   17.9996  -32.0132 H   0  0  0  0  0  0  0  0  0  0  0  0
  1  2  1  0
  2  3  1  0
  3  4  2  0
  4  5  1  0
  5  6  2  0
  6  7  1  0
  7  8  1  0
  8  9  2  0
  9 10  1  0
 10 11  1  0
 11 12  2  0
 12 13  1  0
 13 14  1  0
 14 15  2  0
 14 16  1  0
 16 17  2  0
 17 18  1  0
 18 19  2  0
 19 20  1  0
 20 21  2  0
  9 22  1  0
 22 23  1  0
  6 24  1  0
 24 25  2  0
 25  3  1  0
 23  7  2  0
 21 11  1  0
 21 16  1  0
  1 26  1  0
  1 27  1  0
  1 28  1  0
  4 29  1  0
  5 30  1  0
  8 31  1  0
 10 32  1  0
 10 33  1  0
 17 34  1  0
 18 35  1  0
 19 36  1  0
 20 37  1  0
 24 38  1  0
 25 39  1  0
M  CHG  1  13  -1
M  END
>  <UniqueID>  (4) 
4

>  <SMILES>  (4) 
COc1ccc(-c2cc(Cc3n[n-]c(=O)c4ccccc34)on2)cc1

>  <Energy>  (4) 
80.63889110228753

>  <Genealogy>  (4) 
COc1ccc(-c2cc(Cc3n[n-]c(=O)c4ccccc34)on2)cc1 (protonated)
COc1ccc(-c2cc(Cc3n[n-]c(=O)c4ccccc34)on2)cc1 (3D coordinates assigned)
COc1ccc(-c2cc(Cc3n[n-]c(=O)c4ccccc34)on2)cc1 (optimized conformer: 80.63889110228753 kcal/mol)

>  <smiles>  (4) 
COc1ccc(-c2cc(Cc3n[nH]c(=O)c4ccccc34)on2)cc1

>  <score_type>  (4) 
oracle

>  <origin>  (4) 
adgpu

>  <m_score__min__energy>  (4) 
-10.51

>  <m_primary>  (4) 
energy

$$$$
4:0
     RDKit          3D

 40 43  0  0  0  0  0  0  0  0999 V2000
   -0.0860   22.9291  -28.7373 H   0  0  0  0  0  0  0  0  0  0  0  0
   -1.0970   23.2590  -28.4560 C   0  0  0  0  0  0  0  0  0  0  0  0
   -2.2920   23.7960  -29.5160 S   0  0  0  0  0  0  0  0  0  0  0  0
   -3.4090   24.0640  -28.2820 C   0  0  0  0  0  0  0  0  0  0  0  0
   -4.6190   24.5110  -28.4280 N   0  0  0  0  0  0  0  0  0  0  0  0
   -5.3260   24.9240  -29.9570 S   0  0  0  0  0  0  0  0  0  0  0  0
   -4.2940   25.5590  -30.8450 O   0  0  0  0  0  0  0  0  0  0  0  0
   -6.4630   25.8870  -29.7540 O   0  0  0  0  0  0  0  0  0  0  0  0
   -5.9320   23.4560  -30.7170 C   0  0  0  0  0  0  0  0  0  0  0  0
   -5.0520   22.5930  -31.3810 C   0  0  0  0  0  0  0  0  0  0  0  0
   -3.9790   22.8314  -31.4232 H   0  0  0  0  0  0  0  0  0  0  0  0
   -5.5310   21.4290  -31.9910 C   0  0  0  0  0  0  0  0  0  0  0  0
   -4.8327   20.7558  -32.5099 H   0  0  0  0  0  0  0  0  0  0  0  0
   -6.9020   21.1150  -31.9440 C   0  0  0  0  0  0  0  0  0  0  0  0
   -7.7860   22.0120  -31.3200 C   0  0  0  0  0  0  0  0  0  0  0  0
   -7.3020   23.1650  -30.6950 C   0  0  0  0  0  0  0  0  0  0  0  0
   -7.9991   23.8457  -30.1844 H   0  0  0  0  0  0  0  0  0  0  0  0
   -9.1580   21.7490  -31.3250 O   0  0  0  0  0  0  0  0  0  0  0  0
   -9.7210   20.7830  -32.2100 C   0  0  0  0  0  0  0  0  0  0  0  0
  -10.7227   20.5032  -31.8518 H   0  0  0  0  0  0  0  0  0  0  0  0
   -9.7887   21.2183  -33.2179 H   0  0  0  0  0  0  0  0  0  0  0  0
   -8.8380   19.5340  -32.2660 C   0  0  0  0  0  0  0  0  0  0  0  0
   -8.9021   19.0029  -31.3049 H   0  0  0  0  0  0  0  0  0  0  0  0
   -9.1906   18.8875  -33.0831 H   0  0  0  0  0  0  0  0  0  0  0  0
   -7.4370   19.9000  -32.5230 N   0  0  0  0  0  0  0  0  0  0  0  0
   -6.5840   18.9060  -33.1080 C   0  0  0  0  0  0  0  0  0  0  0  0
   -6.1090   19.0730  -34.4170 C   0  0  0  0  0  0  0  0  0  0  0  0
   -6.3819   19.9715  -34.9898 H   0  0  0  0  0  0  0  0  0  0  0  0
   -5.2890   18.0990  -34.9950 C   0  0  0  0  0  0  0  0  0  0  0  0
   -4.9140   18.2347  -36.0202 H   0  0  0  0  0  0  0  0  0  0  0  0
   -4.9450   16.9530  -34.2720 C   0  0  0  0  0  0  0  0  0  0  0  0
   -4.2972   16.1897  -34.7277 H   0  0  0  0  0  0  0  0  0  0  0  0
   -5.4240   16.7760  -32.9690 C   0  0  0  0  0  0  0  0  0  0  0  0
   -4.9950   15.3370  -32.0640 Cl  0  0  0  0  0  0  0  0  0  0  0  0
   -6.2450   17.7490  -32.3890 C   0  0  0  0  0  0  0  0  0  0  0  0
   -6.6259   17.6070  -31.3669 H   0  0  0  0  0  0  0  0  0  0  0  0
   -2.8910   23.7520  -27.0760 N   0  0  0  0  0  0  0  0  0  0  0  0
   -3.4110   23.8420  -26.1730 H   0  0  0  0  0  0  0  0  0  0  0  0
   -1.6100   23.3050  -27.1640 C   0  0  0  0  0  0  0  0  0  0  0  0
   -1.0252   23.0034  -26.2825 H   0  0  0  0  0  0  0  0  0  0  0  0
  1  2  1  0
  2  3  1  0
  3  4  1  0
  4  5  2  0
  5  6  1  0
  6  7  2  0
  6  8  2  0
  6  9  1  0
  9 10  2  0
 10 11  1  0
 10 12  1  0
 12 13  1  0
 12 14  2  0
 14 15  1  0
 15 16  2  0
 16 17  1  0
 15 18  1  0
 18 19  1  0
 19 20  1  0
 19 21  1  0
 19 22  1  0
 22 23  1  0
 22 24  1  0
 22 25  1  0
 25 26  1  0
 26 27  2  0
 27 28  1  0
 27 29  1  0
 29 30  1  0
 29 31  2  0
 31 32  1  0
 31 33  1  0
 33 34  1  0
 33 35  2  0
 35 36  1  0
  4 37  1  0
 37 38  1  0
 37 39  1  0
 39 40  1  0
 39  2  2  0
 16  9  1  0
 35 26  1  0
 25 14  1  0
M  END
>  <UniqueID>  (5) 
5

>  <SMILES>  (5) 
O=S(=O)(/N=c1/[nH]ccs1)c1ccc2c(c1)OCCN2c1cccc(Cl)c1

>  <Energy>  (5) 
86.72462006261648

>  <Genealogy>  (5) 
O=S(=O)(/N=c1/[nH]ccs1)c1ccc2c(c1)OCCN2c1cccc(Cl)c1 (cis-trans isomerization)
O=S(=O)(/N=c1/[nH]ccs1)c1ccc2c(c1)OCCN2c1cccc(Cl)c1 (3D coordinates assigned)
O=S(=O)(/N=c1/[nH]ccs1)c1ccc2c(c1)OCCN2c1cccc(Cl)c1 (nonaromatic ring conformer: 86.72462006261648 kcal/mol)

>  <smiles>  (5) 
O=S(=O)(N=c1[nH]ccs1)c1ccc2c(c1)OCCN2c1cccc(Cl)c1

>  <score_type>  (5) 
oracle

>  <origin>  (5) 
adgpu

>  <m_score__min__energy>  (5) 
-9.9199999999999999

>  <m_primary>  (5) 
energy

$$$$
5:0
     RDKit          3D

 38 40  0  0  0  0  0  0  0  0999 V2000
   -1.0530   19.5330  -31.5950 C   0  0  0  0  0  0  0  0  0  0  0  0
   -2.0160   20.7230  -31.6120 C   0  0  0  0  0  0  0  0  0  0  0  0
   -1.5320   21.8360  -30.6770 C   0  0  0  0  0  0  0  0  0  0  0  0
   -2.1820   21.2440  -33.0120 C   0  0  0  0  0  0  0  0  0  0  0  0
   -1.1690   21.4320  -33.7420 O   0  0  0  0  0  0  0  0  0  0  0  0
   -3.4700   21.4450  -33.5160 O   0  0  0  0  0  0  0  0  0  0  0  0
   -4.5970   20.7280  -33.0970 C   0  0  0  0  0  0  0  0  0  0  0  0
   -5.5920   21.1810  -32.2280 C   0  0  0  0  0  0  0  0  0  0  0  0
   -5.6810   22.5030  -31.5660 C   0  0  0  0  0  0  0  0  0  0  0  0
   -6.9420   22.9990  -31.1920 C   0  0  0  0  0  0  0  0  0  0  0  0
   -7.0590   24.2440  -30.5680 C   0  0  0  0  0  0  0  0  0  0  0  0
   -5.9220   25.0160  -30.3160 C   0  0  0  0  0  0  0  0  0  0  0  0
   -6.0660   26.2540  -29.6890 O   0  0  0  0  0  0  0  0  0  0  0  0
   -4.6590   24.5380  -30.7000 C   0  0  0  0  0  0  0  0  0  0  0  0
   -3.5190   25.2990  -30.4700 O   0  0  0  0  0  0  0  0  0  0  0  0
   -4.5410   23.2910  -31.3240 C   0  0  0  0  0  0  0  0  0  0  0  0
   -6.4810   20.2210  -32.0400 O   0  0  0  0  0  0  0  0  0  0  0  0
   -6.1230   19.1840  -32.7600 C   0  0  0  0  0  0  0  0  0  0  0  0
   -6.7890   17.9670  -32.8780 C   0  0  0  0  0  0  0  0  0  0  0  0
   -6.2450   17.0000  -33.7440 C   0  0  0  0  0  0  0  0  0  0  0  0
   -6.8780   15.7710  -33.8920 O   0  0  0  0  0  0  0  0  0  0  0  0
   -5.0650   17.2750  -34.4700 C   0  0  0  0  0  0  0  0  0  0  0  0
   -4.4130   18.5140  -34.3300 C   0  0  0  0  0  0  0  0  0  0  0  0
   -4.9630   19.4430  -33.4450 C   0  0  0  0  0  0  0  0  0  0  0  0
   -0.8296   19.2569  -30.5539 H   0  0  0  0  0  0  0  0  0  0  0  0
   -1.5169   18.6785  -32.1094 H   0  0  0  0  0  0  0  0  0  0  0  0
   -0.1206   19.8085  -32.1094 H   0  0  0  0  0  0  0  0  0  0  0  0
   -2.9945   20.3761  -31.2484 H   0  0  0  0  0  0  0  0  0  0  0  0
   -1.6686   21.5220  -29.6317 H   0  0  0  0  0  0  0  0  0  0  0  0
   -0.4663   22.0344  -30.8640 H   0  0  0  0  0  0  0  0  0  0  0  0
   -2.1136   22.7507  -30.8640 H   0  0  0  0  0  0  0  0  0  0  0  0
   -7.8441   22.4023  -31.3921 H   0  0  0  0  0  0  0  0  0  0  0  0
   -8.0508   24.6179  -30.2739 H   0  0  0  0  0  0  0  0  0  0  0  0
   -5.3950   26.5950  -29.0120 H   0  0  0  0  0  0  0  0  0  0  0  0
   -3.5494   22.9242  -31.6276 H   0  0  0  0  0  0  0  0  0  0  0  0
   -7.7111   17.7676  -32.3123 H   0  0  0  0  0  0  0  0  0  0  0  0
   -4.6527   16.5149  -35.1499 H   0  0  0  0  0  0  0  0  0  0  0  0
   -3.5000   18.7430  -34.8992 H   0  0  0  0  0  0  0  0  0  0  0  0
  1  2  1  0
  2  3  1  0
  2  4  1  0
  4  5  2  0
  4  6  1  0
  6  7  1  0
  7  8  2  0
  8  9  1  0
  9 10  2  0
 10 11  1  0
 11 12  2  0
 12 13  1  0
 12 14  1  0
 14 15  1  0
 14 16  2  0
  8 17  1  0
 17 18  1  0
 18 19  2  0
 19 20  1  0
 20 21  1  0
 20 22  2  0
 22 23  1  0
 23 24  2  0
 24  7  1  0
 16  9  1  0
 24 18  1  0
  1 25  1  0
  1 26  1  0
  1 27  1  0
  2 28  1  0
  3 29  1  0
  3 30  1  0
  3 31  1  0
 10 32  1  0
 11 33  1  0
 13 34  1  0
 16 35  1  0
 19 36  1  0
 22 37  1  0
 23 38  1  0
M  CHG  2  15  -1  21  -1
M  END
>  <UniqueID>  (6) 
6

>  <SMILES>  (6) 
CC(C)C(=O)Oc1c(-c2ccc(O)c([O-])c2)oc2cc([O-])ccc12

>  <Energy>  (6) 
78.2107865377331

>  <Genealogy>  (6) 
CC(C)C(=O)Oc1c(-c2ccc(O)c([O-])c2)oc2cc([O-])ccc12 (protonated)
CC(C)C(=O)Oc1c(-c2ccc(O)c([O-])c2)oc2cc([O-])ccc12 (3D coordinates assigned)
CC(C)C(=O)Oc1c(-c2ccc(O)c([O-])c2)oc2cc([O-])ccc12 (optimized conformer: 78.2107865377331 kcal/mol)

>  <smiles>  (6) 
CC(C)C(=O)Oc1c(-c2ccc(O)c(O)c2)oc2cc(O)ccc12

>  <score_type>  (6) 
oracle

>  <origin>  (6) 
adgpu

>  <m_score__min__energy>  (6) 
-10.91

>  <m_primary>  (6) 
energy

$$$$
6:0
     RDKit          3D

 30 32  0  0  0  0  0  0  0  0999 V2000
   -5.2060   17.0000  -33.4030 O   0  0  0  0  0  0  0  0  0  0  0  0
   -5.4840   18.3580  -33.9840 S   0  0  0  0  0  0  0  0  0  0  0  0
   -6.0340   18.1940  -35.3710 O   0  0  0  0  0  0  0  0  0  0  0  0
   -4.0010   19.2540  -34.0620 N   0  0  0  0  0  0  0  0  0  0  0  0
   -3.4300   20.0040  -32.9800 C   0  0  0  0  0  0  0  0  0  0  0  0
   -2.3750   19.4370  -32.2590 C   0  0  0  0  0  0  0  0  0  0  0  0
   -1.7820   20.1370  -31.2060 C   0  0  0  0  0  0  0  0  0  0  0  0
   -2.2380   21.4120  -30.8640 C   0  0  0  0  0  0  0  0  0  0  0  0
   -3.2990   21.9980  -31.5740 C   0  0  0  0  0  0  0  0  0  0  0  0
   -3.7810   23.3490  -31.2180 C   0  0  0  0  0  0  0  0  0  0  0  0
   -3.1020   24.2260  -30.4560 N   0  0  0  0  0  0  0  0  0  0  0  0
   -3.8840   25.2910  -30.3860 N   0  0  0  0  0  0  0  0  0  0  0  0
   -4.9930   25.0770  -31.0740 N   0  0  0  0  0  0  0  0  0  0  0  0
   -4.9610   23.8670  -31.6090 N   0  0  0  0  0  0  0  0  0  0  0  0
   -3.8950   21.2860  -32.6290 C   0  0  0  0  0  0  0  0  0  0  0  0
   -6.6620   19.2250  -33.0030 C   0  0  0  0  0  0  0  0  0  0  0  0
   -7.4970   18.5180  -32.1250 C   0  0  0  0  0  0  0  0  0  0  0  0
   -8.4470   19.2010  -31.3570 C   0  0  0  0  0  0  0  0  0  0  0  0
   -8.5640   20.5900  -31.4620 C   0  0  0  0  0  0  0  0  0  0  0  0
   -9.4860   21.2500  -30.7180 F   0  0  0  0  0  0  0  0  0  0  0  0
   -7.7310   21.2980  -32.3320 C   0  0  0  0  0  0  0  0  0  0  0  0
   -6.7810   20.6190  -33.1010 C   0  0  0  0  0  0  0  0  0  0  0  0
   -2.0097   18.4335  -32.5226 H   0  0  0  0  0  0  0  0  0  0  0  0
   -0.9528   19.6825  -30.6440 H   0  0  0  0  0  0  0  0  0  0  0  0
   -1.7646   21.9594  -30.0356 H   0  0  0  0  0  0  0  0  0  0  0  0
   -4.7317   21.7339  -33.1852 H   0  0  0  0  0  0  0  0  0  0  0  0
   -7.4049   17.4252  -32.0400 H   0  0  0  0  0  0  0  0  0  0  0  0
   -9.1019   18.6445  -30.6704 H   0  0  0  0  0  0  0  0  0  0  0  0
   -7.8227   22.3912  -32.4121 H   0  0  0  0  0  0  0  0  0  0  0  0
   -6.1257   21.1792  -33.7842 H   0  0  0  0  0  0  0  0  0  0  0  0
  1  2  2  0
  2  3  2  0
  2  4  1  0
  4  5  1  0
  5  6  2  0
  6  7  1  0
  7  8  2  0
  8  9  1  0
  9 10  1  0
 10 11  1  0
 11 12  2  0
 12 13  1  0
 13 14  1  0
  9 15  2  0
  2 16  1  0
 16 17  2  0
 17 18  1  0
 18 19  2  0
 19 20  1  0
 19 21  1  0
 21 22  2  0
 15  5  1  0
 22 16  1  0
 14 10  2  0
  6 23  1  0
  7 24  1  0
  8 25  1  0
 15 26  1  0
 17 27  1  0
 18 28  1  0
 21 29  1  0
 22 30  1  0
M  CHG  2   4  -1  13  -1
M  END
>  <UniqueID>  (7) 
7

>  <SMILES>  (7) 
O=S(=O)([N-]c1cccc(-c2nn[n-]n2)c1)c1ccc(F)cc1

>  <Energy>  (7) 
74.14520463037212

>  <Genealogy>  (7) 
O=S(=O)([N-]c1cccc(-c2nn[n-]n2)c1)c1ccc(F)cc1 (protonated)
O=S(=O)([N-]c1cccc(-c2nn[n-]n2)c1)c1ccc(F)cc1 (3D coordinates assigned)
O=S(=O)([N-]c1cccc(-c2nn[n-]n2)c1)c1ccc(F)cc1 (optimized conformer: 74.14520463037212 kcal/mol)

>  <smiles>  (7) 
O=S(=O)(Nc1cccc(-c2nn[nH]n2)c1)c1ccc(F)cc1

>  <score_type>  (7) 
oracle

>  <origin>  (7) 
adgpu

>  <m_score__min__energy>  (7) 
-9.5399999999999991

>  <m_primary>  (7) 
energy

$$$$
7:0
     RDKit          3D

 52 55  0  0  1  0  0  0  0  0999 V2000
   -1.2100   21.1710  -33.8470 C   0  0  0  0  0  0  0  0  0  0  0  0
   -1.9660   20.3520  -32.9750 O   0  0  0  0  0  0  0  0  0  0  0  0
   -3.1800   19.7860  -33.3380 C   0  0  0  0  0  0  0  0  0  0  0  0
   -4.3660   20.2910  -32.8450 C   0  0  0  0  0  0  0  0  0  0  0  0
   -5.5930   19.7330  -33.2000 C   0  0  0  0  0  0  0  0  0  0  0  0
   -6.8430   20.2700  -32.6770 C   0  0  0  0  0  0  0  0  0  0  0  0
   -6.7880   21.3680  -31.9020 N   0  0  0  0  0  0  0  0  0  0  0  0
   -7.9150   21.8980  -31.3980 C   0  0  0  0  0  0  0  0  0  0  0  0
   -7.7930   22.9510  -30.6620 N   0  0  0  0  0  0  0  0  0  0  0  0
   -6.4850   23.5040  -30.4170 C   0  0  0  0  0  0  0  0  0  0  0  0
   -6.2320   24.8520  -30.5380 C   0  0  0  0  0  0  0  0  0  0  0  0
   -4.9610   25.3300  -30.2920 C   0  0  0  0  0  0  0  0  0  0  0  0
   -3.9230   24.4890  -29.9240 C   0  0  0  0  0  0  0  0  0  0  0  0
   -2.7240   24.9600  -29.6950 O   0  0  0  0  0  0  0  0  0  0  0  0
   -1.7310   24.1650  -29.3440 C   0  0  0  0  0  0  0  0  0  0  0  0
   -0.5860   24.6720  -29.1310 O   0  0  0  0  0  0  0  0  0  0  0  0
   -1.8910   22.8000  -29.1960 C   0  0  0  0  0  0  0  0  0  0  0  0
   -3.1640   22.3030  -29.4410 C   0  0  0  0  0  0  0  0  0  0  0  0
   -3.4860   20.8570  -29.3230 C   0  0  0  0  0  0  0  0  0  0  0  0
   -4.2000   23.1420  -29.8080 C   0  0  0  0  0  0  0  0  0  0  0  0
   -5.4670   22.6460  -30.0510 C   0  0  0  0  0  0  0  0  0  0  0  0
   -9.1680   21.3640  -31.6370 C   0  0  0  0  0  0  0  0  0  0  0  0
   -9.2000   20.2310  -32.4390 C   0  0  0  0  0  0  0  0  0  0  0  0
   -8.0470   19.7350  -32.9220 N   0  0  0  0  0  0  0  0  0  0  0  0
   -5.5330   18.6590  -34.0640 C   0  0  0  0  0  0  0  0  0  0  0  0
   -4.3450   18.1530  -34.5590 C   0  0  0  0  0  0  0  0  0  0  0  0
   -4.3480   17.0710  -35.4250 O   0  0  0  0  0  0  0  0  0  0  0  0
   -3.9000   15.8260  -34.9540 C   0  0  0  0  0  0  0  0  0  0  0  0
   -3.1580   18.7120  -34.1990 C   0  0  0  0  0  0  0  0  0  0  0  0
   -1.9690   18.2020  -34.6950 O   0  0  0  0  0  0  0  0  0  0  0  0
   -1.0110   17.5510  -33.8870 C   0  0  0  0  0  0  0  0  0  0  0  0
   -0.5807   21.8528  -33.2561 H   0  0  0  0  0  0  0  0  0  0  0  0
   -0.5709   20.5392  -34.4813 H   0  0  0  0  0  0  0  0  0  0  0  0
   -1.8908   21.7576  -34.4813 H   0  0  0  0  0  0  0  0  0  0  0  0
   -4.3425   21.1504  -32.1587 H   0  0  0  0  0  0  0  0  0  0  0  0
   -7.0371   25.5429  -30.8286 H   0  0  0  0  0  0  0  0  0  0  0  0
   -4.7666   26.4082  -30.3907 H   0  0  0  0  0  0  0  0  0  0  0  0
   -1.0577   22.1452  -28.9011 H   0  0  0  0  0  0  0  0  0  0  0  0
   -3.5475   20.5806  -28.2601 H   0  0  0  0  0  0  0  0  0  0  0  0
   -4.4511   20.6553  -29.8108 H   0  0  0  0  0  0  0  0  0  0  0  0
   -2.6977   20.2648  -29.8108 H   0  0  0  0  0  0  0  0  0  0  0  0
   -5.6642   21.5683  -29.9529 H   0  0  0  0  0  0  0  0  0  0  0  0
  -10.0824   21.8091  -31.2178 H   0  0  0  0  0  0  0  0  0  0  0  0
  -10.1576   19.7446  -32.6766 H   0  0  0  0  0  0  0  0  0  0  0  0
   -8.1250   18.8840  -33.5180 H   0  0  0  0  0  0  0  0  0  0  0  0
   -6.4748   18.1826  -34.3738 H   0  0  0  0  0  0  0  0  0  0  0  0
   -3.9008   15.8282  -33.8540 H   0  0  0  0  0  0  0  0  0  0  0  0
   -4.5693   15.0332  -35.3196 H   0  0  0  0  0  0  0  0  0  0  0  0
   -2.8791   15.6414  -35.3196 H   0  0  0  0  0  0  0  0  0  0  0  0
   -1.2530   17.7155  -32.8266 H   0  0  0  0  0  0  0  0  0  0  0  0
   -1.0217   16.4724  -34.1025 H   0  0  0  0  0  0  0  0  0  0  0  0
   -0.0121   17.9581  -34.1025 H   0  0  0  0  0  0  0  0  0  0  0  0
  1  2  1  0
  2  3  1  0
  3  4  2  0
  4  5  1  0
  5  6  1  0
  6  7  2  0
  7  8  1  0
  8  9  2  0
  9 10  1  0
 10 11  2  0
 11 12  1  0
 12 13  2  0
 13 14  1  0
 14 15  1  0
 15 16  2  0
 15 17  1  0
 17 18  2  0
 18 19  1  0
 18 20  1  0
 20 21  2  0
  8 22  1  0
 22 23  2  0
 23 24  1  0
  5 25  2  0
 25 26  1  0
 26 27  1  0
 27 28  1  0
 26 29  2  0
 29 30  1  0
 30 31  1  0
 29  3  1  0
 24  6  1  0
 21 10  1  0
 20 13  1  0
  1 32  1  0
  1 33  1  0
  1 34  1  0
  4 35  1  0
 11 36  1  0
 12 37  1  0
 17 38  1  0
 19 39  1  0
 19 40  1  0
 19 41  1  0
 21 42  1  0
 22 43  1  0
 23 44  1  0
 24 45  1  0
 25 46  1  0
 28 47  1  0
 28 48  1  0
 28 49  1  0
 31 50  1  0
 31 51  1  0
 31 52  1  0
M  END
>  <smiles>  (8) 
COc1cc(-c2nc(=Nc3ccc4oc(=O)cc(C)c4c3)cc[nH]2)cc(OC)c1OC

>  <score_type>  (8) 
oracle

>  <origin>  (8) 
adgpu

>  <m_score__min__energy>  (8) 
-9.1899999999999995

>  <m_primary>  (8) 
energy

$$$$
8:0
     RDKit          3D

 32 34  0  0  0  0  0  0  0  0999 V2000
   -1.6060   26.0590  -29.7760 H   0  0  0  0  0  0  0  0  0  0  0  0
   -1.2180   26.5610  -28.9890 O   0  0  0  0  0  0  0  0  0  0  0  0
   -1.1870   26.0530  -27.6890 C   0  0  0  0  0  0  0  0  0  0  0  0
   -0.3130   26.6570  -26.7760 C   0  0  0  0  0  0  0  0  0  0  0  0
    0.2655   27.5420  -27.0796 H   0  0  0  0  0  0  0  0  0  0  0  0
   -0.1690   26.1470  -25.4850 C   0  0  0  0  0  0  0  0  0  0  0  0
    0.5202   26.6298  -24.7766 H   0  0  0  0  0  0  0  0  0  0  0  0
   -0.8990   25.0250  -25.0930 C   0  0  0  0  0  0  0  0  0  0  0  0
   -0.7721   24.6130  -24.0810 H   0  0  0  0  0  0  0  0  0  0  0  0
   -1.7910   24.4240  -25.9840 C   0  0  0  0  0  0  0  0  0  0  0  0
   -2.3607   23.5372  -25.6691 H   0  0  0  0  0  0  0  0  0  0  0  0
   -1.9680   24.9410  -27.2790 C   0  0  0  0  0  0  0  0  0  0  0  0
   -2.9880   24.3020  -28.1370 C   0  0  0  0  0  0  0  0  0  0  0  0
   -3.4988   23.3937  -27.7847 H   0  0  0  0  0  0  0  0  0  0  0  0
   -3.2910   24.7940  -29.2980 N   0  0  0  0  0  0  0  0  0  0  0  0
   -4.3120   24.2570  -30.1450 C   0  0  0  0  0  0  0  0  0  0  0  0
   -4.2540   23.0400  -30.7260 N   0  0  0  0  0  0  0  0  0  0  0  0
   -5.3570   22.7800  -31.4830 C   0  0  0  0  0  0  0  0  0  0  0  0
   -5.5040   21.4970  -32.2200 C   0  0  0  0  0  0  0  0  0  0  0  0
   -6.7840   20.9380  -32.4020 C   0  0  0  0  0  0  0  0  0  0  0  0
   -7.6666   21.4537  -31.9958 H   0  0  0  0  0  0  0  0  0  0  0  0
   -6.9430   19.7340  -33.0940 C   0  0  0  0  0  0  0  0  0  0  0  0
   -7.9476   19.3059  -33.2262 H   0  0  0  0  0  0  0  0  0  0  0  0
   -5.8300   19.0730  -33.6180 C   0  0  0  0  0  0  0  0  0  0  0  0
   -6.0500   17.4280  -34.5640 Br  0  0  0  0  0  0  0  0  0  0  0  0
   -4.5550   19.6190  -33.4510 C   0  0  0  0  0  0  0  0  0  0  0  0
   -3.6779   19.0998  -33.8646 H   0  0  0  0  0  0  0  0  0  0  0  0
   -4.3900   20.8230  -32.7600 C   0  0  0  0  0  0  0  0  0  0  0  0
   -3.3828   21.2478  -32.6367 H   0  0  0  0  0  0  0  0  0  0  0  0
   -6.2980   23.8170  -31.5010 C   0  0  0  0  0  0  0  0  0  0  0  0
   -7.2518   23.8116  -32.0489 H   0  0  0  0  0  0  0  0  0  0  0  0
   -5.7200   25.0730  -30.5410 S   0  0  0  0  0  0  0  0  0  0  0  0
  1  2  1  0
  2  3  1  0
  3  4  2  0
  4  5  1  0
  4  6  1  0
  6  7  1  0
  6  8  2  0
  8  9  1  0
  8 10  1  0
 10 11  1  0
 10 12  2  0
 12 13  1  0
 13 14  1  0
 13 15  2  0
 15 16  1  0
 16 17  2  0
 17 18  1  0
 18 19  1  0
 19 20  2  0
 20 21  1  0
 20 22  1  0
 22 23  1  0
 22 24  2  0
 24 25  1  0
 24 26  1  0
 26 27  1  0
 26 28  2  0
 28 29  1  0
 18 30  2  0
 30 31  1  0
 30 32  1  0
 12  3  1  0
 32 16  1  0
 28 19  1  0
M  END
>  <UniqueID>  (9) 
8

>  <SMILES>  (9) 
Oc1ccccc1/C=N/c1nc(-c2ccc(Br)cc2)cs1

>  <Energy>  (9) 
71.64819207993229

>  <Genealogy>  (9) 
Oc1ccccc1/C=N/c1nc(-c2ccc(Br)cc2)cs1 (cis-trans isomerization)
Oc1ccccc1/C=N/c1nc(-c2ccc(Br)cc2)cs1 (3D coordinates assigned)
Oc1ccccc1/C=N/c1nc(-c2ccc(Br)cc2)cs1 (optimized conformer: 71.64819207993229 kcal/mol)

>  <smiles>  (9) 
Oc1ccccc1C=Nc1nc(-c2ccc(Br)cc2)cs1

>  <score_type>  (9) 
oracle

>  <origin>  (9) 
adgpu

>  <m_score__min__energy>  (9) 
-9.2100000000000009

>  <m_primary>  (9) 
energy

$$$$
9:0
     RDKit          3D

 50 52  0  0  0  0  0  0  0  0999 V2000
    2.2400   24.5410  -27.8710 C   0  0  0  0  0  0  0  0  0  0  0  0
    0.8680   24.7900  -28.1640 O   0  0  0  0  0  0  0  0  0  0  0  0
   -0.1150   25.0560  -27.1970 C   0  0  0  0  0  0  0  0  0  0  0  0
    0.1650   25.0080  -25.8150 C   0  0  0  0  0  0  0  0  0  0  0  0
   -0.8400   25.2690  -24.8800 C   0  0  0  0  0  0  0  0  0  0  0  0
   -2.1320   25.5740  -25.3080 C   0  0  0  0  0  0  0  0  0  0  0  0
   -2.4210   25.6290  -26.6720 C   0  0  0  0  0  0  0  0  0  0  0  0
   -1.4130   25.3840  -27.6240 C   0  0  0  0  0  0  0  0  0  0  0  0
   -1.6990   25.4020  -29.0300 N   0  0  0  0  0  0  0  0  0  0  0  0
   -2.7400   24.6600  -29.6790 C   0  0  0  0  0  0  0  0  0  0  0  0
   -3.7770   25.2570  -30.0820 O   0  0  0  0  0  0  0  0  0  0  0  0
   -2.6070   23.1990  -29.8730 C   0  0  0  0  0  0  0  0  0  0  0  0
   -1.8480   22.4160  -28.9830 C   0  0  0  0  0  0  0  0  0  0  0  0
   -1.7730   21.0290  -29.1480 C   0  0  0  0  0  0  0  0  0  0  0  0
   -2.4590   20.4050  -30.1950 C   0  0  0  0  0  0  0  0  0  0  0  0
   -3.2180   21.1730  -31.0860 C   0  0  0  0  0  0  0  0  0  0  0  0
   -4.1100   20.4200  -32.4020 S   0  0  0  0  0  0  0  0  0  0  0  0
   -3.8860   21.2390  -33.6420 O   0  0  0  0  0  0  0  0  0  0  0  0
   -3.5980   19.0290  -32.6540 O   0  0  0  0  0  0  0  0  0  0  0  0
   -5.8070   20.3960  -31.9370 N   0  0  0  0  0  0  0  0  0  0  0  0
   -6.5640   21.5260  -32.5070 C   0  0  0  0  0  0  0  0  0  0  0  0
   -7.7290   21.9060  -31.5870 C   0  0  0  0  0  0  0  0  0  0  0  0
   -9.0120   21.1480  -31.9340 C   0  0  0  0  0  0  0  0  0  0  0  0
   -8.9010   19.6370  -31.6980 C   0  0  0  0  0  0  0  0  0  0  0  0
   -7.8500   18.9540  -32.5880 C   0  0  0  0  0  0  0  0  0  0  0  0
   -6.4150   19.0370  -32.0220 C   0  0  0  0  0  0  0  0  0  0  0  0
   -3.2770   22.5640  -30.9350 C   0  0  0  0  0  0  0  0  0  0  0  0
    2.3832   24.5150  -26.7807 H   0  0  0  0  0  0  0  0  0  0  0  0
    2.5376   23.5742  -28.3031 H   0  0  0  0  0  0  0  0  0  0  0  0
    2.8584   25.3416  -28.3031 H   0  0  0  0  0  0  0  0  0  0  0  0
    1.1810   24.7635  -25.4714 H   0  0  0  0  0  0  0  0  0  0  0  0
   -0.6119   25.2339  -23.8045 H   0  0  0  0  0  0  0  0  0  0  0  0
   -2.9234   25.7713  -24.5700 H   0  0  0  0  0  0  0  0  0  0  0  0
   -3.4423   25.8651  -27.0055 H   0  0  0  0  0  0  0  0  0  0  0  0
   -1.3106   22.8977  -28.1528 H   0  0  0  0  0  0  0  0  0  0  0  0
   -1.1718   20.4264  -28.4512 H   0  0  0  0  0  0  0  0  0  0  0  0
   -2.4023   19.3134  -30.3180 H   0  0  0  0  0  0  0  0  0  0  0  0
   -5.8940   22.3911  -32.6198 H   0  0  0  0  0  0  0  0  0  0  0  0
   -6.9653   21.2288  -33.4871 H   0  0  0  0  0  0  0  0  0  0  0  0
   -7.4504   21.6736  -30.5485 H   0  0  0  0  0  0  0  0  0  0  0  0
   -7.9260   22.9802  -31.7185 H   0  0  0  0  0  0  0  0  0  0  0  0
   -9.8296   21.5404  -31.3114 H   0  0  0  0  0  0  0  0  0  0  0  0
   -9.2020   21.2991  -33.0069 H   0  0  0  0  0  0  0  0  0  0  0  0
   -8.6293   19.4678  -30.6456 H   0  0  0  0  0  0  0  0  0  0  0  0
   -9.8764   19.1968  -31.9524 H   0  0  0  0  0  0  0  0  0  0  0  0
   -8.1210   17.8933  -32.6954 H   0  0  0  0  0  0  0  0  0  0  0  0
   -7.8487   19.4841  -33.5518 H   0  0  0  0  0  0  0  0  0  0  0  0
   -6.4323   18.6153  -31.0062 H   0  0  0  0  0  0  0  0  0  0  0  0
   -5.7891   18.4841  -32.7379 H   0  0  0  0  0  0  0  0  0  0  0  0
   -3.8526   23.1660  -31.6535 H   0  0  0  0  0  0  0  0  0  0  0  0
  1  2  1  0
  2  3  1  0
  3  4  2  0
  4  5  1  0
  5  6  2  0
  6  7  1  0
  7  8  2  0
  8  9  1  0
  9 10  1  0
 10 11  2  0
 10 12  1  0
 12 13  2  0
 13 14  1  0
 14 15  2  0
 15 16  1  0
 16 17  1  0
 17 18  2  0
 17 19  2  0
 17 20  1  0
 20 21  1  0
 21 22  1  0
 22 23  1  0
 23 24  1  0
 24 25  1  0
 25 26  1  0
 16 27  2  0
  8  3  1  0
 27 12  1  0
 26 20  1  0
  1 28  1  0
  1 29  1  0
  1 30  1  0
  4 31  1  0
  5 32  1  0
  6 33  1  0
  7 34  1  0
 13 35  1  0
 14 36  1  0
 15 37  1  0
 21 38  1  0
 21 39  1  0
 22 40  1  0
 22 41  1  0
 23 42  1  0
 23 43  1  0
 24 44  1  0
 24 45  1  0
 25 46  1  0
 25 47  1  0
 26 48  1  0
 26 49  1  0
 27 50  1  0
M  CHG  1   9  -1
M  END
>  <UniqueID>  (10) 
9

>  <SMILES>  (10) 
COc1ccccc1[N-]C(=O)c1cccc(S(=O)(=O)N2CCCCCC2)c1

>  <Energy>  (10) 
67.15423771173934

>  <Genealogy>  (10) 
COc1ccccc1[N-]C(=O)c1cccc(S(=O)(=O)N2CCCCCC2)c1 (protonated)
COc1ccccc1[N-]C(=O)c1cccc(S(=O)(=O)N2CCCCCC2)c1 (3D coordinates assigned)
COc1ccccc1[N-]C(=O)c1cccc(S(=O)(=O)N2CCCCCC2)c1 (nonaromatic ring conformer: 67.15423771173934 kcal/mol)

>  <smiles>  (10) 
COc1ccccc1NC(=O)c1cccc(S(=O)(=O)N2CCCCCC2)c1

>  <score_type>  (10) 
oracle

>  <origin>  (10) 
adgpu

>  <m_score__min__energy>  (10) 
-10.130000000000001

>  <m_primary>  (10) 
energy

$$$$
10:0
     RDKit          3D

 48 51  0  0  0  0  0  0  0  0999 V2000
   -5.0618   24.1904  -27.4698 H   0  0  0  0  0  0  0  0  0  0  0  0
   -4.1780   23.5840  -27.7170 C   0  0  0  0  0  0  0  0  0  0  0  0
   -4.1810   22.2110  -27.4650 C   0  0  0  0  0  0  0  0  0  0  0  0
   -5.0654   21.7391  -27.0121 H   0  0  0  0  0  0  0  0  0  0  0  0
   -3.0640   21.4330  -27.7860 C   0  0  0  0  0  0  0  0  0  0  0  0
   -3.1100   19.7020  -27.4800 Cl  0  0  0  0  0  0  0  0  0  0  0  0
   -1.9360   22.0280  -28.3770 C   0  0  0  0  0  0  0  0  0  0  0  0
   -0.8160   21.2080  -28.7480 N   0  0  0  0  0  0  0  0  0  0  0  0
   -0.5670   20.8690  -29.9760 C   0  0  0  0  0  0  0  0  0  0  0  0
   -1.3470   21.2180  -31.0210 N   0  0  0  0  0  0  0  0  0  0  0  0
   -0.8110   20.6610  -32.0920 N   0  0  0  0  0  0  0  0  0  0  0  0
   -1.2650   20.7560  -33.3740 C   0  0  0  0  0  0  0  0  0  0  0  0
   -2.4490   21.5040  -33.7040 N   0  0  0  0  0  0  0  0  0  0  0  0
   -2.3690   22.2990  -34.3780 H   0  0  0  0  0  0  0  0  0  0  0  0
   -3.7150   21.2690  -33.0750 C   0  0  0  0  0  0  0  0  0  0  0  0
   -4.3850   20.0500  -33.2590 C   0  0  0  0  0  0  0  0  0  0  0  0
   -3.9853   19.3047  -33.9625 H   0  0  0  0  0  0  0  0  0  0  0  0
   -5.5580   19.7810  -32.5510 C   0  0  0  0  0  0  0  0  0  0  0  0
   -6.0776   18.8221  -32.6941 H   0  0  0  0  0  0  0  0  0  0  0  0
   -6.0730   20.7260  -31.6620 C   0  0  0  0  0  0  0  0  0  0  0  0
   -6.9845   20.4983  -31.0899 H   0  0  0  0  0  0  0  0  0  0  0  0
   -5.4330   21.9690  -31.4930 C   0  0  0  0  0  0  0  0  0  0  0  0
   -5.9000   22.9320  -30.5340 N   0  0  0  0  0  0  0  0  0  0  0  0
   -6.5160   22.5950  -29.7580 H   0  0  0  0  0  0  0  0  0  0  0  0
   -5.5610   24.3270  -30.5520 C   0  0  0  0  0  0  0  0  0  0  0  0
   -4.5410   24.7320  -31.1710 O   0  0  0  0  0  0  0  0  0  0  0  0
   -6.3680   25.2960  -29.7520 C   0  0  0  0  0  0  0  0  0  0  0  0
   -6.2106   25.1070  -28.6798 H   0  0  0  0  0  0  0  0  0  0  0  0
   -6.0538   26.3221  -29.9934 H   0  0  0  0  0  0  0  0  0  0  0  0
   -7.4341   25.1726  -29.9934 H   0  0  0  0  0  0  0  0  0  0  0  0
   -4.2530   22.2310  -32.2090 C   0  0  0  0  0  0  0  0  0  0  0  0
   -3.7466   23.2001  -32.0889 H   0  0  0  0  0  0  0  0  0  0  0  0
   -0.5120   20.1330  -34.3850 C   0  0  0  0  0  0  0  0  0  0  0  0
   -0.8369   20.1996  -35.4338 H   0  0  0  0  0  0  0  0  0  0  0  0
    0.6630   19.4210  -34.0520 C   0  0  0  0  0  0  0  0  0  0  0  0
    1.4400   18.7110  -35.1200 C   0  0  0  0  0  0  0  0  0  0  0  0
    2.1753   18.0391  -34.6532 H   0  0  0  0  0  0  0  0  0  0  0  0
    0.7515   18.1235  -35.7451 H   0  0  0  0  0  0  0  0  0  0  0  0
    1.9632   19.4495  -35.7451 H   0  0  0  0  0  0  0  0  0  0  0  0
    1.0680   19.3260  -32.7050 C   0  0  0  0  0  0  0  0  0  0  0  0
    1.9629   18.7537  -32.4192 H   0  0  0  0  0  0  0  0  0  0  0  0
    0.2970   19.9810  -31.7490 C   0  0  0  0  0  0  0  0  0  0  0  0
    0.4960   20.0770  -30.3850 C   0  0  0  0  0  0  0  0  0  0  0  0
    1.2979   19.6353  -29.7751 H   0  0  0  0  0  0  0  0  0  0  0  0
   -1.9310   23.4210  -28.6130 C   0  0  0  0  0  0  0  0  0  0  0  0
   -0.5240   24.2350  -29.2820 Cl  0  0  0  0  0  0  0  0  0  0  0  0
   -3.0530   24.1880  -28.2830 C   0  0  0  0  0  0  0  0  0  0  0  0
   -3.0494   25.2720  -28.4701 H   0  0  0  0  0  0  0  0  0  0  0  0
  1  2  1  0
  2  3  2  0
  3  4  1  0
  3  5  1  0
  5  6  1  0
  5  7  2  0
  7  8  1  0
  8  9  2  0
  9 10  1  0
 10 11  1  0
 11 12  1  0
 12 13  1  0
 13 14  1  0
 13 15  1  0
 15 16  2  0
 16 17  1  0
 16 18  1  0
 18 19  1  0
 18 20  2  0
 20 21  1  0
 20 22  1  0
 22 23  1  0
 23 24  1  0
 23 25  1  0
 25 26  2  0
 25 27  1  0
 27 28  1  0
 27 29  1  0
 27 30  1  0
 22 31  2  0
 31 32  1  0
 12 33  2  0
 33 34  1  0
 33 35  1  0
 35 36  1  0
 36 37  1  0
 36 38  1  0
 36 39  1  0
 35 40  2  0
 40 41  1  0
 40 42  1  0
 42 43  2  0
 43 44  1  0
  7 45  1  0
 45 46  1  0
 45 47  2  0
 47 48  1  0
 47  2  1  0
 43  9  1  0
 42 11  1  0
 31 15  1  0
M  CHG  1  10  -1
M  END
>  <UniqueID>  (11) 
10

>  <SMILES>  (11) 
CC(=O)Nc1cccc(Nc2cc(C)cc3c/c(=N/c4c(Cl)cccc4Cl)[n-]n23)c1

>  <Energy>  (11) 
99.35910447231856

>  <Genealogy>  (11) 
CC(=O)Nc1cccc(Nc2cc(C)cc3cc(=Nc4c(Cl)cccc4Cl)[n-]n23)c1 (protonated)
CC(=O)Nc1cccc(Nc2cc(C)cc3c/c(=N/c4c(Cl)cccc4Cl)[n-]n23)c1 (cis-trans isomerization)
CC(=O)Nc1cccc(Nc2cc(C)cc3c/c(=N/c4c(Cl)cccc4Cl)[n-]n23)c1 (3D coordinates assigned)
CC(=O)Nc1cccc(Nc2cc(C)cc3c/c(=N/c4c(Cl)cccc4Cl)[n-]n23)c1 (optimized conformer: 99.35910447231856 kcal/mol)

>  <smiles>  (11) 
CC(=O)Nc1cccc(Nc2cc(C)cc3cc(=Nc4c(Cl)cccc4Cl)[nH]n23)c1

>  <score_type>  (11) 
oracle

>  <origin>  (11) 
adgpu

>  <m_score__min__energy>  (11) 
-9.8699999999999992

>  <m_primary>  (11) 
energy

$$$$
11:0
     RDKit          3D

 49 51  0  0  0  0  0  0  0  0999 V2000
   -6.0960   17.8340  -34.6880 C   0  0  0  0  0  0  0  0  0  0  0  0
   -5.3110   16.9810  -33.7880 N   0  0  0  0  0  0  0  0  0  0  0  0
   -5.8180   15.6030  -33.8260 C   0  0  0  0  0  0  0  0  0  0  0  0
   -3.6300   17.0070  -34.2630 S   0  0  0  0  0  0  0  0  0  0  0  0
   -3.5160   16.6360  -35.7150 O   0  0  0  0  0  0  0  0  0  0  0  0
   -2.8700   15.9860  -33.4620 O   0  0  0  0  0  0  0  0  0  0  0  0
   -2.9090   18.5980  -34.0120 C   0  0  0  0  0  0  0  0  0  0  0  0
   -1.5550   18.8130  -34.3030 C   0  0  0  0  0  0  0  0  0  0  0  0
   -0.9860   20.0720  -34.1030 C   0  0  0  0  0  0  0  0  0  0  0  0
   -1.7650   21.1270  -33.6200 C   0  0  0  0  0  0  0  0  0  0  0  0
   -3.1300   20.9310  -33.3450 C   0  0  0  0  0  0  0  0  0  0  0  0
   -3.9500   21.9940  -32.8290 N   0  0  0  0  0  0  0  0  0  0  0  0
   -3.8430   22.5140  -31.4920 C   0  0  0  0  0  0  0  0  0  0  0  0
   -2.8160   22.2680  -30.8020 O   0  0  0  0  0  0  0  0  0  0  0  0
   -4.9260   23.3540  -30.9270 C   0  0  0  0  0  0  0  0  0  0  0  0
   -4.6250   24.2450  -29.8810 C   0  0  0  0  0  0  0  0  0  0  0  0
   -5.6090   25.0840  -29.3540 C   0  0  0  0  0  0  0  0  0  0  0  0
   -6.9070   25.0440  -29.8610 C   0  0  0  0  0  0  0  0  0  0  0  0
   -7.2270   24.1640  -30.8960 C   0  0  0  0  0  0  0  0  0  0  0  0
   -6.2450   23.3180  -31.4450 C   0  0  0  0  0  0  0  0  0  0  0  0
   -6.6170   22.3610  -32.4520 N   0  0  0  0  0  0  0  0  0  0  0  0
   -7.2090   21.0820  -32.1650 C   0  0  0  0  0  0  0  0  0  0  0  0
   -8.6020   20.8870  -32.2310 C   0  0  0  0  0  0  0  0  0  0  0  0
   -9.1510   19.6280  -31.9700 C   0  0  0  0  0  0  0  0  0  0  0  0
   -8.3180   18.5520  -31.6520 C   0  0  0  0  0  0  0  0  0  0  0  0
   -6.9330   18.7320  -31.6030 C   0  0  0  0  0  0  0  0  0  0  0  0
   -6.3810   19.9900  -31.8630 C   0  0  0  0  0  0  0  0  0  0  0  0
   -3.6900   19.6570  -33.5260 C   0  0  0  0  0  0  0  0  0  0  0  0
   -6.7228   18.5151  -34.0937 H   0  0  0  0  0  0  0  0  0  0  0  0
   -5.4159   18.4213  -35.3225 H   0  0  0  0  0  0  0  0  0  0  0  0
   -6.7377   17.2049  -35.3225 H   0  0  0  0  0  0  0  0  0  0  0  0
   -5.9538   15.2338  -32.7987 H   0  0  0  0  0  0  0  0  0  0  0  0
   -6.7828   15.5817  -34.3539 H   0  0  0  0  0  0  0  0  0  0  0  0
   -5.0970   14.9615  -34.3539 H   0  0  0  0  0  0  0  0  0  0  0  0
   -0.9392   17.9877  -34.6899 H   0  0  0  0  0  0  0  0  0  0  0  0
    0.0788   20.2342  -34.3263 H   0  0  0  0  0  0  0  0  0  0  0  0
   -1.3088   22.1141  -33.4544 H   0  0  0  0  0  0  0  0  0  0  0  0
   -4.5890   22.4870  -33.4930 H   0  0  0  0  0  0  0  0  0  0  0  0
   -3.6038   24.2812  -29.4739 H   0  0  0  0  0  0  0  0  0  0  0  0
   -5.3595   25.7776  -28.5375 H   0  0  0  0  0  0  0  0  0  0  0  0
   -7.6800   25.7068  -29.4448 H   0  0  0  0  0  0  0  0  0  0  0  0
   -8.2551   24.1313  -31.2859 H   0  0  0  0  0  0  0  0  0  0  0  0
   -6.4060   22.5970  -33.4490 H   0  0  0  0  0  0  0  0  0  0  0  0
   -9.2611   21.7290  -32.4891 H   0  0  0  0  0  0  0  0  0  0  0  0
  -10.2406   19.4842  -32.0150 H   0  0  0  0  0  0  0  0  0  0  0  0
   -8.7523   17.5638  -31.4403 H   0  0  0  0  0  0  0  0  0  0  0  0
   -6.2767   17.8834  -31.3597 H   0  0  0  0  0  0  0  0  0  0  0  0
   -5.2898   20.1247  -31.8306 H   0  0  0  0  0  0  0  0  0  0  0  0
   -4.7498   19.4875  -33.2849 H   0  0  0  0  0  0  0  0  0  0  0  0
  1  2  1  0
  2  3  1  0
  2  4  1  0
  4  5  2  0
  4  6  2  0
  4  7  1  0
  7  8  2  0
  8  9  1  0
  9 10  2  0
 10 11  1  0
 11 12  1  0
 12 13  1  0
 13 14  2  0
 13 15  1  0
 15 16  2  0
 16 17  1  0
 17 18  2  0
 18 19  1  0
 19 20  2  0
 20 21  1  0
 21 22  1  0
 22 23  2  0
 23 24  1  0
 24 25  2  0
 25 26  1  0
 26 27  2  0
 11 28  2  0
 28  7  1  0
 20 15  1  0
 27 22  1  0
  1 29  1  0
  1 30  1  0
  1 31  1  0
  3 32  1  0
  3 33  1  0
  3 34  1  0
  8 35  1  0
  9 36  1  0
 10 37  1  0
 12 38  1  0
 16 39  1  0
 17 40  1  0
 18 41  1  0
 19 42  1  0
 21 43  1  0
 23 44  1  0
 24 45  1  0
 25 46  1  0
 26 47  1  0
 27 48  1  0
 28 49  1  0
M  END
>  <UniqueID>  (12) 
11

>  <SMILES>  (12) 
CN(C)S(=O)(=O)c1cccc(NC(=O)c2ccccc2Nc2ccccc2)c1

>  <Energy>  (12) 
62.21345915294843

>  <Genealogy>  (12) 
CN(C)S(=O)(=O)c1cccc(NC(=O)c2ccccc2Nc2ccccc2)c1 (3D coordinates assigned)
CN(C)S(=O)(=O)c1cccc(NC(=O)c2ccccc2Nc2ccccc2)c1 (optimized conformer: 62.21345915294843 kcal/mol)

>  <smiles>  (12) 
CN(C)S(=O)(=O)c1cccc(NC(=O)c2ccccc2Nc2ccccc2)c1

>  <score_type>  (12) 
oracle

>  <origin>  (12) 
adgpu

>  <m_score__min__energy>  (12) 
-9.7200000000000006

>  <m_primary>  (12) 
energy

$$$$
12:0
     RDKit          3D

 41 43  0  0  0  0  0  0  0  0999 V2000
    0.6680   22.6300  -26.7730 F   0  0  0  0  0  0  0  0  0  0  0  0
   -0.2630   23.1830  -27.5890 C   0  0  0  0  0  0  0  0  0  0  0  0
   -0.9640   24.3210  -27.1810 C   0  0  0  0  0  0  0  0  0  0  0  0
   -1.9260   24.8900  -28.0220 C   0  0  0  0  0  0  0  0  0  0  0  0
   -2.1840   24.3340  -29.2810 C   0  0  0  0  0  0  0  0  0  0  0  0
   -3.1660   24.9250  -30.0910 O   0  0  0  0  0  0  0  0  0  0  0  0
   -4.4610   24.4250  -30.2960 C   0  0  0  0  0  0  0  0  0  0  0  0
   -5.5420   25.3100  -30.2210 C   0  0  0  0  0  0  0  0  0  0  0  0
   -6.8450   24.8540  -30.4360 C   0  0  0  0  0  0  0  0  0  0  0  0
   -7.0770   23.5100  -30.7380 C   0  0  0  0  0  0  0  0  0  0  0  0
   -6.0010   22.6120  -30.8330 C   0  0  0  0  0  0  0  0  0  0  0  0
   -6.2380   21.1680  -31.1920 C   0  0  0  0  0  0  0  0  0  0  0  0
   -6.8200   21.0460  -32.5490 N   0  0  0  0  0  0  0  0  0  0  0  0
   -8.2250   20.5760  -32.5390 C   0  0  0  0  0  0  0  0  0  0  0  0
   -8.3550   19.0990  -32.1180 C   0  0  0  0  0  0  0  0  0  0  0  0
   -7.1850   18.2320  -32.6110 C   0  0  0  0  0  0  0  0  0  0  0  0
   -6.4920   18.8620  -33.8170 C   0  0  0  0  0  0  0  0  0  0  0  0
   -5.9540   20.2670  -33.4750 C   0  0  0  0  0  0  0  0  0  0  0  0
   -4.6940   23.0770  -30.6220 C   0  0  0  0  0  0  0  0  0  0  0  0
   -1.4890   23.1760  -29.6790 C   0  0  0  0  0  0  0  0  0  0  0  0
   -0.5280   22.6090  -28.8360 C   0  0  0  0  0  0  0  0  0  0  0  0
   -0.7591   24.7696  -26.1978 H   0  0  0  0  0  0  0  0  0  0  0  0
   -2.4831   25.7794  -27.6924 H   0  0  0  0  0  0  0  0  0  0  0  0
   -5.3650   26.3711  -29.9914 H   0  0  0  0  0  0  0  0  0  0  0  0
   -7.6900   25.5548  -30.3673 H   0  0  0  0  0  0  0  0  0  0  0  0
   -8.1048   23.1540  -30.9018 H   0  0  0  0  0  0  0  0  0  0  0  0
   -5.2801   20.6281  -31.1617 H   0  0  0  0  0  0  0  0  0  0  0  0
   -6.9459   20.7388  -30.4676 H   0  0  0  0  0  0  0  0  0  0  0  0
   -8.7981   21.1949  -31.8330 H   0  0  0  0  0  0  0  0  0  0  0  0
   -8.6123   20.6645  -33.5647 H   0  0  0  0  0  0  0  0  0  0  0  0
   -8.3908   19.0488  -31.0197 H   0  0  0  0  0  0  0  0  0  0  0  0
   -9.2743   18.7046  -32.5756 H   0  0  0  0  0  0  0  0  0  0  0  0
   -6.4542   18.1209  -31.7964 H   0  0  0  0  0  0  0  0  0  0  0  0
   -7.5844   17.2530  -32.9145 H   0  0  0  0  0  0  0  0  0  0  0  0
   -5.6529   18.2208  -34.1250 H   0  0  0  0  0  0  0  0  0  0  0  0
   -7.2247   18.9565  -34.6320 H   0  0  0  0  0  0  0  0  0  0  0  0
   -4.9649   20.1527  -33.0073 H   0  0  0  0  0  0  0  0  0  0  0  0
   -5.9179   20.8289  -34.4199 H   0  0  0  0  0  0  0  0  0  0  0  0
   -3.8459   22.3824  -30.7122 H   0  0  0  0  0  0  0  0  0  0  0  0
   -1.7024   22.7162  -30.6553 H   0  0  0  0  0  0  0  0  0  0  0  0
    0.0202   21.7101  -29.1545 H   0  0  0  0  0  0  0  0  0  0  0  0
  1  2  1  0
  2  3  2  0
  3  4  1  0
  4  5  2  0
  5  6  1  0
  6  7  1  0
  7  8  2  0
  8  9  1  0
  9 10  2  0
 10 11  1  0
 11 12  1  0
 12 13  1  0
 13 14  1  0
 14 15  1  0
 15 16  1  0
 16 17  1  0
 17 18  1  0
 11 19  2  0
  5 20  1  0
 20 21  2  0
 21  2  1  0
 19  7  1  0
 18 13  1  0
  3 22  1  0
  4 23  1  0
  8 24  1  0
  9 25  1  0
 10 26  1  0
 12 27  1  0
 12 28  1  0
 14 29  1  0
 14 30  1  0
 15 31  1  0
 15 32  1  0
 16 33  1  0
 16 34  1  0
 17 35  1  0
 17 36  1  0
 18 37  1  0
 18 38  1  0
 19 39  1  0
 20 40  1  0
 21 41  1  0
M  END
>  <UniqueID>  (13) 
12

>  <SMILES>  (13) 
Fc1ccc(Oc2cccc(CN3CCCCC3)c2)cc1

>  <Energy>  (13) 
56.840549198302426

>  <Genealogy>  (13) 
Fc1ccc(Oc2cccc(CN3CCCCC3)c2)cc1 (3D coordinates assigned)
Fc1ccc(Oc2cccc(CN3CCCCC3)c2)cc1 (nonaromatic ring conformer: 56.840549198302426 kcal/mol)

>  <smiles>  (13) 
Fc1ccc(Oc2cccc(CN3CCCCC3)c2)cc1

>  <score_type>  (13) 
oracle

>  <origin>  (13) 
adgpu

>  <m_score__min__energy>  (13) 
-7.9400000000000004

>  <m_primary>  (13) 
energy

$$$$
13:0
     RDKit          3D

 41 44  0  0  0  0  0  0  0  0999 V2000
   -5.4561   24.9202  -31.8504 H   0  0  0  0  0  0  0  0  0  0  0  0
   -5.0020   24.5690  -30.9120 C   0  0  0  0  0  0  0  0  0  0  0  0
   -3.8300   25.1080  -30.4810 N   0  0  0  0  0  0  0  0  0  0  0  0
   -3.2250   24.7090  -29.3280 C   0  0  0  0  0  0  0  0  0  0  0  0
   -2.1110   25.2870  -28.9810 N   0  0  0  0  0  0  0  0  0  0  0  0
   -1.1840   24.9720  -27.5460 S   0  0  0  0  0  0  0  0  0  0  0  0
   -2.0000   25.3430  -26.3400 O   0  0  0  0  0  0  0  0  0  0  0  0
    0.0630   25.8120  -27.5610 O   0  0  0  0  0  0  0  0  0  0  0  0
   -0.7940   23.2580  -27.4620 C   0  0  0  0  0  0  0  0  0  0  0  0
   -1.6300   22.3930  -26.7420 C   0  0  0  0  0  0  0  0  0  0  0  0
   -2.4878   22.7974  -26.1847 H   0  0  0  0  0  0  0  0  0  0  0  0
   -1.3770   21.0180  -26.7300 C   0  0  0  0  0  0  0  0  0  0  0  0
   -2.0200   20.3467  -26.1419 H   0  0  0  0  0  0  0  0  0  0  0  0
   -0.3070   20.4940  -27.4650 C   0  0  0  0  0  0  0  0  0  0  0  0
   -0.0700   19.0820  -27.4630 N   0  0  0  0  0  0  0  0  0  0  0  0
    0.1500   18.2740  -28.4700 C   0  0  0  0  0  0  0  0  0  0  0  0
    0.6890   17.0200  -28.1530 C   0  0  0  0  0  0  0  0  0  0  0  0
    0.7503   16.7018  -27.1018 H   0  0  0  0  0  0  0  0  0  0  0  0
    1.1470   16.1750  -29.1580 C   0  0  0  0  0  0  0  0  0  0  0  0
    1.5956   15.2054  -28.8962 H   0  0  0  0  0  0  0  0  0  0  0  0
    1.0430   16.5410  -30.4580 N   0  0  0  0  0  0  0  0  0  0  0  0
    0.4530   17.7060  -30.8310 C   0  0  0  0  0  0  0  0  0  0  0  0
    0.3210   17.9930  -32.1950 C   0  0  0  0  0  0  0  0  0  0  0  0
    0.7752   17.3253  -32.9419 H   0  0  0  0  0  0  0  0  0  0  0  0
   -0.3840   19.1220  -32.6100 C   0  0  0  0  0  0  0  0  0  0  0  0
   -0.5600   19.4680  -34.3210 Cl  0  0  0  0  0  0  0  0  0  0  0  0
   -0.9910   19.9480  -31.6660 C   0  0  0  0  0  0  0  0  0  0  0  0
   -1.5781   20.8174  -31.9969 H   0  0  0  0  0  0  0  0  0  0  0  0
   -0.8580   19.6780  -30.3010 C   0  0  0  0  0  0  0  0  0  0  0  0
   -1.3744   20.3160  -29.5687 H   0  0  0  0  0  0  0  0  0  0  0  0
   -0.0680   18.5950  -29.8490 C   0  0  0  0  0  0  0  0  0  0  0  0
    0.5620   21.3650  -28.1410 C   0  0  0  0  0  0  0  0  0  0  0  0
    1.4400   20.9636  -28.6683 H   0  0  0  0  0  0  0  0  0  0  0  0
    0.3150   22.7400  -28.1460 C   0  0  0  0  0  0  0  0  0  0  0  0
    0.9917   23.4174  -28.6875 H   0  0  0  0  0  0  0  0  0  0  0  0
   -3.8300   23.6950  -28.5550 C   0  0  0  0  0  0  0  0  0  0  0  0
   -3.3562   23.3510  -27.6238 H   0  0  0  0  0  0  0  0  0  0  0  0
   -5.0340   23.1320  -28.9810 C   0  0  0  0  0  0  0  0  0  0  0  0
   -5.5139   22.3426  -28.3839 H   0  0  0  0  0  0  0  0  0  0  0  0
   -5.6290   23.5710  -30.1650 C   0  0  0  0  0  0  0  0  0  0  0  0
   -7.2780   22.8100  -30.7560 Br  0  0  0  0  0  0  0  0  0  0  0  0
  1  2  1  0
  2  3  1  0
  3  4  1  0
  4  5  2  3
  5  6  1  0
  6  7  2  0
  6  8  2  0
  6  9  1  0
  9 10  2  0
 10 11  1  0
 10 12  1  0
 12 13  1  0
 12 14  2  0
 14 15  1  0
 15 16  2  0
 16 17  1  0
 17 18  1  0
 17 19  2  0
 19 20  1  0
 19 21  1  0
 21 22  1  0
 22 23  2  0
 23 24  1  0
 23 25  1  0
 25 26  1  0
 25 27  2  0
 27 28  1  0
 27 29  1  0
 29 30  1  0
 29 31  2  0
 14 32  1  0
 32 33  1  0
 32 34  2  0
 34 35  1  0
  4 36  1  0
 36 37  1  0
 36 38  2  0
 38 39  1  0
 38 40  1  0
 40 41  1  0
 40  2  2  0
 34  9  1  0
 31 16  1  0
 31 22  1  0
M  CHG  2   3  -1  21  -1
M  END
>  <UniqueID>  (14) 
13

>  <SMILES>  (14) 
O=S(=O)(N=c1ccc(Br)c[n-]1)c1ccc(/N=c2/cc[n-]c3cc(Cl)ccc23)cc1

>  <Energy>  (14) 
74.36559909721865

>  <Genealogy>  (14) 
O=S(=O)(N=c1ccc(Br)c[n-]1)c1ccc(N=c2cc[n-]c3cc(Cl)ccc23)cc1 (protonated)
O=S(=O)(N=c1ccc(Br)c[n-]1)c1ccc(/N=c2/cc[n-]c3cc(Cl)ccc23)cc1 (cis-trans isomerization)
O=S(=O)(N=c1ccc(Br)c[n-]1)c1ccc(/N=c2/cc[n-]c3cc(Cl)ccc23)cc1 (3D coordinates assigned)
O=S(=O)(N=c1ccc(Br)c[n-]1)c1ccc(/N=c2/cc[n-]c3cc(Cl)ccc23)cc1 (optimized conformer: 74.36559909721865 kcal/mol)

>  <smiles>  (14) 
O=S(=O)(N=c1ccc(Br)c[nH]1)c1ccc(N=c2cc[nH]c3cc(Cl)ccc23)cc1

>  <score_type>  (14) 
oracle

>  <origin>  (14) 
adgpu

>  <m_score__min__energy>  (14) 
-11.07

>  <m_primary>  (14) 
energy

$$$$
14:0
     RDKit          3D

 47 50  0  0  0  0  0  0  0  0999 V2000
   -1.2750   21.0690  -30.6390 H   0  0  0  0  0  0  0  0  0  0  0  0
   -2.2410   21.3640  -30.9080 N   0  0  0  0  0  0  0  0  0  0  0  0
   -2.8180   22.4140  -30.4080 C   0  0  0  0  0  0  0  0  0  0  0  0
   -2.1440   23.2040  -29.4680 C   0  0  0  0  0  0  0  0  0  0  0  0
   -1.1263   22.9312  -29.1520 H   0  0  0  0  0  0  0  0  0  0  0  0
   -2.7620   24.3420  -28.9280 C   0  0  0  0  0  0  0  0  0  0  0  0
   -2.0450   25.1840  -27.9370 C   0  0  0  0  0  0  0  0  0  0  0  0
   -0.9040   25.9110  -28.3170 C   0  0  0  0  0  0  0  0  0  0  0  0
   -0.5406   25.8546  -29.3537 H   0  0  0  0  0  0  0  0  0  0  0  0
   -0.2280   26.7050  -27.3870 C   0  0  0  0  0  0  0  0  0  0  0  0
    0.6633   27.2692  -27.6989 H   0  0  0  0  0  0  0  0  0  0  0  0
   -0.6730   26.7900  -26.0630 C   0  0  0  0  0  0  0  0  0  0  0  0
    0.0470   27.6060  -25.1740 O   0  0  0  0  0  0  0  0  0  0  0  0
    0.6160   27.1850  -23.9350 C   0  0  0  0  0  0  0  0  0  0  0  0
    1.2781   26.3254  -24.1159 H   0  0  0  0  0  0  0  0  0  0  0  0
    1.1847   28.0230  -23.5057 H   0  0  0  0  0  0  0  0  0  0  0  0
   -0.4730   26.7780  -22.9490 C   0  0  0  0  0  0  0  0  0  0  0  0
   -0.1066   26.9149  -21.9209 H   0  0  0  0  0  0  0  0  0  0  0  0
   -1.3635   27.4040  -23.1073 H   0  0  0  0  0  0  0  0  0  0  0  0
   -0.7347   25.7214  -23.1073 H   0  0  0  0  0  0  0  0  0  0  0  0
   -1.8190   26.0680  -25.6790 C   0  0  0  0  0  0  0  0  0  0  0  0
   -2.1833   26.1299  -24.6429 H   0  0  0  0  0  0  0  0  0  0  0  0
   -2.4960   25.2730  -26.6080 C   0  0  0  0  0  0  0  0  0  0  0  0
   -3.3895   24.7119  -26.2968 H   0  0  0  0  0  0  0  0  0  0  0  0
   -4.0250   24.6740  -29.3260 N   0  0  0  0  0  0  0  0  0  0  0  0
   -4.4880   25.5120  -28.9050 H   0  0  0  0  0  0  0  0  0  0  0  0
   -4.7140   23.9280  -30.2390 C   0  0  0  0  0  0  0  0  0  0  0  0
   -6.0090   24.3060  -30.6230 C   0  0  0  0  0  0  0  0  0  0  0  0
   -6.4672   25.2063  -30.1877 H   0  0  0  0  0  0  0  0  0  0  0  0
   -6.7200   23.5470  -31.5540 C   0  0  0  0  0  0  0  0  0  0  0  0
   -7.7309   23.8581  -31.8561 H   0  0  0  0  0  0  0  0  0  0  0  0
   -6.1510   22.3880  -32.1070 C   0  0  0  0  0  0  0  0  0  0  0  0
   -6.8310   21.6120  -33.0580 O   0  0  0  0  0  0  0  0  0  0  0  0
   -6.9350   20.2120  -33.0420 C   0  0  0  0  0  0  0  0  0  0  0  0
   -6.1080   19.3950  -33.8340 C   0  0  0  0  0  0  0  0  0  0  0  0
   -5.3440   19.8513  -34.4806 H   0  0  0  0  0  0  0  0  0  0  0  0
   -6.2540   18.0040  -33.8020 C   0  0  0  0  0  0  0  0  0  0  0  0
   -5.5992   17.3681  -34.4158 H   0  0  0  0  0  0  0  0  0  0  0  0
   -7.2320   17.4220  -32.9900 C   0  0  0  0  0  0  0  0  0  0  0  0
   -7.3421   16.3279  -32.9602 H   0  0  0  0  0  0  0  0  0  0  0  0
   -8.0700   18.2300  -32.2160 C   0  0  0  0  0  0  0  0  0  0  0  0
   -8.8437   17.7718  -31.5824 H   0  0  0  0  0  0  0  0  0  0  0  0
   -7.9250   19.6210  -32.2470 C   0  0  0  0  0  0  0  0  0  0  0  0
   -8.5922   20.2541  -31.6437 H   0  0  0  0  0  0  0  0  0  0  0  0
   -4.8530   22.0170  -31.7440 C   0  0  0  0  0  0  0  0  0  0  0  0
   -4.3962   21.1247  -32.1969 H   0  0  0  0  0  0  0  0  0  0  0  0
   -4.1220   22.7730  -30.8040 C   0  0  0  0  0  0  0  0  0  0  0  0
  1  2  1  0
  2  3  2  0
  3  4  1  0
  4  5  1  0
  4  6  2  0
  6  7  1  0
  7  8  2  0
  8  9  1  0
  8 10  1  0
 10 11  1  0
 10 12  2  0
 12 13  1  0
 13 14  1  0
 14 15  1  0
 14 16  1  0
 14 17  1  0
 17 18  1  0
 17 19  1  0
 17 20  1  0
 12 21  1  0
 21 22  1  0
 21 23  2  0
 23 24  1  0
  6 25  1  0
 25 26  1  0
 25 27  1  0
 27 28  2  0
 28 29  1  0
 28 30  1  0
 30 31  1  0
 30 32  2  0
 32 33  1  0
 33 34  1  0
 34 35  2  0
 35 36  1  0
 35 37  1  0
 37 38  1  0
 37 39  2  0
 39 40  1  0
 39 41  1  0
 41 42  1  0
 41 43  2  0
 43 44  1  0
 32 45  1  0
 45 46  1  0
 45 47  2  0
 47  3  1  0
 23  7  1  0
 47 27  1  0
 43 34  1  0
M  END
>  <UniqueID>  (15) 
14

>  <SMILES>  (15) 
[H]/N=c1\cc(-c2ccc(OCC)cc2)[nH]c2ccc(Oc3ccccc3)cc12

>  <Energy>  (15) 
66.57903093460993

>  <Genealogy>  (15) 
[H]/N=c1\cc(-c2ccc(OCC)cc2)[nH]c2ccc(Oc3ccccc3)cc12 (cis-trans isomerization)
[H]/N=c1\cc(-c2ccc(OCC)cc2)[nH]c2ccc(Oc3ccccc3)cc12 (3D coordinates assigned)
[H]/N=c1\cc(-c2ccc(OCC)cc2)[nH]c2ccc(Oc3ccccc3)cc12 (optimized conformer: 66.57903093460993 kcal/mol)

>  <smiles>  (15) 
CCOc1ccc(-c2cc(=N)c3cc(Oc4ccccc4)ccc3[nH]2)cc1

>  <score_type>  (15) 
oracle

>  <origin>  (15) 
adgpu

>  <m_score__min__energy>  (15) 
-8.5600000000000005

>  <m_primary>  (15) 
energy

$$$$
15:0
     RDKit          3D

 47 49  0  0  0  0  0  0  0  0999 V2000
   -8.5037   23.3865  -32.3093 H   0  0  0  0  0  0  0  0  0  0  0  0
   -7.5070   23.3750  -31.8440 C   0  0  0  0  0  0  0  0  0  0  0  0
   -6.5120   22.5310  -32.3430 C   0  0  0  0  0  0  0  0  0  0  0  0
   -6.7258   21.8791  -33.2028 H   0  0  0  0  0  0  0  0  0  0  0  0
   -5.2450   22.5130  -31.7520 C   0  0  0  0  0  0  0  0  0  0  0  0
   -4.4641   21.8514  -32.1551 H   0  0  0  0  0  0  0  0  0  0  0  0
   -4.9610   23.3350  -30.6450 C   0  0  0  0  0  0  0  0  0  0  0  0
   -3.6060   23.3090  -30.0340 C   0  0  0  0  0  0  0  0  0  0  0  0
   -3.2690   24.2620  -29.1270 N   0  0  0  0  0  0  0  0  0  0  0  0
   -2.0590   24.3330  -28.5150 C   0  0  0  0  0  0  0  0  0  0  0  0
   -1.8960   25.3190  -27.6690 N   0  0  0  0  0  0  0  0  0  0  0  0
   -0.7530   25.7430  -26.8560 C   0  0  1  0  0  0  0  0  0  0  0  0
    0.1564   25.2152  -27.1791 H   0  0  0  0  0  0  0  0  0  0  0  0
   -0.4820   27.2600  -27.0390 C   0  0  0  0  0  0  0  0  0  0  0  0
   -0.8488   27.5700  -28.0286 H   0  0  0  0  0  0  0  0  0  0  0  0
    0.6015   27.4263  -26.9479 H   0  0  0  0  0  0  0  0  0  0  0  0
   -1.1850   28.1010  -25.9630 C   0  0  0  0  0  0  0  0  0  0  0  0
   -2.2708   27.9484  -26.0515 H   0  0  0  0  0  0  0  0  0  0  0  0
   -0.9057   29.1519  -26.1292 H   0  0  0  0  0  0  0  0  0  0  0  0
   -0.7640   27.7380  -24.5790 N   0  0  2  0  0  0  0  0  0  0  0  0
   -1.6130   27.8350  -23.9750 H   0  0  0  0  0  0  0  0  0  0  0  0
    0.2540   28.6530  -24.0930 C   0  0  0  0  0  0  0  0  0  0  0  0
    0.2710   29.8150  -24.4760 O   0  0  0  0  0  0  0  0  0  0  0  0
    1.3020   28.2050  -23.1130 C   0  0  0  0  0  0  0  0  0  0  0  0
    0.9359   28.3615  -22.0876 H   0  0  0  0  0  0  0  0  0  0  0  0
    1.5155   27.1370  -23.2671 H   0  0  0  0  0  0  0  0  0  0  0  0
    2.2215   28.7887  -23.2671 H   0  0  0  0  0  0  0  0  0  0  0  0
   -0.2930   26.3360  -24.4360 C   0  0  0  0  0  0  0  0  0  0  0  0
   -0.4558   26.0080  -23.3987 H   0  0  0  0  0  0  0  0  0  0  0  0
    0.7760   26.3024  -24.6933 H   0  0  0  0  0  0  0  0  0  0  0  0
   -1.0460   25.3930  -25.3810 C   0  0  0  0  0  0  0  0  0  0  0  0
   -2.1265   25.4853  -25.1966 H   0  0  0  0  0  0  0  0  0  0  0  0
   -0.7108   24.3628  -25.1906 H   0  0  0  0  0  0  0  0  0  0  0  0
   -1.0750   23.3480  -28.8320 C   0  0  0  0  0  0  0  0  0  0  0  0
    0.2340   23.2990  -28.2160 C   0  0  0  0  0  0  0  0  0  0  0  0
    1.2840   23.2450  -27.7320 N   0  0  0  0  0  0  0  0  0  0  0  0
   -1.3930   22.3530  -29.7880 C   0  0  0  0  0  0  0  0  0  0  0  0
   -0.3920   21.2930  -30.1820 C   0  0  0  0  0  0  0  0  0  0  0  0
    0.0368   20.8389  -29.2765 H   0  0  0  0  0  0  0  0  0  0  0  0
   -0.8948   20.5173  -30.7782 H   0  0  0  0  0  0  0  0  0  0  0  0
    0.4111   21.7507  -30.7782 H   0  0  0  0  0  0  0  0  0  0  0  0
   -2.6580   22.3440  -30.3870 C   0  0  0  0  0  0  0  0  0  0  0  0
   -2.9063   21.5774  -31.1358 H   0  0  0  0  0  0  0  0  0  0  0  0
   -5.9700   24.1900  -30.1580 C   0  0  0  0  0  0  0  0  0  0  0  0
   -5.7611   24.8506  -29.3036 H   0  0  0  0  0  0  0  0  0  0  0  0
   -7.2350   24.2040  -30.7540 C   0  0  0  0  0  0  0  0  0  0  0  0
   -8.0181   24.8702  -30.3629 H   0  0  0  0  0  0  0  0  0  0  0  0
  1  2  1  0
  2  3  2  0
  3  4  1  0
  3  5  1  0
  5  6  1  0
  5  7  2  0
  7  8  1  0
  8  9  1  0
  9 10  1  0
 10 11  2  0
 11 12  1  0
 12 13  1  6
 12 14  1  0
 14 15  1  0
 14 16  1  0
 14 17  1  0
 17 18  1  0
 17 19  1  0
 17 20  1  0
 20 21  1  1
 20 22  1  0
 22 23  2  0
 22 24  1  0
 24 25  1  0
 24 26  1  0
 24 27  1  0
 20 28  1  0
 28 29  1  0
 28 30  1  0
 28 31  1  0
 31 32  1  0
 31 33  1  0
 10 34  1  0
 34 35  1  0
 35 36  3  0
 34 37  2  0
 37 38  1  0
 38 39  1  0
 38 40  1  0
 38 41  1  0
 37 42  1  0
 42 43  1  0
  7 44  1  0
 44 45  1  0
 44 46  2  0
 46 47  1  0
 46  2  1  0
 42  8  2  0
 31 12  1  0
M  CHG  2   9  -1  20   1
M  END
>  <UniqueID>  (16) 
15

>  <SMILES>  (16) 
CC(=O)[NH+]1CCC(/N=c2/[n-]c(-c3ccccc3)cc(C)c2C#N)CC1

>  <Energy>  (16) 
69.86611365557323

>  <Genealogy>  (16) 
CC(=O)[NH+]1CCC(N=c2[n-]c(-c3ccccc3)cc(C)c2C#N)CC1 (protonated)
CC(=O)[NH+]1CCC(/N=c2/[n-]c(-c3ccccc3)cc(C)c2C#N)CC1 (cis-trans isomerization)
CC(=O)[NH+]1CCC(/N=c2/[n-]c(-c3ccccc3)cc(C)c2C#N)CC1 (3D coordinates assigned)
CC(=O)[NH+]1CCC(/N=c2/[n-]c(-c3ccccc3)cc(C)c2C#N)CC1 (nonaromatic ring conformer: 69.86611365557323 kcal/mol)

>  <smiles>  (16) 
CC(=O)N1CCC(N=c2[nH]c(-c3ccccc3)cc(C)c2C#N)CC1

>  <score_type>  (16) 
oracle

>  <origin>  (16) 
adgpu

>  <m_score__min__energy>  (16) 
-8.6099999999999994

>  <m_primary>  (16) 
energy

$$$$
16:0
     RDKit          3D

 54 58  0  0  0  0  0  0  0  0999 V2000
   -3.5070   23.3790  -31.5420 O   0  0  0  0  0  0  0  0  0  0  0  0
   -4.4350   22.5690  -31.8160 C   0  0  0  0  0  0  0  0  0  0  0  0
   -5.7060   22.8730  -31.4430 N   0  0  0  0  0  0  0  0  0  0  0  0
   -6.7420   22.0460  -31.7230 C   0  0  0  0  0  0  0  0  0  0  0  0
   -8.0400   22.3860  -31.3210 C   0  0  0  0  0  0  0  0  0  0  0  0
   -9.1110   21.5340  -31.6110 C   0  0  0  0  0  0  0  0  0  0  0  0
   -8.8880   20.3360  -32.2980 C   0  0  0  0  0  0  0  0  0  0  0  0
   -7.5930   19.9860  -32.6990 C   0  0  0  0  0  0  0  0  0  0  0  0
   -6.5110   20.8420  -32.4180 C   0  0  0  0  0  0  0  0  0  0  0  0
   -5.1920   20.5390  -32.7980 C   0  0  0  0  0  0  0  0  0  0  0  0
   -4.9470   19.4590  -33.4090 O   0  0  0  0  0  0  0  0  0  0  0  0
   -4.1710   21.4040  -32.4910 N   0  0  0  0  0  0  0  0  0  0  0  0
   -2.8170   21.0740  -32.8590 C   0  0  0  0  0  0  0  0  0  0  0  0
   -1.7590   21.3230  -31.9700 C   0  0  0  0  0  0  0  0  0  0  0  0
   -0.4470   21.0110  -32.3330 C   0  0  0  0  0  0  0  0  0  0  0  0
   -0.1770   20.4580  -33.5950 C   0  0  0  0  0  0  0  0  0  0  0  0
    1.4660   20.0100  -34.0490 S   0  0  0  0  0  0  0  0  0  0  0  0
    1.4830   18.6040  -34.5880 O   0  0  0  0  0  0  0  0  0  0  0  0
    2.3280   20.0650  -32.8150 O   0  0  0  0  0  0  0  0  0  0  0  0
    2.1330   21.0810  -35.2460 N   0  0  0  0  0  0  0  0  0  0  0  0
    1.6760   22.4140  -35.5040 C   0  0  0  0  0  0  0  0  0  0  0  0
    0.3610   22.6810  -35.9100 C   0  0  0  0  0  0  0  0  0  0  0  0
   -0.0680   24.0000  -36.0940 C   0  0  0  0  0  0  0  0  0  0  0  0
    0.8260   25.0870  -35.9220 C   0  0  0  0  0  0  0  0  0  0  0  0
    0.3850   26.4690  -36.1050 N   0  0  0  0  0  0  0  0  0  0  0  0
    1.1130   27.5600  -35.4160 C   0  0  0  0  0  0  0  0  0  0  0  0
    0.6390   28.9420  -35.8530 C   0  0  0  0  0  0  0  0  0  0  0  0
   -0.7720   28.9800  -35.8650 O   0  0  0  0  0  0  0  0  0  0  0  0
   -1.2340   28.2240  -36.9630 C   0  0  0  0  0  0  0  0  0  0  0  0
   -0.8720   26.7340  -36.8420 C   0  0  0  0  0  0  0  0  0  0  0  0
    2.1660   24.7880  -35.5750 C   0  0  0  0  0  0  0  0  0  0  0  0
    2.5790   23.4700  -35.3730 C   0  0  0  0  0  0  0  0  0  0  0  0
   -1.2310   20.2260  -34.4910 C   0  0  0  0  0  0  0  0  0  0  0  0
   -2.5440   20.5200  -34.1210 C   0  0  0  0  0  0  0  0  0  0  0  0
   -8.2176   23.3249  -30.7761 H   0  0  0  0  0  0  0  0  0  0  0  0
  -10.1298   21.8065  -31.2984 H   0  0  0  0  0  0  0  0  0  0  0  0
   -9.7319   19.6675  -32.5237 H   0  0  0  0  0  0  0  0  0  0  0  0
   -7.4206   19.0407  -33.2345 H   0  0  0  0  0  0  0  0  0  0  0  0
   -1.9643   21.7654  -30.9840 H   0  0  0  0  0  0  0  0  0  0  0  0
    0.3767   21.1989  -31.6286 H   0  0  0  0  0  0  0  0  0  0  0  0
   -0.3372   21.8492  -36.0848 H   0  0  0  0  0  0  0  0  0  0  0  0
   -1.1130   24.1963  -36.3759 H   0  0  0  0  0  0  0  0  0  0  0  0
    0.9565   27.4594  -34.3318 H   0  0  0  0  0  0  0  0  0  0  0  0
    2.1773   27.4717  -35.6797 H   0  0  0  0  0  0  0  0  0  0  0  0
    1.0190   29.6979  -35.1501 H   0  0  0  0  0  0  0  0  0  0  0  0
    1.0174   29.1537  -36.8639 H   0  0  0  0  0  0  0  0  0  0  0  0
   -2.3284   28.3182  -37.0214 H   0  0  0  0  0  0  0  0  0  0  0  0
   -0.7472   28.6152  -37.8685 H   0  0  0  0  0  0  0  0  0  0  0  0
   -1.6926   26.2217  -36.3184 H   0  0  0  0  0  0  0  0  0  0  0  0
   -0.7202   26.3630  -37.8664 H   0  0  0  0  0  0  0  0  0  0  0  0
    2.8922   25.6066  -35.4630 H   0  0  0  0  0  0  0  0  0  0  0  0
    3.6261   23.2617  -35.1081 H   0  0  0  0  0  0  0  0  0  0  0  0
   -1.0220   19.8112  -35.4881 H   0  0  0  0  0  0  0  0  0  0  0  0
   -3.3686   20.3172  -34.8202 H   0  0  0  0  0  0  0  0  0  0  0  0
  1  2  2  0
  2  3  1  0
  3  4  1  0
  4  5  2  0
  5  6  1  0
  6  7  2  0
  7  8  1  0
  8  9  2  0
  9 10  1  0
 10 11  2  0
 10 12  1  0
 12 13  1  0
 13 14  2  0
 14 15  1  0
 15 16  2  0
 16 17  1  0
 17 18  2  0
 17 19  2  0
 17 20  1  0
 20 21  1  0
 21 22  2  0
 22 23  1  0
 23 24  2  0
 24 25  1  0
 25 26  1  0
 26 27  1  0
 27 28  1  0
 28 29  1  0
 29 30  1  0
 24 31  1  0
 31 32  2  0
 16 33  1  0
 33 34  2  0
 12  2  1  0
 34 13  1  0
  9  4  1  0
 32 21  1  0
 30 25  1  0
  5 35  1  0
  6 36  1  0
  7 37  1  0
  8 38  1  0
 14 39  1  0
 15 40  1  0
 22 41  1  0
 23 42  1  0
 26 43  1  0
 26 44  1  0
 27 45  1  0
 27 46  1  0
 29 47  1  0
 29 48  1  0
 30 49  1  0
 30 50  1  0
 31 51  1  0
 32 52  1  0
 33 53  1  0
 34 54  1  0
M  CHG  2   3  -1  20  -1
M  END
>  <UniqueID>  (17) 
16

>  <SMILES>  (17) 
O=c1[n-]c2ccccc2c(=O)n1-c1ccc(S(=O)(=O)[N-]c2ccc(N3CCOCC3)cc2)cc1

>  <Energy>  (17) 
90.14862983547845

>  <Genealogy>  (17) 
O=c1[n-]c2ccccc2c(=O)n1-c1ccc(S(=O)(=O)[N-]c2ccc(N3CCOCC3)cc2)cc1 (protonated)
O=c1[n-]c2ccccc2c(=O)n1-c1ccc(S(=O)(=O)[N-]c2ccc(N3CCOCC3)cc2)cc1 (3D coordinates assigned)
O=c1[n-]c2ccccc2c(=O)n1-c1ccc(S(=O)(=O)[N-]c2ccc(N3CCOCC3)cc2)cc1 (nonaromatic ring conformer: 90.14862983547845 kcal/mol)

>  <smiles>  (17) 
O=c1[nH]c2ccccc2c(=O)n1-c1ccc(S(=O)(=O)Nc2ccc(N3CCOCC3)cc2)cc1

>  <score_type>  (17) 
oracle

>  <origin>  (17) 
adgpu

>  <m_score__min__energy>  (17) 
-11.16

>  <m_primary>  (17) 
energy

$$$$
17:0
     RDKit          3D

 28 30  0  0  0  0  0  0  0  0999 V2000
  -10.5191   20.3217  -32.0063 H   0  0  0  0  0  0  0  0  0  0  0  0
   -9.4890   20.7070  -31.9880 C   0  0  0  0  0  0  0  0  0  0  0  0
   -9.1960   21.8210  -31.2550 N   0  0  0  0  0  0  0  0  0  0  0  0
   -7.9210   22.2770  -31.2470 C   0  0  0  0  0  0  0  0  0  0  0  0
   -7.4750   23.3470  -30.5680 N   0  0  0  0  0  0  0  0  0  0  0  0
   -6.1560   23.3310  -30.9060 C   0  0  0  0  0  0  0  0  0  0  0  0
   -5.1880   24.3150  -30.4120 C   0  0  0  0  0  0  0  0  0  0  0  0
   -4.6570   25.1260  -31.2160 O   0  0  0  0  0  0  0  0  0  0  0  0
   -4.9430   24.4230  -29.0060 N   0  0  0  0  0  0  0  0  0  0  0  0
   -3.8400   24.2010  -28.3460 C   0  0  0  0  0  0  0  0  0  0  0  0
   -3.6580   24.5540  -26.7380 S   0  0  0  0  0  0  0  0  0  0  0  0
   -2.0960   24.0210  -26.5680 N   0  0  0  0  0  0  0  0  0  0  0  0
   -1.7460   23.5510  -27.7970 C   0  0  0  0  0  0  0  0  0  0  0  0
   -0.7452   23.1350  -27.9853 H   0  0  0  0  0  0  0  0  0  0  0  0
   -2.6910   23.6160  -28.7940 N   0  0  0  0  0  0  0  0  0  0  0  0
   -2.4440   23.0250  -30.1110 C   0  0  0  0  0  0  0  0  0  0  0  0
   -2.0225   22.0165  -29.9871 H   0  0  0  0  0  0  0  0  0  0  0  0
   -3.3907   22.9609  -30.6675 H   0  0  0  0  0  0  0  0  0  0  0  0
   -1.7333   23.6536  -30.6675 H   0  0  0  0  0  0  0  0  0  0  0  0
   -5.8230   22.3120  -31.7370 N   0  0  0  0  0  0  0  0  0  0  0  0
   -6.9550   21.6660  -31.9360 N   0  0  0  0  0  0  0  0  0  0  0  0
   -7.1730   20.5610  -32.6940 C   0  0  0  0  0  0  0  0  0  0  0  0
   -6.0510   19.8830  -33.4220 C   0  0  0  0  0  0  0  0  0  0  0  0
   -5.3457   19.4568  -32.6933 H   0  0  0  0  0  0  0  0  0  0  0  0
   -6.4566   19.0787  -34.0533 H   0  0  0  0  0  0  0  0  0  0  0  0
   -5.5276   20.6161  -34.0533 H   0  0  0  0  0  0  0  0  0  0  0  0
   -8.4820   20.0460  -32.7220 C   0  0  0  0  0  0  0  0  0  0  0  0
   -8.7160   19.1437  -33.3060 H   0  0  0  0  0  0  0  0  0  0  0  0
  1  2  1  0
  2  3  2  0
  3  4  1  0
  4  5  2  0
  5  6  1  0
  6  7  1  0
  7  8  2  0
  7  9  1  0
  9 10  2  0
 10 11  1  0
 11 12  1  0
 12 13  2  0
 13 14  1  0
 13 15  1  0
 15 16  1  0
 16 17  1  0
 16 18  1  0
 16 19  1  0
  6 20  2  0
 20 21  1  0
 21 22  1  0
 22 23  1  0
 23 24  1  0
 23 25  1  0
 23 26  1  0
 22 27  2  0
 27 28  1  0
 27  2  1  0
 21  4  1  0
 15 10  1  0
M  END
>  <UniqueID>  (18) 
17

>  <SMILES>  (18) 
Cc1ccnc2nc(C(=O)/N=c3/sncn3C)nn12

>  <Energy>  (18) 
118.36380166962368

>  <Genealogy>  (18) 
Cc1ccnc2nc(C(=O)/N=c3/sncn3C)nn12 (cis-trans isomerization)
Cc1ccnc2nc(C(=O)/N=c3/sncn3C)nn12 (3D coordinates assigned)
Cc1ccnc2nc(C(=O)/N=c3/sncn3C)nn12 (optimized conformer: 118.36380166962368 kcal/mol)

>  <smiles>  (18) 
Cc1ccnc2nc(C(=O)N=c3sncn3C)nn12

>  <score_type>  (18) 
oracle

>  <origin>  (18) 
adgpu

>  <m_score__min__energy>  (18) 
-6.9199999999999999

>  <m_primary>  (18) 
energy

$$$$
18:0
     RDKit          3D

 45 47  0  0  0  0  0  0  0  0999 V2000
   -2.0350   19.4840  -27.2530 C   0  0  0  0  0  0  0  0  0  0  0  0
   -2.1130   20.9050  -27.7250 C   0  0  0  0  0  0  0  0  0  0  0  0
   -1.0700   21.4600  -28.4830 C   0  0  0  0  0  0  0  0  0  0  0  0
   -1.1670   22.7680  -28.9670 C   0  0  0  0  0  0  0  0  0  0  0  0
   -2.3190   23.5340  -28.7220 C   0  0  0  0  0  0  0  0  0  0  0  0
   -2.4310   24.9060  -29.2740 C   0  0  0  0  0  0  0  0  0  0  0  0
   -1.5690   25.7700  -28.9610 O   0  0  0  0  0  0  0  0  0  0  0  0
   -3.5170   25.2930  -30.1300 N   0  0  0  0  0  0  0  0  0  0  0  0
   -4.6330   24.4620  -30.4770 C   0  0  0  0  0  0  0  0  0  0  0  0
   -4.4670   23.2940  -31.2410 C   0  0  0  0  0  0  0  0  0  0  0  0
   -5.5560   22.4580  -31.4920 C   0  0  0  0  0  0  0  0  0  0  0  0
   -6.8230   22.7850  -30.9970 C   0  0  0  0  0  0  0  0  0  0  0  0
   -8.1370   21.6270  -31.1680 S   0  0  0  0  0  0  0  0  0  0  0  0
   -9.0920   21.7210  -30.0080 O   0  0  0  0  0  0  0  0  0  0  0  0
   -8.8810   21.9120  -32.4440 O   0  0  0  0  0  0  0  0  0  0  0  0
   -7.4700   20.0280  -31.2320 N   0  0  0  0  0  0  0  0  0  0  0  0
   -7.0100   19.5120  -32.3300 C   0  0  0  0  0  0  0  0  0  0  0  0
   -6.9710   20.1300  -33.4890 O   0  0  0  0  0  0  0  0  0  0  0  0
   -6.5100   19.3300  -34.4040 N   0  0  0  0  0  0  0  0  0  0  0  0
   -6.2460   18.1390  -33.8290 C   0  0  0  0  0  0  0  0  0  0  0  0
   -5.7350   16.9400  -34.5590 C   0  0  0  0  0  0  0  0  0  0  0  0
   -6.5240   18.2270  -32.4760 C   0  0  0  0  0  0  0  0  0  0  0  0
   -6.4700   17.1380  -31.4520 C   0  0  0  0  0  0  0  0  0  0  0  0
   -7.0050   23.9820  -30.2910 C   0  0  0  0  0  0  0  0  0  0  0  0
   -5.9150   24.8220  -30.0420 C   0  0  0  0  0  0  0  0  0  0  0  0
   -3.3580   22.9770  -27.9550 C   0  0  0  0  0  0  0  0  0  0  0  0
   -3.2590   21.6700  -27.4700 C   0  0  0  0  0  0  0  0  0  0  0  0
   -2.0338   19.4625  -26.1532 H   0  0  0  0  0  0  0  0  0  0  0  0
   -2.9038   18.9243  -27.6298 H   0  0  0  0  0  0  0  0  0  0  0  0
   -1.1102   19.0227  -27.6298 H   0  0  0  0  0  0  0  0  0  0  0  0
   -0.1716   20.8626  -28.6973 H   0  0  0  0  0  0  0  0  0  0  0  0
   -0.3358   23.2003  -29.5435 H   0  0  0  0  0  0  0  0  0  0  0  0
   -3.4754   23.0379  -31.6425 H   0  0  0  0  0  0  0  0  0  0  0  0
   -5.4177   21.5392  -32.0808 H   0  0  0  0  0  0  0  0  0  0  0  0
   -6.3830   19.5860  -35.4120 H   0  0  0  0  0  0  0  0  0  0  0  0
   -5.4109   16.1795  -33.8333 H   0  0  0  0  0  0  0  0  0  0  0  0
   -6.5352   16.5267  -35.1906 H   0  0  0  0  0  0  0  0  0  0  0  0
   -4.8827   17.2309  -35.1906 H   0  0  0  0  0  0  0  0  0  0  0  0
   -6.4919   17.5802  -30.4450 H   0  0  0  0  0  0  0  0  0  0  0  0
   -7.3362   16.4720  -31.5790 H   0  0  0  0  0  0  0  0  0  0  0  0
   -5.5421   16.5610  -31.5790 H   0  0  0  0  0  0  0  0  0  0  0  0
   -8.0067   24.2611  -29.9322 H   0  0  0  0  0  0  0  0  0  0  0  0
   -6.0649   25.7689  -29.5026 H   0  0  0  0  0  0  0  0  0  0  0  0
   -4.2551   23.5744  -27.7352 H   0  0  0  0  0  0  0  0  0  0  0  0
   -4.0851   21.2395  -26.8850 H   0  0  0  0  0  0  0  0  0  0  0  0
  1  2  1  0
  2  3  2  0
  3  4  1  0
  4  5  2  0
  5  6  1  0
  6  7  2  0
  6  8  1  0
  8  9  1  0
  9 10  2  0
 10 11  1  0
 11 12  2  0
 12 13  1  0
 13 14  2  0
 13 15  2  0
 13 16  1  0
 16 17  2  3
 17 18  1  0
 18 19  1  0
 19 20  1  0
 20 21  1  0
 20 22  2  0
 22 23  1  0
 12 24  1  0
 24 25  2  0
  5 26  1  0
 26 27  2  0
 27  2  1  0
 25  9  1  0
 22 17  1  0
  1 28  1  0
  1 29  1  0
  1 30  1  0
  3 31  1  0
  4 32  1  0
 10 33  1  0
 11 34  1  0
 19 35  1  0
 21 36  1  0
 21 37  1  0
 21 38  1  0
 23 39  1  0
 23 40  1  0
 23 41  1  0
 24 42  1  0
 25 43  1  0
 26 44  1  0
 27 45  1  0
M  CHG  1   8  -1
M  END
>  <UniqueID>  (19) 
18

>  <SMILES>  (19) 
Cc1ccc(C(=O)[N-]c2ccc(S(=O)(=O)N=c3o[nH]c(C)c3C)cc2)cc1

>  <Energy>  (19) 
84.3684180556004

>  <Genealogy>  (19) 
Cc1ccc(C(=O)[N-]c2ccc(S(=O)(=O)N=c3o[nH]c(C)c3C)cc2)cc1 (protonated)
Cc1ccc(C(=O)[N-]c2ccc(S(=O)(=O)N=c3o[nH]c(C)c3C)cc2)cc1 (3D coordinates assigned)
Cc1ccc(C(=O)[N-]c2ccc(S(=O)(=O)N=c3o[nH]c(C)c3C)cc2)cc1 (optimized conformer: 84.3684180556004 kcal/mol)

>  <smiles>  (19) 
Cc1ccc(C(=O)Nc2ccc(S(=O)(=O)N=c3o[nH]c(C)c3C)cc2)cc1

>  <score_type>  (19) 
oracle

>  <origin>  (19) 
adgpu

>  <m_score__min__energy>  (19) 
-11.48

>  <m_primary>  (19) 
energy

$$$$
19:0
     RDKit          3D

 56 58  0  0  0  0  0  0  0  0999 V2000
   -2.5709   19.1685  -34.9229 H   0  0  0  0  0  0  0  0  0  0  0  0
   -1.8720   19.6320  -34.2110 C   0  0  0  0  0  0  0  0  0  0  0  0
   -2.1060   19.3860  -32.7750 C   0  0  0  0  0  0  0  0  0  0  0  0
   -2.8400   18.4180  -32.4470 O   0  0  0  0  0  0  0  0  0  0  0  0
   -1.5590   20.2180  -31.7410 N   0  0  0  0  0  0  0  0  0  0  0  0
   -2.1150   21.4310  -31.2070 C   0  0  0  0  0  0  0  0  0  0  0  0
   -1.4260   22.2230  -30.2680 C   0  0  0  0  0  0  0  0  0  0  0  0
   -0.1450   21.8280  -29.8470 O   0  0  0  0  0  0  0  0  0  0  0  0
    0.1710   20.6330  -29.1310 C   0  0  0  0  0  0  0  0  0  0  0  0
    1.0734   20.8036  -28.5255 H   0  0  0  0  0  0  0  0  0  0  0  0
    0.3427   19.8235  -29.8557 H   0  0  0  0  0  0  0  0  0  0  0  0
   -0.9790   20.2300  -28.2120 C   0  0  0  0  0  0  0  0  0  0  0  0
   -0.6660   20.3397  -27.1632 H   0  0  0  0  0  0  0  0  0  0  0  0
   -1.8470   20.8775  -28.4052 H   0  0  0  0  0  0  0  0  0  0  0  0
   -1.2529   19.1823  -28.4052 H   0  0  0  0  0  0  0  0  0  0  0  0
   -2.0150   23.4200  -29.8240 C   0  0  0  0  0  0  0  0  0  0  0  0
   -1.4860   24.0462  -29.0905 H   0  0  0  0  0  0  0  0  0  0  0  0
   -3.2640   23.8240  -30.3030 C   0  0  0  0  0  0  0  0  0  0  0  0
   -3.7410   25.0440  -29.9420 N   0  0  0  0  0  0  0  0  0  0  0  0
   -4.9080   25.5310  -30.4280 C   0  0  0  0  0  0  0  0  0  0  0  0
   -5.2427   26.5395  -30.1437 H   0  0  0  0  0  0  0  0  0  0  0  0
   -5.6840   24.7580  -31.2860 C   0  0  0  0  0  0  0  0  0  0  0  0
   -6.6147   25.1709  -31.7023 H   0  0  0  0  0  0  0  0  0  0  0  0
   -5.2880   23.4580  -31.6230 C   0  0  0  0  0  0  0  0  0  0  0  0
   -6.1670   22.7350  -32.2710 N   0  0  0  0  0  0  0  0  0  0  0  0
   -6.2180   21.3180  -32.4750 C   0  0  0  0  0  0  0  0  0  0  0  0
   -5.4290   20.7100  -33.4640 C   0  0  0  0  0  0  0  0  0  0  0  0
   -4.7857   21.3273  -34.1082 H   0  0  0  0  0  0  0  0  0  0  0  0
   -5.4580   19.3230  -33.6330 C   0  0  0  0  0  0  0  0  0  0  0  0
   -4.8607   18.8568  -34.4304 H   0  0  0  0  0  0  0  0  0  0  0  0
   -6.2460   18.5200  -32.7900 C   0  0  0  0  0  0  0  0  0  0  0  0
   -6.3250   17.0300  -33.0140 C   0  0  0  0  0  0  0  0  0  0  0  0
   -7.6340   16.6170  -32.8520 F   0  0  0  0  0  0  0  0  0  0  0  0
   -5.5230   16.3550  -32.1110 F   0  0  0  0  0  0  0  0  0  0  0  0
   -5.9050   16.7070  -34.2930 F   0  0  0  0  0  0  0  0  0  0  0  0
   -7.0230   19.1340  -31.7910 C   0  0  0  0  0  0  0  0  0  0  0  0
   -7.6609   18.5191  -31.1391 H   0  0  0  0  0  0  0  0  0  0  0  0
   -6.9890   20.5220  -31.6220 C   0  0  0  0  0  0  0  0  0  0  0  0
   -7.5714   20.9896  -30.8144 H   0  0  0  0  0  0  0  0  0  0  0  0
   -3.9960   23.0060  -31.2020 C   0  0  0  0  0  0  0  0  0  0  0  0
   -3.3550   21.8550  -31.7040 C   0  0  0  0  0  0  0  0  0  0  0  0
   -3.8393   21.2763  -32.5043 H   0  0  0  0  0  0  0  0  0  0  0  0
   -0.8790   20.3730  -34.7190 C   0  0  0  0  0  0  0  0  0  0  0  0
   -0.8984   20.5845  -35.7983 H   0  0  0  0  0  0  0  0  0  0  0  0
    0.2690   20.9400  -33.9100 C   0  0  0  0  0  0  0  0  0  0  0  0
   -0.1346   21.3466  -32.9710 H   0  0  0  0  0  0  0  0  0  0  0  0
    0.9798   20.1182  -33.7384 H   0  0  0  0  0  0  0  0  0  0  0  0
    1.0090   22.0160  -34.6060 N   0  0  0  0  0  0  0  0  0  0  0  0
    2.3820   21.6240  -34.9610 C   0  0  0  0  0  0  0  0  0  0  0  0
    2.9648   21.4576  -34.0430 H   0  0  0  0  0  0  0  0  0  0  0  0
    2.3573   20.6970  -35.5527 H   0  0  0  0  0  0  0  0  0  0  0  0
    2.8504   22.4243  -35.5527 H   0  0  0  0  0  0  0  0  0  0  0  0
    0.2830   22.5400  -35.7740 C   0  0  0  0  0  0  0  0  0  0  0  0
   -0.5653   23.1523  -35.4341 H   0  0  0  0  0  0  0  0  0  0  0  0
    0.9615   23.1580  -36.3805 H   0  0  0  0  0  0  0  0  0  0  0  0
   -0.0898   21.7014  -36.3805 H   0  0  0  0  0  0  0  0  0  0  0  0
  1  2  1  0
  2  3  1  0
  3  4  2  0
  3  5  1  0
  5  6  1  0
  6  7  2  0
  7  8  1  0
  8  9  1  0
  9 10  1  0
  9 11  1  0
  9 12  1  0
 12 13  1  0
 12 14  1  0
 12 15  1  0
  7 16  1  0
 16 17  1  0
 16 18  2  0
 18 19  1  0
 19 20  1  0
 20 21  1  0
 20 22  2  0
 22 23  1  0
 22 24  1  0
 24 25  2  0
 25 26  1  0
 26 27  2  0
 27 28  1  0
 27 29  1  0
 29 30  1  0
 29 31  2  0
 31 32  1  0
 32 33  1  0
 32 34  1  0
 32 35  1  0
 31 36  1  0
 36 37  1  0
 36 38  2  0
 38 39  1  0
 24 40  1  0
 40 41  2  0
 41 42  1  0
  2 43  2  3
 43 44  1  0
 43 45  1  0
 45 46  1  0
 45 47  1  0
 45 48  1  0
 48 49  1  0
 49 50  1  0
 49 51  1  0
 49 52  1  0
 48 53  1  0
 53 54  1  0
 53 55  1  0
 53 56  1  0
 41  6  1  0
 40 18  1  0
 38 26  1  0
M  CHG  2   5  -1  19  -1
M  END
>  <UniqueID>  (20) 
19

>  <SMILES>  (20) 
CCOc1cc2[n-]cc/c(=N/c3ccc(C(F)(F)F)cc3)c2cc1[N-]C(=O)C=CCN(C)C

>  <Energy>  (20) 
88.40917092524343

>  <Genealogy>  (20) 
CCOc1cc2[n-]ccc(=Nc3ccc(C(F)(F)F)cc3)c2cc1[N-]C(=O)C=CCN(C)C (protonated)
CCOc1cc2[n-]cc/c(=N/c3ccc(C(F)(F)F)cc3)c2cc1[N-]C(=O)C=CCN(C)C (cis-trans isomerization)
CCOc1cc2[n-]cc/c(=N/c3ccc(C(F)(F)F)cc3)c2cc1[N-]C(=O)C=CCN(C)C (3D coordinates assigned)
CCOc1cc2[n-]cc/c(=N/c3ccc(C(F)(F)F)cc3)c2cc1[N-]C(=O)C=CCN(C)C (optimized conformer: 88.40917092524343 kcal/mol)

>  <smiles>  (20) 
CCOc1cc2[nH]ccc(=Nc3ccc(C(F)(F)F)cc3)c2cc1NC(=O)C=CCN(C)C

>  <score_type>  (20) 
oracle

>  <origin>  (20) 
adgpu

>  <m_score__min__energy>  (20) 
-9.4900000000000002

>  <m_primary>  (20) 
energy

$$$$
20:0
     RDKit          3D

 30 32  0  0  0  0  0  0  0  0999 V2000
   -3.3760   16.1340  -35.4290 H   0  0  0  0  0  0  0  0  0  0  0  0
   -3.9220   15.9290  -34.6000 O   0  0  0  0  0  0  0  0  0  0  0  0
   -4.9800   16.7450  -34.2060 C   0  0  0  0  0  0  0  0  0  0  0  0
   -5.9990   16.2460  -33.3810 C   0  0  0  0  0  0  0  0  0  0  0  0
   -5.9671   15.2006  -33.0403 H   0  0  0  0  0  0  0  0  0  0  0  0
   -7.0550   17.0750  -32.9910 C   0  0  0  0  0  0  0  0  0  0  0  0
   -7.8599   16.6747  -32.3570 H   0  0  0  0  0  0  0  0  0  0  0  0
   -7.0930   18.4200  -33.4060 C   0  0  0  0  0  0  0  0  0  0  0  0
   -8.1720   19.3010  -33.0540 N   0  0  0  0  0  0  0  0  0  0  0  0
   -8.0730   20.4390  -32.4330 C   0  0  0  0  0  0  0  0  0  0  0  0
   -6.9030   21.0230  -32.0930 N   0  0  0  0  0  0  0  0  0  0  0  0
   -7.0890   22.2300  -31.4890 C   0  0  0  0  0  0  0  0  0  0  0  0
   -5.9380   23.0410  -31.0160 C   0  0  0  0  0  0  0  0  0  0  0  0
   -6.1240   24.2520  -30.3180 C   0  0  0  0  0  0  0  0  0  0  0  0
   -7.1427   24.6127  -30.1125 H   0  0  0  0  0  0  0  0  0  0  0  0
   -5.0230   24.9980  -29.8850 C   0  0  0  0  0  0  0  0  0  0  0  0
   -5.1796   25.9398  -29.3387 H   0  0  0  0  0  0  0  0  0  0  0  0
   -3.7250   24.5510  -30.1440 C   0  0  0  0  0  0  0  0  0  0  0  0
   -2.6350   25.2950  -29.7130 O   0  0  0  0  0  0  0  0  0  0  0  0
   -3.5270   23.3560  -30.8390 C   0  0  0  0  0  0  0  0  0  0  0  0
   -2.5053   23.0040  -31.0446 H   0  0  0  0  0  0  0  0  0  0  0  0
   -4.6230   22.6060  -31.2740 C   0  0  0  0  0  0  0  0  0  0  0  0
   -4.4575   21.6673  -31.8230 H   0  0  0  0  0  0  0  0  0  0  0  0
   -8.4330   22.6040  -31.3580 C   0  0  0  0  0  0  0  0  0  0  0  0
   -8.8005   23.5337  -30.8991 H   0  0  0  0  0  0  0  0  0  0  0  0
   -9.3890   21.3890  -32.0220 S   0  0  0  0  0  0  0  0  0  0  0  0
   -6.0860   18.9010  -34.2540 C   0  0  0  0  0  0  0  0  0  0  0  0
   -6.1265   19.9391  -34.6155 H   0  0  0  0  0  0  0  0  0  0  0  0
   -5.0300   18.0710  -34.6440 C   0  0  0  0  0  0  0  0  0  0  0  0
   -4.2366   18.4631  -35.2973 H   0  0  0  0  0  0  0  0  0  0  0  0
  1  2  1  0
  2  3  1  0
  3  4  2  0
  4  5  1  0
  4  6  1  0
  6  7  1  0
  6  8  2  0
  8  9  1  0
  9 10  2  0
 10 11  1  0
 11 12  1  0
 12 13  1  0
 13 14  2  0
 14 15  1  0
 14 16  1  0
 16 17  1  0
 16 18  2  0
 18 19  1  0
 18 20  1  0
 20 21  1  0
 20 22  2  0
 22 23  1  0
 12 24  2  0
 24 25  1  0
 24 26  1  0
  8 27  1  0
 27 28  1  0
 27 29  2  0
 29 30  1  0
 29  3  1  0
 26 10  1  0
 22 13  1  0
M  CHG  2  11  -1  19  -1
M  END
>  <UniqueID>  (21) 
20

>  <SMILES>  (21) 
[O-]c1ccc(-c2cs/c(=N/c3ccc(O)cc3)[n-]2)cc1

>  <Energy>  (21) 
70.31086553262506

>  <Genealogy>  (21) 
[O-]c1ccc(-c2csc(=Nc3ccc(O)cc3)[n-]2)cc1 (protonated)
[O-]c1ccc(-c2cs/c(=N/c3ccc(O)cc3)[n-]2)cc1 (cis-trans isomerization)
[O-]c1ccc(-c2cs/c(=N/c3ccc(O)cc3)[n-]2)cc1 (3D coordinates assigned)
[O-]c1ccc(-c2cs/c(=N/c3ccc(O)cc3)[n-]2)cc1 (optimized conformer: 70.31086553262506 kcal/mol)

>  <smiles>  (21) 
Oc1ccc(N=c2[nH]c(-c3ccc(O)cc3)cs2)cc1

>  <score_type>  (21) 
oracle

>  <origin>  (21) 
adgpu

>  <m_score__min__energy>  (21) 
-10.539999999999999

>  <m_primary>  (21) 
energy

$$$$
21:0
     RDKit          3D

 47 49  0  0  0  0  0  0  0  0999 V2000
   -3.8310   22.3790  -32.0750 C   0  0  0  0  0  0  0  0  0  0  0  0
   -5.2780   22.3310  -31.6620 C   0  0  0  0  0  0  0  0  0  0  0  0
   -6.1370   21.4230  -32.3090 C   0  0  0  0  0  0  0  0  0  0  0  0
   -7.4780   21.3200  -31.9360 C   0  0  0  0  0  0  0  0  0  0  0  0
   -8.5520   20.1330  -32.7450 S   0  0  0  0  0  0  0  0  0  0  0  0
   -7.2830   18.8660  -32.7640 C   0  0  0  0  0  0  0  0  0  0  0  0
   -7.0960   18.0440  -31.6460 C   0  0  0  0  0  0  0  0  0  0  0  0
   -6.1140   17.0490  -31.6630 C   0  0  0  0  0  0  0  0  0  0  0  0
   -5.3110   16.8760  -32.7980 C   0  0  0  0  0  0  0  0  0  0  0  0
   -4.0810   15.6240  -32.8210 Cl  0  0  0  0  0  0  0  0  0  0  0  0
   -5.4950   17.6980  -33.9150 C   0  0  0  0  0  0  0  0  0  0  0  0
   -6.4780   18.6930  -33.8990 C   0  0  0  0  0  0  0  0  0  0  0  0
   -7.9830   22.1410  -30.9270 C   0  0  0  0  0  0  0  0  0  0  0  0
   -7.1520   23.0640  -30.2910 C   0  0  0  0  0  0  0  0  0  0  0  0
   -5.8010   23.1840  -30.6570 C   0  0  0  0  0  0  0  0  0  0  0  0
   -4.7920   24.3600  -29.7980 S   0  0  0  0  0  0  0  0  0  0  0  0
   -4.0160   25.1460  -30.8180 O   0  0  0  0  0  0  0  0  0  0  0  0
   -5.6360   25.2930  -28.9750 O   0  0  0  0  0  0  0  0  0  0  0  0
   -3.7020   23.5340  -28.7290 N   0  0  0  0  0  0  0  0  0  0  0  0
   -2.3680   23.9950  -28.4850 C   0  0  0  0  0  0  0  0  0  0  0  0
   -1.2340   23.6180  -29.1760 C   0  0  0  0  0  0  0  0  0  0  0  0
   -1.1780   22.7310  -30.3770 C   0  0  0  0  0  0  0  0  0  0  0  0
   -0.1580   24.2310  -28.6400 N   0  0  0  0  0  0  0  0  0  0  0  0
   -0.5820   24.9640  -27.6190 N   0  0  0  0  0  0  0  0  0  0  0  0
    0.3120   25.7370  -26.7640 C   0  0  0  0  0  0  0  0  0  0  0  0
   -1.9200   24.8280  -27.4750 C   0  0  0  0  0  0  0  0  0  0  0  0
   -2.7340   25.4550  -26.3830 C   0  0  0  0  0  0  0  0  0  0  0  0
   -3.1943   22.4001  -31.1783 H   0  0  0  0  0  0  0  0  0  0  0  0
   -3.5910   21.4883  -32.6742 H   0  0  0  0  0  0  0  0  0  0  0  0
   -3.6505   23.2836  -32.6742 H   0  0  0  0  0  0  0  0  0  0  0  0
   -5.7471   20.7874  -33.1177 H   0  0  0  0  0  0  0  0  0  0  0  0
   -7.7229   18.1814  -30.7526 H   0  0  0  0  0  0  0  0  0  0  0  0
   -5.9718   16.4018  -30.7850 H   0  0  0  0  0  0  0  0  0  0  0  0
   -4.8659   17.5617  -34.8070 H   0  0  0  0  0  0  0  0  0  0  0  0
   -6.6196   19.3401  -34.7772 H   0  0  0  0  0  0  0  0  0  0  0  0
   -9.0396   22.0603  -30.6320 H   0  0  0  0  0  0  0  0  0  0  0  0
   -7.5590   23.7044  -29.4946 H   0  0  0  0  0  0  0  0  0  0  0  0
   -3.9530   22.5610  -28.4440 H   0  0  0  0  0  0  0  0  0  0  0  0
   -1.1117   21.6813  -30.0548 H   0  0  0  0  0  0  0  0  0  0  0  0
   -2.0869   22.8727  -30.9802 H   0  0  0  0  0  0  0  0  0  0  0  0
   -0.2942   22.9859  -30.9802 H   0  0  0  0  0  0  0  0  0  0  0  0
    0.0769   25.5337  -25.7088 H   0  0  0  0  0  0  0  0  0  0  0  0
    1.3541   25.4507  -26.9692 H   0  0  0  0  0  0  0  0  0  0  0  0
    0.1792   26.8095  -26.9692 H   0  0  0  0  0  0  0  0  0  0  0  0
   -2.3347   25.1474  -25.4053 H   0  0  0  0  0  0  0  0  0  0  0  0
   -2.6842   26.5503  -26.4713 H   0  0  0  0  0  0  0  0  0  0  0  0
   -3.7803   25.1273  -26.4713 H   0  0  0  0  0  0  0  0  0  0  0  0
  1  2  1  0
  2  3  2  0
  3  4  1  0
  4  5  1  0
  5  6  1  0
  6  7  2  0
  7  8  1  0
  8  9  2  0
  9 10  1  0
  9 11  1  0
 11 12  2  0
  4 13  2  0
 13 14  1  0
 14 15  2  0
 15 16  1  0
 16 17  2  0
 16 18  2  0
 16 19  1  0
 19 20  1  0
 20 21  1  0
 21 22  1  0
 21 23  2  0
 23 24  1  0
 24 25  1  0
 24 26  1  0
 26 27  1  0
 15  2  1  0
 26 20  2  0
 12  6  1  0
  1 28  1  0
  1 29  1  0
  1 30  1  0
  3 31  1  0
  7 32  1  0
  8 33  1  0
 11 34  1  0
 12 35  1  0
 13 36  1  0
 14 37  1  0
 19 38  1  0
 22 39  1  0
 22 40  1  0
 22 41  1  0
 25 42  1  0
 25 43  1  0
 25 44  1  0
 27 45  1  0
 27 46  1  0
 27 47  1  0
M  END
>  <UniqueID>  (22) 
21

>  <SMILES>  (22) 
Cc1cc(Sc2ccc(Cl)cc2)ccc1S(=O)(=O)Nc1c(C)nn(C)c1C

>  <Energy>  (22) 
80.37549012368032

>  <Genealogy>  (22) 
Cc1cc(Sc2ccc(Cl)cc2)ccc1S(=O)(=O)Nc1c(C)nn(C)c1C (3D coordinates assigned)
Cc1cc(Sc2ccc(Cl)cc2)ccc1S(=O)(=O)Nc1c(C)nn(C)c1C (optimized conformer: 80.37549012368032 kcal/mol)

>  <smiles>  (22) 
Cc1cc(Sc2ccc(Cl)cc2)ccc1S(=O)(=O)Nc1c(C)nn(C)c1C

>  <score_type>  (22) 
oracle

>  <origin>  (22) 
adgpu

>  <m_score__min__energy>  (22) 
-10.51

>  <m_primary>  (22) 
energy

$$$$
22:0
     RDKit          3D

 40 42  0  0  0  0  0  0  0  0999 V2000
   -4.0550   25.2870  -30.5380 N   0  0  0  0  0  0  0  0  0  0  0  0
   -3.9260   23.8590  -30.2690 C   0  0  0  0  0  0  0  0  0  0  0  0
   -3.8590   23.0460  -31.5720 C   0  0  0  0  0  0  0  0  0  0  0  0
   -4.1150   21.5410  -31.3690 C   0  0  0  0  0  0  0  0  0  0  0  0
   -4.4620   20.8170  -32.6780 C   0  0  0  0  0  0  0  0  0  0  0  0
   -5.9110   20.4110  -32.6970 C   0  0  0  0  0  0  0  0  0  0  0  0
   -6.4690   19.1980  -33.1270 C   0  0  0  0  0  0  0  0  0  0  0  0
   -5.7420   18.0210  -33.6510 C   0  0  0  0  0  0  0  0  0  0  0  0
   -4.7170   18.1620  -34.6020 C   0  0  0  0  0  0  0  0  0  0  0  0
   -4.0390   17.0380  -35.0830 C   0  0  0  0  0  0  0  0  0  0  0  0
   -4.3680   15.7660  -34.6090 C   0  0  0  0  0  0  0  0  0  0  0  0
   -5.3710   15.6170  -33.6490 C   0  0  0  0  0  0  0  0  0  0  0  0
   -6.0530   16.7390  -33.1670 C   0  0  0  0  0  0  0  0  0  0  0  0
   -7.8220   19.2510  -33.0550 N   0  0  0  0  0  0  0  0  0  0  0  0
   -8.1240   20.4690  -32.5750 C   0  0  0  0  0  0  0  0  0  0  0  0
   -9.3950   20.9890  -32.3350 C   0  0  0  0  0  0  0  0  0  0  0  0
   -9.4870   22.3050  -31.8490 C   0  0  0  0  0  0  0  0  0  0  0  0
   -8.3200   23.0660  -31.6210 C   0  0  0  0  0  0  0  0  0  0  0  0
   -7.0500   22.5170  -31.8750 C   0  0  0  0  0  0  0  0  0  0  0  0
   -6.9890   21.2050  -32.3470 C   0  0  0  0  0  0  0  0  0  0  0  0
   -4.3880   25.7560  -29.6650 H   0  0  0  0  0  0  0  0  0  0  0  0
   -3.1010   25.6630  -30.7360 H   0  0  0  0  0  0  0  0  0  0  0  0
   -3.0062   23.6854  -29.6913 H   0  0  0  0  0  0  0  0  0  0  0  0
   -4.8106   23.5324  -29.7025 H   0  0  0  0  0  0  0  0  0  0  0  0
   -4.6167   23.4378  -32.2666 H   0  0  0  0  0  0  0  0  0  0  0  0
   -2.8379   23.1508  -31.9674 H   0  0  0  0  0  0  0  0  0  0  0  0
   -3.2092   21.0842  -30.9436 H   0  0  0  0  0  0  0  0  0  0  0  0
   -4.9776   21.4388  -30.6941 H   0  0  0  0  0  0  0  0  0  0  0  0
   -4.2651   21.4901  -33.5254 H   0  0  0  0  0  0  0  0  0  0  0  0
   -3.8415   19.9120  -32.7552 H   0  0  0  0  0  0  0  0  0  0  0  0
   -4.4466   19.1627  -34.9701 H   0  0  0  0  0  0  0  0  0  0  0  0
   -3.2455   17.1555  -35.8357 H   0  0  0  0  0  0  0  0  0  0  0  0
   -3.8371   14.8819  -34.9918 H   0  0  0  0  0  0  0  0  0  0  0  0
   -5.6252   14.6157  -33.2712 H   0  0  0  0  0  0  0  0  0  0  0  0
   -6.8369   16.6172  -32.4050 H   0  0  0  0  0  0  0  0  0  0  0  0
   -8.4970   18.4990  -33.3150 H   0  0  0  0  0  0  0  0  0  0  0  0
  -10.2978   20.3884  -32.5201 H   0  0  0  0  0  0  0  0  0  0  0  0
  -10.4746   22.7445  -31.6451 H   0  0  0  0  0  0  0  0  0  0  0  0
   -8.4044   24.0953  -31.2422 H   0  0  0  0  0  0  0  0  0  0  0  0
   -6.1343   23.1030  -31.7070 H   0  0  0  0  0  0  0  0  0  0  0  0
  1  2  1  0
  2  3  1  0
  3  4  1  0
  4  5  1  0
  5  6  1  0
  6  7  2  0
  7  8  1  0
  8  9  2  0
  9 10  1  0
 10 11  2  0
 11 12  1  0
 12 13  2  0
  7 14  1  0
 14 15  1  0
 15 16  2  0
 16 17  1  0
 17 18  2  0
 18 19  1  0
 19 20  2  0
 20  6  1  0
 13  8  1  0
 20 15  1  0
  1 21  1  0
  1 22  1  0
  2 23  1  0
  2 24  1  0
  3 25  1  0
  3 26  1  0
  4 27  1  0
  4 28  1  0
  5 29  1  0
  5 30  1  0
  9 31  1  0
 10 32  1  0
 11 33  1  0
 12 34  1  0
 13 35  1  0
 14 36  1  0
 16 37  1  0
 17 38  1  0
 18 39  1  0
 19 40  1  0
M  END
>  <UniqueID>  (23) 
22

>  <SMILES>  (23) 
NCCCCc1c(-c2ccccc2)[nH]c2ccccc12

>  <Energy>  (23) 
72.90540103000355

>  <Genealogy>  (23) 
NCCCCc1c(-c2ccccc2)[nH]c2ccccc12 (3D coordinates assigned)
NCCCCc1c(-c2ccccc2)[nH]c2ccccc12 (optimized conformer: 72.90540103000355 kcal/mol)

>  <smiles>  (23) 
NCCCCc1c(-c2ccccc2)[nH]c2ccccc12

>  <score_type>  (23) 
oracle

>  <origin>  (23) 
adgpu

>  <m_score__min__energy>  (23) 
-8.6899999999999995

>  <m_primary>  (23) 
energy

$$$$
23:0
     RDKit          3D

 44 47  0  0  0  0  0  0  0  0999 V2000
   -4.6220   22.3722  -27.0791 H   0  0  0  0  0  0  0  0  0  0  0  0
   -3.9030   22.7670  -27.8120 C   0  0  0  0  0  0  0  0  0  0  0  0
   -4.2940   23.7150  -28.7060 N   0  0  0  0  0  0  0  0  0  0  0  0
   -3.4340   24.2300  -29.6310 C   0  0  0  0  0  0  0  0  0  0  0  0
   -3.8280   25.1350  -30.4770 N   0  0  0  0  0  0  0  0  0  0  0  0
   -5.1840   25.6740  -30.5250 C   0  0  0  0  0  0  0  0  0  0  0  0
   -5.1969   26.5777  -31.1520 H   0  0  0  0  0  0  0  0  0  0  0  0
   -5.5126   25.9282  -29.5065 H   0  0  0  0  0  0  0  0  0  0  0  0
   -6.1310   24.6280  -31.1190 C   0  0  0  0  0  0  0  0  0  0  0  0
   -6.6867   25.0797  -31.9539 H   0  0  0  0  0  0  0  0  0  0  0  0
   -6.8212   24.2942  -30.3302 H   0  0  0  0  0  0  0  0  0  0  0  0
   -5.3930   23.4680  -31.6100 N   0  0  0  0  0  0  0  0  0  0  0  0
   -5.6960   22.2600  -32.0270 C   0  0  0  0  0  0  0  0  0  0  0  0
   -7.0220   21.6880  -32.0730 C   0  0  0  0  0  0  0  0  0  0  0  0
   -8.2010   22.3010  -31.5730 C   0  0  0  0  0  0  0  0  0  0  0  0
   -8.1318   23.2874  -31.0910 H   0  0  0  0  0  0  0  0  0  0  0  0
   -9.4480   21.6780  -31.6800 C   0  0  0  0  0  0  0  0  0  0  0  0
  -10.3452   22.1845  -31.2948 H   0  0  0  0  0  0  0  0  0  0  0  0
   -9.5640   20.4260  -32.2680 C   0  0  0  0  0  0  0  0  0  0  0  0
  -10.5502   19.9472  -32.3585 H   0  0  0  0  0  0  0  0  0  0  0  0
   -8.4280   19.7800  -32.7420 C   0  0  0  0  0  0  0  0  0  0  0  0
   -8.5171   18.7833  -33.1989 H   0  0  0  0  0  0  0  0  0  0  0  0
   -7.1710   20.3890  -32.6420 C   0  0  0  0  0  0  0  0  0  0  0  0
   -6.0970   19.7000  -33.0910 N   0  0  0  0  0  0  0  0  0  0  0  0
   -4.8410   20.1890  -33.0270 C   0  0  0  0  0  0  0  0  0  0  0  0
   -3.7830   19.4090  -33.5010 C   0  0  0  0  0  0  0  0  0  0  0  0
   -3.9833   18.4102  -33.9161 H   0  0  0  0  0  0  0  0  0  0  0  0
   -2.4750   19.8890  -33.4510 C   0  0  0  0  0  0  0  0  0  0  0  0
   -1.6496   19.2661  -33.8261 H   0  0  0  0  0  0  0  0  0  0  0  0
   -2.2060   21.1550  -32.9280 C   0  0  0  0  0  0  0  0  0  0  0  0
   -0.8710   21.5890  -32.9010 O   0  0  0  0  0  0  0  0  0  0  0  0
    0.2140   20.8330  -32.3720 C   0  0  0  0  0  0  0  0  0  0  0  0
    0.1773   20.8586  -31.2729 H   0  0  0  0  0  0  0  0  0  0  0  0
    0.1379   19.7914  -32.7173 H   0  0  0  0  0  0  0  0  0  0  0  0
    1.1648   21.2652  -32.7173 H   0  0  0  0  0  0  0  0  0  0  0  0
   -3.2690   21.9460  -32.4500 C   0  0  0  0  0  0  0  0  0  0  0  0
   -3.0601   22.9446  -32.0387 H   0  0  0  0  0  0  0  0  0  0  0  0
   -4.6050   21.4720  -32.4920 C   0  0  0  0  0  0  0  0  0  0  0  0
   -2.1080   23.7780  -29.6710 C   0  0  0  0  0  0  0  0  0  0  0  0
   -1.4048   24.1852  -30.4124 H   0  0  0  0  0  0  0  0  0  0  0  0
   -1.6880   22.8060  -28.7610 C   0  0  0  0  0  0  0  0  0  0  0  0
   -0.6496   22.4437  -28.7818 H   0  0  0  0  0  0  0  0  0  0  0  0
   -2.5880   22.2950  -27.8250 C   0  0  0  0  0  0  0  0  0  0  0  0
   -2.2655   21.5286  -27.1049 H   0  0  0  0  0  0  0  0  0  0  0  0
  1  2  1  0
  2  3  1  0
  3  4  1  0
  4  5  2  0
  5  6  1  0
  6  7  1  0
  6  8  1  0
  6  9  1  0
  9 10  1  0
  9 11  1  0
  9 12  1  0
 12 13  2  0
 13 14  1  0
 14 15  2  0
 15 16  1  0
 15 17  1  0
 17 18  1  0
 17 19  2  0
 19 20  1  0
 19 21  1  0
 21 22  1  0
 21 23  2  0
 23 24  1  0
 24 25  1  0
 25 26  2  0
 26 27  1  0
 26 28  1  0
 28 29  1  0
 28 30  2  0
 30 31  1  0
 31 32  1  0
 32 33  1  0
 32 34  1  0
 32 35  1  0
 30 36  1  0
 36 37  1  0
 36 38  2  0
  4 39  1  0
 39 40  1  0
 39 41  2  0
 41 42  1  0
 41 43  1  0
 43 44  1  0
 43  2  2  0
 38 13  1  0
 23 14  1  0
 38 25  1  0
M  CHG  2   3  -1  24  -1
M  END
>  <UniqueID>  (24) 
23

>  <SMILES>  (24) 
COc1ccc2[n-]c3ccccc3/c(=N\CC/N=c3/cccc[n-]3)c2c1

>  <Energy>  (24) 
72.68190216950072

>  <Genealogy>  (24) 
COc1ccc2[n-]c3ccccc3c(=NCCN=c3cccc[n-]3)c2c1 (protonated)
COc1ccc2[n-]c3ccccc3/c(=N\CC/N=c3/cccc[n-]3)c2c1 (cis-trans isomerization)
COc1ccc2[n-]c3ccccc3/c(=N\CC/N=c3/cccc[n-]3)c2c1 (3D coordinates assigned)
COc1ccc2[n-]c3ccccc3/c(=N\CC/N=c3/cccc[n-]3)c2c1 (optimized conformer: 72.68190216950072 kcal/mol)

>  <smiles>  (24) 
COc1ccc2[nH]c3ccccc3c(=NCCN=c3cccc[nH]3)c2c1

>  <score_type>  (24) 
oracle

>  <origin>  (24) 
adgpu

>  <m_score__min__energy>  (24) 
-10.109999999999999

>  <m_primary>  (24) 
energy

$$$$
24:0
     RDKit          3D

 56 59  0  0  0  0  0  0  0  0999 V2000
   -8.3345   24.1441  -31.3642 H   0  0  0  0  0  0  0  0  0  0  0  0
   -7.2910   23.8080  -31.4540 C   0  0  0  0  0  0  0  0  0  0  0  0
   -6.2720   24.5230  -30.8230 C   0  0  0  0  0  0  0  0  0  0  0  0
   -6.5188   25.4153  -30.2289 H   0  0  0  0  0  0  0  0  0  0  0  0
   -4.9390   24.1140  -30.9400 C   0  0  0  0  0  0  0  0  0  0  0  0
   -3.9300   24.8700  -30.2450 N   0  0  0  0  0  0  0  0  0  0  0  0
   -2.9260   24.4090  -29.5590 C   0  0  0  0  0  0  0  0  0  0  0  0
   -2.6710   23.0760  -29.4860 N   0  0  0  0  0  0  0  0  0  0  0  0
   -1.6000   22.6130  -28.7900 C   0  0  0  0  0  0  0  0  0  0  0  0
   -1.3530   21.1960  -28.7020 N   0  0  0  0  0  0  0  0  0  0  0  0
   -1.9880   20.3720  -27.6670 C   0  0  0  0  0  0  0  0  0  0  0  0
   -2.3614   21.0230  -26.8628 H   0  0  0  0  0  0  0  0  0  0  0  0
   -2.8221   19.8126  -28.1157 H   0  0  0  0  0  0  0  0  0  0  0  0
   -0.9720   19.3750  -27.0830 C   0  0  0  0  0  0  0  0  0  0  0  0
   -0.3239   19.9168  -26.3784 H   0  0  0  0  0  0  0  0  0  0  0  0
   -1.5558   18.5771  -26.6008 H   0  0  0  0  0  0  0  0  0  0  0  0
   -0.1030   18.7120  -28.1030 N   0  0  0  0  0  0  0  0  0  0  0  0
   -0.2180   17.6750  -27.9920 H   0  0  0  0  0  0  0  0  0  0  0  0
    1.3240   18.9950  -27.8510 C   0  0  0  0  0  0  0  0  0  0  0  0
    1.5048   19.0308  -26.7665 H   0  0  0  0  0  0  0  0  0  0  0  0
    1.9399   18.2015  -28.2994 H   0  0  0  0  0  0  0  0  0  0  0  0
    1.5905   19.9635  -28.2994 H   0  0  0  0  0  0  0  0  0  0  0  0
   -0.4680   19.0240  -29.5040 C   0  0  0  0  0  0  0  0  0  0  0  0
    0.2996   18.6058  -30.1718 H   0  0  0  0  0  0  0  0  0  0  0  0
   -1.4551   18.5813  -29.7029 H   0  0  0  0  0  0  0  0  0  0  0  0
   -0.5700   20.5370  -29.7530 C   0  0  0  0  0  0  0  0  0  0  0  0
    0.4423   20.9670  -29.7692 H   0  0  0  0  0  0  0  0  0  0  0  0
   -1.0753   20.6981  -30.7167 H   0  0  0  0  0  0  0  0  0  0  0  0
   -0.7740   23.4990  -28.1760 N   0  0  0  0  0  0  0  0  0  0  0  0
   -1.0070   24.8360  -28.2510 C   0  0  0  0  0  0  0  0  0  0  0  0
   -0.1140   25.7710  -27.6060 N   0  0  0  0  0  0  0  0  0  0  0  0
    1.3040   25.4250  -27.4210 C   0  0  0  0  0  0  0  0  0  0  0  0
    1.3971   24.3366  -27.2919 H   0  0  0  0  0  0  0  0  0  0  0  0
    1.8683   25.7515  -28.3070 H   0  0  0  0  0  0  0  0  0  0  0  0
    1.8710   26.1290  -26.1860 C   0  0  0  0  0  0  0  0  0  0  0  0
    1.4019   25.7110  -25.2831 H   0  0  0  0  0  0  0  0  0  0  0  0
    2.9592   25.9718  -26.1537 H   0  0  0  0  0  0  0  0  0  0  0  0
    1.6000   27.5680  -26.2490 N   0  0  0  0  0  0  0  0  0  0  0  0
    1.9990   28.0040  -25.3850 H   0  0  0  0  0  0  0  0  0  0  0  0
    0.1530   27.8090  -26.2400 C   0  0  0  0  0  0  0  0  0  0  0  0
   -0.2836   27.3611  -25.3351 H   0  0  0  0  0  0  0  0  0  0  0  0
   -0.0284   28.8939  -26.2496 H   0  0  0  0  0  0  0  0  0  0  0  0
   -0.4990   27.1850  -27.4770 C   0  0  0  0  0  0  0  0  0  0  0  0
   -1.5928   27.2550  -27.3836 H   0  0  0  0  0  0  0  0  0  0  0  0
   -0.1584   27.7288  -28.3705 H   0  0  0  0  0  0  0  0  0  0  0  0
   -2.0870   25.2810  -28.9480 N   0  0  0  0  0  0  0  0  0  0  0  0
   -4.6390   22.9430  -31.6650 C   0  0  0  0  0  0  0  0  0  0  0  0
   -3.5991   22.5901  -31.7294 H   0  0  0  0  0  0  0  0  0  0  0  0
   -5.6660   22.2220  -32.3080 C   0  0  0  0  0  0  0  0  0  0  0  0
   -5.4190   21.0610  -33.0580 O   0  0  0  0  0  0  0  0  0  0  0  0
   -4.1990   20.3270  -33.0290 C   0  0  0  0  0  0  0  0  0  0  0  0
   -3.9030   20.1489  -31.9847 H   0  0  0  0  0  0  0  0  0  0  0  0
   -4.3388   19.3630  -33.5400 H   0  0  0  0  0  0  0  0  0  0  0  0
   -3.4128   20.9022  -33.5400 H   0  0  0  0  0  0  0  0  0  0  0  0
   -6.9880   22.6670  -32.1990 C   0  0  0  0  0  0  0  0  0  0  0  0
   -7.7940   22.1141  -32.7037 H   0  0  0  0  0  0  0  0  0  0  0  0
  1  2  1  0
  2  3  2  0
  3  4  1  0
  3  5  1  0
  5  6  1  0
  6  7  2  0
  7  8  1  0
  8  9  2  0
  9 10  1  0
 10 11  1  0
 11 12  1  0
 11 13  1  0
 11 14  1  0
 14 15  1  0
 14 16  1  0
 14 17  1  0
 17 18  1  0
 17 19  1  0
 19 20  1  0
 19 21  1  0
 19 22  1  0
 17 23  1  0
 23 24  1  0
 23 25  1  0
 23 26  1  0
 26 27  1  0
 26 28  1  0
  9 29  1  0
 29 30  2  0
 30 31  1  0
 31 32  1  0
 32 33  1  0
 32 34  1  0
 32 35  1  0
 35 36  1  0
 35 37  1  0
 35 38  1  0
 38 39  1  0
 38 40  1  0
 40 41  1  0
 40 42  1  0
 40 43  1  0
 43 44  1  0
 43 45  1  0
 30 46  1  0
  5 47  2  0
 47 48  1  0
 47 49  1  0
 49 50  1  0
 50 51  1  0
 51 52  1  0
 51 53  1  0
 51 54  1  0
 49 55  2  0
 55 56  1  0
 55  2  1  0
 46  7  1  0
 26 10  1  0
 43 31  1  0
M  CHG  2  17   1  46  -1
M  END
>  <UniqueID>  (25) 
24

>  <SMILES>  (25) 
COc1cccc(/N=c2\nc(N3CC[NH+](C)CC3)nc(N3CCNCC3)[n-]2)c1

>  <Energy>  (25) 
69.22945142701741

>  <Genealogy>  (25) 
COc1cccc(N=c2nc(N3CC[NH+](C)CC3)nc(N3CCNCC3)[n-]2)c1 (protonated)
COc1cccc(/N=c2\nc(N3CC[NH+](C)CC3)nc(N3CCNCC3)[n-]2)c1 (cis-trans isomerization)
COc1cccc(/N=c2\nc(N3CC[NH+](C)CC3)nc(N3CCNCC3)[n-]2)c1 (3D coordinates assigned)
COc1cccc(/N=c2\nc(N3CC[NH+](C)CC3)nc(N3CCNCC3)[n-]2)c1 (nonaromatic ring conformer: 69.22945142701741 kcal/mol)

>  <smiles>  (25) 
COc1cccc(N=c2nc(N3CCN(C)CC3)nc(N3CCNCC3)[nH]2)c1

>  <score_type>  (25) 
oracle

>  <origin>  (25) 
adgpu

>  <m_score__min__energy>  (25) 
-7.2599999999999998

>  <m_primary>  (25) 
energy

$$$$
25:0
     RDKit          3D

 45 47  0  0  0  0  0  0  0  0999 V2000
   -9.0430   19.1730  -33.5990 H   0  0  0  0  0  0  0  0  0  0  0  0
   -8.6220   19.9490  -33.0390 N   0  0  0  0  0  0  0  0  0  0  0  0
   -7.3410   20.1080  -32.9720 C   0  0  0  0  0  0  0  0  0  0  0  0
   -6.2140   19.1280  -33.7380 S   0  0  0  0  0  0  0  0  0  0  0  0
   -4.9000   20.0040  -33.1380 C   0  0  0  0  0  0  0  0  0  0  0  0
   -3.4920   19.7200  -33.4870 C   0  0  0  0  0  0  0  0  0  0  0  0
   -3.0200   18.3980  -33.4800 C   0  0  0  0  0  0  0  0  0  0  0  0
   -3.7042   17.5748  -33.2266 H   0  0  0  0  0  0  0  0  0  0  0  0
   -1.6860   18.1210  -33.7930 C   0  0  0  0  0  0  0  0  0  0  0  0
   -1.3217   17.0834  -33.7687 H   0  0  0  0  0  0  0  0  0  0  0  0
   -0.8100   19.1610  -34.1380 C   0  0  0  0  0  0  0  0  0  0  0  0
    0.6340   18.8690  -34.4260 C   0  0  0  0  0  0  0  0  0  0  0  0
    1.1817   18.7582  -33.4785 H   0  0  0  0  0  0  0  0  0  0  0  0
    0.7112   17.9371  -35.0053 H   0  0  0  0  0  0  0  0  0  0  0  0
    1.0672   19.6977  -35.0053 H   0  0  0  0  0  0  0  0  0  0  0  0
   -1.2790   20.4820  -34.1490 C   0  0  0  0  0  0  0  0  0  0  0  0
   -0.5935   21.3043  -34.4019 H   0  0  0  0  0  0  0  0  0  0  0  0
   -2.6140   20.7590  -33.8400 C   0  0  0  0  0  0  0  0  0  0  0  0
   -2.9793   21.7961  -33.8734 H   0  0  0  0  0  0  0  0  0  0  0  0
   -5.3950   21.0450  -32.3300 C   0  0  0  0  0  0  0  0  0  0  0  0
   -4.5520   21.9860  -31.5550 C   0  0  0  0  0  0  0  0  0  0  0  0
   -3.3910   21.5410  -30.9120 C   0  0  0  0  0  0  0  0  0  0  0  0
   -3.1160   20.4774  -30.9675 H   0  0  0  0  0  0  0  0  0  0  0  0
   -2.5700   22.4310  -30.1960 C   0  0  0  0  0  0  0  0  0  0  0  0
   -1.3840   21.9850  -29.5900 O   0  0  0  0  0  0  0  0  0  0  0  0
   -0.5250   20.9790  -30.1190 C   0  0  0  0  0  0  0  0  0  0  0  0
   -0.0539   20.4272  -29.2922 H   0  0  0  0  0  0  0  0  0  0  0  0
   -1.1120   20.2833  -30.7366 H   0  0  0  0  0  0  0  0  0  0  0  0
    0.2541   21.4497  -30.7366 H   0  0  0  0  0  0  0  0  0  0  0  0
   -2.9520   23.7940  -30.0930 C   0  0  0  0  0  0  0  0  0  0  0  0
   -2.2080   24.7630  -29.3930 O   0  0  0  0  0  0  0  0  0  0  0  0
   -1.8030   24.7020  -28.0310 C   0  0  0  0  0  0  0  0  0  0  0  0
   -2.6807   24.8342  -27.3812 H   0  0  0  0  0  0  0  0  0  0  0  0
   -1.3413   23.7242  -27.8292 H   0  0  0  0  0  0  0  0  0  0  0  0
   -1.0738   25.5004  -27.8292 H   0  0  0  0  0  0  0  0  0  0  0  0
   -4.1330   24.2340  -30.7150 C   0  0  0  0  0  0  0  0  0  0  0  0
   -4.4820   25.5890  -30.5900 O   0  0  0  0  0  0  0  0  0  0  0  0
   -5.7370   26.0600  -30.1090 C   0  0  0  0  0  0  0  0  0  0  0  0
   -5.7322   26.0582  -29.0090 H   0  0  0  0  0  0  0  0  0  0  0  0
   -5.9085   27.0837  -30.4732 H   0  0  0  0  0  0  0  0  0  0  0  0
   -6.5397   25.4019  -30.4732 H   0  0  0  0  0  0  0  0  0  0  0  0
   -4.9250   23.3280  -31.4410 C   0  0  0  0  0  0  0  0  0  0  0  0
   -5.8485   23.6790  -31.9247 H   0  0  0  0  0  0  0  0  0  0  0  0
   -6.7560   21.0930  -32.2600 N   0  0  0  0  0  0  0  0  0  0  0  0
   -7.2890   21.7890  -31.6920 H   0  0  0  0  0  0  0  0  0  0  0  0
  1  2  1  0
  2  3  2  0
  3  4  1  0
  4  5  1  0
  5  6  1  0
  6  7  2  0
  7  8  1  0
  7  9  1  0
  9 10  1  0
  9 11  2  0
 11 12  1  0
 12 13  1  0
 12 14  1  0
 12 15  1  0
 11 16  1  0
 16 17  1  0
 16 18  2  0
 18 19  1  0
  5 20  2  0
 20 21  1  0
 21 22  2  0
 22 23  1  0
 22 24  1  0
 24 25  1  0
 25 26  1  0
 26 27  1  0
 26 28  1  0
 26 29  1  0
 24 30  2  0
 30 31  1  0
 31 32  1  0
 32 33  1  0
 32 34  1  0
 32 35  1  0
 30 36  1  0
 36 37  1  0
 37 38  1  0
 38 39  1  0
 38 40  1  0
 38 41  1  0
 36 42  2  0
 42 43  1  0
 20 44  1  0
 44 45  1  0
 44  3  1  0
 18  6  1  0
 42 21  1  0
M  END
>  <UniqueID>  (26) 
25

>  <SMILES>  (26) 
[H]/N=c1/[nH]c(-c2cc(OC)c(OC)c(OC)c2)c(-c2ccc(C)cc2)s1

>  <Energy>  (26) 
85.71014465150608

>  <Genealogy>  (26) 
[H]/N=c1/[nH]c(-c2cc(OC)c(OC)c(OC)c2)c(-c2ccc(C)cc2)s1 (cis-trans isomerization)
[H]/N=c1/[nH]c(-c2cc(OC)c(OC)c(OC)c2)c(-c2ccc(C)cc2)s1 (3D coordinates assigned)
[H]/N=c1/[nH]c(-c2cc(OC)c(OC)c(OC)c2)c(-c2ccc(C)cc2)s1 (optimized conformer: 85.71014465150608 kcal/mol)

>  <smiles>  (26) 
COc1cc(-c2[nH]c(=N)sc2-c2ccc(C)cc2)cc(OC)c1OC

>  <score_type>  (26) 
oracle

>  <origin>  (26) 
adgpu

>  <m_score__min__energy>  (26) 
-7.7800000000000002

>  <m_primary>  (26) 
energy

$$$$
26:0
     RDKit          3D

 52 55  0  0  0  0  0  0  0  0999 V2000
   -4.3540   24.5610  -29.4350 C   0  0  0  0  0  0  0  0  0  0  0  0
   -3.0870   23.8140  -29.7500 C   0  0  0  0  0  0  0  0  0  0  0  0
   -3.0430   22.9480  -30.8560 C   0  0  0  0  0  0  0  0  0  0  0  0
   -1.8740   22.2310  -31.1660 C   0  0  0  0  0  0  0  0  0  0  0  0
   -1.8530   21.3290  -32.3460 C   0  0  0  0  0  0  0  0  0  0  0  0
   -0.7910   21.3380  -33.2650 C   0  0  0  0  0  0  0  0  0  0  0  0
   -0.8070   20.4630  -34.3630 C   0  0  0  0  0  0  0  0  0  0  0  0
    0.3150   20.4530  -35.3360 C   0  0  0  0  0  0  0  0  0  0  0  0
    0.5720   19.3090  -36.1150 C   0  0  0  0  0  0  0  0  0  0  0  0
    1.6280   19.2990  -37.0320 C   0  0  0  0  0  0  0  0  0  0  0  0
    2.4380   20.4280  -37.1810 C   0  0  0  0  0  0  0  0  0  0  0  0
    3.4870   20.4160  -38.0930 O   0  0  0  0  0  0  0  0  0  0  0  0
    2.1920   21.5690  -36.4120 C   0  0  0  0  0  0  0  0  0  0  0  0
    1.1380   21.5840  -35.4950 C   0  0  0  0  0  0  0  0  0  0  0  0
   -1.8930   19.5880  -34.5190 C   0  0  0  0  0  0  0  0  0  0  0  0
   -2.9430   19.5980  -33.5860 C   0  0  0  0  0  0  0  0  0  0  0  0
   -4.1030   18.6800  -33.7040 C   0  0  0  0  0  0  0  0  0  0  0  0
   -3.9160   17.3760  -34.2020 C   0  0  0  0  0  0  0  0  0  0  0  0
   -4.9960   16.4960  -34.3130 C   0  0  0  0  0  0  0  0  0  0  0  0
   -6.2730   16.9010  -33.9220 C   0  0  0  0  0  0  0  0  0  0  0  0
   -6.4750   18.1890  -33.4110 C   0  0  0  0  0  0  0  0  0  0  0  0
   -7.7440   18.6000  -33.0070 O   0  0  0  0  0  0  0  0  0  0  0  0
   -5.3950   19.0720  -33.3010 C   0  0  0  0  0  0  0  0  0  0  0  0
   -2.8830   20.4580  -32.5320 N   0  0  0  0  0  0  0  0  0  0  0  0
   -0.7370   22.4090  -30.3590 C   0  0  0  0  0  0  0  0  0  0  0  0
   -0.7730   23.2670  -29.2590 C   0  0  0  0  0  0  0  0  0  0  0  0
   -1.9440   23.9760  -28.9410 C   0  0  0  0  0  0  0  0  0  0  0  0
   -2.0060   24.8630  -27.8130 N   0  0  0  0  0  0  0  0  0  0  0  0
   -0.8150   26.0460  -27.3760 S   0  0  0  0  0  0  0  0  0  0  0  0
   -1.0780   26.5930  -25.7020 C   0  0  0  0  0  0  0  0  0  0  0  0
    0.5460   25.4160  -27.4670 O   0  0  0  0  0  0  0  0  0  0  0  0
   -0.8730   27.2100  -28.3240 O   0  0  0  0  0  0  0  0  0  0  0  0
   -4.4758   24.6328  -28.3441 H   0  0  0  0  0  0  0  0  0  0  0  0
   -4.3002   25.5719  -29.8653 H   0  0  0  0  0  0  0  0  0  0  0  0
   -5.2126   24.0246  -29.8653 H   0  0  0  0  0  0  0  0  0  0  0  0
   -3.9356   22.8295  -31.4879 H   0  0  0  0  0  0  0  0  0  0  0  0
    0.0525   22.0299  -33.1247 H   0  0  0  0  0  0  0  0  0  0  0  0
   -0.0618   18.4171  -36.0018 H   0  0  0  0  0  0  0  0  0  0  0  0
    1.8213   18.4009  -37.6370 H   0  0  0  0  0  0  0  0  0  0  0  0
    2.8299   22.4575  -36.5291 H   0  0  0  0  0  0  0  0  0  0  0  0
    0.9500   22.4855  -34.8933 H   0  0  0  0  0  0  0  0  0  0  0  0
   -1.9220   18.8942  -35.3721 H   0  0  0  0  0  0  0  0  0  0  0  0
   -2.9113   17.0473  -34.5062 H   0  0  0  0  0  0  0  0  0  0  0  0
   -4.8392   15.4820  -34.7094 H   0  0  0  0  0  0  0  0  0  0  0  0
   -7.1218   16.2076  -34.0153 H   0  0  0  0  0  0  0  0  0  0  0  0
   -8.3710   19.0830  -33.6400 H   0  0  0  0  0  0  0  0  0  0  0  0
   -5.5562   20.0819  -32.8960 H   0  0  0  0  0  0  0  0  0  0  0  0
    0.1901   21.8668  -30.5968 H   0  0  0  0  0  0  0  0  0  0  0  0
    0.1242   23.3896  -28.6345 H   0  0  0  0  0  0  0  0  0  0  0  0
   -0.7097   25.8269  -25.0038 H   0  0  0  0  0  0  0  0  0  0  0  0
   -0.5340   27.5342  -25.5340 H   0  0  0  0  0  0  0  0  0  0  0  0
   -2.1528   26.7558  -25.5340 H   0  0  0  0  0  0  0  0  0  0  0  0
  1  2  1  0
  2  3  2  0
  3  4  1  0
  4  5  1  0
  5  6  2  0
  6  7  1  0
  7  8  1  0
  8  9  2  0
  9 10  1  0
 10 11  2  0
 11 12  1  0
 11 13  1  0
 13 14  2  0
  7 15  2  0
 15 16  1  0
 16 17  1  0
 17 18  2  0
 18 19  1  0
 19 20  2  0
 20 21  1  0
 21 22  1  0
 21 23  2  0
 16 24  2  0
  4 25  2  0
 25 26  1  0
 26 27  2  0
 27 28  1  0
 28 29  1  0
 29 30  1  0
 29 31  2  0
 29 32  2  0
 27  2  1  0
 24  5  1  0
 14  8  1  0
 23 17  1  0
  1 33  1  0
  1 34  1  0
  1 35  1  0
  3 36  1  0
  6 37  1  0
  9 38  1  0
 10 39  1  0
 13 40  1  0
 14 41  1  0
 15 42  1  0
 18 43  1  0
 19 44  1  0
 20 45  1  0
 22 46  1  0
 23 47  1  0
 25 48  1  0
 26 49  1  0
 30 50  1  0
 30 51  1  0
 30 52  1  0
M  CHG  2  12  -1  28  -1
M  END
>  <UniqueID>  (27) 
26

>  <SMILES>  (27) 
Cc1cc(-c2cc(-c3ccc([O-])cc3)cc(-c3cccc(O)c3)n2)ccc1[N-]S(C)(=O)=O

>  <Energy>  (27) 
68.99018394199156

>  <Genealogy>  (27) 
Cc1cc(-c2cc(-c3ccc([O-])cc3)cc(-c3cccc(O)c3)n2)ccc1[N-]S(C)(=O)=O (protonated)
Cc1cc(-c2cc(-c3ccc([O-])cc3)cc(-c3cccc(O)c3)n2)ccc1[N-]S(C)(=O)=O (3D coordinates assigned)
Cc1cc(-c2cc(-c3ccc([O-])cc3)cc(-c3cccc(O)c3)n2)ccc1[N-]S(C)(=O)=O (optimized conformer: 68.99018394199156 kcal/mol)

>  <smiles>  (27) 
Cc1cc(-c2cc(-c3ccc(O)cc3)cc(-c3cccc(O)c3)n2)ccc1NS(C)(=O)=O

>  <score_type>  (27) 
oracle

>  <origin>  (27) 
adgpu

>  <m_score__min__energy>  (27) 
-10.01

>  <m_primary>  (27) 
energy

$$$$
27:0
     RDKit          3D

 40 42  0  0  0  0  0  0  0  0999 V2000
   -6.8770   17.6040  -33.2320 C   0  0  0  0  0  0  0  0  0  0  0  0
   -5.8860   18.0010  -34.1750 O   0  0  0  0  0  0  0  0  0  0  0  0
   -4.5690   18.3560  -33.8580 C   0  0  0  0  0  0  0  0  0  0  0  0
   -3.5350   17.3950  -33.8590 C   0  0  0  0  0  0  0  0  0  0  0  0
   -2.2160   17.7710  -33.6030 C   0  0  0  0  0  0  0  0  0  0  0  0
   -1.9080   19.1060  -33.3460 C   0  0  0  0  0  0  0  0  0  0  0  0
   -2.9210   20.0640  -33.3250 C   0  0  0  0  0  0  0  0  0  0  0  0
   -4.2550   19.7040  -33.5560 C   0  0  0  0  0  0  0  0  0  0  0  0
   -5.2400   20.7490  -33.4800 N   0  0  0  0  0  0  0  0  0  0  0  0
   -6.4380   20.9840  -32.2470 S   0  0  0  0  0  0  0  0  0  0  0  0
   -6.3120   19.8920  -31.2210 O   0  0  0  0  0  0  0  0  0  0  0  0
   -7.8010   20.9120  -32.8740 O   0  0  0  0  0  0  0  0  0  0  0  0
   -6.2550   22.5690  -31.4990 C   0  0  0  0  0  0  0  0  0  0  0  0
   -7.3820   23.2880  -31.0810 C   0  0  0  0  0  0  0  0  0  0  0  0
   -7.2290   24.5200  -30.4400 C   0  0  0  0  0  0  0  0  0  0  0  0
   -5.9530   25.0460  -30.2270 C   0  0  0  0  0  0  0  0  0  0  0  0
   -4.8210   24.3580  -30.6800 C   0  0  0  0  0  0  0  0  0  0  0  0
   -3.5180   24.8940  -30.3980 N   0  0  0  0  0  0  0  0  0  0  0  0
   -2.7790   24.6750  -29.3470 C   0  0  0  0  0  0  0  0  0  0  0  0
   -3.1180   23.7250  -28.3600 C   0  0  0  0  0  0  0  0  0  0  0  0
   -2.2640   23.5310  -27.2720 C   0  0  0  0  0  0  0  0  0  0  0  0
   -1.0820   24.2650  -27.1740 C   0  0  0  0  0  0  0  0  0  0  0  0
   -0.7670   25.1840  -28.1740 C   0  0  0  0  0  0  0  0  0  0  0  0
   -1.6090   25.3610  -29.2260 N   0  0  0  0  0  0  0  0  0  0  0  0
   -4.9760   23.1040  -31.2930 C   0  0  0  0  0  0  0  0  0  0  0  0
   -6.4948   17.7571  -32.2120 H   0  0  0  0  0  0  0  0  0  0  0  0
   -7.7848   18.2079  -33.3779 H   0  0  0  0  0  0  0  0  0  0  0  0
   -7.1168   16.5404  -33.3779 H   0  0  0  0  0  0  0  0  0  0  0  0
   -3.7713   16.3403  -34.0634 H   0  0  0  0  0  0  0  0  0  0  0  0
   -1.4185   17.0134  -33.6040 H   0  0  0  0  0  0  0  0  0  0  0  0
   -0.8656   19.4038  -33.1597 H   0  0  0  0  0  0  0  0  0  0  0  0
   -2.6694   21.1159  -33.1245 H   0  0  0  0  0  0  0  0  0  0  0  0
   -8.3890   22.8821  -31.2576 H   0  0  0  0  0  0  0  0  0  0  0  0
   -8.1155   25.0768  -30.1024 H   0  0  0  0  0  0  0  0  0  0  0  0
   -5.8368   26.0051  -29.7010 H   0  0  0  0  0  0  0  0  0  0  0  0
   -4.0469   23.1423  -28.4468 H   0  0  0  0  0  0  0  0  0  0  0  0
   -2.5235   22.7995  -26.4925 H   0  0  0  0  0  0  0  0  0  0  0  0
   -0.4065   24.1205  -26.3180 H   0  0  0  0  0  0  0  0  0  0  0  0
    0.1640   25.7664  -28.1114 H   0  0  0  0  0  0  0  0  0  0  0  0
   -4.0886   22.5384  -31.6133 H   0  0  0  0  0  0  0  0  0  0  0  0
  1  2  1  0
  2  3  1  0
  3  4  2  0
  4  5  1  0
  5  6  2  0
  6  7  1  0
  7  8  2  0
  8  9  1  0
  9 10  1  0
 10 11  2  0
 10 12  2  0
 10 13  1  0
 13 14  2  0
 14 15  1  0
 15 16  2  0
 16 17  1  0
 17 18  1  0
 18 19  2  3
 19 20  1  0
 20 21  2  0
 21 22  1  0
 22 23  2  0
 23 24  1  0
 17 25  2  0
  8  3  1  0
 25 13  1  0
 24 19  1  0
  1 26  1  0
  1 27  1  0
  1 28  1  0
  4 29  1  0
  5 30  1  0
  6 31  1  0
  7 32  1  0
 14 33  1  0
 15 34  1  0
 16 35  1  0
 20 36  1  0
 21 37  1  0
 22 38  1  0
 23 39  1  0
 25 40  1  0
M  CHG  2   9  -1  24  -1
M  END
>  <UniqueID>  (28) 
27

>  <SMILES>  (28) 
COc1ccccc1[N-]S(=O)(=O)c1cccc(N=c2cccc[n-]2)c1

>  <Energy>  (28) 
57.67656198213122

>  <Genealogy>  (28) 
COc1ccccc1[N-]S(=O)(=O)c1cccc(N=c2cccc[n-]2)c1 (protonated)
COc1ccccc1[N-]S(=O)(=O)c1cccc(N=c2cccc[n-]2)c1 (3D coordinates assigned)
COc1ccccc1[N-]S(=O)(=O)c1cccc(N=c2cccc[n-]2)c1 (optimized conformer: 57.67656198213122 kcal/mol)

>  <smiles>  (28) 
COc1ccccc1NS(=O)(=O)c1cccc(N=c2cccc[nH]2)c1

>  <score_type>  (28) 
oracle

>  <origin>  (28) 
adgpu

>  <m_score__min__energy>  (28) 
-10.98

>  <m_primary>  (28) 
energy

$$$$
28:0
     RDKit          3D

 72 76  0  0  0  0  0  0  0  0999 V2000
   -3.8570   21.6590  -33.0460 C   0  0  0  0  0  0  0  0  0  0  0  0
   -3.7140   20.1860  -33.3330 C   0  0  0  0  0  0  0  0  0  0  0  0
   -2.4670   19.6890  -33.7430 C   0  0  0  0  0  0  0  0  0  0  0  0
   -2.3000   18.3190  -34.0030 C   0  0  0  0  0  0  0  0  0  0  0  0
   -1.0160   17.7820  -34.3860 N   0  0  0  0  0  0  0  0  0  0  0  0
   -0.7800   16.3300  -34.4090 C   0  0  0  0  0  0  0  0  0  0  0  0
    0.3180   15.9700  -35.4230 C   0  0  0  0  0  0  0  0  0  0  0  0
    0.2060   16.8330  -36.6180 N   0  0  0  0  0  0  0  0  0  0  0  0
    1.1050   16.3570  -37.6850 C   0  0  0  0  0  0  0  0  0  0  0  0
    0.4810   18.2610  -36.3020 C   0  0  0  0  0  0  0  0  0  0  0  0
    0.0540   18.6620  -34.8720 C   0  0  0  0  0  0  0  0  0  0  0  0
   -3.3630   17.4840  -33.8630 N   0  0  0  0  0  0  0  0  0  0  0  0
   -4.5890   17.9190  -33.4760 C   0  0  0  0  0  0  0  0  0  0  0  0
   -5.6330   17.0000  -33.3330 C   0  0  0  0  0  0  0  0  0  0  0  0
   -6.8960   17.4260  -32.9140 C   0  0  0  0  0  0  0  0  0  0  0  0
   -7.1350   18.7850  -32.6510 C   0  0  0  0  0  0  0  0  0  0  0  0
   -8.4030   19.2510  -32.1640 N   0  0  0  0  0  0  0  0  0  0  0  0
   -8.8900   20.6000  -32.1900 C   0  0  0  0  0  0  0  0  0  0  0  0
  -10.0180   20.8540  -32.6930 O   0  0  0  0  0  0  0  0  0  0  0  0
   -8.0630   21.6960  -31.6350 C   0  0  0  0  0  0  0  0  0  0  0  0
   -8.0470   21.9500  -30.2510 C   0  0  0  0  0  0  0  0  0  0  0  0
   -7.2130   22.9390  -29.7200 C   0  0  0  0  0  0  0  0  0  0  0  0
   -6.3820   23.6930  -30.5620 C   0  0  0  0  0  0  0  0  0  0  0  0
   -5.3040   24.9160  -29.8970 S   0  0  0  0  0  0  0  0  0  0  0  0
   -4.6330   25.6700  -31.0140 O   0  0  0  0  0  0  0  0  0  0  0  0
   -6.1210   25.8910  -29.0910 O   0  0  0  0  0  0  0  0  0  0  0  0
   -4.1050   24.1510  -28.8790 N   0  0  0  0  0  0  0  0  0  0  0  0
   -2.7490   24.5470  -29.3190 C   0  0  0  0  0  0  0  0  0  0  0  0
   -1.6780   23.5990  -28.7690 C   0  0  0  0  0  0  0  0  0  0  0  0
   -1.8870   22.1510  -29.2820 C   0  0  0  0  0  0  0  0  0  0  0  0
   -0.9490   21.8340  -30.4550 C   0  0  0  0  0  0  0  0  0  0  0  0
   -3.3560   21.8850  -29.6850 C   0  0  0  0  0  0  0  0  0  0  0  0
   -4.3250   22.6830  -28.8020 C   0  0  0  0  0  0  0  0  0  0  0  0
   -6.4130   23.4640  -31.9430 C   0  0  0  0  0  0  0  0  0  0  0  0
   -7.2450   22.4750  -32.4760 C   0  0  0  0  0  0  0  0  0  0  0  0
   -6.0860   19.7070  -32.7820 C   0  0  0  0  0  0  0  0  0  0  0  0
   -4.8030   19.2890  -33.1970 C   0  0  0  0  0  0  0  0  0  0  0  0
   -3.8727   21.8208  -31.9581 H   0  0  0  0  0  0  0  0  0  0  0  0
   -3.0074   22.2023  -33.4853 H   0  0  0  0  0  0  0  0  0  0  0  0
   -4.7953   22.0288  -33.4853 H   0  0  0  0  0  0  0  0  0  0  0  0
   -1.6162   20.3761  -33.8613 H   0  0  0  0  0  0  0  0  0  0  0  0
   -0.4678   15.9997  -33.4073 H   0  0  0  0  0  0  0  0  0  0  0  0
   -1.7119   15.8266  -34.7057 H   0  0  0  0  0  0  0  0  0  0  0  0
    1.3045   16.1167  -34.9590 H   0  0  0  0  0  0  0  0  0  0  0  0
    0.2000   14.9188  -35.7247 H   0  0  0  0  0  0  0  0  0  0  0  0
   -0.7740   16.7600  -36.9870 H   0  0  0  0  0  0  0  0  0  0  0  0
    1.9920   15.8874  -37.2348 H   0  0  0  0  0  0  0  0  0  0  0  0
    0.5766   15.6205  -38.3082 H   0  0  0  0  0  0  0  0  0  0  0  0
    1.4172   17.2080  -38.3082 H   0  0  0  0  0  0  0  0  0  0  0  0
    1.5611   18.4405  -36.4075 H   0  0  0  0  0  0  0  0  0  0  0  0
   -0.1098   18.8700  -37.0021 H   0  0  0  0  0  0  0  0  0  0  0  0
    0.9212   18.5818  -34.2000 H   0  0  0  0  0  0  0  0  0  0  0  0
   -0.3189   19.6967  -34.8904 H   0  0  0  0  0  0  0  0  0  0  0  0
   -5.4591   15.9360  -33.5515 H   0  0  0  0  0  0  0  0  0  0  0  0
   -7.7072   16.6936  -32.7895 H   0  0  0  0  0  0  0  0  0  0  0  0
   -8.6956   21.3660  -29.5815 H   0  0  0  0  0  0  0  0  0  0  0  0
   -7.2086   23.1267  -28.6361 H   0  0  0  0  0  0  0  0  0  0  0  0
   -2.7110   24.5292  -30.4182 H   0  0  0  0  0  0  0  0  0  0  0  0
   -2.5441   25.5573  -28.9351 H   0  0  0  0  0  0  0  0  0  0  0  0
   -0.6874   23.9531  -29.0904 H   0  0  0  0  0  0  0  0  0  0  0  0
   -1.7527   23.5917  -27.6716 H   0  0  0  0  0  0  0  0  0  0  0  0
   -1.6408   21.4810  -28.4450 H   0  0  0  0  0  0  0  0  0  0  0  0
    0.0258   21.5045  -30.0662 H   0  0  0  0  0  0  0  0  0  0  0  0
   -1.3879   21.0343  -31.0697 H   0  0  0  0  0  0  0  0  0  0  0  0
   -0.8128   22.7360  -31.0697 H   0  0  0  0  0  0  0  0  0  0  0  0
   -3.4997   22.1811  -30.7346 H   0  0  0  0  0  0  0  0  0  0  0  0
   -3.5656   20.8132  -29.5532 H   0  0  0  0  0  0  0  0  0  0  0  0
   -5.3538   22.4652  -29.1247 H   0  0  0  0  0  0  0  0  0  0  0  0
   -4.1485   22.3777  -27.7600 H   0  0  0  0  0  0  0  0  0  0  0  0
   -5.7796   24.0652  -32.6118 H   0  0  0  0  0  0  0  0  0  0  0  0
   -7.2609   22.3037  -33.5625 H   0  0  0  0  0  0  0  0  0  0  0  0
   -6.2653   20.7690  -32.5586 H   0  0  0  0  0  0  0  0  0  0  0  0
  1  2  1  0
  2  3  2  0
  3  4  1  0
  4  5  1  0
  5  6  1  0
  6  7  1  0
  7  8  1  0
  8  9  1  0
  8 10  1  0
 10 11  1  0
  4 12  2  0
 12 13  1  0
 13 14  2  0
 14 15  1  0
 15 16  2  0
 16 17  1  0
 17 18  1  0
 18 19  2  0
 18 20  1  0
 20 21  2  0
 21 22  1  0
 22 23  2  0
 23 24  1  0
 24 25  2  0
 24 26  2  0
 24 27  1  0
 27 28  1  0
 28 29  1  0
 29 30  1  0
 30 31  1  0
 30 32  1  0
 32 33  1  0
 23 34  1  0
 34 35  2  0
 16 36  1  0
 36 37  2  0
 37  2  1  0
 11  5  1  0
 37 13  1  0
 35 20  1  0
 33 27  1  0
  1 38  1  0
  1 39  1  0
  1 40  1  0
  3 41  1  0
  6 42  1  0
  6 43  1  0
  7 44  1  0
  7 45  1  0
  8 46  1  0
  9 47  1  0
  9 48  1  0
  9 49  1  0
 10 50  1  0
 10 51  1  0
 11 52  1  0
 11 53  1  0
 14 54  1  0
 15 55  1  0
 21 56  1  0
 22 57  1  0
 28 58  1  0
 28 59  1  0
 29 60  1  0
 29 61  1  0
 30 62  1  0
 31 63  1  0
 31 64  1  0
 31 65  1  0
 32 66  1  0
 32 67  1  0
 33 68  1  0
 33 69  1  0
 34 70  1  0
 35 71  1  0
 36 72  1  0
M  CHG  2   8   1  17  -1
M  END
>  <UniqueID>  (29) 
28

>  <SMILES>  (29) 
Cc1cc(N2CC[NH+](C)CC2)nc2ccc([N-]C(=O)c3ccc(S(=O)(=O)N4CCC(C)CC4)cc3)cc12

>  <Energy>  (29) 
98.0104250823412

>  <Genealogy>  (29) 
Cc1cc(N2CC[NH+](C)CC2)nc2ccc([N-]C(=O)c3ccc(S(=O)(=O)N4CCC(C)CC4)cc3)cc12 (protonated)
Cc1cc(N2CC[NH+](C)CC2)nc2ccc([N-]C(=O)c3ccc(S(=O)(=O)N4CCC(C)CC4)cc3)cc12 (3D coordinates assigned)
Cc1cc(N2CC[NH+](C)CC2)nc2ccc([N-]C(=O)c3ccc(S(=O)(=O)N4CCC(C)CC4)cc3)cc12 (nonaromatic ring conformer: 98.0104250823412 kcal/mol)

>  <smiles>  (29) 
Cc1cc(N2CCN(C)CC2)nc2ccc(NC(=O)c3ccc(S(=O)(=O)N4CCC(C)CC4)cc3)cc12

>  <score_type>  (29) 
oracle

>  <origin>  (29) 
adgpu

>  <m_score__min__energy>  (29) 
-12.539999999999999

>  <m_primary>  (29) 
energy

$$$$
29:0
     RDKit          3D

 43 45  0  0  0  0  0  0  0  0999 V2000
   -6.9100   15.9290  -34.2450 C   0  0  0  0  0  0  0  0  0  0  0  0
   -5.9990   16.9920  -33.6090 C   0  0  1  0  0  0  0  0  0  0  0  0
   -6.7380   18.1700  -32.9700 C   0  0  0  0  0  0  0  0  0  0  0  0
   -6.3390   19.4920  -33.2820 C   0  0  0  0  0  0  0  0  0  0  0  0
   -7.0200   20.5880  -32.7490 C   0  0  0  0  0  0  0  0  0  0  0  0
   -8.1130   20.3930  -31.9020 C   0  0  0  0  0  0  0  0  0  0  0  0
   -8.7670   21.4600  -31.3790 F   0  0  0  0  0  0  0  0  0  0  0  0
   -8.5350   19.0960  -31.5950 C   0  0  0  0  0  0  0  0  0  0  0  0
   -7.8640   17.9920  -32.1300 C   0  0  0  0  0  0  0  0  0  0  0  0
   -5.1450   16.3370  -32.6140 N   0  0  0  0  0  0  0  0  0  0  0  0
   -3.7960   16.4940  -33.0400 C   0  0  0  0  0  0  0  0  0  0  0  0
   -2.8120   16.0930  -32.3640 O   0  0  0  0  0  0  0  0  0  0  0  0
   -3.6660   17.1760  -34.2770 N   0  0  0  0  0  0  0  0  0  0  0  0
   -2.4750   17.8840  -34.7410 C   0  0  0  0  0  0  0  0  0  0  0  0
   -2.4140   19.2470  -34.1240 C   0  0  0  0  0  0  0  0  0  0  0  0
   -2.1000   20.2360  -34.8390 O   0  0  0  0  0  0  0  0  0  0  0  0
   -2.6210   19.3960  -32.7120 N   0  0  0  0  0  0  0  0  0  0  0  0
   -2.8200   20.6220  -31.9920 C   0  0  0  0  0  0  0  0  0  0  0  0
   -1.9730   21.0220  -30.9430 C   0  0  0  0  0  0  0  0  0  0  0  0
   -2.2040   22.2250  -30.2710 C   0  0  0  0  0  0  0  0  0  0  0  0
   -3.2730   23.0470  -30.6440 C   0  0  0  0  0  0  0  0  0  0  0  0
   -3.5520   24.5660  -29.8000 S   0  0  0  0  0  0  0  0  0  0  0  0
   -2.0480   25.2060  -29.2440 N   0  0  0  0  0  0  0  0  0  0  0  0
   -4.4630   24.3340  -28.6290 O   0  0  0  0  0  0  0  0  0  0  0  0
   -4.2020   25.5540  -30.7290 O   0  0  0  0  0  0  0  0  0  0  0  0
   -4.0990   22.6680  -31.7100 C   0  0  0  0  0  0  0  0  0  0  0  0
   -3.8680   21.4640  -32.3830 C   0  0  0  0  0  0  0  0  0  0  0  0
   -5.0070   17.5000  -34.6220 C   0  0  0  0  0  0  0  0  0  0  0  0
   -5.3110   18.1760  -35.6420 O   0  0  0  0  0  0  0  0  0  0  0  0
   -7.4064   15.3498  -33.4524 H   0  0  0  0  0  0  0  0  0  0  0  0
   -7.6696   16.4228  -34.8688 H   0  0  0  0  0  0  0  0  0  0  0  0
   -6.3057   15.2539  -34.8688 H   0  0  0  0  0  0  0  0  0  0  0  0
   -5.4825   19.6575  -33.9521 H   0  0  0  0  0  0  0  0  0  0  0  0
   -6.6944   21.6090  -32.9972 H   0  0  0  0  0  0  0  0  0  0  0  0
   -9.3980   18.9434  -30.9302 H   0  0  0  0  0  0  0  0  0  0  0  0
   -8.2141   16.9758  -31.8962 H   0  0  0  0  0  0  0  0  0  0  0  0
   -1.5785   17.3145  -34.4547 H   0  0  0  0  0  0  0  0  0  0  0  0
   -2.5199   17.9857  -35.8354 H   0  0  0  0  0  0  0  0  0  0  0  0
   -1.1252   20.3852  -30.6504 H   0  0  0  0  0  0  0  0  0  0  0  0
   -1.5428   22.5270  -29.4454 H   0  0  0  0  0  0  0  0  0  0  0  0
   -1.5970   25.6800  -30.0580 H   0  0  0  0  0  0  0  0  0  0  0  0
   -4.9308   23.3185  -32.0183 H   0  0  0  0  0  0  0  0  0  0  0  0
   -4.5142   21.1765  -33.2255 H   0  0  0  0  0  0  0  0  0  0  0  0
  2  1  1  6
  2  3  1  0
  3  4  2  0
  4  5  1  0
  5  6  2  0
  6  7  1  0
  6  8  1  0
  8  9  2  0
  2 10  1  0
 10 11  1  0
 11 12  2  0
 11 13  1  0
 13 14  1  0
 14 15  1  0
 15 16  2  0
 15 17  1  0
 17 18  1  0
 18 19  2  0
 19 20  1  0
 20 21  2  0
 21 22  1  0
 22 23  1  0
 22 24  2  0
 22 25  2  0
 21 26  1  0
 26 27  2  0
 13 28  1  0
 28 29  2  0
 28  2  1  0
  9  3  1  0
 27 18  1  0
  1 30  1  0
  1 31  1  0
  1 32  1  0
  4 33  1  0
  5 34  1  0
  8 35  1  0
  9 36  1  0
 14 37  1  0
 14 38  1  0
 19 39  1  0
 20 40  1  0
 23 41  1  0
 26 42  1  0
 27 43  1  0
M  CHG  3  10  -1  17  -1  23  -1
M  END
>  <UniqueID>  (30) 
29

>  <SMILES>  (30) 
C[C@@]1(c2ccc(F)cc2)[N-]C(=O)N(CC(=O)[N-]c2ccc(S([NH-])(=O)=O)cc2)C1=O

>  <Energy>  (30) 
67.5482094037339

>  <Genealogy>  (30) 
CC1(c2ccc(F)cc2)[N-]C(=O)N(CC(=O)[N-]c2ccc(S([NH-])(=O)=O)cc2)C1=O (protonated)
C[C@@]1(c2ccc(F)cc2)[N-]C(=O)N(CC(=O)[N-]c2ccc(S([NH-])(=O)=O)cc2)C1=O (chirality)
C[C@@]1(c2ccc(F)cc2)[N-]C(=O)N(CC(=O)[N-]c2ccc(S([NH-])(=O)=O)cc2)C1=O (3D coordinates assigned)
C[C@@]1(c2ccc(F)cc2)[N-]C(=O)N(CC(=O)[N-]c2ccc(S([NH-])(=O)=O)cc2)C1=O (nonaromatic ring conformer: 67.5482094037339 kcal/mol)

>  <smiles>  (30) 
CC1(c2ccc(F)cc2)NC(=O)N(CC(=O)Nc2ccc(S(N)(=O)=O)cc2)C1=O

>  <score_type>  (30) 
oracle

>  <origin>  (30) 
adgpu

>  <m_score__min__energy>  (30) 
-11.25

>  <m_primary>  (30) 
energy

$$$$
30:0
     RDKit          3D

 52 55  0  0  0  0  0  0  0  0999 V2000
    1.8249   16.3314  -28.9319 H   0  0  0  0  0  0  0  0  0  0  0  0
    1.5640   17.3510  -28.6120 C   0  0  0  0  0  0  0  0  0  0  0  0
    0.3530   17.5880  -27.9550 C   0  0  0  0  0  0  0  0  0  0  0  0
   -0.3415   16.7556  -27.7687 H   0  0  0  0  0  0  0  0  0  0  0  0
    0.0200   18.8850  -27.5320 C   0  0  0  0  0  0  0  0  0  0  0  0
   -1.2920   19.1490  -26.8510 C   0  0  0  0  0  0  0  0  0  0  0  0
   -1.1902   18.9596  -25.7722 H   0  0  0  0  0  0  0  0  0  0  0  0
   -2.0628   18.4841  -27.2679 H   0  0  0  0  0  0  0  0  0  0  0  0
   -1.6790   20.5400  -27.0670 N   0  0  0  0  0  0  0  0  0  0  0  0
   -1.8540   21.0720  -28.2410 C   0  0  0  0  0  0  0  0  0  0  0  0
   -1.6620   20.3410  -29.3730 N   0  0  0  0  0  0  0  0  0  0  0  0
   -1.8340   20.8660  -30.6160 C   0  0  0  0  0  0  0  0  0  0  0  0
   -1.6150   20.0830  -31.8010 N   0  0  0  0  0  0  0  0  0  0  0  0
   -2.5040   19.5690  -32.6020 C   0  0  0  0  0  0  0  0  0  0  0  0
   -2.1530   18.8460  -33.6870 N   0  0  0  0  0  0  0  0  0  0  0  0
   -3.1970   18.4130  -34.3940 N   0  0  0  0  0  0  0  0  0  0  0  0
   -4.3880   18.7820  -33.8700 C   0  0  0  0  0  0  0  0  0  0  0  0
   -5.6980   18.4780  -34.5070 C   0  0  0  0  0  0  0  0  0  0  0  0
   -6.4533   18.3027  -33.7267 H   0  0  0  0  0  0  0  0  0  0  0  0
   -6.0076   19.3282  -35.1326 H   0  0  0  0  0  0  0  0  0  0  0  0
   -5.6015   17.5784  -35.1326 H   0  0  0  0  0  0  0  0  0  0  0  0
   -4.1860   19.7080  -32.4790 S   0  0  0  0  0  0  0  0  0  0  0  0
   -2.2210   22.2010  -30.7500 C   0  0  0  0  0  0  0  0  0  0  0  0
   -2.3753   22.6317  -31.7504 H   0  0  0  0  0  0  0  0  0  0  0  0
   -2.4130   22.9930  -29.6070 C   0  0  0  0  0  0  0  0  0  0  0  0
   -2.8220   24.4130  -29.7230 C   0  0  0  0  0  0  0  0  0  0  0  0
   -2.1970   25.2910  -29.0700 O   0  0  0  0  0  0  0  0  0  0  0  0
   -3.9480   24.8200  -30.5160 N   0  0  0  0  0  0  0  0  0  0  0  0
   -5.0850   24.0150  -30.8540 C   0  0  0  0  0  0  0  0  0  0  0  0
   -4.9760   23.0980  -31.9050 C   0  0  0  0  0  0  0  0  0  0  0  0
   -4.0295   23.0112  -32.4587 H   0  0  0  0  0  0  0  0  0  0  0  0
   -6.0630   22.2910  -32.2560 C   0  0  0  0  0  0  0  0  0  0  0  0
   -5.9705   21.5780  -33.0885 H   0  0  0  0  0  0  0  0  0  0  0  0
   -7.2680   22.3880  -31.5510 C   0  0  0  0  0  0  0  0  0  0  0  0
   -8.6330   21.3650  -31.9920 S   0  0  0  0  0  0  0  0  0  0  0  0
   -9.0160   20.4970  -30.8280 O   0  0  0  0  0  0  0  0  0  0  0  0
   -9.8090   22.2240  -32.3610 O   0  0  0  0  0  0  0  0  0  0  0  0
   -8.1980   20.3680  -33.3360 N   0  0  0  0  0  0  0  0  0  0  0  0
   -9.0880   20.0450  -33.7760 H   0  0  0  0  0  0  0  0  0  0  0  0
   -7.7310   19.5190  -32.9480 H   0  0  0  0  0  0  0  0  0  0  0  0
   -7.3720   23.2800  -30.4760 C   0  0  0  0  0  0  0  0  0  0  0  0
   -8.3116   23.3472  -29.9080 H   0  0  0  0  0  0  0  0  0  0  0  0
   -6.2850   24.0850  -30.1230 C   0  0  0  0  0  0  0  0  0  0  0  0
   -6.3682   24.7755  -29.2708 H   0  0  0  0  0  0  0  0  0  0  0  0
   -2.2390   22.4130  -28.3410 C   0  0  0  0  0  0  0  0  0  0  0  0
   -2.4045   23.0099  -27.4320 H   0  0  0  0  0  0  0  0  0  0  0  0
    0.9020   19.9440  -27.7970 C   0  0  0  0  0  0  0  0  0  0  0  0
    0.6411   20.9660  -27.4848 H   0  0  0  0  0  0  0  0  0  0  0  0
    2.1120   19.7040  -28.4570 C   0  0  0  0  0  0  0  0  0  0  0  0
    2.8031   20.5361  -28.6568 H   0  0  0  0  0  0  0  0  0  0  0  0
    2.4440   18.4080  -28.8630 C   0  0  0  0  0  0  0  0  0  0  0  0
    3.9630   18.1100  -29.6890 Cl  0  0  0  0  0  0  0  0  0  0  0  0
  1  2  1  0
  2  3  2  0
  3  4  1  0
  3  5  1  0
  5  6  1  0
  6  7  1  0
  6  8  1  0
  6  9  1  0
  9 10  2  0
 10 11  1  0
 11 12  1  0
 12 13  1  0
 13 14  2  3
 14 15  1  0
 15 16  1  0
 16 17  2  0
 17 18  1  0
 18 19  1  0
 18 20  1  0
 18 21  1  0
 17 22  1  0
 12 23  2  0
 23 24  1  0
 23 25  1  0
 25 26  1  0
 26 27  2  0
 26 28  1  0
 28 29  1  0
 29 30  2  0
 30 31  1  0
 30 32  1  0
 32 33  1  0
 32 34  2  0
 34 35  1  0
 35 36  2  0
 35 37  2  0
 35 38  1  0
 38 39  1  0
 38 40  1  0
 34 41  1  0
 41 42  1  0
 41 43  2  0
 43 44  1  0
 25 45  2  0
 45 46  1  0
  5 47  2  0
 47 48  1  0
 47 49  1  0
 49 50  1  0
 49 51  2  0
 51 52  1  0
 51  2  1  0
 45 10  1  0
 22 14  1  0
 43 29  1  0
M  CHG  3  11  -1  15  -1  28  -1
M  END
>  <UniqueID>  (31) 
30

>  <SMILES>  (31) 
Cc1n[n-]c(=Nc2cc(C(=O)[N-]c3ccc(S(N)(=O)=O)cc3)c/c(=N/Cc3ccc(Cl)cc3)[n-]2)s1

>  <Energy>  (31) 
96.87686026800533

>  <Genealogy>  (31) 
Cc1n[n-]c(=Nc2cc(C(=O)[N-]c3ccc(S(N)(=O)=O)cc3)cc(=NCc3ccc(Cl)cc3)[n-]2)s1 (protonated)
Cc1n[n-]c(=Nc2cc(C(=O)[N-]c3ccc(S(N)(=O)=O)cc3)c/c(=N/Cc3ccc(Cl)cc3)[n-]2)s1 (cis-trans isomerization)
Cc1n[n-]c(=Nc2cc(C(=O)[N-]c3ccc(S(N)(=O)=O)cc3)c/c(=N/Cc3ccc(Cl)cc3)[n-]2)s1 (3D coordinates assigned)
Cc1n[n-]c(=Nc2cc(C(=O)[N-]c3ccc(S(N)(=O)=O)cc3)c/c(=N/Cc3ccc(Cl)cc3)[n-]2)s1 (optimized conformer: 96.87686026800533 kcal/mol)

>  <smiles>  (31) 
Cc1n[nH]c(=Nc2cc(C(=O)Nc3ccc(S(N)(=O)=O)cc3)cc(=NCc3ccc(Cl)cc3)[nH]2)s1

>  <score_type>  (31) 
oracle

>  <origin>  (31) 
adgpu

>  <m_score__min__energy>  (31) 
-12.09

>  <m_primary>  (31) 
energy

$$$$
31:0
     RDKit          3D

 40 42  0  0  0  0  0  0  0  0999 V2000
   -1.2350   26.3260  -28.9970 N   0  0  0  0  0  0  0  0  0  0  0  0
   -0.7720   25.3770  -27.6270 S   0  0  0  0  0  0  0  0  0  0  0  0
    0.7290   25.2900  -27.5610 O   0  0  0  0  0  0  0  0  0  0  0  0
   -1.2690   26.0300  -26.3690 O   0  0  0  0  0  0  0  0  0  0  0  0
   -1.4680   23.7610  -27.7660 C   0  0  0  0  0  0  0  0  0  0  0  0
   -0.9420   22.7120  -26.9930 C   0  0  0  0  0  0  0  0  0  0  0  0
   -1.4910   21.4310  -27.0740 C   0  0  0  0  0  0  0  0  0  0  0  0
   -2.5460   21.1800  -27.9480 C   0  0  0  0  0  0  0  0  0  0  0  0
   -3.0660   22.2110  -28.7350 C   0  0  0  0  0  0  0  0  0  0  0  0
   -2.5410   23.5140  -28.6430 C   0  0  0  0  0  0  0  0  0  0  0  0
   -3.0710   24.5890  -29.4360 N   0  0  0  0  0  0  0  0  0  0  0  0
   -4.6590   24.6510  -30.1330 S   0  0  0  0  0  0  0  0  0  0  0  0
   -5.6660   24.9590  -29.0590 O   0  0  0  0  0  0  0  0  0  0  0  0
   -4.7040   25.7530  -31.1540 O   0  0  0  0  0  0  0  0  0  0  0  0
   -5.0240   23.1240  -30.9270 C   0  0  0  0  0  0  0  0  0  0  0  0
   -4.0510   22.4540  -31.6800 C   0  0  0  0  0  0  0  0  0  0  0  0
   -4.3560   21.2390  -32.3010 C   0  0  0  0  0  0  0  0  0  0  0  0
   -5.6390   20.6750  -32.1760 C   0  0  0  0  0  0  0  0  0  0  0  0
   -5.9530   19.3750  -32.8180 C   0  0  0  0  0  0  0  0  0  0  0  0
   -5.2610   18.9810  -33.9800 C   0  0  0  0  0  0  0  0  0  0  0  0
   -5.5390   17.7540  -34.5900 C   0  0  0  0  0  0  0  0  0  0  0  0
   -6.5130   16.9110  -34.0510 C   0  0  0  0  0  0  0  0  0  0  0  0
   -6.7810   15.7200  -34.6450 F   0  0  0  0  0  0  0  0  0  0  0  0
   -7.2120   17.2940  -32.9010 C   0  0  0  0  0  0  0  0  0  0  0  0
   -6.9350   18.5170  -32.2830 C   0  0  0  0  0  0  0  0  0  0  0  0
   -7.6450   18.8690  -31.1890 F   0  0  0  0  0  0  0  0  0  0  0  0
   -6.6100   21.3500  -31.4140 C   0  0  0  0  0  0  0  0  0  0  0  0
   -6.3050   22.5680  -30.7990 C   0  0  0  0  0  0  0  0  0  0  0  0
   -1.5510   25.6540  -29.7340 H   0  0  0  0  0  0  0  0  0  0  0  0
   -0.0927   22.9013  -26.3201 H   0  0  0  0  0  0  0  0  0  0  0  0
   -1.0905   20.6202  -26.4478 H   0  0  0  0  0  0  0  0  0  0  0  0
   -2.9709   20.1678  -28.0189 H   0  0  0  0  0  0  0  0  0  0  0  0
   -3.8916   22.0029  -29.4315 H   0  0  0  0  0  0  0  0  0  0  0  0
   -3.0442   22.8850  -31.7830 H   0  0  0  0  0  0  0  0  0  0  0  0
   -3.5869   20.7200  -32.8919 H   0  0  0  0  0  0  0  0  0  0  0  0
   -4.4960   19.6438  -34.4108 H   0  0  0  0  0  0  0  0  0  0  0  0
   -4.9904   17.4527  -35.4946 H   0  0  0  0  0  0  0  0  0  0  0  0
   -7.9824   16.6303  -32.4816 H   0  0  0  0  0  0  0  0  0  0  0  0
   -7.6149   20.9170  -31.3014 H   0  0  0  0  0  0  0  0  0  0  0  0
   -7.0734   23.0925  -30.2121 H   0  0  0  0  0  0  0  0  0  0  0  0
  1  2  1  0
  2  3  2  0
  2  4  2  0
  2  5  1  0
  5  6  2  0
  6  7  1  0
  7  8  2  0
  8  9  1  0
  9 10  2  0
 10 11  1  0
 11 12  1  0
 12 13  2  0
 12 14  2  0
 12 15  1  0
 15 16  2  0
 16 17  1  0
 17 18  2  0
 18 19  1  0
 19 20  2  0
 20 21  1  0
 21 22  2  0
 22 23  1  0
 22 24  1  0
 24 25  2  0
 25 26  1  0
 18 27  1  0
 27 28  2  0
 10  5  1  0
 28 15  1  0
 25 19  1  0
  1 29  1  0
  6 30  1  0
  7 31  1  0
  8 32  1  0
  9 33  1  0
 16 34  1  0
 17 35  1  0
 20 36  1  0
 21 37  1  0
 24 38  1  0
 27 39  1  0
 28 40  1  0
M  CHG  2   1  -1  11  -1
M  END
>  <UniqueID>  (32) 
31

>  <SMILES>  (32) 
[NH-]S(=O)(=O)c1ccccc1[N-]S(=O)(=O)c1ccc(-c2ccc(F)cc2F)cc1

>  <Energy>  (32) 
53.515004516570805

>  <Genealogy>  (32) 
[NH-]S(=O)(=O)c1ccccc1[N-]S(=O)(=O)c1ccc(-c2ccc(F)cc2F)cc1 (protonated)
[NH-]S(=O)(=O)c1ccccc1[N-]S(=O)(=O)c1ccc(-c2ccc(F)cc2F)cc1 (3D coordinates assigned)
[NH-]S(=O)(=O)c1ccccc1[N-]S(=O)(=O)c1ccc(-c2ccc(F)cc2F)cc1 (optimized conformer: 53.515004516570805 kcal/mol)

>  <smiles>  (32) 
NS(=O)(=O)c1ccccc1NS(=O)(=O)c1ccc(-c2ccc(F)cc2F)cc1

>  <score_type>  (32) 
oracle

>  <origin>  (32) 
adgpu

>  <m_score__min__energy>  (32) 
-13.08

>  <m_primary>  (32) 
energy

$$$$
32:0
     RDKit          3D

 41 42  0  0  0  0  0  0  0  0999 V2000
   -3.2660   23.6900  -27.5100 C   0  0  0  0  0  0  0  0  0  0  0  0
   -3.8090   24.1840  -28.8080 C   0  0  0  0  0  0  0  0  0  0  0  0
   -5.0580   23.8950  -29.3220 C   0  0  0  0  0  0  0  0  0  0  0  0
   -5.0710   24.5400  -30.5410 C   0  0  0  0  0  0  0  0  0  0  0  0
   -6.2110   24.5710  -31.5130 C   0  0  0  0  0  0  0  0  0  0  0  0
   -6.2460   23.3360  -32.3120 N   0  0  0  0  0  0  0  0  0  0  0  0
   -7.1590   22.3220  -31.7600 C   0  0  0  0  0  0  0  0  0  0  0  0
   -6.7630   20.9390  -32.1940 C   0  0  0  0  0  0  0  0  0  0  0  0
   -7.5860   19.8890  -32.5810 C   0  0  0  0  0  0  0  0  0  0  0  0
   -9.0730   19.9280  -32.7250 C   0  0  0  0  0  0  0  0  0  0  0  0
   -6.8340   18.8310  -32.9500 N   0  0  0  0  0  0  0  0  0  0  0  0
   -5.5630   19.1650  -32.7830 N   0  0  0  0  0  0  0  0  0  0  0  0
   -4.4470   18.3000  -33.1450 C   0  0  0  0  0  0  0  0  0  0  0  0
   -5.4860   20.4320  -32.3360 C   0  0  0  0  0  0  0  0  0  0  0  0
   -4.2680   21.1770  -32.2150 N   0  0  0  0  0  0  0  0  0  0  0  0
   -3.6200   21.7010  -33.4160 C   0  0  0  0  0  0  0  0  0  0  0  0
   -3.5540   21.1820  -30.9400 C   0  0  0  0  0  0  0  0  0  0  0  0
   -3.8810   25.1360  -30.7360 N   0  0  0  0  0  0  0  0  0  0  0  0
   -3.1050   24.9240  -29.6870 N   0  0  0  0  0  0  0  0  0  0  0  0
   -3.8002   24.1760  -26.6803 H   0  0  0  0  0  0  0  0  0  0  0  0
   -3.4030   22.6004  -27.4461 H   0  0  0  0  0  0  0  0  0  0  0  0
   -2.1942   23.9291  -27.4461 H   0  0  0  0  0  0  0  0  0  0  0  0
   -5.8562   23.2912  -28.8656 H   0  0  0  0  0  0  0  0  0  0  0  0
   -7.1559   24.6694  -30.9585 H   0  0  0  0  0  0  0  0  0  0  0  0
   -6.0755   25.4271  -32.1903 H   0  0  0  0  0  0  0  0  0  0  0  0
   -6.6080   23.5870  -33.2620 H   0  0  0  0  0  0  0  0  0  0  0  0
   -7.1317   22.3748  -30.6616 H   0  0  0  0  0  0  0  0  0  0  0  0
   -8.1732   22.5268  -32.1335 H   0  0  0  0  0  0  0  0  0  0  0  0
   -9.5377   19.9402  -31.7281 H   0  0  0  0  0  0  0  0  0  0  0  0
   -9.3643   20.8341  -33.2765 H   0  0  0  0  0  0  0  0  0  0  0  0
   -9.4114   19.0384  -33.2765 H   0  0  0  0  0  0  0  0  0  0  0  0
   -3.9627   17.9246  -32.2315 H   0  0  0  0  0  0  0  0  0  0  0  0
   -4.8183   17.4514  -33.7384 H   0  0  0  0  0  0  0  0  0  0  0  0
   -3.7178   18.8712  -33.7384 H   0  0  0  0  0  0  0  0  0  0  0  0
   -2.7949   22.3682  -33.1260 H   0  0  0  0  0  0  0  0  0  0  0  0
   -3.2240   20.8662  -34.0129 H   0  0  0  0  0  0  0  0  0  0  0  0
   -4.3535   22.2629  -34.0129 H   0  0  0  0  0  0  0  0  0  0  0  0
   -4.2797   21.1769  -30.1134 H   0  0  0  0  0  0  0  0  0  0  0  0
   -2.9161   20.2883  -30.8734 H   0  0  0  0  0  0  0  0  0  0  0  0
   -2.9287   22.0845  -30.8734 H   0  0  0  0  0  0  0  0  0  0  0  0
   -3.5910   25.6820  -31.5780 H   0  0  0  0  0  0  0  0  0  0  0  0
  1  2  1  0
  2  3  1  0
  3  4  2  0
  4  5  1  0
  5  6  1  0
  6  7  1  0
  7  8  1  0
  8  9  1  0
  9 10  1  0
  9 11  2  0
 11 12  1  0
 12 13  1  0
 12 14  1  0
 14 15  1  0
 15 16  1  0
 15 17  1  0
  4 18  1  0
 18 19  1  0
 19  2  2  0
 14  8  2  0
  1 20  1  0
  1 21  1  0
  1 22  1  0
  3 23  1  0
  5 24  1  0
  5 25  1  0
  6 26  1  0
  7 27  1  0
  7 28  1  0
 10 29  1  0
 10 30  1  0
 10 31  1  0
 13 32  1  0
 13 33  1  0
 13 34  1  0
 16 35  1  0
 16 36  1  0
 16 37  1  0
 17 38  1  0
 17 39  1  0
 17 40  1  0
 18 41  1  0
M  END
>  <UniqueID>  (33) 
32

>  <SMILES>  (33) 
Cc1cc(CNCc2c(C)nn(C)c2N(C)C)[nH]n1

>  <Energy>  (33) 
96.07799403220685

>  <Genealogy>  (33) 
Cc1cc(CNCc2c(C)nn(C)c2N(C)C)[nH]n1 (3D coordinates assigned)
Cc1cc(CNCc2c(C)nn(C)c2N(C)C)[nH]n1 (optimized conformer: 96.07799403220685 kcal/mol)

>  <smiles>  (33) 
Cc1cc(CNCc2c(C)nn(C)c2N(C)C)[nH]n1

>  <score_type>  (33) 
oracle

>  <origin>  (33) 
adgpu

>  <m_score__min__energy>  (33) 
-7.7400000000000002

>  <m_primary>  (33) 
energy

$$$$
33:0
     RDKit          3D

 45 47  0  0  1  0  0  0  0  0999 V2000
   -1.1040   21.8690  -26.2380 C   0  0  0  0  0  0  0  0  0  0  0  0
   -1.8370   22.4090  -27.4230 C   0  0  0  0  0  0  0  0  0  0  0  0
   -2.9130   23.2580  -27.2690 C   0  0  0  0  0  0  0  0  0  0  0  0
   -3.5190   23.6970  -28.4390 C   0  0  0  0  0  0  0  0  0  0  0  0
   -4.5390   24.5000  -28.4130 N   0  0  0  0  0  0  0  0  0  0  0  0
   -5.2700   25.0280  -29.9020 S   0  0  0  0  0  0  0  0  0  0  0  0
   -6.1350   26.2170  -29.5150 O   0  0  0  0  0  0  0  0  0  0  0  0
   -4.2350   25.4560  -30.8930 O   0  0  0  0  0  0  0  0  0  0  0  0
   -6.3300   23.8210  -30.5550 C   0  0  0  0  0  0  0  0  0  0  0  0
   -6.5070   23.7330  -31.9150 C   0  0  0  0  0  0  0  0  0  0  0  0
   -7.3480   22.7800  -32.4710 C   0  0  0  0  0  0  0  0  0  0  0  0
   -8.0160   21.9010  -31.6030 C   0  0  0  0  0  0  0  0  0  0  0  0
   -8.8900   20.9810  -32.1320 N   0  0  0  0  0  0  0  0  0  0  0  0
   -8.5640   19.9190  -32.7180 C   0  0  0  0  0  0  0  0  0  0  0  0
   -7.2740   19.3620  -33.0050 C   0  0  0  0  0  0  0  0  0  0  0  0
   -6.0750   20.0050  -33.0760 C   0  0  0  0  0  0  0  0  0  0  0  0
   -4.8620   19.3630  -33.3650 C   0  0  0  0  0  0  0  0  0  0  0  0
   -3.2400   20.3300  -33.4440 Br  0  0  0  0  0  0  0  0  0  0  0  0
   -4.8440   18.0180  -33.5940 C   0  0  0  0  0  0  0  0  0  0  0  0
   -3.6800   17.3570  -33.8780 O   0  0  0  0  0  0  0  0  0  0  0  0
   -6.0510   17.3590  -33.5240 C   0  0  0  0  0  0  0  0  0  0  0  0
   -6.0600   15.4880  -33.8370 Br  0  0  0  0  0  0  0  0  0  0  0  0
   -7.2290   17.9810  -33.2430 C   0  0  0  0  0  0  0  0  0  0  0  0
   -7.8480   21.9760  -30.2300 C   0  0  0  0  0  0  0  0  0  0  0  0
   -7.0030   22.9400  -29.7070 C   0  0  0  0  0  0  0  0  0  0  0  0
   -3.0840   23.3200  -29.6570 N   0  0  0  0  0  0  0  0  0  0  0  0
   -2.0360   22.4960  -29.7210 C   0  0  0  0  0  0  0  0  0  0  0  0
   -1.5810   22.0970  -31.0960 C   0  0  0  0  0  0  0  0  0  0  0  0
   -1.3940   22.0250  -28.6330 N   0  0  0  0  0  0  0  0  0  0  0  0
   -1.5863   22.2243  -25.3154 H   0  0  0  0  0  0  0  0  0  0  0  0
   -1.1258   20.7695  -26.2632 H   0  0  0  0  0  0  0  0  0  0  0  0
   -0.0604   22.2157  -26.2632 H   0  0  0  0  0  0  0  0  0  0  0  0
   -3.2706   23.5695  -26.2765 H   0  0  0  0  0  0  0  0  0  0  0  0
   -5.9718   24.4314  -32.5752 H   0  0  0  0  0  0  0  0  0  0  0  0
   -7.4876   22.7147  -33.5602 H   0  0  0  0  0  0  0  0  0  0  0  0
   -9.4117   19.3134  -33.0710 H   0  0  0  0  0  0  0  0  0  0  0  0
   -6.0573   21.0901  -32.8963 H   0  0  0  0  0  0  0  0  0  0  0  0
   -2.7760   17.7930  -33.9000 H   0  0  0  0  0  0  0  0  0  0  0  0
   -8.1574   17.3925  -33.2022 H   0  0  0  0  0  0  0  0  0  0  0  0
   -8.3786   21.2793  -29.5644 H   0  0  0  0  0  0  0  0  0  0  0  0
   -6.8614   23.0119  -28.6185 H   0  0  0  0  0  0  0  0  0  0  0  0
   -0.7563   21.3738  -31.0138 H   0  0  0  0  0  0  0  0  0  0  0  0
   -2.4190   21.6373  -31.6405 H   0  0  0  0  0  0  0  0  0  0  0  0
   -1.2346   22.9878  -31.6405 H   0  0  0  0  0  0  0  0  0  0  0  0
   -0.5720   21.3750  -28.7430 H   0  0  0  0  0  0  0  0  0  0  0  0
  1  2  1  0
  2  3  2  0
  3  4  1  0
  4  5  2  0
  5  6  1  0
  6  7  2  0
  6  8  2  0
  6  9  1  0
  9 10  2  0
 10 11  1  0
 11 12  2  0
 12 13  1  0
 13 14  2  0
 14 15  1  0
 15 16  2  0
 16 17  1  0
 17 18  1  0
 17 19  2  0
 19 20  1  0
 19 21  1  0
 21 22  1  0
 21 23  2  0
 12 24  1  0
 24 25  2  0
  4 26  1  0
 26 27  2  0
 27 28  1  0
 27 29  1  0
 29  2  1  0
 25  9  1  0
 23 15  1  0
  1 30  1  0
  1 31  1  0
  1 32  1  0
  3 33  1  0
 10 34  1  0
 11 35  1  0
 14 36  1  0
 16 37  1  0
 20 38  1  0
 23 39  1  0
 24 40  1  0
 25 41  1  0
 28 42  1  0
 28 43  1  0
 28 44  1  0
 29 45  1  0
M  END
>  <smiles>  (34) 
Cc1cc(=NS(=O)(=O)c2ccc(N=Cc3cc(Br)c(O)c(Br)c3)cc2)nc(C)[nH]1

>  <score_type>  (34) 
oracle

>  <origin>  (34) 
adgpu

>  <m_score__min__energy>  (34) 
-10.41

>  <m_primary>  (34) 
energy

$$$$
34:0
     RDKit          3D

 24 25  0  0  0  0  0  0  0  0999 V2000
   -8.3169   22.6514  -29.3563 H   0  0  0  0  0  0  0  0  0  0  0  0
   -7.6770   22.4500  -30.2280 C   0  0  0  0  0  0  0  0  0  0  0  0
   -6.4520   23.0340  -30.3220 N   0  0  0  0  0  0  0  0  0  0  0  0
   -5.6240   22.8080  -31.3810 C   0  0  0  0  0  0  0  0  0  0  0  0
   -4.4600   23.3860  -31.4630 N   0  0  0  0  0  0  0  0  0  0  0  0
   -3.8600   24.2390  -30.4740 C   0  0  0  0  0  0  0  0  0  0  0  0
   -4.0020   25.4850  -30.5890 O   0  0  0  0  0  0  0  0  0  0  0  0
   -3.0520   23.7090  -29.3500 C   0  0  0  0  0  0  0  0  0  0  0  0
   -3.4020   22.4780  -28.7680 C   0  0  0  0  0  0  0  0  0  0  0  0
   -4.2715   21.9215  -29.1477 H   0  0  0  0  0  0  0  0  0  0  0  0
   -2.6520   21.9570  -27.7100 C   0  0  0  0  0  0  0  0  0  0  0  0
   -2.9273   20.9889  -27.2662 H   0  0  0  0  0  0  0  0  0  0  0  0
   -1.5530   22.6640  -27.2150 C   0  0  0  0  0  0  0  0  0  0  0  0
   -0.8070   22.1430  -26.1650 O   0  0  0  0  0  0  0  0  0  0  0  0
   -1.2080   23.8980  -27.7720 C   0  0  0  0  0  0  0  0  0  0  0  0
   -0.3443   24.4543  -27.3789 H   0  0  0  0  0  0  0  0  0  0  0  0
   -1.9570   24.4290  -28.8280 C   0  0  0  0  0  0  0  0  0  0  0  0
   -1.6160   25.6770  -29.3390 O   0  0  0  0  0  0  0  0  0  0  0  0
   -6.0450   21.9640  -32.4170 C   0  0  0  0  0  0  0  0  0  0  0  0
   -5.3932   21.7827  -33.2844 H   0  0  0  0  0  0  0  0  0  0  0  0
   -7.2990   21.3550  -32.3390 C   0  0  0  0  0  0  0  0  0  0  0  0
   -7.6377   20.6868  -33.1445 H   0  0  0  0  0  0  0  0  0  0  0  0
   -8.1220   21.5950  -31.2380 C   0  0  0  0  0  0  0  0  0  0  0  0
   -9.1097   21.1162  -31.1667 H   0  0  0  0  0  0  0  0  0  0  0  0
  1  2  1  0
  2  3  1  0
  3  4  1  0
  4  5  2  0
  5  6  1  0
  6  7  2  0
  6  8  1  0
  8  9  2  0
  9 10  1  0
  9 11  1  0
 11 12  1  0
 11 13  2  0
 13 14  1  0
 13 15  1  0
 15 16  1  0
 15 17  2  0
 17 18  1  0
  4 19  1  0
 19 20  1  0
 19 21  2  0
 21 22  1  0
 21 23  1  0
 23 24  1  0
 23  2  2  0
 17  8  1  0
M  CHG  3   3  -1  14  -1  18  -1
M  END
>  <UniqueID>  (35) 
33

>  <SMILES>  (35) 
O=C(/N=c1/cccc[n-]1)c1ccc([O-])cc1[O-]

>  <Energy>  (35) 
35.200211407374006

>  <Genealogy>  (35) 
O=C(N=c1cccc[n-]1)c1ccc([O-])cc1[O-] (protonated)
O=C(/N=c1/cccc[n-]1)c1ccc([O-])cc1[O-] (cis-trans isomerization)
O=C(/N=c1/cccc[n-]1)c1ccc([O-])cc1[O-] (3D coordinates assigned)
O=C(/N=c1/cccc[n-]1)c1ccc([O-])cc1[O-] (optimized conformer: 35.200211407374006 kcal/mol)

>  <smiles>  (35) 
O=C(N=c1cccc[nH]1)c1ccc(O)cc1O

>  <score_type>  (35) 
oracle

>  <origin>  (35) 
adgpu

>  <m_score__min__energy>  (35) 
-10.19

>  <m_primary>  (35) 
energy

$$$$
35:0
     RDKit          3D

 48 50  0  0  0  0  0  0  0  0999 V2000
   -1.9630   19.9250  -26.4780 C   0  0  0  0  0  0  0  0  0  0  0  0
   -1.3980   21.2220  -26.3180 O   0  0  0  0  0  0  0  0  0  0  0  0
   -1.6970   22.3250  -27.1320 C   0  0  0  0  0  0  0  0  0  0  0  0
   -0.8400   23.4370  -27.2390 C   0  0  0  0  0  0  0  0  0  0  0  0
   -1.1780   24.5190  -28.0750 C   0  0  0  0  0  0  0  0  0  0  0  0
   -0.3550   25.6470  -28.2160 O   0  0  0  0  0  0  0  0  0  0  0  0
   -0.2380   26.6870  -27.2490 C   0  0  0  0  0  0  0  0  0  0  0  0
   -2.3760   24.4810  -28.7940 C   0  0  0  0  0  0  0  0  0  0  0  0
   -3.2420   23.3810  -28.6920 C   0  0  0  0  0  0  0  0  0  0  0  0
   -4.4740   23.3610  -29.4410 N   0  0  0  0  0  0  0  0  0  0  0  0
   -5.3800   24.5190  -29.3720 C   0  0  0  0  0  0  0  0  0  0  0  0
   -5.2430   25.3870  -30.6230 C   0  0  0  0  0  0  0  0  0  0  0  0
   -3.8910   25.6710  -30.8490 O   0  0  0  0  0  0  0  0  0  0  0  0
   -4.7630   22.2460  -30.3150 C   0  0  0  0  0  0  0  0  0  0  0  0
   -3.7480   21.3860  -30.7660 C   0  0  0  0  0  0  0  0  0  0  0  0
   -4.0530   20.3110  -31.6010 C   0  0  0  0  0  0  0  0  0  0  0  0
   -5.3840   20.0940  -31.9980 C   0  0  0  0  0  0  0  0  0  0  0  0
   -5.7620   18.9620  -32.8820 C   0  0  0  0  0  0  0  0  0  0  0  0
   -5.2910   18.9220  -34.2090 C   0  0  0  0  0  0  0  0  0  0  0  0
   -5.6310   17.8600  -35.0520 C   0  0  0  0  0  0  0  0  0  0  0  0
   -6.4380   16.8220  -34.5820 C   0  0  0  0  0  0  0  0  0  0  0  0
   -6.9030   16.8430  -33.2660 C   0  0  0  0  0  0  0  0  0  0  0  0
   -6.5660   17.9020  -32.4170 C   0  0  0  0  0  0  0  0  0  0  0  0
   -6.3530   20.9350  -31.5410 N   0  0  0  0  0  0  0  0  0  0  0  0
   -6.0800   21.9870  -30.7250 C   0  0  0  0  0  0  0  0  0  0  0  0
   -2.8910   22.3060  -27.8590 C   0  0  0  0  0  0  0  0  0  0  0  0
   -2.1551   19.4841  -25.4887 H   0  0  0  0  0  0  0  0  0  0  0  0
   -2.9086   20.0031  -27.0345 H   0  0  0  0  0  0  0  0  0  0  0  0
   -1.2618   19.2857  -27.0345 H   0  0  0  0  0  0  0  0  0  0  0  0
    0.0989   23.4609  -26.6664 H   0  0  0  0  0  0  0  0  0  0  0  0
   -0.2866   26.2552  -26.2385 H   0  0  0  0  0  0  0  0  0  0  0  0
    0.7240   27.2039  -27.3810 H   0  0  0  0  0  0  0  0  0  0  0  0
   -1.0611   27.4047  -27.3810 H   0  0  0  0  0  0  0  0  0  0  0  0
   -2.6436   25.3239  -29.4482 H   0  0  0  0  0  0  0  0  0  0  0  0
   -6.4173   24.1618  -29.2921 H   0  0  0  0  0  0  0  0  0  0  0  0
   -5.1157   25.1231  -28.4915 H   0  0  0  0  0  0  0  0  0  0  0  0
   -5.6543   24.8485  -31.4896 H   0  0  0  0  0  0  0  0  0  0  0  0
   -5.7957   26.3271  -30.4789 H   0  0  0  0  0  0  0  0  0  0  0  0
   -3.5330   24.9090  -31.3750 H   0  0  0  0  0  0  0  0  0  0  0  0
   -2.7064   21.5613  -30.4589 H   0  0  0  0  0  0  0  0  0  0  0  0
   -3.2560   19.6365  -31.9471 H   0  0  0  0  0  0  0  0  0  0  0  0
   -4.6503   19.7332  -34.5850 H   0  0  0  0  0  0  0  0  0  0  0  0
   -5.2619   17.8420  -36.0881 H   0  0  0  0  0  0  0  0  0  0  0  0
   -6.7070   15.9888  -35.2479 H   0  0  0  0  0  0  0  0  0  0  0  0
   -7.5367   16.0238  -32.8955 H   0  0  0  0  0  0  0  0  0  0  0  0
   -6.9309   17.9077  -31.3793 H   0  0  0  0  0  0  0  0  0  0  0  0
   -6.8968   22.6399  -30.3836 H   0  0  0  0  0  0  0  0  0  0  0  0
   -3.5633   21.4392  -27.7777 H   0  0  0  0  0  0  0  0  0  0  0  0
  1  2  1  0
  2  3  1  0
  3  4  2  0
  4  5  1  0
  5  6  1  0
  6  7  1  0
  5  8  2  0
  8  9  1  0
  9 10  1  0
 10 11  1  0
 11 12  1  0
 12 13  1  0
 10 14  1  0
 14 15  2  0
 15 16  1  0
 16 17  2  0
 17 18  1  0
 18 19  2  0
 19 20  1  0
 20 21  2  0
 21 22  1  0
 22 23  2  0
 17 24  1  0
 24 25  2  0
  9 26  2  0
 26  3  1  0
 25 14  1  0
 23 18  1  0
  1 27  1  0
  1 28  1  0
  1 29  1  0
  4 30  1  0
  7 31  1  0
  7 32  1  0
  7 33  1  0
  8 34  1  0
 11 35  1  0
 11 36  1  0
 12 37  1  0
 12 38  1  0
 13 39  1  0
 15 40  1  0
 16 41  1  0
 19 42  1  0
 20 43  1  0
 21 44  1  0
 22 45  1  0
 23 46  1  0
 25 47  1  0
 26 48  1  0
M  END
>  <UniqueID>  (36) 
34

>  <SMILES>  (36) 
COc1cc(OC)cc(N(CCO)c2ccc(-c3ccccc3)nc2)c1

>  <Energy>  (36) 
59.565828743540834

>  <Genealogy>  (36) 
COc1cc(OC)cc(N(CCO)c2ccc(-c3ccccc3)nc2)c1 (3D coordinates assigned)
COc1cc(OC)cc(N(CCO)c2ccc(-c3ccccc3)nc2)c1 (optimized conformer: 59.565828743540834 kcal/mol)

>  <smiles>  (36) 
COc1cc(OC)cc(N(CCO)c2ccc(-c3ccccc3)nc2)c1

>  <score_type>  (36) 
oracle

>  <origin>  (36) 
adgpu

>  <m_score__min__energy>  (36) 
-8.2100000000000009

>  <m_primary>  (36) 
energy

$$$$
36:0
     RDKit          3D

 57 60  0  0  0  0  0  0  0  0999 V2000
   -1.4270   14.7480  -32.7390 C   0  0  0  0  0  0  0  0  0  0  0  0
   -2.8100   15.1810  -33.1270 C   0  0  0  0  0  0  0  0  0  0  0  0
   -3.7390   14.2430  -33.5950 C   0  0  0  0  0  0  0  0  0  0  0  0
   -5.0390   14.6400  -33.9190 C   0  0  0  0  0  0  0  0  0  0  0  0
   -5.4380   15.9760  -33.7600 C   0  0  0  0  0  0  0  0  0  0  0  0
   -6.8380   16.3800  -34.1340 C   0  0  0  0  0  0  0  0  0  0  0  0
   -4.5020   16.9240  -33.2940 C   0  0  0  0  0  0  0  0  0  0  0  0
   -4.8590   18.3040  -33.1360 N   0  0  0  0  0  0  0  0  0  0  0  0
   -4.0870   19.3310  -33.8470 C   0  0  0  0  0  0  0  0  0  0  0  0
   -4.5680   20.7340  -33.4740 C   0  0  0  0  0  0  0  0  0  0  0  0
   -4.7170   20.8270  -32.0160 N   0  0  0  0  0  0  0  0  0  0  0  0
   -4.1210   21.9060  -31.2740 C   0  0  0  0  0  0  0  0  0  0  0  0
   -4.2950   23.2560  -31.5280 C   0  0  0  0  0  0  0  0  0  0  0  0
   -3.5730   23.9100  -30.5500 C   0  0  0  0  0  0  0  0  0  0  0  0
   -3.4840   25.2910  -30.4260 O   0  0  0  0  0  0  0  0  0  0  0  0
   -2.9830   23.0350  -29.7070 N   0  0  0  0  0  0  0  0  0  0  0  0
   -2.2020   23.3710  -28.5480 C   0  0  0  0  0  0  0  0  0  0  0  0
   -1.0360   22.6550  -28.2480 C   0  0  0  0  0  0  0  0  0  0  0  0
   -0.2870   22.9690  -27.1140 C   0  0  0  0  0  0  0  0  0  0  0  0
   -0.6930   24.0020  -26.2520 C   0  0  0  0  0  0  0  0  0  0  0  0
    0.1400   24.3210  -25.0380 C   0  0  0  0  0  0  0  0  0  0  0  0
   -1.8730   24.7260  -26.5460 C   0  0  0  0  0  0  0  0  0  0  0  0
   -2.3480   25.8400  -25.6500 C   0  0  0  0  0  0  0  0  0  0  0  0
   -2.6200   24.3970  -27.6900 C   0  0  0  0  0  0  0  0  0  0  0  0
   -3.3230   21.8040  -30.1470 C   0  0  0  0  0  0  0  0  0  0  0  0
   -2.9300   20.6080  -29.5470 O   0  0  0  0  0  0  0  0  0  0  0  0
   -5.4980   19.8080  -31.2960 C   0  0  0  0  0  0  0  0  0  0  0  0
   -5.9500   18.6750  -32.2260 C   0  0  0  0  0  0  0  0  0  0  0  0
   -3.2020   16.5180  -32.9650 C   0  0  0  0  0  0  0  0  0  0  0  0
   -1.3450   14.7223  -31.6424 H   0  0  0  0  0  0  0  0  0  0  0  0
   -1.2294   13.7450  -33.1451 H   0  0  0  0  0  0  0  0  0  0  0  0
   -0.6926   15.4592  -33.1451 H   0  0  0  0  0  0  0  0  0  0  0  0
   -3.4439   13.1893  -33.7080 H   0  0  0  0  0  0  0  0  0  0  0  0
   -5.7559   13.8988  -34.3020 H   0  0  0  0  0  0  0  0  0  0  0  0
   -7.4270   16.5500  -33.2206 H   0  0  0  0  0  0  0  0  0  0  0  0
   -6.8064   17.3057  -34.7274 H   0  0  0  0  0  0  0  0  0  0  0  0
   -7.3044   15.5798  -34.7274 H   0  0  0  0  0  0  0  0  0  0  0  0
   -3.0246   19.2320  -33.5796 H   0  0  0  0  0  0  0  0  0  0  0  0
   -4.2268   19.1885  -34.9287 H   0  0  0  0  0  0  0  0  0  0  0  0
   -3.8325   21.4771  -33.8159 H   0  0  0  0  0  0  0  0  0  0  0  0
   -5.5373   20.9303  -33.9557 H   0  0  0  0  0  0  0  0  0  0  0  0
   -4.8840   23.7111  -32.3379 H   0  0  0  0  0  0  0  0  0  0  0  0
   -0.7091   21.8402  -28.9107 H   0  0  0  0  0  0  0  0  0  0  0  0
    0.6298   22.4029  -26.8924 H   0  0  0  0  0  0  0  0  0  0  0  0
   -0.4377   24.0998  -24.1285 H   0  0  0  0  0  0  0  0  0  0  0  0
    1.0542   23.7093  -25.0496 H   0  0  0  0  0  0  0  0  0  0  0  0
    0.4118   25.3868  -25.0496 H   0  0  0  0  0  0  0  0  0  0  0  0
   -2.2217   25.5437  -24.5982 H   0  0  0  0  0  0  0  0  0  0  0  0
   -1.7584   26.7471  -25.8488 H   0  0  0  0  0  0  0  0  0  0  0  0
   -3.4108   26.0426  -25.8488 H   0  0  0  0  0  0  0  0  0  0  0  0
   -3.5433   24.9512  -27.9145 H   0  0  0  0  0  0  0  0  0  0  0  0
   -3.5980   19.9670  -29.1400 H   0  0  0  0  0  0  0  0  0  0  0  0
   -4.8762   19.3837  -30.4939 H   0  0  0  0  0  0  0  0  0  0  0  0
   -6.3962   20.2924  -30.8854 H   0  0  0  0  0  0  0  0  0  0  0  0
   -6.2338   17.8002  -31.6225 H   0  0  0  0  0  0  0  0  0  0  0  0
   -6.8120   19.0169  -32.8177 H   0  0  0  0  0  0  0  0  0  0  0  0
   -2.4827   17.2540  -32.5764 H   0  0  0  0  0  0  0  0  0  0  0  0
  1  2  1  0
  2  3  2  0
  3  4  1  0
  4  5  2  0
  5  6  1  0
  5  7  1  0
  7  8  1  0
  8  9  1  0
  9 10  1  0
 10 11  1  0
 11 12  1  0
 12 13  1  0
 13 14  2  0
 14 15  1  0
 14 16  1  0
 16 17  1  0
 17 18  2  0
 18 19  1  0
 19 20  2  0
 20 21  1  0
 20 22  1  0
 22 23  1  0
 22 24  2  0
 16 25  1  0
 25 26  1  0
 11 27  1  0
 27 28  1  0
  7 29  2  0
 29  2  1  0
 28  8  1  0
 25 12  2  0
 24 17  1  0
  1 30  1  0
  1 31  1  0
  1 32  1  0
  3 33  1  0
  4 34  1  0
  6 35  1  0
  6 36  1  0
  6 37  1  0
  9 38  1  0
  9 39  1  0
 10 40  1  0
 10 41  1  0
 13 42  1  0
 18 43  1  0
 19 44  1  0
 21 45  1  0
 21 46  1  0
 21 47  1  0
 23 48  1  0
 23 49  1  0
 23 50  1  0
 24 51  1  0
 26 52  1  0
 27 53  1  0
 27 54  1  0
 28 55  1  0
 28 56  1  0
 29 57  1  0
M  CHG  1  15  -1
M  END
>  <UniqueID>  (37) 
35

>  <SMILES>  (37) 
Cc1ccc(C)c(N2CCN(c3cc([O-])n(-c4ccc(C)c(C)c4)c3O)CC2)c1

>  <Energy>  (37) 
102.72856624249395

>  <Genealogy>  (37) 
Cc1ccc(C)c(N2CCN(c3cc([O-])n(-c4ccc(C)c(C)c4)c3O)CC2)c1 (protonated)
Cc1ccc(C)c(N2CCN(c3cc([O-])n(-c4ccc(C)c(C)c4)c3O)CC2)c1 (3D coordinates assigned)
Cc1ccc(C)c(N2CCN(c3cc([O-])n(-c4ccc(C)c(C)c4)c3O)CC2)c1 (nonaromatic ring conformer: 102.72856624249395 kcal/mol)

>  <smiles>  (37) 
Cc1ccc(C)c(N2CCN(c3cc(O)n(-c4ccc(C)c(C)c4)c3O)CC2)c1

>  <score_type>  (37) 
oracle

>  <origin>  (37) 
adgpu

>  <m_score__min__energy>  (37) 
-10.18

>  <m_primary>  (37) 
energy

$$$$
37:0
     RDKit          3D

 43 45  0  0  0  0  0  0  0  0999 V2000
   -0.0610   23.0540  -24.6880 C   0  0  0  0  0  0  0  0  0  0  0  0
    0.1170   22.7940  -26.0770 O   0  0  0  0  0  0  0  0  0  0  0  0
   -0.8650   23.0070  -27.0570 C   0  0  0  0  0  0  0  0  0  0  0  0
   -2.0100   22.1950  -27.1570 C   0  0  0  0  0  0  0  0  0  0  0  0
   -2.9660   22.4370  -28.1460 C   0  0  0  0  0  0  0  0  0  0  0  0
   -2.7970   23.4930  -29.0530 C   0  0  0  0  0  0  0  0  0  0  0  0
   -3.8050   23.7520  -30.0990 C   0  0  0  0  0  0  0  0  0  0  0  0
   -4.2200   24.9790  -30.4740 N   0  0  0  0  0  0  0  0  0  0  0  0
   -5.1220   24.7980  -31.4270 N   0  0  0  0  0  0  0  0  0  0  0  0
   -5.2170   23.4650  -31.5980 C   0  0  0  0  0  0  0  0  0  0  0  0
   -6.1020   22.8220  -32.5210 N   0  0  0  0  0  0  0  0  0  0  0  0
   -6.2860   21.3980  -32.6030 C   0  0  0  0  0  0  0  0  0  0  0  0
   -5.2320   20.5440  -32.9570 C   0  0  0  0  0  0  0  0  0  0  0  0
   -5.4290   19.1630  -33.0110 C   0  0  0  0  0  0  0  0  0  0  0  0
   -6.6810   18.6060  -32.7030 C   0  0  0  0  0  0  0  0  0  0  0  0
   -6.8580   17.1110  -32.7650 C   0  0  0  0  0  0  0  0  0  0  0  0
   -7.7400   19.4570  -32.3070 C   0  0  0  0  0  0  0  0  0  0  0  0
   -9.0950   18.9050  -31.9520 C   0  0  0  0  0  0  0  0  0  0  0  0
   -7.5290   20.8460  -32.2620 C   0  0  0  0  0  0  0  0  0  0  0  0
   -4.4200   22.8150  -30.7860 O   0  0  0  0  0  0  0  0  0  0  0  0
   -1.6570   24.3050  -28.9560 C   0  0  0  0  0  0  0  0  0  0  0  0
   -0.6870   24.0660  -27.9610 C   0  0  0  0  0  0  0  0  0  0  0  0
    0.4650   24.8600  -27.8380 O   0  0  0  0  0  0  0  0  0  0  0  0
    1.7900   24.3510  -27.7310 C   0  0  0  0  0  0  0  0  0  0  0  0
    0.4645   22.2864  -24.1010 H   0  0  0  0  0  0  0  0  0  0  0  0
    0.3486   24.0456  -24.4451 H   0  0  0  0  0  0  0  0  0  0  0  0
   -1.1336   23.0308  -24.4451 H   0  0  0  0  0  0  0  0  0  0  0  0
   -2.1531   21.3636  -26.4511 H   0  0  0  0  0  0  0  0  0  0  0  0
   -3.8569   21.7954  -28.2139 H   0  0  0  0  0  0  0  0  0  0  0  0
   -6.5650   23.4250  -33.2380 H   0  0  0  0  0  0  0  0  0  0  0  0
   -4.2436   20.9648  -33.1937 H   0  0  0  0  0  0  0  0  0  0  0  0
   -4.5956   18.5047  -33.2975 H   0  0  0  0  0  0  0  0  0  0  0  0
   -6.9061   16.7048  -31.7439 H   0  0  0  0  0  0  0  0  0  0  0  0
   -7.7905   16.8740  -33.2982 H   0  0  0  0  0  0  0  0  0  0  0  0
   -6.0066   16.6628  -33.2982 H   0  0  0  0  0  0  0  0  0  0  0  0
   -9.1985   18.8628  -30.8577 H   0  0  0  0  0  0  0  0  0  0  0  0
   -9.8771   19.5562  -32.3695 H   0  0  0  0  0  0  0  0  0  0  0  0
   -9.1994   17.8927  -32.3695 H   0  0  0  0  0  0  0  0  0  0  0  0
   -8.3509   21.5095  -31.9548 H   0  0  0  0  0  0  0  0  0  0  0  0
   -1.5186   25.1362  -29.6631 H   0  0  0  0  0  0  0  0  0  0  0  0
    2.0585   24.2478  -26.6693 H   0  0  0  0  0  0  0  0  0  0  0  0
    1.8456   23.3675  -28.2205 H   0  0  0  0  0  0  0  0  0  0  0  0
    2.4898   25.0443  -28.2205 H   0  0  0  0  0  0  0  0  0  0  0  0
  1  2  1  0
  2  3  1  0
  3  4  2  0
  4  5  1  0
  5  6  2  0
  6  7  1  0
  7  8  2  0
  8  9  1  0
  9 10  2  0
 10 11  1  0
 11 12  1  0
 12 13  2  0
 13 14  1  0
 14 15  2  0
 15 16  1  0
 15 17  1  0
 17 18  1  0
 17 19  2  0
 10 20  1  0
  6 21  1  0
 21 22  2  0
 22 23  1  0
 23 24  1  0
 22  3  1  0
 20  7  1  0
 19 12  1  0
  1 25  1  0
  1 26  1  0
  1 27  1  0
  4 28  1  0
  5 29  1  0
 11 30  1  0
 13 31  1  0
 14 32  1  0
 16 33  1  0
 16 34  1  0
 16 35  1  0
 18 36  1  0
 18 37  1  0
 18 38  1  0
 19 39  1  0
 21 40  1  0
 24 41  1  0
 24 42  1  0
 24 43  1  0
M  END
>  <UniqueID>  (38) 
36

>  <SMILES>  (38) 
COc1ccc(-c2nnc(Nc3ccc(C)c(C)c3)o2)cc1OC

>  <Energy>  (38) 
82.56452072595995

>  <Genealogy>  (38) 
COc1ccc(-c2nnc(Nc3ccc(C)c(C)c3)o2)cc1OC (3D coordinates assigned)
COc1ccc(-c2nnc(Nc3ccc(C)c(C)c3)o2)cc1OC (optimized conformer: 82.56452072595995 kcal/mol)

>  <smiles>  (38) 
COc1ccc(-c2nnc(Nc3ccc(C)c(C)c3)o2)cc1OC

>  <score_type>  (38) 
oracle

>  <origin>  (38) 
adgpu

>  <m_score__min__energy>  (38) 
-8.6199999999999992

>  <m_primary>  (38) 
energy

$$$$
38:0
     RDKit          3D

 46 49  0  0  0  0  0  0  0  0999 V2000
    0.1760   19.7760  -27.9530 C   0  0  0  0  0  0  0  0  0  0  0  0
   -0.9120   20.7210  -28.3900 C   0  0  0  0  0  0  0  0  0  0  0  0
   -0.6220   21.7130  -29.3430 C   0  0  0  0  0  0  0  0  0  0  0  0
   -1.6100   22.6010  -29.7680 C   0  0  0  0  0  0  0  0  0  0  0  0
   -2.9070   22.5100  -29.2530 C   0  0  0  0  0  0  0  0  0  0  0  0
   -4.1540   23.6490  -29.7620 S   0  0  0  0  0  0  0  0  0  0  0  0
   -4.5560   24.5090  -28.5960 O   0  0  0  0  0  0  0  0  0  0  0  0
   -3.5640   24.5270  -30.8310 O   0  0  0  0  0  0  0  0  0  0  0  0
   -5.5830   22.8020  -30.3860 C   0  0  0  0  0  0  0  0  0  0  0  0
   -6.8570   23.2190  -29.9760 C   0  0  0  0  0  0  0  0  0  0  0  0
   -7.9700   22.5860  -30.4240 N   0  0  0  0  0  0  0  0  0  0  0  0
   -7.9060   21.5400  -31.2860 C   0  0  0  0  0  0  0  0  0  0  0  0
   -9.0890   20.9280  -31.7160 C   0  0  0  0  0  0  0  0  0  0  0  0
   -9.0410   19.8580  -32.6110 C   0  0  0  0  0  0  0  0  0  0  0  0
  -10.1900   19.2680  -33.0240 F   0  0  0  0  0  0  0  0  0  0  0  0
   -7.8110   19.3970  -33.0840 C   0  0  0  0  0  0  0  0  0  0  0  0
   -6.6230   20.0000  -32.6620 C   0  0  0  0  0  0  0  0  0  0  0  0
   -6.6520   21.0780  -31.7510 C   0  0  0  0  0  0  0  0  0  0  0  0
   -5.4750   21.7220  -31.2950 C   0  0  0  0  0  0  0  0  0  0  0  0
   -4.1460   21.2750  -31.7670 C   0  0  0  0  0  0  0  0  0  0  0  0
   -3.4900   21.9700  -32.7940 C   0  0  0  0  0  0  0  0  0  0  0  0
   -2.2350   21.5430  -33.2400 C   0  0  0  0  0  0  0  0  0  0  0  0
   -1.6330   20.4190  -32.6660 C   0  0  0  0  0  0  0  0  0  0  0  0
   -2.2860   19.7180  -31.6470 C   0  0  0  0  0  0  0  0  0  0  0  0
   -3.5410   20.1430  -31.1980 C   0  0  0  0  0  0  0  0  0  0  0  0
   -3.2080   21.5290  -28.3020 C   0  0  0  0  0  0  0  0  0  0  0  0
   -2.2230   20.6250  -27.8660 C   0  0  0  0  0  0  0  0  0  0  0  0
   -2.5800   19.5850  -26.8380 C   0  0  0  0  0  0  0  0  0  0  0  0
    0.2137   19.7433  -26.8541 H   0  0  0  0  0  0  0  0  0  0  0  0
   -0.0344   18.7691  -28.3428 H   0  0  0  0  0  0  0  0  0  0  0  0
    1.1435   20.1253  -28.3428 H   0  0  0  0  0  0  0  0  0  0  0  0
    0.3940   21.7896  -29.7575 H   0  0  0  0  0  0  0  0  0  0  0  0
   -1.3682   23.3755  -30.5108 H   0  0  0  0  0  0  0  0  0  0  0  0
   -6.9552   24.0683  -29.2838 H   0  0  0  0  0  0  0  0  0  0  0  0
  -10.0596   21.2914  -31.3475 H   0  0  0  0  0  0  0  0  0  0  0  0
   -7.7768   18.5556  -33.7918 H   0  0  0  0  0  0  0  0  0  0  0  0
   -5.6586   19.6321  -33.0423 H   0  0  0  0  0  0  0  0  0  0  0  0
   -3.9635   22.8523  -33.2493 H   0  0  0  0  0  0  0  0  0  0  0  0
   -1.7212   22.0918  -34.0430 H   0  0  0  0  0  0  0  0  0  0  0  0
   -0.6449   20.0858  -33.0162 H   0  0  0  0  0  0  0  0  0  0  0  0
   -1.8126   18.8322  -31.1984 H   0  0  0  0  0  0  0  0  0  0  0  0
   -4.0545   19.5895  -30.3980 H   0  0  0  0  0  0  0  0  0  0  0  0
   -4.2262   21.4641  -27.8909 H   0  0  0  0  0  0  0  0  0  0  0  0
   -2.4370   20.0016  -25.8300 H   0  0  0  0  0  0  0  0  0  0  0  0
   -3.6314   19.2883  -26.9664 H   0  0  0  0  0  0  0  0  0  0  0  0
   -1.9324   18.7051  -26.9664 H   0  0  0  0  0  0  0  0  0  0  0  0
  1  2  1  0
  2  3  2  0
  3  4  1  0
  4  5  2  0
  5  6  1  0
  6  7  2  0
  6  8  2  0
  6  9  1  0
  9 10  2  0
 10 11  1  0
 11 12  2  0
 12 13  1  0
 13 14  2  0
 14 15  1  0
 14 16  1  0
 16 17  2  0
 17 18  1  0
 18 19  2  0
 19 20  1  0
 20 21  2  0
 21 22  1  0
 22 23  2  0
 23 24  1  0
 24 25  2  0
  5 26  1  0
 26 27  2  0
 27 28  1  0
 27  2  1  0
 19  9  1  0
 25 20  1  0
 18 12  1  0
  1 29  1  0
  1 30  1  0
  1 31  1  0
  3 32  1  0
  4 33  1  0
 10 34  1  0
 13 35  1  0
 16 36  1  0
 17 37  1  0
 21 38  1  0
 22 39  1  0
 23 40  1  0
 24 41  1  0
 25 42  1  0
 26 43  1  0
 28 44  1  0
 28 45  1  0
 28 46  1  0
M  END
>  <UniqueID>  (39) 
37

>  <SMILES>  (39) 
Cc1ccc(S(=O)(=O)c2cnc3cc(F)ccc3c2-c2ccccc2)cc1C

>  <Energy>  (39) 
66.89112918136072

>  <Genealogy>  (39) 
Cc1ccc(S(=O)(=O)c2cnc3cc(F)ccc3c2-c2ccccc2)cc1C (3D coordinates assigned)
Cc1ccc(S(=O)(=O)c2cnc3cc(F)ccc3c2-c2ccccc2)cc1C (optimized conformer: 66.89112918136072 kcal/mol)

>  <smiles>  (39) 
Cc1ccc(S(=O)(=O)c2cnc3cc(F)ccc3c2-c2ccccc2)cc1C

>  <score_type>  (39) 
oracle

>  <origin>  (39) 
adgpu

>  <m_score__min__energy>  (39) 
-9.8499999999999996

>  <m_primary>  (39) 
energy

$$$$
39:0
     RDKit          3D

 59 61  0  0  0  0  0  0  0  0999 V2000
   -0.1930   20.9000  -31.6410 C   0  0  0  0  0  0  0  0  0  0  0  0
   -1.5720   21.5000  -31.6400 C   0  0  0  0  0  0  0  0  0  0  0  0
   -1.8330   22.6070  -30.8130 C   0  0  0  0  0  0  0  0  0  0  0  0
   -3.1100   23.1850  -30.7730 C   0  0  0  0  0  0  0  0  0  0  0  0
   -3.4300   24.5700  -29.7320 S   0  0  0  0  0  0  0  0  0  0  0  0
   -1.9350   25.2720  -29.2390 N   0  0  0  0  0  0  0  0  0  0  0  0
   -4.2440   25.5960  -30.4720 O   0  0  0  0  0  0  0  0  0  0  0  0
   -4.2020   24.1200  -28.5220 O   0  0  0  0  0  0  0  0  0  0  0  0
   -4.1390   22.6440  -31.5530 C   0  0  0  0  0  0  0  0  0  0  0  0
   -3.8880   21.5560  -32.3910 C   0  0  0  0  0  0  0  0  0  0  0  0
   -2.6050   20.9980  -32.4670 C   0  0  0  0  0  0  0  0  0  0  0  0
   -2.3830   19.9050  -33.3680 N   0  0  0  0  0  0  0  0  0  0  0  0
   -1.7760   18.6760  -32.9330 C   0  0  0  0  0  0  0  0  0  0  0  0
   -1.5910   18.4720  -31.7020 O   0  0  0  0  0  0  0  0  0  0  0  0
   -1.4130   17.5830  -33.9210 C   0  0  0  0  0  0  0  0  0  0  0  0
   -0.5320   16.4760  -33.2990 C   0  0  0  0  0  0  0  0  0  0  0  0
   -0.6440   18.2350  -35.0770 C   0  0  0  0  0  0  0  0  0  0  0  0
   -2.5980   16.9900  -34.4830 O   0  0  0  0  0  0  0  0  0  0  0  0
   -3.9430   17.2710  -34.1650 C   0  0  0  0  0  0  0  0  0  0  0  0
   -4.6120   18.4200  -34.6300 C   0  0  0  0  0  0  0  0  0  0  0  0
   -5.9510   18.6440  -34.3020 C   0  0  0  0  0  0  0  0  0  0  0  0
   -6.6380   17.7480  -33.4820 C   0  0  0  0  0  0  0  0  0  0  0  0
   -7.9750   18.0060  -33.1600 O   0  0  0  0  0  0  0  0  0  0  0  0
   -8.3670   18.7540  -32.0380 C   0  0  0  0  0  0  0  0  0  0  0  0
   -8.7280   18.1670  -30.9780 O   0  0  0  0  0  0  0  0  0  0  0  0
   -8.3210   20.2310  -32.0850 C   0  0  0  0  0  0  0  0  0  0  0  0
   -7.1070   20.9030  -32.3190 C   0  0  0  0  0  0  0  0  0  0  0  0
   -7.0710   22.3010  -32.3630 C   0  0  0  0  0  0  0  0  0  0  0  0
   -8.2460   23.0390  -32.1770 C   0  0  0  0  0  0  0  0  0  0  0  0
   -9.4540   22.3810  -31.9490 C   0  0  0  0  0  0  0  0  0  0  0  0
   -9.4980   20.9840  -31.9020 C   0  0  0  0  0  0  0  0  0  0  0  0
   -5.9870   16.5930  -33.0180 C   0  0  0  0  0  0  0  0  0  0  0  0
   -4.6480   16.3460  -33.3600 C   0  0  0  0  0  0  0  0  0  0  0  0
   -3.9700   15.0970  -32.8840 C   0  0  0  0  0  0  0  0  0  0  0  0
    0.1438   20.7534  -30.6042 H   0  0  0  0  0  0  0  0  0  0  0  0
   -0.2154   19.9303  -32.1598 H   0  0  0  0  0  0  0  0  0  0  0  0
    0.5012   21.5774  -32.1598 H   0  0  0  0  0  0  0  0  0  0  0  0
   -1.0271   23.0238  -30.1911 H   0  0  0  0  0  0  0  0  0  0  0  0
   -1.4880   25.6680  -30.0930 H   0  0  0  0  0  0  0  0  0  0  0  0
   -5.1488   23.0777  -31.5054 H   0  0  0  0  0  0  0  0  0  0  0  0
   -4.7037   21.1336  -32.9962 H   0  0  0  0  0  0  0  0  0  0  0  0
   -2.4670   20.1070  -34.3850 H   0  0  0  0  0  0  0  0  0  0  0  0
   -0.5829   16.5400  -32.2020 H   0  0  0  0  0  0  0  0  0  0  0  0
   -0.8958   15.4908  -33.6261 H   0  0  0  0  0  0  0  0  0  0  0  0
    0.5097   16.6093  -33.6261 H   0  0  0  0  0  0  0  0  0  0  0  0
    0.1360   18.8963  -34.6717 H   0  0  0  0  0  0  0  0  0  0  0  0
   -0.1774   17.4531  -35.6942 H   0  0  0  0  0  0  0  0  0  0  0  0
   -1.3391   18.8232  -35.6942 H   0  0  0  0  0  0  0  0  0  0  0  0
   -4.0752   19.1472  -35.2569 H   0  0  0  0  0  0  0  0  0  0  0  0
   -6.4677   19.5330  -34.6928 H   0  0  0  0  0  0  0  0  0  0  0  0
   -6.1821   20.3266  -32.4680 H   0  0  0  0  0  0  0  0  0  0  0  0
   -6.1185   22.8207  -32.5439 H   0  0  0  0  0  0  0  0  0  0  0  0
   -8.2163   24.1381  -32.2107 H   0  0  0  0  0  0  0  0  0  0  0  0
  -10.3762   22.9632  -31.8055 H   0  0  0  0  0  0  0  0  0  0  0  0
  -10.4544   20.4713  -31.7216 H   0  0  0  0  0  0  0  0  0  0  0  0
   -6.5298   15.8776  -32.3827 H   0  0  0  0  0  0  0  0  0  0  0  0
   -3.9613   15.0809  -31.7842 H   0  0  0  0  0  0  0  0  0  0  0  0
   -4.5149   14.2182  -33.2592 H   0  0  0  0  0  0  0  0  0  0  0  0
   -2.9362   15.0752  -33.2592 H   0  0  0  0  0  0  0  0  0  0  0  0
  1  2  1  0
  2  3  2  0
  3  4  1  0
  4  5  1  0
  5  6  1  0
  5  7  2  0
  5  8  2  0
  4  9  2  0
  9 10  1  0
 10 11  2  0
 11 12  1  0
 12 13  1  0
 13 14  2  0
 13 15  1  0
 15 16  1  0
 15 17  1  0
 15 18  1  0
 18 19  1  0
 19 20  2  0
 20 21  1  0
 21 22  2  0
 22 23  1  0
 23 24  1  0
 24 25  2  0
 24 26  1  0
 26 27  2  0
 27 28  1  0
 28 29  2  0
 29 30  1  0
 30 31  2  0
 22 32  1  0
 32 33  2  0
 33 34  1  0
 11  2  1  0
 33 19  1  0
 31 26  1  0
  1 35  1  0
  1 36  1  0
  1 37  1  0
  3 38  1  0
  6 39  1  0
  9 40  1  0
 10 41  1  0
 12 42  1  0
 16 43  1  0
 16 44  1  0
 16 45  1  0
 17 46  1  0
 17 47  1  0
 17 48  1  0
 20 49  1  0
 21 50  1  0
 27 51  1  0
 28 52  1  0
 29 53  1  0
 30 54  1  0
 31 55  1  0
 32 56  1  0
 34 57  1  0
 34 58  1  0
 34 59  1  0
M  CHG  1   6  -1
M  END
>  <UniqueID>  (40) 
38

>  <SMILES>  (40) 
Cc1cc(S([NH-])(=O)=O)ccc1NC(=O)C(C)(C)Oc1ccc(OC(=O)c2ccccc2)cc1C

>  <Energy>  (40) 
73.69544552879242

>  <Genealogy>  (40) 
Cc1cc(S([NH-])(=O)=O)ccc1NC(=O)C(C)(C)Oc1ccc(OC(=O)c2ccccc2)cc1C (protonated)
Cc1cc(S([NH-])(=O)=O)ccc1NC(=O)C(C)(C)Oc1ccc(OC(=O)c2ccccc2)cc1C (3D coordinates assigned)
Cc1cc(S([NH-])(=O)=O)ccc1NC(=O)C(C)(C)Oc1ccc(OC(=O)c2ccccc2)cc1C (optimized conformer: 73.69544552879242 kcal/mol)

>  <smiles>  (40) 
Cc1cc(S(N)(=O)=O)ccc1NC(=O)C(C)(C)Oc1ccc(OC(=O)c2ccccc2)cc1C

>  <score_type>  (40) 
oracle

>  <origin>  (40) 
adgpu

>  <m_score__min__energy>  (40) 
-12.390000000000001

>  <m_primary>  (40) 
energy

$$$$
40:0
     RDKit          3D

 32 34  0  0  0  0  0  0  0  0999 V2000
   -9.4940   18.9990  -32.4920 C   0  0  0  0  0  0  0  0  0  0  0  0
   -9.3490   20.4040  -32.6740 O   0  0  0  0  0  0  0  0  0  0  0  0
   -8.2780   21.1600  -32.1740 C   0  0  0  0  0  0  0  0  0  0  0  0
   -7.0000   20.5880  -32.1820 C   0  0  0  0  0  0  0  0  0  0  0  0
   -5.9000   21.3000  -31.6960 C   0  0  0  0  0  0  0  0  0  0  0  0
   -6.0630   22.6010  -31.1920 C   0  0  0  0  0  0  0  0  0  0  0  0
   -4.9060   23.3590  -30.6780 C   0  0  0  0  0  0  0  0  0  0  0  0
   -4.6540   24.6530  -30.9580 N   0  0  0  0  0  0  0  0  0  0  0  0
   -3.5380   24.9620  -30.3170 N   0  0  0  0  0  0  0  0  0  0  0  0
   -3.1470   23.8460  -29.6690 C   0  0  0  0  0  0  0  0  0  0  0  0
   -1.9330   23.7530  -28.8240 C   0  0  0  0  0  0  0  0  0  0  0  0
   -1.5040   22.4960  -28.3580 C   0  0  0  0  0  0  0  0  0  0  0  0
   -0.3630   22.3870  -27.5600 C   0  0  0  0  0  0  0  0  0  0  0  0
    0.3650   23.5270  -27.2180 C   0  0  0  0  0  0  0  0  0  0  0  0
   -0.0480   24.7810  -27.6740 C   0  0  0  0  0  0  0  0  0  0  0  0
   -1.1930   24.9040  -28.4750 C   0  0  0  0  0  0  0  0  0  0  0  0
   -1.5900   26.1650  -28.9200 O   0  0  0  0  0  0  0  0  0  0  0  0
   -3.9850   22.8610  -29.8890 O   0  0  0  0  0  0  0  0  0  0  0  0
   -7.3430   23.1770  -31.1850 C   0  0  0  0  0  0  0  0  0  0  0  0
   -8.4430   22.4640  -31.6700 C   0  0  0  0  0  0  0  0  0  0  0  0
   -9.5177   18.7691  -31.4166 H   0  0  0  0  0  0  0  0  0  0  0  0
  -10.4315   18.6635  -32.9594 H   0  0  0  0  0  0  0  0  0  0  0  0
   -8.6447   18.4791  -32.9594 H   0  0  0  0  0  0  0  0  0  0  0  0
   -6.8606   19.5697  -32.5741 H   0  0  0  0  0  0  0  0  0  0  0  0
   -4.9013   20.8392  -31.7082 H   0  0  0  0  0  0  0  0  0  0  0  0
   -2.0719   21.5924  -28.6244 H   0  0  0  0  0  0  0  0  0  0  0  0
   -0.0375   21.3998  -27.2002 H   0  0  0  0  0  0  0  0  0  0  0  0
    1.2636   23.4383  -26.5897 H   0  0  0  0  0  0  0  0  0  0  0  0
    0.5284   25.6779  -27.4032 H   0  0  0  0  0  0  0  0  0  0  0  0
   -2.5660   26.4300  -28.9700 H   0  0  0  0  0  0  0  0  0  0  0  0
   -7.4813   24.1963  -30.7952 H   0  0  0  0  0  0  0  0  0  0  0  0
   -9.4422   22.9239  -31.6578 H   0  0  0  0  0  0  0  0  0  0  0  0
  1  2  1  0
  2  3  1  0
  3  4  2  0
  4  5  1  0
  5  6  2  0
  6  7  1  0
  7  8  2  0
  8  9  1  0
  9 10  2  0
 10 11  1  0
 11 12  2  0
 12 13  1  0
 13 14  2  0
 14 15  1  0
 15 16  2  0
 16 17  1  0
 10 18  1  0
  6 19  1  0
 19 20  2  0
 20  3  1  0
 18  7  1  0
 16 11  1  0
  1 21  1  0
  1 22  1  0
  1 23  1  0
  4 24  1  0
  5 25  1  0
 12 26  1  0
 13 27  1  0
 14 28  1  0
 15 29  1  0
 17 30  1  0
 19 31  1  0
 20 32  1  0
M  END
>  <UniqueID>  (41) 
39

>  <SMILES>  (41) 
COc1ccc(-c2nnc(-c3ccccc3O)o2)cc1

>  <Energy>  (41) 
69.71728744631363

>  <Genealogy>  (41) 
COc1ccc(-c2nnc(-c3ccccc3O)o2)cc1 (3D coordinates assigned)
COc1ccc(-c2nnc(-c3ccccc3O)o2)cc1 (optimized conformer: 69.71728744631363 kcal/mol)

>  <smiles>  (41) 
COc1ccc(-c2nnc(-c3ccccc3O)o2)cc1

>  <score_type>  (41) 
oracle

>  <origin>  (41) 
adgpu

>  <m_score__min__energy>  (41) 
-8.0999999999999996

>  <m_primary>  (41) 
energy

$$$$
41:0
     RDKit          3D

 35 37  0  0  0  0  0  0  0  0999 V2000
   -6.5050   15.5030  -34.0140 C   0  0  0  0  0  0  0  0  0  0  0  0
   -6.5580   16.9570  -33.6950 C   0  0  0  0  0  0  0  0  0  0  0  0
   -7.6150   17.5450  -33.0810 N   0  0  0  0  0  0  0  0  0  0  0  0
   -7.3730   18.8610  -32.8550 C   0  0  0  0  0  0  0  0  0  0  0  0
   -8.2690   19.7320  -32.2380 C   0  0  0  0  0  0  0  0  0  0  0  0
   -7.8920   21.0730  -32.0530 C   0  0  0  0  0  0  0  0  0  0  0  0
   -6.6280   21.5380  -32.4950 C   0  0  0  0  0  0  0  0  0  0  0  0
   -6.2180   22.9020  -32.2890 N   0  0  0  0  0  0  0  0  0  0  0  0
   -6.3890   23.6170  -31.0560 C   0  0  0  0  0  0  0  0  0  0  0  0
   -7.1340   23.1630  -30.1460 O   0  0  0  0  0  0  0  0  0  0  0  0
   -5.7210   24.9410  -30.8680 C   0  0  0  0  0  0  0  0  0  0  0  0
   -4.3090   24.7510  -30.8330 O   0  0  0  0  0  0  0  0  0  0  0  0
   -3.6760   23.5340  -30.5370 C   0  0  0  0  0  0  0  0  0  0  0  0
   -3.1960   22.6750  -31.5470 C   0  0  0  0  0  0  0  0  0  0  0  0
   -2.5700   21.4710  -31.2080 C   0  0  0  0  0  0  0  0  0  0  0  0
   -2.4180   21.1130  -29.8670 C   0  0  0  0  0  0  0  0  0  0  0  0
   -2.8910   21.9580  -28.8600 C   0  0  0  0  0  0  0  0  0  0  0  0
   -3.5180   23.1650  -29.1910 C   0  0  0  0  0  0  0  0  0  0  0  0
   -4.1050   24.2090  -27.9060 Cl  0  0  0  0  0  0  0  0  0  0  0  0
   -5.7290   20.6340  -33.0950 C   0  0  0  0  0  0  0  0  0  0  0  0
   -6.1310   19.3140  -33.2680 C   0  0  0  0  0  0  0  0  0  0  0  0
   -5.2780   18.0390  -33.9470 S   0  0  0  0  0  0  0  0  0  0  0  0
   -6.4839   14.9231  -33.0795 H   0  0  0  0  0  0  0  0  0  0  0  0
   -7.3935   15.2233  -34.5990 H   0  0  0  0  0  0  0  0  0  0  0  0
   -5.5984   15.2888  -34.5990 H   0  0  0  0  0  0  0  0  0  0  0  0
   -9.2540   19.3760  -31.9017 H   0  0  0  0  0  0  0  0  0  0  0  0
   -8.5856   21.7698  -31.5596 H   0  0  0  0  0  0  0  0  0  0  0  0
   -5.8400   23.4290  -33.1080 H   0  0  0  0  0  0  0  0  0  0  0  0
   -5.9823   25.6072  -31.7034 H   0  0  0  0  0  0  0  0  0  0  0  0
   -6.0571   25.3945  -29.9239 H   0  0  0  0  0  0  0  0  0  0  0  0
   -3.3142   22.9526  -32.6048 H   0  0  0  0  0  0  0  0  0  0  0  0
   -2.1966   20.8047  -31.9996 H   0  0  0  0  0  0  0  0  0  0  0  0
   -1.9257   20.1653  -29.6033 H   0  0  0  0  0  0  0  0  0  0  0  0
   -2.7704   21.6741  -27.8041 H   0  0  0  0  0  0  0  0  0  0  0  0
   -4.7314   20.9650  -33.4193 H   0  0  0  0  0  0  0  0  0  0  0  0
  1  2  1  0
  2  3  2  0
  3  4  1  0
  4  5  2  0
  5  6  1  0
  6  7  2  0
  7  8  1  0
  8  9  1  0
  9 10  2  0
  9 11  1  0
 11 12  1  0
 12 13  1  0
 13 14  2  0
 14 15  1  0
 15 16  2  0
 16 17  1  0
 17 18  2  0
 18 19  1  0
  7 20  1  0
 20 21  2  0
 21 22  1  0
 22  2  1  0
 21  4  1  0
 18 13  1  0
  1 23  1  0
  1 24  1  0
  1 25  1  0
  5 26  1  0
  6 27  1  0
  8 28  1  0
 11 29  1  0
 11 30  1  0
 14 31  1  0
 15 32  1  0
 16 33  1  0
 17 34  1  0
 20 35  1  0
M  END
>  <UniqueID>  (42) 
40

>  <SMILES>  (42) 
Cc1nc2ccc(NC(=O)COc3ccccc3Cl)cc2s1

>  <Energy>  (42) 
71.97457628490615

>  <Genealogy>  (42) 
Cc1nc2ccc(NC(=O)COc3ccccc3Cl)cc2s1 (3D coordinates assigned)
Cc1nc2ccc(NC(=O)COc3ccccc3Cl)cc2s1 (optimized conformer: 71.97457628490615 kcal/mol)

>  <smiles>  (42) 
Cc1nc2ccc(NC(=O)COc3ccccc3Cl)cc2s1

>  <score_type>  (42) 
oracle

>  <origin>  (42) 
adgpu

>  <m_score__min__energy>  (42) 
-8.4600000000000009

>  <m_primary>  (42) 
energy

$$$$
42:0
     RDKit          3D

 24 25  0  0  0  0  0  0  0  0999 V2000
   -5.6800   26.2030  -30.4990 O   0  0  0  0  0  0  0  0  0  0  0  0
   -5.0120   25.1630  -30.7420 C   0  0  0  0  0  0  0  0  0  0  0  0
   -3.6050   25.1720  -30.4670 N   0  0  0  0  0  0  0  0  0  0  0  0
   -2.9550   24.5460  -29.3510 C   0  0  0  0  0  0  0  0  0  0  0  0
   -1.6490   24.8880  -28.9600 C   0  0  0  0  0  0  0  0  0  0  0  0
   -1.0670   24.2640  -27.8560 C   0  0  0  0  0  0  0  0  0  0  0  0
   -1.8000   23.3140  -27.1430 C   0  0  0  0  0  0  0  0  0  0  0  0
   -3.0700   23.0100  -27.5180 N   0  0  0  0  0  0  0  0  0  0  0  0
   -3.6590   23.6050  -28.5910 C   0  0  0  0  0  0  0  0  0  0  0  0
   -5.7080   23.9500  -31.2360 C   0  0  0  0  0  0  0  0  0  0  0  0
   -7.1070   23.8420  -31.1320 C   0  0  0  0  0  0  0  0  0  0  0  0
   -7.7660   22.7020  -31.6010 C   0  0  0  0  0  0  0  0  0  0  0  0
   -7.0390   21.6620  -32.1840 C   0  0  0  0  0  0  0  0  0  0  0  0
   -5.6510   21.7620  -32.3030 C   0  0  0  0  0  0  0  0  0  0  0  0
   -4.9840   22.8990  -31.8360 C   0  0  0  0  0  0  0  0  0  0  0  0
   -3.6320   22.9620  -31.9480 F   0  0  0  0  0  0  0  0  0  0  0  0
   -1.0863   25.6467  -29.5237 H   0  0  0  0  0  0  0  0  0  0  0  0
   -0.0412   24.5181  -27.5508 H   0  0  0  0  0  0  0  0  0  0  0  0
   -1.3485   22.8103  -26.2756 H   0  0  0  0  0  0  0  0  0  0  0  0
   -4.6929   23.3452  -28.8621 H   0  0  0  0  0  0  0  0  0  0  0  0
   -7.6860   24.6601  -30.6786 H   0  0  0  0  0  0  0  0  0  0  0  0
   -8.8595   22.6239  -31.5107 H   0  0  0  0  0  0  0  0  0  0  0  0
   -7.5593   20.7643  -32.5494 H   0  0  0  0  0  0  0  0  0  0  0  0
   -5.0803   20.9434  -32.7658 H   0  0  0  0  0  0  0  0  0  0  0  0
  1  2  2  0
  2  3  1  0
  3  4  1  0
  4  5  2  0
  5  6  1  0
  6  7  2  0
  7  8  1  0
  8  9  2  0
  2 10  1  0
 10 11  2  0
 11 12  1  0
 12 13  2  0
 13 14  1  0
 14 15  2  0
 15 16  1  0
  9  4  1  0
 15 10  1  0
  5 17  1  0
  6 18  1  0
  7 19  1  0
  9 20  1  0
 11 21  1  0
 12 22  1  0
 13 23  1  0
 14 24  1  0
M  CHG  1   3  -1
M  END
>  <UniqueID>  (43) 
41

>  <SMILES>  (43) 
O=C([N-]c1cccnc1)c1ccccc1F

>  <Energy>  (43) 
33.39942126637663

>  <Genealogy>  (43) 
O=C([N-]c1cccnc1)c1ccccc1F (protonated)
O=C([N-]c1cccnc1)c1ccccc1F (3D coordinates assigned)
O=C([N-]c1cccnc1)c1ccccc1F (optimized conformer: 33.39942126637663 kcal/mol)

>  <smiles>  (43) 
O=C(Nc1cccnc1)c1ccccc1F

>  <score_type>  (43) 
oracle

>  <origin>  (43) 
adgpu

>  <m_score__min__energy>  (43) 
-7.4100000000000001

>  <m_primary>  (43) 
energy

$$$$
43:0
     RDKit          3D

 38 40  0  0  0  0  0  0  0  0999 V2000
   -5.3620   26.2630  -30.7160 O   0  0  0  0  0  0  0  0  0  0  0  0
   -4.9130   24.9690  -30.0960 S   0  0  0  0  0  0  0  0  0  0  0  0
   -5.3860   24.9170  -28.6710 O   0  0  0  0  0  0  0  0  0  0  0  0
   -3.1770   24.8970  -30.1210 N   0  0  0  0  0  0  0  0  0  0  0  0
   -2.3580   24.4620  -29.0260 C   0  0  0  0  0  0  0  0  0  0  0  0
   -2.5780   23.2400  -28.3640 C   0  0  0  0  0  0  0  0  0  0  0  0
   -1.7410   22.8460  -27.3160 C   0  0  0  0  0  0  0  0  0  0  0  0
   -0.6830   23.6660  -26.9120 C   0  0  0  0  0  0  0  0  0  0  0  0
    0.1450   23.2560  -25.8680 O   0  0  0  0  0  0  0  0  0  0  0  0
   -0.4690   24.8910  -27.5570 C   0  0  0  0  0  0  0  0  0  0  0  0
   -1.3040   25.2860  -28.6080 C   0  0  0  0  0  0  0  0  0  0  0  0
   -5.5830   23.6310  -31.0240 C   0  0  0  0  0  0  0  0  0  0  0  0
   -4.7530   22.6070  -31.5010 C   0  0  0  0  0  0  0  0  0  0  0  0
   -5.2820   21.5790  -32.2870 C   0  0  0  0  0  0  0  0  0  0  0  0
   -6.6550   21.5570  -32.5950 C   0  0  0  0  0  0  0  0  0  0  0  0
   -7.2180   20.5690  -33.4160 O   0  0  0  0  0  0  0  0  0  0  0  0
   -6.8090   19.2290  -33.4690 C   0  0  0  0  0  0  0  0  0  0  0  0
   -7.4840   18.2180  -32.7640 C   0  0  0  0  0  0  0  0  0  0  0  0
   -7.0500   16.8910  -32.8480 C   0  0  0  0  0  0  0  0  0  0  0  0
   -5.9450   16.5590  -33.6410 C   0  0  0  0  0  0  0  0  0  0  0  0
   -5.4200   14.8820  -33.7110 Cl  0  0  0  0  0  0  0  0  0  0  0  0
   -5.2760   17.5640  -34.3600 C   0  0  0  0  0  0  0  0  0  0  0  0
   -3.8610   17.1980  -35.3350 Cl  0  0  0  0  0  0  0  0  0  0  0  0
   -5.7210   18.8890  -34.2810 C   0  0  0  0  0  0  0  0  0  0  0  0
   -7.4800   22.5810  -32.1160 C   0  0  0  0  0  0  0  0  0  0  0  0
   -6.9510   23.6090  -31.3300 C   0  0  0  0  0  0  0  0  0  0  0  0
   -3.4119   22.5922  -28.6723 H   0  0  0  0  0  0  0  0  0  0  0  0
   -1.9155   21.8866  -26.8069 H   0  0  0  0  0  0  0  0  0  0  0  0
    0.1380   23.7270  -24.9710 H   0  0  0  0  0  0  0  0  0  0  0  0
    0.3567   25.5434  -27.2367 H   0  0  0  0  0  0  0  0  0  0  0  0
   -1.1321   26.2498  -29.1096 H   0  0  0  0  0  0  0  0  0  0  0  0
   -3.6807   22.6123  -31.2558 H   0  0  0  0  0  0  0  0  0  0  0  0
   -4.6226   20.7844  -32.6661 H   0  0  0  0  0  0  0  0  0  0  0  0
   -8.3567   18.4711  -32.1440 H   0  0  0  0  0  0  0  0  0  0  0  0
   -7.5789   16.1052  -32.2888 H   0  0  0  0  0  0  0  0  0  0  0  0
   -5.2105   19.6706  -34.8629 H   0  0  0  0  0  0  0  0  0  0  0  0
   -8.5526   22.5770  -32.3598 H   0  0  0  0  0  0  0  0  0  0  0  0
   -7.6104   24.4034  -30.9503 H   0  0  0  0  0  0  0  0  0  0  0  0
  1  2  2  0
  2  3  2  0
  2  4  1  0
  4  5  1  0
  5  6  2  0
  6  7  1  0
  7  8  2  0
  8  9  1  0
  8 10  1  0
 10 11  2  0
  2 12  1  0
 12 13  2  0
 13 14  1  0
 14 15  2  0
 15 16  1  0
 16 17  1  0
 17 18  2  0
 18 19  1  0
 19 20  2  0
 20 21  1  0
 20 22  1  0
 22 23  1  0
 22 24  2  0
 15 25  1  0
 25 26  2  0
 11  5  1  0
 26 12  1  0
 24 17  1  0
  6 27  1  0
  7 28  1  0
  9 29  1  0
 10 30  1  0
 11 31  1  0
 13 32  1  0
 14 33  1  0
 18 34  1  0
 19 35  1  0
 24 36  1  0
 25 37  1  0
 26 38  1  0
M  CHG  1   4  -1
M  END
>  <UniqueID>  (44) 
42

>  <SMILES>  (44) 
O=S(=O)([N-]c1ccc(O)cc1)c1ccc(Oc2ccc(Cl)c(Cl)c2)cc1

>  <Energy>  (44) 
51.122528264347956

>  <Genealogy>  (44) 
O=S(=O)([N-]c1ccc(O)cc1)c1ccc(Oc2ccc(Cl)c(Cl)c2)cc1 (protonated)
O=S(=O)([N-]c1ccc(O)cc1)c1ccc(Oc2ccc(Cl)c(Cl)c2)cc1 (3D coordinates assigned)
O=S(=O)([N-]c1ccc(O)cc1)c1ccc(Oc2ccc(Cl)c(Cl)c2)cc1 (optimized conformer: 51.122528264347956 kcal/mol)

>  <smiles>  (44) 
O=S(=O)(Nc1ccc(O)cc1)c1ccc(Oc2ccc(Cl)c(Cl)c2)cc1

>  <score_type>  (44) 
oracle

>  <origin>  (44) 
adgpu

>  <m_score__min__energy>  (44) 
-10.09

>  <m_primary>  (44) 
energy

$$$$
44:0
     RDKit          3D

 28 30  0  0  0  0  0  0  0  0999 V2000
   -3.2770   19.7490  -30.9850 O   0  0  0  0  0  0  0  0  0  0  0  0
   -3.8400   20.8510  -31.2370 C   0  0  0  0  0  0  0  0  0  0  0  0
   -4.9990   20.8890  -32.0350 C   0  0  0  0  0  0  0  0  0  0  0  0
   -5.5800   19.6620  -32.6340 C   0  0  0  0  0  0  0  0  0  0  0  0
   -5.0770   19.1570  -33.8460 C   0  0  0  0  0  0  0  0  0  0  0  0
   -5.6180   17.9960  -34.4080 C   0  0  0  0  0  0  0  0  0  0  0  0
   -6.6620   17.3260  -33.7640 C   0  0  0  0  0  0  0  0  0  0  0  0
   -7.1970   16.1730  -34.3240 O   0  0  0  0  0  0  0  0  0  0  0  0
   -7.1650   17.8150  -32.5560 C   0  0  0  0  0  0  0  0  0  0  0  0
   -6.6270   18.9770  -31.9910 C   0  0  0  0  0  0  0  0  0  0  0  0
   -5.6110   22.1330  -32.2540 C   0  0  0  0  0  0  0  0  0  0  0  0
   -5.1050   23.2440  -31.7330 O   0  0  0  0  0  0  0  0  0  0  0  0
   -4.0070   23.2560  -30.9830 C   0  0  0  0  0  0  0  0  0  0  0  0
   -3.5240   24.4710  -30.4640 C   0  0  0  0  0  0  0  0  0  0  0  0
   -4.1770   25.6750  -30.7250 O   0  0  0  0  0  0  0  0  0  0  0  0
   -2.3680   24.4770  -29.6720 C   0  0  0  0  0  0  0  0  0  0  0  0
   -1.8850   25.6740  -29.1560 O   0  0  0  0  0  0  0  0  0  0  0  0
   -1.6960   23.2840  -29.3950 C   0  0  0  0  0  0  0  0  0  0  0  0
   -2.1700   22.0730  -29.9060 C   0  0  0  0  0  0  0  0  0  0  0  0
   -3.3270   22.0480  -30.7050 C   0  0  0  0  0  0  0  0  0  0  0  0
   -4.2530   19.6781  -34.3553 H   0  0  0  0  0  0  0  0  0  0  0  0
   -5.2212   17.6096  -35.3584 H   0  0  0  0  0  0  0  0  0  0  0  0
   -7.9850   17.2861  -32.0482 H   0  0  0  0  0  0  0  0  0  0  0  0
   -7.0252   19.3568  -31.0386 H   0  0  0  0  0  0  0  0  0  0  0  0
   -6.5232   22.1880  -32.8663 H   0  0  0  0  0  0  0  0  0  0  0  0
   -3.8630   26.5560  -30.3320 H   0  0  0  0  0  0  0  0  0  0  0  0
   -0.7897   23.2981  -28.7718 H   0  0  0  0  0  0  0  0  0  0  0  0
   -1.6369   21.1370  -29.6828 H   0  0  0  0  0  0  0  0  0  0  0  0
  1  2  2  0
  2  3  1  0
  3  4  1  0
  4  5  2  0
  5  6  1  0
  6  7  2  0
  7  8  1  0
  7  9  1  0
  9 10  2  0
  3 11  2  0
 11 12  1  0
 12 13  1  0
 13 14  2  0
 14 15  1  0
 14 16  1  0
 16 17  1  0
 16 18  2  0
 18 19  1  0
 19 20  2  0
 20  2  1  0
 10  4  1  0
 20 13  1  0
  5 21  1  0
  6 22  1  0
  9 23  1  0
 10 24  1  0
 11 25  1  0
 15 26  1  0
 18 27  1  0
 19 28  1  0
M  CHG  2   8  -1  17  -1
M  END
>  <UniqueID>  (45) 
43

>  <SMILES>  (45) 
O=c1c(-c2ccc([O-])cc2)coc2c(O)c([O-])ccc12

>  <Energy>  (45) 
43.78443214759316

>  <Genealogy>  (45) 
O=c1c(-c2ccc([O-])cc2)coc2c(O)c([O-])ccc12 (protonated)
O=c1c(-c2ccc([O-])cc2)coc2c(O)c([O-])ccc12 (3D coordinates assigned)
O=c1c(-c2ccc([O-])cc2)coc2c(O)c([O-])ccc12 (optimized conformer: 43.78443214759316 kcal/mol)

>  <smiles>  (45) 
O=c1c(-c2ccc(O)cc2)coc2c(O)c(O)ccc12

>  <score_type>  (45) 
oracle

>  <origin>  (45) 
adgpu

>  <m_score__min__energy>  (45) 
-10.09

>  <m_primary>  (45) 
energy

$$$$
45:0
     RDKit          3D

 59 62  0  0  0  0  0  0  0  0999 V2000
    0.6310   20.5040  -33.5020 C   0  0  0  0  0  0  0  0  0  0  0  0
   -0.4240   21.3970  -33.1540 O   0  0  0  0  0  0  0  0  0  0  0  0
   -1.1780   21.3220  -31.9690 C   0  0  0  0  0  0  0  0  0  0  0  0
   -0.8120   22.0440  -30.8150 C   0  0  0  0  0  0  0  0  0  0  0  0
   -1.5580   21.9300  -29.6400 C   0  0  0  0  0  0  0  0  0  0  0  0
   -2.6840   21.1090  -29.6040 C   0  0  0  0  0  0  0  0  0  0  0  0
   -3.0700   20.4020  -30.7420 C   0  0  0  0  0  0  0  0  0  0  0  0
   -2.3200   20.4870  -31.9290 C   0  0  0  0  0  0  0  0  0  0  0  0
   -2.7390   19.7060  -33.1230 C   0  0  0  0  0  0  0  0  0  0  0  0
   -1.9440   18.8710  -33.6300 O   0  0  0  0  0  0  0  0  0  0  0  0
   -4.0100   19.9130  -33.7570 N   0  0  0  0  0  0  0  0  0  0  0  0
   -5.2670   20.1050  -33.0890 C   0  0  0  0  0  0  0  0  0  0  0  0
   -5.6960   21.3910  -32.7170 C   0  0  0  0  0  0  0  0  0  0  0  0
   -6.9090   21.5670  -32.0440 C   0  0  0  0  0  0  0  0  0  0  0  0
   -7.4110   23.1920  -31.5880 S   0  0  0  0  0  0  0  0  0  0  0  0
   -6.8050   24.1630  -32.5660 O   0  0  0  0  0  0  0  0  0  0  0  0
   -8.9100   23.3050  -31.6740 O   0  0  0  0  0  0  0  0  0  0  0  0
   -6.8520   23.5710  -29.9670 N   0  0  0  0  0  0  0  0  0  0  0  0
   -5.5530   22.9170  -29.6700 C   0  0  0  0  0  0  0  0  0  0  0  0
   -4.3550   23.8690  -29.8470 C   0  0  0  0  0  0  0  0  0  0  0  0
   -4.6050   24.7960  -30.8820 O   0  0  0  0  0  0  0  0  0  0  0  0
   -5.6330   25.7000  -30.5020 C   0  0  0  0  0  0  0  0  0  0  0  0
   -6.7990   25.0290  -29.7350 C   0  0  0  0  0  0  0  0  0  0  0  0
   -7.6880   20.4510  -31.7100 C   0  0  0  0  0  0  0  0  0  0  0  0
   -7.2580   19.1690  -32.0550 C   0  0  0  0  0  0  0  0  0  0  0  0
   -6.0510   18.9870  -32.7430 C   0  0  0  0  0  0  0  0  0  0  0  0
   -5.6110   17.6600  -33.0690 N   0  0  0  0  0  0  0  0  0  0  0  0
   -5.2570   17.3490  -34.4650 C   0  0  0  0  0  0  0  0  0  0  0  0
   -4.4630   16.0290  -34.6110 C   0  0  0  0  0  0  0  0  0  0  0  0
   -3.9000   15.6030  -33.3870 O   0  0  0  0  0  0  0  0  0  0  0  0
   -4.9420   15.3580  -32.4660 C   0  0  0  0  0  0  0  0  0  0  0  0
   -5.5100   16.6850  -31.9750 C   0  0  0  0  0  0  0  0  0  0  0  0
    1.0957   20.1107  -32.5858 H   0  0  0  0  0  0  0  0  0  0  0  0
    0.2255   19.6705  -34.0944 H   0  0  0  0  0  0  0  0  0  0  0  0
    1.3860   21.0416  -34.0944 H   0  0  0  0  0  0  0  0  0  0  0  0
    0.0686   22.7027  -30.8402 H   0  0  0  0  0  0  0  0  0  0  0  0
   -1.2567   22.4888  -28.7417 H   0  0  0  0  0  0  0  0  0  0  0  0
   -3.2687   21.0188  -28.6766 H   0  0  0  0  0  0  0  0  0  0  0  0
   -3.9705   19.7711  -30.7113 H   0  0  0  0  0  0  0  0  0  0  0  0
   -5.0729   22.2652  -32.9571 H   0  0  0  0  0  0  0  0  0  0  0  0
   -7.5700   23.1750  -29.3120 H   0  0  0  0  0  0  0  0  0  0  0  0
   -5.5683   22.5600  -28.6297 H   0  0  0  0  0  0  0  0  0  0  0  0
   -5.4273   22.0882  -30.3822 H   0  0  0  0  0  0  0  0  0  0  0  0
   -4.1846   24.4142  -28.9069 H   0  0  0  0  0  0  0  0  0  0  0  0
   -3.4667   23.2757  -30.1095 H   0  0  0  0  0  0  0  0  0  0  0  0
   -5.1932   26.4749  -29.8569 H   0  0  0  0  0  0  0  0  0  0  0  0
   -6.0547   26.1157  -31.4290 H   0  0  0  0  0  0  0  0  0  0  0  0
   -6.6670   25.2121  -28.6584 H   0  0  0  0  0  0  0  0  0  0  0  0
   -7.7402   25.4643  -30.1020 H   0  0  0  0  0  0  0  0  0  0  0  0
   -8.6397   20.5857  -31.1751 H   0  0  0  0  0  0  0  0  0  0  0  0
   -7.8704   18.2960  -31.7852 H   0  0  0  0  0  0  0  0  0  0  0  0
   -6.1842   17.2663  -35.0510 H   0  0  0  0  0  0  0  0  0  0  0  0
   -4.6109   18.1619  -34.8281 H   0  0  0  0  0  0  0  0  0  0  0  0
   -5.1427   15.2463  -34.9790 H   0  0  0  0  0  0  0  0  0  0  0  0
   -3.6380   16.2091  -35.3160 H   0  0  0  0  0  0  0  0  0  0  0  0
   -5.7372   14.7785  -32.9579 H   0  0  0  0  0  0  0  0  0  0  0  0
   -4.5486   14.7891  -31.6107 H   0  0  0  0  0  0  0  0  0  0  0  0
   -6.5120   16.5124  -31.5552 H   0  0  0  0  0  0  0  0  0  0  0  0
   -4.8320   17.0909  -31.2098 H   0  0  0  0  0  0  0  0  0  0  0  0
  1  2  1  0
  2  3  1  0
  3  4  2  0
  4  5  1  0
  5  6  2  0
  6  7  1  0
  7  8  2  0
  8  9  1  0
  9 10  2  0
  9 11  1  0
 11 12  1  0
 12 13  2  0
 13 14  1  0
 14 15  1  0
 15 16  2  0
 15 17  2  0
 15 18  1  0
 18 19  1  0
 19 20  1  0
 20 21  1  0
 21 22  1  0
 22 23  1  0
 14 24  2  0
 24 25  1  0
 25 26  2  0
 26 27  1  0
 27 28  1  0
 28 29  1  0
 29 30  1  0
 30 31  1  0
 31 32  1  0
  8  3  1  0
 26 12  1  0
 32 27  1  0
 23 18  1  0
  1 33  1  0
  1 34  1  0
  1 35  1  0
  4 36  1  0
  5 37  1  0
  6 38  1  0
  7 39  1  0
 13 40  1  0
 18 41  1  0
 19 42  1  0
 19 43  1  0
 20 44  1  0
 20 45  1  0
 22 46  1  0
 22 47  1  0
 23 48  1  0
 23 49  1  0
 24 50  1  0
 25 51  1  0
 28 52  1  0
 28 53  1  0
 29 54  1  0
 29 55  1  0
 31 56  1  0
 31 57  1  0
 32 58  1  0
 32 59  1  0
M  CHG  2  11  -1  18   1
M  END
>  <UniqueID>  (46) 
44

>  <SMILES>  (46) 
COc1ccccc1C(=O)[N-]c1cc(S(=O)(=O)[NH+]2CCOCC2)ccc1N1CCOCC1

>  <Energy>  (46) 
88.1315086984261

>  <Genealogy>  (46) 
COc1ccccc1C(=O)[N-]c1cc(S(=O)(=O)[NH+]2CCOCC2)ccc1N1CCOCC1 (protonated)
COc1ccccc1C(=O)[N-]c1cc(S(=O)(=O)[NH+]2CCOCC2)ccc1N1CCOCC1 (3D coordinates assigned)
COc1ccccc1C(=O)[N-]c1cc(S(=O)(=O)[NH+]2CCOCC2)ccc1N1CCOCC1 (nonaromatic ring conformer: 88.1315086984261 kcal/mol)

>  <smiles>  (46) 
COc1ccccc1C(=O)Nc1cc(S(=O)(=O)N2CCOCC2)ccc1N1CCOCC1

>  <score_type>  (46) 
oracle

>  <origin>  (46) 
adgpu

>  <m_score__min__energy>  (46) 
-9.9499999999999993

>  <m_primary>  (46) 
energy

$$$$
46:0
     RDKit          3D

 48 51  0  0  0  0  0  0  0  0999 V2000
   -0.0304   28.3595  -23.5026 H   0  0  0  0  0  0  0  0  0  0  0  0
   -0.3500   27.8160  -24.4040 C   0  0  0  0  0  0  0  0  0  0  0  0
   -1.1750   26.7430  -24.2920 N   0  0  0  0  0  0  0  0  0  0  0  0
   -1.5950   26.0670  -25.3930 C   0  0  0  0  0  0  0  0  0  0  0  0
   -2.2488   25.1893  -25.2831 H   0  0  0  0  0  0  0  0  0  0  0  0
   -1.1970   26.4860  -26.6640 C   0  0  0  0  0  0  0  0  0  0  0  0
   -1.5880   25.7290  -27.8200 N   0  0  0  0  0  0  0  0  0  0  0  0
   -1.1830   24.5380  -28.1570 C   0  0  0  0  0  0  0  0  0  0  0  0
   -1.7470   23.9420  -29.2370 N   0  0  0  0  0  0  0  0  0  0  0  0
   -1.3510   22.7050  -29.6380 C   0  0  0  0  0  0  0  0  0  0  0  0
   -1.9630   22.0850  -30.7780 N   0  0  0  0  0  0  0  0  0  0  0  0
   -1.2130   21.5870  -31.9170 C   0  0  0  0  0  0  0  0  0  0  0  0
   -0.5969   20.7240  -31.6242 H   0  0  0  0  0  0  0  0  0  0  0  0
   -0.5278   22.3478  -32.3191 H   0  0  0  0  0  0  0  0  0  0  0  0
   -2.2590   21.1710  -32.9410 C   0  0  0  0  0  0  0  0  0  0  0  0
   -1.9843   20.2098  -33.4000 H   0  0  0  0  0  0  0  0  0  0  0  0
   -2.3435   21.9067  -33.7544 H   0  0  0  0  0  0  0  0  0  0  0  0
   -3.5760   21.0350  -32.1640 C   0  0  2  0  0  0  0  0  0  0  0  0
   -3.7853   19.9803  -31.9320 H   0  0  0  0  0  0  0  0  0  0  0  0
   -4.6940   21.5080  -32.9210 O   0  0  0  0  0  0  0  0  0  0  0  0
   -5.9810   21.8090  -32.4360 C   0  0  0  0  0  0  0  0  0  0  0  0
   -6.9380   20.7890  -32.5210 C   0  0  0  0  0  0  0  0  0  0  0  0
   -6.6631   19.8231  -32.9698 H   0  0  0  0  0  0  0  0  0  0  0  0
   -8.2350   20.9820  -32.0440 C   0  0  0  0  0  0  0  0  0  0  0  0
   -8.9698   20.1656  -32.1038 H   0  0  0  0  0  0  0  0  0  0  0  0
   -8.6000   22.2080  -31.4920 C   0  0  0  0  0  0  0  0  0  0  0  0
   -9.6214   22.3584  -31.1124 H   0  0  0  0  0  0  0  0  0  0  0  0
   -7.6690   23.2450  -31.4210 C   0  0  0  0  0  0  0  0  0  0  0  0
   -7.9684   24.2171  -31.0022 H   0  0  0  0  0  0  0  0  0  0  0  0
   -6.3520   23.0610  -31.8790 C   0  0  0  0  0  0  0  0  0  0  0  0
   -5.4440   24.1700  -31.8940 N   0  0  0  0  0  0  0  0  0  0  0  0
   -5.0430   24.9540  -30.7620 C   0  0  0  0  0  0  0  0  0  0  0  0
   -3.8370   25.3010  -30.6580 O   0  0  0  0  0  0  0  0  0  0  0  0
   -6.0050   25.3310  -29.6780 C   0  0  0  0  0  0  0  0  0  0  0  0
   -5.5416   25.1494  -28.6970 H   0  0  0  0  0  0  0  0  0  0  0  0
   -6.2623   26.3965  -29.7704 H   0  0  0  0  0  0  0  0  0  0  0  0
   -6.9177   24.7240  -29.7704 H   0  0  0  0  0  0  0  0  0  0  0  0
   -3.3960   21.8900  -30.9130 C   0  0  0  0  0  0  0  0  0  0  0  0
   -3.7978   21.3698  -30.0310 H   0  0  0  0  0  0  0  0  0  0  0  0
   -3.9320   22.8473  -30.9928 H   0  0  0  0  0  0  0  0  0  0  0  0
   -0.3720   22.0630  -28.9520 N   0  0  0  0  0  0  0  0  0  0  0  0
    0.2120   22.6530  -27.8790 C   0  0  0  0  0  0  0  0  0  0  0  0
    1.0074   22.1286  -27.3291 H   0  0  0  0  0  0  0  0  0  0  0  0
   -0.1840   23.8900  -27.4830 N   0  0  0  0  0  0  0  0  0  0  0  0
    0.3200   24.3310  -26.6820 H   0  0  0  0  0  0  0  0  0  0  0  0
   -0.3160   27.5720  -26.7540 C   0  0  0  0  0  0  0  0  0  0  0  0
    0.0540   27.9005  -27.7364 H   0  0  0  0  0  0  0  0  0  0  0  0
    0.0810   28.2190  -25.6270 N   0  0  0  0  0  0  0  0  0  0  0  0
  1  2  1  0
  2  3  2  0
  3  4  1  0
  4  5  1  0
  4  6  2  0
  6  7  1  0
  7  8  2  0
  8  9  1  0
  9 10  2  0
 10 11  1  0
 11 12  1  0
 12 13  1  0
 12 14  1  0
 12 15  1  0
 15 16  1  0
 15 17  1  0
 15 18  1  0
 18 19  1  1
 18 20  1  0
 20 21  1  0
 21 22  2  0
 22 23  1  0
 22 24  1  0
 24 25  1  0
 24 26  2  0
 26 27  1  0
 26 28  1  0
 28 29  1  0
 28 30  2  0
 30 31  1  0
 31 32  1  0
 32 33  2  0
 32 34  1  0
 34 35  1  0
 34 36  1  0
 34 37  1  0
 18 38  1  0
 38 39  1  0
 38 40  1  0
 10 41  1  0
 41 42  2  0
 42 43  1  0
 42 44  1  0
 44 45  1  0
  6 46  1  0
 46 47  1  0
 46 48  2  0
 48  2  1  0
 44  8  1  0
 38 11  1  0
 30 21  1  0
M  CHG  1  31  -1
M  END
>  <UniqueID>  (47) 
45

>  <SMILES>  (47) 
CC(=O)[N-]c1ccccc1O[C@H]1CCN(c2nc[nH]/c(=N\c3cncnc3)n2)C1

>  <Energy>  (47) 
69.0979723448386

>  <Genealogy>  (47) 
CC(=O)[N-]c1ccccc1OC1CCN(c2nc[nH]c(=Nc3cncnc3)n2)C1 (protonated)
CC(=O)[N-]c1ccccc1O[C@H]1CCN(c2nc[nH]c(=Nc3cncnc3)n2)C1 (chirality)
CC(=O)[N-]c1ccccc1O[C@H]1CCN(c2nc[nH]/c(=N\c3cncnc3)n2)C1 (cis-trans isomerization)
CC(=O)[N-]c1ccccc1O[C@H]1CCN(c2nc[nH]/c(=N\c3cncnc3)n2)C1 (3D coordinates assigned)
CC(=O)[N-]c1ccccc1O[C@H]1CCN(c2nc[nH]/c(=N\c3cncnc3)n2)C1 (nonaromatic ring conformer: 69.0979723448386 kcal/mol)

>  <smiles>  (47) 
CC(=O)Nc1ccccc1OC1CCN(c2nc[nH]c(=Nc3cncnc3)n2)C1

>  <score_type>  (47) 
oracle

>  <origin>  (47) 
adgpu

>  <m_score__min__energy>  (47) 
-9.2699999999999996

>  <m_primary>  (47) 
energy

$$$$
47:0
     RDKit          3D

 54 56  0  0  0  0  0  0  0  0999 V2000
    0.3320   23.7090  -24.7330 C   0  0  0  0  0  0  0  0  0  0  0  0
    0.6940   25.1530  -25.0730 C   0  0  0  0  0  0  0  0  0  0  0  0
   -0.5000   25.9640  -25.6270 C   0  0  0  0  0  0  0  0  0  0  0  0
   -1.3340   26.6290  -24.4980 C   0  0  0  0  0  0  0  0  0  0  0  0
   -0.5300   26.8000  -23.2090 C   0  0  0  0  0  0  0  0  0  0  0  0
   -1.3650   25.0790  -26.4200 N   0  0  0  0  0  0  0  0  0  0  0  0
   -1.0080   24.6540  -27.7470 C   0  0  0  0  0  0  0  0  0  0  0  0
    0.1280   24.9450  -28.2100 O   0  0  0  0  0  0  0  0  0  0  0  0
   -1.9680   23.8930  -28.5790 C   0  0  0  0  0  0  0  0  0  0  0  0
   -3.3020   24.2250  -28.7530 C   0  0  0  0  0  0  0  0  0  0  0  0
   -3.8250   23.3020  -29.6440 C   0  0  0  0  0  0  0  0  0  0  0  0
   -5.1890   23.2600  -30.2130 C   0  0  0  0  0  0  0  0  0  0  0  0
   -5.8630   21.8900  -30.9270 S   0  0  0  0  0  0  0  0  0  0  0  0
   -7.3100   22.6540  -31.3050 C   0  0  0  0  0  0  0  0  0  0  0  0
   -8.4780   21.9960  -31.9640 C   0  0  0  0  0  0  0  0  0  0  0  0
   -8.1710   20.5510  -32.2370 C   0  0  0  0  0  0  0  0  0  0  0  0
   -7.1550   20.2020  -33.1430 C   0  0  0  0  0  0  0  0  0  0  0  0
   -6.8550   18.8570  -33.3800 C   0  0  0  0  0  0  0  0  0  0  0  0
   -7.5590   17.8530  -32.7090 C   0  0  0  0  0  0  0  0  0  0  0  0
   -8.5600   18.1930  -31.7950 C   0  0  0  0  0  0  0  0  0  0  0  0
   -8.8640   19.5370  -31.5560 C   0  0  0  0  0  0  0  0  0  0  0  0
   -7.3180   23.9330  -30.8750 N   0  0  0  0  0  0  0  0  0  0  0  0
   -6.1520   24.2820  -30.2650 C   0  0  0  0  0  0  0  0  0  0  0  0
   -5.9750   25.6560  -29.7000 C   0  0  0  0  0  0  0  0  0  0  0  0
   -2.7900   22.4520  -29.9870 C   0  0  0  0  0  0  0  0  0  0  0  0
   -1.6680   22.8070  -29.3320 N   0  0  0  0  0  0  0  0  0  0  0  0
   -0.3720   22.1430  -29.4670 C   0  0  0  0  0  0  0  0  0  0  0  0
    0.3012   23.5863  -23.6403 H   0  0  0  0  0  0  0  0  0  0  0  0
   -0.6542   23.4687  -25.1569 H   0  0  0  0  0  0  0  0  0  0  0  0
    1.0882   23.0319  -25.1569 H   0  0  0  0  0  0  0  0  0  0  0  0
    1.0588   25.6466  -24.1601 H   0  0  0  0  0  0  0  0  0  0  0  0
    1.4621   25.1217  -25.8598 H   0  0  0  0  0  0  0  0  0  0  0  0
   -0.0928   26.7693  -26.2561 H   0  0  0  0  0  0  0  0  0  0  0  0
   -1.6680   27.6194  -24.8410 H   0  0  0  0  0  0  0  0  0  0  0  0
   -2.1883   25.9719  -24.2780 H   0  0  0  0  0  0  0  0  0  0  0  0
   -1.1925   26.6591  -22.3422 H   0  0  0  0  0  0  0  0  0  0  0  0
    0.2773   26.0535  -23.1786 H   0  0  0  0  0  0  0  0  0  0  0  0
   -0.0964   27.8105  -23.1786 H   0  0  0  0  0  0  0  0  0  0  0  0
   -2.2410   24.7070  -25.9920 H   0  0  0  0  0  0  0  0  0  0  0  0
   -3.8402   25.0580  -28.2771 H   0  0  0  0  0  0  0  0  0  0  0  0
   -9.3542   22.0630  -31.3023 H   0  0  0  0  0  0  0  0  0  0  0  0
   -8.6878   22.5053  -32.9161 H   0  0  0  0  0  0  0  0  0  0  0  0
   -6.5939   20.9895  -33.6674 H   0  0  0  0  0  0  0  0  0  0  0  0
   -6.0638   18.5886  -34.0955 H   0  0  0  0  0  0  0  0  0  0  0  0
   -7.3251   16.7953  -32.9004 H   0  0  0  0  0  0  0  0  0  0  0  0
   -9.1095   17.4025  -31.2629 H   0  0  0  0  0  0  0  0  0  0  0  0
   -9.6489   19.8009  -30.8319 H   0  0  0  0  0  0  0  0  0  0  0  0
   -5.9817   25.6043  -28.6012 H   0  0  0  0  0  0  0  0  0  0  0  0
   -5.0158   26.0722  -30.0417 H   0  0  0  0  0  0  0  0  0  0  0  0
   -6.7974   26.3017  -30.0417 H   0  0  0  0  0  0  0  0  0  0  0  0
   -2.8709   21.6104  -30.6907 H   0  0  0  0  0  0  0  0  0  0  0  0
    0.0381   21.9329  -28.4682 H   0  0  0  0  0  0  0  0  0  0  0  0
   -0.4992   21.1990  -30.0172 H   0  0  0  0  0  0  0  0  0  0  0  0
    0.3199   22.7977  -30.0172 H   0  0  0  0  0  0  0  0  0  0  0  0
  1  2  1  0
  2  3  1  0
  3  4  1  0
  4  5  1  0
  3  6  1  0
  6  7  1  0
  7  8  2  0
  7  9  1  0
  9 10  2  0
 10 11  1  0
 11 12  1  0
 12 13  1  0
 13 14  1  0
 14 15  1  0
 15 16  1  0
 16 17  2  0
 17 18  1  0
 18 19  2  0
 19 20  1  0
 20 21  2  0
 14 22  2  0
 22 23  1  0
 23 24  1  0
 11 25  2  0
 25 26  1  0
 26 27  1  0
 26  9  1  0
 23 12  2  0
 21 16  1  0
  1 28  1  0
  1 29  1  0
  1 30  1  0
  2 31  1  0
  2 32  1  0
  3 33  1  0
  4 34  1  0
  4 35  1  0
  5 36  1  0
  5 37  1  0
  5 38  1  0
  6 39  1  0
 10 40  1  0
 15 41  1  0
 15 42  1  0
 17 43  1  0
 18 44  1  0
 19 45  1  0
 20 46  1  0
 21 47  1  0
 24 48  1  0
 24 49  1  0
 24 50  1  0
 25 51  1  0
 27 52  1  0
 27 53  1  0
 27 54  1  0
M  END
>  <UniqueID>  (48) 
46

>  <SMILES>  (48) 
CCC(CC)NC(=O)c1cc(-c2sc(Cc3ccccc3)nc2C)cn1C

>  <Energy>  (48) 
105.27843449959397

>  <Genealogy>  (48) 
CCC(CC)NC(=O)c1cc(-c2sc(Cc3ccccc3)nc2C)cn1C (3D coordinates assigned)
CCC(CC)NC(=O)c1cc(-c2sc(Cc3ccccc3)nc2C)cn1C (optimized conformer: 105.27843449959397 kcal/mol)

>  <smiles>  (48) 
CCC(CC)NC(=O)c1cc(-c2sc(Cc3ccccc3)nc2C)cn1C

>  <score_type>  (48) 
oracle

>  <origin>  (48) 
adgpu

>  <m_score__min__energy>  (48) 
-9.2699999999999996

>  <m_primary>  (48) 
energy

$$$$
48:0
     RDKit          3D

 58 60  0  0  0  0  0  0  0  0999 V2000
   -9.1880   18.2030  -31.6370 C   0  0  0  0  0  0  0  0  0  0  0  0
   -8.0280   19.1830  -31.4620 C   0  0  0  0  0  0  0  0  0  0  0  0
   -8.0300   20.4120  -32.4090 C   0  0  2  0  0  0  0  0  0  0  0  0
   -7.2900   20.1150  -33.6430 N   0  0  0  0  0  0  0  0  0  0  0  0
   -5.9230   19.6920  -33.7490 C   0  0  0  0  0  0  0  0  0  0  0  0
   -4.6490   20.2260  -33.5480 C   0  0  0  0  0  0  0  0  0  0  0  0
   -4.1240   21.4770  -33.0960 N   0  0  0  0  0  0  0  0  0  0  0  0
   -3.1080   21.5960  -32.0850 C   0  0  0  0  0  0  0  0  0  0  0  0
   -2.0350   20.6910  -32.0350 C   0  0  0  0  0  0  0  0  0  0  0  0
   -1.0680   20.7960  -31.0340 C   0  0  0  0  0  0  0  0  0  0  0  0
   -1.1450   21.8190  -30.0900 C   0  0  0  0  0  0  0  0  0  0  0  0
   -2.1680   22.7740  -30.1560 C   0  0  0  0  0  0  0  0  0  0  0  0
   -2.2200   23.8400  -29.1310 C   0  0  0  0  0  0  0  0  0  0  0  0
   -2.4060   25.0320  -29.5110 O   0  0  0  0  0  0  0  0  0  0  0  0
   -2.0830   23.5540  -27.7200 N   0  0  0  0  0  0  0  0  0  0  0  0
   -2.4570   24.5800  -26.7350 C   0  0  0  0  0  0  0  0  0  0  0  0
   -3.9660   24.7930  -26.7180 C   0  0  0  0  0  0  0  0  0  0  0  0
   -1.3630   22.3530  -27.2500 C   0  0  0  0  0  0  0  0  0  0  0  0
   -2.3030   21.1550  -27.1480 C   0  0  0  0  0  0  0  0  0  0  0  0
   -3.1560   22.6660  -31.1670 C   0  0  0  0  0  0  0  0  0  0  0  0
   -4.1840   23.6080  -31.2880 O   0  0  0  0  0  0  0  0  0  0  0  0
   -4.0960   19.0080  -33.9050 C   0  0  0  0  0  0  0  0  0  0  0  0
   -2.9310   18.5380  -33.9710 O   0  0  0  0  0  0  0  0  0  0  0  0
   -5.3530   18.5050  -34.1640 C   0  0  0  0  0  0  0  0  0  0  0  0
   -5.8010   17.3990  -34.5750 O   0  0  0  0  0  0  0  0  0  0  0  0
   -7.6680   21.7620  -31.7970 C   0  0  0  0  0  0  0  0  0  0  0  0
   -7.2160   22.8320  -32.5960 C   0  0  0  0  0  0  0  0  0  0  0  0
   -6.8340   24.0480  -32.0160 C   0  0  0  0  0  0  0  0  0  0  0  0
   -6.8630   24.2030  -30.6300 C   0  0  0  0  0  0  0  0  0  0  0  0
   -7.2480   23.1370  -29.8230 C   0  0  0  0  0  0  0  0  0  0  0  0
   -7.6260   21.9170  -30.3980 C   0  0  0  0  0  0  0  0  0  0  0  0
   -9.5569   17.8913  -30.6487 H   0  0  0  0  0  0  0  0  0  0  0  0
  -10.0005   18.6923  -32.1941 H   0  0  0  0  0  0  0  0  0  0  0  0
   -8.8413   17.3202  -32.1941 H   0  0  0  0  0  0  0  0  0  0  0  0
   -8.0543   19.5550  -30.4271 H   0  0  0  0  0  0  0  0  0  0  0  0
   -7.1192   18.6160  -31.7123 H   0  0  0  0  0  0  0  0  0  0  0  0
   -9.0908   20.5685  -32.6542 H   0  0  0  0  0  0  0  0  0  0  0  0
   -7.8450   20.0690  -34.5250 H   0  0  0  0  0  0  0  0  0  0  0  0
   -4.6140   22.3410  -33.3880 H   0  0  0  0  0  0  0  0  0  0  0  0
   -1.9563   19.8944  -32.7895 H   0  0  0  0  0  0  0  0  0  0  0  0
   -0.2430   20.0697  -30.9898 H   0  0  0  0  0  0  0  0  0  0  0  0
   -0.3961   21.8769  -29.2864 H   0  0  0  0  0  0  0  0  0  0  0  0
   -2.1275   24.2575  -25.7363 H   0  0  0  0  0  0  0  0  0  0  0  0
   -1.9714   25.5272  -27.0125 H   0  0  0  0  0  0  0  0  0  0  0  0
   -4.3176   24.8426  -25.6769 H   0  0  0  0  0  0  0  0  0  0  0  0
   -4.2092   25.7344  -27.2324 H   0  0  0  0  0  0  0  0  0  0  0  0
   -4.4603   23.9557  -27.2324 H   0  0  0  0  0  0  0  0  0  0  0  0
   -0.5559   22.1172  -27.9592 H   0  0  0  0  0  0  0  0  0  0  0  0
   -0.9511   22.5605  -26.2514 H   0  0  0  0  0  0  0  0  0  0  0  0
   -2.4860   20.9217  -26.0887 H   0  0  0  0  0  0  0  0  0  0  0  0
   -3.2568   21.3943  -27.6409 H   0  0  0  0  0  0  0  0  0  0  0  0
   -1.8436   20.2855  -27.6409 H   0  0  0  0  0  0  0  0  0  0  0  0
   -4.2350   24.4500  -30.7290 H   0  0  0  0  0  0  0  0  0  0  0  0
   -7.1628   22.7102  -33.6879 H   0  0  0  0  0  0  0  0  0  0  0  0
   -6.5103   24.8829  -32.6548 H   0  0  0  0  0  0  0  0  0  0  0  0
   -6.5823   25.1650  -30.1765 H   0  0  0  0  0  0  0  0  0  0  0  0
   -7.2556   23.2528  -28.7291 H   0  0  0  0  0  0  0  0  0  0  0  0
   -7.8932   21.0700  -29.7491 H   0  0  0  0  0  0  0  0  0  0  0  0
  1  2  1  0
  2  3  1  0
  3  4  1  0
  4  5  1  0
  5  6  2  0
  6  7  1  0
  7  8  1  0
  8  9  2  0
  9 10  1  0
 10 11  2  0
 11 12  1  0
 12 13  1  0
 13 14  2  0
 13 15  1  0
 15 16  1  0
 16 17  1  0
 15 18  1  0
 18 19  1  0
 12 20  2  0
 20 21  1  0
  6 22  1  0
 22 23  2  0
 22 24  1  0
 24 25  2  0
  3 26  1  0
 26 27  2  0
 27 28  1  0
 28 29  2  0
 29 30  1  0
 30 31  2  0
 24  5  1  0
 31 26  1  0
 20  8  1  0
  1 32  1  0
  1 33  1  0
  1 34  1  0
  2 35  1  0
  2 36  1  0
  3 37  1  6
  4 38  1  0
  7 39  1  0
  9 40  1  0
 10 41  1  0
 11 42  1  0
 16 43  1  0
 16 44  1  0
 17 45  1  0
 17 46  1  0
 17 47  1  0
 18 48  1  0
 18 49  1  0
 19 50  1  0
 19 51  1  0
 19 52  1  0
 21 53  1  0
 27 54  1  0
 28 55  1  0
 29 56  1  0
 30 57  1  0
 31 58  1  0
M  END
>  <UniqueID>  (49) 
47

>  <SMILES>  (49) 
CC[C@H](Nc1c(Nc2cccc(C(=O)N(CC)CC)c2O)c(=O)c1=O)c1ccccc1

>  <Energy>  (49) 
59.28486798223898

>  <Genealogy>  (49) 
CC[C@H](Nc1c(Nc2cccc(C(=O)N(CC)CC)c2O)c(=O)c1=O)c1ccccc1 (chirality)
CC[C@H](Nc1c(Nc2cccc(C(=O)N(CC)CC)c2O)c(=O)c1=O)c1ccccc1 (3D coordinates assigned)
CC[C@H](Nc1c(Nc2cccc(C(=O)N(CC)CC)c2O)c(=O)c1=O)c1ccccc1 (optimized conformer: 59.28486798223898 kcal/mol)

>  <smiles>  (49) 
CCC(Nc1c(Nc2cccc(C(=O)N(CC)CC)c2O)c(=O)c1=O)c1ccccc1

>  <score_type>  (49) 
oracle

>  <origin>  (49) 
adgpu

>  <m_score__min__energy>  (49) 
-10.68

>  <m_primary>  (49) 
energy

$$$$
