0:0
     RDKit          3D

 36 37  0  0  0  0  0  0  0  0999 V2000
   -8.5590   20.4850  -32.4540 C   0  0  0  0  0  0  0  0  0  0  0  0
   -7.7640   21.5760  -31.8000 C   0  0  0  0  0  0  0  0  0  0  0  0
   -7.9960   21.9180  -30.4590 C   0  0  0  0  0  0  0  0  0  0  0  0
   -7.2560   22.9390  -29.8540 C   0  0  0  0  0  0  0  0  0  0  0  0
   -6.2690   23.6190  -30.5820 C   0  0  0  0  0  0  0  0  0  0  0  0
   -5.4190   24.9950  -29.8790 S   0  0  0  0  0  0  0  0  0  0  0  0
   -4.4380   25.5730  -30.8600 O   0  0  0  0  0  0  0  0  0  0  0  0
   -6.4230   26.0490  -29.5100 O   0  0  0  0  0  0  0  0  0  0  0  0
   -4.5680   24.4860  -28.4560 N   0  0  0  0  0  0  0  0  0  0  0  0
   -3.2800   23.8690  -28.5030 C   0  0  0  0  0  0  0  0  0  0  0  0
   -2.8390   23.2770  -27.4830 O   0  0  0  0  0  0  0  0  0  0  0  0
   -2.4830   23.9320  -29.6920 N   0  0  0  0  0  0  0  0  0  0  0  0
   -2.0460   22.7680  -30.4220 C   0  0  0  0  0  0  0  0  0  0  0  0
   -0.8520   22.0940  -30.0990 C   0  0  0  0  0  0  0  0  0  0  0  0
   -0.5070   20.9150  -30.7630 C   0  0  0  0  0  0  0  0  0  0  0  0
   -1.3420   20.3950  -31.7530 C   0  0  0  0  0  0  0  0  0  0  0  0
   -2.5250   21.0610  -32.1000 C   0  0  0  0  0  0  0  0  0  0  0  0
   -3.4550   20.4740  -33.1190 C   0  0  0  0  0  0  0  0  0  0  0  0
   -2.8760   22.2410  -31.4240 C   0  0  0  0  0  0  0  0  0  0  0  0
   -6.0110   23.2530  -31.9080 C   0  0  0  0  0  0  0  0  0  0  0  0
   -6.7510   22.2320  -32.5140 C   0  0  0  0  0  0  0  0  0  0  0  0
   -9.0196   19.8529  -31.6805 H   0  0  0  0  0  0  0  0  0  0  0  0
   -9.3461   20.9300  -33.0805 H   0  0  0  0  0  0  0  0  0  0  0  0
   -7.8943   19.8721  -33.0805 H   0  0  0  0  0  0  0  0  0  0  0  0
   -8.7628   21.3810  -29.8814 H   0  0  0  0  0  0  0  0  0  0  0  0
   -7.4485   23.2091  -28.8052 H   0  0  0  0  0  0  0  0  0  0  0  0
   -2.3760   24.8680  -30.1420 H   0  0  0  0  0  0  0  0  0  0  0  0
   -0.1885   22.4982  -29.3203 H   0  0  0  0  0  0  0  0  0  0  0  0
    0.4267   20.3940  -30.5047 H   0  0  0  0  0  0  0  0  0  0  0  0
   -1.0704   19.4589  -32.2628 H   0  0  0  0  0  0  0  0  0  0  0  0
   -4.2785   19.9542  -32.6075 H   0  0  0  0  0  0  0  0  0  0  0  0
   -3.8638   21.2781  -33.7486 H   0  0  0  0  0  0  0  0  0  0  0  0
   -2.9050   19.7590  -33.7486 H   0  0  0  0  0  0  0  0  0  0  0  0
   -3.8118   22.7581  -31.6826 H   0  0  0  0  0  0  0  0  0  0  0  0
   -5.2234   23.7700  -32.4758 H   0  0  0  0  0  0  0  0  0  0  0  0
   -6.5375   21.9430  -33.5537 H   0  0  0  0  0  0  0  0  0  0  0  0
  1  2  1  0
  2  3  2  0
  3  4  1  0
  4  5  2  0
  5  6  1  0
  6  7  2  0
  6  8  2  0
  6  9  1  0
  9 10  1  0
 10 11  2  0
 10 12  1  0
 12 13  1  0
 13 14  2  0
 14 15  1  0
 15 16  2  0
 16 17  1  0
 17 18  1  0
 17 19  2  0
  5 20  1  0
 20 21  2  0
 21  2  1  0
 19 13  1  0
  1 22  1  0
  1 23  1  0
  1 24  1  0
  3 25  1  0
  4 26  1  0
 12 27  1  0
 14 28  1  0
 15 29  1  0
 16 30  1  0
 18 31  1  0
 18 32  1  0
 18 33  1  0
 19 34  1  0
 20 35  1  0
 21 36  1  0
M  CHG  1   9  -1
M  END
>  <UniqueID>  (1) 
1

>  <SMILES>  (1) 
Cc1ccc(S(=O)(=O)[N-]C(=O)Nc2cccc(C)c2)cc1

>  <Energy>  (1) 
37.70415944846412

>  <Genealogy>  (1) 
Cc1ccc(S(=O)(=O)[N-]C(=O)Nc2cccc(C)c2)cc1 (protonated)
Cc1ccc(S(=O)(=O)[N-]C(=O)Nc2cccc(C)c2)cc1 (3D coordinates assigned)
Cc1ccc(S(=O)(=O)[N-]C(=O)Nc2cccc(C)c2)cc1 (optimized conformer: 37.70415944846412 kcal/mol)

>  <smiles>  (1) 
Cc1ccc(S(=O)(=O)NC(=O)Nc2cccc(C)c2)cc1

>  <score_type>  (1) 
oracle

>  <origin>  (1) 
adgpu

>  <m_score__min__energy>  (1) 
-8.75

>  <m_primary>  (1) 
energy

$$$$
1:0
     RDKit          3D

 31 33  0  0  0  0  0  0  0  0999 V2000
   -4.8898   25.9519  -30.6869 H   0  0  0  0  0  0  0  0  0  0  0  0
   -4.2850   25.0810  -30.3940 C   0  0  0  0  0  0  0  0  0  0  0  0
   -3.1200   25.2630  -29.7220 N   0  0  0  0  0  0  0  0  0  0  0  0
   -2.3400   24.2170  -29.3430 C   0  0  0  0  0  0  0  0  0  0  0  0
   -1.1440   24.4610  -28.6590 C   0  0  0  0  0  0  0  0  0  0  0  0
   -0.8412   25.4960  -28.4422 H   0  0  0  0  0  0  0  0  0  0  0  0
   -0.3270   23.3960  -28.2470 C   0  0  0  0  0  0  0  0  0  0  0  0
    0.9860   23.6650  -27.5540 C   0  0  0  0  0  0  0  0  0  0  0  0
    1.6600   22.4720  -27.3790 F   0  0  0  0  0  0  0  0  0  0  0  0
    1.7700   24.5210  -28.3090 F   0  0  0  0  0  0  0  0  0  0  0  0
    0.7750   24.2500  -26.3170 F   0  0  0  0  0  0  0  0  0  0  0  0
   -0.7030   22.0810  -28.5710 C   0  0  0  0  0  0  0  0  0  0  0  0
   -0.0516   21.2421  -28.2848 H   0  0  0  0  0  0  0  0  0  0  0  0
   -1.8960   21.8290  -29.2530 C   0  0  0  0  0  0  0  0  0  0  0  0
   -2.1833   20.7928  -29.4850 H   0  0  0  0  0  0  0  0  0  0  0  0
   -2.7340   22.8910  -29.6460 C   0  0  0  0  0  0  0  0  0  0  0  0
   -3.9530   22.6750  -30.3300 C   0  0  0  0  0  0  0  0  0  0  0  0
   -4.3190   21.4540  -30.6210 N   0  0  0  0  0  0  0  0  0  0  0  0
   -5.5510   21.0230  -31.2210 C   0  0  0  0  0  0  0  0  0  0  0  0
   -6.7510   21.7150  -30.9920 C   0  0  0  0  0  0  0  0  0  0  0  0
   -6.7485   22.6298  -30.3811 H   0  0  0  0  0  0  0  0  0  0  0  0
   -7.9490   21.2450  -31.5380 C   0  0  0  0  0  0  0  0  0  0  0  0
   -8.8830   21.8016  -31.3712 H   0  0  0  0  0  0  0  0  0  0  0  0
   -7.9640   20.0690  -32.2960 C   0  0  0  0  0  0  0  0  0  0  0  0
   -9.4900   19.5070  -32.9660 Cl  0  0  0  0  0  0  0  0  0  0  0  0
   -6.7720   19.3530  -32.4970 C   0  0  0  0  0  0  0  0  0  0  0  0
   -6.7510   17.8590  -33.4240 Cl  0  0  0  0  0  0  0  0  0  0  0  0
   -5.5750   19.8280  -31.9480 C   0  0  0  0  0  0  0  0  0  0  0  0
   -4.6456   19.2569  -32.0894 H   0  0  0  0  0  0  0  0  0  0  0  0
   -4.7190   23.7950  -30.7150 C   0  0  0  0  0  0  0  0  0  0  0  0
   -5.6590   23.6542  -31.2686 H   0  0  0  0  0  0  0  0  0  0  0  0
  1  2  1  0
  2  3  1  0
  3  4  1  0
  4  5  2  0
  5  6  1  0
  5  7  1  0
  7  8  1  0
  8  9  1  0
  8 10  1  0
  8 11  1  0
  7 12  2  0
 12 13  1  0
 12 14  1  0
 14 15  1  0
 14 16  2  0
 16 17  1  0
 17 18  2  0
 18 19  1  0
 19 20  2  0
 20 21  1  0
 20 22  1  0
 22 23  1  0
 22 24  2  0
 24 25  1  0
 24 26  1  0
 26 27  1  0
 26 28  2  0
 28 29  1  0
 17 30  1  0
 30 31  1  0
 30  2  2  0
 16  4  1  0
 28 19  1  0
M  CHG  1   3  -1
M  END
>  <UniqueID>  (2) 
2

>  <SMILES>  (2) 
FC(F)(F)c1ccc2/c(=N/c3ccc(Cl)c(Cl)c3)cc[n-]c2c1

>  <Energy>  (2) 
49.982334321742904

>  <Genealogy>  (2) 
FC(F)(F)c1ccc2c(=Nc3ccc(Cl)c(Cl)c3)cc[n-]c2c1 (protonated)
FC(F)(F)c1ccc2/c(=N/c3ccc(Cl)c(Cl)c3)cc[n-]c2c1 (cis-trans isomerization)
FC(F)(F)c1ccc2/c(=N/c3ccc(Cl)c(Cl)c3)cc[n-]c2c1 (3D coordinates assigned)
FC(F)(F)c1ccc2/c(=N/c3ccc(Cl)c(Cl)c3)cc[n-]c2c1 (optimized conformer: 49.982334321742904 kcal/mol)

>  <smiles>  (2) 
FC(F)(F)c1ccc2c(=Nc3ccc(Cl)c(Cl)c3)cc[nH]c2c1

>  <score_type>  (2) 
oracle

>  <origin>  (2) 
adgpu

>  <m_score__min__energy>  (2) 
-8.6899999999999995

>  <m_primary>  (2) 
energy

$$$$
2:0
     RDKit          3D

 39 40  0  0  0  0  0  0  0  0999 V2000
   -7.8588   20.1948  -33.1447 H   0  0  0  0  0  0  0  0  0  0  0  0
   -7.0820   20.8410  -32.7100 C   0  0  0  0  0  0  0  0  0  0  0  0
   -5.7310   20.5540  -32.9290 C   0  0  0  0  0  0  0  0  0  0  0  0
   -5.2750   19.1490  -33.8740 Cl  0  0  0  0  0  0  0  0  0  0  0  0
   -4.7430   21.3830  -32.3860 C   0  0  0  0  0  0  0  0  0  0  0  0
   -3.6806   21.1449  -32.5427 H   0  0  0  0  0  0  0  0  0  0  0  0
   -5.1040   22.5190  -31.6410 C   0  0  0  0  0  0  0  0  0  0  0  0
   -4.1080   23.3510  -31.0270 N   0  0  0  0  0  0  0  0  0  0  0  0
   -3.3930   23.0790  -29.9710 C   0  0  0  0  0  0  0  0  0  0  0  0
   -2.5770   24.0450  -29.4770 N   0  0  0  0  0  0  0  0  0  0  0  0
   -1.8030   23.8300  -28.3830 C   0  0  0  0  0  0  0  0  0  0  0  0
   -0.9690   24.8810  -27.8810 N   0  0  0  0  0  0  0  0  0  0  0  0
   -1.5940   26.0380  -27.2280 C   0  0  0  0  0  0  0  0  0  0  0  0
   -2.2808   26.5248  -27.9360 H   0  0  0  0  0  0  0  0  0  0  0  0
   -0.8046   26.7390  -26.9191 H   0  0  0  0  0  0  0  0  0  0  0  0
   -2.3740   25.6030  -25.9930 C   0  0  0  0  0  0  0  0  0  0  0  0
   -1.8277   25.9077  -25.0882 H   0  0  0  0  0  0  0  0  0  0  0  0
   -3.3661   26.0781  -25.9997 H   0  0  0  0  0  0  0  0  0  0  0  0
   -2.4912   24.5093  -25.9997 H   0  0  0  0  0  0  0  0  0  0  0  0
    0.4840   24.6780  -27.8400 C   0  0  0  0  0  0  0  0  0  0  0  0
    0.7623   23.9070  -28.5735 H   0  0  0  0  0  0  0  0  0  0  0  0
    0.9823   25.6287  -28.0804 H   0  0  0  0  0  0  0  0  0  0  0  0
    0.9230   24.2300  -26.4510 C   0  0  0  0  0  0  0  0  0  0  0  0
    0.3671   24.7973  -25.6900 H   0  0  0  0  0  0  0  0  0  0  0  0
    0.7179   23.1561  -26.3302 H   0  0  0  0  0  0  0  0  0  0  0  0
    2.0009   24.4133  -26.3302 H   0  0  0  0  0  0  0  0  0  0  0  0
   -1.8370   22.5890  -27.7460 C   0  0  0  0  0  0  0  0  0  0  0  0
   -1.2363   22.4052  -26.8430 H   0  0  0  0  0  0  0  0  0  0  0  0
   -2.6490   21.5850  -28.2780 C   0  0  0  0  0  0  0  0  0  0  0  0
   -2.7180   20.2430  -27.6090 C   0  0  0  0  0  0  0  0  0  0  0  0
   -2.7111   20.3768  -26.5172 H   0  0  0  0  0  0  0  0  0  0  0  0
   -3.6437   19.7305  -27.9098 H   0  0  0  0  0  0  0  0  0  0  0  0
   -1.8498   19.6383  -27.9098 H   0  0  0  0  0  0  0  0  0  0  0  0
   -3.4170   21.8460  -29.3750 N   0  0  0  0  0  0  0  0  0  0  0  0
   -3.9950   21.0700  -29.7660 H   0  0  0  0  0  0  0  0  0  0  0  0
   -6.4580   22.7800  -31.3950 C   0  0  0  0  0  0  0  0  0  0  0  0
   -6.7461   23.6402  -30.7729 H   0  0  0  0  0  0  0  0  0  0  0  0
   -7.4460   21.9500  -31.9380 C   0  0  0  0  0  0  0  0  0  0  0  0
   -9.1400   22.2970  -31.6450 Cl  0  0  0  0  0  0  0  0  0  0  0  0
  1  2  1  0
  2  3  2  0
  3  4  1  0
  3  5  1  0
  5  6  1  0
  5  7  2  0
  7  8  1  0
  8  9  2  0
  9 10  1  0
 10 11  2  0
 11 12  1  0
 12 13  1  0
 13 14  1  0
 13 15  1  0
 13 16  1  0
 16 17  1  0
 16 18  1  0
 16 19  1  0
 12 20  1  0
 20 21  1  0
 20 22  1  0
 20 23  1  0
 23 24  1  0
 23 25  1  0
 23 26  1  0
 11 27  1  0
 27 28  1  0
 27 29  2  0
 29 30  1  0
 30 31  1  0
 30 32  1  0
 30 33  1  0
 29 34  1  0
 34 35  1  0
  7 36  1  0
 36 37  1  0
 36 38  2  0
 38 39  1  0
 38  2  1  0
 34  9  1  0
M  END
>  <UniqueID>  (3) 
3

>  <SMILES>  (3) 
CCN(CC)c1cc(C)[nH]/c(=N\c2cc(Cl)cc(Cl)c2)n1

>  <Energy>  (3) 
45.768530105382155

>  <Genealogy>  (3) 
CCN(CC)c1cc(C)[nH]/c(=N\c2cc(Cl)cc(Cl)c2)n1 (cis-trans isomerization)
CCN(CC)c1cc(C)[nH]/c(=N\c2cc(Cl)cc(Cl)c2)n1 (3D coordinates assigned)
CCN(CC)c1cc(C)[nH]/c(=N\c2cc(Cl)cc(Cl)c2)n1 (optimized conformer: 45.768530105382155 kcal/mol)

>  <smiles>  (3) 
CCN(CC)c1cc(C)[nH]c(=Nc2cc(Cl)cc(Cl)c2)n1

>  <score_type>  (3) 
oracle

>  <origin>  (3) 
adgpu

>  <m_score__min__energy>  (3) 
-6.7599999999999998

>  <m_primary>  (3) 
energy

$$$$
3:0
     RDKit          3D

 53 55  0  0  0  0  0  0  0  0999 V2000
   -3.0840   19.0480  -26.7170 C   0  0  0  0  0  0  0  0  0  0  0  0
   -1.8350   19.9090  -26.5400 C   0  0  0  0  0  0  0  0  0  0  0  0
   -1.3210   20.3640  -27.8400 N   0  0  0  0  0  0  0  0  0  0  0  0
   -0.2230   19.6150  -28.4750 C   0  0  0  0  0  0  0  0  0  0  0  0
   -0.0570   18.2410  -27.8290 C   0  0  0  0  0  0  0  0  0  0  0  0
   -1.8910   21.5300  -28.4840 C   0  0  0  0  0  0  0  0  0  0  0  0
   -1.6880   22.8170  -27.9530 C   0  0  0  0  0  0  0  0  0  0  0  0
   -2.2240   23.9410  -28.5860 C   0  0  0  0  0  0  0  0  0  0  0  0
   -2.9670   23.8010  -29.7710 C   0  0  0  0  0  0  0  0  0  0  0  0
   -3.5460   24.9260  -30.4490 N   0  0  0  0  0  0  0  0  0  0  0  0
   -4.9440   25.2130  -30.6040 C   0  0  0  0  0  0  0  0  0  0  0  0
   -5.3660   26.3940  -30.4740 O   0  0  0  0  0  0  0  0  0  0  0  0
   -5.8850   24.1300  -30.9710 C   0  0  0  0  0  0  0  0  0  0  0  0
   -6.7090   23.5390  -29.9930 C   0  0  0  0  0  0  0  0  0  0  0  0
   -7.5940   22.5140  -30.3380 C   0  0  0  0  0  0  0  0  0  0  0  0
   -7.6720   22.0610  -31.6600 C   0  0  0  0  0  0  0  0  0  0  0  0
   -8.8030   20.7760  -32.0750 S   0  0  0  0  0  0  0  0  0  0  0  0
   -8.4570   20.2540  -33.4410 O   0  0  0  0  0  0  0  0  0  0  0  0
  -10.2090   21.3080  -32.1110 O   0  0  0  0  0  0  0  0  0  0  0  0
   -8.7000   19.4720  -30.9270 N   0  0  0  0  0  0  0  0  0  0  0  0
   -8.6980   18.1710  -31.5990 C   0  0  0  0  0  0  0  0  0  0  0  0
   -7.3780   17.9140  -32.2560 C   0  0  0  0  0  0  0  0  0  0  0  0
   -6.1880   18.5470  -31.9530 C   0  0  0  0  0  0  0  0  0  0  0  0
   -5.2490   17.9900  -32.7950 C   0  0  0  0  0  0  0  0  0  0  0  0
   -5.9230   17.0530  -33.5580 C   0  0  0  0  0  0  0  0  0  0  0  0
   -7.1910   17.0320  -33.2140 O   0  0  0  0  0  0  0  0  0  0  0  0
   -6.8640   22.6510  -32.6420 C   0  0  0  0  0  0  0  0  0  0  0  0
   -5.9730   23.6720  -32.2990 C   0  0  0  0  0  0  0  0  0  0  0  0
   -3.1980   22.5200  -30.2830 C   0  0  0  0  0  0  0  0  0  0  0  0
   -2.6600   21.3950  -29.6530 C   0  0  0  0  0  0  0  0  0  0  0  0
   -3.4828   18.7731  -25.7294 H   0  0  0  0  0  0  0  0  0  0  0  0
   -3.8441   19.6149  -27.2745 H   0  0  0  0  0  0  0  0  0  0  0  0
   -2.8246   18.1359  -27.2745 H   0  0  0  0  0  0  0  0  0  0  0  0
   -2.0866   20.7860  -25.9256 H   0  0  0  0  0  0  0  0  0  0  0  0
   -1.0589   19.3042  -26.0482 H   0  0  0  0  0  0  0  0  0  0  0  0
   -0.4461   19.4858  -29.5444 H   0  0  0  0  0  0  0  0  0  0  0  0
    0.7111   20.1808  -28.3436 H   0  0  0  0  0  0  0  0  0  0  0  0
   -0.0698   18.3466  -26.7342 H   0  0  0  0  0  0  0  0  0  0  0  0
   -0.8825   17.5857  -28.1438 H   0  0  0  0  0  0  0  0  0  0  0  0
    0.9008   17.8011  -28.1438 H   0  0  0  0  0  0  0  0  0  0  0  0
   -1.1015   22.9393  -27.0304 H   0  0  0  0  0  0  0  0  0  0  0  0
   -2.0639   24.9403  -28.1551 H   0  0  0  0  0  0  0  0  0  0  0  0
   -6.6554   23.8867  -28.9508 H   0  0  0  0  0  0  0  0  0  0  0  0
   -8.2331   22.0605  -29.5660 H   0  0  0  0  0  0  0  0  0  0  0  0
   -8.8915   17.3818  -30.8575 H   0  0  0  0  0  0  0  0  0  0  0  0
   -9.4817   18.1717  -32.3709 H   0  0  0  0  0  0  0  0  0  0  0  0
   -6.0241   19.3306  -31.1986 H   0  0  0  0  0  0  0  0  0  0  0  0
   -4.1792   18.2402  -32.8493 H   0  0  0  0  0  0  0  0  0  0  0  0
   -5.4667   16.4216  -34.3346 H   0  0  0  0  0  0  0  0  0  0  0  0
   -6.9313   22.3095  -33.6855 H   0  0  0  0  0  0  0  0  0  0  0  0
   -5.3348   24.1216  -33.0740 H   0  0  0  0  0  0  0  0  0  0  0  0
   -3.8086   22.3973  -31.1897 H   0  0  0  0  0  0  0  0  0  0  0  0
   -2.8397   20.3953  -30.0752 H   0  0  0  0  0  0  0  0  0  0  0  0
  1  2  1  0
  2  3  1  0
  3  4  1  0
  4  5  1  0
  3  6  1  0
  6  7  2  0
  7  8  1  0
  8  9  2  0
  9 10  1  0
 10 11  1  0
 11 12  2  0
 11 13  1  0
 13 14  2  0
 14 15  1  0
 15 16  2  0
 16 17  1  0
 17 18  2  0
 17 19  2  0
 17 20  1  0
 20 21  1  0
 21 22  1  0
 22 23  2  0
 23 24  1  0
 24 25  2  0
 25 26  1  0
 16 27  1  0
 27 28  2  0
  9 29  1  0
 29 30  2  0
 30  6  1  0
 28 13  1  0
 26 22  1  0
  1 31  1  0
  1 32  1  0
  1 33  1  0
  2 34  1  0
  2 35  1  0
  4 36  1  0
  4 37  1  0
  5 38  1  0
  5 39  1  0
  5 40  1  0
  7 41  1  0
  8 42  1  0
 14 43  1  0
 15 44  1  0
 21 45  1  0
 21 46  1  0
 23 47  1  0
 24 48  1  0
 25 49  1  0
 27 50  1  0
 28 51  1  0
 29 52  1  0
 30 53  1  0
M  CHG  2  10  -1  20  -1
M  END
>  <UniqueID>  (4) 
4

>  <SMILES>  (4) 
CCN(CC)c1ccc([N-]C(=O)c2ccc(S(=O)(=O)[N-]Cc3ccco3)cc2)cc1

>  <Energy>  (4) 
80.7021406445198

>  <Genealogy>  (4) 
CCN(CC)c1ccc([N-]C(=O)c2ccc(S(=O)(=O)[N-]Cc3ccco3)cc2)cc1 (protonated)
CCN(CC)c1ccc([N-]C(=O)c2ccc(S(=O)(=O)[N-]Cc3ccco3)cc2)cc1 (3D coordinates assigned)
CCN(CC)c1ccc([N-]C(=O)c2ccc(S(=O)(=O)[N-]Cc3ccco3)cc2)cc1 (optimized conformer: 80.7021406445198 kcal/mol)

>  <smiles>  (4) 
CCN(CC)c1ccc(NC(=O)c2ccc(S(=O)(=O)NCc3ccco3)cc2)cc1

>  <score_type>  (4) 
oracle

>  <origin>  (4) 
adgpu

>  <m_score__min__energy>  (4) 
-10.880000000000001

>  <m_primary>  (4) 
energy

$$$$
4:0
     RDKit          3D

 42 45  0  0  0  0  0  0  0  0999 V2000
   -0.8550   29.4820  -25.4120 C   0  0  0  0  0  0  0  0  0  0  0  0
   -0.8130   27.9940  -25.2340 C   0  0  0  0  0  0  0  0  0  0  0  0
   -0.7080   27.4340  -23.9570 C   0  0  0  0  0  0  0  0  0  0  0  0
   -0.7100   26.0500  -23.8030 C   0  0  0  0  0  0  0  0  0  0  0  0
   -0.8290   25.2290  -24.9270 C   0  0  0  0  0  0  0  0  0  0  0  0
   -0.8510   23.9770  -24.7710 O   0  0  0  0  0  0  0  0  0  0  0  0
   -0.9410   25.7810  -26.1800 N   0  0  0  0  0  0  0  0  0  0  0  0
   -1.0620   24.9450  -27.3480 C   0  0  0  0  0  0  0  0  0  0  0  0
    0.0240   24.1700  -27.7830 C   0  0  0  0  0  0  0  0  0  0  0  0
   -0.0930   23.3680  -28.9210 C   0  0  0  0  0  0  0  0  0  0  0  0
   -1.2920   23.3360  -29.6360 C   0  0  0  0  0  0  0  0  0  0  0  0
   -2.3880   24.1080  -29.2210 C   0  0  0  0  0  0  0  0  0  0  0  0
   -3.6530   24.0730  -29.9820 C   0  0  0  0  0  0  0  0  0  0  0  0
   -4.3500   22.9430  -30.2280 N   0  0  0  0  0  0  0  0  0  0  0  0
   -5.4120   23.3740  -30.9400 C   0  0  0  0  0  0  0  0  0  0  0  0
   -6.4800   22.4790  -31.4470 C   0  0  0  0  0  0  0  0  0  0  0  0
   -6.1520   21.4070  -32.2980 C   0  0  0  0  0  0  0  0  0  0  0  0
   -7.1470   20.5540  -32.7850 C   0  0  0  0  0  0  0  0  0  0  0  0
   -8.4860   20.7610  -32.4310 C   0  0  0  0  0  0  0  0  0  0  0  0
   -9.4860   19.9190  -32.9100 O   0  0  0  0  0  0  0  0  0  0  0  0
   -8.8230   21.8240  -31.5870 C   0  0  0  0  0  0  0  0  0  0  0  0
   -7.8300   22.6780  -31.0980 C   0  0  0  0  0  0  0  0  0  0  0  0
   -5.3190   24.7430  -31.0970 C   0  0  0  0  0  0  0  0  0  0  0  0
   -4.2260   25.1390  -30.4950 O   0  0  0  0  0  0  0  0  0  0  0  0
   -2.2650   24.9130  -28.0750 C   0  0  0  0  0  0  0  0  0  0  0  0
   -0.9450   27.1410  -26.3380 C   0  0  0  0  0  0  0  0  0  0  0  0
   -0.8687   29.9690  -24.4258 H   0  0  0  0  0  0  0  0  0  0  0  0
    0.0343   29.8097  -25.9704 H   0  0  0  0  0  0  0  0  0  0  0  0
   -1.7613   29.7590  -25.9704 H   0  0  0  0  0  0  0  0  0  0  0  0
   -0.6239   28.0860  -23.0751 H   0  0  0  0  0  0  0  0  0  0  0  0
   -0.6183   25.6053  -22.8011 H   0  0  0  0  0  0  0  0  0  0  0  0
    0.9719   24.1941  -27.2254 H   0  0  0  0  0  0  0  0  0  0  0  0
    0.7612   22.7605  -29.2545 H   0  0  0  0  0  0  0  0  0  0  0  0
   -1.3780   22.7015  -30.5304 H   0  0  0  0  0  0  0  0  0  0  0  0
   -5.1029   21.2387  -32.5826 H   0  0  0  0  0  0  0  0  0  0  0  0
   -6.8774   19.7184  -33.4477 H   0  0  0  0  0  0  0  0  0  0  0  0
   -9.3790   19.4120  -33.7810 H   0  0  0  0  0  0  0  0  0  0  0  0
   -9.8738   21.9888  -31.3067 H   0  0  0  0  0  0  0  0  0  0  0  0
   -8.1051   23.5119  -30.4355 H   0  0  0  0  0  0  0  0  0  0  0  0
   -6.0345   25.3850  -31.6316 H   0  0  0  0  0  0  0  0  0  0  0  0
   -3.1180   25.5236  -27.7440 H   0  0  0  0  0  0  0  0  0  0  0  0
   -1.0533   27.5699  -27.3451 H   0  0  0  0  0  0  0  0  0  0  0  0
  1  2  1  0
  2  3  1  0
  3  4  2  0
  4  5  1  0
  5  6  2  0
  5  7  1  0
  7  8  1  0
  8  9  2  0
  9 10  1  0
 10 11  2  0
 11 12  1  0
 12 13  1  0
 13 14  2  0
 14 15  1  0
 15 16  1  0
 16 17  2  0
 17 18  1  0
 18 19  2  0
 19 20  1  0
 19 21  1  0
 21 22  2  0
 15 23  2  0
 23 24  1  0
 12 25  2  0
  7 26  1  0
 26  2  2  0
 25  8  1  0
 24 13  1  0
 22 16  1  0
  1 27  1  0
  1 28  1  0
  1 29  1  0
  3 30  1  0
  4 31  1  0
  9 32  1  0
 10 33  1  0
 11 34  1  0
 17 35  1  0
 18 36  1  0
 20 37  1  0
 21 38  1  0
 22 39  1  0
 23 40  1  0
 25 41  1  0
 26 42  1  0
M  END
>  <UniqueID>  (5) 
5

>  <SMILES>  (5) 
Cc1ccc(=O)n(-c2cccc(-c3nc(-c4ccc(O)cc4)co3)c2)c1

>  <Energy>  (5) 
85.48892559790939

>  <Genealogy>  (5) 
Cc1ccc(=O)n(-c2cccc(-c3nc(-c4ccc(O)cc4)co3)c2)c1 (3D coordinates assigned)
Cc1ccc(=O)n(-c2cccc(-c3nc(-c4ccc(O)cc4)co3)c2)c1 (optimized conformer: 85.48892559790939 kcal/mol)

>  <smiles>  (5) 
Cc1ccc(=O)n(-c2cccc(-c3nc(-c4ccc(O)cc4)co3)c2)c1

>  <score_type>  (5) 
oracle

>  <origin>  (5) 
adgpu

>  <m_score__min__energy>  (5) 
-8.8300000000000001

>  <m_primary>  (5) 
energy

$$$$
5:0
     RDKit          3D

 35 37  0  0  0  0  0  0  0  0999 V2000
    0.6820   24.9120  -28.1710 O   0  0  0  0  0  0  0  0  0  0  0  0
   -0.2780   25.6130  -27.7560 C   0  0  0  0  0  0  0  0  0  0  0  0
   -1.6420   25.0790  -27.7420 C   0  0  0  0  0  0  0  0  0  0  0  0
   -2.3290   24.6250  -26.6330 C   0  0  0  0  0  0  0  0  0  0  0  0
   -3.5620   24.2220  -27.0960 C   0  0  0  0  0  0  0  0  0  0  0  0
   -3.5520   24.4550  -28.4640 C   0  0  0  0  0  0  0  0  0  0  0  0
   -4.6490   24.1900  -29.4240 C   0  0  0  0  0  0  0  0  0  0  0  0
   -4.9690   25.1010  -30.4470 C   0  0  0  0  0  0  0  0  0  0  0  0
   -6.0080   24.8250  -31.3410 C   0  0  0  0  0  0  0  0  0  0  0  0
   -6.7450   23.6410  -31.2350 C   0  0  0  0  0  0  0  0  0  0  0  0
   -7.7740   23.4150  -32.1640 O   0  0  0  0  0  0  0  0  0  0  0  0
   -8.8910   22.5490  -31.9630 C   0  0  0  0  0  0  0  0  0  0  0  0
   -8.5040   21.1120  -32.1970 C   0  0  0  0  0  0  0  0  0  0  0  0
   -9.4160   20.0750  -31.9350 C   0  0  0  0  0  0  0  0  0  0  0  0
   -9.0530   18.7440  -32.1640 C   0  0  0  0  0  0  0  0  0  0  0  0
   -7.7830   18.4390  -32.6630 C   0  0  0  0  0  0  0  0  0  0  0  0
   -6.8750   19.4660  -32.9370 C   0  0  0  0  0  0  0  0  0  0  0  0
   -7.2350   20.7980  -32.7100 C   0  0  0  0  0  0  0  0  0  0  0  0
   -6.4320   22.7300  -30.2100 C   0  0  0  0  0  0  0  0  0  0  0  0
   -5.3930   23.0030  -29.3160 C   0  0  0  0  0  0  0  0  0  0  0  0
   -2.3910   24.9670  -28.8130 O   0  0  0  0  0  0  0  0  0  0  0  0
   -0.0906   26.6369  -27.4003 H   0  0  0  0  0  0  0  0  0  0  0  0
   -1.9664   24.5921  -25.5950 H   0  0  0  0  0  0  0  0  0  0  0  0
   -4.3868   23.8011  -26.5022 H   0  0  0  0  0  0  0  0  0  0  0  0
   -4.3983   26.0363  -30.5442 H   0  0  0  0  0  0  0  0  0  0  0  0
   -6.2483   25.5464  -32.1359 H   0  0  0  0  0  0  0  0  0  0  0  0
   -9.2529   22.6613  -30.9303 H   0  0  0  0  0  0  0  0  0  0  0  0
   -9.6812   22.8218  -32.6779 H   0  0  0  0  0  0  0  0  0  0  0  0
  -10.4185   20.3111  -31.5486 H   0  0  0  0  0  0  0  0  0  0  0  0
   -9.7679   17.9356  -31.9512 H   0  0  0  0  0  0  0  0  0  0  0  0
   -7.4984   17.3913  -32.8399 H   0  0  0  0  0  0  0  0  0  0  0  0
   -5.8766   19.2261  -33.3315 H   0  0  0  0  0  0  0  0  0  0  0  0
   -6.5207   21.6038  -32.9344 H   0  0  0  0  0  0  0  0  0  0  0  0
   -7.0079   21.7980  -30.1116 H   0  0  0  0  0  0  0  0  0  0  0  0
   -5.1554   22.2817  -28.5202 H   0  0  0  0  0  0  0  0  0  0  0  0
  1  2  2  0
  2  3  1  0
  3  4  2  0
  4  5  1  0
  5  6  2  0
  6  7  1  0
  7  8  2  0
  8  9  1  0
  9 10  2  0
 10 11  1  0
 11 12  1  0
 12 13  1  0
 13 14  2  0
 14 15  1  0
 15 16  2  0
 16 17  1  0
 17 18  2  0
 10 19  1  0
 19 20  2  0
  6 21  1  0
 21  3  1  0
 20  7  1  0
 18 13  1  0
  2 22  1  0
  4 23  1  0
  5 24  1  0
  8 25  1  0
  9 26  1  0
 12 27  1  0
 12 28  1  0
 14 29  1  0
 15 30  1  0
 16 31  1  0
 17 32  1  0
 18 33  1  0
 19 34  1  0
 20 35  1  0
M  END
>  <UniqueID>  (6) 
6

>  <SMILES>  (6) 
O=Cc1ccc(-c2ccc(OCc3ccccc3)cc2)o1

>  <Energy>  (6) 
63.52387607553789

>  <Genealogy>  (6) 
O=Cc1ccc(-c2ccc(OCc3ccccc3)cc2)o1 (3D coordinates assigned)
O=Cc1ccc(-c2ccc(OCc3ccccc3)cc2)o1 (optimized conformer: 63.52387607553789 kcal/mol)

>  <smiles>  (6) 
O=Cc1ccc(-c2ccc(OCc3ccccc3)cc2)o1

>  <score_type>  (6) 
oracle

>  <origin>  (6) 
adgpu

>  <m_score__min__energy>  (6) 
-8.2200000000000006

>  <m_primary>  (6) 
energy

$$$$
6:0
     RDKit          3D

 53 56  0  0  0  0  0  0  0  0999 V2000
   -5.7430   25.8420  -30.1250 C   0  0  0  0  0  0  0  0  0  0  0  0
   -4.3980   25.6840  -30.5680 O   0  0  0  0  0  0  0  0  0  0  0  0
   -3.6570   24.4990  -30.4510 C   0  0  0  0  0  0  0  0  0  0  0  0
   -4.0220   23.3140  -31.1220 C   0  0  0  0  0  0  0  0  0  0  0  0
   -3.2600   22.1390  -30.9750 C   0  0  0  0  0  0  0  0  0  0  0  0
   -3.6590   20.9040  -31.6980 C   0  0  0  0  0  0  0  0  0  0  0  0
   -2.7170   20.1010  -32.3590 C   0  0  0  0  0  0  0  0  0  0  0  0
   -3.1260   18.9480  -33.0470 C   0  0  0  0  0  0  0  0  0  0  0  0
   -2.0990   18.1780  -33.7810 C   0  0  0  0  0  0  0  0  0  0  0  0
   -2.4410   17.2780  -34.5950 O   0  0  0  0  0  0  0  0  0  0  0  0
   -0.7160   18.5160  -33.6270 N   0  0  0  0  0  0  0  0  0  0  0  0
    0.0220   19.3210  -34.5570 C   0  0  0  0  0  0  0  0  0  0  0  0
    0.4110   18.8130  -35.8220 C   0  0  0  0  0  0  0  0  0  0  0  0
    0.1060   17.3990  -36.2410 C   0  0  0  0  0  0  0  0  0  0  0  0
    1.0960   19.6480  -36.7180 C   0  0  0  0  0  0  0  0  0  0  0  0
    1.4360   20.9510  -36.3530 C   0  0  0  0  0  0  0  0  0  0  0  0
    1.1000   21.4370  -35.0900 C   0  0  0  0  0  0  0  0  0  0  0  0
    0.4030   20.6260  -34.1810 C   0  0  0  0  0  0  0  0  0  0  0  0
    0.0230   21.1710  -32.8310 C   0  0  0  0  0  0  0  0  0  0  0  0
   -4.4960   18.5800  -33.0250 C   0  0  0  0  0  0  0  0  0  0  0  0
   -4.9800   17.3920  -33.6160 C   0  0  0  0  0  0  0  0  0  0  0  0
   -6.3490   17.0800  -33.5760 C   0  0  0  0  0  0  0  0  0  0  0  0
   -6.8460   15.7980  -34.1790 C   0  0  0  0  0  0  0  0  0  0  0  0
   -7.2350   17.9320  -32.9060 C   0  0  0  0  0  0  0  0  0  0  0  0
   -6.7670   19.0940  -32.2930 C   0  0  0  0  0  0  0  0  0  0  0  0
   -5.4080   19.4190  -32.3420 C   0  0  0  0  0  0  0  0  0  0  0  0
   -4.9680   20.5370  -31.7090 N   0  0  0  0  0  0  0  0  0  0  0  0
   -2.1110   22.1710  -30.1610 C   0  0  0  0  0  0  0  0  0  0  0  0
   -1.7480   23.3440  -29.4970 C   0  0  0  0  0  0  0  0  0  0  0  0
   -2.5170   24.5020  -29.6370 C   0  0  0  0  0  0  0  0  0  0  0  0
   -2.1420   25.6600  -28.9680 O   0  0  0  0  0  0  0  0  0  0  0  0
   -5.7689   25.8450  -29.0253 H   0  0  0  0  0  0  0  0  0  0  0  0
   -6.1444   26.7935  -30.5038 H   0  0  0  0  0  0  0  0  0  0  0  0
   -6.3540   25.0095  -30.5038 H   0  0  0  0  0  0  0  0  0  0  0  0
   -4.9124   23.3072  -31.7679 H   0  0  0  0  0  0  0  0  0  0  0  0
   -1.6523   20.3766  -32.3379 H   0  0  0  0  0  0  0  0  0  0  0  0
   -0.0291   16.7727  -35.3469 H   0  0  0  0  0  0  0  0  0  0  0  0
   -0.8158   17.3851  -36.8411 H   0  0  0  0  0  0  0  0  0  0  0  0
    0.9401   17.0064  -36.8411 H   0  0  0  0  0  0  0  0  0  0  0  0
    1.3670   19.2724  -37.7157 H   0  0  0  0  0  0  0  0  0  0  0  0
    1.9711   21.5973  -37.0643 H   0  0  0  0  0  0  0  0  0  0  0  0
    1.3826   22.4611  -34.8047 H   0  0  0  0  0  0  0  0  0  0  0  0
    0.4626   20.5405  -32.0441 H   0  0  0  0  0  0  0  0  0  0  0  0
    0.4010   22.1991  -32.7310 H   0  0  0  0  0  0  0  0  0  0  0  0
   -1.0724   21.1718  -32.7310 H   0  0  0  0  0  0  0  0  0  0  0  0
   -4.2786   16.7050  -34.1120 H   0  0  0  0  0  0  0  0  0  0  0  0
   -7.1179   15.0965  -33.3765 H   0  0  0  0  0  0  0  0  0  0  0  0
   -7.7295   16.0037  -34.8012 H   0  0  0  0  0  0  0  0  0  0  0  0
   -6.0547   15.3544  -34.8012 H   0  0  0  0  0  0  0  0  0  0  0  0
   -8.3057   17.6837  -32.8628 H   0  0  0  0  0  0  0  0  0  0  0  0
   -7.4702   19.7578  -31.7686 H   0  0  0  0  0  0  0  0  0  0  0  0
   -1.4959   21.2661  -30.0478 H   0  0  0  0  0  0  0  0  0  0  0  0
   -0.8514   23.3567  -28.8599 H   0  0  0  0  0  0  0  0  0  0  0  0
  1  2  1  0
  2  3  1  0
  3  4  2  0
  4  5  1  0
  5  6  1  0
  6  7  2  0
  7  8  1  0
  8  9  1  0
  9 10  2  0
  9 11  1  0
 11 12  1  0
 12 13  2  0
 13 14  1  0
 13 15  1  0
 15 16  2  0
 16 17  1  0
 17 18  2  0
 18 19  1  0
  8 20  2  0
 20 21  1  0
 21 22  2  0
 22 23  1  0
 22 24  1  0
 24 25  2  0
 25 26  1  0
 26 27  2  0
  5 28  2  0
 28 29  1  0
 29 30  2  0
 30 31  1  0
 30  3  1  0
 27  6  1  0
 18 12  1  0
 26 20  1  0
  1 32  1  0
  1 33  1  0
  1 34  1  0
  4 35  1  0
  7 36  1  0
 14 37  1  0
 14 38  1  0
 14 39  1  0
 15 40  1  0
 16 41  1  0
 17 42  1  0
 19 43  1  0
 19 44  1  0
 19 45  1  0
 21 46  1  0
 23 47  1  0
 23 48  1  0
 23 49  1  0
 24 50  1  0
 25 51  1  0
 28 52  1  0
 29 53  1  0
M  CHG  2  11  -1  31  -1
M  END
>  <UniqueID>  (7) 
7

>  <SMILES>  (7) 
COc1cc(-c2cc(C(=O)[N-]c3c(C)cccc3C)c3cc(C)ccc3n2)ccc1[O-]

>  <Energy>  (7) 
76.12905730226912

>  <Genealogy>  (7) 
COc1cc(-c2cc(C(=O)[N-]c3c(C)cccc3C)c3cc(C)ccc3n2)ccc1[O-] (protonated)
COc1cc(-c2cc(C(=O)[N-]c3c(C)cccc3C)c3cc(C)ccc3n2)ccc1[O-] (3D coordinates assigned)
COc1cc(-c2cc(C(=O)[N-]c3c(C)cccc3C)c3cc(C)ccc3n2)ccc1[O-] (optimized conformer: 76.12905730226912 kcal/mol)

>  <smiles>  (7) 
COc1cc(-c2cc(C(=O)Nc3c(C)cccc3C)c3cc(C)ccc3n2)ccc1O

>  <score_type>  (7) 
oracle

>  <origin>  (7) 
adgpu

>  <m_score__min__energy>  (7) 
-11.77

>  <m_primary>  (7) 
energy

$$$$
7:0
     RDKit          3D

 71 75  0  0  0  0  0  0  0  0999 V2000
   -9.0660   20.0310  -31.0490 O   0  0  0  0  0  0  0  0  0  0  0  0
   -8.4300   20.9980  -32.0070 S   0  0  0  0  0  0  0  0  0  0  0  0
   -9.4710   21.9830  -32.4620 O   0  0  0  0  0  0  0  0  0  0  0  0
   -7.8460   20.1190  -33.3870 N   0  0  0  0  0  0  0  0  0  0  0  0
   -6.8870   19.0590  -33.2960 C   0  0  0  0  0  0  0  0  0  0  0  0
   -6.7890   18.3150  -32.1140 C   0  0  0  0  0  0  0  0  0  0  0  0
   -5.8640   17.2740  -32.0070 C   0  0  0  0  0  0  0  0  0  0  0  0
   -5.0390   16.9460  -33.0960 C   0  0  0  0  0  0  0  0  0  0  0  0
   -4.0570   15.8050  -32.9920 C   0  0  0  0  0  0  0  0  0  0  0  0
   -3.5710   15.3160  -34.3740 C   0  0  0  0  0  0  0  0  0  0  0  0
   -2.3450   15.9890  -34.8400 N   0  0  0  0  0  0  0  0  0  0  0  0
   -1.5760   16.6140  -33.7460 C   0  0  0  0  0  0  0  0  0  0  0  0
   -0.7940   17.8400  -34.2460 C   0  0  1  0  0  0  0  0  0  0  0  0
   -0.8270   17.8830  -35.6500 O   0  0  0  0  0  0  0  0  0  0  0  0
   -1.3290   19.1320  -33.6560 C   0  0  0  0  0  0  0  0  0  0  0  0
   -2.6270   19.5720  -33.9720 C   0  0  0  0  0  0  0  0  0  0  0  0
   -3.1160   20.7570  -33.4130 C   0  0  0  0  0  0  0  0  0  0  0  0
   -2.3010   21.5110  -32.5670 C   0  0  0  0  0  0  0  0  0  0  0  0
   -1.0420   21.0820  -32.2780 N   0  0  0  0  0  0  0  0  0  0  0  0
   -0.5430   19.9240  -32.7950 C   0  0  0  0  0  0  0  0  0  0  0  0
   -5.1530   17.6780  -34.2910 C   0  0  0  0  0  0  0  0  0  0  0  0
   -6.0780   18.7220  -34.3920 C   0  0  0  0  0  0  0  0  0  0  0  0
   -7.1330   21.8430  -31.1670 C   0  0  0  0  0  0  0  0  0  0  0  0
   -5.8190   21.3590  -31.2390 C   0  0  0  0  0  0  0  0  0  0  0  0
   -4.7920   22.0040  -30.5430 C   0  0  0  0  0  0  0  0  0  0  0  0
   -5.0670   23.1480  -29.7710 C   0  0  0  0  0  0  0  0  0  0  0  0
   -4.0110   23.7800  -28.9410 C   0  0  0  0  0  0  0  0  0  0  0  0
   -2.8090   24.2170  -29.5240 C   0  0  0  0  0  0  0  0  0  0  0  0
   -1.8660   24.9170  -28.7670 C   0  0  0  0  0  0  0  0  0  0  0  0
   -2.1060   25.1970  -27.4120 C   0  0  0  0  0  0  0  0  0  0  0  0
   -1.1370   26.0050  -26.6250 C   0  0  0  0  0  0  0  0  0  0  0  0
    0.0790   26.4220  -27.2010 C   0  0  0  0  0  0  0  0  0  0  0  0
    0.9940   27.1760  -26.4580 C   0  0  0  0  0  0  0  0  0  0  0  0
    0.7040   27.5350  -25.1410 C   0  0  0  0  0  0  0  0  0  0  0  0
   -0.4980   27.1220  -24.5570 C   0  0  0  0  0  0  0  0  0  0  0  0
   -1.4140   26.3640  -25.2930 C   0  0  0  0  0  0  0  0  0  0  0  0
   -3.2910   24.7270  -26.8200 C   0  0  0  0  0  0  0  0  0  0  0  0
   -4.2330   24.0240  -27.5760 C   0  0  0  0  0  0  0  0  0  0  0  0
   -6.3810   23.6460  -29.7310 C   0  0  0  0  0  0  0  0  0  0  0  0
   -7.4070   22.9960  -30.4190 C   0  0  0  0  0  0  0  0  0  0  0  0
   -8.3650   20.2540  -34.2890 H   0  0  0  0  0  0  0  0  0  0  0  0
   -7.4452   18.5520  -31.2636 H   0  0  0  0  0  0  0  0  0  0  0  0
   -5.7811   16.7090  -31.0669 H   0  0  0  0  0  0  0  0  0  0  0  0
   -3.1860   16.1410  -32.4102 H   0  0  0  0  0  0  0  0  0  0  0  0
   -4.5709   14.9650  -32.5017 H   0  0  0  0  0  0  0  0  0  0  0  0
   -3.3723   14.2359  -34.3107 H   0  0  0  0  0  0  0  0  0  0  0  0
   -4.3646   15.5534  -35.0978 H   0  0  0  0  0  0  0  0  0  0  0  0
   -2.6020   16.7230  -35.5460 H   0  0  0  0  0  0  0  0  0  0  0  0
   -2.2709   16.9301  -32.9540 H   0  0  0  0  0  0  0  0  0  0  0  0
   -0.8574   15.8762  -33.3596 H   0  0  0  0  0  0  0  0  0  0  0  0
    0.2486   17.7403  -33.9096 H   0  0  0  0  0  0  0  0  0  0  0  0
   -1.0080   16.9590  -35.9650 H   0  0  0  0  0  0  0  0  0  0  0  0
   -3.2562   18.9853  -34.6574 H   0  0  0  0  0  0  0  0  0  0  0  0
   -4.1386   21.0935  -33.6390 H   0  0  0  0  0  0  0  0  0  0  0  0
   -2.6757   22.4505  -32.1345 H   0  0  0  0  0  0  0  0  0  0  0  0
    0.4784   19.6058  -32.5390 H   0  0  0  0  0  0  0  0  0  0  0  0
   -4.5123   17.4286  -35.1496 H   0  0  0  0  0  0  0  0  0  0  0  0
   -6.1718   19.2814  -35.3345 H   0  0  0  0  0  0  0  0  0  0  0  0
   -5.5953   20.4688  -31.8452 H   0  0  0  0  0  0  0  0  0  0  0  0
   -3.7645   21.6154  -30.5992 H   0  0  0  0  0  0  0  0  0  0  0  0
   -2.6091   24.0062  -30.5849 H   0  0  0  0  0  0  0  0  0  0  0  0
   -0.9287   25.2512  -29.2359 H   0  0  0  0  0  0  0  0  0  0  0  0
    0.3108   26.1530  -28.2421 H   0  0  0  0  0  0  0  0  0  0  0  0
    1.9456   27.4870  -26.9138 H   0  0  0  0  0  0  0  0  0  0  0  0
    1.4183   28.1407  -24.5641 H   0  0  0  0  0  0  0  0  0  0  0  0
   -0.7234   27.3944  -23.5154 H   0  0  0  0  0  0  0  0  0  0  0  0
   -2.3583   26.0459  -24.8271 H   0  0  0  0  0  0  0  0  0  0  0  0
   -3.4786   24.9141  -25.7524 H   0  0  0  0  0  0  0  0  0  0  0  0
   -5.1545   23.6594  -27.0986 H   0  0  0  0  0  0  0  0  0  0  0  0
   -6.6025   24.5552  -29.1529 H   0  0  0  0  0  0  0  0  0  0  0  0
   -8.4331   23.3898  -30.3739 H   0  0  0  0  0  0  0  0  0  0  0  0
  1  2  2  0
  2  3  2  0
  2  4  1  0
  4  5  1  0
  5  6  2  0
  6  7  1  0
  7  8  2  0
  8  9  1  0
  9 10  1  0
 10 11  1  0
 11 12  1  0
 12 13  1  0
 13 14  1  0
 13 15  1  0
 15 16  2  0
 16 17  1  0
 17 18  2  0
 18 19  1  0
 19 20  2  0
  8 21  1  0
 21 22  2  0
  2 23  1  0
 23 24  2  0
 24 25  1  0
 25 26  2  0
 26 27  1  0
 27 28  2  0
 28 29  1  0
 29 30  2  0
 30 31  1  0
 31 32  2  0
 32 33  1  0
 33 34  2  0
 34 35  1  0
 35 36  2  0
 30 37  1  0
 37 38  2  0
 26 39  1  0
 39 40  2  0
 22  5  1  0
 40 23  1  0
 20 15  1  0
 38 27  1  0
 36 31  1  0
  4 41  1  0
  6 42  1  0
  7 43  1  0
  9 44  1  0
  9 45  1  0
 10 46  1  0
 10 47  1  0
 11 48  1  0
 12 49  1  0
 12 50  1  0
 13 51  1  6
 14 52  1  0
 16 53  1  0
 17 54  1  0
 18 55  1  0
 20 56  1  0
 21 57  1  0
 22 58  1  0
 24 59  1  0
 25 60  1  0
 28 61  1  0
 29 62  1  0
 32 63  1  0
 33 64  1  0
 34 65  1  0
 35 66  1  0
 36 67  1  0
 37 68  1  0
 38 69  1  0
 39 70  1  0
 40 71  1  0
M  END
>  <UniqueID>  (8) 
8

>  <SMILES>  (8) 
O=S(=O)(Nc1ccc(CCNC[C@@H](O)c2cccnc2)cc1)c1ccc(-c2ccc(-c3ccccc3)cc2)cc1

>  <Energy>  (8) 
92.09601581216589

>  <Genealogy>  (8) 
O=S(=O)(Nc1ccc(CCNC[C@@H](O)c2cccnc2)cc1)c1ccc(-c2ccc(-c3ccccc3)cc2)cc1 (chirality)
O=S(=O)(Nc1ccc(CCNC[C@@H](O)c2cccnc2)cc1)c1ccc(-c2ccc(-c3ccccc3)cc2)cc1 (3D coordinates assigned)
O=S(=O)(Nc1ccc(CCNC[C@@H](O)c2cccnc2)cc1)c1ccc(-c2ccc(-c3ccccc3)cc2)cc1 (optimized conformer: 92.09601581216589 kcal/mol)

>  <smiles>  (8) 
O=S(=O)(Nc1ccc(CCNCC(O)c2cccnc2)cc1)c1ccc(-c2ccc(-c3ccccc3)cc2)cc1

>  <score_type>  (8) 
oracle

>  <origin>  (8) 
adgpu

>  <m_score__min__energy>  (8) 
-11.300000000000001

>  <m_primary>  (8) 
energy

$$$$
8:0
     RDKit          3D

 42 45  0  0  0  0  0  0  0  0999 V2000
   -0.0860   22.6670  -35.3600 N   0  0  0  0  0  0  0  0  0  0  0  0
    0.5390   21.0570  -35.4250 S   0  0  0  0  0  0  0  0  0  0  0  0
    0.3140   20.4830  -36.7950 O   0  0  0  0  0  0  0  0  0  0  0  0
    2.0150   21.0910  -35.1430 O   0  0  0  0  0  0  0  0  0  0  0  0
   -0.2910   20.0610  -34.2320 C   0  0  0  0  0  0  0  0  0  0  0  0
    0.4320   19.3510  -33.2640 C   0  0  0  0  0  0  0  0  0  0  0  0
   -0.2390   18.5500  -32.3370 C   0  0  0  0  0  0  0  0  0  0  0  0
   -1.6330   18.4650  -32.3620 C   0  0  0  0  0  0  0  0  0  0  0  0
   -2.3710   19.1940  -33.3040 C   0  0  0  0  0  0  0  0  0  0  0  0
   -3.8030   19.0570  -33.3110 N   0  0  0  0  0  0  0  0  0  0  0  0
   -4.6750   19.9450  -32.9330 C   0  0  0  0  0  0  0  0  0  0  0  0
   -4.2870   21.1300  -32.3860 N   0  0  0  0  0  0  0  0  0  0  0  0
   -5.1940   22.0500  -31.9590 C   0  0  0  0  0  0  0  0  0  0  0  0
   -4.7120   23.3330  -31.4150 C   0  0  0  0  0  0  0  0  0  0  0  0
   -5.3620   24.5440  -31.5320 C   0  0  0  0  0  0  0  0  0  0  0  0
   -4.6900   25.4780  -30.8330 N   0  0  0  0  0  0  0  0  0  0  0  0
   -3.6260   24.9130  -30.2830 N   0  0  0  0  0  0  0  0  0  0  0  0
   -3.6060   23.6090  -30.6220 C   0  0  0  0  0  0  0  0  0  0  0  0
   -2.5000   22.7020  -30.2490 C   0  0  0  0  0  0  0  0  0  0  0  0
   -1.5790   22.2860  -31.2250 C   0  0  0  0  0  0  0  0  0  0  0  0
   -0.5400   21.4130  -30.8880 C   0  0  0  0  0  0  0  0  0  0  0  0
   -0.4210   20.9360  -29.5810 C   0  0  0  0  0  0  0  0  0  0  0  0
   -1.3450   21.3260  -28.6080 C   0  0  0  0  0  0  0  0  0  0  0  0
   -2.3860   22.1990  -28.9400 C   0  0  0  0  0  0  0  0  0  0  0  0
   -6.5600   21.7790  -32.1030 C   0  0  0  0  0  0  0  0  0  0  0  0
   -6.9440   20.5560  -32.6500 C   0  0  0  0  0  0  0  0  0  0  0  0
   -6.0000   19.6640  -33.0480 N   0  0  0  0  0  0  0  0  0  0  0  0
   -1.6890   19.9720  -34.2590 C   0  0  0  0  0  0  0  0  0  0  0  0
   -0.9180   22.6490  -34.7280 H   0  0  0  0  0  0  0  0  0  0  0  0
   -0.4390   22.8990  -36.3160 H   0  0  0  0  0  0  0  0  0  0  0  0
    1.5291   19.4246  -33.2341 H   0  0  0  0  0  0  0  0  0  0  0  0
    0.3318   17.9848  -31.5855 H   0  0  0  0  0  0  0  0  0  0  0  0
   -2.1546   17.8219  -31.6378 H   0  0  0  0  0  0  0  0  0  0  0  0
   -6.2840   24.7190  -32.1059 H   0  0  0  0  0  0  0  0  0  0  0  0
   -1.6757   22.6487  -32.2590 H   0  0  0  0  0  0  0  0  0  0  0  0
    0.1852   21.1013  -31.6541 H   0  0  0  0  0  0  0  0  0  0  0  0
    0.4002   20.2532  -29.3174 H   0  0  0  0  0  0  0  0  0  0  0  0
   -1.2535   20.9460  -27.5798 H   0  0  0  0  0  0  0  0  0  0  0  0
   -3.1188   22.4936  -28.1744 H   0  0  0  0  0  0  0  0  0  0  0  0
   -7.3145   22.5161  -31.7909 H   0  0  0  0  0  0  0  0  0  0  0  0
   -8.0113   20.3131  -32.7594 H   0  0  0  0  0  0  0  0  0  0  0  0
   -2.2568   20.5128  -35.0304 H   0  0  0  0  0  0  0  0  0  0  0  0
  1  2  1  0
  2  3  2  0
  2  4  2  0
  2  5  1  0
  5  6  2  0
  6  7  1  0
  7  8  2  0
  8  9  1  0
  9 10  1  0
 10 11  2  3
 11 12  1  0
 12 13  2  0
 13 14  1  0
 14 15  1  0
 15 16  2  0
 16 17  1  0
 17 18  1  0
 18 19  1  0
 19 20  2  0
 20 21  1  0
 21 22  2  0
 22 23  1  0
 23 24  2  0
 13 25  1  0
 25 26  2  0
 26 27  1  0
  9 28  2  0
 28  5  1  0
 27 11  1  0
 18 14  2  0
 24 19  1  0
  1 29  1  0
  1 30  1  0
  6 31  1  0
  7 32  1  0
  8 33  1  0
 15 34  1  0
 20 35  1  0
 21 36  1  0
 22 37  1  0
 23 38  1  0
 24 39  1  0
 25 40  1  0
 26 41  1  0
 28 42  1  0
M  CHG  2  17  -1  27  -1
M  END
>  <UniqueID>  (9) 
9

>  <SMILES>  (9) 
NS(=O)(=O)c1cccc(N=c2nc(-c3cn[n-]c3-c3ccccc3)cc[n-]2)c1

>  <Energy>  (9) 
88.7984680017515

>  <Genealogy>  (9) 
NS(=O)(=O)c1cccc(N=c2nc(-c3cn[n-]c3-c3ccccc3)cc[n-]2)c1 (protonated)
NS(=O)(=O)c1cccc(N=c2nc(-c3cn[n-]c3-c3ccccc3)cc[n-]2)c1 (3D coordinates assigned)
NS(=O)(=O)c1cccc(N=c2nc(-c3cn[n-]c3-c3ccccc3)cc[n-]2)c1 (optimized conformer: 88.7984680017515 kcal/mol)

>  <smiles>  (9) 
NS(=O)(=O)c1cccc(N=c2nc(-c3cn[nH]c3-c3ccccc3)cc[nH]2)c1

>  <score_type>  (9) 
oracle

>  <origin>  (9) 
adgpu

>  <m_score__min__energy>  (9) 
-10.74

>  <m_primary>  (9) 
energy

$$$$
9:0
     RDKit          3D

 45 47  0  0  0  0  0  0  0  0999 V2000
   -0.7730   27.0510  -27.8190 C   0  0  0  0  0  0  0  0  0  0  0  0
   -1.2520   26.2200  -28.8700 O   0  0  0  0  0  0  0  0  0  0  0  0
   -1.5020   24.8470  -28.7440 C   0  0  0  0  0  0  0  0  0  0  0  0
   -0.6340   23.9910  -28.0340 C   0  0  0  0  0  0  0  0  0  0  0  0
   -0.8980   22.6270  -27.9560 C   0  0  0  0  0  0  0  0  0  0  0  0
   -2.0250   22.0990  -28.5890 C   0  0  0  0  0  0  0  0  0  0  0  0
   -2.8970   22.9360  -29.2880 C   0  0  0  0  0  0  0  0  0  0  0  0
   -2.6460   24.3170  -29.3610 C   0  0  0  0  0  0  0  0  0  0  0  0
   -3.5170   25.2050  -30.0790 N   0  0  0  0  0  0  0  0  0  0  0  0
   -5.2180   24.9760  -30.3180 S   0  0  0  0  0  0  0  0  0  0  0  0
   -5.9190   25.0840  -28.9940 O   0  0  0  0  0  0  0  0  0  0  0  0
   -5.7360   26.0570  -31.2230 O   0  0  0  0  0  0  0  0  0  0  0  0
   -5.5330   23.3830  -30.9930 C   0  0  0  0  0  0  0  0  0  0  0  0
   -6.7000   22.7000  -30.6360 C   0  0  0  0  0  0  0  0  0  0  0  0
   -6.9910   21.4550  -31.2020 C   0  0  0  0  0  0  0  0  0  0  0  0
   -6.1170   20.8740  -32.1390 C   0  0  0  0  0  0  0  0  0  0  0  0
   -6.4520   19.5660  -32.7610 C   0  0  0  0  0  0  0  0  0  0  0  0
   -7.6540   19.3000  -33.0350 O   0  0  0  0  0  0  0  0  0  0  0  0
   -5.4170   18.6360  -33.1180 N   0  0  0  0  0  0  0  0  0  0  0  0
   -5.6340   17.2370  -33.3920 C   0  0  0  0  0  0  0  0  0  0  0  0
   -6.6780   16.7980  -34.2270 C   0  0  0  0  0  0  0  0  0  0  0  0
   -6.8820   15.4330  -34.4470 C   0  0  0  0  0  0  0  0  0  0  0  0
   -6.0620   14.4920  -33.8220 C   0  0  0  0  0  0  0  0  0  0  0  0
   -5.0360   14.9150  -32.9710 C   0  0  0  0  0  0  0  0  0  0  0  0
   -4.2070   13.9470  -32.3030 C   0  0  0  0  0  0  0  0  0  0  0  0
   -3.5380   13.1720  -31.7630 N   0  0  0  0  0  0  0  0  0  0  0  0
   -4.8260   16.2840  -32.7550 C   0  0  0  0  0  0  0  0  0  0  0  0
   -4.9310   21.5540  -32.4680 C   0  0  0  0  0  0  0  0  0  0  0  0
   -4.6460   22.8020  -31.9040 C   0  0  0  0  0  0  0  0  0  0  0  0
   -1.0321   26.6015  -26.8491 H   0  0  0  0  0  0  0  0  0  0  0  0
    0.3198   27.1485  -27.8977 H   0  0  0  0  0  0  0  0  0  0  0  0
   -1.2364   28.0455  -27.8977 H   0  0  0  0  0  0  0  0  0  0  0  0
    0.2571   24.4044  -27.5390 H   0  0  0  0  0  0  0  0  0  0  0  0
   -0.2199   21.9658  -27.3966 H   0  0  0  0  0  0  0  0  0  0  0  0
   -2.2268   21.0189  -28.5368 H   0  0  0  0  0  0  0  0  0  0  0  0
   -3.7835   22.5131  -29.7833 H   0  0  0  0  0  0  0  0  0  0  0  0
   -7.3926   23.1445  -29.9061 H   0  0  0  0  0  0  0  0  0  0  0  0
   -7.9107   20.9256  -30.9123 H   0  0  0  0  0  0  0  0  0  0  0  0
   -4.4580   19.0160  -33.2860 H   0  0  0  0  0  0  0  0  0  0  0  0
   -7.3379   17.5339  -34.7097 H   0  0  0  0  0  0  0  0  0  0  0  0
   -7.6905   15.0995  -35.1141 H   0  0  0  0  0  0  0  0  0  0  0  0
   -6.2227   13.4183  -33.9988 H   0  0  0  0  0  0  0  0  0  0  0  0
   -4.0215   16.6132  -32.0809 H   0  0  0  0  0  0  0  0  0  0  0  0
   -4.2209   21.1005  -33.1752 H   0  0  0  0  0  0  0  0  0  0  0  0
   -3.7200   23.3284  -32.1785 H   0  0  0  0  0  0  0  0  0  0  0  0
  1  2  1  0
  2  3  1  0
  3  4  2  0
  4  5  1  0
  5  6  2  0
  6  7  1  0
  7  8  2  0
  8  9  1  0
  9 10  1  0
 10 11  2  0
 10 12  2  0
 10 13  1  0
 13 14  2  0
 14 15  1  0
 15 16  2  0
 16 17  1  0
 17 18  2  0
 17 19  1  0
 19 20  1  0
 20 21  2  0
 21 22  1  0
 22 23  2  0
 23 24  1  0
 24 25  1  0
 25 26  3  0
 24 27  2  0
 16 28  1  0
 28 29  2  0
  8  3  1  0
 29 13  1  0
 27 20  1  0
  1 30  1  0
  1 31  1  0
  1 32  1  0
  4 33  1  0
  5 34  1  0
  6 35  1  0
  7 36  1  0
 14 37  1  0
 15 38  1  0
 19 39  1  0
 21 40  1  0
 22 41  1  0
 23 42  1  0
 27 43  1  0
 28 44  1  0
 29 45  1  0
M  CHG  1   9  -1
M  END
>  <UniqueID>  (10) 
10

>  <SMILES>  (10) 
COc1ccccc1[N-]S(=O)(=O)c1ccc(C(=O)Nc2cccc(C#N)c2)cc1

>  <Energy>  (10) 
56.07012661007253

>  <Genealogy>  (10) 
COc1ccccc1[N-]S(=O)(=O)c1ccc(C(=O)Nc2cccc(C#N)c2)cc1 (protonated)
COc1ccccc1[N-]S(=O)(=O)c1ccc(C(=O)Nc2cccc(C#N)c2)cc1 (3D coordinates assigned)
COc1ccccc1[N-]S(=O)(=O)c1ccc(C(=O)Nc2cccc(C#N)c2)cc1 (optimized conformer: 56.07012661007253 kcal/mol)

>  <smiles>  (10) 
COc1ccccc1NS(=O)(=O)c1ccc(C(=O)Nc2cccc(C#N)c2)cc1

>  <score_type>  (10) 
oracle

>  <origin>  (10) 
adgpu

>  <m_score__min__energy>  (10) 
-11.050000000000001

>  <m_primary>  (10) 
energy

$$$$
10:0
     RDKit          3D

 59 58  0  0  0  0  0  0  0  0999 V2000
   -3.0920   25.6740  -30.4210 H   0  0  0  0  0  0  0  0  0  0  0  0
   -3.9910   25.5900  -30.8350 O   0  0  0  0  0  0  0  0  0  0  0  0
   -4.8820   25.1840  -29.8280 C   0  0  1  0  0  0  0  0  0  0  0  0
   -5.0232   25.9925  -29.0956 H   0  0  0  0  0  0  0  0  0  0  0  0
   -5.3930   22.0560  -32.4480 C   0  0  0  0  0  0  0  0  0  0  0  0
   -6.2513   21.4980  -32.0457 H   0  0  0  0  0  0  0  0  0  0  0  0
   -5.3630   23.3890  -32.2860 C   0  0  0  0  0  0  0  0  0  0  0  0
   -4.5451   23.9785  -32.7260 H   0  0  0  0  0  0  0  0  0  0  0  0
   -3.0350   21.3890  -32.7940 C   0  0  0  0  0  0  0  0  0  0  0  0
   -2.7558   22.0145  -31.9333 H   0  0  0  0  0  0  0  0  0  0  0  0
   -4.3290   21.3060  -33.1400 C   0  0  0  0  0  0  0  0  0  0  0  0
   -4.6081   20.6492  -33.9771 H   0  0  0  0  0  0  0  0  0  0  0  0
   -3.4010   16.5240  -33.7180 C   0  0  0  0  0  0  0  0  0  0  0  0
   -3.4793   16.5988  -34.8127 H   0  0  0  0  0  0  0  0  0  0  0  0
   -2.2280   19.1830  -33.7250 C   0  0  0  0  0  0  0  0  0  0  0  0
   -2.9042   18.8673  -34.5331 H   0  0  0  0  0  0  0  0  0  0  0  0
   -1.9480   20.6550  -33.5430 C   0  0  0  0  0  0  0  0  0  0  0  0
   -1.0066   20.7635  -32.9844 H   0  0  0  0  0  0  0  0  0  0  0  0
   -1.8918   21.0994  -34.5477 H   0  0  0  0  0  0  0  0  0  0  0  0
   -6.4270   24.0620  -31.5180 C   0  0  0  0  0  0  0  0  0  0  0  0
   -7.4674   23.8918  -31.8321 H   0  0  0  0  0  0  0  0  0  0  0  0
   -6.5040   17.1630  -34.2080 C   0  0  0  0  0  0  0  0  0  0  0  0
   -7.3680   16.9485  -34.8541 H   0  0  0  0  0  0  0  0  0  0  0  0
   -2.0530   16.7900  -33.0920 C   0  0  0  0  0  0  0  0  0  0  0  0
   -2.0473   16.3310  -32.0924 H   0  0  0  0  0  0  0  0  0  0  0  0
   -1.3106   16.3617  -33.7816 H   0  0  0  0  0  0  0  0  0  0  0  0
   -1.6820   18.2480  -32.9370 C   0  0  0  0  0  0  0  0  0  0  0  0
   -0.9543   18.5442  -32.1671 H   0  0  0  0  0  0  0  0  0  0  0  0
   -4.5100   16.2030  -33.0350 C   0  0  0  0  0  0  0  0  0  0  0  0
   -4.4529   16.0068  -31.9542 H   0  0  0  0  0  0  0  0  0  0  0  0
   -5.8090   16.1130  -33.7350 C   0  0  0  0  0  0  0  0  0  0  0  0
   -6.2399   15.1114  -33.8800 H   0  0  0  0  0  0  0  0  0  0  0  0
   -6.2190   24.8700  -30.4600 C   0  0  0  0  0  0  0  0  0  0  0  0
   -7.1050   25.3458  -30.0143 H   0  0  0  0  0  0  0  0  0  0  0  0
   -6.1930   18.6110  -33.9230 C   0  0  0  0  0  0  0  0  0  0  0  0
   -6.5873   19.2310  -34.7416 H   0  0  0  0  0  0  0  0  0  0  0  0
   -5.1018   18.7247  -33.8429 H   0  0  0  0  0  0  0  0  0  0  0  0
   -6.8300   19.0640  -32.5980 C   0  0  0  0  0  0  0  0  0  0  0  0
   -6.1309   19.7388  -32.0823 H   0  0  0  0  0  0  0  0  0  0  0  0
   -7.0363   18.1642  -31.9998 H   0  0  0  0  0  0  0  0  0  0  0  0
   -8.1630   19.8020  -32.8110 C   0  0  0  0  0  0  0  0  0  0  0  0
   -8.8914   19.1036  -33.2487 H   0  0  0  0  0  0  0  0  0  0  0  0
   -7.9807   20.6532  -33.4835 H   0  0  0  0  0  0  0  0  0  0  0  0
   -8.7230   20.3430  -31.4990 C   0  0  0  0  0  0  0  0  0  0  0  0
   -8.2162   19.8534  -30.6544 H   0  0  0  0  0  0  0  0  0  0  0  0
   -8.5543   21.4288  -31.4483 H   0  0  0  0  0  0  0  0  0  0  0  0
   -9.8023   20.1369  -31.4483 H   0  0  0  0  0  0  0  0  0  0  0  0
   -4.3060   23.9750  -29.0530 C   0  0  0  0  0  0  0  0  0  0  0  0
   -4.1127   24.3013  -28.0204 H   0  0  0  0  0  0  0  0  0  0  0  0
   -5.0621   23.1817  -29.1476 H   0  0  0  0  0  0  0  0  0  0  0  0
   -2.9990   23.3620  -29.6040 C   0  0  0  0  0  0  0  0  0  0  0  0
   -3.1910   22.3113  -29.8671 H   0  0  0  0  0  0  0  0  0  0  0  0
   -2.7024   23.9629  -30.4763 H   0  0  0  0  0  0  0  0  0  0  0  0
   -1.8290   23.4080  -28.6030 C   0  0  0  0  0  0  0  0  0  0  0  0
   -2.2313   23.3777  -27.5796 H   0  0  0  0  0  0  0  0  0  0  0  0
   -1.1771   22.5419  -28.7901 H   0  0  0  0  0  0  0  0  0  0  0  0
   -1.0190   24.6550  -28.7720 C   0  0  0  0  0  0  0  0  0  0  0  0
   -1.5360   25.6770  -29.2960 O   0  0  0  0  0  0  0  0  0  0  0  0
    0.2920   24.7080  -28.3080 O   0  0  0  0  0  0  0  0  0  0  0  0
  1  2  1  0
  2  3  1  0
  3  4  1  1
  3  5  1  0
  5  6  1  0
  5  7  2  0
  7  8  1  0
  7  9  1  0
  9 10  1  0
  9 11  2  0
 11 12  1  0
 11 13  1  0
 13 14  1  0
 13 15  2  3
 15 16  1  0
 15 17  1  0
 17 18  1  0
 17 19  1  0
 17 20  1  0
 20 21  1  0
 20 22  2  3
 22 23  1  0
 22 24  1  0
 24 25  1  0
 24 26  1  0
 24 27  1  0
 27 28  1  0
 27 29  2  3
 29 30  1  0
 29 31  1  0
 31 32  1  0
 31 33  2  3
 33 34  1  0
 33 35  1  0
 35 36  1  0
 35 37  1  0
 35 38  1  0
 38 39  1  0
 38 40  1  0
 38 41  1  0
 41 42  1  0
 41 43  1  0
 41 44  1  0
 44 45  1  0
 44 46  1  0
 44 47  1  0
  3 48  1  0
 48 49  1  0
 48 50  1  0
 48 51  1  0
 51 52  1  0
 51 53  1  0
 51 54  1  0
 54 55  1  0
 54 56  1  0
 54 57  1  0
 57 58  2  0
 57 59  1  0
M  CHG  1  59  -1
M  END
>  <UniqueID>  (11) 
11

>  <SMILES>  (11) 
CCCCC=CC=CCC=CCC=C/C=C/C=C[C@H](O)CCCC(=O)[O-]

>  <Energy>  (11) 
47.911262679474355

>  <Genealogy>  (11) 
CCCCC=CC=CCC=CCC=CC=CC=CC(O)CCCC(=O)[O-] (protonated)
CCCCC=CC=CCC=CCC=CC=CC=C[C@H](O)CCCC(=O)[O-] (chirality)
CCCCC=CC=CCC=CCC=C/C=C/C=C[C@H](O)CCCC(=O)[O-] (cis-trans isomerization)
CCCCC=CC=CCC=CCC=C/C=C/C=C[C@H](O)CCCC(=O)[O-] (3D coordinates assigned)
CCCCC=CC=CCC=CCC=C/C=C/C=C[C@H](O)CCCC(=O)[O-] (optimized conformer: 47.911262679474355 kcal/mol)

>  <smiles>  (11) 
CCCCC=CC=CCC=CCC=CC=CC=CC(O)CCCC(=O)O

>  <score_type>  (11) 
oracle

>  <origin>  (11) 
adgpu

>  <m_score__min__energy>  (11) 
-11.199999999999999

>  <m_primary>  (11) 
energy

$$$$
11:0
     RDKit          3D

 47 48  0  0  0  0  0  0  0  0999 V2000
   -7.2710   23.4070  -32.3470 C   0  0  0  0  0  0  0  0  0  0  0  0
   -7.0290   23.3530  -30.8430 C   0  0  0  0  0  0  0  0  0  0  0  0
   -5.7160   23.9800  -30.4980 C   0  0  0  0  0  0  0  0  0  0  0  0
   -5.0480   24.8180  -31.3230 N   0  0  0  0  0  0  0  0  0  0  0  0
   -3.8720   25.2110  -30.8370 N   0  0  0  0  0  0  0  0  0  0  0  0
   -3.5910   24.6810  -29.6270 C   0  0  0  0  0  0  0  0  0  0  0  0
   -2.4770   24.9380  -29.0050 N   0  0  0  0  0  0  0  0  0  0  0  0
   -2.0570   24.4410  -27.7230 C   0  0  0  0  0  0  0  0  0  0  0  0
   -2.8680   23.8750  -26.9400 O   0  0  0  0  0  0  0  0  0  0  0  0
   -0.6330   24.6390  -27.2860 C   0  0  2  0  0  0  0  0  0  0  0  0
   -0.1050   25.9750  -27.8020 C   0  0  0  0  0  0  0  0  0  0  0  0
    0.2050   23.5570  -27.7940 N   0  0  0  0  0  0  0  0  0  0  0  0
   -0.2580   22.2140  -27.9810 C   0  0  0  0  0  0  0  0  0  0  0  0
    0.0930   21.3130  -27.1720 O   0  0  0  0  0  0  0  0  0  0  0  0
   -1.1490   21.8860  -29.1190 C   0  0  0  0  0  0  0  0  0  0  0  0
   -0.7880   22.2290  -30.4350 C   0  0  0  0  0  0  0  0  0  0  0  0
   -1.6330   21.9250  -31.5040 C   0  0  0  0  0  0  0  0  0  0  0  0
   -2.8520   21.2750  -31.2790 C   0  0  0  0  0  0  0  0  0  0  0  0
   -3.9240   20.9030  -32.6310 S   0  0  0  0  0  0  0  0  0  0  0  0
   -4.5980   22.1670  -33.0890 O   0  0  0  0  0  0  0  0  0  0  0  0
   -3.1090   20.3690  -33.7770 O   0  0  0  0  0  0  0  0  0  0  0  0
   -5.1340   19.7280  -32.1800 N   0  0  0  0  0  0  0  0  0  0  0  0
   -6.4670   20.1840  -32.5940 C   0  0  0  0  0  0  0  0  0  0  0  0
   -4.8240   18.4220  -32.7780 C   0  0  0  0  0  0  0  0  0  0  0  0
   -3.2200   20.9310  -29.9730 C   0  0  0  0  0  0  0  0  0  0  0  0
   -2.3760   21.2330  -28.9010 C   0  0  0  0  0  0  0  0  0  0  0  0
   -4.8340   23.6650  -29.0970 S   0  0  0  0  0  0  0  0  0  0  0  0
   -8.3279   23.6428  -32.5401 H   0  0  0  0  0  0  0  0  0  0  0  0
   -6.6343   24.1852  -32.7931 H   0  0  0  0  0  0  0  0  0  0  0  0
   -7.0255   22.4320  -32.7931 H   0  0  0  0  0  0  0  0  0  0  0  0
   -7.8352   23.8955  -30.3275 H   0  0  0  0  0  0  0  0  0  0  0  0
   -7.0139   22.3004  -30.5240 H   0  0  0  0  0  0  0  0  0  0  0  0
   -0.6018   24.6364  -26.1864 H   0  0  0  0  0  0  0  0  0  0  0  0
    0.1507   26.6220  -26.9499 H   0  0  0  0  0  0  0  0  0  0  0  0
    0.7927   25.8028  -28.4140 H   0  0  0  0  0  0  0  0  0  0  0  0
   -0.8779   26.4630  -28.4140 H   0  0  0  0  0  0  0  0  0  0  0  0
    0.1674   22.7407  -30.6230 H   0  0  0  0  0  0  0  0  0  0  0  0
   -1.3392   22.1977  -32.5284 H   0  0  0  0  0  0  0  0  0  0  0  0
   -5.1200   19.6300  -31.1380 H   0  0  0  0  0  0  0  0  0  0  0  0
   -7.0765   20.3925  -31.7024 H   0  0  0  0  0  0  0  0  0  0  0  0
   -6.3708   21.1003  -33.1949 H   0  0  0  0  0  0  0  0  0  0  0  0
   -6.9522   19.4007  -33.1949 H   0  0  0  0  0  0  0  0  0  0  0  0
   -4.6492   17.6855  -31.9799 H   0  0  0  0  0  0  0  0  0  0  0  0
   -5.6692   18.0940  -33.4009 H   0  0  0  0  0  0  0  0  0  0  0  0
   -3.9215   18.5089  -33.4009 H   0  0  0  0  0  0  0  0  0  0  0  0
   -4.1773   20.4210  -29.7898 H   0  0  0  0  0  0  0  0  0  0  0  0
   -2.6734   20.9579  -27.8783 H   0  0  0  0  0  0  0  0  0  0  0  0
  1  2  1  0
  2  3  1  0
  3  4  2  0
  4  5  1  0
  5  6  1  0
  6  7  2  3
  7  8  1  0
  8  9  2  0
  8 10  1  0
 10 11  1  0
 10 12  1  0
 12 13  1  0
 13 14  2  0
 13 15  1  0
 15 16  2  0
 16 17  1  0
 17 18  2  0
 18 19  1  0
 19 20  2  0
 19 21  2  0
 19 22  1  0
 22 23  1  0
 22 24  1  0
 18 25  1  0
 25 26  2  0
  6 27  1  0
 27  3  1  0
 26 15  1  0
  1 28  1  0
  1 29  1  0
  1 30  1  0
  2 31  1  0
  2 32  1  0
 10 33  1  1
 11 34  1  0
 11 35  1  0
 11 36  1  0
 16 37  1  0
 17 38  1  0
 22 39  1  0
 23 40  1  0
 23 41  1  0
 23 42  1  0
 24 43  1  0
 24 44  1  0
 24 45  1  0
 25 46  1  0
 26 47  1  0
M  CHG  3   5  -1  12  -1  22   1
M  END
>  <UniqueID>  (12) 
12

>  <SMILES>  (12) 
CCc1n[n-]c(=NC(=O)[C@H](C)[N-]C(=O)c2ccc(S(=O)(=O)[NH+](C)C)cc2)s1

>  <Energy>  (12) 
72.49375957497148

>  <Genealogy>  (12) 
CCc1n[n-]c(=NC(=O)C(C)[N-]C(=O)c2ccc(S(=O)(=O)[NH+](C)C)cc2)s1 (protonated)
CCc1n[n-]c(=NC(=O)[C@H](C)[N-]C(=O)c2ccc(S(=O)(=O)[NH+](C)C)cc2)s1 (chirality)
CCc1n[n-]c(=NC(=O)[C@H](C)[N-]C(=O)c2ccc(S(=O)(=O)[NH+](C)C)cc2)s1 (3D coordinates assigned)
CCc1n[n-]c(=NC(=O)[C@H](C)[N-]C(=O)c2ccc(S(=O)(=O)[NH+](C)C)cc2)s1 (optimized conformer: 72.49375957497148 kcal/mol)

>  <smiles>  (12) 
CCc1n[nH]c(=NC(=O)C(C)NC(=O)c2ccc(S(=O)(=O)N(C)C)cc2)s1

>  <score_type>  (12) 
oracle

>  <origin>  (12) 
adgpu

>  <m_score__min__energy>  (12) 
-11.25

>  <m_primary>  (12) 
energy

$$$$
12:0
     RDKit          3D

 55 58  0  0  0  0  0  0  0  0999 V2000
   -9.0760   20.1760  -32.3780 C   0  0  0  0  0  0  0  0  0  0  0  0
   -8.0420   21.1910  -31.9660 C   0  0  0  0  0  0  0  0  0  0  0  0
   -8.4610   22.5100  -31.7230 C   0  0  0  0  0  0  0  0  0  0  0  0
   -7.5550   23.4770  -31.2870 C   0  0  0  0  0  0  0  0  0  0  0  0
   -6.2120   23.1460  -31.0940 C   0  0  0  0  0  0  0  0  0  0  0  0
   -5.0900   24.3760  -30.5140 S   0  0  0  0  0  0  0  0  0  0  0  0
   -5.2740   24.5420  -29.0320 O   0  0  0  0  0  0  0  0  0  0  0  0
   -5.3430   25.6970  -31.1850 O   0  0  0  0  0  0  0  0  0  0  0  0
   -3.4590   23.8780  -30.8320 N   0  0  0  0  0  0  0  0  0  0  0  0
   -2.8070   22.7510  -30.2310 C   0  0  0  0  0  0  0  0  0  0  0  0
   -1.5750   22.3330  -30.7540 C   0  0  0  0  0  0  0  0  0  0  0  0
   -0.9100   21.2330  -30.2070 C   0  0  0  0  0  0  0  0  0  0  0  0
   -1.4690   20.5440  -29.1260 C   0  0  0  0  0  0  0  0  0  0  0  0
   -2.6940   20.9550  -28.5940 C   0  0  0  0  0  0  0  0  0  0  0  0
   -3.3640   22.0550  -29.1410 C   0  0  0  0  0  0  0  0  0  0  0  0
   -5.7730   21.8440  -31.3580 C   0  0  0  0  0  0  0  0  0  0  0  0
   -6.6690   20.8550  -31.8060 C   0  0  0  0  0  0  0  0  0  0  0  0
   -6.1410   19.4950  -32.0710 C   0  0  0  0  0  0  0  0  0  0  0  0
   -6.2610   18.6000  -31.1910 O   0  0  0  0  0  0  0  0  0  0  0  0
   -5.4160   19.2150  -33.2770 N   0  0  0  0  0  0  0  0  0  0  0  0
   -4.0860   19.6610  -33.5780 C   0  0  0  0  0  0  0  0  0  0  0  0
   -3.1310   18.7140  -33.9710 C   0  0  0  0  0  0  0  0  0  0  0  0
   -1.8140   19.1060  -34.2310 C   0  0  0  0  0  0  0  0  0  0  0  0
   -1.4340   20.4480  -34.0790 C   0  0  0  0  0  0  0  0  0  0  0  0
    0.2330   20.9510  -34.3460 S   0  0  0  0  0  0  0  0  0  0  0  0
    0.9830   19.8140  -34.9880 O   0  0  0  0  0  0  0  0  0  0  0  0
    0.9080   21.3030  -33.0480 O   0  0  0  0  0  0  0  0  0  0  0  0
    0.2690   22.3270  -35.4100 N   0  0  0  0  0  0  0  0  0  0  0  0
    1.3220   23.0050  -35.7690 C   0  0  0  0  0  0  0  0  0  0  0  0
    2.6260   22.6750  -35.3360 C   0  0  0  0  0  0  0  0  0  0  0  0
    3.7050   23.4630  -35.7430 C   0  0  0  0  0  0  0  0  0  0  0  0
    3.4920   24.5650  -36.5710 C   0  0  0  0  0  0  0  0  0  0  0  0
    2.1920   24.8610  -36.9880 C   0  0  0  0  0  0  0  0  0  0  0  0
    1.1510   24.0840  -36.5830 N   0  0  0  0  0  0  0  0  0  0  0  0
   -2.3810   21.3930  -33.6700 C   0  0  0  0  0  0  0  0  0  0  0  0
   -3.7000   21.0050  -33.4180 C   0  0  0  0  0  0  0  0  0  0  0  0
   -9.5301   19.7302  -31.4807 H   0  0  0  0  0  0  0  0  0  0  0  0
   -9.8556   20.6692  -32.9771 H   0  0  0  0  0  0  0  0  0  0  0  0
   -8.5973   19.3873  -32.9771 H   0  0  0  0  0  0  0  0  0  0  0  0
   -9.5152   22.7831  -31.8783 H   0  0  0  0  0  0  0  0  0  0  0  0
   -7.8996   24.5038  -31.0946 H   0  0  0  0  0  0  0  0  0  0  0  0
   -1.1290   22.8750  -31.6009 H   0  0  0  0  0  0  0  0  0  0  0  0
    0.0537   20.9086  -30.6267 H   0  0  0  0  0  0  0  0  0  0  0  0
   -0.9445   19.6787  -28.6946 H   0  0  0  0  0  0  0  0  0  0  0  0
   -3.1326   20.4127  -27.7434 H   0  0  0  0  0  0  0  0  0  0  0  0
   -4.3275   22.3766  -28.7188 H   0  0  0  0  0  0  0  0  0  0  0  0
   -4.7126   21.5896  -31.2134 H   0  0  0  0  0  0  0  0  0  0  0  0
   -3.4185   17.6574  -34.0755 H   0  0  0  0  0  0  0  0  0  0  0  0
   -1.0738   18.3599  -34.5557 H   0  0  0  0  0  0  0  0  0  0  0  0
    2.7900   21.8046  -34.6837 H   0  0  0  0  0  0  0  0  0  0  0  0
    4.7235   23.2143  -35.4103 H   0  0  0  0  0  0  0  0  0  0  0  0
    4.3365   25.1928  -36.8914 H   0  0  0  0  0  0  0  0  0  0  0  0
    2.0095   25.7240  -37.6452 H   0  0  0  0  0  0  0  0  0  0  0  0
   -2.0864   22.4456  -33.5462 H   0  0  0  0  0  0  0  0  0  0  0  0
   -4.4388   21.7526  -33.0935 H   0  0  0  0  0  0  0  0  0  0  0  0
  1  2  1  0
  2  3  2  0
  3  4  1  0
  4  5  2  0
  5  6  1  0
  6  7  2  0
  6  8  2  0
  6  9  1  0
  9 10  1  0
 10 11  2  0
 11 12  1  0
 12 13  2  0
 13 14  1  0
 14 15  2  0
  5 16  1  0
 16 17  2  0
 17 18  1  0
 18 19  2  0
 18 20  1  0
 20 21  1  0
 21 22  2  0
 22 23  1  0
 23 24  2  0
 24 25  1  0
 25 26  2  0
 25 27  2  0
 25 28  1  0
 28 29  2  3
 29 30  1  0
 30 31  2  0
 31 32  1  0
 32 33  2  0
 33 34  1  0
 24 35  1  0
 35 36  2  0
 17  2  1  0
 36 21  1  0
 15 10  1  0
 34 29  1  0
  1 37  1  0
  1 38  1  0
  1 39  1  0
  3 40  1  0
  4 41  1  0
 11 42  1  0
 12 43  1  0
 13 44  1  0
 14 45  1  0
 15 46  1  0
 16 47  1  0
 22 48  1  0
 23 49  1  0
 30 50  1  0
 31 51  1  0
 32 52  1  0
 33 53  1  0
 35 54  1  0
 36 55  1  0
M  CHG  3   9  -1  20  -1  34  -1
M  END
>  <UniqueID>  (13) 
13

>  <SMILES>  (13) 
Cc1ccc(S(=O)(=O)[N-]c2ccccc2)cc1C(=O)[N-]c1ccc(S(=O)(=O)N=c2cccc[n-]2)cc1

>  <Energy>  (13) 
77.26865541320542

>  <Genealogy>  (13) 
Cc1ccc(S(=O)(=O)[N-]c2ccccc2)cc1C(=O)[N-]c1ccc(S(=O)(=O)N=c2cccc[n-]2)cc1 (protonated)
Cc1ccc(S(=O)(=O)[N-]c2ccccc2)cc1C(=O)[N-]c1ccc(S(=O)(=O)N=c2cccc[n-]2)cc1 (3D coordinates assigned)
Cc1ccc(S(=O)(=O)[N-]c2ccccc2)cc1C(=O)[N-]c1ccc(S(=O)(=O)N=c2cccc[n-]2)cc1 (optimized conformer: 77.26865541320542 kcal/mol)

>  <smiles>  (13) 
Cc1ccc(S(=O)(=O)Nc2ccccc2)cc1C(=O)Nc1ccc(S(=O)(=O)N=c2cccc[nH]2)cc1

>  <score_type>  (13) 
oracle

>  <origin>  (13) 
adgpu

>  <m_score__min__energy>  (13) 
-12.49

>  <m_primary>  (13) 
energy

$$$$
13:0
     RDKit          3D

 53 56  0  0  1  0  0  0  0  0999 V2000
   -8.8690   21.8460  -30.8860 C   0  0  0  0  0  0  0  0  0  0  0  0
   -9.2680   20.7250  -31.6200 O   0  0  0  0  0  0  0  0  0  0  0  0
   -8.3930   19.7540  -32.0490 C   0  0  0  0  0  0  0  0  0  0  0  0
   -8.4990   18.4380  -31.6570 C   0  0  0  0  0  0  0  0  0  0  0  0
   -7.6070   17.5080  -32.1080 C   0  0  0  0  0  0  0  0  0  0  0  0
   -6.6010   17.8800  -32.9540 C   0  0  0  0  0  0  0  0  0  0  0  0
   -6.4650   19.2040  -33.3700 C   0  0  0  0  0  0  0  0  0  0  0  0
   -5.4100   19.4660  -34.2260 O   0  0  0  0  0  0  0  0  0  0  0  0
   -4.1400   18.9260  -34.0990 C   0  0  0  0  0  0  0  0  0  0  0  0
   -3.7210   17.6260  -34.4170 C   0  0  0  0  0  0  0  0  0  0  0  0
   -2.3780   17.6330  -34.0970 C   0  0  0  0  0  0  0  0  0  0  0  0
   -2.0570   18.8110  -33.6430 O   0  0  0  0  0  0  0  0  0  0  0  0
   -3.0700   19.6480  -33.6150 C   0  0  0  0  0  0  0  0  0  0  0  0
   -2.9850   21.0590  -33.1420 C   0  0  0  0  0  0  0  0  0  0  0  0
   -4.1420   21.8140  -33.1190 N   0  0  0  0  0  0  0  0  0  0  0  0
   -4.5710   22.6510  -32.3290 C   0  0  0  0  0  0  0  0  0  0  0  0
   -5.7650   23.2370  -32.5700 N   0  0  0  0  0  0  0  0  0  0  0  0
   -6.3390   24.1340  -31.7540 C   0  0  0  0  0  0  0  0  0  0  0  0
   -5.6870   24.4680  -30.6310 N   0  0  0  0  0  0  0  0  0  0  0  0
   -4.4970   23.9050  -30.3630 C   0  0  0  0  0  0  0  0  0  0  0  0
   -3.8770   24.2950  -29.1970 C   0  0  0  0  0  0  0  0  0  0  0  0
   -2.6560   23.7120  -28.9400 C   0  0  0  0  0  0  0  0  0  0  0  0
   -1.9980   24.0930  -27.7420 N   0  0  0  0  0  0  0  0  0  0  0  0
   -1.0650   25.3510  -27.6320 S   0  0  0  0  0  0  0  0  0  0  0  0
    0.6100   24.8830  -27.3410 C   0  0  0  0  0  0  0  0  0  0  0  0
   -1.5730   26.4240  -26.3110 C   0  0  0  0  0  0  0  0  0  0  0  0
   -1.2070   26.1160  -28.9240 O   0  0  0  0  0  0  0  0  0  0  0  0
   -2.0400   22.8050  -29.7410 C   0  0  0  0  0  0  0  0  0  0  0  0
   -2.6830   22.4090  -30.9380 C   0  0  0  0  0  0  0  0  0  0  0  0
   -3.8870   22.9800  -31.1900 C   0  0  0  0  0  0  0  0  0  0  0  0
   -7.3600   20.1180  -32.9130 C   0  0  0  0  0  0  0  0  0  0  0  0
   -7.2360   21.3990  -33.3100 F   0  0  0  0  0  0  0  0  0  0  0  0
   -8.9469   21.6270  -29.8108 H   0  0  0  0  0  0  0  0  0  0  0  0
   -7.8269   22.0953  -31.1348 H   0  0  0  0  0  0  0  0  0  0  0  0
   -9.5192   22.6977  -31.1348 H   0  0  0  0  0  0  0  0  0  0  0  0
   -9.3077   18.1342  -30.9760 H   0  0  0  0  0  0  0  0  0  0  0  0
   -7.6984   16.4589  -31.7901 H   0  0  0  0  0  0  0  0  0  0  0  0
   -5.8873   17.1236  -33.3125 H   0  0  0  0  0  0  0  0  0  0  0  0
   -4.3197   16.7980  -34.8243 H   0  0  0  0  0  0  0  0  0  0  0  0
   -1.6903   16.7816  -34.2075 H   0  0  0  0  0  0  0  0  0  0  0  0
   -2.5917   21.0348  -32.1150 H   0  0  0  0  0  0  0  0  0  0  0  0
   -2.3508   21.5577  -33.8897 H   0  0  0  0  0  0  0  0  0  0  0  0
   -6.2990   22.9990  -33.4360 H   0  0  0  0  0  0  0  0  0  0  0  0
   -7.3137   24.5813  -31.9985 H   0  0  0  0  0  0  0  0  0  0  0  0
   -4.3294   25.0276  -28.5125 H   0  0  0  0  0  0  0  0  0  0  0  0
    0.7935   24.8317  -26.2576 H   0  0  0  0  0  0  0  0  0  0  0  0
    0.7990   23.8976  -27.7919 H   0  0  0  0  0  0  0  0  0  0  0  0
    1.2824   25.6277  -27.7919 H   0  0  0  0  0  0  0  0  0  0  0  0
   -1.3478   25.9483  -25.3451 H   0  0  0  0  0  0  0  0  0  0  0  0
   -1.0311   27.3784  -26.3849 H   0  0  0  0  0  0  0  0  0  0  0  0
   -2.6547   26.6098  -26.3849 H   0  0  0  0  0  0  0  0  0  0  0  0
   -1.0609   22.3864  -29.4651 H   0  0  0  0  0  0  0  0  0  0  0  0
   -2.2313   21.6788  -31.6256 H   0  0  0  0  0  0  0  0  0  0  0  0
  1  2  1  0
  2  3  1  0
  3  4  2  0
  4  5  1  0
  5  6  2  0
  6  7  1  0
  7  8  1  0
  8  9  1  0
  9 10  1  0
 10 11  2  0
 11 12  1  0
 12 13  1  0
 13 14  1  0
 14 15  1  0
 15 16  2  0
 16 17  1  0
 17 18  1  0
 18 19  2  0
 19 20  1  0
 20 21  2  0
 21 22  1  0
 22 23  1  0
 23 24  2  0
 24 25  1  0
 24 26  1  0
 24 27  2  0
 22 28  2  0
 28 29  1  0
 29 30  2  0
  7 31  2  0
 31 32  1  0
 31  3  1  0
 13  9  2  0
 30 16  1  0
 30 20  1  0
  1 33  1  0
  1 34  1  0
  1 35  1  0
  4 36  1  0
  5 37  1  0
  6 38  1  0
 10 39  1  0
 11 40  1  0
 14 41  1  0
 14 42  1  0
 17 43  1  0
 18 44  1  0
 21 45  1  0
 25 46  1  0
 25 47  1  0
 25 48  1  0
 26 49  1  0
 26 50  1  0
 26 51  1  0
 28 52  1  0
 29 53  1  0
M  END
>  <smiles>  (14) 
COc1cccc(Oc2ccoc2CN=c2[nH]cnc3cc(N=S(C)(C)=O)ccc23)c1F

>  <score_type>  (14) 
oracle

>  <origin>  (14) 
adgpu

>  <m_score__min__energy>  (14) 
-9.2799999999999994

>  <m_primary>  (14) 
energy

$$$$
14:0
     RDKit          3D

 56 59  0  0  0  0  0  0  0  0999 V2000
   -5.5810   25.9780  -30.7990 O   0  0  0  0  0  0  0  0  0  0  0  0
   -4.7050   25.0760  -30.7960 C   0  0  0  0  0  0  0  0  0  0  0  0
   -3.4920   25.2980  -30.0680 N   0  0  0  0  0  0  0  0  0  0  0  0
   -2.8380   24.3700  -29.1910 C   0  0  0  0  0  0  0  0  0  0  0  0
   -3.4180   23.9540  -27.9820 C   0  0  0  0  0  0  0  0  0  0  0  0
   -2.7630   23.0200  -27.1720 C   0  0  0  0  0  0  0  0  0  0  0  0
   -1.5350   22.4660  -27.5690 C   0  0  0  0  0  0  0  0  0  0  0  0
   -0.8170   21.5000  -26.6590 C   0  0  0  0  0  0  0  0  0  0  0  0
   -0.6840   22.0210  -25.3830 F   0  0  0  0  0  0  0  0  0  0  0  0
   -1.5370   20.3200  -26.5900 F   0  0  0  0  0  0  0  0  0  0  0  0
    0.4480   21.2290  -27.1520 F   0  0  0  0  0  0  0  0  0  0  0  0
   -0.9590   22.8860  -28.7790 C   0  0  0  0  0  0  0  0  0  0  0  0
   -1.6170   23.8170  -29.5900 C   0  0  0  0  0  0  0  0  0  0  0  0
   -4.9670   23.8070  -31.4120 N   0  0  0  0  0  0  0  0  0  0  0  0
   -4.1520   22.6290  -31.3040 C   0  0  0  0  0  0  0  0  0  0  0  0
   -4.2250   21.7760  -30.1900 C   0  0  0  0  0  0  0  0  0  0  0  0
   -3.4190   20.6360  -30.1230 C   0  0  0  0  0  0  0  0  0  0  0  0
   -2.5460   20.3320  -31.1680 C   0  0  0  0  0  0  0  0  0  0  0  0
   -2.4860   21.1550  -32.3030 C   0  0  0  0  0  0  0  0  0  0  0  0
   -1.5700   20.7990  -33.4470 C   0  0  0  0  0  0  0  0  0  0  0  0
   -2.2690   19.9800  -34.4360 N   0  0  0  0  0  0  0  0  0  0  0  0
   -2.7140   18.6360  -34.2160 C   0  0  0  0  0  0  0  0  0  0  0  0
   -1.8780   17.6970  -34.2530 O   0  0  0  0  0  0  0  0  0  0  0  0
   -4.1190   18.3360  -33.9010 C   0  0  0  0  0  0  0  0  0  0  0  0
   -4.6630   17.0840  -34.2160 C   0  0  0  0  0  0  0  0  0  0  0  0
   -6.0090   16.8200  -33.9590 C   0  0  0  0  0  0  0  0  0  0  0  0
   -6.8230   17.8080  -33.3980 C   0  0  0  0  0  0  0  0  0  0  0  0
   -6.2940   19.0720  -33.0830 C   0  0  0  0  0  0  0  0  0  0  0  0
   -7.1700   20.1420  -32.5470 C   0  0  0  0  0  0  0  0  0  0  0  0
   -8.4000   19.8250  -31.9410 C   0  0  0  0  0  0  0  0  0  0  0  0
   -9.2450   20.8390  -31.4840 C   0  0  0  0  0  0  0  0  0  0  0  0
   -8.8730   22.1790  -31.6240 C   0  0  0  0  0  0  0  0  0  0  0  0
   -7.6510   22.5100  -32.2150 C   0  0  0  0  0  0  0  0  0  0  0  0
   -7.2920   23.8490  -32.3520 O   0  0  0  0  0  0  0  0  0  0  0  0
   -6.7990   21.4940  -32.6700 C   0  0  0  0  0  0  0  0  0  0  0  0
   -4.9310   19.3210  -33.3230 C   0  0  0  0  0  0  0  0  0  0  0  0
   -3.2970   22.3020  -32.3650 C   0  0  0  0  0  0  0  0  0  0  0  0
   -4.3903   24.3636  -27.6707 H   0  0  0  0  0  0  0  0  0  0  0  0
   -3.2139   22.7168  -26.2156 H   0  0  0  0  0  0  0  0  0  0  0  0
    0.0149   22.4807  -29.0909 H   0  0  0  0  0  0  0  0  0  0  0  0
   -1.1702   24.1165  -30.5495 H   0  0  0  0  0  0  0  0  0  0  0  0
   -4.9187   22.0060  -29.3679 H   0  0  0  0  0  0  0  0  0  0  0  0
   -3.4731   19.9768  -29.2441 H   0  0  0  0  0  0  0  0  0  0  0  0
   -1.9017   19.4429  -31.1019 H   0  0  0  0  0  0  0  0  0  0  0  0
   -1.2179   21.7234  -33.9282 H   0  0  0  0  0  0  0  0  0  0  0  0
   -0.7189   20.2250  -33.0518 H   0  0  0  0  0  0  0  0  0  0  0  0
   -4.0278   16.3073  -34.6669 H   0  0  0  0  0  0  0  0  0  0  0  0
   -6.4301   15.8324  -34.1984 H   0  0  0  0  0  0  0  0  0  0  0  0
   -7.8842   17.5953  -33.2017 H   0  0  0  0  0  0  0  0  0  0  0  0
   -8.6978   18.7723  -31.8265 H   0  0  0  0  0  0  0  0  0  0  0  0
  -10.2053   20.5824  -31.0129 H   0  0  0  0  0  0  0  0  0  0  0  0
   -9.5438   22.9748  -31.2681 H   0  0  0  0  0  0  0  0  0  0  0  0
   -6.5140   24.2440  -31.8380 H   0  0  0  0  0  0  0  0  0  0  0  0
   -5.8330   21.7555  -33.1267 H   0  0  0  0  0  0  0  0  0  0  0  0
   -4.4989   20.2964  -33.0550 H   0  0  0  0  0  0  0  0  0  0  0  0
   -3.2600   22.9484  -33.2543 H   0  0  0  0  0  0  0  0  0  0  0  0
  1  2  2  0
  2  3  1  0
  3  4  1  0
  4  5  2  0
  5  6  1  0
  6  7  2  0
  7  8  1  0
  8  9  1  0
  8 10  1  0
  8 11  1  0
  7 12  1  0
 12 13  2  0
  2 14  1  0
 14 15  1  0
 15 16  2  0
 16 17  1  0
 17 18  2  0
 18 19  1  0
 19 20  1  0
 20 21  1  0
 21 22  1  0
 22 23  2  0
 22 24  1  0
 24 25  2  0
 25 26  1  0
 26 27  2  0
 27 28  1  0
 28 29  1  0
 29 30  2  0
 30 31  1  0
 31 32  2  0
 32 33  1  0
 33 34  1  0
 33 35  2  0
 28 36  2  0
 19 37  2  0
 13  4  1  0
 37 15  1  0
 36 24  1  0
 35 29  1  0
  5 38  1  0
  6 39  1  0
 12 40  1  0
 13 41  1  0
 16 42  1  0
 17 43  1  0
 18 44  1  0
 20 45  1  0
 20 46  1  0
 25 47  1  0
 26 48  1  0
 27 49  1  0
 30 50  1  0
 31 51  1  0
 32 52  1  0
 34 53  1  0
 35 54  1  0
 36 55  1  0
 37 56  1  0
M  CHG  3   3  -1  14  -1  21  -1
M  END
>  <UniqueID>  (15) 
14

>  <SMILES>  (15) 
O=C([N-]c1ccc(C(F)(F)F)cc1)[N-]c1cccc(C[N-]C(=O)c2cccc(-c3cccc(O)c3)c2)c1

>  <Energy>  (15) 
69.06775570696456

>  <Genealogy>  (15) 
O=C([N-]c1ccc(C(F)(F)F)cc1)[N-]c1cccc(C[N-]C(=O)c2cccc(-c3cccc(O)c3)c2)c1 (protonated)
O=C([N-]c1ccc(C(F)(F)F)cc1)[N-]c1cccc(C[N-]C(=O)c2cccc(-c3cccc(O)c3)c2)c1 (3D coordinates assigned)
O=C([N-]c1ccc(C(F)(F)F)cc1)[N-]c1cccc(C[N-]C(=O)c2cccc(-c3cccc(O)c3)c2)c1 (optimized conformer: 69.06775570696456 kcal/mol)

>  <smiles>  (15) 
O=C(Nc1ccc(C(F)(F)F)cc1)Nc1cccc(CNC(=O)c2cccc(-c3cccc(O)c3)c2)c1

>  <score_type>  (15) 
oracle

>  <origin>  (15) 
adgpu

>  <m_score__min__energy>  (15) 
-11.93

>  <m_primary>  (15) 
energy

$$$$
15:0
     RDKit          3D

 42 44  0  0  0  0  0  0  0  0999 V2000
   -2.8020   24.5280  -29.3080 C   0  0  0  0  0  0  0  0  0  0  0  0
   -3.6020   24.7910  -30.4560 O   0  0  0  0  0  0  0  0  0  0  0  0
   -4.6310   23.9540  -30.9170 C   0  0  0  0  0  0  0  0  0  0  0  0
   -4.3770   22.6590  -31.4050 C   0  0  0  0  0  0  0  0  0  0  0  0
   -5.4270   21.8540  -31.8550 C   0  0  0  0  0  0  0  0  0  0  0  0
   -5.1710   20.6050  -32.3240 N   0  0  0  0  0  0  0  0  0  0  0  0
   -6.1700   19.7950  -32.7700 C   0  0  0  0  0  0  0  0  0  0  0  0
   -5.8620   18.4340  -33.2770 C   0  0  0  0  0  0  0  0  0  0  0  0
   -6.7190   17.3560  -33.0010 C   0  0  0  0  0  0  0  0  0  0  0  0
   -6.4290   16.0750  -33.4790 C   0  0  0  0  0  0  0  0  0  0  0  0
   -5.2730   15.8340  -34.2480 C   0  0  0  0  0  0  0  0  0  0  0  0
   -4.9720   14.5030  -34.7450 N   0  0  0  0  0  0  0  0  0  0  0  0
   -5.9680   13.4280  -34.6510 C   0  0  0  0  0  0  0  0  0  0  0  0
   -3.6660   14.2090  -35.3490 C   0  0  0  0  0  0  0  0  0  0  0  0
   -4.4170   16.9190  -34.5220 C   0  0  0  0  0  0  0  0  0  0  0  0
   -4.7080   18.2010  -34.0430 C   0  0  0  0  0  0  0  0  0  0  0  0
   -7.4550   20.2460  -32.7470 N   0  0  0  0  0  0  0  0  0  0  0  0
   -7.7680   21.4850  -32.2880 C   0  0  0  0  0  0  0  0  0  0  0  0
   -8.9720   21.8560  -32.2870 O   0  0  0  0  0  0  0  0  0  0  0  0
   -6.7490   22.3350  -31.8240 C   0  0  0  0  0  0  0  0  0  0  0  0
   -7.0060   23.6270  -31.3380 C   0  0  0  0  0  0  0  0  0  0  0  0
   -5.9490   24.4400  -30.8830 C   0  0  0  0  0  0  0  0  0  0  0  0
   -6.1670   25.7370  -30.3900 O   0  0  0  0  0  0  0  0  0  0  0  0
   -6.4930   26.0440  -29.0390 C   0  0  0  0  0  0  0  0  0  0  0  0
   -3.3904   24.7214  -28.3989 H   0  0  0  0  0  0  0  0  0  0  0  0
   -2.4793   23.4765  -29.3191 H   0  0  0  0  0  0  0  0  0  0  0  0
   -1.9183   25.1829  -29.3191 H   0  0  0  0  0  0  0  0  0  0  0  0
   -3.3455   22.2778  -31.4325 H   0  0  0  0  0  0  0  0  0  0  0  0
   -7.6272   17.5215  -32.4029 H   0  0  0  0  0  0  0  0  0  0  0  0
   -7.1125   15.2436  -33.2518 H   0  0  0  0  0  0  0  0  0  0  0  0
   -6.1716   13.2083  -33.5926 H   0  0  0  0  0  0  0  0  0  0  0  0
   -6.8981   13.7457  -35.1450 H   0  0  0  0  0  0  0  0  0  0  0  0
   -5.5804   12.5248  -35.1450 H   0  0  0  0  0  0  0  0  0  0  0  0
   -2.9238   14.0419  -34.5545 H   0  0  0  0  0  0  0  0  0  0  0  0
   -3.7452   13.3062  -35.9725 H   0  0  0  0  0  0  0  0  0  0  0  0
   -3.3507   15.0587  -35.9725 H   0  0  0  0  0  0  0  0  0  0  0  0
   -3.5083   16.7561  -35.1201 H   0  0  0  0  0  0  0  0  0  0  0  0
   -4.0264   19.0344  -34.2685 H   0  0  0  0  0  0  0  0  0  0  0  0
   -8.0381   24.0065  -31.3123 H   0  0  0  0  0  0  0  0  0  0  0  0
   -5.8603   25.4482  -28.3647 H   0  0  0  0  0  0  0  0  0  0  0  0
   -6.3196   27.1144  -28.8541 H   0  0  0  0  0  0  0  0  0  0  0  0
   -7.5511   25.8067  -28.8541 H   0  0  0  0  0  0  0  0  0  0  0  0
  1  2  1  0
  2  3  1  0
  3  4  2  0
  4  5  1  0
  5  6  1  0
  6  7  1  0
  7  8  1  0
  8  9  2  0
  9 10  1  0
 10 11  2  0
 11 12  1  0
 12 13  1  0
 12 14  1  0
 11 15  1  0
 15 16  2  0
  7 17  2  0
 17 18  1  0
 18 19  2  0
 18 20  1  0
 20 21  1  0
 21 22  2  0
 22 23  1  0
 23 24  1  0
 22  3  1  0
 20  5  2  0
 16  8  1  0
  1 25  1  0
  1 26  1  0
  1 27  1  0
  4 28  1  0
  9 29  1  0
 10 30  1  0
 13 31  1  0
 13 32  1  0
 13 33  1  0
 14 34  1  0
 14 35  1  0
 14 36  1  0
 15 37  1  0
 16 38  1  0
 21 39  1  0
 24 40  1  0
 24 41  1  0
 24 42  1  0
M  CHG  1   6  -1
M  END
>  <UniqueID>  (16) 
15

>  <SMILES>  (16) 
COc1cc2[n-]c(-c3ccc(N(C)C)cc3)nc(=O)c2cc1OC

>  <Energy>  (16) 
50.86435721893734

>  <Genealogy>  (16) 
COc1cc2[n-]c(-c3ccc(N(C)C)cc3)nc(=O)c2cc1OC (protonated)
COc1cc2[n-]c(-c3ccc(N(C)C)cc3)nc(=O)c2cc1OC (3D coordinates assigned)
COc1cc2[n-]c(-c3ccc(N(C)C)cc3)nc(=O)c2cc1OC (optimized conformer: 50.86435721893734 kcal/mol)

>  <smiles>  (16) 
COc1cc2[nH]c(-c3ccc(N(C)C)cc3)nc(=O)c2cc1OC

>  <score_type>  (16) 
oracle

>  <origin>  (16) 
adgpu

>  <m_score__min__energy>  (16) 
-7.21

>  <m_primary>  (16) 
energy

$$$$
16:0
     RDKit          3D

 58 60  0  0  0  0  0  0  0  0999 V2000
   -6.0830   18.4550  -34.1080 C   0  0  0  0  0  0  0  0  0  0  0  0
   -5.3240   19.6560  -34.2210 O   0  0  0  0  0  0  0  0  0  0  0  0
   -5.2980   20.6770  -33.2570 C   0  0  0  0  0  0  0  0  0  0  0  0
   -6.4410   21.0320  -32.5160 C   0  0  0  0  0  0  0  0  0  0  0  0
   -6.3970   22.0610  -31.5630 C   0  0  0  0  0  0  0  0  0  0  0  0
   -7.6490   22.3780  -30.7850 C   0  0  0  0  0  0  0  0  0  0  0  0
   -5.1930   22.7890  -31.3780 C   0  0  0  0  0  0  0  0  0  0  0  0
   -5.0690   24.1500  -30.2420 S   0  0  0  0  0  0  0  0  0  0  0  0
   -6.3210   24.9740  -30.3510 O   0  0  0  0  0  0  0  0  0  0  0  0
   -3.8700   24.9970  -30.5680 O   0  0  0  0  0  0  0  0  0  0  0  0
   -4.8960   23.5820  -28.6080 N   0  0  0  0  0  0  0  0  0  0  0  0
   -3.8450   24.0370  -27.7360 C   0  0  0  0  0  0  0  0  0  0  0  0
   -4.1120   24.9500  -26.7020 C   0  0  0  0  0  0  0  0  0  0  0  0
   -3.0890   25.4090  -25.8740 C   0  0  0  0  0  0  0  0  0  0  0  0
   -1.7700   24.9580  -26.0510 C   0  0  0  0  0  0  0  0  0  0  0  0
   -0.6540   25.4380  -25.1450 C   0  0  0  0  0  0  0  0  0  0  0  0
   -1.1860   26.4220  -24.0930 C   0  0  0  0  0  0  0  0  0  0  0  0
    0.0650   24.2610  -24.4780 C   0  0  0  0  0  0  0  0  0  0  0  0
   -1.4940   24.0540  -27.0910 C   0  0  0  0  0  0  0  0  0  0  0  0
   -2.5210   23.5990  -27.9340 C   0  0  0  0  0  0  0  0  0  0  0  0
   -2.2210   22.6450  -28.9610 N   0  0  0  0  0  0  0  0  0  0  0  0
   -3.0590   21.4500  -29.0870 C   0  0  0  0  0  0  0  0  0  0  0  0
   -2.3170   20.3780  -29.9020 C   0  0  0  0  0  0  0  0  0  0  0  0
   -1.8430   20.9140  -31.1250 O   0  0  0  0  0  0  0  0  0  0  0  0
   -0.8590   21.8990  -30.8630 C   0  0  0  0  0  0  0  0  0  0  0  0
   -1.4700   23.0980  -30.1340 C   0  0  0  0  0  0  0  0  0  0  0  0
   -4.0470   22.4030  -32.0890 C   0  0  0  0  0  0  0  0  0  0  0  0
   -4.0920   21.3620  -33.0270 C   0  0  0  0  0  0  0  0  0  0  0  0
   -2.8980   21.0040  -33.7380 N   0  0  0  0  0  0  0  0  0  0  0  0
   -6.2343   18.2155  -33.0451 H   0  0  0  0  0  0  0  0  0  0  0  0
   -7.0595   18.5911  -34.5958 H   0  0  0  0  0  0  0  0  0  0  0  0
   -5.5410   17.6314  -34.5958 H   0  0  0  0  0  0  0  0  0  0  0  0
   -7.3848   20.4935  -32.6870 H   0  0  0  0  0  0  0  0  0  0  0  0
   -7.4347   22.3237  -29.7074 H   0  0  0  0  0  0  0  0  0  0  0  0
   -7.9924   23.3914  -31.0400 H   0  0  0  0  0  0  0  0  0  0  0  0
   -8.4333   21.6501  -31.0400 H   0  0  0  0  0  0  0  0  0  0  0  0
   -5.6010   22.9010  -28.2440 H   0  0  0  0  0  0  0  0  0  0  0  0
   -5.1405   25.3068  -26.5440 H   0  0  0  0  0  0  0  0  0  0  0  0
   -3.3161   26.1304  -25.0752 H   0  0  0  0  0  0  0  0  0  0  0  0
    0.0794   25.9689  -25.7697 H   0  0  0  0  0  0  0  0  0  0  0  0
   -0.9751   26.0320  -23.0863 H   0  0  0  0  0  0  0  0  0  0  0  0
   -0.6919   27.3966  -24.2195 H   0  0  0  0  0  0  0  0  0  0  0  0
   -2.2721   26.5423  -24.2195 H   0  0  0  0  0  0  0  0  0  0  0  0
    0.0017   24.3646  -23.3847 H   0  0  0  0  0  0  0  0  0  0  0  0
   -0.4117   23.3184  -24.7852 H   0  0  0  0  0  0  0  0  0  0  0  0
    1.1212   24.2549  -24.7852 H   0  0  0  0  0  0  0  0  0  0  0  0
   -0.4643   23.6996  -27.2462 H   0  0  0  0  0  0  0  0  0  0  0  0
   -3.2858   21.0556  -28.0855 H   0  0  0  0  0  0  0  0  0  0  0  0
   -3.9946   21.7147  -29.6013 H   0  0  0  0  0  0  0  0  0  0  0  0
   -1.4633   20.0064  -29.3162 H   0  0  0  0  0  0  0  0  0  0  0  0
   -3.0154   19.5576  -30.1238 H   0  0  0  0  0  0  0  0  0  0  0  0
   -0.0682   21.4608  -30.2364 H   0  0  0  0  0  0  0  0  0  0  0  0
   -0.4421   22.2440  -31.8207 H   0  0  0  0  0  0  0  0  0  0  0  0
   -0.6660   23.7760  -29.8116 H   0  0  0  0  0  0  0  0  0  0  0  0
   -2.1527   23.6247  -30.8170 H   0  0  0  0  0  0  0  0  0  0  0  0
   -3.0966   22.9262  -31.9074 H   0  0  0  0  0  0  0  0  0  0  0  0
   -2.1090   20.5400  -33.2470 H   0  0  0  0  0  0  0  0  0  0  0  0
   -2.8040   21.1670  -34.7660 H   0  0  0  0  0  0  0  0  0  0  0  0
  1  2  1  0
  2  3  1  0
  3  4  2  0
  4  5  1  0
  5  6  1  0
  5  7  2  0
  7  8  1  0
  8  9  2  0
  8 10  2  0
  8 11  1  0
 11 12  1  0
 12 13  2  0
 13 14  1  0
 14 15  2  0
 15 16  1  0
 16 17  1  0
 16 18  1  0
 15 19  1  0
 19 20  2  0
 20 21  1  0
 21 22  1  0
 22 23  1  0
 23 24  1  0
 24 25  1  0
 25 26  1  0
  7 27  1  0
 27 28  2  0
 28 29  1  0
 28  3  1  0
 20 12  1  0
 26 21  1  0
  1 30  1  0
  1 31  1  0
  1 32  1  0
  4 33  1  0
  6 34  1  0
  6 35  1  0
  6 36  1  0
 11 37  1  0
 13 38  1  0
 14 39  1  0
 16 40  1  0
 17 41  1  0
 17 42  1  0
 17 43  1  0
 18 44  1  0
 18 45  1  0
 18 46  1  0
 19 47  1  0
 22 48  1  0
 22 49  1  0
 23 50  1  0
 23 51  1  0
 25 52  1  0
 25 53  1  0
 26 54  1  0
 26 55  1  0
 27 56  1  0
 29 57  1  0
 29 58  1  0
M  END
>  <UniqueID>  (17) 
16

>  <SMILES>  (17) 
COc1cc(C)c(S(=O)(=O)Nc2ccc(C(C)C)cc2N2CCOCC2)cc1N

>  <Energy>  (17) 
66.27303151017296

>  <Genealogy>  (17) 
COc1cc(C)c(S(=O)(=O)Nc2ccc(C(C)C)cc2N2CCOCC2)cc1N (3D coordinates assigned)
COc1cc(C)c(S(=O)(=O)Nc2ccc(C(C)C)cc2N2CCOCC2)cc1N (nonaromatic ring conformer: 66.27303151017296 kcal/mol)

>  <smiles>  (17) 
COc1cc(C)c(S(=O)(=O)Nc2ccc(C(C)C)cc2N2CCOCC2)cc1N

>  <score_type>  (17) 
oracle

>  <origin>  (17) 
adgpu

>  <m_score__min__energy>  (17) 
-9.0199999999999996

>  <m_primary>  (17) 
energy

$$$$
17:0
     RDKit          3D

 45 48  0  0  0  0  0  0  0  0999 V2000
   -4.3640   14.9160  -34.6090 C   0  0  0  0  0  0  0  0  0  0  0  0
   -4.7490   16.1970  -33.9310 C   0  0  0  0  0  0  0  0  0  0  0  0
   -5.3730   16.1730  -32.6750 C   0  0  0  0  0  0  0  0  0  0  0  0
   -5.7660   17.3650  -32.0590 C   0  0  0  0  0  0  0  0  0  0  0  0
   -5.5380   18.5970  -32.6910 C   0  0  0  0  0  0  0  0  0  0  0  0
   -5.9950   19.8480  -32.0490 C   0  0  0  0  0  0  0  0  0  0  0  0
   -5.0620   20.6170  -31.4310 N   0  0  0  0  0  0  0  0  0  0  0  0
   -5.3600   21.7490  -30.7870 N   0  0  0  0  0  0  0  0  0  0  0  0
   -4.2800   22.4770  -30.1730 C   0  0  0  0  0  0  0  0  0  0  0  0
   -3.3380   21.8220  -29.3600 C   0  0  0  0  0  0  0  0  0  0  0  0
   -2.3080   22.5430  -28.7490 C   0  0  0  0  0  0  0  0  0  0  0  0
   -2.2140   23.9290  -28.9290 C   0  0  0  0  0  0  0  0  0  0  0  0
   -0.9070   24.8340  -28.1730 S   0  0  0  0  0  0  0  0  0  0  0  0
   -1.0660   24.7580  -26.4540 N   0  0  0  0  0  0  0  0  0  0  0  0
   -0.9580   26.2690  -28.6190 O   0  0  0  0  0  0  0  0  0  0  0  0
    0.4180   24.2520  -28.5800 O   0  0  0  0  0  0  0  0  0  0  0  0
   -3.1560   24.5880  -29.7300 C   0  0  0  0  0  0  0  0  0  0  0  0
   -4.1870   23.8690  -30.3410 C   0  0  0  0  0  0  0  0  0  0  0  0
   -6.6580   22.1760  -30.6990 C   0  0  0  0  0  0  0  0  0  0  0  0
   -6.9450   23.2120  -30.0330 O   0  0  0  0  0  0  0  0  0  0  0  0
   -7.6770   21.4490  -31.3400 C   0  0  0  0  0  0  0  0  0  0  0  0
   -9.0180   21.8780  -31.3010 C   0  0  0  0  0  0  0  0  0  0  0  0
  -10.0100   21.1600  -31.9690 C   0  0  0  0  0  0  0  0  0  0  0  0
   -9.6780   20.0130  -32.6900 C   0  0  0  0  0  0  0  0  0  0  0  0
   -8.3550   19.5690  -32.7350 C   0  0  0  0  0  0  0  0  0  0  0  0
   -7.3420   20.2670  -32.0430 C   0  0  0  0  0  0  0  0  0  0  0  0
   -4.9500   18.6180  -33.9660 C   0  0  0  0  0  0  0  0  0  0  0  0
   -4.5580   17.4260  -34.5820 C   0  0  0  0  0  0  0  0  0  0  0  0
   -4.1349   14.1538  -33.8497 H   0  0  0  0  0  0  0  0  0  0  0  0
   -5.1975   14.5688  -35.2373 H   0  0  0  0  0  0  0  0  0  0  0  0
   -3.4772   15.0858  -35.2373 H   0  0  0  0  0  0  0  0  0  0  0  0
   -5.5541   15.2116  -32.1722 H   0  0  0  0  0  0  0  0  0  0  0  0
   -6.2561   17.3370  -31.0746 H   0  0  0  0  0  0  0  0  0  0  0  0
   -3.4121   20.7357  -29.2039 H   0  0  0  0  0  0  0  0  0  0  0  0
   -1.5686   22.0201  -28.1246 H   0  0  0  0  0  0  0  0  0  0  0  0
   -0.1840   25.1430  -26.0490 H   0  0  0  0  0  0  0  0  0  0  0  0
   -1.8320   25.4170  -26.1890 H   0  0  0  0  0  0  0  0  0  0  0  0
   -3.0838   25.6755  -29.8785 H   0  0  0  0  0  0  0  0  0  0  0  0
   -4.9303   24.3960  -30.9572 H   0  0  0  0  0  0  0  0  0  0  0  0
   -9.2849   22.7856  -30.7398 H   0  0  0  0  0  0  0  0  0  0  0  0
  -11.0557   21.4988  -31.9271 H   0  0  0  0  0  0  0  0  0  0  0  0
  -10.4614   19.4562  -33.2251 H   0  0  0  0  0  0  0  0  0  0  0  0
   -8.1004   18.6689  -33.3138 H   0  0  0  0  0  0  0  0  0  0  0  0
   -4.7971   19.5771  -34.4825 H   0  0  0  0  0  0  0  0  0  0  0  0
   -4.0980   17.4511  -35.5809 H   0  0  0  0  0  0  0  0  0  0  0  0
  1  2  1  0
  2  3  2  0
  3  4  1  0
  4  5  2  0
  5  6  1  0
  6  7  2  0
  7  8  1  0
  8  9  1  0
  9 10  2  0
 10 11  1  0
 11 12  2  0
 12 13  1  0
 13 14  1  0
 13 15  2  0
 13 16  2  0
 12 17  1  0
 17 18  2  0
  8 19  1  0
 19 20  2  0
 19 21  1  0
 21 22  2  0
 22 23  1  0
 23 24  2  0
 24 25  1  0
 25 26  2  0
  5 27  1  0
 27 28  2  0
 28  2  1  0
 26  6  1  0
 18  9  1  0
 26 21  1  0
  1 29  1  0
  1 30  1  0
  1 31  1  0
  3 32  1  0
  4 33  1  0
 10 34  1  0
 11 35  1  0
 14 36  1  0
 14 37  1  0
 17 38  1  0
 18 39  1  0
 22 40  1  0
 23 41  1  0
 24 42  1  0
 25 43  1  0
 27 44  1  0
 28 45  1  0
M  END
>  <UniqueID>  (18) 
17

>  <SMILES>  (18) 
Cc1ccc(-c2nn(-c3ccc(S(N)(=O)=O)cc3)c(=O)c3ccccc23)cc1

>  <Energy>  (18) 
67.9452942186137

>  <Genealogy>  (18) 
Cc1ccc(-c2nn(-c3ccc(S(N)(=O)=O)cc3)c(=O)c3ccccc23)cc1 (3D coordinates assigned)
Cc1ccc(-c2nn(-c3ccc(S(N)(=O)=O)cc3)c(=O)c3ccccc23)cc1 (optimized conformer: 67.9452942186137 kcal/mol)

>  <smiles>  (18) 
Cc1ccc(-c2nn(-c3ccc(S(N)(=O)=O)cc3)c(=O)c3ccccc23)cc1

>  <score_type>  (18) 
oracle

>  <origin>  (18) 
adgpu

>  <m_score__min__energy>  (18) 
-9.3100000000000005

>  <m_primary>  (18) 
energy

$$$$
18:0
     RDKit          3D

 48 50  0  0  0  0  0  0  0  0999 V2000
   -3.7340   25.2850  -30.5360 O   0  0  0  0  0  0  0  0  0  0  0  0
   -4.7090   24.4900  -30.4570 C   0  0  0  0  0  0  0  0  0  0  0  0
   -5.3830   24.1000  -31.6580 N   0  0  0  0  0  0  0  0  0  0  0  0
   -6.2690   22.9790  -31.7920 C   0  0  0  0  0  0  0  0  0  0  0  0
   -7.6380   23.0960  -31.4960 C   0  0  0  0  0  0  0  0  0  0  0  0
   -8.4940   22.0060  -31.6780 C   0  0  0  0  0  0  0  0  0  0  0  0
   -7.9960   20.7970  -32.1700 C   0  0  0  0  0  0  0  0  0  0  0  0
   -9.0770   19.4350  -32.3990 Cl  0  0  0  0  0  0  0  0  0  0  0  0
   -6.6420   20.6820  -32.4950 C   0  0  0  0  0  0  0  0  0  0  0  0
   -5.7790   21.7670  -32.3110 C   0  0  0  0  0  0  0  0  0  0  0  0
   -4.0790   21.5870  -32.7170 Cl  0  0  0  0  0  0  0  0  0  0  0  0
   -5.0910   23.9470  -29.1880 N   0  0  0  0  0  0  0  0  0  0  0  0
   -4.6210   24.5390  -27.9370 C   0  0  0  0  0  0  0  0  0  0  0  0
   -3.5870   23.6470  -27.2320 C   0  0  0  0  0  0  0  0  0  0  0  0
   -2.2000   24.0010  -27.5930 N   0  0  0  0  0  0  0  0  0  0  0  0
   -1.5800   23.3390  -28.7540 C   0  0  0  0  0  0  0  0  0  0  0  0
   -1.2080   21.9080  -28.4520 C   0  0  0  0  0  0  0  0  0  0  0  0
   -0.0130   21.3680  -28.9550 C   0  0  0  0  0  0  0  0  0  0  0  0
    0.3390   20.0460  -28.6720 C   0  0  0  0  0  0  0  0  0  0  0  0
   -0.4950   19.2480  -27.8840 C   0  0  0  0  0  0  0  0  0  0  0  0
   -0.0180   17.5890  -27.5500 Cl  0  0  0  0  0  0  0  0  0  0  0  0
   -1.6870   19.7820  -27.3680 C   0  0  0  0  0  0  0  0  0  0  0  0
   -2.7460   18.8150  -26.3480 Cl  0  0  0  0  0  0  0  0  0  0  0  0
   -2.0400   21.1060  -27.6540 C   0  0  0  0  0  0  0  0  0  0  0  0
   -1.5730   25.1800  -27.0400 C   0  0  0  0  0  0  0  0  0  0  0  0
   -1.0160   26.1490  -27.8910 C   0  0  0  0  0  0  0  0  0  0  0  0
   -0.3990   27.2860  -27.3660 C   0  0  0  0  0  0  0  0  0  0  0  0
   -0.3280   27.4750  -25.9820 C   0  0  0  0  0  0  0  0  0  0  0  0
    0.4580   28.9190  -25.3600 Cl  0  0  0  0  0  0  0  0  0  0  0  0
   -0.8910   26.5220  -25.1220 C   0  0  0  0  0  0  0  0  0  0  0  0
   -0.8440   26.7320  -23.3760 Cl  0  0  0  0  0  0  0  0  0  0  0  0
   -1.5120   25.3840  -25.6490 C   0  0  0  0  0  0  0  0  0  0  0  0
   -8.0375   24.0493  -31.1196 H   0  0  0  0  0  0  0  0  0  0  0  0
   -9.5623   22.1004  -31.4333 H   0  0  0  0  0  0  0  0  0  0  0  0
   -6.2534   19.7347  -32.8970 H   0  0  0  0  0  0  0  0  0  0  0  0
   -5.7020   23.1020  -29.1710 H   0  0  0  0  0  0  0  0  0  0  0  0
   -4.1594   25.5131  -28.1562 H   0  0  0  0  0  0  0  0  0  0  0  0
   -5.4865   24.6512  -27.2674 H   0  0  0  0  0  0  0  0  0  0  0  0
   -3.7082   23.7574  -26.1443 H   0  0  0  0  0  0  0  0  0  0  0  0
   -3.7633   22.6100  -27.5537 H   0  0  0  0  0  0  0  0  0  0  0  0
   -2.2913   23.3523  -29.5930 H   0  0  0  0  0  0  0  0  0  0  0  0
   -0.6592   23.8851  -29.0069 H   0  0  0  0  0  0  0  0  0  0  0  0
    0.6495   21.9895  -29.5753 H   0  0  0  0  0  0  0  0  0  0  0  0
    1.2765   19.6314  -29.0710 H   0  0  0  0  0  0  0  0  0  0  0  0
   -2.9755   21.5211  -27.2509 H   0  0  0  0  0  0  0  0  0  0  0  0
   -1.0665   26.0106  -28.9811 H   0  0  0  0  0  0  0  0  0  0  0  0
    0.0333   28.0367  -28.0439 H   0  0  0  0  0  0  0  0  0  0  0  0
   -1.9566   24.6420  -24.9695 H   0  0  0  0  0  0  0  0  0  0  0  0
  1  2  2  0
  2  3  1  0
  3  4  1  0
  4  5  2  0
  5  6  1  0
  6  7  2  0
  7  8  1  0
  7  9  1  0
  9 10  2  0
 10 11  1  0
  2 12  1  0
 12 13  1  0
 13 14  1  0
 14 15  1  0
 15 16  1  0
 16 17  1  0
 17 18  2  0
 18 19  1  0
 19 20  2  0
 20 21  1  0
 20 22  1  0
 22 23  1  0
 22 24  2  0
 15 25  1  0
 25 26  2  0
 26 27  1  0
 27 28  2  0
 28 29  1  0
 28 30  1  0
 30 31  1  0
 30 32  2  0
 10  4  1  0
 24 17  1  0
 32 25  1  0
  5 33  1  0
  6 34  1  0
  9 35  1  0
 12 36  1  0
 13 37  1  0
 13 38  1  0
 14 39  1  0
 14 40  1  0
 16 41  1  0
 16 42  1  0
 18 43  1  0
 19 44  1  0
 24 45  1  0
 26 46  1  0
 27 47  1  0
 32 48  1  0
M  CHG  1   3  -1
M  END
>  <UniqueID>  (19) 
18

>  <SMILES>  (19) 
O=C([N-]c1ccc(Cl)cc1Cl)NCCN(Cc1ccc(Cl)c(Cl)c1)c1ccc(Cl)c(Cl)c1

>  <Energy>  (19) 
50.745101140906456

>  <Genealogy>  (19) 
O=C([N-]c1ccc(Cl)cc1Cl)NCCN(Cc1ccc(Cl)c(Cl)c1)c1ccc(Cl)c(Cl)c1 (protonated)
O=C([N-]c1ccc(Cl)cc1Cl)NCCN(Cc1ccc(Cl)c(Cl)c1)c1ccc(Cl)c(Cl)c1 (3D coordinates assigned)
O=C([N-]c1ccc(Cl)cc1Cl)NCCN(Cc1ccc(Cl)c(Cl)c1)c1ccc(Cl)c(Cl)c1 (optimized conformer: 50.745101140906456 kcal/mol)

>  <smiles>  (19) 
O=C(NCCN(Cc1ccc(Cl)c(Cl)c1)c1ccc(Cl)c(Cl)c1)Nc1ccc(Cl)cc1Cl

>  <score_type>  (19) 
oracle

>  <origin>  (19) 
adgpu

>  <m_score__min__energy>  (19) 
-11.83

>  <m_primary>  (19) 
energy

$$$$
19:0
     RDKit          3D

 53 55  0  0  0  0  0  0  0  0999 V2000
   -6.4850   16.4430  -33.8900 C   0  0  0  0  0  0  0  0  0  0  0  0
   -6.5990   17.8430  -33.3610 C   0  0  0  0  0  0  0  0  0  0  0  0
   -7.7370   18.2400  -32.6510 C   0  0  0  0  0  0  0  0  0  0  0  0
   -7.8300   19.5320  -32.1360 C   0  0  0  0  0  0  0  0  0  0  0  0
   -6.7850   20.4570  -32.3090 C   0  0  0  0  0  0  0  0  0  0  0  0
   -6.9600   21.8250  -31.7610 C   0  0  0  0  0  0  0  0  0  0  0  0
   -7.8690   22.7140  -32.2190 N   0  0  0  0  0  0  0  0  0  0  0  0
   -7.6840   23.8040  -31.4920 N   0  0  0  0  0  0  0  0  0  0  0  0
   -6.7040   23.5830  -30.6340 N   0  0  0  0  0  0  0  0  0  0  0  0
   -6.1940   24.5760  -29.6940 C   0  0  0  0  0  0  0  0  0  0  0  0
   -5.1530   25.4420  -30.3380 C   0  0  0  0  0  0  0  0  0  0  0  0
   -5.3620   26.6780  -30.4510 O   0  0  0  0  0  0  0  0  0  0  0  0
   -3.9320   24.8600  -30.8170 N   0  0  0  0  0  0  0  0  0  0  0  0
   -3.1180   23.9030  -30.1250 C   0  0  0  0  0  0  0  0  0  0  0  0
   -3.1630   22.5350  -30.4300 C   0  0  0  0  0  0  0  0  0  0  0  0
   -2.3310   21.6400  -29.7600 C   0  0  0  0  0  0  0  0  0  0  0  0
   -1.4200   22.0890  -28.7880 C   0  0  0  0  0  0  0  0  0  0  0  0
   -0.5730   21.0650  -28.0820 C   0  0  0  0  0  0  0  0  0  0  0  0
   -1.3630   23.4750  -28.4810 C   0  0  0  0  0  0  0  0  0  0  0  0
   -0.2660   24.1720  -27.2640 S   0  0  0  0  0  0  0  0  0  0  0  0
    0.0940   23.0940  -26.2800 O   0  0  0  0  0  0  0  0  0  0  0  0
    1.0140   24.6450  -27.8940 O   0  0  0  0  0  0  0  0  0  0  0  0
   -1.0070   25.5020  -26.4010 N   0  0  0  0  0  0  0  0  0  0  0  0
   -0.8110   26.7530  -27.1390 C   0  0  0  0  0  0  0  0  0  0  0  0
   -2.4400   25.2450  -26.2090 C   0  0  0  0  0  0  0  0  0  0  0  0
   -2.2120   24.3610  -29.1660 C   0  0  0  0  0  0  0  0  0  0  0  0
   -6.2110   22.3650  -30.7800 N   0  0  0  0  0  0  0  0  0  0  0  0
   -5.6070   20.0440  -32.9880 C   0  0  0  0  0  0  0  0  0  0  0  0
   -4.4160   20.9540  -33.1490 C   0  0  0  0  0  0  0  0  0  0  0  0
   -5.5350   18.7410  -33.5140 C   0  0  0  0  0  0  0  0  0  0  0  0
   -6.4275   15.7367  -33.0487 H   0  0  0  0  0  0  0  0  0  0  0  0
   -7.3672   16.2103  -34.5045 H   0  0  0  0  0  0  0  0  0  0  0  0
   -5.5768   16.3560  -34.5045 H   0  0  0  0  0  0  0  0  0  0  0  0
   -8.5625   17.5292  -32.4983 H   0  0  0  0  0  0  0  0  0  0  0  0
   -8.7341   19.8324  -31.5862 H   0  0  0  0  0  0  0  0  0  0  0  0
   -7.0266   25.2084  -29.3522 H   0  0  0  0  0  0  0  0  0  0  0  0
   -5.7348   24.0500  -28.8440 H   0  0  0  0  0  0  0  0  0  0  0  0
   -3.8569   22.1673  -31.2002 H   0  0  0  0  0  0  0  0  0  0  0  0
   -2.3879   20.5669  -29.9951 H   0  0  0  0  0  0  0  0  0  0  0  0
   -0.6767   21.1904  -26.9941 H   0  0  0  0  0  0  0  0  0  0  0  0
   -0.9036   20.0556  -28.3679 H   0  0  0  0  0  0  0  0  0  0  0  0
    0.4805   21.2005  -28.3679 H   0  0  0  0  0  0  0  0  0  0  0  0
   -0.6811   27.5819  -26.4276 H   0  0  0  0  0  0  0  0  0  0  0  0
    0.0849   26.6690  -27.7716 H   0  0  0  0  0  0  0  0  0  0  0  0
   -1.6897   26.9470  -27.7716 H   0  0  0  0  0  0  0  0  0  0  0  0
   -2.6643   25.2048  -25.1329 H   0  0  0  0  0  0  0  0  0  0  0  0
   -3.0231   26.0529  -26.6752 H   0  0  0  0  0  0  0  0  0  0  0  0
   -2.7060   24.2848  -26.6752 H   0  0  0  0  0  0  0  0  0  0  0  0
   -2.1619   25.4368  -28.9423 H   0  0  0  0  0  0  0  0  0  0  0  0
   -4.0383   21.2426  -32.1570 H   0  0  0  0  0  0  0  0  0  0  0  0
   -3.6250   20.4280  -33.7037 H   0  0  0  0  0  0  0  0  0  0  0  0
   -4.7156   21.8554  -33.7037 H   0  0  0  0  0  0  0  0  0  0  0  0
   -4.6303   18.4231  -34.0530 H   0  0  0  0  0  0  0  0  0  0  0  0
  1  2  1  0
  2  3  2  0
  3  4  1  0
  4  5  2  0
  5  6  1  0
  6  7  1  0
  7  8  2  0
  8  9  1  0
  9 10  1  0
 10 11  1  0
 11 12  2  0
 11 13  1  0
 13 14  1  0
 14 15  2  0
 15 16  1  0
 16 17  2  0
 17 18  1  0
 17 19  1  0
 19 20  1  0
 20 21  2  0
 20 22  2  0
 20 23  1  0
 23 24  1  0
 23 25  1  0
 19 26  2  0
  9 27  1  0
  5 28  1  0
 28 29  1  0
 28 30  2  0
 30  2  1  0
 27  6  2  0
 26 14  1  0
  1 31  1  0
  1 32  1  0
  1 33  1  0
  3 34  1  0
  4 35  1  0
 10 36  1  0
 10 37  1  0
 15 38  1  0
 16 39  1  0
 18 40  1  0
 18 41  1  0
 18 42  1  0
 24 43  1  0
 24 44  1  0
 24 45  1  0
 25 46  1  0
 25 47  1  0
 25 48  1  0
 26 49  1  0
 29 50  1  0
 29 51  1  0
 29 52  1  0
 30 53  1  0
M  CHG  1  13  -1
M  END
>  <UniqueID>  (20) 
19

>  <SMILES>  (20) 
Cc1ccc(-c2nnn(CC(=O)[N-]c3ccc(C)c(S(=O)(=O)N(C)C)c3)n2)c(C)c1

>  <Energy>  (20) 
98.1628484657361

>  <Genealogy>  (20) 
Cc1ccc(-c2nnn(CC(=O)[N-]c3ccc(C)c(S(=O)(=O)N(C)C)c3)n2)c(C)c1 (protonated)
Cc1ccc(-c2nnn(CC(=O)[N-]c3ccc(C)c(S(=O)(=O)N(C)C)c3)n2)c(C)c1 (3D coordinates assigned)
Cc1ccc(-c2nnn(CC(=O)[N-]c3ccc(C)c(S(=O)(=O)N(C)C)c3)n2)c(C)c1 (optimized conformer: 98.1628484657361 kcal/mol)

>  <smiles>  (20) 
Cc1ccc(-c2nnn(CC(=O)Nc3ccc(C)c(S(=O)(=O)N(C)C)c3)n2)c(C)c1

>  <score_type>  (20) 
oracle

>  <origin>  (20) 
adgpu

>  <m_score__min__energy>  (20) 
-11.9

>  <m_primary>  (20) 
energy

$$$$
20:0
     RDKit          3D

 57 61  0  0  0  0  0  0  0  0999 V2000
  -10.1657   19.3240  -32.1914 H   0  0  0  0  0  0  0  0  0  0  0  0
   -9.4010   20.1140  -32.2260 C   0  0  0  0  0  0  0  0  0  0  0  0
   -8.1180   19.8240  -32.6940 C   0  0  0  0  0  0  0  0  0  0  0  0
   -7.8717   18.8040  -33.0241 H   0  0  0  0  0  0  0  0  0  0  0  0
   -7.1450   20.8280  -32.7440 C   0  0  0  0  0  0  0  0  0  0  0  0
   -6.1362   20.5941  -33.1150 H   0  0  0  0  0  0  0  0  0  0  0  0
   -7.4500   22.1360  -32.3220 C   0  0  0  0  0  0  0  0  0  0  0  0
   -6.4720   23.1920  -32.3440 N   0  0  0  0  0  0  0  0  0  0  0  0
   -6.4860   23.8800  -33.1310 H   0  0  0  0  0  0  0  0  0  0  0  0
   -5.1940   23.3590  -31.1800 S   0  0  0  0  0  0  0  0  0  0  0  0
   -5.7270   22.9990  -29.8210 O   0  0  0  0  0  0  0  0  0  0  0  0
   -4.7450   24.7920  -31.1640 O   0  0  0  0  0  0  0  0  0  0  0  0
   -3.8470   22.2790  -31.5670 C   0  0  0  0  0  0  0  0  0  0  0  0
   -4.0940   21.0810  -32.2570 C   0  0  0  0  0  0  0  0  0  0  0  0
   -5.1229   20.8171  -32.5427 H   0  0  0  0  0  0  0  0  0  0  0  0
   -3.0410   20.2220  -32.5830 C   0  0  0  0  0  0  0  0  0  0  0  0
   -3.2423   19.2910  -33.1332 H   0  0  0  0  0  0  0  0  0  0  0  0
   -1.7350   20.5430  -32.2120 C   0  0  0  0  0  0  0  0  0  0  0  0
   -0.9075   19.8665  -32.4721 H   0  0  0  0  0  0  0  0  0  0  0  0
   -1.4780   21.7220  -31.5110 C   0  0  0  0  0  0  0  0  0  0  0  0
   -0.4488   21.9651  -31.2084 H   0  0  0  0  0  0  0  0  0  0  0  0
   -2.5250   22.5990  -31.1900 C   0  0  0  0  0  0  0  0  0  0  0  0
   -2.2330   23.7990  -30.4640 N   0  0  0  0  0  0  0  0  0  0  0  0
   -1.9920   23.9180  -29.1840 C   0  0  0  0  0  0  0  0  0  0  0  0
   -1.7510   25.1680  -28.7020 N   0  0  0  0  0  0  0  0  0  0  0  0
   -1.4680   25.3970  -27.3950 C   0  0  0  0  0  0  0  0  0  0  0  0
   -1.2240   26.6960  -26.9350 C   0  0  0  0  0  0  0  0  0  0  0  0
   -1.2630   27.5449  -27.6334 H   0  0  0  0  0  0  0  0  0  0  0  0
   -0.9300   26.9120  -25.5830 C   0  0  0  0  0  0  0  0  0  0  0  0
   -0.7388   27.9322  -25.2187 H   0  0  0  0  0  0  0  0  0  0  0  0
   -0.8790   25.8310  -24.6940 C   0  0  0  0  0  0  0  0  0  0  0  0
   -0.6465   26.0041  -23.6329 H   0  0  0  0  0  0  0  0  0  0  0  0
   -1.1230   24.5310  -25.1520 C   0  0  0  0  0  0  0  0  0  0  0  0
   -1.0836   23.6830  -24.4525 H   0  0  0  0  0  0  0  0  0  0  0  0
   -1.4170   24.3140  -26.5020 C   0  0  0  0  0  0  0  0  0  0  0  0
   -1.6530   23.0620  -26.9660 N   0  0  0  0  0  0  0  0  0  0  0  0
   -1.9320   22.8190  -28.2780 C   0  0  0  0  0  0  0  0  0  0  0  0
   -2.1550   21.6000  -28.6790 N   0  0  0  0  0  0  0  0  0  0  0  0
   -2.0430   20.4160  -27.8770 C   0  0  0  0  0  0  0  0  0  0  0  0
   -3.1410   20.0290  -27.0970 C   0  0  0  0  0  0  0  0  0  0  0  0
   -4.0530   20.6440  -27.0933 H   0  0  0  0  0  0  0  0  0  0  0  0
   -3.0840   18.8680  -26.3250 C   0  0  0  0  0  0  0  0  0  0  0  0
   -3.9445   18.5785  -25.7039 H   0  0  0  0  0  0  0  0  0  0  0  0
   -1.9370   18.0740  -26.3400 C   0  0  0  0  0  0  0  0  0  0  0  0
   -1.8888   17.1674  -25.7189 H   0  0  0  0  0  0  0  0  0  0  0  0
   -0.8500   18.4280  -27.1420 C   0  0  0  0  0  0  0  0  0  0  0  0
    0.0494   17.7948  -27.1549 H   0  0  0  0  0  0  0  0  0  0  0  0
   -0.8990   19.5920  -27.9350 C   0  0  0  0  0  0  0  0  0  0  0  0
    0.1430   19.9370  -28.8110 O   0  0  0  0  0  0  0  0  0  0  0  0
    0.5180   19.1830  -29.9580 C   0  0  0  0  0  0  0  0  0  0  0  0
    0.9869   18.2402  -29.6398 H   0  0  0  0  0  0  0  0  0  0  0  0
   -0.3757   18.9630  -30.5604 H   0  0  0  0  0  0  0  0  0  0  0  0
    1.2327   19.7629  -30.5604 H   0  0  0  0  0  0  0  0  0  0  0  0
   -8.7430   22.4130  -31.8470 C   0  0  0  0  0  0  0  0  0  0  0  0
   -8.9940   23.4289  -31.5080 H   0  0  0  0  0  0  0  0  0  0  0  0
   -9.7130   21.4070  -31.8020 C   0  0  0  0  0  0  0  0  0  0  0  0
  -10.7235   21.6347  -31.4319 H   0  0  0  0  0  0  0  0  0  0  0  0
  1  2  1  0
  2  3  2  0
  3  4  1  0
  3  5  1  0
  5  6  1  0
  5  7  2  0
  7  8  1  0
  8  9  1  0
  8 10  1  0
 10 11  2  0
 10 12  2  0
 10 13  1  0
 13 14  2  0
 14 15  1  0
 14 16  1  0
 16 17  1  0
 16 18  2  0
 18 19  1  0
 18 20  1  0
 20 21  1  0
 20 22  2  0
 22 23  1  0
 23 24  2  0
 24 25  1  0
 25 26  1  0
 26 27  2  0
 27 28  1  0
 27 29  1  0
 29 30  1  0
 29 31  2  0
 31 32  1  0
 31 33  1  0
 33 34  1  0
 33 35  2  0
 35 36  1  0
 36 37  1  0
 37 38  2  3
 38 39  1  0
 39 40  2  0
 40 41  1  0
 40 42  1  0
 42 43  1  0
 42 44  2  0
 44 45  1  0
 44 46  1  0
 46 47  1  0
 46 48  2  0
 48 49  1  0
 49 50  1  0
 50 51  1  0
 50 52  1  0
 50 53  1  0
  7 54  1  0
 54 55  1  0
 54 56  2  0
 56 57  1  0
 56  2  1  0
 22 13  1  0
 37 24  1  0
 48 39  1  0
 35 26  1  0
M  CHG  2  25  -1  36  -1
M  END
>  <UniqueID>  (21) 
20

>  <SMILES>  (21) 
COc1ccccc1N=c1[n-]c2ccccc2[n-]/c1=N/c1ccccc1S(=O)(=O)Nc1ccccc1

>  <Energy>  (21) 
87.31476345384529

>  <Genealogy>  (21) 
COc1ccccc1N=c1[n-]c2ccccc2[n-]c1=Nc1ccccc1S(=O)(=O)Nc1ccccc1 (protonated)
COc1ccccc1N=c1[n-]c2ccccc2[n-]/c1=N/c1ccccc1S(=O)(=O)Nc1ccccc1 (cis-trans isomerization)
COc1ccccc1N=c1[n-]c2ccccc2[n-]/c1=N/c1ccccc1S(=O)(=O)Nc1ccccc1 (3D coordinates assigned)
COc1ccccc1N=c1[n-]c2ccccc2[n-]/c1=N/c1ccccc1S(=O)(=O)Nc1ccccc1 (optimized conformer: 87.31476345384529 kcal/mol)

>  <smiles>  (21) 
COc1ccccc1N=c1[nH]c2ccccc2[nH]c1=Nc1ccccc1S(=O)(=O)Nc1ccccc1

>  <score_type>  (21) 
oracle

>  <origin>  (21) 
adgpu

>  <m_score__min__energy>  (21) 
-11.970000000000001

>  <m_primary>  (21) 
energy

$$$$
21:0
     RDKit          3D

 47 50  0  0  0  0  0  0  0  0999 V2000
   -8.5852   20.6206  -31.6031 H   0  0  0  0  0  0  0  0  0  0  0  0
   -7.5970   20.2140  -31.8640 C   0  0  0  0  0  0  0  0  0  0  0  0
   -7.5150   19.0800  -32.6150 N   0  0  0  0  0  0  0  0  0  0  0  0
   -6.3060   18.5670  -32.9470 C   0  0  0  0  0  0  0  0  0  0  0  0
   -6.1140   17.4110  -33.7090 C   0  0  0  0  0  0  0  0  0  0  0  0
   -6.9363   16.8058  -34.1183 H   0  0  0  0  0  0  0  0  0  0  0  0
   -4.7580   17.1080  -33.8940 C   0  0  0  0  0  0  0  0  0  0  0  0
   -4.2070   15.9510  -34.6470 C   0  0  0  0  0  0  0  0  0  0  0  0
   -3.3020   16.1590  -35.7050 C   0  0  0  0  0  0  0  0  0  0  0  0
   -3.0043   17.1835  -35.9731 H   0  0  0  0  0  0  0  0  0  0  0  0
   -2.7780   15.0780  -36.4180 C   0  0  0  0  0  0  0  0  0  0  0  0
   -2.0733   15.2577  -37.2433 H   0  0  0  0  0  0  0  0  0  0  0  0
   -3.1450   13.7640  -36.0880 C   0  0  0  0  0  0  0  0  0  0  0  0
   -2.5710   12.5920  -36.8580 C   0  0  0  0  0  0  0  0  0  0  0  0
   -2.9990   11.6653  -36.4481 H   0  0  0  0  0  0  0  0  0  0  0  0
   -1.4780   12.6391  -36.7434 H   0  0  0  0  0  0  0  0  0  0  0  0
   -2.8530   12.6330  -38.3110 N   0  0  0  0  0  0  0  0  0  0  0  0
   -1.9440   13.5330  -39.0400 C   0  0  0  0  0  0  0  0  0  0  0  0
   -1.3527   14.1184  -38.3205 H   0  0  0  0  0  0  0  0  0  0  0  0
   -1.2682   12.9383  -39.6721 H   0  0  0  0  0  0  0  0  0  0  0  0
   -2.5320   14.2147  -39.6721 H   0  0  0  0  0  0  0  0  0  0  0  0
   -4.2570   12.9520  -38.6080 C   0  0  0  0  0  0  0  0  0  0  0  0
   -4.8115   13.0780  -37.6664 H   0  0  0  0  0  0  0  0  0  0  0  0
   -4.3060   13.8842  -39.1899 H   0  0  0  0  0  0  0  0  0  0  0  0
   -4.7040   12.1325  -39.1899 H   0  0  0  0  0  0  0  0  0  0  0  0
   -4.0560   13.5520  -35.0430 C   0  0  0  0  0  0  0  0  0  0  0  0
   -4.3592   12.5271  -34.7830 H   0  0  0  0  0  0  0  0  0  0  0  0
   -4.5820   14.6330  -34.3290 C   0  0  0  0  0  0  0  0  0  0  0  0
   -5.2952   14.4512  -33.5115 H   0  0  0  0  0  0  0  0  0  0  0  0
   -3.8330   18.2880  -33.0970 S   0  0  0  0  0  0  0  0  0  0  0  0
   -5.1410   19.1780  -32.5290 C   0  0  0  0  0  0  0  0  0  0  0  0
   -5.1490   20.3370  -31.7510 C   0  0  0  0  0  0  0  0  0  0  0  0
   -3.9990   20.8450  -31.3900 N   0  0  0  0  0  0  0  0  0  0  0  0
   -3.7550   21.9870  -30.5630 C   0  0  0  0  0  0  0  0  0  0  0  0
   -3.9340   23.2730  -31.0910 C   0  0  0  0  0  0  0  0  0  0  0  0
   -4.2811   23.3963  -32.1275 H   0  0  0  0  0  0  0  0  0  0  0  0
   -3.6730   24.4000  -30.3050 C   0  0  0  0  0  0  0  0  0  0  0  0
   -3.8650   25.6720  -30.8290 O   0  0  0  0  0  0  0  0  0  0  0  0
   -3.2180   24.2450  -28.9930 C   0  0  0  0  0  0  0  0  0  0  0  0
   -3.0184   25.1314  -28.3729 H   0  0  0  0  0  0  0  0  0  0  0  0
   -3.0160   22.9660  -28.4670 C   0  0  0  0  0  0  0  0  0  0  0  0
   -2.6510   22.8482  -27.4360 H   0  0  0  0  0  0  0  0  0  0  0  0
   -3.2770   21.8340  -29.2490 C   0  0  0  0  0  0  0  0  0  0  0  0
   -3.0040   20.2360  -28.5670 Cl  0  0  0  0  0  0  0  0  0  0  0  0
   -6.4310   20.8760  -31.4150 C   0  0  0  0  0  0  0  0  0  0  0  0
   -6.6190   22.0890  -30.6540 C   0  0  0  0  0  0  0  0  0  0  0  0
   -6.7780   23.0610  -30.0470 N   0  0  0  0  0  0  0  0  0  0  0  0
  1  2  1  0
  2  3  1  0
  3  4  1  0
  4  5  1  0
  5  6  1  0
  5  7  2  0
  7  8  1  0
  8  9  2  0
  9 10  1  0
  9 11  1  0
 11 12  1  0
 11 13  2  0
 13 14  1  0
 14 15  1  0
 14 16  1  0
 14 17  1  0
 17 18  1  0
 18 19  1  0
 18 20  1  0
 18 21  1  0
 17 22  1  0
 22 23  1  0
 22 24  1  0
 22 25  1  0
 13 26  1  0
 26 27  1  0
 26 28  2  0
 28 29  1  0
  7 30  1  0
 30 31  1  0
 31 32  1  0
 32 33  2  0
 33 34  1  0
 34 35  2  0
 35 36  1  0
 35 37  1  0
 37 38  1  0
 37 39  2  0
 39 40  1  0
 39 41  1  0
 41 42  1  0
 41 43  2  0
 43 44  1  0
 32 45  1  0
 45 46  1  0
 46 47  3  0
 45  2  2  0
 31  4  2  0
 43 34  1  0
 28  8  1  0
M  CHG  2   3  -1  38  -1
M  END
>  <UniqueID>  (22) 
21

>  <SMILES>  (22) 
CN(C)Cc1ccc(-c2cc3[n-]cc(C#N)/c(=N\c4cc([O-])ccc4Cl)c3s2)cc1

>  <Energy>  (22) 
103.04269055187288

>  <Genealogy>  (22) 
CN(C)Cc1ccc(-c2cc3[n-]cc(C#N)c(=Nc4cc([O-])ccc4Cl)c3s2)cc1 (protonated)
CN(C)Cc1ccc(-c2cc3[n-]cc(C#N)/c(=N\c4cc([O-])ccc4Cl)c3s2)cc1 (cis-trans isomerization)
CN(C)Cc1ccc(-c2cc3[n-]cc(C#N)/c(=N\c4cc([O-])ccc4Cl)c3s2)cc1 (3D coordinates assigned)
CN(C)Cc1ccc(-c2cc3[n-]cc(C#N)/c(=N\c4cc([O-])ccc4Cl)c3s2)cc1 (optimized conformer: 103.04269055187288 kcal/mol)

>  <smiles>  (22) 
CN(C)Cc1ccc(-c2cc3[nH]cc(C#N)c(=Nc4cc(O)ccc4Cl)c3s2)cc1

>  <score_type>  (22) 
oracle

>  <origin>  (22) 
adgpu

>  <m_score__min__energy>  (22) 
-10.109999999999999

>  <m_primary>  (22) 
energy

$$$$
22:0
     RDKit          3D

 43 45  0  0  0  0  0  0  0  0999 V2000
   -7.6310   20.0270  -33.4470 N   0  0  0  0  0  0  0  0  0  0  0  0
   -7.0740   21.1190  -32.7080 C   0  0  0  0  0  0  0  0  0  0  0  0
   -7.9100   21.9860  -31.9920 C   0  0  0  0  0  0  0  0  0  0  0  0
   -7.3710   23.0580  -31.2800 C   0  0  0  0  0  0  0  0  0  0  0  0
   -5.9880   23.2770  -31.2760 C   0  0  0  0  0  0  0  0  0  0  0  0
   -5.3300   24.6140  -30.3440 S   0  0  0  0  0  0  0  0  0  0  0  0
   -6.2470   25.7950  -30.4800 O   0  0  0  0  0  0  0  0  0  0  0  0
   -3.9620   24.9930  -30.8430 O   0  0  0  0  0  0  0  0  0  0  0  0
   -5.2330   24.1450  -28.6810 N   0  0  0  0  0  0  0  0  0  0  0  0
   -3.9900   24.2240  -27.9670 C   0  0  0  0  0  0  0  0  0  0  0  0
   -3.9060   24.9190  -26.7510 C   0  0  0  0  0  0  0  0  0  0  0  0
   -2.6780   25.0420  -26.0930 C   0  0  0  0  0  0  0  0  0  0  0  0
   -1.5270   24.4820  -26.6470 C   0  0  0  0  0  0  0  0  0  0  0  0
   -1.6000   23.7820  -27.8620 C   0  0  0  0  0  0  0  0  0  0  0  0
   -0.1320   23.1830  -28.6250 S   0  0  0  0  0  0  0  0  0  0  0  0
   -0.3940   22.8200  -30.0600 O   0  0  0  0  0  0  0  0  0  0  0  0
    0.9200   24.2520  -28.5830 O   0  0  0  0  0  0  0  0  0  0  0  0
    0.4540   21.7790  -27.7970 N   0  0  0  0  0  0  0  0  0  0  0  0
   -0.3410   20.6500  -27.4180 C   0  0  0  0  0  0  0  0  0  0  0  0
   -1.5240   20.7920  -26.6660 C   0  0  0  0  0  0  0  0  0  0  0  0
   -2.2910   19.6720  -26.3370 C   0  0  0  0  0  0  0  0  0  0  0  0
   -1.8950   18.4030  -26.7660 C   0  0  0  0  0  0  0  0  0  0  0  0
   -0.7190   18.2510  -27.5020 C   0  0  0  0  0  0  0  0  0  0  0  0
    0.0650   19.3650  -27.8210 C   0  0  0  0  0  0  0  0  0  0  0  0
    1.5580   19.1240  -28.7120 Cl  0  0  0  0  0  0  0  0  0  0  0  0
   -2.8370   23.6360  -28.5090 C   0  0  0  0  0  0  0  0  0  0  0  0
   -5.1450   22.4100  -31.9870 C   0  0  0  0  0  0  0  0  0  0  0  0
   -5.6880   21.3390  -32.7040 C   0  0  0  0  0  0  0  0  0  0  0  0
   -7.6500   20.0440  -34.4920 H   0  0  0  0  0  0  0  0  0  0  0  0
   -8.0800   19.2220  -32.9560 H   0  0  0  0  0  0  0  0  0  0  0  0
   -8.9975   21.8205  -31.9912 H   0  0  0  0  0  0  0  0  0  0  0  0
   -8.0346   23.7333  -30.7200 H   0  0  0  0  0  0  0  0  0  0  0  0
   -5.9870   23.5190  -28.3190 H   0  0  0  0  0  0  0  0  0  0  0  0
   -4.8095   25.3689  -26.3135 H   0  0  0  0  0  0  0  0  0  0  0  0
   -2.6198   25.5817  -25.1363 H   0  0  0  0  0  0  0  0  0  0  0  0
   -0.5611   24.5888  -26.1316 H   0  0  0  0  0  0  0  0  0  0  0  0
   -1.8455   21.7909  -26.3360 H   0  0  0  0  0  0  0  0  0  0  0  0
   -3.2073   19.7893  -25.7398 H   0  0  0  0  0  0  0  0  0  0  0  0
   -2.5099   17.5237  -26.5238 H   0  0  0  0  0  0  0  0  0  0  0  0
   -0.4067   17.2496  -27.8332 H   0  0  0  0  0  0  0  0  0  0  0  0
   -2.9027   23.0592  -29.4433 H   0  0  0  0  0  0  0  0  0  0  0  0
   -4.0571   22.5725  -31.9806 H   0  0  0  0  0  0  0  0  0  0  0  0
   -5.0254   20.6657  -33.2676 H   0  0  0  0  0  0  0  0  0  0  0  0
  1  2  1  0
  2  3  2  0
  3  4  1  0
  4  5  2  0
  5  6  1  0
  6  7  2  0
  6  8  2  0
  6  9  1  0
  9 10  1  0
 10 11  2  0
 11 12  1  0
 12 13  2  0
 13 14  1  0
 14 15  1  0
 15 16  2  0
 15 17  2  0
 15 18  1  0
 18 19  1  0
 19 20  2  0
 20 21  1  0
 21 22  2  0
 22 23  1  0
 23 24  2  0
 24 25  1  0
 14 26  2  0
  5 27  1  0
 27 28  2  0
 28  2  1  0
 26 10  1  0
 24 19  1  0
  1 29  1  0
  1 30  1  0
  3 31  1  0
  4 32  1  0
  9 33  1  0
 11 34  1  0
 12 35  1  0
 13 36  1  0
 20 37  1  0
 21 38  1  0
 22 39  1  0
 23 40  1  0
 26 41  1  0
 27 42  1  0
 28 43  1  0
M  CHG  1  18  -1
M  END
>  <UniqueID>  (23) 
22

>  <SMILES>  (23) 
Nc1ccc(S(=O)(=O)Nc2cccc(S(=O)(=O)[N-]c3ccccc3Cl)c2)cc1

>  <Energy>  (23) 
50.18411472343522

>  <Genealogy>  (23) 
Nc1ccc(S(=O)(=O)Nc2cccc(S(=O)(=O)[N-]c3ccccc3Cl)c2)cc1 (protonated)
Nc1ccc(S(=O)(=O)Nc2cccc(S(=O)(=O)[N-]c3ccccc3Cl)c2)cc1 (3D coordinates assigned)
Nc1ccc(S(=O)(=O)Nc2cccc(S(=O)(=O)[N-]c3ccccc3Cl)c2)cc1 (optimized conformer: 50.18411472343522 kcal/mol)

>  <smiles>  (23) 
Nc1ccc(S(=O)(=O)Nc2cccc(S(=O)(=O)Nc3ccccc3Cl)c2)cc1

>  <score_type>  (23) 
oracle

>  <origin>  (23) 
adgpu

>  <m_score__min__energy>  (23) 
-11.050000000000001

>  <m_primary>  (23) 
energy

$$$$
23:0
     RDKit          3D

 44 46  0  0  1  0  0  0  0  0999 V2000
   -6.1140   18.9160  -34.6400 N   0  0  0  0  0  0  0  0  0  0  0  0
   -6.7930   18.6230  -33.4450 C   0  0  0  0  0  0  0  0  0  0  0  0
   -6.8650   17.3900  -33.1190 O   0  0  0  0  0  0  0  0  0  0  0  0
   -7.3920   19.6530  -32.6030 C   0  0  0  0  0  0  0  0  0  0  0  0
   -8.6160   19.5110  -31.9870 C   0  0  0  0  0  0  0  0  0  0  0  0
   -9.1530   20.5170  -31.1900 C   0  0  0  0  0  0  0  0  0  0  0  0
   -8.4380   21.6920  -31.0120 C   0  0  0  0  0  0  0  0  0  0  0  0
   -7.2110   21.8640  -31.6140 C   0  0  0  0  0  0  0  0  0  0  0  0
   -6.5120   23.0400  -31.4260 C   0  0  0  0  0  0  0  0  0  0  0  0
   -6.9840   23.9920  -30.6920 N   0  0  0  0  0  0  0  0  0  0  0  0
   -6.1740   25.1680  -30.5670 C   0  0  0  0  0  0  0  0  0  0  0  0
   -4.8830   24.9130  -29.8830 C   0  0  0  0  0  0  0  0  0  0  0  0
   -3.8430   25.2870  -30.4720 O   0  0  0  0  0  0  0  0  0  0  0  0
   -4.8600   24.2780  -28.6270 N   0  0  0  0  0  0  0  0  0  0  0  0
   -3.7140   23.9730  -27.8640 C   0  0  0  0  0  0  0  0  0  0  0  0
   -2.9850   22.8260  -27.9160 C   0  0  0  0  0  0  0  0  0  0  0  0
   -1.8600   22.5920  -27.1290 C   0  0  0  0  0  0  0  0  0  0  0  0
   -1.4280   23.5490  -26.2360 C   0  0  0  0  0  0  0  0  0  0  0  0
   -0.0400   23.3590  -25.2090 S   0  0  0  0  0  0  0  0  0  0  0  0
   -0.4910   22.5980  -23.7220 N   0  0  0  0  0  0  0  0  0  0  0  0
    1.0750   22.6230  -25.8880 O   0  0  0  0  0  0  0  0  0  0  0  0
    0.4890   24.7290  -24.8510 O   0  0  0  0  0  0  0  0  0  0  0  0
   -2.1630   24.7150  -26.1770 C   0  0  0  0  0  0  0  0  0  0  0  0
   -3.2750   24.9430  -26.9590 C   0  0  0  0  0  0  0  0  0  0  0  0
   -5.3110   23.1430  -32.0470 N   0  0  0  0  0  0  0  0  0  0  0  0
   -4.8270   22.1560  -32.8050 C   0  0  0  0  0  0  0  0  0  0  0  0
   -5.5110   21.0010  -32.9910 N   0  0  0  0  0  0  0  0  0  0  0  0
   -6.7070   20.8330  -32.4040 C   0  0  0  0  0  0  0  0  0  0  0  0
   -5.4100   19.6740  -34.7560 H   0  0  0  0  0  0  0  0  0  0  0  0
   -6.3200   18.3380  -35.4830 H   0  0  0  0  0  0  0  0  0  0  0  0
   -9.1829   18.5790  -32.1288 H   0  0  0  0  0  0  0  0  0  0  0  0
  -10.1321   20.3822  -30.7072 H   0  0  0  0  0  0  0  0  0  0  0  0
   -8.8545   22.4937  -30.3845 H   0  0  0  0  0  0  0  0  0  0  0  0
   -5.9659   25.5588  -31.5739 H   0  0  0  0  0  0  0  0  0  0  0  0
   -6.7341   25.8894  -29.9539 H   0  0  0  0  0  0  0  0  0  0  0  0
   -5.8130   24.0100  -28.2340 H   0  0  0  0  0  0  0  0  0  0  0  0
   -3.3012   22.0403  -28.6179 H   0  0  0  0  0  0  0  0  0  0  0  0
   -1.3148   21.6410  -27.2203 H   0  0  0  0  0  0  0  0  0  0  0  0
   -0.1070   21.6140  -23.7820 H   0  0  0  0  0  0  0  0  0  0  0  0
   -0.0460   23.1250  -22.9570 H   0  0  0  0  0  0  0  0  0  0  0  0
   -1.8470   25.4991  -25.4733 H   0  0  0  0  0  0  0  0  0  0  0  0
   -3.8201   25.8943  -26.8701 H   0  0  0  0  0  0  0  0  0  0  0  0
   -4.7300   24.0030  -31.9490 H   0  0  0  0  0  0  0  0  0  0  0  0
   -3.8483   22.2837  -33.2907 H   0  0  0  0  0  0  0  0  0  0  0  0
  1  2  1  0
  2  3  2  0
  2  4  1  0
  4  5  2  0
  5  6  1  0
  6  7  2  0
  7  8  1  0
  8  9  1  0
  9 10  2  0
 10 11  1  0
 11 12  1  0
 12 13  2  0
 12 14  1  0
 14 15  1  0
 15 16  2  0
 16 17  1  0
 17 18  2  0
 18 19  1  0
 19 20  1  0
 19 21  2  0
 19 22  2  0
 18 23  1  0
 23 24  2  0
  9 25  1  0
 25 26  1  0
 26 27  2  0
 27 28  1  0
 28  4  1  0
 28  8  2  0
 24 15  1  0
  1 29  1  0
  1 30  1  0
  5 31  1  0
  6 32  1  0
  7 33  1  0
 11 34  1  0
 11 35  1  0
 14 36  1  0
 16 37  1  0
 17 38  1  0
 20 39  1  0
 20 40  1  0
 23 41  1  0
 24 42  1  0
 25 43  1  0
 26 44  1  0
M  END
>  <smiles>  (24) 
NC(=O)c1cccc2c(=NCC(=O)Nc3ccc(S(N)(=O)=O)cc3)[nH]cnc12

>  <score_type>  (24) 
oracle

>  <origin>  (24) 
adgpu

>  <m_score__min__energy>  (24) 
-10.140000000000001

>  <m_primary>  (24) 
energy

$$$$
24:0
     RDKit          3D

 28 29  0  0  0  0  0  0  0  0999 V2000
   -7.8260   22.5370  -31.5650 C   0  0  0  0  0  0  0  0  0  0  0  0
   -6.5360   21.9930  -32.1120 C   0  0  0  0  0  0  0  0  0  0  0  0
   -6.5370   20.8000  -32.8550 C   0  0  0  0  0  0  0  0  0  0  0  0
   -5.3430   20.2800  -33.3610 C   0  0  0  0  0  0  0  0  0  0  0  0
   -5.3540   19.1000  -34.0950 O   0  0  0  0  0  0  0  0  0  0  0  0
   -4.1380   20.9490  -33.1340 C   0  0  0  0  0  0  0  0  0  0  0  0
   -4.1230   22.1330  -32.3950 C   0  0  0  0  0  0  0  0  0  0  0  0
   -5.3160   22.6550  -31.8610 C   0  0  0  0  0  0  0  0  0  0  0  0
   -5.3150   23.8800  -31.1080 N   0  0  0  0  0  0  0  0  0  0  0  0
   -4.1730   24.4980  -30.4990 C   0  0  0  0  0  0  0  0  0  0  0  0
   -3.8780   25.6750  -30.8340 O   0  0  0  0  0  0  0  0  0  0  0  0
   -3.3840   23.8180  -29.4430 C   0  0  0  0  0  0  0  0  0  0  0  0
   -3.7850   22.5560  -28.9680 C   0  0  0  0  0  0  0  0  0  0  0  0
   -3.0530   21.9090  -27.9700 C   0  0  0  0  0  0  0  0  0  0  0  0
   -1.9180   22.5160  -27.4280 C   0  0  0  0  0  0  0  0  0  0  0  0
   -1.5140   23.7710  -27.8840 C   0  0  0  0  0  0  0  0  0  0  0  0
   -2.2390   24.4260  -28.8860 C   0  0  0  0  0  0  0  0  0  0  0  0
   -1.8040   25.6700  -29.3320 O   0  0  0  0  0  0  0  0  0  0  0  0
   -7.7929   22.5231  -30.4656 H   0  0  0  0  0  0  0  0  0  0  0  0
   -7.9656   23.5706  -31.9146 H   0  0  0  0  0  0  0  0  0  0  0  0
   -8.6636   21.9155  -31.9146 H   0  0  0  0  0  0  0  0  0  0  0  0
   -7.4843   20.2721  -33.0394 H   0  0  0  0  0  0  0  0  0  0  0  0
   -3.1994   20.5421  -33.5383 H   0  0  0  0  0  0  0  0  0  0  0  0
   -3.1727   22.6615  -32.2289 H   0  0  0  0  0  0  0  0  0  0  0  0
   -4.6818   22.0752  -29.3858 H   0  0  0  0  0  0  0  0  0  0  0  0
   -3.3710   20.9194  -27.6101 H   0  0  0  0  0  0  0  0  0  0  0  0
   -1.3429   22.0048  -26.6419 H   0  0  0  0  0  0  0  0  0  0  0  0
   -0.6211   24.2482  -27.4538 H   0  0  0  0  0  0  0  0  0  0  0  0
  1  2  1  0
  2  3  2  0
  3  4  1  0
  4  5  1  0
  4  6  2  0
  6  7  1  0
  7  8  2  0
  8  9  1  0
  9 10  1  0
 10 11  2  0
 10 12  1  0
 12 13  2  0
 13 14  1  0
 14 15  2  0
 15 16  1  0
 16 17  2  0
 17 18  1  0
  8  2  1  0
 17 12  1  0
  1 19  1  0
  1 20  1  0
  1 21  1  0
  3 22  1  0
  6 23  1  0
  7 24  1  0
 13 25  1  0
 14 26  1  0
 15 27  1  0
 16 28  1  0
M  CHG  3   5  -1   9  -1  18  -1
M  END
>  <UniqueID>  (25) 
23

>  <SMILES>  (25) 
Cc1cc([O-])ccc1[N-]C(=O)c1ccccc1[O-]

>  <Energy>  (25) 
36.90603832709701

>  <Genealogy>  (25) 
Cc1cc([O-])ccc1[N-]C(=O)c1ccccc1[O-] (protonated)
Cc1cc([O-])ccc1[N-]C(=O)c1ccccc1[O-] (3D coordinates assigned)
Cc1cc([O-])ccc1[N-]C(=O)c1ccccc1[O-] (optimized conformer: 36.90603832709701 kcal/mol)

>  <smiles>  (25) 
Cc1cc(O)ccc1NC(=O)c1ccccc1O

>  <score_type>  (25) 
oracle

>  <origin>  (25) 
adgpu

>  <m_score__min__energy>  (25) 
-10.630000000000001

>  <m_primary>  (25) 
energy

$$$$
25:0
     RDKit          3D

 46 48  0  0  0  0  0  0  0  0999 V2000
    0.9940   21.9590  -27.5390 C   0  0  0  0  0  0  0  0  0  0  0  0
    0.7590   23.4060  -27.4480 N   0  0  0  0  0  0  0  0  0  0  0  0
    1.9050   24.3180  -27.5490 C   0  0  0  0  0  0  0  0  0  0  0  0
   -0.5840   23.9240  -27.2660 C   0  0  0  0  0  0  0  0  0  0  0  0
   -0.9840   24.4720  -26.0320 C   0  0  0  0  0  0  0  0  0  0  0  0
   -2.2780   24.9650  -25.8570 C   0  0  0  0  0  0  0  0  0  0  0  0
   -3.1940   24.9290  -26.9070 C   0  0  0  0  0  0  0  0  0  0  0  0
   -2.8250   24.3990  -28.1540 C   0  0  0  0  0  0  0  0  0  0  0  0
   -3.7940   24.3510  -29.2770 C   0  0  0  0  0  0  0  0  0  0  0  0
   -3.4770   24.8450  -30.3930 O   0  0  0  0  0  0  0  0  0  0  0  0
   -5.1050   23.7890  -29.0930 N   0  0  0  0  0  0  0  0  0  0  0  0
   -5.9400   23.3420  -30.1750 C   0  0  0  0  0  0  0  0  0  0  0  0
   -7.2360   23.8550  -30.3590 C   0  0  0  0  0  0  0  0  0  0  0  0
   -8.0140   23.4340  -31.4400 C   0  0  0  0  0  0  0  0  0  0  0  0
   -7.5080   22.5030  -32.3490 C   0  0  0  0  0  0  0  0  0  0  0  0
   -6.2190   21.9770  -32.1810 C   0  0  0  0  0  0  0  0  0  0  0  0
   -5.7050   21.0460  -33.1490 N   0  0  0  0  0  0  0  0  0  0  0  0
   -6.0810   19.6600  -33.2220 C   0  0  0  0  0  0  0  0  0  0  0  0
   -5.5740   18.8610  -34.2590 C   0  0  0  0  0  0  0  0  0  0  0  0
   -5.9480   17.5180  -34.3640 C   0  0  0  0  0  0  0  0  0  0  0  0
   -6.8420   16.9660  -33.4450 C   0  0  0  0  0  0  0  0  0  0  0  0
   -7.3710   17.7580  -32.4230 C   0  0  0  0  0  0  0  0  0  0  0  0
   -7.0000   19.1020  -32.3140 C   0  0  0  0  0  0  0  0  0  0  0  0
   -5.4300   22.4230  -31.1060 C   0  0  0  0  0  0  0  0  0  0  0  0
   -1.5220   23.8930  -28.3210 C   0  0  0  0  0  0  0  0  0  0  0  0
    1.0630   21.5344  -26.5266 H   0  0  0  0  0  0  0  0  0  0  0  0
    0.1610   21.4855  -28.0793 H   0  0  0  0  0  0  0  0  0  0  0  0
    1.9340   21.7735  -28.0793 H   0  0  0  0  0  0  0  0  0  0  0  0
    2.2470   24.5902  -26.5396 H   0  0  0  0  0  0  0  0  0  0  0  0
    2.7226   23.8208  -28.0915 H   0  0  0  0  0  0  0  0  0  0  0  0
    1.6040   25.2263  -28.0915 H   0  0  0  0  0  0  0  0  0  0  0  0
   -0.2690   24.5120  -25.1970 H   0  0  0  0  0  0  0  0  0  0  0  0
   -2.5766   25.3843  -24.8849 H   0  0  0  0  0  0  0  0  0  0  0  0
   -4.2120   25.3181  -26.7580 H   0  0  0  0  0  0  0  0  0  0  0  0
   -5.5200   23.8150  -28.1350 H   0  0  0  0  0  0  0  0  0  0  0  0
   -7.6392   24.5914  -29.6483 H   0  0  0  0  0  0  0  0  0  0  0  0
   -9.0284   23.8372  -31.5755 H   0  0  0  0  0  0  0  0  0  0  0  0
   -8.1237   22.1804  -33.2015 H   0  0  0  0  0  0  0  0  0  0  0  0
   -5.0120   21.4010  -33.8470 H   0  0  0  0  0  0  0  0  0  0  0  0
   -4.8786   19.2941  -34.9931 H   0  0  0  0  0  0  0  0  0  0  0  0
   -5.5370   16.8952  -35.1722 H   0  0  0  0  0  0  0  0  0  0  0  0
   -7.1300   15.9074  -33.5255 H   0  0  0  0  0  0  0  0  0  0  0  0
   -8.0803   17.3239  -31.7030 H   0  0  0  0  0  0  0  0  0  0  0  0
   -7.4283   19.7255  -31.5153 H   0  0  0  0  0  0  0  0  0  0  0  0
   -4.4021   22.0479  -30.9932 H   0  0  0  0  0  0  0  0  0  0  0  0
   -1.2291   23.4656  -29.2913 H   0  0  0  0  0  0  0  0  0  0  0  0
  1  2  1  0
  2  3  1  0
  2  4  1  0
  4  5  2  0
  5  6  1  0
  6  7  2  0
  7  8  1  0
  8  9  1  0
  9 10  2  0
  9 11  1  0
 11 12  1  0
 12 13  2  0
 13 14  1  0
 14 15  2  0
 15 16  1  0
 16 17  1  0
 17 18  1  0
 18 19  2  0
 19 20  1  0
 20 21  2  0
 21 22  1  0
 22 23  2  0
 16 24  2  0
  8 25  2  0
 25  4  1  0
 24 12  1  0
 23 18  1  0
  1 26  1  0
  1 27  1  0
  1 28  1  0
  3 29  1  0
  3 30  1  0
  3 31  1  0
  5 32  1  0
  6 33  1  0
  7 34  1  0
 11 35  1  0
 13 36  1  0
 14 37  1  0
 15 38  1  0
 17 39  1  0
 19 40  1  0
 20 41  1  0
 21 42  1  0
 22 43  1  0
 23 44  1  0
 24 45  1  0
 25 46  1  0
M  END
>  <UniqueID>  (26) 
24

>  <SMILES>  (26) 
CN(C)c1cccc(C(=O)Nc2cccc(Nc3ccccc3)c2)c1

>  <Energy>  (26) 
60.761639303687495

>  <Genealogy>  (26) 
CN(C)c1cccc(C(=O)Nc2cccc(Nc3ccccc3)c2)c1 (3D coordinates assigned)
CN(C)c1cccc(C(=O)Nc2cccc(Nc3ccccc3)c2)c1 (optimized conformer: 60.761639303687495 kcal/mol)

>  <smiles>  (26) 
CN(C)c1cccc(C(=O)Nc2cccc(Nc3ccccc3)c2)c1

>  <score_type>  (26) 
oracle

>  <origin>  (26) 
adgpu

>  <m_score__min__energy>  (26) 
-8.8200000000000003

>  <m_primary>  (26) 
energy

$$$$
26:0
     RDKit          3D

 78 82  0  0  0  0  0  0  0  0999 V2000
   -0.4240   23.5650  -24.2070 C   0  0  0  0  0  0  0  0  0  0  0  0
   -0.7260   24.3700  -25.4470 C   0  0  0  0  0  0  0  0  0  0  0  0
   -0.5630   25.7660  -25.3720 C   0  0  0  0  0  0  0  0  0  0  0  0
   -0.8150   26.5770  -26.4760 C   0  0  0  0  0  0  0  0  0  0  0  0
   -1.2360   26.0120  -27.6740 C   0  0  0  0  0  0  0  0  0  0  0  0
   -1.4110   24.6300  -27.7780 C   0  0  0  0  0  0  0  0  0  0  0  0
   -1.8440   24.1140  -28.9470 N   0  0  0  0  0  0  0  0  0  0  0  0
   -2.0380   22.7860  -29.1270 C   0  0  0  0  0  0  0  0  0  0  0  0
   -2.5810   22.3720  -30.4380 C   0  0  0  0  0  0  0  0  0  0  0  0
   -3.9420   22.5520  -30.7160 C   0  0  0  0  0  0  0  0  0  0  0  0
   -4.4830   22.1340  -31.9450 C   0  0  0  0  0  0  0  0  0  0  0  0
   -5.8770   22.3110  -32.2630 N   0  0  0  0  0  0  0  0  0  0  0  0
   -6.9850   21.7050  -31.5200 C   0  0  0  0  0  0  0  0  0  0  0  0
   -8.0450   21.1460  -32.4980 C   0  0  0  0  0  0  0  0  0  0  0  0
   -7.7190   19.8190  -33.0790 N   0  0  0  0  0  0  0  0  0  0  0  0
   -6.4300   19.8030  -33.8260 C   0  0  0  0  0  0  0  0  0  0  0  0
   -5.4140   18.8240  -33.2130 C   0  0  0  0  0  0  0  0  0  0  0  0
   -5.9170   17.5000  -33.1440 O   0  0  0  0  0  0  0  0  0  0  0  0
   -7.2630   17.4170  -32.6820 C   0  0  0  0  0  0  0  0  0  0  0  0
   -7.8310   18.7210  -32.0920 C   0  0  0  0  0  0  0  0  0  0  0  0
   -3.6350   21.5420  -32.8950 C   0  0  0  0  0  0  0  0  0  0  0  0
   -2.2750   21.3320  -32.6160 C   0  0  0  0  0  0  0  0  0  0  0  0
   -1.4110   20.7340  -33.6010 N   0  0  0  0  0  0  0  0  0  0  0  0
   -1.4770   19.2920  -33.8570 C   0  0  0  0  0  0  0  0  0  0  0  0
   -0.1890   18.8040  -34.5460 C   0  0  0  0  0  0  0  0  0  0  0  0
    1.0090   19.5000  -34.0290 N   0  0  0  0  0  0  0  0  0  0  0  0
    1.2870   19.1450  -32.6260 C   0  0  0  0  0  0  0  0  0  0  0  0
    0.9630   20.9720  -34.2290 C   0  0  0  0  0  0  0  0  0  0  0  0
   -0.4600   21.5420  -34.3690 C   0  0  0  0  0  0  0  0  0  0  0  0
   -1.7580   21.7410  -31.3790 C   0  0  0  0  0  0  0  0  0  0  0  0
   -1.7560   21.8970  -28.1090 N   0  0  0  0  0  0  0  0  0  0  0  0
   -1.8350   20.4240  -28.3430 C   0  0  0  0  0  0  0  0  0  0  0  0
   -0.4450   19.7670  -28.3450 C   0  0  0  0  0  0  0  0  0  0  0  0
   -2.7890   19.7390  -27.3540 C   0  0  0  0  0  0  0  0  0  0  0  0
   -1.3590   22.3900  -26.8800 C   0  0  0  0  0  0  0  0  0  0  0  0
   -1.1700   21.5920  -25.9240 O   0  0  0  0  0  0  0  0  0  0  0  0
   -1.1620   23.7830  -26.6790 C   0  0  0  0  0  0  0  0  0  0  0  0
   -0.6500   24.1673  -23.3147 H   0  0  0  0  0  0  0  0  0  0  0  0
   -1.0419   22.6549  -24.2011 H   0  0  0  0  0  0  0  0  0  0  0  0
    0.6400   23.2859  -24.2011 H   0  0  0  0  0  0  0  0  0  0  0  0
   -0.2318   26.2231  -24.4279 H   0  0  0  0  0  0  0  0  0  0  0  0
   -0.6806   27.6661  -26.3996 H   0  0  0  0  0  0  0  0  0  0  0  0
   -1.4322   26.6559  -28.5440 H   0  0  0  0  0  0  0  0  0  0  0  0
   -4.5936   23.0246  -29.9662 H   0  0  0  0  0  0  0  0  0  0  0  0
   -6.1250   22.8870  -33.1000 H   0  0  0  0  0  0  0  0  0  0  0  0
   -6.5985   20.8853  -30.8965 H   0  0  0  0  0  0  0  0  0  0  0  0
   -7.4527   22.4725  -30.8858 H   0  0  0  0  0  0  0  0  0  0  0  0
   -8.9978   21.0571  -31.9555 H   0  0  0  0  0  0  0  0  0  0  0  0
   -8.0894   21.8505  -33.3416 H   0  0  0  0  0  0  0  0  0  0  0  0
   -8.4710   19.6390  -33.7880 H   0  0  0  0  0  0  0  0  0  0  0  0
   -6.6272   19.5036  -34.8659 H   0  0  0  0  0  0  0  0  0  0  0  0
   -5.9980   20.8133  -33.7748 H   0  0  0  0  0  0  0  0  0  0  0  0
   -4.5042   18.8251  -33.8313 H   0  0  0  0  0  0  0  0  0  0  0  0
   -5.2022   19.1576  -32.1864 H   0  0  0  0  0  0  0  0  0  0  0  0
   -7.8974   17.1220  -33.5308 H   0  0  0  0  0  0  0  0  0  0  0  0
   -7.2615   16.6840  -31.8618 H   0  0  0  0  0  0  0  0  0  0  0  0
   -8.8895   18.5719  -31.8327 H   0  0  0  0  0  0  0  0  0  0  0  0
   -7.2582   18.9874  -31.1915 H   0  0  0  0  0  0  0  0  0  0  0  0
   -4.0417   21.2387  -33.8710 H   0  0  0  0  0  0  0  0  0  0  0  0
   -1.5995   18.7605  -32.9017 H   0  0  0  0  0  0  0  0  0  0  0  0
   -2.3320   19.0881  -34.5184 H   0  0  0  0  0  0  0  0  0  0  0  0
   -0.0776   17.7242  -34.3684 H   0  0  0  0  0  0  0  0  0  0  0  0
   -0.2732   19.0218  -35.6209 H   0  0  0  0  0  0  0  0  0  0  0  0
    0.7474   19.8340  -31.9596 H   0  0  0  0  0  0  0  0  0  0  0  0
    0.9534   18.1142  -32.4356 H   0  0  0  0  0  0  0  0  0  0  0  0
    2.3677   19.2217  -32.4356 H   0  0  0  0  0  0  0  0  0  0  0  0
    1.4447   21.4534  -33.3652 H   0  0  0  0  0  0  0  0  0  0  0  0
    1.4832   21.1804  -35.1755 H   0  0  0  0  0  0  0  0  0  0  0  0
   -0.4753   22.5754  -33.9925 H   0  0  0  0  0  0  0  0  0  0  0  0
   -0.7498   21.5223  -35.4300 H   0  0  0  0  0  0  0  0  0  0  0  0
   -0.6976   21.5649  -31.1456 H   0  0  0  0  0  0  0  0  0  0  0  0
   -2.2573   20.2821  -29.3488 H   0  0  0  0  0  0  0  0  0  0  0  0
   -0.1123   19.6097  -27.3084 H   0  0  0  0  0  0  0  0  0  0  0  0
   -0.4979   18.7986  -28.8640 H   0  0  0  0  0  0  0  0  0  0  0  0
    0.2697   20.4226  -28.8640 H   0  0  0  0  0  0  0  0  0  0  0  0
   -2.4742   19.9650  -26.3245 H   0  0  0  0  0  0  0  0  0  0  0  0
   -3.8120   20.1102  -27.5145 H   0  0  0  0  0  0  0  0  0  0  0  0
   -2.7643   18.6510  -27.5145 H   0  0  0  0  0  0  0  0  0  0  0  0
  1  2  1  0
  2  3  2  0
  3  4  1  0
  4  5  2  0
  5  6  1  0
  6  7  1  0
  7  8  2  0
  8  9  1  0
  9 10  2  0
 10 11  1  0
 11 12  1  0
 12 13  1  0
 13 14  1  0
 14 15  1  0
 15 16  1  0
 16 17  1  0
 17 18  1  0
 18 19  1  0
 19 20  1  0
 11 21  2  0
 21 22  1  0
 22 23  1  0
 23 24  1  0
 24 25  1  0
 25 26  1  0
 26 27  1  0
 26 28  1  0
 28 29  1  0
 22 30  2  0
  8 31  1  0
 31 32  1  0
 32 33  1  0
 32 34  1  0
 31 35  1  0
 35 36  2  0
 35 37  1  0
 37  2  1  0
 37  6  2  0
 30  9  1  0
 20 15  1  0
 29 23  1  0
  1 38  1  0
  1 39  1  0
  1 40  1  0
  3 41  1  0
  4 42  1  0
  5 43  1  0
 10 44  1  0
 12 45  1  0
 13 46  1  0
 13 47  1  0
 14 48  1  0
 14 49  1  0
 15 50  1  0
 16 51  1  0
 16 52  1  0
 17 53  1  0
 17 54  1  0
 19 55  1  0
 19 56  1  0
 20 57  1  0
 20 58  1  0
 21 59  1  0
 24 60  1  0
 24 61  1  0
 25 62  1  0
 25 63  1  0
 27 64  1  0
 27 65  1  0
 27 66  1  0
 28 67  1  0
 28 68  1  0
 29 69  1  0
 29 70  1  0
 30 71  1  0
 32 72  1  0
 33 73  1  0
 33 74  1  0
 33 75  1  0
 34 76  1  0
 34 77  1  0
 34 78  1  0
M  CHG  1  15   1
M  END
>  <UniqueID>  (27) 
25

>  <SMILES>  (27) 
Cc1cccc2nc(-c3cc(NCC[NH+]4CCOCC4)cc(N4CCN(C)CC4)c3)n(C(C)C)c(=O)c12

>  <Energy>  (27) 
127.49617160033368

>  <Genealogy>  (27) 
Cc1cccc2nc(-c3cc(NCC[NH+]4CCOCC4)cc(N4CCN(C)CC4)c3)n(C(C)C)c(=O)c12 (protonated)
Cc1cccc2nc(-c3cc(NCC[NH+]4CCOCC4)cc(N4CCN(C)CC4)c3)n(C(C)C)c(=O)c12 (3D coordinates assigned)
Cc1cccc2nc(-c3cc(NCC[NH+]4CCOCC4)cc(N4CCN(C)CC4)c3)n(C(C)C)c(=O)c12 (nonaromatic ring conformer: 127.49617160033368 kcal/mol)

>  <smiles>  (27) 
Cc1cccc2nc(-c3cc(NCCN4CCOCC4)cc(N4CCN(C)CC4)c3)n(C(C)C)c(=O)c12

>  <score_type>  (27) 
oracle

>  <origin>  (27) 
adgpu

>  <m_score__min__energy>  (27) 
-9.0500000000000007

>  <m_primary>  (27) 
energy

$$$$
27:0
     RDKit          3D

 55 59  0  0  0  0  0  0  0  0999 V2000
   -8.5860   20.0700  -32.7240 C   0  0  0  0  0  0  0  0  0  0  0  0
   -7.2130   20.2040  -32.5050 C   0  0  0  0  0  0  0  0  0  0  0  0
   -6.7400   21.1030  -31.5440 C   0  0  0  0  0  0  0  0  0  0  0  0
   -7.6430   21.8820  -30.7990 C   0  0  0  0  0  0  0  0  0  0  0  0
   -7.1360   22.8220  -29.7370 C   0  0  0  0  0  0  0  0  0  0  0  0
   -6.1550   23.7600  -30.2940 N   0  0  0  0  0  0  0  0  0  0  0  0
   -6.4530   24.9860  -30.6920 N   0  0  0  0  0  0  0  0  0  0  0  0
   -5.3400   25.6140  -31.0340 N   0  0  0  0  0  0  0  0  0  0  0  0
   -4.2970   24.8180  -30.8480 N   0  0  0  0  0  0  0  0  0  0  0  0
   -4.8050   23.6640  -30.3700 C   0  0  0  0  0  0  0  0  0  0  0  0
   -3.9270   22.4690  -30.0250 C   0  0  1  0  0  0  0  0  0  0  0  0
   -3.2540   21.8610  -31.2350 C   0  0  0  0  0  0  0  0  0  0  0  0
   -3.7670   21.8620  -32.5180 C   0  0  0  0  0  0  0  0  0  0  0  0
   -2.8480   21.1880  -33.2920 C   0  0  0  0  0  0  0  0  0  0  0  0
   -1.8350   20.8080  -32.4350 C   0  0  0  0  0  0  0  0  0  0  0  0
   -2.1070   21.2180  -31.2180 O   0  0  0  0  0  0  0  0  0  0  0  0
   -2.9860   22.7370  -28.8920 N   0  0  0  0  0  0  0  0  0  0  0  0
   -1.9000   23.6910  -29.2460 C   0  0  0  0  0  0  0  0  0  0  0  0
   -1.1050   24.1250  -28.0110 C   0  0  0  0  0  0  0  0  0  0  0  0
   -1.9960   24.7510  -27.0270 N   0  0  0  0  0  0  0  0  0  0  0  0
   -1.4610   25.6460  -26.0270 C   0  0  0  0  0  0  0  0  0  0  0  0
   -1.2450   27.0070  -26.3210 C   0  0  0  0  0  0  0  0  0  0  0  0
   -0.7220   27.8670  -25.3510 C   0  0  0  0  0  0  0  0  0  0  0  0
   -0.4070   27.3830  -24.0800 C   0  0  0  0  0  0  0  0  0  0  0  0
   -0.6120   26.0350  -23.7760 C   0  0  0  0  0  0  0  0  0  0  0  0
   -1.1340   25.1700  -24.7430 C   0  0  0  0  0  0  0  0  0  0  0  0
   -3.4430   24.5330  -27.1470 C   0  0  0  0  0  0  0  0  0  0  0  0
   -3.7200   23.1040  -27.6380 C   0  0  0  0  0  0  0  0  0  0  0  0
   -9.0220   21.7330  -31.0160 C   0  0  0  0  0  0  0  0  0  0  0  0
   -9.4910   20.8320  -31.9780 C   0  0  0  0  0  0  0  0  0  0  0  0
   -8.9555   19.3651  -33.4833 H   0  0  0  0  0  0  0  0  0  0  0  0
   -6.5025   19.6012  -33.0896 H   0  0  0  0  0  0  0  0  0  0  0  0
   -5.6582   21.2011  -31.3703 H   0  0  0  0  0  0  0  0  0  0  0  0
   -7.9830   23.3895  -29.3240 H   0  0  0  0  0  0  0  0  0  0  0  0
   -6.6487   22.2309  -28.9476 H   0  0  0  0  0  0  0  0  0  0  0  0
   -4.6127   21.6937  -29.6525 H   0  0  0  0  0  0  0  0  0  0  0  0
   -4.7146   22.3092  -32.8527 H   0  0  0  0  0  0  0  0  0  0  0  0
   -2.9091   20.9925  -34.3728 H   0  0  0  0  0  0  0  0  0  0  0  0
   -0.9356   20.2464  -32.7276 H   0  0  0  0  0  0  0  0  0  0  0  0
   -2.5110   21.8260  -28.6830 H   0  0  0  0  0  0  0  0  0  0  0  0
   -1.2164   23.2053  -29.9579 H   0  0  0  0  0  0  0  0  0  0  0  0
   -2.3600   24.5858  -29.6906 H   0  0  0  0  0  0  0  0  0  0  0  0
   -0.6268   23.2436  -27.5588 H   0  0  0  0  0  0  0  0  0  0  0  0
   -0.3394   24.8537  -28.3157 H   0  0  0  0  0  0  0  0  0  0  0  0
   -1.4896   27.3954  -27.3207 H   0  0  0  0  0  0  0  0  0  0  0  0
   -0.5582   28.9282  -25.5899 H   0  0  0  0  0  0  0  0  0  0  0  0
    0.0024   28.0628  -23.3182 H   0  0  0  0  0  0  0  0  0  0  0  0
   -0.3626   25.6535  -22.7749 H   0  0  0  0  0  0  0  0  0  0  0  0
   -1.2904   24.1090  -24.4984 H   0  0  0  0  0  0  0  0  0  0  0  0
   -3.9161   24.6788  -26.1647 H   0  0  0  0  0  0  0  0  0  0  0  0
   -3.8575   25.2502  -27.8708 H   0  0  0  0  0  0  0  0  0  0  0  0
   -3.4224   22.4021  -26.8451 H   0  0  0  0  0  0  0  0  0  0  0  0
   -4.7938   23.0501  -27.8706 H   0  0  0  0  0  0  0  0  0  0  0  0
   -9.7365   22.3270  -30.4273 H   0  0  0  0  0  0  0  0  0  0  0  0
  -10.5723   20.7228  -32.1478 H   0  0  0  0  0  0  0  0  0  0  0  0
  1  2  2  0
  2  3  1  0
  3  4  2  0
  4  5  1  0
  5  6  1  0
  6  7  1  0
  7  8  2  0
  8  9  1  0
  9 10  2  0
 10 11  1  0
 11 12  1  0
 12 13  2  0
 13 14  1  0
 14 15  2  0
 15 16  1  0
 11 17  1  0
 17 18  1  0
 18 19  1  0
 19 20  1  0
 20 21  1  0
 21 22  2  0
 22 23  1  0
 23 24  2  0
 24 25  1  0
 25 26  2  0
 20 27  1  0
 27 28  1  0
  4 29  1  0
 29 30  2  0
 30  1  1  0
 10  6  1  0
 16 12  1  0
 28 17  1  0
 26 21  1  0
  1 31  1  0
  2 32  1  0
  3 33  1  0
  5 34  1  0
  5 35  1  0
 11 36  1  1
 13 37  1  0
 14 38  1  0
 15 39  1  0
 17 40  1  0
 18 41  1  0
 18 42  1  0
 19 43  1  0
 19 44  1  0
 22 45  1  0
 23 46  1  0
 24 47  1  0
 25 48  1  0
 26 49  1  0
 27 50  1  0
 27 51  1  0
 28 52  1  0
 28 53  1  0
 29 54  1  0
 30 55  1  0
M  CHG  1  17   1
M  END
>  <UniqueID>  (28) 
26

>  <SMILES>  (28) 
c1ccc(Cn2nnnc2[C@@H](c2ccco2)[NH+]2CCN(c3ccccc3)CC2)cc1

>  <Energy>  (28) 
142.99439325805943

>  <Genealogy>  (28) 
c1ccc(Cn2nnnc2C(c2ccco2)[NH+]2CCN(c3ccccc3)CC2)cc1 (protonated)
c1ccc(Cn2nnnc2[C@@H](c2ccco2)[NH+]2CCN(c3ccccc3)CC2)cc1 (chirality)
c1ccc(Cn2nnnc2[C@@H](c2ccco2)[NH+]2CCN(c3ccccc3)CC2)cc1 (3D coordinates assigned)
c1ccc(Cn2nnnc2[C@@H](c2ccco2)[NH+]2CCN(c3ccccc3)CC2)cc1 (nonaromatic ring conformer: 142.99439325805943 kcal/mol)

>  <smiles>  (28) 
c1ccc(Cn2nnnc2C(c2ccco2)N2CCN(c3ccccc3)CC2)cc1

>  <score_type>  (28) 
oracle

>  <origin>  (28) 
adgpu

>  <m_score__min__energy>  (28) 
-9.1099999999999994

>  <m_primary>  (28) 
energy

$$$$
28:0
     RDKit          3D

 45 48  0  0  0  0  0  0  0  0999 V2000
    0.3309   28.6063  -24.7940 H   0  0  0  0  0  0  0  0  0  0  0  0
   -0.1540   27.9560  -25.5370 C   0  0  0  0  0  0  0  0  0  0  0  0
   -1.0610   27.0290  -25.1370 N   0  0  0  0  0  0  0  0  0  0  0  0
   -1.6790   26.2220  -26.0380 C   0  0  0  0  0  0  0  0  0  0  0  0
   -2.3980   25.4640  -25.6937 H   0  0  0  0  0  0  0  0  0  0  0  0
   -1.4030   26.3530  -27.4010 C   0  0  0  0  0  0  0  0  0  0  0  0
   -2.0310   25.4610  -28.3370 N   0  0  0  0  0  0  0  0  0  0  0  0
   -2.1660   24.1710  -28.2180 C   0  0  0  0  0  0  0  0  0  0  0  0
   -1.6020   23.5070  -27.1710 N   0  0  0  0  0  0  0  0  0  0  0  0
   -1.7070   22.1630  -27.0300 C   0  0  0  0  0  0  0  0  0  0  0  0
   -1.2373   21.6570  -26.1736 H   0  0  0  0  0  0  0  0  0  0  0  0
   -2.4180   21.4240  -27.9830 C   0  0  0  0  0  0  0  0  0  0  0  0
   -2.5200   19.9240  -27.9000 C   0  0  2  0  0  0  0  0  0  0  0  0
   -2.8099   19.5629  -28.8978 H   0  0  0  0  0  0  0  0  0  0  0  0
   -3.4990   19.5430  -26.9570 O   0  0  0  0  0  0  0  0  0  0  0  0
   -2.9210   18.5780  -26.1060 C   0  0  0  0  0  0  0  0  0  0  0  0
   -3.6013   17.7192  -26.0078 H   0  0  0  0  0  0  0  0  0  0  0  0
   -2.7460   19.0179  -25.1131 H   0  0  0  0  0  0  0  0  0  0  0  0
   -1.6050   18.1170  -26.6980 C   0  0  0  0  0  0  0  0  0  0  0  0
   -1.7427   17.2220  -27.3224 H   0  0  0  0  0  0  0  0  0  0  0  0
   -0.8618   17.8298  -25.9396 H   0  0  0  0  0  0  0  0  0  0  0  0
   -1.1870   19.2920  -27.5240 C   0  0  0  0  0  0  0  0  0  0  0  0
   -0.6329   18.9716  -28.4186 H   0  0  0  0  0  0  0  0  0  0  0  0
   -0.5100   19.9796  -26.9959 H   0  0  0  0  0  0  0  0  0  0  0  0
   -2.9640   22.0770  -29.0420 N   0  0  0  0  0  0  0  0  0  0  0  0
   -2.8630   23.4260  -29.1990 C   0  0  0  0  0  0  0  0  0  0  0  0
   -3.4920   24.0370  -30.3920 C   0  0  0  0  0  0  0  0  0  0  0  0
   -3.6050   25.2900  -30.4990 O   0  0  0  0  0  0  0  0  0  0  0  0
   -3.9730   23.1900  -31.4410 N   0  0  0  0  0  0  0  0  0  0  0  0
   -5.3580   22.8790  -31.6040 C   0  0  0  0  0  0  0  0  0  0  0  0
   -6.3220   23.7590  -31.0970 C   0  0  0  0  0  0  0  0  0  0  0  0
   -6.0068   24.6825  -30.5893 H   0  0  0  0  0  0  0  0  0  0  0  0
   -7.6440   23.4780  -31.2290 N   0  0  0  0  0  0  0  0  0  0  0  0
   -8.0730   22.3490  -31.8480 C   0  0  0  0  0  0  0  0  0  0  0  0
   -9.1509   22.1482  -31.9367 H   0  0  0  0  0  0  0  0  0  0  0  0
   -7.1500   21.4410  -32.3730 C   0  0  0  0  0  0  0  0  0  0  0  0
   -7.5001   20.5208  -32.8635 H   0  0  0  0  0  0  0  0  0  0  0  0
   -5.7710   21.7060  -32.2730 C   0  0  0  0  0  0  0  0  0  0  0  0
   -4.7570   20.7220  -32.8130 C   0  0  0  0  0  0  0  0  0  0  0  0
   -5.3470   19.7970  -33.6570 F   0  0  0  0  0  0  0  0  0  0  0  0
   -4.1690   20.0450  -31.7580 F   0  0  0  0  0  0  0  0  0  0  0  0
   -3.7760   21.3910  -33.5250 F   0  0  0  0  0  0  0  0  0  0  0  0
   -0.4430   27.3010  -27.7890 C   0  0  0  0  0  0  0  0  0  0  0  0
   -0.1762   27.4110  -28.8505 H   0  0  0  0  0  0  0  0  0  0  0  0
    0.1560   28.0820  -26.8540 N   0  0  0  0  0  0  0  0  0  0  0  0
  1  2  1  0
  2  3  2  0
  3  4  1  0
  4  5  1  0
  4  6  2  0
  6  7  1  0
  7  8  2  0
  8  9  1  0
  9 10  1  0
 10 11  1  0
 10 12  2  0
 12 13  1  0
 13 14  1  6
 13 15  1  0
 15 16  1  0
 16 17  1  0
 16 18  1  0
 16 19  1  0
 19 20  1  0
 19 21  1  0
 19 22  1  0
 22 23  1  0
 22 24  1  0
 12 25  1  0
 25 26  2  0
 26 27  1  0
 27 28  2  0
 27 29  1  0
 29 30  1  0
 30 31  2  0
 31 32  1  0
 31 33  1  0
 33 34  2  0
 34 35  1  0
 34 36  1  0
 36 37  1  0
 36 38  2  0
 38 39  1  0
 39 40  1  0
 39 41  1  0
 39 42  1  0
  6 43  1  0
 43 44  1  0
 43 45  2  0
 45  2  1  0
 26  8  1  0
 38 30  1  0
 22 13  1  0
M  CHG  2   9  -1  29  -1
M  END
>  <UniqueID>  (29) 
27

>  <SMILES>  (29) 
O=C([N-]c1cnccc1C(F)(F)F)c1nc([C@H]2CCCO2)c[n-]/c1=N\c1cncnc1

>  <Energy>  (29) 
69.83738402332071

>  <Genealogy>  (29) 
O=C([N-]c1cnccc1C(F)(F)F)c1nc(C2CCCO2)c[n-]c1=Nc1cncnc1 (protonated)
O=C([N-]c1cnccc1C(F)(F)F)c1nc([C@H]2CCCO2)c[n-]c1=Nc1cncnc1 (chirality)
O=C([N-]c1cnccc1C(F)(F)F)c1nc([C@H]2CCCO2)c[n-]/c1=N\c1cncnc1 (cis-trans isomerization)
O=C([N-]c1cnccc1C(F)(F)F)c1nc([C@H]2CCCO2)c[n-]/c1=N\c1cncnc1 (3D coordinates assigned)
O=C([N-]c1cnccc1C(F)(F)F)c1nc([C@H]2CCCO2)c[n-]/c1=N\c1cncnc1 (nonaromatic ring conformer: 69.83738402332071 kcal/mol)

>  <smiles>  (29) 
O=C(Nc1cnccc1C(F)(F)F)c1nc(C2CCCO2)c[nH]c1=Nc1cncnc1

>  <score_type>  (29) 
oracle

>  <origin>  (29) 
adgpu

>  <m_score__min__energy>  (29) 
-9.1899999999999995

>  <m_primary>  (29) 
energy

$$$$
29:0
     RDKit          3D

 58 61  0  0  0  0  0  0  0  0999 V2000
   -2.6830   25.0430  -26.6710 C   0  0  0  0  0  0  0  0  0  0  0  0
   -1.5990   25.5740  -27.6000 C   0  0  0  0  0  0  0  0  0  0  0  0
   -1.9830   25.4220  -28.9670 O   0  0  0  0  0  0  0  0  0  0  0  0
   -2.3360   24.2110  -29.5880 C   0  0  0  0  0  0  0  0  0  0  0  0
   -1.6500   23.0080  -29.3410 C   0  0  0  0  0  0  0  0  0  0  0  0
   -2.0440   21.8260  -29.9720 C   0  0  0  0  0  0  0  0  0  0  0  0
   -3.1280   21.8190  -30.8590 C   0  0  0  0  0  0  0  0  0  0  0  0
   -3.5130   20.5570  -31.5360 C   0  0  0  0  0  0  0  0  0  0  0  0
   -4.6440   19.8860  -31.2440 N   0  0  0  0  0  0  0  0  0  0  0  0
   -4.6670   18.8010  -32.0040 N   0  0  0  0  0  0  0  0  0  0  0  0
   -3.5520   18.8240  -32.7560 C   0  0  0  0  0  0  0  0  0  0  0  0
   -3.2160   17.7610  -33.7620 C   0  0  0  0  0  0  0  0  0  0  0  0
   -4.4530   17.3910  -34.5980 C   0  0  0  0  0  0  0  0  0  0  0  0
   -5.4490   16.6270  -33.7800 C   0  0  0  0  0  0  0  0  0  0  0  0
   -5.0980   15.5770  -33.1770 O   0  0  0  0  0  0  0  0  0  0  0  0
   -6.8110   17.0630  -33.7430 N   0  0  0  0  0  0  0  0  0  0  0  0
   -7.2750   18.2700  -33.1290 C   0  0  0  0  0  0  0  0  0  0  0  0
   -8.2150   18.1880  -32.0920 C   0  0  0  0  0  0  0  0  0  0  0  0
   -8.7130   19.3530  -31.4990 C   0  0  0  0  0  0  0  0  0  0  0  0
   -8.2970   20.6100  -31.9610 C   0  0  0  0  0  0  0  0  0  0  0  0
   -8.9370   22.0710  -31.2310 Cl  0  0  0  0  0  0  0  0  0  0  0  0
   -7.3790   20.6980  -33.0120 C   0  0  0  0  0  0  0  0  0  0  0  0
   -6.8680   19.5330  -33.5950 C   0  0  0  0  0  0  0  0  0  0  0  0
   -2.7940   19.9090  -32.4830 N   0  0  0  0  0  0  0  0  0  0  0  0
   -1.6190   20.3550  -33.1840 C   0  0  0  0  0  0  0  0  0  0  0  0
   -0.4710   20.7310  -32.4680 C   0  0  0  0  0  0  0  0  0  0  0  0
    0.6710   21.1690  -33.1480 C   0  0  0  0  0  0  0  0  0  0  0  0
    0.6710   21.2370  -34.5450 C   0  0  0  0  0  0  0  0  0  0  0  0
    1.8060   21.6770  -35.2190 O   0  0  0  0  0  0  0  0  0  0  0  0
   -0.4690   20.8630  -35.2640 C   0  0  0  0  0  0  0  0  0  0  0  0
   -1.6120   20.4230  -34.5860 C   0  0  0  0  0  0  0  0  0  0  0  0
   -3.7990   23.0230  -31.1260 C   0  0  0  0  0  0  0  0  0  0  0  0
   -3.4200   24.2160  -30.4790 C   0  0  0  0  0  0  0  0  0  0  0  0
   -4.0930   25.4270  -30.7050 O   0  0  0  0  0  0  0  0  0  0  0  0
   -5.4820   25.6390  -30.4610 C   0  0  0  0  0  0  0  0  0  0  0  0
   -2.3759   25.1934  -25.6255 H   0  0  0  0  0  0  0  0  0  0  0  0
   -3.6231   25.5826  -26.8583 H   0  0  0  0  0  0  0  0  0  0  0  0
   -2.8329   23.9695  -26.8583 H   0  0  0  0  0  0  0  0  0  0  0  0
   -1.4336   26.6407  -27.3884 H   0  0  0  0  0  0  0  0  0  0  0  0
   -0.6756   25.0016  -27.4276 H   0  0  0  0  0  0  0  0  0  0  0  0
   -0.7974   22.9982  -28.6461 H   0  0  0  0  0  0  0  0  0  0  0  0
   -1.4983   20.8924  -29.7706 H   0  0  0  0  0  0  0  0  0  0  0  0
   -2.4267   18.1341  -34.4312 H   0  0  0  0  0  0  0  0  0  0  0  0
   -2.8709   16.8644  -33.2263 H   0  0  0  0  0  0  0  0  0  0  0  0
   -4.9246   18.3129  -34.9689 H   0  0  0  0  0  0  0  0  0  0  0  0
   -4.1304   16.7568  -35.4369 H   0  0  0  0  0  0  0  0  0  0  0  0
   -8.5621   17.2041  -31.7435 H   0  0  0  0  0  0  0  0  0  0  0  0
   -9.4318   19.2830  -30.6693 H   0  0  0  0  0  0  0  0  0  0  0  0
   -7.0583   21.6835  -33.3807 H   0  0  0  0  0  0  0  0  0  0  0  0
   -6.1452   19.6054  -34.4210 H   0  0  0  0  0  0  0  0  0  0  0  0
   -0.4694   20.6811  -31.3691 H   0  0  0  0  0  0  0  0  0  0  0  0
    1.5691   21.4600  -32.5835 H   0  0  0  0  0  0  0  0  0  0  0  0
   -0.4674   20.9146  -36.3628 H   0  0  0  0  0  0  0  0  0  0  0  0
   -2.5074   20.1297  -35.1537 H   0  0  0  0  0  0  0  0  0  0  0  0
   -4.6291   23.0351  -31.8477 H   0  0  0  0  0  0  0  0  0  0  0  0
   -5.6637   25.6667  -29.3765 H   0  0  0  0  0  0  0  0  0  0  0  0
   -5.7913   26.5948  -30.9092 H   0  0  0  0  0  0  0  0  0  0  0  0
   -6.0623   24.8190  -30.9092 H   0  0  0  0  0  0  0  0  0  0  0  0
  1  2  1  0
  2  3  1  0
  3  4  1  0
  4  5  2  0
  5  6  1  0
  6  7  2  0
  7  8  1  0
  8  9  2  0
  9 10  1  0
 10 11  2  0
 11 12  1  0
 12 13  1  0
 13 14  1  0
 14 15  2  0
 14 16  1  0
 16 17  1  0
 17 18  2  0
 18 19  1  0
 19 20  2  0
 20 21  1  0
 20 22  1  0
 22 23  2  0
 11 24  1  0
 24 25  1  0
 25 26  2  0
 26 27  1  0
 27 28  2  0
 28 29  1  0
 28 30  1  0
 30 31  2  0
  7 32  1  0
 32 33  2  0
 33 34  1  0
 34 35  1  0
 33  4  1  0
 24  8  1  0
 31 25  1  0
 23 17  1  0
  1 36  1  0
  1 37  1  0
  1 38  1  0
  2 39  1  0
  2 40  1  0
  5 41  1  0
  6 42  1  0
 12 43  1  0
 12 44  1  0
 13 45  1  0
 13 46  1  0
 18 47  1  0
 19 48  1  0
 22 49  1  0
 23 50  1  0
 26 51  1  0
 27 52  1  0
 30 53  1  0
 31 54  1  0
 32 55  1  0
 35 56  1  0
 35 57  1  0
 35 58  1  0
M  CHG  2  16  -1  29  -1
M  END
>  <UniqueID>  (30) 
28

>  <SMILES>  (30) 
CCOc1ccc(-c2nnc(CCC(=O)[N-]c3ccc(Cl)cc3)n2-c2ccc([O-])cc2)cc1OC

>  <Energy>  (30) 
103.91165143063205

>  <Genealogy>  (30) 
CCOc1ccc(-c2nnc(CCC(=O)[N-]c3ccc(Cl)cc3)n2-c2ccc([O-])cc2)cc1OC (protonated)
CCOc1ccc(-c2nnc(CCC(=O)[N-]c3ccc(Cl)cc3)n2-c2ccc([O-])cc2)cc1OC (3D coordinates assigned)
CCOc1ccc(-c2nnc(CCC(=O)[N-]c3ccc(Cl)cc3)n2-c2ccc([O-])cc2)cc1OC (optimized conformer: 103.91165143063205 kcal/mol)

>  <smiles>  (30) 
CCOc1ccc(-c2nnc(CCC(=O)Nc3ccc(Cl)cc3)n2-c2ccc(O)cc2)cc1OC

>  <score_type>  (30) 
oracle

>  <origin>  (30) 
adgpu

>  <m_score__min__energy>  (30) 
-11.630000000000001

>  <m_primary>  (30) 
energy

$$$$
30:0
     RDKit          3D

 48 51  0  0  1  0  0  0  0  0999 V2000
   -4.6120   24.7360  -27.4670 N   0  0  0  0  0  0  0  0  0  0  0  0
   -4.3690   24.0270  -29.0300 S   0  0  0  0  0  0  0  0  0  0  0  0
   -5.6650   23.4480  -29.5310 O   0  0  0  0  0  0  0  0  0  0  0  0
   -4.0010   25.1480  -29.9770 O   0  0  0  0  0  0  0  0  0  0  0  0
   -3.0950   22.8410  -29.0350 C   0  0  0  0  0  0  0  0  0  0  0  0
   -2.9190   21.9140  -28.0170 C   0  0  0  0  0  0  0  0  0  0  0  0
   -1.8930   20.9920  -28.0670 C   0  0  0  0  0  0  0  0  0  0  0  0
   -0.9940   20.9380  -29.1150 C   0  0  0  0  0  0  0  0  0  0  0  0
   -1.1650   21.8570  -30.1290 C   0  0  0  0  0  0  0  0  0  0  0  0
   -0.3220   21.9250  -31.2720 N   0  0  0  0  0  0  0  0  0  0  0  0
   -0.7640   21.3140  -32.3370 C   0  0  0  0  0  0  0  0  0  0  0  0
   -1.9610   20.6650  -32.3090 N   0  0  0  0  0  0  0  0  0  0  0  0
   -2.4460   20.0220  -33.3910 C   0  0  0  0  0  0  0  0  0  0  0  0
   -1.7240   20.0130  -34.5670 C   0  0  0  0  0  0  0  0  0  0  0  0
   -0.5210   20.6670  -34.5870 C   0  0  0  0  0  0  0  0  0  0  0  0
    0.1840   20.6820  -35.6620 N   0  0  0  0  0  0  0  0  0  0  0  0
    1.4600   21.3440  -35.7790 C   0  0  0  0  0  0  0  0  0  0  0  0
    1.3440   22.7750  -36.1680 C   0  0  0  0  0  0  0  0  0  0  0  0
    0.2900   23.6540  -35.9120 C   0  0  0  0  0  0  0  0  0  0  0  0
    0.6450   24.8680  -36.4720 C   0  0  0  0  0  0  0  0  0  0  0  0
   -0.1350   26.0990  -36.4640 C   0  0  0  0  0  0  0  0  0  0  0  0
   -0.8820   26.4230  -37.5770 C   0  0  0  0  0  0  0  0  0  0  0  0
   -1.6380   27.5810  -37.6160 C   0  0  0  0  0  0  0  0  0  0  0  0
   -1.6170   28.4010  -36.4980 C   0  0  0  0  0  0  0  0  0  0  0  0
   -0.8610   28.0590  -35.3900 C   0  0  0  0  0  0  0  0  0  0  0  0
   -0.1020   26.9040  -35.3410 C   0  0  0  0  0  0  0  0  0  0  0  0
    1.8570   24.6780  -37.0230 N   0  0  0  0  0  0  0  0  0  0  0  0
    2.2480   23.4540  -36.8380 O   0  0  0  0  0  0  0  0  0  0  0  0
   -0.0650   21.2970  -33.4920 N   0  0  0  0  0  0  0  0  0  0  0  0
   -2.2010   22.7880  -30.0820 C   0  0  0  0  0  0  0  0  0  0  0  0
   -5.6340   24.9210  -27.3770 H   0  0  0  0  0  0  0  0  0  0  0  0
   -4.1140   25.6640  -27.4840 H   0  0  0  0  0  0  0  0  0  0  0  0
   -3.6067   21.9141  -27.1585 H   0  0  0  0  0  0  0  0  0  0  0  0
   -1.7870   20.2730  -27.2413 H   0  0  0  0  0  0  0  0  0  0  0  0
   -0.1809   20.1975  -29.1393 H   0  0  0  0  0  0  0  0  0  0  0  0
   -2.5480   20.6420  -31.4430 H   0  0  0  0  0  0  0  0  0  0  0  0
   -3.4157   19.5055  -33.3361 H   0  0  0  0  0  0  0  0  0  0  0  0
   -2.1032   19.4963  -35.4610 H   0  0  0  0  0  0  0  0  0  0  0  0
    1.9742   21.2861  -34.8083 H   0  0  0  0  0  0  0  0  0  0  0  0
    2.0216   20.8332  -36.5751 H   0  0  0  0  0  0  0  0  0  0  0  0
   -0.6403   23.4259  -35.3711 H   0  0  0  0  0  0  0  0  0  0  0  0
   -0.8767   25.7503  -38.4473 H   0  0  0  0  0  0  0  0  0  0  0  0
   -2.2346   27.8420  -38.5025 H   0  0  0  0  0  0  0  0  0  0  0  0
   -2.2055   29.3303  -36.4915 H   0  0  0  0  0  0  0  0  0  0  0  0
   -0.8641   28.7294  -34.5179 H   0  0  0  0  0  0  0  0  0  0  0  0
    0.4957   26.6402  -34.4560 H   0  0  0  0  0  0  0  0  0  0  0  0
    0.8510   21.7950  -33.5080 H   0  0  0  0  0  0  0  0  0  0  0  0
   -2.3086   23.5051  -30.9092 H   0  0  0  0  0  0  0  0  0  0  0  0
  1  2  1  0
  2  3  2  0
  2  4  2  0
  2  5  1  0
  5  6  2  0
  6  7  1  0
  7  8  2  0
  8  9  1  0
  9 10  1  0
 10 11  2  0
 11 12  1  0
 12 13  1  0
 13 14  2  0
 14 15  1  0
 15 16  2  0
 16 17  1  0
 17 18  1  0
 18 19  2  0
 19 20  1  0
 20 21  1  0
 21 22  2  0
 22 23  1  0
 23 24  2  0
 24 25  1  0
 25 26  2  0
 20 27  2  0
 27 28  1  0
 15 29  1  0
  9 30  2  0
 30  5  1  0
 29 11  1  0
 28 18  1  0
 26 21  1  0
  1 31  1  0
  1 32  1  0
  6 33  1  0
  7 34  1  0
  8 35  1  0
 12 36  1  0
 13 37  1  0
 14 38  1  0
 17 39  1  0
 17 40  1  0
 19 41  1  0
 22 42  1  0
 23 43  1  0
 24 44  1  0
 25 45  1  0
 26 46  1  0
 29 47  1  0
 30 48  1  0
M  END
>  <smiles>  (31) 
NS(=O)(=O)c1cccc(N=c2[nH]ccc(=NCc3cc(-c4ccccc4)no3)[nH]2)c1

>  <score_type>  (31) 
oracle

>  <origin>  (31) 
adgpu

>  <m_score__min__energy>  (31) 
-11.4

>  <m_primary>  (31) 
energy

$$$$
31:0
     RDKit          3D

 40 42  0  0  0  0  0  0  0  0999 V2000
    0.8540   24.6220  -28.2160 N   0  0  0  0  0  0  0  0  0  0  0  0
   -0.8420   24.9370  -28.1140 S   0  0  0  0  0  0  0  0  0  0  0  0
   -1.2680   25.7020  -29.3360 O   0  0  0  0  0  0  0  0  0  0  0  0
   -1.1280   25.7670  -26.8940 O   0  0  0  0  0  0  0  0  0  0  0  0
   -1.7230   23.4100  -28.0030 C   0  0  0  0  0  0  0  0  0  0  0  0
   -1.0380   22.2350  -27.6510 C   0  0  0  0  0  0  0  0  0  0  0  0
   -1.7210   21.0200  -27.5610 C   0  0  0  0  0  0  0  0  0  0  0  0
   -3.0890   20.9670  -27.8270 C   0  0  0  0  0  0  0  0  0  0  0  0
   -3.7810   22.1270  -28.1820 C   0  0  0  0  0  0  0  0  0  0  0  0
   -3.1050   23.3600  -28.2720 C   0  0  0  0  0  0  0  0  0  0  0  0
   -3.7940   24.5650  -28.6410 N   0  0  0  0  0  0  0  0  0  0  0  0
   -4.7280   24.7890  -30.0830 S   0  0  0  0  0  0  0  0  0  0  0  0
   -6.0250   25.4600  -29.7340 O   0  0  0  0  0  0  0  0  0  0  0  0
   -3.9640   25.6700  -31.0340 O   0  0  0  0  0  0  0  0  0  0  0  0
   -5.0750   23.2260  -30.8140 C   0  0  0  0  0  0  0  0  0  0  0  0
   -6.3730   22.7050  -30.7530 C   0  0  0  0  0  0  0  0  0  0  0  0
   -6.6590   21.4590  -31.3190 C   0  0  0  0  0  0  0  0  0  0  0  0
   -5.6480   20.7130  -31.9520 C   0  0  0  0  0  0  0  0  0  0  0  0
   -5.9500   19.3880  -32.5500 C   0  0  0  0  0  0  0  0  0  0  0  0
   -5.7970   19.1760  -33.9340 C   0  0  0  0  0  0  0  0  0  0  0  0
   -6.0770   17.9270  -34.4940 C   0  0  0  0  0  0  0  0  0  0  0  0
   -6.5150   16.8760  -33.6820 C   0  0  0  0  0  0  0  0  0  0  0  0
   -6.8630   15.3080  -34.3870 Cl  0  0  0  0  0  0  0  0  0  0  0  0
   -6.6720   17.0750  -32.3080 C   0  0  0  0  0  0  0  0  0  0  0  0
   -6.3910   18.3220  -31.7430 C   0  0  0  0  0  0  0  0  0  0  0  0
   -4.3460   21.2440  -32.0080 C   0  0  0  0  0  0  0  0  0  0  0  0
   -4.0630   22.4910  -31.4470 C   0  0  0  0  0  0  0  0  0  0  0  0
    1.3430   25.4770  -27.8670 H   0  0  0  0  0  0  0  0  0  0  0  0
    0.0419   22.2721  -27.4452 H   0  0  0  0  0  0  0  0  0  0  0  0
   -1.1797   20.1045  -27.2802 H   0  0  0  0  0  0  0  0  0  0  0  0
   -3.6245   20.0087  -27.7570 H   0  0  0  0  0  0  0  0  0  0  0  0
   -4.8596   22.0778  -28.3925 H   0  0  0  0  0  0  0  0  0  0  0  0
   -7.1708   23.2781  -30.2579 H   0  0  0  0  0  0  0  0  0  0  0  0
   -7.6824   21.0588  -31.2690 H   0  0  0  0  0  0  0  0  0  0  0  0
   -5.4548   19.9993  -34.5783 H   0  0  0  0  0  0  0  0  0  0  0  0
   -5.9527   17.7700  -35.5756 H   0  0  0  0  0  0  0  0  0  0  0  0
   -7.0175   16.2485  -31.6696 H   0  0  0  0  0  0  0  0  0  0  0  0
   -6.5152   18.4716  -30.6603 H   0  0  0  0  0  0  0  0  0  0  0  0
   -3.5443   20.6718  -32.4979 H   0  0  0  0  0  0  0  0  0  0  0  0
   -3.0425   22.8979  -31.5020 H   0  0  0  0  0  0  0  0  0  0  0  0
  1  2  1  0
  2  3  2  0
  2  4  2  0
  2  5  1  0
  5  6  2  0
  6  7  1  0
  7  8  2  0
  8  9  1  0
  9 10  2  0
 10 11  1  0
 11 12  1  0
 12 13  2  0
 12 14  2  0
 12 15  1  0
 15 16  2  0
 16 17  1  0
 17 18  2  0
 18 19  1  0
 19 20  2  0
 20 21  1  0
 21 22  2  0
 22 23  1  0
 22 24  1  0
 24 25  2  0
 18 26  1  0
 26 27  2  0
 10  5  1  0
 27 15  1  0
 25 19  1  0
  1 28  1  0
  6 29  1  0
  7 30  1  0
  8 31  1  0
  9 32  1  0
 16 33  1  0
 17 34  1  0
 20 35  1  0
 21 36  1  0
 24 37  1  0
 25 38  1  0
 26 39  1  0
 27 40  1  0
M  CHG  2   1  -1  11  -1
M  END
>  <UniqueID>  (32) 
29

>  <SMILES>  (32) 
[NH-]S(=O)(=O)c1ccccc1[N-]S(=O)(=O)c1ccc(-c2ccc(Cl)cc2)cc1

>  <Energy>  (32) 
51.50051941099885

>  <Genealogy>  (32) 
[NH-]S(=O)(=O)c1ccccc1[N-]S(=O)(=O)c1ccc(-c2ccc(Cl)cc2)cc1 (protonated)
[NH-]S(=O)(=O)c1ccccc1[N-]S(=O)(=O)c1ccc(-c2ccc(Cl)cc2)cc1 (3D coordinates assigned)
[NH-]S(=O)(=O)c1ccccc1[N-]S(=O)(=O)c1ccc(-c2ccc(Cl)cc2)cc1 (optimized conformer: 51.50051941099885 kcal/mol)

>  <smiles>  (32) 
NS(=O)(=O)c1ccccc1NS(=O)(=O)c1ccc(-c2ccc(Cl)cc2)cc1

>  <score_type>  (32) 
oracle

>  <origin>  (32) 
adgpu

>  <m_score__min__energy>  (32) 
-12.789999999999999

>  <m_primary>  (32) 
energy

$$$$
32:0
     RDKit          3D

 67 71  0  0  0  0  0  0  0  0999 V2000
   -1.7990   16.3820  -34.7330 C   0  0  0  0  0  0  0  0  0  0  0  0
   -2.6100   17.4190  -35.2750 O   0  0  0  0  0  0  0  0  0  0  0  0
   -3.5640   18.1560  -34.5510 C   0  0  0  0  0  0  0  0  0  0  0  0
   -4.9360   17.8570  -34.6440 C   0  0  0  0  0  0  0  0  0  0  0  0
   -5.8780   18.5980  -33.9310 C   0  0  0  0  0  0  0  0  0  0  0  0
   -5.4750   19.6550  -33.1030 C   0  0  0  0  0  0  0  0  0  0  0  0
   -6.4800   20.4510  -32.3520 C   0  0  0  0  0  0  0  0  0  0  0  0
   -7.7030   19.8770  -31.9610 C   0  0  0  0  0  0  0  0  0  0  0  0
   -8.6520   20.6340  -31.2700 C   0  0  0  0  0  0  0  0  0  0  0  0
   -8.3880   21.9680  -30.9480 C   0  0  0  0  0  0  0  0  0  0  0  0
   -7.1660   22.5490  -31.3000 C   0  0  0  0  0  0  0  0  0  0  0  0
   -6.9310   23.9270  -30.9750 N   0  0  0  0  0  0  0  0  0  0  0  0
   -5.7090   24.4600  -30.4510 C   0  0  0  0  0  0  0  0  0  0  0  0
   -4.9890   25.1720  -31.2000 O   0  0  0  0  0  0  0  0  0  0  0  0
   -5.3260   24.2120  -29.0860 N   0  0  0  0  0  0  0  0  0  0  0  0
   -4.0250   24.5010  -28.5490 C   0  0  0  0  0  0  0  0  0  0  0  0
   -2.9250   24.5570  -29.4160 C   0  0  0  0  0  0  0  0  0  0  0  0
   -1.6490   24.8390  -28.9230 C   0  0  0  0  0  0  0  0  0  0  0  0
   -1.4440   25.0530  -27.5480 C   0  0  0  0  0  0  0  0  0  0  0  0
   -0.0940   25.3860  -27.0290 C   0  0  0  0  0  0  0  0  0  0  0  0
    0.0670   26.4000  -26.1380 N   0  0  0  0  0  0  0  0  0  0  0  0
    1.2820   26.7290  -25.6220 C   0  0  0  0  0  0  0  0  0  0  0  0
    1.3820   27.8170  -24.6690 N   0  0  0  0  0  0  0  0  0  0  0  0
    1.0820   27.6020  -23.2430 C   0  0  0  0  0  0  0  0  0  0  0  0
    1.6780   28.7110  -22.3710 C   0  0  0  0  0  0  0  0  0  0  0  0
    1.3650   29.9840  -22.8940 O   0  0  0  0  0  0  0  0  0  0  0  0
    2.0260   30.1510  -24.1290 C   0  0  0  0  0  0  0  0  0  0  0  0
    1.4610   29.1960  -25.1820 C   0  0  0  0  0  0  0  0  0  0  0  0
    2.4060   25.9810  -26.0230 C   0  0  0  0  0  0  0  0  0  0  0  0
    2.2340   24.9400  -26.9420 C   0  0  0  0  0  0  0  0  0  0  0  0
    3.4110   24.1330  -27.4040 C   0  0  0  0  0  0  0  0  0  0  0  0
    4.4720   24.3110  -26.5350 F   0  0  0  0  0  0  0  0  0  0  0  0
    3.0910   22.7870  -27.4470 F   0  0  0  0  0  0  0  0  0  0  0  0
    3.7850   24.5450  -28.6700 F   0  0  0  0  0  0  0  0  0  0  0  0
    0.9930   24.6700  -27.4230 N   0  0  0  0  0  0  0  0  0  0  0  0
   -2.5440   24.9570  -26.6760 C   0  0  0  0  0  0  0  0  0  0  0  0
   -3.8220   24.6770  -27.1710 C   0  0  0  0  0  0  0  0  0  0  0  0
   -6.2250   21.7960  -32.0250 C   0  0  0  0  0  0  0  0  0  0  0  0
   -4.1060   19.9540  -32.9990 C   0  0  0  0  0  0  0  0  0  0  0  0
   -3.1410   19.2180  -33.7160 C   0  0  0  0  0  0  0  0  0  0  0  0
   -1.7030   19.5780  -33.5770 C   0  0  0  0  0  0  0  0  0  0  0  0
   -1.2280   20.5600  -34.2090 O   0  0  0  0  0  0  0  0  0  0  0  0
   -0.8550   18.8490  -32.7530 O   0  0  0  0  0  0  0  0  0  0  0  0
   -1.8334   16.4259  -33.6344 H   0  0  0  0  0  0  0  0  0  0  0  0
   -2.1760   15.4061  -35.0729 H   0  0  0  0  0  0  0  0  0  0  0  0
   -0.7610   16.5127  -35.0729 H   0  0  0  0  0  0  0  0  0  0  0  0
   -5.2694   17.0289  -35.2868 H   0  0  0  0  0  0  0  0  0  0  0  0
   -6.9463   18.3510  -34.0190 H   0  0  0  0  0  0  0  0  0  0  0  0
   -7.9137   18.8244  -32.2011 H   0  0  0  0  0  0  0  0  0  0  0  0
   -9.6100   20.1787  -30.9784 H   0  0  0  0  0  0  0  0  0  0  0  0
   -9.1445   22.5632  -30.4156 H   0  0  0  0  0  0  0  0  0  0  0  0
   -5.9850   23.6770  -28.4760 H   0  0  0  0  0  0  0  0  0  0  0  0
   -3.0677   24.3776  -30.4919 H   0  0  0  0  0  0  0  0  0  0  0  0
   -0.7967   24.8942  -29.6162 H   0  0  0  0  0  0  0  0  0  0  0  0
   -0.0093   27.5867  -23.1056 H   0  0  0  0  0  0  0  0  0  0  0  0
    1.5285   26.6445  -22.9368 H   0  0  0  0  0  0  0  0  0  0  0  0
    1.2684   28.6287  -21.3534 H   0  0  0  0  0  0  0  0  0  0  0  0
    2.7719   28.5964  -22.3545 H   0  0  0  0  0  0  0  0  0  0  0  0
    1.8912   31.1872  -24.4728 H   0  0  0  0  0  0  0  0  0  0  0  0
    3.0944   29.9293  -23.9895 H   0  0  0  0  0  0  0  0  0  0  0  0
    0.4522   29.5311  -25.4648 H   0  0  0  0  0  0  0  0  0  0  0  0
    2.1329   29.2037  -26.0529 H   0  0  0  0  0  0  0  0  0  0  0  0
    3.4033   26.2115  -25.6201 H   0  0  0  0  0  0  0  0  0  0  0  0
   -2.3977   25.1034  -25.5956 H   0  0  0  0  0  0  0  0  0  0  0  0
   -4.6718   24.5943  -26.4774 H   0  0  0  0  0  0  0  0  0  0  0  0
   -5.2801   22.2630  -32.3397 H   0  0  0  0  0  0  0  0  0  0  0  0
   -3.7814   20.7776  -32.3461 H   0  0  0  0  0  0  0  0  0  0  0  0
  1  2  1  0
  2  3  1  0
  3  4  2  0
  4  5  1  0
  5  6  2  0
  6  7  1  0
  7  8  2  0
  8  9  1  0
  9 10  2  0
 10 11  1  0
 11 12  1  0
 12 13  1  0
 13 14  2  0
 13 15  1  0
 15 16  1  0
 16 17  2  0
 17 18  1  0
 18 19  2  0
 19 20  1  0
 20 21  2  0
 21 22  1  0
 22 23  1  0
 23 24  1  0
 24 25  1  0
 25 26  1  0
 26 27  1  0
 27 28  1  0
 22 29  2  0
 29 30  1  0
 30 31  1  0
 31 32  1  0
 31 33  1  0
 31 34  1  0
 30 35  2  0
 19 36  1  0
 36 37  2  0
 11 38  2  0
  6 39  1  0
 39 40  2  0
 40 41  1  0
 41 42  2  0
 41 43  1  0
 40  3  1  0
 38  7  1  0
 37 16  1  0
 35 20  1  0
 28 23  1  0
  1 44  1  0
  1 45  1  0
  1 46  1  0
  4 47  1  0
  5 48  1  0
  8 49  1  0
  9 50  1  0
 10 51  1  0
 15 52  1  0
 17 53  1  0
 18 54  1  0
 24 55  1  0
 24 56  1  0
 25 57  1  0
 25 58  1  0
 27 59  1  0
 27 60  1  0
 28 61  1  0
 28 62  1  0
 29 63  1  0
 36 64  1  0
 37 65  1  0
 38 66  1  0
 39 67  1  0
M  CHG  2  12  -1  43  -1
M  END
>  <UniqueID>  (33) 
30

>  <SMILES>  (33) 
COc1ccc(-c2cccc([N-]C(=O)Nc3ccc(-c4nc(N5CCOCC5)cc(C(F)(F)F)n4)cc3)c2)cc1C(=O)[O-]

>  <Energy>  (33) 
92.81174715629349

>  <Genealogy>  (33) 
COc1ccc(-c2cccc([N-]C(=O)Nc3ccc(-c4nc(N5CCOCC5)cc(C(F)(F)F)n4)cc3)c2)cc1C(=O)[O-] (protonated)
COc1ccc(-c2cccc([N-]C(=O)Nc3ccc(-c4nc(N5CCOCC5)cc(C(F)(F)F)n4)cc3)c2)cc1C(=O)[O-] (3D coordinates assigned)
COc1ccc(-c2cccc([N-]C(=O)Nc3ccc(-c4nc(N5CCOCC5)cc(C(F)(F)F)n4)cc3)c2)cc1C(=O)[O-] (nonaromatic ring conformer: 92.81174715629349 kcal/mol)

>  <smiles>  (33) 
COc1ccc(-c2cccc(NC(=O)Nc3ccc(-c4nc(N5CCOCC5)cc(C(F)(F)F)n4)cc3)c2)cc1C(=O)O

>  <score_type>  (33) 
oracle

>  <origin>  (33) 
adgpu

>  <m_score__min__energy>  (33) 
-9.9000000000000004

>  <m_primary>  (33) 
energy

$$$$
33:0
     RDKit          3D

 44 46  0  0  0  0  0  0  0  0999 V2000
   -6.6570   23.4070  -32.3680 C   0  0  0  0  0  0  0  0  0  0  0  0
   -5.4860   22.6340  -32.6080 O   0  0  0  0  0  0  0  0  0  0  0  0
   -5.4760   21.2420  -32.8010 C   0  0  0  0  0  0  0  0  0  0  0  0
   -6.6550   20.4720  -32.7310 C   0  0  0  0  0  0  0  0  0  0  0  0
   -6.6060   19.0900  -32.9240 C   0  0  0  0  0  0  0  0  0  0  0  0
   -5.3900   18.4680  -33.2040 C   0  0  0  0  0  0  0  0  0  0  0  0
   -4.2180   19.2220  -33.2980 C   0  0  0  0  0  0  0  0  0  0  0  0
   -4.2480   20.6110  -33.0710 C   0  0  0  0  0  0  0  0  0  0  0  0
   -3.0590   21.4140  -33.0910 N   0  0  0  0  0  0  0  0  0  0  0  0
   -1.4560   20.8990  -33.5140 S   0  0  0  0  0  0  0  0  0  0  0  0
   -1.5590   19.7220  -34.4440 O   0  0  0  0  0  0  0  0  0  0  0  0
   -0.7200   21.9910  -34.2400 O   0  0  0  0  0  0  0  0  0  0  0  0
   -0.5850   20.4070  -32.0640 C   0  0  0  0  0  0  0  0  0  0  0  0
    0.7140   19.8940  -32.1790 C   0  0  0  0  0  0  0  0  0  0  0  0
    1.4330   19.5330  -31.0360 C   0  0  0  0  0  0  0  0  0  0  0  0
    0.8560   19.6750  -29.7730 C   0  0  0  0  0  0  0  0  0  0  0  0
   -0.4540   20.1540  -29.6440 C   0  0  0  0  0  0  0  0  0  0  0  0
   -1.0140   20.2930  -28.3330 N   0  0  0  0  0  0  0  0  0  0  0  0
   -2.2430   20.9620  -28.0200 C   0  0  0  0  0  0  0  0  0  0  0  0
   -2.9720   20.4830  -27.1130 O   0  0  0  0  0  0  0  0  0  0  0  0
   -2.7050   22.1550  -28.7770 C   0  0  0  0  0  0  0  0  0  0  0  0
   -3.9140   22.1350  -29.4960 C   0  0  0  0  0  0  0  0  0  0  0  0
   -4.3620   23.2780  -30.1660 C   0  0  0  0  0  0  0  0  0  0  0  0
   -3.6180   24.4650  -30.1090 C   0  0  0  0  0  0  0  0  0  0  0  0
   -4.0610   25.6090  -30.7700 O   0  0  0  0  0  0  0  0  0  0  0  0
   -2.4210   24.4970  -29.3860 C   0  0  0  0  0  0  0  0  0  0  0  0
   -1.6770   25.6710  -29.3220 O   0  0  0  0  0  0  0  0  0  0  0  0
   -1.9660   23.3520  -28.7270 C   0  0  0  0  0  0  0  0  0  0  0  0
   -1.1720   20.5290  -30.7950 C   0  0  0  0  0  0  0  0  0  0  0  0
   -6.8127   23.5098  -31.2839 H   0  0  0  0  0  0  0  0  0  0  0  0
   -6.5368   24.4038  -32.8173 H   0  0  0  0  0  0  0  0  0  0  0  0
   -7.5264   22.9047  -32.8173 H   0  0  0  0  0  0  0  0  0  0  0  0
   -7.6176   20.9621  -32.5234 H   0  0  0  0  0  0  0  0  0  0  0  0
   -7.5267   18.4920  -32.8551 H   0  0  0  0  0  0  0  0  0  0  0  0
   -5.3535   17.3786  -33.3515 H   0  0  0  0  0  0  0  0  0  0  0  0
   -3.2679   18.7285  -33.5504 H   0  0  0  0  0  0  0  0  0  0  0  0
    1.1698   19.7749  -33.1730 H   0  0  0  0  0  0  0  0  0  0  0  0
    2.4546   19.1366  -31.1319 H   0  0  0  0  0  0  0  0  0  0  0  0
    1.4327   19.4095  -28.8747 H   0  0  0  0  0  0  0  0  0  0  0  0
   -4.5121   21.2125  -29.5315 H   0  0  0  0  0  0  0  0  0  0  0  0
   -5.3004   23.2456  -30.7391 H   0  0  0  0  0  0  0  0  0  0  0  0
   -3.8590   26.5360  -30.4170 H   0  0  0  0  0  0  0  0  0  0  0  0
   -1.0216   23.3863  -28.1640 H   0  0  0  0  0  0  0  0  0  0  0  0
   -2.1962   20.9188  -30.6997 H   0  0  0  0  0  0  0  0  0  0  0  0
  1  2  1  0
  2  3  1  0
  3  4  2  0
  4  5  1  0
  5  6  2  0
  6  7  1  0
  7  8  2  0
  8  9  1  0
  9 10  1  0
 10 11  2  0
 10 12  2  0
 10 13  1  0
 13 14  2  0
 14 15  1  0
 15 16  2  0
 16 17  1  0
 17 18  1  0
 18 19  1  0
 19 20  2  0
 19 21  1  0
 21 22  2  0
 22 23  1  0
 23 24  2  0
 24 25  1  0
 24 26  1  0
 26 27  1  0
 26 28  2  0
 17 29  2  0
  8  3  1  0
 29 13  1  0
 28 21  1  0
  1 30  1  0
  1 31  1  0
  1 32  1  0
  4 33  1  0
  5 34  1  0
  6 35  1  0
  7 36  1  0
 14 37  1  0
 15 38  1  0
 16 39  1  0
 22 40  1  0
 23 41  1  0
 25 42  1  0
 28 43  1  0
 29 44  1  0
M  CHG  3   9  -1  18  -1  27  -1
M  END
>  <UniqueID>  (34) 
31

>  <SMILES>  (34) 
COc1ccccc1[N-]S(=O)(=O)c1cccc([N-]C(=O)c2ccc(O)c([O-])c2)c1

>  <Energy>  (34) 
54.89004804979493

>  <Genealogy>  (34) 
COc1ccccc1[N-]S(=O)(=O)c1cccc([N-]C(=O)c2ccc(O)c([O-])c2)c1 (protonated)
COc1ccccc1[N-]S(=O)(=O)c1cccc([N-]C(=O)c2ccc(O)c([O-])c2)c1 (3D coordinates assigned)
COc1ccccc1[N-]S(=O)(=O)c1cccc([N-]C(=O)c2ccc(O)c([O-])c2)c1 (optimized conformer: 54.89004804979493 kcal/mol)

>  <smiles>  (34) 
COc1ccccc1NS(=O)(=O)c1cccc(NC(=O)c2ccc(O)c(O)c2)c1

>  <score_type>  (34) 
oracle

>  <origin>  (34) 
adgpu

>  <m_score__min__energy>  (34) 
-11.66

>  <m_primary>  (34) 
energy

$$$$
34:0
     RDKit          3D

 51 54  0  0  0  0  0  0  0  0999 V2000
   -6.0120   17.9650  -34.5160 C   0  0  0  0  0  0  0  0  0  0  0  0
   -4.9820   18.7440  -33.7690 C   0  0  0  0  0  0  0  0  0  0  0  0
   -3.6330   18.8200  -34.0450 C   0  0  0  0  0  0  0  0  0  0  0  0
   -3.0590   19.6860  -33.1870 N   0  0  0  0  0  0  0  0  0  0  0  0
   -4.0050   20.1670  -32.3910 N   0  0  0  0  0  0  0  0  0  0  0  0
   -3.7510   21.1230  -31.3410 C   0  0  0  0  0  0  0  0  0  0  0  0
   -2.9970   20.7450  -30.2190 C   0  0  0  0  0  0  0  0  0  0  0  0
   -2.7380   21.6560  -29.1940 C   0  0  0  0  0  0  0  0  0  0  0  0
   -3.2230   22.9710  -29.2660 C   0  0  0  0  0  0  0  0  0  0  0  0
   -2.8840   23.9150  -28.1730 C   0  0  0  0  0  0  0  0  0  0  0  0
   -3.8210   24.1750  -27.1590 C   0  0  0  0  0  0  0  0  0  0  0  0
   -3.5230   25.0790  -26.1340 C   0  0  0  0  0  0  0  0  0  0  0  0
   -2.2800   25.7190  -26.1020 C   0  0  0  0  0  0  0  0  0  0  0  0
   -1.9970   26.6180  -25.0770 O   0  0  0  0  0  0  0  0  0  0  0  0
   -1.3310   25.4470  -27.0960 C   0  0  0  0  0  0  0  0  0  0  0  0
   -1.6270   24.5460  -28.1240 C   0  0  0  0  0  0  0  0  0  0  0  0
   -0.6770   24.2700  -29.0540 F   0  0  0  0  0  0  0  0  0  0  0  0
   -4.0040   23.3580  -30.3810 C   0  0  0  0  0  0  0  0  0  0  0  0
   -4.5940   24.7090  -30.4890 C   0  0  0  0  0  0  0  0  0  0  0  0
   -3.8610   25.6730  -30.8320 O   0  0  0  0  0  0  0  0  0  0  0  0
   -5.9800   24.9500  -30.2180 N   0  0  0  0  0  0  0  0  0  0  0  0
   -7.0750   24.0860  -30.6540 C   0  0  0  0  0  0  0  0  0  0  0  0
   -7.1790   22.8570  -29.7410 C   0  0  0  0  0  0  0  0  0  0  0  0
   -8.3100   21.9090  -30.1990 C   0  0  0  0  0  0  0  0  0  0  0  0
   -8.7530   22.1720  -31.5800 N   0  0  0  0  0  0  0  0  0  0  0  0
   -7.6040   22.3650  -32.4740 C   0  0  0  0  0  0  0  0  0  0  0  0
   -6.8430   23.6560  -32.1150 C   0  0  0  0  0  0  0  0  0  0  0  0
   -4.2420   22.4400  -31.4150 C   0  0  0  0  0  0  0  0  0  0  0  0
   -5.1930   19.6170  -32.7260 C   0  0  0  0  0  0  0  0  0  0  0  0
   -6.6793   17.4603  -33.8019 H   0  0  0  0  0  0  0  0  0  0  0  0
   -6.5998   18.6465  -35.1485 H   0  0  0  0  0  0  0  0  0  0  0  0
   -5.5163   17.2138  -35.1485 H   0  0  0  0  0  0  0  0  0  0  0  0
   -3.1103   18.2638  -34.8371 H   0  0  0  0  0  0  0  0  0  0  0  0
   -2.6059   19.7194  -30.1468 H   0  0  0  0  0  0  0  0  0  0  0  0
   -2.1479   21.3403  -28.3210 H   0  0  0  0  0  0  0  0  0  0  0  0
   -4.7952   23.6644  -27.1712 H   0  0  0  0  0  0  0  0  0  0  0  0
   -4.2678   25.2869  -25.3516 H   0  0  0  0  0  0  0  0  0  0  0  0
   -2.6980   26.8780  -24.3920 H   0  0  0  0  0  0  0  0  0  0  0  0
   -0.3499   25.9436  -27.0679 H   0  0  0  0  0  0  0  0  0  0  0  0
   -8.0219   24.6422  -30.5913 H   0  0  0  0  0  0  0  0  0  0  0  0
   -6.2238   22.3120  -29.7641 H   0  0  0  0  0  0  0  0  0  0  0  0
   -7.4072   23.2012  -28.7215 H   0  0  0  0  0  0  0  0  0  0  0  0
   -7.9459   20.8728  -30.1382 H   0  0  0  0  0  0  0  0  0  0  0  0
   -9.1721   22.0787  -29.5372 H   0  0  0  0  0  0  0  0  0  0  0  0
   -9.2870   21.3350  -31.9140 H   0  0  0  0  0  0  0  0  0  0  0  0
   -6.9234   21.5063  -32.3772 H   0  0  0  0  0  0  0  0  0  0  0  0
   -7.9711   22.4476  -33.5076 H   0  0  0  0  0  0  0  0  0  0  0  0
   -5.7669   23.4858  -32.2668 H   0  0  0  0  0  0  0  0  0  0  0  0
   -7.2190   24.4595  -32.7654 H   0  0  0  0  0  0  0  0  0  0  0  0
   -4.8207   22.7541  -32.2962 H   0  0  0  0  0  0  0  0  0  0  0  0
   -6.1606   19.8300  -32.2481 H   0  0  0  0  0  0  0  0  0  0  0  0
  1  2  1  0
  2  3  1  0
  3  4  2  0
  4  5  1  0
  5  6  1  0
  6  7  2  0
  7  8  1  0
  8  9  2  0
  9 10  1  0
 10 11  2  0
 11 12  1  0
 12 13  2  0
 13 14  1  0
 13 15  1  0
 15 16  2  0
 16 17  1  0
  9 18  1  0
 18 19  1  0
 19 20  2  0
 19 21  1  0
 21 22  1  0
 22 23  1  0
 23 24  1  0
 24 25  1  0
 25 26  1  0
 26 27  1  0
 18 28  2  0
  5 29  1  0
 29  2  2  0
 28  6  1  0
 16 10  1  0
 27 22  1  0
  1 30  1  0
  1 31  1  0
  1 32  1  0
  3 33  1  0
  7 34  1  0
  8 35  1  0
 11 36  1  0
 12 37  1  0
 14 38  1  0
 15 39  1  0
 22 40  1  0
 23 41  1  0
 23 42  1  0
 24 43  1  0
 24 44  1  0
 25 45  1  0
 26 46  1  0
 26 47  1  0
 27 48  1  0
 27 49  1  0
 28 50  1  0
 29 51  1  0
M  CHG  1  21  -1
M  END
>  <UniqueID>  (35) 
32

>  <SMILES>  (35) 
Cc1cnn(-c2ccc(-c3ccc(O)cc3F)c(C(=O)[N-]C3CCNCC3)c2)c1

>  <Energy>  (35) 
99.80751198448942

>  <Genealogy>  (35) 
Cc1cnn(-c2ccc(-c3ccc(O)cc3F)c(C(=O)[N-]C3CCNCC3)c2)c1 (protonated)
Cc1cnn(-c2ccc(-c3ccc(O)cc3F)c(C(=O)[N-]C3CCNCC3)c2)c1 (3D coordinates assigned)
Cc1cnn(-c2ccc(-c3ccc(O)cc3F)c(C(=O)[N-]C3CCNCC3)c2)c1 (nonaromatic ring conformer: 99.80751198448942 kcal/mol)

>  <smiles>  (35) 
Cc1cnn(-c2ccc(-c3ccc(O)cc3F)c(C(=O)NC3CCNCC3)c2)c1

>  <score_type>  (35) 
oracle

>  <origin>  (35) 
adgpu

>  <m_score__min__energy>  (35) 
-9.4499999999999993

>  <m_primary>  (35) 
energy

$$$$
35:0
     RDKit          3D

 51 53  0  0  0  0  0  0  0  0999 V2000
   -9.4240   18.4180  -31.9800 C   0  0  0  0  0  0  0  0  0  0  0  0
   -8.5150   19.6190  -32.0110 C   0  0  0  0  0  0  0  0  0  0  0  0
   -8.9110   20.7940  -31.3510 C   0  0  0  0  0  0  0  0  0  0  0  0
   -8.1050   21.9320  -31.3820 C   0  0  0  0  0  0  0  0  0  0  0  0
   -6.8810   21.9150  -32.0670 C   0  0  0  0  0  0  0  0  0  0  0  0
   -6.0270   23.0300  -32.0790 O   0  0  0  0  0  0  0  0  0  0  0  0
   -4.7630   23.0630  -31.4770 C   0  0  0  0  0  0  0  0  0  0  0  0
   -3.8980   21.9780  -31.6470 C   0  0  0  0  0  0  0  0  0  0  0  0
   -2.6390   21.9820  -31.0430 C   0  0  0  0  0  0  0  0  0  0  0  0
   -2.2370   23.0730  -30.2670 C   0  0  0  0  0  0  0  0  0  0  0  0
   -3.0890   24.1720  -30.0900 C   0  0  0  0  0  0  0  0  0  0  0  0
   -2.6130   25.2930  -29.3300 N   0  0  0  0  0  0  0  0  0  0  0  0
   -1.6600   25.3010  -28.2570 C   0  0  0  0  0  0  0  0  0  0  0  0
   -0.6880   26.1000  -28.3230 O   0  0  0  0  0  0  0  0  0  0  0  0
   -1.7780   24.3910  -27.0630 C   0  0  0  0  0  0  0  0  0  0  0  0
   -0.5660   23.5880  -26.8760 N   0  0  0  0  0  0  0  0  0  0  0  0
   -0.5270   22.1660  -27.1050 C   0  0  0  0  0  0  0  0  0  0  0  0
    0.4590   21.5730  -27.9150 C   0  0  0  0  0  0  0  0  0  0  0  0
    0.4750   20.1910  -28.1170 C   0  0  0  0  0  0  0  0  0  0  0  0
   -0.4970   19.3720  -27.5150 C   0  0  0  0  0  0  0  0  0  0  0  0
   -0.5260   17.9780  -27.6830 O   0  0  0  0  0  0  0  0  0  0  0  0
    0.6180   17.1510  -27.8880 C   0  0  0  0  0  0  0  0  0  0  0  0
    1.7590   17.8000  -27.4510 F   0  0  0  0  0  0  0  0  0  0  0  0
    0.7440   16.8880  -29.2380 F   0  0  0  0  0  0  0  0  0  0  0  0
    0.4690   15.9540  -27.2120 F   0  0  0  0  0  0  0  0  0  0  0  0
   -1.4810   19.9630  -26.7140 C   0  0  0  0  0  0  0  0  0  0  0  0
   -1.4990   21.3460  -26.5110 C   0  0  0  0  0  0  0  0  0  0  0  0
   -4.3420   24.1760  -30.7310 C   0  0  0  0  0  0  0  0  0  0  0  0
   -6.4740   20.7460  -32.7180 C   0  0  0  0  0  0  0  0  0  0  0  0
   -7.2890   19.6010  -32.7180 C   0  0  0  0  0  0  0  0  0  0  0  0
   -6.8210   18.3640  -33.4400 C   0  0  0  0  0  0  0  0  0  0  0  0
   -9.6324   18.1427  -30.9356 H   0  0  0  0  0  0  0  0  0  0  0  0
  -10.3678   18.6592  -32.4909 H   0  0  0  0  0  0  0  0  0  0  0  0
   -8.9355   17.5752  -32.4909 H   0  0  0  0  0  0  0  0  0  0  0  0
   -9.8655   20.8169  -30.8047 H   0  0  0  0  0  0  0  0  0  0  0  0
   -8.4309   22.8475  -30.8666 H   0  0  0  0  0  0  0  0  0  0  0  0
   -4.2101   21.1185  -32.2584 H   0  0  0  0  0  0  0  0  0  0  0  0
   -1.9625   21.1252  -31.1781 H   0  0  0  0  0  0  0  0  0  0  0  0
   -1.2449   23.0691  -29.7918 H   0  0  0  0  0  0  0  0  0  0  0  0
   -1.9441   25.0018  -26.1634 H   0  0  0  0  0  0  0  0  0  0  0  0
   -2.6219   23.7064  -27.2336 H   0  0  0  0  0  0  0  0  0  0  0  0
    0.3300   24.0710  -26.6340 H   0  0  0  0  0  0  0  0  0  0  0  0
    1.2235   22.2030  -28.3931 H   0  0  0  0  0  0  0  0  0  0  0  0
    1.2528   19.7403  -28.7510 H   0  0  0  0  0  0  0  0  0  0  0  0
   -2.2478   19.3330  -26.2395 H   0  0  0  0  0  0  0  0  0  0  0  0
   -2.2809   21.7950  -25.8809 H   0  0  0  0  0  0  0  0  0  0  0  0
   -4.9958   25.0566  -30.6472 H   0  0  0  0  0  0  0  0  0  0  0  0
   -5.5041   20.7224  -33.2364 H   0  0  0  0  0  0  0  0  0  0  0  0
   -6.5313   17.5982  -32.7054 H   0  0  0  0  0  0  0  0  0  0  0  0
   -7.6351   17.9776  -34.0708 H   0  0  0  0  0  0  0  0  0  0  0  0
   -5.9550   18.6132  -34.0708 H   0  0  0  0  0  0  0  0  0  0  0  0
  1  2  1  0
  2  3  2  0
  3  4  1  0
  4  5  2  0
  5  6  1  0
  6  7  1  0
  7  8  2  0
  8  9  1  0
  9 10  2  0
 10 11  1  0
 11 12  1  0
 12 13  1  0
 13 14  2  0
 13 15  1  0
 15 16  1  0
 16 17  1  0
 17 18  2  0
 18 19  1  0
 19 20  2  0
 20 21  1  0
 21 22  1  0
 22 23  1  0
 22 24  1  0
 22 25  1  0
 20 26  1  0
 26 27  2  0
 11 28  2  0
  5 29  1  0
 29 30  2  0
 30 31  1  0
 30  2  1  0
 28  7  1  0
 27 17  1  0
  1 32  1  0
  1 33  1  0
  1 34  1  0
  3 35  1  0
  4 36  1  0
  8 37  1  0
  9 38  1  0
 10 39  1  0
 15 40  1  0
 15 41  1  0
 16 42  1  0
 18 43  1  0
 19 44  1  0
 26 45  1  0
 27 46  1  0
 28 47  1  0
 29 48  1  0
 31 49  1  0
 31 50  1  0
 31 51  1  0
M  CHG  1  12  -1
M  END
>  <UniqueID>  (36) 
33

>  <SMILES>  (36) 
Cc1ccc(Oc2cccc([N-]C(=O)CNc3ccc(OC(F)(F)F)cc3)c2)cc1C

>  <Energy>  (36) 
61.898556163283075

>  <Genealogy>  (36) 
Cc1ccc(Oc2cccc([N-]C(=O)CNc3ccc(OC(F)(F)F)cc3)c2)cc1C (protonated)
Cc1ccc(Oc2cccc([N-]C(=O)CNc3ccc(OC(F)(F)F)cc3)c2)cc1C (3D coordinates assigned)
Cc1ccc(Oc2cccc([N-]C(=O)CNc3ccc(OC(F)(F)F)cc3)c2)cc1C (optimized conformer: 61.898556163283075 kcal/mol)

>  <smiles>  (36) 
Cc1ccc(Oc2cccc(NC(=O)CNc3ccc(OC(F)(F)F)cc3)c2)cc1C

>  <score_type>  (36) 
oracle

>  <origin>  (36) 
adgpu

>  <m_score__min__energy>  (36) 
-10.359999999999999

>  <m_primary>  (36) 
energy

$$$$
36:0
     RDKit          3D

 44 47  0  0  0  0  0  0  0  0999 V2000
   -3.2910   24.9470  -26.5630 C   0  0  0  0  0  0  0  0  0  0  0  0
   -2.9240   24.0090  -27.6320 N   0  0  0  0  0  0  0  0  0  0  0  0
   -3.3070   22.6980  -27.5430 C   0  0  0  0  0  0  0  0  0  0  0  0
   -2.9760   21.7890  -28.5490 C   0  0  0  0  0  0  0  0  0  0  0  0
   -2.2420   22.2180  -29.6600 C   0  0  0  0  0  0  0  0  0  0  0  0
   -1.8770   21.2650  -30.7340 C   0  0  0  0  0  0  0  0  0  0  0  0
   -0.5760   20.7340  -30.7740 C   0  0  0  0  0  0  0  0  0  0  0  0
   -0.2120   19.8210  -31.7650 C   0  0  0  0  0  0  0  0  0  0  0  0
    1.0430   19.3100  -31.7890 F   0  0  0  0  0  0  0  0  0  0  0  0
   -1.1430   19.4300  -32.7280 C   0  0  0  0  0  0  0  0  0  0  0  0
   -2.4360   19.9560  -32.7090 C   0  0  0  0  0  0  0  0  0  0  0  0
   -2.8150   20.8850  -31.7190 C   0  0  0  0  0  0  0  0  0  0  0  0
   -4.0970   21.4620  -31.7000 O   0  0  0  0  0  0  0  0  0  0  0  0
   -5.0230   21.4190  -32.7850 C   0  0  0  0  0  0  0  0  0  0  0  0
   -6.4580   21.4090  -32.2950 C   0  0  0  0  0  0  0  0  0  0  0  0
   -7.3490   20.4190  -32.7610 C   0  0  0  0  0  0  0  0  0  0  0  0
   -8.6610   20.3600  -32.2940 C   0  0  0  0  0  0  0  0  0  0  0  0
   -9.1140   21.2920  -31.3640 C   0  0  0  0  0  0  0  0  0  0  0  0
   -8.2630   22.3000  -30.9140 C   0  0  0  0  0  0  0  0  0  0  0  0
   -6.9390   22.3920  -31.3830 C   0  0  0  0  0  0  0  0  0  0  0  0
   -6.1100   23.5300  -30.9080 C   0  0  0  0  0  0  0  0  0  0  0  0
   -5.1630   24.1360  -31.6550 N   0  0  0  0  0  0  0  0  0  0  0  0
   -4.6290   25.0490  -30.8600 N   0  0  0  0  0  0  0  0  0  0  0  0
   -5.2210   24.9930  -29.6800 N   0  0  0  0  0  0  0  0  0  0  0  0
   -6.1470   24.0520  -29.6660 N   0  0  0  0  0  0  0  0  0  0  0  0
   -1.8760   23.5670  -29.7490 C   0  0  0  0  0  0  0  0  0  0  0  0
   -2.2220   24.4520  -28.7240 C   0  0  0  0  0  0  0  0  0  0  0  0
   -1.8800   25.6640  -28.8180 O   0  0  0  0  0  0  0  0  0  0  0  0
   -3.1076   24.4782  -25.5849 H   0  0  0  0  0  0  0  0  0  0  0  0
   -2.6837   25.8599  -26.6517 H   0  0  0  0  0  0  0  0  0  0  0  0
   -4.3565   25.2054  -26.6517 H   0  0  0  0  0  0  0  0  0  0  0  0
   -3.8818   22.3572  -26.6693 H   0  0  0  0  0  0  0  0  0  0  0  0
   -3.2914   20.7382  -28.4685 H   0  0  0  0  0  0  0  0  0  0  0  0
    0.1616   21.0407  -30.0177 H   0  0  0  0  0  0  0  0  0  0  0  0
   -0.8573   18.7051  -33.5045 H   0  0  0  0  0  0  0  0  0  0  0  0
   -3.1641   19.6433  -33.4719 H   0  0  0  0  0  0  0  0  0  0  0  0
   -4.8692   22.3034  -33.4207 H   0  0  0  0  0  0  0  0  0  0  0  0
   -4.8466   20.4924  -33.3510 H   0  0  0  0  0  0  0  0  0  0  0  0
   -7.0035   19.6839  -33.5028 H   0  0  0  0  0  0  0  0  0  0  0  0
   -9.3396   19.5758  -32.6608 H   0  0  0  0  0  0  0  0  0  0  0  0
  -10.1446   21.2327  -30.9840 H   0  0  0  0  0  0  0  0  0  0  0  0
   -8.6312   23.0339  -30.1821 H   0  0  0  0  0  0  0  0  0  0  0  0
   -4.9850   25.6050  -28.8680 H   0  0  0  0  0  0  0  0  0  0  0  0
   -1.3170   23.9295  -30.6243 H   0  0  0  0  0  0  0  0  0  0  0  0
  1  2  1  0
  2  3  1  0
  3  4  2  0
  4  5  1  0
  5  6  1  0
  6  7  2  0
  7  8  1  0
  8  9  1  0
  8 10  2  0
 10 11  1  0
 11 12  2  0
 12 13  1  0
 13 14  1  0
 14 15  1  0
 15 16  2  0
 16 17  1  0
 17 18  2  0
 18 19  1  0
 19 20  2  0
 20 21  1  0
 21 22  1  0
 22 23  2  0
 23 24  1  0
 24 25  1  0
  5 26  2  0
 26 27  1  0
 27 28  2  0
 27  2  1  0
 12  6  1  0
 20 15  1  0
 25 21  2  0
  1 29  1  0
  1 30  1  0
  1 31  1  0
  3 32  1  0
  4 33  1  0
  7 34  1  0
 10 35  1  0
 11 36  1  0
 14 37  1  0
 14 38  1  0
 16 39  1  0
 17 40  1  0
 18 41  1  0
 19 42  1  0
 24 43  1  0
 26 44  1  0
M  END
>  <UniqueID>  (37) 
34

>  <SMILES>  (37) 
Cn1ccc(-c2cc(F)ccc2OCc2ccccc2-c2nn[nH]n2)cc1=O

>  <Energy>  (37) 
100.15217652062351

>  <Genealogy>  (37) 
Cn1ccc(-c2cc(F)ccc2OCc2ccccc2-c2nn[nH]n2)cc1=O (3D coordinates assigned)
Cn1ccc(-c2cc(F)ccc2OCc2ccccc2-c2nn[nH]n2)cc1=O (optimized conformer: 100.15217652062351 kcal/mol)

>  <smiles>  (37) 
Cn1ccc(-c2cc(F)ccc2OCc2ccccc2-c2nn[nH]n2)cc1=O

>  <score_type>  (37) 
oracle

>  <origin>  (37) 
adgpu

>  <m_score__min__energy>  (37) 
-9.9100000000000001

>  <m_primary>  (37) 
energy

$$$$
37:0
     RDKit          3D

 31 33  0  0  0  0  0  0  0  0999 V2000
   -2.0860   23.7320  -26.4800 O   0  0  0  0  0  0  0  0  0  0  0  0
   -2.4540   22.9690  -27.4140 C   0  0  0  0  0  0  0  0  0  0  0  0
   -1.9970   21.5650  -27.4000 C   0  0  0  0  0  0  0  0  0  0  0  0
   -1.5780   20.8490  -28.5070 C   0  0  0  0  0  0  0  0  0  0  0  0
   -1.2570   19.5920  -28.0410 C   0  0  0  0  0  0  0  0  0  0  0  0
   -1.5010   19.6150  -26.6830 C   0  0  0  0  0  0  0  0  0  0  0  0
   -1.9410   20.8020  -26.3340 O   0  0  0  0  0  0  0  0  0  0  0  0
   -3.3210   23.5140  -28.4830 C   0  0  0  0  0  0  0  0  0  0  0  0
   -4.6000   23.1030  -28.8460 C   0  0  0  0  0  0  0  0  0  0  0  0
   -5.0560   23.8770  -29.8570 N   0  0  0  0  0  0  0  0  0  0  0  0
   -6.2390   23.7300  -30.5610 O   0  0  0  0  0  0  0  0  0  0  0  0
   -6.6290   22.5380  -31.1830 C   0  0  0  0  0  0  0  0  0  0  0  0
   -7.8820   21.9500  -30.9380 C   0  0  0  0  0  0  0  0  0  0  0  0
   -8.2430   20.7650  -31.5890 C   0  0  0  0  0  0  0  0  0  0  0  0
   -7.3630   20.1680  -32.4950 C   0  0  0  0  0  0  0  0  0  0  0  0
   -6.1240   20.7590  -32.7570 C   0  0  0  0  0  0  0  0  0  0  0  0
   -5.7610   21.9430  -32.1090 C   0  0  0  0  0  0  0  0  0  0  0  0
   -4.0840   24.7490  -30.1680 C   0  0  0  0  0  0  0  0  0  0  0  0
   -4.1780   25.6850  -31.1940 O   0  0  0  0  0  0  0  0  0  0  0  0
   -3.0080   24.5650  -29.3320 C   0  0  0  0  0  0  0  0  0  0  0  0
   -1.8240   25.2920  -29.3520 O   0  0  0  0  0  0  0  0  0  0  0  0
   -1.5142   21.2084  -29.5447 H   0  0  0  0  0  0  0  0  0  0  0  0
   -0.8824   18.7430  -28.6317 H   0  0  0  0  0  0  0  0  0  0  0  0
   -1.3500   18.7682  -25.9974 H   0  0  0  0  0  0  0  0  0  0  0  0
   -5.1554   22.2749  -28.3815 H   0  0  0  0  0  0  0  0  0  0  0  0
   -8.5810   22.4228  -30.2324 H   0  0  0  0  0  0  0  0  0  0  0  0
   -9.2207   20.3031  -31.3871 H   0  0  0  0  0  0  0  0  0  0  0  0
   -7.6451   19.2334  -33.0018 H   0  0  0  0  0  0  0  0  0  0  0  0
   -5.4334   20.2916  -33.4743 H   0  0  0  0  0  0  0  0  0  0  0  0
   -4.7893   22.4103  -32.3268 H   0  0  0  0  0  0  0  0  0  0  0  0
   -3.4760   26.4070  -31.3050 H   0  0  0  0  0  0  0  0  0  0  0  0
  1  2  2  0
  2  3  1  0
  3  4  2  0
  4  5  1  0
  5  6  2  0
  6  7  1  0
  2  8  1  0
  8  9  2  0
  9 10  1  0
 10 11  1  0
 11 12  1  0
 12 13  2  0
 13 14  1  0
 14 15  2  0
 15 16  1  0
 16 17  2  0
 10 18  1  0
 18 19  1  0
 18 20  2  0
 20 21  1  0
  7  3  1  0
 20  8  1  0
 17 12  1  0
  4 22  1  0
  5 23  1  0
  6 24  1  0
  9 25  1  0
 13 26  1  0
 14 27  1  0
 15 28  1  0
 16 29  1  0
 17 30  1  0
 19 31  1  0
M  CHG  1  21  -1
M  END
>  <UniqueID>  (38) 
35

>  <SMILES>  (38) 
O=C(c1ccco1)c1cn(Oc2ccccc2)c(O)c1[O-]

>  <Energy>  (38) 
94.72958810531077

>  <Genealogy>  (38) 
O=C(c1ccco1)c1cn(Oc2ccccc2)c(O)c1[O-] (protonated)
O=C(c1ccco1)c1cn(Oc2ccccc2)c(O)c1[O-] (3D coordinates assigned)
O=C(c1ccco1)c1cn(Oc2ccccc2)c(O)c1[O-] (optimized conformer: 94.72958810531077 kcal/mol)

>  <smiles>  (38) 
O=C(c1ccco1)c1cn(Oc2ccccc2)c(O)c1O

>  <score_type>  (38) 
oracle

>  <origin>  (38) 
adgpu

>  <m_score__min__energy>  (38) 
-10.08

>  <m_primary>  (38) 
energy

$$$$
38:0
     RDKit          3D

 35 37  0  0  0  0  0  0  0  0999 V2000
   -3.8408   25.5732  -28.7856 H   0  0  0  0  0  0  0  0  0  0  0  0
   -3.6240   24.5540  -29.1380 C   0  0  0  0  0  0  0  0  0  0  0  0
   -2.5800   23.8960  -28.6180 C   0  0  0  0  0  0  0  0  0  0  0  0
   -2.3690   22.8808  -28.9852 H   0  0  0  0  0  0  0  0  0  0  0  0
   -1.6920   24.4640  -27.5720 C   0  0  0  0  0  0  0  0  0  0  0  0
   -1.4810   23.8160  -26.3370 C   0  0  0  0  0  0  0  0  0  0  0  0
   -1.9742   22.8540  -26.1337 H   0  0  0  0  0  0  0  0  0  0  0  0
   -0.6490   24.3880  -25.3690 C   0  0  0  0  0  0  0  0  0  0  0  0
   -0.4858   23.8721  -24.4113 H   0  0  0  0  0  0  0  0  0  0  0  0
   -0.0250   25.6130  -25.6160 C   0  0  0  0  0  0  0  0  0  0  0  0
    0.6339   26.0581  -24.8559 H   0  0  0  0  0  0  0  0  0  0  0  0
   -0.2380   26.2720  -26.8280 C   0  0  0  0  0  0  0  0  0  0  0  0
    0.2496   27.2394  -27.0186 H   0  0  0  0  0  0  0  0  0  0  0  0
   -1.0690   25.7070  -27.8010 C   0  0  0  0  0  0  0  0  0  0  0  0
   -1.2530   26.3690  -28.9720 F   0  0  0  0  0  0  0  0  0  0  0  0
   -4.4900   23.9560  -30.1660 C   0  0  0  0  0  0  0  0  0  0  0  0
   -5.8410   24.0400  -30.1680 N   0  0  0  0  0  0  0  0  0  0  0  0
   -6.1910   23.3630  -31.2770 C   0  0  0  0  0  0  0  0  0  0  0  0
   -7.5550   23.0950  -31.6460 C   0  0  0  0  0  0  0  0  0  0  0  0
   -8.6540   22.8790  -31.9420 N   0  0  0  0  0  0  0  0  0  0  0  0
   -5.0500   22.8980  -31.8960 C   0  0  0  0  0  0  0  0  0  0  0  0
   -4.9540   22.0940  -33.0810 N   0  0  0  0  0  0  0  0  0  0  0  0
   -4.6070   22.5580  -33.9500 H   0  0  0  0  0  0  0  0  0  0  0  0
   -5.3470   20.7140  -33.1550 C   0  0  0  0  0  0  0  0  0  0  0  0
   -4.3870   19.7390  -33.4630 C   0  0  0  0  0  0  0  0  0  0  0  0
   -3.3400   20.0346  -33.6252 H   0  0  0  0  0  0  0  0  0  0  0  0
   -4.7530   18.3940  -33.5650 C   0  0  0  0  0  0  0  0  0  0  0  0
   -3.9914   17.6337  -33.7929 H   0  0  0  0  0  0  0  0  0  0  0  0
   -6.0850   18.0130  -33.3780 C   0  0  0  0  0  0  0  0  0  0  0  0
   -6.5450   16.3260  -33.5080 Cl  0  0  0  0  0  0  0  0  0  0  0  0
   -7.0540   18.9830  -33.0970 C   0  0  0  0  0  0  0  0  0  0  0  0
   -8.1039   18.6863  -32.9570 H   0  0  0  0  0  0  0  0  0  0  0  0
   -6.6890   20.3290  -32.9940 C   0  0  0  0  0  0  0  0  0  0  0  0
   -7.4557   21.0898  -32.7860 H   0  0  0  0  0  0  0  0  0  0  0  0
   -4.0180   23.2710  -31.1860 O   0  0  0  0  0  0  0  0  0  0  0  0
  1  2  1  0
  2  3  2  0
  3  4  1  0
  3  5  1  0
  5  6  2  0
  6  7  1  0
  6  8  1  0
  8  9  1  0
  8 10  2  0
 10 11  1  0
 10 12  1  0
 12 13  1  0
 12 14  2  0
 14 15  1  0
  2 16  1  0
 16 17  2  0
 17 18  1  0
 18 19  1  0
 19 20  3  0
 18 21  2  0
 21 22  1  0
 22 23  1  0
 22 24  1  0
 24 25  2  0
 25 26  1  0
 25 27  1  0
 27 28  1  0
 27 29  2  0
 29 30  1  0
 29 31  1  0
 31 32  1  0
 31 33  2  0
 33 34  1  0
 21 35  1  0
 14  5  1  0
 35 16  1  0
 33 24  1  0
M  END
>  <UniqueID>  (39) 
36

>  <SMILES>  (39) 
N#Cc1nc(/C=C/c2ccccc2F)oc1Nc1ccc(Cl)cc1

>  <Energy>  (39) 
75.0941658951156

>  <Genealogy>  (39) 
N#Cc1nc(/C=C/c2ccccc2F)oc1Nc1ccc(Cl)cc1 (cis-trans isomerization)
N#Cc1nc(/C=C/c2ccccc2F)oc1Nc1ccc(Cl)cc1 (3D coordinates assigned)
N#Cc1nc(/C=C/c2ccccc2F)oc1Nc1ccc(Cl)cc1 (optimized conformer: 75.0941658951156 kcal/mol)

>  <smiles>  (39) 
N#Cc1nc(C=Cc2ccccc2F)oc1Nc1ccc(Cl)cc1

>  <score_type>  (39) 
oracle

>  <origin>  (39) 
adgpu

>  <m_score__min__energy>  (39) 
-8.4199999999999999

>  <m_primary>  (39) 
energy

$$$$
39:0
     RDKit          3D

 47 49  0  0  0  0  0  0  0  0999 V2000
   -0.1080   18.2120  -27.8450 C   0  0  0  0  0  0  0  0  0  0  0  0
    0.5300   19.3220  -28.6810 C   0  0  0  0  0  0  0  0  0  0  0  0
   -0.4170   19.8750  -29.5990 O   0  0  0  0  0  0  0  0  0  0  0  0
   -1.3340   20.9020  -29.3110 C   0  0  0  0  0  0  0  0  0  0  0  0
   -1.0460   22.1890  -29.7800 C   0  0  0  0  0  0  0  0  0  0  0  0
   -1.9130   23.2530  -29.5180 C   0  0  0  0  0  0  0  0  0  0  0  0
   -3.0840   23.0440  -28.7730 C   0  0  0  0  0  0  0  0  0  0  0  0
   -3.9740   24.1410  -28.5140 N   0  0  0  0  0  0  0  0  0  0  0  0
   -4.2390   24.5630  -27.1370 C   0  0  0  0  0  0  0  0  0  0  0  0
   -5.0340   24.6670  -29.7850 S   0  0  0  0  0  0  0  0  0  0  0  0
   -5.9710   25.7300  -29.2810 O   0  0  0  0  0  0  0  0  0  0  0  0
   -4.2270   25.2460  -30.9130 O   0  0  0  0  0  0  0  0  0  0  0  0
   -5.9580   23.2860  -30.3760 C   0  0  0  0  0  0  0  0  0  0  0  0
   -7.2720   23.1300  -30.0970 N   0  0  0  0  0  0  0  0  0  0  0  0
   -7.6200   22.0040  -30.7510 C   0  0  0  0  0  0  0  0  0  0  0  0
   -6.5150   21.4920  -31.4080 C   0  0  0  0  0  0  0  0  0  0  0  0
   -6.5050   20.2670  -32.2340 C   0  0  0  0  0  0  0  0  0  0  0  0
   -5.6460   20.1850  -33.3440 C   0  0  0  0  0  0  0  0  0  0  0  0
   -5.6270   19.0340  -34.1400 C   0  0  0  0  0  0  0  0  0  0  0  0
   -6.4720   17.9610  -33.8430 C   0  0  0  0  0  0  0  0  0  0  0  0
   -6.4510   16.8450  -34.6160 F   0  0  0  0  0  0  0  0  0  0  0  0
   -7.3470   18.0440  -32.7540 C   0  0  0  0  0  0  0  0  0  0  0  0
   -7.3730   19.1940  -31.9550 C   0  0  0  0  0  0  0  0  0  0  0  0
   -8.2690   19.2720  -30.9410 F   0  0  0  0  0  0  0  0  0  0  0  0
   -5.4680   22.3180  -31.1880 N   0  0  0  0  0  0  0  0  0  0  0  0
   -4.1150   22.2190  -31.7400 C   0  0  0  0  0  0  0  0  0  0  0  0
   -3.3800   21.7570  -28.2980 C   0  0  0  0  0  0  0  0  0  0  0  0
   -2.5150   20.6900  -28.5660 C   0  0  0  0  0  0  0  0  0  0  0  0
    0.0216   18.4374  -26.7762 H   0  0  0  0  0  0  0  0  0  0  0  0
   -1.1810   18.1476  -28.0787 H   0  0  0  0  0  0  0  0  0  0  0  0
    0.3764   17.2525  -28.0787 H   0  0  0  0  0  0  0  0  0  0  0  0
    0.8891   20.1170  -28.0109 H   0  0  0  0  0  0  0  0  0  0  0  0
    1.3674   18.8955  -29.2527 H   0  0  0  0  0  0  0  0  0  0  0  0
   -0.1282   22.3645  -30.3605 H   0  0  0  0  0  0  0  0  0  0  0  0
   -1.6769   24.2583  -29.8971 H   0  0  0  0  0  0  0  0  0  0  0  0
   -3.7867   23.8428  -26.4393 H   0  0  0  0  0  0  0  0  0  0  0  0
   -3.8040   25.5592  -26.9687 H   0  0  0  0  0  0  0  0  0  0  0  0
   -5.3253   24.6040  -26.9687 H   0  0  0  0  0  0  0  0  0  0  0  0
   -8.6267   21.5607  -30.7609 H   0  0  0  0  0  0  0  0  0  0  0  0
   -4.9854   21.0300  -33.5881 H   0  0  0  0  0  0  0  0  0  0  0  0
   -4.9455   18.9737  -35.0013 H   0  0  0  0  0  0  0  0  0  0  0  0
   -8.0172   17.2025  -32.5246 H   0  0  0  0  0  0  0  0  0  0  0  0
   -3.3865   22.1657  -30.9176 H   0  0  0  0  0  0  0  0  0  0  0  0
   -4.0367   21.3127  -32.3585 H   0  0  0  0  0  0  0  0  0  0  0  0
   -3.9056   23.1042  -32.3585 H   0  0  0  0  0  0  0  0  0  0  0  0
   -4.2956   21.5862  -27.7127 H   0  0  0  0  0  0  0  0  0  0  0  0
   -2.7557   19.6828  -28.1951 H   0  0  0  0  0  0  0  0  0  0  0  0
  1  2  1  0
  2  3  1  0
  3  4  1  0
  4  5  2  0
  5  6  1  0
  6  7  2  0
  7  8  1  0
  8  9  1  0
  8 10  1  0
 10 11  2  0
 10 12  2  0
 10 13  1  0
 13 14  2  0
 14 15  1  0
 15 16  2  0
 16 17  1  0
 17 18  2  0
 18 19  1  0
 19 20  2  0
 20 21  1  0
 20 22  1  0
 22 23  2  0
 23 24  1  0
 16 25  1  0
 25 26  1  0
  7 27  1  0
 27 28  2  0
 28  4  1  0
 25 13  1  0
 23 17  1  0
  1 29  1  0
  1 30  1  0
  1 31  1  0
  2 32  1  0
  2 33  1  0
  5 34  1  0
  6 35  1  0
  9 36  1  0
  9 37  1  0
  9 38  1  0
 15 39  1  0
 18 40  1  0
 19 41  1  0
 22 42  1  0
 26 43  1  0
 26 44  1  0
 26 45  1  0
 27 46  1  0
 28 47  1  0
M  END
>  <UniqueID>  (40) 
37

>  <SMILES>  (40) 
CCOc1ccc(N(C)S(=O)(=O)c2ncc(-c3ccc(F)cc3F)n2C)cc1

>  <Energy>  (40) 
88.06798655887722

>  <Genealogy>  (40) 
CCOc1ccc(N(C)S(=O)(=O)c2ncc(-c3ccc(F)cc3F)n2C)cc1 (3D coordinates assigned)
CCOc1ccc(N(C)S(=O)(=O)c2ncc(-c3ccc(F)cc3F)n2C)cc1 (optimized conformer: 88.06798655887722 kcal/mol)

>  <smiles>  (40) 
CCOc1ccc(N(C)S(=O)(=O)c2ncc(-c3ccc(F)cc3F)n2C)cc1

>  <score_type>  (40) 
oracle

>  <origin>  (40) 
adgpu

>  <m_score__min__energy>  (40) 
-8.5999999999999996

>  <m_primary>  (40) 
energy

$$$$
40:0
     RDKit          3D

 46 49  0  0  0  0  0  0  0  0999 V2000
   -4.7160   25.6520  -30.8530 O   0  0  0  0  0  0  0  0  0  0  0  0
   -4.9760   24.4440  -31.0890 C   0  0  0  0  0  0  0  0  0  0  0  0
   -6.2410   24.0730  -31.5420 C   0  0  0  0  0  0  0  0  0  0  0  0
   -6.4920   22.7190  -31.8010 C   0  0  0  0  0  0  0  0  0  0  0  0
   -7.8440   22.2730  -32.2900 C   0  0  0  0  0  0  0  0  0  0  0  0
   -8.0000   20.8300  -32.1170 N   0  0  0  0  0  0  0  0  0  0  0  0
   -8.9480   20.1990  -31.1970 C   0  0  0  0  0  0  0  0  0  0  0  0
   -8.7500   18.6720  -31.3650 C   0  0  0  0  0  0  0  0  0  0  0  0
   -7.7080   18.5710  -32.4250 C   0  0  0  0  0  0  0  0  0  0  0  0
   -7.1650   17.4170  -32.9910 C   0  0  0  0  0  0  0  0  0  0  0  0
   -6.1930   17.5570  -33.9960 C   0  0  0  0  0  0  0  0  0  0  0  0
   -5.7880   18.8390  -34.4160 C   0  0  0  0  0  0  0  0  0  0  0  0
   -6.3520   19.9850  -33.8330 C   0  0  0  0  0  0  0  0  0  0  0  0
   -7.3100   19.8160  -32.8280 C   0  0  0  0  0  0  0  0  0  0  0  0
   -5.5060   21.8030  -31.5900 N   0  0  0  0  0  0  0  0  0  0  0  0
   -4.2790   22.1860  -31.1420 C   0  0  0  0  0  0  0  0  0  0  0  0
   -2.9990   20.9660  -30.8470 S   0  0  0  0  0  0  0  0  0  0  0  0
   -3.1180   21.0560  -29.0260 C   0  0  0  0  0  0  0  0  0  0  0  0
   -2.6770   22.4040  -28.5230 C   0  0  0  0  0  0  0  0  0  0  0  0
   -1.4270   22.9190  -28.8940 C   0  0  0  0  0  0  0  0  0  0  0  0
   -1.0270   24.1860  -28.4570 C   0  0  0  0  0  0  0  0  0  0  0  0
   -1.8730   24.9610  -27.6430 C   0  0  0  0  0  0  0  0  0  0  0  0
   -1.4600   26.2660  -27.1990 N   0  0  0  0  0  0  0  0  0  0  0  0
   -1.6400   26.6210  -26.0160 O   0  0  0  0  0  0  0  0  0  0  0  0
   -0.8600   27.1440  -28.0720 O   0  0  0  0  0  0  0  0  0  0  0  0
   -3.1280   24.4400  -27.2760 C   0  0  0  0  0  0  0  0  0  0  0  0
   -3.5250   23.1730  -27.7120 C   0  0  0  0  0  0  0  0  0  0  0  0
   -4.0220   23.4980  -30.9000 N   0  0  0  0  0  0  0  0  0  0  0  0
   -7.0265   24.8281  -31.6931 H   0  0  0  0  0  0  0  0  0  0  0  0
   -8.6259   22.7930  -31.7171 H   0  0  0  0  0  0  0  0  0  0  0  0
   -7.9334   22.5150  -33.3593 H   0  0  0  0  0  0  0  0  0  0  0  0
   -8.7344   20.5008  -30.1610 H   0  0  0  0  0  0  0  0  0  0  0  0
   -9.9836   20.4985  -31.4159 H   0  0  0  0  0  0  0  0  0  0  0  0
   -8.4021   18.2151  -30.4268 H   0  0  0  0  0  0  0  0  0  0  0  0
   -9.6798   18.1456  -31.6266 H   0  0  0  0  0  0  0  0  0  0  0  0
   -7.4904   16.4204  -32.6580 H   0  0  0  0  0  0  0  0  0  0  0  0
   -5.7471   16.6629  -34.4561 H   0  0  0  0  0  0  0  0  0  0  0  0
   -5.0271   18.9427  -35.2036 H   0  0  0  0  0  0  0  0  0  0  0  0
   -6.0480   20.9908  -34.1585 H   0  0  0  0  0  0  0  0  0  0  0  0
   -5.6890   20.7890  -31.7640 H   0  0  0  0  0  0  0  0  0  0  0  0
   -4.1618   20.8834  -28.7247 H   0  0  0  0  0  0  0  0  0  0  0  0
   -2.4601   20.2879  -28.5933 H   0  0  0  0  0  0  0  0  0  0  0  0
   -0.7574   22.3236  -29.5320 H   0  0  0  0  0  0  0  0  0  0  0  0
   -0.0431   24.5795  -28.7521 H   0  0  0  0  0  0  0  0  0  0  0  0
   -3.8014   25.0346  -26.6412 H   0  0  0  0  0  0  0  0  0  0  0  0
   -4.5079   22.7764  -27.4176 H   0  0  0  0  0  0  0  0  0  0  0  0
  1  2  2  0
  2  3  1  0
  3  4  2  0
  4  5  1  0
  5  6  1  0
  6  7  1  0
  7  8  1  0
  8  9  1  0
  9 10  2  0
 10 11  1  0
 11 12  2  0
 12 13  1  0
 13 14  2  0
  4 15  1  0
 15 16  1  0
 16 17  1  0
 17 18  1  0
 18 19  1  0
 19 20  2  0
 20 21  1  0
 21 22  2  0
 22 23  1  0
 23 24  2  0
 23 25  1  0
 22 26  1  0
 26 27  2  0
 16 28  2  0
 28  2  1  0
 14  6  1  0
 27 19  1  0
 14  9  1  0
  3 29  1  0
  5 30  1  0
  5 31  1  0
  7 32  1  0
  7 33  1  0
  8 34  1  0
  8 35  1  0
 10 36  1  0
 11 37  1  0
 12 38  1  0
 13 39  1  0
 15 40  1  0
 18 41  1  0
 18 42  1  0
 20 43  1  0
 21 44  1  0
 26 45  1  0
 27 46  1  0
M  CHG  2  23   1  25  -1
M  END
>  <UniqueID>  (41) 
38

>  <SMILES>  (41) 
O=c1cc(CN2CCc3ccccc32)[nH]c(SCc2ccc([N+](=O)[O-])cc2)n1

>  <Energy>  (41) 
58.147855279312495

>  <Genealogy>  (41) 
O=c1cc(CN2CCc3ccccc32)[nH]c(SCc2ccc([N+](=O)[O-])cc2)n1 (3D coordinates assigned)
O=c1cc(CN2CCc3ccccc32)[nH]c(SCc2ccc([N+](=O)[O-])cc2)n1 (nonaromatic ring conformer: 58.147855279312495 kcal/mol)

>  <smiles>  (41) 
O=c1cc(CN2CCc3ccccc32)[nH]c(SCc2ccc([N+](=O)[O-])cc2)n1

>  <score_type>  (41) 
oracle

>  <origin>  (41) 
adgpu

>  <m_score__min__energy>  (41) 
-10.08

>  <m_primary>  (41) 
energy

$$$$
41:0
     RDKit          3D

 38 40  0  0  0  0  0  0  0  0999 V2000
   -0.0070   22.5658  -30.5466 H   0  0  0  0  0  0  0  0  0  0  0  0
   -1.0960   22.6780  -30.4390 C   0  0  0  0  0  0  0  0  0  0  0  0
   -1.8720   22.1390  -31.4070 C   0  0  0  0  0  0  0  0  0  0  0  0
   -3.3190   22.4090  -31.5440 C   0  0  0  0  0  0  0  0  0  0  0  0
   -3.8300   23.4670  -31.0870 O   0  0  0  0  0  0  0  0  0  0  0  0
   -4.1250   21.4870  -32.2920 N   0  0  0  0  0  0  0  0  0  0  0  0
   -5.5620   21.5040  -32.1820 C   0  0  0  0  0  0  0  0  0  0  0  0
   -6.2760   20.3060  -32.0160 C   0  0  0  0  0  0  0  0  0  0  0  0
   -5.7357   19.3488  -31.9730 H   0  0  0  0  0  0  0  0  0  0  0  0
   -7.6700   20.3230  -31.9050 C   0  0  0  0  0  0  0  0  0  0  0  0
   -8.2196   19.3803  -31.7661 H   0  0  0  0  0  0  0  0  0  0  0  0
   -8.3710   21.5370  -31.9700 C   0  0  0  0  0  0  0  0  0  0  0  0
   -9.8610   21.5590  -31.8110 C   0  0  0  0  0  0  0  0  0  0  0  0
  -10.1155   21.5628  -30.7409 H   0  0  0  0  0  0  0  0  0  0  0  0
  -10.2673   22.4632  -32.2877 H   0  0  0  0  0  0  0  0  0  0  0  0
  -10.2938   20.6671  -32.2877 H   0  0  0  0  0  0  0  0  0  0  0  0
   -7.6570   22.7360  -32.1160 C   0  0  0  0  0  0  0  0  0  0  0  0
   -8.1968   23.6941  -32.1432 H   0  0  0  0  0  0  0  0  0  0  0  0
   -6.2650   22.7200  -32.2270 C   0  0  0  0  0  0  0  0  0  0  0  0
   -5.7155   23.6649  -32.3504 H   0  0  0  0  0  0  0  0  0  0  0  0
   -3.4550   20.5350  -33.1410 C   0  0  0  0  0  0  0  0  0  0  0  0
   -4.0890   19.5270  -33.5650 O   0  0  0  0  0  0  0  0  0  0  0  0
   -2.0840   20.7810  -33.5560 N   0  0  2  0  0  0  0  0  0  0  0  0
   -2.1030   21.5530  -34.2630 H   0  0  0  0  0  0  0  0  0  0  0  0
   -1.4870   19.5920  -34.1990 C   0  0  0  0  0  0  0  0  0  0  0  0
   -1.1364   18.8937  -33.4248 H   0  0  0  0  0  0  0  0  0  0  0  0
   -2.2428   19.0956  -34.8254 H   0  0  0  0  0  0  0  0  0  0  0  0
   -0.6375   19.9016  -34.8254 H   0  0  0  0  0  0  0  0  0  0  0  0
   -1.2820   21.2370  -32.4310 C   0  0  0  0  0  0  0  0  0  0  0  0
   -0.0550   20.9380  -32.3590 O   0  0  0  0  0  0  0  0  0  0  0  0
   -1.5850   23.4030  -29.2520 C   0  0  0  0  0  0  0  0  0  0  0  0
   -1.5550   24.7110  -29.1480 O   0  0  0  0  0  0  0  0  0  0  0  0
   -2.0060   25.0500  -27.9620 C   0  0  0  0  0  0  0  0  0  0  0  0
   -2.1062   26.0817  -27.5939 H   0  0  0  0  0  0  0  0  0  0  0  0
   -2.3350   23.9170  -27.2480 C   0  0  0  0  0  0  0  0  0  0  0  0
   -2.7386   23.8738  -26.2256 H   0  0  0  0  0  0  0  0  0  0  0  0
   -2.0560   22.8500  -28.0740 C   0  0  0  0  0  0  0  0  0  0  0  0
   -2.1815   21.7815  -27.8449 H   0  0  0  0  0  0  0  0  0  0  0  0
  1  2  1  0
  2  3  2  0
  3  4  1  0
  4  5  2  0
  4  6  1  0
  6  7  1  0
  7  8  2  0
  8  9  1  0
  8 10  1  0
 10 11  1  0
 10 12  2  0
 12 13  1  0
 13 14  1  0
 13 15  1  0
 13 16  1  0
 12 17  1  0
 17 18  1  0
 17 19  2  0
 19 20  1  0
  6 21  1  0
 21 22  2  0
 21 23  1  0
 23 24  1  6
 23 25  1  0
 25 26  1  0
 25 27  1  0
 25 28  1  0
 23 29  1  0
 29 30  2  0
  2 31  1  0
 31 32  1  0
 32 33  1  0
 33 34  1  0
 33 35  2  0
 35 36  1  0
 35 37  1  0
 37 38  1  0
 29  3  1  0
 37 31  2  0
 19  7  1  0
M  CHG  1  23   1
M  END
>  <UniqueID>  (42) 
39

>  <SMILES>  (42) 
Cc1ccc(N2C(=O)/C(=C\c3ccco3)C(=O)[N@@H+](C)C2=O)cc1

>  <Energy>  (42) 
88.60580344949553

>  <Genealogy>  (42) 
Cc1ccc(N2C(=O)C(=Cc3ccco3)C(=O)[NH+](C)C2=O)cc1 (protonated)
Cc1ccc(N2C(=O)C(=Cc3ccco3)C(=O)[N@@H+](C)C2=O)cc1 (chirality)
Cc1ccc(N2C(=O)/C(=C\c3ccco3)C(=O)[N@@H+](C)C2=O)cc1 (cis-trans isomerization)
Cc1ccc(N2C(=O)/C(=C\c3ccco3)C(=O)[N@@H+](C)C2=O)cc1 (3D coordinates assigned)
Cc1ccc(N2C(=O)/C(=C\c3ccco3)C(=O)[N@@H+](C)C2=O)cc1 (nonaromatic ring conformer: 88.60580344949553 kcal/mol)

>  <smiles>  (42) 
Cc1ccc(N2C(=O)C(=Cc3ccco3)C(=O)N(C)C2=O)cc1

>  <score_type>  (42) 
oracle

>  <origin>  (42) 
adgpu

>  <m_score__min__energy>  (42) 
-7.5899999999999999

>  <m_primary>  (42) 
energy

$$$$
42:0
     RDKit          3D

 39 42  0  0  0  0  0  0  0  0999 V2000
   -5.6644   18.3023  -30.6056 H   0  0  0  0  0  0  0  0  0  0  0  0
   -5.4050   19.0930  -31.3250 C   0  0  0  0  0  0  0  0  0  0  0  0
   -4.3770   19.9030  -31.2200 O   0  0  0  0  0  0  0  0  0  0  0  0
   -4.3760   20.7130  -32.2550 C   0  0  0  0  0  0  0  0  0  0  0  0
   -3.3750   21.7630  -32.4710 C   0  0  0  0  0  0  0  0  0  0  0  0
   -3.2300   22.2670  -33.6170 O   0  0  0  0  0  0  0  0  0  0  0  0
   -2.5120   22.1460  -31.3940 N   0  0  0  0  0  0  0  0  0  0  0  0
   -2.7330   23.0390  -30.4680 C   0  0  0  0  0  0  0  0  0  0  0  0
   -1.7520   23.5130  -29.6270 C   0  0  0  0  0  0  0  0  0  0  0  0
   -0.7023   23.1904  -29.5628 H   0  0  0  0  0  0  0  0  0  0  0  0
   -2.3910   24.4910  -28.8790 C   0  0  0  0  0  0  0  0  0  0  0  0
   -1.7880   25.3440  -27.8260 C   0  0  0  0  0  0  0  0  0  0  0  0
   -0.8540   26.3500  -28.1430 C   0  0  0  0  0  0  0  0  0  0  0  0
   -0.5603   26.5128  -29.1905 H   0  0  0  0  0  0  0  0  0  0  0  0
   -0.2980   27.1430  -27.1340 C   0  0  0  0  0  0  0  0  0  0  0  0
    0.4290   27.9274  -27.3911 H   0  0  0  0  0  0  0  0  0  0  0  0
   -0.6630   26.9420  -25.8010 C   0  0  0  0  0  0  0  0  0  0  0  0
   -0.2224   27.5660  -25.0095 H   0  0  0  0  0  0  0  0  0  0  0  0
   -1.5870   25.9490  -25.4740 C   0  0  0  0  0  0  0  0  0  0  0  0
   -1.8754   25.7923  -24.4241 H   0  0  0  0  0  0  0  0  0  0  0  0
   -2.1470   25.1530  -26.4770 C   0  0  0  0  0  0  0  0  0  0  0  0
   -2.8737   24.3712  -26.2112 H   0  0  0  0  0  0  0  0  0  0  0  0
   -3.6900   24.5580  -29.2400 N   0  0  0  0  0  0  0  0  0  0  0  0
   -3.9030   23.6740  -30.2030 N   0  0  0  0  0  0  0  0  0  0  0  0
   -5.2320   23.3480  -30.6350 C   0  0  0  0  0  0  0  0  0  0  0  0
   -6.1190   22.6780  -29.7750 C   0  0  0  0  0  0  0  0  0  0  0  0
   -5.7882   22.3802  -28.7691 H   0  0  0  0  0  0  0  0  0  0  0  0
   -7.4210   22.3890  -30.1950 C   0  0  0  0  0  0  0  0  0  0  0  0
   -8.1075   21.8509  -29.5248 H   0  0  0  0  0  0  0  0  0  0  0  0
   -7.8520   22.7830  -31.4660 C   0  0  0  0  0  0  0  0  0  0  0  0
   -9.4850   22.4180  -31.9910 Cl  0  0  0  0  0  0  0  0  0  0  0  0
   -6.9820   23.4770  -32.3140 C   0  0  0  0  0  0  0  0  0  0  0  0
   -7.3235   23.7956  -33.3099 H   0  0  0  0  0  0  0  0  0  0  0  0
   -5.6790   23.7660  -31.8970 C   0  0  0  0  0  0  0  0  0  0  0  0
   -5.0020   24.3233  -32.5612 H   0  0  0  0  0  0  0  0  0  0  0  0
   -5.4480   20.4300  -33.0780 C   0  0  0  0  0  0  0  0  0  0  0  0
   -5.7163   20.9342  -34.0181 H   0  0  0  0  0  0  0  0  0  0  0  0
   -6.1110   19.3840  -32.4750 C   0  0  0  0  0  0  0  0  0  0  0  0
   -7.0202   18.8816  -32.8370 H   0  0  0  0  0  0  0  0  0  0  0  0
  1  2  1  0
  2  3  1  0
  3  4  1  0
  4  5  1  0
  5  6  2  0
  5  7  1  0
  7  8  2  0
  8  9  1  0
  9 10  1  0
  9 11  2  0
 11 12  1  0
 12 13  2  0
 13 14  1  0
 13 15  1  0
 15 16  1  0
 15 17  2  0
 17 18  1  0
 17 19  1  0
 19 20  1  0
 19 21  2  0
 21 22  1  0
 11 23  1  0
 23 24  1  0
 24 25  1  0
 25 26  2  0
 26 27  1  0
 26 28  1  0
 28 29  1  0
 28 30  2  0
 30 31  1  0
 30 32  1  0
 32 33  1  0
 32 34  2  0
 34 35  1  0
  4 36  2  0
 36 37  1  0
 36 38  1  0
 38 39  1  0
 38  2  2  0
 24  8  1  0
 34 25  1  0
 21 12  1  0
M  CHG  1  23  -1
M  END
>  <UniqueID>  (43) 
40

>  <SMILES>  (43) 
O=C(/N=c1/cc(-c2ccccc2)[n-]n1-c1ccc(Cl)cc1)c1ccco1

>  <Energy>  (43) 
116.66183951072729

>  <Genealogy>  (43) 
O=C(N=c1cc(-c2ccccc2)[n-]n1-c1ccc(Cl)cc1)c1ccco1 (protonated)
O=C(/N=c1/cc(-c2ccccc2)[n-]n1-c1ccc(Cl)cc1)c1ccco1 (cis-trans isomerization)
O=C(/N=c1/cc(-c2ccccc2)[n-]n1-c1ccc(Cl)cc1)c1ccco1 (3D coordinates assigned)
O=C(/N=c1/cc(-c2ccccc2)[n-]n1-c1ccc(Cl)cc1)c1ccco1 (optimized conformer: 116.66183951072729 kcal/mol)

>  <smiles>  (43) 
O=C(N=c1cc(-c2ccccc2)[nH]n1-c1ccc(Cl)cc1)c1ccco1

>  <score_type>  (43) 
oracle

>  <origin>  (43) 
adgpu

>  <m_score__min__energy>  (43) 
-8.3100000000000005

>  <m_primary>  (43) 
energy

$$$$
43:0
     RDKit          3D

 24 25  0  0  0  0  0  0  0  0999 V2000
   -3.4630   19.3690  -33.8040 C   0  0  0  0  0  0  0  0  0  0  0  0
   -3.9700   20.3660  -32.8050 C   0  0  0  0  0  0  0  0  0  0  0  0
   -3.0680   21.1580  -32.0770 C   0  0  0  0  0  0  0  0  0  0  0  0
   -3.5390   22.0610  -31.1190 C   0  0  0  0  0  0  0  0  0  0  0  0
   -4.9130   22.1740  -30.8750 C   0  0  0  0  0  0  0  0  0  0  0  0
   -5.5150   23.3340  -29.6460 S   0  0  0  0  0  0  0  0  0  0  0  0
   -3.8570   23.8180  -29.1380 C   0  0  0  0  0  0  0  0  0  0  0  0
   -3.2240   24.9240  -29.7190 C   0  0  0  0  0  0  0  0  0  0  0  0
   -3.8660   25.6740  -30.6970 O   0  0  0  0  0  0  0  0  0  0  0  0
   -1.9710   25.2730  -29.3240 N   0  0  0  0  0  0  0  0  0  0  0  0
   -1.3190   24.5670  -28.3650 C   0  0  0  0  0  0  0  0  0  0  0  0
   -0.1590   24.9070  -28.0160 O   0  0  0  0  0  0  0  0  0  0  0  0
   -1.9180   23.4970  -27.7810 N   0  0  0  0  0  0  0  0  0  0  0  0
   -3.1680   23.1100  -28.1440 C   0  0  0  0  0  0  0  0  0  0  0  0
   -3.6990   22.1180  -27.5790 O   0  0  0  0  0  0  0  0  0  0  0  0
   -5.8130   21.3680  -31.5800 C   0  0  0  0  0  0  0  0  0  0  0  0
   -5.3440   20.4640  -32.5380 C   0  0  0  0  0  0  0  0  0  0  0  0
   -3.0259   18.5094  -33.2748 H   0  0  0  0  0  0  0  0  0  0  0  0
   -4.2962   19.0260  -34.4350 H   0  0  0  0  0  0  0  0  0  0  0  0
   -2.6950   19.8402  -34.4350 H   0  0  0  0  0  0  0  0  0  0  0  0
   -1.9872   21.0679  -32.2608 H   0  0  0  0  0  0  0  0  0  0  0  0
   -2.8285   22.6839  -30.5558 H   0  0  0  0  0  0  0  0  0  0  0  0
   -6.8919   21.4455  -31.3803 H   0  0  0  0  0  0  0  0  0  0  0  0
   -6.0550   19.8271  -33.0846 H   0  0  0  0  0  0  0  0  0  0  0  0
  1  2  1  0
  2  3  2  0
  3  4  1  0
  4  5  2  0
  5  6  1  0
  6  7  1  0
  7  8  2  0
  8  9  1  0
  8 10  1  0
 10 11  1  0
 11 12  2  0
 11 13  1  0
 13 14  1  0
 14 15  2  0
  5 16  1  0
 16 17  2  0
 17  2  1  0
 14  7  1  0
  1 18  1  0
  1 19  1  0
  1 20  1  0
  3 21  1  0
  4 22  1  0
 16 23  1  0
 17 24  1  0
M  CHG  3   9  -1  10  -1  13  -1
M  END
>  <UniqueID>  (44) 
41

>  <SMILES>  (44) 
Cc1ccc(Sc2c([O-])[n-]c(=O)[n-]c2=O)cc1

>  <Energy>  (44) 
21.937448621883668

>  <Genealogy>  (44) 
Cc1ccc(Sc2c([O-])[n-]c(=O)[n-]c2=O)cc1 (protonated)
Cc1ccc(Sc2c([O-])[n-]c(=O)[n-]c2=O)cc1 (3D coordinates assigned)
Cc1ccc(Sc2c([O-])[n-]c(=O)[n-]c2=O)cc1 (optimized conformer: 21.937448621883668 kcal/mol)

>  <smiles>  (44) 
Cc1ccc(Sc2c(O)[nH]c(=O)[nH]c2=O)cc1

>  <score_type>  (44) 
oracle

>  <origin>  (44) 
adgpu

>  <m_score__min__energy>  (44) 
-11.51

>  <m_primary>  (44) 
energy

$$$$
44:0
     RDKit          3D

 39 40  0  0  0  0  0  0  0  0999 V2000
   -2.2690   25.3030  -26.5840 C   0  0  0  0  0  0  0  0  0  0  0  0
   -1.3560   25.8330  -27.6800 C   0  0  0  0  0  0  0  0  0  0  0  0
   -1.9830   25.6500  -28.9460 O   0  0  0  0  0  0  0  0  0  0  0  0
   -2.4170   24.4200  -29.4630 C   0  0  0  0  0  0  0  0  0  0  0  0
   -1.7260   23.2270  -29.1650 C   0  0  0  0  0  0  0  0  0  0  0  0
   -2.1560   21.9980  -29.6820 C   0  0  0  0  0  0  0  0  0  0  0  0
   -1.3920   20.7310  -29.3870 C   0  0  0  0  0  0  0  0  0  0  0  0
   -1.4280   20.4190  -27.9420 N   0  0  0  0  0  0  0  0  0  0  0  0
   -2.7250   19.8180  -27.5490 C   0  0  0  0  0  0  0  0  0  0  0  0
   -2.5850   18.9980  -26.2570 C   0  0  0  0  0  0  0  0  0  0  0  0
   -1.6710   17.9130  -26.3620 O   0  0  0  0  0  0  0  0  0  0  0  0
   -0.6640   18.1070  -27.3450 C   0  0  0  0  0  0  0  0  0  0  0  0
   -0.2700   19.5830  -27.5370 C   0  0  0  0  0  0  0  0  0  0  0  0
   -3.2790   21.9570  -30.5130 C   0  0  0  0  0  0  0  0  0  0  0  0
   -3.9770   23.1270  -30.8170 C   0  0  0  0  0  0  0  0  0  0  0  0
   -5.5110   23.0120  -31.9570 Br  0  0  0  0  0  0  0  0  0  0  0  0
   -3.5620   24.3660  -30.3010 C   0  0  0  0  0  0  0  0  0  0  0  0
   -4.3230   25.4960  -30.6560 O   0  0  0  0  0  0  0  0  0  0  0  0
   -5.6360   25.8120  -30.2070 C   0  0  0  0  0  0  0  0  0  0  0  0
   -1.8430   25.5503  -25.6005 H   0  0  0  0  0  0  0  0  0  0  0  0
   -3.2629   25.7645  -26.6796 H   0  0  0  0  0  0  0  0  0  0  0  0
   -2.3611   24.2110  -26.6796 H   0  0  0  0  0  0  0  0  0  0  0  0
   -1.1675   26.9041  -27.5149 H   0  0  0  0  0  0  0  0  0  0  0  0
   -0.4013   25.2869  -27.6598 H   0  0  0  0  0  0  0  0  0  0  0  0
   -0.8373   23.2621  -28.5178 H   0  0  0  0  0  0  0  0  0  0  0  0
   -1.8441   19.8989  -29.9467 H   0  0  0  0  0  0  0  0  0  0  0  0
   -0.3443   20.8729  -29.6905 H   0  0  0  0  0  0  0  0  0  0  0  0
   -3.4589   20.6212  -27.3871 H   0  0  0  0  0  0  0  0  0  0  0  0
   -3.0580   19.1471  -28.3546 H   0  0  0  0  0  0  0  0  0  0  0  0
   -2.2375   19.6681  -25.4569 H   0  0  0  0  0  0  0  0  0  0  0  0
   -3.5734   18.5649  -26.0437 H   0  0  0  0  0  0  0  0  0  0  0  0
    0.2313   17.5441  -27.0422 H   0  0  0  0  0  0  0  0  0  0  0  0
   -1.0742   17.7542  -28.3027 H   0  0  0  0  0  0  0  0  0  0  0  0
    0.1328   19.9693  -26.5891 H   0  0  0  0  0  0  0  0  0  0  0  0
    0.4820   19.6327  -28.3383 H   0  0  0  0  0  0  0  0  0  0  0  0
   -3.6151   20.9963  -30.9303 H   0  0  0  0  0  0  0  0  0  0  0  0
   -5.6562   25.8169  -29.1072 H   0  0  0  0  0  0  0  0  0  0  0  0
   -5.9232   26.8049  -30.5834 H   0  0  0  0  0  0  0  0  0  0  0  0
   -6.3435   25.0585  -30.5834 H   0  0  0  0  0  0  0  0  0  0  0  0
  1  2  1  0
  2  3  1  0
  3  4  1  0
  4  5  2  0
  5  6  1  0
  6  7  1  0
  7  8  1  0
  8  9  1  0
  9 10  1  0
 10 11  1  0
 11 12  1  0
 12 13  1  0
  6 14  2  0
 14 15  1  0
 15 16  1  0
 15 17  2  0
 17 18  1  0
 18 19  1  0
 17  4  1  0
 13  8  1  0
  1 20  1  0
  1 21  1  0
  1 22  1  0
  2 23  1  0
  2 24  1  0
  5 25  1  0
  7 26  1  0
  7 27  1  0
  9 28  1  0
  9 29  1  0
 10 30  1  0
 10 31  1  0
 12 32  1  0
 12 33  1  0
 13 34  1  0
 13 35  1  0
 14 36  1  0
 19 37  1  0
 19 38  1  0
 19 39  1  0
M  END
>  <UniqueID>  (45) 
42

>  <SMILES>  (45) 
CCOc1cc(CN2CCOCC2)cc(Br)c1OC

>  <Energy>  (45) 
50.657208422021476

>  <Genealogy>  (45) 
CCOc1cc(CN2CCOCC2)cc(Br)c1OC (3D coordinates assigned)
CCOc1cc(CN2CCOCC2)cc(Br)c1OC (nonaromatic ring conformer: 50.657208422021476 kcal/mol)

>  <smiles>  (45) 
CCOc1cc(CN2CCOCC2)cc(Br)c1OC

>  <score_type>  (45) 
oracle

>  <origin>  (45) 
adgpu

>  <m_score__min__energy>  (45) 
-7.0300000000000002

>  <m_primary>  (45) 
energy

$$$$
45:0
     RDKit          3D

 41 43  0  0  0  0  0  0  0  0999 V2000
   -0.3460   26.6800  -28.3590 H   0  0  0  0  0  0  0  0  0  0  0  0
   -1.1890   26.4230  -28.9180 N   0  0  0  0  0  0  0  0  0  0  0  0
   -1.6360   25.2100  -28.9480 C   0  0  0  0  0  0  0  0  0  0  0  0
   -2.7360   24.9160  -29.6830 N   0  0  0  0  0  0  0  0  0  0  0  0
   -3.2320   23.6530  -29.7410 C   0  0  0  0  0  0  0  0  0  0  0  0
   -4.4090   23.4100  -30.5200 N   0  0  0  0  0  0  0  0  0  0  0  0
   -5.7160   23.8450  -30.0160 C   0  0  0  0  0  0  0  0  0  0  0  0
   -5.6228   24.1198  -28.9550 H   0  0  0  0  0  0  0  0  0  0  0  0
   -6.0549   24.7126  -30.6011 H   0  0  0  0  0  0  0  0  0  0  0  0
   -6.7440   22.7140  -30.1580 C   0  0  0  0  0  0  0  0  0  0  0  0
   -6.5823   21.9823  -29.3527 H   0  0  0  0  0  0  0  0  0  0  0  0
   -7.7497   23.1550  -30.0942 H   0  0  0  0  0  0  0  0  0  0  0  0
   -6.6250   22.0290  -31.4560 N   0  0  0  0  0  0  0  0  0  0  0  0
   -7.4030   20.8420  -31.7030 C   0  0  0  0  0  0  0  0  0  0  0  0
   -6.8130   19.5710  -31.6020 C   0  0  0  0  0  0  0  0  0  0  0  0
   -5.7527   19.4802  -31.3236 H   0  0  0  0  0  0  0  0  0  0  0  0
   -7.5680   18.4200  -31.8540 C   0  0  0  0  0  0  0  0  0  0  0  0
   -7.1016   17.4274  -31.7685 H   0  0  0  0  0  0  0  0  0  0  0  0
   -8.9130   18.5300  -32.2140 C   0  0  0  0  0  0  0  0  0  0  0  0
   -9.5050   17.6242  -32.4118 H   0  0  0  0  0  0  0  0  0  0  0  0
   -9.5070   19.7900  -32.3230 C   0  0  0  0  0  0  0  0  0  0  0  0
  -10.5661   19.8753  -32.6075 H   0  0  0  0  0  0  0  0  0  0  0  0
   -8.7570   20.9420  -32.0710 C   0  0  0  0  0  0  0  0  0  0  0  0
   -9.2279   21.9320  -32.1609 H   0  0  0  0  0  0  0  0  0  0  0  0
   -5.6600   22.5110  -32.4530 C   0  0  0  0  0  0  0  0  0  0  0  0
   -5.5802   21.7782  -33.2695 H   0  0  0  0  0  0  0  0  0  0  0  0
   -6.0022   23.4756  -32.8562 H   0  0  0  0  0  0  0  0  0  0  0  0
   -4.2910   22.6920  -31.7960 C   0  0  0  0  0  0  0  0  0  0  0  0
   -3.8469   21.7026  -31.6120 H   0  0  0  0  0  0  0  0  0  0  0  0
   -3.6538   23.2815  -32.4716 H   0  0  0  0  0  0  0  0  0  0  0  0
   -2.5840   22.6100  -29.0450 C   0  0  0  0  0  0  0  0  0  0  0  0
   -3.1010   21.1930  -29.1000 C   0  0  0  0  0  0  0  0  0  0  0  0
   -3.2395   20.8133  -28.0770 H   0  0  0  0  0  0  0  0  0  0  0  0
   -4.0639   21.1744  -29.6316 H   0  0  0  0  0  0  0  0  0  0  0  0
   -2.3764   20.5587  -29.6316 H   0  0  0  0  0  0  0  0  0  0  0  0
   -1.4600   22.9490  -28.2560 C   0  0  0  0  0  0  0  0  0  0  0  0
   -0.7180   21.9250  -27.4480 C   0  0  0  0  0  0  0  0  0  0  0  0
   -0.8644   22.1270  -26.3767 H   0  0  0  0  0  0  0  0  0  0  0  0
   -1.1002   20.9217  -27.6875 H   0  0  0  0  0  0  0  0  0  0  0  0
    0.3544   21.9757  -27.6875 H   0  0  0  0  0  0  0  0  0  0  0  0
   -1.0140   24.2330  -28.2410 N   0  0  0  0  0  0  0  0  0  0  0  0
  1  2  1  0
  2  3  2  0
  3  4  1  0
  4  5  2  0
  5  6  1  0
  6  7  1  0
  7  8  1  0
  7  9  1  0
  7 10  1  0
 10 11  1  0
 10 12  1  0
 10 13  1  0
 13 14  1  0
 14 15  2  0
 15 16  1  0
 15 17  1  0
 17 18  1  0
 17 19  2  0
 19 20  1  0
 19 21  1  0
 21 22  1  0
 21 23  2  0
 23 24  1  0
 13 25  1  0
 25 26  1  0
 25 27  1  0
 25 28  1  0
 28 29  1  0
 28 30  1  0
  5 31  1  0
 31 32  1  0
 32 33  1  0
 32 34  1  0
 32 35  1  0
 31 36  2  0
 36 37  1  0
 37 38  1  0
 37 39  1  0
 37 40  1  0
 36 41  1  0
 41  3  1  0
 28  6  1  0
 23 14  1  0
M  CHG  1  41  -1
M  END
>  <UniqueID>  (46) 
43

>  <SMILES>  (46) 
[H]/N=c1/nc(N2CCN(c3ccccc3)CC2)c(C)c(C)[n-]1

>  <Energy>  (46) 
53.40718758544298

>  <Genealogy>  (46) 
Cc1[n-]c(=N)nc(N2CCN(c3ccccc3)CC2)c1C (protonated)
[H]/N=c1/nc(N2CCN(c3ccccc3)CC2)c(C)c(C)[n-]1 (cis-trans isomerization)
[H]/N=c1/nc(N2CCN(c3ccccc3)CC2)c(C)c(C)[n-]1 (3D coordinates assigned)
[H]/N=c1/nc(N2CCN(c3ccccc3)CC2)c(C)c(C)[n-]1 (nonaromatic ring conformer: 53.40718758544298 kcal/mol)

>  <smiles>  (46) 
Cc1[nH]c(=N)nc(N2CCN(c3ccccc3)CC2)c1C

>  <score_type>  (46) 
oracle

>  <origin>  (46) 
adgpu

>  <m_score__min__energy>  (46) 
-9.0700000000000003

>  <m_primary>  (46) 
energy

$$$$
46:0
     RDKit          3D

 35 36  0  0  0  0  0  0  0  0999 V2000
   -7.3999   24.7941  -32.0432 H   0  0  0  0  0  0  0  0  0  0  0  0
   -6.8090   23.8930  -31.8220 C   0  0  0  0  0  0  0  0  0  0  0  0
   -7.2420   22.7300  -32.3270 C   0  0  0  0  0  0  0  0  0  0  0  0
   -8.2095   22.7270  -32.8503 H   0  0  0  0  0  0  0  0  0  0  0  0
   -6.5090   21.4520  -32.2290 C   0  0  0  0  0  0  0  0  0  0  0  0
   -5.2080   21.2830  -32.5740 N   0  0  0  0  0  0  0  0  0  0  0  0
   -4.2780   22.2870  -33.0960 C   0  0  0  0  0  0  0  0  0  0  0  0
   -3.7940   22.8095  -32.2577 H   0  0  0  0  0  0  0  0  0  0  0  0
   -3.5119   21.7924  -33.7112 H   0  0  0  0  0  0  0  0  0  0  0  0
   -4.8297   23.0131  -33.7112 H   0  0  0  0  0  0  0  0  0  0  0  0
   -4.9450   19.9730  -32.3660 C   0  0  0  0  0  0  0  0  0  0  0  0
   -3.6300   19.3050  -32.6390 C   0  0  0  0  0  0  0  0  0  0  0  0
   -3.1403   19.0562  -31.6860 H   0  0  0  0  0  0  0  0  0  0  0  0
   -3.7995   18.3837  -33.2156 H   0  0  0  0  0  0  0  0  0  0  0  0
   -2.9859   19.9852  -33.2156 H   0  0  0  0  0  0  0  0  0  0  0  0
   -6.1150   19.3510  -31.9570 C   0  0  0  0  0  0  0  0  0  0  0  0
   -6.2840   17.8950  -31.6340 C   0  0  0  0  0  0  0  0  0  0  0  0
   -6.2996   17.7610  -30.5423 H   0  0  0  0  0  0  0  0  0  0  0  0
   -7.2303   17.5320  -32.0615 H   0  0  0  0  0  0  0  0  0  0  0  0
   -5.4460   17.3249  -32.0615 H   0  0  0  0  0  0  0  0  0  0  0  0
   -7.0820   20.2880  -31.8460 N   0  0  0  0  0  0  0  0  0  0  0  0
   -8.4790   20.0710  -31.4690 C   0  0  0  0  0  0  0  0  0  0  0  0
   -8.5650   20.0576  -30.3725 H   0  0  0  0  0  0  0  0  0  0  0  0
   -9.0990   20.8836  -31.8756 H   0  0  0  0  0  0  0  0  0  0  0  0
   -8.8233   19.1086  -31.8756 H   0  0  0  0  0  0  0  0  0  0  0  0
   -5.5990   24.0580  -30.9910 C   0  0  0  0  0  0  0  0  0  0  0  0
   -4.6100   24.9450  -31.2180 N   0  0  0  0  0  0  0  0  0  0  0  0
   -3.7080   24.7520  -30.3000 O   0  0  0  0  0  0  0  0  0  0  0  0
   -4.0600   23.7750  -29.4960 C   0  0  0  0  0  0  0  0  0  0  0  0
   -3.2520   23.2950  -28.3390 C   0  0  0  0  0  0  0  0  0  0  0  0
   -3.7453   23.5881  -27.4005 H   0  0  0  0  0  0  0  0  0  0  0  0
   -3.1659   22.1992  -28.3813 H   0  0  0  0  0  0  0  0  0  0  0  0
   -2.2485   23.7435  -28.3813 H   0  0  0  0  0  0  0  0  0  0  0  0
   -5.2800   23.2770  -29.9000 C   0  0  0  0  0  0  0  0  0  0  0  0
   -5.8603   22.4537  -29.4580 H   0  0  0  0  0  0  0  0  0  0  0  0
  1  2  1  0
  2  3  2  0
  3  4  1  0
  3  5  1  0
  5  6  1  0
  6  7  1  0
  7  8  1  0
  7  9  1  0
  7 10  1  0
  6 11  1  0
 11 12  1  0
 12 13  1  0
 12 14  1  0
 12 15  1  0
 11 16  2  0
 16 17  1  0
 17 18  1  0
 17 19  1  0
 17 20  1  0
 16 21  1  0
 21 22  1  0
 22 23  1  0
 22 24  1  0
 22 25  1  0
  2 26  1  0
 26 27  2  0
 27 28  1  0
 28 29  1  0
 29 30  1  0
 30 31  1  0
 30 32  1  0
 30 33  1  0
 29 34  2  0
 34 35  1  0
 21  5  2  0
 34 26  1  0
M  CHG  1  21   1
M  END
>  <UniqueID>  (47) 
44

>  <SMILES>  (47) 
Cc1cc(/C=C\c2n(C)c(C)c(C)[n+]2C)no1

>  <Energy>  (47) 
100.26724085926479

>  <Genealogy>  (47) 
Cc1cc(/C=C\c2n(C)c(C)c(C)[n+]2C)no1 (cis-trans isomerization)
Cc1cc(/C=C\c2n(C)c(C)c(C)[n+]2C)no1 (3D coordinates assigned)
Cc1cc(/C=C\c2n(C)c(C)c(C)[n+]2C)no1 (optimized conformer: 100.26724085926479 kcal/mol)

>  <smiles>  (47) 
Cc1cc(C=Cc2n(C)c(C)c(C)[n+]2C)no1

>  <score_type>  (47) 
oracle

>  <origin>  (47) 
adgpu

>  <m_score__min__energy>  (47) 
-6.8899999999999997

>  <m_primary>  (47) 
energy

$$$$
47:0
     RDKit          3D

 49 51  0  0  0  0  0  0  0  0999 V2000
   -6.5800   24.9400  -30.4940 C   0  0  0  0  0  0  0  0  0  0  0  0
   -5.3870   24.0370  -30.3130 C   0  0  0  0  0  0  0  0  0  0  0  0
   -4.1550   24.6060  -29.9440 C   0  0  0  0  0  0  0  0  0  0  0  0
   -3.0200   23.8050  -29.7410 C   0  0  0  0  0  0  0  0  0  0  0  0
   -1.7330   24.4180  -29.3440 C   0  0  0  0  0  0  0  0  0  0  0  0
   -1.6000   25.6700  -29.3170 O   0  0  0  0  0  0  0  0  0  0  0  0
   -0.6500   23.6180  -28.9950 O   0  0  0  0  0  0  0  0  0  0  0  0
   -3.1260   22.4170  -29.9180 C   0  0  0  0  0  0  0  0  0  0  0  0
   -4.3370   21.8420  -30.3030 C   0  0  0  0  0  0  0  0  0  0  0  0
   -5.4710   22.6380  -30.5210 C   0  0  0  0  0  0  0  0  0  0  0  0
   -6.7240   21.9820  -30.9580 C   0  0  0  0  0  0  0  0  0  0  0  0
   -7.9640   22.4130  -30.4620 C   0  0  0  0  0  0  0  0  0  0  0  0
   -9.1440   21.7920  -30.8800 C   0  0  0  0  0  0  0  0  0  0  0  0
   -9.0960   20.7500  -31.8090 C   0  0  0  0  0  0  0  0  0  0  0  0
   -7.8630   20.3300  -32.3400 C   0  0  0  0  0  0  0  0  0  0  0  0
   -7.7740   19.2790  -33.2640 O   0  0  0  0  0  0  0  0  0  0  0  0
   -6.6310   18.5010  -33.5020 C   0  0  0  0  0  0  0  0  0  0  0  0
   -5.7150   18.8180  -34.5200 C   0  0  0  0  0  0  0  0  0  0  0  0
   -4.5810   18.0260  -34.7170 C   0  0  0  0  0  0  0  0  0  0  0  0
   -4.3430   16.9240  -33.8930 C   0  0  0  0  0  0  0  0  0  0  0  0
   -5.2330   16.6120  -32.8530 C   0  0  0  0  0  0  0  0  0  0  0  0
   -4.9700   15.4250  -31.9480 C   0  0  0  0  0  0  0  0  0  0  0  0
   -4.4190   14.2440  -32.6520 N   0  0  0  0  0  0  0  0  0  0  0  0
   -4.9330   12.9740  -32.1170 C   0  0  0  0  0  0  0  0  0  0  0  0
   -2.9490   14.2420  -32.6940 C   0  0  0  0  0  0  0  0  0  0  0  0
   -6.3770   17.4070  -32.6660 C   0  0  0  0  0  0  0  0  0  0  0  0
   -6.6830   20.9420  -31.9010 C   0  0  0  0  0  0  0  0  0  0  0  0
   -6.9696   25.2349  -29.5084 H   0  0  0  0  0  0  0  0  0  0  0  0
   -6.2785   25.8382  -31.0528 H   0  0  0  0  0  0  0  0  0  0  0  0
   -7.3626   24.4060  -31.0528 H   0  0  0  0  0  0  0  0  0  0  0  0
   -4.0795   25.6955  -29.8124 H   0  0  0  0  0  0  0  0  0  0  0  0
   -2.2468   21.7772  -29.7517 H   0  0  0  0  0  0  0  0  0  0  0  0
   -4.4034   20.7522  -30.4371 H   0  0  0  0  0  0  0  0  0  0  0  0
   -8.0073   23.2429  -29.7413 H   0  0  0  0  0  0  0  0  0  0  0  0
  -10.1120   22.1242  -30.4769 H   0  0  0  0  0  0  0  0  0  0  0  0
  -10.0261   20.2559  -32.1266 H   0  0  0  0  0  0  0  0  0  0  0  0
   -5.8916   19.6924  -35.1636 H   0  0  0  0  0  0  0  0  0  0  0  0
   -3.8739   18.2711  -35.5232 H   0  0  0  0  0  0  0  0  0  0  0  0
   -3.4542   16.2976  -34.0595 H   0  0  0  0  0  0  0  0  0  0  0  0
   -4.2522   15.7325  -31.1733 H   0  0  0  0  0  0  0  0  0  0  0  0
   -5.9406   15.1223  -31.5282 H   0  0  0  0  0  0  0  0  0  0  0  0
   -4.9196   13.0071  -31.0176 H   0  0  0  0  0  0  0  0  0  0  0  0
   -5.9644   12.8195  -32.4667 H   0  0  0  0  0  0  0  0  0  0  0  0
   -4.2994   12.1456  -32.4667 H   0  0  0  0  0  0  0  0  0  0  0  0
   -2.5529   14.2415  -31.6678 H   0  0  0  0  0  0  0  0  0  0  0  0
   -2.5985   13.3434  -33.2228 H   0  0  0  0  0  0  0  0  0  0  0  0
   -2.5961   15.1397  -33.2228 H   0  0  0  0  0  0  0  0  0  0  0  0
   -7.0799   17.1672  -31.8546 H   0  0  0  0  0  0  0  0  0  0  0  0
   -5.7142   20.6051  -32.2985 H   0  0  0  0  0  0  0  0  0  0  0  0
  1  2  1  0
  2  3  2  0
  3  4  1  0
  4  5  1  0
  5  6  2  0
  5  7  1  0
  4  8  2  0
  8  9  1  0
  9 10  2  0
 10 11  1  0
 11 12  2  0
 12 13  1  0
 13 14  2  0
 14 15  1  0
 15 16  1  0
 16 17  1  0
 17 18  2  0
 18 19  1  0
 19 20  2  0
 20 21  1  0
 21 22  1  0
 22 23  1  0
 23 24  1  0
 23 25  1  0
 21 26  2  0
 15 27  2  0
 10  2  1  0
 27 11  1  0
 26 17  1  0
  1 28  1  0
  1 29  1  0
  1 30  1  0
  3 31  1  0
  8 32  1  0
  9 33  1  0
 12 34  1  0
 13 35  1  0
 14 36  1  0
 18 37  1  0
 19 38  1  0
 20 39  1  0
 22 40  1  0
 22 41  1  0
 24 42  1  0
 24 43  1  0
 24 44  1  0
 25 45  1  0
 25 46  1  0
 25 47  1  0
 26 48  1  0
 27 49  1  0
M  CHG  1   7  -1
M  END
>  <UniqueID>  (48) 
45

>  <SMILES>  (48) 
Cc1cc(C(=O)[O-])ccc1-c1cccc(Oc2cccc(CN(C)C)c2)c1

>  <Energy>  (48) 
67.59798964141437

>  <Genealogy>  (48) 
Cc1cc(C(=O)[O-])ccc1-c1cccc(Oc2cccc(CN(C)C)c2)c1 (protonated)
Cc1cc(C(=O)[O-])ccc1-c1cccc(Oc2cccc(CN(C)C)c2)c1 (3D coordinates assigned)
Cc1cc(C(=O)[O-])ccc1-c1cccc(Oc2cccc(CN(C)C)c2)c1 (optimized conformer: 67.59798964141437 kcal/mol)

>  <smiles>  (48) 
Cc1cc(C(=O)O)ccc1-c1cccc(Oc2cccc(CN(C)C)c2)c1

>  <score_type>  (48) 
oracle

>  <origin>  (48) 
adgpu

>  <m_score__min__energy>  (48) 
-10.57

>  <m_primary>  (48) 
energy

$$$$
48:0
     RDKit          3D

 48 51  0  0  0  0  0  0  0  0999 V2000
   -0.0260   22.2940  -23.3170 C   0  0  0  0  0  0  0  0  0  0  0  0
    0.5160   22.8910  -24.4910 O   0  0  0  0  0  0  0  0  0  0  0  0
    0.0460   22.6510  -25.7890 C   0  0  0  0  0  0  0  0  0  0  0  0
    0.5500   23.3360  -26.9140 C   0  0  0  0  0  0  0  0  0  0  0  0
    0.0430   23.0670  -28.1880 C   0  0  0  0  0  0  0  0  0  0  0  0
   -0.9740   22.1180  -28.3560 C   0  0  0  0  0  0  0  0  0  0  0  0
   -1.5180   21.8650  -29.6650 N   0  0  0  0  0  0  0  0  0  0  0  0
   -2.3400   22.7880  -30.2690 C   0  0  0  0  0  0  0  0  0  0  0  0
   -2.6850   24.0960  -29.6090 C   0  0  0  0  0  0  0  0  0  0  0  0
   -3.4860   24.9030  -30.5260 N   0  0  0  0  0  0  0  0  0  0  0  0
   -5.1310   24.9730  -29.9760 S   0  0  0  0  0  0  0  0  0  0  0  0
   -5.1620   24.9170  -28.4740 O   0  0  0  0  0  0  0  0  0  0  0  0
   -5.7420   26.2740  -30.4160 O   0  0  0  0  0  0  0  0  0  0  0  0
   -6.0620   23.6390  -30.6520 C   0  0  0  0  0  0  0  0  0  0  0  0
   -5.7090   23.1000  -31.8960 C   0  0  0  0  0  0  0  0  0  0  0  0
   -6.4300   22.0270  -32.4280 C   0  0  0  0  0  0  0  0  0  0  0  0
   -7.5050   21.4830  -31.7170 C   0  0  0  0  0  0  0  0  0  0  0  0
   -8.4880   20.0160  -32.4420 Br  0  0  0  0  0  0  0  0  0  0  0  0
   -7.8560   22.0140  -30.4700 C   0  0  0  0  0  0  0  0  0  0  0  0
   -7.1360   23.0880  -29.9380 C   0  0  0  0  0  0  0  0  0  0  0  0
   -2.8330   22.5470  -31.5120 N   0  0  0  0  0  0  0  0  0  0  0  0
   -2.5480   21.4050  -32.1810 C   0  0  0  0  0  0  0  0  0  0  0  0
   -3.0790   21.1900  -33.4580 C   0  0  0  0  0  0  0  0  0  0  0  0
   -2.7840   20.0120  -34.1500 C   0  0  0  0  0  0  0  0  0  0  0  0
   -1.9590   19.0450  -33.5680 C   0  0  0  0  0  0  0  0  0  0  0  0
   -1.4240   19.2520  -32.2930 C   0  0  0  0  0  0  0  0  0  0  0  0
   -1.7150   20.4360  -31.5890 C   0  0  0  0  0  0  0  0  0  0  0  0
   -1.2030   20.6960  -30.3070 C   0  0  0  0  0  0  0  0  0  0  0  0
   -0.4510   19.8480  -29.7470 O   0  0  0  0  0  0  0  0  0  0  0  0
   -1.4700   21.4270  -27.2410 C   0  0  0  0  0  0  0  0  0  0  0  0
   -0.9630   21.6960  -25.9680 C   0  0  0  0  0  0  0  0  0  0  0  0
    0.4091   22.7732  -22.4276 H   0  0  0  0  0  0  0  0  0  0  0  0
   -1.1178   22.4275  -23.3083 H   0  0  0  0  0  0  0  0  0  0  0  0
    0.2121   21.2201  -23.3083 H   0  0  0  0  0  0  0  0  0  0  0  0
    1.3455   24.0852  -26.7880 H   0  0  0  0  0  0  0  0  0  0  0  0
    0.4436   23.6019  -29.0617 H   0  0  0  0  0  0  0  0  0  0  0  0
   -3.2595   23.9040  -28.6908 H   0  0  0  0  0  0  0  0  0  0  0  0
   -1.7607   24.6355  -29.3547 H   0  0  0  0  0  0  0  0  0  0  0  0
   -4.8617   23.5225  -32.4560 H   0  0  0  0  0  0  0  0  0  0  0  0
   -6.1517   21.6098  -33.4070 H   0  0  0  0  0  0  0  0  0  0  0  0
   -8.6992   21.5858  -29.9082 H   0  0  0  0  0  0  0  0  0  0  0  0
   -7.4126   23.5018  -28.9570 H   0  0  0  0  0  0  0  0  0  0  0  0
   -3.7292   21.9490  -33.9175 H   0  0  0  0  0  0  0  0  0  0  0  0
   -3.2016   19.8455  -35.1540 H   0  0  0  0  0  0  0  0  0  0  0  0
   -1.7301   18.1184  -34.1149 H   0  0  0  0  0  0  0  0  0  0  0  0
   -0.7748   18.4887  -31.8392 H   0  0  0  0  0  0  0  0  0  0  0  0
   -2.2596   20.6720  -27.3694 H   0  0  0  0  0  0  0  0  0  0  0  0
   -1.3597   21.1528  -25.0976 H   0  0  0  0  0  0  0  0  0  0  0  0
  1  2  1  0
  2  3  1  0
  3  4  2  0
  4  5  1  0
  5  6  2  0
  6  7  1  0
  7  8  1  0
  8  9  1  0
  9 10  1  0
 10 11  1  0
 11 12  2  0
 11 13  2  0
 11 14  1  0
 14 15  2  0
 15 16  1  0
 16 17  2  0
 17 18  1  0
 17 19  1  0
 19 20  2  0
  8 21  2  0
 21 22  1  0
 22 23  2  0
 23 24  1  0
 24 25  2  0
 25 26  1  0
 26 27  2  0
 27 28  1  0
 28 29  2  0
  6 30  1  0
 30 31  2  0
 31  3  1  0
 28  7  1  0
 20 14  1  0
 27 22  1  0
  1 32  1  0
  1 33  1  0
  1 34  1  0
  4 35  1  0
  5 36  1  0
  9 37  1  0
  9 38  1  0
 15 39  1  0
 16 40  1  0
 19 41  1  0
 20 42  1  0
 23 43  1  0
 24 44  1  0
 25 45  1  0
 26 46  1  0
 30 47  1  0
 31 48  1  0
M  CHG  1  10  -1
M  END
>  <UniqueID>  (49) 
46

>  <SMILES>  (49) 
COc1ccc(-n2c(C[N-]S(=O)(=O)c3ccc(Br)cc3)nc3ccccc3c2=O)cc1

>  <Energy>  (49) 
63.1409340775601

>  <Genealogy>  (49) 
COc1ccc(-n2c(C[N-]S(=O)(=O)c3ccc(Br)cc3)nc3ccccc3c2=O)cc1 (protonated)
COc1ccc(-n2c(C[N-]S(=O)(=O)c3ccc(Br)cc3)nc3ccccc3c2=O)cc1 (3D coordinates assigned)
COc1ccc(-n2c(C[N-]S(=O)(=O)c3ccc(Br)cc3)nc3ccccc3c2=O)cc1 (optimized conformer: 63.1409340775601 kcal/mol)

>  <smiles>  (49) 
COc1ccc(-n2c(CNS(=O)(=O)c3ccc(Br)cc3)nc3ccccc3c2=O)cc1

>  <score_type>  (49) 
oracle

>  <origin>  (49) 
adgpu

>  <m_score__min__energy>  (49) 
-10.57

>  <m_primary>  (49) 
energy

$$$$
49:0
     RDKit          3D

 37 40  0  0  0  0  0  0  0  0999 V2000
   -4.3521   21.1620  -33.1643 H   0  0  0  0  0  0  0  0  0  0  0  0
   -5.1520   21.7120  -32.6470 C   0  0  0  0  0  0  0  0  0  0  0  0
   -4.9510   23.0450  -32.2810 C   0  0  0  0  0  0  0  0  0  0  0  0
   -3.9938   23.5367  -32.5090 H   0  0  0  0  0  0  0  0  0  0  0  0
   -5.9640   23.7600  -31.6240 C   0  0  0  0  0  0  0  0  0  0  0  0
   -5.7320   25.1890  -31.2100 C   0  0  0  0  0  0  0  0  0  0  0  0
   -5.9812   25.8542  -32.0499 H   0  0  0  0  0  0  0  0  0  0  0  0
   -6.3705   25.4164  -30.3436 H   0  0  0  0  0  0  0  0  0  0  0  0
   -4.3330   25.3930  -30.8330 N   0  0  0  0  0  0  0  0  0  0  0  0
   -3.7050   24.6900  -29.9390 C   0  0  0  0  0  0  0  0  0  0  0  0
   -4.2890   23.6800  -29.2390 N   0  0  0  0  0  0  0  0  0  0  0  0
   -3.2810   23.2600  -28.4610 C   0  0  0  0  0  0  0  0  0  0  0  0
   -3.2920   22.2310  -27.5250 C   0  0  0  0  0  0  0  0  0  0  0  0
   -4.2032   21.6424  -27.3423 H   0  0  0  0  0  0  0  0  0  0  0  0
   -2.1390   21.9720  -26.8390 N   0  0  0  0  0  0  0  0  0  0  0  0
   -0.9910   22.6910  -27.0510 C   0  0  0  0  0  0  0  0  0  0  0  0
    0.1700   22.3960  -26.3280 C   0  0  0  0  0  0  0  0  0  0  0  0
    0.1639   21.5844  -25.5855 H   0  0  0  0  0  0  0  0  0  0  0  0
    1.3390   23.1330  -26.5490 C   0  0  0  0  0  0  0  0  0  0  0  0
    2.2503   22.8968  -25.9800 H   0  0  0  0  0  0  0  0  0  0  0  0
    1.3550   24.1690  -27.4900 C   0  0  0  0  0  0  0  0  0  0  0  0
    2.2784   24.7433  -27.6556 H   0  0  0  0  0  0  0  0  0  0  0  0
    0.2030   24.4780  -28.2210 C   0  0  0  0  0  0  0  0  0  0  0  0
    0.2190   25.2923  -28.9604 H   0  0  0  0  0  0  0  0  0  0  0  0
   -0.9720   23.7440  -28.0060 C   0  0  0  0  0  0  0  0  0  0  0  0
   -2.1600   23.9920  -28.6940 C   0  0  0  0  0  0  0  0  0  0  0  0
   -2.4000   24.9170  -29.6370 N   0  0  0  0  0  0  0  0  0  0  0  0
   -7.1780   23.1200  -31.3320 C   0  0  0  0  0  0  0  0  0  0  0  0
   -7.9757   23.6706  -30.8119 H   0  0  0  0  0  0  0  0  0  0  0  0
   -7.3790   21.7850  -31.6990 C   0  0  0  0  0  0  0  0  0  0  0  0
   -8.3351   21.2919  -31.4693 H   0  0  0  0  0  0  0  0  0  0  0  0
   -6.3630   21.0700  -32.3610 C   0  0  0  0  0  0  0  0  0  0  0  0
   -6.5150   19.7300  -32.7480 O   0  0  0  0  0  0  0  0  0  0  0  0
   -7.6170   18.9070  -32.3800 C   0  0  0  0  0  0  0  0  0  0  0  0
   -7.6860   18.8554  -31.2834 H   0  0  0  0  0  0  0  0  0  0  0  0
   -8.5456   19.3345  -32.7862 H   0  0  0  0  0  0  0  0  0  0  0  0
   -7.4708   17.8952  -32.7862 H   0  0  0  0  0  0  0  0  0  0  0  0
  1  2  1  0
  2  3  2  0
  3  4  1  0
  3  5  1  0
  5  6  1  0
  6  7  1  0
  6  8  1  0
  6  9  1  0
  9 10  2  0
 10 11  1  0
 11 12  1  0
 12 13  2  0
 13 14  1  0
 13 15  1  0
 15 16  2  0
 16 17  1  0
 17 18  1  0
 17 19  2  0
 19 20  1  0
 19 21  1  0
 21 22  1  0
 21 23  2  0
 23 24  1  0
 23 25  1  0
 25 26  2  0
 26 27  1  0
  5 28  2  0
 28 29  1  0
 28 30  1  0
 30 31  1  0
 30 32  2  0
 32 33  1  0
 33 34  1  0
 34 35  1  0
 34 36  1  0
 34 37  1  0
 32  2  1  0
 27 10  1  0
 26 12  1  0
 25 16  1  0
M  CHG  2  11  -1  27  -1
M  END
>  <UniqueID>  (50) 
47

>  <SMILES>  (50) 
COc1ccc(C/N=c2\[n-]c3cnc4ccccc4c3[n-]2)cc1

>  <Energy>  (50) 
78.93348583032346

>  <Genealogy>  (50) 
COc1ccc(CN=c2[n-]c3cnc4ccccc4c3[n-]2)cc1 (protonated)
COc1ccc(C/N=c2\[n-]c3cnc4ccccc4c3[n-]2)cc1 (cis-trans isomerization)
COc1ccc(C/N=c2\[n-]c3cnc4ccccc4c3[n-]2)cc1 (3D coordinates assigned)
COc1ccc(C/N=c2\[n-]c3cnc4ccccc4c3[n-]2)cc1 (optimized conformer: 78.93348583032346 kcal/mol)

>  <smiles>  (50) 
COc1ccc(CN=c2[nH]c3cnc4ccccc4c3[nH]2)cc1

>  <score_type>  (50) 
oracle

>  <origin>  (50) 
adgpu

>  <m_score__min__energy>  (50) 
-9.4900000000000002

>  <m_primary>  (50) 
energy

$$$$
