0:0
     RDKit          3D

 26 27  0  0  0  0  0  0  0  0999 V2000
   -7.4800   19.6340  -34.5340 H   0  0  0  0  0  0  0  0  0  0  0  0
   -6.4880   19.6610  -34.5070 O   0  0  0  0  0  0  0  0  0  0  0  0
   -6.1190   19.4850  -33.1660 C   0  0  0  0  0  0  0  0  0  0  0  0
   -5.0352   19.6429  -33.0634 H   0  0  0  0  0  0  0  0  0  0  0  0
   -6.3805   18.4636  -32.8524 H   0  0  0  0  0  0  0  0  0  0  0  0
   -6.8510   20.4710  -32.2920 C   0  0  0  0  0  0  0  0  0  0  0  0
   -6.1910   21.6340  -31.8590 C   0  0  0  0  0  0  0  0  0  0  0  0
   -5.1539   21.8211  -32.1743 H   0  0  0  0  0  0  0  0  0  0  0  0
   -6.8410   22.5570  -31.0300 C   0  0  0  0  0  0  0  0  0  0  0  0
   -5.9970   24.0030  -30.4870 S   0  0  0  0  0  0  0  0  0  0  0  0
   -5.1540   24.5420  -31.6100 O   0  0  0  0  0  0  0  0  0  0  0  0
   -6.9980   25.0480  -30.0770 O   0  0  0  0  0  0  0  0  0  0  0  0
   -4.9890   23.5940  -29.1390 N   0  0  0  0  0  0  0  0  0  0  0  0
   -3.7940   24.0690  -28.9790 C   0  0  0  0  0  0  0  0  0  0  0  0
   -3.1940   24.9260  -29.8240 N   0  0  0  0  0  0  0  0  0  0  0  0
   -2.0160   25.1630  -29.3200 O   0  0  0  0  0  0  0  0  0  0  0  0
   -1.8320   24.5030  -28.1970 C   0  0  0  0  0  0  0  0  0  0  0  0
   -0.9232   24.5327  -27.5779 H   0  0  0  0  0  0  0  0  0  0  0  0
   -2.9660   23.7680  -27.9240 C   0  0  0  0  0  0  0  0  0  0  0  0
   -3.1607   23.1027  -27.0699 H   0  0  0  0  0  0  0  0  0  0  0  0
   -8.1530   22.3070  -30.6100 C   0  0  0  0  0  0  0  0  0  0  0  0
   -8.6651   23.0254  -29.9530 H   0  0  0  0  0  0  0  0  0  0  0  0
   -8.8130   21.1480  -31.0230 C   0  0  0  0  0  0  0  0  0  0  0  0
   -9.8439   20.9580  -30.6895 H   0  0  0  0  0  0  0  0  0  0  0  0
   -8.1720   20.2270  -31.8580 C   0  0  0  0  0  0  0  0  0  0  0  0
   -9.0470   18.7730  -32.3300 Cl  0  0  0  0  0  0  0  0  0  0  0  0
  1  2  1  0
  2  3  1  0
  3  4  1  0
  3  5  1  0
  3  6  1  0
  6  7  2  0
  7  8  1  0
  7  9  1  0
  9 10  1  0
 10 11  2  0
 10 12  2  0
 10 13  1  0
 13 14  2  0
 14 15  1  0
 15 16  1  0
 16 17  1  0
 17 18  1  0
 17 19  2  0
 19 20  1  0
  9 21  2  0
 21 22  1  0
 21 23  1  0
 23 24  1  0
 23 25  2  0
 25 26  1  0
 25  6  1  0
 19 14  1  0
M  CHG  1  15  -1
M  END
>  <UniqueID>  (1) 
1

>  <SMILES>  (1) 
O=S(=O)(/N=c1/cco[n-]1)c1ccc(Cl)c(CO)c1

>  <Energy>  (1) 
61.442797303435306

>  <Genealogy>  (1) 
O=S(=O)(N=c1cco[n-]1)c1ccc(Cl)c(CO)c1 (protonated)
O=S(=O)(/N=c1/cco[n-]1)c1ccc(Cl)c(CO)c1 (cis-trans isomerization)
O=S(=O)(/N=c1/cco[n-]1)c1ccc(Cl)c(CO)c1 (3D coordinates assigned)
O=S(=O)(/N=c1/cco[n-]1)c1ccc(Cl)c(CO)c1 (optimized conformer: 61.442797303435306 kcal/mol)

>  <smiles>  (1) 
O=S(=O)(N=c1cco[nH]1)c1ccc(Cl)c(CO)c1

>  <score_type>  (1) 
oracle

>  <origin>  (1) 
adgpu

>  <m_score__min__energy>  (1) 
-9.5700000000000003

>  <m_primary>  (1) 
energy

$$$$
1:0
     RDKit          3D

 28 29  0  0  0  0  0  0  0  0999 V2000
   -4.0350   20.5390  -33.2410 C   0  0  0  0  0  0  0  0  0  0  0  0
   -5.4050   20.2950  -33.5380 O   0  0  0  0  0  0  0  0  0  0  0  0
   -6.4790   20.7850  -32.7790 C   0  0  0  0  0  0  0  0  0  0  0  0
   -7.6780   20.0660  -32.6140 C   0  0  0  0  0  0  0  0  0  0  0  0
   -8.7210   20.6020  -31.8540 C   0  0  0  0  0  0  0  0  0  0  0  0
   -8.5790   21.8520  -31.2490 C   0  0  0  0  0  0  0  0  0  0  0  0
   -7.3850   22.5740  -31.3910 C   0  0  0  0  0  0  0  0  0  0  0  0
   -7.2440   23.9370  -30.7730 C   0  0  0  0  0  0  0  0  0  0  0  0
   -5.8000   24.2420  -30.5250 C   0  0  0  0  0  0  0  0  0  0  0  0
   -5.1600   25.4220  -30.8220 C   0  0  0  0  0  0  0  0  0  0  0  0
   -3.8540   25.2920  -30.5330 N   0  0  0  0  0  0  0  0  0  0  0  0
   -3.7470   24.0300  -30.0660 C   0  0  0  0  0  0  0  0  0  0  0  0
   -2.4460   23.4170  -29.6750 C   0  0  0  0  0  0  0  0  0  0  0  0
   -4.9120   23.3460  -30.0640 N   0  0  0  0  0  0  0  0  0  0  0  0
   -6.3430   22.0390  -32.1680 C   0  0  0  0  0  0  0  0  0  0  0  0
   -3.8951   20.5639  -32.1502 H   0  0  0  0  0  0  0  0  0  0  0  0
   -3.4179   19.7366  -33.6716 H   0  0  0  0  0  0  0  0  0  0  0  0
   -3.7329   21.5051  -33.6716 H   0  0  0  0  0  0  0  0  0  0  0  0
   -7.7943   19.0788  -33.0850 H   0  0  0  0  0  0  0  0  0  0  0  0
   -9.6570   20.0371  -31.7321 H   0  0  0  0  0  0  0  0  0  0  0  0
   -9.4066   22.2723  -30.6587 H   0  0  0  0  0  0  0  0  0  0  0  0
   -7.6632   24.6911  -31.4554 H   0  0  0  0  0  0  0  0  0  0  0  0
   -7.7857   23.9563  -29.8158 H   0  0  0  0  0  0  0  0  0  0  0  0
   -5.6386   26.3247  -31.2295 H   0  0  0  0  0  0  0  0  0  0  0  0
   -2.3721   23.3822  -28.5780 H   0  0  0  0  0  0  0  0  0  0  0  0
   -2.3857   22.3957  -30.0792 H   0  0  0  0  0  0  0  0  0  0  0  0
   -1.6200   24.0207  -30.0792 H   0  0  0  0  0  0  0  0  0  0  0  0
   -5.4118   22.6100  -32.2978 H   0  0  0  0  0  0  0  0  0  0  0  0
  1  2  1  0
  2  3  1  0
  3  4  2  0
  4  5  1  0
  5  6  2  0
  6  7  1  0
  7  8  1  0
  8  9  1  0
  9 10  2  0
 10 11  1  0
 11 12  1  0
 12 13  1  0
 12 14  2  0
  7 15  2  0
 15  3  1  0
 14  9  1  0
  1 16  1  0
  1 17  1  0
  1 18  1  0
  4 19  1  0
  5 20  1  0
  6 21  1  0
  8 22  1  0
  8 23  1  0
 10 24  1  0
 13 25  1  0
 13 26  1  0
 13 27  1  0
 15 28  1  0
M  CHG  1  11  -1
M  END
>  <UniqueID>  (2) 
2

>  <SMILES>  (2) 
COc1cccc(Cc2c[n-]c(C)n2)c1

>  <Energy>  (2) 
51.30236733149151

>  <Genealogy>  (2) 
COc1cccc(Cc2c[n-]c(C)n2)c1 (protonated)
COc1cccc(Cc2c[n-]c(C)n2)c1 (3D coordinates assigned)
COc1cccc(Cc2c[n-]c(C)n2)c1 (optimized conformer: 51.30236733149151 kcal/mol)

>  <smiles>  (2) 
COc1cccc(Cc2c[nH]c(C)n2)c1

>  <score_type>  (2) 
oracle

>  <origin>  (2) 
adgpu

>  <m_score__min__energy>  (2) 
-7.2199999999999998

>  <m_primary>  (2) 
energy

$$$$
2:0
     RDKit          3D

 17 18  0  0  0  0  0  0  0  0999 V2000
   -8.4870   20.4050  -32.4050 C   0  0  0  0  0  0  0  0  0  0  0  0
   -7.1150   20.4370  -32.6630 C   0  0  0  0  0  0  0  0  0  0  0  0
   -6.3390   21.5060  -32.2040 C   0  0  0  0  0  0  0  0  0  0  0  0
   -6.9330   22.5560  -31.4800 C   0  0  0  0  0  0  0  0  0  0  0  0
   -6.1160   23.6870  -30.9920 C   0  0  0  0  0  0  0  0  0  0  0  0
   -4.9930   24.1310  -31.5930 N   0  0  0  0  0  0  0  0  0  0  0  0
   -4.5830   25.1420  -30.8430 N   0  0  0  0  0  0  0  0  0  0  0  0
   -5.4210   25.3000  -29.8350 N   0  0  0  0  0  0  0  0  0  0  0  0
   -6.3960   24.4100  -29.8910 N   0  0  0  0  0  0  0  0  0  0  0  0
   -8.3170   22.5150  -31.2250 C   0  0  0  0  0  0  0  0  0  0  0  0
   -9.0870   21.4420  -31.6880 C   0  0  0  0  0  0  0  0  0  0  0  0
   -9.0951   19.5627  -32.7667 H   0  0  0  0  0  0  0  0  0  0  0  0
   -6.6436   19.6196  -33.2285 H   0  0  0  0  0  0  0  0  0  0  0  0
   -5.2587   21.5260  -32.4101 H   0  0  0  0  0  0  0  0  0  0  0  0
   -5.3260   26.0300  -29.0940 H   0  0  0  0  0  0  0  0  0  0  0  0
   -8.7947   23.3290  -30.6600 H   0  0  0  0  0  0  0  0  0  0  0  0
  -10.1681   21.4155  -31.4865 H   0  0  0  0  0  0  0  0  0  0  0  0
  1  2  2  0
  2  3  1  0
  3  4  2  0
  4  5  1  0
  5  6  1  0
  6  7  2  0
  7  8  1  0
  8  9  1  0
  4 10  1  0
 10 11  2  0
 11  1  1  0
  9  5  2  0
  1 12  1  0
  2 13  1  0
  3 14  1  0
  8 15  1  0
 10 16  1  0
 11 17  1  0
M  END
>  <UniqueID>  (3) 
3

>  <SMILES>  (3) 
c1ccc(-c2nn[nH]n2)cc1

>  <Energy>  (3) 
56.31262171519002

>  <Genealogy>  (3) 
c1ccc(-c2nn[nH]n2)cc1 (3D coordinates assigned)
c1ccc(-c2nn[nH]n2)cc1 (optimized conformer: 56.31262171519002 kcal/mol)

>  <smiles>  (3) 
c1ccc(-c2nn[nH]n2)cc1

>  <score_type>  (3) 
oracle

>  <origin>  (3) 
adgpu

>  <m_score__min__energy>  (3) 
-6.6399999999999997

>  <m_primary>  (3) 
energy

$$$$
3:0
     RDKit          3D

 41 42  0  0  0  0  0  0  0  0999 V2000
   -7.8900   19.0290  -32.4350 C   0  0  0  0  0  0  0  0  0  0  0  0
   -7.5560   20.2590  -33.0680 O   0  0  0  0  0  0  0  0  0  0  0  0
   -6.9920   21.3150  -32.3490 C   0  0  0  0  0  0  0  0  0  0  0  0
   -5.5940   21.5020  -32.3410 C   0  0  0  0  0  0  0  0  0  0  0  0
   -4.6870   20.5820  -33.1100 C   0  0  0  0  0  0  0  0  0  0  0  0
   -5.0470   22.6000  -31.6610 C   0  0  0  0  0  0  0  0  0  0  0  0
   -5.8720   23.4900  -30.9690 C   0  0  0  0  0  0  0  0  0  0  0  0
   -5.1660   24.8920  -30.1700 S   0  0  0  0  0  0  0  0  0  0  0  0
   -3.8670   25.2810  -30.8200 O   0  0  0  0  0  0  0  0  0  0  0  0
   -6.1280   26.0420  -30.2700 O   0  0  0  0  0  0  0  0  0  0  0  0
   -4.8750   24.5300  -28.4970 N   0  0  0  0  0  0  0  0  0  0  0  0
   -3.6990   23.8510  -28.0200 C   0  0  0  0  0  0  0  0  0  0  0  0
   -2.7900   24.5440  -27.2060 C   0  0  0  0  0  0  0  0  0  0  0  0
   -1.6490   23.9060  -26.7130 C   0  0  0  0  0  0  0  0  0  0  0  0
   -1.4000   22.5700  -27.0340 C   0  0  0  0  0  0  0  0  0  0  0  0
   -2.2890   21.8700  -27.8550 C   0  0  0  0  0  0  0  0  0  0  0  0
   -1.9740   20.1520  -28.2630 S   0  0  0  0  0  0  0  0  0  0  0  0
   -2.7050   19.5260  -26.7170 C   0  0  0  0  0  0  0  0  0  0  0  0
   -3.4320   22.5090  -28.3520 C   0  0  0  0  0  0  0  0  0  0  0  0
   -7.2550   23.2810  -30.9430 C   0  0  0  0  0  0  0  0  0  0  0  0
   -7.8220   22.1890  -31.6180 C   0  0  0  0  0  0  0  0  0  0  0  0
   -9.3130   22.0080  -31.6170 C   0  0  0  0  0  0  0  0  0  0  0  0
   -7.8552   19.1573  -31.3431 H   0  0  0  0  0  0  0  0  0  0  0  0
   -8.9033   18.7248  -32.7363 H   0  0  0  0  0  0  0  0  0  0  0  0
   -7.1697   18.2541  -32.7363 H   0  0  0  0  0  0  0  0  0  0  0  0
   -4.0934   19.9799  -32.4064 H   0  0  0  0  0  0  0  0  0  0  0  0
   -5.2916   19.9160  -33.7431 H   0  0  0  0  0  0  0  0  0  0  0  0
   -4.0124   21.1771  -33.7431 H   0  0  0  0  0  0  0  0  0  0  0  0
   -3.9590   22.7617  -31.6727 H   0  0  0  0  0  0  0  0  0  0  0  0
   -5.6520   24.7280  -27.8280 H   0  0  0  0  0  0  0  0  0  0  0  0
   -2.9773   25.5982  -26.9540 H   0  0  0  0  0  0  0  0  0  0  0  0
   -0.9458   24.4569  -26.0711 H   0  0  0  0  0  0  0  0  0  0  0  0
   -0.5037   22.0680  -26.6406 H   0  0  0  0  0  0  0  0  0  0  0  0
   -2.1834   19.9726  -25.8576 H   0  0  0  0  0  0  0  0  0  0  0  0
   -3.7707   19.7958  -26.6798 H   0  0  0  0  0  0  0  0  0  0  0  0
   -2.6024   18.4314  -26.6798 H   0  0  0  0  0  0  0  0  0  0  0  0
   -4.1252   21.9591  -29.0056 H   0  0  0  0  0  0  0  0  0  0  0  0
   -7.9024   23.9773  -30.3898 H   0  0  0  0  0  0  0  0  0  0  0  0
   -9.6763   21.9639  -30.5797 H   0  0  0  0  0  0  0  0  0  0  0  0
   -9.7856   22.8554  -32.1353 H   0  0  0  0  0  0  0  0  0  0  0  0
   -9.5691   21.0722  -32.1353 H   0  0  0  0  0  0  0  0  0  0  0  0
  1  2  1  0
  2  3  1  0
  3  4  2  0
  4  5  1  0
  4  6  1  0
  6  7  2  0
  7  8  1  0
  8  9  2  0
  8 10  2  0
  8 11  1  0
 11 12  1  0
 12 13  2  0
 13 14  1  0
 14 15  2  0
 15 16  1  0
 16 17  1  0
 17 18  1  0
 16 19  2  0
  7 20  1  0
 20 21  2  0
 21 22  1  0
 21  3  1  0
 19 12  1  0
  1 23  1  0
  1 24  1  0
  1 25  1  0
  5 26  1  0
  5 27  1  0
  5 28  1  0
  6 29  1  0
 11 30  1  0
 13 31  1  0
 14 32  1  0
 15 33  1  0
 18 34  1  0
 18 35  1  0
 18 36  1  0
 19 37  1  0
 20 38  1  0
 22 39  1  0
 22 40  1  0
 22 41  1  0
M  END
>  <UniqueID>  (4) 
4

>  <SMILES>  (4) 
COc1c(C)cc(S(=O)(=O)Nc2cccc(SC)c2)cc1C

>  <Energy>  (4) 
43.94593827476951

>  <Genealogy>  (4) 
COc1c(C)cc(S(=O)(=O)Nc2cccc(SC)c2)cc1C (3D coordinates assigned)
COc1c(C)cc(S(=O)(=O)Nc2cccc(SC)c2)cc1C (optimized conformer: 43.94593827476951 kcal/mol)

>  <smiles>  (4) 
COc1c(C)cc(S(=O)(=O)Nc2cccc(SC)c2)cc1C

>  <score_type>  (4) 
oracle

>  <origin>  (4) 
adgpu

>  <m_score__min__energy>  (4) 
-9.1799999999999997

>  <m_primary>  (4) 
energy

$$$$
4:0
     RDKit          3D

 16 16  0  0  0  0  0  0  0  0999 V2000
   -3.8260   25.2750  -30.8460 N   0  0  0  0  0  0  0  0  0  0  0  0
   -5.2410   24.9120  -29.9230 S   0  0  0  0  0  0  0  0  0  0  0  0
   -4.8450   24.5500  -28.5180 O   0  0  0  0  0  0  0  0  0  0  0  0
   -6.1300   26.1230  -29.8750 O   0  0  0  0  0  0  0  0  0  0  0  0
   -6.0990   23.5680  -30.6660 C   0  0  0  0  0  0  0  0  0  0  0  0
   -5.6240   22.9970  -31.8570 C   0  0  0  0  0  0  0  0  0  0  0  0
   -6.3020   21.9210  -32.4390 C   0  0  0  0  0  0  0  0  0  0  0  0
   -7.4530   21.4070  -31.8340 C   0  0  0  0  0  0  0  0  0  0  0  0
   -8.3010   20.0560  -32.5660 Cl  0  0  0  0  0  0  0  0  0  0  0  0
   -7.9260   21.9680  -30.6430 C   0  0  0  0  0  0  0  0  0  0  0  0
   -7.2490   23.0440  -30.0590 C   0  0  0  0  0  0  0  0  0  0  0  0
   -3.9430   26.2460  -31.2150 H   0  0  0  0  0  0  0  0  0  0  0  0
   -4.7167   23.3966  -32.3336 H   0  0  0  0  0  0  0  0  0  0  0  0
   -5.9291   21.4783  -33.3744 H   0  0  0  0  0  0  0  0  0  0  0  0
   -8.8305   21.5630  -30.1656 H   0  0  0  0  0  0  0  0  0  0  0  0
   -7.6204   23.4805  -29.1201 H   0  0  0  0  0  0  0  0  0  0  0  0
  1  2  1  0
  2  3  2  0
  2  4  2  0
  2  5  1  0
  5  6  2  0
  6  7  1  0
  7  8  2  0
  8  9  1  0
  8 10  1  0
 10 11  2  0
 11  5  1  0
  1 12  1  0
  6 13  1  0
  7 14  1  0
 10 15  1  0
 11 16  1  0
M  CHG  1   1  -1
M  END
>  <UniqueID>  (5) 
5

>  <SMILES>  (5) 
[NH-]S(=O)(=O)c1ccc(Cl)cc1

>  <Energy>  (5) 
14.217015482415016

>  <Genealogy>  (5) 
[NH-]S(=O)(=O)c1ccc(Cl)cc1 (protonated)
[NH-]S(=O)(=O)c1ccc(Cl)cc1 (3D coordinates assigned)
[NH-]S(=O)(=O)c1ccc(Cl)cc1 (optimized conformer: 14.217015482415016 kcal/mol)

>  <smiles>  (5) 
NS(=O)(=O)c1ccc(Cl)cc1

>  <score_type>  (5) 
oracle

>  <origin>  (5) 
adgpu

>  <m_score__min__energy>  (5) 
-8.0199999999999996

>  <m_primary>  (5) 
energy

$$$$
5:0
     RDKit          3D

 34 36  0  0  0  0  0  0  0  0999 V2000
   -8.0130   17.4070  -32.3270 F   0  0  0  0  0  0  0  0  0  0  0  0
   -7.7080   18.7270  -32.2780 C   0  0  0  0  0  0  0  0  0  0  0  0
   -6.3720   19.1470  -32.4650 C   0  0  0  0  0  0  0  0  0  0  0  0
   -6.0380   20.5120  -32.4070 C   0  0  0  0  0  0  0  0  0  0  0  0
   -7.0670   21.4230  -32.1650 C   0  0  0  0  0  0  0  0  0  0  0  0
   -7.0550   22.7980  -32.0180 C   0  0  0  0  0  0  0  0  0  0  0  0
   -5.8620   23.7090  -32.0200 C   0  0  0  0  0  0  0  0  0  0  0  0
   -5.8980   24.6910  -30.8450 C   0  0  0  0  0  0  0  0  0  0  0  0
   -4.5330   25.1200  -30.4960 N   0  0  0  0  0  0  0  0  0  0  0  0
   -3.7500   24.0320  -29.8940 C   0  0  0  0  0  0  0  0  0  0  0  0
   -3.0900   24.5240  -28.6450 C   0  0  0  0  0  0  0  0  0  0  0  0
   -3.5950   24.4030  -27.3560 C   0  0  0  0  0  0  0  0  0  0  0  0
   -2.7420   24.9280  -26.3780 C   0  0  0  0  0  0  0  0  0  0  0  0
   -1.5700   25.4670  -26.8930 C   0  0  0  0  0  0  0  0  0  0  0  0
   -1.5930   25.2860  -28.5650 S   0  0  0  0  0  0  0  0  0  0  0  0
   -8.3680   23.1580  -31.7340 C   0  0  0  0  0  0  0  0  0  0  0  0
   -9.1650   22.0640  -31.7200 N   0  0  0  0  0  0  0  0  0  0  0  0
   -8.3630   21.0170  -31.9800 C   0  0  0  0  0  0  0  0  0  0  0  0
   -8.7230   19.6700  -32.0300 C   0  0  0  0  0  0  0  0  0  0  0  0
   -5.5871   18.4007  -32.6574 H   0  0  0  0  0  0  0  0  0  0  0  0
   -5.0007   20.8500  -32.5476 H   0  0  0  0  0  0  0  0  0  0  0  0
   -4.9485   23.1004  -31.9483 H   0  0  0  0  0  0  0  0  0  0  0  0
   -5.8757   24.2904  -32.9537 H   0  0  0  0  0  0  0  0  0  0  0  0
   -6.4945   25.5715  -31.1260 H   0  0  0  0  0  0  0  0  0  0  0  0
   -6.3499   24.1920  -29.9751 H   0  0  0  0  0  0  0  0  0  0  0  0
   -4.5930   25.8990  -29.7990 H   0  0  0  0  0  0  0  0  0  0  0  0
   -4.4170   23.1921  -29.6497 H   0  0  0  0  0  0  0  0  0  0  0  0
   -2.9821   23.6956  -30.6062 H   0  0  0  0  0  0  0  0  0  0  0  0
   -4.5669   23.9413  -27.1273 H   0  0  0  0  0  0  0  0  0  0  0  0
   -2.9775   24.9149  -25.3036 H   0  0  0  0  0  0  0  0  0  0  0  0
   -0.7640   25.9329  -26.3071 H   0  0  0  0  0  0  0  0  0  0  0  0
   -8.7104   24.1865  -31.5471 H   0  0  0  0  0  0  0  0  0  0  0  0
  -10.1890   22.0400  -31.5210 H   0  0  0  0  0  0  0  0  0  0  0  0
   -9.7663   19.3552  -31.8804 H   0  0  0  0  0  0  0  0  0  0  0  0
  1  2  1  0
  2  3  2  0
  3  4  1  0
  4  5  2  0
  5  6  1  0
  6  7  1  0
  7  8  1  0
  8  9  1  0
  9 10  1  0
 10 11  1  0
 11 12  2  0
 12 13  1  0
 13 14  2  0
 14 15  1  0
  6 16  2  0
 16 17  1  0
 17 18  1  0
 18 19  2  0
 19  2  1  0
 18  5  1  0
 15 11  1  0
  3 20  1  0
  4 21  1  0
  7 22  1  0
  7 23  1  0
  8 24  1  0
  8 25  1  0
  9 26  1  0
 10 27  1  0
 10 28  1  0
 12 29  1  0
 13 30  1  0
 14 31  1  0
 16 32  1  0
 17 33  1  0
 19 34  1  0
M  END
>  <UniqueID>  (6) 
6

>  <SMILES>  (6) 
Fc1ccc2c(CCNCc3cccs3)c[nH]c2c1

>  <Energy>  (6) 
88.2249703715505

>  <Genealogy>  (6) 
Fc1ccc2c(CCNCc3cccs3)c[nH]c2c1 (3D coordinates assigned)
Fc1ccc2c(CCNCc3cccs3)c[nH]c2c1 (optimized conformer: 88.2249703715505 kcal/mol)

>  <smiles>  (6) 
Fc1ccc2c(CCNCc3cccs3)c[nH]c2c1

>  <score_type>  (6) 
oracle

>  <origin>  (6) 
adgpu

>  <m_score__min__energy>  (6) 
-7.7800000000000002

>  <m_primary>  (6) 
energy

$$$$
6:0
     RDKit          3D

 40 41  0  0  0  0  0  0  0  0999 V2000
   -9.3310   21.9960  -31.5140 C   0  0  0  0  0  0  0  0  0  0  0  0
   -7.9950   22.6550  -31.3510 C   0  0  0  0  0  0  0  0  0  0  0  0
   -7.3760   22.6940  -30.0940 C   0  0  0  0  0  0  0  0  0  0  0  0
   -6.1180   23.2840  -29.9490 C   0  0  0  0  0  0  0  0  0  0  0  0
   -5.4460   23.8220  -31.0530 C   0  0  0  0  0  0  0  0  0  0  0  0
   -4.1940   24.4180  -30.8220 O   0  0  0  0  0  0  0  0  0  0  0  0
   -3.3180   24.1870  -29.7160 C   0  0  0  0  0  0  0  0  0  0  0  0
   -2.3010   23.0950  -30.0520 C   0  0  0  0  0  0  0  0  0  0  0  0
   -2.6810   22.3340  -31.2420 N   0  0  0  0  0  0  0  0  0  0  0  0
   -1.7790   21.3830  -31.8270 C   0  0  0  0  0  0  0  0  0  0  0  0
   -0.6740   21.1430  -31.2710 O   0  0  0  0  0  0  0  0  0  0  0  0
   -2.1400   20.6310  -33.0750 C   0  0  0  0  0  0  0  0  0  0  0  0
   -3.4540   20.9700  -33.5210 O   0  0  0  0  0  0  0  0  0  0  0  0
   -4.6520   20.3560  -33.1180 C   0  0  0  0  0  0  0  0  0  0  0  0
   -5.1920   20.4930  -31.8220 C   0  0  0  0  0  0  0  0  0  0  0  0
   -6.3670   19.8190  -31.4740 C   0  0  0  0  0  0  0  0  0  0  0  0
   -7.0250   19.0210  -32.4150 C   0  0  0  0  0  0  0  0  0  0  0  0
   -8.4990   18.1750  -31.9760 Cl  0  0  0  0  0  0  0  0  0  0  0  0
   -6.5100   18.9010  -33.7090 C   0  0  0  0  0  0  0  0  0  0  0  0
   -5.3300   19.5660  -34.0560 C   0  0  0  0  0  0  0  0  0  0  0  0
   -6.0560   23.7520  -32.3220 C   0  0  0  0  0  0  0  0  0  0  0  0
   -7.3230   23.1770  -32.4660 C   0  0  0  0  0  0  0  0  0  0  0  0
   -9.7590   21.7849  -30.5229 H   0  0  0  0  0  0  0  0  0  0  0  0
  -10.0046   22.6652  -32.0694 H   0  0  0  0  0  0  0  0  0  0  0  0
   -9.2100   21.0542  -32.0694 H   0  0  0  0  0  0  0  0  0  0  0  0
   -7.8820   22.2590  -29.2195 H   0  0  0  0  0  0  0  0  0  0  0  0
   -5.6495   23.3264  -28.9547 H   0  0  0  0  0  0  0  0  0  0  0  0
   -2.7829   25.1182  -29.4783 H   0  0  0  0  0  0  0  0  0  0  0  0
   -3.9163   23.8602  -28.8527 H   0  0  0  0  0  0  0  0  0  0  0  0
   -1.3223   23.5647  -30.2294 H   0  0  0  0  0  0  0  0  0  0  0  0
   -2.2617   22.3969  -29.2028 H   0  0  0  0  0  0  0  0  0  0  0  0
   -3.6100   22.4930  -31.6860 H   0  0  0  0  0  0  0  0  0  0  0  0
   -1.4173   20.8804  -33.8658 H   0  0  0  0  0  0  0  0  0  0  0  0
   -2.1150   19.5541  -32.8521 H   0  0  0  0  0  0  0  0  0  0  0  0
   -4.6872   21.1321  -31.0826 H   0  0  0  0  0  0  0  0  0  0  0  0
   -6.7747   19.9169  -30.4571 H   0  0  0  0  0  0  0  0  0  0  0  0
   -7.0330   18.2835  -34.4541 H   0  0  0  0  0  0  0  0  0  0  0  0
   -4.9297   19.4680  -35.0759 H   0  0  0  0  0  0  0  0  0  0  0  0
   -5.5330   24.1516  -33.2034 H   0  0  0  0  0  0  0  0  0  0  0  0
   -7.7947   23.1340  -33.4588 H   0  0  0  0  0  0  0  0  0  0  0  0
  1  2  1  0
  2  3  2  0
  3  4  1  0
  4  5  2  0
  5  6  1  0
  6  7  1  0
  7  8  1  0
  8  9  1  0
  9 10  1  0
 10 11  2  0
 10 12  1  0
 12 13  1  0
 13 14  1  0
 14 15  2  0
 15 16  1  0
 16 17  2  0
 17 18  1  0
 17 19  1  0
 19 20  2  0
  5 21  1  0
 21 22  2  0
 22  2  1  0
 20 14  1  0
  1 23  1  0
  1 24  1  0
  1 25  1  0
  3 26  1  0
  4 27  1  0
  7 28  1  0
  7 29  1  0
  8 30  1  0
  8 31  1  0
  9 32  1  0
 12 33  1  0
 12 34  1  0
 15 35  1  0
 16 36  1  0
 19 37  1  0
 20 38  1  0
 21 39  1  0
 22 40  1  0
M  END
>  <UniqueID>  (7) 
7

>  <SMILES>  (7) 
Cc1ccc(OCCNC(=O)COc2ccc(Cl)cc2)cc1

>  <Energy>  (7) 
36.19180145216814

>  <Genealogy>  (7) 
Cc1ccc(OCCNC(=O)COc2ccc(Cl)cc2)cc1 (3D coordinates assigned)
Cc1ccc(OCCNC(=O)COc2ccc(Cl)cc2)cc1 (optimized conformer: 36.19180145216814 kcal/mol)

>  <smiles>  (7) 
Cc1ccc(OCCNC(=O)COc2ccc(Cl)cc2)cc1

>  <score_type>  (7) 
oracle

>  <origin>  (7) 
adgpu

>  <m_score__min__energy>  (7) 
-7.8899999999999997

>  <m_primary>  (7) 
energy

$$$$
7:0
     RDKit          3D

 37 40  0  0  0  0  0  0  0  0999 V2000
   -7.2500   25.2960  -29.8120 O   0  0  0  0  0  0  0  0  0  0  0  0
   -6.9180   24.2730  -30.4670 C   0  0  0  0  0  0  0  0  0  0  0  0
   -7.8640   23.4210  -30.9540 N   0  0  0  0  0  0  0  0  0  0  0  0
   -7.5160   22.2930  -31.6550 C   0  0  0  0  0  0  0  0  0  0  0  0
   -8.8020   21.2140  -32.2830 S   0  0  0  0  0  0  0  0  0  0  0  0
   -8.1400   19.7120  -31.4810 C   0  0  0  0  0  0  0  0  0  0  0  0
   -7.2630   18.9450  -32.4270 C   0  0  0  0  0  0  0  0  0  0  0  0
   -6.8470   17.6390  -32.1250 C   0  0  0  0  0  0  0  0  0  0  0  0
   -6.0010   16.9670  -33.0090 C   0  0  0  0  0  0  0  0  0  0  0  0
   -5.5770   17.5990  -34.1790 C   0  0  0  0  0  0  0  0  0  0  0  0
   -6.0070   18.9000  -34.4480 C   0  0  0  0  0  0  0  0  0  0  0  0
   -6.8290   19.5400  -33.5730 N   0  0  0  0  0  0  0  0  0  0  0  0
   -6.1980   21.9950  -31.8790 N   0  0  0  0  0  0  0  0  0  0  0  0
   -5.2590   22.8640  -31.4230 C   0  0  0  0  0  0  0  0  0  0  0  0
   -5.5870   23.9710  -30.7120 C   0  0  0  0  0  0  0  0  0  0  0  0
   -4.3900   24.5500  -30.3470 C   0  0  0  0  0  0  0  0  0  0  0  0
   -3.3840   23.7850  -30.8420 N   0  0  0  0  0  0  0  0  0  0  0  0
   -3.9170   22.7620  -31.5040 N   0  0  0  0  0  0  0  0  0  0  0  0
   -3.1390   21.7620  -32.1800 C   0  0  0  0  0  0  0  0  0  0  0  0
   -3.7210   20.9960  -33.2020 C   0  0  0  0  0  0  0  0  0  0  0  0
   -2.9790   20.0050  -33.8520 C   0  0  0  0  0  0  0  0  0  0  0  0
   -1.6550   19.7610  -33.4750 C   0  0  0  0  0  0  0  0  0  0  0  0
   -0.7260   18.5150  -34.2890 Cl  0  0  0  0  0  0  0  0  0  0  0  0
   -1.0740   20.5040  -32.4430 C   0  0  0  0  0  0  0  0  0  0  0  0
   -1.8150   21.4970  -31.7930 C   0  0  0  0  0  0  0  0  0  0  0  0
   -7.5507   20.0040  -30.5993 H   0  0  0  0  0  0  0  0  0  0  0  0
   -8.9827   19.0708  -31.1832 H   0  0  0  0  0  0  0  0  0  0  0  0
   -7.1847   17.1492  -31.1998 H   0  0  0  0  0  0  0  0  0  0  0  0
   -5.6695   15.9425  -32.7842 H   0  0  0  0  0  0  0  0  0  0  0  0
   -4.9109   17.0775  -34.8821 H   0  0  0  0  0  0  0  0  0  0  0  0
   -5.6810   19.4076  -35.3678 H   0  0  0  0  0  0  0  0  0  0  0  0
   -5.9360   21.1170  -32.3770 H   0  0  0  0  0  0  0  0  0  0  0  0
   -4.2711   25.4711  -29.7575 H   0  0  0  0  0  0  0  0  0  0  0  0
   -4.7663   21.1762  -33.4931 H   0  0  0  0  0  0  0  0  0  0  0  0
   -3.4374   19.4169  -34.6607 H   0  0  0  0  0  0  0  0  0  0  0  0
   -0.0343   20.3079  -32.1421 H   0  0  0  0  0  0  0  0  0  0  0  0
   -1.3584   22.0731  -30.9747 H   0  0  0  0  0  0  0  0  0  0  0  0
  1  2  2  0
  2  3  1  0
  3  4  2  0
  4  5  1  0
  5  6  1  0
  6  7  1  0
  7  8  2  0
  8  9  1  0
  9 10  2  0
 10 11  1  0
 11 12  2  0
  4 13  1  0
 13 14  1  0
 14 15  2  0
 15 16  1  0
 16 17  2  0
 17 18  1  0
 18 19  1  0
 19 20  2  0
 20 21  1  0
 21 22  2  0
 22 23  1  0
 22 24  1  0
 24 25  2  0
 15  2  1  0
 25 19  1  0
 12  7  1  0
 18 14  1  0
  6 26  1  0
  6 27  1  0
  8 28  1  0
  9 29  1  0
 10 30  1  0
 11 31  1  0
 13 32  1  0
 16 33  1  0
 20 34  1  0
 21 35  1  0
 24 36  1  0
 25 37  1  0
M  END
>  <UniqueID>  (8) 
8

>  <SMILES>  (8) 
O=c1nc(SCc2ccccn2)[nH]c2c1cnn2-c1ccc(Cl)cc1

>  <Energy>  (8) 
84.29182571554318

>  <Genealogy>  (8) 
O=c1nc(SCc2ccccn2)[nH]c2c1cnn2-c1ccc(Cl)cc1 (3D coordinates assigned)
O=c1nc(SCc2ccccn2)[nH]c2c1cnn2-c1ccc(Cl)cc1 (optimized conformer: 84.29182571554318 kcal/mol)

>  <smiles>  (8) 
O=c1nc(SCc2ccccn2)[nH]c2c1cnn2-c1ccc(Cl)cc1

>  <score_type>  (8) 
oracle

>  <origin>  (8) 
adgpu

>  <m_score__min__energy>  (8) 
-8.1199999999999992

>  <m_primary>  (8) 
energy

$$$$
8:0
     RDKit          3D

 29 30  0  0  0  0  0  0  0  0999 V2000
   -5.7560   18.9130  -34.2910 C   0  0  0  0  0  0  0  0  0  0  0  0
   -6.7730   19.1130  -33.2070 C   0  0  0  0  0  0  0  0  0  0  0  0
   -7.5070   18.0220  -32.7190 C   0  0  0  0  0  0  0  0  0  0  0  0
   -8.4790   18.2150  -31.7350 C   0  0  0  0  0  0  0  0  0  0  0  0
   -8.7370   19.4960  -31.2410 C   0  0  0  0  0  0  0  0  0  0  0  0
   -8.0270   20.6060  -31.7380 C   0  0  0  0  0  0  0  0  0  0  0  0
   -8.2750   21.9430  -31.2610 N   0  0  0  0  0  0  0  0  0  0  0  0
   -7.8610   23.1620  -31.9570 C   0  0  0  0  0  0  0  0  0  0  0  0
   -6.5330   23.6480  -31.4380 C   0  0  0  0  0  0  0  0  0  0  0  0
   -6.4530   24.8550  -30.7280 C   0  0  0  0  0  0  0  0  0  0  0  0
   -5.2140   25.2970  -30.2590 C   0  0  0  0  0  0  0  0  0  0  0  0
   -4.0930   24.5640  -30.4970 N   0  0  0  0  0  0  0  0  0  0  0  0
   -4.1400   23.3960  -31.1910 C   0  0  0  0  0  0  0  0  0  0  0  0
   -5.3600   22.9180  -31.6780 C   0  0  0  0  0  0  0  0  0  0  0  0
   -7.0470   20.4020  -32.7230 C   0  0  0  0  0  0  0  0  0  0  0  0
   -4.7719   18.7195  -33.8393 H   0  0  0  0  0  0  0  0  0  0  0  0
   -6.0484   18.0552  -34.9144 H   0  0  0  0  0  0  0  0  0  0  0  0
   -5.7018   19.8177  -34.9144 H   0  0  0  0  0  0  0  0  0  0  0  0
   -7.3167   17.0124  -33.1121 H   0  0  0  0  0  0  0  0  0  0  0  0
   -9.0440   17.3545  -31.3472 H   0  0  0  0  0  0  0  0  0  0  0  0
   -9.4984   19.6383  -30.4600 H   0  0  0  0  0  0  0  0  0  0  0  0
   -8.7450   22.0620  -30.3350 H   0  0  0  0  0  0  0  0  0  0  0  0
   -7.7726   22.9509  -33.0329 H   0  0  0  0  0  0  0  0  0  0  0  0
   -8.6159   23.9426  -31.7814 H   0  0  0  0  0  0  0  0  0  0  0  0
   -7.3598   25.4493  -30.5419 H   0  0  0  0  0  0  0  0  0  0  0  0
   -5.1444   26.2395  -29.6961 H   0  0  0  0  0  0  0  0  0  0  0  0
   -3.2163   22.8260  -31.3697 H   0  0  0  0  0  0  0  0  0  0  0  0
   -5.3996   21.9763  -32.2452 H   0  0  0  0  0  0  0  0  0  0  0  0
   -6.4877   21.2621  -33.1198 H   0  0  0  0  0  0  0  0  0  0  0  0
  1  2  1  0
  2  3  2  0
  3  4  1  0
  4  5  2  0
  5  6  1  0
  6  7  1  0
  7  8  1  0
  8  9  1  0
  9 10  2  0
 10 11  1  0
 11 12  2  0
 12 13  1  0
 13 14  2  0
  6 15  2  0
 15  2  1  0
 14  9  1  0
  1 16  1  0
  1 17  1  0
  1 18  1  0
  3 19  1  0
  4 20  1  0
  5 21  1  0
  7 22  1  0
  8 23  1  0
  8 24  1  0
 10 25  1  0
 11 26  1  0
 13 27  1  0
 14 28  1  0
 15 29  1  0
M  END
>  <UniqueID>  (9) 
9

>  <SMILES>  (9) 
Cc1cccc(NCc2ccncc2)c1

>  <Energy>  (9) 
28.710160320685393

>  <Genealogy>  (9) 
Cc1cccc(NCc2ccncc2)c1 (3D coordinates assigned)
Cc1cccc(NCc2ccncc2)c1 (optimized conformer: 28.710160320685393 kcal/mol)

>  <smiles>  (9) 
Cc1cccc(NCc2ccncc2)c1

>  <score_type>  (9) 
oracle

>  <origin>  (9) 
adgpu

>  <m_score__min__energy>  (9) 
-6.9900000000000002

>  <m_primary>  (9) 
energy

$$$$
9:0
     RDKit          3D

 38 40  0  0  0  0  0  0  0  0999 V2000
   -8.7160   18.6010  -31.2140 C   0  0  0  0  0  0  0  0  0  0  0  0
   -7.6830   18.5710  -32.3050 C   0  0  0  0  0  0  0  0  0  0  0  0
   -7.1410   17.3380  -32.7050 C   0  0  0  0  0  0  0  0  0  0  0  0
   -6.1830   17.2830  -33.7210 C   0  0  0  0  0  0  0  0  0  0  0  0
   -5.7510   18.4580  -34.3400 C   0  0  0  0  0  0  0  0  0  0  0  0
   -6.2690   19.6900  -33.9390 C   0  0  0  0  0  0  0  0  0  0  0  0
   -7.2190   19.7580  -32.9130 C   0  0  0  0  0  0  0  0  0  0  0  0
   -7.7120   21.0070  -32.5350 O   0  0  0  0  0  0  0  0  0  0  0  0
   -7.2180   21.7050  -31.3980 C   0  0  0  0  0  0  0  0  0  0  0  0
   -7.5000   23.2000  -31.5420 C   0  0  0  0  0  0  0  0  0  0  0  0
   -6.3410   24.0270  -31.0530 C   0  0  0  0  0  0  0  0  0  0  0  0
   -6.4870   25.2900  -30.6060 N   0  0  0  0  0  0  0  0  0  0  0  0
   -5.2200   25.7170  -30.4290 C   0  0  0  0  0  0  0  0  0  0  0  0
   -4.3310   24.8070  -30.7570 O   0  0  0  0  0  0  0  0  0  0  0  0
   -4.9880   23.7430  -31.1470 C   0  0  0  0  0  0  0  0  0  0  0  0
   -4.3340   22.5180  -31.6410 C   0  0  0  0  0  0  0  0  0  0  0  0
   -3.8770   21.5610  -30.7220 C   0  0  0  0  0  0  0  0  0  0  0  0
   -3.2200   20.4110  -31.1680 C   0  0  0  0  0  0  0  0  0  0  0  0
   -3.0300   20.1980  -32.5370 C   0  0  0  0  0  0  0  0  0  0  0  0
   -2.2020   18.7570  -33.0960 Cl  0  0  0  0  0  0  0  0  0  0  0  0
   -3.5110   21.1320  -33.4610 C   0  0  0  0  0  0  0  0  0  0  0  0
   -4.1670   22.2850  -33.0160 C   0  0  0  0  0  0  0  0  0  0  0  0
   -8.2154   18.5865  -30.2346 H   0  0  0  0  0  0  0  0  0  0  0  0
   -9.3183   19.5170  -31.3044 H   0  0  0  0  0  0  0  0  0  0  0  0
   -9.3704   17.7215  -31.3044 H   0  0  0  0  0  0  0  0  0  0  0  0
   -7.4727   16.4104  -32.2155 H   0  0  0  0  0  0  0  0  0  0  0  0
   -5.7687   16.3131  -34.0335 H   0  0  0  0  0  0  0  0  0  0  0  0
   -5.0019   18.4122  -35.1442 H   0  0  0  0  0  0  0  0  0  0  0  0
   -5.9290   20.6128  -34.4317 H   0  0  0  0  0  0  0  0  0  0  0  0
   -7.7150   21.3257  -30.4929 H   0  0  0  0  0  0  0  0  0  0  0  0
   -6.1322   21.5473  -31.3200 H   0  0  0  0  0  0  0  0  0  0  0  0
   -7.6813   23.4295  -32.6024 H   0  0  0  0  0  0  0  0  0  0  0  0
   -8.3824   23.4462  -30.9330 H   0  0  0  0  0  0  0  0  0  0  0  0
   -4.9597   26.7169  -30.0516 H   0  0  0  0  0  0  0  0  0  0  0  0
   -4.0367   21.7168  -29.6449 H   0  0  0  0  0  0  0  0  0  0  0  0
   -2.8517   19.6722  -30.4410 H   0  0  0  0  0  0  0  0  0  0  0  0
   -3.3733   20.9597  -34.5387 H   0  0  0  0  0  0  0  0  0  0  0  0
   -4.5534   23.0117  -33.7458 H   0  0  0  0  0  0  0  0  0  0  0  0
  1  2  1  0
  2  3  2  0
  3  4  1  0
  4  5  2  0
  5  6  1  0
  6  7  2  0
  7  8  1  0
  8  9  1  0
  9 10  1  0
 10 11  1  0
 11 12  1  0
 12 13  2  0
 13 14  1  0
 14 15  1  0
 15 16  1  0
 16 17  2  0
 17 18  1  0
 18 19  2  0
 19 20  1  0
 19 21  1  0
 21 22  2  0
  7  2  1  0
 15 11  2  0
 22 16  1  0
  1 23  1  0
  1 24  1  0
  1 25  1  0
  3 26  1  0
  4 27  1  0
  5 28  1  0
  6 29  1  0
  9 30  1  0
  9 31  1  0
 10 32  1  0
 10 33  1  0
 13 34  1  0
 17 35  1  0
 18 36  1  0
 21 37  1  0
 22 38  1  0
M  END
>  <UniqueID>  (10) 
10

>  <SMILES>  (10) 
Cc1ccccc1OCCc1ncoc1-c1ccc(Cl)cc1

>  <Energy>  (10) 
75.36779872858757

>  <Genealogy>  (10) 
Cc1ccccc1OCCc1ncoc1-c1ccc(Cl)cc1 (3D coordinates assigned)
Cc1ccccc1OCCc1ncoc1-c1ccc(Cl)cc1 (optimized conformer: 75.36779872858757 kcal/mol)

>  <smiles>  (10) 
Cc1ccccc1OCCc1ncoc1-c1ccc(Cl)cc1

>  <score_type>  (10) 
oracle

>  <origin>  (10) 
adgpu

>  <m_score__min__energy>  (10) 
-8.2400000000000002

>  <m_primary>  (10) 
energy

$$$$
10:0
     RDKit          3D

 25 26  0  0  0  0  0  0  0  0999 V2000
   -3.1120   25.0920  -31.5880 H   0  0  0  0  0  0  0  0  0  0  0  0
   -3.8830   25.3010  -30.9130 N   0  0  0  0  0  0  0  0  0  0  0  0
   -4.8900   24.5020  -30.7670 C   0  0  0  0  0  0  0  0  0  0  0  0
   -4.9650   23.3580  -31.5000 N   0  0  0  0  0  0  0  0  0  0  0  0
   -6.0080   22.4930  -31.3700 C   0  0  0  0  0  0  0  0  0  0  0  0
   -6.0390   21.2610  -32.2000 C   0  0  0  0  0  0  0  0  0  0  0  0
   -7.2070   20.4820  -32.3160 C   0  0  0  0  0  0  0  0  0  0  0  0
   -8.1216   20.7889  -31.7876 H   0  0  0  0  0  0  0  0  0  0  0  0
   -7.2140   19.3220  -33.0970 C   0  0  0  0  0  0  0  0  0  0  0  0
   -8.1312   18.7197  -33.1741 H   0  0  0  0  0  0  0  0  0  0  0  0
   -6.0580   18.9230  -33.7820 C   0  0  0  0  0  0  0  0  0  0  0  0
   -6.0560   17.6570  -34.5860 C   0  0  0  0  0  0  0  0  0  0  0  0
   -6.0546   16.7915  -33.9071 H   0  0  0  0  0  0  0  0  0  0  0  0
   -6.9541   17.6240  -35.2203 H   0  0  0  0  0  0  0  0  0  0  0  0
   -5.1578   17.6269  -35.2203 H   0  0  0  0  0  0  0  0  0  0  0  0
   -4.8850   19.6780  -33.6480 C   0  0  0  0  0  0  0  0  0  0  0  0
   -3.9663   19.3560  -34.1602 H   0  0  0  0  0  0  0  0  0  0  0  0
   -4.8750   20.8370  -32.8680 C   0  0  0  0  0  0  0  0  0  0  0  0
   -3.9490   21.4235  -32.7751 H   0  0  0  0  0  0  0  0  0  0  0  0
   -7.0350   22.8030  -30.4650 C   0  0  0  0  0  0  0  0  0  0  0  0
   -7.8972   22.1306  -30.3450 H   0  0  0  0  0  0  0  0  0  0  0  0
   -6.9430   23.9780  -29.7210 C   0  0  0  0  0  0  0  0  0  0  0  0
   -7.7355   24.2364  -29.0033 H   0  0  0  0  0  0  0  0  0  0  0  0
   -5.8770   24.8050  -29.8800 N   0  0  0  0  0  0  0  0  0  0  0  0
   -5.8240   25.6830  -29.3140 H   0  0  0  0  0  0  0  0  0  0  0  0
  1  2  1  0
  2  3  2  0
  3  4  1  0
  4  5  2  0
  5  6  1  0
  6  7  2  0
  7  8  1  0
  7  9  1  0
  9 10  1  0
  9 11  2  0
 11 12  1  0
 12 13  1  0
 12 14  1  0
 12 15  1  0
 11 16  1  0
 16 17  1  0
 16 18  2  0
 18 19  1  0
  5 20  1  0
 20 21  1  0
 20 22  2  0
 22 23  1  0
 22 24  1  0
 24 25  1  0
 24  3  1  0
 18  6  1  0
M  END
>  <UniqueID>  (11) 
11

>  <SMILES>  (11) 
[H]/N=c1\nc(-c2ccc(C)cc2)cc[nH]1

>  <Energy>  (11) 
28.913485932676643

>  <Genealogy>  (11) 
[H]/N=c1\nc(-c2ccc(C)cc2)cc[nH]1 (cis-trans isomerization)
[H]/N=c1\nc(-c2ccc(C)cc2)cc[nH]1 (3D coordinates assigned)
[H]/N=c1\nc(-c2ccc(C)cc2)cc[nH]1 (optimized conformer: 28.913485932676643 kcal/mol)

>  <smiles>  (11) 
Cc1ccc(-c2cc[nH]c(=N)n2)cc1

>  <score_type>  (11) 
oracle

>  <origin>  (11) 
adgpu

>  <m_score__min__energy>  (11) 
-6.9500000000000002

>  <m_primary>  (11) 
energy

$$$$
11:0
     RDKit          3D

 36 38  0  0  0  0  0  0  0  0999 V2000
    0.0820   20.6760  -33.8890 F   0  0  0  0  0  0  0  0  0  0  0  0
   -0.8600   21.0470  -32.9870 C   0  0  0  0  0  0  0  0  0  0  0  0
   -0.5190   21.1890  -31.6390 C   0  0  0  0  0  0  0  0  0  0  0  0
   -1.4900   21.5600  -30.7050 C   0  0  0  0  0  0  0  0  0  0  0  0
   -2.8150   21.7910  -31.1150 C   0  0  0  0  0  0  0  0  0  0  0  0
   -3.8660   22.1930  -30.1130 C   0  0  0  0  0  0  0  0  0  0  0  0
   -4.4290   23.5030  -30.4420 N   0  0  0  0  0  0  0  0  0  0  0  0
   -3.7250   24.6240  -30.4670 N   0  0  0  0  0  0  0  0  0  0  0  0
   -4.4950   25.6480  -30.8080 N   0  0  0  0  0  0  0  0  0  0  0  0
   -5.7390   25.1640  -31.0040 C   0  0  0  0  0  0  0  0  0  0  0  0
   -5.7020   23.8090  -30.7610 C   0  0  0  0  0  0  0  0  0  0  0  0
   -6.8240   22.8340  -30.9740 C   0  0  0  0  0  0  0  0  0  0  0  0
   -6.7830   22.3010  -32.3380 N   0  0  0  0  0  0  0  0  0  0  0  0
   -6.7690   20.8960  -32.6580 C   0  0  0  0  0  0  0  0  0  0  0  0
   -5.7450   20.4070  -33.4880 C   0  0  0  0  0  0  0  0  0  0  0  0
   -5.6650   19.0480  -33.7970 C   0  0  0  0  0  0  0  0  0  0  0  0
   -6.6140   18.1570  -33.2930 C   0  0  0  0  0  0  0  0  0  0  0  0
   -6.4880   16.2980  -33.7230 Br  0  0  0  0  0  0  0  0  0  0  0  0
   -7.6530   18.6290  -32.4840 C   0  0  0  0  0  0  0  0  0  0  0  0
   -8.5860   17.7690  -32.0050 F   0  0  0  0  0  0  0  0  0  0  0  0
   -7.7390   19.9900  -32.1680 C   0  0  0  0  0  0  0  0  0  0  0  0
   -8.7800   20.4090  -31.4070 F   0  0  0  0  0  0  0  0  0  0  0  0
   -3.1480   21.6560  -32.4730 C   0  0  0  0  0  0  0  0  0  0  0  0
   -2.1730   21.2800  -33.4020 C   0  0  0  0  0  0  0  0  0  0  0  0
    0.5158   21.0083  -31.3126 H   0  0  0  0  0  0  0  0  0  0  0  0
   -1.2168   21.6717  -29.6453 H   0  0  0  0  0  0  0  0  0  0  0  0
   -4.6716   21.4440  -30.1162 H   0  0  0  0  0  0  0  0  0  0  0  0
   -3.3988   22.2515  -29.1188 H   0  0  0  0  0  0  0  0  0  0  0  0
   -6.6228   25.7463  -31.3037 H   0  0  0  0  0  0  0  0  0  0  0  0
   -6.7253   22.0052  -30.2575 H   0  0  0  0  0  0  0  0  0  0  0  0
   -7.7821   23.3524  -30.8213 H   0  0  0  0  0  0  0  0  0  0  0  0
   -6.6690   22.9780  -33.1270 H   0  0  0  0  0  0  0  0  0  0  0  0
   -4.9986   21.1030  -33.8985 H   0  0  0  0  0  0  0  0  0  0  0  0
   -4.8521   18.6783  -34.4393 H   0  0  0  0  0  0  0  0  0  0  0  0
   -4.1787   21.8466  -32.8065 H   0  0  0  0  0  0  0  0  0  0  0  0
   -2.4409   21.1674  -34.4629 H   0  0  0  0  0  0  0  0  0  0  0  0
  1  2  1  0
  2  3  2  0
  3  4  1  0
  4  5  2  0
  5  6  1  0
  6  7  1  0
  7  8  1  0
  8  9  2  0
  9 10  1  0
 10 11  2  0
 11 12  1  0
 12 13  1  0
 13 14  1  0
 14 15  2  0
 15 16  1  0
 16 17  2  0
 17 18  1  0
 17 19  1  0
 19 20  1  0
 19 21  2  0
 21 22  1  0
  5 23  1  0
 23 24  2  0
 24  2  1  0
 11  7  1  0
 21 14  1  0
  3 25  1  0
  4 26  1  0
  6 27  1  0
  6 28  1  0
 10 29  1  0
 12 30  1  0
 12 31  1  0
 13 32  1  0
 15 33  1  0
 16 34  1  0
 23 35  1  0
 24 36  1  0
M  END
>  <UniqueID>  (12) 
12

>  <SMILES>  (12) 
Fc1ccc(Cn2nncc2CNc2ccc(Br)c(F)c2F)cc1

>  <Energy>  (12) 
70.39852714062172

>  <Genealogy>  (12) 
Fc1ccc(Cn2nncc2CNc2ccc(Br)c(F)c2F)cc1 (3D coordinates assigned)
Fc1ccc(Cn2nncc2CNc2ccc(Br)c(F)c2F)cc1 (optimized conformer: 70.39852714062172 kcal/mol)

>  <smiles>  (12) 
Fc1ccc(Cn2nncc2CNc2ccc(Br)c(F)c2F)cc1

>  <score_type>  (12) 
oracle

>  <origin>  (12) 
adgpu

>  <m_score__min__energy>  (12) 
-8.5999999999999996

>  <m_primary>  (12) 
energy

$$$$
12:0
     RDKit          3D

 35 37  0  0  0  0  0  0  0  0999 V2000
   -4.7330   20.7380  -33.1220 C   0  0  0  0  0  0  0  0  0  0  0  0
   -5.3540   21.5180  -32.0540 N   0  0  0  0  0  0  0  0  0  0  0  0
   -6.5880   21.4050  -31.4960 C   0  0  0  0  0  0  0  0  0  0  0  0
   -7.6390   20.4320  -31.8590 C   0  0  0  0  0  0  0  0  0  0  0  0
   -7.6540   19.0660  -31.6330 C   0  0  0  0  0  0  0  0  0  0  0  0
   -8.8350   18.6080  -32.1750 C   0  0  0  0  0  0  0  0  0  0  0  0
   -9.4680   19.7140  -32.7020 C   0  0  0  0  0  0  0  0  0  0  0  0
   -8.7310   20.7800  -32.5010 O   0  0  0  0  0  0  0  0  0  0  0  0
   -6.7720   22.3140  -30.5120 N   0  0  0  0  0  0  0  0  0  0  0  0
   -5.6520   23.0180  -30.4430 N   0  0  0  0  0  0  0  0  0  0  0  0
   -5.4430   24.1520  -29.5480 C   0  0  0  0  0  0  0  0  0  0  0  0
   -4.3770   25.0600  -30.0980 C   0  0  0  0  0  0  0  0  0  0  0  0
   -4.5740   25.6430  -31.1960 O   0  0  0  0  0  0  0  0  0  0  0  0
   -3.1220   25.2470  -29.4320 N   0  0  0  0  0  0  0  0  0  0  0  0
   -2.2570   24.2150  -28.9380 C   0  0  0  0  0  0  0  0  0  0  0  0
   -0.8590   24.3640  -28.9320 C   0  0  0  0  0  0  0  0  0  0  0  0
   -0.0430   23.3250  -28.4720 C   0  0  0  0  0  0  0  0  0  0  0  0
   -0.6130   22.1280  -28.0330 C   0  0  0  0  0  0  0  0  0  0  0  0
   -2.0020   21.9620  -28.0640 C   0  0  0  0  0  0  0  0  0  0  0  0
   -2.7170   20.4530  -27.5290 Cl  0  0  0  0  0  0  0  0  0  0  0  0
   -2.8200   23.0010  -28.5240 C   0  0  0  0  0  0  0  0  0  0  0  0
   -4.8100   22.5450  -31.3770 C   0  0  0  0  0  0  0  0  0  0  0  0
   -3.6580   23.0100  -31.5920 O   0  0  0  0  0  0  0  0  0  0  0  0
   -4.1050   19.9492  -32.6823 H   0  0  0  0  0  0  0  0  0  0  0  0
   -5.5159   20.2794  -33.7439 H   0  0  0  0  0  0  0  0  0  0  0  0
   -4.1106   21.3982  -33.7439 H   0  0  0  0  0  0  0  0  0  0  0  0
   -6.8819   18.4693  -31.1252 H   0  0  0  0  0  0  0  0  0  0  0  0
   -9.1993   17.5701  -32.1853 H   0  0  0  0  0  0  0  0  0  0  0  0
  -10.4421   19.7037  -33.2128 H   0  0  0  0  0  0  0  0  0  0  0  0
   -6.3832   24.7143  -29.4487 H   0  0  0  0  0  0  0  0  0  0  0  0
   -5.1227   23.7780  -28.5644 H   0  0  0  0  0  0  0  0  0  0  0  0
   -0.4056   25.3001  -29.2900 H   0  0  0  0  0  0  0  0  0  0  0  0
    1.0496   23.4511  -28.4560 H   0  0  0  0  0  0  0  0  0  0  0  0
    0.0299   21.3158  -27.6629 H   0  0  0  0  0  0  0  0  0  0  0  0
   -3.9107   22.8632  -28.5605 H   0  0  0  0  0  0  0  0  0  0  0  0
  1  2  1  0
  2  3  1  0
  3  4  1  0
  4  5  2  0
  5  6  1  0
  6  7  2  0
  7  8  1  0
  3  9  2  0
  9 10  1  0
 10 11  1  0
 11 12  1  0
 12 13  2  0
 12 14  1  0
 14 15  1  0
 15 16  2  0
 16 17  1  0
 17 18  2  0
 18 19  1  0
 19 20  1  0
 19 21  2  0
 10 22  1  0
 22 23  2  0
 22  2  1  0
  8  4  1  0
 21 15  1  0
  1 24  1  0
  1 25  1  0
  1 26  1  0
  5 27  1  0
  6 28  1  0
  7 29  1  0
 11 30  1  0
 11 31  1  0
 16 32  1  0
 17 33  1  0
 18 34  1  0
 21 35  1  0
M  CHG  1  14  -1
M  END
>  <UniqueID>  (13) 
13

>  <SMILES>  (13) 
Cn1c(-c2ccco2)nn(CC(=O)[N-]c2cccc(Cl)c2)c1=O

>  <Energy>  (13) 
105.96545402821062

>  <Genealogy>  (13) 
Cn1c(-c2ccco2)nn(CC(=O)[N-]c2cccc(Cl)c2)c1=O (protonated)
Cn1c(-c2ccco2)nn(CC(=O)[N-]c2cccc(Cl)c2)c1=O (3D coordinates assigned)
Cn1c(-c2ccco2)nn(CC(=O)[N-]c2cccc(Cl)c2)c1=O (optimized conformer: 105.96545402821062 kcal/mol)

>  <smiles>  (13) 
Cn1c(-c2ccco2)nn(CC(=O)Nc2cccc(Cl)c2)c1=O

>  <score_type>  (13) 
oracle

>  <origin>  (13) 
adgpu

>  <m_score__min__energy>  (13) 
-9.4399999999999995

>  <m_primary>  (13) 
energy

$$$$
13:0
     RDKit          3D

 32 33  0  0  0  0  0  0  0  0999 V2000
   -6.8910   16.8120  -33.1170 C   0  0  0  0  0  0  0  0  0  0  0  0
   -7.2250   18.2500  -32.8520 C   0  0  0  0  0  0  0  0  0  0  0  0
   -6.4140   19.2700  -33.3700 C   0  0  0  0  0  0  0  0  0  0  0  0
   -6.7020   20.6100  -33.0930 C   0  0  0  0  0  0  0  0  0  0  0  0
   -7.7990   20.9520  -32.2800 C   0  0  0  0  0  0  0  0  0  0  0  0
   -8.1040   22.3730  -31.9880 C   0  0  0  0  0  0  0  0  0  0  0  0
   -9.2640   22.7030  -31.6180 O   0  0  0  0  0  0  0  0  0  0  0  0
   -7.0960   23.3760  -32.1750 N   0  0  0  0  0  0  0  0  0  0  0  0
   -5.8710   23.5070  -31.4380 C   0  0  0  0  0  0  0  0  0  0  0  0
   -5.8370   24.3820  -30.3440 C   0  0  0  0  0  0  0  0  0  0  0  0
   -4.6590   24.5540  -29.6110 C   0  0  0  0  0  0  0  0  0  0  0  0
   -3.4940   23.8680  -29.9780 C   0  0  0  0  0  0  0  0  0  0  0  0
   -2.0120   24.0740  -29.0490 S   0  0  0  0  0  0  0  0  0  0  0  0
   -1.6160   25.7540  -28.9580 N   0  0  0  0  0  0  0  0  0  0  0  0
   -2.2010   23.5260  -27.6610 O   0  0  0  0  0  0  0  0  0  0  0  0
   -0.8860   23.3320  -29.7110 O   0  0  0  0  0  0  0  0  0  0  0  0
   -3.5180   23.0050  -31.0810 C   0  0  0  0  0  0  0  0  0  0  0  0
   -4.6960   22.8310  -31.8150 C   0  0  0  0  0  0  0  0  0  0  0  0
   -8.5970   19.9230  -31.7490 C   0  0  0  0  0  0  0  0  0  0  0  0
   -8.3070   18.5840  -32.0280 C   0  0  0  0  0  0  0  0  0  0  0  0
   -6.7679   16.2820  -32.1610 H   0  0  0  0  0  0  0  0  0  0  0  0
   -7.7049   16.3465  -33.6922 H   0  0  0  0  0  0  0  0  0  0  0  0
   -5.9552   16.7529  -33.6922 H   0  0  0  0  0  0  0  0  0  0  0  0
   -5.5471   19.0148  -33.9972 H   0  0  0  0  0  0  0  0  0  0  0  0
   -6.0663   21.4030  -33.5137 H   0  0  0  0  0  0  0  0  0  0  0  0
   -6.7432   24.9372  -30.0601 H   0  0  0  0  0  0  0  0  0  0  0  0
   -4.6469   25.2301  -28.7434 H   0  0  0  0  0  0  0  0  0  0  0  0
   -1.2470   26.0310  -29.8950 H   0  0  0  0  0  0  0  0  0  0  0  0
   -2.6066   22.4618  -31.3713 H   0  0  0  0  0  0  0  0  0  0  0  0
   -4.7038   22.1637  -32.6895 H   0  0  0  0  0  0  0  0  0  0  0  0
   -9.4560   20.1735  -31.1092 H   0  0  0  0  0  0  0  0  0  0  0  0
   -8.9325   17.7880  -31.5977 H   0  0  0  0  0  0  0  0  0  0  0  0
  1  2  1  0
  2  3  2  0
  3  4  1  0
  4  5  2  0
  5  6  1  0
  6  7  2  0
  6  8  1  0
  8  9  1  0
  9 10  2  0
 10 11  1  0
 11 12  2  0
 12 13  1  0
 13 14  1  0
 13 15  2  0
 13 16  2  0
 12 17  1  0
 17 18  2  0
  5 19  1  0
 19 20  2  0
 20  2  1  0
 18  9  1  0
  1 21  1  0
  1 22  1  0
  1 23  1  0
  3 24  1  0
  4 25  1  0
 10 26  1  0
 11 27  1  0
 14 28  1  0
 17 29  1  0
 18 30  1  0
 19 31  1  0
 20 32  1  0
M  CHG  2   8  -1  14  -1
M  END
>  <UniqueID>  (14) 
14

>  <SMILES>  (14) 
Cc1ccc(C(=O)[N-]c2ccc(S([NH-])(=O)=O)cc2)cc1

>  <Energy>  (14) 
35.93133675684275

>  <Genealogy>  (14) 
Cc1ccc(C(=O)[N-]c2ccc(S([NH-])(=O)=O)cc2)cc1 (protonated)
Cc1ccc(C(=O)[N-]c2ccc(S([NH-])(=O)=O)cc2)cc1 (3D coordinates assigned)
Cc1ccc(C(=O)[N-]c2ccc(S([NH-])(=O)=O)cc2)cc1 (optimized conformer: 35.93133675684275 kcal/mol)

>  <smiles>  (14) 
Cc1ccc(C(=O)Nc2ccc(S(N)(=O)=O)cc2)cc1

>  <score_type>  (14) 
oracle

>  <origin>  (14) 
adgpu

>  <m_score__min__energy>  (14) 
-10.34

>  <m_primary>  (14) 
energy

$$$$
14:0
     RDKit          3D

 32 34  0  0  0  0  0  0  0  0999 V2000
   -9.8020   21.0250  -31.9660 C   0  0  0  0  0  0  0  0  0  0  0  0
   -8.3380   20.8820  -32.1160 N   0  0  0  0  0  0  0  0  0  0  0  0
   -7.8160   19.7050  -32.6080 C   0  0  0  0  0  0  0  0  0  0  0  0
   -8.5800   18.7420  -32.8980 O   0  0  0  0  0  0  0  0  0  0  0  0
   -6.4270   19.5450  -32.7750 C   0  0  0  0  0  0  0  0  0  0  0  0
   -5.8470   18.2910  -33.3230 C   0  0  0  0  0  0  0  0  0  0  0  0
   -5.8940   17.0990  -32.5830 C   0  0  0  0  0  0  0  0  0  0  0  0
   -5.3380   15.9290  -33.1030 C   0  0  0  0  0  0  0  0  0  0  0  0
   -4.7320   15.9600  -34.3590 C   0  0  0  0  0  0  0  0  0  0  0  0
   -4.6840   17.1220  -35.0640 N   0  0  0  0  0  0  0  0  0  0  0  0
   -5.2210   18.2740  -34.5800 C   0  0  0  0  0  0  0  0  0  0  0  0
   -5.5770   20.5890  -32.4110 C   0  0  0  0  0  0  0  0  0  0  0  0
   -6.0970   21.7780  -31.9020 C   0  0  0  0  0  0  0  0  0  0  0  0
   -5.2310   22.8230  -31.5430 C   0  0  0  0  0  0  0  0  0  0  0  0
   -5.7340   24.0280  -31.0300 C   0  0  0  0  0  0  0  0  0  0  0  0
   -4.8450   25.1000  -30.6610 N   0  0  0  0  0  0  0  0  0  0  0  0
   -5.2820   26.2540  -30.4770 O   0  0  0  0  0  0  0  0  0  0  0  0
   -3.4980   24.8680  -30.5070 O   0  0  0  0  0  0  0  0  0  0  0  0
   -7.1200   24.1740  -30.8810 C   0  0  0  0  0  0  0  0  0  0  0  0
   -7.9900   23.1420  -31.2370 C   0  0  0  0  0  0  0  0  0  0  0  0
   -7.4980   21.9210  -31.7570 C   0  0  0  0  0  0  0  0  0  0  0  0
  -10.0603   21.0502  -30.8971 H   0  0  0  0  0  0  0  0  0  0  0  0
  -10.1301   21.9595  -32.4447 H   0  0  0  0  0  0  0  0  0  0  0  0
  -10.3047   20.1717  -32.4447 H   0  0  0  0  0  0  0  0  0  0  0  0
   -6.3699   17.0870  -31.5914 H   0  0  0  0  0  0  0  0  0  0  0  0
   -5.3773   14.9920  -32.5281 H   0  0  0  0  0  0  0  0  0  0  0  0
   -4.2925   15.0436  -34.7797 H   0  0  0  0  0  0  0  0  0  0  0  0
   -5.1647   19.1968  -35.1760 H   0  0  0  0  0  0  0  0  0  0  0  0
   -4.4892   20.4735  -32.5263 H   0  0  0  0  0  0  0  0  0  0  0  0
   -4.1453   22.6955  -31.6654 H   0  0  0  0  0  0  0  0  0  0  0  0
   -7.5272   25.1133  -30.4786 H   0  0  0  0  0  0  0  0  0  0  0  0
   -9.0741   23.2798  -31.1115 H   0  0  0  0  0  0  0  0  0  0  0  0
  1  2  1  0
  2  3  1  0
  3  4  2  0
  3  5  1  0
  5  6  1  0
  6  7  2  0
  7  8  1  0
  8  9  2  0
  9 10  1  0
 10 11  2  0
  5 12  2  0
 12 13  1  0
 13 14  2  0
 14 15  1  0
 15 16  1  0
 16 17  2  0
 16 18  1  0
 15 19  2  0
 19 20  1  0
 20 21  2  0
 21  2  1  0
 11  6  1  0
 21 13  1  0
  1 22  1  0
  1 23  1  0
  1 24  1  0
  7 25  1  0
  8 26  1  0
  9 27  1  0
 11 28  1  0
 12 29  1  0
 14 30  1  0
 19 31  1  0
 20 32  1  0
M  CHG  2  16   1  18  -1
M  END
>  <UniqueID>  (15) 
15

>  <SMILES>  (15) 
Cn1c(=O)c(-c2cccnc2)cc2cc([N+](=O)[O-])ccc21

>  <Energy>  (15) 
53.9456760019652

>  <Genealogy>  (15) 
Cn1c(=O)c(-c2cccnc2)cc2cc([N+](=O)[O-])ccc21 (3D coordinates assigned)
Cn1c(=O)c(-c2cccnc2)cc2cc([N+](=O)[O-])ccc21 (optimized conformer: 53.9456760019652 kcal/mol)

>  <smiles>  (15) 
Cn1c(=O)c(-c2cccnc2)cc2cc([N+](=O)[O-])ccc21

>  <score_type>  (15) 
oracle

>  <origin>  (15) 
adgpu

>  <m_score__min__energy>  (15) 
-9.0099999999999998

>  <m_primary>  (15) 
energy

$$$$
15:0
     RDKit          3D

 24 24  0  0  0  0  0  0  0  0999 V2000
   -4.2380   22.3110  -28.5430 C   0  0  0  0  0  0  0  0  0  0  0  0
   -4.6330   23.7220  -28.4200 N   0  0  0  0  0  0  0  0  0  0  0  0
   -3.4800   24.5520  -28.0440 C   0  0  0  0  0  0  0  0  0  0  0  0
   -5.3240   24.2890  -29.9200 S   0  0  0  0  0  0  0  0  0  0  0  0
   -6.1540   25.5150  -29.6590 O   0  0  0  0  0  0  0  0  0  0  0  0
   -4.2190   24.6700  -30.8690 O   0  0  0  0  0  0  0  0  0  0  0  0
   -6.3340   23.0530  -30.6730 C   0  0  0  0  0  0  0  0  0  0  0  0
   -7.5880   22.7390  -30.1300 C   0  0  0  0  0  0  0  0  0  0  0  0
   -8.3910   21.7660  -30.7330 C   0  0  0  0  0  0  0  0  0  0  0  0
   -7.9460   21.1020  -31.8800 C   0  0  0  0  0  0  0  0  0  0  0  0
   -9.0450   19.7740  -32.7030 Br  0  0  0  0  0  0  0  0  0  0  0  0
   -6.6960   21.4120  -32.4250 C   0  0  0  0  0  0  0  0  0  0  0  0
   -5.8910   22.3860  -31.8240 C   0  0  0  0  0  0  0  0  0  0  0  0
   -4.1161   21.8756  -27.5402 H   0  0  0  0  0  0  0  0  0  0  0  0
   -5.0161   21.7588  -29.0904 H   0  0  0  0  0  0  0  0  0  0  0  0
   -3.2863   22.2430  -29.0904 H   0  0  0  0  0  0  0  0  0  0  0  0
   -5.3630   23.8030  -27.6750 H   0  0  0  0  0  0  0  0  0  0  0  0
   -3.4077   24.6041  -26.9476 H   0  0  0  0  0  0  0  0  0  0  0  0
   -2.5599   24.1077  -28.4515 H   0  0  0  0  0  0  0  0  0  0  0  0
   -3.6094   25.5655  -28.4515 H   0  0  0  0  0  0  0  0  0  0  0  0
   -7.9409   23.2594  -29.2274 H   0  0  0  0  0  0  0  0  0  0  0  0
   -9.3743   21.5226  -30.3042 H   0  0  0  0  0  0  0  0  0  0  0  0
   -6.3452   20.8895  -33.3272 H   0  0  0  0  0  0  0  0  0  0  0  0
   -4.9087   22.6289  -32.2554 H   0  0  0  0  0  0  0  0  0  0  0  0
  1  2  1  0
  2  3  1  0
  2  4  1  0
  4  5  2  0
  4  6  2  0
  4  7  1  0
  7  8  2  0
  8  9  1  0
  9 10  2  0
 10 11  1  0
 10 12  1  0
 12 13  2  0
 13  7  1  0
  1 14  1  0
  1 15  1  0
  1 16  1  0
  2 17  1  0
  3 18  1  0
  3 19  1  0
  3 20  1  0
  8 21  1  0
  9 22  1  0
 12 23  1  0
 13 24  1  0
M  CHG  1   2   1
M  END
>  <UniqueID>  (16) 
16

>  <SMILES>  (16) 
C[NH+](C)S(=O)(=O)c1ccc(Br)cc1

>  <Energy>  (16) 
19.078670042783234

>  <Genealogy>  (16) 
C[NH+](C)S(=O)(=O)c1ccc(Br)cc1 (protonated)
C[NH+](C)S(=O)(=O)c1ccc(Br)cc1 (3D coordinates assigned)
C[NH+](C)S(=O)(=O)c1ccc(Br)cc1 (optimized conformer: 19.078670042783234 kcal/mol)

>  <smiles>  (16) 
CN(C)S(=O)(=O)c1ccc(Br)cc1

>  <score_type>  (16) 
oracle

>  <origin>  (16) 
adgpu

>  <m_score__min__energy>  (16) 
-5.96

>  <m_primary>  (16) 
energy

$$$$
16:0
     RDKit          3D

 22 23  0  0  0  0  0  0  0  0999 V2000
   -3.8690   25.0630  -30.8370 O   0  0  0  0  0  0  0  0  0  0  0  0
   -4.8880   24.1170  -30.9480 C   0  0  0  0  0  0  0  0  0  0  0  0
   -4.6540   22.9640  -31.7080 C   0  0  0  0  0  0  0  0  0  0  0  0
   -5.6500   21.9790  -31.8520 C   0  0  0  0  0  0  0  0  0  0  0  0
   -5.3990   20.7650  -32.6700 C   0  0  0  0  0  0  0  0  0  0  0  0
   -4.0930   20.3780  -33.0250 C   0  0  0  0  0  0  0  0  0  0  0  0
   -3.9020   19.2300  -33.7980 C   0  0  0  0  0  0  0  0  0  0  0  0
   -5.0010   18.4760  -34.2090 C   0  0  0  0  0  0  0  0  0  0  0  0
   -6.2830   18.8820  -33.8350 C   0  0  0  0  0  0  0  0  0  0  0  0
   -6.4510   20.0030  -33.0840 N   0  0  0  0  0  0  0  0  0  0  0  0
   -6.8960   22.1760  -31.2270 C   0  0  0  0  0  0  0  0  0  0  0  0
   -7.8810   21.2470  -31.3250 F   0  0  0  0  0  0  0  0  0  0  0  0
   -7.1300   23.3250  -30.4670 C   0  0  0  0  0  0  0  0  0  0  0  0
   -6.1350   24.2970  -30.3220 C   0  0  0  0  0  0  0  0  0  0  0  0
   -6.4850   25.7230  -29.3540 Cl  0  0  0  0  0  0  0  0  0  0  0  0
   -3.5720   25.6400  -31.6130 H   0  0  0  0  0  0  0  0  0  0  0  0
   -3.6793   22.8261  -32.1989 H   0  0  0  0  0  0  0  0  0  0  0  0
   -3.2294   20.9749  -32.6963 H   0  0  0  0  0  0  0  0  0  0  0  0
   -2.8853   18.9209  -34.0823 H   0  0  0  0  0  0  0  0  0  0  0  0
   -4.8592   17.5726  -34.8203 H   0  0  0  0  0  0  0  0  0  0  0  0
   -7.1585   18.2943  -34.1482 H   0  0  0  0  0  0  0  0  0  0  0  0
   -8.1054   23.4662  -29.9785 H   0  0  0  0  0  0  0  0  0  0  0  0
  1  2  1  0
  2  3  2  0
  3  4  1  0
  4  5  1  0
  5  6  2  0
  6  7  1  0
  7  8  2  0
  8  9  1  0
  9 10  2  0
  4 11  2  0
 11 12  1  0
 11 13  1  0
 13 14  2  0
 14 15  1  0
 14  2  1  0
 10  5  1  0
  1 16  1  0
  3 17  1  0
  6 18  1  0
  7 19  1  0
  8 20  1  0
  9 21  1  0
 13 22  1  0
M  END
>  <UniqueID>  (17) 
17

>  <SMILES>  (17) 
Oc1cc(-c2ccccn2)c(F)cc1Cl

>  <Energy>  (17) 
29.409573686498987

>  <Genealogy>  (17) 
Oc1cc(-c2ccccn2)c(F)cc1Cl (3D coordinates assigned)
Oc1cc(-c2ccccn2)c(F)cc1Cl (optimized conformer: 29.409573686498987 kcal/mol)

>  <smiles>  (17) 
Oc1cc(-c2ccccn2)c(F)cc1Cl

>  <score_type>  (17) 
oracle

>  <origin>  (17) 
adgpu

>  <m_score__min__energy>  (17) 
-7.2199999999999998

>  <m_primary>  (17) 
energy

$$$$
17:0
     RDKit          3D

 49 53  0  0  0  0  0  0  0  0999 V2000
    2.2829   24.7982  -36.2747 H   0  0  0  0  0  0  0  0  0  0  0  0
    1.8770   23.8660  -35.8550 C   0  0  0  0  0  0  0  0  0  0  0  0
    0.6000   23.5890  -35.6930 O   0  0  0  0  0  0  0  0  0  0  0  0
    0.4310   22.4080  -35.1730 N   0  0  0  0  0  0  0  0  0  0  0  0
    1.6650   21.9010  -34.9910 C   0  0  0  0  0  0  0  0  0  0  0  0
    1.9130   20.7290  -34.4940 N   0  0  0  0  0  0  0  0  0  0  0  0
    0.6680   19.6340  -33.9890 S   0  0  0  0  0  0  0  0  0  0  0  0
    0.0210   19.0260  -35.2000 O   0  0  0  0  0  0  0  0  0  0  0  0
    1.2820   18.5380  -33.1610 O   0  0  0  0  0  0  0  0  0  0  0  0
   -0.5510   20.5060  -33.0640 C   0  0  0  0  0  0  0  0  0  0  0  0
   -1.8980   20.4630  -33.4380 C   0  0  0  0  0  0  0  0  0  0  0  0
   -2.2004   19.8868  -34.3248 H   0  0  0  0  0  0  0  0  0  0  0  0
   -2.8610   21.1460  -32.6940 C   0  0  0  0  0  0  0  0  0  0  0  0
   -3.9172   21.0979  -32.9974 H   0  0  0  0  0  0  0  0  0  0  0  0
   -2.4950   21.8990  -31.5550 C   0  0  0  0  0  0  0  0  0  0  0  0
   -1.1280   21.9330  -31.1820 C   0  0  0  0  0  0  0  0  0  0  0  0
   -0.1680   21.2420  -31.9380 C   0  0  0  0  0  0  0  0  0  0  0  0
    0.8911   21.2796  -31.6433 H   0  0  0  0  0  0  0  0  0  0  0  0
   -0.7430   22.6600  -30.0530 C   0  0  0  0  0  0  0  0  0  0  0  0
    0.3153   22.6956  -29.7551 H   0  0  0  0  0  0  0  0  0  0  0  0
   -1.6990   23.3380  -29.3070 C   0  0  0  0  0  0  0  0  0  0  0  0
   -1.4001   23.9086  -28.4153 H   0  0  0  0  0  0  0  0  0  0  0  0
   -3.0390   23.2930  -29.6920 C   0  0  0  0  0  0  0  0  0  0  0  0
   -3.8910   23.9220  -29.0020 O   0  0  0  0  0  0  0  0  0  0  0  0
   -3.4260   22.5850  -30.8020 N   0  0  0  0  0  0  0  0  0  0  0  0
   -4.8230   22.5800  -31.1630 C   0  0  0  0  0  0  0  0  0  0  0  0
   -5.4830   21.3590  -31.3550 C   0  0  0  0  0  0  0  0  0  0  0  0
   -4.9314   20.4158  -31.2282 H   0  0  0  0  0  0  0  0  0  0  0  0
   -6.8430   21.3280  -31.7080 C   0  0  0  0  0  0  0  0  0  0  0  0
   -7.5500   20.0410  -31.9100 C   0  0  0  0  0  0  0  0  0  0  0  0
   -9.1210   19.7050  -31.3970 S   0  0  0  0  0  0  0  0  0  0  0  0
   -9.1920   18.1290  -31.9750 C   0  0  0  0  0  0  0  0  0  0  0  0
  -10.0482   17.4447  -31.8815 H   0  0  0  0  0  0  0  0  0  0  0  0
   -7.9820   17.8410  -32.5910 C   0  0  0  0  0  0  0  0  0  0  0  0
   -7.7614   16.8716  -33.0618 H   0  0  0  0  0  0  0  0  0  0  0  0
   -7.0690   18.9020  -32.5560 C   0  0  0  0  0  0  0  0  0  0  0  0
   -5.8550   18.8250  -33.1540 F   0  0  0  0  0  0  0  0  0  0  0  0
   -7.5350   22.5410  -31.8470 C   0  0  0  0  0  0  0  0  0  0  0  0
   -8.6032   22.5317  -32.1096 H   0  0  0  0  0  0  0  0  0  0  0  0
   -6.8800   23.7610  -31.6550 C   0  0  0  0  0  0  0  0  0  0  0  0
   -7.4348   24.7035  -31.7723 H   0  0  0  0  0  0  0  0  0  0  0  0
   -5.5170   23.7910  -31.3130 C   0  0  0  0  0  0  0  0  0  0  0  0
   -4.8220   24.9940  -31.1130 O   0  0  0  0  0  0  0  0  0  0  0  0
   -5.3590   26.1360  -30.4550 C   0  0  0  0  0  0  0  0  0  0  0  0
   -5.2933   25.9963  -29.3659 H   0  0  0  0  0  0  0  0  0  0  0  0
   -4.7866   27.0294  -30.7453 H   0  0  0  0  0  0  0  0  0  0  0  0
   -6.4121   26.2650  -30.7453 H   0  0  0  0  0  0  0  0  0  0  0  0
    2.6210   22.7930  -35.4110 C   0  0  0  0  0  0  0  0  0  0  0  0
    3.7150   22.6792  -35.3967 H   0  0  0  0  0  0  0  0  0  0  0  0
  1  2  1  0
  2  3  1  0
  3  4  1  0
  4  5  1  0
  5  6  2  0
  6  7  1  0
  7  8  2  0
  7  9  2  0
  7 10  1  0
 10 11  2  0
 11 12  1  0
 11 13  1  0
 13 14  1  0
 13 15  2  0
 15 16  1  0
 16 17  2  0
 17 18  1  0
 16 19  1  0
 19 20  1  0
 19 21  2  0
 21 22  1  0
 21 23  1  0
 23 24  2  0
 23 25  1  0
 25 26  1  0
 26 27  2  0
 27 28  1  0
 27 29  1  0
 29 30  1  0
 30 31  1  0
 31 32  1  0
 32 33  1  0
 32 34  2  0
 34 35  1  0
 34 36  1  0
 36 37  1  0
 29 38  2  0
 38 39  1  0
 38 40  1  0
 40 41  1  0
 40 42  2  0
 42 43  1  0
 43 44  1  0
 44 45  1  0
 44 46  1  0
 44 47  1  0
  5 48  1  0
 48 49  1  0
 48  2  2  0
 17 10  1  0
 42 26  1  0
 25 15  1  0
 36 30  2  0
M  CHG  1   4  -1
M  END
>  <UniqueID>  (18) 
18

>  <SMILES>  (18) 
COc1ccc(-c2sccc2F)cc1-n1c(=O)ccc2cc(S(=O)(=O)/N=c3/cco[n-]3)ccc21

>  <Energy>  (18) 
133.2573915503217

>  <Genealogy>  (18) 
COc1ccc(-c2sccc2F)cc1-n1c(=O)ccc2cc(S(=O)(=O)N=c3cco[n-]3)ccc21 (protonated)
COc1ccc(-c2sccc2F)cc1-n1c(=O)ccc2cc(S(=O)(=O)/N=c3/cco[n-]3)ccc21 (cis-trans isomerization)
COc1ccc(-c2sccc2F)cc1-n1c(=O)ccc2cc(S(=O)(=O)/N=c3/cco[n-]3)ccc21 (3D coordinates assigned)
COc1ccc(-c2sccc2F)cc1-n1c(=O)ccc2cc(S(=O)(=O)/N=c3/cco[n-]3)ccc21 (optimized conformer: 133.2573915503217 kcal/mol)

>  <smiles>  (18) 
COc1ccc(-c2sccc2F)cc1-n1c(=O)ccc2cc(S(=O)(=O)N=c3cco[nH]3)ccc21

>  <score_type>  (18) 
oracle

>  <origin>  (18) 
adgpu

>  <m_score__min__energy>  (18) 
-11.140000000000001

>  <m_primary>  (18) 
energy

$$$$
18:0
     RDKit          3D

 33 35  0  0  0  0  0  0  0  0999 V2000
   -2.2720   23.8160  -29.4100 C   0  0  0  0  0  0  0  0  0  0  0  0
   -3.1870   24.2110  -30.4250 O   0  0  0  0  0  0  0  0  0  0  0  0
   -4.3010   23.4580  -30.8290 C   0  0  0  0  0  0  0  0  0  0  0  0
   -4.1970   22.0980  -31.1760 C   0  0  0  0  0  0  0  0  0  0  0  0
   -5.3280   21.3820  -31.5760 C   0  0  0  0  0  0  0  0  0  0  0  0
   -6.5800   22.0130  -31.6500 C   0  0  0  0  0  0  0  0  0  0  0  0
   -7.7850   21.2610  -32.0640 C   0  0  0  0  0  0  0  0  0  0  0  0
   -9.0350   21.7420  -31.9170 N   0  0  0  0  0  0  0  0  0  0  0  0
   -9.8850   20.7760  -32.3070 C   0  0  0  0  0  0  0  0  0  0  0  0
   -9.1830   19.6620  -32.7160 C   0  0  0  0  0  0  0  0  0  0  0  0
   -7.8410   19.9660  -32.5730 C   0  0  0  0  0  0  0  0  0  0  0  0
   -6.7210   19.0880  -32.9810 C   0  0  0  0  0  0  0  0  0  0  0  0
   -6.2730   18.0710  -32.1230 C   0  0  0  0  0  0  0  0  0  0  0  0
   -5.2240   17.2420  -32.5250 C   0  0  0  0  0  0  0  0  0  0  0  0
   -4.6470   17.4120  -33.7440 N   0  0  0  0  0  0  0  0  0  0  0  0
   -5.0670   18.3780  -34.6010 C   0  0  0  0  0  0  0  0  0  0  0  0
   -6.1160   19.2290  -34.2400 C   0  0  0  0  0  0  0  0  0  0  0  0
   -6.6870   23.3640  -31.2890 C   0  0  0  0  0  0  0  0  0  0  0  0
   -5.5560   24.0830  -30.8860 C   0  0  0  0  0  0  0  0  0  0  0  0
   -5.7260   25.7790  -30.4570 Cl  0  0  0  0  0  0  0  0  0  0  0  0
   -2.7155   24.0075  -28.4218 H   0  0  0  0  0  0  0  0  0  0  0  0
   -2.0524   22.7429  -29.5117 H   0  0  0  0  0  0  0  0  0  0  0  0
   -1.3405   24.3921  -29.5117 H   0  0  0  0  0  0  0  0  0  0  0  0
   -3.2193   21.5958  -31.1320 H   0  0  0  0  0  0  0  0  0  0  0  0
   -5.2370   20.3167  -31.8347 H   0  0  0  0  0  0  0  0  0  0  0  0
   -9.3060   22.6780  -31.5380 H   0  0  0  0  0  0  0  0  0  0  0  0
  -10.9816   20.8620  -32.3007 H   0  0  0  0  0  0  0  0  0  0  0  0
   -9.6072   18.7162  -33.0841 H   0  0  0  0  0  0  0  0  0  0  0  0
   -6.7456   17.9282  -31.1400 H   0  0  0  0  0  0  0  0  0  0  0  0
   -4.8634   16.4490  -31.8534 H   0  0  0  0  0  0  0  0  0  0  0  0
   -4.5809   18.4912  -35.5813 H   0  0  0  0  0  0  0  0  0  0  0  0
   -6.4651   20.0041  -34.9381 H   0  0  0  0  0  0  0  0  0  0  0  0
   -7.6671   23.8622  -31.3229 H   0  0  0  0  0  0  0  0  0  0  0  0
  1  2  1  0
  2  3  1  0
  3  4  2  0
  4  5  1  0
  5  6  2  0
  6  7  1  0
  7  8  1  0
  8  9  1  0
  9 10  2  0
 10 11  1  0
 11 12  1  0
 12 13  2  0
 13 14  1  0
 14 15  2  0
 15 16  1  0
 16 17  2  0
  6 18  1  0
 18 19  2  0
 19 20  1  0
 19  3  1  0
 11  7  2  0
 17 12  1  0
  1 21  1  0
  1 22  1  0
  1 23  1  0
  4 24  1  0
  5 25  1  0
  8 26  1  0
  9 27  1  0
 10 28  1  0
 13 29  1  0
 14 30  1  0
 16 31  1  0
 17 32  1  0
 18 33  1  0
M  END
>  <UniqueID>  (19) 
19

>  <SMILES>  (19) 
COc1ccc(-c2[nH]ccc2-c2ccncc2)cc1Cl

>  <Energy>  (19) 
69.73189890541363

>  <Genealogy>  (19) 
COc1ccc(-c2[nH]ccc2-c2ccncc2)cc1Cl (3D coordinates assigned)
COc1ccc(-c2[nH]ccc2-c2ccncc2)cc1Cl (optimized conformer: 69.73189890541363 kcal/mol)

>  <smiles>  (19) 
COc1ccc(-c2[nH]ccc2-c2ccncc2)cc1Cl

>  <score_type>  (19) 
oracle

>  <origin>  (19) 
adgpu

>  <m_score__min__energy>  (19) 
-8.1300000000000008

>  <m_primary>  (19) 
energy

$$$$
19:0
     RDKit          3D

 31 32  0  0  0  0  0  0  0  0999 V2000
   -2.2140   24.6240  -27.9410 C   0  0  0  0  0  0  0  0  0  0  0  0
   -2.4080   24.7160  -29.3490 O   0  0  0  0  0  0  0  0  0  0  0  0
   -3.1090   23.7750  -30.1190 C   0  0  0  0  0  0  0  0  0  0  0  0
   -2.7180   22.4250  -30.1860 C   0  0  0  0  0  0  0  0  0  0  0  0
   -3.4400   21.5170  -30.9620 C   0  0  0  0  0  0  0  0  0  0  0  0
   -4.5670   21.9370  -31.6850 C   0  0  0  0  0  0  0  0  0  0  0  0
   -5.3120   20.9990  -32.4830 N   0  0  0  0  0  0  0  0  0  0  0  0
   -6.6480   20.9420  -32.6990 C   0  0  0  0  0  0  0  0  0  0  0  0
   -7.4870   21.7260  -32.1820 O   0  0  0  0  0  0  0  0  0  0  0  0
   -6.9840   19.9280  -33.5200 N   0  0  0  0  0  0  0  0  0  0  0  0
   -5.8590   19.3090  -33.8370 N   0  0  0  0  0  0  0  0  0  0  0  0
   -5.7500   18.2040  -34.7840 C   0  0  0  0  0  0  0  0  0  0  0  0
   -4.8540   19.9640  -33.2230 C   0  0  0  0  0  0  0  0  0  0  0  0
   -3.6340   19.6690  -33.3560 O   0  0  0  0  0  0  0  0  0  0  0  0
   -4.9580   23.2840  -31.6190 C   0  0  0  0  0  0  0  0  0  0  0  0
   -4.2340   24.2060  -30.8380 C   0  0  0  0  0  0  0  0  0  0  0  0
   -4.5990   25.5590  -30.7540 O   0  0  0  0  0  0  0  0  0  0  0  0
   -5.7670   26.0410  -30.0980 C   0  0  0  0  0  0  0  0  0  0  0  0
   -3.0904   25.0396  -27.4222 H   0  0  0  0  0  0  0  0  0  0  0  0
   -2.0857   23.5691  -27.6567 H   0  0  0  0  0  0  0  0  0  0  0  0
   -1.3160   25.1922  -27.6567 H   0  0  0  0  0  0  0  0  0  0  0  0
   -1.8372   22.0829  -29.6229 H   0  0  0  0  0  0  0  0  0  0  0  0
   -3.1233   20.4645  -31.0072 H   0  0  0  0  0  0  0  0  0  0  0  0
   -7.9390   19.6720  -33.8580 H   0  0  0  0  0  0  0  0  0  0  0  0
   -5.6565   17.2566  -34.2329 H   0  0  0  0  0  0  0  0  0  0  0  0
   -6.6495   18.1731  -35.4165 H   0  0  0  0  0  0  0  0  0  0  0  0
   -4.8618   18.3494  -35.4165 H   0  0  0  0  0  0  0  0  0  0  0  0
   -5.8393   23.6229  -32.1833 H   0  0  0  0  0  0  0  0  0  0  0  0
   -5.6261   25.9828  -29.0086 H   0  0  0  0  0  0  0  0  0  0  0  0
   -5.9461   27.0865  -30.3893 H   0  0  0  0  0  0  0  0  0  0  0  0
   -6.6313   25.4261  -30.3893 H   0  0  0  0  0  0  0  0  0  0  0  0
  1  2  1  0
  2  3  1  0
  3  4  2  0
  4  5  1  0
  5  6  2  0
  6  7  1  0
  7  8  1  0
  8  9  2  0
  8 10  1  0
 10 11  1  0
 11 12  1  0
 11 13  1  0
 13 14  2  0
  6 15  1  0
 15 16  2  0
 16 17  1  0
 17 18  1  0
 16  3  1  0
 13  7  1  0
  1 19  1  0
  1 20  1  0
  1 21  1  0
  4 22  1  0
  5 23  1  0
 10 24  1  0
 12 25  1  0
 12 26  1  0
 12 27  1  0
 15 28  1  0
 18 29  1  0
 18 30  1  0
 18 31  1  0
M  END
>  <UniqueID>  (20) 
20

>  <SMILES>  (20) 
COc1ccc(-n2c(=O)[nH]n(C)c2=O)cc1OC

>  <Energy>  (20) 
74.57285631492415

>  <Genealogy>  (20) 
COc1ccc(-n2c(=O)[nH]n(C)c2=O)cc1OC (3D coordinates assigned)
COc1ccc(-n2c(=O)[nH]n(C)c2=O)cc1OC (optimized conformer: 74.57285631492415 kcal/mol)

>  <smiles>  (20) 
COc1ccc(-n2c(=O)[nH]n(C)c2=O)cc1OC

>  <score_type>  (20) 
oracle

>  <origin>  (20) 
adgpu

>  <m_score__min__energy>  (20) 
-6.3700000000000001

>  <m_primary>  (20) 
energy

$$$$
20:0
     RDKit          3D

 28 30  0  0  0  0  0  0  0  0999 V2000
   -9.1230   19.2920  -32.4200 Br  0  0  0  0  0  0  0  0  0  0  0  0
   -7.8690   20.5840  -31.7820 C   0  0  0  0  0  0  0  0  0  0  0  0
   -6.5160   20.4680  -32.1100 C   0  0  0  0  0  0  0  0  0  0  0  0
   -5.5970   21.4130  -31.6440 C   0  0  0  0  0  0  0  0  0  0  0  0
   -6.0220   22.4890  -30.8430 C   0  0  0  0  0  0  0  0  0  0  0  0
   -5.0340   23.4830  -30.3570 C   0  0  0  0  0  0  0  0  0  0  0  0
   -4.8340   24.7670  -30.8310 C   0  0  0  0  0  0  0  0  0  0  0  0
   -3.8690   25.3020  -30.1270 O   0  0  0  0  0  0  0  0  0  0  0  0
   -3.4760   24.4040  -29.2520 C   0  0  0  0  0  0  0  0  0  0  0  0
   -2.3970   24.6330  -28.2690 C   0  0  0  0  0  0  0  0  0  0  0  0
   -2.6990   24.8850  -26.9190 C   0  0  0  0  0  0  0  0  0  0  0  0
   -1.6700   25.1000  -25.9950 C   0  0  0  0  0  0  0  0  0  0  0  0
   -0.3360   25.0650  -26.4100 C   0  0  0  0  0  0  0  0  0  0  0  0
   -0.0280   24.8160  -27.7490 C   0  0  0  0  0  0  0  0  0  0  0  0
   -1.0520   24.6010  -28.6780 C   0  0  0  0  0  0  0  0  0  0  0  0
   -4.1690   23.2490  -29.3500 N   0  0  0  0  0  0  0  0  0  0  0  0
   -7.3890   22.5960  -30.5200 C   0  0  0  0  0  0  0  0  0  0  0  0
   -8.3040   21.6490  -30.9880 C   0  0  0  0  0  0  0  0  0  0  0  0
   -6.1729   19.6313  -32.7363 H   0  0  0  0  0  0  0  0  0  0  0  0
   -4.5331   21.3146  -31.9056 H   0  0  0  0  0  0  0  0  0  0  0  0
   -5.3857   25.2506  -31.6506 H   0  0  0  0  0  0  0  0  0  0  0  0
   -3.7476   24.9133  -26.5880 H   0  0  0  0  0  0  0  0  0  0  0  0
   -1.9117   25.2969  -24.9401 H   0  0  0  0  0  0  0  0  0  0  0  0
    0.4712   25.2336  -25.6820 H   0  0  0  0  0  0  0  0  0  0  0  0
    1.0224   24.7888  -28.0744 H   0  0  0  0  0  0  0  0  0  0  0  0
   -0.8040   24.4063  -29.7318 H   0  0  0  0  0  0  0  0  0  0  0  0
   -7.7387   23.4309  -29.8950 H   0  0  0  0  0  0  0  0  0  0  0  0
   -9.3695   21.7420  -30.7308 H   0  0  0  0  0  0  0  0  0  0  0  0
  1  2  1  0
  2  3  2  0
  3  4  1  0
  4  5  2  0
  5  6  1  0
  6  7  2  0
  7  8  1  0
  8  9  1  0
  9 10  1  0
 10 11  2  0
 11 12  1  0
 12 13  2  0
 13 14  1  0
 14 15  2  0
  9 16  2  0
  5 17  1  0
 17 18  2  0
 18  2  1  0
 16  6  1  0
 15 10  1  0
  3 19  1  0
  4 20  1  0
  7 21  1  0
 11 22  1  0
 12 23  1  0
 13 24  1  0
 14 25  1  0
 15 26  1  0
 17 27  1  0
 18 28  1  0
M  END
>  <UniqueID>  (21) 
21

>  <SMILES>  (21) 
Brc1ccc(-c2coc(-c3ccccc3)n2)cc1

>  <Energy>  (21) 
61.81472090516999

>  <Genealogy>  (21) 
Brc1ccc(-c2coc(-c3ccccc3)n2)cc1 (3D coordinates assigned)
Brc1ccc(-c2coc(-c3ccccc3)n2)cc1 (optimized conformer: 61.81472090516999 kcal/mol)

>  <smiles>  (21) 
Brc1ccc(-c2coc(-c3ccccc3)n2)cc1

>  <score_type>  (21) 
oracle

>  <origin>  (21) 
adgpu

>  <m_score__min__energy>  (21) 
-7.5999999999999996

>  <m_primary>  (21) 
energy

$$$$
21:0
     RDKit          3D

 32 33  0  0  0  0  0  0  0  0999 V2000
   -1.0680   19.6800  -27.1280 C   0  0  0  0  0  0  0  0  0  0  0  0
   -2.7180   20.3620  -27.4880 S   0  0  0  0  0  0  0  0  0  0  0  0
   -2.0730   21.9430  -28.0370 C   0  0  0  0  0  0  0  0  0  0  0  0
   -0.7500   22.3010  -27.7530 C   0  0  0  0  0  0  0  0  0  0  0  0
   -0.2490   23.5280  -28.1930 C   0  0  0  0  0  0  0  0  0  0  0  0
   -1.0620   24.3930  -28.9320 C   0  0  0  0  0  0  0  0  0  0  0  0
   -2.3830   24.0380  -29.2360 C   0  0  0  0  0  0  0  0  0  0  0  0
   -3.1670   24.9240  -30.0460 N   0  0  0  0  0  0  0  0  0  0  0  0
   -4.8650   24.7370  -30.3500 S   0  0  0  0  0  0  0  0  0  0  0  0
   -5.6010   24.7400  -29.0400 O   0  0  0  0  0  0  0  0  0  0  0  0
   -5.3480   25.8860  -31.1880 O   0  0  0  0  0  0  0  0  0  0  0  0
   -5.1470   23.2330  -31.2250 C   0  0  0  0  0  0  0  0  0  0  0  0
   -6.4080   22.6300  -31.1800 C   0  0  0  0  0  0  0  0  0  0  0  0
   -6.6610   21.4750  -31.9200 C   0  0  0  0  0  0  0  0  0  0  0  0
   -5.6580   20.9070  -32.7120 C   0  0  0  0  0  0  0  0  0  0  0  0
   -6.0860   19.3300  -33.7150 Br  0  0  0  0  0  0  0  0  0  0  0  0
   -4.3800   21.5030  -32.7590 C   0  0  0  0  0  0  0  0  0  0  0  0
   -3.3280   20.9520  -33.5620 N   0  0  0  0  0  0  0  0  0  0  0  0
   -4.1350   22.6640  -32.0090 C   0  0  0  0  0  0  0  0  0  0  0  0
   -2.8930   22.8170  -28.7590 C   0  0  0  0  0  0  0  0  0  0  0  0
   -0.9253   19.6210  -26.0389 H   0  0  0  0  0  0  0  0  0  0  0  0
   -0.9842   18.6735  -27.5638 H   0  0  0  0  0  0  0  0  0  0  0  0
   -0.2980   20.3336  -27.5638 H   0  0  0  0  0  0  0  0  0  0  0  0
   -0.1050   21.6159  -27.1833 H   0  0  0  0  0  0  0  0  0  0  0  0
    0.7867   23.8145  -27.9579 H   0  0  0  0  0  0  0  0  0  0  0  0
   -0.6621   25.3580  -29.2768 H   0  0  0  0  0  0  0  0  0  0  0  0
   -7.2031   23.0681  -30.5588 H   0  0  0  0  0  0  0  0  0  0  0  0
   -7.6561   21.0078  -31.8804 H   0  0  0  0  0  0  0  0  0  0  0  0
   -3.0560   19.9480  -33.4610 H   0  0  0  0  0  0  0  0  0  0  0  0
   -2.8060   21.5230  -34.2610 H   0  0  0  0  0  0  0  0  0  0  0  0
   -3.1395   23.1312  -32.0371 H   0  0  0  0  0  0  0  0  0  0  0  0
   -3.9415   22.5480  -28.9545 H   0  0  0  0  0  0  0  0  0  0  0  0
  1  2  1  0
  2  3  1  0
  3  4  2  0
  4  5  1  0
  5  6  2  0
  6  7  1  0
  7  8  1  0
  8  9  1  0
  9 10  2  0
  9 11  2  0
  9 12  1  0
 12 13  2  0
 13 14  1  0
 14 15  2  0
 15 16  1  0
 15 17  1  0
 17 18  1  0
 17 19  2  0
  7 20  2  0
 20  3  1  0
 19 12  1  0
  1 21  1  0
  1 22  1  0
  1 23  1  0
  4 24  1  0
  5 25  1  0
  6 26  1  0
 13 27  1  0
 14 28  1  0
 18 29  1  0
 18 30  1  0
 19 31  1  0
 20 32  1  0
M  CHG  1   8  -1
M  END
>  <UniqueID>  (22) 
22

>  <SMILES>  (22) 
CSc1cccc([N-]S(=O)(=O)c2ccc(Br)c(N)c2)c1

>  <Energy>  (22) 
30.566727348334712

>  <Genealogy>  (22) 
CSc1cccc([N-]S(=O)(=O)c2ccc(Br)c(N)c2)c1 (protonated)
CSc1cccc([N-]S(=O)(=O)c2ccc(Br)c(N)c2)c1 (3D coordinates assigned)
CSc1cccc([N-]S(=O)(=O)c2ccc(Br)c(N)c2)c1 (optimized conformer: 30.566727348334712 kcal/mol)

>  <smiles>  (22) 
CSc1cccc(NS(=O)(=O)c2ccc(Br)c(N)c2)c1

>  <score_type>  (22) 
oracle

>  <origin>  (22) 
adgpu

>  <m_score__min__energy>  (22) 
-9.0199999999999996

>  <m_primary>  (22) 
energy

$$$$
22:0
     RDKit          3D

 27 28  0  0  0  0  0  0  0  0999 V2000
   -5.7440   18.2730  -34.9650 C   0  0  0  0  0  0  0  0  0  0  0  0
   -6.0330   19.0060  -33.7010 C   0  0  0  0  0  0  0  0  0  0  0  0
   -5.3450   20.0950  -33.2960 N   0  0  0  0  0  0  0  0  0  0  0  0
   -5.8440   20.6160  -32.1410 C   0  0  0  0  0  0  0  0  0  0  0  0
   -5.2730   21.8300  -31.5140 C   0  0  0  0  0  0  0  0  0  0  0  0
   -3.9090   21.8370  -31.1790 C   0  0  0  0  0  0  0  0  0  0  0  0
   -3.3360   22.9400  -30.5510 C   0  0  0  0  0  0  0  0  0  0  0  0
   -4.1120   24.0580  -30.2540 C   0  0  0  0  0  0  0  0  0  0  0  0
   -5.4710   24.0970  -30.6010 C   0  0  0  0  0  0  0  0  0  0  0  0
   -6.2710   25.3290  -30.2400 C   0  0  0  0  0  0  0  0  0  0  0  0
   -6.1080   25.6570  -28.8250 N   0  0  0  0  0  0  0  0  0  0  0  0
   -6.0640   22.9710  -31.2260 C   0  0  0  0  0  0  0  0  0  0  0  0
   -7.9230   23.0300  -31.7520 Br  0  0  0  0  0  0  0  0  0  0  0  0
   -6.9630   19.9510  -31.6370 C   0  0  0  0  0  0  0  0  0  0  0  0
   -7.3140   18.6700  -32.6680 S   0  0  0  0  0  0  0  0  0  0  0  0
   -5.3500   17.2738  -34.7275 H   0  0  0  0  0  0  0  0  0  0  0  0
   -6.6698   18.1725  -35.5505 H   0  0  0  0  0  0  0  0  0  0  0  0
   -4.9987   18.8314  -35.5505 H   0  0  0  0  0  0  0  0  0  0  0  0
   -3.2864   20.9615  -31.4153 H   0  0  0  0  0  0  0  0  0  0  0  0
   -2.2678   22.9283  -30.2888 H   0  0  0  0  0  0  0  0  0  0  0  0
   -3.6552   24.9182  -29.7427 H   0  0  0  0  0  0  0  0  0  0  0  0
   -5.9230   26.1763  -30.8491 H   0  0  0  0  0  0  0  0  0  0  0  0
   -7.3348   25.1286  -30.4354 H   0  0  0  0  0  0  0  0  0  0  0  0
   -6.4860   26.6160  -28.6490 H   0  0  0  0  0  0  0  0  0  0  0  0
   -5.0930   25.6420  -28.5700 H   0  0  0  0  0  0  0  0  0  0  0  0
   -6.6310   24.9740  -28.2300 H   0  0  0  0  0  0  0  0  0  0  0  0
   -7.5177   20.2181  -30.7255 H   0  0  0  0  0  0  0  0  0  0  0  0
  1  2  1  0
  2  3  2  0
  3  4  1  0
  4  5  1  0
  5  6  2  0
  6  7  1  0
  7  8  2  0
  8  9  1  0
  9 10  1  0
 10 11  1  0
  9 12  2  0
 12 13  1  0
  4 14  2  0
 14 15  1  0
 15  2  1  0
 12  5  1  0
  1 16  1  0
  1 17  1  0
  1 18  1  0
  6 19  1  0
  7 20  1  0
  8 21  1  0
 10 22  1  0
 10 23  1  0
 11 24  1  0
 11 25  1  0
 11 26  1  0
 14 27  1  0
M  CHG  1  11   1
M  END
>  <UniqueID>  (23) 
23

>  <SMILES>  (23) 
Cc1nc(-c2cccc(C[NH3+])c2Br)cs1

>  <Energy>  (23) 
61.58637723099509

>  <Genealogy>  (23) 
Cc1nc(-c2cccc(C[NH3+])c2Br)cs1 (protonated)
Cc1nc(-c2cccc(C[NH3+])c2Br)cs1 (3D coordinates assigned)
Cc1nc(-c2cccc(C[NH3+])c2Br)cs1 (optimized conformer: 61.58637723099509 kcal/mol)

>  <smiles>  (23) 
Cc1nc(-c2cccc(CN)c2Br)cs1

>  <score_type>  (23) 
oracle

>  <origin>  (23) 
adgpu

>  <m_score__min__energy>  (23) 
-6.6200000000000001

>  <m_primary>  (23) 
energy

$$$$
23:0
     RDKit          3D

 31 33  0  0  0  0  0  0  0  0999 V2000
   -1.2110   25.7640  -27.6100 C   0  0  0  0  0  0  0  0  0  0  0  0
   -1.7270   25.6660  -28.9330 O   0  0  0  0  0  0  0  0  0  0  0  0
   -2.5220   24.6070  -29.3980 C   0  0  0  0  0  0  0  0  0  0  0  0
   -2.0700   23.2730  -29.4050 C   0  0  0  0  0  0  0  0  0  0  0  0
   -2.8970   22.2490  -29.8780 C   0  0  0  0  0  0  0  0  0  0  0  0
   -4.1880   22.5440  -30.3500 C   0  0  0  0  0  0  0  0  0  0  0  0
   -5.0570   21.5510  -30.8380 C   0  0  0  0  0  0  0  0  0  0  0  0
   -4.6760   20.3480  -30.8790 O   0  0  0  0  0  0  0  0  0  0  0  0
   -6.3090   21.8950  -31.2820 N   0  0  0  0  0  0  0  0  0  0  0  0
   -7.2240   20.8940  -31.7730 C   0  0  0  0  0  0  0  0  0  0  0  0
   -6.7470   19.7800  -32.4860 C   0  0  0  0  0  0  0  0  0  0  0  0
   -7.6370   18.8080  -32.9530 C   0  0  0  0  0  0  0  0  0  0  0  0
   -9.0080   18.9370  -32.7090 C   0  0  0  0  0  0  0  0  0  0  0  0
   -9.4900   20.0390  -31.9960 C   0  0  0  0  0  0  0  0  0  0  0  0
   -8.6030   21.0130  -31.5270 C   0  0  0  0  0  0  0  0  0  0  0  0
   -6.7070   23.2020  -31.2650 C   0  0  0  0  0  0  0  0  0  0  0  0
   -5.8800   24.1720  -30.8010 N   0  0  0  0  0  0  0  0  0  0  0  0
   -4.6380   23.8780  -30.3440 C   0  0  0  0  0  0  0  0  0  0  0  0
   -3.8070   24.8980  -29.8700 C   0  0  0  0  0  0  0  0  0  0  0  0
   -2.0251   25.6094  -26.8865 H   0  0  0  0  0  0  0  0  0  0  0  0
   -0.4370   24.9968  -27.4605 H   0  0  0  0  0  0  0  0  0  0  0  0
   -0.7722   26.7615  -27.4605 H   0  0  0  0  0  0  0  0  0  0  0  0
   -1.0612   23.0353  -29.0365 H   0  0  0  0  0  0  0  0  0  0  0  0
   -2.5363   21.2098  -29.8807 H   0  0  0  0  0  0  0  0  0  0  0  0
   -5.6691   19.6727  -32.6772 H   0  0  0  0  0  0  0  0  0  0  0  0
   -7.2582   17.9404  -33.5132 H   0  0  0  0  0  0  0  0  0  0  0  0
   -9.7069   18.1718  -33.0779 H   0  0  0  0  0  0  0  0  0  0  0  0
  -10.5684   20.1399  -31.8038 H   0  0  0  0  0  0  0  0  0  0  0  0
   -8.9860   21.8762  -30.9630 H   0  0  0  0  0  0  0  0  0  0  0  0
   -7.7088   23.4705  -31.6315 H   0  0  0  0  0  0  0  0  0  0  0  0
   -4.1663   25.9377  -29.8681 H   0  0  0  0  0  0  0  0  0  0  0  0
  1  2  1  0
  2  3  1  0
  3  4  2  0
  4  5  1  0
  5  6  2  0
  6  7  1  0
  7  8  2  0
  7  9  1  0
  9 10  1  0
 10 11  2  0
 11 12  1  0
 12 13  2  0
 13 14  1  0
 14 15  2  0
  9 16  1  0
 16 17  2  0
 17 18  1  0
 18 19  2  0
 19  3  1  0
 18  6  1  0
 15 10  1  0
  1 20  1  0
  1 21  1  0
  1 22  1  0
  4 23  1  0
  5 24  1  0
 11 25  1  0
 12 26  1  0
 13 27  1  0
 14 28  1  0
 15 29  1  0
 16 30  1  0
 19 31  1  0
M  END
>  <UniqueID>  (24) 
24

>  <SMILES>  (24) 
COc1ccc2c(=O)n(-c3ccccc3)cnc2c1

>  <Energy>  (24) 
46.130050927346744

>  <Genealogy>  (24) 
COc1ccc2c(=O)n(-c3ccccc3)cnc2c1 (3D coordinates assigned)
COc1ccc2c(=O)n(-c3ccccc3)cnc2c1 (optimized conformer: 46.130050927346744 kcal/mol)

>  <smiles>  (24) 
COc1ccc2c(=O)n(-c3ccccc3)cnc2c1

>  <score_type>  (24) 
oracle

>  <origin>  (24) 
adgpu

>  <m_score__min__energy>  (24) 
-6.6699999999999999

>  <m_primary>  (24) 
energy

$$$$
24:0
     RDKit          3D

 34 35  0  0  0  0  0  0  0  0999 V2000
   -7.2180   20.3720  -33.0890 C   0  0  0  0  0  0  0  0  0  0  0  0
   -7.6650   21.4710  -32.2240 N   0  0  0  0  0  0  0  0  0  0  0  0
   -9.0990   21.6150  -31.9460 C   0  0  0  0  0  0  0  0  0  0  0  0
   -6.7040   22.3960  -31.6510 C   0  0  0  0  0  0  0  0  0  0  0  0
   -7.1310   23.5660  -30.9880 C   0  0  0  0  0  0  0  0  0  0  0  0
   -6.2050   24.4570  -30.4390 C   0  0  0  0  0  0  0  0  0  0  0  0
   -4.8280   24.2110  -30.5500 C   0  0  0  0  0  0  0  0  0  0  0  0
   -3.8570   25.1000  -29.9720 N   0  0  0  0  0  0  0  0  0  0  0  0
   -2.7470   24.6670  -29.1690 C   0  0  0  0  0  0  0  0  0  0  0  0
   -2.7810   23.5470  -28.5940 O   0  0  0  0  0  0  0  0  0  0  0  0
   -1.6350   25.5350  -28.9260 N   0  0  0  0  0  0  0  0  0  0  0  0
   -1.2360   26.0560  -27.6500 C   0  0  0  0  0  0  0  0  0  0  0  0
   -1.6870   25.4970  -26.4430 C   0  0  0  0  0  0  0  0  0  0  0  0
   -1.2950   26.0580  -25.2270 C   0  0  0  0  0  0  0  0  0  0  0  0
   -0.4680   27.1820  -25.2270 C   0  0  0  0  0  0  0  0  0  0  0  0
   -0.0610   27.7270  -26.4030 N   0  0  0  0  0  0  0  0  0  0  0  0
   -0.4300   27.1980  -27.6020 C   0  0  0  0  0  0  0  0  0  0  0  0
   -4.3960   23.0410  -31.1880 C   0  0  0  0  0  0  0  0  0  0  0  0
   -5.3190   22.1490  -31.7380 C   0  0  0  0  0  0  0  0  0  0  0  0
   -6.8762   19.5316  -32.4670 H   0  0  0  0  0  0  0  0  0  0  0  0
   -8.0534   20.0421  -33.7240 H   0  0  0  0  0  0  0  0  0  0  0  0
   -6.3895   20.7189  -33.7240 H   0  0  0  0  0  0  0  0  0  0  0  0
   -9.2618   21.6313  -30.8582 H   0  0  0  0  0  0  0  0  0  0  0  0
   -9.4652   22.5544  -32.3857 H   0  0  0  0  0  0  0  0  0  0  0  0
   -9.6447   20.7671  -32.3857 H   0  0  0  0  0  0  0  0  0  0  0  0
   -8.2067   23.7795  -30.9022 H   0  0  0  0  0  0  0  0  0  0  0  0
   -6.5582   25.3579  -29.9159 H   0  0  0  0  0  0  0  0  0  0  0  0
   -4.0140   26.1300  -30.0650 H   0  0  0  0  0  0  0  0  0  0  0  0
   -2.3484   24.6181  -26.4563 H   0  0  0  0  0  0  0  0  0  0  0  0
   -1.6346   25.6185  -24.2775 H   0  0  0  0  0  0  0  0  0  0  0  0
   -0.1454   27.6270  -24.2742 H   0  0  0  0  0  0  0  0  0  0  0  0
   -0.0930   27.6705  -28.5364 H   0  0  0  0  0  0  0  0  0  0  0  0
   -3.3200   22.8230  -31.2563 H   0  0  0  0  0  0  0  0  0  0  0  0
   -4.9604   21.2415  -32.2459 H   0  0  0  0  0  0  0  0  0  0  0  0
  1  2  1  0
  2  3  1  0
  2  4  1  0
  4  5  2  0
  5  6  1  0
  6  7  2  0
  7  8  1  0
  8  9  1  0
  9 10  2  0
  9 11  1  0
 11 12  1  0
 12 13  2  0
 13 14  1  0
 14 15  2  0
 15 16  1  0
 16 17  2  0
  7 18  1  0
 18 19  2  0
 19  4  1  0
 17 12  1  0
  1 20  1  0
  1 21  1  0
  1 22  1  0
  3 23  1  0
  3 24  1  0
  3 25  1  0
  5 26  1  0
  6 27  1  0
  8 28  1  0
 13 29  1  0
 14 30  1  0
 15 31  1  0
 17 32  1  0
 18 33  1  0
 19 34  1  0
M  CHG  1  11  -1
M  END
>  <UniqueID>  (25) 
25

>  <SMILES>  (25) 
CN(C)c1ccc(NC(=O)[N-]c2cccnc2)cc1

>  <Energy>  (25) 
43.387870855373514

>  <Genealogy>  (25) 
CN(C)c1ccc(NC(=O)[N-]c2cccnc2)cc1 (protonated)
CN(C)c1ccc(NC(=O)[N-]c2cccnc2)cc1 (3D coordinates assigned)
CN(C)c1ccc(NC(=O)[N-]c2cccnc2)cc1 (optimized conformer: 43.387870855373514 kcal/mol)

>  <smiles>  (25) 
CN(C)c1ccc(NC(=O)Nc2cccnc2)cc1

>  <score_type>  (25) 
oracle

>  <origin>  (25) 
adgpu

>  <m_score__min__energy>  (25) 
-7.8200000000000003

>  <m_primary>  (25) 
energy

$$$$
25:0
     RDKit          3D

 36 38  0  0  0  0  0  0  0  0999 V2000
   -4.6930   24.6190  -31.0260 O   0  0  0  0  0  0  0  0  0  0  0  0
   -4.3010   23.4220  -31.1130 C   0  0  0  0  0  0  0  0  0  0  0  0
   -4.6660   22.6700  -32.2340 C   0  0  0  0  0  0  0  0  0  0  0  0
   -4.2180   21.3450  -32.3620 C   0  0  0  0  0  0  0  0  0  0  0  0
   -4.5390   20.5360  -33.4640 O   0  0  0  0  0  0  0  0  0  0  0  0
   -5.1210   19.2340  -33.3900 C   0  0  0  0  0  0  0  0  0  0  0  0
   -6.5080   19.2990  -32.8050 C   0  0  0  0  0  0  0  0  0  0  0  0
   -7.0820   18.1670  -32.2020 C   0  0  0  0  0  0  0  0  0  0  0  0
   -8.3740   18.2330  -31.6700 C   0  0  0  0  0  0  0  0  0  0  0  0
   -9.1020   19.4230  -31.7440 C   0  0  0  0  0  0  0  0  0  0  0  0
   -8.5420   20.5490  -32.3530 C   0  0  0  0  0  0  0  0  0  0  0  0
   -7.2510   20.4870  -32.8870 C   0  0  0  0  0  0  0  0  0  0  0  0
   -3.4190   20.8050  -31.3550 C   0  0  0  0  0  0  0  0  0  0  0  0
   -3.0740   21.5800  -30.2470 C   0  0  0  0  0  0  0  0  0  0  0  0
   -3.5170   22.8690  -30.1310 N   0  0  0  0  0  0  0  0  0  0  0  0
   -3.1420   23.6300  -28.9650 C   0  0  0  0  0  0  0  0  0  0  0  0
   -1.8380   24.1390  -28.8380 C   0  0  0  0  0  0  0  0  0  0  0  0
   -1.4720   24.8700  -27.7030 C   0  0  0  0  0  0  0  0  0  0  0  0
   -2.4040   25.0960  -26.6850 C   0  0  0  0  0  0  0  0  0  0  0  0
   -1.9430   26.0120  -25.2620 Cl  0  0  0  0  0  0  0  0  0  0  0  0
   -3.7020   24.5880  -26.8010 C   0  0  0  0  0  0  0  0  0  0  0  0
   -4.0710   23.8570  -27.9340 C   0  0  0  0  0  0  0  0  0  0  0  0
   -5.3022   23.1149  -33.0133 H   0  0  0  0  0  0  0  0  0  0  0  0
   -5.1763   18.8059  -34.4018 H   0  0  0  0  0  0  0  0  0  0  0  0
   -4.4943   18.6046  -32.7410 H   0  0  0  0  0  0  0  0  0  0  0  0
   -6.5139   17.2266  -32.1482 H   0  0  0  0  0  0  0  0  0  0  0  0
   -8.8174   17.3467  -31.1927 H   0  0  0  0  0  0  0  0  0  0  0  0
  -10.1168   19.4736  -31.3225 H   0  0  0  0  0  0  0  0  0  0  0  0
   -9.1170   21.4849  -32.4124 H   0  0  0  0  0  0  0  0  0  0  0  0
   -6.8161   21.3727  -33.3732 H   0  0  0  0  0  0  0  0  0  0  0  0
   -3.0606   19.7680  -31.4340 H   0  0  0  0  0  0  0  0  0  0  0  0
   -2.4391   21.1498  -29.4585 H   0  0  0  0  0  0  0  0  0  0  0  0
   -1.1014   23.9615  -29.6354 H   0  0  0  0  0  0  0  0  0  0  0  0
   -0.4504   25.2674  -27.6110 H   0  0  0  0  0  0  0  0  0  0  0  0
   -4.4340   24.7641  -25.9990 H   0  0  0  0  0  0  0  0  0  0  0  0
   -5.0924   23.4577  -28.0194 H   0  0  0  0  0  0  0  0  0  0  0  0
  1  2  2  0
  2  3  1  0
  3  4  2  0
  4  5  1  0
  5  6  1  0
  6  7  1  0
  7  8  2  0
  8  9  1  0
  9 10  2  0
 10 11  1  0
 11 12  2  0
  4 13  1  0
 13 14  2  0
 14 15  1  0
 15 16  1  0
 16 17  2  0
 17 18  1  0
 18 19  2  0
 19 20  1  0
 19 21  1  0
 21 22  2  0
 15  2  1  0
 22 16  1  0
 12  7  1  0
  3 23  1  0
  6 24  1  0
  6 25  1  0
  8 26  1  0
  9 27  1  0
 10 28  1  0
 11 29  1  0
 12 30  1  0
 13 31  1  0
 14 32  1  0
 17 33  1  0
 18 34  1  0
 21 35  1  0
 22 36  1  0
M  END
>  <UniqueID>  (26) 
26

>  <SMILES>  (26) 
O=c1cc(OCc2ccccc2)ccn1-c1ccc(Cl)cc1

>  <Energy>  (26) 
47.37623630729254

>  <Genealogy>  (26) 
O=c1cc(OCc2ccccc2)ccn1-c1ccc(Cl)cc1 (3D coordinates assigned)
O=c1cc(OCc2ccccc2)ccn1-c1ccc(Cl)cc1 (optimized conformer: 47.37623630729254 kcal/mol)

>  <smiles>  (26) 
O=c1cc(OCc2ccccc2)ccn1-c1ccc(Cl)cc1

>  <score_type>  (26) 
oracle

>  <origin>  (26) 
adgpu

>  <m_score__min__energy>  (26) 
-8.5399999999999991

>  <m_primary>  (26) 
energy

$$$$
26:0
     RDKit          3D

 35 36  0  0  0  0  0  0  0  0999 V2000
   -1.5840   25.6070  -28.8800 N   0  0  0  0  0  0  0  0  0  0  0  0
   -0.7860   24.7710  -27.5950 S   0  0  0  0  0  0  0  0  0  0  0  0
    0.6820   24.6670  -27.8910 O   0  0  0  0  0  0  0  0  0  0  0  0
   -0.9670   25.5490  -26.3190 O   0  0  0  0  0  0  0  0  0  0  0  0
   -1.4680   23.1470  -27.4240 C   0  0  0  0  0  0  0  0  0  0  0  0
   -0.6500   22.1100  -26.9430 C   0  0  0  0  0  0  0  0  0  0  0  0
   -1.1410   20.8080  -26.8440 C   0  0  0  0  0  0  0  0  0  0  0  0
   -2.4510   20.5240  -27.2310 C   0  0  0  0  0  0  0  0  0  0  0  0
   -3.2780   21.5410  -27.7080 C   0  0  0  0  0  0  0  0  0  0  0  0
   -2.8020   22.8630  -27.8040 C   0  0  0  0  0  0  0  0  0  0  0  0
   -3.6760   23.9120  -28.2650 N   0  0  0  0  0  0  0  0  0  0  0  0
   -4.7630   23.6840  -29.2160 C   0  0  0  0  0  0  0  0  0  0  0  0
   -4.5180   24.4680  -30.4650 C   0  0  0  0  0  0  0  0  0  0  0  0
   -3.5570   25.2830  -30.5140 O   0  0  0  0  0  0  0  0  0  0  0  0
   -5.3910   24.2940  -31.5880 N   0  0  0  0  0  0  0  0  0  0  0  0
   -6.2420   23.1630  -31.8250 C   0  0  0  0  0  0  0  0  0  0  0  0
   -7.6160   23.1910  -31.5210 C   0  0  0  0  0  0  0  0  0  0  0  0
   -8.4090   22.0590  -31.7430 C   0  0  0  0  0  0  0  0  0  0  0  0
   -7.8350   20.8910  -32.2540 C   0  0  0  0  0  0  0  0  0  0  0  0
   -6.4660   20.8500  -32.5330 C   0  0  0  0  0  0  0  0  0  0  0  0
   -5.6710   21.9790  -32.3110 C   0  0  0  0  0  0  0  0  0  0  0  0
   -2.5880   25.7070  -28.6050 H   0  0  0  0  0  0  0  0  0  0  0  0
   -1.5620   24.9790  -29.7150 H   0  0  0  0  0  0  0  0  0  0  0  0
    0.3856   22.3269  -26.6422 H   0  0  0  0  0  0  0  0  0  0  0  0
   -0.4948   20.0046  -26.4605 H   0  0  0  0  0  0  0  0  0  0  0  0
   -2.8329   19.4949  -27.1597 H   0  0  0  0  0  0  0  0  0  0  0  0
   -4.3095   21.3087  -28.0114 H   0  0  0  0  0  0  0  0  0  0  0  0
   -3.4770   24.8990  -27.9920 H   0  0  0  0  0  0  0  0  0  0  0  0
   -4.8143   22.6130  -29.4616 H   0  0  0  0  0  0  0  0  0  0  0  0
   -5.7128   24.0076  -28.7653 H   0  0  0  0  0  0  0  0  0  0  0  0
   -8.0679   24.1049  -31.1079 H   0  0  0  0  0  0  0  0  0  0  0  0
   -9.4848   22.0884  -31.5152 H   0  0  0  0  0  0  0  0  0  0  0  0
   -8.4605   20.0047  -32.4364 H   0  0  0  0  0  0  0  0  0  0  0  0
   -6.0133   19.9285  -32.9277 H   0  0  0  0  0  0  0  0  0  0  0  0
   -4.5916   21.9374  -32.5190 H   0  0  0  0  0  0  0  0  0  0  0  0
  1  2  1  0
  2  3  2  0
  2  4  2  0
  2  5  1  0
  5  6  2  0
  6  7  1  0
  7  8  2  0
  8  9  1  0
  9 10  2  0
 10 11  1  0
 11 12  1  0
 12 13  1  0
 13 14  2  0
 13 15  1  0
 15 16  1  0
 16 17  2  0
 17 18  1  0
 18 19  2  0
 19 20  1  0
 20 21  2  0
 10  5  1  0
 21 16  1  0
  1 22  1  0
  1 23  1  0
  6 24  1  0
  7 25  1  0
  8 26  1  0
  9 27  1  0
 11 28  1  0
 12 29  1  0
 12 30  1  0
 17 31  1  0
 18 32  1  0
 19 33  1  0
 20 34  1  0
 21 35  1  0
M  CHG  1  15  -1
M  END
>  <UniqueID>  (27) 
27

>  <SMILES>  (27) 
NS(=O)(=O)c1ccccc1NCC(=O)[N-]c1ccccc1

>  <Energy>  (27) 
38.52228088513815

>  <Genealogy>  (27) 
NS(=O)(=O)c1ccccc1NCC(=O)[N-]c1ccccc1 (protonated)
NS(=O)(=O)c1ccccc1NCC(=O)[N-]c1ccccc1 (3D coordinates assigned)
NS(=O)(=O)c1ccccc1NCC(=O)[N-]c1ccccc1 (optimized conformer: 38.52228088513815 kcal/mol)

>  <smiles>  (27) 
NS(=O)(=O)c1ccccc1NCC(=O)Nc1ccccc1

>  <score_type>  (27) 
oracle

>  <origin>  (27) 
adgpu

>  <m_score__min__energy>  (27) 
-8.9499999999999993

>  <m_primary>  (27) 
energy

$$$$
27:0
     RDKit          3D

 33 34  0  0  0  0  0  0  0  0999 V2000
   -1.1980   24.8660  -25.2990 C   0  0  0  0  0  0  0  0  0  0  0  0
   -1.2230   23.7100  -26.1310 O   0  0  0  0  0  0  0  0  0  0  0  0
   -2.1840   23.4690  -27.1230 C   0  0  0  0  0  0  0  0  0  0  0  0
   -2.0980   22.3790  -28.0100 C   0  0  0  0  0  0  0  0  0  0  0  0
   -3.0840   22.1830  -28.9830 C   0  0  0  0  0  0  0  0  0  0  0  0
   -4.1760   23.0570  -29.0760 C   0  0  0  0  0  0  0  0  0  0  0  0
   -5.1640   22.8430  -30.1000 N   0  0  0  0  0  0  0  0  0  0  0  0
   -5.3870   23.7360  -31.2020 C   0  0  0  0  0  0  0  0  0  0  0  0
   -4.8530   24.8790  -31.2180 O   0  0  0  0  0  0  0  0  0  0  0  0
   -6.3030   23.3390  -32.3230 C   0  0  0  0  0  0  0  0  0  0  0  0
   -6.5010   21.8370  -32.3540 C   0  0  0  0  0  0  0  0  0  0  0  0
   -5.4310   20.9620  -32.6680 C   0  0  0  0  0  0  0  0  0  0  0  0
   -3.8210   21.5450  -33.0850 Cl  0  0  0  0  0  0  0  0  0  0  0  0
   -5.6330   19.5780  -32.6620 C   0  0  0  0  0  0  0  0  0  0  0  0
   -6.8820   19.0460  -32.3490 C   0  0  0  0  0  0  0  0  0  0  0  0
   -7.9430   19.8930  -32.0390 C   0  0  0  0  0  0  0  0  0  0  0  0
   -7.7650   21.2810  -32.0380 C   0  0  0  0  0  0  0  0  0  0  0  0
   -9.1560   22.2850  -31.6400 Cl  0  0  0  0  0  0  0  0  0  0  0  0
   -4.2490   24.1560  -28.2040 C   0  0  0  0  0  0  0  0  0  0  0  0
   -3.2630   24.3540  -27.2330 C   0  0  0  0  0  0  0  0  0  0  0  0
   -1.2047   24.5580  -24.2430 H   0  0  0  0  0  0  0  0  0  0  0  0
   -0.2871   25.4469  -25.5057 H   0  0  0  0  0  0  0  0  0  0  0  0
   -2.0830   25.4858  -25.5057 H   0  0  0  0  0  0  0  0  0  0  0  0
   -1.2526   21.6790  -27.9377 H   0  0  0  0  0  0  0  0  0  0  0  0
   -3.0017   21.3364  -29.6805 H   0  0  0  0  0  0  0  0  0  0  0  0
   -5.8190   22.0380  -29.9810 H   0  0  0  0  0  0  0  0  0  0  0  0
   -7.2782   23.8279  -32.1814 H   0  0  0  0  0  0  0  0  0  0  0  0
   -5.8500   23.6533  -33.2748 H   0  0  0  0  0  0  0  0  0  0  0  0
   -4.7988   18.9040  -32.9064 H   0  0  0  0  0  0  0  0  0  0  0  0
   -7.0302   17.9560  -32.3467 H   0  0  0  0  0  0  0  0  0  0  0  0
   -8.9275   19.4682  -31.7933 H   0  0  0  0  0  0  0  0  0  0  0  0
   -5.0865   24.8645  -28.2857 H   0  0  0  0  0  0  0  0  0  0  0  0
   -3.3357   25.2127  -26.5494 H   0  0  0  0  0  0  0  0  0  0  0  0
  1  2  1  0
  2  3  1  0
  3  4  2  0
  4  5  1  0
  5  6  2  0
  6  7  1  0
  7  8  1  0
  8  9  2  0
  8 10  1  0
 10 11  1  0
 11 12  2  0
 12 13  1  0
 12 14  1  0
 14 15  2  0
 15 16  1  0
 16 17  2  0
 17 18  1  0
  6 19  1  0
 19 20  2  0
 20  3  1  0
 17 11  1  0
  1 21  1  0
  1 22  1  0
  1 23  1  0
  4 24  1  0
  5 25  1  0
  7 26  1  0
 10 27  1  0
 10 28  1  0
 14 29  1  0
 15 30  1  0
 16 31  1  0
 19 32  1  0
 20 33  1  0
M  END
>  <UniqueID>  (28) 
28

>  <SMILES>  (28) 
COc1ccc(NC(=O)Cc2c(Cl)cccc2Cl)cc1

>  <Energy>  (28) 
37.74571107354218

>  <Genealogy>  (28) 
COc1ccc(NC(=O)Cc2c(Cl)cccc2Cl)cc1 (3D coordinates assigned)
COc1ccc(NC(=O)Cc2c(Cl)cccc2Cl)cc1 (optimized conformer: 37.74571107354218 kcal/mol)

>  <smiles>  (28) 
COc1ccc(NC(=O)Cc2c(Cl)cccc2Cl)cc1

>  <score_type>  (28) 
oracle

>  <origin>  (28) 
adgpu

>  <m_score__min__energy>  (28) 
-7.1600000000000001

>  <m_primary>  (28) 
energy

$$$$
28:0
     RDKit          3D

 37 39  0  0  0  0  0  0  0  0999 V2000
   -4.2720   25.1360  -30.6870 O   0  0  0  0  0  0  0  0  0  0  0  0
   -3.7520   24.5910  -29.6750 C   0  0  0  0  0  0  0  0  0  0  0  0
   -2.4980   24.9590  -29.2870 N   0  0  0  0  0  0  0  0  0  0  0  0
   -1.8880   24.3930  -28.2110 C   0  0  0  0  0  0  0  0  0  0  0  0
   -2.5410   23.4050  -27.4750 C   0  0  0  0  0  0  0  0  0  0  0  0
   -3.8250   23.0090  -27.8480 C   0  0  0  0  0  0  0  0  0  0  0  0
   -4.4580   23.6090  -28.9480 C   0  0  0  0  0  0  0  0  0  0  0  0
   -5.8450   23.1600  -29.3480 C   0  0  0  0  0  0  0  0  0  0  0  0
   -5.9460   23.0150  -30.8010 N   0  0  0  0  0  0  0  0  0  0  0  0
   -6.7710   22.0390  -31.4660 C   0  0  0  0  0  0  0  0  0  0  0  0
   -8.1700   22.1760  -31.5420 C   0  0  0  0  0  0  0  0  0  0  0  0
   -8.9400   21.2100  -32.1950 C   0  0  0  0  0  0  0  0  0  0  0  0
   -8.3280   20.0990  -32.7760 C   0  0  0  0  0  0  0  0  0  0  0  0
   -6.9370   19.9410  -32.7050 C   0  0  0  0  0  0  0  0  0  0  0  0
   -6.2890   18.7660  -33.3330 C   0  0  0  0  0  0  0  0  0  0  0  0
   -5.9690   18.8120  -34.7020 C   0  0  0  0  0  0  0  0  0  0  0  0
   -5.3450   17.7260  -35.3200 C   0  0  0  0  0  0  0  0  0  0  0  0
   -5.0380   16.5820  -34.5820 C   0  0  0  0  0  0  0  0  0  0  0  0
   -5.3620   16.5180  -33.2240 C   0  0  0  0  0  0  0  0  0  0  0  0
   -5.9870   17.6010  -32.5930 C   0  0  0  0  0  0  0  0  0  0  0  0
   -6.4320   17.4320  -30.8970 Cl  0  0  0  0  0  0  0  0  0  0  0  0
   -6.1640   20.9210  -32.0620 C   0  0  0  0  0  0  0  0  0  0  0  0
   -1.9850   25.6910  -29.8280 H   0  0  0  0  0  0  0  0  0  0  0  0
   -0.8772   24.7155  -27.9208 H   0  0  0  0  0  0  0  0  0  0  0  0
   -2.0476   22.9420  -26.6077 H   0  0  0  0  0  0  0  0  0  0  0  0
   -4.3436   22.2238  -27.2783 H   0  0  0  0  0  0  0  0  0  0  0  0
   -6.0615   22.1917  -28.8731 H   0  0  0  0  0  0  0  0  0  0  0  0
   -6.5698   23.9189  -29.0184 H   0  0  0  0  0  0  0  0  0  0  0  0
   -5.3330   23.6300  -31.3840 H   0  0  0  0  0  0  0  0  0  0  0  0
   -8.6597   23.0484  -31.0848 H   0  0  0  0  0  0  0  0  0  0  0  0
  -10.0324   21.3259  -32.2512 H   0  0  0  0  0  0  0  0  0  0  0  0
   -8.9395   19.3440  -33.2919 H   0  0  0  0  0  0  0  0  0  0  0  0
   -6.2119   19.7095  -35.2899 H   0  0  0  0  0  0  0  0  0  0  0  0
   -5.0951   17.7725  -36.3902 H   0  0  0  0  0  0  0  0  0  0  0  0
   -4.5408   15.7303  -35.0693 H   0  0  0  0  0  0  0  0  0  0  0  0
   -5.1248   15.6118  -32.6474 H   0  0  0  0  0  0  0  0  0  0  0  0
   -5.0701   20.8121  -32.0245 H   0  0  0  0  0  0  0  0  0  0  0  0
  1  2  2  0
  2  3  1  0
  3  4  1  0
  4  5  2  0
  5  6  1  0
  6  7  2  0
  7  8  1  0
  8  9  1  0
  9 10  1  0
 10 11  2  0
 11 12  1  0
 12 13  2  0
 13 14  1  0
 14 15  1  0
 15 16  2  0
 16 17  1  0
 17 18  2  0
 18 19  1  0
 19 20  2  0
 20 21  1  0
 14 22  2  0
  7  2  1  0
 22 10  1  0
 20 15  1  0
  3 23  1  0
  4 24  1  0
  5 25  1  0
  6 26  1  0
  8 27  1  0
  8 28  1  0
  9 29  1  0
 11 30  1  0
 12 31  1  0
 13 32  1  0
 16 33  1  0
 17 34  1  0
 18 35  1  0
 19 36  1  0
 22 37  1  0
M  END
>  <UniqueID>  (29) 
29

>  <SMILES>  (29) 
O=c1[nH]cccc1CNc1cccc(-c2ccccc2Cl)c1

>  <Energy>  (29) 
48.041403502921405

>  <Genealogy>  (29) 
O=c1[nH]cccc1CNc1cccc(-c2ccccc2Cl)c1 (3D coordinates assigned)
O=c1[nH]cccc1CNc1cccc(-c2ccccc2Cl)c1 (optimized conformer: 48.041403502921405 kcal/mol)

>  <smiles>  (29) 
O=c1[nH]cccc1CNc1cccc(-c2ccccc2Cl)c1

>  <score_type>  (29) 
oracle

>  <origin>  (29) 
adgpu

>  <m_score__min__energy>  (29) 
-9.2400000000000002

>  <m_primary>  (29) 
energy

$$$$
29:0
     RDKit          3D

 42 44  0  0  0  0  0  0  0  0999 V2000
   -2.2360   24.1720  -29.3350 C   0  0  0  0  0  0  0  0  0  0  0  0
   -3.1540   24.9270  -30.1180 O   0  0  0  0  0  0  0  0  0  0  0  0
   -4.5020   24.5880  -30.3080 C   0  0  0  0  0  0  0  0  0  0  0  0
   -5.4800   25.5030  -29.9050 C   0  0  0  0  0  0  0  0  0  0  0  0
   -6.8350   25.2070  -30.0620 C   0  0  0  0  0  0  0  0  0  0  0  0
   -7.2270   23.9940  -30.6310 C   0  0  0  0  0  0  0  0  0  0  0  0
   -6.2640   23.0680  -31.0630 C   0  0  0  0  0  0  0  0  0  0  0  0
   -6.6970   21.7770  -31.6490 C   0  0  0  0  0  0  0  0  0  0  0  0
   -7.8240   21.1880  -31.1700 N   0  0  0  0  0  0  0  0  0  0  0  0
   -8.2660   20.0000  -31.6510 C   0  0  0  0  0  0  0  0  0  0  0  0
   -7.5550   19.3600  -32.6620 C   0  0  0  0  0  0  0  0  0  0  0  0
   -6.4280   19.9360  -33.1780 N   0  0  0  0  0  0  0  0  0  0  0  0
   -5.6750   19.2240  -34.2250 C   0  0  0  0  0  0  0  0  0  0  0  0
   -4.5300   18.3970  -33.6220 C   0  0  0  0  0  0  0  0  0  0  0  0
   -3.3500   19.2640  -33.2640 C   0  0  0  0  0  0  0  0  0  0  0  0
   -2.3440   19.5160  -34.2100 C   0  0  0  0  0  0  0  0  0  0  0  0
   -1.2260   20.2790  -33.8630 C   0  0  0  0  0  0  0  0  0  0  0  0
   -1.0980   20.7910  -32.5640 C   0  0  0  0  0  0  0  0  0  0  0  0
    0.0130   21.5510  -32.2050 O   0  0  0  0  0  0  0  0  0  0  0  0
   -2.0950   20.5330  -31.6160 C   0  0  0  0  0  0  0  0  0  0  0  0
   -3.2140   19.7720  -31.9620 C   0  0  0  0  0  0  0  0  0  0  0  0
   -5.9890   21.1430  -32.6940 C   0  0  0  0  0  0  0  0  0  0  0  0
   -4.9710   21.6960  -33.1940 O   0  0  0  0  0  0  0  0  0  0  0  0
   -4.9000   23.3650  -30.8830 C   0  0  0  0  0  0  0  0  0  0  0  0
   -2.4402   24.3399  -28.2672 H   0  0  0  0  0  0  0  0  0  0  0  0
   -2.3497   23.1026  -29.5663 H   0  0  0  0  0  0  0  0  0  0  0  0
   -1.2087   24.4900  -29.5663 H   0  0  0  0  0  0  0  0  0  0  0  0
   -5.1790   26.4633  -29.4609 H   0  0  0  0  0  0  0  0  0  0  0  0
   -7.5960   25.9315  -29.7365 H   0  0  0  0  0  0  0  0  0  0  0  0
   -8.2966   23.7623  -30.7416 H   0  0  0  0  0  0  0  0  0  0  0  0
   -9.1811   19.5446  -31.2446 H   0  0  0  0  0  0  0  0  0  0  0  0
   -7.9007   18.3890  -33.0464 H   0  0  0  0  0  0  0  0  0  0  0  0
   -6.3585   18.5510  -34.7635 H   0  0  0  0  0  0  0  0  0  0  0  0
   -5.2431   19.9684  -34.9101 H   0  0  0  0  0  0  0  0  0  0  0  0
   -4.8926   17.8941  -32.7133 H   0  0  0  0  0  0  0  0  0  0  0  0
   -4.2029   17.6625  -34.3726 H   0  0  0  0  0  0  0  0  0  0  0  0
   -2.4362   19.1112  -35.2286 H   0  0  0  0  0  0  0  0  0  0  0  0
   -0.4443   20.4785  -34.6108 H   0  0  0  0  0  0  0  0  0  0  0  0
    0.9560   21.1960  -32.3200 H   0  0  0  0  0  0  0  0  0  0  0  0
   -1.9969   20.9309  -30.5952 H   0  0  0  0  0  0  0  0  0  0  0  0
   -3.9921   19.5698  -31.2112 H   0  0  0  0  0  0  0  0  0  0  0  0
   -4.1378   22.6355  -31.1941 H   0  0  0  0  0  0  0  0  0  0  0  0
  1  2  1  0
  2  3  1  0
  3  4  2  0
  4  5  1  0
  5  6  2  0
  6  7  1  0
  7  8  1  0
  8  9  2  0
  9 10  1  0
 10 11  2  0
 11 12  1  0
 12 13  1  0
 13 14  1  0
 14 15  1  0
 15 16  2  0
 16 17  1  0
 17 18  2  0
 18 19  1  0
 18 20  1  0
 20 21  2  0
 12 22  1  0
 22 23  2  0
  7 24  2  0
 24  3  1  0
 22  8  1  0
 21 15  1  0
  1 25  1  0
  1 26  1  0
  1 27  1  0
  4 28  1  0
  5 29  1  0
  6 30  1  0
 10 31  1  0
 11 32  1  0
 13 33  1  0
 13 34  1  0
 14 35  1  0
 14 36  1  0
 16 37  1  0
 17 38  1  0
 19 39  1  0
 20 40  1  0
 21 41  1  0
 24 42  1  0
M  END
>  <UniqueID>  (30) 
30

>  <SMILES>  (30) 
COc1cccc(-c2nccn(CCc3ccc(O)cc3)c2=O)c1

>  <Energy>  (30) 
48.958780156817674

>  <Genealogy>  (30) 
COc1cccc(-c2nccn(CCc3ccc(O)cc3)c2=O)c1 (3D coordinates assigned)
COc1cccc(-c2nccn(CCc3ccc(O)cc3)c2=O)c1 (optimized conformer: 48.958780156817674 kcal/mol)

>  <smiles>  (30) 
COc1cccc(-c2nccn(CCc3ccc(O)cc3)c2=O)c1

>  <score_type>  (30) 
oracle

>  <origin>  (30) 
adgpu

>  <m_score__min__energy>  (30) 
-8.8900000000000006

>  <m_primary>  (30) 
energy

$$$$
30:0
     RDKit          3D

 31 33  0  0  0  0  0  0  0  0999 V2000
   -5.5870   18.6310  -34.2270 Cl  0  0  0  0  0  0  0  0  0  0  0  0
   -6.8060   19.1500  -33.0790 C   0  0  0  0  0  0  0  0  0  0  0  0
   -7.7810   18.2490  -32.6390 C   0  0  0  0  0  0  0  0  0  0  0  0
   -8.7500   18.6590  -31.7190 C   0  0  0  0  0  0  0  0  0  0  0  0
   -8.7470   19.9710  -31.2380 C   0  0  0  0  0  0  0  0  0  0  0  0
   -7.7700   20.8840  -31.6720 C   0  0  0  0  0  0  0  0  0  0  0  0
   -7.7270   22.2800  -31.1110 C   0  0  0  0  0  0  0  0  0  0  0  0
   -7.0330   23.4510  -32.3310 S   0  0  0  0  0  0  0  0  0  0  0  0
   -5.5400   23.7630  -31.3940 C   0  0  0  0  0  0  0  0  0  0  0  0
   -4.9970   24.9810  -31.2190 N   0  0  0  0  0  0  0  0  0  0  0  0
   -3.9320   24.7990  -30.4530 N   0  0  0  0  0  0  0  0  0  0  0  0
   -3.8710   23.4780  -30.1920 C   0  0  0  0  0  0  0  0  0  0  0  0
   -2.8460   22.8370  -29.3470 C   0  0  0  0  0  0  0  0  0  0  0  0
   -3.1370   21.6630  -28.6300 C   0  0  0  0  0  0  0  0  0  0  0  0
   -2.1550   21.0590  -27.8390 C   0  0  0  0  0  0  0  0  0  0  0  0
   -0.8770   21.6180  -27.7590 C   0  0  0  0  0  0  0  0  0  0  0  0
   -0.5770   22.7830  -28.4700 C   0  0  0  0  0  0  0  0  0  0  0  0
   -1.5560   23.3920  -29.2620 C   0  0  0  0  0  0  0  0  0  0  0  0
   -4.8540   22.8360  -30.7750 O   0  0  0  0  0  0  0  0  0  0  0  0
   -6.7990   20.4630  -32.5950 C   0  0  0  0  0  0  0  0  0  0  0  0
   -7.7852   17.2162  -33.0175 H   0  0  0  0  0  0  0  0  0  0  0  0
   -9.5154   17.9485  -31.3734 H   0  0  0  0  0  0  0  0  0  0  0  0
   -9.5129   20.2910  -30.5162 H   0  0  0  0  0  0  0  0  0  0  0  0
   -8.7481   22.5949  -30.8497 H   0  0  0  0  0  0  0  0  0  0  0  0
   -7.0848   22.2807  -30.2179 H   0  0  0  0  0  0  0  0  0  0  0  0
   -4.1411   21.2180  -28.6916 H   0  0  0  0  0  0  0  0  0  0  0  0
   -2.3890   20.1419  -27.2785 H   0  0  0  0  0  0  0  0  0  0  0  0
   -0.1064   21.1407  -27.1359 H   0  0  0  0  0  0  0  0  0  0  0  0
    0.4298   23.2215  -28.4068 H   0  0  0  0  0  0  0  0  0  0  0  0
   -1.3163   24.3087  -29.8207 H   0  0  0  0  0  0  0  0  0  0  0  0
   -6.0289   21.1690  -32.9393 H   0  0  0  0  0  0  0  0  0  0  0  0
  1  2  1  0
  2  3  2  0
  3  4  1  0
  4  5  2  0
  5  6  1  0
  6  7  1  0
  7  8  1  0
  8  9  1  0
  9 10  2  0
 10 11  1  0
 11 12  2  0
 12 13  1  0
 13 14  2  0
 14 15  1  0
 15 16  2  0
 16 17  1  0
 17 18  2  0
 12 19  1  0
  6 20  2  0
 20  2  1  0
 19  9  1  0
 18 13  1  0
  3 21  1  0
  4 22  1  0
  5 23  1  0
  7 24  1  0
  7 25  1  0
 14 26  1  0
 15 27  1  0
 16 28  1  0
 17 29  1  0
 18 30  1  0
 20 31  1  0
M  END
>  <UniqueID>  (31) 
31

>  <SMILES>  (31) 
Clc1cccc(CSc2nnc(-c3ccccc3)o2)c1

>  <Energy>  (31) 
63.02177899329289

>  <Genealogy>  (31) 
Clc1cccc(CSc2nnc(-c3ccccc3)o2)c1 (3D coordinates assigned)
Clc1cccc(CSc2nnc(-c3ccccc3)o2)c1 (optimized conformer: 63.02177899329289 kcal/mol)

>  <smiles>  (31) 
Clc1cccc(CSc2nnc(-c3ccccc3)o2)c1

>  <score_type>  (31) 
oracle

>  <origin>  (31) 
adgpu

>  <m_score__min__energy>  (31) 
-8.4499999999999993

>  <m_primary>  (31) 
energy

$$$$
31:0
     RDKit          3D

 24 25  0  0  0  0  0  0  0  0999 V2000
   -1.2560   25.6690  -29.0990 N   0  0  0  0  0  0  0  0  0  0  0  0
   -0.8420   24.4580  -28.4730 C   0  0  0  0  0  0  0  0  0  0  0  0
    0.2240   23.8950  -28.8370 O   0  0  0  0  0  0  0  0  0  0  0  0
   -1.6570   23.8750  -27.3640 C   0  0  0  0  0  0  0  0  0  0  0  0
   -3.3480   24.5630  -27.3820 S   0  0  0  0  0  0  0  0  0  0  0  0
   -3.6900   24.0600  -29.0670 C   0  0  0  0  0  0  0  0  0  0  0  0
   -4.0280   22.8040  -29.4150 N   0  0  0  0  0  0  0  0  0  0  0  0
   -4.1770   22.9210  -30.7500 C   0  0  0  0  0  0  0  0  0  0  0  0
   -4.5490   21.7980  -31.6380 C   0  0  0  0  0  0  0  0  0  0  0  0
   -3.5550   21.0530  -32.2970 C   0  0  0  0  0  0  0  0  0  0  0  0
   -3.9080   19.9920  -33.1380 C   0  0  0  0  0  0  0  0  0  0  0  0
   -5.2540   19.6670  -33.3290 C   0  0  0  0  0  0  0  0  0  0  0  0
   -5.7340   18.2180  -34.4780 Br  0  0  0  0  0  0  0  0  0  0  0  0
   -6.2490   20.4030  -32.6780 C   0  0  0  0  0  0  0  0  0  0  0  0
   -5.9000   21.4630  -31.8370 C   0  0  0  0  0  0  0  0  0  0  0  0
   -3.9450   24.1770  -31.1820 N   0  0  0  0  0  0  0  0  0  0  0  0
   -3.6380   24.8960  -30.1170 N   0  0  0  0  0  0  0  0  0  0  0  0
   -1.6040   25.6710  -30.0850 H   0  0  0  0  0  0  0  0  0  0  0  0
   -1.7092   22.7833  -27.4886 H   0  0  0  0  0  0  0  0  0  0  0  0
   -1.1817   24.1253  -26.4041 H   0  0  0  0  0  0  0  0  0  0  0  0
   -2.4945   21.3057  -32.1506 H   0  0  0  0  0  0  0  0  0  0  0  0
   -3.1252   19.4128  -33.6496 H   0  0  0  0  0  0  0  0  0  0  0  0
   -7.3082   20.1471  -32.8282 H   0  0  0  0  0  0  0  0  0  0  0  0
   -6.6868   22.0387  -31.3277 H   0  0  0  0  0  0  0  0  0  0  0  0
  1  2  1  0
  2  3  2  0
  2  4  1  0
  4  5  1  0
  5  6  1  0
  6  7  2  0
  7  8  1  0
  8  9  1  0
  9 10  2  0
 10 11  1  0
 11 12  2  0
 12 13  1  0
 12 14  1  0
 14 15  2  0
  8 16  2  0
 16 17  1  0
 17  6  1  0
 15  9  1  0
  1 18  1  0
  4 19  1  0
  4 20  1  0
 10 21  1  0
 11 22  1  0
 14 23  1  0
 15 24  1  0
M  CHG  2   1  -1  17  -1
M  END
>  <UniqueID>  (32) 
32

>  <SMILES>  (32) 
[NH-]C(=O)CSc1nc(-c2ccc(Br)cc2)n[n-]1

>  <Energy>  (32) 
51.33778231023931

>  <Genealogy>  (32) 
[NH-]C(=O)CSc1nc(-c2ccc(Br)cc2)n[n-]1 (protonated)
[NH-]C(=O)CSc1nc(-c2ccc(Br)cc2)n[n-]1 (3D coordinates assigned)
[NH-]C(=O)CSc1nc(-c2ccc(Br)cc2)n[n-]1 (optimized conformer: 51.33778231023931 kcal/mol)

>  <smiles>  (32) 
NC(=O)CSc1nc(-c2ccc(Br)cc2)n[nH]1

>  <score_type>  (32) 
oracle

>  <origin>  (32) 
adgpu

>  <m_score__min__energy>  (32) 
-10.44

>  <m_primary>  (32) 
energy

$$$$
32:0
     RDKit          3D

 23 23  0  0  0  0  0  0  0  0999 V2000
   -2.3980   18.9230  -26.5490 C   0  0  0  0  0  0  0  0  0  0  0  0
   -2.7280   20.0870  -27.1170 C   0  0  0  0  0  0  0  0  0  0  0  0
   -1.6860   21.0590  -27.5910 C   0  0  0  0  0  0  0  0  0  0  0  0
   -2.3140   22.1690  -28.3890 C   0  0  0  0  0  0  0  0  0  0  0  0
   -3.5210   21.9590  -29.0730 C   0  0  0  0  0  0  0  0  0  0  0  0
   -4.0890   22.9830  -29.8350 C   0  0  0  0  0  0  0  0  0  0  0  0
   -3.4530   24.2360  -29.9300 C   0  0  0  0  0  0  0  0  0  0  0  0
   -3.9880   25.2930  -30.6830 O   0  0  0  0  0  0  0  0  0  0  0  0
   -5.3590   25.6770  -30.6720 C   0  0  0  0  0  0  0  0  0  0  0  0
   -2.2420   24.4410  -29.2540 C   0  0  0  0  0  0  0  0  0  0  0  0
   -1.5970   25.6690  -29.3390 O   0  0  0  0  0  0  0  0  0  0  0  0
   -1.6750   23.4150  -28.4910 C   0  0  0  0  0  0  0  0  0  0  0  0
   -3.1853   18.2325  -26.2123 H   0  0  0  0  0  0  0  0  0  0  0  0
   -1.3391   18.6555  -26.4182 H   0  0  0  0  0  0  0  0  0  0  0  0
   -3.7914   20.3398  -27.2406 H   0  0  0  0  0  0  0  0  0  0  0  0
   -1.1706   21.4886  -26.7193 H   0  0  0  0  0  0  0  0  0  0  0  0
   -0.9712   20.5239  -28.2334 H   0  0  0  0  0  0  0  0  0  0  0  0
   -4.0230   20.9823  -29.0089 H   0  0  0  0  0  0  0  0  0  0  0  0
   -5.0380   22.8097  -30.3636 H   0  0  0  0  0  0  0  0  0  0  0  0
   -5.7043   25.7737  -29.6321 H   0  0  0  0  0  0  0  0  0  0  0  0
   -5.4737   26.6418  -31.1877 H   0  0  0  0  0  0  0  0  0  0  0  0
   -5.9582   24.9121  -31.1877 H   0  0  0  0  0  0  0  0  0  0  0  0
   -0.7226   23.5854  -27.9676 H   0  0  0  0  0  0  0  0  0  0  0  0
  1  2  2  0
  2  3  1  0
  3  4  1  0
  4  5  2  0
  5  6  1  0
  6  7  2  0
  7  8  1  0
  8  9  1  0
  7 10  1  0
 10 11  1  0
 10 12  2  0
 12  4  1  0
  1 13  1  0
  1 14  1  0
  2 15  1  0
  3 16  1  0
  3 17  1  0
  5 18  1  0
  6 19  1  0
  9 20  1  0
  9 21  1  0
  9 22  1  0
 12 23  1  0
M  CHG  1  11  -1
M  END
>  <UniqueID>  (33) 
33

>  <SMILES>  (33) 
C=CCc1ccc(OC)c([O-])c1

>  <Energy>  (33) 
17.389081687888208

>  <Genealogy>  (33) 
C=CCc1ccc(OC)c([O-])c1 (protonated)
C=CCc1ccc(OC)c([O-])c1 (3D coordinates assigned)
C=CCc1ccc(OC)c([O-])c1 (optimized conformer: 17.389081687888208 kcal/mol)

>  <smiles>  (33) 
C=CCc1ccc(OC)c(O)c1

>  <score_type>  (33) 
oracle

>  <origin>  (33) 
adgpu

>  <m_score__min__energy>  (33) 
-8.5600000000000005

>  <m_primary>  (33) 
energy

$$$$
33:0
     RDKit          3D

 46 48  0  0  0  0  0  0  0  0999 V2000
   -6.4740   17.0160  -34.0940 C   0  0  0  0  0  0  0  0  0  0  0  0
   -5.6750   18.0770  -33.3950 C   0  0  0  0  0  0  0  0  0  0  0  0
   -4.6760   18.7890  -34.0770 C   0  0  0  0  0  0  0  0  0  0  0  0
   -3.9510   19.7880  -33.4200 C   0  0  0  0  0  0  0  0  0  0  0  0
   -4.2310   20.1050  -32.0800 C   0  0  0  0  0  0  0  0  0  0  0  0
   -3.4820   21.1180  -31.3860 N   0  0  0  0  0  0  0  0  0  0  0  0
   -3.9520   22.3380  -31.1750 N   0  0  0  0  0  0  0  0  0  0  0  0
   -3.0070   23.0420  -30.5210 C   0  0  0  0  0  0  0  0  0  0  0  0
   -3.1360   24.4550  -30.1060 C   0  0  0  0  0  0  0  0  0  0  0  0
   -2.3670   24.8960  -29.2120 O   0  0  0  0  0  0  0  0  0  0  0  0
   -4.0970   25.3550  -30.6790 N   0  0  0  0  0  0  0  0  0  0  0  0
   -5.4900   25.4960  -30.2740 C   0  0  0  0  0  0  0  0  0  0  0  0
   -6.2550   24.2780  -30.7020 C   0  0  0  0  0  0  0  0  0  0  0  0
   -6.3670   23.9500  -32.0630 C   0  0  0  0  0  0  0  0  0  0  0  0
   -7.1090   22.8330  -32.4610 C   0  0  0  0  0  0  0  0  0  0  0  0
   -7.7610   22.0430  -31.5040 C   0  0  0  0  0  0  0  0  0  0  0  0
   -8.6930   20.6300  -31.9910 S   0  0  0  0  0  0  0  0  0  0  0  0
   -8.0610   19.9980  -33.4710 N   0  0  0  0  0  0  0  0  0  0  0  0
  -10.1360   21.0030  -32.1870 O   0  0  0  0  0  0  0  0  0  0  0  0
   -8.6080   19.5810  -30.9170 O   0  0  0  0  0  0  0  0  0  0  0  0
   -7.6560   22.3730  -30.1470 C   0  0  0  0  0  0  0  0  0  0  0  0
   -6.9140   23.4880  -29.7470 C   0  0  0  0  0  0  0  0  0  0  0  0
   -1.8940   22.2450  -30.3150 C   0  0  0  0  0  0  0  0  0  0  0  0
   -2.2250   21.0340  -30.8900 C   0  0  0  0  0  0  0  0  0  0  0  0
   -1.3170   19.8440  -30.9660 C   0  0  0  0  0  0  0  0  0  0  0  0
   -5.2200   19.3820  -31.3990 C   0  0  0  0  0  0  0  0  0  0  0  0
   -5.9440   18.3810  -32.0540 C   0  0  0  0  0  0  0  0  0  0  0  0
   -6.9597   16.3710  -33.3470 H   0  0  0  0  0  0  0  0  0  0  0  0
   -7.2414   17.4900  -34.7236 H   0  0  0  0  0  0  0  0  0  0  0  0
   -5.8065   16.4094  -34.7236 H   0  0  0  0  0  0  0  0  0  0  0  0
   -4.4627   18.5604  -35.1316 H   0  0  0  0  0  0  0  0  0  0  0  0
   -3.1568   20.3289  -33.9553 H   0  0  0  0  0  0  0  0  0  0  0  0
   -5.5463   25.6001  -29.1804 H   0  0  0  0  0  0  0  0  0  0  0  0
   -5.9234   26.3894  -30.7473 H   0  0  0  0  0  0  0  0  0  0  0  0
   -5.8690   24.5743  -32.8194 H   0  0  0  0  0  0  0  0  0  0  0  0
   -7.1811   22.5739  -33.5276 H   0  0  0  0  0  0  0  0  0  0  0  0
   -8.2280   18.9660  -33.4590 H   0  0  0  0  0  0  0  0  0  0  0  0
   -8.6450   20.3890  -34.2430 H   0  0  0  0  0  0  0  0  0  0  0  0
   -8.1600   21.7516  -29.3921 H   0  0  0  0  0  0  0  0  0  0  0  0
   -6.8463   23.7473  -28.6801 H   0  0  0  0  0  0  0  0  0  0  0  0
   -0.9565   22.5156  -29.8073 H   0  0  0  0  0  0  0  0  0  0  0  0
   -1.0630   19.5111  -29.9488 H   0  0  0  0  0  0  0  0  0  0  0  0
   -1.8248   19.0290  -31.5025 H   0  0  0  0  0  0  0  0  0  0  0  0
   -0.3968   20.1186  -31.5025 H   0  0  0  0  0  0  0  0  0  0  0  0
   -5.4281   19.6036  -30.3418 H   0  0  0  0  0  0  0  0  0  0  0  0
   -6.7281   17.8299  -31.5142 H   0  0  0  0  0  0  0  0  0  0  0  0
  1  2  1  0
  2  3  2  0
  3  4  1  0
  4  5  2  0
  5  6  1  0
  6  7  1  0
  7  8  2  0
  8  9  1  0
  9 10  2  0
  9 11  1  0
 11 12  1  0
 12 13  1  0
 13 14  2  0
 14 15  1  0
 15 16  2  0
 16 17  1  0
 17 18  1  0
 17 19  2  0
 17 20  2  0
 16 21  1  0
 21 22  2  0
  8 23  1  0
 23 24  2  0
 24 25  1  0
  5 26  1  0
 26 27  2  0
 27  2  1  0
 24  6  1  0
 22 13  1  0
  1 28  1  0
  1 29  1  0
  1 30  1  0
  3 31  1  0
  4 32  1  0
 12 33  1  0
 12 34  1  0
 14 35  1  0
 15 36  1  0
 18 37  1  0
 18 38  1  0
 21 39  1  0
 22 40  1  0
 23 41  1  0
 25 42  1  0
 25 43  1  0
 25 44  1  0
 26 45  1  0
 27 46  1  0
M  CHG  1  11  -1
M  END
>  <UniqueID>  (34) 
34

>  <SMILES>  (34) 
Cc1ccc(-n2nc(C(=O)[N-]Cc3ccc(S(N)(=O)=O)cc3)cc2C)cc1

>  <Energy>  (34) 
78.65954527365295

>  <Genealogy>  (34) 
Cc1ccc(-n2nc(C(=O)[N-]Cc3ccc(S(N)(=O)=O)cc3)cc2C)cc1 (protonated)
Cc1ccc(-n2nc(C(=O)[N-]Cc3ccc(S(N)(=O)=O)cc3)cc2C)cc1 (3D coordinates assigned)
Cc1ccc(-n2nc(C(=O)[N-]Cc3ccc(S(N)(=O)=O)cc3)cc2C)cc1 (optimized conformer: 78.65954527365295 kcal/mol)

>  <smiles>  (34) 
Cc1ccc(-n2nc(C(=O)NCc3ccc(S(N)(=O)=O)cc3)cc2C)cc1

>  <score_type>  (34) 
oracle

>  <origin>  (34) 
adgpu

>  <m_score__min__energy>  (34) 
-11.970000000000001

>  <m_primary>  (34) 
energy

$$$$
34:0
     RDKit          3D

 32 34  0  0  0  0  0  0  0  0999 V2000
   -3.4840   25.2860  -30.4990 N   0  0  0  0  0  0  0  0  0  0  0  0
   -5.0940   24.7060  -30.2640 S   0  0  0  0  0  0  0  0  0  0  0  0
   -6.0740   25.7040  -30.8170 O   0  0  0  0  0  0  0  0  0  0  0  0
   -5.3560   24.5390  -28.7940 O   0  0  0  0  0  0  0  0  0  0  0  0
   -5.2890   23.1610  -31.0860 C   0  0  0  0  0  0  0  0  0  0  0  0
   -6.5660   22.7010  -31.4260 C   0  0  0  0  0  0  0  0  0  0  0  0
   -6.7240   21.4800  -32.0900 C   0  0  0  0  0  0  0  0  0  0  0  0
   -5.6000   20.6990  -32.4270 C   0  0  0  0  0  0  0  0  0  0  0  0
   -5.7420   19.4370  -33.1120 N   0  0  0  0  0  0  0  0  0  0  0  0
   -5.6160   18.1950  -32.6030 C   0  0  0  0  0  0  0  0  0  0  0  0
   -5.8350   17.3180  -33.6490 C   0  0  0  0  0  0  0  0  0  0  0  0
   -5.8060   15.8360  -33.6150 C   0  0  0  0  0  0  0  0  0  0  0  0
   -4.7660   15.1700  -32.9400 C   0  0  0  0  0  0  0  0  0  0  0  0
   -4.7260   13.7740  -32.9010 C   0  0  0  0  0  0  0  0  0  0  0  0
   -5.7220   13.0260  -33.5310 C   0  0  0  0  0  0  0  0  0  0  0  0
   -6.7600   13.6730  -34.2040 C   0  0  0  0  0  0  0  0  0  0  0  0
   -6.8050   15.0710  -34.2470 C   0  0  0  0  0  0  0  0  0  0  0  0
   -6.0840   18.0470  -34.7560 N   0  0  0  0  0  0  0  0  0  0  0  0
   -6.0200   19.3220  -34.4030 N   0  0  0  0  0  0  0  0  0  0  0  0
   -4.3200   21.1760  -32.0900 C   0  0  0  0  0  0  0  0  0  0  0  0
   -4.1660   22.3960  -31.4260 C   0  0  0  0  0  0  0  0  0  0  0  0
   -3.5340   26.0410  -31.2180 H   0  0  0  0  0  0  0  0  0  0  0  0
   -7.4504   23.3028  -31.1697 H   0  0  0  0  0  0  0  0  0  0  0  0
   -7.7325   21.1268  -32.3510 H   0  0  0  0  0  0  0  0  0  0  0  0
   -5.3845   17.9313  -31.5605 H   0  0  0  0  0  0  0  0  0  0  0  0
   -3.9788   15.7529  -32.4394 H   0  0  0  0  0  0  0  0  0  0  0  0
   -3.9076   13.2631  -32.3726 H   0  0  0  0  0  0  0  0  0  0  0  0
   -5.6890   11.9270  -33.4972 H   0  0  0  0  0  0  0  0  0  0  0  0
   -7.5438   13.0829  -34.7013 H   0  0  0  0  0  0  0  0  0  0  0  0
   -7.6259   15.5754  -34.7778 H   0  0  0  0  0  0  0  0  0  0  0  0
   -3.4315   20.5827  -32.3518 H   0  0  0  0  0  0  0  0  0  0  0  0
   -3.1591   22.7569  -31.1694 H   0  0  0  0  0  0  0  0  0  0  0  0
  1  2  1  0
  2  3  2  0
  2  4  2  0
  2  5  1  0
  5  6  2  0
  6  7  1  0
  7  8  2  0
  8  9  1  0
  9 10  1  0
 10 11  2  0
 11 12  1  0
 12 13  2  0
 13 14  1  0
 14 15  2  0
 15 16  1  0
 16 17  2  0
 11 18  1  0
 18 19  2  0
  8 20  1  0
 20 21  2  0
 21  5  1  0
 19  9  1  0
 17 12  1  0
  1 22  1  0
  6 23  1  0
  7 24  1  0
 10 25  1  0
 13 26  1  0
 14 27  1  0
 15 28  1  0
 16 29  1  0
 17 30  1  0
 20 31  1  0
 21 32  1  0
M  CHG  1   1  -1
M  END
>  <UniqueID>  (35) 
35

>  <SMILES>  (35) 
[NH-]S(=O)(=O)c1ccc(-n2cc(-c3ccccc3)nn2)cc1

>  <Energy>  (35) 
73.20168258233139

>  <Genealogy>  (35) 
[NH-]S(=O)(=O)c1ccc(-n2cc(-c3ccccc3)nn2)cc1 (protonated)
[NH-]S(=O)(=O)c1ccc(-n2cc(-c3ccccc3)nn2)cc1 (3D coordinates assigned)
[NH-]S(=O)(=O)c1ccc(-n2cc(-c3ccccc3)nn2)cc1 (optimized conformer: 73.20168258233139 kcal/mol)

>  <smiles>  (35) 
NS(=O)(=O)c1ccc(-n2cc(-c3ccccc3)nn2)cc1

>  <score_type>  (35) 
oracle

>  <origin>  (35) 
adgpu

>  <m_score__min__energy>  (35) 
-9.9900000000000002

>  <m_primary>  (35) 
energy

$$$$
35:0
     RDKit          3D

 37 39  0  0  0  0  0  0  0  0999 V2000
   -4.9340   25.3630  -30.4670 C   0  0  0  0  0  0  0  0  0  0  0  0
   -3.5140   25.2800  -30.4230 O   0  0  0  0  0  0  0  0  0  0  0  0
   -2.7870   24.4980  -29.5080 C   0  0  0  0  0  0  0  0  0  0  0  0
   -2.1560   25.0740  -28.3860 C   0  0  0  0  0  0  0  0  0  0  0  0
   -1.4200   24.2830  -27.5030 C   0  0  0  0  0  0  0  0  0  0  0  0
   -1.3060   22.9110  -27.7200 C   0  0  0  0  0  0  0  0  0  0  0  0
   -0.3870   21.9210  -26.6010 Cl  0  0  0  0  0  0  0  0  0  0  0  0
   -1.9280   22.3240  -28.8240 C   0  0  0  0  0  0  0  0  0  0  0  0
   -2.6720   23.1060  -29.7290 C   0  0  0  0  0  0  0  0  0  0  0  0
   -3.3420   22.4610  -30.8870 C   0  0  0  0  0  0  0  0  0  0  0  0
   -4.7190   22.1810  -30.8650 C   0  0  0  0  0  0  0  0  0  0  0  0
   -5.3290   21.5750  -31.9770 C   0  0  0  0  0  0  0  0  0  0  0  0
   -6.7840   21.2730  -31.9690 C   0  0  0  0  0  0  0  0  0  0  0  0
   -7.7310   22.3110  -31.9620 C   0  0  0  0  0  0  0  0  0  0  0  0
   -9.0930   22.0060  -31.9550 C   0  0  0  0  0  0  0  0  0  0  0  0
   -9.5020   20.7100  -31.9560 N   0  0  0  0  0  0  0  0  0  0  0  0
   -8.6150   19.6780  -31.9670 C   0  0  0  0  0  0  0  0  0  0  0  0
   -9.1140   18.2690  -31.9500 C   0  0  0  0  0  0  0  0  0  0  0  0
   -7.2390   19.9430  -31.9700 C   0  0  0  0  0  0  0  0  0  0  0  0
   -4.5390   21.2590  -33.0930 C   0  0  0  0  0  0  0  0  0  0  0  0
   -3.1740   21.5480  -33.0780 C   0  0  0  0  0  0  0  0  0  0  0  0
   -2.6130   22.1360  -31.9900 N   0  0  0  0  0  0  0  0  0  0  0  0
   -5.3319   25.3863  -29.4417 H   0  0  0  0  0  0  0  0  0  0  0  0
   -5.2315   26.2801  -30.9966 H   0  0  0  0  0  0  0  0  0  0  0  0
   -5.3363   24.4868  -30.9966 H   0  0  0  0  0  0  0  0  0  0  0  0
   -2.2447   26.1555  -28.2055 H   0  0  0  0  0  0  0  0  0  0  0  0
   -0.9285   24.7435  -26.6333 H   0  0  0  0  0  0  0  0  0  0  0  0
   -1.8360   21.2403  -28.9885 H   0  0  0  0  0  0  0  0  0  0  0  0
   -5.3187   22.4357  -29.9787 H   0  0  0  0  0  0  0  0  0  0  0  0
   -7.4002   23.3601  -31.9620 H   0  0  0  0  0  0  0  0  0  0  0  0
   -9.8369   22.8163  -31.9487 H   0  0  0  0  0  0  0  0  0  0  0  0
   -9.2325   17.9345  -30.9088 H   0  0  0  0  0  0  0  0  0  0  0  0
  -10.0850   18.2177  -32.4643 H   0  0  0  0  0  0  0  0  0  0  0  0
   -8.3917   17.6180  -32.4643 H   0  0  0  0  0  0  0  0  0  0  0  0
   -6.5172   19.1129  -31.9731 H   0  0  0  0  0  0  0  0  0  0  0  0
   -4.9938   20.7856  -33.9756 H   0  0  0  0  0  0  0  0  0  0  0  0
   -2.5508   21.2989  -33.9496 H   0  0  0  0  0  0  0  0  0  0  0  0
  1  2  1  0
  2  3  1  0
  3  4  2  0
  4  5  1  0
  5  6  2  0
  6  7  1  0
  6  8  1  0
  8  9  2  0
  9 10  1  0
 10 11  2  0
 11 12  1  0
 12 13  1  0
 13 14  2  0
 14 15  1  0
 15 16  2  0
 16 17  1  0
 17 18  1  0
 17 19  2  0
 12 20  2  0
 20 21  1  0
 21 22  2  0
  9  3  1  0
 22 10  1  0
 19 13  1  0
  1 23  1  0
  1 24  1  0
  1 25  1  0
  4 26  1  0
  5 27  1  0
  8 28  1  0
 11 29  1  0
 14 30  1  0
 15 31  1  0
 18 32  1  0
 18 33  1  0
 18 34  1  0
 19 35  1  0
 20 36  1  0
 21 37  1  0
M  END
>  <UniqueID>  (36) 
36

>  <SMILES>  (36) 
COc1ccc(Cl)cc1-c1cc(-c2ccnc(C)c2)ccn1

>  <Energy>  (36) 
49.60277566810511

>  <Genealogy>  (36) 
COc1ccc(Cl)cc1-c1cc(-c2ccnc(C)c2)ccn1 (3D coordinates assigned)
COc1ccc(Cl)cc1-c1cc(-c2ccnc(C)c2)ccn1 (optimized conformer: 49.60277566810511 kcal/mol)

>  <smiles>  (36) 
COc1ccc(Cl)cc1-c1cc(-c2ccnc(C)c2)ccn1

>  <score_type>  (36) 
oracle

>  <origin>  (36) 
adgpu

>  <m_score__min__energy>  (36) 
-8.7100000000000009

>  <m_primary>  (36) 
energy

$$$$
36:0
     RDKit          3D

 31 32  0  0  0  0  0  0  0  0999 V2000
   -9.4450   21.6880  -30.8880 C   0  0  0  0  0  0  0  0  0  0  0  0
   -8.5490   20.8560  -31.7480 C   0  0  0  0  0  0  0  0  0  0  0  0
   -8.9360   19.7010  -32.3230 N   0  0  0  0  0  0  0  0  0  0  0  0
   -7.9160   19.2460  -32.9930 O   0  0  0  0  0  0  0  0  0  0  0  0
   -6.8770   20.0410  -32.8810 C   0  0  0  0  0  0  0  0  0  0  0  0
   -5.5590   19.7860  -33.5340 C   0  0  0  0  0  0  0  0  0  0  0  0
   -7.2280   21.1140  -32.0790 C   0  0  0  0  0  0  0  0  0  0  0  0
   -6.3900   22.2630  -31.6700 C   0  0  0  0  0  0  0  0  0  0  0  0
   -6.8790   23.5730  -31.7840 C   0  0  0  0  0  0  0  0  0  0  0  0
   -6.0920   24.6560  -31.3890 C   0  0  0  0  0  0  0  0  0  0  0  0
   -4.8040   24.4470  -30.8770 C   0  0  0  0  0  0  0  0  0  0  0  0
   -4.0290   25.5330  -30.4750 O   0  0  0  0  0  0  0  0  0  0  0  0
   -4.3010   23.1380  -30.7680 C   0  0  0  0  0  0  0  0  0  0  0  0
   -2.6850   22.8510  -30.1180 S   0  0  0  0  0  0  0  0  0  0  0  0
   -2.7960   21.7590  -28.7180 C   0  0  0  0  0  0  0  0  0  0  0  0
   -1.8100   22.2180  -31.1650 O   0  0  0  0  0  0  0  0  0  0  0  0
   -2.0670   24.1550  -29.6990 O   0  0  0  0  0  0  0  0  0  0  0  0
   -5.1000   22.0540  -31.1610 C   0  0  0  0  0  0  0  0  0  0  0  0
   -9.2276   21.4861  -29.8288 H   0  0  0  0  0  0  0  0  0  0  0  0
   -9.2722   22.7532  -31.1012 H   0  0  0  0  0  0  0  0  0  0  0  0
  -10.4945   21.4369  -31.1012 H   0  0  0  0  0  0  0  0  0  0  0  0
   -4.7899   19.6372  -32.7618 H   0  0  0  0  0  0  0  0  0  0  0  0
   -5.6286   18.8847  -34.1607 H   0  0  0  0  0  0  0  0  0  0  0  0
   -5.2874   20.6482  -34.1607 H   0  0  0  0  0  0  0  0  0  0  0  0
   -7.8877   23.7475  -32.1867 H   0  0  0  0  0  0  0  0  0  0  0  0
   -6.4848   25.6794  -31.4800 H   0  0  0  0  0  0  0  0  0  0  0  0
   -3.0930   25.6810  -30.8350 H   0  0  0  0  0  0  0  0  0  0  0  0
   -2.7363   22.3459  -27.7896 H   0  0  0  0  0  0  0  0  0  0  0  0
   -3.7537   21.2188  -28.7494 H   0  0  0  0  0  0  0  0  0  0  0  0
   -1.9666   21.0371  -28.7494 H   0  0  0  0  0  0  0  0  0  0  0  0
   -4.7106   21.0293  -31.0690 H   0  0  0  0  0  0  0  0  0  0  0  0
  1  2  1  0
  2  3  2  0
  3  4  1  0
  4  5  1  0
  5  6  1  0
  5  7  2  0
  7  8  1  0
  8  9  2  0
  9 10  1  0
 10 11  2  0
 11 12  1  0
 11 13  1  0
 13 14  1  0
 14 15  1  0
 14 16  2  0
 14 17  2  0
 13 18  2  0
  7  2  1  0
 18  8  1  0
  1 19  1  0
  1 20  1  0
  1 21  1  0
  6 22  1  0
  6 23  1  0
  6 24  1  0
  9 25  1  0
 10 26  1  0
 12 27  1  0
 15 28  1  0
 15 29  1  0
 15 30  1  0
 18 31  1  0
M  END
>  <UniqueID>  (37) 
37

>  <SMILES>  (37) 
Cc1noc(C)c1-c1ccc(O)c(S(C)(=O)=O)c1

>  <Energy>  (37) 
62.13140193520085

>  <Genealogy>  (37) 
Cc1noc(C)c1-c1ccc(O)c(S(C)(=O)=O)c1 (3D coordinates assigned)
Cc1noc(C)c1-c1ccc(O)c(S(C)(=O)=O)c1 (optimized conformer: 62.13140193520085 kcal/mol)

>  <smiles>  (37) 
Cc1noc(C)c1-c1ccc(O)c(S(C)(=O)=O)c1

>  <score_type>  (37) 
oracle

>  <origin>  (37) 
adgpu

>  <m_score__min__energy>  (37) 
-8.5099999999999998

>  <m_primary>  (37) 
energy

$$$$
37:0
     RDKit          3D

 22 23  0  0  0  0  0  0  0  0999 V2000
   -5.0030   21.6070  -32.3290 Br  0  0  0  0  0  0  0  0  0  0  0  0
   -6.8980   21.3590  -32.1500 C   0  0  0  0  0  0  0  0  0  0  0  0
   -7.6600   22.4400  -31.6890 C   0  0  0  0  0  0  0  0  0  0  0  0
   -9.0500   22.3360  -31.5960 C   0  0  0  0  0  0  0  0  0  0  0  0
   -9.6890   21.1530  -31.9700 C   0  0  0  0  0  0  0  0  0  0  0  0
   -8.9390   20.0680  -32.4310 C   0  0  0  0  0  0  0  0  0  0  0  0
   -7.5400   20.1540  -32.5180 C   0  0  0  0  0  0  0  0  0  0  0  0
   -6.7760   18.9800  -32.9950 C   0  0  0  0  0  0  0  0  0  0  0  0
   -6.7360   17.7980  -32.2370 C   0  0  0  0  0  0  0  0  0  0  0  0
   -6.0280   16.6860  -32.7020 C   0  0  0  0  0  0  0  0  0  0  0  0
   -5.3630   16.7430  -33.9300 C   0  0  0  0  0  0  0  0  0  0  0  0
   -5.4080   17.9100  -34.6970 C   0  0  0  0  0  0  0  0  0  0  0  0
   -6.1150   19.0250  -34.2340 C   0  0  0  0  0  0  0  0  0  0  0  0
   -7.1611   23.3763  -31.3985 H   0  0  0  0  0  0  0  0  0  0  0  0
   -9.6413   23.1873  -31.2277 H   0  0  0  0  0  0  0  0  0  0  0  0
  -10.7841   21.0747  -31.9018 H   0  0  0  0  0  0  0  0  0  0  0  0
   -9.4483   19.1393  -32.7281 H   0  0  0  0  0  0  0  0  0  0  0  0
   -7.2641   17.7472  -31.2734 H   0  0  0  0  0  0  0  0  0  0  0  0
   -5.9942   15.7653  -32.1010 H   0  0  0  0  0  0  0  0  0  0  0  0
   -4.8036   15.8682  -34.2930 H   0  0  0  0  0  0  0  0  0  0  0  0
   -4.8874   17.9521  -35.6651 H   0  0  0  0  0  0  0  0  0  0  0  0
   -6.1535   19.9406  -34.8425 H   0  0  0  0  0  0  0  0  0  0  0  0
  1  2  1  0
  2  3  2  0
  3  4  1  0
  4  5  2  0
  5  6  1  0
  6  7  2  0
  7  8  1  0
  8  9  2  0
  9 10  1  0
 10 11  2  0
 11 12  1  0
 12 13  2  0
  7  2  1  0
 13  8  1  0
  3 14  1  0
  4 15  1  0
  5 16  1  0
  6 17  1  0
  9 18  1  0
 10 19  1  0
 11 20  1  0
 12 21  1  0
 13 22  1  0
M  END
>  <UniqueID>  (38) 
38

>  <SMILES>  (38) 
Brc1ccccc1-c1ccccc1

>  <Energy>  (38) 
30.57271693039145

>  <Genealogy>  (38) 
Brc1ccccc1-c1ccccc1 (3D coordinates assigned)
Brc1ccccc1-c1ccccc1 (optimized conformer: 30.57271693039145 kcal/mol)

>  <smiles>  (38) 
Brc1ccccc1-c1ccccc1

>  <score_type>  (38) 
oracle

>  <origin>  (38) 
adgpu

>  <m_score__min__energy>  (38) 
-6.71

>  <m_primary>  (38) 
energy

$$$$
38:0
     RDKit          3D

 35 37  0  0  0  0  0  0  0  0999 V2000
   -5.3014   17.0742  -34.3047 H   0  0  0  0  0  0  0  0  0  0  0  0
   -5.7810   17.9340  -33.8140 C   0  0  0  0  0  0  0  0  0  0  0  0
   -5.1970   19.1990  -33.8950 C   0  0  0  0  0  0  0  0  0  0  0  0
   -4.2537   19.3341  -34.4444 H   0  0  0  0  0  0  0  0  0  0  0  0
   -5.8080   20.2930  -33.2800 C   0  0  0  0  0  0  0  0  0  0  0  0
   -5.3355   21.2846  -33.3386 H   0  0  0  0  0  0  0  0  0  0  0  0
   -7.0220   20.1400  -32.5860 C   0  0  0  0  0  0  0  0  0  0  0  0
   -7.6430   21.3480  -31.9230 C   0  0  0  0  0  0  0  0  0  0  0  0
   -7.5567   21.2432  -30.8314 H   0  0  0  0  0  0  0  0  0  0  0  0
   -8.6998   21.4072  -32.2225 H   0  0  0  0  0  0  0  0  0  0  0  0
   -6.9870   22.5500  -32.3300 O   0  0  0  0  0  0  0  0  0  0  0  0
   -6.0000   23.2220  -31.5910 C   0  0  0  0  0  0  0  0  0  0  0  0
   -6.2890   24.5200  -31.1200 C   0  0  0  0  0  0  0  0  0  0  0  0
   -7.2661   24.9726  -31.3444 H   0  0  0  0  0  0  0  0  0  0  0  0
   -5.3480   25.2430  -30.3690 C   0  0  0  0  0  0  0  0  0  0  0  0
   -5.5806   26.2541  -30.0037 H   0  0  0  0  0  0  0  0  0  0  0  0
   -4.1140   24.6560  -30.0950 C   0  0  0  0  0  0  0  0  0  0  0  0
   -3.1230   25.2480  -29.3820 N   0  0  0  0  0  0  0  0  0  0  0  0
   -2.0490   24.4250  -29.2900 C   0  0  0  0  0  0  0  0  0  0  0  0
   -0.9560   24.7360  -28.6620 N   0  0  0  0  0  0  0  0  0  0  0  0
   -0.7560   26.0110  -27.9800 C   0  0  0  0  0  0  0  0  0  0  0  0
   -1.1756   26.8228  -28.5923 H   0  0  0  0  0  0  0  0  0  0  0  0
    0.3208   26.1791  -27.8309 H   0  0  0  0  0  0  0  0  0  0  0  0
   -1.4530   25.9850  -26.6290 C   0  0  0  0  0  0  0  0  0  0  0  0
   -0.7002   26.0131  -25.8274 H   0  0  0  0  0  0  0  0  0  0  0  0
   -2.1150   26.8591  -26.5411 H   0  0  0  0  0  0  0  0  0  0  0  0
   -2.0481   25.0640  -26.5411 H   0  0  0  0  0  0  0  0  0  0  0  0
   -2.2780   22.9470  -30.0780 S   0  0  0  0  0  0  0  0  0  0  0  0
   -3.8270   23.3820  -30.5610 C   0  0  0  0  0  0  0  0  0  0  0  0
   -4.7410   22.6440  -31.3080 C   0  0  0  0  0  0  0  0  0  0  0  0
   -4.4899   21.6358  -31.6693 H   0  0  0  0  0  0  0  0  0  0  0  0
   -7.5970   18.8500  -32.4880 C   0  0  0  0  0  0  0  0  0  0  0  0
   -9.0850   18.5470  -31.5950 Cl  0  0  0  0  0  0  0  0  0  0  0  0
   -6.9740   17.7600  -33.1100 C   0  0  0  0  0  0  0  0  0  0  0  0
   -7.4280   16.7603  -33.0432 H   0  0  0  0  0  0  0  0  0  0  0  0
  1  2  1  0
  2  3  2  0
  3  4  1  0
  3  5  1  0
  5  6  1  0
  5  7  2  0
  7  8  1  0
  8  9  1  0
  8 10  1  0
  8 11  1  0
 11 12  1  0
 12 13  2  0
 13 14  1  0
 13 15  1  0
 15 16  1  0
 15 17  2  0
 17 18  1  0
 18 19  1  0
 19 20  2  0
 20 21  1  0
 21 22  1  0
 21 23  1  0
 21 24  1  0
 24 25  1  0
 24 26  1  0
 24 27  1  0
 19 28  1  0
 28 29  1  0
 29 30  2  0
 30 31  1  0
  7 32  1  0
 32 33  1  0
 32 34  2  0
 34 35  1  0
 34  2  1  0
 30 12  1  0
 29 17  1  0
M  CHG  1  18  -1
M  END
>  <UniqueID>  (39) 
39

>  <SMILES>  (39) 
CC/N=c1\[n-]c2ccc(OCc3ccccc3Cl)cc2s1

>  <Energy>  (39) 
69.1965088512827

>  <Genealogy>  (39) 
CCN=c1[n-]c2ccc(OCc3ccccc3Cl)cc2s1 (protonated)
CC/N=c1\[n-]c2ccc(OCc3ccccc3Cl)cc2s1 (cis-trans isomerization)
CC/N=c1\[n-]c2ccc(OCc3ccccc3Cl)cc2s1 (3D coordinates assigned)
CC/N=c1\[n-]c2ccc(OCc3ccccc3Cl)cc2s1 (optimized conformer: 69.1965088512827 kcal/mol)

>  <smiles>  (39) 
CCN=c1[nH]c2ccc(OCc3ccccc3Cl)cc2s1

>  <score_type>  (39) 
oracle

>  <origin>  (39) 
adgpu

>  <m_score__min__energy>  (39) 
-9.3599999999999994

>  <m_primary>  (39) 
energy

$$$$
39:0
     RDKit          3D

 29 30  0  0  0  0  0  0  0  0999 V2000
   -6.2750   25.5580  -29.7220 C   0  0  0  0  0  0  0  0  0  0  0  0
   -5.5570   24.6260  -30.6520 C   0  0  0  0  0  0  0  0  0  0  0  0
   -4.3540   24.8780  -30.9400 O   0  0  0  0  0  0  0  0  0  0  0  0
   -6.2200   23.4310  -31.2360 C   0  0  0  0  0  0  0  0  0  0  0  0
   -5.4510   22.4260  -31.8520 C   0  0  0  0  0  0  0  0  0  0  0  0
   -6.0600   21.2960  -32.4040 C   0  0  0  0  0  0  0  0  0  0  0  0
   -7.4570   21.1410  -32.3520 C   0  0  0  0  0  0  0  0  0  0  0  0
   -8.1190   19.9870  -32.9080 N   0  0  0  0  0  0  0  0  0  0  0  0
   -8.3210   18.7260  -32.1950 C   0  0  0  0  0  0  0  0  0  0  0  0
   -7.2020   17.7750  -32.4830 C   0  0  0  0  0  0  0  0  0  0  0  0
   -6.1960   17.4230  -31.6050 C   0  0  0  0  0  0  0  0  0  0  0  0
   -5.3980   16.5360  -32.2960 C   0  0  0  0  0  0  0  0  0  0  0  0
   -5.9660   16.4020  -33.5470 C   0  0  0  0  0  0  0  0  0  0  0  0
   -7.0410   17.1520  -33.6270 O   0  0  0  0  0  0  0  0  0  0  0  0
   -8.2270   22.1420  -31.7430 C   0  0  0  0  0  0  0  0  0  0  0  0
   -7.6190   23.2730  -31.1900 C   0  0  0  0  0  0  0  0  0  0  0  0
   -6.0581   25.2764  -28.6810 H   0  0  0  0  0  0  0  0  0  0  0  0
   -5.9353   26.5887  -29.9014 H   0  0  0  0  0  0  0  0  0  0  0  0
   -7.3583   25.4925  -29.9014 H   0  0  0  0  0  0  0  0  0  0  0  0
   -4.3571   22.5314  -31.8995 H   0  0  0  0  0  0  0  0  0  0  0  0
   -5.4423   20.5219  -32.8828 H   0  0  0  0  0  0  0  0  0  0  0  0
   -8.5010   20.0510  -33.8790 H   0  0  0  0  0  0  0  0  0  0  0  0
   -8.3585   18.9238  -31.1136 H   0  0  0  0  0  0  0  0  0  0  0  0
   -9.2662   18.2750  -32.5314 H   0  0  0  0  0  0  0  0  0  0  0  0
   -6.0600   17.7759  -30.5721 H   0  0  0  0  0  0  0  0  0  0  0  0
   -4.4912   16.0358  -31.9251 H   0  0  0  0  0  0  0  0  0  0  0  0
   -5.5772   15.7639  -34.3543 H   0  0  0  0  0  0  0  0  0  0  0  0
   -9.3211   22.0364  -31.6998 H   0  0  0  0  0  0  0  0  0  0  0  0
   -8.2392   24.0470  -30.7143 H   0  0  0  0  0  0  0  0  0  0  0  0
  1  2  1  0
  2  3  2  0
  2  4  1  0
  4  5  2  0
  5  6  1  0
  6  7  2  0
  7  8  1  0
  8  9  1  0
  9 10  1  0
 10 11  2  0
 11 12  1  0
 12 13  2  0
 13 14  1  0
  7 15  1  0
 15 16  2  0
 16  4  1  0
 14 10  1  0
  1 17  1  0
  1 18  1  0
  1 19  1  0
  5 20  1  0
  6 21  1  0
  8 22  1  0
  9 23  1  0
  9 24  1  0
 11 25  1  0
 12 26  1  0
 13 27  1  0
 15 28  1  0
 16 29  1  0
M  END
>  <UniqueID>  (40) 
40

>  <SMILES>  (40) 
CC(=O)c1ccc(NCc2ccco2)cc1

>  <Energy>  (40) 
53.913643960991976

>  <Genealogy>  (40) 
CC(=O)c1ccc(NCc2ccco2)cc1 (3D coordinates assigned)
CC(=O)c1ccc(NCc2ccco2)cc1 (optimized conformer: 53.913643960991976 kcal/mol)

>  <smiles>  (40) 
CC(=O)c1ccc(NCc2ccco2)cc1

>  <score_type>  (40) 
oracle

>  <origin>  (40) 
adgpu

>  <m_score__min__energy>  (40) 
-7.2000000000000002

>  <m_primary>  (40) 
energy

$$$$
40:0
     RDKit          3D

 35 36  0  0  0  0  0  0  0  0999 V2000
   -4.8460   15.5550  -32.6980 C   0  0  0  0  0  0  0  0  0  0  0  0
   -4.4360   16.7400  -33.4620 N   0  0  0  0  0  0  0  0  0  0  0  0
   -3.4270   16.3720  -34.4630 C   0  0  0  0  0  0  0  0  0  0  0  0
   -5.8240   17.4460  -34.2510 S   0  0  0  0  0  0  0  0  0  0  0  0
   -5.4280   17.9400  -35.6150 O   0  0  0  0  0  0  0  0  0  0  0  0
   -6.8860   16.3960  -34.4300 O   0  0  0  0  0  0  0  0  0  0  0  0
   -6.4880   18.7890  -33.3170 C   0  0  0  0  0  0  0  0  0  0  0  0
   -7.5290   18.5690  -32.4070 C   0  0  0  0  0  0  0  0  0  0  0  0
   -8.0430   19.6270  -31.6540 C   0  0  0  0  0  0  0  0  0  0  0  0
   -7.5170   20.9230  -31.7950 C   0  0  0  0  0  0  0  0  0  0  0  0
   -8.0500   22.0510  -30.9920 C   0  0  0  0  0  0  0  0  0  0  0  0
   -8.9080   21.8270  -30.0960 O   0  0  0  0  0  0  0  0  0  0  0  0
   -7.5600   23.3910  -31.1510 N   0  0  0  0  0  0  0  0  0  0  0  0
   -6.3480   23.8180  -30.9200 C   0  0  0  0  0  0  0  0  0  0  0  0
   -5.2880   22.9530  -30.5730 C   0  0  0  0  0  0  0  0  0  0  0  0
   -4.0150   23.4820  -30.3450 C   0  0  0  0  0  0  0  0  0  0  0  0
   -3.7970   24.8180  -30.4690 N   0  0  0  0  0  0  0  0  0  0  0  0
   -4.7950   25.6720  -30.8170 C   0  0  0  0  0  0  0  0  0  0  0  0
   -6.0830   25.1870  -31.0550 C   0  0  0  0  0  0  0  0  0  0  0  0
   -6.4820   21.1420  -32.7210 C   0  0  0  0  0  0  0  0  0  0  0  0
   -5.9700   20.0810  -33.4740 C   0  0  0  0  0  0  0  0  0  0  0  0
   -4.7719   15.7690  -31.6216 H   0  0  0  0  0  0  0  0  0  0  0  0
   -5.8854   15.2978  -32.9500 H   0  0  0  0  0  0  0  0  0  0  0  0
   -4.1878   14.7104  -32.9500 H   0  0  0  0  0  0  0  0  0  0  0  0
   -2.5107   16.0378  -33.9543 H   0  0  0  0  0  0  0  0  0  0  0  0
   -3.8149   15.5575  -35.0923 H   0  0  0  0  0  0  0  0  0  0  0  0
   -3.1994   17.2450  -35.0923 H   0  0  0  0  0  0  0  0  0  0  0  0
   -7.9442   17.5577  -32.2845 H   0  0  0  0  0  0  0  0  0  0  0  0
   -8.8649   19.4450  -30.9459 H   0  0  0  0  0  0  0  0  0  0  0  0
   -5.4627   21.8707  -30.4828 H   0  0  0  0  0  0  0  0  0  0  0  0
   -3.1865   22.8151  -30.0642 H   0  0  0  0  0  0  0  0  0  0  0  0
   -4.5880   26.7482  -30.9115 H   0  0  0  0  0  0  0  0  0  0  0  0
   -6.8872   25.8781  -31.3477 H   0  0  0  0  0  0  0  0  0  0  0  0
   -6.0725   22.1543  -32.8539 H   0  0  0  0  0  0  0  0  0  0  0  0
   -5.1570   20.2616  -34.1927 H   0  0  0  0  0  0  0  0  0  0  0  0
  1  2  1  0
  2  3  1  0
  2  4  1  0
  4  5  2  0
  4  6  2  0
  4  7  1  0
  7  8  2  0
  8  9  1  0
  9 10  2  0
 10 11  1  0
 11 12  2  0
 11 13  1  0
 13 14  2  3
 14 15  1  0
 15 16  2  0
 16 17  1  0
 17 18  1  0
 18 19  2  0
 10 20  1  0
 20 21  2  0
 21  7  1  0
 19 14  1  0
  1 22  1  0
  1 23  1  0
  1 24  1  0
  3 25  1  0
  3 26  1  0
  3 27  1  0
  8 28  1  0
  9 29  1  0
 15 30  1  0
 16 31  1  0
 18 32  1  0
 19 33  1  0
 20 34  1  0
 21 35  1  0
M  CHG  1  17  -1
M  END
>  <UniqueID>  (41) 
41

>  <SMILES>  (41) 
CN(C)S(=O)(=O)c1ccc(C(=O)N=c2cc[n-]cc2)cc1

>  <Energy>  (41) 
44.21412588909661

>  <Genealogy>  (41) 
CN(C)S(=O)(=O)c1ccc(C(=O)N=c2cc[n-]cc2)cc1 (protonated)
CN(C)S(=O)(=O)c1ccc(C(=O)N=c2cc[n-]cc2)cc1 (3D coordinates assigned)
CN(C)S(=O)(=O)c1ccc(C(=O)N=c2cc[n-]cc2)cc1 (optimized conformer: 44.21412588909661 kcal/mol)

>  <smiles>  (41) 
CN(C)S(=O)(=O)c1ccc(C(=O)N=c2cc[nH]cc2)cc1

>  <score_type>  (41) 
oracle

>  <origin>  (41) 
adgpu

>  <m_score__min__energy>  (41) 
-9.0399999999999991

>  <m_primary>  (41) 
energy

$$$$
41:0
     RDKit          3D

 25 26  0  0  1  0  0  0  0  0999 V2000
   -6.4800   25.6740  -29.3190 C   0  0  0  0  0  0  0  0  0  0  0  0
   -5.6930   25.2120  -30.2600 C   0  0  0  0  0  0  0  0  0  0  0  0
   -6.1240   24.4620  -31.4730 C   0  0  0  0  0  0  0  0  0  0  0  0
   -5.2990   23.4750  -31.9780 N   0  0  0  0  0  0  0  0  0  0  0  0
   -5.5340   22.3190  -32.3280 C   0  0  0  0  0  0  0  0  0  0  0  0
   -4.5210   21.5550  -32.7890 N   0  0  0  0  0  0  0  0  0  0  0  0
   -4.6540   20.2730  -33.1600 C   0  0  0  0  0  0  0  0  0  0  0  0
   -5.8700   19.7150  -33.0670 N   0  0  0  0  0  0  0  0  0  0  0  0
   -6.8980   20.4490  -32.6110 C   0  0  0  0  0  0  0  0  0  0  0  0
   -8.1220   19.8190  -32.5440 C   0  0  0  0  0  0  0  0  0  0  0  0
   -9.1710   20.5820  -32.0820 C   0  0  0  0  0  0  0  0  0  0  0  0
   -9.0870   21.8850  -31.7000 C   0  0  0  0  0  0  0  0  0  0  0  0
   -7.8250   22.5170  -31.7750 C   0  0  0  0  0  0  0  0  0  0  0  0
   -6.7820   21.7730  -32.2250 C   0  0  0  0  0  0  0  0  0  0  0  0
   -6.0534   26.2166  -28.4625 H   0  0  0  0  0  0  0  0  0  0  0  0
   -7.5670   25.5191  -29.3859 H   0  0  0  0  0  0  0  0  0  0  0  0
   -4.6146   25.3950  -30.1433 H   0  0  0  0  0  0  0  0  0  0  0  0
   -7.0864   23.9863  -31.2330 H   0  0  0  0  0  0  0  0  0  0  0  0
   -6.1375   25.2256  -32.2647 H   0  0  0  0  0  0  0  0  0  0  0  0
   -3.5620   21.9590  -32.8750 H   0  0  0  0  0  0  0  0  0  0  0  0
   -3.7925   19.6971  -33.5291 H   0  0  0  0  0  0  0  0  0  0  0  0
   -8.2532   18.7683  -32.8421 H   0  0  0  0  0  0  0  0  0  0  0  0
  -10.1570   20.0987  -32.0165 H   0  0  0  0  0  0  0  0  0  0  0  0
   -9.9737   22.4298  -31.3438 H   0  0  0  0  0  0  0  0  0  0  0  0
   -7.6931   23.5687  -31.4808 H   0  0  0  0  0  0  0  0  0  0  0  0
  1  2  2  0
  2  3  1  0
  3  4  1  0
  4  5  2  0
  5  6  1  0
  6  7  1  0
  7  8  2  0
  8  9  1  0
  9 10  2  0
 10 11  1  0
 11 12  2  0
 12 13  1  0
 13 14  2  0
 14  5  1  0
 14  9  1  0
  1 15  1  0
  1 16  1  0
  2 17  1  0
  3 18  1  0
  3 19  1  0
  6 20  1  0
  7 21  1  0
 10 22  1  0
 11 23  1  0
 12 24  1  0
 13 25  1  0
M  END
>  <smiles>  (42) 
C=CCN=c1[nH]cnc2ccccc12

>  <score_type>  (42) 
oracle

>  <origin>  (42) 
adgpu

>  <m_score__min__energy>  (42) 
-5.8899999999999997

>  <m_primary>  (42) 
energy

$$$$
42:0
     RDKit          3D

 34 36  0  0  0  0  0  0  0  0999 V2000
   -5.7340   25.9970  -30.4120 C   0  0  0  0  0  0  0  0  0  0  0  0
   -4.7970   24.8380  -30.4760 C   0  0  0  0  0  0  0  0  0  0  0  0
   -5.0430   23.8140  -31.3330 N   0  0  0  0  0  0  0  0  0  0  0  0
   -4.1940   22.7570  -31.4480 C   0  0  0  0  0  0  0  0  0  0  0  0
   -4.4950   21.7240  -32.4040 N   0  0  0  0  0  0  0  0  0  0  0  0
   -3.5270   21.4530  -33.4690 C   0  0  0  0  0  0  0  0  0  0  0  0
   -5.6920   20.9240  -32.2660 C   0  0  0  0  0  0  0  0  0  0  0  0
   -5.5900   19.5480  -31.9900 C   0  0  0  0  0  0  0  0  0  0  0  0
   -6.7400   18.7650  -31.8480 C   0  0  0  0  0  0  0  0  0  0  0  0
   -8.0030   19.3460  -31.9740 C   0  0  0  0  0  0  0  0  0  0  0  0
   -9.1160   18.5860  -31.8340 F   0  0  0  0  0  0  0  0  0  0  0  0
   -8.1190   20.7130  -32.2400 C   0  0  0  0  0  0  0  0  0  0  0  0
   -6.9730   21.5030  -32.3840 C   0  0  0  0  0  0  0  0  0  0  0  0
   -7.1210   22.8340  -32.5960 F   0  0  0  0  0  0  0  0  0  0  0  0
   -3.0280   22.7180  -30.6530 C   0  0  0  0  0  0  0  0  0  0  0  0
   -2.1250   21.6380  -30.6710 C   0  0  0  0  0  0  0  0  0  0  0  0
   -0.9830   21.6660  -29.8660 C   0  0  0  0  0  0  0  0  0  0  0  0
   -0.7340   22.7590  -29.0330 C   0  0  0  0  0  0  0  0  0  0  0  0
   -1.6330   23.8280  -28.9910 C   0  0  0  0  0  0  0  0  0  0  0  0
   -2.7810   23.8100  -29.7890 C   0  0  0  0  0  0  0  0  0  0  0  0
   -3.6640   24.8390  -29.7280 N   0  0  0  0  0  0  0  0  0  0  0  0
   -5.9363   26.2473  -29.3601 H   0  0  0  0  0  0  0  0  0  0  0  0
   -5.2799   26.8638  -30.9143 H   0  0  0  0  0  0  0  0  0  0  0  0
   -6.6767   25.7345  -30.9143 H   0  0  0  0  0  0  0  0  0  0  0  0
   -2.5584   21.1818  -33.0238 H   0  0  0  0  0  0  0  0  0  0  0  0
   -3.8899   20.6219  -34.0916 H   0  0  0  0  0  0  0  0  0  0  0  0
   -3.4056   22.3517  -34.0916 H   0  0  0  0  0  0  0  0  0  0  0  0
   -4.5979   19.0846  -31.8851 H   0  0  0  0  0  0  0  0  0  0  0  0
   -6.6491   17.6893  -31.6366 H   0  0  0  0  0  0  0  0  0  0  0  0
   -9.1150   21.1698  -32.3366 H   0  0  0  0  0  0  0  0  0  0  0  0
   -2.3186   20.7709  -31.3196 H   0  0  0  0  0  0  0  0  0  0  0  0
   -0.2767   20.8230  -29.8886 H   0  0  0  0  0  0  0  0  0  0  0  0
    0.1715   22.7784  -28.4088 H   0  0  0  0  0  0  0  0  0  0  0  0
   -1.4373   24.6847  -28.3293 H   0  0  0  0  0  0  0  0  0  0  0  0
  1  2  1  0
  2  3  2  0
  3  4  1  0
  4  5  1  0
  5  6  1  0
  5  7  1  0
  7  8  2  0
  8  9  1  0
  9 10  2  0
 10 11  1  0
 10 12  1  0
 12 13  2  0
 13 14  1  0
  4 15  2  0
 15 16  1  0
 16 17  2  0
 17 18  1  0
 18 19  2  0
 19 20  1  0
 20 21  2  0
 21  2  1  0
 13  7  1  0
 20 15  1  0
  1 22  1  0
  1 23  1  0
  1 24  1  0
  6 25  1  0
  6 26  1  0
  6 27  1  0
  8 28  1  0
  9 29  1  0
 12 30  1  0
 16 31  1  0
 17 32  1  0
 18 33  1  0
 19 34  1  0
M  END
>  <UniqueID>  (43) 
42

>  <SMILES>  (43) 
Cc1nc(N(C)c2ccc(F)cc2F)c2ccccc2n1

>  <Energy>  (43) 
49.382073761978205

>  <Genealogy>  (43) 
Cc1nc(N(C)c2ccc(F)cc2F)c2ccccc2n1 (3D coordinates assigned)
Cc1nc(N(C)c2ccc(F)cc2F)c2ccccc2n1 (optimized conformer: 49.382073761978205 kcal/mol)

>  <smiles>  (43) 
Cc1nc(N(C)c2ccc(F)cc2F)c2ccccc2n1

>  <score_type>  (43) 
oracle

>  <origin>  (43) 
adgpu

>  <m_score__min__energy>  (43) 
-7.0599999999999996

>  <m_primary>  (43) 
energy

$$$$
43:0
     RDKit          3D

 30 31  0  0  0  0  0  0  0  0999 V2000
   -4.7711   18.0226  -35.1305 H   0  0  0  0  0  0  0  0  0  0  0  0
   -5.0090   18.5840  -34.2150 C   0  0  0  0  0  0  0  0  0  0  0  0
   -6.3860   18.8510  -33.9010 N   0  0  0  0  0  0  0  0  0  0  0  0
   -6.8460   19.8430  -33.1940 C   0  0  0  0  0  0  0  0  0  0  0  0
   -6.0020   20.7200  -32.5830 N   0  0  0  0  0  0  0  0  0  0  0  0
   -6.4620   21.7510  -31.8240 C   0  0  0  0  0  0  0  0  0  0  0  0
   -5.4850   22.6710  -31.1940 C   0  0  0  0  0  0  0  0  0  0  0  0
   -5.8100   24.0300  -31.0370 C   0  0  0  0  0  0  0  0  0  0  0  0
   -6.7808   24.4037  -31.3946 H   0  0  0  0  0  0  0  0  0  0  0  0
   -4.9090   24.9100  -30.4300 C   0  0  0  0  0  0  0  0  0  0  0  0
   -5.1711   25.9727  -30.3210 H   0  0  0  0  0  0  0  0  0  0  0  0
   -3.6690   24.4430  -29.9580 C   0  0  0  0  0  0  0  0  0  0  0  0
   -2.7300   25.2860  -29.3430 O   0  0  0  0  0  0  0  0  0  0  0  0
   -1.9860   24.9460  -28.1790 C   0  0  0  0  0  0  0  0  0  0  0  0
   -2.5660   25.2111  -27.2827 H   0  0  0  0  0  0  0  0  0  0  0  0
   -1.7817   23.8651  -28.1772 H   0  0  0  0  0  0  0  0  0  0  0  0
   -1.0351   25.4989  -28.1772 H   0  0  0  0  0  0  0  0  0  0  0  0
   -3.3530   23.0870  -30.0980 C   0  0  0  0  0  0  0  0  0  0  0  0
   -2.3884   22.7109  -29.7262 H   0  0  0  0  0  0  0  0  0  0  0  0
   -4.2520   22.2060  -30.7060 C   0  0  0  0  0  0  0  0  0  0  0  0
   -3.9925   21.1415  -30.8031 H   0  0  0  0  0  0  0  0  0  0  0  0
   -7.8480   21.8950  -31.6440 C   0  0  0  0  0  0  0  0  0  0  0  0
   -8.3690   22.8570  -30.8410 F   0  0  0  0  0  0  0  0  0  0  0  0
   -8.7000   20.9840  -32.2670 C   0  0  0  0  0  0  0  0  0  0  0  0
   -9.7889   21.0785  -32.1427 H   0  0  0  0  0  0  0  0  0  0  0  0
   -8.1900   19.9800  -33.0270 N   0  0  0  0  0  0  0  0  0  0  0  0
   -8.8460   19.3040  -33.4810 H   0  0  0  0  0  0  0  0  0  0  0  0
   -4.0370   18.9840  -33.4530 N   0  0  0  0  0  0  0  0  0  0  0  0
   -3.0490   18.8040  -33.7370 H   0  0  0  0  0  0  0  0  0  0  0  0
   -4.2060   19.5310  -32.5810 H   0  0  0  0  0  0  0  0  0  0  0  0
  1  2  1  0
  2  3  1  0
  3  4  2  0
  4  5  1  0
  5  6  2  0
  6  7  1  0
  7  8  2  0
  8  9  1  0
  8 10  1  0
 10 11  1  0
 10 12  2  0
 12 13  1  0
 13 14  1  0
 14 15  1  0
 14 16  1  0
 14 17  1  0
 12 18  1  0
 18 19  1  0
 18 20  2  0
 20 21  1  0
  6 22  1  0
 22 23  1  0
 22 24  2  0
 24 25  1  0
 24 26  1  0
 26 27  1  0
  2 28  2  0
 28 29  1  0
 28 30  1  0
 26  4  1  0
 20  7  1  0
M  CHG  1  28   1
M  END
>  <UniqueID>  (44) 
43

>  <SMILES>  (44) 
COc1ccc(-c2n/c(=N\C=[NH2+])[nH]cc2F)cc1

>  <Energy>  (44) 
40.016144502737234

>  <Genealogy>  (44) 
COc1ccc(-c2nc(=NC=[NH2+])[nH]cc2F)cc1 (protonated)
COc1ccc(-c2n/c(=N\C=[NH2+])[nH]cc2F)cc1 (cis-trans isomerization)
COc1ccc(-c2n/c(=N\C=[NH2+])[nH]cc2F)cc1 (3D coordinates assigned)
COc1ccc(-c2n/c(=N\C=[NH2+])[nH]cc2F)cc1 (optimized conformer: 40.016144502737234 kcal/mol)

>  <smiles>  (44) 
COc1ccc(-c2nc(=NC=N)[nH]cc2F)cc1

>  <score_type>  (44) 
oracle

>  <origin>  (44) 
adgpu

>  <m_score__min__energy>  (44) 
-6.2699999999999996

>  <m_primary>  (44) 
energy

$$$$
44:0
     RDKit          3D

 32 34  0  0  0  0  0  0  0  0999 V2000
   -1.6030   24.9120  -28.8760 C   0  0  0  0  0  0  0  0  0  0  0  0
   -2.1530   23.8420  -29.6990 N   0  0  0  0  0  0  0  0  0  0  0  0
   -1.6610   22.5880  -29.8650 C   0  0  0  0  0  0  0  0  0  0  0  0
   -2.4660   21.7900  -30.6190 N   0  0  0  0  0  0  0  0  0  0  0  0
   -3.5030   22.5980  -30.9120 C   0  0  0  0  0  0  0  0  0  0  0  0
   -4.6450   22.3080  -31.6480 C   0  0  0  0  0  0  0  0  0  0  0  0
   -5.6120   23.3350  -31.7890 C   0  0  0  0  0  0  0  0  0  0  0  0
   -6.8310   23.1360  -32.5280 N   0  0  0  0  0  0  0  0  0  0  0  0
   -8.0250   22.4830  -31.9900 C   0  0  0  0  0  0  0  0  0  0  0  0
   -7.9310   20.9880  -32.1440 C   0  0  0  0  0  0  0  0  0  0  0  0
   -8.8040   20.1390  -31.4420 C   0  0  0  0  0  0  0  0  0  0  0  0
   -8.7060   18.7520  -31.5870 C   0  0  0  0  0  0  0  0  0  0  0  0
   -7.7320   18.2020  -32.4250 C   0  0  0  0  0  0  0  0  0  0  0  0
   -6.8520   19.0380  -33.1180 C   0  0  0  0  0  0  0  0  0  0  0  0
   -6.9470   20.4260  -32.9760 C   0  0  0  0  0  0  0  0  0  0  0  0
   -5.3650   24.5980  -31.1830 C   0  0  0  0  0  0  0  0  0  0  0  0
   -4.2220   24.8240  -30.4690 N   0  0  0  0  0  0  0  0  0  0  0  0
   -3.3180   23.8200  -30.3540 C   0  0  0  0  0  0  0  0  0  0  0  0
   -1.7323   24.6604  -27.8130 H   0  0  0  0  0  0  0  0  0  0  0  0
   -0.5320   25.0310  -29.0970 H   0  0  0  0  0  0  0  0  0  0  0  0
   -2.1296   25.8521  -29.0970 H   0  0  0  0  0  0  0  0  0  0  0  0
   -0.7072   22.2503  -29.4335 H   0  0  0  0  0  0  0  0  0  0  0  0
   -4.7934   21.3182  -32.1044 H   0  0  0  0  0  0  0  0  0  0  0  0
   -6.8900   23.5110  -33.5020 H   0  0  0  0  0  0  0  0  0  0  0  0
   -8.1215   22.7304  -30.9225 H   0  0  0  0  0  0  0  0  0  0  0  0
   -8.9039   22.8406  -32.5464 H   0  0  0  0  0  0  0  0  0  0  0  0
   -9.5673   20.5676  -30.7759 H   0  0  0  0  0  0  0  0  0  0  0  0
   -9.3965   18.0926  -31.0408 H   0  0  0  0  0  0  0  0  0  0  0  0
   -7.6579   17.1105  -32.5392 H   0  0  0  0  0  0  0  0  0  0  0  0
   -6.0843   18.6039  -33.7754 H   0  0  0  0  0  0  0  0  0  0  0  0
   -6.2487   21.0809  -33.5177 H   0  0  0  0  0  0  0  0  0  0  0  0
   -6.1050   25.4047  -31.2907 H   0  0  0  0  0  0  0  0  0  0  0  0
  1  2  1  0
  2  3  1  0
  3  4  2  0
  4  5  1  0
  5  6  2  0
  6  7  1  0
  7  8  1  0
  8  9  1  0
  9 10  1  0
 10 11  2  0
 11 12  1  0
 12 13  2  0
 13 14  1  0
 14 15  2  0
  7 16  2  0
 16 17  1  0
 17 18  2  0
 18  2  1  0
 18  5  1  0
 15 10  1  0
  1 19  1  0
  1 20  1  0
  1 21  1  0
  3 22  1  0
  6 23  1  0
  8 24  1  0
  9 25  1  0
  9 26  1  0
 11 27  1  0
 12 28  1  0
 13 29  1  0
 14 30  1  0
 15 31  1  0
 16 32  1  0
M  END
>  <UniqueID>  (45) 
44

>  <SMILES>  (45) 
Cn1cnc2cc(NCc3ccccc3)cnc21

>  <Energy>  (45) 
72.31991891876741

>  <Genealogy>  (45) 
Cn1cnc2cc(NCc3ccccc3)cnc21 (3D coordinates assigned)
Cn1cnc2cc(NCc3ccccc3)cnc21 (optimized conformer: 72.31991891876741 kcal/mol)

>  <smiles>  (45) 
Cn1cnc2cc(NCc3ccccc3)cnc21

>  <score_type>  (45) 
oracle

>  <origin>  (45) 
adgpu

>  <m_score__min__energy>  (45) 
-7.0800000000000001

>  <m_primary>  (45) 
energy

$$$$
45:0
     RDKit          3D

 29 31  0  0  0  0  0  0  0  0999 V2000
   -2.1578   23.5345  -26.4366 H   0  0  0  0  0  0  0  0  0  0  0  0
   -2.3900   23.9410  -27.4320 C   0  0  0  0  0  0  0  0  0  0  0  0
   -3.6530   23.4480  -28.4280 S   0  0  0  0  0  0  0  0  0  0  0  0
   -3.2660   24.5510  -29.6410 C   0  0  0  0  0  0  0  0  0  0  0  0
   -3.8620   24.6760  -30.7890 N   0  0  0  0  0  0  0  0  0  0  0  0
   -5.0430   23.9800  -31.2200 C   0  0  0  0  0  0  0  0  0  0  0  0
   -6.2960   24.4550  -30.8100 C   0  0  0  0  0  0  0  0  0  0  0  0
   -6.3614   25.3646  -30.1948 H   0  0  0  0  0  0  0  0  0  0  0  0
   -7.4630   23.7800  -31.1780 C   0  0  0  0  0  0  0  0  0  0  0  0
   -8.4439   24.1688  -30.8671 H   0  0  0  0  0  0  0  0  0  0  0  0
   -7.3850   22.6110  -31.9410 C   0  0  0  0  0  0  0  0  0  0  0  0
   -8.3042   22.0848  -32.2378 H   0  0  0  0  0  0  0  0  0  0  0  0
   -6.1380   22.1120  -32.3260 C   0  0  0  0  0  0  0  0  0  0  0  0
   -6.0762   21.1877  -32.9191 H   0  0  0  0  0  0  0  0  0  0  0  0
   -4.9680   22.7850  -31.9590 C   0  0  0  0  0  0  0  0  0  0  0  0
   -3.9874   22.3793  -32.2487 H   0  0  0  0  0  0  0  0  0  0  0  0
   -2.1800   25.2840  -29.3160 N   0  0  0  0  0  0  0  0  0  0  0  0
   -1.6850   24.9580  -28.0880 C   0  0  0  0  0  0  0  0  0  0  0  0
   -0.4970   25.6520  -27.5250 C   0  0  0  0  0  0  0  0  0  0  0  0
   -0.5580   26.9950  -27.1000 C   0  0  0  0  0  0  0  0  0  0  0  0
   -1.5031   27.5515  -27.1836 H   0  0  0  0  0  0  0  0  0  0  0  0
    0.5740   27.6250  -26.5730 C   0  0  0  0  0  0  0  0  0  0  0  0
    0.5159   28.6741  -26.2473 H   0  0  0  0  0  0  0  0  0  0  0  0
    1.7770   26.9270  -26.4590 C   0  0  0  0  0  0  0  0  0  0  0  0
    2.6656   27.4258  -26.0448 H   0  0  0  0  0  0  0  0  0  0  0  0
    1.8520   25.5950  -26.8710 C   0  0  0  0  0  0  0  0  0  0  0  0
    2.8002   25.0447  -26.7804 H   0  0  0  0  0  0  0  0  0  0  0  0
    0.7230   24.9590  -27.3990 C   0  0  0  0  0  0  0  0  0  0  0  0
    0.7887   23.9085  -27.7186 H   0  0  0  0  0  0  0  0  0  0  0  0
  1  2  1  0
  2  3  1  0
  3  4  1  0
  4  5  2  0
  5  6  1  0
  6  7  2  0
  7  8  1  0
  7  9  1  0
  9 10  1  0
  9 11  2  0
 11 12  1  0
 11 13  1  0
 13 14  1  0
 13 15  2  0
 15 16  1  0
  4 17  1  0
 17 18  1  0
 18 19  1  0
 19 20  2  0
 20 21  1  0
 20 22  1  0
 22 23  1  0
 22 24  2  0
 24 25  1  0
 24 26  1  0
 26 27  1  0
 26 28  2  0
 28 29  1  0
 18  2  2  0
 28 19  1  0
 15  6  1  0
M  CHG  1  17  -1
M  END
>  <UniqueID>  (46) 
45

>  <SMILES>  (46) 
c1ccc(/N=c2/[n-]c(-c3ccccc3)cs2)cc1

>  <Energy>  (46) 
71.55937203801334

>  <Genealogy>  (46) 
c1ccc(N=c2[n-]c(-c3ccccc3)cs2)cc1 (protonated)
c1ccc(/N=c2/[n-]c(-c3ccccc3)cs2)cc1 (cis-trans isomerization)
c1ccc(/N=c2/[n-]c(-c3ccccc3)cs2)cc1 (3D coordinates assigned)
c1ccc(/N=c2/[n-]c(-c3ccccc3)cs2)cc1 (optimized conformer: 71.55937203801334 kcal/mol)

>  <smiles>  (46) 
c1ccc(N=c2[nH]c(-c3ccccc3)cs2)cc1

>  <score_type>  (46) 
oracle

>  <origin>  (46) 
adgpu

>  <m_score__min__energy>  (46) 
-8.2699999999999996

>  <m_primary>  (46) 
energy

$$$$
46:0
     RDKit          3D

 43 46  0  0  0  0  0  0  0  0999 V2000
   -3.6890   24.1718  -30.7549 H   0  0  0  0  0  0  0  0  0  0  0  0
   -4.2950   23.4300  -30.2140 C   0  0  0  0  0  0  0  0  0  0  0  0
   -4.2130   23.3530  -28.9180 N   0  0  0  0  0  0  0  0  0  0  0  0
   -3.3950   24.1680  -28.0600 C   0  0  0  0  0  0  0  0  0  0  0  0
   -3.7900   24.5470  -26.7650 C   0  0  0  0  0  0  0  0  0  0  0  0
   -4.7672   24.2253  -26.3757 H   0  0  0  0  0  0  0  0  0  0  0  0
   -2.9490   25.3300  -25.9690 C   0  0  0  0  0  0  0  0  0  0  0  0
   -3.2792   25.6245  -24.9619 H   0  0  0  0  0  0  0  0  0  0  0  0
   -1.6800   25.7510  -26.4350 C   0  0  0  0  0  0  0  0  0  0  0  0
   -0.8010   26.5700  -25.6040 N   0  0  0  0  0  0  0  0  0  0  0  0
   -0.7530   26.3320  -24.1450 C   0  0  0  0  0  0  0  0  0  0  0  0
   -1.7504   26.5328  -23.7269 H   0  0  0  0  0  0  0  0  0  0  0  0
   -0.4405   25.2875  -23.9988 H   0  0  0  0  0  0  0  0  0  0  0  0
    0.2650   27.2120  -23.4130 C   0  0  0  0  0  0  0  0  0  0  0  0
   -0.0113   27.2733  -22.3500 H   0  0  0  0  0  0  0  0  0  0  0  0
    1.2624   26.7624  -23.5271 H   0  0  0  0  0  0  0  0  0  0  0  0
    0.2940   28.5090  -23.9560 O   0  0  0  0  0  0  0  0  0  0  0  0
    0.8520   28.4370  -25.2450 C   0  0  0  0  0  0  0  0  0  0  0  0
    1.0356   29.4566  -25.6146 H   0  0  0  0  0  0  0  0  0  0  0  0
    1.7939   27.8717  -25.1873 H   0  0  0  0  0  0  0  0  0  0  0  0
   -0.0900   27.7160  -26.2130 C   0  0  0  0  0  0  0  0  0  0  0  0
   -0.8379   28.4378  -26.5730 H   0  0  0  0  0  0  0  0  0  0  0  0
    0.5302   27.3148  -27.0281 H   0  0  0  0  0  0  0  0  0  0  0  0
   -1.2980   25.3510  -27.7360 C   0  0  0  0  0  0  0  0  0  0  0  0
   -0.3197   25.6614  -28.1316 H   0  0  0  0  0  0  0  0  0  0  0  0
   -2.1420   24.5680  -28.5280 C   0  0  0  0  0  0  0  0  0  0  0  0
   -1.8150   24.2629  -29.5330 H   0  0  0  0  0  0  0  0  0  0  0  0
   -5.1970   22.5280  -30.9690 C   0  0  0  0  0  0  0  0  0  0  0  0
   -4.6930   21.6270  -31.9350 C   0  0  0  0  0  0  0  0  0  0  0  0
   -2.9770   21.5150  -32.3070 Cl  0  0  0  0  0  0  0  0  0  0  0  0
   -5.5420   20.8100  -32.6140 N   0  0  0  0  0  0  0  0  0  0  0  0
   -6.8830   20.8200  -32.4030 C   0  0  0  0  0  0  0  0  0  0  0  0
   -7.7150   19.9590  -33.1270 C   0  0  0  0  0  0  0  0  0  0  0  0
   -7.2831   19.2721  -33.8697 H   0  0  0  0  0  0  0  0  0  0  0  0
   -9.0960   19.9720  -32.9060 C   0  0  0  0  0  0  0  0  0  0  0  0
   -9.7493   19.2946  -33.4755 H   0  0  0  0  0  0  0  0  0  0  0  0
   -9.6480   20.8440  -31.9630 C   0  0  0  0  0  0  0  0  0  0  0  0
  -10.7349   20.8513  -31.7938 H   0  0  0  0  0  0  0  0  0  0  0  0
   -8.8240   21.7070  -31.2340 C   0  0  0  0  0  0  0  0  0  0  0  0
   -9.2617   22.3909  -30.4919 H   0  0  0  0  0  0  0  0  0  0  0  0
   -7.4370   21.6990  -31.4510 C   0  0  0  0  0  0  0  0  0  0  0  0
   -6.5860   22.5510  -30.7380 C   0  0  0  0  0  0  0  0  0  0  0  0
   -7.0047   23.2430  -29.9925 H   0  0  0  0  0  0  0  0  0  0  0  0
  1  2  1  0
  2  3  2  0
  3  4  1  0
  4  5  2  0
  5  6  1  0
  5  7  1  0
  7  8  1  0
  7  9  2  0
  9 10  1  0
 10 11  1  0
 11 12  1  0
 11 13  1  0
 11 14  1  0
 14 15  1  0
 14 16  1  0
 14 17  1  0
 17 18  1  0
 18 19  1  0
 18 20  1  0
 18 21  1  0
 21 22  1  0
 21 23  1  0
  9 24  1  0
 24 25  1  0
 24 26  2  0
 26 27  1  0
  2 28  1  0
 28 29  2  0
 29 30  1  0
 29 31  1  0
 31 32  2  0
 32 33  1  0
 33 34  1  0
 33 35  2  0
 35 36  1  0
 35 37  1  0
 37 38  1  0
 37 39  2  0
 39 40  1  0
 39 41  1  0
 41 42  2  0
 42 43  1  0
 26  4  1  0
 42 28  1  0
 21 10  1  0
 41 32  1  0
M  END
>  <UniqueID>  (47) 
46

>  <SMILES>  (47) 
Clc1nc2ccccc2cc1/C=N/c1ccc(N2CCOCC2)cc1

>  <Energy>  (47) 
62.372282080879394

>  <Genealogy>  (47) 
Clc1nc2ccccc2cc1/C=N/c1ccc(N2CCOCC2)cc1 (cis-trans isomerization)
Clc1nc2ccccc2cc1/C=N/c1ccc(N2CCOCC2)cc1 (3D coordinates assigned)
Clc1nc2ccccc2cc1/C=N/c1ccc(N2CCOCC2)cc1 (nonaromatic ring conformer: 62.372282080879394 kcal/mol)

>  <smiles>  (47) 
Clc1nc2ccccc2cc1C=Nc1ccc(N2CCOCC2)cc1

>  <score_type>  (47) 
oracle

>  <origin>  (47) 
adgpu

>  <m_score__min__energy>  (47) 
-8.2699999999999996

>  <m_primary>  (47) 
energy

$$$$
47:0
     RDKit          3D

 33 35  0  0  0  0  0  0  0  0999 V2000
   -6.7430   25.5280  -29.3400 C   0  0  0  0  0  0  0  0  0  0  0  0
   -5.3600   25.6980  -30.5100 S   0  0  0  0  0  0  0  0  0  0  0  0
   -5.4620   23.9950  -31.0480 C   0  0  0  0  0  0  0  0  0  0  0  0
   -4.4160   23.3200  -31.5680 N   0  0  0  0  0  0  0  0  0  0  0  0
   -4.9170   22.1000  -31.8490 C   0  0  0  0  0  0  0  0  0  0  0  0
   -4.0850   20.9980  -32.3780 C   0  0  0  0  0  0  0  0  0  0  0  0
   -4.5550   20.2260  -33.4550 C   0  0  0  0  0  0  0  0  0  0  0  0
   -3.7730   19.1910  -33.9760 C   0  0  0  0  0  0  0  0  0  0  0  0
   -2.5110   18.9270  -33.4370 C   0  0  0  0  0  0  0  0  0  0  0  0
   -2.0260   19.7040  -32.3810 C   0  0  0  0  0  0  0  0  0  0  0  0
   -2.8050   20.7400  -31.8570 C   0  0  0  0  0  0  0  0  0  0  0  0
   -6.2640   22.0670  -31.5000 C   0  0  0  0  0  0  0  0  0  0  0  0
   -7.2450   20.9840  -31.7270 C   0  0  0  0  0  0  0  0  0  0  0  0
   -6.8720   19.6340  -31.6020 C   0  0  0  0  0  0  0  0  0  0  0  0
   -7.8050   18.6200  -31.8340 C   0  0  0  0  0  0  0  0  0  0  0  0
   -9.1130   18.9430  -32.2050 C   0  0  0  0  0  0  0  0  0  0  0  0
   -9.4880   20.2810  -32.3500 C   0  0  0  0  0  0  0  0  0  0  0  0
   -8.5570   21.2990  -32.1180 C   0  0  0  0  0  0  0  0  0  0  0  0
   -6.5890   23.2640  -30.9840 N   0  0  0  0  0  0  0  0  0  0  0  0
   -6.3598   25.5751  -28.3100 H   0  0  0  0  0  0  0  0  0  0  0  0
   -7.4622   26.3445  -29.5013 H   0  0  0  0  0  0  0  0  0  0  0  0
   -7.2431   24.5616  -29.5013 H   0  0  0  0  0  0  0  0  0  0  0  0
   -5.5430   20.4375  -33.8898 H   0  0  0  0  0  0  0  0  0  0  0  0
   -4.1515   18.5836  -34.8113 H   0  0  0  0  0  0  0  0  0  0  0  0
   -1.8995   18.1080  -33.8436 H   0  0  0  0  0  0  0  0  0  0  0  0
   -1.0298   19.5000  -31.9616 H   0  0  0  0  0  0  0  0  0  0  0  0
   -2.4146   21.3559  -31.0334 H   0  0  0  0  0  0  0  0  0  0  0  0
   -5.8408   19.3749  -31.3202 H   0  0  0  0  0  0  0  0  0  0  0  0
   -7.5095   17.5661  -31.7245 H   0  0  0  0  0  0  0  0  0  0  0  0
   -9.8475   18.1437  -32.3829 H   0  0  0  0  0  0  0  0  0  0  0  0
  -10.5164   20.5343  -32.6469 H   0  0  0  0  0  0  0  0  0  0  0  0
   -8.8536   22.3509  -32.2423 H   0  0  0  0  0  0  0  0  0  0  0  0
   -7.5270   23.5830  -30.6520 H   0  0  0  0  0  0  0  0  0  0  0  0
  1  2  1  0
  2  3  1  0
  3  4  2  0
  4  5  1  0
  5  6  1  0
  6  7  2  0
  7  8  1  0
  8  9  2  0
  9 10  1  0
 10 11  2  0
  5 12  2  0
 12 13  1  0
 13 14  2  0
 14 15  1  0
 15 16  2  0
 16 17  1  0
 17 18  2  0
 12 19  1  0
 19  3  1  0
 11  6  1  0
 18 13  1  0
  1 20  1  0
  1 21  1  0
  1 22  1  0
  7 23  1  0
  8 24  1  0
  9 25  1  0
 10 26  1  0
 11 27  1  0
 14 28  1  0
 15 29  1  0
 16 30  1  0
 17 31  1  0
 18 32  1  0
 19 33  1  0
M  END
>  <UniqueID>  (48) 
47

>  <SMILES>  (48) 
CSc1nc(-c2ccccc2)c(-c2ccccc2)[nH]1

>  <Energy>  (48) 
68.10690980110606

>  <Genealogy>  (48) 
CSc1nc(-c2ccccc2)c(-c2ccccc2)[nH]1 (3D coordinates assigned)
CSc1nc(-c2ccccc2)c(-c2ccccc2)[nH]1 (optimized conformer: 68.10690980110606 kcal/mol)

>  <smiles>  (48) 
CSc1nc(-c2ccccc2)c(-c2ccccc2)[nH]1

>  <score_type>  (48) 
oracle

>  <origin>  (48) 
adgpu

>  <m_score__min__energy>  (48) 
-7.3899999999999997

>  <m_primary>  (48) 
energy

$$$$
48:0
     RDKit          3D

 23 24  0  0  0  0  0  0  0  0999 V2000
   -4.6120   24.5850  -30.9510 N   0  0  0  0  0  0  0  0  0  0  0  0
   -5.4440   23.8260  -31.2120 C   0  0  0  0  0  0  0  0  0  0  0  0
   -6.4820   22.8800  -31.5350 C   0  0  0  0  0  0  0  0  0  0  0  0
   -7.8210   23.1960  -31.2810 C   0  0  0  0  0  0  0  0  0  0  0  0
   -8.8260   22.2790  -31.5950 C   0  0  0  0  0  0  0  0  0  0  0  0
   -8.4990   21.0450  -32.1640 C   0  0  0  0  0  0  0  0  0  0  0  0
   -7.1580   20.7170  -32.4310 C   0  0  0  0  0  0  0  0  0  0  0  0
   -6.8050   19.4060  -33.0280 C   0  0  0  0  0  0  0  0  0  0  0  0
   -6.0530   19.3540  -34.2160 C   0  0  0  0  0  0  0  0  0  0  0  0
   -5.7100   18.1240  -34.7850 C   0  0  0  0  0  0  0  0  0  0  0  0
   -6.1160   16.9350  -34.1770 C   0  0  0  0  0  0  0  0  0  0  0  0
   -6.8680   16.9720  -33.0010 C   0  0  0  0  0  0  0  0  0  0  0  0
   -7.2150   18.1990  -32.4260 C   0  0  0  0  0  0  0  0  0  0  0  0
   -7.9790   18.2050  -31.3030 F   0  0  0  0  0  0  0  0  0  0  0  0
   -6.1500   21.6450  -32.1060 C   0  0  0  0  0  0  0  0  0  0  0  0
   -8.0820   24.1666  -30.8340 H   0  0  0  0  0  0  0  0  0  0  0  0
   -9.8783   22.5285  -31.3939 H   0  0  0  0  0  0  0  0  0  0  0  0
   -9.2958   20.3258  -32.4045 H   0  0  0  0  0  0  0  0  0  0  0  0
   -5.7326   20.2881  -34.7007 H   0  0  0  0  0  0  0  0  0  0  0  0
   -5.1197   18.0932  -35.7127 H   0  0  0  0  0  0  0  0  0  0  0  0
   -5.8433   15.9679  -34.6247 H   0  0  0  0  0  0  0  0  0  0  0  0
   -7.1885   16.0334  -32.5253 H   0  0  0  0  0  0  0  0  0  0  0  0
   -5.0960   21.3986  -32.3017 H   0  0  0  0  0  0  0  0  0  0  0  0
  1  2  3  0
  2  3  1  0
  3  4  2  0
  4  5  1  0
  5  6  2  0
  6  7  1  0
  7  8  1  0
  8  9  2  0
  9 10  1  0
 10 11  2  0
 11 12  1  0
 12 13  2  0
 13 14  1  0
  7 15  2  0
 15  3  1  0
 13  8  1  0
  4 16  1  0
  5 17  1  0
  6 18  1  0
  9 19  1  0
 10 20  1  0
 11 21  1  0
 12 22  1  0
 15 23  1  0
M  END
>  <UniqueID>  (49) 
48

>  <SMILES>  (49) 
N#Cc1cccc(-c2ccccc2F)c1

>  <Energy>  (49) 
29.32829068759264

>  <Genealogy>  (49) 
N#Cc1cccc(-c2ccccc2F)c1 (3D coordinates assigned)
N#Cc1cccc(-c2ccccc2F)c1 (optimized conformer: 29.32829068759264 kcal/mol)

>  <smiles>  (49) 
N#Cc1cccc(-c2ccccc2F)c1

>  <score_type>  (49) 
oracle

>  <origin>  (49) 
adgpu

>  <m_score__min__energy>  (49) 
-7.4400000000000004

>  <m_primary>  (49) 
energy

$$$$
49:0
     RDKit          3D

 38 40  0  0  0  0  0  0  0  0999 V2000
   -6.0960   26.0490  -30.0830 C   0  0  0  0  0  0  0  0  0  0  0  0
   -5.1240   24.9910  -30.4920 C   0  0  0  0  0  0  0  0  0  0  0  0
   -3.8280   25.0690  -30.3040 O   0  0  0  0  0  0  0  0  0  0  0  0
   -3.2220   24.0040  -30.7440 N   0  0  0  0  0  0  0  0  0  0  0  0
   -4.1660   23.1830  -31.2480 C   0  0  0  0  0  0  0  0  0  0  0  0
   -3.8470   21.9100  -31.9230 C   0  0  0  0  0  0  0  0  0  0  0  0
   -4.3410   20.6890  -31.4340 C   0  0  0  0  0  0  0  0  0  0  0  0
   -4.0580   19.4940  -32.1030 C   0  0  0  0  0  0  0  0  0  0  0  0
   -3.2810   19.5080  -33.2630 C   0  0  0  0  0  0  0  0  0  0  0  0
   -2.7980   20.7190  -33.7660 C   0  0  0  0  0  0  0  0  0  0  0  0
   -3.0870   21.9180  -33.1050 C   0  0  0  0  0  0  0  0  0  0  0  0
   -5.4110   23.7820  -31.0990 C   0  0  0  0  0  0  0  0  0  0  0  0
   -6.7460   23.2320  -31.4000 C   0  0  0  0  0  0  0  0  0  0  0  0
   -7.3620   23.6330  -32.4250 O   0  0  0  0  0  0  0  0  0  0  0  0
   -7.3610   22.2860  -30.5130 N   0  0  0  0  0  0  0  0  0  0  0  0
   -8.5770   21.5540  -30.8580 C   0  0  0  0  0  0  0  0  0  0  0  0
   -8.2240   20.3230  -31.6440 C   0  0  0  0  0  0  0  0  0  0  0  0
   -7.3530   20.4100  -32.7420 C   0  0  0  0  0  0  0  0  0  0  0  0
   -6.9940   19.2570  -33.4480 C   0  0  0  0  0  0  0  0  0  0  0  0
   -7.4980   18.0130  -33.0610 C   0  0  0  0  0  0  0  0  0  0  0  0
   -7.1460   16.8970  -33.7450 F   0  0  0  0  0  0  0  0  0  0  0  0
   -8.3550   17.9170  -31.9600 C   0  0  0  0  0  0  0  0  0  0  0  0
   -8.7110   19.0670  -31.2480 C   0  0  0  0  0  0  0  0  0  0  0  0
   -6.1425   26.0996  -28.9851 H   0  0  0  0  0  0  0  0  0  0  0  0
   -5.7692   27.0209  -30.4813 H   0  0  0  0  0  0  0  0  0  0  0  0
   -7.0920   25.8056  -30.4813 H   0  0  0  0  0  0  0  0  0  0  0  0
   -4.9534   20.6729  -30.5204 H   0  0  0  0  0  0  0  0  0  0  0  0
   -4.4481   18.5416  -31.7148 H   0  0  0  0  0  0  0  0  0  0  0  0
   -3.0490   18.5657  -33.7810 H   0  0  0  0  0  0  0  0  0  0  0  0
   -2.1899   20.7297  -34.6826 H   0  0  0  0  0  0  0  0  0  0  0  0
   -2.7177   22.8708  -33.5123 H   0  0  0  0  0  0  0  0  0  0  0  0
   -6.8920   22.0550  -29.6080 H   0  0  0  0  0  0  0  0  0  0  0  0
   -9.1009   21.2610  -29.9362 H   0  0  0  0  0  0  0  0  0  0  0  0
   -9.2290   22.1986  -31.4658 H   0  0  0  0  0  0  0  0  0  0  0  0
   -6.9519   21.3875  -33.0478 H   0  0  0  0  0  0  0  0  0  0  0  0
   -6.3137   19.3300  -34.3093 H   0  0  0  0  0  0  0  0  0  0  0  0
   -8.7492   16.9367  -31.6539 H   0  0  0  0  0  0  0  0  0  0  0  0
   -9.3749   18.9872  -30.3746 H   0  0  0  0  0  0  0  0  0  0  0  0
  1  2  1  0
  2  3  1  0
  3  4  1  0
  4  5  2  0
  5  6  1  0
  6  7  2  0
  7  8  1  0
  8  9  2  0
  9 10  1  0
 10 11  2  0
  5 12  1  0
 12 13  1  0
 13 14  2  0
 13 15  1  0
 15 16  1  0
 16 17  1  0
 17 18  2  0
 18 19  1  0
 19 20  2  0
 20 21  1  0
 20 22  1  0
 22 23  2  0
 12  2  2  0
 23 17  1  0
 11  6  1  0
  1 24  1  0
  1 25  1  0
  1 26  1  0
  7 27  1  0
  8 28  1  0
  9 29  1  0
 10 30  1  0
 11 31  1  0
 15 32  1  0
 16 33  1  0
 16 34  1  0
 18 35  1  0
 19 36  1  0
 22 37  1  0
 23 38  1  0
M  END
>  <UniqueID>  (50) 
49

>  <SMILES>  (50) 
Cc1onc(-c2ccccc2)c1C(=O)NCc1ccc(F)cc1

>  <Energy>  (50) 
72.14878101317296

>  <Genealogy>  (50) 
Cc1onc(-c2ccccc2)c1C(=O)NCc1ccc(F)cc1 (3D coordinates assigned)
Cc1onc(-c2ccccc2)c1C(=O)NCc1ccc(F)cc1 (optimized conformer: 72.14878101317296 kcal/mol)

>  <smiles>  (50) 
Cc1onc(-c2ccccc2)c1C(=O)NCc1ccc(F)cc1

>  <score_type>  (50) 
oracle

>  <origin>  (50) 
adgpu

>  <m_score__min__energy>  (50) 
-8.6999999999999993

>  <m_primary>  (50) 
energy

$$$$
