0:0
     RDKit          3D

 55 58  0  0  0  0  0  0  0  0999 V2000
   -5.7320   26.2610  -30.7180 O   0  0  0  0  0  0  0  0  0  0  0  0
   -5.0290   25.2170  -30.6500 C   0  0  0  0  0  0  0  0  0  0  0  0
   -3.6420   25.2990  -30.2880 N   0  0  0  0  0  0  0  0  0  0  0  0
   -2.9140   24.4140  -29.4240 C   0  0  0  0  0  0  0  0  0  0  0  0
   -3.0970   24.5330  -28.0400 C   0  0  0  0  0  0  0  0  0  0  0  0
   -2.3690   23.7340  -27.1550 C   0  0  0  0  0  0  0  0  0  0  0  0
   -1.4450   22.8000  -27.6440 C   0  0  0  0  0  0  0  0  0  0  0  0
   -0.5170   21.7990  -26.5250 S   0  0  0  0  0  0  0  0  0  0  0  0
    0.9510   22.0320  -26.7570 O   0  0  0  0  0  0  0  0  0  0  0  0
   -0.8310   22.2160  -25.1140 O   0  0  0  0  0  0  0  0  0  0  0  0
   -0.8610   20.0930  -26.7210 N   0  0  0  0  0  0  0  0  0  0  0  0
   -2.0020   19.6820  -25.8960 C   0  0  0  0  0  0  0  0  0  0  0  0
   -3.2450   19.6620  -26.7710 C   0  0  0  0  0  0  0  0  0  0  0  0
   -2.7450   19.7120  -28.2000 C   0  0  0  0  0  0  0  0  0  0  0  0
   -1.2270   19.7850  -28.1070 C   0  0  0  0  0  0  0  0  0  0  0  0
   -1.2440   22.6880  -29.0270 C   0  0  0  0  0  0  0  0  0  0  0  0
   -1.9650   23.4960  -29.9130 C   0  0  0  0  0  0  0  0  0  0  0  0
   -5.6240   23.9050  -30.9950 C   0  0  0  0  0  0  0  0  0  0  0  0
   -4.9020   22.9730  -31.7610 C   0  0  0  0  0  0  0  0  0  0  0  0
   -5.4740   21.7460  -32.1110 C   0  0  0  0  0  0  0  0  0  0  0  0
   -6.7750   21.4290  -31.6980 C   0  0  0  0  0  0  0  0  0  0  0  0
   -7.5100   19.8910  -32.1580 S   0  0  0  0  0  0  0  0  0  0  0  0
   -8.2280   20.0560  -33.4700 O   0  0  0  0  0  0  0  0  0  0  0  0
   -8.5260   19.5010  -31.1220 O   0  0  0  0  0  0  0  0  0  0  0  0
   -6.3230   18.6120  -32.3020 N   0  0  0  0  0  0  0  0  0  0  0  0
   -5.4200   18.8550  -33.4330 C   0  0  0  0  0  0  0  0  0  0  0  0
   -5.8650   17.9700  -34.5800 C   0  0  0  0  0  0  0  0  0  0  0  0
   -6.5570   16.8040  -33.9150 C   0  0  0  0  0  0  0  0  0  0  0  0
   -6.9620   17.3070  -32.5360 C   0  0  0  0  0  0  0  0  0  0  0  0
   -7.4950   22.3500  -30.9270 C   0  0  0  0  0  0  0  0  0  0  0  0
   -6.9260   23.5780  -30.5800 C   0  0  0  0  0  0  0  0  0  0  0  0
   -3.8205   25.2622  -27.6467 H   0  0  0  0  0  0  0  0  0  0  0  0
   -2.5213   23.8381  -26.0706 H   0  0  0  0  0  0  0  0  0  0  0  0
   -1.8207   18.6778  -25.4853 H   0  0  0  0  0  0  0  0  0  0  0  0
   -2.1384   20.3863  -25.0621 H   0  0  0  0  0  0  0  0  0  0  0  0
   -3.8200   18.7403  -26.5985 H   0  0  0  0  0  0  0  0  0  0  0  0
   -3.9121   20.5071  -26.5458 H   0  0  0  0  0  0  0  0  0  0  0  0
   -3.0521   18.8072  -28.7450 H   0  0  0  0  0  0  0  0  0  0  0  0
   -3.1589   20.5742  -28.7434 H   0  0  0  0  0  0  0  0  0  0  0  0
   -0.7902   18.8190  -28.4004 H   0  0  0  0  0  0  0  0  0  0  0  0
   -0.8449   20.5662  -28.7806 H   0  0  0  0  0  0  0  0  0  0  0  0
   -0.5161   21.9615  -29.4173 H   0  0  0  0  0  0  0  0  0  0  0  0
   -1.7897   23.4137  -30.9958 H   0  0  0  0  0  0  0  0  0  0  0  0
   -3.8789   23.2110  -32.0876 H   0  0  0  0  0  0  0  0  0  0  0  0
   -4.9001   21.0263  -32.7133 H   0  0  0  0  0  0  0  0  0  0  0  0
   -5.4728   19.9118  -33.7336 H   0  0  0  0  0  0  0  0  0  0  0  0
   -4.3816   18.6258  -33.1515 H   0  0  0  0  0  0  0  0  0  0  0  0
   -6.5605   18.5096  -35.2396 H   0  0  0  0  0  0  0  0  0  0  0  0
   -5.0229   17.6505  -35.2114 H   0  0  0  0  0  0  0  0  0  0  0  0
   -7.4447   16.5038  -34.4911 H   0  0  0  0  0  0  0  0  0  0  0  0
   -5.9031   15.9216  -33.8528 H   0  0  0  0  0  0  0  0  0  0  0  0
   -8.0555   17.4167  -32.4887 H   0  0  0  0  0  0  0  0  0  0  0  0
   -6.6406   16.5895  -31.7666 H   0  0  0  0  0  0  0  0  0  0  0  0
   -8.5140   22.1053  -30.5928 H   0  0  0  0  0  0  0  0  0  0  0  0
   -7.5022   24.2950  -29.9767 H   0  0  0  0  0  0  0  0  0  0  0  0
  1  2  2  0
  2  3  1  0
  3  4  1  0
  4  5  2  0
  5  6  1  0
  6  7  2  0
  7  8  1  0
  8  9  2  0
  8 10  2  0
  8 11  1  0
 11 12  1  0
 12 13  1  0
 13 14  1  0
 14 15  1  0
  7 16  1  0
 16 17  2  0
  2 18  1  0
 18 19  2  0
 19 20  1  0
 20 21  2  0
 21 22  1  0
 22 23  2  0
 22 24  2  0
 22 25  1  0
 25 26  1  0
 26 27  1  0
 27 28  1  0
 28 29  1  0
 21 30  1  0
 30 31  2  0
 17  4  1  0
 31 18  1  0
 15 11  1  0
 29 25  1  0
  5 32  1  0
  6 33  1  0
 12 34  1  0
 12 35  1  0
 13 36  1  0
 13 37  1  0
 14 38  1  0
 14 39  1  0
 15 40  1  0
 15 41  1  0
 16 42  1  0
 17 43  1  0
 19 44  1  0
 20 45  1  0
 26 46  1  0
 26 47  1  0
 27 48  1  0
 27 49  1  0
 28 50  1  0
 28 51  1  0
 29 52  1  0
 29 53  1  0
 30 54  1  0
 31 55  1  0
M  CHG  1   3  -1
M  END
>  <UniqueID>  (1) 
1

>  <SMILES>  (1) 
O=C([N-]c1ccc(S(=O)(=O)N2CCCC2)cc1)c1ccc(S(=O)(=O)N2CCCC2)cc1

>  <Energy>  (1) 
62.3364112335893

>  <Genealogy>  (1) 
O=C([N-]c1ccc(S(=O)(=O)N2CCCC2)cc1)c1ccc(S(=O)(=O)N2CCCC2)cc1 (protonated)
O=C([N-]c1ccc(S(=O)(=O)N2CCCC2)cc1)c1ccc(S(=O)(=O)N2CCCC2)cc1 (3D coordinates assigned)
O=C([N-]c1ccc(S(=O)(=O)N2CCCC2)cc1)c1ccc(S(=O)(=O)N2CCCC2)cc1 (nonaromatic ring conformer: 62.3364112335893 kcal/mol)

>  <smiles>  (1) 
O=C(Nc1ccc(S(=O)(=O)N2CCCC2)cc1)c1ccc(S(=O)(=O)N2CCCC2)cc1

>  <score_type>  (1) 
oracle

>  <origin>  (1) 
adgpu

>  <m_score__min__energy>  (1) 
-12.119999999999999

>  <m_primary>  (1) 
energy

$$$$
1:0
     RDKit          3D

 70 73  0  0  1  0  0  0  0  0999 V2000
    0.5290   24.3240  -36.0830 C   0  0  0  0  0  0  0  0  0  0  0  0
    1.7150   23.4390  -35.8540 C   0  0  0  0  0  0  0  0  0  0  0  0
    1.3800   22.3380  -34.9600 N   0  0  0  0  0  0  0  0  0  0  0  0
    0.1090   21.7350  -35.3230 C   0  0  0  0  0  0  0  0  0  0  0  0
    0.2090   20.9980  -36.6190 C   0  0  0  0  0  0  0  0  0  0  0  0
    1.3460   20.1830  -36.7810 N   0  0  0  0  0  0  0  0  0  0  0  0
    1.1910   18.8020  -36.9910 C   0  0  0  0  0  0  0  0  0  0  0  0
    0.8450   18.1410  -35.6910 C   0  0  0  0  0  0  0  0  0  0  0  0
   -0.4980   18.1450  -35.2910 C   0  0  0  0  0  0  0  0  0  0  0  0
   -0.8250   17.5250  -34.0840 C   0  0  0  0  0  0  0  0  0  0  0  0
   -2.1910   17.5260  -33.6740 N   0  0  0  0  0  0  0  0  0  0  0  0
   -3.0270   18.6580  -33.7150 C   0  0  0  0  0  0  0  0  0  0  0  0
   -2.5380   19.7330  -34.1390 O   0  0  0  0  0  0  0  0  0  0  0  0
   -4.4230   18.6460  -33.2910 C   0  0  0  0  0  0  0  0  0  0  0  0
   -4.9860   17.4510  -32.9080 C   0  0  0  0  0  0  0  0  0  0  0  0
   -6.3150   17.3880  -32.4950 C   0  0  0  0  0  0  0  0  0  0  0  0
   -7.0950   18.5320  -32.4630 C   0  0  0  0  0  0  0  0  0  0  0  0
   -8.7720   18.5060  -31.9510 Cl  0  0  0  0  0  0  0  0  0  0  0  0
   -6.5140   19.7260  -32.8510 C   0  0  0  0  0  0  0  0  0  0  0  0
   -7.2690   20.9540  -32.8400 N   0  0  0  0  0  0  0  0  0  0  0  0
   -6.8250   21.9370  -32.1260 C   0  0  0  0  0  0  0  0  0  0  0  0
   -7.4780   23.1100  -32.0700 N   0  0  0  0  0  0  0  0  0  0  0  0
   -7.0620   24.1610  -31.3460 C   0  0  0  0  0  0  0  0  0  0  0  0
   -5.8890   23.9960  -30.6270 C   0  0  0  0  0  0  0  0  0  0  0  0
   -5.3100   25.0760  -29.7800 C   0  0  0  0  0  0  0  0  0  0  0  0
   -4.9950   24.5340  -28.5470 F   0  0  0  0  0  0  0  0  0  0  0  0
   -6.1880   26.1350  -29.6510 F   0  0  0  0  0  0  0  0  0  0  0  0
   -4.1640   25.5150  -30.3890 F   0  0  0  0  0  0  0  0  0  0  0  0
   -5.1760   22.7950  -30.6550 C   0  0  0  0  0  0  0  0  0  0  0  0
   -4.0770   22.6450  -29.9790 N   0  0  0  0  0  0  0  0  0  0  0  0
   -3.3780   21.3740  -30.0460 C   0  0  0  0  0  0  0  0  0  0  0  0
   -5.6830   21.7890  -31.4210 N   0  0  0  0  0  0  0  0  0  0  0  0
   -5.1980   19.7870  -33.2600 C   0  0  0  0  0  0  0  0  0  0  0  0
    0.1360   16.9170  -33.2940 C   0  0  0  0  0  0  0  0  0  0  0  0
    1.4430   16.9430  -33.7370 C   0  0  0  0  0  0  0  0  0  0  0  0
    1.8240   17.5430  -34.9250 C   0  0  0  0  0  0  0  0  0  0  0  0
    3.2360   17.5270  -35.3190 C   0  0  0  0  0  0  0  0  0  0  0  0
    2.5680   20.6920  -36.3160 C   0  0  0  0  0  0  0  0  0  0  0  0
    2.4480   21.3560  -34.9570 C   0  0  0  0  0  0  0  0  0  0  0  0
    0.1115   24.6356  -35.1142 H   0  0  0  0  0  0  0  0  0  0  0  0
    0.8393   25.2131  -36.6515 H   0  0  0  0  0  0  0  0  0  0  0  0
   -0.2350   23.7735  -36.6515 H   0  0  0  0  0  0  0  0  0  0  0  0
    2.0502   23.0300  -36.8185 H   0  0  0  0  0  0  0  0  0  0  0  0
    2.5138   24.0364  -35.3903 H   0  0  0  0  0  0  0  0  0  0  0  0
   -0.1926   21.0316  -34.5330 H   0  0  0  0  0  0  0  0  0  0  0  0
   -0.6362   22.5362  -35.4355 H   0  0  0  0  0  0  0  0  0  0  0  0
   -0.6801   20.3569  -36.7107 H   0  0  0  0  0  0  0  0  0  0  0  0
    0.2877   21.7735  -37.3951 H   0  0  0  0  0  0  0  0  0  0  0  0
    0.3838   18.6288  -37.7180 H   0  0  0  0  0  0  0  0  0  0  0  0
    2.1288   18.3803  -37.3816 H   0  0  0  0  0  0  0  0  0  0  0  0
   -1.2717   18.6227  -35.9100 H   0  0  0  0  0  0  0  0  0  0  0  0
   -2.5610   16.6130  -33.3250 H   0  0  0  0  0  0  0  0  0  0  0  0
   -4.3794   16.5336  -32.9280 H   0  0  0  0  0  0  0  0  0  0  0  0
   -6.7478   16.4231  -32.1923 H   0  0  0  0  0  0  0  0  0  0  0  0
   -8.3750   23.2580  -32.6110 H   0  0  0  0  0  0  0  0  0  0  0  0
   -7.6243   25.1062  -31.3245 H   0  0  0  0  0  0  0  0  0  0  0  0
   -3.1784   21.0111  -29.0269 H   0  0  0  0  0  0  0  0  0  0  0  0
   -4.0000   20.6412  -30.5809 H   0  0  0  0  0  0  0  0  0  0  0  0
   -2.4260   21.5068  -30.5809 H   0  0  0  0  0  0  0  0  0  0  0  0
   -5.1210   20.9090  -31.4150 H   0  0  0  0  0  0  0  0  0  0  0  0
   -4.7639   20.7512  -33.5632 H   0  0  0  0  0  0  0  0  0  0  0  0
   -0.1331   16.4297  -32.3453 H   0  0  0  0  0  0  0  0  0  0  0  0
    2.2169   16.4654  -33.1181 H   0  0  0  0  0  0  0  0  0  0  0  0
    3.8679   17.5198  -34.4186 H   0  0  0  0  0  0  0  0  0  0  0  0
    3.4396   16.6265  -35.9170 H   0  0  0  0  0  0  0  0  0  0  0  0
    3.4600   18.4227  -35.9170 H   0  0  0  0  0  0  0  0  0  0  0  0
    3.2880   19.8638  -36.2404 H   0  0  0  0  0  0  0  0  0  0  0  0
    2.9019   21.4582  -37.0312 H   0  0  0  0  0  0  0  0  0  0  0  0
    2.2320   20.5895  -34.1982 H   0  0  0  0  0  0  0  0  0  0  0  0
    3.3958   21.8642  -34.7261 H   0  0  0  0  0  0  0  0  0  0  0  0
  1  2  1  0
  2  3  1  0
  3  4  1  0
  4  5  1  0
  5  6  1  0
  6  7  1  0
  7  8  1  0
  8  9  2  0
  9 10  1  0
 10 11  1  0
 11 12  1  0
 12 13  2  0
 12 14  1  0
 14 15  2  0
 15 16  1  0
 16 17  2  0
 17 18  1  0
 17 19  1  0
 19 20  1  0
 20 21  2  0
 21 22  1  0
 22 23  1  0
 23 24  2  0
 24 25  1  0
 25 26  1  0
 25 27  1  0
 25 28  1  0
 24 29  1  0
 29 30  2  0
 30 31  1  0
 29 32  1  0
 19 33  2  0
 10 34  2  0
 34 35  1  0
 35 36  2  0
 36 37  1  0
  6 38  1  0
 38 39  1  0
 39  3  1  0
 36  8  1  0
 33 14  1  0
 32 21  1  0
  1 40  1  0
  1 41  1  0
  1 42  1  0
  2 43  1  0
  2 44  1  0
  4 45  1  0
  4 46  1  0
  5 47  1  0
  5 48  1  0
  7 49  1  0
  7 50  1  0
  9 51  1  0
 11 52  1  0
 15 53  1  0
 16 54  1  0
 22 55  1  0
 23 56  1  0
 31 57  1  0
 31 58  1  0
 31 59  1  0
 32 60  1  0
 33 61  1  0
 34 62  1  0
 35 63  1  0
 37 64  1  0
 37 65  1  0
 37 66  1  0
 38 67  1  0
 38 68  1  0
 39 69  1  0
 39 70  1  0
M  END
>  <smiles>  (2) 
CCN1CCN(Cc2cc(NC(=O)c3ccc(Cl)c(N=c4[nH]cc(C(F)(F)F)c(=NC)[nH]4)c3)ccc2C)CC1

>  <score_type>  (2) 
oracle

>  <origin>  (2) 
adgpu

>  <m_score__min__energy>  (2) 
-10.02

>  <m_primary>  (2) 
energy

$$$$
2:0
     RDKit          3D

 43 46  0  0  0  0  0  0  0  0999 V2000
   -3.7490   24.2610  -30.9110 O   0  0  0  0  0  0  0  0  0  0  0  0
   -4.0110   23.0280  -30.9800 C   0  0  0  0  0  0  0  0  0  0  0  0
   -4.6440   22.4920  -32.2550 C   0  0  2  0  0  0  0  0  0  0  0  0
   -6.0820   22.0750  -32.0190 C   0  0  0  0  0  0  0  0  0  0  0  0
   -6.5050   20.7940  -32.4230 C   0  0  0  0  0  0  0  0  0  0  0  0
   -7.8250   20.3840  -32.2240 C   0  0  0  0  0  0  0  0  0  0  0  0
   -8.7420   21.2460  -31.6220 C   0  0  0  0  0  0  0  0  0  0  0  0
   -8.3420   22.5220  -31.2190 C   0  0  0  0  0  0  0  0  0  0  0  0
   -7.0220   22.9450  -31.4130 C   0  0  0  0  0  0  0  0  0  0  0  0
   -6.5890   24.5710  -30.8930 Cl  0  0  0  0  0  0  0  0  0  0  0  0
   -3.9430   21.3860  -32.8240 O   0  0  0  0  0  0  0  0  0  0  0  0
   -2.5670   21.2170  -32.6760 C   0  0  0  0  0  0  0  0  0  0  0  0
   -1.7390   21.2520  -33.8040 C   0  0  0  0  0  0  0  0  0  0  0  0
   -0.3560   21.1090  -33.6620 C   0  0  0  0  0  0  0  0  0  0  0  0
    0.2010   20.9190  -32.3930 C   0  0  0  0  0  0  0  0  0  0  0  0
   -0.6260   20.8600  -31.2680 C   0  0  0  0  0  0  0  0  0  0  0  0
   -2.0170   20.9980  -31.4070 C   0  0  0  0  0  0  0  0  0  0  0  0
   -2.9300   20.8680  -30.2270 C   0  0  0  0  0  0  0  0  0  0  0  0
   -3.5530   22.1590  -29.9210 N   0  0  0  0  0  0  0  0  0  0  0  0
   -3.8990   22.4700  -28.5280 C   0  0  0  0  0  0  0  0  0  0  0  0
   -3.0310   23.5780  -28.0040 C   0  0  0  0  0  0  0  0  0  0  0  0
   -3.4620   24.3910  -26.9440 C   0  0  0  0  0  0  0  0  0  0  0  0
   -2.6410   25.4320  -26.5010 C   0  0  0  0  0  0  0  0  0  0  0  0
   -1.4090   25.6560  -27.1170 C   0  0  0  0  0  0  0  0  0  0  0  0
   -1.0140   24.8310  -28.1720 C   0  0  0  0  0  0  0  0  0  0  0  0
   -1.8250   23.8230  -28.5900 N   0  0  0  0  0  0  0  0  0  0  0  0
   -4.5942   23.3277  -32.9685 H   0  0  0  0  0  0  0  0  0  0  0  0
   -5.7884   20.1094  -32.9002 H   0  0  0  0  0  0  0  0  0  0  0  0
   -8.1422   19.3800  -32.5423 H   0  0  0  0  0  0  0  0  0  0  0  0
   -9.7809   20.9204  -31.4646 H   0  0  0  0  0  0  0  0  0  0  0  0
   -9.0689   23.1988  -30.7462 H   0  0  0  0  0  0  0  0  0  0  0  0
   -2.1772   21.3922  -34.8032 H   0  0  0  0  0  0  0  0  0  0  0  0
    0.2946   21.1459  -34.5482 H   0  0  0  0  0  0  0  0  0  0  0  0
    1.2904   20.8160  -32.2806 H   0  0  0  0  0  0  0  0  0  0  0  0
   -0.1867   20.7052  -30.2715 H   0  0  0  0  0  0  0  0  0  0  0  0
   -3.7146   20.1314  -30.4547 H   0  0  0  0  0  0  0  0  0  0  0  0
   -2.3444   20.5380  -29.3562 H   0  0  0  0  0  0  0  0  0  0  0  0
   -4.9528   22.7814  -28.4779 H   0  0  0  0  0  0  0  0  0  0  0  0
   -3.7387   21.5721  -27.9132 H   0  0  0  0  0  0  0  0  0  0  0  0
   -4.4364   24.2107  -26.4665 H   0  0  0  0  0  0  0  0  0  0  0  0
   -2.9654   26.0734  -25.6684 H   0  0  0  0  0  0  0  0  0  0  0  0
   -0.7566   26.4731  -26.7754 H   0  0  0  0  0  0  0  0  0  0  0  0
   -0.0451   24.9969  -28.6657 H   0  0  0  0  0  0  0  0  0  0  0  0
  1  2  2  0
  2  3  1  0
  3  4  1  0
  4  5  2  0
  5  6  1  0
  6  7  2  0
  7  8  1  0
  8  9  2  0
  9 10  1  0
  3 11  1  0
 11 12  1  0
 12 13  2  0
 13 14  1  0
 14 15  2  0
 15 16  1  0
 16 17  2  0
 17 18  1  0
 18 19  1  0
 19 20  1  0
 20 21  1  0
 21 22  2  0
 22 23  1  0
 23 24  2  0
 24 25  1  0
 25 26  2  0
 19  2  1  0
 26 21  1  0
  9  4  1  0
 17 12  1  0
  3 27  1  6
  5 28  1  0
  6 29  1  0
  7 30  1  0
  8 31  1  0
 13 32  1  0
 14 33  1  0
 15 34  1  0
 16 35  1  0
 18 36  1  0
 18 37  1  0
 20 38  1  0
 20 39  1  0
 22 40  1  0
 23 41  1  0
 24 42  1  0
 25 43  1  0
M  END
>  <UniqueID>  (3) 
2

>  <SMILES>  (3) 
O=C1[C@H](c2ccccc2Cl)Oc2ccccc2CN1Cc1ccccn1

>  <Energy>  (3) 
60.74244381902785

>  <Genealogy>  (3) 
O=C1[C@H](c2ccccc2Cl)Oc2ccccc2CN1Cc1ccccn1 (chirality)
O=C1[C@H](c2ccccc2Cl)Oc2ccccc2CN1Cc1ccccn1 (3D coordinates assigned)
O=C1[C@H](c2ccccc2Cl)Oc2ccccc2CN1Cc1ccccn1 (nonaromatic ring conformer: 60.74244381902785 kcal/mol)

>  <smiles>  (3) 
O=C1C(c2ccccc2Cl)Oc2ccccc2CN1Cc1ccccn1

>  <score_type>  (3) 
oracle

>  <origin>  (3) 
adgpu

>  <m_score__min__energy>  (3) 
-6.9500000000000002

>  <m_primary>  (3) 
energy

$$$$
3:0
     RDKit          3D

 24 25  0  0  0  0  0  0  0  0999 V2000
   -5.7756   24.9446  -31.4808 H   0  0  0  0  0  0  0  0  0  0  0  0
   -4.9730   24.5460  -30.8430 C   0  0  0  0  0  0  0  0  0  0  0  0
   -3.9110   25.3000  -30.4520 N   0  0  0  0  0  0  0  0  0  0  0  0
   -3.0600   24.5960  -29.6760 C   0  0  0  0  0  0  0  0  0  0  0  0
   -1.9740   25.1170  -29.1910 N   0  0  0  0  0  0  0  0  0  0  0  0
   -0.8410   24.2610  -28.1940 S   0  0  0  0  0  0  0  0  0  0  0  0
    0.4660   24.1410  -28.9280 O   0  0  0  0  0  0  0  0  0  0  0  0
   -1.3730   22.8840  -27.9140 O   0  0  0  0  0  0  0  0  0  0  0  0
   -0.6200   25.1090  -26.6660 C   0  0  0  0  0  0  0  0  0  0  0  0
   -1.5170   26.1160  -26.2900 C   0  0  0  0  0  0  0  0  0  0  0  0
   -2.3618   26.3706  -26.9469 H   0  0  0  0  0  0  0  0  0  0  0  0
   -1.3430   26.7990  -25.0830 C   0  0  0  0  0  0  0  0  0  0  0  0
   -2.0490   27.5920  -24.7952 H   0  0  0  0  0  0  0  0  0  0  0  0
   -0.2720   26.4770  -24.2380 C   0  0  0  0  0  0  0  0  0  0  0  0
   -0.0930   27.1760  -23.0030 N   0  0  0  0  0  0  0  0  0  0  0  0
    0.4390   26.7420  -22.2160 H   0  0  0  0  0  0  0  0  0  0  0  0
   -0.4890   28.1330  -22.8680 H   0  0  0  0  0  0  0  0  0  0  0  0
    0.6230   25.4650  -24.6120 C   0  0  0  0  0  0  0  0  0  0  0  0
    1.4652   25.2071  -23.9530 H   0  0  0  0  0  0  0  0  0  0  0  0
    0.4490   24.7820  -25.8200 C   0  0  0  0  0  0  0  0  0  0  0  0
    1.1525   23.9865  -26.1069 H   0  0  0  0  0  0  0  0  0  0  0  0
   -3.5910   23.0120  -29.4440 S   0  0  0  0  0  0  0  0  0  0  0  0
   -4.9720   23.2350  -30.3790 C   0  0  0  0  0  0  0  0  0  0  0  0
   -5.7404   22.4759  -30.5871 H   0  0  0  0  0  0  0  0  0  0  0  0
  1  2  1  0
  2  3  1  0
  3  4  1  0
  4  5  2  0
  5  6  1  0
  6  7  2  0
  6  8  2  0
  6  9  1  0
  9 10  2  0
 10 11  1  0
 10 12  1  0
 12 13  1  0
 12 14  2  0
 14 15  1  0
 15 16  1  0
 15 17  1  0
 14 18  1  0
 18 19  1  0
 18 20  2  0
 20 21  1  0
  4 22  1  0
 22 23  1  0
 23 24  1  0
 23  2  2  0
 20  9  1  0
M  CHG  1   3  -1
M  END
>  <UniqueID>  (4) 
3

>  <SMILES>  (4) 
Nc1ccc(S(=O)(=O)/N=c2/[n-]ccs2)cc1

>  <Energy>  (4) 
56.96456236821659

>  <Genealogy>  (4) 
Nc1ccc(S(=O)(=O)N=c2[n-]ccs2)cc1 (protonated)
Nc1ccc(S(=O)(=O)/N=c2/[n-]ccs2)cc1 (cis-trans isomerization)
Nc1ccc(S(=O)(=O)/N=c2/[n-]ccs2)cc1 (3D coordinates assigned)
Nc1ccc(S(=O)(=O)/N=c2/[n-]ccs2)cc1 (optimized conformer: 56.96456236821659 kcal/mol)

>  <smiles>  (4) 
Nc1ccc(S(=O)(=O)N=c2[nH]ccs2)cc1

>  <score_type>  (4) 
oracle

>  <origin>  (4) 
adgpu

>  <m_score__min__energy>  (4) 
-8.0899999999999999

>  <m_primary>  (4) 
energy

$$$$
4:0
     RDKit          3D

 41 43  0  0  0  0  0  0  0  0999 V2000
   -0.1710   23.0520  -29.9460 O   0  0  0  0  0  0  0  0  0  0  0  0
   -1.4110   22.8650  -30.0830 C   0  0  0  0  0  0  0  0  0  0  0  0
   -1.9000   22.1220  -31.2130 N   0  0  0  0  0  0  0  0  0  0  0  0
   -1.0850   21.2480  -32.0120 C   0  0  0  0  0  0  0  0  0  0  0  0
   -0.2660   20.2990  -31.3800 C   0  0  0  0  0  0  0  0  0  0  0  0
    0.5510   19.4520  -32.1350 C   0  0  0  0  0  0  0  0  0  0  0  0
    0.5700   19.5570  -33.5280 C   0  0  0  0  0  0  0  0  0  0  0  0
   -0.2250   20.5130  -34.1670 C   0  0  0  0  0  0  0  0  0  0  0  0
   -1.0440   21.3600  -33.4150 C   0  0  0  0  0  0  0  0  0  0  0  0
   -2.3600   23.4400  -29.0950 C   0  0  0  0  0  0  0  0  0  0  0  0
   -1.9770   23.5280  -27.7440 C   0  0  0  0  0  0  0  0  0  0  0  0
   -2.8400   24.0730  -26.7920 C   0  0  0  0  0  0  0  0  0  0  0  0
   -4.0930   24.5480  -27.1760 C   0  0  0  0  0  0  0  0  0  0  0  0
   -4.4900   24.4710  -28.5100 C   0  0  0  0  0  0  0  0  0  0  0  0
   -3.6430   23.9020  -29.4780 C   0  0  0  0  0  0  0  0  0  0  0  0
   -4.0620   23.8110  -30.8500 N   0  0  0  0  0  0  0  0  0  0  0  0
   -5.3730   24.1000  -31.3570 C   0  0  0  0  0  0  0  0  0  0  0  0
   -5.6800   25.2990  -31.5900 O   0  0  0  0  0  0  0  0  0  0  0  0
   -6.3290   23.0230  -31.7030 C   0  0  0  0  0  0  0  0  0  0  0  0
   -7.6990   23.2370  -31.4720 C   0  0  0  0  0  0  0  0  0  0  0  0
   -8.6270   22.2220  -31.7050 C   0  0  0  0  0  0  0  0  0  0  0  0
   -8.2000   20.9760  -32.1620 C   0  0  0  0  0  0  0  0  0  0  0  0
   -6.8440   20.7450  -32.4000 C   0  0  0  0  0  0  0  0  0  0  0  0
   -5.8950   21.7620  -32.1890 C   0  0  0  0  0  0  0  0  0  0  0  0
   -4.5160   21.5150  -32.5180 N   0  0  0  0  0  0  0  0  0  0  0  0
   -3.9400   20.4970  -32.0800 O   0  0  0  0  0  0  0  0  0  0  0  0
   -3.8780   22.2820  -33.4660 O   0  0  0  0  0  0  0  0  0  0  0  0
   -2.8770   22.3100  -31.5350 H   0  0  0  0  0  0  0  0  0  0  0  0
   -0.2670   20.2212  -30.2828 H   0  0  0  0  0  0  0  0  0  0  0  0
    1.1793   18.7023  -31.6318 H   0  0  0  0  0  0  0  0  0  0  0  0
    1.2101   18.8878  -34.1216 H   0  0  0  0  0  0  0  0  0  0  0  0
   -0.2060   20.5988  -35.2635 H   0  0  0  0  0  0  0  0  0  0  0  0
   -1.6596   22.1178  -33.9217 H   0  0  0  0  0  0  0  0  0  0  0  0
   -0.9864   23.1632  -27.4346 H   0  0  0  0  0  0  0  0  0  0  0  0
   -2.5311   24.1277  -25.7377 H   0  0  0  0  0  0  0  0  0  0  0  0
   -4.7690   24.9840  -26.4257 H   0  0  0  0  0  0  0  0  0  0  0  0
   -5.4751   24.8589  -28.8085 H   0  0  0  0  0  0  0  0  0  0  0  0
   -8.0427   24.2149  -31.1037 H   0  0  0  0  0  0  0  0  0  0  0  0
   -9.6971   22.4049  -31.5279 H   0  0  0  0  0  0  0  0  0  0  0  0
   -8.9325   20.1739  -32.3353 H   0  0  0  0  0  0  0  0  0  0  0  0
   -6.5142   19.7579  -32.7561 H   0  0  0  0  0  0  0  0  0  0  0  0
  1  2  2  0
  2  3  1  0
  3  4  1  0
  4  5  2  0
  5  6  1  0
  6  7  2  0
  7  8  1  0
  8  9  2  0
  2 10  1  0
 10 11  2  0
 11 12  1  0
 12 13  2  0
 13 14  1  0
 14 15  2  0
 15 16  1  0
 16 17  1  0
 17 18  2  0
 17 19  1  0
 19 20  2  0
 20 21  1  0
 21 22  2  0
 22 23  1  0
 23 24  2  0
 24 25  1  0
 25 26  2  0
 25 27  1  0
  9  4  1  0
 15 10  1  0
 24 19  1  0
  3 28  1  0
  5 29  1  0
  6 30  1  0
  7 31  1  0
  8 32  1  0
  9 33  1  0
 11 34  1  0
 12 35  1  0
 13 36  1  0
 14 37  1  0
 20 38  1  0
 21 39  1  0
 22 40  1  0
 23 41  1  0
M  CHG  3  16  -1  25   1  27  -1
M  END
>  <UniqueID>  (5) 
4

>  <SMILES>  (5) 
O=C(Nc1ccccc1)c1ccccc1[N-]C(=O)c1ccccc1[N+](=O)[O-]

>  <Energy>  (5) 
64.45300612263327

>  <Genealogy>  (5) 
O=C(Nc1ccccc1)c1ccccc1[N-]C(=O)c1ccccc1[N+](=O)[O-] (protonated)
O=C(Nc1ccccc1)c1ccccc1[N-]C(=O)c1ccccc1[N+](=O)[O-] (3D coordinates assigned)
O=C(Nc1ccccc1)c1ccccc1[N-]C(=O)c1ccccc1[N+](=O)[O-] (optimized conformer: 64.45300612263327 kcal/mol)

>  <smiles>  (5) 
O=C(Nc1ccccc1)c1ccccc1NC(=O)c1ccccc1[N+](=O)[O-]

>  <score_type>  (5) 
oracle

>  <origin>  (5) 
adgpu

>  <m_score__min__energy>  (5) 
-9.5500000000000007

>  <m_primary>  (5) 
energy

$$$$
5:0
     RDKit          3D

 42 44  0  0  0  0  0  0  0  0999 V2000
   -4.5580   24.5580  -27.7240 N   0  0  0  0  0  0  0  0  0  0  0  0
   -3.3380   23.9140  -28.1180 C   0  0  0  0  0  0  0  0  0  0  0  0
   -2.6790   23.0680  -27.2120 C   0  0  0  0  0  0  0  0  0  0  0  0
   -1.4920   22.4270  -27.5740 C   0  0  0  0  0  0  0  0  0  0  0  0
   -0.9550   22.6190  -28.8480 C   0  0  0  0  0  0  0  0  0  0  0  0
   -1.6010   23.4570  -29.7600 C   0  0  0  0  0  0  0  0  0  0  0  0
   -2.7870   24.1280  -29.3990 C   0  0  0  0  0  0  0  0  0  0  0  0
   -3.4700   24.9770  -30.3330 N   0  0  0  0  0  0  0  0  0  0  0  0
   -4.8870   25.0520  -30.5410 C   0  0  0  0  0  0  0  0  0  0  0  0
   -5.4830   26.1210  -30.2480 O   0  0  0  0  0  0  0  0  0  0  0  0
   -5.6560   23.9320  -31.1380 C   0  0  0  0  0  0  0  0  0  0  0  0
   -7.0250   24.0560  -31.4180 C   0  0  0  0  0  0  0  0  0  0  0  0
   -7.7270   22.9860  -31.9770 C   0  0  0  0  0  0  0  0  0  0  0  0
   -7.0610   21.7840  -32.2360 C   0  0  0  0  0  0  0  0  0  0  0  0
   -7.7160   20.7990  -32.7820 N   0  0  0  0  0  0  0  0  0  0  0  0
   -7.2090   19.4850  -33.0700 C   0  0  0  0  0  0  0  0  0  0  0  0
   -6.2100   19.2670  -34.0370 C   0  0  0  0  0  0  0  0  0  0  0  0
   -5.7160   17.9780  -34.2640 C   0  0  0  0  0  0  0  0  0  0  0  0
   -6.2030   16.8960  -33.5190 C   0  0  0  0  0  0  0  0  0  0  0  0
   -5.5790   15.2720  -33.7920 S   0  0  0  0  0  0  0  0  0  0  0  0
   -4.9400   14.6380  -32.3170 N   0  0  0  0  0  0  0  0  0  0  0  0
   -6.6870   14.3820  -34.2830 O   0  0  0  0  0  0  0  0  0  0  0  0
   -4.4950   15.3090  -34.8330 O   0  0  0  0  0  0  0  0  0  0  0  0
   -7.1710   17.1170  -32.5300 C   0  0  0  0  0  0  0  0  0  0  0  0
   -7.6630   18.4060  -32.3010 C   0  0  0  0  0  0  0  0  0  0  0  0
   -5.7330   21.6800  -31.9530 N   0  0  0  0  0  0  0  0  0  0  0  0
   -5.0270   22.7070  -31.4090 C   0  0  0  0  0  0  0  0  0  0  0  0
   -5.0920   24.2490  -26.8820 H   0  0  0  0  0  0  0  0  0  0  0  0
   -4.9350   25.3610  -28.2740 H   0  0  0  0  0  0  0  0  0  0  0  0
   -3.1009   22.9086  -26.2087 H   0  0  0  0  0  0  0  0  0  0  0  0
   -0.9802   21.7706  -26.8548 H   0  0  0  0  0  0  0  0  0  0  0  0
   -0.0226   22.1102  -29.1340 H   0  0  0  0  0  0  0  0  0  0  0  0
   -1.1811   23.5943  -30.7674 H   0  0  0  0  0  0  0  0  0  0  0  0
   -7.5469   24.9986  -31.1966 H   0  0  0  0  0  0  0  0  0  0  0  0
   -8.7967   23.0880  -32.2120 H   0  0  0  0  0  0  0  0  0  0  0  0
   -5.8157   20.1143  -34.6172 H   0  0  0  0  0  0  0  0  0  0  0  0
   -4.9432   17.8136  -35.0294 H   0  0  0  0  0  0  0  0  0  0  0  0
   -3.9150   14.8510  -32.3110 H   0  0  0  0  0  0  0  0  0  0  0  0
   -5.3660   15.1890  -31.5390 H   0  0  0  0  0  0  0  0  0  0  0  0
   -7.5453   16.2734  -31.9315 H   0  0  0  0  0  0  0  0  0  0  0  0
   -8.4111   18.5734  -31.5121 H   0  0  0  0  0  0  0  0  0  0  0  0
   -3.9589   22.5772  -31.1805 H   0  0  0  0  0  0  0  0  0  0  0  0
  1  2  1  0
  2  3  2  0
  3  4  1  0
  4  5  2  0
  5  6  1  0
  6  7  2  0
  7  8  1  0
  8  9  1  0
  9 10  2  0
  9 11  1  0
 11 12  1  0
 12 13  2  0
 13 14  1  0
 14 15  2  3
 15 16  1  0
 16 17  2  0
 17 18  1  0
 18 19  2  0
 19 20  1  0
 20 21  1  0
 20 22  2  0
 20 23  2  0
 19 24  1  0
 24 25  2  0
 14 26  1  0
 26 27  1  0
  7  2  1  0
 27 11  2  0
 25 16  1  0
  1 28  1  0
  1 29  1  0
  3 30  1  0
  4 31  1  0
  5 32  1  0
  6 33  1  0
 12 34  1  0
 13 35  1  0
 17 36  1  0
 18 37  1  0
 21 38  1  0
 21 39  1  0
 24 40  1  0
 25 41  1  0
 27 42  1  0
M  CHG  2   8  -1  26  -1
M  END
>  <UniqueID>  (6) 
5

>  <SMILES>  (6) 
Nc1ccccc1[N-]C(=O)c1ccc(=Nc2ccc(S(N)(=O)=O)cc2)[n-]c1

>  <Energy>  (6) 
57.333468734762434

>  <Genealogy>  (6) 
Nc1ccccc1[N-]C(=O)c1ccc(=Nc2ccc(S(N)(=O)=O)cc2)[n-]c1 (protonated)
Nc1ccccc1[N-]C(=O)c1ccc(=Nc2ccc(S(N)(=O)=O)cc2)[n-]c1 (3D coordinates assigned)
Nc1ccccc1[N-]C(=O)c1ccc(=Nc2ccc(S(N)(=O)=O)cc2)[n-]c1 (optimized conformer: 57.333468734762434 kcal/mol)

>  <smiles>  (6) 
Nc1ccccc1NC(=O)c1ccc(=Nc2ccc(S(N)(=O)=O)cc2)[nH]c1

>  <score_type>  (6) 
oracle

>  <origin>  (6) 
adgpu

>  <m_score__min__energy>  (6) 
-11.220000000000001

>  <m_primary>  (6) 
energy

$$$$
6:0
     RDKit          3D

 48 52  0  0  0  0  0  0  0  0999 V2000
   -0.0730   17.8110  -27.5220 C   0  0  0  0  0  0  0  0  0  0  0  0
   -1.1820   18.7540  -27.4670 N   0  0  0  0  0  0  0  0  0  0  0  0
   -1.3150   19.8550  -28.2270 C   0  0  0  0  0  0  0  0  0  0  0  0
   -2.5190   20.4520  -27.9040 C   0  0  0  0  0  0  0  0  0  0  0  0
   -3.1080   21.6860  -28.4580 C   0  0  0  0  0  0  0  0  0  0  0  0
   -3.1290   22.8990  -27.7220 C   0  0  0  0  0  0  0  0  0  0  0  0
   -3.6640   24.0640  -28.2990 C   0  0  0  0  0  0  0  0  0  0  0  0
   -4.1690   23.9530  -29.5860 C   0  0  0  0  0  0  0  0  0  0  0  0
   -4.6820   24.9280  -30.3620 N   0  0  0  0  0  0  0  0  0  0  0  0
   -4.9970   24.3500  -31.5220 N   0  0  0  0  0  0  0  0  0  0  0  0
   -4.6740   23.0390  -31.4220 C   0  0  0  0  0  0  0  0  0  0  0  0
   -4.8970   21.8270  -32.7190 S   0  0  0  0  0  0  0  0  0  0  0  0
   -6.6330   21.5630  -32.3270 C   0  0  0  0  0  0  0  0  0  0  0  0
   -7.4050   22.6850  -31.9940 C   0  0  0  0  0  0  0  0  0  0  0  0
   -8.7570   22.5470  -31.6790 C   0  0  0  0  0  0  0  0  0  0  0  0
   -9.3530   21.2860  -31.6960 C   0  0  0  0  0  0  0  0  0  0  0  0
   -8.5960   20.1600  -32.0230 C   0  0  0  0  0  0  0  0  0  0  0  0
   -7.2310   20.2810  -32.3390 C   0  0  0  0  0  0  0  0  0  0  0  0
   -6.4760   19.0960  -32.6510 N   0  0  0  0  0  0  0  0  0  0  0  0
   -5.7790   18.9690  -33.9350 C   0  0  0  0  0  0  0  0  0  0  0  0
   -6.0630   17.6000  -34.5900 C   0  0  0  0  0  0  0  0  0  0  0  0
   -6.3890   16.5230  -33.6340 N   0  0  0  0  0  0  0  0  0  0  0  0
   -5.8070   16.7470  -32.3060 C   0  0  0  0  0  0  0  0  0  0  0  0
   -6.4070   18.0040  -31.6720 C   0  0  0  0  0  0  0  0  0  0  0  0
   -4.1510   22.7840  -30.2190 N   0  0  0  0  0  0  0  0  0  0  0  0
   -3.6310   21.6660  -29.7200 N   0  0  0  0  0  0  0  0  0  0  0  0
   -3.0720   19.6370  -26.9310 C   0  0  0  0  0  0  0  0  0  0  0  0
   -2.2410   18.6050  -26.6860 N   0  0  0  0  0  0  0  0  0  0  0  0
    0.2360   17.5483  -26.4995 H   0  0  0  0  0  0  0  0  0  0  0  0
   -0.3906   16.9021  -28.0540 H   0  0  0  0  0  0  0  0  0  0  0  0
    0.7730   18.2706  -28.0540 H   0  0  0  0  0  0  0  0  0  0  0  0
   -0.5931   20.2168  -28.9740 H   0  0  0  0  0  0  0  0  0  0  0  0
   -2.7262   22.9278  -26.6988 H   0  0  0  0  0  0  0  0  0  0  0  0
   -3.6813   25.0198  -27.7547 H   0  0  0  0  0  0  0  0  0  0  0  0
   -6.9409   23.6822  -31.9810 H   0  0  0  0  0  0  0  0  0  0  0  0
   -9.3535   23.4333  -31.4170 H   0  0  0  0  0  0  0  0  0  0  0  0
  -10.4201   21.1790  -31.4516 H   0  0  0  0  0  0  0  0  0  0  0  0
   -9.0717   19.1682  -32.0337 H   0  0  0  0  0  0  0  0  0  0  0  0
   -6.1210   19.7677  -34.6097 H   0  0  0  0  0  0  0  0  0  0  0  0
   -4.6971   19.0515  -33.7543 H   0  0  0  0  0  0  0  0  0  0  0  0
   -6.9126   17.7176  -35.2787 H   0  0  0  0  0  0  0  0  0  0  0  0
   -5.1366   17.2975  -35.1001 H   0  0  0  0  0  0  0  0  0  0  0  0
   -7.4310   16.4620  -33.5350 H   0  0  0  0  0  0  0  0  0  0  0  0
   -6.0203   15.8792  -31.6646 H   0  0  0  0  0  0  0  0  0  0  0  0
   -4.7198   16.8800  -32.4080 H   0  0  0  0  0  0  0  0  0  0  0  0
   -7.4212   17.7777  -31.3113 H   0  0  0  0  0  0  0  0  0  0  0  0
   -5.7660   18.3188  -30.8353 H   0  0  0  0  0  0  0  0  0  0  0  0
   -4.0393   19.8057  -26.4351 H   0  0  0  0  0  0  0  0  0  0  0  0
  1  2  1  0
  2  3  1  0
  3  4  2  0
  4  5  1  0
  5  6  1  0
  6  7  2  0
  7  8  1  0
  8  9  2  0
  9 10  1  0
 10 11  2  0
 11 12  1  0
 12 13  1  0
 13 14  2  0
 14 15  1  0
 15 16  2  0
 16 17  1  0
 17 18  2  0
 18 19  1  0
 19 20  1  0
 20 21  1  0
 21 22  1  0
 22 23  1  0
 23 24  1  0
 11 25  1  0
 25 26  1  0
  4 27  1  0
 27 28  2  0
 28  2  1  0
 26  5  2  0
 25  8  1  0
 18 13  1  0
 24 19  1  0
  1 29  1  0
  1 30  1  0
  1 31  1  0
  3 32  1  0
  6 33  1  0
  7 34  1  0
 14 35  1  0
 15 36  1  0
 16 37  1  0
 17 38  1  0
 20 39  1  0
 20 40  1  0
 21 41  1  0
 21 42  1  0
 22 43  1  0
 23 44  1  0
 23 45  1  0
 24 46  1  0
 24 47  1  0
 27 48  1  0
M  END
>  <UniqueID>  (7) 
6

>  <SMILES>  (7) 
Cn1cc(-c2ccc3nnc(Sc4ccccc4N4CCNCC4)n3n2)cn1

>  <Energy>  (7) 
129.555045447041

>  <Genealogy>  (7) 
Cn1cc(-c2ccc3nnc(Sc4ccccc4N4CCNCC4)n3n2)cn1 (3D coordinates assigned)
Cn1cc(-c2ccc3nnc(Sc4ccccc4N4CCNCC4)n3n2)cn1 (nonaromatic ring conformer: 129.555045447041 kcal/mol)

>  <smiles>  (7) 
Cn1cc(-c2ccc3nnc(Sc4ccccc4N4CCNCC4)n3n2)cn1

>  <score_type>  (7) 
oracle

>  <origin>  (7) 
adgpu

>  <m_score__min__energy>  (7) 
-10.19

>  <m_primary>  (7) 
energy

$$$$
7:0
     RDKit          3D

 41 42  0  0  0  0  0  0  0  0999 V2000
   -9.1640   19.1030  -31.9580 C   0  0  0  0  0  0  0  0  0  0  0  0
   -9.0270   20.4590  -32.6390 C   0  0  0  0  0  0  0  0  0  0  0  0
   -8.9390   21.5250  -31.6470 N   0  0  0  0  0  0  0  0  0  0  0  0
   -8.0380   22.6400  -31.7030 C   0  0  0  0  0  0  0  0  0  0  0  0
   -8.1300   23.4440  -32.6690 O   0  0  0  0  0  0  0  0  0  0  0  0
   -7.0340   22.9160  -30.6170 C   0  0  0  0  0  0  0  0  0  0  0  0
   -5.8010   23.5860  -31.1670 C   0  0  0  0  0  0  0  0  0  0  0  0
   -5.8440   24.8180  -31.4390 O   0  0  0  0  0  0  0  0  0  0  0  0
   -4.5800   22.8490  -31.3970 N   0  0  0  0  0  0  0  0  0  0  0  0
   -4.3570   22.0620  -32.5890 C   0  0  0  0  0  0  0  0  0  0  0  0
   -3.9600   22.6270  -33.6450 O   0  0  0  0  0  0  0  0  0  0  0  0
   -4.5840   20.6010  -32.6180 C   0  0  0  0  0  0  0  0  0  0  0  0
   -5.7420   20.0880  -32.0090 C   0  0  0  0  0  0  0  0  0  0  0  0
   -6.0040   18.7170  -32.0250 C   0  0  0  0  0  0  0  0  0  0  0  0
   -5.1030   17.8400  -32.6320 C   0  0  0  0  0  0  0  0  0  0  0  0
   -3.9350   18.3320  -33.2170 C   0  0  0  0  0  0  0  0  0  0  0  0
   -3.6630   19.7070  -33.2110 C   0  0  0  0  0  0  0  0  0  0  0  0
   -2.1020   20.2650  -33.9010 S   0  0  0  0  0  0  0  0  0  0  0  0
   -3.5630   22.8740  -30.3820 C   0  0  0  0  0  0  0  0  0  0  0  0
   -3.0850   21.6700  -29.8390 C   0  0  0  0  0  0  0  0  0  0  0  0
   -2.0940   21.6860  -28.8530 C   0  0  0  0  0  0  0  0  0  0  0  0
   -1.5710   22.9010  -28.4050 C   0  0  0  0  0  0  0  0  0  0  0  0
   -2.0380   24.1040  -28.9430 C   0  0  0  0  0  0  0  0  0  0  0  0
   -3.0290   24.0950  -29.9310 C   0  0  0  0  0  0  0  0  0  0  0  0
   -3.4760   25.2990  -30.4620 O   0  0  0  0  0  0  0  0  0  0  0  0
   -9.1504   19.2379  -30.8664 H   0  0  0  0  0  0  0  0  0  0  0  0
  -10.1139   18.6363  -32.2580 H   0  0  0  0  0  0  0  0  0  0  0  0
   -8.3267   18.4558  -32.2580 H   0  0  0  0  0  0  0  0  0  0  0  0
   -8.1164   20.4633  -33.2561 H   0  0  0  0  0  0  0  0  0  0  0  0
   -9.9132   20.6315  -33.2674 H   0  0  0  0  0  0  0  0  0  0  0  0
   -7.4929   23.5732  -29.8637 H   0  0  0  0  0  0  0  0  0  0  0  0
   -6.7364   21.9569  -30.1680 H   0  0  0  0  0  0  0  0  0  0  0  0
   -6.4477   20.7725  -31.5156 H   0  0  0  0  0  0  0  0  0  0  0  0
   -6.9210   18.3273  -31.5590 H   0  0  0  0  0  0  0  0  0  0  0  0
   -5.3137   16.7605  -32.6492 H   0  0  0  0  0  0  0  0  0  0  0  0
   -3.2235   17.6362  -33.6857 H   0  0  0  0  0  0  0  0  0  0  0  0
   -2.7200   21.3100  -34.6100 H   0  0  0  0  0  0  0  0  0  0  0  0
   -3.4920   20.7106  -30.1910 H   0  0  0  0  0  0  0  0  0  0  0  0
   -1.7256   20.7401  -28.4294 H   0  0  0  0  0  0  0  0  0  0  0  0
   -0.7916   22.9115  -27.6288 H   0  0  0  0  0  0  0  0  0  0  0  0
   -1.6253   25.0601  -28.5887 H   0  0  0  0  0  0  0  0  0  0  0  0
  1  2  1  0
  2  3  1  0
  3  4  1  0
  4  5  2  0
  4  6  1  0
  6  7  1  0
  7  8  2  0
  7  9  1  0
  9 10  1  0
 10 11  2  0
 10 12  1  0
 12 13  2  0
 13 14  1  0
 14 15  2  0
 15 16  1  0
 16 17  2  0
 17 18  1  0
  9 19  1  0
 19 20  2  0
 20 21  1  0
 21 22  2  0
 22 23  1  0
 23 24  2  0
 24 25  1  0
 17 12  1  0
 24 19  1  0
  1 26  1  0
  1 27  1  0
  1 28  1  0
  2 29  1  0
  2 30  1  0
  6 31  1  0
  6 32  1  0
 13 33  1  0
 14 34  1  0
 15 35  1  0
 16 36  1  0
 18 37  1  0
 20 38  1  0
 21 39  1  0
 22 40  1  0
 23 41  1  0
M  CHG  2   3  -1  25  -1
M  END
>  <UniqueID>  (8) 
7

>  <SMILES>  (8) 
CC[N-]C(=O)CC(=O)N(C(=O)c1ccccc1S)c1ccccc1[O-]

>  <Energy>  (8) 
51.76865307187794

>  <Genealogy>  (8) 
CC[N-]C(=O)CC(=O)N(C(=O)c1ccccc1S)c1ccccc1[O-] (protonated)
CC[N-]C(=O)CC(=O)N(C(=O)c1ccccc1S)c1ccccc1[O-] (3D coordinates assigned)
CC[N-]C(=O)CC(=O)N(C(=O)c1ccccc1S)c1ccccc1[O-] (optimized conformer: 51.76865307187794 kcal/mol)

>  <smiles>  (8) 
CCNC(=O)CC(=O)N(C(=O)c1ccccc1S)c1ccccc1O

>  <score_type>  (8) 
oracle

>  <origin>  (8) 
adgpu

>  <m_score__min__energy>  (8) 
-11.890000000000001

>  <m_primary>  (8) 
energy

$$$$
8:0
     RDKit          3D

 37 39  0  0  0  0  0  0  0  0999 V2000
   -4.8390   21.6140  -31.2630 C   0  0  0  0  0  0  0  0  0  0  0  0
   -4.8150   23.0660  -31.1010 N   0  0  0  0  0  0  0  0  0  0  0  0
   -5.7110   23.9590  -31.5640 C   0  0  0  0  0  0  0  0  0  0  0  0
   -7.1660   23.5500  -32.5290 S   0  0  0  0  0  0  0  0  0  0  0  0
   -7.8660   22.4820  -31.2290 C   0  0  0  0  0  0  0  0  0  0  0  0
   -8.5640   21.3120  -31.8580 C   0  0  0  0  0  0  0  0  0  0  0  0
   -9.8130   21.3860  -32.0230 O   0  0  0  0  0  0  0  0  0  0  0  0
   -7.8360   20.0930  -32.3110 C   0  0  0  0  0  0  0  0  0  0  0  0
   -7.9990   18.8500  -31.6650 C   0  0  0  0  0  0  0  0  0  0  0  0
   -7.3030   17.7220  -32.1080 C   0  0  0  0  0  0  0  0  0  0  0  0
   -6.4340   17.8160  -33.1960 C   0  0  0  0  0  0  0  0  0  0  0  0
   -6.2590   19.0400  -33.8440 C   0  0  0  0  0  0  0  0  0  0  0  0
   -6.9520   20.1720  -33.4070 C   0  0  0  0  0  0  0  0  0  0  0  0
   -5.3830   25.2170  -31.2160 N   0  0  0  0  0  0  0  0  0  0  0  0
   -4.2540   25.1430  -30.5270 N   0  0  0  0  0  0  0  0  0  0  0  0
   -3.9060   23.8420  -30.4690 C   0  0  0  0  0  0  0  0  0  0  0  0
   -2.6760   23.3630  -29.8000 C   0  0  0  0  0  0  0  0  0  0  0  0
   -2.3980   21.9880  -29.7230 C   0  0  0  0  0  0  0  0  0  0  0  0
   -1.2250   21.5360  -29.1120 C   0  0  0  0  0  0  0  0  0  0  0  0
   -0.3140   22.4510  -28.5810 C   0  0  0  0  0  0  0  0  0  0  0  0
   -0.5710   23.8210  -28.6660 C   0  0  0  0  0  0  0  0  0  0  0  0
   -1.7440   24.2820  -29.2750 C   0  0  0  0  0  0  0  0  0  0  0  0
   -1.9820   25.6510  -29.3400 O   0  0  0  0  0  0  0  0  0  0  0  0
   -4.8469   21.1347  -30.2730 H   0  0  0  0  0  0  0  0  0  0  0  0
   -5.7421   21.3220  -31.8190 H   0  0  0  0  0  0  0  0  0  0  0  0
   -3.9461   21.2923  -31.8190 H   0  0  0  0  0  0  0  0  0  0  0  0
   -7.0565   22.1187  -30.5789 H   0  0  0  0  0  0  0  0  0  0  0  0
   -8.5876   23.0593  -30.6323 H   0  0  0  0  0  0  0  0  0  0  0  0
   -8.6799   18.7676  -30.8050 H   0  0  0  0  0  0  0  0  0  0  0  0
   -7.4405   16.7573  -31.5977 H   0  0  0  0  0  0  0  0  0  0  0  0
   -5.8875   16.9265  -33.5426 H   0  0  0  0  0  0  0  0  0  0  0  0
   -5.5735   19.1136  -34.7012 H   0  0  0  0  0  0  0  0  0  0  0  0
   -6.8068   21.1329  -33.9223 H   0  0  0  0  0  0  0  0  0  0  0  0
   -3.1081   21.2624  -30.1463 H   0  0  0  0  0  0  0  0  0  0  0  0
   -1.0192   20.4572  -29.0494 H   0  0  0  0  0  0  0  0  0  0  0  0
    0.6060   22.0929  -28.0958 H   0  0  0  0  0  0  0  0  0  0  0  0
    0.1511   24.5406  -28.2528 H   0  0  0  0  0  0  0  0  0  0  0  0
  1  2  1  0
  2  3  1  0
  3  4  1  0
  4  5  1  0
  5  6  1  0
  6  7  2  0
  6  8  1  0
  8  9  2  0
  9 10  1  0
 10 11  2  0
 11 12  1  0
 12 13  2  0
  3 14  2  0
 14 15  1  0
 15 16  2  0
 16 17  1  0
 17 18  2  0
 18 19  1  0
 19 20  2  0
 20 21  1  0
 21 22  2  0
 22 23  1  0
 16  2  1  0
 22 17  1  0
 13  8  1  0
  1 24  1  0
  1 25  1  0
  1 26  1  0
  5 27  1  0
  5 28  1  0
  9 29  1  0
 10 30  1  0
 11 31  1  0
 12 32  1  0
 13 33  1  0
 18 34  1  0
 19 35  1  0
 20 36  1  0
 21 37  1  0
M  CHG  1  23  -1
M  END
>  <UniqueID>  (9) 
8

>  <SMILES>  (9) 
Cn1c(SCC(=O)c2ccccc2)nnc1-c1ccccc1[O-]

>  <Energy>  (9) 
76.74460937226634

>  <Genealogy>  (9) 
Cn1c(SCC(=O)c2ccccc2)nnc1-c1ccccc1[O-] (protonated)
Cn1c(SCC(=O)c2ccccc2)nnc1-c1ccccc1[O-] (3D coordinates assigned)
Cn1c(SCC(=O)c2ccccc2)nnc1-c1ccccc1[O-] (optimized conformer: 76.74460937226634 kcal/mol)

>  <smiles>  (9) 
Cn1c(SCC(=O)c2ccccc2)nnc1-c1ccccc1O

>  <score_type>  (9) 
oracle

>  <origin>  (9) 
adgpu

>  <m_score__min__energy>  (9) 
-12.6

>  <m_primary>  (9) 
energy

$$$$
9:0
     RDKit          3D

 55 58  0  0  0  0  0  0  0  0999 V2000
    1.4000   17.1670  -32.1080 C   0  0  0  0  0  0  0  0  0  0  0  0
    1.0100   16.7750  -33.4190 O   0  0  0  0  0  0  0  0  0  0  0  0
   -0.3110   16.5120  -33.8120 C   0  0  0  0  0  0  0  0  0  0  0  0
   -0.8030   15.2010  -33.9480 C   0  0  0  0  0  0  0  0  0  0  0  0
   -2.1250   14.9810  -34.3370 C   0  0  0  0  0  0  0  0  0  0  0  0
   -2.9810   16.0580  -34.6010 C   0  0  0  0  0  0  0  0  0  0  0  0
   -4.3570   15.8060  -34.9290 N   0  0  0  0  0  0  0  0  0  0  0  0
   -5.6800   16.2090  -33.8770 S   0  0  0  0  0  0  0  0  0  0  0  0
   -6.9700   16.0450  -34.6340 O   0  0  0  0  0  0  0  0  0  0  0  0
   -5.6800   15.2810  -32.6960 O   0  0  0  0  0  0  0  0  0  0  0  0
   -5.5100   17.8650  -33.2970 C   0  0  0  0  0  0  0  0  0  0  0  0
   -5.1870   18.9010  -34.1810 C   0  0  0  0  0  0  0  0  0  0  0  0
   -4.9390   20.1890  -33.6970 C   0  0  0  0  0  0  0  0  0  0  0  0
   -5.0100   20.4580  -32.3180 C   0  0  0  0  0  0  0  0  0  0  0  0
   -4.7130   21.8160  -31.7990 C   0  0  0  0  0  0  0  0  0  0  0  0
   -3.4640   22.1000  -31.2140 C   0  0  0  0  0  0  0  0  0  0  0  0
   -3.1840   23.3840  -30.7370 C   0  0  0  0  0  0  0  0  0  0  0  0
   -4.1450   24.3950  -30.8350 C   0  0  0  0  0  0  0  0  0  0  0  0
   -3.8620   25.6710  -30.3620 O   0  0  0  0  0  0  0  0  0  0  0  0
   -5.3890   24.1210  -31.4080 C   0  0  0  0  0  0  0  0  0  0  0  0
   -5.6750   22.8390  -31.8870 C   0  0  0  0  0  0  0  0  0  0  0  0
   -5.3580   19.4180  -31.4390 C   0  0  0  0  0  0  0  0  0  0  0  0
   -5.6110   18.1330  -31.9260 C   0  0  0  0  0  0  0  0  0  0  0  0
   -2.4750   17.3650  -34.5120 C   0  0  0  0  0  0  0  0  0  0  0  0
   -1.1600   17.5970  -34.0900 C   0  0  0  0  0  0  0  0  0  0  0  0
   -0.6940   18.9440  -33.9130 N   0  0  0  0  0  0  0  0  0  0  0  0
    0.4120   19.4510  -34.7310 C   0  0  0  0  0  0  0  0  0  0  0  0
    0.1200   20.8890  -35.2090 C   0  0  0  0  0  0  0  0  0  0  0  0
   -0.7480   21.6640  -34.2990 N   0  0  0  0  0  0  0  0  0  0  0  0
   -0.6840   21.1960  -32.9080 C   0  0  0  0  0  0  0  0  0  0  0  0
   -1.2010   19.7540  -32.8020 C   0  0  0  0  0  0  0  0  0  0  0  0
    0.8265   16.5906  -31.3671 H   0  0  0  0  0  0  0  0  0  0  0  0
    2.4742   16.9733  -31.9717 H   0  0  0  0  0  0  0  0  0  0  0  0
    1.2008   18.2402  -31.9717 H   0  0  0  0  0  0  0  0  0  0  0  0
   -0.1422   14.3450  -33.7467 H   0  0  0  0  0  0  0  0  0  0  0  0
   -2.4987   13.9513  -34.4374 H   0  0  0  0  0  0  0  0  0  0  0  0
   -4.5780   15.2140  -35.7580 H   0  0  0  0  0  0  0  0  0  0  0  0
   -5.1280   18.7010  -35.2611 H   0  0  0  0  0  0  0  0  0  0  0  0
   -4.6867   20.9973  -34.3991 H   0  0  0  0  0  0  0  0  0  0  0  0
   -2.7051   21.3079  -31.1319 H   0  0  0  0  0  0  0  0  0  0  0  0
   -2.2053   23.5995  -30.2835 H   0  0  0  0  0  0  0  0  0  0  0  0
   -6.1457   24.9159  -31.4826 H   0  0  0  0  0  0  0  0  0  0  0  0
   -6.6574   22.6290  -32.3351 H   0  0  0  0  0  0  0  0  0  0  0  0
   -5.4317   19.6171  -30.3597 H   0  0  0  0  0  0  0  0  0  0  0  0
   -5.8906   17.3286  -31.2298 H   0  0  0  0  0  0  0  0  0  0  0  0
   -3.1191   18.2165  -34.7769 H   0  0  0  0  0  0  0  0  0  0  0  0
    1.3347   19.4496  -34.1321 H   0  0  0  0  0  0  0  0  0  0  0  0
    0.5284   18.8017  -35.6113 H   0  0  0  0  0  0  0  0  0  0  0  0
    1.0777   21.4208  -35.3087 H   0  0  0  0  0  0  0  0  0  0  0  0
   -0.4198   20.8018  -36.1635 H   0  0  0  0  0  0  0  0  0  0  0  0
   -1.7400   21.5820  -34.6270 H   0  0  0  0  0  0  0  0  0  0  0  0
    0.3592   21.2331  -32.5611 H   0  0  0  0  0  0  0  0  0  0  0  0
   -1.3141   21.8469  -32.2841 H   0  0  0  0  0  0  0  0  0  0  0  0
   -0.8620   19.3169  -31.8512 H   0  0  0  0  0  0  0  0  0  0  0  0
   -2.3002   19.7662  -32.8433 H   0  0  0  0  0  0  0  0  0  0  0  0
  1  2  1  0
  2  3  1  0
  3  4  2  0
  4  5  1  0
  5  6  2  0
  6  7  1  0
  7  8  1  0
  8  9  2  0
  8 10  2  0
  8 11  1  0
 11 12  2  0
 12 13  1  0
 13 14  2  0
 14 15  1  0
 15 16  2  0
 16 17  1  0
 17 18  2  0
 18 19  1  0
 18 20  1  0
 20 21  2  0
 14 22  1  0
 22 23  2  0
  6 24  1  0
 24 25  2  0
 25 26  1  0
 26 27  1  0
 27 28  1  0
 28 29  1  0
 29 30  1  0
 30 31  1  0
 25  3  1  0
 31 26  1  0
 23 11  1  0
 21 15  1  0
  1 32  1  0
  1 33  1  0
  1 34  1  0
  4 35  1  0
  5 36  1  0
  7 37  1  0
 12 38  1  0
 13 39  1  0
 16 40  1  0
 17 41  1  0
 20 42  1  0
 21 43  1  0
 22 44  1  0
 23 45  1  0
 24 46  1  0
 27 47  1  0
 27 48  1  0
 28 49  1  0
 28 50  1  0
 29 51  1  0
 30 52  1  0
 30 53  1  0
 31 54  1  0
 31 55  1  0
M  CHG  1  19  -1
M  END
>  <UniqueID>  (10) 
9

>  <SMILES>  (10) 
COc1ccc(NS(=O)(=O)c2ccc(-c3ccc([O-])cc3)cc2)cc1N1CCNCC1

>  <Energy>  (10) 
73.37976428332874

>  <Genealogy>  (10) 
COc1ccc(NS(=O)(=O)c2ccc(-c3ccc([O-])cc3)cc2)cc1N1CCNCC1 (protonated)
COc1ccc(NS(=O)(=O)c2ccc(-c3ccc([O-])cc3)cc2)cc1N1CCNCC1 (3D coordinates assigned)
COc1ccc(NS(=O)(=O)c2ccc(-c3ccc([O-])cc3)cc2)cc1N1CCNCC1 (nonaromatic ring conformer: 73.37976428332874 kcal/mol)

>  <smiles>  (10) 
COc1ccc(NS(=O)(=O)c2ccc(-c3ccc(O)cc3)cc2)cc1N1CCNCC1

>  <score_type>  (10) 
oracle

>  <origin>  (10) 
adgpu

>  <m_score__min__energy>  (10) 
-10.800000000000001

>  <m_primary>  (10) 
energy

$$$$
10:0
     RDKit          3D

 40 42  0  0  0  0  0  0  0  0999 V2000
   -1.5800   25.7130  -28.9690 N   0  0  0  0  0  0  0  0  0  0  0  0
   -2.8040   24.5190  -29.2170 S   0  0  0  0  0  0  0  0  0  0  0  0
   -3.5900   24.8710  -30.4490 O   0  0  0  0  0  0  0  0  0  0  0  0
   -3.7290   24.4870  -28.0320 O   0  0  0  0  0  0  0  0  0  0  0  0
   -2.0420   22.9440  -29.4050 C   0  0  0  0  0  0  0  0  0  0  0  0
   -2.1500   21.9670  -28.4070 C   0  0  0  0  0  0  0  0  0  0  0  0
   -1.5510   20.7160  -28.5840 C   0  0  0  0  0  0  0  0  0  0  0  0
   -0.8560   20.4310  -29.7620 C   0  0  0  0  0  0  0  0  0  0  0  0
   -0.7470   21.3950  -30.7720 C   0  0  0  0  0  0  0  0  0  0  0  0
   -0.0590   21.0500  -31.9820 N   0  0  0  0  0  0  0  0  0  0  0  0
   -0.8210   20.7480  -33.5100 S   0  0  0  0  0  0  0  0  0  0  0  0
   -0.3630   19.4180  -34.0380 O   0  0  0  0  0  0  0  0  0  0  0  0
   -0.4170   21.8260  -34.4780 O   0  0  0  0  0  0  0  0  0  0  0  0
   -2.5710   20.7110  -33.3130 C   0  0  0  0  0  0  0  0  0  0  0  0
   -3.2680   21.8650  -32.9330 C   0  0  0  0  0  0  0  0  0  0  0  0
   -4.6460   21.8130  -32.7120 C   0  0  0  0  0  0  0  0  0  0  0  0
   -5.3510   20.6060  -32.8700 C   0  0  0  0  0  0  0  0  0  0  0  0
   -6.8130   20.5480  -32.6190 C   0  0  0  0  0  0  0  0  0  0  0  0
   -7.5350   19.3620  -32.8530 C   0  0  0  0  0  0  0  0  0  0  0  0
   -8.9130   19.3140  -32.6240 C   0  0  0  0  0  0  0  0  0  0  0  0
   -9.5850   20.4450  -32.1550 C   0  0  0  0  0  0  0  0  0  0  0  0
   -8.8790   21.6260  -31.9130 C   0  0  0  0  0  0  0  0  0  0  0  0
   -7.5020   21.6810  -32.1430 C   0  0  0  0  0  0  0  0  0  0  0  0
   -4.6460   19.4550  -33.2680 C   0  0  0  0  0  0  0  0  0  0  0  0
   -3.2670   19.5090  -33.4860 C   0  0  0  0  0  0  0  0  0  0  0  0
   -1.3280   22.6620  -30.5770 C   0  0  0  0  0  0  0  0  0  0  0  0
   -1.2330   25.9970  -29.9130 H   0  0  0  0  0  0  0  0  0  0  0  0
   -2.7065   22.1841  -27.4833 H   0  0  0  0  0  0  0  0  0  0  0  0
   -1.6271   19.9545  -27.7939 H   0  0  0  0  0  0  0  0  0  0  0  0
   -0.3914   19.4431  -29.8970 H   0  0  0  0  0  0  0  0  0  0  0  0
   -2.7283   22.8153  -32.8082 H   0  0  0  0  0  0  0  0  0  0  0  0
   -5.1848   22.7238  -32.4118 H   0  0  0  0  0  0  0  0  0  0  0  0
   -7.0108   18.4668  -33.2187 H   0  0  0  0  0  0  0  0  0  0  0  0
   -9.4691   18.3840  -32.8135 H   0  0  0  0  0  0  0  0  0  0  0  0
  -10.6697   20.4059  -31.9762 H   0  0  0  0  0  0  0  0  0  0  0  0
   -9.4087   22.5151  -31.5403 H   0  0  0  0  0  0  0  0  0  0  0  0
   -6.9525   22.6145  -31.9513 H   0  0  0  0  0  0  0  0  0  0  0  0
   -5.1844   18.5061  -33.4085 H   0  0  0  0  0  0  0  0  0  0  0  0
   -2.7257   18.6026  -33.7950 H   0  0  0  0  0  0  0  0  0  0  0  0
   -1.2207   23.4366  -31.3506 H   0  0  0  0  0  0  0  0  0  0  0  0
  1  2  1  0
  2  3  2  0
  2  4  2  0
  2  5  1  0
  5  6  2  0
  6  7  1  0
  7  8  2  0
  8  9  1  0
  9 10  1  0
 10 11  1  0
 11 12  2  0
 11 13  2  0
 11 14  1  0
 14 15  2  0
 15 16  1  0
 16 17  2  0
 17 18  1  0
 18 19  2  0
 19 20  1  0
 20 21  2  0
 21 22  1  0
 22 23  2  0
 17 24  1  0
 24 25  2  0
  9 26  2  0
 26  5  1  0
 25 14  1  0
 23 18  1  0
  1 27  1  0
  6 28  1  0
  7 29  1  0
  8 30  1  0
 15 31  1  0
 16 32  1  0
 19 33  1  0
 20 34  1  0
 21 35  1  0
 22 36  1  0
 23 37  1  0
 24 38  1  0
 25 39  1  0
 26 40  1  0
M  CHG  2   1  -1  10  -1
M  END
>  <UniqueID>  (11) 
10

>  <SMILES>  (11) 
[NH-]S(=O)(=O)c1cccc([N-]S(=O)(=O)c2ccc(-c3ccccc3)cc2)c1

>  <Energy>  (11) 
50.03350291779029

>  <Genealogy>  (11) 
[NH-]S(=O)(=O)c1cccc([N-]S(=O)(=O)c2ccc(-c3ccccc3)cc2)c1 (protonated)
[NH-]S(=O)(=O)c1cccc([N-]S(=O)(=O)c2ccc(-c3ccccc3)cc2)c1 (3D coordinates assigned)
[NH-]S(=O)(=O)c1cccc([N-]S(=O)(=O)c2ccc(-c3ccccc3)cc2)c1 (optimized conformer: 50.03350291779029 kcal/mol)

>  <smiles>  (11) 
NS(=O)(=O)c1cccc(NS(=O)(=O)c2ccc(-c3ccccc3)cc2)c1

>  <score_type>  (11) 
oracle

>  <origin>  (11) 
adgpu

>  <m_score__min__energy>  (11) 
-12.27

>  <m_primary>  (11) 
energy

$$$$
11:0
     RDKit          3D

 39 40  0  0  0  0  0  0  0  0999 V2000
   -5.7520   16.1330  -33.3040 C   0  0  0  0  0  0  0  0  0  0  0  0
   -6.1330   17.2990  -34.0270 O   0  0  0  0  0  0  0  0  0  0  0  0
   -6.2030   18.5890  -33.4770 C   0  0  0  0  0  0  0  0  0  0  0  0
   -5.2420   19.5770  -33.7660 C   0  0  0  0  0  0  0  0  0  0  0  0
   -5.3470   20.8490  -33.2020 C   0  0  0  0  0  0  0  0  0  0  0  0
   -6.4090   21.1560  -32.3450 C   0  0  0  0  0  0  0  0  0  0  0  0
   -6.5380   22.7720  -31.6600 S   0  0  0  0  0  0  0  0  0  0  0  0
   -7.0960   22.6630  -30.2700 O   0  0  0  0  0  0  0  0  0  0  0  0
   -7.4510   23.6340  -32.4870 O   0  0  0  0  0  0  0  0  0  0  0  0
   -4.9690   23.5110  -31.5900 N   0  0  0  0  0  0  0  0  0  0  0  0
   -3.8910   23.0190  -30.7690 C   0  0  0  0  0  0  0  0  0  0  0  0
   -3.5870   21.6460  -30.7080 C   0  0  0  0  0  0  0  0  0  0  0  0
   -2.5440   21.1870  -29.9030 C   0  0  0  0  0  0  0  0  0  0  0  0
   -1.7850   22.0860  -29.1550 C   0  0  0  0  0  0  0  0  0  0  0  0
   -2.0630   23.4580  -29.2070 C   0  0  0  0  0  0  0  0  0  0  0  0
   -1.0990   24.5940  -28.2600 S   0  0  0  0  0  0  0  0  0  0  0  0
   -1.1870   26.1610  -28.9840 N   0  0  0  0  0  0  0  0  0  0  0  0
   -1.6330   24.6530  -26.8570 O   0  0  0  0  0  0  0  0  0  0  0  0
    0.3370   24.1540  -28.2190 O   0  0  0  0  0  0  0  0  0  0  0  0
   -3.1160   23.9240  -30.0160 C   0  0  0  0  0  0  0  0  0  0  0  0
   -3.3980   25.2870  -30.0650 O   0  0  0  0  0  0  0  0  0  0  0  0
   -7.3650   20.1760  -32.0490 C   0  0  0  0  0  0  0  0  0  0  0  0
   -7.2690   18.8900  -32.6140 C   0  0  0  0  0  0  0  0  0  0  0  0
   -8.2120   17.8850  -32.3440 O   0  0  0  0  0  0  0  0  0  0  0  0
   -9.4050   18.0800  -31.5930 C   0  0  0  0  0  0  0  0  0  0  0  0
   -5.8174   16.3333  -32.2244 H   0  0  0  0  0  0  0  0  0  0  0  0
   -6.4258   15.3035  -33.5645 H   0  0  0  0  0  0  0  0  0  0  0  0
   -4.7184   15.8614  -33.5645 H   0  0  0  0  0  0  0  0  0  0  0  0
   -4.4042   19.3448  -34.4399 H   0  0  0  0  0  0  0  0  0  0  0  0
   -4.5909   21.6140  -33.4325 H   0  0  0  0  0  0  0  0  0  0  0  0
   -4.8550   24.4130  -32.1030 H   0  0  0  0  0  0  0  0  0  0  0  0
   -4.1761   20.9296  -31.2994 H   0  0  0  0  0  0  0  0  0  0  0  0
   -2.3195   20.1111  -29.8583 H   0  0  0  0  0  0  0  0  0  0  0  0
   -0.9649   21.7166  -28.5217 H   0  0  0  0  0  0  0  0  0  0  0  0
   -1.2520   26.0180  -30.0170 H   0  0  0  0  0  0  0  0  0  0  0  0
   -8.1972   20.4130  -31.3698 H   0  0  0  0  0  0  0  0  0  0  0  0
   -9.1723   18.0420  -30.5186 H   0  0  0  0  0  0  0  0  0  0  0  0
   -9.8376   19.0608  -31.8400 H   0  0  0  0  0  0  0  0  0  0  0  0
  -10.1273   17.2880  -31.8400 H   0  0  0  0  0  0  0  0  0  0  0  0
  1  2  1  0
  2  3  1  0
  3  4  2  0
  4  5  1  0
  5  6  2  0
  6  7  1  0
  7  8  2  0
  7  9  2  0
  7 10  1  0
 10 11  1  0
 11 12  2  0
 12 13  1  0
 13 14  2  0
 14 15  1  0
 15 16  1  0
 16 17  1  0
 16 18  2  0
 16 19  2  0
 15 20  2  0
 20 21  1  0
  6 22  1  0
 22 23  2  0
 23 24  1  0
 24 25  1  0
 23  3  1  0
 20 11  1  0
  1 26  1  0
  1 27  1  0
  1 28  1  0
  4 29  1  0
  5 30  1  0
 10 31  1  0
 12 32  1  0
 13 33  1  0
 14 34  1  0
 17 35  1  0
 22 36  1  0
 25 37  1  0
 25 38  1  0
 25 39  1  0
M  CHG  2  17  -1  21  -1
M  END
>  <UniqueID>  (12) 
11

>  <SMILES>  (12) 
COc1ccc(S(=O)(=O)Nc2cccc(S([NH-])(=O)=O)c2[O-])cc1OC

>  <Energy>  (12) 
42.35895156046894

>  <Genealogy>  (12) 
COc1ccc(S(=O)(=O)Nc2cccc(S([NH-])(=O)=O)c2[O-])cc1OC (protonated)
COc1ccc(S(=O)(=O)Nc2cccc(S([NH-])(=O)=O)c2[O-])cc1OC (3D coordinates assigned)
COc1ccc(S(=O)(=O)Nc2cccc(S([NH-])(=O)=O)c2[O-])cc1OC (optimized conformer: 42.35895156046894 kcal/mol)

>  <smiles>  (12) 
COc1ccc(S(=O)(=O)Nc2cccc(S(N)(=O)=O)c2O)cc1OC

>  <score_type>  (12) 
oracle

>  <origin>  (12) 
adgpu

>  <m_score__min__energy>  (12) 
-13.25

>  <m_primary>  (12) 
energy

$$$$
12:0
     RDKit          3D

 38 40  0  0  0  0  0  0  0  0999 V2000
   -0.9150   24.9440  -28.9540 C   0  0  0  0  0  0  0  0  0  0  0  0
   -2.2250   24.2400  -28.8490 C   0  0  0  0  0  0  0  0  0  0  0  0
   -2.5140   23.2000  -27.9880 C   0  0  0  0  0  0  0  0  0  0  0  0
   -3.8150   22.8380  -28.2660 C   0  0  0  0  0  0  0  0  0  0  0  0
   -4.2270   23.6710  -29.2900 C   0  0  0  0  0  0  0  0  0  0  0  0
   -5.5690   23.6380  -29.9680 C   0  0  0  0  0  0  0  0  0  0  0  0
   -5.5090   23.2590  -31.3990 N   0  0  0  0  0  0  0  0  0  0  0  0
   -6.8150   23.1990  -32.0850 C   0  0  0  0  0  0  0  0  0  0  0  0
   -7.4640   21.8430  -31.9870 C   0  0  0  0  0  0  0  0  0  0  0  0
   -8.8470   21.7460  -32.1960 C   0  0  0  0  0  0  0  0  0  0  0  0
   -9.4900   20.5140  -32.1100 C   0  0  0  0  0  0  0  0  0  0  0  0
   -8.7680   19.3570  -31.8210 C   0  0  0  0  0  0  0  0  0  0  0  0
   -9.4620   18.1490  -31.7330 O   0  0  0  0  0  0  0  0  0  0  0  0
   -7.3730   19.4310  -31.6270 C   0  0  0  0  0  0  0  0  0  0  0  0
   -6.4640   17.9680  -31.2320 Cl  0  0  0  0  0  0  0  0  0  0  0  0
   -6.7100   20.6770  -31.7320 C   0  0  0  0  0  0  0  0  0  0  0  0
   -5.2200   20.7540  -31.4850 C   0  0  0  0  0  0  0  0  0  0  0  0
   -4.5920   22.1450  -31.7290 C   0  0  1  0  0  0  0  0  0  0  0  0
   -4.0950   22.2810  -33.1750 C   0  0  0  0  0  0  0  0  0  0  0  0
   -3.2630   24.5010  -29.6090 O   0  0  0  0  0  0  0  0  0  0  0  0
   -0.5285   25.1517  -27.9453 H   0  0  0  0  0  0  0  0  0  0  0  0
   -0.1998   24.3087  -29.4971 H   0  0  0  0  0  0  0  0  0  0  0  0
   -1.0501   25.8910  -29.4971 H   0  0  0  0  0  0  0  0  0  0  0  0
   -1.8457   22.7535  -27.2370 H   0  0  0  0  0  0  0  0  0  0  0  0
   -4.4037   22.0493  -27.7747 H   0  0  0  0  0  0  0  0  0  0  0  0
   -6.2045   22.9096  -29.4431 H   0  0  0  0  0  0  0  0  0  0  0  0
   -5.9740   24.6598  -29.9248 H   0  0  0  0  0  0  0  0  0  0  0  0
   -7.4854   23.9432  -31.6303 H   0  0  0  0  0  0  0  0  0  0  0  0
   -6.6390   23.4058  -33.1510 H   0  0  0  0  0  0  0  0  0  0  0  0
   -9.4285   22.6500  -32.4297 H   0  0  0  0  0  0  0  0  0  0  0  0
  -10.5764   20.4531  -32.2714 H   0  0  0  0  0  0  0  0  0  0  0  0
   -9.8260   17.7830  -30.8630 H   0  0  0  0  0  0  0  0  0  0  0  0
   -5.0320   20.4728  -30.4383 H   0  0  0  0  0  0  0  0  0  0  0  0
   -4.7511   20.0719  -32.2095 H   0  0  0  0  0  0  0  0  0  0  0  0
   -3.7346   22.2168  -31.0437 H   0  0  0  0  0  0  0  0  0  0  0  0
   -3.0340   22.5713  -33.1723 H   0  0  0  0  0  0  0  0  0  0  0  0
   -4.2104   21.3183  -33.6945 H   0  0  0  0  0  0  0  0  0  0  0  0
   -4.6845   23.0509  -33.6945 H   0  0  0  0  0  0  0  0  0  0  0  0
  1  2  1  0
  2  3  2  0
  3  4  1  0
  4  5  2  0
  5  6  1  0
  6  7  1  0
  7  8  1  0
  8  9  1  0
  9 10  2  0
 10 11  1  0
 11 12  2  0
 12 13  1  0
 12 14  1  0
 14 15  1  0
 14 16  2  0
 16 17  1  0
 17 18  1  0
 18 19  1  0
  5 20  1  0
 20  2  1  0
 18  7  1  0
 16  9  1  0
  1 21  1  0
  1 22  1  0
  1 23  1  0
  3 24  1  0
  4 25  1  0
  6 26  1  0
  6 27  1  0
  8 28  1  0
  8 29  1  0
 10 30  1  0
 11 31  1  0
 13 32  1  0
 17 33  1  0
 17 34  1  0
 18 35  1  1
 19 36  1  0
 19 37  1  0
 19 38  1  0
M  END
>  <UniqueID>  (13) 
12

>  <SMILES>  (13) 
Cc1ccc(CN2Cc3ccc(O)c(Cl)c3C[C@H]2C)o1

>  <Energy>  (13) 
73.65600997305185

>  <Genealogy>  (13) 
Cc1ccc(CN2Cc3ccc(O)c(Cl)c3C[C@H]2C)o1 (chirality)
Cc1ccc(CN2Cc3ccc(O)c(Cl)c3C[C@H]2C)o1 (3D coordinates assigned)
Cc1ccc(CN2Cc3ccc(O)c(Cl)c3C[C@H]2C)o1 (nonaromatic ring conformer: 73.65600997305185 kcal/mol)

>  <smiles>  (13) 
Cc1ccc(CN2Cc3ccc(O)c(Cl)c3CC2C)o1

>  <score_type>  (13) 
oracle

>  <origin>  (13) 
adgpu

>  <m_score__min__energy>  (13) 
-7.4699999999999998

>  <m_primary>  (13) 
energy

$$$$
13:0
     RDKit          3D

 52 55  0  0  0  0  0  0  0  0999 V2000
   -2.7570   22.3250  -30.5930 C   0  0  0  0  0  0  0  0  0  0  0  0
   -3.7820   23.1700  -29.9770 N   0  0  0  0  0  0  0  0  0  0  0  0
   -3.7330   23.4330  -28.5370 C   0  0  0  0  0  0  0  0  0  0  0  0
   -2.6590   24.4330  -28.2430 C   0  0  0  0  0  0  0  0  0  0  0  0
   -2.0050   24.5800  -27.0370 C   0  0  0  0  0  0  0  0  0  0  0  0
   -1.0720   25.5740  -27.2440 C   0  0  0  0  0  0  0  0  0  0  0  0
   -1.2150   25.9660  -28.5600 C   0  0  0  0  0  0  0  0  0  0  0  0
   -2.1670   25.2650  -29.1300 O   0  0  0  0  0  0  0  0  0  0  0  0
   -4.8040   23.7880  -30.7780 C   0  0  0  0  0  0  0  0  0  0  0  0
   -4.6280   24.9620  -31.2030 O   0  0  0  0  0  0  0  0  0  0  0  0
   -6.0410   23.0580  -31.1370 C   0  0  0  0  0  0  0  0  0  0  0  0
   -7.2400   23.7550  -31.3620 C   0  0  0  0  0  0  0  0  0  0  0  0
   -8.4060   23.0610  -31.6980 C   0  0  0  0  0  0  0  0  0  0  0  0
   -8.3860   21.6700  -31.8230 C   0  0  0  0  0  0  0  0  0  0  0  0
   -7.1910   20.9650  -31.6200 C   0  0  0  0  0  0  0  0  0  0  0  0
   -7.1400   19.2100  -31.7610 S   0  0  0  0  0  0  0  0  0  0  0  0
   -5.9460   18.6700  -31.0210 O   0  0  0  0  0  0  0  0  0  0  0  0
   -8.3820   18.6500  -31.1270 O   0  0  0  0  0  0  0  0  0  0  0  0
   -7.0860   18.7320  -33.4480 N   0  0  1  0  0  0  0  0  0  0  0  0
   -6.1080   19.5100  -34.2380 C   0  0  0  0  0  0  0  0  0  0  0  0
   -4.6600   19.2640  -33.7950 C   0  0  0  0  0  0  0  0  0  0  0  0
   -4.3760   17.8050  -33.5560 C   0  0  0  0  0  0  0  0  0  0  0  0
   -3.0450   17.3850  -33.4010 C   0  0  0  0  0  0  0  0  0  0  0  0
   -2.7540   16.0480  -33.1190 C   0  0  0  0  0  0  0  0  0  0  0  0
   -3.7900   15.1210  -32.9810 C   0  0  0  0  0  0  0  0  0  0  0  0
   -5.1190   15.5300  -33.1210 C   0  0  0  0  0  0  0  0  0  0  0  0
   -5.4230   16.8740  -33.3900 C   0  0  0  0  0  0  0  0  0  0  0  0
   -6.8660   17.2790  -33.5930 C   0  0  0  0  0  0  0  0  0  0  0  0
   -6.0240   21.6600  -31.2840 C   0  0  0  0  0  0  0  0  0  0  0  0
   -2.1637   21.8359  -29.8064 H   0  0  0  0  0  0  0  0  0  0  0  0
   -3.2400   21.5592  -31.2177 H   0  0  0  0  0  0  0  0  0  0  0  0
   -2.0973   22.9452  -31.2177 H   0  0  0  0  0  0  0  0  0  0  0  0
   -4.7034   23.8303  -28.2047 H   0  0  0  0  0  0  0  0  0  0  0  0
   -3.5147   22.4965  -28.0029 H   0  0  0  0  0  0  0  0  0  0  0  0
   -2.1890   24.0222  -26.1070 H   0  0  0  0  0  0  0  0  0  0  0  0
   -0.3580   25.9739  -26.5090 H   0  0  0  0  0  0  0  0  0  0  0  0
   -0.6208   26.7477  -29.0559 H   0  0  0  0  0  0  0  0  0  0  0  0
   -7.2613   24.8512  -31.2734 H   0  0  0  0  0  0  0  0  0  0  0  0
   -9.3430   23.6126  -31.8646 H   0  0  0  0  0  0  0  0  0  0  0  0
   -9.3076   21.1276  -32.0807 H   0  0  0  0  0  0  0  0  0  0  0  0
   -8.0340   18.9430  -33.8390 H   0  0  0  0  0  0  0  0  0  0  0  0
   -6.2053   19.2265  -35.2964 H   0  0  0  0  0  0  0  0  0  0  0  0
   -6.3270   20.5765  -34.0810 H   0  0  0  0  0  0  0  0  0  0  0  0
   -3.9826   19.6324  -34.5794 H   0  0  0  0  0  0  0  0  0  0  0  0
   -4.5031   19.7974  -32.8459 H   0  0  0  0  0  0  0  0  0  0  0  0
   -2.2266   18.1130  -33.5022 H   0  0  0  0  0  0  0  0  0  0  0  0
   -1.7086   15.7250  -33.0056 H   0  0  0  0  0  0  0  0  0  0  0  0
   -3.5594   14.0680  -32.7619 H   0  0  0  0  0  0  0  0  0  0  0  0
   -5.9312   14.7950  -33.0199 H   0  0  0  0  0  0  0  0  0  0  0  0
   -7.1752   16.9774  -34.6046 H   0  0  0  0  0  0  0  0  0  0  0  0
   -7.4598   16.7781  -32.8142 H   0  0  0  0  0  0  0  0  0  0  0  0
   -5.0848   21.1075  -31.1335 H   0  0  0  0  0  0  0  0  0  0  0  0
  1  2  1  0
  2  3  1  0
  3  4  1  0
  4  5  2  0
  5  6  1  0
  6  7  2  0
  7  8  1  0
  2  9  1  0
  9 10  2  0
  9 11  1  0
 11 12  2  0
 12 13  1  0
 13 14  2  0
 14 15  1  0
 15 16  1  0
 16 17  2  0
 16 18  2  0
 16 19  1  0
 19 20  1  0
 20 21  1  0
 21 22  1  0
 22 23  2  0
 23 24  1  0
 24 25  2  0
 25 26  1  0
 26 27  2  0
 27 28  1  0
 15 29  2  0
  8  4  1  0
 29 11  1  0
 28 19  1  0
 27 22  1  0
  1 30  1  0
  1 31  1  0
  1 32  1  0
  3 33  1  0
  3 34  1  0
  5 35  1  0
  6 36  1  0
  7 37  1  0
 12 38  1  0
 13 39  1  0
 14 40  1  0
 19 41  1  6
 20 42  1  0
 20 43  1  0
 21 44  1  0
 21 45  1  0
 23 46  1  0
 24 47  1  0
 25 48  1  0
 26 49  1  0
 28 50  1  0
 28 51  1  0
 29 52  1  0
M  CHG  1  19   1
M  END
>  <UniqueID>  (14) 
13

>  <SMILES>  (14) 
CN(Cc1ccco1)C(=O)c1cccc(S(=O)(=O)[N@H+]2CCc3ccccc3C2)c1

>  <Energy>  (14) 
85.83544215531873

>  <Genealogy>  (14) 
CN(Cc1ccco1)C(=O)c1cccc(S(=O)(=O)[NH+]2CCc3ccccc3C2)c1 (protonated)
CN(Cc1ccco1)C(=O)c1cccc(S(=O)(=O)[N@H+]2CCc3ccccc3C2)c1 (chirality)
CN(Cc1ccco1)C(=O)c1cccc(S(=O)(=O)[N@H+]2CCc3ccccc3C2)c1 (3D coordinates assigned)
CN(Cc1ccco1)C(=O)c1cccc(S(=O)(=O)[N@H+]2CCc3ccccc3C2)c1 (nonaromatic ring conformer: 85.83544215531873 kcal/mol)

>  <smiles>  (14) 
CN(Cc1ccco1)C(=O)c1cccc(S(=O)(=O)N2CCc3ccccc3C2)c1

>  <score_type>  (14) 
oracle

>  <origin>  (14) 
adgpu

>  <m_score__min__energy>  (14) 
-9.9600000000000009

>  <m_primary>  (14) 
energy

$$$$
14:0
     RDKit          3D

 45 47  0  0  0  0  0  0  0  0999 V2000
   -0.8500   25.7800  -23.6820 C   0  0  0  0  0  0  0  0  0  0  0  0
   -0.9250   25.8990  -25.1750 C   0  0  0  0  0  0  0  0  0  0  0  0
   -0.0970   26.8040  -25.8530 C   0  0  0  0  0  0  0  0  0  0  0  0
   -0.1960   26.9450  -27.2370 C   0  0  0  0  0  0  0  0  0  0  0  0
   -1.1290   26.1960  -27.9610 C   0  0  0  0  0  0  0  0  0  0  0  0
   -1.2300   26.3960  -29.3340 O   0  0  0  0  0  0  0  0  0  0  0  0
   -1.9680   25.2780  -27.2950 C   0  0  0  0  0  0  0  0  0  0  0  0
   -2.9650   24.4630  -28.0310 C   0  0  0  0  0  0  0  0  0  0  0  0
   -3.7370   23.7000  -27.3870 O   0  0  0  0  0  0  0  0  0  0  0  0
   -3.0110   24.4780  -29.4670 N   0  0  0  0  0  0  0  0  0  0  0  0
   -4.1450   24.0450  -30.2360 C   0  0  0  0  0  0  0  0  0  0  0  0
   -5.2300   24.9040  -30.4910 C   0  0  0  0  0  0  0  0  0  0  0  0
   -6.3080   24.4680  -31.2660 C   0  0  0  0  0  0  0  0  0  0  0  0
   -6.3100   23.1790  -31.8030 C   0  0  0  0  0  0  0  0  0  0  0  0
   -5.2300   22.3200  -31.5720 C   0  0  0  0  0  0  0  0  0  0  0  0
   -5.2380   20.7080  -32.2820 S   0  0  0  0  0  0  0  0  0  0  0  0
   -4.7600   19.7240  -31.2500 O   0  0  0  0  0  0  0  0  0  0  0  0
   -4.3140   20.6550  -33.4680 O   0  0  0  0  0  0  0  0  0  0  0  0
   -6.8630   20.3030  -32.7830 N   0  0  0  0  0  0  0  0  0  0  0  0
   -6.9060   18.9760  -33.4390 C   0  0  0  0  0  0  0  0  0  0  0  0
   -7.5400   17.9020  -32.5360 C   0  0  0  0  0  0  0  0  0  0  0  0
   -8.8620   18.2230  -32.1310 O   0  0  0  0  0  0  0  0  0  0  0  0
   -9.0700   19.6130  -31.8980 C   0  0  0  0  0  0  0  0  0  0  0  0
   -7.7820   20.4100  -31.6350 C   0  0  0  0  0  0  0  0  0  0  0  0
   -4.1460   22.7580  -30.7970 C   0  0  0  0  0  0  0  0  0  0  0  0
   -1.8700   25.1540  -25.8970 C   0  0  0  0  0  0  0  0  0  0  0  0
   -1.3822   26.6244  -23.2197 H   0  0  0  0  0  0  0  0  0  0  0  0
   -1.3162   24.8353  -23.3656 H   0  0  0  0  0  0  0  0  0  0  0  0
    0.2034   25.7930  -23.3656 H   0  0  0  0  0  0  0  0  0  0  0  0
    0.6334   27.4051  -25.2916 H   0  0  0  0  0  0  0  0  0  0  0  0
    0.4644   27.6503  -27.7628 H   0  0  0  0  0  0  0  0  0  0  0  0
   -2.1310   24.7170  -29.9780 H   0  0  0  0  0  0  0  0  0  0  0  0
   -5.2296   25.9236  -30.0783 H   0  0  0  0  0  0  0  0  0  0  0  0
   -7.1570   25.1418  -31.4535 H   0  0  0  0  0  0  0  0  0  0  0  0
   -7.1625   22.8382  -32.4089 H   0  0  0  0  0  0  0  0  0  0  0  0
   -7.4975   19.0564  -34.3629 H   0  0  0  0  0  0  0  0  0  0  0  0
   -5.8710   18.6705  -33.6521 H   0  0  0  0  0  0  0  0  0  0  0  0
   -7.5644   16.9508  -33.0879 H   0  0  0  0  0  0  0  0  0  0  0  0
   -6.9258   17.8352  -31.6259 H   0  0  0  0  0  0  0  0  0  0  0  0
   -9.5650   20.0403  -32.7825 H   0  0  0  0  0  0  0  0  0  0  0  0
   -9.6808   19.6917  -30.9866 H   0  0  0  0  0  0  0  0  0  0  0  0
   -8.0377   21.4676  -31.4738 H   0  0  0  0  0  0  0  0  0  0  0  0
   -7.2858   19.9988  -30.7435 H   0  0  0  0  0  0  0  0  0  0  0  0
   -3.2902   22.0880  -30.6275 H   0  0  0  0  0  0  0  0  0  0  0  0
   -2.5418   24.4652  -25.3638 H   0  0  0  0  0  0  0  0  0  0  0  0
  1  2  1  0
  2  3  2  0
  3  4  1  0
  4  5  2  0
  5  6  1  0
  5  7  1  0
  7  8  1  0
  8  9  2  0
  8 10  1  0
 10 11  1  0
 11 12  2  0
 12 13  1  0
 13 14  2  0
 14 15  1  0
 15 16  1  0
 16 17  2  0
 16 18  2  0
 16 19  1  0
 19 20  1  0
 20 21  1  0
 21 22  1  0
 22 23  1  0
 23 24  1  0
 15 25  2  0
  7 26  2  0
 26  2  1  0
 25 11  1  0
 24 19  1  0
  1 27  1  0
  1 28  1  0
  1 29  1  0
  3 30  1  0
  4 31  1  0
 10 32  1  0
 12 33  1  0
 13 34  1  0
 14 35  1  0
 20 36  1  0
 20 37  1  0
 21 38  1  0
 21 39  1  0
 23 40  1  0
 23 41  1  0
 24 42  1  0
 24 43  1  0
 25 44  1  0
 26 45  1  0
M  CHG  1   6  -1
M  END
>  <UniqueID>  (15) 
14

>  <SMILES>  (15) 
Cc1ccc([O-])c(C(=O)Nc2cccc(S(=O)(=O)N3CCOCC3)c2)c1

>  <Energy>  (15) 
65.37894988880743

>  <Genealogy>  (15) 
Cc1ccc([O-])c(C(=O)Nc2cccc(S(=O)(=O)N3CCOCC3)c2)c1 (protonated)
Cc1ccc([O-])c(C(=O)Nc2cccc(S(=O)(=O)N3CCOCC3)c2)c1 (3D coordinates assigned)
Cc1ccc([O-])c(C(=O)Nc2cccc(S(=O)(=O)N3CCOCC3)c2)c1 (nonaromatic ring conformer: 65.37894988880743 kcal/mol)

>  <smiles>  (15) 
Cc1ccc(O)c(C(=O)Nc2cccc(S(=O)(=O)N3CCOCC3)c2)c1

>  <score_type>  (15) 
oracle

>  <origin>  (15) 
adgpu

>  <m_score__min__energy>  (15) 
-12.17

>  <m_primary>  (15) 
energy

$$$$
15:0
     RDKit          3D

 41 43  0  0  0  0  0  0  0  0999 V2000
   -4.0959   17.4533  -32.7803 H   0  0  0  0  0  0  0  0  0  0  0  0
   -5.0980   17.9070  -32.7790 C   0  0  0  0  0  0  0  0  0  0  0  0
   -6.1130   17.3570  -31.9910 C   0  0  0  0  0  0  0  0  0  0  0  0
   -5.9100   16.4677  -31.3762 H   0  0  0  0  0  0  0  0  0  0  0  0
   -7.3850   17.9350  -31.9830 C   0  0  0  0  0  0  0  0  0  0  0  0
   -8.1818   17.4943  -31.3659 H   0  0  0  0  0  0  0  0  0  0  0  0
   -7.6530   19.0780  -32.7600 C   0  0  0  0  0  0  0  0  0  0  0  0
   -8.9990   19.6980  -32.7620 C   0  0  0  0  0  0  0  0  0  0  0  0
   -9.9980   19.0020  -33.0850 O   0  0  0  0  0  0  0  0  0  0  0  0
   -9.2130   21.0570  -32.3580 N   0  0  0  0  0  0  0  0  0  0  0  0
   -8.2400   21.9350  -31.7740 C   0  0  0  0  0  0  0  0  0  0  0  0
   -8.0320   21.8900  -30.3910 C   0  0  0  0  0  0  0  0  0  0  0  0
   -8.5934   21.1705  -29.7769 H   0  0  0  0  0  0  0  0  0  0  0  0
   -7.1150   22.7540  -29.7850 C   0  0  0  0  0  0  0  0  0  0  0  0
   -6.9556   22.7083  -28.6976 H   0  0  0  0  0  0  0  0  0  0  0  0
   -6.3980   23.6780  -30.5570 C   0  0  0  0  0  0  0  0  0  0  0  0
   -5.2700   24.7850  -29.7830 S   0  0  0  0  0  0  0  0  0  0  0  0
   -6.0040   25.7420  -28.8840 O   0  0  0  0  0  0  0  0  0  0  0  0
   -4.5510   25.5800  -30.8380 O   0  0  0  0  0  0  0  0  0  0  0  0
   -4.1110   23.8870  -28.8590 N   0  0  0  0  0  0  0  0  0  0  0  0
   -2.8680   24.2420  -28.7680 C   0  0  0  0  0  0  0  0  0  0  0  0
   -2.3450   25.2960  -29.3490 O   0  0  0  0  0  0  0  0  0  0  0  0
   -1.0800   25.4030  -29.0540 N   0  0  0  0  0  0  0  0  0  0  0  0
   -0.7710   24.3620  -28.2510 C   0  0  0  0  0  0  0  0  0  0  0  0
    0.5740   24.1590  -27.6310 C   0  0  0  0  0  0  0  0  0  0  0  0
    0.4786   24.1734  -26.5352 H   0  0  0  0  0  0  0  0  0  0  0  0
    0.9825   23.1890  -27.9508 H   0  0  0  0  0  0  0  0  0  0  0  0
    1.2506   24.9652  -27.9508 H   0  0  0  0  0  0  0  0  0  0  0  0
   -1.8970   23.5840  -28.0470 C   0  0  0  0  0  0  0  0  0  0  0  0
   -2.0520   22.3940  -27.1530 C   0  0  0  0  0  0  0  0  0  0  0  0
   -2.0100   22.7168  -26.1023 H   0  0  0  0  0  0  0  0  0  0  0  0
   -3.0206   21.9112  -27.3498 H   0  0  0  0  0  0  0  0  0  0  0  0
   -1.2394   21.6792  -27.3498 H   0  0  0  0  0  0  0  0  0  0  0  0
   -6.6180   23.7390  -31.9400 C   0  0  0  0  0  0  0  0  0  0  0  0
   -6.0621   24.4651  -32.5513 H   0  0  0  0  0  0  0  0  0  0  0  0
   -7.5410   22.8810  -32.5460 C   0  0  0  0  0  0  0  0  0  0  0  0
   -7.7211   22.9458  -33.6292 H   0  0  0  0  0  0  0  0  0  0  0  0
   -6.6290   19.6120  -33.5620 C   0  0  0  0  0  0  0  0  0  0  0  0
   -6.8306   20.4913  -34.1915 H   0  0  0  0  0  0  0  0  0  0  0  0
   -5.3560   19.0330  -33.5650 C   0  0  0  0  0  0  0  0  0  0  0  0
   -4.5574   19.4643  -34.1865 H   0  0  0  0  0  0  0  0  0  0  0  0
  1  2  1  0
  2  3  2  0
  3  4  1  0
  3  5  1  0
  5  6  1  0
  5  7  2  0
  7  8  1  0
  8  9  2  0
  8 10  1  0
 10 11  1  0
 11 12  2  0
 12 13  1  0
 12 14  1  0
 14 15  1  0
 14 16  2  0
 16 17  1  0
 17 18  2  0
 17 19  2  0
 17 20  1  0
 20 21  2  0
 21 22  1  0
 22 23  1  0
 23 24  1  0
 24 25  1  0
 25 26  1  0
 25 27  1  0
 25 28  1  0
 24 29  2  0
 29 30  1  0
 30 31  1  0
 30 32  1  0
 30 33  1  0
 16 34  1  0
 34 35  1  0
 34 36  2  0
 36 37  1  0
  7 38  1  0
 38 39  1  0
 38 40  2  0
 40 41  1  0
 40  2  1  0
 36 11  1  0
 29 21  1  0
M  CHG  2  10  -1  23  -1
M  END
>  <UniqueID>  (16) 
15

>  <SMILES>  (16) 
Cc1[n-]o/c(=N\S(=O)(=O)c2ccc([N-]C(=O)c3ccccc3)cc2)c1C

>  <Energy>  (16) 
82.6435629043521

>  <Genealogy>  (16) 
Cc1[n-]oc(=NS(=O)(=O)c2ccc([N-]C(=O)c3ccccc3)cc2)c1C (protonated)
Cc1[n-]o/c(=N\S(=O)(=O)c2ccc([N-]C(=O)c3ccccc3)cc2)c1C (cis-trans isomerization)
Cc1[n-]o/c(=N\S(=O)(=O)c2ccc([N-]C(=O)c3ccccc3)cc2)c1C (3D coordinates assigned)
Cc1[n-]o/c(=N\S(=O)(=O)c2ccc([N-]C(=O)c3ccccc3)cc2)c1C (optimized conformer: 82.6435629043521 kcal/mol)

>  <smiles>  (16) 
Cc1[nH]oc(=NS(=O)(=O)c2ccc(NC(=O)c3ccccc3)cc2)c1C

>  <score_type>  (16) 
oracle

>  <origin>  (16) 
adgpu

>  <m_score__min__energy>  (16) 
-12.68

>  <m_primary>  (16) 
energy

$$$$
16:0
     RDKit          3D

 38 39  0  0  0  0  0  0  0  0999 V2000
   -5.9763   26.0196  -30.4381 H   0  0  0  0  0  0  0  0  0  0  0  0
   -5.9530   24.9240  -30.5340 C   0  0  0  0  0  0  0  0  0  0  0  0
   -7.1410   24.2220  -30.7420 C   0  0  0  0  0  0  0  0  0  0  0  0
   -8.0960   24.7651  -30.7961 H   0  0  0  0  0  0  0  0  0  0  0  0
   -7.1220   22.8300  -30.8820 C   0  0  0  0  0  0  0  0  0  0  0  0
   -8.6180   21.9400  -31.1530 S   0  0  0  0  0  0  0  0  0  0  0  0
   -9.4000   21.8970  -29.8720 O   0  0  0  0  0  0  0  0  0  0  0  0
   -9.4460   22.6120  -32.2140 O   0  0  0  0  0  0  0  0  0  0  0  0
   -8.2600   20.3220  -31.6590 N   0  0  0  0  0  0  0  0  0  0  0  0
   -7.3230   20.0540  -32.5140 C   0  0  0  0  0  0  0  0  0  0  0  0
   -6.5550   20.9500  -33.0890 O   0  0  0  0  0  0  0  0  0  0  0  0
   -5.7240   20.3660  -33.9020 N   0  0  0  0  0  0  0  0  0  0  0  0
   -5.0080   20.8600  -34.4800 H   0  0  0  0  0  0  0  0  0  0  0  0
   -5.9610   19.0390  -33.8650 C   0  0  0  0  0  0  0  0  0  0  0  0
   -5.2030   18.0220  -34.6550 C   0  0  0  0  0  0  0  0  0  0  0  0
   -4.6894   17.3328  -33.9685 H   0  0  0  0  0  0  0  0  0  0  0  0
   -5.9010   17.4555  -35.2890 H   0  0  0  0  0  0  0  0  0  0  0  0
   -4.4607   18.5290  -35.2890 H   0  0  0  0  0  0  0  0  0  0  0  0
   -6.9780   18.7940  -32.9590 C   0  0  0  0  0  0  0  0  0  0  0  0
   -7.6270   17.4870  -32.6280 C   0  0  0  0  0  0  0  0  0  0  0  0
   -7.6840   17.3722  -31.5355 H   0  0  0  0  0  0  0  0  0  0  0  0
   -8.6415   17.4634  -33.0526 H   0  0  0  0  0  0  0  0  0  0  0  0
   -7.0326   16.6645  -33.0526 H   0  0  0  0  0  0  0  0  0  0  0  0
   -5.9040   22.1440  -30.8130 C   0  0  0  0  0  0  0  0  0  0  0  0
   -5.8878   21.0493  -30.9194 H   0  0  0  0  0  0  0  0  0  0  0  0
   -4.7020   22.8420  -30.6090 C   0  0  0  0  0  0  0  0  0  0  0  0
   -3.4010   22.0890  -30.5460 C   0  0  0  0  0  0  0  0  0  0  0  0
   -3.1215   21.9272  -29.4945 H   0  0  0  0  0  0  0  0  0  0  0  0
   -3.5150   21.1173  -31.0487 H   0  0  0  0  0  0  0  0  0  0  0  0
   -2.6152   22.6719  -31.0487 H   0  0  0  0  0  0  0  0  0  0  0  0
   -4.7260   24.2420  -30.4460 C   0  0  0  0  0  0  0  0  0  0  0  0
   -3.4900   24.9500  -30.2520 N   0  0  0  0  0  0  0  0  0  0  0  0
   -2.6620   24.9180  -29.0830 C   0  0  0  0  0  0  0  0  0  0  0  0
   -1.6310   25.6360  -29.0020 O   0  0  0  0  0  0  0  0  0  0  0  0
   -3.0920   24.1120  -27.9040 C   0  0  0  0  0  0  0  0  0  0  0  0
   -2.8118   24.6372  -26.9790 H   0  0  0  0  0  0  0  0  0  0  0  0
   -4.1831   23.9750  -27.9318 H   0  0  0  0  0  0  0  0  0  0  0  0
   -2.5982   23.1294  -27.9318 H   0  0  0  0  0  0  0  0  0  0  0  0
  1  2  1  0
  2  3  2  0
  3  4  1  0
  3  5  1  0
  5  6  1  0
  6  7  2  0
  6  8  2  0
  6  9  1  0
  9 10  2  0
 10 11  1  0
 11 12  1  0
 12 13  1  0
 12 14  1  0
 14 15  1  0
 15 16  1  0
 15 17  1  0
 15 18  1  0
 14 19  2  0
 19 20  1  0
 20 21  1  0
 20 22  1  0
 20 23  1  0
  5 24  2  0
 24 25  1  0
 24 26  1  0
 26 27  1  0
 27 28  1  0
 27 29  1  0
 27 30  1  0
 26 31  2  0
 31 32  1  0
 32 33  1  0
 33 34  2  0
 33 35  1  0
 35 36  1  0
 35 37  1  0
 35 38  1  0
 31  2  1  0
 19 10  1  0
M  CHG  1  32  -1
M  END
>  <UniqueID>  (17) 
16

>  <SMILES>  (17) 
CC(=O)[N-]c1ccc(S(=O)(=O)/N=c2\o[nH]c(C)c2C)cc1C

>  <Energy>  (17) 
72.08032533575917

>  <Genealogy>  (17) 
CC(=O)[N-]c1ccc(S(=O)(=O)N=c2o[nH]c(C)c2C)cc1C (protonated)
CC(=O)[N-]c1ccc(S(=O)(=O)/N=c2\o[nH]c(C)c2C)cc1C (cis-trans isomerization)
CC(=O)[N-]c1ccc(S(=O)(=O)/N=c2\o[nH]c(C)c2C)cc1C (3D coordinates assigned)
CC(=O)[N-]c1ccc(S(=O)(=O)/N=c2\o[nH]c(C)c2C)cc1C (optimized conformer: 72.08032533575917 kcal/mol)

>  <smiles>  (17) 
CC(=O)Nc1ccc(S(=O)(=O)N=c2o[nH]c(C)c2C)cc1C

>  <score_type>  (17) 
oracle

>  <origin>  (17) 
adgpu

>  <m_score__min__energy>  (17) 
-10.41

>  <m_primary>  (17) 
energy

$$$$
17:0
     RDKit          3D

 41 43  0  0  0  0  0  0  0  0999 V2000
   -1.9630   25.5900  -28.9530 O   0  0  0  0  0  0  0  0  0  0  0  0
   -2.6900   24.6780  -29.4310 C   0  0  0  0  0  0  0  0  0  0  0  0
   -3.6930   25.0360  -30.3920 N   0  0  0  0  0  0  0  0  0  0  0  0
   -4.7630   24.1970  -30.8480 C   0  0  0  0  0  0  0  0  0  0  0  0
   -6.1030   24.6220  -30.8110 C   0  0  0  0  0  0  0  0  0  0  0  0
   -7.1190   23.7860  -31.2810 C   0  0  0  0  0  0  0  0  0  0  0  0
   -6.8070   22.5290  -31.8040 C   0  0  0  0  0  0  0  0  0  0  0  0
   -5.4750   22.1020  -31.8630 C   0  0  0  0  0  0  0  0  0  0  0  0
   -5.0960   20.5260  -32.5520 S   0  0  0  0  0  0  0  0  0  0  0  0
   -4.8300   19.5660  -31.4250 O   0  0  0  0  0  0  0  0  0  0  0  0
   -3.8590   20.6240  -33.4020 O   0  0  0  0  0  0  0  0  0  0  0  0
   -6.4580   19.9780  -33.5060 N   0  0  0  0  0  0  0  0  0  0  0  0
   -6.0870   18.8700  -34.4130 C   0  0  0  0  0  0  0  0  0  0  0  0
   -6.4880   17.4880  -33.8640 C   0  0  0  0  0  0  0  0  0  0  0  0
   -6.4100   17.4810  -32.4560 O   0  0  0  0  0  0  0  0  0  0  0  0
   -7.4260   18.3020  -31.9060 C   0  0  0  0  0  0  0  0  0  0  0  0
   -7.6160   19.6420  -32.6580 C   0  0  0  0  0  0  0  0  0  0  0  0
   -4.4550   22.9450  -31.3940 C   0  0  0  0  0  0  0  0  0  0  0  0
   -2.4490   23.2720  -29.0310 C   0  0  0  0  0  0  0  0  0  0  0  0
   -2.9800   22.7610  -27.8330 C   0  0  0  0  0  0  0  0  0  0  0  0
   -2.7490   21.4320  -27.4680 C   0  0  0  0  0  0  0  0  0  0  0  0
   -1.9970   20.5970  -28.2970 C   0  0  0  0  0  0  0  0  0  0  0  0
   -1.4780   21.0890  -29.4980 C   0  0  0  0  0  0  0  0  0  0  0  0
   -0.4560   19.9440  -30.6350 Br  0  0  0  0  0  0  0  0  0  0  0  0
   -1.7080   22.4190  -29.8680 C   0  0  0  0  0  0  0  0  0  0  0  0
   -6.3521   25.6159  -30.4107 H   0  0  0  0  0  0  0  0  0  0  0  0
   -8.1667   24.1184  -31.2391 H   0  0  0  0  0  0  0  0  0  0  0  0
   -7.6101   21.8727  -32.1705 H   0  0  0  0  0  0  0  0  0  0  0  0
   -6.5900   19.0236  -35.3791 H   0  0  0  0  0  0  0  0  0  0  0  0
   -4.9919   18.8798  -34.5163 H   0  0  0  0  0  0  0  0  0  0  0  0
   -7.5192   17.2602  -34.1717 H   0  0  0  0  0  0  0  0  0  0  0  0
   -5.7997   16.7294  -34.2650 H   0  0  0  0  0  0  0  0  0  0  0  0
   -8.3757   17.7479  -31.9376 H   0  0  0  0  0  0  0  0  0  0  0  0
   -7.1196   18.5495  -30.8789 H   0  0  0  0  0  0  0  0  0  0  0  0
   -8.5101   19.5666  -33.2943 H   0  0  0  0  0  0  0  0  0  0  0  0
   -7.7235   20.4372  -31.9056 H   0  0  0  0  0  0  0  0  0  0  0  0
   -3.4061   22.6195  -31.4559 H   0  0  0  0  0  0  0  0  0  0  0  0
   -3.5805   23.4111  -27.1797 H   0  0  0  0  0  0  0  0  0  0  0  0
   -3.1606   21.0426  -26.5252 H   0  0  0  0  0  0  0  0  0  0  0  0
   -1.8131   19.5525  -28.0050 H   0  0  0  0  0  0  0  0  0  0  0  0
   -1.3068   22.7992  -30.8190 H   0  0  0  0  0  0  0  0  0  0  0  0
  1  2  2  0
  2  3  1  0
  3  4  1  0
  4  5  2  0
  5  6  1  0
  6  7  2  0
  7  8  1  0
  8  9  1  0
  9 10  2  0
  9 11  2  0
  9 12  1  0
 12 13  1  0
 13 14  1  0
 14 15  1  0
 15 16  1  0
 16 17  1  0
  8 18  2  0
  2 19  1  0
 19 20  2  0
 20 21  1  0
 21 22  2  0
 22 23  1  0
 23 24  1  0
 23 25  2  0
 18  4  1  0
 25 19  1  0
 17 12  1  0
  5 26  1  0
  6 27  1  0
  7 28  1  0
 13 29  1  0
 13 30  1  0
 14 31  1  0
 14 32  1  0
 16 33  1  0
 16 34  1  0
 17 35  1  0
 17 36  1  0
 18 37  1  0
 20 38  1  0
 21 39  1  0
 22 40  1  0
 25 41  1  0
M  CHG  1   3  -1
M  END
>  <UniqueID>  (18) 
17

>  <SMILES>  (18) 
O=C([N-]c1cccc(S(=O)(=O)N2CCOCC2)c1)c1cccc(Br)c1

>  <Energy>  (18) 
60.155093304993194

>  <Genealogy>  (18) 
O=C([N-]c1cccc(S(=O)(=O)N2CCOCC2)c1)c1cccc(Br)c1 (protonated)
O=C([N-]c1cccc(S(=O)(=O)N2CCOCC2)c1)c1cccc(Br)c1 (3D coordinates assigned)
O=C([N-]c1cccc(S(=O)(=O)N2CCOCC2)c1)c1cccc(Br)c1 (nonaromatic ring conformer: 60.155093304993194 kcal/mol)

>  <smiles>  (18) 
O=C(Nc1cccc(S(=O)(=O)N2CCOCC2)c1)c1cccc(Br)c1

>  <score_type>  (18) 
oracle

>  <origin>  (18) 
adgpu

>  <m_score__min__energy>  (18) 
-10.67

>  <m_primary>  (18) 
energy

$$$$
18:0
     RDKit          3D

 42 44  0  0  0  0  0  0  0  0999 V2000
   -3.7450   16.6320  -33.0940 C   0  0  0  0  0  0  0  0  0  0  0  0
   -5.0730   16.3290  -33.6530 N   0  0  0  0  0  0  0  0  0  0  0  0
   -6.1540   16.5390  -32.6540 C   0  0  0  0  0  0  0  0  0  0  0  0
   -6.9800   17.8190  -32.8850 C   0  0  0  0  0  0  0  0  0  0  0  0
   -6.1420   18.8630  -33.4820 N   0  0  0  0  0  0  0  0  0  0  0  0
   -6.0110   20.1600  -32.8690 C   0  0  0  0  0  0  0  0  0  0  0  0
   -4.8580   20.9340  -33.0810 C   0  0  0  0  0  0  0  0  0  0  0  0
   -4.7240   22.1870  -32.4730 C   0  0  0  0  0  0  0  0  0  0  0  0
   -5.7340   22.6760  -31.6270 C   0  0  0  0  0  0  0  0  0  0  0  0
   -5.6470   23.9670  -31.0030 N   0  0  0  0  0  0  0  0  0  0  0  0
   -4.4720   24.5690  -30.4420 C   0  0  0  0  0  0  0  0  0  0  0  0
   -4.0650   25.6760  -30.8870 O   0  0  0  0  0  0  0  0  0  0  0  0
   -3.6940   23.8690  -29.3830 C   0  0  0  0  0  0  0  0  0  0  0  0
   -4.1690   22.6440  -28.8720 C   0  0  0  0  0  0  0  0  0  0  0  0
   -3.4630   21.9620  -27.8770 C   0  0  0  0  0  0  0  0  0  0  0  0
   -2.2720   22.4900  -27.3770 C   0  0  0  0  0  0  0  0  0  0  0  0
   -1.7840   23.7000  -27.8720 C   0  0  0  0  0  0  0  0  0  0  0  0
   -2.4810   24.3900  -28.8710 C   0  0  0  0  0  0  0  0  0  0  0  0
   -1.9490   25.5870  -29.3400 O   0  0  0  0  0  0  0  0  0  0  0  0
   -6.8890   21.9120  -31.4290 C   0  0  0  0  0  0  0  0  0  0  0  0
   -7.0250   20.6600  -32.0340 C   0  0  0  0  0  0  0  0  0  0  0  0
   -5.4230   18.5590  -34.7250 C   0  0  0  0  0  0  0  0  0  0  0  0
   -5.3080   17.0390  -34.9290 C   0  0  0  0  0  0  0  0  0  0  0  0
   -3.7982   16.6199  -31.9954 H   0  0  0  0  0  0  0  0  0  0  0  0
   -3.0226   15.8756  -33.4345 H   0  0  0  0  0  0  0  0  0  0  0  0
   -3.4221   17.6269  -33.4345 H   0  0  0  0  0  0  0  0  0  0  0  0
   -6.8348   15.6759  -32.6943 H   0  0  0  0  0  0  0  0  0  0  0  0
   -5.6656   16.6475  -31.6743 H   0  0  0  0  0  0  0  0  0  0  0  0
   -7.8170   17.5937  -33.5623 H   0  0  0  0  0  0  0  0  0  0  0  0
   -7.3641   18.1769  -31.9184 H   0  0  0  0  0  0  0  0  0  0  0  0
   -4.0553   20.5525  -33.7292 H   0  0  0  0  0  0  0  0  0  0  0  0
   -3.8241   22.7920  -32.6580 H   0  0  0  0  0  0  0  0  0  0  0  0
   -5.1064   22.2198  -29.2610 H   0  0  0  0  0  0  0  0  0  0  0  0
   -3.8468   21.0076  -27.4875 H   0  0  0  0  0  0  0  0  0  0  0  0
   -1.7181   21.9527  -26.5931 H   0  0  0  0  0  0  0  0  0  0  0  0
   -0.8457   24.1143  -27.4747 H   0  0  0  0  0  0  0  0  0  0  0  0
   -7.6970   22.3003  -30.7915 H   0  0  0  0  0  0  0  0  0  0  0  0
   -7.9310   20.0621  -31.8558 H   0  0  0  0  0  0  0  0  0  0  0  0
   -5.9684   18.9970  -35.5739 H   0  0  0  0  0  0  0  0  0  0  0  0
   -4.4107   18.9847  -34.6610 H   0  0  0  0  0  0  0  0  0  0  0  0
   -6.2423   16.6682  -35.3758 H   0  0  0  0  0  0  0  0  0  0  0  0
   -4.4498   16.8470  -35.5898 H   0  0  0  0  0  0  0  0  0  0  0  0
  1  2  1  0
  2  3  1  0
  3  4  1  0
  4  5  1  0
  5  6  1  0
  6  7  2  0
  7  8  1  0
  8  9  2  0
  9 10  1  0
 10 11  1  0
 11 12  2  0
 11 13  1  0
 13 14  2  0
 14 15  1  0
 15 16  2  0
 16 17  1  0
 17 18  2  0
 18 19  1  0
  9 20  1  0
 20 21  2  0
  5 22  1  0
 22 23  1  0
 23  2  1  0
 21  6  1  0
 18 13  1  0
  1 24  1  0
  1 25  1  0
  1 26  1  0
  3 27  1  0
  3 28  1  0
  4 29  1  0
  4 30  1  0
  7 31  1  0
  8 32  1  0
 14 33  1  0
 15 34  1  0
 16 35  1  0
 17 36  1  0
 20 37  1  0
 21 38  1  0
 22 39  1  0
 22 40  1  0
 23 41  1  0
 23 42  1  0
M  CHG  2  10  -1  19  -1
M  END
>  <UniqueID>  (19) 
18

>  <SMILES>  (19) 
CN1CCN(c2ccc([N-]C(=O)c3ccccc3[O-])cc2)CC1

>  <Energy>  (19) 
61.33171869782589

>  <Genealogy>  (19) 
CN1CCN(c2ccc([N-]C(=O)c3ccccc3[O-])cc2)CC1 (protonated)
CN1CCN(c2ccc([N-]C(=O)c3ccccc3[O-])cc2)CC1 (3D coordinates assigned)
CN1CCN(c2ccc([N-]C(=O)c3ccccc3[O-])cc2)CC1 (nonaromatic ring conformer: 61.33171869782589 kcal/mol)

>  <smiles>  (19) 
CN1CCN(c2ccc(NC(=O)c3ccccc3O)cc2)CC1

>  <score_type>  (19) 
oracle

>  <origin>  (19) 
adgpu

>  <m_score__min__energy>  (19) 
-12.199999999999999

>  <m_primary>  (19) 
energy

$$$$
19:0
     RDKit          3D

 77 82  0  0  1  0  0  0  0  0999 V2000
   -2.7440   18.9660  -25.7690 C   0  0  0  0  0  0  0  0  0  0  0  0
   -2.1680   19.3830  -27.0700 C   0  0  0  0  0  0  0  0  0  0  0  0
   -1.0120   18.7930  -27.5470 C   0  0  0  0  0  0  0  0  0  0  0  0
   -0.4440   19.1580  -28.7610 C   0  0  0  0  0  0  0  0  0  0  0  0
    0.8050   18.5160  -29.2740 C   0  0  0  0  0  0  0  0  0  0  0  0
   -1.0380   20.1520  -29.5460 C   0  0  0  0  0  0  0  0  0  0  0  0
   -0.4670   20.5000  -30.7380 O   0  0  0  0  0  0  0  0  0  0  0  0
   -0.9350   20.2810  -31.9990 C   0  0  0  0  0  0  0  0  0  0  0  0
   -0.1280   20.7050  -33.0590 C   0  0  0  0  0  0  0  0  0  0  0  0
   -0.5350   20.5170  -34.3600 C   0  0  0  0  0  0  0  0  0  0  0  0
    0.1530   20.8820  -35.3880 N   0  0  0  0  0  0  0  0  0  0  0  0
    1.4120   21.5180  -35.1640 C   0  0  0  0  0  0  0  0  0  0  0  0
    2.3890   20.9290  -34.6230 O   0  0  0  0  0  0  0  0  0  0  0  0
    1.5190   22.9110  -35.5970 C   0  0  0  0  0  0  0  0  0  0  0  0
    0.3480   23.5380  -35.9510 C   0  0  0  0  0  0  0  0  0  0  0  0
    0.4430   24.8650  -36.3630 C   0  0  0  0  0  0  0  0  0  0  0  0
    1.6780   25.4920  -36.3980 C   0  0  0  0  0  0  0  0  0  0  0  0
    1.8110   26.8870  -36.8160 C   0  0  0  0  0  0  0  0  0  0  0  0
    0.6660   27.6980  -36.6080 N   0  0  0  0  0  0  0  0  0  0  0  0
    0.3350   28.0960  -35.3030 C   0  0  0  0  0  0  0  0  0  0  0  0
   -1.1920   28.0050  -35.1710 C   0  0  0  0  0  0  0  0  0  0  0  0
   -1.8010   28.6270  -36.3940 C   0  0  0  0  0  0  0  0  0  0  0  0
   -2.3330   27.6250  -37.2290 O   0  0  0  0  0  0  0  0  0  0  0  0
   -0.8360   29.4510  -37.1900 C   0  0  0  0  0  0  0  0  0  0  0  0
    0.3620   28.6190  -37.6540 C   0  0  0  0  0  0  0  0  0  0  0  0
    2.8320   24.8110  -36.0280 C   0  0  0  0  0  0  0  0  0  0  0  0
    2.7540   23.5030  -35.6210 C   0  0  0  0  0  0  0  0  0  0  0  0
   -1.7110   19.9250  -34.5920 N   0  0  0  0  0  0  0  0  0  0  0  0
   -2.4960   19.5140  -33.6090 C   0  0  0  0  0  0  0  0  0  0  0  0
   -3.7430   18.8790  -33.8920 N   0  0  0  0  0  0  0  0  0  0  0  0
   -4.8250   19.3330  -33.4730 C   0  0  0  0  0  0  0  0  0  0  0  0
   -5.1840   20.3900  -32.7320 N   0  0  0  0  0  0  0  0  0  0  0  0
   -6.4080   20.6470  -32.4390 C   0  0  0  0  0  0  0  0  0  0  0  0
   -6.9130   21.7290  -31.6700 C   0  0  0  0  0  0  0  0  0  0  0  0
   -8.2620   21.8570  -31.4540 C   0  0  0  0  0  0  0  0  0  0  0  0
   -9.2140   20.9930  -31.9350 C   0  0  0  0  0  0  0  0  0  0  0  0
   -8.7310   19.9230  -32.6930 C   0  0  0  0  0  0  0  0  0  0  0  0
   -7.4370   19.8160  -32.8910 C   0  0  0  0  0  0  0  0  0  0  0  0
   -6.4760   18.5110  -33.8560 S   0  0  0  0  0  0  0  0  0  0  0  0
   -2.1040   19.6940  -32.3110 N   0  0  0  0  0  0  0  0  0  0  0  0
   -2.1950   20.7440  -29.0700 C   0  0  0  0  0  0  0  0  0  0  0  0
   -2.8700   21.8060  -29.8570 C   0  0  0  0  0  0  0  0  0  0  0  0
   -2.7480   20.3600  -27.8450 C   0  0  0  0  0  0  0  0  0  0  0  0
   -2.1493   19.3965  -24.9499 H   0  0  0  0  0  0  0  0  0  0  0  0
   -3.7817   19.3236  -25.6960 H   0  0  0  0  0  0  0  0  0  0  0  0
   -2.7283   17.8685  -25.6960 H   0  0  0  0  0  0  0  0  0  0  0  0
   -0.5268   18.0098  -26.9461 H   0  0  0  0  0  0  0  0  0  0  0  0
    1.4278   18.1959  -28.4257 H   0  0  0  0  0  0  0  0  0  0  0  0
    0.5425   17.6411  -29.8869 H   0  0  0  0  0  0  0  0  0  0  0  0
    1.3637   19.2387  -29.8869 H   0  0  0  0  0  0  0  0  0  0  0  0
    0.8368   21.1912  -32.8520 H   0  0  0  0  0  0  0  0  0  0  0  0
   -0.6193   23.0158  -35.9107 H   0  0  0  0  0  0  0  0  0  0  0  0
   -0.4620   25.4150  -36.6605 H   0  0  0  0  0  0  0  0  0  0  0  0
    2.6470   27.3306  -36.2555 H   0  0  0  0  0  0  0  0  0  0  0  0
    1.9705   26.8626  -37.9041 H   0  0  0  0  0  0  0  0  0  0  0  0
    0.8163   27.4290  -34.5726 H   0  0  0  0  0  0  0  0  0  0  0  0
    0.6821   29.1216  -35.1090 H   0  0  0  0  0  0  0  0  0  0  0  0
   -1.4981   26.9511  -35.0963 H   0  0  0  0  0  0  0  0  0  0  0  0
   -1.5295   28.5315  -34.2660 H   0  0  0  0  0  0  0  0  0  0  0  0
   -2.5897   29.3023  -36.0309 H   0  0  0  0  0  0  0  0  0  0  0  0
   -3.2630   27.4290  -36.9330 H   0  0  0  0  0  0  0  0  0  0  0  0
   -1.3539   29.8550  -38.0724 H   0  0  0  0  0  0  0  0  0  0  0  0
   -0.4643   30.2634  -36.5482 H   0  0  0  0  0  0  0  0  0  0  0  0
    0.1080   28.0733  -38.5747 H   0  0  0  0  0  0  0  0  0  0  0  0
    1.2261   29.2647  -37.8693 H   0  0  0  0  0  0  0  0  0  0  0  0
    3.8065   25.3201  -36.0615 H   0  0  0  0  0  0  0  0  0  0  0  0
    3.6552   22.9470  -35.3232 H   0  0  0  0  0  0  0  0  0  0  0  0
   -4.3580   21.0210  -32.3890 H   0  0  0  0  0  0  0  0  0  0  0  0
   -6.2186   22.4688  -31.2451 H   0  0  0  0  0  0  0  0  0  0  0  0
   -8.6047   22.7122  -30.8531 H   0  0  0  0  0  0  0  0  0  0  0  0
  -10.2868   21.1337  -31.7368 H   0  0  0  0  0  0  0  0  0  0  0  0
   -9.4240   19.1816  -33.1174 H   0  0  0  0  0  0  0  0  0  0  0  0
   -2.7110   19.3750  -31.5280 H   0  0  0  0  0  0  0  0  0  0  0  0
   -3.3317   22.5325  -29.1721 H   0  0  0  0  0  0  0  0  0  0  0  0
   -2.1313   22.3181  -30.4911 H   0  0  0  0  0  0  0  0  0  0  0  0
   -3.6473   21.3545  -30.4911 H   0  0  0  0  0  0  0  0  0  0  0  0
   -3.6677   20.8502  -27.4930 H   0  0  0  0  0  0  0  0  0  0  0  0
  1  2  1  0
  2  3  2  0
  3  4  1  0
  4  5  1  0
  4  6  2  0
  6  7  1  0
  7  8  1  0
  8  9  2  0
  9 10  1  0
 10 11  2  0
 11 12  1  0
 12 13  2  0
 12 14  1  0
 14 15  2  0
 15 16  1  0
 16 17  2  0
 17 18  1  0
 18 19  1  0
 19 20  1  0
 20 21  1  0
 21 22  1  0
 22 23  1  0
 22 24  1  0
 24 25  1  0
 17 26  1  0
 26 27  2  0
 10 28  1  0
 28 29  2  0
 29 30  1  0
 30 31  2  0
 31 32  1  0
 32 33  1  0
 33 34  2  0
 34 35  1  0
 35 36  2  0
 36 37  1  0
 37 38  2  0
 38 39  1  0
 29 40  1  0
  6 41  1  0
 41 42  1  0
 41 43  2  0
 43  2  1  0
 40  8  1  0
 27 14  1  0
 39 31  1  0
 25 19  1  0
 38 33  1  0
  1 44  1  0
  1 45  1  0
  1 46  1  0
  3 47  1  0
  5 48  1  0
  5 49  1  0
  5 50  1  0
  9 51  1  0
 15 52  1  0
 16 53  1  0
 18 54  1  0
 18 55  1  0
 20 56  1  0
 20 57  1  0
 21 58  1  0
 21 59  1  0
 22 60  1  0
 23 61  1  0
 24 62  1  0
 24 63  1  0
 25 64  1  0
 25 65  1  0
 26 66  1  0
 27 67  1  0
 32 68  1  0
 34 69  1  0
 35 70  1  0
 36 71  1  0
 37 72  1  0
 40 73  1  0
 42 74  1  0
 42 75  1  0
 42 76  1  0
 43 77  1  0
M  END
>  <smiles>  (20) 
Cc1cc(C)c(Oc2cc(=NC(=O)c3ccc(CN4CCC(O)CC4)cc3)nc(N=c3[nH]c4ccccc4s3)[nH]2)c(C)c1

>  <score_type>  (20) 
oracle

>  <origin>  (20) 
adgpu

>  <m_score__min__energy>  (20) 
-12.220000000000001

>  <m_primary>  (20) 
energy

$$$$
20:0
     RDKit          3D

 49 51  0  0  0  0  0  0  0  0999 V2000
    0.2690   19.7340  -30.9740 C   0  0  0  0  0  0  0  0  0  0  0  0
   -0.1030   21.0940  -30.7840 O   0  0  0  0  0  0  0  0  0  0  0  0
   -1.1790   21.5180  -29.9900 C   0  0  0  0  0  0  0  0  0  0  0  0
   -1.7030   20.6230  -29.0490 C   0  0  0  0  0  0  0  0  0  0  0  0
   -2.7780   20.9950  -28.2380 C   0  0  0  0  0  0  0  0  0  0  0  0
   -3.3370   22.2700  -28.3560 C   0  0  0  0  0  0  0  0  0  0  0  0
   -2.8200   23.1840  -29.2870 C   0  0  0  0  0  0  0  0  0  0  0  0
   -3.4360   24.5520  -29.4400 C   0  0  0  0  0  0  0  0  0  0  0  0
   -4.2570   24.6270  -30.6680 N   0  0  0  0  0  0  0  0  0  0  0  0
   -5.4420   25.5000  -30.4760 C   0  0  0  0  0  0  0  0  0  0  0  0
   -6.7140   24.6920  -30.1760 C   0  0  0  0  0  0  0  0  0  0  0  0
   -7.0570   23.7670  -31.2890 N   0  0  0  0  0  0  0  0  0  0  0  0
   -7.8810   22.6310  -30.8150 C   0  0  0  0  0  0  0  0  0  0  0  0
   -8.6560   21.9700  -31.9650 C   0  0  0  0  0  0  0  0  0  0  0  0
   -8.1290   20.5890  -32.2640 C   0  0  0  0  0  0  0  0  0  0  0  0
   -7.0000   20.4170  -33.0840 C   0  0  0  0  0  0  0  0  0  0  0  0
   -6.5000   19.1350  -33.3330 C   0  0  0  0  0  0  0  0  0  0  0  0
   -7.1180   18.0180  -32.7640 C   0  0  0  0  0  0  0  0  0  0  0  0
   -8.2380   18.1810  -31.9460 C   0  0  0  0  0  0  0  0  0  0  0  0
   -8.7420   19.4610  -31.6930 C   0  0  0  0  0  0  0  0  0  0  0  0
   -5.8650   23.3030  -32.0450 C   0  0  0  0  0  0  0  0  0  0  0  0
   -4.6040   23.2750  -31.1710 C   0  0  0  0  0  0  0  0  0  0  0  0
   -1.7450   22.8030  -30.1060 C   0  0  0  0  0  0  0  0  0  0  0  0
    0.4014   19.2499  -29.9952 H   0  0  0  0  0  0  0  0  0  0  0  0
   -0.5197   19.2133  -31.5369 H   0  0  0  0  0  0  0  0  0  0  0  0
    1.2129   19.6873  -31.5369 H   0  0  0  0  0  0  0  0  0  0  0  0
   -1.2647   19.6192  -28.9476 H   0  0  0  0  0  0  0  0  0  0  0  0
   -3.1851   20.2828  -27.5052 H   0  0  0  0  0  0  0  0  0  0  0  0
   -4.1849   22.5583  -27.7173 H   0  0  0  0  0  0  0  0  0  0  0  0
   -4.0731   24.7597  -28.5676 H   0  0  0  0  0  0  0  0  0  0  0  0
   -2.6281   25.2951  -29.5115 H   0  0  0  0  0  0  0  0  0  0  0  0
   -5.2479   26.1811  -29.6343 H   0  0  0  0  0  0  0  0  0  0  0  0
   -5.6072   26.0564  -31.4104 H   0  0  0  0  0  0  0  0  0  0  0  0
   -6.5542   24.1035  -29.2605 H   0  0  0  0  0  0  0  0  0  0  0  0
   -7.5467   25.3998  -30.0511 H   0  0  0  0  0  0  0  0  0  0  0  0
   -7.2219   21.8815  -30.3526 H   0  0  0  0  0  0  0  0  0  0  0  0
   -8.6108   23.0175  -30.0883 H   0  0  0  0  0  0  0  0  0  0  0  0
   -9.7170   21.8948  -31.6844 H   0  0  0  0  0  0  0  0  0  0  0  0
   -8.5324   22.5893  -32.8656 H   0  0  0  0  0  0  0  0  0  0  0  0
   -6.5084   21.2936  -33.5311 H   0  0  0  0  0  0  0  0  0  0  0  0
   -5.6185   19.0054  -33.9780 H   0  0  0  0  0  0  0  0  0  0  0  0
   -6.7222   17.0106  -32.9605 H   0  0  0  0  0  0  0  0  0  0  0  0
   -8.7247   17.3012  -31.4998 H   0  0  0  0  0  0  0  0  0  0  0  0
   -9.6218   19.5850  -31.0444 H   0  0  0  0  0  0  0  0  0  0  0  0
   -6.0574   22.2881  -32.4232 H   0  0  0  0  0  0  0  0  0  0  0  0
   -5.6904   24.0091  -32.8702 H   0  0  0  0  0  0  0  0  0  0  0  0
   -4.7792   22.6092  -30.3131 H   0  0  0  0  0  0  0  0  0  0  0  0
   -3.7675   22.9120  -31.7861 H   0  0  0  0  0  0  0  0  0  0  0  0
   -1.3419   23.5128  -30.8434 H   0  0  0  0  0  0  0  0  0  0  0  0
  1  2  1  0
  2  3  1  0
  3  4  2  0
  4  5  1  0
  5  6  2  0
  6  7  1  0
  7  8  1  0
  8  9  1  0
  9 10  1  0
 10 11  1  0
 11 12  1  0
 12 13  1  0
 13 14  1  0
 14 15  1  0
 15 16  2  0
 16 17  1  0
 17 18  2  0
 18 19  1  0
 19 20  2  0
 12 21  1  0
 21 22  1  0
  7 23  2  0
 23  3  1  0
 22  9  1  0
 20 15  1  0
  1 24  1  0
  1 25  1  0
  1 26  1  0
  4 27  1  0
  5 28  1  0
  6 29  1  0
  8 30  1  0
  8 31  1  0
 10 32  1  0
 10 33  1  0
 11 34  1  0
 11 35  1  0
 13 36  1  0
 13 37  1  0
 14 38  1  0
 14 39  1  0
 16 40  1  0
 17 41  1  0
 18 42  1  0
 19 43  1  0
 20 44  1  0
 21 45  1  0
 21 46  1  0
 22 47  1  0
 22 48  1  0
 23 49  1  0
M  END
>  <UniqueID>  (21) 
19

>  <SMILES>  (21) 
COc1cccc(CN2CCN(CCc3ccccc3)CC2)c1

>  <Energy>  (21) 
60.728610468496015

>  <Genealogy>  (21) 
COc1cccc(CN2CCN(CCc3ccccc3)CC2)c1 (3D coordinates assigned)
COc1cccc(CN2CCN(CCc3ccccc3)CC2)c1 (nonaromatic ring conformer: 60.728610468496015 kcal/mol)

>  <smiles>  (21) 
COc1cccc(CN2CCN(CCc3ccccc3)CC2)c1

>  <score_type>  (21) 
oracle

>  <origin>  (21) 
adgpu

>  <m_score__min__energy>  (21) 
-8.6699999999999999

>  <m_primary>  (21) 
energy

$$$$
21:0
     RDKit          3D

 56 60  0  0  0  0  0  0  0  0999 V2000
   -2.9170   21.9730  -32.8330 O   0  0  0  0  0  0  0  0  0  0  0  0
   -4.0330   22.2490  -32.3020 C   0  0  0  0  0  0  0  0  0  0  0  0
   -4.1790   23.4830  -31.5970 N   0  0  0  0  0  0  0  0  0  0  0  0
   -3.9320   23.7430  -30.2090 C   0  0  0  0  0  0  0  0  0  0  0  0
   -4.9250   24.2210  -29.3350 C   0  0  0  0  0  0  0  0  0  0  0  0
   -4.6120   24.4710  -27.9940 C   0  0  0  0  0  0  0  0  0  0  0  0
   -3.3160   24.2480  -27.5170 C   0  0  0  0  0  0  0  0  0  0  0  0
   -2.3280   23.7520  -28.3760 C   0  0  0  0  0  0  0  0  0  0  0  0
   -0.6770   23.4990  -27.8180 S   0  0  0  0  0  0  0  0  0  0  0  0
    0.2670   24.0900  -28.8300 O   0  0  0  0  0  0  0  0  0  0  0  0
   -0.4650   24.1810  -26.4910 O   0  0  0  0  0  0  0  0  0  0  0  0
   -0.3910   21.7820  -27.6630 N   0  0  0  0  0  0  0  0  0  0  0  0
   -0.3910   21.1390  -28.9840 C   0  0  0  0  0  0  0  0  0  0  0  0
   -0.0280   19.6460  -28.8260 C   0  0  0  0  0  0  0  0  0  0  0  0
   -0.1570   19.1900  -27.4890 O   0  0  0  0  0  0  0  0  0  0  0  0
   -1.3890   19.6220  -26.9450 C   0  0  0  0  0  0  0  0  0  0  0  0
   -1.4060   21.1590  -26.7930 C   0  0  0  0  0  0  0  0  0  0  0  0
   -2.6480   23.4890  -29.7150 C   0  0  0  0  0  0  0  0  0  0  0  0
   -5.1790   21.2920  -32.4590 C   0  0  0  0  0  0  0  0  0  0  0  0
   -4.8610   19.9760  -32.8690 C   0  0  0  0  0  0  0  0  0  0  0  0
   -5.8590   19.0160  -33.0850 C   0  0  0  0  0  0  0  0  0  0  0  0
   -5.5420   17.6160  -33.4860 C   0  0  0  0  0  0  0  0  0  0  0  0
   -6.5410   16.6230  -33.5680 C   0  0  0  0  0  0  0  0  0  0  0  0
   -6.2130   15.3130  -33.9300 C   0  0  0  0  0  0  0  0  0  0  0  0
   -4.8880   14.9750  -34.2110 C   0  0  0  0  0  0  0  0  0  0  0  0
   -3.8880   15.9450  -34.1310 C   0  0  0  0  0  0  0  0  0  0  0  0
   -4.2080   17.2570  -33.7680 C   0  0  0  0  0  0  0  0  0  0  0  0
   -7.1580   19.3670  -32.9060 N   0  0  0  0  0  0  0  0  0  0  0  0
   -7.5370   20.6090  -32.5080 C   0  0  0  0  0  0  0  0  0  0  0  0
   -8.9040   20.8670  -32.3480 C   0  0  0  0  0  0  0  0  0  0  0  0
   -9.3370   22.1090  -31.8880 C   0  0  0  0  0  0  0  0  0  0  0  0
   -8.4060   23.0830  -31.5480 C   0  0  0  0  0  0  0  0  0  0  0  0
   -7.0370   22.8410  -31.6990 C   0  0  0  0  0  0  0  0  0  0  0  0
   -6.5640   21.6060  -32.2240 C   0  0  0  0  0  0  0  0  0  0  0  0
   -5.9457   24.3980  -29.7048 H   0  0  0  0  0  0  0  0  0  0  0  0
   -5.3893   24.8449  -27.3114 H   0  0  0  0  0  0  0  0  0  0  0  0
   -3.0729   24.4626  -26.4659 H   0  0  0  0  0  0  0  0  0  0  0  0
   -1.3899   21.2283  -29.4360 H   0  0  0  0  0  0  0  0  0  0  0  0
    0.3485   21.6310  -29.6329 H   0  0  0  0  0  0  0  0  0  0  0  0
   -0.6961   19.0516  -29.4666 H   0  0  0  0  0  0  0  0  0  0  0  0
    1.0261   19.5276  -29.1173 H   0  0  0  0  0  0  0  0  0  0  0  0
   -2.2069   19.3156  -27.6137 H   0  0  0  0  0  0  0  0  0  0  0  0
   -1.5183   19.1657  -25.9525 H   0  0  0  0  0  0  0  0  0  0  0  0
   -2.4007   21.5380  -27.0705 H   0  0  0  0  0  0  0  0  0  0  0  0
   -1.1780   21.4127  -25.7472 H   0  0  0  0  0  0  0  0  0  0  0  0
   -1.8797   23.0776  -30.3861 H   0  0  0  0  0  0  0  0  0  0  0  0
   -3.8072   19.7000  -33.0217 H   0  0  0  0  0  0  0  0  0  0  0  0
   -7.5867   16.8817  -33.3452 H   0  0  0  0  0  0  0  0  0  0  0  0
   -7.0003   14.5474  -33.9935 H   0  0  0  0  0  0  0  0  0  0  0  0
   -4.6321   13.9437  -34.4956 H   0  0  0  0  0  0  0  0  0  0  0  0
   -2.8448   15.6768  -34.3542 H   0  0  0  0  0  0  0  0  0  0  0  0
   -3.4131   18.0145  -33.7020 H   0  0  0  0  0  0  0  0  0  0  0  0
   -9.6399   20.0851  -32.5867 H   0  0  0  0  0  0  0  0  0  0  0  0
  -10.4129   22.3179  -31.7943 H   0  0  0  0  0  0  0  0  0  0  0  0
   -8.7487   24.0523  -31.1569 H   0  0  0  0  0  0  0  0  0  0  0  0
   -6.3145   23.6175  -31.4074 H   0  0  0  0  0  0  0  0  0  0  0  0
  1  2  2  0
  2  3  1  0
  3  4  1  0
  4  5  2  0
  5  6  1  0
  6  7  2  0
  7  8  1  0
  8  9  1  0
  9 10  2  0
  9 11  2  0
  9 12  1  0
 12 13  1  0
 13 14  1  0
 14 15  1  0
 15 16  1  0
 16 17  1  0
  8 18  2  0
  2 19  1  0
 19 20  2  0
 20 21  1  0
 21 22  1  0
 22 23  2  0
 23 24  1  0
 24 25  2  0
 25 26  1  0
 26 27  2  0
 21 28  2  0
 28 29  1  0
 29 30  2  0
 30 31  1  0
 31 32  2  0
 32 33  1  0
 33 34  2  0
 18  4  1  0
 34 19  1  0
 17 12  1  0
 27 22  1  0
 34 29  1  0
  5 35  1  0
  6 36  1  0
  7 37  1  0
 13 38  1  0
 13 39  1  0
 14 40  1  0
 14 41  1  0
 16 42  1  0
 16 43  1  0
 17 44  1  0
 17 45  1  0
 18 46  1  0
 20 47  1  0
 23 48  1  0
 24 49  1  0
 25 50  1  0
 26 51  1  0
 27 52  1  0
 30 53  1  0
 31 54  1  0
 32 55  1  0
 33 56  1  0
M  CHG  1   3  -1
M  END
>  <UniqueID>  (22) 
20

>  <SMILES>  (22) 
O=C([N-]c1cccc(S(=O)(=O)N2CCOCC2)c1)c1cc(-c2ccccc2)nc2ccccc12

>  <Energy>  (22) 
92.02045495687287

>  <Genealogy>  (22) 
O=C([N-]c1cccc(S(=O)(=O)N2CCOCC2)c1)c1cc(-c2ccccc2)nc2ccccc12 (protonated)
O=C([N-]c1cccc(S(=O)(=O)N2CCOCC2)c1)c1cc(-c2ccccc2)nc2ccccc12 (3D coordinates assigned)
O=C([N-]c1cccc(S(=O)(=O)N2CCOCC2)c1)c1cc(-c2ccccc2)nc2ccccc12 (nonaromatic ring conformer: 92.02045495687287 kcal/mol)

>  <smiles>  (22) 
O=C(Nc1cccc(S(=O)(=O)N2CCOCC2)c1)c1cc(-c2ccccc2)nc2ccccc12

>  <score_type>  (22) 
oracle

>  <origin>  (22) 
adgpu

>  <m_score__min__energy>  (22) 
-12.09

>  <m_primary>  (22) 
energy

$$$$
22:0
     RDKit          3D

 61 64  0  0  0  0  0  0  0  0999 V2000
   -0.2168   18.1831  -35.0337 H   0  0  0  0  0  0  0  0  0  0  0  0
   -0.5020   19.1470  -34.5870 C   0  0  0  0  0  0  0  0  0  0  0  0
    0.0530   20.2990  -35.0480 N   0  0  0  0  0  0  0  0  0  0  0  0
   -0.2860   21.5170  -34.5380 C   0  0  0  0  0  0  0  0  0  0  0  0
    0.2690   22.6120  -34.9730 N   0  0  0  0  0  0  0  0  0  0  0  0
    1.2590   22.7300  -36.0060 C   0  0  0  0  0  0  0  0  0  0  0  0
    1.7970   21.7060  -36.5100 O   0  0  0  0  0  0  0  0  0  0  0  0
    1.6450   24.1110  -36.4660 C   0  0  0  0  0  0  0  0  0  0  0  0
    2.1484   23.7687  -37.3822 H   0  0  0  0  0  0  0  0  0  0  0  0
    0.6560   25.2150  -36.1200 C   0  0  0  0  0  0  0  0  0  0  0  0
    0.4851   26.0413  -36.8257 H   0  0  0  0  0  0  0  0  0  0  0  0
   -0.4038   25.2460  -35.8270 H   0  0  0  0  0  0  0  0  0  0  0  0
    1.9770   25.1150  -35.3710 C   0  0  0  0  0  0  0  0  0  0  0  0
    2.7609   25.8690  -35.5354 H   0  0  0  0  0  0  0  0  0  0  0  0
    2.2675   25.0438  -34.3124 H   0  0  0  0  0  0  0  0  0  0  0  0
   -1.2330   21.5940  -33.5120 C   0  0  0  0  0  0  0  0  0  0  0  0
   -1.5351   22.5737  -33.1134 H   0  0  0  0  0  0  0  0  0  0  0  0
   -1.7960   20.4220  -32.9930 C   0  0  0  0  0  0  0  0  0  0  0  0
   -2.7290   20.5130  -31.9040 N   0  0  0  0  0  0  0  0  0  0  0  0
   -3.0100   19.6330  -31.4140 H   0  0  0  0  0  0  0  0  0  0  0  0
   -3.1980   21.7540  -31.3630 C   0  0  0  0  0  0  0  0  0  0  0  0
   -2.4460   22.3630  -30.3490 C   0  0  0  0  0  0  0  0  0  0  0  0
   -1.5441   21.8635  -29.9655 H   0  0  0  0  0  0  0  0  0  0  0  0
   -2.8310   23.6010  -29.8190 C   0  0  0  0  0  0  0  0  0  0  0  0
   -1.8550   24.3870  -28.5820 S   0  0  0  0  0  0  0  0  0  0  0  0
   -0.7090   23.4860  -28.2170 O   0  0  0  0  0  0  0  0  0  0  0  0
   -1.2940   25.6810  -29.1090 O   0  0  0  0  0  0  0  0  0  0  0  0
   -2.8160   24.6930  -27.1670 N   0  0  0  0  0  0  0  0  0  0  0  0
   -3.1980   25.6620  -27.2590 H   0  0  0  0  0  0  0  0  0  0  0  0
   -3.9480   23.7710  -27.1320 C   0  0  0  0  0  0  0  0  0  0  0  0
   -4.2129   23.5552  -26.0864 H   0  0  0  0  0  0  0  0  0  0  0  0
   -4.8091   24.2280  -27.6416 H   0  0  0  0  0  0  0  0  0  0  0  0
   -3.6747   22.8353  -27.6416 H   0  0  0  0  0  0  0  0  0  0  0  0
   -3.9770   24.2330  -30.3070 C   0  0  0  0  0  0  0  0  0  0  0  0
   -4.2725   25.2147  -29.9083 H   0  0  0  0  0  0  0  0  0  0  0  0
   -4.7490   23.6250  -31.2980 C   0  0  0  0  0  0  0  0  0  0  0  0
   -5.6472   24.1347  -31.6767 H   0  0  0  0  0  0  0  0  0  0  0  0
   -4.3930   22.3730  -31.8160 C   0  0  0  0  0  0  0  0  0  0  0  0
   -5.2510   21.8110  -32.7780 O   0  0  0  0  0  0  0  0  0  0  0  0
   -6.3340   20.9500  -32.5350 C   0  0  0  0  0  0  0  0  0  0  0  0
   -6.2040   19.5940  -32.8990 C   0  0  0  0  0  0  0  0  0  0  0  0
   -4.9760   19.1030  -33.6140 C   0  0  0  0  0  0  0  0  0  0  0  0
   -4.2185   18.8001  -32.8761 H   0  0  0  0  0  0  0  0  0  0  0  0
   -5.2389   18.2409  -34.2445 H   0  0  0  0  0  0  0  0  0  0  0  0
   -4.5720   19.9088  -34.2445 H   0  0  0  0  0  0  0  0  0  0  0  0
   -7.2420   18.6940  -32.6190 C   0  0  0  0  0  0  0  0  0  0  0  0
   -7.1366   17.6359  -32.9007 H   0  0  0  0  0  0  0  0  0  0  0  0
   -8.4100   19.1290  -31.9850 C   0  0  0  0  0  0  0  0  0  0  0  0
   -9.4770   18.1410  -31.6150 C   0  0  0  0  0  0  0  0  0  0  0  0
   -9.5501   18.0733  -30.5195 H   0  0  0  0  0  0  0  0  0  0  0  0
  -10.4418   18.4717  -32.0271 H   0  0  0  0  0  0  0  0  0  0  0  0
   -9.2213   17.1537  -32.0271 H   0  0  0  0  0  0  0  0  0  0  0  0
   -8.5560   20.4820  -31.6570 C   0  0  0  0  0  0  0  0  0  0  0  0
   -9.4702   20.8227  -31.1490 H   0  0  0  0  0  0  0  0  0  0  0  0
   -7.5490   21.4090  -31.9690 C   0  0  0  0  0  0  0  0  0  0  0  0
   -7.8040   22.8680  -31.7030 C   0  0  0  0  0  0  0  0  0  0  0  0
   -7.8346   23.0429  -30.6174 H   0  0  0  0  0  0  0  0  0  0  0  0
   -6.9972   23.4684  -32.1486 H   0  0  0  0  0  0  0  0  0  0  0  0
   -8.7666   23.1592  -32.1486 H   0  0  0  0  0  0  0  0  0  0  0  0
   -1.4330   19.1850  -33.5480 C   0  0  0  0  0  0  0  0  0  0  0  0
   -1.8783   18.2539  -33.1675 H   0  0  0  0  0  0  0  0  0  0  0  0
  1  2  1  0
  2  3  1  0
  3  4  1  0
  4  5  2  0
  5  6  1  0
  6  7  2  0
  6  8  1  0
  8  9  1  0
  8 10  1  0
 10 11  1  0
 10 12  1  0
 10 13  1  0
 13 14  1  0
 13 15  1  0
  4 16  1  0
 16 17  1  0
 16 18  2  0
 18 19  1  0
 19 20  1  0
 19 21  1  0
 21 22  2  0
 22 23  1  0
 22 24  1  0
 24 25  1  0
 25 26  2  0
 25 27  2  0
 25 28  1  0
 28 29  1  0
 28 30  1  0
 30 31  1  0
 30 32  1  0
 30 33  1  0
 24 34  2  0
 34 35  1  0
 34 36  1  0
 36 37  1  0
 36 38  2  0
 38 39  1  0
 39 40  1  0
 40 41  2  0
 41 42  1  0
 42 43  1  0
 42 44  1  0
 42 45  1  0
 41 46  1  0
 46 47  1  0
 46 48  2  0
 48 49  1  0
 49 50  1  0
 49 51  1  0
 49 52  1  0
 48 53  1  0
 53 54  1  0
 53 55  2  0
 55 56  1  0
 56 57  1  0
 56 58  1  0
 56 59  1  0
 18 60  1  0
 60 61  1  0
 60  2  2  0
 13  8  1  0
 38 21  1  0
 55 40  1  0
M  CHG  1   3  -1
M  END
>  <UniqueID>  (23) 
21

>  <SMILES>  (23) 
CNS(=O)(=O)c1ccc(Oc2c(C)cc(C)cc2C)c(Nc2cc[n-]/c(=N\C(=O)C3CC3)c2)c1

>  <Energy>  (23) 
340.20414519142497

>  <Genealogy>  (23) 
CNS(=O)(=O)c1ccc(Oc2c(C)cc(C)cc2C)c(Nc2cc[n-]c(=NC(=O)C3CC3)c2)c1 (protonated)
CNS(=O)(=O)c1ccc(Oc2c(C)cc(C)cc2C)c(Nc2cc[n-]/c(=N\C(=O)C3CC3)c2)c1 (cis-trans isomerization)
CNS(=O)(=O)c1ccc(Oc2c(C)cc(C)cc2C)c(Nc2cc[n-]/c(=N\C(=O)C3CC3)c2)c1 (3D coordinates assigned)
CNS(=O)(=O)c1ccc(Oc2c(C)cc(C)cc2C)c(Nc2cc[n-]/c(=N\C(=O)C3CC3)c2)c1 (nonaromatic ring conformer: 340.20414519142497 kcal/mol)

>  <smiles>  (23) 
CNS(=O)(=O)c1ccc(Oc2c(C)cc(C)cc2C)c(Nc2cc[nH]c(=NC(=O)C3CC3)c2)c1

>  <score_type>  (23) 
oracle

>  <origin>  (23) 
adgpu

>  <m_score__min__energy>  (23) 
-11.43

>  <m_primary>  (23) 
energy

$$$$
23:0
     RDKit          3D

 42 45  0  0  0  0  0  0  0  0999 V2000
   -1.2540   26.0360  -28.9830 N   0  0  0  0  0  0  0  0  0  0  0  0
   -0.9430   24.4040  -28.5100 S   0  0  0  0  0  0  0  0  0  0  0  0
   -1.1870   24.2590  -27.0330 O   0  0  0  0  0  0  0  0  0  0  0  0
    0.4920   24.0600  -28.7980 O   0  0  0  0  0  0  0  0  0  0  0  0
   -2.0060   23.3210  -29.4020 C   0  0  0  0  0  0  0  0  0  0  0  0
   -3.3670   23.2420  -29.0800 C   0  0  0  0  0  0  0  0  0  0  0  0
   -4.2120   22.3900  -29.7990 C   0  0  0  0  0  0  0  0  0  0  0  0
   -3.7070   21.6080  -30.8520 C   0  0  0  0  0  0  0  0  0  0  0  0
   -4.6000   20.7080  -31.6120 C   0  0  0  0  0  0  0  0  0  0  0  0
   -5.7860   21.0860  -32.1310 N   0  0  0  0  0  0  0  0  0  0  0  0
   -6.2510   20.0240  -32.7140 O   0  0  0  0  0  0  0  0  0  0  0  0
   -5.4050   19.0330  -32.5720 C   0  0  0  0  0  0  0  0  0  0  0  0
   -5.6160   17.6760  -33.1110 C   0  0  0  0  0  0  0  0  0  0  0  0
   -4.7570   16.6280  -32.7440 C   0  0  0  0  0  0  0  0  0  0  0  0
   -4.9530   15.3410  -33.2520 C   0  0  0  0  0  0  0  0  0  0  0  0
   -6.0150   15.0760  -34.1240 C   0  0  0  0  0  0  0  0  0  0  0  0
   -6.1680   13.7760  -34.6240 O   0  0  0  0  0  0  0  0  0  0  0  0
   -7.3920   13.1350  -34.8650 C   0  0  0  0  0  0  0  0  0  0  0  0
   -8.0560   12.3970  -33.8670 C   0  0  0  0  0  0  0  0  0  0  0  0
   -9.2660   11.7580  -34.1520 C   0  0  0  0  0  0  0  0  0  0  0  0
   -9.8160   11.8400  -35.4340 C   0  0  0  0  0  0  0  0  0  0  0  0
   -9.1530   12.5550  -36.4350 C   0  0  0  0  0  0  0  0  0  0  0  0
   -7.9410   13.1940  -36.1520 C   0  0  0  0  0  0  0  0  0  0  0  0
   -6.8650   16.1270  -34.5100 C   0  0  0  0  0  0  0  0  0  0  0  0
   -6.6710   17.4150  -34.0040 C   0  0  0  0  0  0  0  0  0  0  0  0
   -4.3190   19.4120  -31.8700 N   0  0  0  0  0  0  0  0  0  0  0  0
   -2.3420   21.6970  -31.1740 C   0  0  0  0  0  0  0  0  0  0  0  0
   -1.4990   22.5490  -30.4550 C   0  0  0  0  0  0  0  0  0  0  0  0
   -1.2210   26.0620  -30.0280 H   0  0  0  0  0  0  0  0  0  0  0  0
   -3.7725   23.8518  -28.2592 H   0  0  0  0  0  0  0  0  0  0  0  0
   -5.2791   22.3317  -29.5384 H   0  0  0  0  0  0  0  0  0  0  0  0
   -3.9241   16.8212  -32.0519 H   0  0  0  0  0  0  0  0  0  0  0  0
   -4.2675   14.5303  -32.9643 H   0  0  0  0  0  0  0  0  0  0  0  0
   -7.6211   12.3229  -32.8593 H   0  0  0  0  0  0  0  0  0  0  0  0
   -9.7858   11.1900  -33.3664 H   0  0  0  0  0  0  0  0  0  0  0  0
  -10.7713   11.3415  -35.6553 H   0  0  0  0  0  0  0  0  0  0  0  0
   -9.5840   12.6154  -37.4453 H   0  0  0  0  0  0  0  0  0  0  0  0
   -7.4160   13.7462  -36.9454 H   0  0  0  0  0  0  0  0  0  0  0  0
   -7.6876   15.9344  -35.2144 H   0  0  0  0  0  0  0  0  0  0  0  0
   -7.3467   18.2289  -34.3055 H   0  0  0  0  0  0  0  0  0  0  0  0
   -1.9343   21.0921  -31.9974 H   0  0  0  0  0  0  0  0  0  0  0  0
   -0.4327   22.6135  -30.7173 H   0  0  0  0  0  0  0  0  0  0  0  0
  1  2  1  0
  2  3  2  0
  2  4  2  0
  2  5  1  0
  5  6  2  0
  6  7  1  0
  7  8  2  0
  8  9  1  0
  9 10  2  0
 10 11  1  0
 11 12  1  0
 12 13  1  0
 13 14  2  0
 14 15  1  0
 15 16  2  0
 16 17  1  0
 17 18  1  0
 18 19  2  0
 19 20  1  0
 20 21  2  0
 21 22  1  0
 22 23  2  0
 16 24  1  0
 24 25  2  0
 12 26  2  0
  8 27  1  0
 27 28  2  0
 28  5  1  0
 26  9  1  0
 25 13  1  0
 23 18  1  0
  1 29  1  0
  6 30  1  0
  7 31  1  0
 14 32  1  0
 15 33  1  0
 19 34  1  0
 20 35  1  0
 21 36  1  0
 22 37  1  0
 23 38  1  0
 24 39  1  0
 25 40  1  0
 27 41  1  0
 28 42  1  0
M  CHG  1   1  -1
M  END
>  <UniqueID>  (24) 
22

>  <SMILES>  (24) 
[NH-]S(=O)(=O)c1ccc(-c2noc(-c3ccc(Oc4ccccc4)cc3)n2)cc1

>  <Energy>  (24) 
86.86359259974734

>  <Genealogy>  (24) 
[NH-]S(=O)(=O)c1ccc(-c2noc(-c3ccc(Oc4ccccc4)cc3)n2)cc1 (protonated)
[NH-]S(=O)(=O)c1ccc(-c2noc(-c3ccc(Oc4ccccc4)cc3)n2)cc1 (3D coordinates assigned)
[NH-]S(=O)(=O)c1ccc(-c2noc(-c3ccc(Oc4ccccc4)cc3)n2)cc1 (optimized conformer: 86.86359259974734 kcal/mol)

>  <smiles>  (24) 
NS(=O)(=O)c1ccc(-c2noc(-c3ccc(Oc4ccccc4)cc3)n2)cc1

>  <score_type>  (24) 
oracle

>  <origin>  (24) 
adgpu

>  <m_score__min__energy>  (24) 
-9.2899999999999991

>  <m_primary>  (24) 
energy

$$$$
24:0
     RDKit          3D

 50 52  0  0  0  0  0  0  0  0999 V2000
   -4.3783   17.2632  -35.1428 H   0  0  0  0  0  0  0  0  0  0  0  0
   -4.3960   18.1940  -34.5570 C   0  0  0  0  0  0  0  0  0  0  0  0
   -3.2520   18.8970  -34.3660 N   0  0  0  0  0  0  0  0  0  0  0  0
   -3.2490   20.0550  -33.6510 C   0  0  0  0  0  0  0  0  0  0  0  0
   -2.1510   20.7200  -33.4420 N   0  0  0  0  0  0  0  0  0  0  0  0
   -0.8480   20.4260  -33.9750 C   0  0  0  0  0  0  0  0  0  0  0  0
   -0.2780   19.1770  -33.6990 C   0  0  0  0  0  0  0  0  0  0  0  0
   -0.8447   18.4404  -33.1107 H   0  0  0  0  0  0  0  0  0  0  0  0
    1.0020   18.8530  -34.1610 C   0  0  0  0  0  0  0  0  0  0  0  0
    1.5130   17.5800  -33.8660 O   0  0  0  0  0  0  0  0  0  0  0  0
    0.8060   16.5770  -33.1410 C   0  0  0  0  0  0  0  0  0  0  0  0
    0.9281   16.7502  -32.0616 H   0  0  0  0  0  0  0  0  0  0  0  0
   -0.2619   16.6208  -33.4009 H   0  0  0  0  0  0  0  0  0  0  0  0
    1.2063   15.5859  -33.4009 H   0  0  0  0  0  0  0  0  0  0  0  0
    1.7300   19.8050  -34.8990 C   0  0  0  0  0  0  0  0  0  0  0  0
    2.7335   19.5553  -35.2741 H   0  0  0  0  0  0  0  0  0  0  0  0
    1.1830   21.0710  -35.1590 C   0  0  0  0  0  0  0  0  0  0  0  0
    1.9920   22.0980  -35.9080 C   0  0  0  0  0  0  0  0  0  0  0  0
    3.0598   21.8465  -35.8264 H   0  0  0  0  0  0  0  0  0  0  0  0
    1.6794   22.0949  -36.9626 H   0  0  0  0  0  0  0  0  0  0  0  0
    1.7670   23.4470  -35.3490 N   0  0  0  0  0  0  0  0  0  0  0  0
    3.0110   24.2300  -35.4070 C   0  0  0  0  0  0  0  0  0  0  0  0
    3.3557   24.4469  -34.3852 H   0  0  0  0  0  0  0  0  0  0  0  0
    3.7822   23.6542  -35.9396 H   0  0  0  0  0  0  0  0  0  0  0  0
    2.8253   25.1744  -35.9396 H   0  0  0  0  0  0  0  0  0  0  0  0
    0.7060   24.1520  -36.0900 C   0  0  0  0  0  0  0  0  0  0  0  0
    0.0077   24.6160  -35.3779 H   0  0  0  0  0  0  0  0  0  0  0  0
    1.1562   24.9312  -36.7226 H   0  0  0  0  0  0  0  0  0  0  0  0
    0.1621   23.4351  -36.7226 H   0  0  0  0  0  0  0  0  0  0  0  0
   -0.0990   21.3830  -34.6820 C   0  0  0  0  0  0  0  0  0  0  0  0
   -0.5208   22.3828  -34.8623 H   0  0  0  0  0  0  0  0  0  0  0  0
   -4.4090   20.5060  -33.1040 N   0  0  0  0  0  0  0  0  0  0  0  0
   -5.5870   19.8430  -33.2700 C   0  0  0  0  0  0  0  0  0  0  0  0
   -6.8220   20.3860  -32.6470 C   0  0  0  0  0  0  0  0  0  0  0  0
   -8.0290   19.6610  -32.6660 C   0  0  0  0  0  0  0  0  0  0  0  0
   -8.0646   18.6703  -33.1426 H   0  0  0  0  0  0  0  0  0  0  0  0
   -9.1810   20.1930  -32.0830 C   0  0  0  0  0  0  0  0  0  0  0  0
  -10.1186   19.6180  -32.0995 H   0  0  0  0  0  0  0  0  0  0  0  0
   -9.1480   21.4500  -31.4800 C   0  0  0  0  0  0  0  0  0  0  0  0
  -10.0595   21.8581  -31.0188 H   0  0  0  0  0  0  0  0  0  0  0  0
   -7.9650   22.1960  -31.4570 C   0  0  0  0  0  0  0  0  0  0  0  0
   -7.9910   23.4580  -30.8420 O   0  0  0  0  0  0  0  0  0  0  0  0
   -6.8480   24.1870  -30.4020 C   0  0  0  0  0  0  0  0  0  0  0  0
   -6.0860   23.3770  -29.5820 F   0  0  0  0  0  0  0  0  0  0  0  0
   -7.2410   25.3030  -29.6850 F   0  0  0  0  0  0  0  0  0  0  0  0
   -6.0790   24.5700  -31.4880 F   0  0  0  0  0  0  0  0  0  0  0  0
   -6.8030   21.6590  -32.0460 C   0  0  0  0  0  0  0  0  0  0  0  0
   -5.8699   22.2414  -32.0361 H   0  0  0  0  0  0  0  0  0  0  0  0
   -5.5940   18.6510  -34.0110 C   0  0  0  0  0  0  0  0  0  0  0  0
   -6.5276   18.0881  -34.1580 H   0  0  0  0  0  0  0  0  0  0  0  0
  1  2  1  0
  2  3  1  0
  3  4  1  0
  4  5  2  0
  5  6  1  0
  6  7  2  0
  7  8  1  0
  7  9  1  0
  9 10  1  0
 10 11  1  0
 11 12  1  0
 11 13  1  0
 11 14  1  0
  9 15  2  0
 15 16  1  0
 15 17  1  0
 17 18  1  0
 18 19  1  0
 18 20  1  0
 18 21  1  0
 21 22  1  0
 22 23  1  0
 22 24  1  0
 22 25  1  0
 21 26  1  0
 26 27  1  0
 26 28  1  0
 26 29  1  0
 17 30  2  0
 30 31  1  0
  4 32  1  0
 32 33  2  0
 33 34  1  0
 34 35  2  0
 35 36  1  0
 35 37  1  0
 37 38  1  0
 37 39  2  0
 39 40  1  0
 39 41  1  0
 41 42  1  0
 42 43  1  0
 43 44  1  0
 43 45  1  0
 43 46  1  0
 41 47  2  0
 47 48  1  0
 33 49  1  0
 49 50  1  0
 49  2  2  0
 30  6  1  0
 47 34  1  0
M  CHG  1   3  -1
M  END
>  <UniqueID>  (25) 
23

>  <SMILES>  (25) 
COc1cc(CN(C)C)cc(/N=c2/nc(-c3cccc(OC(F)(F)F)c3)cc[n-]2)c1

>  <Energy>  (25) 
62.326845384090554

>  <Genealogy>  (25) 
COc1cc(CN(C)C)cc(N=c2nc(-c3cccc(OC(F)(F)F)c3)cc[n-]2)c1 (protonated)
COc1cc(CN(C)C)cc(/N=c2/nc(-c3cccc(OC(F)(F)F)c3)cc[n-]2)c1 (cis-trans isomerization)
COc1cc(CN(C)C)cc(/N=c2/nc(-c3cccc(OC(F)(F)F)c3)cc[n-]2)c1 (3D coordinates assigned)
COc1cc(CN(C)C)cc(/N=c2/nc(-c3cccc(OC(F)(F)F)c3)cc[n-]2)c1 (optimized conformer: 62.326845384090554 kcal/mol)

>  <smiles>  (25) 
COc1cc(CN(C)C)cc(N=c2nc(-c3cccc(OC(F)(F)F)c3)cc[nH]2)c1

>  <score_type>  (25) 
oracle

>  <origin>  (25) 
adgpu

>  <m_score__min__energy>  (25) 
-9.1899999999999995

>  <m_primary>  (25) 
energy

$$$$
25:0
     RDKit          3D

 35 36  0  0  0  0  0  0  0  0999 V2000
   -7.8690   20.4070  -32.4080 C   0  0  0  0  0  0  0  0  0  0  0  0
   -8.0420   21.8000  -31.9770 N   0  0  0  0  0  0  0  0  0  0  0  0
   -9.3960   22.3690  -31.9430 C   0  0  0  0  0  0  0  0  0  0  0  0
   -6.8950   22.6010  -31.5890 C   0  0  0  0  0  0  0  0  0  0  0  0
   -7.0580   23.7870  -30.8430 C   0  0  0  0  0  0  0  0  0  0  0  0
   -5.9510   24.5550  -30.4680 C   0  0  0  0  0  0  0  0  0  0  0  0
   -4.6540   24.1470  -30.8150 C   0  0  0  0  0  0  0  0  0  0  0  0
   -3.4990   24.9190  -30.4580 N   0  0  0  0  0  0  0  0  0  0  0  0
   -2.5570   24.6020  -29.4240 C   0  0  0  0  0  0  0  0  0  0  0  0
   -1.8320   25.5230  -28.9650 O   0  0  0  0  0  0  0  0  0  0  0  0
   -2.3790   23.2280  -28.9120 C   0  0  0  0  0  0  0  0  0  0  0  0
   -3.2460   22.6760  -27.9620 C   0  0  0  0  0  0  0  0  0  0  0  0
   -3.0340   21.3720  -27.5240 C   0  0  0  0  0  0  0  0  0  0  0  0
   -1.9730   20.6370  -28.0510 C   0  0  0  0  0  0  0  0  0  0  0  0
   -1.7790   19.4550  -27.6560 O   0  0  0  0  0  0  0  0  0  0  0  0
   -1.1580   21.2050  -28.9920 N   0  0  0  0  0  0  0  0  0  0  0  0
   -0.0430   20.4540  -29.5680 C   0  0  0  0  0  0  0  0  0  0  0  0
   -1.3680   22.4590  -29.4030 N   0  0  0  0  0  0  0  0  0  0  0  0
   -4.4840   22.9870  -31.5750 C   0  0  0  0  0  0  0  0  0  0  0  0
   -5.5870   22.2160  -31.9520 C   0  0  0  0  0  0  0  0  0  0  0  0
   -7.7883   19.7571  -31.5242 H   0  0  0  0  0  0  0  0  0  0  0  0
   -8.7359   20.0995  -33.0113 H   0  0  0  0  0  0  0  0  0  0  0  0
   -6.9533   20.3209  -33.0113 H   0  0  0  0  0  0  0  0  0  0  0  0
   -9.7118   22.5017  -30.8977 H   0  0  0  0  0  0  0  0  0  0  0  0
   -9.3970   23.3437  -32.4529 H   0  0  0  0  0  0  0  0  0  0  0  0
  -10.0930   21.6877  -32.4529 H   0  0  0  0  0  0  0  0  0  0  0  0
   -8.0681   24.1118  -30.5527 H   0  0  0  0  0  0  0  0  0  0  0  0
   -6.0979   25.4841  -29.8978 H   0  0  0  0  0  0  0  0  0  0  0  0
   -4.0856   23.2661  -27.5660 H   0  0  0  0  0  0  0  0  0  0  0  0
   -3.6976   20.9254  -26.7689 H   0  0  0  0  0  0  0  0  0  0  0  0
    0.5753   20.0375  -28.7591 H   0  0  0  0  0  0  0  0  0  0  0  0
   -0.4346   19.6349  -30.1890 H   0  0  0  0  0  0  0  0  0  0  0  0
    0.5689   21.1247  -30.1890 H   0  0  0  0  0  0  0  0  0  0  0  0
   -3.4731   22.6779  -31.8793 H   0  0  0  0  0  0  0  0  0  0  0  0
   -5.4336   21.2982  -32.5386 H   0  0  0  0  0  0  0  0  0  0  0  0
  1  2  1  0
  2  3  1  0
  2  4  1  0
  4  5  2  0
  5  6  1  0
  6  7  2  0
  7  8  1  0
  8  9  1  0
  9 10  2  0
  9 11  1  0
 11 12  1  0
 12 13  2  0
 13 14  1  0
 14 15  2  0
 14 16  1  0
 16 17  1  0
 16 18  1  0
  7 19  1  0
 19 20  2  0
 20  4  1  0
 18 11  2  0
  1 21  1  0
  1 22  1  0
  1 23  1  0
  3 24  1  0
  3 25  1  0
  3 26  1  0
  5 27  1  0
  6 28  1  0
 12 29  1  0
 13 30  1  0
 17 31  1  0
 17 32  1  0
 17 33  1  0
 19 34  1  0
 20 35  1  0
M  CHG  1   8  -1
M  END
>  <UniqueID>  (26) 
24

>  <SMILES>  (26) 
CN(C)c1ccc([N-]C(=O)c2ccc(=O)n(C)n2)cc1

>  <Energy>  (26) 
43.748123964092756

>  <Genealogy>  (26) 
CN(C)c1ccc([N-]C(=O)c2ccc(=O)n(C)n2)cc1 (protonated)
CN(C)c1ccc([N-]C(=O)c2ccc(=O)n(C)n2)cc1 (3D coordinates assigned)
CN(C)c1ccc([N-]C(=O)c2ccc(=O)n(C)n2)cc1 (optimized conformer: 43.748123964092756 kcal/mol)

>  <smiles>  (26) 
CN(C)c1ccc(NC(=O)c2ccc(=O)n(C)n2)cc1

>  <score_type>  (26) 
oracle

>  <origin>  (26) 
adgpu

>  <m_score__min__energy>  (26) 
-8.3300000000000001

>  <m_primary>  (26) 
energy

$$$$
26:0
     RDKit          3D

 53 56  0  0  0  0  0  0  0  0999 V2000
   -2.3370   19.5760  -26.5930 C   0  0  0  0  0  0  0  0  0  0  0  0
   -1.9140   20.7370  -27.2990 O   0  0  0  0  0  0  0  0  0  0  0  0
   -2.7430   21.5190  -28.1200 C   0  0  0  0  0  0  0  0  0  0  0  0
   -3.7700   22.3220  -27.5880 C   0  0  0  0  0  0  0  0  0  0  0  0
   -4.5740   23.0940  -28.4300 C   0  0  0  0  0  0  0  0  0  0  0  0
   -4.3660   23.0750  -29.8130 C   0  0  0  0  0  0  0  0  0  0  0  0
   -5.3600   24.0680  -30.8750 S   0  0  0  0  0  0  0  0  0  0  0  0
   -6.6470   24.3890  -30.1690 O   0  0  0  0  0  0  0  0  0  0  0  0
   -4.6530   25.3510  -31.2150 O   0  0  0  0  0  0  0  0  0  0  0  0
   -5.7110   23.2110  -32.3420 N   0  0  0  0  0  0  0  0  0  0  0  0
   -6.2000   21.8570  -32.3810 C   0  0  0  0  0  0  0  0  0  0  0  0
   -7.4030   21.4850  -31.7530 C   0  0  0  0  0  0  0  0  0  0  0  0
   -7.8640   20.1680  -31.8250 C   0  0  0  0  0  0  0  0  0  0  0  0
   -7.1290   19.1980  -32.5180 C   0  0  0  0  0  0  0  0  0  0  0  0
   -7.5860   17.8740  -32.5970 C   0  0  0  0  0  0  0  0  0  0  0  0
   -6.8410   16.9150  -33.2900 C   0  0  0  0  0  0  0  0  0  0  0  0
   -5.6370   17.2700  -33.9060 C   0  0  0  0  0  0  0  0  0  0  0  0
   -5.1710   18.5860  -33.8340 C   0  0  0  0  0  0  0  0  0  0  0  0
   -5.9110   19.5580  -33.1420 C   0  0  0  0  0  0  0  0  0  0  0  0
   -5.4550   20.8830  -33.0650 C   0  0  0  0  0  0  0  0  0  0  0  0
   -3.3560   22.2700  -30.3520 C   0  0  0  0  0  0  0  0  0  0  0  0
   -2.5420   21.4950  -29.5130 C   0  0  0  0  0  0  0  0  0  0  0  0
   -1.2680   20.4870  -30.2070 S   0  0  0  0  0  0  0  0  0  0  0  0
    0.0070   21.2750  -30.3330 O   0  0  0  0  0  0  0  0  0  0  0  0
   -1.0300   19.3190  -29.2920 O   0  0  0  0  0  0  0  0  0  0  0  0
   -1.7670   19.9160  -31.7770 N   0  0  0  0  0  0  0  0  0  0  0  0
   -1.4790   20.9310  -32.8010 C   0  0  0  0  0  0  0  0  0  0  0  0
   -1.9520   20.4290  -34.1820 C   0  0  0  0  0  0  0  0  0  0  0  0
   -2.2910   19.0520  -34.1730 O   0  0  0  0  0  0  0  0  0  0  0  0
   -1.2430   18.3020  -33.5920 C   0  0  0  0  0  0  0  0  0  0  0  0
   -1.0790   18.6530  -32.1000 C   0  0  0  0  0  0  0  0  0  0  0  0
   -2.2699   19.7603  -25.5106 H   0  0  0  0  0  0  0  0  0  0  0  0
   -3.3779   19.3426  -26.8613 H   0  0  0  0  0  0  0  0  0  0  0  0
   -1.6902   18.7277  -26.8613 H   0  0  0  0  0  0  0  0  0  0  0  0
   -3.9405   22.3416  -26.5015 H   0  0  0  0  0  0  0  0  0  0  0  0
   -5.3730   23.7187  -28.0041 H   0  0  0  0  0  0  0  0  0  0  0  0
   -5.6600   23.7580  -33.2310 H   0  0  0  0  0  0  0  0  0  0  0  0
   -7.9853   22.2373  -31.2008 H   0  0  0  0  0  0  0  0  0  0  0  0
   -8.8092   19.8916  -31.3348 H   0  0  0  0  0  0  0  0  0  0  0  0
   -8.5320   17.5898  -32.1129 H   0  0  0  0  0  0  0  0  0  0  0  0
   -7.2032   15.8781  -33.3508 H   0  0  0  0  0  0  0  0  0  0  0  0
   -5.0545   16.5112  -34.4491 H   0  0  0  0  0  0  0  0  0  0  0  0
   -4.2232   18.8604  -34.3202 H   0  0  0  0  0  0  0  0  0  0  0  0
   -4.5051   21.1611  -33.5450 H   0  0  0  0  0  0  0  0  0  0  0  0
   -3.1996   22.2449  -31.4405 H   0  0  0  0  0  0  0  0  0  0  0  0
   -2.0073   21.8627  -32.5505 H   0  0  0  0  0  0  0  0  0  0  0  0
   -0.3953   21.1169  -32.8336 H   0  0  0  0  0  0  0  0  0  0  0  0
   -2.8373   21.0082  -34.4835 H   0  0  0  0  0  0  0  0  0  0  0  0
   -1.1202   20.5636  -34.8891 H   0  0  0  0  0  0  0  0  0  0  0  0
   -1.4712   17.2301  -33.6871 H   0  0  0  0  0  0  0  0  0  0  0  0
   -0.3058   18.5425  -34.1153 H   0  0  0  0  0  0  0  0  0  0  0  0
   -1.5075   17.8436  -31.4906 H   0  0  0  0  0  0  0  0  0  0  0  0
   -0.0072   18.7718  -31.8831 H   0  0  0  0  0  0  0  0  0  0  0  0
  1  2  1  0
  2  3  1  0
  3  4  2  0
  4  5  1  0
  5  6  2  0
  6  7  1  0
  7  8  2  0
  7  9  2  0
  7 10  1  0
 10 11  1  0
 11 12  2  0
 12 13  1  0
 13 14  2  0
 14 15  1  0
 15 16  2  0
 16 17  1  0
 17 18  2  0
 18 19  1  0
 19 20  2  0
  6 21  1  0
 21 22  2  0
 22 23  1  0
 23 24  2  0
 23 25  2  0
 23 26  1  0
 26 27  1  0
 27 28  1  0
 28 29  1  0
 29 30  1  0
 30 31  1  0
 22  3  1  0
 31 26  1  0
 20 11  1  0
 19 14  1  0
  1 32  1  0
  1 33  1  0
  1 34  1  0
  4 35  1  0
  5 36  1  0
 10 37  1  0
 12 38  1  0
 13 39  1  0
 15 40  1  0
 16 41  1  0
 17 42  1  0
 18 43  1  0
 20 44  1  0
 21 45  1  0
 27 46  1  0
 27 47  1  0
 28 48  1  0
 28 49  1  0
 30 50  1  0
 30 51  1  0
 31 52  1  0
 31 53  1  0
M  END
>  <UniqueID>  (27) 
25

>  <SMILES>  (27) 
COc1ccc(S(=O)(=O)Nc2ccc3ccccc3c2)cc1S(=O)(=O)N1CCOCC1

>  <Energy>  (27) 
68.19983768042617

>  <Genealogy>  (27) 
COc1ccc(S(=O)(=O)Nc2ccc3ccccc3c2)cc1S(=O)(=O)N1CCOCC1 (3D coordinates assigned)
COc1ccc(S(=O)(=O)Nc2ccc3ccccc3c2)cc1S(=O)(=O)N1CCOCC1 (nonaromatic ring conformer: 68.19983768042617 kcal/mol)

>  <smiles>  (27) 
COc1ccc(S(=O)(=O)Nc2ccc3ccccc3c2)cc1S(=O)(=O)N1CCOCC1

>  <score_type>  (27) 
oracle

>  <origin>  (27) 
adgpu

>  <m_score__min__energy>  (27) 
-10.56

>  <m_primary>  (27) 
energy

$$$$
27:0
     RDKit          3D

 40 42  0  0  0  0  0  0  0  0999 V2000
   -1.5430   25.6740  -29.3290 N   0  0  0  0  0  0  0  0  0  0  0  0
   -0.9790   24.8010  -27.9490 S   0  0  0  0  0  0  0  0  0  0  0  0
   -1.3940   25.5140  -26.6930 O   0  0  0  0  0  0  0  0  0  0  0  0
    0.5210   24.7300  -27.9970 O   0  0  0  0  0  0  0  0  0  0  0  0
   -1.6730   23.1760  -27.9630 C   0  0  0  0  0  0  0  0  0  0  0  0
   -0.8480   22.0650  -27.7250 C   0  0  0  0  0  0  0  0  0  0  0  0
   -1.3770   20.7740  -27.7540 C   0  0  0  0  0  0  0  0  0  0  0  0
   -2.7320   20.5800  -28.0220 C   0  0  0  0  0  0  0  0  0  0  0  0
   -3.5640   21.6770  -28.2580 C   0  0  0  0  0  0  0  0  0  0  0  0
   -3.0440   22.9840  -28.2310 C   0  0  0  0  0  0  0  0  0  0  0  0
   -3.8790   24.1280  -28.4680 N   0  0  0  0  0  0  0  0  0  0  0  0
   -4.7170   24.4720  -29.9460 S   0  0  0  0  0  0  0  0  0  0  0  0
   -3.8490   25.3390  -30.8140 O   0  0  0  0  0  0  0  0  0  0  0  0
   -5.9870   25.2120  -29.6330 O   0  0  0  0  0  0  0  0  0  0  0  0
   -5.0560   22.9710  -30.7990 C   0  0  0  0  0  0  0  0  0  0  0  0
   -6.3560   22.4520  -30.8020 C   0  0  0  0  0  0  0  0  0  0  0  0
   -6.6380   21.2610  -31.4770 C   0  0  0  0  0  0  0  0  0  0  0  0
   -5.6220   20.5680  -32.1590 C   0  0  0  0  0  0  0  0  0  0  0  0
   -5.9200   19.3010  -32.8740 C   0  0  0  0  0  0  0  0  0  0  0  0
   -5.2960   19.0070  -34.1040 C   0  0  0  0  0  0  0  0  0  0  0  0
   -5.5810   17.8150  -34.7750 C   0  0  0  0  0  0  0  0  0  0  0  0
   -6.4870   16.9020  -34.2300 C   0  0  0  0  0  0  0  0  0  0  0  0
   -7.1120   17.1810  -33.0130 C   0  0  0  0  0  0  0  0  0  0  0  0
   -6.8310   18.3720  -32.3360 C   0  0  0  0  0  0  0  0  0  0  0  0
   -4.3170   21.0970  -32.1510 C   0  0  0  0  0  0  0  0  0  0  0  0
   -4.0370   22.2870  -31.4740 C   0  0  0  0  0  0  0  0  0  0  0  0
   -2.5870   25.6780  -29.2850 H   0  0  0  0  0  0  0  0  0  0  0  0
    0.2215   22.2131  -27.5145 H   0  0  0  0  0  0  0  0  0  0  0  0
   -0.7248   19.9085  -27.5653 H   0  0  0  0  0  0  0  0  0  0  0  0
   -3.1462   19.5613  -28.0476 H   0  0  0  0  0  0  0  0  0  0  0  0
   -4.6323   21.5180  -28.4662 H   0  0  0  0  0  0  0  0  0  0  0  0
   -7.1592   22.9838  -30.2708 H   0  0  0  0  0  0  0  0  0  0  0  0
   -7.6632   20.8624  -31.4747 H   0  0  0  0  0  0  0  0  0  0  0  0
   -4.5803   19.7207  -34.5380 H   0  0  0  0  0  0  0  0  0  0  0  0
   -5.0907   17.5950  -35.7348 H   0  0  0  0  0  0  0  0  0  0  0  0
   -6.7080   15.9635  -34.7595 H   0  0  0  0  0  0  0  0  0  0  0  0
   -7.8270   16.4624  -32.5858 H   0  0  0  0  0  0  0  0  0  0  0  0
   -7.3251   18.5845  -31.3765 H   0  0  0  0  0  0  0  0  0  0  0  0
   -3.5112   20.5691  -32.6821 H   0  0  0  0  0  0  0  0  0  0  0  0
   -3.0127   22.6880  -31.4712 H   0  0  0  0  0  0  0  0  0  0  0  0
  1  2  1  0
  2  3  2  0
  2  4  2  0
  2  5  1  0
  5  6  2  0
  6  7  1  0
  7  8  2  0
  8  9  1  0
  9 10  2  0
 10 11  1  0
 11 12  1  0
 12 13  2  0
 12 14  2  0
 12 15  1  0
 15 16  2  0
 16 17  1  0
 17 18  2  0
 18 19  1  0
 19 20  2  0
 20 21  1  0
 21 22  2  0
 22 23  1  0
 23 24  2  0
 18 25  1  0
 25 26  2  0
 10  5  1  0
 26 15  1  0
 24 19  1  0
  1 27  1  0
  6 28  1  0
  7 29  1  0
  8 30  1  0
  9 31  1  0
 16 32  1  0
 17 33  1  0
 20 34  1  0
 21 35  1  0
 22 36  1  0
 23 37  1  0
 24 38  1  0
 25 39  1  0
 26 40  1  0
M  CHG  2   1  -1  11  -1
M  END
>  <UniqueID>  (28) 
26

>  <SMILES>  (28) 
[NH-]S(=O)(=O)c1ccccc1[N-]S(=O)(=O)c1ccc(-c2ccccc2)cc1

>  <Energy>  (28) 
51.73863606139096

>  <Genealogy>  (28) 
[NH-]S(=O)(=O)c1ccccc1[N-]S(=O)(=O)c1ccc(-c2ccccc2)cc1 (protonated)
[NH-]S(=O)(=O)c1ccccc1[N-]S(=O)(=O)c1ccc(-c2ccccc2)cc1 (3D coordinates assigned)
[NH-]S(=O)(=O)c1ccccc1[N-]S(=O)(=O)c1ccc(-c2ccccc2)cc1 (optimized conformer: 51.73863606139096 kcal/mol)

>  <smiles>  (28) 
NS(=O)(=O)c1ccccc1NS(=O)(=O)c1ccc(-c2ccccc2)cc1

>  <score_type>  (28) 
oracle

>  <origin>  (28) 
adgpu

>  <m_score__min__energy>  (28) 
-13.119999999999999

>  <m_primary>  (28) 
energy

$$$$
28:0
     RDKit          3D

 40 42  0  0  0  0  0  0  0  0999 V2000
    3.4110   25.9040  -26.6070 H   0  0  0  0  0  0  0  0  0  0  0  0
    2.9920   25.2060  -27.2640 N   0  0  0  0  0  0  0  0  0  0  0  0
    1.7150   25.1130  -27.4590 C   0  0  0  0  0  0  0  0  0  0  0  0
    1.2410   24.1830  -28.3250 N   0  0  0  0  0  0  0  0  0  0  0  0
   -0.0850   24.0330  -28.5860 C   0  0  0  0  0  0  0  0  0  0  0  0
   -0.4950   22.9870  -29.5820 C   0  0  0  0  0  0  0  0  0  0  0  0
   -0.8462   22.0910  -29.0492 H   0  0  0  0  0  0  0  0  0  0  0  0
   -1.3058   23.3796  -30.2133 H   0  0  0  0  0  0  0  0  0  0  0  0
    0.3666   22.7241  -30.2133 H   0  0  0  0  0  0  0  0  0  0  0  0
   -1.0300   24.8590  -27.9290 C   0  0  0  0  0  0  0  0  0  0  0  0
   -2.4790   24.7140  -28.2080 C   0  0  0  0  0  0  0  0  0  0  0  0
   -3.2720   24.4430  -27.2660 O   0  0  0  0  0  0  0  0  0  0  0  0
   -2.9740   24.9240  -29.5360 N   0  0  0  0  0  0  0  0  0  0  0  0
   -4.2320   24.4750  -30.0590 C   0  0  0  0  0  0  0  0  0  0  0  0
   -5.3820   25.2820  -30.0340 C   0  0  0  0  0  0  0  0  0  0  0  0
   -5.3291   26.2985  -29.6170 H   0  0  0  0  0  0  0  0  0  0  0  0
   -6.5930   24.7980  -30.5370 C   0  0  0  0  0  0  0  0  0  0  0  0
   -7.4831   25.4443  -30.5311 H   0  0  0  0  0  0  0  0  0  0  0  0
   -6.6830   23.4960  -31.0490 C   0  0  0  0  0  0  0  0  0  0  0  0
   -5.5360   22.6810  -31.0560 C   0  0  0  0  0  0  0  0  0  0  0  0
   -4.3240   23.1700  -30.5560 C   0  0  0  0  0  0  0  0  0  0  0  0
   -3.4349   22.5223  -30.5536 H   0  0  0  0  0  0  0  0  0  0  0  0
   -5.6000   21.3490  -31.5560 N   0  0  0  0  0  0  0  0  0  0  0  0
   -6.8380   20.7920  -31.9830 C   0  0  0  0  0  0  0  0  0  0  0  0
   -6.8720   19.6010  -32.3900 O   0  0  0  0  0  0  0  0  0  0  0  0
   -8.0380   21.5840  -31.9310 N   0  0  0  0  0  0  0  0  0  0  0  0
   -9.3160   20.9780  -32.3090 C   0  0  0  0  0  0  0  0  0  0  0  0
   -9.8780   20.7115  -31.4017 H   0  0  0  0  0  0  0  0  0  0  0  0
   -9.8999   21.6951  -32.9046 H   0  0  0  0  0  0  0  0  0  0  0  0
   -9.1303   20.0721  -32.9046 H   0  0  0  0  0  0  0  0  0  0  0  0
   -7.9950   23.0250  -31.6360 C   0  0  0  0  0  0  0  0  0  0  0  0
   -8.1718   23.5748  -32.5722 H   0  0  0  0  0  0  0  0  0  0  0  0
   -8.7688   23.2170  -30.8781 H   0  0  0  0  0  0  0  0  0  0  0  0
   -0.5570   25.8270  -27.0070 C   0  0  0  0  0  0  0  0  0  0  0  0
   -1.4940   26.7340  -26.2490 C   0  0  0  0  0  0  0  0  0  0  0  0
   -1.3473   26.5920  -25.1681 H   0  0  0  0  0  0  0  0  0  0  0  0
   -1.2843   27.7811  -26.5131 H   0  0  0  0  0  0  0  0  0  0  0  0
   -2.5337   26.4904  -26.5131 H   0  0  0  0  0  0  0  0  0  0  0  0
    0.8220   25.9560  -26.7900 C   0  0  0  0  0  0  0  0  0  0  0  0
    1.2011   26.7192  -26.0945 H   0  0  0  0  0  0  0  0  0  0  0  0
  1  2  1  0
  2  3  2  0
  3  4  1  0
  4  5  1  0
  5  6  1  0
  6  7  1  0
  6  8  1  0
  6  9  1  0
  5 10  2  0
 10 11  1  0
 11 12  2  0
 11 13  1  0
 13 14  1  0
 14 15  2  0
 15 16  1  0
 15 17  1  0
 17 18  1  0
 17 19  2  0
 19 20  1  0
 20 21  2  0
 21 22  1  0
 20 23  1  0
 23 24  1  0
 24 25  2  0
 24 26  1  0
 26 27  1  0
 27 28  1  0
 27 29  1  0
 27 30  1  0
 26 31  1  0
 31 32  1  0
 31 33  1  0
 10 34  1  0
 34 35  1  0
 35 36  1  0
 35 37  1  0
 35 38  1  0
 34 39  2  0
 39 40  1  0
 39  3  1  0
 21 14  1  0
 31 19  1  0
M  CHG  3   4  -1  13  -1  23  -1
M  END
>  <UniqueID>  (29) 
27

>  <SMILES>  (29) 
[H]/N=c1\cc(C)c(C(=O)[N-]c2ccc3c(c2)[N-]C(=O)N(C)C3)c(C)[n-]1

>  <Energy>  (29) 
52.39190342750592

>  <Genealogy>  (29) 
Cc1cc(=N)[n-]c(C)c1C(=O)[N-]c1ccc2c(c1)[N-]C(=O)N(C)C2 (protonated)
[H]/N=c1\cc(C)c(C(=O)[N-]c2ccc3c(c2)[N-]C(=O)N(C)C3)c(C)[n-]1 (cis-trans isomerization)
[H]/N=c1\cc(C)c(C(=O)[N-]c2ccc3c(c2)[N-]C(=O)N(C)C3)c(C)[n-]1 (3D coordinates assigned)
[H]/N=c1\cc(C)c(C(=O)[N-]c2ccc3c(c2)[N-]C(=O)N(C)C3)c(C)[n-]1 (nonaromatic ring conformer: 52.39190342750592 kcal/mol)

>  <smiles>  (29) 
Cc1cc(=N)[nH]c(C)c1C(=O)Nc1ccc2c(c1)NC(=O)N(C)C2

>  <score_type>  (29) 
oracle

>  <origin>  (29) 
adgpu

>  <m_score__min__energy>  (29) 
-9.9399999999999995

>  <m_primary>  (29) 
energy

$$$$
29:0
     RDKit          3D

 54 56  0  0  0  0  0  0  0  0999 V2000
   -8.9810   22.2410  -31.3950 C   0  0  0  0  0  0  0  0  0  0  0  0
   -7.6430   22.8800  -31.1680 C   0  0  0  0  0  0  0  0  0  0  0  0
   -6.9910   23.5450  -32.2180 C   0  0  0  0  0  0  0  0  0  0  0  0
   -5.7610   24.1730  -32.0000 C   0  0  0  0  0  0  0  0  0  0  0  0
   -5.1800   24.1660  -30.7190 C   0  0  0  0  0  0  0  0  0  0  0  0
   -3.9140   24.7900  -30.4620 N   0  0  0  0  0  0  0  0  0  0  0  0
   -2.7840   24.1810  -29.8220 C   0  0  0  0  0  0  0  0  0  0  0  0
   -2.1970   24.8180  -28.9070 O   0  0  0  0  0  0  0  0  0  0  0  0
   -2.2510   22.8640  -30.2450 C   0  0  0  0  0  0  0  0  0  0  0  0
   -0.8740   22.7020  -30.4700 C   0  0  0  0  0  0  0  0  0  0  0  0
   -0.3690   21.4800  -30.9230 C   0  0  0  0  0  0  0  0  0  0  0  0
   -1.2370   20.4080  -31.1880 C   0  0  0  0  0  0  0  0  0  0  0  0
   -0.7040   19.1220  -31.7650 C   0  0  0  0  0  0  0  0  0  0  0  0
   -1.7970   18.2160  -32.1310 N   0  0  0  0  0  0  0  0  0  0  0  0
   -2.6360   18.7650  -33.5560 S   0  0  0  0  0  0  0  0  0  0  0  0
   -2.0670   20.0940  -33.9670 O   0  0  0  0  0  0  0  0  0  0  0  0
   -2.3660   17.7980  -34.6730 O   0  0  0  0  0  0  0  0  0  0  0  0
   -4.3820   18.9750  -33.2080 C   0  0  0  0  0  0  0  0  0  0  0  0
   -5.1810   17.8250  -32.9550 C   0  0  0  0  0  0  0  0  0  0  0  0
   -4.5860   16.4440  -32.8270 C   0  0  0  0  0  0  0  0  0  0  0  0
   -6.5680   17.9580  -32.7850 C   0  0  0  0  0  0  0  0  0  0  0  0
   -7.1860   19.2050  -32.8780 C   0  0  0  0  0  0  0  0  0  0  0  0
   -8.6710   19.3290  -32.7050 C   0  0  0  0  0  0  0  0  0  0  0  0
   -6.4060   20.3450  -33.0730 C   0  0  0  0  0  0  0  0  0  0  0  0
   -5.0140   20.2530  -33.2390 C   0  0  0  0  0  0  0  0  0  0  0  0
   -4.2530   21.5340  -33.4610 C   0  0  0  0  0  0  0  0  0  0  0  0
   -2.6060   20.5550  -30.9230 C   0  0  0  0  0  0  0  0  0  0  0  0
   -3.1120   21.7770  -30.4730 C   0  0  0  0  0  0  0  0  0  0  0  0
   -5.8290   23.4970  -29.6750 C   0  0  0  0  0  0  0  0  0  0  0  0
   -7.0590   22.8690  -29.8930 C   0  0  0  0  0  0  0  0  0  0  0  0
   -9.4497   22.0172  -30.4253 H   0  0  0  0  0  0  0  0  0  0  0  0
   -9.6243   22.9291  -31.9631 H   0  0  0  0  0  0  0  0  0  0  0  0
   -8.8502   21.3082  -31.9631 H   0  0  0  0  0  0  0  0  0  0  0  0
   -7.4499   23.5722  -33.2173 H   0  0  0  0  0  0  0  0  0  0  0  0
   -5.2460   24.6741  -32.8329 H   0  0  0  0  0  0  0  0  0  0  0  0
   -0.1883   23.5427  -30.2884 H   0  0  0  0  0  0  0  0  0  0  0  0
    0.7138   21.3572  -31.0728 H   0  0  0  0  0  0  0  0  0  0  0  0
   -0.1100   19.3496  -32.6624 H   0  0  0  0  0  0  0  0  0  0  0  0
   -0.0808   18.6290  -31.0043 H   0  0  0  0  0  0  0  0  0  0  0  0
   -4.4762   16.1893  -31.7625 H   0  0  0  0  0  0  0  0  0  0  0  0
   -5.2489   15.7127  -33.3126 H   0  0  0  0  0  0  0  0  0  0  0  0
   -3.5992   16.4235  -33.3126 H   0  0  0  0  0  0  0  0  0  0  0  0
   -7.1764   17.0659  -32.5754 H   0  0  0  0  0  0  0  0  0  0  0  0
   -8.9148   19.3494  -31.6325 H   0  0  0  0  0  0  0  0  0  0  0  0
   -9.0188   20.2593  -33.1778 H   0  0  0  0  0  0  0  0  0  0  0  0
   -9.1683   18.4693  -33.1778 H   0  0  0  0  0  0  0  0  0  0  0  0
   -6.8892   21.3329  -33.0972 H   0  0  0  0  0  0  0  0  0  0  0  0
   -3.9897   21.9772  -32.4893 H   0  0  0  0  0  0  0  0  0  0  0  0
   -3.3346   21.3214  -34.0279 H   0  0  0  0  0  0  0  0  0  0  0  0
   -4.8790   22.2388  -34.0279 H   0  0  0  0  0  0  0  0  0  0  0  0
   -3.2858   19.7029  -31.0703 H   0  0  0  0  0  0  0  0  0  0  0  0
   -4.1919   21.8891  -30.2959 H   0  0  0  0  0  0  0  0  0  0  0  0
   -5.3685   23.4651  -28.6766 H   0  0  0  0  0  0  0  0  0  0  0  0
   -7.5710   22.3640  -29.0606 H   0  0  0  0  0  0  0  0  0  0  0  0
  1  2  1  0
  2  3  2  0
  3  4  1  0
  4  5  2  0
  5  6  1  0
  6  7  1  0
  7  8  2  0
  7  9  1  0
  9 10  2  0
 10 11  1  0
 11 12  2  0
 12 13  1  0
 13 14  1  0
 14 15  1  0
 15 16  2  0
 15 17  2  0
 15 18  1  0
 18 19  2  0
 19 20  1  0
 19 21  1  0
 21 22  2  0
 22 23  1  0
 22 24  1  0
 24 25  2  0
 25 26  1  0
 12 27  1  0
 27 28  2  0
  5 29  1  0
 29 30  2  0
 30  2  1  0
 28  9  1  0
 25 18  1  0
  1 31  1  0
  1 32  1  0
  1 33  1  0
  3 34  1  0
  4 35  1  0
 10 36  1  0
 11 37  1  0
 13 38  1  0
 13 39  1  0
 20 40  1  0
 20 41  1  0
 20 42  1  0
 21 43  1  0
 23 44  1  0
 23 45  1  0
 23 46  1  0
 24 47  1  0
 26 48  1  0
 26 49  1  0
 26 50  1  0
 27 51  1  0
 28 52  1  0
 29 53  1  0
 30 54  1  0
M  CHG  2   6  -1  14  -1
M  END
>  <UniqueID>  (30) 
28

>  <SMILES>  (30) 
Cc1ccc([N-]C(=O)c2ccc(C[N-]S(=O)(=O)c3c(C)cc(C)cc3C)cc2)cc1

>  <Energy>  (30) 
60.94574808170394

>  <Genealogy>  (30) 
Cc1ccc([N-]C(=O)c2ccc(C[N-]S(=O)(=O)c3c(C)cc(C)cc3C)cc2)cc1 (protonated)
Cc1ccc([N-]C(=O)c2ccc(C[N-]S(=O)(=O)c3c(C)cc(C)cc3C)cc2)cc1 (3D coordinates assigned)
Cc1ccc([N-]C(=O)c2ccc(C[N-]S(=O)(=O)c3c(C)cc(C)cc3C)cc2)cc1 (optimized conformer: 60.94574808170394 kcal/mol)

>  <smiles>  (30) 
Cc1ccc(NC(=O)c2ccc(CNS(=O)(=O)c3c(C)cc(C)cc3C)cc2)cc1

>  <score_type>  (30) 
oracle

>  <origin>  (30) 
adgpu

>  <m_score__min__energy>  (30) 
-11.859999999999999

>  <m_primary>  (30) 
energy

$$$$
30:0
     RDKit          3D

 43 45  0  0  0  0  0  0  0  0999 V2000
   -2.7480   17.5390  -34.4880 C   0  0  0  0  0  0  0  0  0  0  0  0
   -4.0500   17.9690  -34.8720 O   0  0  0  0  0  0  0  0  0  0  0  0
   -4.9920   18.5230  -33.9940 C   0  0  0  0  0  0  0  0  0  0  0  0
   -6.0600   19.3220  -34.4400 C   0  0  0  0  0  0  0  0  0  0  0  0
   -6.9750   19.8520  -33.5250 C   0  0  0  0  0  0  0  0  0  0  0  0
   -6.8370   19.5910  -32.1500 C   0  0  0  0  0  0  0  0  0  0  0  0
   -7.7510   20.1140  -31.1780 N   0  0  0  0  0  0  0  0  0  0  0  0
   -8.2520   21.7700  -31.0630 S   0  0  0  0  0  0  0  0  0  0  0  0
   -9.0300   22.1360  -32.2970 O   0  0  0  0  0  0  0  0  0  0  0  0
   -9.1410   21.9350  -29.8620 O   0  0  0  0  0  0  0  0  0  0  0  0
   -6.8450   22.8090  -30.8760 C   0  0  0  0  0  0  0  0  0  0  0  0
   -6.9690   24.0810  -30.3050 C   0  0  0  0  0  0  0  0  0  0  0  0
   -5.8490   24.9050  -30.1800 C   0  0  0  0  0  0  0  0  0  0  0  0
   -4.5960   24.4590  -30.6080 C   0  0  0  0  0  0  0  0  0  0  0  0
   -3.4930   25.2930  -30.4720 O   0  0  0  0  0  0  0  0  0  0  0  0
   -4.4520   23.1720  -31.1570 C   0  0  0  0  0  0  0  0  0  0  0  0
   -3.1560   22.7280  -31.5980 N   0  0  0  0  0  0  0  0  0  0  0  0
   -2.9600   21.7430  -32.6290 C   0  0  0  0  0  0  0  0  0  0  0  0
   -3.9320   21.3780  -33.3450 O   0  0  0  0  0  0  0  0  0  0  0  0
   -1.6300   21.1340  -32.8620 C   0  0  0  0  0  0  0  0  0  0  0  0
   -1.1630   20.8690  -34.1620 C   0  0  0  0  0  0  0  0  0  0  0  0
    0.1070   20.3110  -34.3430 C   0  0  0  0  0  0  0  0  0  0  0  0
    0.8910   20.0360  -33.2670 N   0  0  0  0  0  0  0  0  0  0  0  0
    0.4730   20.2910  -31.9990 C   0  0  0  0  0  0  0  0  0  0  0  0
   -0.7890   20.8450  -31.7730 C   0  0  0  0  0  0  0  0  0  0  0  0
   -5.5900   22.3590  -31.3060 C   0  0  0  0  0  0  0  0  0  0  0  0
   -5.7720   18.7980  -31.7100 C   0  0  0  0  0  0  0  0  0  0  0  0
   -4.8560   18.2700  -32.6240 C   0  0  0  0  0  0  0  0  0  0  0  0
   -2.6783   17.5160  -33.3905 H   0  0  0  0  0  0  0  0  0  0  0  0
   -2.5616   16.5316  -34.8884 H   0  0  0  0  0  0  0  0  0  0  0  0
   -1.9983   18.2373  -34.8884 H   0  0  0  0  0  0  0  0  0  0  0  0
   -6.1761   19.5310  -35.5137 H   0  0  0  0  0  0  0  0  0  0  0  0
   -7.8071   20.4763  -33.8826 H   0  0  0  0  0  0  0  0  0  0  0  0
   -7.9507   24.4320  -29.9541 H   0  0  0  0  0  0  0  0  0  0  0  0
   -5.9534   25.9090  -29.7430 H   0  0  0  0  0  0  0  0  0  0  0  0
   -2.3300   23.0740  -31.0640 H   0  0  0  0  0  0  0  0  0  0  0  0
   -1.7940   21.0996  -35.0330 H   0  0  0  0  0  0  0  0  0  0  0  0
    0.4719   20.0944  -35.3578 H   0  0  0  0  0  0  0  0  0  0  0  0
    1.1308   20.0603  -31.1481 H   0  0  0  0  0  0  0  0  0  0  0  0
   -1.1239   21.0545  -30.7464 H   0  0  0  0  0  0  0  0  0  0  0  0
   -5.4939   21.3632  -31.7632 H   0  0  0  0  0  0  0  0  0  0  0  0
   -5.6546   18.5884  -30.6366 H   0  0  0  0  0  0  0  0  0  0  0  0
   -4.0214   17.6506  -32.2639 H   0  0  0  0  0  0  0  0  0  0  0  0
  1  2  1  0
  2  3  1  0
  3  4  2  0
  4  5  1  0
  5  6  2  0
  6  7  1  0
  7  8  1  0
  8  9  2  0
  8 10  2  0
  8 11  1  0
 11 12  2  0
 12 13  1  0
 13 14  2  0
 14 15  1  0
 14 16  1  0
 16 17  1  0
 17 18  1  0
 18 19  2  0
 18 20  1  0
 20 21  2  0
 21 22  1  0
 22 23  2  0
 23 24  1  0
 24 25  2  0
 16 26  2  0
  6 27  1  0
 27 28  2  0
 28  3  1  0
 26 11  1  0
 25 20  1  0
  1 29  1  0
  1 30  1  0
  1 31  1  0
  4 32  1  0
  5 33  1  0
 12 34  1  0
 13 35  1  0
 17 36  1  0
 21 37  1  0
 22 38  1  0
 24 39  1  0
 25 40  1  0
 26 41  1  0
 27 42  1  0
 28 43  1  0
M  CHG  2   7  -1  15  -1
M  END
>  <UniqueID>  (31) 
29

>  <SMILES>  (31) 
COc1ccc([N-]S(=O)(=O)c2ccc([O-])c(NC(=O)c3ccncc3)c2)cc1

>  <Energy>  (31) 
56.69606853652069

>  <Genealogy>  (31) 
COc1ccc([N-]S(=O)(=O)c2ccc([O-])c(NC(=O)c3ccncc3)c2)cc1 (protonated)
COc1ccc([N-]S(=O)(=O)c2ccc([O-])c(NC(=O)c3ccncc3)c2)cc1 (3D coordinates assigned)
COc1ccc([N-]S(=O)(=O)c2ccc([O-])c(NC(=O)c3ccncc3)c2)cc1 (optimized conformer: 56.69606853652069 kcal/mol)

>  <smiles>  (31) 
COc1ccc(NS(=O)(=O)c2ccc(O)c(NC(=O)c3ccncc3)c2)cc1

>  <score_type>  (31) 
oracle

>  <origin>  (31) 
adgpu

>  <m_score__min__energy>  (31) 
-11.359999999999999

>  <m_primary>  (31) 
energy

$$$$
31:0
     RDKit          3D

 35 37  0  0  0  0  0  0  0  0999 V2000
    1.1420   22.3690  -36.5770 O   0  0  0  0  0  0  0  0  0  0  0  0
    0.9620   21.7450  -35.3490 C   0  0  0  0  0  0  0  0  0  0  0  0
    1.9660   20.9290  -34.8260 C   0  0  0  0  0  0  0  0  0  0  0  0
    1.7610   20.2980  -33.5990 C   0  0  0  0  0  0  0  0  0  0  0  0
    0.5970   20.4880  -32.9220 N   0  0  0  0  0  0  0  0  0  0  0  0
   -0.3960   21.2930  -33.3960 C   0  0  0  0  0  0  0  0  0  0  0  0
   -1.6140   21.4380  -32.6430 N   0  0  0  0  0  0  0  0  0  0  0  0
   -2.8990   21.4160  -33.3590 C   0  0  0  0  0  0  0  0  0  0  0  0
   -4.0890   21.5890  -32.4050 C   0  0  0  0  0  0  0  0  0  0  0  0
   -3.8070   22.6410  -31.4180 N   0  0  0  0  0  0  0  0  0  0  0  0
   -4.8840   23.4590  -30.9270 C   0  0  0  0  0  0  0  0  0  0  0  0
   -6.1980   22.9610  -30.9260 C   0  0  0  0  0  0  0  0  0  0  0  0
   -7.2500   23.7440  -30.4410 C   0  0  0  0  0  0  0  0  0  0  0  0
   -7.0000   25.0300  -29.9570 C   0  0  0  0  0  0  0  0  0  0  0  0
   -5.6980   25.5370  -29.9610 C   0  0  0  0  0  0  0  0  0  0  0  0
   -4.6410   24.7610  -30.4480 C   0  0  0  0  0  0  0  0  0  0  0  0
   -3.3590   25.2980  -30.4720 O   0  0  0  0  0  0  0  0  0  0  0  0
   -2.5040   22.6880  -30.7330 C   0  0  0  0  0  0  0  0  0  0  0  0
   -1.6020   21.5350  -31.1770 C   0  0  0  0  0  0  0  0  0  0  0  0
   -0.2270   21.9280  -34.6390 C   0  0  0  0  0  0  0  0  0  0  0  0
    2.9082   20.7850  -35.3750 H   0  0  0  0  0  0  0  0  0  0  0  0
    2.5413   19.6464  -33.1788 H   0  0  0  0  0  0  0  0  0  0  0  0
   -2.9106   22.2343  -34.0940 H   0  0  0  0  0  0  0  0  0  0  0  0
   -2.9974   20.4380  -33.8528 H   0  0  0  0  0  0  0  0  0  0  0  0
   -4.9812   21.8666  -32.9854 H   0  0  0  0  0  0  0  0  0  0  0  0
   -4.2620   20.6405  -31.8754 H   0  0  0  0  0  0  0  0  0  0  0  0
   -6.4001   21.9498  -31.3088 H   0  0  0  0  0  0  0  0  0  0  0  0
   -8.2757   23.3467  -30.4406 H   0  0  0  0  0  0  0  0  0  0  0  0
   -7.8281   25.6437  -29.5727 H   0  0  0  0  0  0  0  0  0  0  0  0
   -5.5034   26.5503  -29.5797 H   0  0  0  0  0  0  0  0  0  0  0  0
   -2.0091   23.6417  -30.9689 H   0  0  0  0  0  0  0  0  0  0  0  0
   -2.6768   22.5972  -29.6505 H   0  0  0  0  0  0  0  0  0  0  0  0
   -0.5744   21.7194  -30.8305 H   0  0  0  0  0  0  0  0  0  0  0  0
   -1.9722   20.5936  -30.7450 H   0  0  0  0  0  0  0  0  0  0  0  0
   -1.0251   22.5641  -35.0493 H   0  0  0  0  0  0  0  0  0  0  0  0
  1  2  1  0
  2  3  2  0
  3  4  1  0
  4  5  2  0
  5  6  1  0
  6  7  1  0
  7  8  1  0
  8  9  1  0
  9 10  1  0
 10 11  1  0
 11 12  2  0
 12 13  1  0
 13 14  2  0
 14 15  1  0
 15 16  2  0
 16 17  1  0
 10 18  1  0
 18 19  1  0
  6 20  2  0
 20  2  1  0
 19  7  1  0
 16 11  1  0
  3 21  1  0
  4 22  1  0
  8 23  1  0
  8 24  1  0
  9 25  1  0
  9 26  1  0
 12 27  1  0
 13 28  1  0
 14 29  1  0
 15 30  1  0
 18 31  1  0
 18 32  1  0
 19 33  1  0
 19 34  1  0
 20 35  1  0
M  CHG  2   1  -1  17  -1
M  END
>  <UniqueID>  (32) 
30

>  <SMILES>  (32) 
[O-]c1ccnc(N2CCN(c3ccccc3[O-])CC2)c1

>  <Energy>  (32) 
46.364187730902096

>  <Genealogy>  (32) 
[O-]c1ccnc(N2CCN(c3ccccc3[O-])CC2)c1 (protonated)
[O-]c1ccnc(N2CCN(c3ccccc3[O-])CC2)c1 (3D coordinates assigned)
[O-]c1ccnc(N2CCN(c3ccccc3[O-])CC2)c1 (nonaromatic ring conformer: 46.364187730902096 kcal/mol)

>  <smiles>  (32) 
Oc1ccnc(N2CCN(c3ccccc3O)CC2)c1

>  <score_type>  (32) 
oracle

>  <origin>  (32) 
adgpu

>  <m_score__min__energy>  (32) 
-10.119999999999999

>  <m_primary>  (32) 
energy

$$$$
32:0
     RDKit          3D

 44 46  0  0  0  0  0  0  0  0999 V2000
    0.2820   26.1890  -27.4610 C   0  0  0  0  0  0  0  0  0  0  0  0
   -1.0110   25.5100  -27.7680 C   0  0  0  0  0  0  0  0  0  0  0  0
   -1.6530   24.6630  -26.8680 C   0  0  0  0  0  0  0  0  0  0  0  0
   -3.0310   24.0570  -27.6190 S   0  0  0  0  0  0  0  0  0  0  0  0
   -2.7480   24.9010  -29.0540 C   0  0  0  0  0  0  0  0  0  0  0  0
   -3.4610   24.8400  -30.1390 N   0  0  0  0  0  0  0  0  0  0  0  0
   -4.6970   24.1330  -30.3090 C   0  0  0  0  0  0  0  0  0  0  0  0
   -5.7730   24.7070  -29.9990 O   0  0  0  0  0  0  0  0  0  0  0  0
   -4.7140   22.7590  -30.7260 N   0  0  0  0  0  0  0  0  0  0  0  0
   -5.8940   22.1020  -31.2180 C   0  0  0  0  0  0  0  0  0  0  0  0
   -7.0290   22.8670  -31.4950 C   0  0  0  0  0  0  0  0  0  0  0  0
   -8.1920   22.2610  -31.9610 C   0  0  0  0  0  0  0  0  0  0  0  0
   -8.2570   20.8710  -32.1480 C   0  0  0  0  0  0  0  0  0  0  0  0
   -9.5460   20.2850  -32.6600 C   0  0  0  0  0  0  0  0  0  0  0  0
   -7.1130   20.0770  -31.8600 C   0  0  0  0  0  0  0  0  0  0  0  0
   -7.0890   18.3030  -32.0400 S   0  0  0  0  0  0  0  0  0  0  0  0
   -6.4930   17.6150  -30.8440 O   0  0  0  0  0  0  0  0  0  0  0  0
   -8.5050   17.8200  -32.1840 O   0  0  0  0  0  0  0  0  0  0  0  0
   -6.1690   17.8550  -33.5210 C   0  0  1  0  0  0  0  0  0  0  0  0
   -5.7930   19.0680  -34.3440 C   0  0  0  0  0  0  0  0  0  0  0  0
   -4.4110   19.4600  -33.8450 C   0  0  0  0  0  0  0  0  0  0  0  0
   -3.8200   18.3040  -33.1640 N   0  0  0  0  0  0  0  0  0  0  0  0
   -4.8230   17.2370  -33.1690 C   0  0  0  0  0  0  0  0  0  0  0  0
   -5.9470   20.7050  -31.3710 C   0  0  0  0  0  0  0  0  0  0  0  0
   -4.8460   19.9350  -31.0070 O   0  0  0  0  0  0  0  0  0  0  0  0
   -1.6120   25.6260  -28.9850 N   0  0  0  0  0  0  0  0  0  0  0  0
    0.4108   26.2566  -26.3707 H   0  0  0  0  0  0  0  0  0  0  0  0
    1.1117   25.6103  -27.8930 H   0  0  0  0  0  0  0  0  0  0  0  0
    0.2766   27.2006  -27.8930 H   0  0  0  0  0  0  0  0  0  0  0  0
   -1.3181   24.4311  -25.8462 H   0  0  0  0  0  0  0  0  0  0  0  0
   -3.8830   22.1690  -30.4920 H   0  0  0  0  0  0  0  0  0  0  0  0
   -7.0036   23.9563  -31.3438 H   0  0  0  0  0  0  0  0  0  0  0  0
   -9.0730   22.8800  -32.1861 H   0  0  0  0  0  0  0  0  0  0  0  0
  -10.1809   19.9963  -31.8094 H   0  0  0  0  0  0  0  0  0  0  0  0
  -10.0711   21.0329  -33.2723 H   0  0  0  0  0  0  0  0  0  0  0  0
   -9.3277   19.3977  -33.2723 H   0  0  0  0  0  0  0  0  0  0  0  0
   -6.8325   17.1670  -34.0655 H   0  0  0  0  0  0  0  0  0  0  0  0
   -5.7619   18.8161  -35.4143 H   0  0  0  0  0  0  0  0  0  0  0  0
   -6.5213   19.8854  -34.2371 H   0  0  0  0  0  0  0  0  0  0  0  0
   -3.7783   19.7536  -34.6956 H   0  0  0  0  0  0  0  0  0  0  0  0
   -4.4868   20.3097  -33.1506 H   0  0  0  0  0  0  0  0  0  0  0  0
   -3.6250   18.5660  -32.1700 H   0  0  0  0  0  0  0  0  0  0  0  0
   -4.5547   16.4766  -33.9172 H   0  0  0  0  0  0  0  0  0  0  0  0
   -4.8715   16.7549  -32.1815 H   0  0  0  0  0  0  0  0  0  0  0  0
  1  2  1  0
  2  3  2  0
  3  4  1  0
  4  5  1  0
  5  6  2  3
  6  7  1  0
  7  8  2  0
  7  9  1  0
  9 10  1  0
 10 11  2  0
 11 12  1  0
 12 13  2  0
 13 14  1  0
 13 15  1  0
 15 16  1  0
 16 17  2  0
 16 18  2  0
 16 19  1  0
 19 20  1  0
 20 21  1  0
 21 22  1  0
 22 23  1  0
 15 24  2  0
 24 25  1  0
  5 26  1  0
 26  2  1  0
 24 10  1  0
 23 19  1  0
  1 27  1  0
  1 28  1  0
  1 29  1  0
  3 30  1  0
  9 31  1  0
 11 32  1  0
 12 33  1  0
 14 34  1  0
 14 35  1  0
 14 36  1  0
 19 37  1  6
 20 38  1  0
 20 39  1  0
 21 40  1  0
 21 41  1  0
 22 42  1  0
 23 43  1  0
 23 44  1  0
M  CHG  2  25  -1  26  -1
M  END
>  <UniqueID>  (33) 
31

>  <SMILES>  (33) 
Cc1csc(=NC(=O)Nc2ccc(C)c(S(=O)(=O)[C@H]3CCNC3)c2[O-])[n-]1

>  <Energy>  (33) 
85.3876907742808

>  <Genealogy>  (33) 
Cc1csc(=NC(=O)Nc2ccc(C)c(S(=O)(=O)C3CCNC3)c2[O-])[n-]1 (protonated)
Cc1csc(=NC(=O)Nc2ccc(C)c(S(=O)(=O)[C@H]3CCNC3)c2[O-])[n-]1 (chirality)
Cc1csc(=NC(=O)Nc2ccc(C)c(S(=O)(=O)[C@H]3CCNC3)c2[O-])[n-]1 (3D coordinates assigned)
Cc1csc(=NC(=O)Nc2ccc(C)c(S(=O)(=O)[C@H]3CCNC3)c2[O-])[n-]1 (nonaromatic ring conformer: 85.3876907742808 kcal/mol)

>  <smiles>  (33) 
Cc1csc(=NC(=O)Nc2ccc(C)c(S(=O)(=O)C3CCNC3)c2O)[nH]1

>  <score_type>  (33) 
oracle

>  <origin>  (33) 
adgpu

>  <m_score__min__energy>  (33) 
-10.949999999999999

>  <m_primary>  (33) 
energy

$$$$
33:0
     RDKit          3D

 43 45  0  0  0  0  0  0  0  0999 V2000
   -0.1020   19.3290  -34.6280 N   0  0  0  0  0  0  0  0  0  0  0  0
   -0.3020   20.7500  -33.6670 S   0  0  0  0  0  0  0  0  0  0  0  0
    0.7410   20.7760  -32.5840 O   0  0  0  0  0  0  0  0  0  0  0  0
   -0.1310   21.9690  -34.5300 O   0  0  0  0  0  0  0  0  0  0  0  0
   -1.9080   20.7460  -32.9460 C   0  0  0  0  0  0  0  0  0  0  0  0
   -2.6300   19.5510  -32.8340 C   0  0  0  0  0  0  0  0  0  0  0  0
   -3.8990   19.5500  -32.2510 C   0  0  0  0  0  0  0  0  0  0  0  0
   -4.4490   20.7390  -31.7650 C   0  0  0  0  0  0  0  0  0  0  0  0
   -3.7200   21.9380  -31.8430 C   0  0  0  0  0  0  0  0  0  0  0  0
   -4.2460   23.1740  -31.3350 N   0  0  0  0  0  0  0  0  0  0  0  0
   -3.5730   24.0780  -30.4470 C   0  0  0  0  0  0  0  0  0  0  0  0
   -3.8550   25.3030  -30.5100 O   0  0  0  0  0  0  0  0  0  0  0  0
   -2.5160   23.6170  -29.5110 C   0  0  0  0  0  0  0  0  0  0  0  0
   -2.4470   22.2630  -29.1400 C   0  0  0  0  0  0  0  0  0  0  0  0
   -1.4820   21.8070  -28.2250 C   0  0  0  0  0  0  0  0  0  0  0  0
   -1.4570   20.4210  -27.8130 N   0  0  0  0  0  0  0  0  0  0  0  0
   -1.9990   20.0230  -26.5060 C   0  0  0  0  0  0  0  0  0  0  0  0
   -2.3270   18.5240  -26.4970 C   0  0  0  0  0  0  0  0  0  0  0  0
   -1.1620   17.6900  -26.8470 N   0  0  0  0  0  0  0  0  0  0  0  0
   -0.2510   18.2820  -27.8510 C   0  0  0  0  0  0  0  0  0  0  0  0
   -0.9050   19.3850  -28.6940 C   0  0  0  0  0  0  0  0  0  0  0  0
   -0.5550   22.7260  -27.7050 C   0  0  0  0  0  0  0  0  0  0  0  0
   -0.5950   24.0680  -28.0890 C   0  0  0  0  0  0  0  0  0  0  0  0
   -1.5670   24.5180  -28.9840 C   0  0  0  0  0  0  0  0  0  0  0  0
   -1.5920   25.8650  -29.3320 O   0  0  0  0  0  0  0  0  0  0  0  0
   -2.4590   21.9380  -32.4530 C   0  0  0  0  0  0  0  0  0  0  0  0
    0.7470   19.4770  -35.2190 H   0  0  0  0  0  0  0  0  0  0  0  0
   -2.1964   18.6110  -33.2061 H   0  0  0  0  0  0  0  0  0  0  0  0
   -4.4669   18.6110  -32.1742 H   0  0  0  0  0  0  0  0  0  0  0  0
   -5.4551   20.7366  -31.3202 H   0  0  0  0  0  0  0  0  0  0  0  0
   -3.1610   21.5472  -29.5734 H   0  0  0  0  0  0  0  0  0  0  0  0
   -1.2544   20.2358  -25.7248 H   0  0  0  0  0  0  0  0  0  0  0  0
   -2.9211   20.5912  -26.3141 H   0  0  0  0  0  0  0  0  0  0  0  0
   -2.6719   18.2442  -25.4906 H   0  0  0  0  0  0  0  0  0  0  0  0
   -3.1050   18.3470  -27.2542 H   0  0  0  0  0  0  0  0  0  0  0  0
   -0.6120   17.5150  -25.9730 H   0  0  0  0  0  0  0  0  0  0  0  0
    0.6145   18.7120  -27.3256 H   0  0  0  0  0  0  0  0  0  0  0  0
    0.0390   17.4758  -28.5408 H   0  0  0  0  0  0  0  0  0  0  0  0
   -0.1509   19.8334  -29.3575 H   0  0  0  0  0  0  0  0  0  0  0  0
   -1.7160   18.9498  -29.2964 H   0  0  0  0  0  0  0  0  0  0  0  0
    0.2083   22.3856  -26.9898 H   0  0  0  0  0  0  0  0  0  0  0  0
    0.1440   24.7748  -27.6837 H   0  0  0  0  0  0  0  0  0  0  0  0
   -1.8971   22.8791  -32.5460 H   0  0  0  0  0  0  0  0  0  0  0  0
  1  2  1  0
  2  3  2  0
  2  4  2  0
  2  5  1  0
  5  6  2  0
  6  7  1  0
  7  8  2  0
  8  9  1  0
  9 10  1  0
 10 11  1  0
 11 12  2  0
 11 13  1  0
 13 14  2  0
 14 15  1  0
 15 16  1  0
 16 17  1  0
 17 18  1  0
 18 19  1  0
 19 20  1  0
 20 21  1  0
 15 22  2  0
 22 23  1  0
 23 24  2  0
 24 25  1  0
  9 26  2  0
 26  5  1  0
 24 13  1  0
 21 16  1  0
  1 27  1  0
  6 28  1  0
  7 29  1  0
  8 30  1  0
 14 31  1  0
 17 32  1  0
 17 33  1  0
 18 34  1  0
 18 35  1  0
 19 36  1  0
 20 37  1  0
 20 38  1  0
 21 39  1  0
 21 40  1  0
 22 41  1  0
 23 42  1  0
 26 43  1  0
M  CHG  3   1  -1  10  -1  25  -1
M  END
>  <UniqueID>  (34) 
32

>  <SMILES>  (34) 
[NH-]S(=O)(=O)c1cccc([N-]C(=O)c2cc(N3CCNCC3)ccc2[O-])c1

>  <Energy>  (34) 
59.50181755474529

>  <Genealogy>  (34) 
[NH-]S(=O)(=O)c1cccc([N-]C(=O)c2cc(N3CCNCC3)ccc2[O-])c1 (protonated)
[NH-]S(=O)(=O)c1cccc([N-]C(=O)c2cc(N3CCNCC3)ccc2[O-])c1 (3D coordinates assigned)
[NH-]S(=O)(=O)c1cccc([N-]C(=O)c2cc(N3CCNCC3)ccc2[O-])c1 (nonaromatic ring conformer: 59.50181755474529 kcal/mol)

>  <smiles>  (34) 
NS(=O)(=O)c1cccc(NC(=O)c2cc(N3CCNCC3)ccc2O)c1

>  <score_type>  (34) 
oracle

>  <origin>  (34) 
adgpu

>  <m_score__min__energy>  (34) 
-13.369999999999999

>  <m_primary>  (34) 
energy

$$$$
34:0
     RDKit          3D

 25 26  0  0  0  0  0  0  0  0999 V2000
   -8.1970   22.2170  -30.3620 O   0  0  0  0  0  0  0  0  0  0  0  0
   -7.2970   22.0080  -31.5490 S   0  0  0  0  0  0  0  0  0  0  0  0
   -7.7460   22.9340  -32.6440 O   0  0  0  0  0  0  0  0  0  0  0  0
   -7.4020   20.3390  -32.0930 C   0  0  0  0  0  0  0  0  0  0  0  0
   -8.3830   19.4860  -31.5720 C   0  0  0  0  0  0  0  0  0  0  0  0
   -8.4630   18.1700  -32.0330 C   0  0  0  0  0  0  0  0  0  0  0  0
   -7.5980   17.7280  -32.9850 N   0  0  0  0  0  0  0  0  0  0  0  0
   -6.6430   18.5380  -33.5130 C   0  0  0  0  0  0  0  0  0  0  0  0
   -5.5590   17.9170  -34.7420 Cl  0  0  0  0  0  0  0  0  0  0  0  0
   -6.5290   19.8620  -33.0780 C   0  0  0  0  0  0  0  0  0  0  0  0
   -5.6320   22.3640  -31.1090 C   0  0  0  0  0  0  0  0  0  0  0  0
   -4.7080   21.3230  -30.9450 C   0  0  0  0  0  0  0  0  0  0  0  0
   -3.3790   21.6070  -30.6140 C   0  0  0  0  0  0  0  0  0  0  0  0
   -2.9630   22.9360  -30.4520 C   0  0  0  0  0  0  0  0  0  0  0  0
   -1.6400   23.2260  -30.1230 O   0  0  0  0  0  0  0  0  0  0  0  0
   -3.8830   23.9780  -30.6260 C   0  0  0  0  0  0  0  0  0  0  0  0
   -3.4780   25.2990  -30.4720 O   0  0  0  0  0  0  0  0  0  0  0  0
   -5.2120   23.6930  -30.9550 C   0  0  0  0  0  0  0  0  0  0  0  0
   -9.0844   19.8493  -30.8064 H   0  0  0  0  0  0  0  0  0  0  0  0
   -9.2262   17.4905  -31.6258 H   0  0  0  0  0  0  0  0  0  0  0  0
   -5.7605   20.5226  -33.5058 H   0  0  0  0  0  0  0  0  0  0  0  0
   -5.0290   20.2792  -31.0770 H   0  0  0  0  0  0  0  0  0  0  0  0
   -2.6590   20.7862  -30.4806 H   0  0  0  0  0  0  0  0  0  0  0  0
   -1.2860   24.1750  -30.1400 H   0  0  0  0  0  0  0  0  0  0  0  0
   -5.9305   24.5143  -31.0935 H   0  0  0  0  0  0  0  0  0  0  0  0
  1  2  2  0
  2  3  2  0
  2  4  1  0
  4  5  2  0
  5  6  1  0
  6  7  2  0
  7  8  1  0
  8  9  1  0
  8 10  2  0
  2 11  1  0
 11 12  2  0
 12 13  1  0
 13 14  2  0
 14 15  1  0
 14 16  1  0
 16 17  1  0
 16 18  2  0
 10  4  1  0
 18 11  1  0
  5 19  1  0
  6 20  1  0
 10 21  1  0
 12 22  1  0
 13 23  1  0
 15 24  1  0
 18 25  1  0
M  CHG  1  17  -1
M  END
>  <UniqueID>  (35) 
33

>  <SMILES>  (35) 
O=S(=O)(c1ccnc(Cl)c1)c1ccc(O)c([O-])c1

>  <Energy>  (35) 
28.305515725169407

>  <Genealogy>  (35) 
O=S(=O)(c1ccnc(Cl)c1)c1ccc(O)c([O-])c1 (protonated)
O=S(=O)(c1ccnc(Cl)c1)c1ccc(O)c([O-])c1 (3D coordinates assigned)
O=S(=O)(c1ccnc(Cl)c1)c1ccc(O)c([O-])c1 (optimized conformer: 28.305515725169407 kcal/mol)

>  <smiles>  (35) 
O=S(=O)(c1ccnc(Cl)c1)c1ccc(O)c(O)c1

>  <score_type>  (35) 
oracle

>  <origin>  (35) 
adgpu

>  <m_score__min__energy>  (35) 
-10.06

>  <m_primary>  (35) 
energy

$$$$
35:0
     RDKit          3D

 52 56  0  0  0  0  0  0  0  0999 V2000
   -9.7300   21.7350  -31.5340 C   0  0  0  0  0  0  0  0  0  0  0  0
   -8.5780   21.4890  -32.3340 O   0  0  0  0  0  0  0  0  0  0  0  0
   -7.9160   20.2560  -32.4070 C   0  0  0  0  0  0  0  0  0  0  0  0
   -8.5770   19.1100  -31.9060 C   0  0  0  0  0  0  0  0  0  0  0  0
   -7.9750   17.8410  -31.9740 C   0  0  0  0  0  0  0  0  0  0  0  0
   -6.7110   17.7490  -32.5520 C   0  0  0  0  0  0  0  0  0  0  0  0
   -5.9810   16.6350  -32.7320 N   0  0  0  0  0  0  0  0  0  0  0  0
   -4.8420   17.0300  -33.3440 C   0  0  0  0  0  0  0  0  0  0  0  0
   -4.8540   18.4060  -33.5560 C   0  0  0  0  0  0  0  0  0  0  0  0
   -3.7680   19.2110  -34.2160 C   0  0  0  0  0  0  0  0  0  0  0  0
   -2.6410   19.5100  -33.2440 C   0  0  0  0  0  0  0  0  0  0  0  0
   -1.5120   18.6730  -33.3000 C   0  0  0  0  0  0  0  0  0  0  0  0
   -0.4280   18.9090  -32.5210 N   0  0  0  0  0  0  0  0  0  0  0  0
   -0.3790   19.9500  -31.6570 C   0  0  0  0  0  0  0  0  0  0  0  0
   -1.4720   20.8150  -31.5330 C   0  0  0  0  0  0  0  0  0  0  0  0
   -1.4120   21.8910  -30.6370 C   0  0  0  0  0  0  0  0  0  0  0  0
   -2.4990   22.7510  -30.4970 C   0  0  0  0  0  0  0  0  0  0  0  0
   -3.6660   22.5460  -31.2410 C   0  0  0  0  0  0  0  0  0  0  0  0
   -4.7960   23.4200  -31.0600 N   0  0  0  0  0  0  0  0  0  0  0  0
   -6.1470   22.9730  -31.4170 C   0  0  0  0  0  0  0  0  0  0  0  0
   -7.1750   23.4030  -30.3540 C   0  0  0  0  0  0  0  0  0  0  0  0
   -6.9290   24.8100  -29.7480 C   0  0  0  0  0  0  0  0  0  0  0  0
   -5.8630   25.6310  -30.4830 C   0  0  0  0  0  0  0  0  0  0  0  0
   -4.6370   24.7940  -30.6690 C   0  0  0  0  0  0  0  0  0  0  0  0
   -3.4960   25.2920  -30.4720 O   0  0  0  0  0  0  0  0  0  0  0  0
   -3.7330   21.4680  -32.1400 C   0  0  0  0  0  0  0  0  0  0  0  0
   -2.6340   20.5950  -32.3180 C   0  0  0  0  0  0  0  0  0  0  0  0
   -6.0570   18.8520  -33.0360 C   0  0  0  0  0  0  0  0  0  0  0  0
   -6.6230   20.1250  -32.9710 C   0  0  0  0  0  0  0  0  0  0  0  0
   -9.4568   21.6767  -30.4701 H   0  0  0  0  0  0  0  0  0  0  0  0
  -10.1240   22.7375  -31.7570 H   0  0  0  0  0  0  0  0  0  0  0  0
  -10.4991   20.9808  -31.7570 H   0  0  0  0  0  0  0  0  0  0  0  0
   -9.5759   19.2130  -31.4570 H   0  0  0  0  0  0  0  0  0  0  0  0
   -8.4862   16.9489  -31.5830 H   0  0  0  0  0  0  0  0  0  0  0  0
   -6.2390   15.6610  -32.4610 H   0  0  0  0  0  0  0  0  0  0  0  0
   -4.0207   16.3582  -33.6339 H   0  0  0  0  0  0  0  0  0  0  0  0
   -3.3664   18.6422  -35.0675 H   0  0  0  0  0  0  0  0  0  0  0  0
   -4.1980   20.1647  -34.5560 H   0  0  0  0  0  0  0  0  0  0  0  0
   -1.5086   17.8136  -33.9866 H   0  0  0  0  0  0  0  0  0  0  0  0
    0.5233   20.1165  -31.0502 H   0  0  0  0  0  0  0  0  0  0  0  0
   -0.5022   22.0573  -30.0414 H   0  0  0  0  0  0  0  0  0  0  0  0
   -2.4394   23.5971  -29.7966 H   0  0  0  0  0  0  0  0  0  0  0  0
   -6.4265   23.4136  -32.3854 H   0  0  0  0  0  0  0  0  0  0  0  0
   -6.1461   21.8746  -31.4764 H   0  0  0  0  0  0  0  0  0  0  0  0
   -8.1716   23.3997  -30.8196 H   0  0  0  0  0  0  0  0  0  0  0  0
   -7.0833   22.6864  -29.5245 H   0  0  0  0  0  0  0  0  0  0  0  0
   -7.8760   25.3689  -29.7769 H   0  0  0  0  0  0  0  0  0  0  0  0
   -6.5586   24.6538  -28.7241 H   0  0  0  0  0  0  0  0  0  0  0  0
   -6.2496   25.9401  -31.4653 H   0  0  0  0  0  0  0  0  0  0  0  0
   -5.6134   26.5247  -29.8923 H   0  0  0  0  0  0  0  0  0  0  0  0
   -4.6556   21.3001  -32.7151 H   0  0  0  0  0  0  0  0  0  0  0  0
   -6.0798   21.0042  -33.3477 H   0  0  0  0  0  0  0  0  0  0  0  0
  1  2  1  0
  2  3  1  0
  3  4  2  0
  4  5  1  0
  5  6  2  0
  6  7  1  0
  7  8  1  0
  8  9  2  0
  9 10  1  0
 10 11  1  0
 11 12  2  0
 12 13  1  0
 13 14  2  0
 14 15  1  0
 15 16  2  0
 16 17  1  0
 17 18  2  0
 18 19  1  0
 19 20  1  0
 20 21  1  0
 21 22  1  0
 22 23  1  0
 23 24  1  0
 24 25  2  0
 18 26  1  0
 26 27  2  0
  9 28  1  0
 28 29  2  0
 29  3  1  0
 28  6  1  0
 27 11  1  0
 27 15  1  0
 24 19  1  0
  1 30  1  0
  1 31  1  0
  1 32  1  0
  4 33  1  0
  5 34  1  0
  7 35  1  0
  8 36  1  0
 10 37  1  0
 10 38  1  0
 12 39  1  0
 14 40  1  0
 16 41  1  0
 17 42  1  0
 20 43  1  0
 20 44  1  0
 21 45  1  0
 21 46  1  0
 22 47  1  0
 22 48  1  0
 23 49  1  0
 23 50  1  0
 26 51  1  0
 29 52  1  0
M  END
>  <UniqueID>  (36) 
34

>  <SMILES>  (36) 
COc1ccc2[nH]cc(Cc3cncc4ccc(N5CCCCC5=O)cc34)c2c1

>  <Energy>  (36) 
103.71073389442579

>  <Genealogy>  (36) 
COc1ccc2[nH]cc(Cc3cncc4ccc(N5CCCCC5=O)cc34)c2c1 (3D coordinates assigned)
COc1ccc2[nH]cc(Cc3cncc4ccc(N5CCCCC5=O)cc34)c2c1 (nonaromatic ring conformer: 103.71073389442579 kcal/mol)

>  <smiles>  (36) 
COc1ccc2[nH]cc(Cc3cncc4ccc(N5CCCCC5=O)cc34)c2c1

>  <score_type>  (36) 
oracle

>  <origin>  (36) 
adgpu

>  <m_score__min__energy>  (36) 
-10.130000000000001

>  <m_primary>  (36) 
energy

$$$$
36:0
     RDKit          3D

 34 36  0  0  0  0  0  0  0  0999 V2000
   -4.4110   19.7410  -33.4420 C   0  0  0  0  0  0  0  0  0  0  0  0
   -5.2600   20.6190  -32.6260 N   0  0  0  0  0  0  0  0  0  0  0  0
   -6.6850   20.3930  -32.5340 C   0  0  0  0  0  0  0  0  0  0  0  0
   -7.2440   19.1190  -32.7600 C   0  0  0  0  0  0  0  0  0  0  0  0
   -8.6230   18.9240  -32.6550 C   0  0  0  0  0  0  0  0  0  0  0  0
   -9.4580   19.9890  -32.3200 C   0  0  0  0  0  0  0  0  0  0  0  0
   -8.9180   21.2530  -32.0780 C   0  0  0  0  0  0  0  0  0  0  0  0
   -7.5310   21.4590  -32.1620 C   0  0  0  0  0  0  0  0  0  0  0  0
   -6.9660   22.8390  -31.9420 C   0  0  0  0  0  0  0  0  0  0  0  0
   -5.5190   22.8050  -31.5170 C   0  0  0  0  0  0  0  0  0  0  0  0
   -4.9770   23.8910  -30.8140 C   0  0  0  0  0  0  0  0  0  0  0  0
   -3.6270   23.9040  -30.4450 C   0  0  0  0  0  0  0  0  0  0  0  0
   -3.1270   25.0360  -29.7200 N   0  0  0  0  0  0  0  0  0  0  0  0
   -1.7290   25.0530  -28.6950 S   0  0  0  0  0  0  0  0  0  0  0  0
   -0.4800   24.0710  -29.3800 N   0  0  0  0  0  0  0  0  0  0  0  0
   -2.0900   24.5570  -27.3210 O   0  0  0  0  0  0  0  0  0  0  0  0
   -1.2310   26.4650  -28.5820 O   0  0  0  0  0  0  0  0  0  0  0  0
   -2.8120   22.8130  -30.7890 C   0  0  0  0  0  0  0  0  0  0  0  0
   -3.3400   21.7360  -31.5040 C   0  0  0  0  0  0  0  0  0  0  0  0
   -4.6920   21.7270  -31.8930 C   0  0  0  0  0  0  0  0  0  0  0  0
   -3.7986   19.1077  -32.7834 H   0  0  0  0  0  0  0  0  0  0  0  0
   -5.0450   19.1046  -34.0769 H   0  0  0  0  0  0  0  0  0  0  0  0
   -3.7537   20.3532  -34.0769 H   0  0  0  0  0  0  0  0  0  0  0  0
   -6.5904   18.2735  -33.0206 H   0  0  0  0  0  0  0  0  0  0  0  0
   -9.0514   17.9274  -32.8371 H   0  0  0  0  0  0  0  0  0  0  0  0
  -10.5444   19.8328  -32.2463 H   0  0  0  0  0  0  0  0  0  0  0  0
   -9.5815   22.0917  -31.8203 H   0  0  0  0  0  0  0  0  0  0  0  0
   -7.0457   23.4074  -32.8804 H   0  0  0  0  0  0  0  0  0  0  0  0
   -7.5426   23.3135  -31.1342 H   0  0  0  0  0  0  0  0  0  0  0  0
   -5.6208   24.7428  -30.5495 H   0  0  0  0  0  0  0  0  0  0  0  0
   -0.7370   23.0760  -29.1920 H   0  0  0  0  0  0  0  0  0  0  0  0
   -0.5110   24.2000  -30.4150 H   0  0  0  0  0  0  0  0  0  0  0  0
   -1.7524   22.8069  -30.4937 H   0  0  0  0  0  0  0  0  0  0  0  0
   -2.6924   20.8862  -31.7657 H   0  0  0  0  0  0  0  0  0  0  0  0
  1  2  1  0
  2  3  1  0
  3  4  2  0
  4  5  1  0
  5  6  2  0
  6  7  1  0
  7  8  2  0
  8  9  1  0
  9 10  1  0
 10 11  2  0
 11 12  1  0
 12 13  1  0
 13 14  1  0
 14 15  1  0
 14 16  2  0
 14 17  2  0
 12 18  2  0
 18 19  1  0
 19 20  2  0
 20  2  1  0
  8  3  1  0
 20 10  1  0
  1 21  1  0
  1 22  1  0
  1 23  1  0
  4 24  1  0
  5 25  1  0
  6 26  1  0
  7 27  1  0
  9 28  1  0
  9 29  1  0
 11 30  1  0
 15 31  1  0
 15 32  1  0
 18 33  1  0
 19 34  1  0
M  CHG  1  13  -1
M  END
>  <UniqueID>  (37) 
35

>  <SMILES>  (37) 
CN1c2ccccc2Cc2cc([N-]S(N)(=O)=O)ccc21

>  <Energy>  (37) 
44.54907104359417

>  <Genealogy>  (37) 
CN1c2ccccc2Cc2cc([N-]S(N)(=O)=O)ccc21 (protonated)
CN1c2ccccc2Cc2cc([N-]S(N)(=O)=O)ccc21 (3D coordinates assigned)
CN1c2ccccc2Cc2cc([N-]S(N)(=O)=O)ccc21 (nonaromatic ring conformer: 44.54907104359417 kcal/mol)

>  <smiles>  (37) 
CN1c2ccccc2Cc2cc(NS(N)(=O)=O)ccc21

>  <score_type>  (37) 
oracle

>  <origin>  (37) 
adgpu

>  <m_score__min__energy>  (37) 
-9.7699999999999996

>  <m_primary>  (37) 
energy

$$$$
37:0
     RDKit          3D

 58 61  0  0  0  0  0  0  0  0999 V2000
   -1.0460   25.4510  -25.1610 C   0  0  0  0  0  0  0  0  0  0  0  0
   -0.1870   24.7210  -26.1890 C   0  0  0  0  0  0  0  0  0  0  0  0
   -0.8970   24.6410  -27.5060 C   0  0  0  0  0  0  0  0  0  0  0  0
   -0.2960   24.2650  -28.6530 N   0  0  0  0  0  0  0  0  0  0  0  0
   -1.1290   24.2110  -29.6920 N   0  0  0  0  0  0  0  0  0  0  0  0
   -2.3990   24.5320  -29.3710 C   0  0  0  0  0  0  0  0  0  0  0  0
   -3.3570   24.5320  -30.2440 N   0  0  0  0  0  0  0  0  0  0  0  0
   -5.0100   24.9220  -29.8960 S   0  0  0  0  0  0  0  0  0  0  0  0
   -5.2310   24.9260  -28.4090 O   0  0  0  0  0  0  0  0  0  0  0  0
   -5.3320   26.2760  -30.4660 O   0  0  0  0  0  0  0  0  0  0  0  0
   -6.0600   23.7190  -30.6380 C   0  0  0  0  0  0  0  0  0  0  0  0
   -5.7420   23.1860  -31.8930 C   0  0  0  0  0  0  0  0  0  0  0  0
   -6.5500   22.1980  -32.4660 C   0  0  0  0  0  0  0  0  0  0  0  0
   -7.6840   21.7260  -31.7800 C   0  0  0  0  0  0  0  0  0  0  0  0
   -8.5220   20.6840  -32.3030 N   0  0  0  0  0  0  0  0  0  0  0  0
   -8.2470   19.2740  -32.3190 C   0  0  0  0  0  0  0  0  0  0  0  0
   -9.1860   18.4350  -32.2670 O   0  0  0  0  0  0  0  0  0  0  0  0
   -6.8690   18.7820  -32.4830 C   0  0  0  0  0  0  0  0  0  0  0  0
   -6.1370   19.0440  -33.5760 C   0  0  0  0  0  0  0  0  0  0  0  0
   -4.8070   18.4310  -33.8230 C   0  0  0  0  0  0  0  0  0  0  0  0
   -3.6120   19.1410  -33.5890 C   0  0  0  0  0  0  0  0  0  0  0  0
   -2.3670   18.5170  -33.7400 C   0  0  0  0  0  0  0  0  0  0  0  0
   -1.1820   19.2750  -33.4670 N   0  0  0  0  0  0  0  0  0  0  0  0
   -1.1440   20.9370  -32.9800 S   0  0  0  0  0  0  0  0  0  0  0  0
    0.2350   21.5010  -33.1640 O   0  0  0  0  0  0  0  0  0  0  0  0
   -2.0930   21.7210  -33.8420 O   0  0  0  0  0  0  0  0  0  0  0  0
   -1.6610   21.0660  -31.3030 C   0  0  0  0  0  0  0  0  0  0  0  0
   -3.0150   21.2790  -31.0080 C   0  0  0  0  0  0  0  0  0  0  0  0
   -3.4420   21.3520  -29.6750 C   0  0  0  0  0  0  0  0  0  0  0  0
   -2.5200   21.1980  -28.6340 C   0  0  0  0  0  0  0  0  0  0  0  0
   -1.1690   20.9820  -28.9240 C   0  0  0  0  0  0  0  0  0  0  0  0
   -0.7390   20.9230  -30.2530 C   0  0  0  0  0  0  0  0  0  0  0  0
   -2.3150   17.1800  -34.1640 C   0  0  0  0  0  0  0  0  0  0  0  0
   -3.4900   16.4820  -34.4440 C   0  0  0  0  0  0  0  0  0  0  0  0
   -4.7320   17.1010  -34.2840 C   0  0  0  0  0  0  0  0  0  0  0  0
   -5.8860   16.3770  -34.5640 O   0  0  0  0  0  0  0  0  0  0  0  0
   -8.0290   22.3050  -30.5530 C   0  0  0  0  0  0  0  0  0  0  0  0
   -7.2170   23.2870  -29.9780 C   0  0  0  0  0  0  0  0  0  0  0  0
   -2.5490   24.9060  -27.7320 S   0  0  0  0  0  0  0  0  0  0  0  0
   -0.7200   25.1739  -24.1476 H   0  0  0  0  0  0  0  0  0  0  0  0
   -0.9371   26.5371  -25.2971 H   0  0  0  0  0  0  0  0  0  0  0  0
   -2.1003   25.1683  -25.2971 H   0  0  0  0  0  0  0  0  0  0  0  0
    0.7599   25.2650  -26.3209 H   0  0  0  0  0  0  0  0  0  0  0  0
    0.0084   23.7004  -25.8282 H   0  0  0  0  0  0  0  0  0  0  0  0
   -4.8526   23.5458  -32.4311 H   0  0  0  0  0  0  0  0  0  0  0  0
   -6.2980   21.7891  -33.4556 H   0  0  0  0  0  0  0  0  0  0  0  0
   -6.4233   18.1772  -31.6795 H   0  0  0  0  0  0  0  0  0  0  0  0
   -6.5397   19.7441  -34.3227 H   0  0  0  0  0  0  0  0  0  0  0  0
   -3.6576   20.1970  -33.2844 H   0  0  0  0  0  0  0  0  0  0  0  0
   -3.7438   21.3891  -31.8245 H   0  0  0  0  0  0  0  0  0  0  0  0
   -4.5032   21.5306  -29.4471 H   0  0  0  0  0  0  0  0  0  0  0  0
   -2.8575   21.2468  -27.5882 H   0  0  0  0  0  0  0  0  0  0  0  0
   -0.4442   20.8584  -28.1058 H   0  0  0  0  0  0  0  0  0  0  0  0
    0.3261   20.7639  -30.4774 H   0  0  0  0  0  0  0  0  0  0  0  0
   -1.3419   16.6795  -34.2762 H   0  0  0  0  0  0  0  0  0  0  0  0
   -3.4382   15.4399  -34.7922 H   0  0  0  0  0  0  0  0  0  0  0  0
   -8.9463   21.9847  -30.0372 H   0  0  0  0  0  0  0  0  0  0  0  0
   -7.4877   23.7216  -29.0044 H   0  0  0  0  0  0  0  0  0  0  0  0
  1  2  1  0
  2  3  1  0
  3  4  2  0
  4  5  1  0
  5  6  1  0
  6  7  2  3
  7  8  1  0
  8  9  2  0
  8 10  2  0
  8 11  1  0
 11 12  2  0
 12 13  1  0
 13 14  2  0
 14 15  1  0
 15 16  1  0
 16 17  2  0
 16 18  1  0
 18 19  2  3
 19 20  1  0
 20 21  2  0
 21 22  1  0
 22 23  1  0
 23 24  1  0
 24 25  2  0
 24 26  2  0
 24 27  1  0
 27 28  2  0
 28 29  1  0
 29 30  2  0
 30 31  1  0
 31 32  2  0
 22 33  2  0
 33 34  1  0
 34 35  2  0
 35 36  1  0
 14 37  1  0
 37 38  2  0
  6 39  1  0
 39  3  1  0
 38 11  1  0
 35 20  1  0
 32 27  1  0
  1 40  1  0
  1 41  1  0
  1 42  1  0
  2 43  1  0
  2 44  1  0
 12 45  1  0
 13 46  1  0
 18 47  1  0
 19 48  1  0
 21 49  1  0
 28 50  1  0
 29 51  1  0
 30 52  1  0
 31 53  1  0
 32 54  1  0
 33 55  1  0
 34 56  1  0
 37 57  1  0
 38 58  1  0
M  CHG  4   5  -1  15  -1  23  -1  36  -1
M  END
>  <UniqueID>  (38) 
36

>  <SMILES>  (38) 
CCc1n[n-]c(=NS(=O)(=O)c2ccc([N-]C(=O)C=Cc3cc([N-]S(=O)(=O)c4ccccc4)ccc3[O-])cc2)s1

>  <Energy>  (38) 
108.05705725314213

>  <Genealogy>  (38) 
CCc1n[n-]c(=NS(=O)(=O)c2ccc([N-]C(=O)C=Cc3cc([N-]S(=O)(=O)c4ccccc4)ccc3[O-])cc2)s1 (protonated)
CCc1n[n-]c(=NS(=O)(=O)c2ccc([N-]C(=O)C=Cc3cc([N-]S(=O)(=O)c4ccccc4)ccc3[O-])cc2)s1 (3D coordinates assigned)
CCc1n[n-]c(=NS(=O)(=O)c2ccc([N-]C(=O)C=Cc3cc([N-]S(=O)(=O)c4ccccc4)ccc3[O-])cc2)s1 (optimized conformer: 108.05705725314213 kcal/mol)

>  <smiles>  (38) 
CCc1n[nH]c(=NS(=O)(=O)c2ccc(NC(=O)C=Cc3cc(NS(=O)(=O)c4ccccc4)ccc3O)cc2)s1

>  <score_type>  (38) 
oracle

>  <origin>  (38) 
adgpu

>  <m_score__min__energy>  (38) 
-15.119999999999999

>  <m_primary>  (38) 
energy

$$$$
38:0
     RDKit          3D

 40 42  0  0  1  0  0  0  0  0999 V2000
    0.4730   22.4150  -27.8220 N   0  0  0  0  0  0  0  0  0  0  0  0
   -0.4420   23.3100  -27.8300 C   0  0  0  0  0  0  0  0  0  0  0  0
   -0.5670   24.0040  -26.6470 N   0  0  0  0  0  0  0  0  0  0  0  0
   -1.5270   24.9460  -26.6310 C   0  0  0  0  0  0  0  0  0  0  0  0
   -2.3300   25.2260  -27.6600 N   0  0  0  0  0  0  0  0  0  0  0  0
   -2.2240   24.5470  -28.8420 C   0  0  0  0  0  0  0  0  0  0  0  0
   -3.0890   24.9050  -29.8290 O   0  0  0  0  0  0  0  0  0  0  0  0
   -4.2940   24.3390  -30.1400 C   0  0  0  0  0  0  0  0  0  0  0  0
   -4.2500   23.1240  -30.8330 C   0  0  0  0  0  0  0  0  0  0  0  0
   -5.4300   22.4990  -31.1770 C   0  0  0  0  0  0  0  0  0  0  0  0
   -6.6790   23.0290  -30.8600 C   0  0  0  0  0  0  0  0  0  0  0  0
   -8.1000   22.1400  -31.3650 S   0  0  0  0  0  0  0  0  0  0  0  0
   -8.9020   22.9850  -32.3340 O   0  0  0  0  0  0  0  0  0  0  0  0
   -8.9500   21.8890  -30.1380 O   0  0  0  0  0  0  0  0  0  0  0  0
   -7.7240   20.5960  -32.0570 C   0  0  0  0  0  0  0  0  0  0  0  0
   -8.4140   19.4750  -31.6460 C   0  0  0  0  0  0  0  0  0  0  0  0
   -8.2000   18.2130  -32.1300 C   0  0  0  0  0  0  0  0  0  0  0  0
   -7.2230   18.0240  -33.1050 C   0  0  0  0  0  0  0  0  0  0  0  0
   -6.5240   19.1330  -33.5270 C   0  0  0  0  0  0  0  0  0  0  0  0
   -6.7580   20.4060  -33.0210 C   0  0  0  0  0  0  0  0  0  0  0  0
   -6.7260   24.2100  -30.1840 C   0  0  0  0  0  0  0  0  0  0  0  0
   -5.5240   24.8310  -29.8450 C   0  0  0  0  0  0  0  0  0  0  0  0
   -1.2590   23.5800  -28.9000 C   0  0  0  0  0  0  0  0  0  0  0  0
   -1.0760   22.8070  -30.1220 C   0  0  0  0  0  0  0  0  0  0  0  0
   -1.1400   21.4950  -29.9350 N   0  0  0  0  0  0  0  0  0  0  0  0
   -1.3580   20.9990  -28.6820 O   0  0  0  0  0  0  0  0  0  0  0  0
    0.7710   21.7650  -28.5530 H   0  0  0  0  0  0  0  0  0  0  0  0
    0.0480   23.8020  -25.8320 H   0  0  0  0  0  0  0  0  0  0  0  0
   -1.6596   25.5259  -25.7057 H   0  0  0  0  0  0  0  0  0  0  0  0
   -3.2835   22.6720  -31.1007 H   0  0  0  0  0  0  0  0  0  0  0  0
   -5.3835   21.5451  -31.7228 H   0  0  0  0  0  0  0  0  0  0  0  0
   -9.1894   19.6040  -30.8765 H   0  0  0  0  0  0  0  0  0  0  0  0
   -8.7891   17.3627  -31.7558 H   0  0  0  0  0  0  0  0  0  0  0  0
   -7.0177   17.0270  -33.5219 H   0  0  0  0  0  0  0  0  0  0  0  0
   -5.7483   19.0059  -34.2965 H   0  0  0  0  0  0  0  0  0  0  0  0
   -6.1726   21.2612  -33.3897 H   0  0  0  0  0  0  0  0  0  0  0  0
   -7.6901   24.6641  -29.9114 H   0  0  0  0  0  0  0  0  0  0  0  0
   -5.5766   25.7856  -29.3009 H   0  0  0  0  0  0  0  0  0  0  0  0
   -0.9015   23.2675  -31.1056 H   0  0  0  0  0  0  0  0  0  0  0  0
   -0.5470   20.5710  -28.2190 H   0  0  0  0  0  0  0  0  0  0  0  0
  1  2  2  3
  2  3  1  0
  3  4  1  0
  4  5  2  0
  5  6  1  0
  6  7  1  0
  7  8  1  0
  8  9  2  0
  9 10  1  0
 10 11  2  0
 11 12  1  0
 12 13  2  0
 12 14  2  0
 12 15  1  0
 15 16  2  0
 16 17  1  0
 17 18  2  0
 18 19  1  0
 19 20  2  0
 11 21  1  0
 21 22  2  0
  6 23  2  0
 23 24  1  0
 24 25  2  0
 25 26  1  0
 23  2  1  0
 22  8  1  0
 20 15  1  0
  1 27  1  0
  3 28  1  0
  4 29  1  0
  9 30  1  0
 10 31  1  0
 16 32  1  0
 17 33  1  0
 18 34  1  0
 19 35  1  0
 20 36  1  0
 21 37  1  0
 22 38  1  0
 24 39  1  0
 26 40  1  0
M  END
>  <smiles>  (39) 
N=c1[nH]cnc(Oc2ccc(S(=O)(=O)c3ccccc3)cc2)c1C=NO

>  <score_type>  (39) 
oracle

>  <origin>  (39) 
adgpu

>  <m_score__min__energy>  (39) 
-8.8000000000000007

>  <m_primary>  (39) 
energy

$$$$
39:0
     RDKit          3D

 51 54  0  0  0  0  0  0  0  0999 V2000
   -1.4280   25.3710  -29.1830 O   0  0  0  0  0  0  0  0  0  0  0  0
   -2.3640   24.5550  -29.3930 C   0  0  0  0  0  0  0  0  0  0  0  0
   -3.4900   24.9990  -30.1650 N   0  0  0  0  0  0  0  0  0  0  0  0
   -4.6710   24.2490  -30.4830 C   0  0  0  0  0  0  0  0  0  0  0  0
   -5.9220   24.5650  -29.9280 C   0  0  0  0  0  0  0  0  0  0  0  0
   -7.0560   23.8250  -30.2760 C   0  0  0  0  0  0  0  0  0  0  0  0
   -6.9560   22.7720  -31.1930 C   0  0  0  0  0  0  0  0  0  0  0  0
   -8.3990   21.8640  -31.6380 S   0  0  0  0  0  0  0  0  0  0  0  0
   -9.0630   21.3150  -30.4050 O   0  0  0  0  0  0  0  0  0  0  0  0
   -9.3570   22.7990  -32.3240 O   0  0  0  0  0  0  0  0  0  0  0  0
   -7.9660   20.5580  -32.7210 N   0  0  0  0  0  0  0  0  0  0  0  0
   -9.1170   19.6810  -32.9760 C   0  0  0  0  0  0  0  0  0  0  0  0
   -9.0490   18.5300  -31.9830 C   0  0  0  0  0  0  0  0  0  0  0  0
   -7.6360   18.5500  -31.4240 C   0  0  0  0  0  0  0  0  0  0  0  0
   -6.9320   19.6990  -32.1320 C   0  0  0  0  0  0  0  0  0  0  0  0
   -5.7140   22.4720  -31.7700 C   0  0  0  0  0  0  0  0  0  0  0  0
   -4.5800   23.2110  -31.4190 C   0  0  0  0  0  0  0  0  0  0  0  0
   -2.2230   23.1500  -28.9260 C   0  0  0  0  0  0  0  0  0  0  0  0
   -2.5570   22.8100  -27.6030 C   0  0  0  0  0  0  0  0  0  0  0  0
   -2.4930   21.4840  -27.1780 C   0  0  0  0  0  0  0  0  0  0  0  0
   -2.1150   20.4940  -28.0830 C   0  0  0  0  0  0  0  0  0  0  0  0
   -1.8070   20.8250  -29.3640 N   0  0  0  0  0  0  0  0  0  0  0  0
   -1.8410   22.1110  -29.8060 C   0  0  0  0  0  0  0  0  0  0  0  0
   -1.5030   22.3710  -31.1380 O   0  0  0  0  0  0  0  0  0  0  0  0
   -1.6500   21.4390  -32.1750 C   0  0  0  0  0  0  0  0  0  0  0  0
   -2.8630   20.7500  -32.2930 C   0  0  0  0  0  0  0  0  0  0  0  0
   -3.0520   19.8190  -33.3200 C   0  0  0  0  0  0  0  0  0  0  0  0
   -2.0230   19.5650  -34.2310 C   0  0  0  0  0  0  0  0  0  0  0  0
   -0.8030   20.2360  -34.1120 C   0  0  0  0  0  0  0  0  0  0  0  0
   -0.6120   21.1670  -33.0860 C   0  0  0  0  0  0  0  0  0  0  0  0
   -6.0099   25.3989  -29.2160 H   0  0  0  0  0  0  0  0  0  0  0  0
   -8.0300   24.0710  -29.8278 H   0  0  0  0  0  0  0  0  0  0  0  0
   -7.6240   20.9750  -33.6200 H   0  0  0  0  0  0  0  0  0  0  0  0
  -10.0533   20.2413  -32.8368 H   0  0  0  0  0  0  0  0  0  0  0  0
   -9.0919   19.3019  -34.0083 H   0  0  0  0  0  0  0  0  0  0  0  0
   -9.7824   18.6760  -31.1763 H   0  0  0  0  0  0  0  0  0  0  0  0
   -9.2820   17.5674  -32.4617 H   0  0  0  0  0  0  0  0  0  0  0  0
   -7.6552   18.7224  -30.3378 H   0  0  0  0  0  0  0  0  0  0  0  0
   -7.1195   17.5928  -31.5886 H   0  0  0  0  0  0  0  0  0  0  0  0
   -6.3334   20.2739  -31.4101 H   0  0  0  0  0  0  0  0  0  0  0  0
   -6.2573   19.3165  -32.9121 H   0  0  0  0  0  0  0  0  0  0  0  0
   -5.6314   21.6536  -32.5003 H   0  0  0  0  0  0  0  0  0  0  0  0
   -3.6099   22.9756  -31.8811 H   0  0  0  0  0  0  0  0  0  0  0  0
   -2.8706   23.5951  -26.8993 H   0  0  0  0  0  0  0  0  0  0  0  0
   -2.7385   21.2216  -26.1383 H   0  0  0  0  0  0  0  0  0  0  0  0
   -2.0660   19.4437  -27.7598 H   0  0  0  0  0  0  0  0  0  0  0  0
   -3.6727   20.9419  -31.5736 H   0  0  0  0  0  0  0  0  0  0  0  0
   -4.0105   19.2869  -33.4105 H   0  0  0  0  0  0  0  0  0  0  0  0
   -2.1734   18.8369  -35.0417 H   0  0  0  0  0  0  0  0  0  0  0  0
    0.0082   20.0316  -34.8263 H   0  0  0  0  0  0  0  0  0  0  0  0
    0.3520   21.6881  -32.9907 H   0  0  0  0  0  0  0  0  0  0  0  0
  1  2  2  0
  2  3  1  0
  3  4  1  0
  4  5  2  0
  5  6  1  0
  6  7  2  0
  7  8  1  0
  8  9  2  0
  8 10  2  0
  8 11  1  0
 11 12  1  0
 12 13  1  0
 13 14  1  0
 14 15  1  0
  7 16  1  0
 16 17  2  0
  2 18  1  0
 18 19  2  0
 19 20  1  0
 20 21  2  0
 21 22  1  0
 22 23  2  0
 23 24  1  0
 24 25  1  0
 25 26  2  0
 26 27  1  0
 27 28  2  0
 28 29  1  0
 29 30  2  0
 17  4  1  0
 23 18  1  0
 30 25  1  0
 15 11  1  0
  5 31  1  0
  6 32  1  0
 11 33  1  0
 12 34  1  0
 12 35  1  0
 13 36  1  0
 13 37  1  0
 14 38  1  0
 14 39  1  0
 15 40  1  0
 15 41  1  0
 16 42  1  0
 17 43  1  0
 19 44  1  0
 20 45  1  0
 21 46  1  0
 26 47  1  0
 27 48  1  0
 28 49  1  0
 29 50  1  0
 30 51  1  0
M  CHG  2   3  -1  11   1
M  END
>  <UniqueID>  (40) 
37

>  <SMILES>  (40) 
O=C([N-]c1ccc(S(=O)(=O)[NH+]2CCCC2)cc1)c1cccnc1Oc1ccccc1

>  <Energy>  (40) 
72.44164849497041

>  <Genealogy>  (40) 
O=C([N-]c1ccc(S(=O)(=O)[NH+]2CCCC2)cc1)c1cccnc1Oc1ccccc1 (protonated)
O=C([N-]c1ccc(S(=O)(=O)[NH+]2CCCC2)cc1)c1cccnc1Oc1ccccc1 (3D coordinates assigned)
O=C([N-]c1ccc(S(=O)(=O)[NH+]2CCCC2)cc1)c1cccnc1Oc1ccccc1 (nonaromatic ring conformer: 72.44164849497041 kcal/mol)

>  <smiles>  (40) 
O=C(Nc1ccc(S(=O)(=O)N2CCCC2)cc1)c1cccnc1Oc1ccccc1

>  <score_type>  (40) 
oracle

>  <origin>  (40) 
adgpu

>  <m_score__min__energy>  (40) 
-11.06

>  <m_primary>  (40) 
energy

$$$$
40:0
     RDKit          3D

 60 63  0  0  0  0  0  0  0  0999 V2000
    1.0700   28.0210  -23.1430 C   0  0  0  0  0  0  0  0  0  0  0  0
    0.5870   27.8850  -24.5250 N   0  0  0  0  0  0  0  0  0  0  0  0
   -0.8660   27.5830  -24.5360 C   0  0  0  0  0  0  0  0  0  0  0  0
   -1.3010   26.9440  -25.8590 C   0  0  0  0  0  0  0  0  0  0  0  0
   -0.6050   25.5800  -26.0620 C   0  0  0  0  0  0  0  0  0  0  0  0
   -0.5120   25.1830  -27.8130 S   0  0  0  0  0  0  0  0  0  0  0  0
   -0.9500   26.3800  -28.6100 O   0  0  0  0  0  0  0  0  0  0  0  0
    0.9110   24.8800  -28.1920 O   0  0  0  0  0  0  0  0  0  0  0  0
   -1.5950   23.8200  -28.1830 C   0  0  0  0  0  0  0  0  0  0  0  0
   -1.4360   22.5420  -27.5960 C   0  0  0  0  0  0  0  0  0  0  0  0
   -0.1790   22.1690  -26.4180 Cl  0  0  0  0  0  0  0  0  0  0  0  0
   -2.3240   21.5120  -27.9180 C   0  0  0  0  0  0  0  0  0  0  0  0
   -3.3710   21.7290  -28.8100 C   0  0  0  0  0  0  0  0  0  0  0  0
   -3.5510   22.9890  -29.4000 C   0  0  0  0  0  0  0  0  0  0  0  0
   -4.6560   23.2360  -30.2880 N   0  0  0  0  0  0  0  0  0  0  0  0
   -4.7170   22.7640  -31.6410 C   0  0  0  0  0  0  0  0  0  0  0  0
   -3.6960   22.2700  -32.1900 O   0  0  0  0  0  0  0  0  0  0  0  0
   -5.9240   22.9480  -32.3890 N   0  0  0  0  0  0  0  0  0  0  0  0
   -7.1080   22.1390  -32.3210 C   0  0  0  0  0  0  0  0  0  0  0  0
   -8.3620   22.6760  -31.9780 C   0  0  0  0  0  0  0  0  0  0  0  0
   -9.4880   21.8490  -31.9230 C   0  0  0  0  0  0  0  0  0  0  0  0
   -9.3780   20.4910  -32.2310 C   0  0  0  0  0  0  0  0  0  0  0  0
   -8.1390   19.9530  -32.6210 C   0  0  0  0  0  0  0  0  0  0  0  0
   -7.9830   18.5920  -32.9310 O   0  0  0  0  0  0  0  0  0  0  0  0
   -6.8000   17.9880  -33.3810 C   0  0  0  0  0  0  0  0  0  0  0  0
   -6.1440   18.4100  -34.5520 C   0  0  0  0  0  0  0  0  0  0  0  0
   -4.9610   17.7850  -34.9610 C   0  0  0  0  0  0  0  0  0  0  0  0
   -4.4140   16.7470  -34.1960 C   0  0  0  0  0  0  0  0  0  0  0  0
   -3.1980   16.1020  -34.6160 C   0  0  0  0  0  0  0  0  0  0  0  0
   -2.2200   15.5840  -34.9540 N   0  0  0  0  0  0  0  0  0  0  0  0
   -5.0520   16.3420  -33.0160 C   0  0  0  0  0  0  0  0  0  0  0  0
   -6.2360   16.9630  -32.6110 C   0  0  0  0  0  0  0  0  0  0  0  0
   -7.0110   20.7820  -32.6560 C   0  0  0  0  0  0  0  0  0  0  0  0
   -2.6720   24.0350  -29.0690 C   0  0  0  0  0  0  0  0  0  0  0  0
   -2.8740   25.2940  -29.6300 O   0  0  0  0  0  0  0  0  0  0  0  0
    0.7860   25.5290  -25.3870 C   0  0  0  0  0  0  0  0  0  0  0  0
    1.4200   26.9250  -25.2960 C   0  0  0  0  0  0  0  0  0  0  0  0
    0.2521   27.7907  -22.4444 H   0  0  0  0  0  0  0  0  0  0  0  0
    1.9031   27.3225  -22.9753 H   0  0  0  0  0  0  0  0  0  0  0  0
    1.4162   29.0515  -22.9753 H   0  0  0  0  0  0  0  0  0  0  0  0
   -1.0922   26.8888  -23.7132 H   0  0  0  0  0  0  0  0  0  0  0  0
   -1.4142   28.5289  -24.4150 H   0  0  0  0  0  0  0  0  0  0  0  0
   -2.3908   26.7949  -25.8468 H   0  0  0  0  0  0  0  0  0  0  0  0
   -1.0162   27.6125  -26.6849 H   0  0  0  0  0  0  0  0  0  0  0  0
   -1.2161   24.8115  -25.5659 H   0  0  0  0  0  0  0  0  0  0  0  0
   -2.1945   20.5194  -27.4620 H   0  0  0  0  0  0  0  0  0  0  0  0
   -4.0610   20.9076  -29.0535 H   0  0  0  0  0  0  0  0  0  0  0  0
   -5.4290   23.8600  -29.9630 H   0  0  0  0  0  0  0  0  0  0  0  0
   -8.4569   23.7485  -31.7526 H   0  0  0  0  0  0  0  0  0  0  0  0
  -10.4634   22.2690  -31.6363 H   0  0  0  0  0  0  0  0  0  0  0  0
  -10.2631   19.8408  -32.1683 H   0  0  0  0  0  0  0  0  0  0  0  0
   -6.5627   19.2343  -35.1480 H   0  0  0  0  0  0  0  0  0  0  0  0
   -4.4597   18.1093  -35.8848 H   0  0  0  0  0  0  0  0  0  0  0  0
   -4.6199   15.5338  -32.4076 H   0  0  0  0  0  0  0  0  0  0  0  0
   -6.7289   16.6446  -31.6806 H   0  0  0  0  0  0  0  0  0  0  0  0
   -6.0374   20.3629  -32.9499 H   0  0  0  0  0  0  0  0  0  0  0  0
    0.6757   25.1198  -24.3719 H   0  0  0  0  0  0  0  0  0  0  0  0
    1.4423   24.8914  -25.9975 H   0  0  0  0  0  0  0  0  0  0  0  0
    2.3996   26.8350  -24.8039 H   0  0  0  0  0  0  0  0  0  0  0  0
    1.5133   27.3146  -26.3204 H   0  0  0  0  0  0  0  0  0  0  0  0
  1  2  1  0
  2  3  1  0
  3  4  1  0
  4  5  1  0
  5  6  1  0
  6  7  2  0
  6  8  2  0
  6  9  1  0
  9 10  2  0
 10 11  1  0
 10 12  1  0
 12 13  2  0
 13 14  1  0
 14 15  1  0
 15 16  1  0
 16 17  2  0
 16 18  1  0
 18 19  1  0
 19 20  2  0
 20 21  1  0
 21 22  2  0
 22 23  1  0
 23 24  1  0
 24 25  1  0
 25 26  2  0
 26 27  1  0
 27 28  2  0
 28 29  1  0
 29 30  3  0
 28 31  1  0
 31 32  2  0
 23 33  2  0
 14 34  2  0
 34 35  1  0
  5 36  1  0
 36 37  1  0
 37  2  1  0
 34  9  1  0
 33 19  1  0
 32 25  1  0
  1 38  1  0
  1 39  1  0
  1 40  1  0
  3 41  1  0
  3 42  1  0
  4 43  1  0
  4 44  1  0
  5 45  1  0
 12 46  1  0
 13 47  1  0
 15 48  1  0
 20 49  1  0
 21 50  1  0
 22 51  1  0
 26 52  1  0
 27 53  1  0
 31 54  1  0
 32 55  1  0
 33 56  1  0
 36 57  1  0
 36 58  1  0
 37 59  1  0
 37 60  1  0
M  CHG  2  18  -1  35  -1
M  END
>  <UniqueID>  (41) 
38

>  <SMILES>  (41) 
CN1CCC(S(=O)(=O)c2c(Cl)ccc(NC(=O)[N-]c3cccc(Oc4ccc(C#N)cc4)c3)c2[O-])CC1

>  <Energy>  (41) 
85.4470742552387

>  <Genealogy>  (41) 
CN1CCC(S(=O)(=O)c2c(Cl)ccc(NC(=O)[N-]c3cccc(Oc4ccc(C#N)cc4)c3)c2[O-])CC1 (protonated)
CN1CCC(S(=O)(=O)c2c(Cl)ccc(NC(=O)[N-]c3cccc(Oc4ccc(C#N)cc4)c3)c2[O-])CC1 (3D coordinates assigned)
CN1CCC(S(=O)(=O)c2c(Cl)ccc(NC(=O)[N-]c3cccc(Oc4ccc(C#N)cc4)c3)c2[O-])CC1 (nonaromatic ring conformer: 85.4470742552387 kcal/mol)

>  <smiles>  (41) 
CN1CCC(S(=O)(=O)c2c(Cl)ccc(NC(=O)Nc3cccc(Oc4ccc(C#N)cc4)c3)c2O)CC1

>  <score_type>  (41) 
oracle

>  <origin>  (41) 
adgpu

>  <m_score__min__energy>  (41) 
-14.710000000000001

>  <m_primary>  (41) 
energy

$$$$
41:0
     RDKit          3D

 34 35  0  0  0  0  0  0  0  0999 V2000
   -3.7660   23.0570  -28.4820 C   0  0  0  0  0  0  0  0  0  0  0  0
   -4.5590   24.3540  -28.3920 C   0  0  0  0  0  0  0  0  0  0  0  0
   -5.0840   24.8950  -30.0100 S   0  0  0  0  0  0  0  0  0  0  0  0
   -3.8900   25.2950  -30.8300 O   0  0  0  0  0  0  0  0  0  0  0  0
   -6.0070   26.0750  -29.8850 O   0  0  0  0  0  0  0  0  0  0  0  0
   -5.9260   23.5840  -30.8120 C   0  0  0  0  0  0  0  0  0  0  0  0
   -5.2320   22.5050  -31.2590 N   0  0  0  0  0  0  0  0  0  0  0  0
   -5.8680   21.4730  -31.8730 C   0  0  0  0  0  0  0  0  0  0  0  0
   -7.2530   21.5010  -32.0390 C   0  0  0  0  0  0  0  0  0  0  0  0
   -7.8900   20.4350  -32.6900 O   0  0  0  0  0  0  0  0  0  0  0  0
   -7.2690   19.2470  -33.1030 C   0  0  0  0  0  0  0  0  0  0  0  0
   -7.5140   18.0180  -32.4670 C   0  0  0  0  0  0  0  0  0  0  0  0
   -6.8620   16.8580  -32.8950 C   0  0  0  0  0  0  0  0  0  0  0  0
   -5.9430   16.9120  -33.9620 C   0  0  0  0  0  0  0  0  0  0  0  0
   -5.2620   15.7790  -34.4360 O   0  0  0  0  0  0  0  0  0  0  0  0
   -4.2300   15.0870  -33.7380 C   0  0  0  0  0  0  0  0  0  0  0  0
   -3.8850   13.9320  -34.4170 F   0  0  0  0  0  0  0  0  0  0  0  0
   -4.6500   14.7740  -32.4570 F   0  0  0  0  0  0  0  0  0  0  0  0
   -3.1190   15.9030  -33.6550 F   0  0  0  0  0  0  0  0  0  0  0  0
   -5.6900   18.1430  -34.5790 C   0  0  0  0  0  0  0  0  0  0  0  0
   -6.3410   19.3020  -34.1490 C   0  0  0  0  0  0  0  0  0  0  0  0
   -7.9470   22.6330  -31.5850 C   0  0  0  0  0  0  0  0  0  0  0  0
   -7.2730   23.6440  -30.9780 N   0  0  0  0  0  0  0  0  0  0  0  0
   -3.5431   22.6924  -27.4684 H   0  0  0  0  0  0  0  0  0  0  0  0
   -4.3573   22.3024  -29.0213 H   0  0  0  0  0  0  0  0  0  0  0  0
   -2.8248   23.2394  -29.0213 H   0  0  0  0  0  0  0  0  0  0  0  0
   -5.4457   24.1907  -27.7618 H   0  0  0  0  0  0  0  0  0  0  0  0
   -3.9137   25.1302  -27.9548 H   0  0  0  0  0  0  0  0  0  0  0  0
   -5.2891   20.6128  -32.2403 H   0  0  0  0  0  0  0  0  0  0  0  0
   -8.2230   17.9686  -31.6274 H   0  0  0  0  0  0  0  0  0  0  0  0
   -7.0671   15.8989  -32.3969 H   0  0  0  0  0  0  0  0  0  0  0  0
   -4.9718   18.1982  -35.4103 H   0  0  0  0  0  0  0  0  0  0  0  0
   -6.1227   20.2640  -34.6358 H   0  0  0  0  0  0  0  0  0  0  0  0
   -9.0364   22.7016  -31.7207 H   0  0  0  0  0  0  0  0  0  0  0  0
  1  2  1  0
  2  3  1  0
  3  4  2  0
  3  5  2  0
  3  6  1  0
  6  7  2  0
  7  8  1  0
  8  9  2  0
  9 10  1  0
 10 11  1  0
 11 12  2  0
 12 13  1  0
 13 14  2  0
 14 15  1  0
 15 16  1  0
 16 17  1  0
 16 18  1  0
 16 19  1  0
 14 20  1  0
 20 21  2  0
  9 22  1  0
 22 23  2  0
 23  6  1  0
 21 11  1  0
  1 24  1  0
  1 25  1  0
  1 26  1  0
  2 27  1  0
  2 28  1  0
  8 29  1  0
 12 30  1  0
 13 31  1  0
 20 32  1  0
 21 33  1  0
 22 34  1  0
M  END
>  <UniqueID>  (42) 
39

>  <SMILES>  (42) 
CCS(=O)(=O)c1ncc(Oc2ccc(OC(F)(F)F)cc2)cn1

>  <Energy>  (42) 
36.67674007517978

>  <Genealogy>  (42) 
CCS(=O)(=O)c1ncc(Oc2ccc(OC(F)(F)F)cc2)cn1 (3D coordinates assigned)
CCS(=O)(=O)c1ncc(Oc2ccc(OC(F)(F)F)cc2)cn1 (optimized conformer: 36.67674007517978 kcal/mol)

>  <smiles>  (42) 
CCS(=O)(=O)c1ncc(Oc2ccc(OC(F)(F)F)cc2)cn1

>  <score_type>  (42) 
oracle

>  <origin>  (42) 
adgpu

>  <m_score__min__energy>  (42) 
-6.8899999999999997

>  <m_primary>  (42) 
energy

$$$$
42:0
     RDKit          3D

 43 45  0  0  0  0  0  0  0  0999 V2000
   -6.2770   17.1330  -33.2070 C   0  0  0  0  0  0  0  0  0  0  0  0
   -6.9300   18.4130  -32.7800 C   0  0  0  0  0  0  0  0  0  0  0  0
   -8.1260   18.3870  -32.0450 C   0  0  0  0  0  0  0  0  0  0  0  0
   -8.7550   19.5810  -31.6790 C   0  0  0  0  0  0  0  0  0  0  0  0
   -8.1990   20.8110  -32.0540 C   0  0  0  0  0  0  0  0  0  0  0  0
   -9.0080   22.3410  -31.5870 S   0  0  0  0  0  0  0  0  0  0  0  0
   -7.6830   23.3900  -32.2640 C   0  0  0  0  0  0  0  0  0  0  0  0
   -6.6710   23.6600  -31.1960 C   0  0  0  0  0  0  0  0  0  0  0  0
   -7.0400   24.1920  -30.1150 O   0  0  0  0  0  0  0  0  0  0  0  0
   -5.2940   23.3140  -31.4110 N   0  0  0  0  0  0  0  0  0  0  0  0
   -4.2950   23.3260  -30.3760 C   0  0  0  0  0  0  0  0  0  0  0  0
   -3.9750   22.1570  -29.6660 C   0  0  0  0  0  0  0  0  0  0  0  0
   -2.9770   22.1640  -28.6790 C   0  0  0  0  0  0  0  0  0  0  0  0
   -2.3030   23.3700  -28.3790 C   0  0  0  0  0  0  0  0  0  0  0  0
   -2.6010   24.5260  -29.1140 C   0  0  0  0  0  0  0  0  0  0  0  0
   -3.5860   24.5070  -30.1040 C   0  0  0  0  0  0  0  0  0  0  0  0
   -3.8640   25.6720  -30.8110 O   0  0  0  0  0  0  0  0  0  0  0  0
   -1.1850   23.4200  -27.3640 C   0  0  0  0  0  0  0  0  0  0  0  0
   -1.2200   22.2390  -26.3900 C   0  0  0  0  0  0  0  0  0  0  0  0
   -1.3810   20.9240  -27.1520 C   0  0  0  0  0  0  0  0  0  0  0  0
   -2.7200   20.8980  -27.8940 C   0  0  0  0  0  0  0  0  0  0  0  0
   -7.0190   20.8420  -32.8050 C   0  0  0  0  0  0  0  0  0  0  0  0
   -6.3890   19.6480  -33.1720 C   0  0  0  0  0  0  0  0  0  0  0  0
   -5.9830   16.5568  -32.3173 H   0  0  0  0  0  0  0  0  0  0  0  0
   -6.9844   16.5433  -33.8085 H   0  0  0  0  0  0  0  0  0  0  0  0
   -5.3843   17.3596  -33.8085 H   0  0  0  0  0  0  0  0  0  0  0  0
   -8.5702   17.4231  -31.7558 H   0  0  0  0  0  0  0  0  0  0  0  0
   -9.6874   19.5545  -31.0960 H   0  0  0  0  0  0  0  0  0  0  0  0
   -7.1994   22.8732  -33.1061 H   0  0  0  0  0  0  0  0  0  0  0  0
   -8.1096   24.3409  -32.6159 H   0  0  0  0  0  0  0  0  0  0  0  0
   -4.9920   23.1050  -32.3890 H   0  0  0  0  0  0  0  0  0  0  0  0
   -4.5137   21.2236  -29.8864 H   0  0  0  0  0  0  0  0  0  0  0  0
   -2.0534   25.4577  -28.9089 H   0  0  0  0  0  0  0  0  0  0  0  0
   -0.2235   23.4076  -27.8982 H   0  0  0  0  0  0  0  0  0  0  0  0
   -1.3106   24.3408  -26.7755 H   0  0  0  0  0  0  0  0  0  0  0  0
   -0.2810   22.2135  -25.8175 H   0  0  0  0  0  0  0  0  0  0  0  0
   -2.0749   22.3636  -25.7090 H   0  0  0  0  0  0  0  0  0  0  0  0
   -0.5617   20.8237  -27.8791 H   0  0  0  0  0  0  0  0  0  0  0  0
   -1.3540   20.0903  -26.4349 H   0  0  0  0  0  0  0  0  0  0  0  0
   -2.7200   20.0463  -28.5901 H   0  0  0  0  0  0  0  0  0  0  0  0
   -3.5158   20.8074  -27.1400 H   0  0  0  0  0  0  0  0  0  0  0  0
   -6.5858   21.8068  -33.1074 H   0  0  0  0  0  0  0  0  0  0  0  0
   -5.4662   19.6768  -33.7700 H   0  0  0  0  0  0  0  0  0  0  0  0
  1  2  1  0
  2  3  2  0
  3  4  1  0
  4  5  2  0
  5  6  1  0
  6  7  1  0
  7  8  1  0
  8  9  2  0
  8 10  1  0
 10 11  1  0
 11 12  2  0
 12 13  1  0
 13 14  2  0
 14 15  1  0
 15 16  2  0
 16 17  1  0
 14 18  1  0
 18 19  1  0
 19 20  1  0
 20 21  1  0
  5 22  1  0
 22 23  2  0
 23  2  1  0
 16 11  1  0
 21 13  1  0
  1 24  1  0
  1 25  1  0
  1 26  1  0
  3 27  1  0
  4 28  1  0
  7 29  1  0
  7 30  1  0
 10 31  1  0
 12 32  1  0
 15 33  1  0
 18 34  1  0
 18 35  1  0
 19 36  1  0
 19 37  1  0
 20 38  1  0
 20 39  1  0
 21 40  1  0
 21 41  1  0
 22 42  1  0
 23 43  1  0
M  CHG  1  17  -1
M  END
>  <UniqueID>  (43) 
40

>  <SMILES>  (43) 
Cc1ccc(SCC(=O)Nc2cc3c(cc2[O-])CCCC3)cc1

>  <Energy>  (43) 
41.095101990071484

>  <Genealogy>  (43) 
Cc1ccc(SCC(=O)Nc2cc3c(cc2[O-])CCCC3)cc1 (protonated)
Cc1ccc(SCC(=O)Nc2cc3c(cc2[O-])CCCC3)cc1 (3D coordinates assigned)
Cc1ccc(SCC(=O)Nc2cc3c(cc2[O-])CCCC3)cc1 (nonaromatic ring conformer: 41.095101990071484 kcal/mol)

>  <smiles>  (43) 
Cc1ccc(SCC(=O)Nc2cc3c(cc2O)CCCC3)cc1

>  <score_type>  (43) 
oracle

>  <origin>  (43) 
adgpu

>  <m_score__min__energy>  (43) 
-12.109999999999999

>  <m_primary>  (43) 
energy

$$$$
43:0
     RDKit          3D

 55 57  0  0  0  0  0  0  0  0999 V2000
   -5.6220   15.5800  -33.7810 C   0  0  0  0  0  0  0  0  0  0  0  0
   -6.8500   16.4190  -34.1170 C   0  0  0  0  0  0  0  0  0  0  0  0
   -6.7690   17.7700  -33.4590 C   0  0  0  0  0  0  0  0  0  0  0  0
   -7.4230   18.0030  -32.2380 C   0  0  0  0  0  0  0  0  0  0  0  0
   -7.3200   19.2480  -31.6100 C   0  0  0  0  0  0  0  0  0  0  0  0
   -6.5530   20.2680  -32.1890 C   0  0  0  0  0  0  0  0  0  0  0  0
   -6.4530   21.5480  -31.5500 N   0  0  0  0  0  0  0  0  0  0  0  0
   -7.4490   22.4500  -31.4190 C   0  0  0  0  0  0  0  0  0  0  0  0
   -8.8450   22.2610  -31.9270 C   0  0  0  0  0  0  0  0  0  0  0  0
   -6.9730   23.6050  -30.8310 C   0  0  0  0  0  0  0  0  0  0  0  0
   -5.6250   23.3980  -30.5980 C   0  0  0  0  0  0  0  0  0  0  0  0
   -4.7070   24.4370  -30.0850 C   0  0  0  0  0  0  0  0  0  0  0  0
   -4.3410   25.3610  -30.8590 O   0  0  0  0  0  0  0  0  0  0  0  0
   -4.1460   24.4010  -28.6880 C   0  0  0  0  0  0  0  0  0  0  0  0
   -2.7410   24.6550  -28.6790 O   0  0  0  0  0  0  0  0  0  0  0  0
   -2.0020   25.1000  -27.5710 C   0  0  0  0  0  0  0  0  0  0  0  0
   -0.6200   25.3580  -27.6350 C   0  0  0  0  0  0  0  0  0  0  0  0
    0.0730   25.7790  -26.4960 C   0  0  0  0  0  0  0  0  0  0  0  0
   -0.6070   25.9670  -25.2780 C   0  0  0  0  0  0  0  0  0  0  0  0
    0.0860   26.3730  -24.0860 N   0  0  0  0  0  0  0  0  0  0  0  0
    0.4190   27.7350  -23.7720 C   0  0  0  0  0  0  0  0  0  0  0  0
    1.3120   28.0320  -22.6120 C   0  0  0  0  0  0  0  0  0  0  0  0
   -0.1010   28.6890  -24.4110 O   0  0  0  0  0  0  0  0  0  0  0  0
   -1.9810   25.6950  -25.2160 C   0  0  0  0  0  0  0  0  0  0  0  0
   -2.6720   25.2770  -26.3560 C   0  0  0  0  0  0  0  0  0  0  0  0
   -5.3350   22.1070  -31.0320 C   0  0  0  0  0  0  0  0  0  0  0  0
   -3.9890   21.4390  -31.0100 C   0  0  0  0  0  0  0  0  0  0  0  0
   -5.8940   20.0360  -33.4030 C   0  0  0  0  0  0  0  0  0  0  0  0
   -5.9950   18.7920  -34.0320 C   0  0  0  0  0  0  0  0  0  0  0  0
   -5.5154   15.5072  -32.6886 H   0  0  0  0  0  0  0  0  0  0  0  0
   -5.7390   14.5722  -34.2060 H   0  0  0  0  0  0  0  0  0  0  0  0
   -4.7257   16.0554  -34.2060 H   0  0  0  0  0  0  0  0  0  0  0  0
   -6.9091   16.5516  -35.2074 H   0  0  0  0  0  0  0  0  0  0  0  0
   -7.7454   15.8987  -33.7461 H   0  0  0  0  0  0  0  0  0  0  0  0
   -8.0185   17.2029  -31.7740 H   0  0  0  0  0  0  0  0  0  0  0  0
   -7.8425   19.4273  -30.6588 H   0  0  0  0  0  0  0  0  0  0  0  0
   -9.5354   22.1675  -31.0758 H   0  0  0  0  0  0  0  0  0  0  0  0
   -9.1330   23.1283  -32.5392 H   0  0  0  0  0  0  0  0  0  0  0  0
   -8.8920   21.3483  -32.5392 H   0  0  0  0  0  0  0  0  0  0  0  0
   -7.5511   24.5105  -30.5946 H   0  0  0  0  0  0  0  0  0  0  0  0
   -4.6510   25.1666  -28.0807 H   0  0  0  0  0  0  0  0  0  0  0  0
   -4.3166   23.3960  -28.2746 H   0  0  0  0  0  0  0  0  0  0  0  0
   -0.0824   25.2278  -28.5858 H   0  0  0  0  0  0  0  0  0  0  0  0
    1.1558   25.9644  -26.5521 H   0  0  0  0  0  0  0  0  0  0  0  0
    0.2880   25.6470  -23.3630 H   0  0  0  0  0  0  0  0  0  0  0  0
    0.7670   27.8507  -21.6739 H   0  0  0  0  0  0  0  0  0  0  0  0
    2.1968   27.3797  -22.6540 H   0  0  0  0  0  0  0  0  0  0  0  0
    1.6299   29.0842  -22.6540 H   0  0  0  0  0  0  0  0  0  0  0  0
   -2.5185   25.8115  -24.2634 H   0  0  0  0  0  0  0  0  0  0  0  0
   -3.7536   25.0852  -26.2975 H   0  0  0  0  0  0  0  0  0  0  0  0
   -3.6742   21.2828  -29.9677 H   0  0  0  0  0  0  0  0  0  0  0  0
   -4.0531   20.4681  -31.5231 H   0  0  0  0  0  0  0  0  0  0  0  0
   -3.2545   22.0772  -31.5231 H   0  0  0  0  0  0  0  0  0  0  0  0
   -5.2949   20.8357  -33.8630 H   0  0  0  0  0  0  0  0  0  0  0  0
   -5.4661   18.6128  -34.9797 H   0  0  0  0  0  0  0  0  0  0  0  0
  1  2  1  0
  2  3  1  0
  3  4  2  0
  4  5  1  0
  5  6  2  0
  6  7  1  0
  7  8  1  0
  8  9  1  0
  8 10  2  0
 10 11  1  0
 11 12  1  0
 12 13  2  0
 12 14  1  0
 14 15  1  0
 15 16  1  0
 16 17  2  0
 17 18  1  0
 18 19  2  0
 19 20  1  0
 20 21  1  0
 21 22  1  0
 21 23  2  0
 19 24  1  0
 24 25  2  0
 11 26  2  0
 26 27  1  0
  6 28  1  0
 28 29  2  0
 29  3  1  0
 26  7  1  0
 25 16  1  0
  1 30  1  0
  1 31  1  0
  1 32  1  0
  2 33  1  0
  2 34  1  0
  4 35  1  0
  5 36  1  0
  9 37  1  0
  9 38  1  0
  9 39  1  0
 10 40  1  0
 14 41  1  0
 14 42  1  0
 17 43  1  0
 18 44  1  0
 20 45  1  0
 22 46  1  0
 22 47  1  0
 22 48  1  0
 24 49  1  0
 25 50  1  0
 27 51  1  0
 27 52  1  0
 27 53  1  0
 28 54  1  0
 29 55  1  0
M  END
>  <UniqueID>  (44) 
41

>  <SMILES>  (44) 
CCc1ccc(-n2c(C)cc(C(=O)COc3ccc(NC(C)=O)cc3)c2C)cc1

>  <Energy>  (44) 
88.39514904157274

>  <Genealogy>  (44) 
CCc1ccc(-n2c(C)cc(C(=O)COc3ccc(NC(C)=O)cc3)c2C)cc1 (3D coordinates assigned)
CCc1ccc(-n2c(C)cc(C(=O)COc3ccc(NC(C)=O)cc3)c2C)cc1 (optimized conformer: 88.39514904157274 kcal/mol)

>  <smiles>  (44) 
CCc1ccc(-n2c(C)cc(C(=O)COc3ccc(NC(C)=O)cc3)c2C)cc1

>  <score_type>  (44) 
oracle

>  <origin>  (44) 
adgpu

>  <m_score__min__energy>  (44) 
-10.470000000000001

>  <m_primary>  (44) 
energy

$$$$
44:0
     RDKit          3D

 55 58  0  0  0  0  0  0  0  0999 V2000
    1.8940   22.3500  -35.5790 C   0  0  0  0  0  0  0  0  0  0  0  0
    2.2820   21.1400  -34.7680 C   0  0  0  0  0  0  0  0  0  0  0  0
    3.6120   20.6880  -34.8290 C   0  0  0  0  0  0  0  0  0  0  0  0
    4.0250   19.5930  -34.0660 C   0  0  0  0  0  0  0  0  0  0  0  0
    3.1180   18.9360  -33.2370 C   0  0  0  0  0  0  0  0  0  0  0  0
    1.7900   19.3600  -33.1770 C   0  0  0  0  0  0  0  0  0  0  0  0
    1.3500   20.4480  -33.9520 C   0  0  0  0  0  0  0  0  0  0  0  0
   -0.0760   20.8330  -33.8780 C   0  0  0  0  0  0  0  0  0  0  0  0
   -0.6750   21.1830  -34.9320 O   0  0  0  0  0  0  0  0  0  0  0  0
   -0.7510   20.9000  -32.6120 N   0  0  0  0  0  0  0  0  0  0  0  0
   -2.1800   20.9410  -32.4700 C   0  0  0  0  0  0  0  0  0  0  0  0
   -2.8540   20.0700  -31.5950 C   0  0  0  0  0  0  0  0  0  0  0  0
   -4.2400   20.1550  -31.4440 C   0  0  0  0  0  0  0  0  0  0  0  0
   -4.9730   21.1050  -32.1700 C   0  0  0  0  0  0  0  0  0  0  0  0
   -6.4350   21.2080  -31.9950 C   0  0  0  0  0  0  0  0  0  0  0  0
   -7.2430   20.1860  -32.5200 C   0  0  0  0  0  0  0  0  0  0  0  0
   -8.6290   20.2250  -32.3540 C   0  0  0  0  0  0  0  0  0  0  0  0
   -9.2200   21.2850  -31.6670 C   0  0  0  0  0  0  0  0  0  0  0  0
   -8.4300   22.3130  -31.1500 C   0  0  0  0  0  0  0  0  0  0  0  0
   -7.0350   22.2910  -31.3080 C   0  0  0  0  0  0  0  0  0  0  0  0
   -6.0800   23.6490  -30.6860 S   0  0  0  0  0  0  0  0  0  0  0  0
   -6.9900   24.6030  -29.9650 O   0  0  0  0  0  0  0  0  0  0  0  0
   -5.4080   24.3810  -31.8140 O   0  0  0  0  0  0  0  0  0  0  0  0
   -4.8620   23.0790  -29.5930 N   0  0  0  0  0  0  0  0  0  0  0  0
   -3.7910   23.7540  -29.3110 C   0  0  0  0  0  0  0  0  0  0  0  0
   -3.4970   24.9670  -29.8190 N   0  0  0  0  0  0  0  0  0  0  0  0
   -2.3260   25.2890  -29.3470 O   0  0  0  0  0  0  0  0  0  0  0  0
   -1.8520   24.3470  -28.5600 C   0  0  0  0  0  0  0  0  0  0  0  0
   -0.5170   24.3950  -27.8930 C   0  0  0  0  0  0  0  0  0  0  0  0
   -2.7780   23.3250  -28.4830 C   0  0  0  0  0  0  0  0  0  0  0  0
   -2.6360   22.0030  -27.7990 C   0  0  0  0  0  0  0  0  0  0  0  0
   -4.3010   21.9900  -33.0250 C   0  0  0  0  0  0  0  0  0  0  0  0
   -2.9140   21.9120  -33.1690 C   0  0  0  0  0  0  0  0  0  0  0  0
    1.6293   23.1756  -34.9020 H   0  0  0  0  0  0  0  0  0  0  0  0
    2.7401   22.6529  -36.2134 H   0  0  0  0  0  0  0  0  0  0  0  0
    1.0296   22.1044  -36.2134 H   0  0  0  0  0  0  0  0  0  0  0  0
    4.3331   21.2006  -35.4827 H   0  0  0  0  0  0  0  0  0  0  0  0
    5.0684   19.2488  -34.1198 H   0  0  0  0  0  0  0  0  0  0  0  0
    3.4495   18.0815  -32.6287 H   0  0  0  0  0  0  0  0  0  0  0  0
    1.0807   18.8385  -32.5175 H   0  0  0  0  0  0  0  0  0  0  0  0
   -0.1650   21.0330  -31.7550 H   0  0  0  0  0  0  0  0  0  0  0  0
   -2.2867   19.3181  -31.0268 H   0  0  0  0  0  0  0  0  0  0  0  0
   -4.7586   19.4742  -30.7530 H   0  0  0  0  0  0  0  0  0  0  0  0
   -6.7811   19.3497  -33.0653 H   0  0  0  0  0  0  0  0  0  0  0  0
   -9.2549   19.4193  -32.7653 H   0  0  0  0  0  0  0  0  0  0  0  0
  -10.3114   21.3110  -31.5322 H   0  0  0  0  0  0  0  0  0  0  0  0
   -8.9046   23.1480  -30.6139 H   0  0  0  0  0  0  0  0  0  0  0  0
   -0.6522   24.3901  -26.8013 H   0  0  0  0  0  0  0  0  0  0  0  0
    0.0746   23.5175  -28.1931 H   0  0  0  0  0  0  0  0  0  0  0  0
    0.0101   25.3127  -28.1931 H   0  0  0  0  0  0  0  0  0  0  0  0
   -2.6518   22.1505  -26.7091 H   0  0  0  0  0  0  0  0  0  0  0  0
   -3.4689   21.3470  -28.0924 H   0  0  0  0  0  0  0  0  0  0  0  0
   -1.6828   21.5389  -28.0924 H   0  0  0  0  0  0  0  0  0  0  0  0
   -4.8682   22.7485  -33.5844 H   0  0  0  0  0  0  0  0  0  0  0  0
   -2.3934   22.6162  -33.8346 H   0  0  0  0  0  0  0  0  0  0  0  0
  1  2  1  0
  2  3  2  0
  3  4  1  0
  4  5  2  0
  5  6  1  0
  6  7  2  0
  7  8  1  0
  8  9  2  0
  8 10  1  0
 10 11  1  0
 11 12  2  0
 12 13  1  0
 13 14  2  0
 14 15  1  0
 15 16  2  0
 16 17  1  0
 17 18  2  0
 18 19  1  0
 19 20  2  0
 20 21  1  0
 21 22  2  0
 21 23  2  0
 21 24  1  0
 24 25  2  3
 25 26  1  0
 26 27  1  0
 27 28  1  0
 28 29  1  0
 28 30  2  0
 30 31  1  0
 14 32  1  0
 32 33  2  0
  7  2  1  0
 33 11  1  0
 20 15  1  0
 30 25  1  0
  1 34  1  0
  1 35  1  0
  1 36  1  0
  3 37  1  0
  4 38  1  0
  5 39  1  0
  6 40  1  0
 10 41  1  0
 12 42  1  0
 13 43  1  0
 16 44  1  0
 17 45  1  0
 18 46  1  0
 19 47  1  0
 29 48  1  0
 29 49  1  0
 29 50  1  0
 31 51  1  0
 31 52  1  0
 31 53  1  0
 32 54  1  0
 33 55  1  0
M  CHG  1  26  -1
M  END
>  <UniqueID>  (45) 
42

>  <SMILES>  (45) 
Cc1ccccc1C(=O)Nc1ccc(-c2ccccc2S(=O)(=O)N=c2[n-]oc(C)c2C)cc1

>  <Energy>  (45) 
105.99150804082842

>  <Genealogy>  (45) 
Cc1ccccc1C(=O)Nc1ccc(-c2ccccc2S(=O)(=O)N=c2[n-]oc(C)c2C)cc1 (protonated)
Cc1ccccc1C(=O)Nc1ccc(-c2ccccc2S(=O)(=O)N=c2[n-]oc(C)c2C)cc1 (3D coordinates assigned)
Cc1ccccc1C(=O)Nc1ccc(-c2ccccc2S(=O)(=O)N=c2[n-]oc(C)c2C)cc1 (optimized conformer: 105.99150804082842 kcal/mol)

>  <smiles>  (45) 
Cc1ccccc1C(=O)Nc1ccc(-c2ccccc2S(=O)(=O)N=c2[nH]oc(C)c2C)cc1

>  <score_type>  (45) 
oracle

>  <origin>  (45) 
adgpu

>  <m_score__min__energy>  (45) 
-12.220000000000001

>  <m_primary>  (45) 
energy

$$$$
45:0
     RDKit          3D

 51 53  0  0  0  0  0  0  0  0999 V2000
   -6.1780   25.2910  -30.0310 C   0  0  0  0  0  0  0  0  0  0  0  0
   -4.8080   24.8000  -30.3920 C   0  0  0  0  0  0  0  0  0  0  0  0
   -3.9710   25.6210  -30.8450 O   0  0  0  0  0  0  0  0  0  0  0  0
   -4.4300   23.4190  -30.2780 N   0  0  0  0  0  0  0  0  0  0  0  0
   -3.4300   22.7420  -31.0500 C   0  0  0  0  0  0  0  0  0  0  0  0
   -3.7180   22.2000  -32.3140 C   0  0  0  0  0  0  0  0  0  0  0  0
   -2.7220   21.5420  -33.0430 C   0  0  0  0  0  0  0  0  0  0  0  0
   -1.4400   21.3870  -32.4980 C   0  0  0  0  0  0  0  0  0  0  0  0
   -0.1710   20.5550  -33.3890 S   0  0  0  0  0  0  0  0  0  0  0  0
    0.5860   21.5650  -34.2040 O   0  0  0  0  0  0  0  0  0  0  0  0
    0.7950   19.8790  -32.4570 O   0  0  0  0  0  0  0  0  0  0  0  0
   -0.9010   19.4040  -34.4600 N   0  0  0  0  0  0  0  0  0  0  0  0
   -1.8750   18.4370  -34.0510 C   0  0  0  0  0  0  0  0  0  0  0  0
   -3.2440   18.6430  -34.2900 C   0  0  0  0  0  0  0  0  0  0  0  0
   -4.1930   17.7110  -33.8490 C   0  0  0  0  0  0  0  0  0  0  0  0
   -5.9170   18.0290  -34.0630 S   0  0  0  0  0  0  0  0  0  0  0  0
   -6.6440   16.7210  -34.1990 O   0  0  0  0  0  0  0  0  0  0  0  0
   -6.1220   18.8070  -35.3330 O   0  0  0  0  0  0  0  0  0  0  0  0
   -6.5850   18.9390  -32.7300 N   0  0  0  0  0  0  0  0  0  0  0  0
   -6.6000   20.3820  -33.0450 C   0  0  0  0  0  0  0  0  0  0  0  0
   -7.4140   21.1600  -32.0090 C   0  0  0  0  0  0  0  0  0  0  0  0
   -8.8780   20.6880  -31.9740 C   0  0  0  0  0  0  0  0  0  0  0  0
   -9.0770   19.2990  -32.6020 C   0  0  0  0  0  0  0  0  0  0  0  0
   -7.8870   18.3820  -32.2830 C   0  0  0  0  0  0  0  0  0  0  0  0
   -3.7670   16.5570  -33.1810 C   0  0  0  0  0  0  0  0  0  0  0  0
   -2.4080   16.3500  -32.9310 C   0  0  0  0  0  0  0  0  0  0  0  0
   -1.4610   17.2890  -33.3510 C   0  0  0  0  0  0  0  0  0  0  0  0
   -0.1140   17.0540  -33.0710 O   0  0  0  0  0  0  0  0  0  0  0  0
   -1.1620   21.9020  -31.2260 C   0  0  0  0  0  0  0  0  0  0  0  0
   -2.1550   22.5660  -30.5020 C   0  0  0  0  0  0  0  0  0  0  0  0
   -6.2780   25.3268  -28.9361 H   0  0  0  0  0  0  0  0  0  0  0  0
   -6.3275   26.2987  -30.4460 H   0  0  0  0  0  0  0  0  0  0  0  0
   -6.9336   24.6077  -30.4460 H   0  0  0  0  0  0  0  0  0  0  0  0
   -4.7312   22.2936  -32.7320 H   0  0  0  0  0  0  0  0  0  0  0  0
   -2.9450   21.1459  -34.0447 H   0  0  0  0  0  0  0  0  0  0  0  0
   -3.5739   19.5439  -34.8281 H   0  0  0  0  0  0  0  0  0  0  0  0
   -5.5671   20.7602  -33.0490 H   0  0  0  0  0  0  0  0  0  0  0  0
   -7.0645   20.5208  -34.0324 H   0  0  0  0  0  0  0  0  0  0  0  0
   -6.9659   21.0097  -31.0157 H   0  0  0  0  0  0  0  0  0  0  0  0
   -7.4004   22.2242  -32.2870 H   0  0  0  0  0  0  0  0  0  0  0  0
   -9.2087   20.6492  -30.9256 H   0  0  0  0  0  0  0  0  0  0  0  0
   -9.4684   21.4037  -32.5649 H   0  0  0  0  0  0  0  0  0  0  0  0
   -9.9969   18.8495  -32.1998 H   0  0  0  0  0  0  0  0  0  0  0  0
   -9.1526   19.4125  -33.6935 H   0  0  0  0  0  0  0  0  0  0  0  0
   -7.8463   18.2274  -31.1947 H   0  0  0  0  0  0  0  0  0  0  0  0
   -8.0445   17.4395  -32.8278 H   0  0  0  0  0  0  0  0  0  0  0  0
   -4.5048   15.8105  -32.8517 H   0  0  0  0  0  0  0  0  0  0  0  0
   -2.0813   15.4433  -32.4008 H   0  0  0  0  0  0  0  0  0  0  0  0
    0.5760   17.7940  -33.0730 H   0  0  0  0  0  0  0  0  0  0  0  0
   -0.1570   21.7831  -30.7949 H   0  0  0  0  0  0  0  0  0  0  0  0
   -1.9334   22.9523  -29.4962 H   0  0  0  0  0  0  0  0  0  0  0  0
  1  2  1  0
  2  3  2  0
  2  4  1  0
  4  5  1  0
  5  6  2  0
  6  7  1  0
  7  8  2  0
  8  9  1  0
  9 10  2  0
  9 11  2  0
  9 12  1  0
 12 13  1  0
 13 14  2  0
 14 15  1  0
 15 16  1  0
 16 17  2  0
 16 18  2  0
 16 19  1  0
 19 20  1  0
 20 21  1  0
 21 22  1  0
 22 23  1  0
 23 24  1  0
 15 25  2  0
 25 26  1  0
 26 27  2  0
 27 28  1  0
  8 29  1  0
 29 30  2  0
 30  5  1  0
 27 13  1  0
 24 19  1  0
  1 31  1  0
  1 32  1  0
  1 33  1  0
  6 34  1  0
  7 35  1  0
 14 36  1  0
 20 37  1  0
 20 38  1  0
 21 39  1  0
 21 40  1  0
 22 41  1  0
 22 42  1  0
 23 43  1  0
 23 44  1  0
 24 45  1  0
 24 46  1  0
 25 47  1  0
 26 48  1  0
 28 49  1  0
 29 50  1  0
 30 51  1  0
M  CHG  2   4  -1  12  -1
M  END
>  <UniqueID>  (46) 
43

>  <SMILES>  (46) 
CC(=O)[N-]c1ccc(S(=O)(=O)[N-]c2cc(S(=O)(=O)N3CCCCC3)ccc2O)cc1

>  <Energy>  (46) 
63.5646982920388

>  <Genealogy>  (46) 
CC(=O)[N-]c1ccc(S(=O)(=O)[N-]c2cc(S(=O)(=O)N3CCCCC3)ccc2O)cc1 (protonated)
CC(=O)[N-]c1ccc(S(=O)(=O)[N-]c2cc(S(=O)(=O)N3CCCCC3)ccc2O)cc1 (3D coordinates assigned)
CC(=O)[N-]c1ccc(S(=O)(=O)[N-]c2cc(S(=O)(=O)N3CCCCC3)ccc2O)cc1 (nonaromatic ring conformer: 63.5646982920388 kcal/mol)

>  <smiles>  (46) 
CC(=O)Nc1ccc(S(=O)(=O)Nc2cc(S(=O)(=O)N3CCCCC3)ccc2O)cc1

>  <score_type>  (46) 
oracle

>  <origin>  (46) 
adgpu

>  <m_score__min__energy>  (46) 
-11.699999999999999

>  <m_primary>  (46) 
energy

$$$$
46:0
     RDKit          3D

 51 54  0  0  0  0  0  0  0  0999 V2000
   -1.6320   26.3050  -25.4160 C   0  0  0  0  0  0  0  0  0  0  0  0
   -0.6260   25.5600  -26.2570 C   0  0  0  0  0  0  0  0  0  0  0  0
    0.7150   25.5400  -25.8330 C   0  0  0  0  0  0  0  0  0  0  0  0
    1.6820   24.8450  -26.5590 C   0  0  0  0  0  0  0  0  0  0  0  0
    1.3250   24.1590  -27.7180 C   0  0  0  0  0  0  0  0  0  0  0  0
    0.0030   24.1730  -28.1620 C   0  0  0  0  0  0  0  0  0  0  0  0
   -0.9910   24.8750  -27.4510 C   0  0  0  0  0  0  0  0  0  0  0  0
   -2.3780   24.8680  -27.9850 C   0  0  0  0  0  0  0  0  0  0  0  0
   -3.3510   24.5550  -27.2480 O   0  0  0  0  0  0  0  0  0  0  0  0
   -2.6210   25.2530  -29.3450 N   0  0  0  0  0  0  0  0  0  0  0  0
   -3.6520   24.6810  -30.1590 C   0  0  0  0  0  0  0  0  0  0  0  0
   -4.8210   25.4190  -30.3530 C   0  0  0  0  0  0  0  0  0  0  0  0
   -5.8750   24.9000  -31.0970 C   0  0  0  0  0  0  0  0  0  0  0  0
   -5.7900   23.6260  -31.6770 C   0  0  0  0  0  0  0  0  0  0  0  0
   -6.8860   23.1360  -32.4700 N   0  0  0  0  0  0  0  0  0  0  0  0
   -8.1850   22.2060  -31.7940 S   0  0  0  0  0  0  0  0  0  0  0  0
   -9.4950   22.6960  -32.3430 O   0  0  0  0  0  0  0  0  0  0  0  0
   -8.2020   22.3890  -30.3030 O   0  0  0  0  0  0  0  0  0  0  0  0
   -7.9490   20.5020  -32.1680 C   0  0  0  0  0  0  0  0  0  0  0  0
   -8.7690   19.5230  -31.5890 C   0  0  0  0  0  0  0  0  0  0  0  0
   -8.5780   18.1760  -31.9030 C   0  0  0  0  0  0  0  0  0  0  0  0
   -7.5650   17.7970  -32.7890 C   0  0  0  0  0  0  0  0  0  0  0  0
   -6.7310   18.7680  -33.3740 C   0  0  0  0  0  0  0  0  0  0  0  0
   -5.6530   18.3730  -34.3090 C   0  0  0  0  0  0  0  0  0  0  0  0
   -5.8550   17.4920  -35.1860 O   0  0  0  0  0  0  0  0  0  0  0  0
   -4.3990   18.9710  -34.2310 O   0  0  0  0  0  0  0  0  0  0  0  0
   -6.9340   20.1230  -33.0570 C   0  0  0  0  0  0  0  0  0  0  0  0
   -4.6000   22.8700  -31.5180 C   0  0  0  0  0  0  0  0  0  0  0  0
   -4.4680   21.5790  -32.0730 C   0  0  0  0  0  0  0  0  0  0  0  0
   -3.2790   20.8640  -31.9390 C   0  0  0  0  0  0  0  0  0  0  0  0
   -2.2010   21.4180  -31.2540 C   0  0  0  0  0  0  0  0  0  0  0  0
   -2.3120   22.6820  -30.6760 C   0  0  0  0  0  0  0  0  0  0  0  0
   -3.5140   23.4120  -30.7700 C   0  0  0  0  0  0  0  0  0  0  0  0
   -1.4118   26.1419  -24.3507 H   0  0  0  0  0  0  0  0  0  0  0  0
   -1.5745   27.3800  -25.6420 H   0  0  0  0  0  0  0  0  0  0  0  0
   -2.6435   25.9365  -25.6420 H   0  0  0  0  0  0  0  0  0  0  0  0
    1.0043   26.0786  -24.9185 H   0  0  0  0  0  0  0  0  0  0  0  0
    2.7272   24.8384  -26.2163 H   0  0  0  0  0  0  0  0  0  0  0  0
    2.0880   23.6048  -28.2844 H   0  0  0  0  0  0  0  0  0  0  0  0
   -0.2674   23.6291  -29.0791 H   0  0  0  0  0  0  0  0  0  0  0  0
   -4.9094   26.4229  -29.9121 H   0  0  0  0  0  0  0  0  0  0  0  0
   -6.7886   25.4974  -31.2325 H   0  0  0  0  0  0  0  0  0  0  0  0
   -6.9210   23.3320  -33.4940 H   0  0  0  0  0  0  0  0  0  0  0  0
   -9.5633   19.8164  -30.8869 H   0  0  0  0  0  0  0  0  0  0  0  0
   -9.2265   17.4106  -31.4519 H   0  0  0  0  0  0  0  0  0  0  0  0
   -7.4190   16.7337  -33.0302 H   0  0  0  0  0  0  0  0  0  0  0  0
   -6.2909   20.8916  -33.5105 H   0  0  0  0  0  0  0  0  0  0  0  0
   -5.3129   21.1321  -32.6174 H   0  0  0  0  0  0  0  0  0  0  0  0
   -3.1921   19.8583  -32.3761 H   0  0  0  0  0  0  0  0  0  0  0  0
   -1.2588   20.8568  -31.1685 H   0  0  0  0  0  0  0  0  0  0  0  0
   -1.4530   23.1137  -30.1414 H   0  0  0  0  0  0  0  0  0  0  0  0
  1  2  1  0
  2  3  2  0
  3  4  1  0
  4  5  2  0
  5  6  1  0
  6  7  2  0
  7  8  1  0
  8  9  2  0
  8 10  1  0
 10 11  1  0
 11 12  2  0
 12 13  1  0
 13 14  2  0
 14 15  1  0
 15 16  1  0
 16 17  2  0
 16 18  2  0
 16 19  1  0
 19 20  2  0
 20 21  1  0
 21 22  2  0
 22 23  1  0
 23 24  1  0
 24 25  2  0
 24 26  1  0
 23 27  2  0
 14 28  1  0
 28 29  2  0
 29 30  1  0
 30 31  2  0
 31 32  1  0
 32 33  2  0
  7  2  1  0
 33 11  1  0
 27 19  1  0
 33 28  1  0
  1 34  1  0
  1 35  1  0
  1 36  1  0
  3 37  1  0
  4 38  1  0
  5 39  1  0
  6 40  1  0
 12 41  1  0
 13 42  1  0
 15 43  1  0
 20 44  1  0
 21 45  1  0
 22 46  1  0
 27 47  1  0
 29 48  1  0
 30 49  1  0
 31 50  1  0
 32 51  1  0
M  CHG  2  10  -1  26  -1
M  END
>  <UniqueID>  (47) 
44

>  <SMILES>  (47) 
Cc1ccccc1C(=O)[N-]c1ccc(NS(=O)(=O)c2cccc(C(=O)[O-])c2)c2ccccc12

>  <Energy>  (47) 
79.09758882306203

>  <Genealogy>  (47) 
Cc1ccccc1C(=O)[N-]c1ccc(NS(=O)(=O)c2cccc(C(=O)[O-])c2)c2ccccc12 (protonated)
Cc1ccccc1C(=O)[N-]c1ccc(NS(=O)(=O)c2cccc(C(=O)[O-])c2)c2ccccc12 (3D coordinates assigned)
Cc1ccccc1C(=O)[N-]c1ccc(NS(=O)(=O)c2cccc(C(=O)[O-])c2)c2ccccc12 (optimized conformer: 79.09758882306203 kcal/mol)

>  <smiles>  (47) 
Cc1ccccc1C(=O)Nc1ccc(NS(=O)(=O)c2cccc(C(=O)O)c2)c2ccccc12

>  <score_type>  (47) 
oracle

>  <origin>  (47) 
adgpu

>  <m_score__min__energy>  (47) 
-12.66

>  <m_primary>  (47) 
energy

$$$$
47:0
     RDKit          3D

 36 38  0  0  0  0  0  0  0  0999 V2000
   -3.4190   20.1460  -31.8140 O   0  0  0  0  0  0  0  0  0  0  0  0
   -4.3080   20.9290  -32.2490 C   0  0  0  0  0  0  0  0  0  0  0  0
   -5.2100   20.4740  -33.2700 N   0  0  0  0  0  0  0  0  0  0  0  0
   -5.4690   19.0820  -33.5110 C   0  0  0  0  0  0  0  0  0  0  0  0
   -4.9160   18.4760  -34.6490 C   0  0  0  0  0  0  0  0  0  0  0  0
   -5.0940   17.1100  -34.8820 C   0  0  0  0  0  0  0  0  0  0  0  0
   -5.8280   16.3360  -33.9820 C   0  0  0  0  0  0  0  0  0  0  0  0
   -6.4080   16.9310  -32.8590 C   0  0  0  0  0  0  0  0  0  0  0  0
   -6.2670   18.3060  -32.6310 C   0  0  0  0  0  0  0  0  0  0  0  0
   -6.9210   18.8640  -31.5230 O   0  0  0  0  0  0  0  0  0  0  0  0
   -7.7990   19.9570  -31.5790 C   0  0  0  0  0  0  0  0  0  0  0  0
   -9.0060   19.9100  -32.3030 C   0  0  0  0  0  0  0  0  0  0  0  0
   -9.8440   21.0290  -32.3440 C   0  0  0  0  0  0  0  0  0  0  0  0
   -9.4880   22.1960  -31.6630 C   0  0  0  0  0  0  0  0  0  0  0  0
   -8.3010   22.2430  -30.9290 C   0  0  0  0  0  0  0  0  0  0  0  0
   -7.4640   21.1240  -30.8800 C   0  0  0  0  0  0  0  0  0  0  0  0
   -4.4100   22.3020  -31.6970 C   0  0  0  0  0  0  0  0  0  0  0  0
   -5.4710   23.1410  -32.0750 C   0  0  0  0  0  0  0  0  0  0  0  0
   -5.5360   24.4440  -31.5760 C   0  0  0  0  0  0  0  0  0  0  0  0
   -4.5740   24.9020  -30.7330 N   0  0  0  0  0  0  0  0  0  0  0  0
   -3.5320   24.1190  -30.3530 C   0  0  0  0  0  0  0  0  0  0  0  0
   -3.4290   22.8080  -30.8250 C   0  0  0  0  0  0  0  0  0  0  0  0
   -5.5540   21.1650  -33.9720 H   0  0  0  0  0  0  0  0  0  0  0  0
   -4.3379   19.0808  -35.3632 H   0  0  0  0  0  0  0  0  0  0  0  0
   -4.6549   16.6437  -35.7763 H   0  0  0  0  0  0  0  0  0  0  0  0
   -5.9499   15.2569  -34.1570 H   0  0  0  0  0  0  0  0  0  0  0  0
   -6.9795   16.3155  -32.1487 H   0  0  0  0  0  0  0  0  0  0  0  0
   -9.2902   18.9914  -32.8373 H   0  0  0  0  0  0  0  0  0  0  0  0
  -10.7846   20.9903  -32.9131 H   0  0  0  0  0  0  0  0  0  0  0  0
  -10.1434   23.0785  -31.7051 H   0  0  0  0  0  0  0  0  0  0  0  0
   -8.0243   23.1606  -30.3892 H   0  0  0  0  0  0  0  0  0  0  0  0
   -6.5369   21.1602  -30.2891 H   0  0  0  0  0  0  0  0  0  0  0  0
   -6.2479   22.7734  -32.7615 H   0  0  0  0  0  0  0  0  0  0  0  0
   -6.3687   25.1014  -31.8665 H   0  0  0  0  0  0  0  0  0  0  0  0
   -2.7664   24.5180  -29.6713 H   0  0  0  0  0  0  0  0  0  0  0  0
   -2.5846   22.1744  -30.5161 H   0  0  0  0  0  0  0  0  0  0  0  0
  1  2  2  0
  2  3  1  0
  3  4  1  0
  4  5  2  0
  5  6  1  0
  6  7  2  0
  7  8  1  0
  8  9  2  0
  9 10  1  0
 10 11  1  0
 11 12  2  0
 12 13  1  0
 13 14  2  0
 14 15  1  0
 15 16  2  0
  2 17  1  0
 17 18  2  0
 18 19  1  0
 19 20  2  0
 20 21  1  0
 21 22  2  0
  9  4  1  0
 16 11  1  0
 22 17  1  0
  3 23  1  0
  5 24  1  0
  6 25  1  0
  7 26  1  0
  8 27  1  0
 12 28  1  0
 13 29  1  0
 14 30  1  0
 15 31  1  0
 16 32  1  0
 18 33  1  0
 19 34  1  0
 21 35  1  0
 22 36  1  0
M  END
>  <UniqueID>  (48) 
45

>  <SMILES>  (48) 
O=C(Nc1ccccc1Oc1ccccc1)c1ccncc1

>  <Energy>  (48) 
51.364370475428615

>  <Genealogy>  (48) 
O=C(Nc1ccccc1Oc1ccccc1)c1ccncc1 (3D coordinates assigned)
O=C(Nc1ccccc1Oc1ccccc1)c1ccncc1 (optimized conformer: 51.364370475428615 kcal/mol)

>  <smiles>  (48) 
O=C(Nc1ccccc1Oc1ccccc1)c1ccncc1

>  <score_type>  (48) 
oracle

>  <origin>  (48) 
adgpu

>  <m_score__min__energy>  (48) 
-7.5

>  <m_primary>  (48) 
energy

$$$$
48:0
     RDKit          3D

 54 58  0  0  0  0  0  0  0  0999 V2000
   -9.8540   21.7490  -31.9930 C   0  0  0  0  0  0  0  0  0  0  0  0
   -8.5410   22.3210  -31.5510 C   0  0  0  0  0  0  0  0  0  0  0  0
   -7.8700   23.2550  -32.3540 C   0  0  0  0  0  0  0  0  0  0  0  0
   -6.6590   23.8100  -31.9300 C   0  0  0  0  0  0  0  0  0  0  0  0
   -6.1100   23.4400  -30.6940 C   0  0  0  0  0  0  0  0  0  0  0  0
   -4.5420   24.0560  -30.1850 S   0  0  0  0  0  0  0  0  0  0  0  0
   -4.6090   24.3750  -28.7200 O   0  0  0  0  0  0  0  0  0  0  0  0
   -4.1990   25.3160  -30.9280 O   0  0  0  0  0  0  0  0  0  0  0  0
   -3.3220   22.8250  -30.5440 C   0  0  0  0  0  0  0  0  0  0  0  0
   -3.3220   21.9380  -31.6340 C   0  0  0  0  0  0  0  0  0  0  0  0
   -4.3150   21.8430  -32.7630 C   0  0  0  0  0  0  0  0  0  0  0  0
   -5.2180   20.6410  -32.6160 C   0  0  0  0  0  0  0  0  0  0  0  0
   -5.0080   19.7000  -31.5890 C   0  0  0  0  0  0  0  0  0  0  0  0
   -5.8550   18.5950  -31.4580 C   0  0  0  0  0  0  0  0  0  0  0  0
   -6.9300   18.4280  -32.3340 C   0  0  0  0  0  0  0  0  0  0  0  0
   -7.1670   19.3730  -33.3360 C   0  0  0  0  0  0  0  0  0  0  0  0
   -6.3240   20.4790  -33.4700 C   0  0  0  0  0  0  0  0  0  0  0  0
   -2.1110   21.2670  -31.5580 C   0  0  0  0  0  0  0  0  0  0  0  0
   -1.5200   20.3110  -32.3850 C   0  0  0  0  0  0  0  0  0  0  0  0
   -0.2310   19.8670  -32.0460 C   0  0  0  0  0  0  0  0  0  0  0  0
    0.4190   20.3990  -30.9110 C   0  0  0  0  0  0  0  0  0  0  0  0
   -0.1960   21.3430  -30.1390 N   0  0  0  0  0  0  0  0  0  0  0  0
   -1.4460   21.7570  -30.4700 C   0  0  0  0  0  0  0  0  0  0  0  0
   -2.1660   22.6970  -29.8380 N   0  0  0  0  0  0  0  0  0  0  0  0
   -1.7190   23.5110  -28.7460 C   0  0  0  0  0  0  0  0  0  0  0  0
   -1.6370   22.9780  -27.4520 C   0  0  0  0  0  0  0  0  0  0  0  0
   -1.2480   23.7900  -26.3820 C   0  0  0  0  0  0  0  0  0  0  0  0
   -0.9380   25.1370  -26.6010 C   0  0  0  0  0  0  0  0  0  0  0  0
   -1.0090   25.6700  -27.8910 C   0  0  0  0  0  0  0  0  0  0  0  0
   -1.3940   24.8590  -28.9640 C   0  0  0  0  0  0  0  0  0  0  0  0
   -6.7900   22.5260  -29.8800 C   0  0  0  0  0  0  0  0  0  0  0  0
   -8.0020   21.9750  -30.3020 C   0  0  0  0  0  0  0  0  0  0  0  0
  -10.4556   21.4869  -31.1102 H   0  0  0  0  0  0  0  0  0  0  0  0
  -10.3937   22.4935  -32.5966 H   0  0  0  0  0  0  0  0  0  0  0  0
   -9.6763   20.8467  -32.5966 H   0  0  0  0  0  0  0  0  0  0  0  0
   -8.2989   23.5523  -33.3223 H   0  0  0  0  0  0  0  0  0  0  0  0
   -6.1359   24.5383  -32.5672 H   0  0  0  0  0  0  0  0  0  0  0  0
   -4.9325   22.7533  -32.7717 H   0  0  0  0  0  0  0  0  0  0  0  0
   -3.7544   21.7366  -33.7034 H   0  0  0  0  0  0  0  0  0  0  0  0
   -4.1729   19.8352  -30.8860 H   0  0  0  0  0  0  0  0  0  0  0  0
   -5.6743   17.8559  -30.6636 H   0  0  0  0  0  0  0  0  0  0  0  0
   -7.5896   17.5533  -32.2353 H   0  0  0  0  0  0  0  0  0  0  0  0
   -8.0188   19.2458  -34.0203 H   0  0  0  0  0  0  0  0  0  0  0  0
   -6.5266   21.2287  -34.2491 H   0  0  0  0  0  0  0  0  0  0  0  0
   -2.0439   19.9196  -33.2695 H   0  0  0  0  0  0  0  0  0  0  0  0
    0.2706   19.1070  -32.6631 H   0  0  0  0  0  0  0  0  0  0  0  0
    1.4283   20.0505  -30.6466 H   0  0  0  0  0  0  0  0  0  0  0  0
   -1.8791   21.9192  -27.2780 H   0  0  0  0  0  0  0  0  0  0  0  0
   -1.1856   23.3696  -25.3674 H   0  0  0  0  0  0  0  0  0  0  0  0
   -0.6384   25.7764  -25.7576 H   0  0  0  0  0  0  0  0  0  0  0  0
   -0.7620   26.7280  -28.0628 H   0  0  0  0  0  0  0  0  0  0  0  0
   -1.4421   25.2783  -29.9798 H   0  0  0  0  0  0  0  0  0  0  0  0
   -6.3683   22.2409  -28.9049 H   0  0  0  0  0  0  0  0  0  0  0  0
   -8.5368   21.2664  -29.6524 H   0  0  0  0  0  0  0  0  0  0  0  0
  1  2  1  0
  2  3  2  0
  3  4  1  0
  4  5  2  0
  5  6  1  0
  6  7  2  0
  6  8  2  0
  6  9  1  0
  9 10  2  0
 10 11  1  0
 11 12  1  0
 12 13  2  0
 13 14  1  0
 14 15  2  0
 15 16  1  0
 16 17  2  0
 10 18  1  0
 18 19  2  0
 19 20  1  0
 20 21  2  0
 21 22  1  0
 22 23  2  0
 23 24  1  0
 24 25  1  0
 25 26  2  0
 26 27  1  0
 27 28  2  0
 28 29  1  0
 29 30  2  0
  5 31  1  0
 31 32  2  0
 32  2  1  0
 24  9  1  0
 30 25  1  0
 17 12  1  0
 23 18  1  0
  1 33  1  0
  1 34  1  0
  1 35  1  0
  3 36  1  0
  4 37  1  0
 11 38  1  0
 11 39  1  0
 13 40  1  0
 14 41  1  0
 15 42  1  0
 16 43  1  0
 17 44  1  0
 19 45  1  0
 20 46  1  0
 21 47  1  0
 26 48  1  0
 27 49  1  0
 28 50  1  0
 29 51  1  0
 30 52  1  0
 31 53  1  0
 32 54  1  0
M  END
>  <UniqueID>  (49) 
46

>  <SMILES>  (49) 
Cc1ccc(S(=O)(=O)c2c(Cc3ccccc3)c3cccnc3n2-c2ccccc2)cc1

>  <Energy>  (49) 
100.24766868741428

>  <Genealogy>  (49) 
Cc1ccc(S(=O)(=O)c2c(Cc3ccccc3)c3cccnc3n2-c2ccccc2)cc1 (3D coordinates assigned)
Cc1ccc(S(=O)(=O)c2c(Cc3ccccc3)c3cccnc3n2-c2ccccc2)cc1 (optimized conformer: 100.24766868741428 kcal/mol)

>  <smiles>  (49) 
Cc1ccc(S(=O)(=O)c2c(Cc3ccccc3)c3cccnc3n2-c2ccccc2)cc1

>  <score_type>  (49) 
oracle

>  <origin>  (49) 
adgpu

>  <m_score__min__energy>  (49) 
-10.49

>  <m_primary>  (49) 
energy

$$$$
49:0
     RDKit          3D

 44 46  0  0  1  0  0  0  0  0999 V2000
   -5.7640   17.1260  -34.5960 C   0  0  0  0  0  0  0  0  0  0  0  0
   -6.4860   18.3430  -34.2680 N   0  0  0  0  0  0  0  0  0  0  0  0
   -6.7240   18.7120  -32.9160 C   0  0  0  0  0  0  0  0  0  0  0  0
   -6.2740   17.9250  -32.0350 O   0  0  0  0  0  0  0  0  0  0  0  0
   -7.4440   19.9270  -32.5550 C   0  0  0  0  0  0  0  0  0  0  0  0
   -8.7590   19.9490  -32.1660 C   0  0  0  0  0  0  0  0  0  0  0  0
   -9.3500   21.1510  -31.8450 C   0  0  0  0  0  0  0  0  0  0  0  0
   -8.6540   22.3590  -31.9010 C   0  0  0  0  0  0  0  0  0  0  0  0
   -7.3490   22.3390  -32.2870 C   0  0  0  0  0  0  0  0  0  0  0  0
   -6.5810   23.5500  -32.3650 N   0  0  0  0  0  0  0  0  0  0  0  0
   -6.4820   24.3860  -31.1860 C   0  0  0  0  0  0  0  0  0  0  0  0
   -5.1250   24.1430  -30.5840 C   0  0  0  0  0  0  0  0  0  0  0  0
   -4.7630   24.7030  -29.4170 N   0  0  0  0  0  0  0  0  0  0  0  0
   -3.5440   24.4700  -28.8990 C   0  0  0  0  0  0  0  0  0  0  0  0
   -2.6540   23.6420  -29.5760 C   0  0  0  0  0  0  0  0  0  0  0  0
   -3.0230   23.0630  -30.7760 C   0  0  0  0  0  0  0  0  0  0  0  0
   -2.1670   22.2070  -31.5230 N   0  0  0  0  0  0  0  0  0  0  0  0
   -2.5420   21.1400  -32.1050 C   0  0  0  0  0  0  0  0  0  0  0  0
   -1.7090   20.3000  -32.8350 C   0  0  0  0  0  0  0  0  0  0  0  0
   -2.5430   19.2840  -33.2760 C   0  0  0  0  0  0  0  0  0  0  0  0
   -2.0430   18.1550  -34.1080 C   0  0  0  0  0  0  0  0  0  0  0  0
   -3.7780   19.5320  -32.8210 N   0  0  0  0  0  0  0  0  0  0  0  0
   -3.7880   20.6640  -32.1050 N   0  0  0  0  0  0  0  0  0  0  0  0
   -4.2590   23.3430  -31.2310 N   0  0  0  0  0  0  0  0  0  0  0  0
   -6.7700   21.1280  -32.6060 C   0  0  0  0  0  0  0  0  0  0  0  0
   -5.4623   16.6174  -33.6685 H   0  0  0  0  0  0  0  0  0  0  0  0
   -6.4139   16.4612  -35.1839 H   0  0  0  0  0  0  0  0  0  0  0  0
   -4.8691   17.3778  -35.1839 H   0  0  0  0  0  0  0  0  0  0  0  0
   -6.8220   18.9370  -35.0570 H   0  0  0  0  0  0  0  0  0  0  0  0
   -9.3368   19.0146  -32.1108 H   0  0  0  0  0  0  0  0  0  0  0  0
  -10.4052   21.1589  -31.5343 H   0  0  0  0  0  0  0  0  0  0  0  0
   -9.1487   23.3059  -31.6391 H   0  0  0  0  0  0  0  0  0  0  0  0
   -6.1140   23.7950  -33.2720 H   0  0  0  0  0  0  0  0  0  0  0  0
   -6.5871   25.4450  -31.4645 H   0  0  0  0  0  0  0  0  0  0  0  0
   -7.2783   24.1443  -30.4667 H   0  0  0  0  0  0  0  0  0  0  0  0
   -3.2518   24.9319  -27.9444 H   0  0  0  0  0  0  0  0  0  0  0  0
   -1.6560   23.4479  -29.1561 H   0  0  0  0  0  0  0  0  0  0  0  0
   -0.6310   20.4154  -33.0209 H   0  0  0  0  0  0  0  0  0  0  0  0
   -1.6852   17.3471  -33.4528 H   0  0  0  0  0  0  0  0  0  0  0  0
   -2.8584   17.7782  -34.7429 H   0  0  0  0  0  0  0  0  0  0  0  0
   -1.2160   18.5056  -34.7429 H   0  0  0  0  0  0  0  0  0  0  0  0
   -4.6090   18.9020  -33.0180 H   0  0  0  0  0  0  0  0  0  0  0  0
   -4.6210   21.1010  -31.6280 H   0  0  0  0  0  0  0  0  0  0  0  0
   -5.7150   21.1207  -32.9174 H   0  0  0  0  0  0  0  0  0  0  0  0
  1  2  1  0
  2  3  1  0
  3  4  2  0
  3  5  1  0
  5  6  2  0
  6  7  1  0
  7  8  2  0
  8  9  1  0
  9 10  1  0
 10 11  1  0
 11 12  1  0
 12 13  2  0
 13 14  1  0
 14 15  2  0
 15 16  1  0
 16 17  1  0
 17 18  2  0
 18 19  1  0
 19 20  2  0
 20 21  1  0
 20 22  1  0
 22 23  1  0
 16 24  2  0
  9 25  2  0
 25  5  1  0
 24 12  1  0
 23 18  1  0
  1 26  1  0
  1 27  1  0
  1 28  1  0
  2 29  1  0
  6 30  1  0
  7 31  1  0
  8 32  1  0
 10 33  1  0
 11 34  1  0
 11 35  1  0
 14 36  1  0
 15 37  1  0
 19 38  1  0
 21 39  1  0
 21 40  1  0
 21 41  1  0
 22 42  1  0
 23 43  1  0
 25 44  1  0
M  END
>  <smiles>  (50) 
CNC(=O)c1cccc(NCc2nccc(N=c3cc(C)[nH][nH]3)n2)c1

>  <score_type>  (50) 
oracle

>  <origin>  (50) 
adgpu

>  <m_score__min__energy>  (50) 
-8.8900000000000006

>  <m_primary>  (50) 
energy

$$$$
