0:0
     RDKit          3D

 55 58  0  0  0  0  0  0  0  0999 V2000
   -2.9140   17.6420  -34.8670 C   0  0  0  0  0  0  0  0  0  0  0  0
   -3.2030   18.7320  -33.9310 N   0  0  0  0  0  0  0  0  0  0  0  0
   -4.5540   18.9300  -33.4640 C   0  0  0  0  0  0  0  0  0  0  0  0
   -5.4520   17.8510  -33.4130 C   0  0  0  0  0  0  0  0  0  0  0  0
   -6.7640   18.0440  -32.9690 C   0  0  0  0  0  0  0  0  0  0  0  0
   -7.1920   19.3150  -32.5630 C   0  0  0  0  0  0  0  0  0  0  0  0
   -8.8460   19.5380  -32.0000 S   0  0  0  0  0  0  0  0  0  0  0  0
   -9.0580   21.2080  -31.4270 C   0  0  0  0  0  0  0  0  0  0  0  0
   -9.1270   18.5740  -30.8800 O   0  0  0  0  0  0  0  0  0  0  0  0
   -9.8160   19.2780  -33.1190 O   0  0  0  0  0  0  0  0  0  0  0  0
   -6.2960   20.3920  -32.6020 C   0  0  0  0  0  0  0  0  0  0  0  0
   -4.9860   20.2010  -33.0510 C   0  0  0  0  0  0  0  0  0  0  0  0
   -2.1190   19.5120  -33.3850 C   0  0  0  0  0  0  0  0  0  0  0  0
   -1.1640   20.0280  -34.2050 N   0  0  0  0  0  0  0  0  0  0  0  0
   -0.1270   20.7680  -33.7230 C   0  0  0  0  0  0  0  0  0  0  0  0
    0.8710   21.3210  -34.6740 C   0  0  0  0  0  0  0  0  0  0  0  0
    0.5340   22.2950  -35.6310 C   0  0  0  0  0  0  0  0  0  0  0  0
    1.4810   22.7830  -36.4720 N   0  0  0  0  0  0  0  0  0  0  0  0
    2.7660   22.3490  -36.4100 C   0  0  0  0  0  0  0  0  0  0  0  0
    3.6450   22.8290  -37.2270 N   0  0  0  0  0  0  0  0  0  0  0  0
    3.1220   21.4170  -35.4890 N   0  0  0  0  0  0  0  0  0  0  0  0
    2.2100   20.9020  -34.6240 C   0  0  0  0  0  0  0  0  0  0  0  0
   -0.0490   21.0090  -32.3430 C   0  0  0  0  0  0  0  0  0  0  0  0
   -1.0210   20.4500  -31.4990 C   0  0  0  0  0  0  0  0  0  0  0  0
   -1.0020   20.6810  -30.0780 N   0  0  0  0  0  0  0  0  0  0  0  0
   -2.1290   21.3250  -29.3880 C   0  0  0  0  0  0  0  0  0  0  0  0
   -2.5300   20.5190  -28.1420 C   0  0  0  0  0  0  0  0  0  0  0  0
   -1.3260   19.8820  -27.4020 C   0  0  0  0  0  0  0  0  0  0  0  0
   -1.2840   18.5250  -27.6810 F   0  0  0  0  0  0  0  0  0  0  0  0
   -1.4950   20.0350  -26.0370 F   0  0  0  0  0  0  0  0  0  0  0  0
    0.0110   20.5140  -27.8120 C   0  0  0  0  0  0  0  0  0  0  0  0
    0.2290   20.3910  -29.3280 C   0  0  0  0  0  0  0  0  0  0  0  0
   -2.0320   19.7250  -32.0470 N   0  0  0  0  0  0  0  0  0  0  0  0
   -2.6719   16.7290  -34.3032 H   0  0  0  0  0  0  0  0  0  0  0  0
   -3.7947   17.4592  -35.5002 H   0  0  0  0  0  0  0  0  0  0  0  0
   -2.0584   17.9196  -35.5002 H   0  0  0  0  0  0  0  0  0  0  0  0
   -5.1215   16.8490  -33.7239 H   0  0  0  0  0  0  0  0  0  0  0  0
   -7.4626   17.1949  -32.9384 H   0  0  0  0  0  0  0  0  0  0  0  0
   -9.0596   21.2208  -30.3271 H   0  0  0  0  0  0  0  0  0  0  0  0
   -8.2318   21.8312  -31.7997 H   0  0  0  0  0  0  0  0  0  0  0  0
  -10.0138   21.6050  -31.7997 H   0  0  0  0  0  0  0  0  0  0  0  0
   -6.6246   21.3906  -32.2783 H   0  0  0  0  0  0  0  0  0  0  0  0
   -4.2891   21.0515  -33.0810 H   0  0  0  0  0  0  0  0  0  0  0  0
   -0.5006   22.6625  -35.6981 H   0  0  0  0  0  0  0  0  0  0  0  0
    4.6420   22.5170  -37.2020 H   0  0  0  0  0  0  0  0  0  0  0  0
    2.5220   20.1533  -33.8810 H   0  0  0  0  0  0  0  0  0  0  0  0
    0.7616   21.6266  -31.9289 H   0  0  0  0  0  0  0  0  0  0  0  0
   -1.8343   22.3400  -29.0830 H   0  0  0  0  0  0  0  0  0  0  0  0
   -2.9875   21.3691  -30.0743 H   0  0  0  0  0  0  0  0  0  0  0  0
   -3.0503   21.1922  -27.4448 H   0  0  0  0  0  0  0  0  0  0  0  0
   -3.1721   19.6939  -28.4840 H   0  0  0  0  0  0  0  0  0  0  0  0
    0.0078   21.5780  -27.5330 H   0  0  0  0  0  0  0  0  0  0  0  0
    0.8250   19.9855  -27.2941 H   0  0  0  0  0  0  0  0  0  0  0  0
    1.0098   21.1023  -29.6351 H   0  0  0  0  0  0  0  0  0  0  0  0
    0.5305   19.3565  -29.5490 H   0  0  0  0  0  0  0  0  0  0  0  0
  1  2  1  0
  2  3  1  0
  3  4  2  0
  4  5  1  0
  5  6  2  0
  6  7  1  0
  7  8  1  0
  7  9  2  0
  7 10  2  0
  6 11  1  0
 11 12  2  0
  2 13  1  0
 13 14  2  0
 14 15  1  0
 15 16  1  0
 16 17  1  0
 17 18  2  0
 18 19  1  0
 19 20  2  3
 19 21  1  0
 21 22  1  0
 15 23  2  0
 23 24  1  0
 24 25  1  0
 25 26  1  0
 26 27  1  0
 27 28  1  0
 28 29  1  0
 28 30  1  0
 28 31  1  0
 31 32  1  0
 24 33  2  0
 12  3  1  0
 33 13  1  0
 22 16  2  0
 32 25  1  0
  1 34  1  0
  1 35  1  0
  1 36  1  0
  4 37  1  0
  5 38  1  0
  8 39  1  0
  8 40  1  0
  8 41  1  0
 11 42  1  0
 12 43  1  0
 17 44  1  0
 20 45  1  0
 22 46  1  0
 23 47  1  0
 26 48  1  0
 26 49  1  0
 27 50  1  0
 27 51  1  0
 31 52  1  0
 31 53  1  0
 32 54  1  0
 32 55  1  0
M  CHG  1  21  -1
M  END
>  <UniqueID>  (1) 
1

>  <SMILES>  (1) 
CN(c1ccc(S(C)(=O)=O)cc1)c1nc(-c2cnc(=N)[n-]c2)cc(N2CCC(F)(F)CC2)n1

>  <Energy>  (1) 
69.96981169562261

>  <Genealogy>  (1) 
CN(c1ccc(S(C)(=O)=O)cc1)c1nc(-c2cnc(=N)[n-]c2)cc(N2CCC(F)(F)CC2)n1 (protonated)
CN(c1ccc(S(C)(=O)=O)cc1)c1nc(-c2cnc(=N)[n-]c2)cc(N2CCC(F)(F)CC2)n1 (3D coordinates assigned)
CN(c1ccc(S(C)(=O)=O)cc1)c1nc(-c2cnc(=N)[n-]c2)cc(N2CCC(F)(F)CC2)n1 (nonaromatic ring conformer: 69.96981169562261 kcal/mol)

>  <smiles>  (1) 
CN(c1ccc(S(C)(=O)=O)cc1)c1nc(-c2cnc(=N)[nH]c2)cc(N2CCC(F)(F)CC2)n1

>  <score_type>  (1) 
oracle

>  <origin>  (1) 
adgpu

>  <m_score__min__energy>  (1) 
-9.8599999999999994

>  <m_primary>  (1) 
energy

$$$$
1:0
     RDKit          3D

 46 48  0  0  0  0  0  0  0  0999 V2000
    0.5010   21.1480  -33.9180 C   0  0  0  0  0  0  0  0  0  0  0  0
   -1.1760   20.6720  -34.4360 S   0  0  0  0  0  0  0  0  0  0  0  0
   -1.8790   20.9640  -32.8160 C   0  0  0  0  0  0  0  0  0  0  0  0
   -3.1710   20.6340  -32.5390 N   0  0  0  0  0  0  0  0  0  0  0  0
   -3.3920   21.0810  -30.9560 S   0  0  0  0  0  0  0  0  0  0  0  0
   -1.8630   21.6630  -30.6850 C   0  0  0  0  0  0  0  0  0  0  0  0
   -1.2500   22.3380  -29.1460 S   0  0  0  0  0  0  0  0  0  0  0  0
   -2.8000   23.2140  -28.7430 C   0  0  0  0  0  0  0  0  0  0  0  0
   -2.8370   24.5370  -29.4530 C   0  0  0  0  0  0  0  0  0  0  0  0
   -1.8670   25.3290  -29.3160 O   0  0  0  0  0  0  0  0  0  0  0  0
   -3.9060   24.8990  -30.3380 N   0  0  0  0  0  0  0  0  0  0  0  0
   -5.0310   24.0760  -30.6740 C   0  0  0  0  0  0  0  0  0  0  0  0
   -5.8000   23.5180  -29.6470 C   0  0  0  0  0  0  0  0  0  0  0  0
   -6.9410   22.7690  -29.9500 C   0  0  0  0  0  0  0  0  0  0  0  0
   -7.3160   22.5650  -31.2850 C   0  0  0  0  0  0  0  0  0  0  0  0
   -8.8140   21.7170  -31.6700 S   0  0  0  0  0  0  0  0  0  0  0  0
   -9.7570   22.6630  -32.3610 O   0  0  0  0  0  0  0  0  0  0  0  0
   -9.4660   21.2680  -30.3920 O   0  0  0  0  0  0  0  0  0  0  0  0
   -8.5340   20.3290  -32.7000 N   0  0  0  0  0  0  0  0  0  0  0  0
   -9.0660   19.0680  -32.1260 C   0  0  0  0  0  0  0  0  0  0  0  0
   -8.0600   17.9120  -32.1400 C   0  0  0  0  0  0  0  0  0  0  0  0
   -6.7410   18.3750  -31.5330 C   0  0  0  0  0  0  0  0  0  0  0  0
   -6.1470   19.5590  -32.3080 C   0  0  0  0  0  0  0  0  0  0  0  0
   -7.1550   20.2770  -33.2320 C   0  0  0  0  0  0  0  0  0  0  0  0
   -6.5000   23.0550  -32.3140 C   0  0  0  0  0  0  0  0  0  0  0  0
   -5.3590   23.8010  -32.0100 C   0  0  0  0  0  0  0  0  0  0  0  0
   -1.1380   21.5270  -31.8130 N   0  0  0  0  0  0  0  0  0  0  0  0
    0.5549   21.1633  -32.8194 H   0  0  0  0  0  0  0  0  0  0  0  0
    1.2265   20.4203  -34.3106 H   0  0  0  0  0  0  0  0  0  0  0  0
    0.7360   22.1483  -34.3106 H   0  0  0  0  0  0  0  0  0  0  0  0
   -3.6578   22.6040  -29.0627 H   0  0  0  0  0  0  0  0  0  0  0  0
   -2.8493   23.3834  -27.6572 H   0  0  0  0  0  0  0  0  0  0  0  0
   -5.5060   23.6691  -28.5978 H   0  0  0  0  0  0  0  0  0  0  0  0
   -7.5461   22.3386  -29.1384 H   0  0  0  0  0  0  0  0  0  0  0  0
   -9.3616   19.2585  -31.0837 H   0  0  0  0  0  0  0  0  0  0  0  0
   -9.9157   18.7623  -32.7542 H   0  0  0  0  0  0  0  0  0  0  0  0
   -8.4589   17.0724  -31.5519 H   0  0  0  0  0  0  0  0  0  0  0  0
   -7.8909   17.5874  -33.1773 H   0  0  0  0  0  0  0  0  0  0  0  0
   -6.9157   18.6819  -30.4912 H   0  0  0  0  0  0  0  0  0  0  0  0
   -6.0276   17.5391  -31.5820 H   0  0  0  0  0  0  0  0  0  0  0  0
   -5.7632   20.2900  -31.5812 H   0  0  0  0  0  0  0  0  0  0  0  0
   -5.3579   19.1501  -32.9562 H   0  0  0  0  0  0  0  0  0  0  0  0
   -6.8061   21.3085  -33.3877 H   0  0  0  0  0  0  0  0  0  0  0  0
   -7.1978   19.6963  -34.1652 H   0  0  0  0  0  0  0  0  0  0  0  0
   -6.7589   22.8515  -33.3636 H   0  0  0  0  0  0  0  0  0  0  0  0
   -4.7157   24.1740  -32.8205 H   0  0  0  0  0  0  0  0  0  0  0  0
  1  2  1  0
  2  3  1  0
  3  4  2  0
  4  5  1  0
  5  6  1  0
  6  7  1  0
  7  8  1  0
  8  9  1  0
  9 10  2  0
  9 11  1  0
 11 12  1  0
 12 13  2  0
 13 14  1  0
 14 15  2  0
 15 16  1  0
 16 17  2  0
 16 18  2  0
 16 19  1  0
 19 20  1  0
 20 21  1  0
 21 22  1  0
 22 23  1  0
 23 24  1  0
 15 25  1  0
 25 26  2  0
  6 27  2  0
 27  3  1  0
 26 12  1  0
 24 19  1  0
  1 28  1  0
  1 29  1  0
  1 30  1  0
  8 31  1  0
  8 32  1  0
 13 33  1  0
 14 34  1  0
 20 35  1  0
 20 36  1  0
 21 37  1  0
 21 38  1  0
 22 39  1  0
 22 40  1  0
 23 41  1  0
 23 42  1  0
 24 43  1  0
 24 44  1  0
 25 45  1  0
 26 46  1  0
M  CHG  1  11  -1
M  END
>  <UniqueID>  (2) 
2

>  <SMILES>  (2) 
CSc1nsc(SCC(=O)[N-]c2ccc(S(=O)(=O)N3CCCCC3)cc2)n1

>  <Energy>  (2) 
84.03759128132168

>  <Genealogy>  (2) 
CSc1nsc(SCC(=O)[N-]c2ccc(S(=O)(=O)N3CCCCC3)cc2)n1 (protonated)
CSc1nsc(SCC(=O)[N-]c2ccc(S(=O)(=O)N3CCCCC3)cc2)n1 (3D coordinates assigned)
CSc1nsc(SCC(=O)[N-]c2ccc(S(=O)(=O)N3CCCCC3)cc2)n1 (nonaromatic ring conformer: 84.03759128132168 kcal/mol)

>  <smiles>  (2) 
CSc1nsc(SCC(=O)Nc2ccc(S(=O)(=O)N3CCCCC3)cc2)n1

>  <score_type>  (2) 
oracle

>  <origin>  (2) 
adgpu

>  <m_score__min__energy>  (2) 
-11.119999999999999

>  <m_primary>  (2) 
energy

$$$$
2:0
     RDKit          3D

 54 56  0  0  0  0  0  0  0  0999 V2000
   -6.7780   16.3290  -34.2160 C   0  0  0  0  0  0  0  0  0  0  0  0
   -5.6000   16.4820  -33.3680 N   0  0  0  0  0  0  0  0  0  0  0  0
   -4.9710   18.1030  -33.4780 S   0  0  0  0  0  0  0  0  0  0  0  0
   -3.5550   18.1520  -32.9690 O   0  0  0  0  0  0  0  0  0  0  0  0
   -4.9940   18.4890  -34.9300 O   0  0  0  0  0  0  0  0  0  0  0  0
   -5.9850   19.2190  -32.5340 C   0  0  0  0  0  0  0  0  0  0  0  0
   -7.2160   18.7160  -32.0860 C   0  0  0  0  0  0  0  0  0  0  0  0
   -8.1200   19.5270  -31.4170 C   0  0  0  0  0  0  0  0  0  0  0  0
   -7.8320   20.8670  -31.2140 C   0  0  0  0  0  0  0  0  0  0  0  0
   -6.6170   21.4200  -31.6450 C   0  0  0  0  0  0  0  0  0  0  0  0
   -6.4310   23.1760  -31.4110 S   0  0  0  0  0  0  0  0  0  0  0  0
   -7.7180   23.7530  -30.8880 O   0  0  0  0  0  0  0  0  0  0  0  0
   -6.1350   23.8390  -32.7270 O   0  0  0  0  0  0  0  0  0  0  0  0
   -5.1600   23.5290  -30.2430 C   0  0  0  0  0  0  0  0  0  0  0  0
   -4.0410   24.2840  -30.6170 C   0  0  0  0  0  0  0  0  0  0  0  0
   -3.0330   24.5600  -29.6880 C   0  0  0  0  0  0  0  0  0  0  0  0
   -3.1380   24.0870  -28.3710 C   0  0  0  0  0  0  0  0  0  0  0  0
   -2.0370   24.3480  -27.3870 C   0  0  0  0  0  0  0  0  0  0  0  0
   -4.2470   23.3090  -28.0040 C   0  0  0  0  0  0  0  0  0  0  0  0
   -5.2540   23.0350  -28.9340 C   0  0  0  0  0  0  0  0  0  0  0  0
   -5.6340   20.5780  -32.2540 C   0  0  0  0  0  0  0  0  0  0  0  0
   -4.0070   21.2110  -32.6690 S   0  0  0  0  0  0  0  0  0  0  0  0
   -3.4240   20.4480  -33.8230 O   0  0  0  0  0  0  0  0  0  0  0  0
   -4.0950   22.6450  -33.1050 O   0  0  0  0  0  0  0  0  0  0  0  0
   -2.9050   21.1000  -31.2960 C   0  0  0  0  0  0  0  0  0  0  0  0
   -1.5640   21.4830  -31.4130 C   0  0  0  0  0  0  0  0  0  0  0  0
   -0.7090   21.3960  -30.3130 C   0  0  0  0  0  0  0  0  0  0  0  0
   -1.1790   20.9240  -29.0770 C   0  0  0  0  0  0  0  0  0  0  0  0
   -0.2300   20.8360  -27.9110 C   0  0  0  0  0  0  0  0  0  0  0  0
   -2.5320   20.5240  -28.9560 C   0  0  0  0  0  0  0  0  0  0  0  0
   -3.0840   20.0200  -27.6480 C   0  0  0  0  0  0  0  0  0  0  0  0
   -3.3820   20.6220  -30.0710 C   0  0  0  0  0  0  0  0  0  0  0  0
   -7.6715   16.2130  -33.5850 H   0  0  0  0  0  0  0  0  0  0  0  0
   -6.8909   17.2200  -34.8511 H   0  0  0  0  0  0  0  0  0  0  0  0
   -6.6595   15.4387  -34.8511 H   0  0  0  0  0  0  0  0  0  0  0  0
   -7.4680   17.6609  -32.2686 H   0  0  0  0  0  0  0  0  0  0  0  0
   -9.0666   19.1062  -31.0471 H   0  0  0  0  0  0  0  0  0  0  0  0
   -8.5682   21.5077  -30.7065 H   0  0  0  0  0  0  0  0  0  0  0  0
   -3.9548   24.6616  -31.6465 H   0  0  0  0  0  0  0  0  0  0  0  0
   -2.1551   25.1497  -29.9905 H   0  0  0  0  0  0  0  0  0  0  0  0
   -2.4300   24.2548  -26.3638 H   0  0  0  0  0  0  0  0  0  0  0  0
   -1.2295   23.6164  -27.5377 H   0  0  0  0  0  0  0  0  0  0  0  0
   -1.6439   25.3642  -27.5377 H   0  0  0  0  0  0  0  0  0  0  0  0
   -4.3241   22.9133  -26.9805 H   0  0  0  0  0  0  0  0  0  0  0  0
   -6.1234   22.4296  -28.6379 H   0  0  0  0  0  0  0  0  0  0  0  0
   -1.1822   21.8541  -32.3756 H   0  0  0  0  0  0  0  0  0  0  0  0
    0.3431   21.7002  -30.4155 H   0  0  0  0  0  0  0  0  0  0  0  0
   -0.7985   20.8887  -26.9708 H   0  0  0  0  0  0  0  0  0  0  0  0
    0.3179   19.8832  -27.9553 H   0  0  0  0  0  0  0  0  0  0  0  0
    0.4838   21.6718  -27.9553 H   0  0  0  0  0  0  0  0  0  0  0  0
   -2.5534   20.5045  -26.8151 H   0  0  0  0  0  0  0  0  0  0  0  0
   -4.1564   20.2570  -27.5869 H   0  0  0  0  0  0  0  0  0  0  0  0
   -2.9452   18.9305  -27.5869 H   0  0  0  0  0  0  0  0  0  0  0  0
   -4.4355   20.3190  -29.9792 H   0  0  0  0  0  0  0  0  0  0  0  0
  1  2  1  0
  2  3  1  0
  3  4  2  0
  3  5  2  0
  3  6  1  0
  6  7  2  0
  7  8  1  0
  8  9  2  0
  9 10  1  0
 10 11  1  0
 11 12  2  0
 11 13  2  0
 11 14  1  0
 14 15  2  0
 15 16  1  0
 16 17  2  0
 17 18  1  0
 17 19  1  0
 19 20  2  0
 10 21  2  0
 21 22  1  0
 22 23  2  0
 22 24  2  0
 22 25  1  0
 25 26  2  0
 26 27  1  0
 27 28  2  0
 28 29  1  0
 28 30  1  0
 30 31  1  0
 30 32  2  0
 21  6  1  0
 32 25  1  0
 20 14  1  0
  1 33  1  0
  1 34  1  0
  1 35  1  0
  7 36  1  0
  8 37  1  0
  9 38  1  0
 15 39  1  0
 16 40  1  0
 18 41  1  0
 18 42  1  0
 18 43  1  0
 19 44  1  0
 20 45  1  0
 26 46  1  0
 27 47  1  0
 29 48  1  0
 29 49  1  0
 29 50  1  0
 31 51  1  0
 31 52  1  0
 31 53  1  0
 32 54  1  0
M  CHG  1   2  -1
M  END
>  <UniqueID>  (3) 
3

>  <SMILES>  (3) 
C[N-]S(=O)(=O)c1cccc(S(=O)(=O)c2ccc(C)cc2)c1S(=O)(=O)c1ccc(C)c(C)c1

>  <Energy>  (3) 
69.98886075227472

>  <Genealogy>  (3) 
C[N-]S(=O)(=O)c1cccc(S(=O)(=O)c2ccc(C)cc2)c1S(=O)(=O)c1ccc(C)c(C)c1 (protonated)
C[N-]S(=O)(=O)c1cccc(S(=O)(=O)c2ccc(C)cc2)c1S(=O)(=O)c1ccc(C)c(C)c1 (3D coordinates assigned)
C[N-]S(=O)(=O)c1cccc(S(=O)(=O)c2ccc(C)cc2)c1S(=O)(=O)c1ccc(C)c(C)c1 (optimized conformer: 69.98886075227472 kcal/mol)

>  <smiles>  (3) 
CNS(=O)(=O)c1cccc(S(=O)(=O)c2ccc(C)cc2)c1S(=O)(=O)c1ccc(C)c(C)c1

>  <score_type>  (3) 
oracle

>  <origin>  (3) 
adgpu

>  <m_score__min__energy>  (3) 
-11.1

>  <m_primary>  (3) 
energy

$$$$
3:0
     RDKit          3D

 56 58  0  0  1  0  0  0  0  0999 V2000
   -0.7630   15.0060  -33.6950 C   0  0  0  0  0  0  0  0  0  0  0  0
   -1.2420   14.0820  -34.8170 C   0  0  0  0  0  0  0  0  0  0  0  0
   -2.0340   14.8480  -35.8640 C   0  0  0  0  0  0  0  0  0  0  0  0
   -3.4070   14.8370  -35.4090 N   0  0  0  0  0  0  0  0  0  0  0  0
   -3.9010   15.8270  -34.7650 C   0  0  0  0  0  0  0  0  0  0  0  0
   -5.1650   15.7640  -34.3720 N   0  0  0  0  0  0  0  0  0  0  0  0
   -5.7030   16.7910  -33.6980 C   0  0  0  0  0  0  0  0  0  0  0  0
   -4.9810   17.9450  -33.3810 C   0  0  0  0  0  0  0  0  0  0  0  0
   -5.7000   18.9590  -32.6570 C   0  0  0  0  0  0  0  0  0  0  0  0
   -5.5770   19.2950  -31.4680 O   0  0  0  0  0  0  0  0  0  0  0  0
   -6.7000   19.6960  -33.4150 N   0  0  0  0  0  0  0  0  0  0  0  0
   -7.4410   20.7190  -32.7390 C   0  0  0  0  0  0  0  0  0  0  0  0
   -7.0190   22.0270  -32.6620 C   0  0  0  0  0  0  0  0  0  0  0  0
   -7.8370   22.9500  -32.0340 C   0  0  0  0  0  0  0  0  0  0  0  0
   -9.0630   22.5620  -31.4910 C   0  0  0  0  0  0  0  0  0  0  0  0
   -9.4900   21.2460  -31.5670 C   0  0  0  0  0  0  0  0  0  0  0  0
   -8.6690   20.3260  -32.1950 C   0  0  0  0  0  0  0  0  0  0  0  0
   -9.1480   18.9290  -32.2590 C   0  0  0  0  0  0  0  0  0  0  0  0
   -3.6950   17.9730  -33.7980 C   0  0  0  0  0  0  0  0  0  0  0  0
   -2.9630   18.9560  -33.5730 N   0  0  0  0  0  0  0  0  0  0  0  0
   -3.2080   20.1640  -32.9120 C   0  0  0  0  0  0  0  0  0  0  0  0
   -2.8340   20.1970  -31.5470 C   0  0  0  0  0  0  0  0  0  0  0  0
   -3.0710   21.2940  -30.7620 C   0  0  0  0  0  0  0  0  0  0  0  0
   -3.6910   22.3830  -31.3300 C   0  0  0  0  0  0  0  0  0  0  0  0
   -3.9720   23.7700  -30.3020 S   0  0  0  0  0  0  0  0  0  0  0  0
   -5.0040   23.2900  -28.9250 C   0  0  0  0  0  0  0  0  0  0  0  0
   -4.6100   24.9080  -31.0230 O   0  0  0  0  0  0  0  0  0  0  0  0
   -2.6480   24.2260  -29.7190 O   0  0  0  0  0  0  0  0  0  0  0  0
   -4.0470   22.3400  -32.6460 C   0  0  0  0  0  0  0  0  0  0  0  0
   -3.8330   21.2650  -33.4870 C   0  0  0  0  0  0  0  0  0  0  0  0
   -3.1900   16.9210  -34.4740 N   0  0  0  0  0  0  0  0  0  0  0  0
   -0.9982   14.5524  -32.7209 H   0  0  0  0  0  0  0  0  0  0  0  0
    0.3241   15.1515  -33.7788 H   0  0  0  0  0  0  0  0  0  0  0  0
   -1.2706   15.9783  -33.7788 H   0  0  0  0  0  0  0  0  0  0  0  0
   -0.3676   13.6188  -35.2974 H   0  0  0  0  0  0  0  0  0  0  0  0
   -1.8975   13.3151  -34.3787 H   0  0  0  0  0  0  0  0  0  0  0  0
   -1.6652   15.8814  -35.9424 H   0  0  0  0  0  0  0  0  0  0  0  0
   -1.9348   14.3910  -36.8596 H   0  0  0  0  0  0  0  0  0  0  0  0
   -5.7460   14.9130  -34.5910 H   0  0  0  0  0  0  0  0  0  0  0  0
   -6.7544   16.7224  -33.3821 H   0  0  0  0  0  0  0  0  0  0  0  0
   -6.8670   19.4820  -34.4250 H   0  0  0  0  0  0  0  0  0  0  0  0
   -6.0528   22.3320  -33.0902 H   0  0  0  0  0  0  0  0  0  0  0  0
   -7.5177   24.0002  -31.9620 H   0  0  0  0  0  0  0  0  0  0  0  0
   -9.6987   23.3110  -30.9961 H   0  0  0  0  0  0  0  0  0  0  0  0
  -10.4563   20.9406  -31.1393 H   0  0  0  0  0  0  0  0  0  0  0  0
   -9.2814   18.5400  -31.2388 H   0  0  0  0  0  0  0  0  0  0  0  0
  -10.1091   18.8950  -32.7929 H   0  0  0  0  0  0  0  0  0  0  0  0
   -8.4099   18.3124  -32.7929 H   0  0  0  0  0  0  0  0  0  0  0  0
   -2.3403   19.3188  -31.1054 H   0  0  0  0  0  0  0  0  0  0  0  0
   -2.7729   21.3041  -29.7032 H   0  0  0  0  0  0  0  0  0  0  0  0
   -4.4910   23.5286  -27.9817 H   0  0  0  0  0  0  0  0  0  0  0  0
   -5.9570   23.8373  -28.9727 H   0  0  0  0  0  0  0  0  0  0  0  0
   -5.1994   22.2086  -28.9727 H   0  0  0  0  0  0  0  0  0  0  0  0
   -4.5411   23.2270  -33.0691 H   0  0  0  0  0  0  0  0  0  0  0  0
   -4.1376   21.2792  -34.5439 H   0  0  0  0  0  0  0  0  0  0  0  0
   -2.1840   16.9330  -34.8040 H   0  0  0  0  0  0  0  0  0  0  0  0
  1  2  1  0
  2  3  1  0
  3  4  1  0
  4  5  2  0
  5  6  1  0
  6  7  1  0
  7  8  2  0
  8  9  1  0
  9 10  2  0
  9 11  1  0
 11 12  1  0
 12 13  2  0
 13 14  1  0
 14 15  2  0
 15 16  1  0
 16 17  2  0
 17 18  1  0
  8 19  1  0
 19 20  2  0
 20 21  1  0
 21 22  2  0
 22 23  1  0
 23 24  2  0
 24 25  1  0
 25 26  1  0
 25 27  2  0
 25 28  2  0
 24 29  1  0
 29 30  2  0
 19 31  1  0
 31  5  1  0
 17 12  1  0
 30 21  1  0
  1 32  1  0
  1 33  1  0
  1 34  1  0
  2 35  1  0
  2 36  1  0
  3 37  1  0
  3 38  1  0
  6 39  1  0
  7 40  1  0
 11 41  1  0
 13 42  1  0
 14 43  1  0
 15 44  1  0
 16 45  1  0
 18 46  1  0
 18 47  1  0
 18 48  1  0
 22 49  1  0
 23 50  1  0
 26 51  1  0
 26 52  1  0
 26 53  1  0
 29 54  1  0
 30 55  1  0
 31 56  1  0
M  END
>  <smiles>  (4) 
CCCN=c1[nH]cc(C(=O)Nc2ccccc2C)c(=Nc2ccc(S(C)(=O)=O)cc2)[nH]1

>  <score_type>  (4) 
oracle

>  <origin>  (4) 
adgpu

>  <m_score__min__energy>  (4) 
-9.2799999999999994

>  <m_primary>  (4) 
energy

$$$$
4:0
     RDKit          3D

 72 75  0  0  0  0  0  0  0  0999 V2000
    0.3240   17.6920  -29.2300 C   0  0  0  0  0  0  0  0  0  0  0  0
    0.1420   19.1480  -28.2140 S   0  0  0  0  0  0  0  0  0  0  0  0
   -0.8650   18.8610  -27.1320 O   0  0  0  0  0  0  0  0  0  0  0  0
    1.4610   19.4690  -27.5690 O   0  0  0  0  0  0  0  0  0  0  0  0
   -0.4050   20.5140  -29.1610 N   0  0  0  0  0  0  0  0  0  0  0  0
   -0.0260   21.8030  -28.5320 C   0  0  0  0  0  0  0  0  0  0  0  0
   -0.3470   21.7430  -27.0320 C   0  0  0  0  0  0  0  0  0  0  0  0
   -1.2970   22.8640  -26.5770 C   0  0  0  0  0  0  0  0  0  0  0  0
   -1.6060   23.7910  -27.6760 N   0  0  0  0  0  0  0  0  0  0  0  0
   -2.7460   23.5710  -28.5320 C   0  0  0  0  0  0  0  0  0  0  0  0
   -2.6360   23.7550  -29.9180 C   0  0  0  0  0  0  0  0  0  0  0  0
   -3.7460   23.6000  -30.7500 C   0  0  0  0  0  0  0  0  0  0  0  0
   -4.9850   23.2380  -30.2100 C   0  0  0  0  0  0  0  0  0  0  0  0
   -6.3860   23.0330  -31.2600 S   0  0  0  0  0  0  0  0  0  0  0  0
   -7.3360   24.1760  -31.0460 O   0  0  0  0  0  0  0  0  0  0  0  0
   -5.9290   23.0740  -32.6920 O   0  0  0  0  0  0  0  0  0  0  0  0
   -7.2270   21.5290  -30.9560 N   0  0  0  0  0  0  0  0  0  0  0  0
   -8.6810   21.6530  -31.2100 C   0  0  0  0  0  0  0  0  0  0  0  0
   -9.2980   20.3670  -31.7690 C   0  0  0  0  0  0  0  0  0  0  0  0
   -8.6190   20.0060  -33.0920 C   0  0  0  0  0  0  0  0  0  0  0  0
   -7.0790   20.0480  -33.0010 C   0  0  0  0  0  0  0  0  0  0  0  0
   -6.5530   20.3710  -31.5910 C   0  0  0  0  0  0  0  0  0  0  0  0
   -5.0990   23.0440  -28.8280 C   0  0  0  0  0  0  0  0  0  0  0  0
   -3.9890   23.2060  -27.9950 C   0  0  0  0  0  0  0  0  0  0  0  0
   -0.6650   25.2470  -27.8410 S   0  0  0  0  0  0  0  0  0  0  0  0
   -1.2130   26.0740  -28.9680 O   0  0  0  0  0  0  0  0  0  0  0  0
    0.7720   24.9100  -28.1380 O   0  0  0  0  0  0  0  0  0  0  0  0
   -0.7050   26.1790  -26.3540 C   0  0  0  0  0  0  0  0  0  0  0  0
   -1.2660   25.7720  -25.1510 C   0  0  0  0  0  0  0  0  0  0  0  0
   -1.1910   26.7560  -24.1570 C   0  0  0  0  0  0  0  0  0  0  0  0
   -0.5720   27.9290  -24.5760 C   0  0  0  0  0  0  0  0  0  0  0  0
   -0.1240   27.7450  -26.1870 S   0  0  0  0  0  0  0  0  0  0  0  0
    0.0830   20.3930  -30.5490 C   0  0  0  0  0  0  0  0  0  0  0  0
   -1.0570   20.5650  -31.5150 C   0  0  0  0  0  0  0  0  0  0  0  0
   -0.8160   20.9120  -32.8560 C   0  0  0  0  0  0  0  0  0  0  0  0
   -1.8900   21.1190  -33.7280 C   0  0  0  0  0  0  0  0  0  0  0  0
   -3.2040   20.9740  -33.2700 C   0  0  0  0  0  0  0  0  0  0  0  0
   -3.4490   20.6240  -31.9400 C   0  0  0  0  0  0  0  0  0  0  0  0
   -2.3800   20.4180  -31.0640 C   0  0  0  0  0  0  0  0  0  0  0  0
    0.4346   16.8071  -28.5861 H   0  0  0  0  0  0  0  0  0  0  0  0
   -0.5664   17.5744  -29.8651 H   0  0  0  0  0  0  0  0  0  0  0  0
    1.2160   17.7972  -29.8651 H   0  0  0  0  0  0  0  0  0  0  0  0
    1.0509   21.9785  -28.6716 H   0  0  0  0  0  0  0  0  0  0  0  0
   -0.5901   22.6236  -28.9993 H   0  0  0  0  0  0  0  0  0  0  0  0
   -0.8179   20.7734  -26.8125 H   0  0  0  0  0  0  0  0  0  0  0  0
    0.5997   21.8715  -26.4868 H   0  0  0  0  0  0  0  0  0  0  0  0
   -2.2334   22.4137  -26.2159 H   0  0  0  0  0  0  0  0  0  0  0  0
   -0.8002   23.4324  -25.7769 H   0  0  0  0  0  0  0  0  0  0  0  0
   -1.6631   24.0248  -30.3547 H   0  0  0  0  0  0  0  0  0  0  0  0
   -3.6464   23.7629  -31.8333 H   0  0  0  0  0  0  0  0  0  0  0  0
   -9.1832   21.9011  -30.2633 H   0  0  0  0  0  0  0  0  0  0  0  0
   -8.8193   22.4416  -31.9643 H   0  0  0  0  0  0  0  0  0  0  0  0
   -9.1544   19.5485  -31.0483 H   0  0  0  0  0  0  0  0  0  0  0  0
  -10.3735   20.5217  -31.9402 H   0  0  0  0  0  0  0  0  0  0  0  0
   -8.9271   18.9901  -33.3801 H   0  0  0  0  0  0  0  0  0  0  0  0
   -8.9285   20.7517  -33.8390 H   0  0  0  0  0  0  0  0  0  0  0  0
   -6.6860   19.0657  -33.3020 H   0  0  0  0  0  0  0  0  0  0  0  0
   -6.7388   20.8564  -33.6649 H   0  0  0  0  0  0  0  0  0  0  0  0
   -6.7043   19.4879  -30.9528 H   0  0  0  0  0  0  0  0  0  0  0  0
   -5.4902   20.6346  -31.6961 H   0  0  0  0  0  0  0  0  0  0  0  0
   -6.0699   22.7619  -28.3948 H   0  0  0  0  0  0  0  0  0  0  0  0
   -4.0907   23.0463  -26.9114 H   0  0  0  0  0  0  0  0  0  0  0  0
   -1.7207   24.7826  -24.9952 H   0  0  0  0  0  0  0  0  0  0  0  0
   -1.5849   26.6143  -23.1398 H   0  0  0  0  0  0  0  0  0  0  0  0
   -0.4041   28.8242  -23.9592 H   0  0  0  0  0  0  0  0  0  0  0  0
    0.8397   21.1688  -30.7375 H   0  0  0  0  0  0  0  0  0  0  0  0
    0.5260   19.3959  -30.6890 H   0  0  0  0  0  0  0  0  0  0  0  0
    0.2166   21.0207  -33.2193 H   0  0  0  0  0  0  0  0  0  0  0  0
   -1.7011   21.3963  -34.7756 H   0  0  0  0  0  0  0  0  0  0  0  0
   -4.0462   21.1360  -33.9588 H   0  0  0  0  0  0  0  0  0  0  0  0
   -4.4831   20.5106  -31.5824 H   0  0  0  0  0  0  0  0  0  0  0  0
   -2.5746   20.1398  -30.0177 H   0  0  0  0  0  0  0  0  0  0  0  0
  1  2  1  0
  2  3  2  0
  2  4  2  0
  2  5  1  0
  5  6  1  0
  6  7  1  0
  7  8  1  0
  8  9  1  0
  9 10  1  0
 10 11  2  0
 11 12  1  0
 12 13  2  0
 13 14  1  0
 14 15  2  0
 14 16  2  0
 14 17  1  0
 17 18  1  0
 18 19  1  0
 19 20  1  0
 20 21  1  0
 21 22  1  0
 13 23  1  0
 23 24  2  0
  9 25  1  0
 25 26  2  0
 25 27  2  0
 25 28  1  0
 28 29  2  0
 29 30  1  0
 30 31  2  0
 31 32  1  0
  5 33  1  0
 33 34  1  0
 34 35  2  0
 35 36  1  0
 36 37  2  0
 37 38  1  0
 38 39  2  0
 24 10  1  0
 32 28  1  0
 39 34  1  0
 22 17  1  0
  1 40  1  0
  1 41  1  0
  1 42  1  0
  6 43  1  0
  6 44  1  0
  7 45  1  0
  7 46  1  0
  8 47  1  0
  8 48  1  0
 11 49  1  0
 12 50  1  0
 18 51  1  0
 18 52  1  0
 19 53  1  0
 19 54  1  0
 20 55  1  0
 20 56  1  0
 21 57  1  0
 21 58  1  0
 22 59  1  0
 22 60  1  0
 23 61  1  0
 24 62  1  0
 29 63  1  0
 30 64  1  0
 31 65  1  0
 33 66  1  0
 33 67  1  0
 35 68  1  0
 36 69  1  0
 37 70  1  0
 38 71  1  0
 39 72  1  0
M  END
>  <UniqueID>  (5) 
4

>  <SMILES>  (5) 
CS(=O)(=O)N(CCCN(c1ccc(S(=O)(=O)N2CCCCC2)cc1)S(=O)(=O)c1cccs1)Cc1ccccc1

>  <Energy>  (5) 
102.78194784347967

>  <Genealogy>  (5) 
CS(=O)(=O)N(CCCN(c1ccc(S(=O)(=O)N2CCCCC2)cc1)S(=O)(=O)c1cccs1)Cc1ccccc1 (3D coordinates assigned)
CS(=O)(=O)N(CCCN(c1ccc(S(=O)(=O)N2CCCCC2)cc1)S(=O)(=O)c1cccs1)Cc1ccccc1 (nonaromatic ring conformer: 102.78194784347967 kcal/mol)

>  <smiles>  (5) 
CS(=O)(=O)N(CCCN(c1ccc(S(=O)(=O)N2CCCCC2)cc1)S(=O)(=O)c1cccs1)Cc1ccccc1

>  <score_type>  (5) 
oracle

>  <origin>  (5) 
adgpu

>  <m_score__min__energy>  (5) 
-11.44

>  <m_primary>  (5) 
energy

$$$$
5:0
     RDKit          3D

 41 44  0  0  0  0  0  0  0  0999 V2000
   -7.0260   16.7100  -33.7140 O   0  0  0  0  0  0  0  0  0  0  0  0
   -6.9990   17.8410  -33.1630 C   0  0  0  0  0  0  0  0  0  0  0  0
   -8.0740   18.2610  -32.3710 C   0  0  0  0  0  0  0  0  0  0  0  0
   -8.0300   19.5190  -31.7650 C   0  0  0  0  0  0  0  0  0  0  0  0
   -6.9150   20.3450  -31.9540 C   0  0  0  0  0  0  0  0  0  0  0  0
   -6.8370   21.6110  -31.3570 C   0  0  0  0  0  0  0  0  0  0  0  0
   -5.7030   22.4140  -31.5550 C   0  0  0  0  0  0  0  0  0  0  0  0
   -5.5620   23.9820  -30.7650 S   0  0  0  0  0  0  0  0  0  0  0  0
   -6.2850   23.9870  -29.4470 O   0  0  0  0  0  0  0  0  0  0  0  0
   -6.1670   25.0270  -31.6590 O   0  0  0  0  0  0  0  0  0  0  0  0
   -3.8880   24.3500  -30.4970 N   0  0  0  0  0  0  0  0  0  0  0  0
   -3.0940   23.7130  -29.4790 C   0  0  0  0  0  0  0  0  0  0  0  0
   -3.3970   22.4160  -29.0270 C   0  0  0  0  0  0  0  0  0  0  0  0
   -2.5980   21.7860  -28.0630 C   0  0  0  0  0  0  0  0  0  0  0  0
   -1.5120   22.4810  -27.4960 C   0  0  0  0  0  0  0  0  0  0  0  0
   -1.2120   23.7760  -27.9390 C   0  0  0  0  0  0  0  0  0  0  0  0
   -1.9970   24.3910  -28.9190 C   0  0  0  0  0  0  0  0  0  0  0  0
   -1.6700   25.6750  -29.3400 O   0  0  0  0  0  0  0  0  0  0  0  0
   -0.6030   21.8080  -26.4930 C   0  0  0  0  0  0  0  0  0  0  0  0
   -1.2520   20.6710  -25.8240 N   0  0  0  0  0  0  0  0  0  0  0  0
   -1.8230   19.7460  -26.8100 C   0  0  0  0  0  0  0  0  0  0  0  0
   -2.9700   20.4080  -27.5820 C   0  0  0  0  0  0  0  0  0  0  0  0
   -4.6520   21.9480  -32.3570 C   0  0  0  0  0  0  0  0  0  0  0  0
   -4.7260   20.6890  -32.9580 C   0  0  0  0  0  0  0  0  0  0  0  0
   -5.8510   19.8820  -32.7600 C   0  0  0  0  0  0  0  0  0  0  0  0
   -5.9220   18.6520  -33.3380 N   0  0  0  0  0  0  0  0  0  0  0  0
   -8.9460   17.6061  -32.2270 H   0  0  0  0  0  0  0  0  0  0  0  0
   -8.8692   19.8599  -31.1409 H   0  0  0  0  0  0  0  0  0  0  0  0
   -7.6658   21.9756  -30.7324 H   0  0  0  0  0  0  0  0  0  0  0  0
   -3.4240   24.9660  -31.2030 H   0  0  0  0  0  0  0  0  0  0  0  0
   -4.2722   21.8894  -29.4353 H   0  0  0  0  0  0  0  0  0  0  0  0
   -0.3520   24.3131  -27.5124 H   0  0  0  0  0  0  0  0  0  0  0  0
    0.2937   21.4450  -27.0166 H   0  0  0  0  0  0  0  0  0  0  0  0
   -0.3466   22.5494  -25.7219 H   0  0  0  0  0  0  0  0  0  0  0  0
   -2.0190   21.0320  -25.2070 H   0  0  0  0  0  0  0  0  0  0  0  0
   -1.0376   19.4460  -27.5193 H   0  0  0  0  0  0  0  0  0  0  0  0
   -2.2181   18.8671  -26.2794 H   0  0  0  0  0  0  0  0  0  0  0  0
   -3.2213   19.7830  -28.4516 H   0  0  0  0  0  0  0  0  0  0  0  0
   -3.8296   20.5034  -26.9023 H   0  0  0  0  0  0  0  0  0  0  0  0
   -3.7636   22.5774  -32.5141 H   0  0  0  0  0  0  0  0  0  0  0  0
   -3.8980   20.3318  -33.5880 H   0  0  0  0  0  0  0  0  0  0  0  0
  1  2  2  0
  2  3  1  0
  3  4  2  0
  4  5  1  0
  5  6  2  0
  6  7  1  0
  7  8  1  0
  8  9  2  0
  8 10  2  0
  8 11  1  0
 11 12  1  0
 12 13  2  0
 13 14  1  0
 14 15  2  0
 15 16  1  0
 16 17  2  0
 17 18  1  0
 15 19  1  0
 19 20  1  0
 20 21  1  0
 21 22  1  0
  7 23  2  0
 23 24  1  0
 24 25  2  0
 25 26  1  0
 26  2  1  0
 25  5  1  0
 17 12  1  0
 22 14  1  0
  3 27  1  0
  4 28  1  0
  6 29  1  0
 11 30  1  0
 13 31  1  0
 16 32  1  0
 19 33  1  0
 19 34  1  0
 20 35  1  0
 21 36  1  0
 21 37  1  0
 22 38  1  0
 22 39  1  0
 23 40  1  0
 24 41  1  0
M  CHG  2  18  -1  26  -1
M  END
>  <UniqueID>  (6) 
5

>  <SMILES>  (6) 
O=c1ccc2cc(S(=O)(=O)Nc3cc4c(cc3[O-])CNCC4)ccc2[n-]1

>  <Energy>  (6) 
53.08365174507994

>  <Genealogy>  (6) 
O=c1ccc2cc(S(=O)(=O)Nc3cc4c(cc3[O-])CNCC4)ccc2[n-]1 (protonated)
O=c1ccc2cc(S(=O)(=O)Nc3cc4c(cc3[O-])CNCC4)ccc2[n-]1 (3D coordinates assigned)
O=c1ccc2cc(S(=O)(=O)Nc3cc4c(cc3[O-])CNCC4)ccc2[n-]1 (nonaromatic ring conformer: 53.08365174507994 kcal/mol)

>  <smiles>  (6) 
O=c1ccc2cc(S(=O)(=O)Nc3cc4c(cc3O)CNCC4)ccc2[nH]1

>  <score_type>  (6) 
oracle

>  <origin>  (6) 
adgpu

>  <m_score__min__energy>  (6) 
-13.210000000000001

>  <m_primary>  (6) 
energy

$$$$
6:0
     RDKit          3D

 42 44  0  0  0  0  0  0  0  0999 V2000
   -8.3530   24.9330  -30.8320 H   0  0  0  0  0  0  0  0  0  0  0  0
   -7.5570   25.2330  -30.2820 O   0  0  0  0  0  0  0  0  0  0  0  0
   -6.3280   24.5780  -30.3560 C   0  0  0  0  0  0  0  0  0  0  0  0
   -5.1510   25.2530  -29.9990 C   0  0  0  0  0  0  0  0  0  0  0  0
   -5.2008   26.2971  -29.6563 H   0  0  0  0  0  0  0  0  0  0  0  0
   -3.9150   24.6040  -30.0770 C   0  0  0  0  0  0  0  0  0  0  0  0
   -2.7530   25.2770  -29.7220 O   0  0  0  0  0  0  0  0  0  0  0  0
   -3.8500   23.2780  -30.5130 C   0  0  0  0  0  0  0  0  0  0  0  0
   -2.8775   22.7677  -30.5753 H   0  0  0  0  0  0  0  0  0  0  0  0
   -5.0180   22.5990  -30.8700 C   0  0  0  0  0  0  0  0  0  0  0  0
   -4.9611   21.5562  -31.2154 H   0  0  0  0  0  0  0  0  0  0  0  0
   -6.2630   23.2410  -30.7900 C   0  0  0  0  0  0  0  0  0  0  0  0
   -7.7320   22.3830  -31.2590 S   0  0  0  0  0  0  0  0  0  0  0  0
   -8.5800   22.0860  -30.0540 O   0  0  0  0  0  0  0  0  0  0  0  0
   -8.5310   23.2410  -32.1980 O   0  0  0  0  0  0  0  0  0  0  0  0
   -7.2860   20.8670  -32.0340 C   0  0  0  0  0  0  0  0  0  0  0  0
   -7.8430   19.6650  -31.5820 C   0  0  0  0  0  0  0  0  0  0  0  0
   -8.5732   19.6748  -30.7593 H   0  0  0  0  0  0  0  0  0  0  0  0
   -7.4750   18.4520  -32.1720 C   0  0  0  0  0  0  0  0  0  0  0  0
   -7.9312   17.5137  -31.8235 H   0  0  0  0  0  0  0  0  0  0  0  0
   -6.5290   18.4250  -33.2040 C   0  0  0  0  0  0  0  0  0  0  0  0
   -6.1820   17.1660  -33.7970 N   0  0  0  0  0  0  0  0  0  0  0  0
   -4.8550   16.6980  -34.0690 C   0  0  0  0  0  0  0  0  0  0  0  0
   -4.7120   15.5980  -34.6670 O   0  0  0  0  0  0  0  0  0  0  0  0
   -3.6700   17.4460  -33.5960 C   0  0  0  0  0  0  0  0  0  0  0  0
   -3.1361   17.0855  -32.7044 H   0  0  0  0  0  0  0  0  0  0  0  0
   -3.2240   18.5470  -34.2150 C   0  0  0  0  0  0  0  0  0  0  0  0
   -3.7663   18.8987  -35.1051 H   0  0  0  0  0  0  0  0  0  0  0  0
   -2.0390   19.3180  -33.7660 C   0  0  0  0  0  0  0  0  0  0  0  0
   -2.1940   20.6760  -33.4440 C   0  0  0  0  0  0  0  0  0  0  0  0
   -3.1821   21.1506  -33.5359 H   0  0  0  0  0  0  0  0  0  0  0  0
   -1.1290   21.4080  -33.0190 N   0  0  0  0  0  0  0  0  0  0  0  0
    0.1060   20.8620  -32.8810 C   0  0  0  0  0  0  0  0  0  0  0  0
    0.9470   21.4835  -32.5396 H   0  0  0  0  0  0  0  0  0  0  0  0
    0.3090   19.5130  -33.1720 C   0  0  0  0  0  0  0  0  0  0  0  0
    1.3068   19.0644  -33.0568 H   0  0  0  0  0  0  0  0  0  0  0  0
   -0.7660   18.7370  -33.6110 C   0  0  0  0  0  0  0  0  0  0  0  0
   -0.6179   17.6705  -33.8360 H   0  0  0  0  0  0  0  0  0  0  0  0
   -5.9910   19.6350  -33.6760 C   0  0  0  0  0  0  0  0  0  0  0  0
   -5.2770   19.6276  -34.5127 H   0  0  0  0  0  0  0  0  0  0  0  0
   -6.3600   20.8480  -33.0860 C   0  0  0  0  0  0  0  0  0  0  0  0
   -5.9223   21.7898  -33.4485 H   0  0  0  0  0  0  0  0  0  0  0  0
  1  2  1  0
  2  3  1  0
  3  4  2  0
  4  5  1  0
  4  6  1  0
  6  7  1  0
  6  8  2  0
  8  9  1  0
  8 10  1  0
 10 11  1  0
 10 12  2  0
 12 13  1  0
 13 14  2  0
 13 15  2  0
 13 16  1  0
 16 17  2  0
 17 18  1  0
 17 19  1  0
 19 20  1  0
 19 21  2  0
 21 22  1  0
 22 23  1  0
 23 24  2  0
 23 25  1  0
 25 26  1  0
 25 27  2  0
 27 28  1  0
 27 29  1  0
 29 30  2  0
 30 31  1  0
 30 32  1  0
 32 33  2  0
 33 34  1  0
 33 35  1  0
 35 36  1  0
 35 37  2  0
 37 38  1  0
 21 39  1  0
 39 40  1  0
 39 41  2  0
 41 42  1  0
 12  3  1  0
 41 16  1  0
 37 29  1  0
M  CHG  2   7  -1  22  -1
M  END
>  <UniqueID>  (7) 
6

>  <SMILES>  (7) 
O=C(/C=C/c1cccnc1)[N-]c1ccc(S(=O)(=O)c2ccc([O-])cc2O)cc1

>  <Energy>  (7) 
53.958000300303205

>  <Genealogy>  (7) 
O=C(C=Cc1cccnc1)[N-]c1ccc(S(=O)(=O)c2ccc([O-])cc2O)cc1 (protonated)
O=C(/C=C/c1cccnc1)[N-]c1ccc(S(=O)(=O)c2ccc([O-])cc2O)cc1 (cis-trans isomerization)
O=C(/C=C/c1cccnc1)[N-]c1ccc(S(=O)(=O)c2ccc([O-])cc2O)cc1 (3D coordinates assigned)
O=C(/C=C/c1cccnc1)[N-]c1ccc(S(=O)(=O)c2ccc([O-])cc2O)cc1 (optimized conformer: 53.958000300303205 kcal/mol)

>  <smiles>  (7) 
O=C(C=Cc1cccnc1)Nc1ccc(S(=O)(=O)c2ccc(O)cc2O)cc1

>  <score_type>  (7) 
oracle

>  <origin>  (7) 
adgpu

>  <m_score__min__energy>  (7) 
-11.06

>  <m_primary>  (7) 
energy

$$$$
7:0
     RDKit          3D

 48 51  0  0  0  0  0  0  0  0999 V2000
   -6.2640   25.9790  -29.7580 O   0  0  0  0  0  0  0  0  0  0  0  0
   -5.3420   24.8110  -29.9750 S   0  0  0  0  0  0  0  0  0  0  0  0
   -4.1990   25.2440  -30.8480 O   0  0  0  0  0  0  0  0  0  0  0  0
   -4.7170   24.2910  -28.4440 N   0  0  0  0  0  0  0  0  0  0  0  0
   -3.5310   23.5030  -28.2570 C   0  0  0  0  0  0  0  0  0  0  0  0
   -3.5690   22.2460  -27.6280 C   0  0  0  0  0  0  0  0  0  0  0  0
   -2.3960   21.4890  -27.4940 C   0  0  0  0  0  0  0  0  0  0  0  0
   -1.1790   21.9960  -27.9550 C   0  0  0  0  0  0  0  0  0  0  0  0
   -1.1310   23.2590  -28.5580 C   0  0  0  0  0  0  0  0  0  0  0  0
   -2.3040   24.0060  -28.7220 C   0  0  0  0  0  0  0  0  0  0  0  0
   -2.2600   25.2500  -29.3500 O   0  0  0  0  0  0  0  0  0  0  0  0
    0.0440   21.1350  -27.8030 C   0  0  0  0  0  0  0  0  0  0  0  0
   -0.2600   19.7290  -28.1570 N   0  0  0  0  0  0  0  0  0  0  0  0
   -0.0740   19.4030  -29.5920 C   0  0  0  0  0  0  0  0  0  0  0  0
   -0.9590   20.2120  -30.5190 C   0  0  0  0  0  0  0  0  0  0  0  0
   -2.3450   20.2760  -30.2890 C   0  0  0  0  0  0  0  0  0  0  0  0
   -3.1770   20.9770  -31.1670 C   0  0  0  0  0  0  0  0  0  0  0  0
   -2.6350   21.6230  -32.2810 C   0  0  0  0  0  0  0  0  0  0  0  0
   -1.2590   21.5810  -32.5090 C   0  0  0  0  0  0  0  0  0  0  0  0
   -0.4210   20.8840  -31.6320 C   0  0  0  0  0  0  0  0  0  0  0  0
   -1.4900   19.1450  -27.5490 C   0  0  0  0  0  0  0  0  0  0  0  0
   -2.3910   20.1550  -26.8070 C   0  0  0  0  0  0  0  0  0  0  0  0
   -6.1910   23.4900  -30.7690 C   0  0  0  0  0  0  0  0  0  0  0  0
   -7.2800   22.8690  -30.1430 C   0  0  0  0  0  0  0  0  0  0  0  0
   -7.9430   21.8180  -30.7790 C   0  0  0  0  0  0  0  0  0  0  0  0
   -7.5100   21.3990  -32.0380 C   0  0  0  0  0  0  0  0  0  0  0  0
   -6.4500   22.0110  -32.6320 N   0  0  0  0  0  0  0  0  0  0  0  0
   -5.7870   23.0350  -32.0300 C   0  0  0  0  0  0  0  0  0  0  0  0
   -4.5213   21.8553  -27.2400 H   0  0  0  0  0  0  0  0  0  0  0  0
   -0.1691   23.6654  -28.9038 H   0  0  0  0  0  0  0  0  0  0  0  0
   -3.0910   25.6810  -29.7350 H   0  0  0  0  0  0  0  0  0  0  0  0
    0.8359   21.5117  -28.4670 H   0  0  0  0  0  0  0  0  0  0  0  0
    0.3758   21.1727  -26.7549 H   0  0  0  0  0  0  0  0  0  0  0  0
    0.9758   19.5948  -29.8587 H   0  0  0  0  0  0  0  0  0  0  0  0
   -0.3529   18.3468  -29.7210 H   0  0  0  0  0  0  0  0  0  0  0  0
   -2.7773   19.7712  -29.4125 H   0  0  0  0  0  0  0  0  0  0  0  0
   -4.2602   21.0200  -30.9804 H   0  0  0  0  0  0  0  0  0  0  0  0
   -3.2923   22.1641  -32.9776 H   0  0  0  0  0  0  0  0  0  0  0  0
   -0.8318   22.0976  -33.3811 H   0  0  0  0  0  0  0  0  0  0  0  0
    0.6637   20.8612  -31.8134 H   0  0  0  0  0  0  0  0  0  0  0  0
   -2.0830   18.6845  -28.3530 H   0  0  0  0  0  0  0  0  0  0  0  0
   -1.1474   18.4236  -26.7925 H   0  0  0  0  0  0  0  0  0  0  0  0
   -3.4186   19.7637  -26.7769 H   0  0  0  0  0  0  0  0  0  0  0  0
   -1.9959   20.2902  -25.7894 H   0  0  0  0  0  0  0  0  0  0  0  0
   -7.6122   23.2094  -29.1512 H   0  0  0  0  0  0  0  0  0  0  0  0
   -8.7979   21.3251  -30.2930 H   0  0  0  0  0  0  0  0  0  0  0  0
   -8.0260   20.5736  -32.5502 H   0  0  0  0  0  0  0  0  0  0  0  0
   -4.9313   23.5068  -32.5352 H   0  0  0  0  0  0  0  0  0  0  0  0
  1  2  2  0
  2  3  2  0
  2  4  1  0
  4  5  1  0
  5  6  2  0
  6  7  1  0
  7  8  2  0
  8  9  1  0
  9 10  2  0
 10 11  1  0
  8 12  1  0
 12 13  1  0
 13 14  1  0
 14 15  1  0
 15 16  2  0
 16 17  1  0
 17 18  2  0
 18 19  1  0
 19 20  2  0
 13 21  1  0
 21 22  1  0
  2 23  1  0
 23 24  2  0
 24 25  1  0
 25 26  2  0
 26 27  1  0
 27 28  2  0
 10  5  1  0
 20 15  1  0
 28 23  1  0
 22  7  1  0
  6 29  1  0
  9 30  1  0
 11 31  1  0
 12 32  1  0
 12 33  1  0
 14 34  1  0
 14 35  1  0
 16 36  1  0
 17 37  1  0
 18 38  1  0
 19 39  1  0
 20 40  1  0
 21 41  1  0
 21 42  1  0
 22 43  1  0
 22 44  1  0
 24 45  1  0
 25 46  1  0
 26 47  1  0
 28 48  1  0
M  CHG  1   4  -1
M  END
>  <UniqueID>  (8) 
7

>  <SMILES>  (8) 
O=S(=O)([N-]c1cc2c(cc1O)CN(Cc1ccccc1)CC2)c1cccnc1

>  <Energy>  (8) 
65.89643838467236

>  <Genealogy>  (8) 
O=S(=O)([N-]c1cc2c(cc1O)CN(Cc1ccccc1)CC2)c1cccnc1 (protonated)
O=S(=O)([N-]c1cc2c(cc1O)CN(Cc1ccccc1)CC2)c1cccnc1 (3D coordinates assigned)
O=S(=O)([N-]c1cc2c(cc1O)CN(Cc1ccccc1)CC2)c1cccnc1 (nonaromatic ring conformer: 65.89643838467236 kcal/mol)

>  <smiles>  (8) 
O=S(=O)(Nc1cc2c(cc1O)CN(Cc1ccccc1)CC2)c1cccnc1

>  <score_type>  (8) 
oracle

>  <origin>  (8) 
adgpu

>  <m_score__min__energy>  (8) 
-10.550000000000001

>  <m_primary>  (8) 
energy

$$$$
8:0
     RDKit          3D

 55 58  0  0  0  0  0  0  0  0999 V2000
   -6.6170   16.2550  -34.1350 O   0  0  0  0  0  0  0  0  0  0  0  0
   -5.4260   16.6280  -33.9490 C   0  0  0  0  0  0  0  0  0  0  0  0
   -4.3140   15.7010  -34.2630 C   0  0  0  0  0  0  0  0  0  0  0  0
   -3.8160   15.6010  -35.5700 C   0  0  0  0  0  0  0  0  0  0  0  0
   -2.7690   14.7260  -35.8610 C   0  0  0  0  0  0  0  0  0  0  0  0
   -2.1870   13.9530  -34.8510 C   0  0  0  0  0  0  0  0  0  0  0  0
   -0.9020   12.8400  -35.3070 Cl  0  0  0  0  0  0  0  0  0  0  0  0
   -2.6500   14.0660  -33.5220 C   0  0  0  0  0  0  0  0  0  0  0  0
   -1.9230   13.0990  -32.2200 S   0  0  0  0  0  0  0  0  0  0  0  0
   -1.9750   11.6410  -32.5880 O   0  0  0  0  0  0  0  0  0  0  0  0
   -2.7200   13.3150  -30.9660 O   0  0  0  0  0  0  0  0  0  0  0  0
   -0.2650   13.5240  -31.9000 N   0  0  0  0  0  0  0  0  0  0  0  0
   -0.1820   14.8920  -31.3830 C   0  0  0  0  0  0  0  0  0  0  0  0
   -0.2870   15.8760  -32.5140 C   0  0  0  0  0  0  0  0  0  0  0  0
    0.4730   15.7070  -33.6810 C   0  0  0  0  0  0  0  0  0  0  0  0
    0.3930   16.6490  -34.7080 C   0  0  0  0  0  0  0  0  0  0  0  0
   -0.4410   17.7590  -34.5540 C   0  0  0  0  0  0  0  0  0  0  0  0
   -1.1590   17.9190  -33.4110 N   0  0  0  0  0  0  0  0  0  0  0  0
   -1.0980   17.0140  -32.3970 C   0  0  0  0  0  0  0  0  0  0  0  0
   -3.7240   14.9310  -33.2460 C   0  0  0  0  0  0  0  0  0  0  0  0
   -5.1740   17.9410  -33.4180 N   0  0  0  0  0  0  0  0  0  0  0  0
   -6.1030   18.5120  -32.4380 C   0  0  0  0  0  0  0  0  0  0  0  0
   -5.3460   19.4120  -31.4610 C   0  0  0  0  0  0  0  0  0  0  0  0
   -4.4800   20.3400  -32.1980 N   0  0  0  0  0  0  0  0  0  0  0  0
   -4.3190   21.6940  -31.7360 C   0  0  0  0  0  0  0  0  0  0  0  0
   -5.3510   22.6300  -31.9190 C   0  0  0  0  0  0  0  0  0  0  0  0
   -5.1980   23.9470  -31.4740 C   0  0  0  0  0  0  0  0  0  0  0  0
   -4.0150   24.3410  -30.8440 C   0  0  0  0  0  0  0  0  0  0  0  0
   -3.8640   25.6500  -30.4030 O   0  0  0  0  0  0  0  0  0  0  0  0
   -2.9810   23.4180  -30.6590 C   0  0  0  0  0  0  0  0  0  0  0  0
   -3.1300   22.1000  -31.1030 C   0  0  0  0  0  0  0  0  0  0  0  0
   -3.5500   19.7740  -33.1830 C   0  0  0  0  0  0  0  0  0  0  0  0
   -4.3050   18.8670  -34.1560 C   0  0  0  0  0  0  0  0  0  0  0  0
   -4.2533   16.2159  -36.3704 H   0  0  0  0  0  0  0  0  0  0  0  0
   -2.3982   14.6434  -36.8933 H   0  0  0  0  0  0  0  0  0  0  0  0
    0.1140   12.8520  -31.1960 H   0  0  0  0  0  0  0  0  0  0  0  0
   -1.0046   15.0637  -30.6732 H   0  0  0  0  0  0  0  0  0  0  0  0
    0.7839   15.0279  -30.8746 H   0  0  0  0  0  0  0  0  0  0  0  0
    1.1318   14.8324  -33.7867 H   0  0  0  0  0  0  0  0  0  0  0  0
    0.9805   16.5186  -35.6288 H   0  0  0  0  0  0  0  0  0  0  0  0
   -0.5168   18.5048  -35.3590 H   0  0  0  0  0  0  0  0  0  0  0  0
   -1.6870   17.1755  -31.4821 H   0  0  0  0  0  0  0  0  0  0  0  0
   -4.1083   15.0061  -32.2180 H   0  0  0  0  0  0  0  0  0  0  0  0
   -6.8665   19.1052  -32.9627 H   0  0  0  0  0  0  0  0  0  0  0  0
   -6.5834   17.6959  -31.8784 H   0  0  0  0  0  0  0  0  0  0  0  0
   -6.0676   19.9861  -30.8613 H   0  0  0  0  0  0  0  0  0  0  0  0
   -4.7256   18.7867  -30.8021 H   0  0  0  0  0  0  0  0  0  0  0  0
   -6.2843   22.3252  -32.4150 H   0  0  0  0  0  0  0  0  0  0  0  0
   -6.0106   24.6739  -31.6203 H   0  0  0  0  0  0  0  0  0  0  0  0
   -2.0493   23.7288  -30.1637 H   0  0  0  0  0  0  0  0  0  0  0  0
   -2.3136   21.3775  -30.9565 H   0  0  0  0  0  0  0  0  0  0  0  0
   -3.0716   20.5908  -33.7433 H   0  0  0  0  0  0  0  0  0  0  0  0
   -2.7850   19.1826  -32.6585 H   0  0  0  0  0  0  0  0  0  0  0  0
   -4.9198   19.4856  -34.8264 H   0  0  0  0  0  0  0  0  0  0  0  0
   -3.5777   18.2859  -34.7419 H   0  0  0  0  0  0  0  0  0  0  0  0
  1  2  2  0
  2  3  1  0
  3  4  2  0
  4  5  1  0
  5  6  2  0
  6  7  1  0
  6  8  1  0
  8  9  1  0
  9 10  2  0
  9 11  2  0
  9 12  1  0
 12 13  1  0
 13 14  1  0
 14 15  2  0
 15 16  1  0
 16 17  2  0
 17 18  1  0
 18 19  2  0
  8 20  2  0
  2 21  1  0
 21 22  1  0
 22 23  1  0
 23 24  1  0
 24 25  1  0
 25 26  2  0
 26 27  1  0
 27 28  2  0
 28 29  1  0
 28 30  1  0
 30 31  2  0
 24 32  1  0
 32 33  1  0
 20  3  1  0
 33 21  1  0
 19 14  1  0
 31 25  1  0
  4 34  1  0
  5 35  1  0
 12 36  1  0
 13 37  1  0
 13 38  1  0
 15 39  1  0
 16 40  1  0
 17 41  1  0
 19 42  1  0
 20 43  1  0
 22 44  1  0
 22 45  1  0
 23 46  1  0
 23 47  1  0
 26 48  1  0
 27 49  1  0
 30 50  1  0
 31 51  1  0
 32 52  1  0
 32 53  1  0
 33 54  1  0
 33 55  1  0
M  CHG  1  29  -1
M  END
>  <UniqueID>  (9) 
8

>  <SMILES>  (9) 
O=C(c1ccc(Cl)c(S(=O)(=O)NCc2cccnc2)c1)N1CCN(c2ccc([O-])cc2)CC1

>  <Energy>  (9) 
67.32218933464229

>  <Genealogy>  (9) 
O=C(c1ccc(Cl)c(S(=O)(=O)NCc2cccnc2)c1)N1CCN(c2ccc([O-])cc2)CC1 (protonated)
O=C(c1ccc(Cl)c(S(=O)(=O)NCc2cccnc2)c1)N1CCN(c2ccc([O-])cc2)CC1 (3D coordinates assigned)
O=C(c1ccc(Cl)c(S(=O)(=O)NCc2cccnc2)c1)N1CCN(c2ccc([O-])cc2)CC1 (nonaromatic ring conformer: 67.32218933464229 kcal/mol)

>  <smiles>  (9) 
O=C(c1ccc(Cl)c(S(=O)(=O)NCc2cccnc2)c1)N1CCN(c2ccc(O)cc2)CC1

>  <score_type>  (9) 
oracle

>  <origin>  (9) 
adgpu

>  <m_score__min__energy>  (9) 
-10.15

>  <m_primary>  (9) 
energy

$$$$
9:0
     RDKit          3D

 35 37  0  0  0  0  0  0  0  0999 V2000
   -3.8520   25.6080  -30.5080 O   0  0  0  0  0  0  0  0  0  0  0  0
   -3.1830   24.6180  -29.7950 C   0  0  0  0  0  0  0  0  0  0  0  0
   -3.6360   23.2970  -29.8480 C   0  0  0  0  0  0  0  0  0  0  0  0
   -2.9740   22.2900  -29.1290 C   0  0  0  0  0  0  0  0  0  0  0  0
   -1.8240   22.6120  -28.3780 C   0  0  0  0  0  0  0  0  0  0  0  0
   -1.3870   23.9450  -28.3170 C   0  0  0  0  0  0  0  0  0  0  0  0
   -2.0600   24.9430  -29.0270 C   0  0  0  0  0  0  0  0  0  0  0  0
   -1.6120   26.2580  -28.9650 O   0  0  0  0  0  0  0  0  0  0  0  0
   -1.1230   21.5590  -27.5540 C   0  0  0  0  0  0  0  0  0  0  0  0
   -1.3960   20.1960  -28.0640 N   0  0  0  0  0  0  0  0  0  0  0  0
   -0.7780   19.1770  -27.1880 C   0  0  0  0  0  0  0  0  0  0  0  0
    0.4220   18.5590  -27.8570 C   0  0  0  0  0  0  0  0  0  0  0  0
    1.5940   19.3070  -28.0570 C   0  0  0  0  0  0  0  0  0  0  0  0
    2.6950   18.7320  -28.6970 C   0  0  0  0  0  0  0  0  0  0  0  0
    2.6340   17.4090  -29.1450 C   0  0  0  0  0  0  0  0  0  0  0  0
    1.4670   16.6560  -28.9550 C   0  0  0  0  0  0  0  0  0  0  0  0
    1.3930   15.3390  -29.4000 O   0  0  0  0  0  0  0  0  0  0  0  0
    0.3650   17.2330  -28.3140 C   0  0  0  0  0  0  0  0  0  0  0  0
   -2.8530   19.9770  -28.1490 C   0  0  0  0  0  0  0  0  0  0  0  0
   -3.4460   20.8650  -29.2450 C   0  0  0  0  0  0  0  0  0  0  0  0
   -4.5167   23.0451  -30.4570 H   0  0  0  0  0  0  0  0  0  0  0  0
   -0.5096   24.2053  -27.7067 H   0  0  0  0  0  0  0  0  0  0  0  0
   -0.0389   21.7423  -27.5881 H   0  0  0  0  0  0  0  0  0  0  0  0
   -1.5001   21.6221  -26.5226 H   0  0  0  0  0  0  0  0  0  0  0  0
   -0.4625   19.6523  -26.2475 H   0  0  0  0  0  0  0  0  0  0  0  0
   -1.5171   18.3876  -26.9866 H   0  0  0  0  0  0  0  0  0  0  0  0
    1.6452   20.3491  -27.7086 H   0  0  0  0  0  0  0  0  0  0  0  0
    3.6114   19.3213  -28.8486 H   0  0  0  0  0  0  0  0  0  0  0  0
    3.5028   16.9585  -29.6472 H   0  0  0  0  0  0  0  0  0  0  0  0
    0.8450   15.0840  -30.2140 H   0  0  0  0  0  0  0  0  0  0  0  0
   -0.5520   16.6435  -28.1673 H   0  0  0  0  0  0  0  0  0  0  0  0
   -3.0506   18.9214  -28.3871 H   0  0  0  0  0  0  0  0  0  0  0  0
   -3.3161   20.2315  -27.1842 H   0  0  0  0  0  0  0  0  0  0  0  0
   -3.1441   20.4690  -30.2258 H   0  0  0  0  0  0  0  0  0  0  0  0
   -4.5404   20.8581  -29.1347 H   0  0  0  0  0  0  0  0  0  0  0  0
  1  2  1  0
  2  3  2  0
  3  4  1  0
  4  5  2  0
  5  6  1  0
  6  7  2  0
  7  8  1  0
  5  9  1  0
  9 10  1  0
 10 11  1  0
 11 12  1  0
 12 13  2  0
 13 14  1  0
 14 15  2  0
 15 16  1  0
 16 17  1  0
 16 18  2  0
 10 19  1  0
 19 20  1  0
  7  2  1  0
 18 12  1  0
 20  4  1  0
  3 21  1  0
  6 22  1  0
  9 23  1  0
  9 24  1  0
 11 25  1  0
 11 26  1  0
 13 27  1  0
 14 28  1  0
 15 29  1  0
 17 30  1  0
 18 31  1  0
 19 32  1  0
 19 33  1  0
 20 34  1  0
 20 35  1  0
M  CHG  2   1  -1   8  -1
M  END
>  <UniqueID>  (10) 
9

>  <SMILES>  (10) 
[O-]c1cc2c(cc1[O-])CN(Cc1cccc(O)c1)CC2

>  <Energy>  (10) 
39.77629737426896

>  <Genealogy>  (10) 
[O-]c1cc2c(cc1[O-])CN(Cc1cccc(O)c1)CC2 (protonated)
[O-]c1cc2c(cc1[O-])CN(Cc1cccc(O)c1)CC2 (3D coordinates assigned)
[O-]c1cc2c(cc1[O-])CN(Cc1cccc(O)c1)CC2 (nonaromatic ring conformer: 39.77629737426896 kcal/mol)

>  <smiles>  (10) 
Oc1cccc(CN2CCc3cc(O)c(O)cc3C2)c1

>  <score_type>  (10) 
oracle

>  <origin>  (10) 
adgpu

>  <m_score__min__energy>  (10) 
-11.539999999999999

>  <m_primary>  (10) 
energy

$$$$
10:0
     RDKit          3D

 55 58  0  0  0  0  0  0  0  0999 V2000
   -9.7110   19.9460  -32.3260 C   0  0  0  0  0  0  0  0  0  0  0  0
   -9.1440   19.3110  -31.2010 O   0  0  0  0  0  0  0  0  0  0  0  0
   -8.0400   18.5130  -31.5870 C   0  0  0  0  0  0  0  0  0  0  0  0
   -7.6930   18.7260  -33.0650 C   0  0  0  0  0  0  0  0  0  0  0  0
   -6.4270   19.4650  -33.2080 N   0  0  0  0  0  0  0  0  0  0  0  0
   -5.3200   18.8570  -33.9630 C   0  0  0  0  0  0  0  0  0  0  0  0
   -4.0470   18.8880  -33.1170 C   0  0  0  0  0  0  0  0  0  0  0  0
   -3.7920   20.2150  -32.6580 O   0  0  0  0  0  0  0  0  0  0  0  0
   -4.8290   21.0680  -32.2620 C   0  0  0  0  0  0  0  0  0  0  0  0
   -4.5260   22.2740  -31.6220 C   0  0  0  0  0  0  0  0  0  0  0  0
   -5.5540   23.1380  -31.2260 C   0  0  0  0  0  0  0  0  0  0  0  0
   -5.1740   24.6460  -30.4030 S   0  0  0  0  0  0  0  0  0  0  0  0
   -5.8800   25.7830  -31.0890 O   0  0  0  0  0  0  0  0  0  0  0  0
   -5.6220   24.5500  -28.9720 O   0  0  0  0  0  0  0  0  0  0  0  0
   -3.4630   24.9210  -30.4680 N   0  0  0  0  0  0  0  0  0  0  0  0
   -2.4790   24.2270  -29.6880 C   0  0  0  0  0  0  0  0  0  0  0  0
   -2.4150   22.8220  -29.6510 C   0  0  0  0  0  0  0  0  0  0  0  0
   -1.4470   22.1720  -28.8700 C   0  0  0  0  0  0  0  0  0  0  0  0
   -0.5060   22.9330  -28.1480 C   0  0  0  0  0  0  0  0  0  0  0  0
   -0.5810   24.3330  -28.1780 C   0  0  0  0  0  0  0  0  0  0  0  0
   -1.5580   24.9750  -28.9440 C   0  0  0  0  0  0  0  0  0  0  0  0
   -1.6090   26.3640  -28.9620 O   0  0  0  0  0  0  0  0  0  0  0  0
    0.5210   22.2730  -27.2660 C   0  0  0  0  0  0  0  0  0  0  0  0
    0.6720   20.7740  -27.5650 C   0  0  0  0  0  0  0  0  0  0  0  0
   -0.6290   20.1010  -27.7510 N   0  0  0  0  0  0  0  0  0  0  0  0
   -1.4430   20.0920  -26.5230 C   0  0  0  0  0  0  0  0  0  0  0  0
   -1.3650   20.6620  -28.9000 C   0  0  0  0  0  0  0  0  0  0  0  0
   -6.8860   22.7870  -31.4730 C   0  0  0  0  0  0  0  0  0  0  0  0
   -7.1930   21.5880  -32.1220 C   0  0  0  0  0  0  0  0  0  0  0  0
   -6.1660   20.7120  -32.5200 C   0  0  0  0  0  0  0  0  0  0  0  0
  -10.4092   20.7279  -31.9926 H   0  0  0  0  0  0  0  0  0  0  0  0
   -8.9130   20.4008  -32.9313 H   0  0  0  0  0  0  0  0  0  0  0  0
  -10.2529   19.2044  -32.9313 H   0  0  0  0  0  0  0  0  0  0  0  0
   -7.1693   18.7829  -30.9713 H   0  0  0  0  0  0  0  0  0  0  0  0
   -8.3056   17.4557  -31.4400 H   0  0  0  0  0  0  0  0  0  0  0  0
   -7.5956   17.7468  -33.5565 H   0  0  0  0  0  0  0  0  0  0  0  0
   -8.4968   19.3133  -33.5329 H   0  0  0  0  0  0  0  0  0  0  0  0
   -5.5722   17.8146  -34.2075 H   0  0  0  0  0  0  0  0  0  0  0  0
   -5.1561   19.4228  -34.8920 H   0  0  0  0  0  0  0  0  0  0  0  0
   -4.1702   18.2214  -32.2507 H   0  0  0  0  0  0  0  0  0  0  0  0
   -3.1992   18.5520  -33.7321 H   0  0  0  0  0  0  0  0  0  0  0  0
   -3.4773   22.5444  -31.4293 H   0  0  0  0  0  0  0  0  0  0  0  0
   -3.1298   22.2279  -30.2393 H   0  0  0  0  0  0  0  0  0  0  0  0
    0.1346   24.9305  -27.5942 H   0  0  0  0  0  0  0  0  0  0  0  0
    1.4920   22.7647  -27.4253 H   0  0  0  0  0  0  0  0  0  0  0  0
    0.1840   22.3752  -26.2239 H   0  0  0  0  0  0  0  0  0  0  0  0
    1.2651   20.6555  -28.4838 H   0  0  0  0  0  0  0  0  0  0  0  0
    1.1685   20.3090  -26.7006 H   0  0  0  0  0  0  0  0  0  0  0  0
   -0.7812   20.0993  -25.6444 H   0  0  0  0  0  0  0  0  0  0  0  0
   -2.0877   20.9831  -26.5039 H   0  0  0  0  0  0  0  0  0  0  0  0
   -2.0678   19.1869  -26.5039 H   0  0  0  0  0  0  0  0  0  0  0  0
   -0.8548   20.3571  -29.8256 H   0  0  0  0  0  0  0  0  0  0  0  0
   -2.3939   20.2759  -28.8515 H   0  0  0  0  0  0  0  0  0  0  0  0
   -7.6964   23.4591  -31.1543 H   0  0  0  0  0  0  0  0  0  0  0  0
   -8.2427   21.3276  -32.3228 H   0  0  0  0  0  0  0  0  0  0  0  0
  1  2  1  0
  2  3  1  0
  3  4  1  0
  4  5  1  0
  5  6  1  0
  6  7  1  0
  7  8  1  0
  8  9  1  0
  9 10  2  0
 10 11  1  0
 11 12  1  0
 12 13  2  0
 12 14  2  0
 12 15  1  0
 15 16  1  0
 16 17  2  0
 17 18  1  0
 18 19  2  0
 19 20  1  0
 20 21  2  0
 21 22  1  0
 19 23  1  0
 23 24  1  0
 24 25  1  0
 25 26  1  0
 25 27  1  0
 11 28  2  0
 28 29  1  0
 29 30  2  0
 30  5  1  0
 30  9  1  0
 21 16  1  0
 27 18  1  0
  1 31  1  0
  1 32  1  0
  1 33  1  0
  3 34  1  0
  3 35  1  0
  4 36  1  0
  4 37  1  0
  6 38  1  0
  6 39  1  0
  7 40  1  0
  7 41  1  0
 10 42  1  0
 17 43  1  0
 20 44  1  0
 23 45  1  0
 23 46  1  0
 24 47  1  0
 24 48  1  0
 26 49  1  0
 26 50  1  0
 26 51  1  0
 27 52  1  0
 27 53  1  0
 28 54  1  0
 29 55  1  0
M  CHG  2  15  -1  22  -1
M  END
>  <UniqueID>  (11) 
10

>  <SMILES>  (11) 
COCCN1CCOc2cc(S(=O)(=O)[N-]c3cc4c(cc3[O-])CCN(C)C4)ccc21

>  <Energy>  (11) 
68.57397774122717

>  <Genealogy>  (11) 
COCCN1CCOc2cc(S(=O)(=O)[N-]c3cc4c(cc3[O-])CCN(C)C4)ccc21 (protonated)
COCCN1CCOc2cc(S(=O)(=O)[N-]c3cc4c(cc3[O-])CCN(C)C4)ccc21 (3D coordinates assigned)
COCCN1CCOc2cc(S(=O)(=O)[N-]c3cc4c(cc3[O-])CCN(C)C4)ccc21 (nonaromatic ring conformer: 68.57397774122717 kcal/mol)

>  <smiles>  (11) 
COCCN1CCOc2cc(S(=O)(=O)Nc3cc4c(cc3O)CCN(C)C4)ccc21

>  <score_type>  (11) 
oracle

>  <origin>  (11) 
adgpu

>  <m_score__min__energy>  (11) 
-14.26

>  <m_primary>  (11) 
energy

$$$$
11:0
     RDKit          3D

 45 47  0  0  0  0  0  0  0  0999 V2000
   -2.7970   25.1040  -29.3090 N   0  0  0  0  0  0  0  0  0  0  0  0
   -2.6660   23.7100  -29.1840 N   0  0  0  0  0  0  0  0  0  0  0  0
   -3.6450   22.7870  -29.1400 C   0  0  0  0  0  0  0  0  0  0  0  0
   -5.1170   23.0940  -29.1710 C   0  0  0  0  0  0  0  0  0  0  0  0
   -5.5280   24.4820  -30.2280 S   0  0  0  0  0  0  0  0  0  0  0  0
   -5.7680   25.7170  -29.4070 O   0  0  0  0  0  0  0  0  0  0  0  0
   -4.3630   24.7350  -31.1430 O   0  0  0  0  0  0  0  0  0  0  0  0
   -6.9610   24.1320  -31.2380 C   0  0  0  0  0  0  0  0  0  0  0  0
   -6.9810   22.6980  -31.6870 C   0  0  0  0  0  0  0  0  0  0  0  0
   -5.8400   22.1180  -32.2680 C   0  0  0  0  0  0  0  0  0  0  0  0
   -5.8570   20.7800  -32.6690 C   0  0  0  0  0  0  0  0  0  0  0  0
   -7.0080   20.0080  -32.4860 C   0  0  0  0  0  0  0  0  0  0  0  0
   -8.1440   20.5750  -31.9010 C   0  0  0  0  0  0  0  0  0  0  0  0
   -8.1320   21.9150  -31.5040 C   0  0  0  0  0  0  0  0  0  0  0  0
   -3.1260   21.5580  -28.9350 N   0  0  0  0  0  0  0  0  0  0  0  0
   -1.8070   21.6900  -28.8700 N   0  0  0  0  0  0  0  0  0  0  0  0
   -1.5340   23.0010  -29.0140 C   0  0  0  0  0  0  0  0  0  0  0  0
   -0.1480   23.5670  -28.9790 C   0  0  0  0  0  0  0  0  0  0  0  0
    0.4740   23.6030  -27.3090 S   0  0  0  0  0  0  0  0  0  0  0  0
    1.9760   23.6730  -27.3140 O   0  0  0  0  0  0  0  0  0  0  0  0
    0.0490   22.3560  -26.5850 O   0  0  0  0  0  0  0  0  0  0  0  0
   -0.1750   25.0170  -26.4860 C   0  0  0  0  0  0  0  0  0  0  0  0
   -0.5890   24.9290  -25.1480 C   0  0  0  0  0  0  0  0  0  0  0  0
   -1.1160   26.0520  -24.5020 C   0  0  0  0  0  0  0  0  0  0  0  0
   -1.2380   27.2630  -25.1900 C   0  0  0  0  0  0  0  0  0  0  0  0
   -0.8360   27.3520  -26.5260 C   0  0  0  0  0  0  0  0  0  0  0  0
   -0.3080   26.2310  -27.1750 C   0  0  0  0  0  0  0  0  0  0  0  0
   -3.6650   25.5900  -28.9960 H   0  0  0  0  0  0  0  0  0  0  0  0
   -2.0350   25.6810  -29.7260 H   0  0  0  0  0  0  0  0  0  0  0  0
   -5.6516   22.2053  -29.5376 H   0  0  0  0  0  0  0  0  0  0  0  0
   -5.4158   23.3636  -28.1473 H   0  0  0  0  0  0  0  0  0  0  0  0
   -7.8696   24.3360  -30.6524 H   0  0  0  0  0  0  0  0  0  0  0  0
   -6.9188   24.7729  -32.1310 H   0  0  0  0  0  0  0  0  0  0  0  0
   -4.9301   22.7201  -32.4075 H   0  0  0  0  0  0  0  0  0  0  0  0
   -4.9635   20.3332  -33.1294 H   0  0  0  0  0  0  0  0  0  0  0  0
   -7.0198   18.9545  -32.8023 H   0  0  0  0  0  0  0  0  0  0  0  0
   -9.0480   19.9660  -31.7530 H   0  0  0  0  0  0  0  0  0  0  0  0
   -9.0285   22.3583  -31.0460 H   0  0  0  0  0  0  0  0  0  0  0  0
    0.5132   22.9422  -29.5975 H   0  0  0  0  0  0  0  0  0  0  0  0
   -0.1752   24.5951  -29.3692 H   0  0  0  0  0  0  0  0  0  0  0  0
   -0.4989   23.9757  -24.6067 H   0  0  0  0  0  0  0  0  0  0  0  0
   -1.4348   25.9824  -23.4515 H   0  0  0  0  0  0  0  0  0  0  0  0
   -1.6504   28.1460  -24.6799 H   0  0  0  0  0  0  0  0  0  0  0  0
   -0.9350   28.3044  -27.0673 H   0  0  0  0  0  0  0  0  0  0  0  0
    0.0034   26.3019  -28.2276 H   0  0  0  0  0  0  0  0  0  0  0  0
  1  2  1  0
  2  3  1  0
  3  4  1  0
  4  5  1  0
  5  6  2  0
  5  7  2  0
  5  8  1  0
  8  9  1  0
  9 10  2  0
 10 11  1  0
 11 12  2  0
 12 13  1  0
 13 14  2  0
  3 15  2  0
 15 16  1  0
 16 17  2  0
 17 18  1  0
 18 19  1  0
 19 20  2  0
 19 21  2  0
 19 22  1  0
 22 23  2  0
 23 24  1  0
 24 25  2  0
 25 26  1  0
 26 27  2  0
 17  2  1  0
 27 22  1  0
 14  9  1  0
  1 28  1  0
  1 29  1  0
  4 30  1  0
  4 31  1  0
  8 32  1  0
  8 33  1  0
 10 34  1  0
 11 35  1  0
 12 36  1  0
 13 37  1  0
 14 38  1  0
 18 39  1  0
 18 40  1  0
 23 41  1  0
 24 42  1  0
 25 43  1  0
 26 44  1  0
 27 45  1  0
M  END
>  <UniqueID>  (12) 
11

>  <SMILES>  (12) 
Nn1c(CS(=O)(=O)Cc2ccccc2)nnc1CS(=O)(=O)c1ccccc1

>  <Energy>  (12) 
68.86383747665751

>  <Genealogy>  (12) 
Nn1c(CS(=O)(=O)Cc2ccccc2)nnc1CS(=O)(=O)c1ccccc1 (3D coordinates assigned)
Nn1c(CS(=O)(=O)Cc2ccccc2)nnc1CS(=O)(=O)c1ccccc1 (optimized conformer: 68.86383747665751 kcal/mol)

>  <smiles>  (12) 
Nn1c(CS(=O)(=O)Cc2ccccc2)nnc1CS(=O)(=O)c1ccccc1

>  <score_type>  (12) 
oracle

>  <origin>  (12) 
adgpu

>  <m_score__min__energy>  (12) 
-10.23

>  <m_primary>  (12) 
energy

$$$$
12:0
     RDKit          3D

 46 49  0  0  0  0  0  0  0  0999 V2000
   -1.9010   25.2980  -29.2900 O   0  0  0  0  0  0  0  0  0  0  0  0
   -2.8310   24.5080  -29.6050 C   0  0  0  0  0  0  0  0  0  0  0  0
   -3.8370   24.9380  -30.4110 N   0  0  0  0  0  0  0  0  0  0  0  0
   -4.8540   24.1110  -30.7690 C   0  0  0  0  0  0  0  0  0  0  0  0
   -5.8820   24.5620  -31.6020 C   0  0  0  0  0  0  0  0  0  0  0  0
   -6.9170   23.6950  -31.9660 C   0  0  0  0  0  0  0  0  0  0  0  0
   -6.9290   22.3710  -31.4990 C   0  0  0  0  0  0  0  0  0  0  0  0
   -8.1980   21.2590  -32.0050 S   0  0  0  0  0  0  0  0  0  0  0  0
   -8.4600   20.2860  -30.8890 O   0  0  0  0  0  0  0  0  0  0  0  0
   -9.4660   22.0070  -32.3110 O   0  0  0  0  0  0  0  0  0  0  0  0
   -7.7010   20.3890  -33.4220 N   0  0  0  0  0  0  0  0  0  0  0  0
   -6.4730   19.6430  -33.5180 C   0  0  0  0  0  0  0  0  0  0  0  0
   -6.5260   18.2690  -33.7990 C   0  0  0  0  0  0  0  0  0  0  0  0
   -5.3510   17.5130  -33.8760 C   0  0  0  0  0  0  0  0  0  0  0  0
   -5.4360   15.7940  -34.2170 Cl  0  0  0  0  0  0  0  0  0  0  0  0
   -4.1120   18.1240  -33.6710 C   0  0  0  0  0  0  0  0  0  0  0  0
   -4.0400   19.4960  -33.4020 C   0  0  0  0  0  0  0  0  0  0  0  0
   -2.4800   20.2610  -33.1120 S   0  0  0  0  0  0  0  0  0  0  0  0
   -2.6800   21.7280  -32.8510 O   0  0  0  0  0  0  0  0  0  0  0  0
   -1.6330   20.0840  -34.3410 O   0  0  0  0  0  0  0  0  0  0  0  0
   -1.6880   19.5130  -31.7390 N   0  0  0  0  0  0  0  0  0  0  0  0
   -1.6460   20.4390  -30.6010 C   0  0  0  0  0  0  0  0  0  0  0  0
   -0.3020   21.1520  -30.6120 C   0  0  0  0  0  0  0  0  0  0  0  0
    0.5600   20.3900  -31.6000 C   0  0  0  0  0  0  0  0  0  0  0  0
   -0.2880   19.2120  -32.0530 C   0  0  0  0  0  0  0  0  0  0  0  0
   -5.2180   20.2520  -33.3290 C   0  0  0  0  0  0  0  0  0  0  0  0
   -5.9020   21.9200  -30.6560 C   0  0  0  0  0  0  0  0  0  0  0  0
   -4.8650   22.7840  -30.2930 C   0  0  0  0  0  0  0  0  0  0  0  0
   -3.8580   22.3570  -29.4870 N   0  0  0  0  0  0  0  0  0  0  0  0
   -2.8410   23.1880  -29.1320 C   0  0  0  0  0  0  0  0  0  0  0  0
   -1.9210   22.7650  -28.3830 O   0  0  0  0  0  0  0  0  0  0  0  0
   -5.8768   25.5983  -31.9709 H   0  0  0  0  0  0  0  0  0  0  0  0
   -7.7254   24.0519  -32.6211 H   0  0  0  0  0  0  0  0  0  0  0  0
   -8.3710   20.3670  -34.2230 H   0  0  0  0  0  0  0  0  0  0  0  0
   -7.4993   17.7823  -33.9600 H   0  0  0  0  0  0  0  0  0  0  0  0
   -3.1903   17.5257  -33.7210 H   0  0  0  0  0  0  0  0  0  0  0  0
   -2.4581   21.1755  -30.6910 H   0  0  0  0  0  0  0  0  0  0  0  0
   -1.7730   19.8860  -29.6586 H   0  0  0  0  0  0  0  0  0  0  0  0
   -0.4246   22.1961  -30.9358 H   0  0  0  0  0  0  0  0  0  0  0  0
    0.1529   21.1754  -29.6107 H   0  0  0  0  0  0  0  0  0  0  0  0
    0.8196   21.0291  -32.4568 H   0  0  0  0  0  0  0  0  0  0  0  0
    1.5072   20.0615  -31.1474 H   0  0  0  0  0  0  0  0  0  0  0  0
   -0.1722   19.0639  -33.1368 H   0  0  0  0  0  0  0  0  0  0  0  0
    0.0295   18.2930  -31.5386 H   0  0  0  0  0  0  0  0  0  0  0  0
   -5.1613   21.3309  -33.1222 H   0  0  0  0  0  0  0  0  0  0  0  0
   -5.9130   20.8861  -30.2807 H   0  0  0  0  0  0  0  0  0  0  0  0
  1  2  2  0
  2  3  1  0
  3  4  1  0
  4  5  2  0
  5  6  1  0
  6  7  2  0
  7  8  1  0
  8  9  2  0
  8 10  2  0
  8 11  1  0
 11 12  1  0
 12 13  2  0
 13 14  1  0
 14 15  1  0
 14 16  2  0
 16 17  1  0
 17 18  1  0
 18 19  2  0
 18 20  2  0
 18 21  1  0
 21 22  1  0
 22 23  1  0
 23 24  1  0
 24 25  1  0
 17 26  2  0
  7 27  1  0
 27 28  2  0
 28 29  1  0
 29 30  1  0
 30 31  2  0
 30  2  1  0
 28  4  1  0
 26 12  1  0
 25 21  1  0
  5 32  1  0
  6 33  1  0
 11 34  1  0
 13 35  1  0
 16 36  1  0
 22 37  1  0
 22 38  1  0
 23 39  1  0
 23 40  1  0
 24 41  1  0
 24 42  1  0
 25 43  1  0
 25 44  1  0
 26 45  1  0
 27 46  1  0
M  CHG  2   3  -1  29  -1
M  END
>  <UniqueID>  (13) 
12

>  <SMILES>  (13) 
O=c1[n-]c2ccc(S(=O)(=O)Nc3cc(Cl)cc(S(=O)(=O)N4CCCC4)c3)cc2[n-]c1=O

>  <Energy>  (13) 
56.35180033929705

>  <Genealogy>  (13) 
O=c1[n-]c2ccc(S(=O)(=O)Nc3cc(Cl)cc(S(=O)(=O)N4CCCC4)c3)cc2[n-]c1=O (protonated)
O=c1[n-]c2ccc(S(=O)(=O)Nc3cc(Cl)cc(S(=O)(=O)N4CCCC4)c3)cc2[n-]c1=O (3D coordinates assigned)
O=c1[n-]c2ccc(S(=O)(=O)Nc3cc(Cl)cc(S(=O)(=O)N4CCCC4)c3)cc2[n-]c1=O (nonaromatic ring conformer: 56.35180033929705 kcal/mol)

>  <smiles>  (13) 
O=c1[nH]c2ccc(S(=O)(=O)Nc3cc(Cl)cc(S(=O)(=O)N4CCCC4)c3)cc2[nH]c1=O

>  <score_type>  (13) 
oracle

>  <origin>  (13) 
adgpu

>  <m_score__min__energy>  (13) 
-12.06

>  <m_primary>  (13) 
energy

$$$$
13:0
     RDKit          3D

 56 59  0  0  0  0  0  0  0  0999 V2000
    0.9640   18.9990  -27.6940 C   0  0  0  0  0  0  0  0  0  0  0  0
   -0.2890   19.5640  -28.2270 N   0  0  0  0  0  0  0  0  0  0  0  0
   -1.3400   19.4970  -27.1900 C   0  0  0  0  0  0  0  0  0  0  0  0
   -2.6740   19.9220  -27.7970 C   0  0  0  0  0  0  0  0  0  0  0  0
   -2.5610   21.3190  -28.3320 C   0  0  0  0  0  0  0  0  0  0  0  0
   -3.6850   22.1580  -28.3580 C   0  0  0  0  0  0  0  0  0  0  0  0
   -3.5650   23.5030  -28.7760 C   0  0  0  0  0  0  0  0  0  0  0  0
   -4.6800   24.4010  -28.7090 N   0  0  0  0  0  0  0  0  0  0  0  0
   -5.6250   24.8320  -30.0940 S   0  0  0  0  0  0  0  0  0  0  0  0
   -6.8250   25.6200  -29.6530 O   0  0  0  0  0  0  0  0  0  0  0  0
   -4.8110   25.6790  -31.0310 O   0  0  0  0  0  0  0  0  0  0  0  0
   -6.1650   23.3540  -30.8770 C   0  0  0  0  0  0  0  0  0  0  0  0
   -5.2940   22.2700  -31.0370 C   0  0  0  0  0  0  0  0  0  0  0  0
   -5.7720   21.0490  -31.5240 C   0  0  0  0  0  0  0  0  0  0  0  0
   -7.1270   20.9030  -31.8500 C   0  0  0  0  0  0  0  0  0  0  0  0
   -7.7530   19.3390  -32.3680 S   0  0  0  0  0  0  0  0  0  0  0  0
   -9.2070   19.4770  -32.7320 O   0  0  0  0  0  0  0  0  0  0  0  0
   -7.6550   18.3640  -31.2270 O   0  0  0  0  0  0  0  0  0  0  0  0
   -6.8770   18.7250  -33.7570 N   0  0  0  0  0  0  0  0  0  0  0  0
   -6.8150   17.2420  -33.7860 C   0  0  0  0  0  0  0  0  0  0  0  0
   -5.4270   16.6930  -34.1290 C   0  0  0  0  0  0  0  0  0  0  0  0
   -4.3950   17.2990  -33.1860 C   0  0  0  0  0  0  0  0  0  0  0  0
   -4.3840   18.8310  -33.2680 C   0  0  0  0  0  0  0  0  0  0  0  0
   -5.6090   19.4470  -33.9930 C   0  0  0  0  0  0  0  0  0  0  0  0
   -7.9920   22.0010  -31.7170 C   0  0  0  0  0  0  0  0  0  0  0  0
   -7.5130   23.2160  -31.2300 C   0  0  0  0  0  0  0  0  0  0  0  0
   -2.3260   23.9760  -29.2230 C   0  0  0  0  0  0  0  0  0  0  0  0
   -2.1860   25.2970  -29.6230 O   0  0  0  0  0  0  0  0  0  0  0  0
   -1.2130   23.1320  -29.2380 C   0  0  0  0  0  0  0  0  0  0  0  0
   -1.3160   21.8020  -28.7910 C   0  0  0  0  0  0  0  0  0  0  0  0
   -0.0570   20.9530  -28.7000 C   0  0  0  0  0  0  0  0  0  0  0  0
    0.9338   19.0126  -26.5945 H   0  0  0  0  0  0  0  0  0  0  0  0
    1.0774   17.9627  -28.0449 H   0  0  0  0  0  0  0  0  0  0  0  0
    1.8157   19.6002  -28.0449 H   0  0  0  0  0  0  0  0  0  0  0  0
   -1.4193   18.4667  -26.8130 H   0  0  0  0  0  0  0  0  0  0  0  0
   -1.0818   20.1700  -26.3591 H   0  0  0  0  0  0  0  0  0  0  0  0
   -2.9386   19.2367  -28.6158 H   0  0  0  0  0  0  0  0  0  0  0  0
   -3.4547   19.8893  -27.0227 H   0  0  0  0  0  0  0  0  0  0  0  0
   -4.6662   21.7667  -28.0511 H   0  0  0  0  0  0  0  0  0  0  0  0
   -4.2302   22.3787  -30.7789 H   0  0  0  0  0  0  0  0  0  0  0  0
   -5.0826   20.2014  -31.6514 H   0  0  0  0  0  0  0  0  0  0  0  0
   -7.1039   16.8624  -32.7948 H   0  0  0  0  0  0  0  0  0  0  0  0
   -7.4997   16.9059  -34.5786 H   0  0  0  0  0  0  0  0  0  0  0  0
   -5.4276   15.5986  -34.0178 H   0  0  0  0  0  0  0  0  0  0  0  0
   -5.1746   16.9555  -35.1670 H   0  0  0  0  0  0  0  0  0  0  0  0
   -4.6339   16.9986  -32.1551 H   0  0  0  0  0  0  0  0  0  0  0  0
   -3.4013   16.9320  -33.4825 H   0  0  0  0  0  0  0  0  0  0  0  0
   -4.3557   19.2294  -32.2431 H   0  0  0  0  0  0  0  0  0  0  0  0
   -3.4996   19.1053  -33.8618 H   0  0  0  0  0  0  0  0  0  0  0  0
   -5.7316   20.4830  -33.6443 H   0  0  0  0  0  0  0  0  0  0  0  0
   -5.4039   19.3827  -35.0718 H   0  0  0  0  0  0  0  0  0  0  0  0
   -9.0509   21.9020  -31.9980 H   0  0  0  0  0  0  0  0  0  0  0  0
   -8.1972   24.0706  -31.1225 H   0  0  0  0  0  0  0  0  0  0  0  0
   -0.2469   23.5109  -29.6028 H   0  0  0  0  0  0  0  0  0  0  0  0
    0.3990   20.9048  -29.6999 H   0  0  0  0  0  0  0  0  0  0  0  0
    0.5944   21.4345  -27.9558 H   0  0  0  0  0  0  0  0  0  0  0  0
  1  2  1  0
  2  3  1  0
  3  4  1  0
  4  5  1  0
  5  6  2  0
  6  7  1  0
  7  8  1  0
  8  9  1  0
  9 10  2  0
  9 11  2  0
  9 12  1  0
 12 13  2  0
 13 14  1  0
 14 15  2  0
 15 16  1  0
 16 17  2  0
 16 18  2  0
 16 19  1  0
 19 20  1  0
 20 21  1  0
 21 22  1  0
 22 23  1  0
 23 24  1  0
 15 25  1  0
 25 26  2  0
  7 27  2  0
 27 28  1  0
 27 29  1  0
 29 30  2  0
 30 31  1  0
 31  2  1  0
 30  5  1  0
 26 12  1  0
 24 19  1  0
  1 32  1  0
  1 33  1  0
  1 34  1  0
  3 35  1  0
  3 36  1  0
  4 37  1  0
  4 38  1  0
  6 39  1  0
 13 40  1  0
 14 41  1  0
 20 42  1  0
 20 43  1  0
 21 44  1  0
 21 45  1  0
 22 46  1  0
 22 47  1  0
 23 48  1  0
 23 49  1  0
 24 50  1  0
 24 51  1  0
 25 52  1  0
 26 53  1  0
 29 54  1  0
 31 55  1  0
 31 56  1  0
M  CHG  2   8  -1  28  -1
M  END
>  <UniqueID>  (14) 
13

>  <SMILES>  (14) 
CN1CCc2cc([N-]S(=O)(=O)c3ccc(S(=O)(=O)N4CCCCC4)cc3)c([O-])cc2C1

>  <Energy>  (14) 
71.1141669872817

>  <Genealogy>  (14) 
CN1CCc2cc([N-]S(=O)(=O)c3ccc(S(=O)(=O)N4CCCCC4)cc3)c([O-])cc2C1 (protonated)
CN1CCc2cc([N-]S(=O)(=O)c3ccc(S(=O)(=O)N4CCCCC4)cc3)c([O-])cc2C1 (3D coordinates assigned)
CN1CCc2cc([N-]S(=O)(=O)c3ccc(S(=O)(=O)N4CCCCC4)cc3)c([O-])cc2C1 (nonaromatic ring conformer: 71.1141669872817 kcal/mol)

>  <smiles>  (14) 
CN1CCc2cc(NS(=O)(=O)c3ccc(S(=O)(=O)N4CCCCC4)cc3)c(O)cc2C1

>  <score_type>  (14) 
oracle

>  <origin>  (14) 
adgpu

>  <m_score__min__energy>  (14) 
-14.619999999999999

>  <m_primary>  (14) 
energy

$$$$
14:0
     RDKit          3D

 57 60  0  0  0  0  0  0  0  0999 V2000
   -4.9880   24.3420  -31.2070 O   0  0  0  0  0  0  0  0  0  0  0  0
   -5.0460   23.2200  -31.7830 C   0  0  0  0  0  0  0  0  0  0  0  0
   -3.8730   22.6640  -32.3930 N   0  0  0  0  0  0  0  0  0  0  0  0
   -2.7870   22.0130  -31.7180 C   0  0  0  0  0  0  0  0  0  0  0  0
   -2.4950   22.2710  -30.3660 C   0  0  0  0  0  0  0  0  0  0  0  0
   -1.4250   21.6240  -29.7330 C   0  0  0  0  0  0  0  0  0  0  0  0
   -1.0720   21.9460  -28.0300 S   0  0  0  0  0  0  0  0  0  0  0  0
    0.4110   22.1150  -27.8610 O   0  0  0  0  0  0  0  0  0  0  0  0
   -1.7340   23.2350  -27.6290 O   0  0  0  0  0  0  0  0  0  0  0  0
   -1.6230   20.6690  -26.9720 N   0  0  0  0  0  0  0  0  0  0  0  0
   -3.0390   20.3660  -27.1670 C   0  0  0  0  0  0  0  0  0  0  0  0
   -3.2340   18.9260  -26.7190 C   0  0  0  0  0  0  0  0  0  0  0  0
   -1.8470   18.3020  -26.7510 C   0  0  0  0  0  0  0  0  0  0  0  0
   -0.9170   19.4130  -27.2140 C   0  0  0  0  0  0  0  0  0  0  0  0
   -0.6200   20.7430  -30.4650 C   0  0  0  0  0  0  0  0  0  0  0  0
   -0.8840   20.5060  -31.8160 C   0  0  0  0  0  0  0  0  0  0  0  0
   -1.9620   21.1420  -32.4460 C   0  0  0  0  0  0  0  0  0  0  0  0
   -2.2230   20.9070  -33.7960 O   0  0  0  0  0  0  0  0  0  0  0  0
   -6.3120   22.4520  -31.7750 C   0  0  0  0  0  0  0  0  0  0  0  0
   -7.5490   23.1110  -31.6450 C   0  0  0  0  0  0  0  0  0  0  0  0
   -8.7410   22.3830  -31.6280 C   0  0  0  0  0  0  0  0  0  0  0  0
   -8.7160   20.9920  -31.7380 C   0  0  0  0  0  0  0  0  0  0  0  0
   -7.4950   20.3180  -31.8660 C   0  0  0  0  0  0  0  0  0  0  0  0
   -7.4630   18.5580  -31.9820 S   0  0  0  0  0  0  0  0  0  0  0  0
   -8.8380   18.0200  -31.6970 O   0  0  0  0  0  0  0  0  0  0  0  0
   -6.5350   18.0200  -30.9280 O   0  0  0  0  0  0  0  0  0  0  0  0
   -6.9320   17.9960  -33.5540 N   0  0  0  0  0  0  0  0  0  0  0  0
   -6.0990   18.9890  -34.2600 C   0  0  0  0  0  0  0  0  0  0  0  0
   -4.6160   18.9610  -33.8220 C   0  0  0  0  0  0  0  0  0  0  0  0
   -4.3020   17.8660  -32.9830 O   0  0  0  0  0  0  0  0  0  0  0  0
   -4.7920   16.6760  -33.5550 C   0  0  0  0  0  0  0  0  0  0  0  0
   -6.3280   16.6480  -33.5050 C   0  0  0  0  0  0  0  0  0  0  0  0
   -6.2990   21.0490  -31.8930 C   0  0  0  0  0  0  0  0  0  0  0  0
   -3.1114   22.9861  -29.8014 H   0  0  0  0  0  0  0  0  0  0  0  0
   -3.6599   21.0410  -26.5597 H   0  0  0  0  0  0  0  0  0  0  0  0
   -3.3353   20.5010  -28.2177 H   0  0  0  0  0  0  0  0  0  0  0  0
   -3.6477   18.8925  -25.7003 H   0  0  0  0  0  0  0  0  0  0  0  0
   -3.9401   18.3875  -27.3682 H   0  0  0  0  0  0  0  0  0  0  0  0
   -1.5592   17.9513  -25.7489 H   0  0  0  0  0  0  0  0  0  0  0  0
   -1.8059   17.4284  -27.4182 H   0  0  0  0  0  0  0  0  0  0  0  0
    0.0214   19.3874  -26.6406 H   0  0  0  0  0  0  0  0  0  0  0  0
   -0.6580   19.2994  -28.2770 H   0  0  0  0  0  0  0  0  0  0  0  0
    0.2236   20.2355  -29.9743 H   0  0  0  0  0  0  0  0  0  0  0  0
   -0.2436   19.8179  -32.3872 H   0  0  0  0  0  0  0  0  0  0  0  0
   -2.7910   21.5410  -34.3440 H   0  0  0  0  0  0  0  0  0  0  0  0
   -7.5772   24.2070  -31.5562 H   0  0  0  0  0  0  0  0  0  0  0  0
   -9.7025   22.9078  -31.5276 H   0  0  0  0  0  0  0  0  0  0  0  0
   -9.6576   20.4236  -31.7241 H   0  0  0  0  0  0  0  0  0  0  0  0
   -6.1488   18.7831  -35.3394 H   0  0  0  0  0  0  0  0  0  0  0  0
   -6.4950   19.9846  -34.0108 H   0  0  0  0  0  0  0  0  0  0  0  0
   -3.9868   18.9029  -34.7224 H   0  0  0  0  0  0  0  0  0  0  0  0
   -4.4288   19.8785  -33.2448 H   0  0  0  0  0  0  0  0  0  0  0  0
   -4.4627   16.6155  -34.6028 H   0  0  0  0  0  0  0  0  0  0  0  0
   -4.4016   15.8200  -32.9851 H   0  0  0  0  0  0  0  0  0  0  0  0
   -6.6962   16.0675  -34.3638 H   0  0  0  0  0  0  0  0  0  0  0  0
   -6.6178   16.1922  -32.5467 H   0  0  0  0  0  0  0  0  0  0  0  0
   -5.3408   20.5211  -32.0075 H   0  0  0  0  0  0  0  0  0  0  0  0
  1  2  2  0
  2  3  1  0
  3  4  1  0
  4  5  2  0
  5  6  1  0
  6  7  1  0
  7  8  2  0
  7  9  2  0
  7 10  1  0
 10 11  1  0
 11 12  1  0
 12 13  1  0
 13 14  1  0
  6 15  2  0
 15 16  1  0
 16 17  2  0
 17 18  1  0
  2 19  1  0
 19 20  2  0
 20 21  1  0
 21 22  2  0
 22 23  1  0
 23 24  1  0
 24 25  2  0
 24 26  2  0
 24 27  1  0
 27 28  1  0
 28 29  1  0
 29 30  1  0
 30 31  1  0
 31 32  1  0
 23 33  2  0
 17  4  1  0
 33 19  1  0
 14 10  1  0
 32 27  1  0
  5 34  1  0
 11 35  1  0
 11 36  1  0
 12 37  1  0
 12 38  1  0
 13 39  1  0
 13 40  1  0
 14 41  1  0
 14 42  1  0
 15 43  1  0
 16 44  1  0
 18 45  1  0
 20 46  1  0
 21 47  1  0
 22 48  1  0
 28 49  1  0
 28 50  1  0
 29 51  1  0
 29 52  1  0
 31 53  1  0
 31 54  1  0
 32 55  1  0
 32 56  1  0
 33 57  1  0
M  CHG  1   3  -1
M  END
>  <UniqueID>  (15) 
14

>  <SMILES>  (15) 
O=C([N-]c1cc(S(=O)(=O)N2CCCC2)ccc1O)c1cccc(S(=O)(=O)N2CCOCC2)c1

>  <Energy>  (15) 
74.44465774562649

>  <Genealogy>  (15) 
O=C([N-]c1cc(S(=O)(=O)N2CCCC2)ccc1O)c1cccc(S(=O)(=O)N2CCOCC2)c1 (protonated)
O=C([N-]c1cc(S(=O)(=O)N2CCCC2)ccc1O)c1cccc(S(=O)(=O)N2CCOCC2)c1 (3D coordinates assigned)
O=C([N-]c1cc(S(=O)(=O)N2CCCC2)ccc1O)c1cccc(S(=O)(=O)N2CCOCC2)c1 (nonaromatic ring conformer: 74.44465774562649 kcal/mol)

>  <smiles>  (15) 
O=C(Nc1cc(S(=O)(=O)N2CCCC2)ccc1O)c1cccc(S(=O)(=O)N2CCOCC2)c1

>  <score_type>  (15) 
oracle

>  <origin>  (15) 
adgpu

>  <m_score__min__energy>  (15) 
-12.369999999999999

>  <m_primary>  (15) 
energy

$$$$
15:0
     RDKit          3D

 39 41  0  0  0  0  0  0  0  0999 V2000
   -5.3640   26.1680  -30.8900 O   0  0  0  0  0  0  0  0  0  0  0  0
   -4.8820   25.1210  -30.3800 C   0  0  0  0  0  0  0  0  0  0  0  0
   -5.7970   24.0460  -29.8930 C   0  0  0  0  0  0  0  0  0  0  0  0
   -6.0010   23.0530  -30.9480 N   0  0  0  0  0  0  0  0  0  0  0  0
   -5.0770   22.2510  -31.5010 C   0  0  0  0  0  0  0  0  0  0  0  0
   -3.7450   22.1960  -31.0930 O   0  0  0  0  0  0  0  0  0  0  0  0
   -5.6620   21.5370  -32.5300 C   0  0  0  0  0  0  0  0  0  0  0  0
   -4.9700   20.5880  -33.4660 C   0  0  0  0  0  0  0  0  0  0  0  0
   -5.6570   19.2480  -33.4920 C   0  0  0  0  0  0  0  0  0  0  0  0
   -5.4670   18.3760  -34.5770 C   0  0  0  0  0  0  0  0  0  0  0  0
   -6.0780   17.1180  -34.5850 C   0  0  0  0  0  0  0  0  0  0  0  0
   -6.8750   16.7200  -33.5080 C   0  0  0  0  0  0  0  0  0  0  0  0
   -7.0570   17.5760  -32.4180 C   0  0  0  0  0  0  0  0  0  0  0  0
   -6.4490   18.8350  -32.4060 C   0  0  0  0  0  0  0  0  0  0  0  0
   -6.9510   21.9270  -32.6610 N   0  0  0  0  0  0  0  0  0  0  0  0
   -7.1130   22.8430  -31.6810 C   0  0  0  0  0  0  0  0  0  0  0  0
   -8.1980   23.4530  -31.4900 O   0  0  0  0  0  0  0  0  0  0  0  0
   -3.4640   24.9450  -30.2620 N   0  0  0  0  0  0  0  0  0  0  0  0
   -2.7570   24.5010  -29.0950 C   0  0  0  0  0  0  0  0  0  0  0  0
   -3.1760   23.3780  -28.3560 C   0  0  0  0  0  0  0  0  0  0  0  0
   -2.4770   22.9890  -27.2100 C   0  0  0  0  0  0  0  0  0  0  0  0
   -1.3660   23.7200  -26.7830 C   0  0  0  0  0  0  0  0  0  0  0  0
   -0.9580   24.8500  -27.4970 C   0  0  0  0  0  0  0  0  0  0  0  0
   -1.6530   25.2440  -28.6460 C   0  0  0  0  0  0  0  0  0  0  0  0
   -1.2380   26.3720  -29.3450 O   0  0  0  0  0  0  0  0  0  0  0  0
   -5.3516   23.5581  -29.0135 H   0  0  0  0  0  0  0  0  0  0  0  0
   -6.7657   24.4898  -29.6199 H   0  0  0  0  0  0  0  0  0  0  0  0
   -3.2460   23.0240  -30.7940 H   0  0  0  0  0  0  0  0  0  0  0  0
   -4.9781   21.0147  -34.4798 H   0  0  0  0  0  0  0  0  0  0  0  0
   -3.9382   20.4428  -33.1136 H   0  0  0  0  0  0  0  0  0  0  0  0
   -4.8354   18.6838  -35.4233 H   0  0  0  0  0  0  0  0  0  0  0  0
   -5.9312   16.4412  -35.4396 H   0  0  0  0  0  0  0  0  0  0  0  0
   -7.3594   15.7324  -33.5181 H   0  0  0  0  0  0  0  0  0  0  0  0
   -7.6795   17.2586  -31.5684 H   0  0  0  0  0  0  0  0  0  0  0  0
   -6.5906   19.5043  -31.5446 H   0  0  0  0  0  0  0  0  0  0  0  0
   -4.0566   22.8049  -28.6818 H   0  0  0  0  0  0  0  0  0  0  0  0
   -2.8027   22.1047  -26.6427 H   0  0  0  0  0  0  0  0  0  0  0  0
   -0.8126   23.4065  -25.8855 H   0  0  0  0  0  0  0  0  0  0  0  0
   -0.0887   25.4310  -27.1551 H   0  0  0  0  0  0  0  0  0  0  0  0
  1  2  2  0
  2  3  1  0
  3  4  1  0
  4  5  1  0
  5  6  1  0
  5  7  2  0
  7  8  1  0
  8  9  1  0
  9 10  2  0
 10 11  1  0
 11 12  2  0
 12 13  1  0
 13 14  2  0
  7 15  1  0
 15 16  1  0
 16 17  2  0
  2 18  1  0
 18 19  1  0
 19 20  2  0
 20 21  1  0
 21 22  2  0
 22 23  1  0
 23 24  2  0
 24 25  1  0
 16  4  1  0
 24 19  1  0
 14  9  1  0
  3 26  1  0
  3 27  1  0
  6 28  1  0
  8 29  1  0
  8 30  1  0
 10 31  1  0
 11 32  1  0
 12 33  1  0
 13 34  1  0
 14 35  1  0
 20 36  1  0
 21 37  1  0
 22 38  1  0
 23 39  1  0
M  CHG  3  15  -1  18  -1  25  -1
M  END
>  <UniqueID>  (16) 
15

>  <SMILES>  (16) 
O=C(Cn1c(O)c(Cc2ccccc2)[n-]c1=O)[N-]c1ccccc1[O-]

>  <Energy>  (16) 
74.2947209718732

>  <Genealogy>  (16) 
O=C(Cn1c(O)c(Cc2ccccc2)[n-]c1=O)[N-]c1ccccc1[O-] (protonated)
O=C(Cn1c(O)c(Cc2ccccc2)[n-]c1=O)[N-]c1ccccc1[O-] (3D coordinates assigned)
O=C(Cn1c(O)c(Cc2ccccc2)[n-]c1=O)[N-]c1ccccc1[O-] (optimized conformer: 74.2947209718732 kcal/mol)

>  <smiles>  (16) 
O=C(Cn1c(O)c(Cc2ccccc2)[nH]c1=O)Nc1ccccc1O

>  <score_type>  (16) 
oracle

>  <origin>  (16) 
adgpu

>  <m_score__min__energy>  (16) 
-12.75

>  <m_primary>  (16) 
energy

$$$$
16:0
     RDKit          3D

 37 38  0  0  0  0  0  0  0  0999 V2000
   -7.1740   17.9160  -33.4470 C   0  0  0  0  0  0  0  0  0  0  0  0
   -7.4390   18.4800  -32.0350 C   0  0  0  0  0  0  0  0  0  0  0  0
   -8.8950   18.1690  -31.6220 C   0  0  0  0  0  0  0  0  0  0  0  0
   -6.5050   17.7390  -31.0480 C   0  0  0  0  0  0  0  0  0  0  0  0
   -7.2220   20.0070  -32.0430 C   0  0  0  0  0  0  0  0  0  0  0  0
   -5.9400   20.5260  -32.3310 C   0  0  0  0  0  0  0  0  0  0  0  0
   -5.7000   21.9010  -32.3290 C   0  0  0  0  0  0  0  0  0  0  0  0
   -6.7330   22.8010  -32.0370 C   0  0  0  0  0  0  0  0  0  0  0  0
   -6.4600   24.2790  -31.9630 C   0  0  0  0  0  0  0  0  0  0  0  0
   -6.5760   24.8810  -30.2400 S   0  0  0  0  0  0  0  0  0  0  0  0
   -4.9400   24.3180  -29.7700 C   0  0  0  0  0  0  0  0  0  0  0  0
   -4.7490   23.0200  -29.4150 N   0  0  0  0  0  0  0  0  0  0  0  0
   -3.5260   22.5730  -29.0300 C   0  0  0  0  0  0  0  0  0  0  0  0
   -3.3730   21.3670  -28.7050 O   0  0  0  0  0  0  0  0  0  0  0  0
   -2.4430   23.4530  -28.9960 C   0  0  0  0  0  0  0  0  0  0  0  0
   -2.6540   24.7810  -29.3680 C   0  0  0  0  0  0  0  0  0  0  0  0
   -1.6000   25.6850  -29.3420 O   0  0  0  0  0  0  0  0  0  0  0  0
   -3.8930   25.1890  -29.7540 N   0  0  0  0  0  0  0  0  0  0  0  0
   -8.0110   22.3050  -31.7550 C   0  0  0  0  0  0  0  0  0  0  0  0
   -8.2560   20.9300  -31.7590 C   0  0  0  0  0  0  0  0  0  0  0  0
   -6.7076   16.9233  -33.3637 H   0  0  0  0  0  0  0  0  0  0  0  0
   -8.1257   17.8294  -33.9918 H   0  0  0  0  0  0  0  0  0  0  0  0
   -6.4999   18.5933  -33.9918 H   0  0  0  0  0  0  0  0  0  0  0  0
   -8.9694   18.1531  -30.5246 H   0  0  0  0  0  0  0  0  0  0  0  0
   -9.5637   18.9446  -32.0237 H   0  0  0  0  0  0  0  0  0  0  0  0
   -9.1885   17.1879  -32.0237 H   0  0  0  0  0  0  0  0  0  0  0  0
   -6.8018   17.9745  -30.0153 H   0  0  0  0  0  0  0  0  0  0  0  0
   -6.5829   16.6543  -31.2136 H   0  0  0  0  0  0  0  0  0  0  0  0
   -5.4665   18.0615  -31.2136 H   0  0  0  0  0  0  0  0  0  0  0  0
   -5.1163   19.8342  -32.5609 H   0  0  0  0  0  0  0  0  0  0  0  0
   -4.6932   22.2803  -32.5582 H   0  0  0  0  0  0  0  0  0  0  0  0
   -5.4482   24.4776  -32.3462 H   0  0  0  0  0  0  0  0  0  0  0  0
   -7.2118   24.8052  -32.5696 H   0  0  0  0  0  0  0  0  0  0  0  0
   -1.4466   23.1075  -28.6833 H   0  0  0  0  0  0  0  0  0  0  0  0
   -4.0430   26.1870  -30.0270 H   0  0  0  0  0  0  0  0  0  0  0  0
   -8.8295   23.0041  -31.5283 H   0  0  0  0  0  0  0  0  0  0  0  0
   -9.2678   20.5592  -31.5381 H   0  0  0  0  0  0  0  0  0  0  0  0
  1  2  1  0
  2  3  1  0
  2  4  1  0
  2  5  1  0
  5  6  2  0
  6  7  1  0
  7  8  2  0
  8  9  1  0
  9 10  1  0
 10 11  1  0
 11 12  2  0
 12 13  1  0
 13 14  2  0
 13 15  1  0
 15 16  2  0
 16 17  1  0
 16 18  1  0
  8 19  1  0
 19 20  2  0
 20  5  1  0
 18 11  1  0
  1 21  1  0
  1 22  1  0
  1 23  1  0
  3 24  1  0
  3 25  1  0
  3 26  1  0
  4 27  1  0
  4 28  1  0
  4 29  1  0
  6 30  1  0
  7 31  1  0
  9 32  1  0
  9 33  1  0
 15 34  1  0
 18 35  1  0
 19 36  1  0
 20 37  1  0
M  CHG  1  17  -1
M  END
>  <UniqueID>  (17) 
16

>  <SMILES>  (17) 
CC(C)(C)c1ccc(CSc2nc(=O)cc([O-])[nH]2)cc1

>  <Energy>  (17) 
33.302693286279386

>  <Genealogy>  (17) 
CC(C)(C)c1ccc(CSc2nc(=O)cc([O-])[nH]2)cc1 (protonated)
CC(C)(C)c1ccc(CSc2nc(=O)cc([O-])[nH]2)cc1 (3D coordinates assigned)
CC(C)(C)c1ccc(CSc2nc(=O)cc([O-])[nH]2)cc1 (optimized conformer: 33.302693286279386 kcal/mol)

>  <smiles>  (17) 
CC(C)(C)c1ccc(CSc2nc(=O)cc(O)[nH]2)cc1

>  <score_type>  (17) 
oracle

>  <origin>  (17) 
adgpu

>  <m_score__min__energy>  (17) 
-10.81

>  <m_primary>  (17) 
energy

$$$$
17:0
     RDKit          3D

 48 50  0  0  0  0  0  0  0  0999 V2000
   -4.1410   15.5960  -34.4040 C   0  0  0  0  0  0  0  0  0  0  0  0
   -4.1280   17.0800  -34.6210 C   0  0  0  0  0  0  0  0  0  0  0  0
   -4.7580   17.5500  -35.6100 O   0  0  0  0  0  0  0  0  0  0  0  0
   -3.4130   17.9700  -33.7350 N   0  0  0  0  0  0  0  0  0  0  0  0
   -3.6610   19.4180  -33.8230 C   0  0  0  0  0  0  0  0  0  0  0  0
   -3.2960   20.1270  -32.5160 C   0  0  0  0  0  0  0  0  0  0  0  0
   -1.9320   19.7780  -32.0940 N   0  0  0  0  0  0  0  0  0  0  0  0
   -1.0730   20.7670  -31.4910 C   0  0  0  0  0  0  0  0  0  0  0  0
    0.1490   20.7920  -31.8050 O   0  0  0  0  0  0  0  0  0  0  0  0
   -1.5870   21.7580  -30.5140 C   0  0  0  0  0  0  0  0  0  0  0  0
   -1.3380   21.5890  -29.1420 C   0  0  0  0  0  0  0  0  0  0  0  0
   -1.8490   22.4970  -28.2120 C   0  0  0  0  0  0  0  0  0  0  0  0
   -2.6100   23.5920  -28.6350 C   0  0  0  0  0  0  0  0  0  0  0  0
   -3.0930   24.4840  -27.6760 O   0  0  0  0  0  0  0  0  0  0  0  0
   -2.8610   23.7840  -30.0080 C   0  0  0  0  0  0  0  0  0  0  0  0
   -3.6320   24.9210  -30.4270 N   0  0  0  0  0  0  0  0  0  0  0  0
   -5.3500   25.1140  -30.2450 S   0  0  0  0  0  0  0  0  0  0  0  0
   -5.7410   25.1900  -28.7960 O   0  0  0  0  0  0  0  0  0  0  0  0
   -5.7380   26.4090  -30.9010 O   0  0  0  0  0  0  0  0  0  0  0  0
   -6.1950   23.7790  -31.0360 C   0  0  0  0  0  0  0  0  0  0  0  0
   -7.5880   23.6640  -30.9190 C   0  0  0  0  0  0  0  0  0  0  0  0
   -8.2600   22.5970  -31.5270 C   0  0  0  0  0  0  0  0  0  0  0  0
   -7.5470   21.6430  -32.2600 C   0  0  0  0  0  0  0  0  0  0  0  0
   -6.1600   21.7560  -32.3870 C   0  0  0  0  0  0  0  0  0  0  0  0
   -5.4840   22.8190  -31.7790 C   0  0  0  0  0  0  0  0  0  0  0  0
   -2.3730   22.8440  -30.9360 C   0  0  0  0  0  0  0  0  0  0  0  0
   -1.3750   18.4570  -32.4130 C   0  0  0  0  0  0  0  0  0  0  0  0
   -2.4790   17.4420  -32.7260 C   0  0  0  0  0  0  0  0  0  0  0  0
   -4.1429   15.3833  -33.3248 H   0  0  0  0  0  0  0  0  0  0  0  0
   -5.0429   15.1660  -34.8640 H   0  0  0  0  0  0  0  0  0  0  0  0
   -3.2467   15.1503  -34.8640 H   0  0  0  0  0  0  0  0  0  0  0  0
   -3.0535   19.8363  -34.6390 H   0  0  0  0  0  0  0  0  0  0  0  0
   -4.7327   19.5750  -34.0148 H   0  0  0  0  0  0  0  0  0  0  0  0
   -3.3594   21.2148  -32.6664 H   0  0  0  0  0  0  0  0  0  0  0  0
   -3.9993   19.8061  -31.7334 H   0  0  0  0  0  0  0  0  0  0  0  0
   -0.7361   20.7352  -28.7975 H   0  0  0  0  0  0  0  0  0  0  0  0
   -1.6518   22.3502  -27.1398 H   0  0  0  0  0  0  0  0  0  0  0  0
   -3.7820   25.1950  -27.8920 H   0  0  0  0  0  0  0  0  0  0  0  0
   -8.1541   24.4145  -30.3478 H   0  0  0  0  0  0  0  0  0  0  0  0
   -9.3520   22.5087  -31.4279 H   0  0  0  0  0  0  0  0  0  0  0  0
   -8.0772   20.8049  -32.7359 H   0  0  0  0  0  0  0  0  0  0  0  0
   -5.5989   21.0078  -32.9661 H   0  0  0  0  0  0  0  0  0  0  0  0
   -4.3922   22.9046  -31.8822 H   0  0  0  0  0  0  0  0  0  0  0  0
   -2.6098   22.9611  -32.0038 H   0  0  0  0  0  0  0  0  0  0  0  0
   -0.7157   18.5492  -33.2887 H   0  0  0  0  0  0  0  0  0  0  0  0
   -0.8151   18.0982  -31.5368 H   0  0  0  0  0  0  0  0  0  0  0  0
   -2.0202   16.5186  -33.1093 H   0  0  0  0  0  0  0  0  0  0  0  0
   -3.0403   17.2396  -31.8019 H   0  0  0  0  0  0  0  0  0  0  0  0
  1  2  1  0
  2  3  2  0
  2  4  1  0
  4  5  1  0
  5  6  1  0
  6  7  1  0
  7  8  1  0
  8  9  2  0
  8 10  1  0
 10 11  2  0
 11 12  1  0
 12 13  2  0
 13 14  1  0
 13 15  1  0
 15 16  1  0
 16 17  1  0
 17 18  2  0
 17 19  2  0
 17 20  1  0
 20 21  2  0
 21 22  1  0
 22 23  2  0
 23 24  1  0
 24 25  2  0
 15 26  2  0
  7 27  1  0
 27 28  1  0
 28  4  1  0
 26 10  1  0
 25 20  1  0
  1 29  1  0
  1 30  1  0
  1 31  1  0
  5 32  1  0
  5 33  1  0
  6 34  1  0
  6 35  1  0
 11 36  1  0
 12 37  1  0
 14 38  1  0
 21 39  1  0
 22 40  1  0
 23 41  1  0
 24 42  1  0
 25 43  1  0
 26 44  1  0
 27 45  1  0
 27 46  1  0
 28 47  1  0
 28 48  1  0
M  CHG  1  16  -1
M  END
>  <UniqueID>  (18) 
17

>  <SMILES>  (18) 
CC(=O)N1CCN(C(=O)c2ccc(O)c([N-]S(=O)(=O)c3ccccc3)c2)CC1

>  <Energy>  (18) 
59.13390485552987

>  <Genealogy>  (18) 
CC(=O)N1CCN(C(=O)c2ccc(O)c([N-]S(=O)(=O)c3ccccc3)c2)CC1 (protonated)
CC(=O)N1CCN(C(=O)c2ccc(O)c([N-]S(=O)(=O)c3ccccc3)c2)CC1 (3D coordinates assigned)
CC(=O)N1CCN(C(=O)c2ccc(O)c([N-]S(=O)(=O)c3ccccc3)c2)CC1 (nonaromatic ring conformer: 59.13390485552987 kcal/mol)

>  <smiles>  (18) 
CC(=O)N1CCN(C(=O)c2ccc(O)c(NS(=O)(=O)c3ccccc3)c2)CC1

>  <score_type>  (18) 
oracle

>  <origin>  (18) 
adgpu

>  <m_score__min__energy>  (18) 
-9.8399999999999999

>  <m_primary>  (18) 
energy

$$$$
18:0
     RDKit          3D

 56 59  0  0  0  0  0  0  0  0999 V2000
   -8.4530   21.8910  -30.1290 O   0  0  0  0  0  0  0  0  0  0  0  0
   -7.7290   22.4720  -31.3110 S   0  0  0  0  0  0  0  0  0  0  0  0
   -8.6430   23.4620  -31.9780 O   0  0  0  0  0  0  0  0  0  0  0  0
   -7.3260   21.2220  -32.4450 N   0  0  0  0  0  0  0  0  0  0  0  0
   -5.9910   20.7150  -32.6000 C   0  0  0  0  0  0  0  0  0  0  0  0
   -5.6660   19.3900  -32.2640 C   0  0  0  0  0  0  0  0  0  0  0  0
   -4.3550   18.9280  -32.3970 C   0  0  0  0  0  0  0  0  0  0  0  0
   -3.3540   19.7760  -32.8860 C   0  0  0  0  0  0  0  0  0  0  0  0
   -1.6880   19.2140  -32.9950 S   0  0  0  0  0  0  0  0  0  0  0  0
   -1.2560   18.6590  -31.6650 O   0  0  0  0  0  0  0  0  0  0  0  0
   -1.5980   18.1210  -34.0230 O   0  0  0  0  0  0  0  0  0  0  0  0
   -0.6640   20.5460  -33.4670 N   0  0  0  0  0  0  0  0  0  0  0  0
    0.7430   20.2440  -33.2120 C   0  0  0  0  0  0  0  0  0  0  0  0
    1.5510   21.0570  -34.2110 C   0  0  0  0  0  0  0  0  0  0  0  0
    0.5710   21.4370  -35.3090 C   0  0  0  0  0  0  0  0  0  0  0  0
   -0.7550   20.8120  -34.9020 C   0  0  0  0  0  0  0  0  0  0  0  0
   -3.6770   21.0910  -33.2430 C   0  0  0  0  0  0  0  0  0  0  0  0
   -4.9890   21.5550  -33.1090 C   0  0  0  0  0  0  0  0  0  0  0  0
   -6.2620   23.3020  -30.7980 C   0  0  0  0  0  0  0  0  0  0  0  0
   -6.1660   24.6960  -30.9140 C   0  0  0  0  0  0  0  0  0  0  0  0
   -4.9940   25.3540  -30.5350 C   0  0  0  0  0  0  0  0  0  0  0  0
   -3.9010   24.6250  -30.0520 C   0  0  0  0  0  0  0  0  0  0  0  0
   -2.7320   25.2940  -29.7070 O   0  0  0  0  0  0  0  0  0  0  0  0
   -3.9850   23.2270  -29.9390 C   0  0  0  0  0  0  0  0  0  0  0  0
   -2.8620   22.4570  -29.4830 N   0  0  0  0  0  0  0  0  0  0  0  0
   -2.8310   21.9280  -28.1160 C   0  0  0  0  0  0  0  0  0  0  0  0
   -2.2060   20.5160  -28.0790 C   0  0  0  0  0  0  0  0  0  0  0  0
   -1.3030   20.2220  -29.2090 N   0  0  0  0  0  0  0  0  0  0  0  0
   -0.6350   21.4250  -29.7200 C   0  0  0  0  0  0  0  0  0  0  0  0
   -1.6650   22.3860  -30.3240 C   0  0  0  0  0  0  0  0  0  0  0  0
   -5.1690   22.5730  -30.3060 C   0  0  0  0  0  0  0  0  0  0  0  0
   -8.0330   21.0100  -33.1850 H   0  0  0  0  0  0  0  0  0  0  0  0
   -6.4493   18.7123  -31.8938 H   0  0  0  0  0  0  0  0  0  0  0  0
   -4.1077   17.8935  -32.1164 H   0  0  0  0  0  0  0  0  0  0  0  0
    1.0121   20.5298  -32.1844 H   0  0  0  0  0  0  0  0  0  0  0  0
    0.9436   19.1681  -33.3223 H   0  0  0  0  0  0  0  0  0  0  0  0
    1.9605   21.9585  -33.7318 H   0  0  0  0  0  0  0  0  0  0  0  0
    2.4061   20.4881  -34.6049 H   0  0  0  0  0  0  0  0  0  0  0  0
    0.4757   22.5307  -35.3781 H   0  0  0  0  0  0  0  0  0  0  0  0
    0.9045   21.0822  -36.2954 H   0  0  0  0  0  0  0  0  0  0  0  0
   -1.5822   21.5071  -35.1082 H   0  0  0  0  0  0  0  0  0  0  0  0
   -0.9501   19.8884  -35.4668 H   0  0  0  0  0  0  0  0  0  0  0  0
   -2.8956   21.7613  -33.6303 H   0  0  0  0  0  0  0  0  0  0  0  0
   -5.2373   22.5851  -33.4045 H   0  0  0  0  0  0  0  0  0  0  0  0
   -7.0168   25.2733  -31.3049 H   0  0  0  0  0  0  0  0  0  0  0  0
   -4.9295   26.4491  -30.6163 H   0  0  0  0  0  0  0  0  0  0  0  0
   -2.2339   22.6016  -27.4838 H   0  0  0  0  0  0  0  0  0  0  0  0
   -3.8640   21.8622  -27.7439 H   0  0  0  0  0  0  0  0  0  0  0  0
   -1.6329   20.4172  -27.1453 H   0  0  0  0  0  0  0  0  0  0  0  0
   -3.0390   19.8008  -28.1469 H   0  0  0  0  0  0  0  0  0  0  0  0
   -1.8600   19.7950  -29.9870 H   0  0  0  0  0  0  0  0  0  0  0  0
   -0.1097   21.9274  -28.8944 H   0  0  0  0  0  0  0  0  0  0  0  0
    0.0838   21.1327  -30.4997 H   0  0  0  0  0  0  0  0  0  0  0  0
   -1.2199   23.3887  -30.4040 H   0  0  0  0  0  0  0  0  0  0  0  0
   -1.9532   22.0159  -31.3190 H   0  0  0  0  0  0  0  0  0  0  0  0
   -5.2418   21.4798  -30.2075 H   0  0  0  0  0  0  0  0  0  0  0  0
  1  2  2  0
  2  3  2  0
  2  4  1  0
  4  5  1  0
  5  6  2  0
  6  7  1  0
  7  8  2  0
  8  9  1  0
  9 10  2  0
  9 11  2  0
  9 12  1  0
 12 13  1  0
 13 14  1  0
 14 15  1  0
 15 16  1  0
  8 17  1  0
 17 18  2  0
  2 19  1  0
 19 20  2  0
 20 21  1  0
 21 22  2  0
 22 23  1  0
 22 24  1  0
 24 25  1  0
 25 26  1  0
 26 27  1  0
 27 28  1  0
 28 29  1  0
 29 30  1  0
 24 31  2  0
 18  5  1  0
 31 19  1  0
 16 12  1  0
 30 25  1  0
  4 32  1  0
  6 33  1  0
  7 34  1  0
 13 35  1  0
 13 36  1  0
 14 37  1  0
 14 38  1  0
 15 39  1  0
 15 40  1  0
 16 41  1  0
 16 42  1  0
 17 43  1  0
 18 44  1  0
 20 45  1  0
 21 46  1  0
 26 47  1  0
 26 48  1  0
 27 49  1  0
 27 50  1  0
 28 51  1  0
 29 52  1  0
 29 53  1  0
 30 54  1  0
 30 55  1  0
 31 56  1  0
M  CHG  1  23  -1
M  END
>  <UniqueID>  (19) 
18

>  <SMILES>  (19) 
O=S(=O)(Nc1ccc(S(=O)(=O)N2CCCC2)cc1)c1ccc([O-])c(N2CCNCC2)c1

>  <Energy>  (19) 
68.49964554321745

>  <Genealogy>  (19) 
O=S(=O)(Nc1ccc(S(=O)(=O)N2CCCC2)cc1)c1ccc([O-])c(N2CCNCC2)c1 (protonated)
O=S(=O)(Nc1ccc(S(=O)(=O)N2CCCC2)cc1)c1ccc([O-])c(N2CCNCC2)c1 (3D coordinates assigned)
O=S(=O)(Nc1ccc(S(=O)(=O)N2CCCC2)cc1)c1ccc([O-])c(N2CCNCC2)c1 (nonaromatic ring conformer: 68.49964554321745 kcal/mol)

>  <smiles>  (19) 
O=S(=O)(Nc1ccc(S(=O)(=O)N2CCCC2)cc1)c1ccc(O)c(N2CCNCC2)c1

>  <score_type>  (19) 
oracle

>  <origin>  (19) 
adgpu

>  <m_score__min__energy>  (19) 
-11.390000000000001

>  <m_primary>  (19) 
energy

$$$$
19:0
     RDKit          3D

 73 78  0  0  0  0  0  0  0  0999 V2000
   -1.2511   20.3263  -29.7273 H   0  0  0  0  0  0  0  0  0  0  0  0
   -1.7180   20.8950  -30.5450 C   0  0  0  0  0  0  0  0  0  0  0  0
   -1.1990   20.8340  -31.8000 N   0  0  0  0  0  0  0  0  0  0  0  0
   -1.7720   21.5140  -32.8350 C   0  0  0  0  0  0  0  0  0  0  0  0
   -1.2600   21.4920  -34.0310 N   0  0  0  0  0  0  0  0  0  0  0  0
   -0.1320   20.7190  -34.4740 C   0  0  0  0  0  0  0  0  0  0  0  0
    1.1860   21.1750  -34.3190 C   0  0  0  0  0  0  0  0  0  0  0  0
    1.3752   22.1674  -33.8838 H   0  0  0  0  0  0  0  0  0  0  0  0
    2.2570   20.3740  -34.7150 C   0  0  0  0  0  0  0  0  0  0  0  0
    3.2861   20.7471  -34.6066 H   0  0  0  0  0  0  0  0  0  0  0  0
    2.0330   19.0950  -35.2510 C   0  0  0  0  0  0  0  0  0  0  0  0
    0.7070   18.6240  -35.4090 C   0  0  0  0  0  0  0  0  0  0  0  0
   -0.3590   19.4380  -34.9870 C   0  0  0  0  0  0  0  0  0  0  0  0
   -1.3895   19.0606  -35.0617 H   0  0  0  0  0  0  0  0  0  0  0  0
    0.3760   17.2460  -35.9600 C   0  0  0  0  0  0  0  0  0  0  0  0
   -0.7163   17.1267  -35.9078 H   0  0  0  0  0  0  0  0  0  0  0  0
    0.8091   17.2433  -36.9711 H   0  0  0  0  0  0  0  0  0  0  0  0
    1.0090   16.0110  -35.2640 C   0  0  0  0  0  0  0  0  0  0  0  0
    0.7998   16.0870  -34.1868 H   0  0  0  0  0  0  0  0  0  0  0  0
    0.5572   15.1323  -35.7476 H   0  0  0  0  0  0  0  0  0  0  0  0
    2.4690   15.8540  -35.4320 N   0  0  0  0  0  0  0  0  0  0  0  0
    2.8920   15.3530  -36.7510 C   0  0  0  0  0  0  0  0  0  0  0  0
    3.5964   14.5187  -36.6177 H   0  0  0  0  0  0  0  0  0  0  0  0
    2.0115   15.0037  -37.3102 H   0  0  0  0  0  0  0  0  0  0  0  0
    3.3840   16.1625  -37.3102 H   0  0  0  0  0  0  0  0  0  0  0  0
    3.3000   16.9600  -34.9010 C   0  0  0  0  0  0  0  0  0  0  0  0
    2.9810   17.1636  -33.8681 H   0  0  0  0  0  0  0  0  0  0  0  0
    4.3457   16.6261  -34.9715 H   0  0  0  0  0  0  0  0  0  0  0  0
    3.2060   18.2720  -35.7000 C   0  0  0  0  0  0  0  0  0  0  0  0
    4.1294   18.8508  -35.5504 H   0  0  0  0  0  0  0  0  0  0  0  0
    3.0730   18.0248  -36.7636 H   0  0  0  0  0  0  0  0  0  0  0  0
   -2.8710   22.2770  -32.6060 N   0  0  0  0  0  0  0  0  0  0  0  0
   -3.4240   22.3790  -31.3680 C   0  0  0  0  0  0  0  0  0  0  0  0
   -4.5930   23.2610  -31.1790 C   0  0  0  0  0  0  0  0  0  0  0  0
   -5.8550   22.8460  -31.6330 C   0  0  0  0  0  0  0  0  0  0  0  0
   -5.9436   21.9302  -32.2358 H   0  0  0  0  0  0  0  0  0  0  0  0
   -7.0020   23.5880  -31.3250 C   0  0  0  0  0  0  0  0  0  0  0  0
   -8.3370   23.0640  -31.6750 C   0  0  0  0  0  0  0  0  0  0  0  0
   -9.1120   23.7700  -32.3710 O   0  0  0  0  0  0  0  0  0  0  0  0
   -8.7870   21.7770  -31.2210 N   0  0  0  0  0  0  0  0  0  0  0  0
   -8.3530   20.5040  -31.7250 C   0  0  0  0  0  0  0  0  0  0  0  0
   -9.1170   19.3660  -31.4360 C   0  0  0  0  0  0  0  0  0  0  0  0
  -10.0351   19.4610  -30.8376 H   0  0  0  0  0  0  0  0  0  0  0  0
   -8.7190   18.1100  -31.9040 C   0  0  0  0  0  0  0  0  0  0  0  0
   -9.3248   17.2208  -31.6754 H   0  0  0  0  0  0  0  0  0  0  0  0
   -7.5520   17.9840  -32.6620 C   0  0  0  0  0  0  0  0  0  0  0  0
   -7.2280   16.9914  -33.0080 H   0  0  0  0  0  0  0  0  0  0  0  0
   -6.7930   19.1170  -32.9830 C   0  0  0  0  0  0  0  0  0  0  0  0
   -5.3110   18.9570  -33.9280 S   0  0  0  0  0  0  0  0  0  0  0  0
   -5.6700   18.6630  -35.3570 O   0  0  0  0  0  0  0  0  0  0  0  0
   -4.5700   20.2630  -33.8950 O   0  0  0  0  0  0  0  0  0  0  0  0
   -4.2130   17.6610  -33.3420 C   0  0  0  0  0  0  0  0  0  0  0  0
   -4.9736   17.1501  -32.7334 H   0  0  0  0  0  0  0  0  0  0  0  0
   -2.7710   18.1070  -33.1530 C   0  0  0  0  0  0  0  0  0  0  0  0
   -2.4876   19.1510  -33.3523 H   0  0  0  0  0  0  0  0  0  0  0  0
   -2.0469   18.0683  -32.3258 H   0  0  0  0  0  0  0  0  0  0  0  0
   -3.1370   17.1850  -34.3060 C   0  0  0  0  0  0  0  0  0  0  0  0
   -3.1182   17.5622  -35.3391 H   0  0  0  0  0  0  0  0  0  0  0  0
   -2.7872   16.2033  -34.6581 H   0  0  0  0  0  0  0  0  0  0  0  0
   -7.2120   20.3780  -32.5400 C   0  0  0  0  0  0  0  0  0  0  0  0
   -6.6461   21.2753  -32.8307 H   0  0  0  0  0  0  0  0  0  0  0  0
   -6.8760   24.7870  -30.6130 C   0  0  0  0  0  0  0  0  0  0  0  0
   -7.7710   25.3848  -30.3857 H   0  0  0  0  0  0  0  0  0  0  0  0
   -5.6210   25.2280  -30.1900 C   0  0  0  0  0  0  0  0  0  0  0  0
   -5.5312   26.1801  -29.6465 H   0  0  0  0  0  0  0  0  0  0  0  0
   -4.4700   24.4630  -30.4540 C   0  0  0  0  0  0  0  0  0  0  0  0
   -3.1970   24.8680  -30.0210 O   0  0  0  0  0  0  0  0  0  0  0  0
   -2.6250   24.5270  -28.7620 C   0  0  0  0  0  0  0  0  0  0  0  0
   -3.2652   24.9086  -27.9530 H   0  0  0  0  0  0  0  0  0  0  0  0
   -2.5439   23.4330  -28.6803 H   0  0  0  0  0  0  0  0  0  0  0  0
   -1.6241   24.9760  -28.6803 H   0  0  0  0  0  0  0  0  0  0  0  0
   -2.8450   21.6810  -30.2960 C   0  0  0  0  0  0  0  0  0  0  0  0
   -3.3670   21.7430  -29.0460 F   0  0  0  0  0  0  0  0  0  0  0  0
  1  2  1  0
  2  3  1  0
  3  4  1  0
  4  5  2  0
  5  6  1  0
  6  7  2  0
  7  8  1  0
  7  9  1  0
  9 10  1  0
  9 11  2  0
 11 12  1  0
 12 13  2  0
 13 14  1  0
 12 15  1  0
 15 16  1  0
 15 17  1  0
 15 18  1  0
 18 19  1  0
 18 20  1  0
 18 21  1  0
 21 22  1  0
 22 23  1  0
 22 24  1  0
 22 25  1  0
 21 26  1  0
 26 27  1  0
 26 28  1  0
 26 29  1  0
 29 30  1  0
 29 31  1  0
  4 32  1  0
 32 33  2  0
 33 34  1  0
 34 35  2  0
 35 36  1  0
 35 37  1  0
 37 38  1  0
 38 39  2  0
 38 40  1  0
 40 41  1  0
 41 42  2  0
 42 43  1  0
 42 44  1  0
 44 45  1  0
 44 46  2  0
 46 47  1  0
 46 48  1  0
 48 49  1  0
 49 50  2  0
 49 51  2  0
 49 52  1  0
 52 53  1  0
 52 54  1  0
 54 55  1  0
 54 56  1  0
 54 57  1  0
 57 58  1  0
 57 59  1  0
 48 60  2  0
 60 61  1  0
 37 62  2  0
 62 63  1  0
 62 64  1  0
 64 65  1  0
 64 66  2  0
 66 67  1  0
 67 68  1  0
 68 69  1  0
 68 70  1  0
 68 71  1  0
 33 72  1  0
 72 73  1  0
 72  2  2  0
 13  6  1  0
 66 34  1  0
 29 11  1  0
 60 41  1  0
 57 52  1  0
M  CHG  2   3  -1  40  -1
M  END
>  <UniqueID>  (20) 
19

>  <SMILES>  (20) 
COc1ccc(C(=O)[N-]c2cccc(S(=O)(=O)C3CC3)c2)cc1-c1n/c(=N/c2ccc3c(c2)CCN(C)CC3)[n-]cc1F

>  <Energy>  (20) 
379.39045090673727

>  <Genealogy>  (20) 
COc1ccc(C(=O)[N-]c2cccc(S(=O)(=O)C3CC3)c2)cc1-c1nc(=Nc2ccc3c(c2)CCN(C)CC3)[n-]cc1F (protonated)
COc1ccc(C(=O)[N-]c2cccc(S(=O)(=O)C3CC3)c2)cc1-c1n/c(=N/c2ccc3c(c2)CCN(C)CC3)[n-]cc1F (cis-trans isomerization)
COc1ccc(C(=O)[N-]c2cccc(S(=O)(=O)C3CC3)c2)cc1-c1n/c(=N/c2ccc3c(c2)CCN(C)CC3)[n-]cc1F (3D coordinates assigned)
COc1ccc(C(=O)[N-]c2cccc(S(=O)(=O)C3CC3)c2)cc1-c1n/c(=N/c2ccc3c(c2)CCN(C)CC3)[n-]cc1F (nonaromatic ring conformer: 379.39045090673727 kcal/mol)

>  <smiles>  (20) 
COc1ccc(C(=O)Nc2cccc(S(=O)(=O)C3CC3)c2)cc1-c1nc(=Nc2ccc3c(c2)CCN(C)CC3)[nH]cc1F

>  <score_type>  (20) 
oracle

>  <origin>  (20) 
adgpu

>  <m_score__min__energy>  (20) 
-9.4100000000000001

>  <m_primary>  (20) 
energy

$$$$
20:0
     RDKit          3D

 54 57  0  0  0  0  0  0  0  0999 V2000
   -1.8640   17.0640  -34.9590 C   0  0  0  0  0  0  0  0  0  0  0  0
   -3.2430   16.9930  -34.4520 N   0  0  0  0  0  0  0  0  0  0  0  0
   -3.2640   16.3510  -33.1240 C   0  0  0  0  0  0  0  0  0  0  0  0
   -4.7100   16.0610  -32.7270 C   0  0  0  0  0  0  0  0  0  0  0  0
   -5.5610   17.2980  -32.8480 C   0  0  0  0  0  0  0  0  0  0  0  0
   -6.7810   17.3680  -32.1610 C   0  0  0  0  0  0  0  0  0  0  0  0
   -7.5820   18.5100  -32.2480 C   0  0  0  0  0  0  0  0  0  0  0  0
   -8.7780   18.5510  -31.5270 O   0  0  0  0  0  0  0  0  0  0  0  0
   -7.1670   19.5960  -33.0410 C   0  0  0  0  0  0  0  0  0  0  0  0
   -7.9490   20.7980  -33.0610 N   0  0  0  0  0  0  0  0  0  0  0  0
   -8.1790   21.8490  -31.6940 S   0  0  0  0  0  0  0  0  0  0  0  0
   -9.3870   22.7180  -31.9440 O   0  0  0  0  0  0  0  0  0  0  0  0
   -8.4310   21.0110  -30.4670 O   0  0  0  0  0  0  0  0  0  0  0  0
   -6.7650   22.8640  -31.3910 C   0  0  0  0  0  0  0  0  0  0  0  0
   -6.9150   24.2490  -31.2750 C   0  0  0  0  0  0  0  0  0  0  0  0
   -5.8130   25.0480  -30.9580 C   0  0  0  0  0  0  0  0  0  0  0  0
   -4.5550   24.4670  -30.7380 C   0  0  0  0  0  0  0  0  0  0  0  0
   -3.4680   25.2930  -30.4480 O   0  0  0  0  0  0  0  0  0  0  0  0
   -4.3960   23.0700  -30.8210 C   0  0  0  0  0  0  0  0  0  0  0  0
   -2.8220   22.3190  -30.4590 S   0  0  0  0  0  0  0  0  0  0  0  0
   -2.9060   21.6500  -29.1130 O   0  0  0  0  0  0  0  0  0  0  0  0
   -1.7830   23.4060  -30.3890 O   0  0  0  0  0  0  0  0  0  0  0  0
   -2.3040   21.0920  -31.6030 N   0  0  0  0  0  0  0  0  0  0  0  0
   -2.7880   21.3420  -32.9630 C   0  0  0  0  0  0  0  0  0  0  0  0
   -1.7150   20.8570  -33.9200 C   0  0  0  0  0  0  0  0  0  0  0  0
   -0.4260   20.8670  -33.1180 C   0  0  0  0  0  0  0  0  0  0  0  0
   -0.8450   20.9200  -31.6530 C   0  0  0  0  0  0  0  0  0  0  0  0
   -5.5050   22.2820  -31.1840 C   0  0  0  0  0  0  0  0  0  0  0  0
   -5.9960   19.4840  -33.8080 C   0  0  0  0  0  0  0  0  0  0  0  0
   -5.1770   18.3530  -33.7000 C   0  0  0  0  0  0  0  0  0  0  0  0
   -3.8260   18.3490  -34.3810 C   0  0  0  0  0  0  0  0  0  0  0  0
   -1.1633   17.1001  -34.1118 H   0  0  0  0  0  0  0  0  0  0  0  0
   -1.6526   16.1756  -35.5722 H   0  0  0  0  0  0  0  0  0  0  0  0
   -1.7449   17.9695  -35.5722 H   0  0  0  0  0  0  0  0  0  0  0  0
   -2.6973   15.4090  -33.1622 H   0  0  0  0  0  0  0  0  0  0  0  0
   -2.8056   17.0221  -32.3827 H   0  0  0  0  0  0  0  0  0  0  0  0
   -5.1147   15.2799  -33.3874 H   0  0  0  0  0  0  0  0  0  0  0  0
   -4.7255   15.7258  -31.6794 H   0  0  0  0  0  0  0  0  0  0  0  0
   -7.1109   16.5164  -31.5479 H   0  0  0  0  0  0  0  0  0  0  0  0
   -9.3020   19.4130  -31.4020 H   0  0  0  0  0  0  0  0  0  0  0  0
   -7.9010   24.7103  -31.4333 H   0  0  0  0  0  0  0  0  0  0  0  0
   -5.9326   26.1387  -30.8805 H   0  0  0  0  0  0  0  0  0  0  0  0
   -3.7242   20.7911  -33.1366 H   0  0  0  0  0  0  0  0  0  0  0  0
   -2.9895   22.4128  -33.1140 H   0  0  0  0  0  0  0  0  0  0  0  0
   -1.9427   19.8393  -34.2700 H   0  0  0  0  0  0  0  0  0  0  0  0
   -1.6457   21.4939  -34.8141 H   0  0  0  0  0  0  0  0  0  0  0  0
    0.1553   19.9545  -33.3168 H   0  0  0  0  0  0  0  0  0  0  0  0
    0.2101   21.7231  -33.3871 H   0  0  0  0  0  0  0  0  0  0  0  0
   -0.5622   19.9836  -31.1499 H   0  0  0  0  0  0  0  0  0  0  0  0
   -0.3443   21.7560  -31.1427 H   0  0  0  0  0  0  0  0  0  0  0  0
   -5.3821   21.1958  -31.3069 H   0  0  0  0  0  0  0  0  0  0  0  0
   -5.7192   20.2926  -34.5005 H   0  0  0  0  0  0  0  0  0  0  0  0
   -3.9428   18.7387  -35.4030 H   0  0  0  0  0  0  0  0  0  0  0  0
   -3.1463   18.9792  -33.7886 H   0  0  0  0  0  0  0  0  0  0  0  0
  1  2  1  0
  2  3  1  0
  3  4  1  0
  4  5  1  0
  5  6  2  0
  6  7  1  0
  7  8  1  0
  7  9  2  0
  9 10  1  0
 10 11  1  0
 11 12  2  0
 11 13  2  0
 11 14  1  0
 14 15  2  0
 15 16  1  0
 16 17  2  0
 17 18  1  0
 17 19  1  0
 19 20  1  0
 20 21  2  0
 20 22  2  0
 20 23  1  0
 23 24  1  0
 24 25  1  0
 25 26  1  0
 26 27  1  0
 19 28  2  0
  9 29  1  0
 29 30  2  0
 30 31  1  0
 31  2  1  0
 30  5  1  0
 28 14  1  0
 27 23  1  0
  1 32  1  0
  1 33  1  0
  1 34  1  0
  3 35  1  0
  3 36  1  0
  4 37  1  0
  4 38  1  0
  6 39  1  0
  8 40  1  0
 15 41  1  0
 16 42  1  0
 24 43  1  0
 24 44  1  0
 25 45  1  0
 25 46  1  0
 26 47  1  0
 26 48  1  0
 27 49  1  0
 27 50  1  0
 28 51  1  0
 29 52  1  0
 31 53  1  0
 31 54  1  0
M  CHG  2  10  -1  18  -1
M  END
>  <UniqueID>  (21) 
20

>  <SMILES>  (21) 
CN1CCc2cc(O)c([N-]S(=O)(=O)c3ccc([O-])c(S(=O)(=O)N4CCCC4)c3)cc2C1

>  <Energy>  (21) 
69.54025217459895

>  <Genealogy>  (21) 
CN1CCc2cc(O)c([N-]S(=O)(=O)c3ccc([O-])c(S(=O)(=O)N4CCCC4)c3)cc2C1 (protonated)
CN1CCc2cc(O)c([N-]S(=O)(=O)c3ccc([O-])c(S(=O)(=O)N4CCCC4)c3)cc2C1 (3D coordinates assigned)
CN1CCc2cc(O)c([N-]S(=O)(=O)c3ccc([O-])c(S(=O)(=O)N4CCCC4)c3)cc2C1 (nonaromatic ring conformer: 69.54025217459895 kcal/mol)

>  <smiles>  (21) 
CN1CCc2cc(O)c(NS(=O)(=O)c3ccc(O)c(S(=O)(=O)N4CCCC4)c3)cc2C1

>  <score_type>  (21) 
oracle

>  <origin>  (21) 
adgpu

>  <m_score__min__energy>  (21) 
-12.359999999999999

>  <m_primary>  (21) 
energy

$$$$
21:0
     RDKit          3D

 56 59  0  0  0  0  0  0  0  0999 V2000
   -3.1980   21.8790  -32.3700 O   0  0  0  0  0  0  0  0  0  0  0  0
   -3.8130   22.6570  -31.5930 C   0  0  0  0  0  0  0  0  0  0  0  0
   -5.0210   23.2770  -32.0580 N   0  0  0  0  0  0  0  0  0  0  0  0
   -6.3460   22.7210  -32.0510 C   0  0  0  0  0  0  0  0  0  0  0  0
   -7.4370   23.5900  -31.9220 C   0  0  0  0  0  0  0  0  0  0  0  0
   -8.7400   23.0870  -31.8800 C   0  0  0  0  0  0  0  0  0  0  0  0
   -8.9650   21.7110  -31.9650 C   0  0  0  0  0  0  0  0  0  0  0  0
   -7.8830   20.8280  -32.0860 C   0  0  0  0  0  0  0  0  0  0  0  0
   -8.1530   19.0910  -32.2270 S   0  0  0  0  0  0  0  0  0  0  0  0
   -8.4390   18.5250  -30.8640 O   0  0  0  0  0  0  0  0  0  0  0  0
   -9.3580   18.8570  -33.0970 O   0  0  0  0  0  0  0  0  0  0  0  0
   -6.7510   18.2920  -32.8990 N   0  0  0  0  0  0  0  0  0  0  0  0
   -6.2820   19.0040  -34.1020 C   0  0  0  0  0  0  0  0  0  0  0  0
   -5.2640   18.1560  -34.8880 C   0  0  0  0  0  0  0  0  0  0  0  0
   -4.7990   17.0720  -34.1080 O   0  0  0  0  0  0  0  0  0  0  0  0
   -5.8690   16.1820  -33.8430 C   0  0  0  0  0  0  0  0  0  0  0  0
   -7.0920   16.9000  -33.2320 C   0  0  0  0  0  0  0  0  0  0  0  0
   -6.5770   21.3350  -32.1100 C   0  0  0  0  0  0  0  0  0  0  0  0
   -3.2810   22.8770  -30.2300 C   0  0  0  0  0  0  0  0  0  0  0  0
   -2.9260   21.7670  -29.4450 C   0  0  0  0  0  0  0  0  0  0  0  0
   -2.3760   21.9440  -28.1670 C   0  0  0  0  0  0  0  0  0  0  0  0
   -1.8790   20.5580  -27.2010 S   0  0  0  0  0  0  0  0  0  0  0  0
   -1.2390   21.0500  -25.9340 O   0  0  0  0  0  0  0  0  0  0  0  0
   -3.0800   19.7240  -26.8430 O   0  0  0  0  0  0  0  0  0  0  0  0
   -0.7290   19.6070  -28.1060 N   0  0  0  0  0  0  0  0  0  0  0  0
    0.6140   20.1830  -28.0380 C   0  0  0  0  0  0  0  0  0  0  0  0
    1.5900   19.0280  -28.2160 C   0  0  0  0  0  0  0  0  0  0  0  0
    0.7890   17.7710  -27.9160 C   0  0  0  0  0  0  0  0  0  0  0  0
   -0.6030   18.2600  -27.5530 C   0  0  0  0  0  0  0  0  0  0  0  0
   -2.1870   23.2390  -27.6700 C   0  0  0  0  0  0  0  0  0  0  0  0
   -2.5560   24.3470  -28.4350 C   0  0  0  0  0  0  0  0  0  0  0  0
   -3.1080   24.1740  -29.7080 C   0  0  0  0  0  0  0  0  0  0  0  0
   -3.4940   25.2930  -30.4370 O   0  0  0  0  0  0  0  0  0  0  0  0
   -7.2671   24.6746  -31.8534 H   0  0  0  0  0  0  0  0  0  0  0  0
   -9.5911   23.7767  -31.7797 H   0  0  0  0  0  0  0  0  0  0  0  0
   -9.9927   21.3198  -31.9369 H   0  0  0  0  0  0  0  0  0  0  0  0
   -7.1442   19.2215  -34.7495 H   0  0  0  0  0  0  0  0  0  0  0  0
   -5.7901   19.9359  -33.7864 H   0  0  0  0  0  0  0  0  0  0  0  0
   -5.7462   17.7651  -35.7962 H   0  0  0  0  0  0  0  0  0  0  0  0
   -4.4062   18.7923  -35.1510 H   0  0  0  0  0  0  0  0  0  0  0  0
   -6.1738   15.7048  -34.7861 H   0  0  0  0  0  0  0  0  0  0  0  0
   -5.5155   15.4395  -33.1125 H   0  0  0  0  0  0  0  0  0  0  0  0
   -7.9180   16.8922  -33.9584 H   0  0  0  0  0  0  0  0  0  0  0  0
   -7.3940   16.3753  -32.3136 H   0  0  0  0  0  0  0  0  0  0  0  0
   -5.7247   20.6427  -32.1756 H   0  0  0  0  0  0  0  0  0  0  0  0
   -3.0808   20.7506  -29.8361 H   0  0  0  0  0  0  0  0  0  0  0  0
    0.7510   20.9232  -28.8401 H   0  0  0  0  0  0  0  0  0  0  0  0
    0.7777   20.6977  -27.0797 H   0  0  0  0  0  0  0  0  0  0  0  0
    1.9728   19.0033  -29.2470 H   0  0  0  0  0  0  0  0  0  0  0  0
    2.4624   19.1245  -27.5530 H   0  0  0  0  0  0  0  0  0  0  0  0
    0.7497   17.1188  -28.8009 H   0  0  0  0  0  0  0  0  0  0  0  0
    1.2407   17.1805  -27.1053 H   0  0  0  0  0  0  0  0  0  0  0  0
   -1.3643   17.5973  -27.9903 H   0  0  0  0  0  0  0  0  0  0  0  0
   -0.7511   18.2629  -26.4630 H   0  0  0  0  0  0  0  0  0  0  0  0
   -1.7460   23.3841  -26.6728 H   0  0  0  0  0  0  0  0  0  0  0  0
   -2.4118   25.3612  -28.0343 H   0  0  0  0  0  0  0  0  0  0  0  0
  1  2  2  0
  2  3  1  0
  3  4  1  0
  4  5  2  0
  5  6  1  0
  6  7  2  0
  7  8  1  0
  8  9  1  0
  9 10  2  0
  9 11  2  0
  9 12  1  0
 12 13  1  0
 13 14  1  0
 14 15  1  0
 15 16  1  0
 16 17  1  0
  8 18  2  0
  2 19  1  0
 19 20  2  0
 20 21  1  0
 21 22  1  0
 22 23  2  0
 22 24  2  0
 22 25  1  0
 25 26  1  0
 26 27  1  0
 27 28  1  0
 28 29  1  0
 21 30  2  0
 30 31  1  0
 31 32  2  0
 32 33  1  0
 18  4  1  0
 32 19  1  0
 17 12  1  0
 29 25  1  0
  5 34  1  0
  6 35  1  0
  7 36  1  0
 13 37  1  0
 13 38  1  0
 14 39  1  0
 14 40  1  0
 16 41  1  0
 16 42  1  0
 17 43  1  0
 17 44  1  0
 18 45  1  0
 20 46  1  0
 26 47  1  0
 26 48  1  0
 27 49  1  0
 27 50  1  0
 28 51  1  0
 28 52  1  0
 29 53  1  0
 29 54  1  0
 30 55  1  0
 31 56  1  0
M  CHG  2   3  -1  33  -1
M  END
>  <UniqueID>  (22) 
21

>  <SMILES>  (22) 
O=C([N-]c1cccc(S(=O)(=O)N2CCOCC2)c1)c1cc(S(=O)(=O)N2CCCC2)ccc1[O-]

>  <Energy>  (22) 
70.51912652544667

>  <Genealogy>  (22) 
O=C([N-]c1cccc(S(=O)(=O)N2CCOCC2)c1)c1cc(S(=O)(=O)N2CCCC2)ccc1[O-] (protonated)
O=C([N-]c1cccc(S(=O)(=O)N2CCOCC2)c1)c1cc(S(=O)(=O)N2CCCC2)ccc1[O-] (3D coordinates assigned)
O=C([N-]c1cccc(S(=O)(=O)N2CCOCC2)c1)c1cc(S(=O)(=O)N2CCCC2)ccc1[O-] (nonaromatic ring conformer: 70.51912652544667 kcal/mol)

>  <smiles>  (22) 
O=C(Nc1cccc(S(=O)(=O)N2CCOCC2)c1)c1cc(S(=O)(=O)N2CCCC2)ccc1O

>  <score_type>  (22) 
oracle

>  <origin>  (22) 
adgpu

>  <m_score__min__energy>  (22) 
-14.98

>  <m_primary>  (22) 
energy

$$$$
22:0
     RDKit          3D

 62 66  0  0  0  0  0  0  0  0999 V2000
    1.3890   24.5850  -27.7390 O   0  0  0  0  0  0  0  0  0  0  0  0
    0.3210   24.9620  -27.1770 C   0  0  0  0  0  0  0  0  0  0  0  0
   -0.9680   24.3940  -27.6510 C   0  0  0  0  0  0  0  0  0  0  0  0
   -1.5260   23.3070  -26.9540 C   0  0  0  0  0  0  0  0  0  0  0  0
   -2.7390   22.7480  -27.3630 C   0  0  0  0  0  0  0  0  0  0  0  0
   -3.4050   23.2570  -28.4780 C   0  0  0  0  0  0  0  0  0  0  0  0
   -2.8620   24.3340  -29.1880 C   0  0  0  0  0  0  0  0  0  0  0  0
   -3.5760   24.8810  -30.2980 N   0  0  0  0  0  0  0  0  0  0  0  0
   -4.8690   24.4140  -30.6900 C   0  0  0  0  0  0  0  0  0  0  0  0
   -5.3820   23.5550  -31.6540 C   0  0  0  0  0  0  0  0  0  0  0  0
   -4.8560   22.7340  -32.7000 N   0  0  0  0  0  0  0  0  0  0  0  0
   -4.5420   21.3250  -32.5050 C   0  0  0  0  0  0  0  0  0  0  0  0
   -3.3200   21.1770  -31.6380 C   0  0  0  0  0  0  0  0  0  0  0  0
   -3.4270   20.5680  -30.3780 C   0  0  0  0  0  0  0  0  0  0  0  0
   -2.3040   20.4520  -29.5530 C   0  0  0  0  0  0  0  0  0  0  0  0
   -1.0620   20.9480  -29.9700 C   0  0  0  0  0  0  0  0  0  0  0  0
    0.0400   20.8070  -29.1130 O   0  0  0  0  0  0  0  0  0  0  0  0
    0.5090   19.5950  -28.5820 C   0  0  0  0  0  0  0  0  0  0  0  0
    1.8700   19.2930  -28.6990 C   0  0  0  0  0  0  0  0  0  0  0  0
    2.3710   18.0840  -28.2070 C   0  0  0  0  0  0  0  0  0  0  0  0
    1.5110   17.1640  -27.6010 C   0  0  0  0  0  0  0  0  0  0  0  0
    2.1380   15.6460  -26.9860 Cl  0  0  0  0  0  0  0  0  0  0  0  0
    0.1470   17.4490  -27.4940 C   0  0  0  0  0  0  0  0  0  0  0  0
   -0.3550   18.6570  -27.9870 C   0  0  0  0  0  0  0  0  0  0  0  0
   -0.9460   21.5250  -31.2440 C   0  0  0  0  0  0  0  0  0  0  0  0
   -2.0670   21.6390  -32.0710 C   0  0  0  0  0  0  0  0  0  0  0  0
   -6.6620   23.9120  -31.2790 C   0  0  0  0  0  0  0  0  0  0  0  0
   -7.8200   23.5950  -31.6590 O   0  0  0  0  0  0  0  0  0  0  0  0
   -6.1530   24.7660  -30.3250 C   0  0  0  0  0  0  0  0  0  0  0  0
   -6.6500   25.5540  -29.4760 O   0  0  0  0  0  0  0  0  0  0  0  0
   -1.6670   24.9290  -28.7570 C   0  0  0  0  0  0  0  0  0  0  0  0
   -1.1960   26.0560  -29.4210 O   0  0  0  0  0  0  0  0  0  0  0  0
    0.3740   25.9930  -26.1560 N   0  0  0  0  0  0  0  0  0  0  0  0
    0.5360   25.3890  -24.8090 C   0  0  0  0  0  0  0  0  0  0  0  0
   -0.8080   25.3030  -24.0600 C   0  0  0  0  0  0  0  0  0  0  0  0
   -1.4270   26.5670  -23.8620 O   0  0  0  0  0  0  0  0  0  0  0  0
   -1.1480   27.5110  -24.8880 C   0  0  0  0  0  0  0  0  0  0  0  0
   -0.8170   26.8740  -26.2510 C   0  0  0  0  0  0  0  0  0  0  0  0
   -1.0026   22.8936  -26.0793 H   0  0  0  0  0  0  0  0  0  0  0  0
   -3.1702   21.9042  -26.8044 H   0  0  0  0  0  0  0  0  0  0  0  0
   -4.3579   22.8115  -28.7996 H   0  0  0  0  0  0  0  0  0  0  0  0
   -3.1490   25.6740  -30.8270 H   0  0  0  0  0  0  0  0  0  0  0  0
   -4.9910   23.0660  -33.6840 H   0  0  0  0  0  0  0  0  0  0  0  0
   -5.3941   20.8272  -32.0191 H   0  0  0  0  0  0  0  0  0  0  0  0
   -4.3442   20.8637  -33.4838 H   0  0  0  0  0  0  0  0  0  0  0  0
   -4.3986   20.1802  -30.0380 H   0  0  0  0  0  0  0  0  0  0  0  0
   -2.3965   19.9679  -28.5696 H   0  0  0  0  0  0  0  0  0  0  0  0
    2.5499   20.0110  -29.1809 H   0  0  0  0  0  0  0  0  0  0  0  0
    3.4435   17.8566  -28.2970 H   0  0  0  0  0  0  0  0  0  0  0  0
   -0.5314   16.7230  -27.0220 H   0  0  0  0  0  0  0  0  0  0  0  0
   -1.4303   18.8753  -27.9095 H   0  0  0  0  0  0  0  0  0  0  0  0
    0.0314   21.8891  -31.5933 H   0  0  0  0  0  0  0  0  0  0  0  0
   -1.9668   22.0937  -33.0676 H   0  0  0  0  0  0  0  0  0  0  0  0
    1.2240   26.5860  -26.3140 H   0  0  0  0  0  0  0  0  0  0  0  0
    0.9484   24.3753  -24.9197 H   0  0  0  0  0  0  0  0  0  0  0  0
    1.2148   26.0279  -24.2250 H   0  0  0  0  0  0  0  0  0  0  0  0
   -1.4915   24.6677  -24.6425 H   0  0  0  0  0  0  0  0  0  0  0  0
   -0.5981   24.8853  -23.0643 H   0  0  0  0  0  0  0  0  0  0  0  0
   -2.0295   28.1571  -25.0129 H   0  0  0  0  0  0  0  0  0  0  0  0
   -0.2549   28.0702  -24.5723 H   0  0  0  0  0  0  0  0  0  0  0  0
   -1.6783   26.2782  -26.5874 H   0  0  0  0  0  0  0  0  0  0  0  0
   -0.5989   27.6790  -26.9682 H   0  0  0  0  0  0  0  0  0  0  0  0
  1  2  2  0
  2  3  1  0
  3  4  2  0
  4  5  1  0
  5  6  2  0
  6  7  1  0
  7  8  1  0
  8  9  1  0
  9 10  2  0
 10 11  1  0
 11 12  1  0
 12 13  1  0
 13 14  2  0
 14 15  1  0
 15 16  2  0
 16 17  1  0
 17 18  1  0
 18 19  2  0
 19 20  1  0
 20 21  2  0
 21 22  1  0
 21 23  1  0
 23 24  2  0
 16 25  1  0
 25 26  2  0
 10 27  1  0
 27 28  2  0
 27 29  1  0
 29 30  2  0
  7 31  2  0
 31 32  1  0
  2 33  1  0
 33 34  1  0
 34 35  1  0
 35 36  1  0
 36 37  1  0
 37 38  1  0
 31  3  1  0
 38 33  1  0
 29  9  1  0
 26 13  1  0
 24 18  1  0
  4 39  1  0
  5 40  1  0
  6 41  1  0
  8 42  1  0
 11 43  1  0
 12 44  1  0
 12 45  1  0
 14 46  1  0
 15 47  1  0
 19 48  1  0
 20 49  1  0
 23 50  1  0
 24 51  1  0
 25 52  1  0
 26 53  1  0
 33 54  1  0
 34 55  1  0
 34 56  1  0
 35 57  1  0
 35 58  1  0
 37 59  1  0
 37 60  1  0
 38 61  1  0
 38 62  1  0
M  CHG  2  32  -1  33   1
M  END
>  <UniqueID>  (23) 
22

>  <SMILES>  (23) 
O=C(c1cccc(Nc2c(NCc3ccc(Oc4ccc(Cl)cc4)cc3)c(=O)c2=O)c1[O-])[NH+]1CCOCC1

>  <Energy>  (23) 
96.04755499370636

>  <Genealogy>  (23) 
O=C(c1cccc(Nc2c(NCc3ccc(Oc4ccc(Cl)cc4)cc3)c(=O)c2=O)c1[O-])[NH+]1CCOCC1 (protonated)
O=C(c1cccc(Nc2c(NCc3ccc(Oc4ccc(Cl)cc4)cc3)c(=O)c2=O)c1[O-])[NH+]1CCOCC1 (3D coordinates assigned)
O=C(c1cccc(Nc2c(NCc3ccc(Oc4ccc(Cl)cc4)cc3)c(=O)c2=O)c1[O-])[NH+]1CCOCC1 (nonaromatic ring conformer: 96.04755499370636 kcal/mol)

>  <smiles>  (23) 
O=C(c1cccc(Nc2c(NCc3ccc(Oc4ccc(Cl)cc4)cc3)c(=O)c2=O)c1O)N1CCOCC1

>  <score_type>  (23) 
oracle

>  <origin>  (23) 
adgpu

>  <m_score__min__energy>  (23) 
-13.279999999999999

>  <m_primary>  (23) 
energy

$$$$
23:0
     RDKit          3D

 40 42  0  0  0  0  0  0  0  0999 V2000
   -0.7630   26.8070  -23.6530 N   0  0  0  0  0  0  0  0  0  0  0  0
   -0.8700   26.1390  -24.5920 C   0  0  0  0  0  0  0  0  0  0  0  0
   -1.0020   25.3090  -25.7610 C   0  0  0  0  0  0  0  0  0  0  0  0
   -0.7380   23.9370  -25.6810 C   0  0  0  0  0  0  0  0  0  0  0  0
   -0.8670   23.1320  -26.8150 C   0  0  0  0  0  0  0  0  0  0  0  0
   -1.2750   23.6840  -28.0390 C   0  0  0  0  0  0  0  0  0  0  0  0
   -1.3910   22.8310  -29.1890 N   0  0  0  0  0  0  0  0  0  0  0  0
   -2.6250   22.6400  -29.9020 C   0  0  0  0  0  0  0  0  0  0  0  0
   -3.7170   22.9560  -29.3560 O   0  0  0  0  0  0  0  0  0  0  0  0
   -2.6340   22.0340  -31.2560 C   0  0  0  0  0  0  0  0  0  0  0  0
   -3.8480   21.8640  -31.9470 C   0  0  0  0  0  0  0  0  0  0  0  0
   -3.8630   21.2970  -33.2230 C   0  0  0  0  0  0  0  0  0  0  0  0
   -2.6700   20.9000  -33.8290 C   0  0  0  0  0  0  0  0  0  0  0  0
   -1.4520   21.0700  -33.1610 C   0  0  0  0  0  0  0  0  0  0  0  0
    0.0480   20.5650  -33.9330 S   0  0  0  0  0  0  0  0  0  0  0  0
   -0.2220   19.5790  -35.0360 O   0  0  0  0  0  0  0  0  0  0  0  0
    0.9260   19.9140  -32.9020 O   0  0  0  0  0  0  0  0  0  0  0  0
    0.8750   21.9440  -34.5920 N   0  0  0  0  0  0  0  0  0  0  0  0
    1.8440   21.9240  -35.4620 C   0  0  0  0  0  0  0  0  0  0  0  0
    2.3690   20.7270  -35.9920 C   0  0  0  0  0  0  0  0  0  0  0  0
    3.4050   20.7850  -36.9280 C   0  0  0  0  0  0  0  0  0  0  0  0
    3.9060   21.9860  -37.3210 N   0  0  0  0  0  0  0  0  0  0  0  0
    3.4210   23.1550  -36.8250 C   0  0  0  0  0  0  0  0  0  0  0  0
    2.3840   23.1440  -35.8890 C   0  0  0  0  0  0  0  0  0  0  0  0
   -1.4340   21.6420  -31.8810 C   0  0  0  0  0  0  0  0  0  0  0  0
   -1.5090   25.0720  -28.1240 C   0  0  0  0  0  0  0  0  0  0  0  0
   -1.8380   25.6660  -29.3360 O   0  0  0  0  0  0  0  0  0  0  0  0
   -1.3840   25.8740  -26.9840 C   0  0  0  0  0  0  0  0  0  0  0  0
   -0.4285   23.4921  -24.7238 H   0  0  0  0  0  0  0  0  0  0  0  0
   -0.6470   22.0563  -26.7482 H   0  0  0  0  0  0  0  0  0  0  0  0
   -0.5950   22.1870  -29.4000 H   0  0  0  0  0  0  0  0  0  0  0  0
   -4.7918   22.1800  -31.4787 H   0  0  0  0  0  0  0  0  0  0  0  0
   -4.8180   21.1628  -33.7522 H   0  0  0  0  0  0  0  0  0  0  0  0
   -2.6871   20.4526  -34.8337 H   0  0  0  0  0  0  0  0  0  0  0  0
    1.9660   19.7551  -35.6710 H   0  0  0  0  0  0  0  0  0  0  0  0
    3.8166   19.8555  -37.3483 H   0  0  0  0  0  0  0  0  0  0  0  0
    3.8462   24.1121  -37.1615 H   0  0  0  0  0  0  0  0  0  0  0  0
    1.9926   24.0907  -35.4884 H   0  0  0  0  0  0  0  0  0  0  0  0
   -0.4755   21.7857  -31.3609 H   0  0  0  0  0  0  0  0  0  0  0  0
   -1.5868   26.9532  -27.0489 H   0  0  0  0  0  0  0  0  0  0  0  0
  1  2  3  0
  2  3  1  0
  3  4  2  0
  4  5  1  0
  5  6  2  0
  6  7  1  0
  7  8  1  0
  8  9  2  0
  8 10  1  0
 10 11  2  0
 11 12  1  0
 12 13  2  0
 13 14  1  0
 14 15  1  0
 15 16  2  0
 15 17  2  0
 15 18  1  0
 18 19  2  3
 19 20  1  0
 20 21  2  0
 21 22  1  0
 22 23  1  0
 23 24  2  0
 14 25  2  0
  6 26  1  0
 26 27  1  0
 26 28  2  0
 28  3  1  0
 25 10  1  0
 24 19  1  0
  4 29  1  0
  5 30  1  0
  7 31  1  0
 11 32  1  0
 12 33  1  0
 13 34  1  0
 20 35  1  0
 21 36  1  0
 23 37  1  0
 24 38  1  0
 25 39  1  0
 28 40  1  0
M  CHG  2  22  -1  27  -1
M  END
>  <UniqueID>  (24) 
23

>  <SMILES>  (24) 
N#Cc1ccc(NC(=O)c2cccc(S(=O)(=O)N=c3cc[n-]cc3)c2)c([O-])c1

>  <Energy>  (24) 
55.54665070476048

>  <Genealogy>  (24) 
N#Cc1ccc(NC(=O)c2cccc(S(=O)(=O)N=c3cc[n-]cc3)c2)c([O-])c1 (protonated)
N#Cc1ccc(NC(=O)c2cccc(S(=O)(=O)N=c3cc[n-]cc3)c2)c([O-])c1 (3D coordinates assigned)
N#Cc1ccc(NC(=O)c2cccc(S(=O)(=O)N=c3cc[n-]cc3)c2)c([O-])c1 (optimized conformer: 55.54665070476048 kcal/mol)

>  <smiles>  (24) 
N#Cc1ccc(NC(=O)c2cccc(S(=O)(=O)N=c3cc[nH]cc3)c2)c(O)c1

>  <score_type>  (24) 
oracle

>  <origin>  (24) 
adgpu

>  <m_score__min__energy>  (24) 
-13.08

>  <m_primary>  (24) 
energy

$$$$
24:0
     RDKit          3D

 38 40  0  0  0  0  0  0  0  0999 V2000
   -4.1510   21.4740  -33.4860 O   0  0  0  0  0  0  0  0  0  0  0  0
   -3.1540   21.7550  -32.7670 C   0  0  0  0  0  0  0  0  0  0  0  0
   -3.2720   22.7320  -31.7200 N   0  0  0  0  0  0  0  0  0  0  0  0
   -4.5320   23.2670  -31.2870 C   0  0  0  0  0  0  0  0  0  0  0  0
   -5.7070   22.5450  -31.5440 C   0  0  0  0  0  0  0  0  0  0  0  0
   -6.9530   23.0370  -31.1320 C   0  0  0  0  0  0  0  0  0  0  0  0
   -8.4250   22.1100  -31.4450 S   0  0  0  0  0  0  0  0  0  0  0  0
   -9.3440   22.9290  -32.3100 O   0  0  0  0  0  0  0  0  0  0  0  0
   -9.1260   21.8490  -30.1410 O   0  0  0  0  0  0  0  0  0  0  0  0
   -8.1110   20.5840  -32.2360 N   0  0  0  0  0  0  0  0  0  0  0  0
   -6.9820   19.8750  -31.6380 C   0  0  0  0  0  0  0  0  0  0  0  0
   -7.1950   18.3990  -31.9370 C   0  0  0  0  0  0  0  0  0  0  0  0
   -8.6760   18.2630  -32.2580 C   0  0  0  0  0  0  0  0  0  0  0  0
   -9.2450   19.6680  -32.1340 C   0  0  0  0  0  0  0  0  0  0  0  0
   -7.0260   24.2800  -30.4890 C   0  0  0  0  0  0  0  0  0  0  0  0
   -5.8650   25.0190  -30.2550 C   0  0  0  0  0  0  0  0  0  0  0  0
   -4.6200   24.5250  -30.6600 C   0  0  0  0  0  0  0  0  0  0  0  0
   -3.4860   25.3030  -30.4620 O   0  0  0  0  0  0  0  0  0  0  0  0
   -1.8640   21.0970  -33.0360 C   0  0  0  0  0  0  0  0  0  0  0  0
   -1.5250   20.4190  -34.2020 C   0  0  0  0  0  0  0  0  0  0  0  0
   -0.2310   19.8820  -34.1750 C   0  0  0  0  0  0  0  0  0  0  0  0
    0.4520   20.1300  -32.9920 C   0  0  0  0  0  0  0  0  0  0  0  0
   -0.5540   21.0180  -31.9800 S   0  0  0  0  0  0  0  0  0  0  0  0
   -2.4030   23.1920  -31.3670 H   0  0  0  0  0  0  0  0  0  0  0  0
   -5.6498   21.5829  -32.0743 H   0  0  0  0  0  0  0  0  0  0  0  0
   -6.0371   20.2207  -32.0825 H   0  0  0  0  0  0  0  0  0  0  0  0
   -6.9244   20.0583  -30.5549 H   0  0  0  0  0  0  0  0  0  0  0  0
   -6.5843   18.0883  -32.7975 H   0  0  0  0  0  0  0  0  0  0  0  0
   -6.8993   17.7626  -31.0900 H   0  0  0  0  0  0  0  0  0  0  0  0
   -8.8151   17.8799  -33.2797 H   0  0  0  0  0  0  0  0  0  0  0  0
   -9.1787   17.5561  -31.5815 H   0  0  0  0  0  0  0  0  0  0  0  0
   -9.9632   19.8603  -32.9447 H   0  0  0  0  0  0  0  0  0  0  0  0
   -9.7784   19.7990  -31.1810 H   0  0  0  0  0  0  0  0  0  0  0  0
   -8.0012   24.6746  -30.1677 H   0  0  0  0  0  0  0  0  0  0  0  0
   -5.9292   25.9941  -29.7499 H   0  0  0  0  0  0  0  0  0  0  0  0
   -2.2051   20.3147  -35.0602 H   0  0  0  0  0  0  0  0  0  0  0  0
    0.2031   19.3167  -35.0129 H   0  0  0  0  0  0  0  0  0  0  0  0
    1.4754   19.8018  -32.7574 H   0  0  0  0  0  0  0  0  0  0  0  0
  1  2  2  0
  2  3  1  0
  3  4  1  0
  4  5  2  0
  5  6  1  0
  6  7  1  0
  7  8  2  0
  7  9  2  0
  7 10  1  0
 10 11  1  0
 11 12  1  0
 12 13  1  0
 13 14  1  0
  6 15  2  0
 15 16  1  0
 16 17  2  0
 17 18  1  0
  2 19  1  0
 19 20  2  0
 20 21  1  0
 21 22  2  0
 22 23  1  0
 17  4  1  0
 23 19  1  0
 14 10  1  0
  3 24  1  0
  5 25  1  0
 11 26  1  0
 11 27  1  0
 12 28  1  0
 12 29  1  0
 13 30  1  0
 13 31  1  0
 14 32  1  0
 14 33  1  0
 15 34  1  0
 16 35  1  0
 20 36  1  0
 21 37  1  0
 22 38  1  0
M  CHG  1  18  -1
M  END
>  <UniqueID>  (25) 
24

>  <SMILES>  (25) 
O=C(Nc1cc(S(=O)(=O)N2CCCC2)ccc1[O-])c1cccs1

>  <Energy>  (25) 
70.87092031542424

>  <Genealogy>  (25) 
O=C(Nc1cc(S(=O)(=O)N2CCCC2)ccc1[O-])c1cccs1 (protonated)
O=C(Nc1cc(S(=O)(=O)N2CCCC2)ccc1[O-])c1cccs1 (3D coordinates assigned)
O=C(Nc1cc(S(=O)(=O)N2CCCC2)ccc1[O-])c1cccs1 (nonaromatic ring conformer: 70.87092031542424 kcal/mol)

>  <smiles>  (25) 
O=C(Nc1cc(S(=O)(=O)N2CCCC2)ccc1O)c1cccs1

>  <score_type>  (25) 
oracle

>  <origin>  (25) 
adgpu

>  <m_score__min__energy>  (25) 
-11.73

>  <m_primary>  (25) 
energy

$$$$
25:0
     RDKit          3D

 64 68  0  0  0  0  0  0  0  0999 V2000
   -0.1450   20.5900  -37.6560 H   0  0  0  0  0  0  0  0  0  0  0  0
    0.6810   20.3170  -37.0780 N   0  0  0  0  0  0  0  0  0  0  0  0
    0.6150   20.2670  -35.7880 C   0  0  0  0  0  0  0  0  0  0  0  0
    1.7110   19.9120  -35.0700 N   0  0  0  0  0  0  0  0  0  0  0  0
    1.6730   19.8530  -33.7140 C   0  0  0  0  0  0  0  0  0  0  0  0
    2.5719   19.5603  -33.1516 H   0  0  0  0  0  0  0  0  0  0  0  0
    0.4920   20.1640  -33.0310 C   0  0  0  0  0  0  0  0  0  0  0  0
   -0.6400   20.5190  -33.7930 C   0  0  0  0  0  0  0  0  0  0  0  0
   -0.5440   20.5740  -35.1480 N   0  0  0  0  0  0  0  0  0  0  0  0
   -1.9280   20.9410  -33.1390 C   0  0  0  0  0  0  0  0  0  0  0  0
   -1.9680   22.0398  -33.1072 H   0  0  0  0  0  0  0  0  0  0  0  0
   -2.7615   20.5323  -33.7292 H   0  0  0  0  0  0  0  0  0  0  0  0
   -2.0440   20.4000  -31.7140 C   0  0  0  0  0  0  0  0  0  0  0  0
   -2.8724   20.9045  -31.1952 H   0  0  0  0  0  0  0  0  0  0  0  0
   -2.2395   19.3179  -31.7442 H   0  0  0  0  0  0  0  0  0  0  0  0
   -0.7910   20.6540  -30.9990 N   0  0  0  0  0  0  0  0  0  0  0  0
   -0.7460   21.5260  -29.8560 C   0  0  0  0  0  0  0  0  0  0  0  0
   -0.1090   21.1260  -28.6740 C   0  0  0  0  0  0  0  0  0  0  0  0
    0.4090   20.1565  -28.6314 H   0  0  0  0  0  0  0  0  0  0  0  0
   -0.1290   21.9310  -27.5810 N   0  0  0  0  0  0  0  0  0  0  0  0
   -0.7630   23.1320  -27.5860 C   0  0  0  0  0  0  0  0  0  0  0  0
   -0.7550   23.7580  -26.6815 H   0  0  0  0  0  0  0  0  0  0  0  0
   -1.4290   23.5800  -28.7390 C   0  0  0  0  0  0  0  0  0  0  0  0
   -2.1290   24.8910  -28.7320 C   0  0  0  0  0  0  0  0  0  0  0  0
   -1.8160   25.7440  -27.8600 O   0  0  0  0  0  0  0  0  0  0  0  0
   -3.1110   25.2580  -29.7120 N   0  0  0  0  0  0  0  0  0  0  0  0
   -4.2920   24.5390  -30.0990 C   0  0  0  0  0  0  0  0  0  0  0  0
   -4.5410   23.2190  -29.6800 C   0  0  0  0  0  0  0  0  0  0  0  0
   -3.8227   22.7080  -29.0221 H   0  0  0  0  0  0  0  0  0  0  0  0
   -5.6980   22.5550  -30.0970 C   0  0  0  0  0  0  0  0  0  0  0  0
   -5.8651   21.5089  -29.8007 H   0  0  0  0  0  0  0  0  0  0  0  0
   -6.6470   23.2150  -30.8910 C   0  0  0  0  0  0  0  0  0  0  0  0
   -8.1150   22.3800  -31.4040 S   0  0  0  0  0  0  0  0  0  0  0  0
   -8.8080   21.8360  -30.1850 O   0  0  0  0  0  0  0  0  0  0  0  0
   -9.0400   23.3600  -32.0720 O   0  0  0  0  0  0  0  0  0  0  0  0
   -7.7070   21.0750  -32.5010 N   0  0  2  0  0  0  0  0  0  0  0  0
   -7.4820   21.5280  -33.4170 H   0  0  0  0  0  0  0  0  0  0  0  0
   -8.8750   20.1740  -32.7180 C   0  0  0  0  0  0  0  0  0  0  0  0
   -9.7871   20.6987  -32.3976 H   0  0  0  0  0  0  0  0  0  0  0  0
   -8.9021   19.9213  -33.7882 H   0  0  0  0  0  0  0  0  0  0  0  0
   -8.7680   18.8590  -31.9380 C   0  0  0  0  0  0  0  0  0  0  0  0
   -8.6990   19.0809  -30.8628 H   0  0  0  0  0  0  0  0  0  0  0  0
   -9.6609   18.2505  -32.1441 H   0  0  0  0  0  0  0  0  0  0  0  0
   -7.5230   18.0740  -32.3720 C   0  0  0  0  0  0  0  0  0  0  0  0
   -7.2619   17.3622  -31.5751 H   0  0  0  0  0  0  0  0  0  0  0  0
   -7.7682   17.5630  -33.3147 H   0  0  0  0  0  0  0  0  0  0  0  0
   -6.2960   18.9850  -32.6430 C   0  0  1  0  0  0  0  0  0  0  0  0
   -5.4310   18.5172  -32.1502 H   0  0  0  0  0  0  0  0  0  0  0  0
   -5.9670   19.0730  -34.1430 C   0  0  0  0  0  0  0  0  0  0  0  0
   -4.9116   19.3553  -34.2709 H   0  0  0  0  0  0  0  0  0  0  0  0
   -6.1450   18.0957  -34.6154 H   0  0  0  0  0  0  0  0  0  0  0  0
   -6.6091   19.8310  -34.6154 H   0  0  0  0  0  0  0  0  0  0  0  0
   -6.4830   20.3850  -32.0210 C   0  0  0  0  0  0  0  0  0  0  0  0
   -6.5473   20.2772  -30.9282 H   0  0  0  0  0  0  0  0  0  0  0  0
   -5.6205   20.9970  -32.3236 H   0  0  0  0  0  0  0  0  0  0  0  0
   -6.4230   24.5480  -31.2650 C   0  0  0  0  0  0  0  0  0  0  0  0
   -7.1733   25.0815  -31.8671 H   0  0  0  0  0  0  0  0  0  0  0  0
   -5.2510   25.2010  -30.8760 C   0  0  0  0  0  0  0  0  0  0  0  0
   -5.0799   26.2435  -31.1824 H   0  0  0  0  0  0  0  0  0  0  0  0
   -1.3840   22.7740  -29.8890 C   0  0  0  0  0  0  0  0  0  0  0  0
   -1.8521   23.1242  -30.8208 H   0  0  0  0  0  0  0  0  0  0  0  0
    0.4400   20.0540  -31.5260 C   0  0  0  0  0  0  0  0  0  0  0  0
    1.3076   20.5763  -31.0966 H   0  0  0  0  0  0  0  0  0  0  0  0
    0.4575   18.9891  -31.2508 H   0  0  0  0  0  0  0  0  0  0  0  0
  1  2  1  0
  2  3  2  0
  3  4  1  0
  4  5  2  0
  5  6  1  0
  5  7  1  0
  7  8  2  0
  8  9  1  0
  8 10  1  0
 10 11  1  0
 10 12  1  0
 10 13  1  0
 13 14  1  0
 13 15  1  0
 13 16  1  0
 16 17  1  0
 17 18  2  0
 18 19  1  0
 18 20  1  0
 20 21  2  0
 21 22  1  0
 21 23  1  0
 23 24  1  0
 24 25  2  0
 24 26  1  0
 26 27  1  0
 27 28  2  0
 28 29  1  0
 28 30  1  0
 30 31  1  0
 30 32  2  0
 32 33  1  0
 33 34  2  0
 33 35  2  0
 33 36  1  0
 36 37  1  6
 36 38  1  0
 38 39  1  0
 38 40  1  0
 38 41  1  0
 41 42  1  0
 41 43  1  0
 41 44  1  0
 44 45  1  0
 44 46  1  0
 44 47  1  0
 47 48  1  1
 47 49  1  0
 49 50  1  0
 49 51  1  0
 49 52  1  0
 47 53  1  0
 53 54  1  0
 53 55  1  0
 32 56  1  0
 56 57  1  0
 56 58  2  0
 58 59  1  0
 23 60  2  0
 60 61  1  0
 16 62  1  0
 62 63  1  0
 62 64  1  0
  9  3  1  0
 60 17  1  0
 62  7  1  0
 58 27  1  0
 53 36  1  0
M  CHG  3   9  -1  26  -1  36   1
M  END
>  <UniqueID>  (26) 
25

>  <SMILES>  (26) 
[H]/N=c1/ncc2c([n-]1)CCN(c1cncc(C(=O)[N-]c3ccc(S(=O)(=O)[N@@H+]4CCC[C@@H](C)C4)cc3)c1)C2

>  <Energy>  (26) 
85.98944432489911

>  <Genealogy>  (26) 
CC1CCC[NH+](S(=O)(=O)c2ccc([N-]C(=O)c3cncc(N4CCc5[n-]c(=N)ncc5C4)c3)cc2)C1 (protonated)
C[C@@H]1CCC[N@@H+](S(=O)(=O)c2ccc([N-]C(=O)c3cncc(N4CCc5[n-]c(=N)ncc5C4)c3)cc2)C1 (chirality)
[H]/N=c1/ncc2c([n-]1)CCN(c1cncc(C(=O)[N-]c3ccc(S(=O)(=O)[N@@H+]4CCC[C@@H](C)C4)cc3)c1)C2 (cis-trans isomerization)
[H]/N=c1/ncc2c([n-]1)CCN(c1cncc(C(=O)[N-]c3ccc(S(=O)(=O)[N@@H+]4CCC[C@@H](C)C4)cc3)c1)C2 (3D coordinates assigned)
[H]/N=c1/ncc2c([n-]1)CCN(c1cncc(C(=O)[N-]c3ccc(S(=O)(=O)[N@@H+]4CCC[C@@H](C)C4)cc3)c1)C2 (nonaromatic ring conformer: 85.98944432489911 kcal/mol)

>  <smiles>  (26) 
CC1CCCN(S(=O)(=O)c2ccc(NC(=O)c3cncc(N4CCc5[nH]c(=N)ncc5C4)c3)cc2)C1

>  <score_type>  (26) 
oracle

>  <origin>  (26) 
adgpu

>  <m_score__min__energy>  (26) 
-12.81

>  <m_primary>  (26) 
energy

$$$$
26:0
     RDKit          3D

 59 62  0  0  0  0  0  0  0  0999 V2000
   -4.7950   15.3150  -34.4690 C   0  0  0  0  0  0  0  0  0  0  0  0
   -5.7510   16.5090  -34.5930 C   0  0  0  0  0  0  0  0  0  0  0  0
   -6.8500   16.4630  -33.5050 C   0  0  0  0  0  0  0  0  0  0  0  0
   -6.4630   17.3110  -32.2850 C   0  0  0  0  0  0  0  0  0  0  0  0
   -6.2460   18.7390  -32.6240 N   0  0  0  0  0  0  0  0  0  0  0  0
   -7.6550   19.6970  -32.2410 S   0  0  0  0  0  0  0  0  0  0  0  0
   -8.4650   19.0070  -31.1780 O   0  0  0  0  0  0  0  0  0  0  0  0
   -8.5080   19.8680  -33.4670 O   0  0  0  0  0  0  0  0  0  0  0  0
   -7.1420   21.2860  -31.6800 C   0  0  0  0  0  0  0  0  0  0  0  0
   -7.5580   21.7760  -30.4340 C   0  0  0  0  0  0  0  0  0  0  0  0
   -7.0770   23.0030  -29.9660 C   0  0  0  0  0  0  0  0  0  0  0  0
   -6.1840   23.7520  -30.7430 C   0  0  0  0  0  0  0  0  0  0  0  0
   -5.4740   25.2320  -30.1090 S   0  0  0  0  0  0  0  0  0  0  0  0
   -6.0940   26.4130  -30.8010 O   0  0  0  0  0  0  0  0  0  0  0  0
   -5.7210   25.3460  -28.6310 O   0  0  0  0  0  0  0  0  0  0  0  0
   -3.7730   25.2070  -30.4180 N   0  0  0  0  0  0  0  0  0  0  0  0
   -2.9400   24.2430  -29.7740 C   0  0  0  0  0  0  0  0  0  0  0  0
   -3.3850   22.9240  -29.6460 C   0  0  0  0  0  0  0  0  0  0  0  0
   -2.6100   21.9750  -28.9640 C   0  0  0  0  0  0  0  0  0  0  0  0
   -1.3490   22.3440  -28.4510 C   0  0  0  0  0  0  0  0  0  0  0  0
   -0.9140   23.6720  -28.5720 C   0  0  0  0  0  0  0  0  0  0  0  0
   -1.7030   24.6190  -29.2320 C   0  0  0  0  0  0  0  0  0  0  0  0
   -1.2530   25.9290  -29.3500 O   0  0  0  0  0  0  0  0  0  0  0  0
   -0.5120   21.3520  -27.6790 C   0  0  0  0  0  0  0  0  0  0  0  0
   -0.8730   19.9600  -28.0170 N   0  0  0  0  0  0  0  0  0  0  0  0
   -0.1100   19.0290  -27.1710 C   0  0  0  0  0  0  0  0  0  0  0  0
   -2.3180   19.7500  -27.8210 C   0  0  0  0  0  0  0  0  0  0  0  0
   -3.1020   20.5540  -28.8620 C   0  0  0  0  0  0  0  0  0  0  0  0
   -5.7750   23.2650  -31.9910 C   0  0  0  0  0  0  0  0  0  0  0  0
   -6.2530   22.0370  -32.4570 C   0  0  0  0  0  0  0  0  0  0  0  0
   -5.8360   18.9810  -34.0260 C   0  0  0  0  0  0  0  0  0  0  0  0
   -4.9630   17.8400  -34.5630 C   0  0  0  0  0  0  0  0  0  0  0  0
   -4.6190   15.0951  -33.4057 H   0  0  0  0  0  0  0  0  0  0  0  0
   -5.2415   14.4356  -34.9562 H   0  0  0  0  0  0  0  0  0  0  0  0
   -3.8393   15.5584  -34.9562 H   0  0  0  0  0  0  0  0  0  0  0  0
   -6.2616   16.4454  -35.5652 H   0  0  0  0  0  0  0  0  0  0  0  0
   -7.7889   16.8504  -33.9274 H   0  0  0  0  0  0  0  0  0  0  0  0
   -6.9716   15.4197  -33.1782 H   0  0  0  0  0  0  0  0  0  0  0  0
   -7.2702   17.2450  -31.5406 H   0  0  0  0  0  0  0  0  0  0  0  0
   -5.5142   16.9152  -31.8936 H   0  0  0  0  0  0  0  0  0  0  0  0
   -8.2641   21.1942  -29.8233 H   0  0  0  0  0  0  0  0  0  0  0  0
   -7.4008   23.3809  -28.9850 H   0  0  0  0  0  0  0  0  0  0  0  0
   -4.3500   22.6284  -30.0834 H   0  0  0  0  0  0  0  0  0  0  0  0
    0.0546   23.9705  -28.1447 H   0  0  0  0  0  0  0  0  0  0  0  0
    0.5487   21.5149  -27.9206 H   0  0  0  0  0  0  0  0  0  0  0  0
   -0.6973   21.5056  -26.6057 H   0  0  0  0  0  0  0  0  0  0  0  0
   -0.2979   19.2582  -26.1117 H   0  0  0  0  0  0  0  0  0  0  0  0
   -0.4255   17.9971  -27.3844 H   0  0  0  0  0  0  0  0  0  0  0  0
    0.9638   19.1357  -27.3844 H   0  0  0  0  0  0  0  0  0  0  0  0
   -2.5507   18.6808  -27.9336 H   0  0  0  0  0  0  0  0  0  0  0  0
   -2.6015   20.0854  -26.8125 H   0  0  0  0  0  0  0  0  0  0  0  0
   -2.9916   20.0685  -29.8428 H   0  0  0  0  0  0  0  0  0  0  0  0
   -4.1560   20.5806  -28.5482 H   0  0  0  0  0  0  0  0  0  0  0  0
   -5.0758   23.8505  -32.6060 H   0  0  0  0  0  0  0  0  0  0  0  0
   -5.9291   21.6596  -33.4381 H   0  0  0  0  0  0  0  0  0  0  0  0
   -6.7366   19.0665  -34.6518 H   0  0  0  0  0  0  0  0  0  0  0  0
   -5.2469   19.9094  -34.0572 H   0  0  0  0  0  0  0  0  0  0  0  0
   -4.6348   18.0873  -35.5834 H   0  0  0  0  0  0  0  0  0  0  0  0
   -4.0946   17.7194  -33.8986 H   0  0  0  0  0  0  0  0  0  0  0  0
  1  2  1  0
  2  3  1  0
  3  4  1  0
  4  5  1  0
  5  6  1  0
  6  7  2  0
  6  8  2  0
  6  9  1  0
  9 10  2  0
 10 11  1  0
 11 12  2  0
 12 13  1  0
 13 14  2  0
 13 15  2  0
 13 16  1  0
 16 17  1  0
 17 18  2  0
 18 19  1  0
 19 20  2  0
 20 21  1  0
 21 22  2  0
 22 23  1  0
 20 24  1  0
 24 25  1  0
 25 26  1  0
 25 27  1  0
 27 28  1  0
 12 29  1  0
 29 30  2  0
  5 31  1  0
 31 32  1  0
 32  2  1  0
 30  9  1  0
 22 17  1  0
 28 19  1  0
  1 33  1  0
  1 34  1  0
  1 35  1  0
  2 36  1  0
  3 37  1  0
  3 38  1  0
  4 39  1  0
  4 40  1  0
 10 41  1  0
 11 42  1  0
 18 43  1  0
 21 44  1  0
 24 45  1  0
 24 46  1  0
 26 47  1  0
 26 48  1  0
 26 49  1  0
 27 50  1  0
 27 51  1  0
 28 52  1  0
 28 53  1  0
 29 54  1  0
 30 55  1  0
 31 56  1  0
 31 57  1  0
 32 58  1  0
 32 59  1  0
M  CHG  2  16  -1  23  -1
M  END
>  <UniqueID>  (27) 
26

>  <SMILES>  (27) 
CC1CCN(S(=O)(=O)c2ccc(S(=O)(=O)[N-]c3cc4c(cc3[O-])CN(C)CC4)cc2)CC1

>  <Energy>  (27) 
73.26408734805135

>  <Genealogy>  (27) 
CC1CCN(S(=O)(=O)c2ccc(S(=O)(=O)[N-]c3cc4c(cc3[O-])CN(C)CC4)cc2)CC1 (protonated)
CC1CCN(S(=O)(=O)c2ccc(S(=O)(=O)[N-]c3cc4c(cc3[O-])CN(C)CC4)cc2)CC1 (3D coordinates assigned)
CC1CCN(S(=O)(=O)c2ccc(S(=O)(=O)[N-]c3cc4c(cc3[O-])CN(C)CC4)cc2)CC1 (nonaromatic ring conformer: 73.26408734805135 kcal/mol)

>  <smiles>  (27) 
CC1CCN(S(=O)(=O)c2ccc(S(=O)(=O)Nc3cc4c(cc3O)CN(C)CC4)cc2)CC1

>  <score_type>  (27) 
oracle

>  <origin>  (27) 
adgpu

>  <m_score__min__energy>  (27) 
-15.390000000000001

>  <m_primary>  (27) 
energy

$$$$
27:0
     RDKit          3D

 56 59  0  0  0  0  0  0  0  0999 V2000
    1.4260   19.1770  -27.8560 C   0  0  0  0  0  0  0  0  0  0  0  0
    0.2370   19.9150  -28.3070 N   0  0  0  0  0  0  0  0  0  0  0  0
   -0.9300   19.5510  -27.4870 C   0  0  0  0  0  0  0  0  0  0  0  0
   -2.1980   20.1250  -28.1220 C   0  0  0  0  0  0  0  0  0  0  0  0
   -2.0330   21.5820  -28.4640 C   0  0  0  0  0  0  0  0  0  0  0  0
   -3.1690   22.3610  -28.7250 C   0  0  0  0  0  0  0  0  0  0  0  0
   -3.0470   23.7370  -28.9670 C   0  0  0  0  0  0  0  0  0  0  0  0
   -4.2050   24.5700  -29.0780 N   0  0  0  0  0  0  0  0  0  0  0  0
   -5.3660   24.4560  -30.3680 S   0  0  0  0  0  0  0  0  0  0  0  0
   -5.2430   25.6760  -31.2370 O   0  0  0  0  0  0  0  0  0  0  0  0
   -6.7490   24.4150  -29.7790 O   0  0  0  0  0  0  0  0  0  0  0  0
   -5.1290   23.0040  -31.3430 C   0  0  0  0  0  0  0  0  0  0  0  0
   -3.8510   22.6530  -31.8050 C   0  0  0  0  0  0  0  0  0  0  0  0
   -3.6590   21.4530  -32.4890 C   0  0  0  0  0  0  0  0  0  0  0  0
   -4.7350   20.5870  -32.7050 C   0  0  0  0  0  0  0  0  0  0  0  0
   -6.0180   20.9300  -32.2530 C   0  0  0  0  0  0  0  0  0  0  0  0
   -7.3660   19.8110  -32.4710 S   0  0  0  0  0  0  0  0  0  0  0  0
   -7.8170   19.3120  -31.1270 O   0  0  0  0  0  0  0  0  0  0  0  0
   -8.5160   20.5440  -33.1030 O   0  0  0  0  0  0  0  0  0  0  0  0
   -6.9130   18.4470  -33.4630 N   0  0  0  0  0  0  0  0  0  0  0  0
   -6.2930   17.3680  -32.6550 C   0  0  0  0  0  0  0  0  0  0  0  0
   -4.7640   17.3280  -32.7830 C   0  0  0  0  0  0  0  0  0  0  0  0
   -4.3310   17.1300  -34.2460 C   0  0  0  0  0  0  0  0  0  0  0  0
   -5.3290   17.7350  -35.2470 C   0  0  0  0  0  0  0  0  0  0  0  0
   -6.1060   18.8970  -34.6180 C   0  0  0  0  0  0  0  0  0  0  0  0
   -6.2130   22.1510  -31.5940 C   0  0  0  0  0  0  0  0  0  0  0  0
   -1.7740   24.3100  -29.0740 C   0  0  0  0  0  0  0  0  0  0  0  0
   -1.6390   25.6660  -29.3480 O   0  0  0  0  0  0  0  0  0  0  0  0
   -0.6320   23.5280  -28.8760 C   0  0  0  0  0  0  0  0  0  0  0  0
   -0.7510   22.1640  -28.5650 C   0  0  0  0  0  0  0  0  0  0  0  0
    0.4850   21.3680  -28.2230 C   0  0  0  0  0  0  0  0  0  0  0  0
    1.4522   19.1607  -26.7564 H   0  0  0  0  0  0  0  0  0  0  0  0
    1.3840   18.1460  -28.2371 H   0  0  0  0  0  0  0  0  0  0  0  0
    2.3313   19.6722  -28.2371 H   0  0  0  0  0  0  0  0  0  0  0  0
   -1.0115   18.4555  -27.4310 H   0  0  0  0  0  0  0  0  0  0  0  0
   -0.8089   19.9618  -26.4738 H   0  0  0  0  0  0  0  0  0  0  0  0
   -2.4220   19.5651  -29.0419 H   0  0  0  0  0  0  0  0  0  0  0  0
   -3.0198   20.0317  -27.3968 H   0  0  0  0  0  0  0  0  0  0  0  0
   -4.1628   21.8897  -28.7401 H   0  0  0  0  0  0  0  0  0  0  0  0
   -2.9991   23.3258  -31.6272 H   0  0  0  0  0  0  0  0  0  0  0  0
   -2.6580   21.1871  -32.8596 H   0  0  0  0  0  0  0  0  0  0  0  0
   -4.5752   19.6341  -33.2308 H   0  0  0  0  0  0  0  0  0  0  0  0
   -6.5525   17.5280  -31.5981 H   0  0  0  0  0  0  0  0  0  0  0  0
   -6.6805   16.4099  -33.0317 H   0  0  0  0  0  0  0  0  0  0  0  0
   -4.3483   18.2762  -32.4114 H   0  0  0  0  0  0  0  0  0  0  0  0
   -4.3879   16.4802  -32.1916 H   0  0  0  0  0  0  0  0  0  0  0  0
   -3.3520   17.6100  -34.3913 H   0  0  0  0  0  0  0  0  0  0  0  0
   -4.2852   16.0474  -34.4354 H   0  0  0  0  0  0  0  0  0  0  0  0
   -4.7782   18.1045  -36.1246 H   0  0  0  0  0  0  0  0  0  0  0  0
   -6.0458   16.9541  -35.5409 H   0  0  0  0  0  0  0  0  0  0  0  0
   -5.3923   19.6623  -34.2789 H   0  0  0  0  0  0  0  0  0  0  0  0
   -6.7884   19.3070  -35.3771 H   0  0  0  0  0  0  0  0  0  0  0  0
   -7.2235   22.4423  -31.2714 H   0  0  0  0  0  0  0  0  0  0  0  0
    0.3652   23.9839  -28.9644 H   0  0  0  0  0  0  0  0  0  0  0  0
    1.2871   21.6344  -28.9270 H   0  0  0  0  0  0  0  0  0  0  0  0
    0.7735   21.6083  -27.1890 H   0  0  0  0  0  0  0  0  0  0  0  0
  1  2  1  0
  2  3  1  0
  3  4  1  0
  4  5  1  0
  5  6  2  0
  6  7  1  0
  7  8  1  0
  8  9  1  0
  9 10  2  0
  9 11  2  0
  9 12  1  0
 12 13  2  0
 13 14  1  0
 14 15  2  0
 15 16  1  0
 16 17  1  0
 17 18  2  0
 17 19  2  0
 17 20  1  0
 20 21  1  0
 21 22  1  0
 22 23  1  0
 23 24  1  0
 24 25  1  0
 16 26  2  0
  7 27  2  0
 27 28  1  0
 27 29  1  0
 29 30  2  0
 30 31  1  0
 31  2  1  0
 30  5  1  0
 26 12  1  0
 25 20  1  0
  1 32  1  0
  1 33  1  0
  1 34  1  0
  3 35  1  0
  3 36  1  0
  4 37  1  0
  4 38  1  0
  6 39  1  0
 13 40  1  0
 14 41  1  0
 15 42  1  0
 21 43  1  0
 21 44  1  0
 22 45  1  0
 22 46  1  0
 23 47  1  0
 23 48  1  0
 24 49  1  0
 24 50  1  0
 25 51  1  0
 25 52  1  0
 26 53  1  0
 29 54  1  0
 31 55  1  0
 31 56  1  0
M  CHG  2   8  -1  28  -1
M  END
>  <UniqueID>  (28) 
27

>  <SMILES>  (28) 
CN1CCc2cc([N-]S(=O)(=O)c3cccc(S(=O)(=O)N4CCCCC4)c3)c([O-])cc2C1

>  <Energy>  (28) 
70.49661713872578

>  <Genealogy>  (28) 
CN1CCc2cc([N-]S(=O)(=O)c3cccc(S(=O)(=O)N4CCCCC4)c3)c([O-])cc2C1 (protonated)
CN1CCc2cc([N-]S(=O)(=O)c3cccc(S(=O)(=O)N4CCCCC4)c3)c([O-])cc2C1 (3D coordinates assigned)
CN1CCc2cc([N-]S(=O)(=O)c3cccc(S(=O)(=O)N4CCCCC4)c3)c([O-])cc2C1 (nonaromatic ring conformer: 70.49661713872578 kcal/mol)

>  <smiles>  (28) 
CN1CCc2cc(NS(=O)(=O)c3cccc(S(=O)(=O)N4CCCCC4)c3)c(O)cc2C1

>  <score_type>  (28) 
oracle

>  <origin>  (28) 
adgpu

>  <m_score__min__energy>  (28) 
-14.529999999999999

>  <m_primary>  (28) 
energy

$$$$
28:0
     RDKit          3D

 41 43  0  0  0  0  0  0  0  0999 V2000
   -5.8250   26.4310  -29.9970 O   0  0  0  0  0  0  0  0  0  0  0  0
   -5.3220   25.4000  -30.5220 C   0  0  0  0  0  0  0  0  0  0  0  0
   -3.9110   25.3380  -30.7610 N   0  0  0  0  0  0  0  0  0  0  0  0
   -3.0350   24.4640  -30.0930 N   0  0  0  0  0  0  0  0  0  0  0  0
   -1.9880   24.7790  -29.3050 C   0  0  0  0  0  0  0  0  0  0  0  0
   -1.6060   26.0720  -28.9720 O   0  0  0  0  0  0  0  0  0  0  0  0
   -1.3080   23.6360  -28.9270 C   0  0  0  0  0  0  0  0  0  0  0  0
   -1.9580   22.5780  -29.5420 C   0  0  0  0  0  0  0  0  0  0  0  0
   -3.0000   23.1320  -30.2590 C   0  0  0  0  0  0  0  0  0  0  0  0
   -3.8950   22.4230  -31.0510 O   0  0  0  0  0  0  0  0  0  0  0  0
   -6.1830   24.2370  -30.8430 C   0  0  0  0  0  0  0  0  0  0  0  0
   -6.5630   23.9720  -32.1720 C   0  0  0  0  0  0  0  0  0  0  0  0
   -7.3760   22.8760  -32.4720 C   0  0  0  0  0  0  0  0  0  0  0  0
   -7.8260   22.0290  -31.4500 C   0  0  0  0  0  0  0  0  0  0  0  0
   -8.8380   20.6340  -31.8110 S   0  0  0  0  0  0  0  0  0  0  0  0
  -10.1570   21.0810  -32.3810 O   0  0  0  0  0  0  0  0  0  0  0  0
   -9.0920   19.8840  -30.5330 O   0  0  0  0  0  0  0  0  0  0  0  0
   -8.0180   19.6020  -32.9570 N   0  0  0  0  0  0  0  0  0  0  0  0
   -8.0550   18.1830  -32.5230 C   0  0  0  0  0  0  0  0  0  0  0  0
   -6.7350   17.7110  -31.8970 C   0  0  0  0  0  0  0  0  0  0  0  0
   -5.5630   17.8750  -32.8810 C   0  0  0  0  0  0  0  0  0  0  0  0
   -5.7550   19.0610  -33.8430 C   0  0  0  0  0  0  0  0  0  0  0  0
   -6.6610   20.1300  -33.2240 C   0  0  0  0  0  0  0  0  0  0  0  0
   -7.4500   22.2850  -30.1270 C   0  0  0  0  0  0  0  0  0  0  0  0
   -6.6370   23.3810  -29.8240 C   0  0  0  0  0  0  0  0  0  0  0  0
   -0.4277   23.5782  -28.2699 H   0  0  0  0  0  0  0  0  0  0  0  0
   -1.6966   21.5117  -29.4730 H   0  0  0  0  0  0  0  0  0  0  0  0
   -6.2173   24.6328  -32.9806 H   0  0  0  0  0  0  0  0  0  0  0  0
   -7.6641   22.6770  -33.5148 H   0  0  0  0  0  0  0  0  0  0  0  0
   -8.8571   18.0649  -31.7796 H   0  0  0  0  0  0  0  0  0  0  0  0
   -8.2311   17.5700  -33.4192 H   0  0  0  0  0  0  0  0  0  0  0  0
   -6.5323   18.3069  -30.9949 H   0  0  0  0  0  0  0  0  0  0  0  0
   -6.8309   16.6448  -31.6438 H   0  0  0  0  0  0  0  0  0  0  0  0
   -4.6398   18.0354  -32.3048 H   0  0  0  0  0  0  0  0  0  0  0  0
   -5.5099   16.9599  -33.4891 H   0  0  0  0  0  0  0  0  0  0  0  0
   -4.7739   19.5060  -34.0654 H   0  0  0  0  0  0  0  0  0  0  0  0
   -6.2288   18.6913  -34.7643 H   0  0  0  0  0  0  0  0  0  0  0  0
   -6.2170   20.4702  -32.2769 H   0  0  0  0  0  0  0  0  0  0  0  0
   -6.7487   20.9633  -33.9367 H   0  0  0  0  0  0  0  0  0  0  0  0
   -7.7958   21.6206  -29.3214 H   0  0  0  0  0  0  0  0  0  0  0  0
   -6.3501   23.5754  -28.7800 H   0  0  0  0  0  0  0  0  0  0  0  0
  1  2  2  0
  2  3  1  0
  3  4  1  0
  4  5  1  0
  5  6  1  0
  5  7  2  0
  7  8  1  0
  8  9  2  0
  9 10  1  0
  2 11  1  0
 11 12  2  0
 12 13  1  0
 13 14  2  0
 14 15  1  0
 15 16  2  0
 15 17  2  0
 15 18  1  0
 18 19  1  0
 19 20  1  0
 20 21  1  0
 21 22  1  0
 22 23  1  0
 14 24  1  0
 24 25  2  0
  9  4  1  0
 25 11  1  0
 23 18  1  0
  7 26  1  0
  8 27  1  0
 12 28  1  0
 13 29  1  0
 19 30  1  0
 19 31  1  0
 20 32  1  0
 20 33  1  0
 21 34  1  0
 21 35  1  0
 22 36  1  0
 22 37  1  0
 23 38  1  0
 23 39  1  0
 24 40  1  0
 25 41  1  0
M  CHG  3   3  -1   6  -1  10  -1
M  END
>  <UniqueID>  (29) 
28

>  <SMILES>  (29) 
O=C([N-]n1c([O-])ccc1[O-])c1ccc(S(=O)(=O)N2CCCCC2)cc1

>  <Energy>  (29) 
81.47189451601368

>  <Genealogy>  (29) 
O=C([N-]n1c([O-])ccc1[O-])c1ccc(S(=O)(=O)N2CCCCC2)cc1 (protonated)
O=C([N-]n1c([O-])ccc1[O-])c1ccc(S(=O)(=O)N2CCCCC2)cc1 (3D coordinates assigned)
O=C([N-]n1c([O-])ccc1[O-])c1ccc(S(=O)(=O)N2CCCCC2)cc1 (nonaromatic ring conformer: 81.47189451601368 kcal/mol)

>  <smiles>  (29) 
O=C(Nn1c(O)ccc1O)c1ccc(S(=O)(=O)N2CCCCC2)cc1

>  <score_type>  (29) 
oracle

>  <origin>  (29) 
adgpu

>  <m_score__min__energy>  (29) 
-14.93

>  <m_primary>  (29) 
energy

$$$$
29:0
     RDKit          3D

 46 49  0  0  0  0  0  0  0  0999 V2000
   -6.8650   25.4060  -29.7210 C   0  0  0  0  0  0  0  0  0  0  0  0
   -6.0360   24.3730  -30.3410 N   0  0  0  0  0  0  0  0  0  0  0  0
   -4.7410   24.4980  -30.7300 C   0  0  0  0  0  0  0  0  0  0  0  0
   -3.9750   25.6520  -30.5750 O   0  0  0  0  0  0  0  0  0  0  0  0
   -4.2700   23.3290  -31.3120 C   0  0  0  0  0  0  0  0  0  0  0  0
   -5.3440   22.4660  -31.2870 C   0  0  0  0  0  0  0  0  0  0  0  0
   -5.4460   21.1510  -31.7330 C   0  0  0  0  0  0  0  0  0  0  0  0
   -6.6780   20.4870  -31.5690 C   0  0  0  0  0  0  0  0  0  0  0  0
   -6.8420   18.7960  -32.0450 S   0  0  0  0  0  0  0  0  0  0  0  0
   -8.2720   18.3720  -31.8550 O   0  0  0  0  0  0  0  0  0  0  0  0
   -5.9860   17.9430  -31.1510 O   0  0  0  0  0  0  0  0  0  0  0  0
   -6.3690   18.5310  -33.7110 N   0  0  0  0  0  0  0  0  0  0  0  0
   -4.9600   18.9170  -33.9780 C   0  0  0  0  0  0  0  0  0  0  0  0
   -4.1530   17.8170  -34.6690 C   0  0  0  0  0  0  0  0  0  0  0  0
   -4.3900   16.5540  -33.9690 N   0  0  0  0  0  0  0  0  0  0  0  0
   -3.3720   16.0050  -33.0990 C   0  0  0  0  0  0  0  0  0  0  0  0
   -2.4220   16.7400  -32.7120 O   0  0  0  0  0  0  0  0  0  0  0  0
   -3.4160   14.6180  -32.5950 C   0  0  0  0  0  0  0  0  0  0  0  0
   -4.3960   14.0410  -31.8080 C   0  0  0  0  0  0  0  0  0  0  0  0
   -3.9980   12.7370  -31.6140 C   0  0  0  0  0  0  0  0  0  0  0  0
   -2.8110   12.5930  -32.3000 C   0  0  0  0  0  0  0  0  0  0  0  0
   -2.4940   13.7270  -32.8770 O   0  0  0  0  0  0  0  0  0  0  0  0
   -5.7790   16.0780  -33.9050 C   0  0  0  0  0  0  0  0  0  0  0  0
   -6.7870   17.2030  -34.2170 C   0  0  0  0  0  0  0  0  0  0  0  0
   -7.7790   21.1750  -31.0030 C   0  0  0  0  0  0  0  0  0  0  0  0
   -7.6460   22.5030  -30.5600 C   0  0  0  0  0  0  0  0  0  0  0  0
   -6.4010   23.1240  -30.7070 C   0  0  0  0  0  0  0  0  0  0  0  0
   -6.7977   25.3221  -28.6263 H   0  0  0  0  0  0  0  0  0  0  0  0
   -6.5100   26.3986  -30.0352 H   0  0  0  0  0  0  0  0  0  0  0  0
   -7.9109   25.2743  -30.0352 H   0  0  0  0  0  0  0  0  0  0  0  0
   -2.9930   25.6770  -30.8150 H   0  0  0  0  0  0  0  0  0  0  0  0
   -3.2617   23.1345  -31.7062 H   0  0  0  0  0  0  0  0  0  0  0  0
   -4.5887   20.6445  -32.2004 H   0  0  0  0  0  0  0  0  0  0  0  0
   -4.9582   19.8087  -34.6222 H   0  0  0  0  0  0  0  0  0  0  0  0
   -4.4842   19.1083  -33.0049 H   0  0  0  0  0  0  0  0  0  0  0  0
   -4.4733   17.7254  -35.7173 H   0  0  0  0  0  0  0  0  0  0  0  0
   -3.0816   18.0650  -34.6441 H   0  0  0  0  0  0  0  0  0  0  0  0
   -5.3045   14.5234  -31.4181 H   0  0  0  0  0  0  0  0  0  0  0  0
   -4.5215   11.9660  -31.0296 H   0  0  0  0  0  0  0  0  0  0  0  0
   -2.2195   11.6672  -32.3550 H   0  0  0  0  0  0  0  0  0  0  0  0
   -5.9116   15.2683  -34.6376 H   0  0  0  0  0  0  0  0  0  0  0  0
   -5.9708   15.7222  -32.8820 H   0  0  0  0  0  0  0  0  0  0  0  0
   -6.9077   17.2689  -35.3084 H   0  0  0  0  0  0  0  0  0  0  0  0
   -7.7267   16.9447  -33.7070 H   0  0  0  0  0  0  0  0  0  0  0  0
   -8.7490   20.6649  -30.9089 H   0  0  0  0  0  0  0  0  0  0  0  0
   -8.4959   23.0378  -30.1111 H   0  0  0  0  0  0  0  0  0  0  0  0
  1  2  1  0
  2  3  1  0
  3  4  1  0
  3  5  2  0
  5  6  1  0
  6  7  2  0
  7  8  1  0
  8  9  1  0
  9 10  2  0
  9 11  2  0
  9 12  1  0
 12 13  1  0
 13 14  1  0
 14 15  1  0
 15 16  1  0
 16 17  2  0
 16 18  1  0
 18 19  2  0
 19 20  1  0
 20 21  2  0
 21 22  1  0
 15 23  1  0
 23 24  1  0
  8 25  2  0
 25 26  1  0
 26 27  2  0
 27  2  1  0
 27  6  1  0
 24 12  1  0
 22 18  1  0
  1 28  1  0
  1 29  1  0
  1 30  1  0
  4 31  1  0
  5 32  1  0
  7 33  1  0
 13 34  1  0
 13 35  1  0
 14 36  1  0
 14 37  1  0
 19 38  1  0
 20 39  1  0
 21 40  1  0
 23 41  1  0
 23 42  1  0
 24 43  1  0
 24 44  1  0
 25 45  1  0
 26 46  1  0
M  END
>  <UniqueID>  (30) 
29

>  <SMILES>  (30) 
Cn1c(O)cc2cc(S(=O)(=O)N3CCN(C(=O)c4ccco4)CC3)ccc21

>  <Energy>  (30) 
115.98907390329583

>  <Genealogy>  (30) 
Cn1c(O)cc2cc(S(=O)(=O)N3CCN(C(=O)c4ccco4)CC3)ccc21 (3D coordinates assigned)
Cn1c(O)cc2cc(S(=O)(=O)N3CCN(C(=O)c4ccco4)CC3)ccc21 (nonaromatic ring conformer: 115.98907390329583 kcal/mol)

>  <smiles>  (30) 
Cn1c(O)cc2cc(S(=O)(=O)N3CCN(C(=O)c4ccco4)CC3)ccc21

>  <score_type>  (30) 
oracle

>  <origin>  (30) 
adgpu

>  <m_score__min__energy>  (30) 
-9.5299999999999994

>  <m_primary>  (30) 
energy

$$$$
30:0
     RDKit          3D

 38 40  0  0  0  0  0  0  0  0999 V2000
   -4.6050   13.8420  -33.0740 N   0  0  0  0  0  0  0  0  0  0  0  0
   -5.0020   14.9260  -33.1530 C   0  0  0  0  0  0  0  0  0  0  0  0
   -5.4970   16.2760  -33.2520 C   0  0  0  0  0  0  0  0  0  0  0  0
   -6.4910   16.7080  -32.3640 C   0  0  0  0  0  0  0  0  0  0  0  0
   -6.9860   18.0120  -32.4410 C   0  0  0  0  0  0  0  0  0  0  0  0
   -6.4820   18.9060  -33.4020 C   0  0  0  0  0  0  0  0  0  0  0  0
   -6.9640   20.2180  -33.5210 O   0  0  0  0  0  0  0  0  0  0  0  0
   -6.5690   21.3050  -32.7240 C   0  0  0  0  0  0  0  0  0  0  0  0
   -5.2380   21.7580  -32.7140 C   0  0  0  0  0  0  0  0  0  0  0  0
   -4.8680   22.8480  -31.9220 C   0  0  0  0  0  0  0  0  0  0  0  0
   -5.8220   23.5040  -31.1360 C   0  0  0  0  0  0  0  0  0  0  0  0
   -5.3400   24.8610  -30.1230 S   0  0  0  0  0  0  0  0  0  0  0  0
   -6.5190   25.7460  -29.8270 O   0  0  0  0  0  0  0  0  0  0  0  0
   -4.2950   25.6630  -30.8450 O   0  0  0  0  0  0  0  0  0  0  0  0
   -4.6820   24.2800  -28.6260 N   0  0  0  0  0  0  0  0  0  0  0  0
   -3.4130   24.2800  -28.3460 C   0  0  0  0  0  0  0  0  0  0  0  0
   -2.5010   24.7470  -29.2450 N   0  0  0  0  0  0  0  0  0  0  0  0
   -1.1750   24.7570  -28.9580 C   0  0  0  0  0  0  0  0  0  0  0  0
   -0.7270   24.2830  -27.7280 C   0  0  0  0  0  0  0  0  0  0  0  0
   -1.6680   23.8060  -26.8170 C   0  0  0  0  0  0  0  0  0  0  0  0
   -2.9900   23.8100  -27.1390 N   0  0  0  0  0  0  0  0  0  0  0  0
   -7.1560   23.0750  -31.1630 C   0  0  0  0  0  0  0  0  0  0  0  0
   -7.5320   21.9840  -31.9570 C   0  0  0  0  0  0  0  0  0  0  0  0
   -8.9080   21.5560  -31.9680 C   0  0  0  0  0  0  0  0  0  0  0  0
  -10.0120   21.2120  -31.9770 N   0  0  0  0  0  0  0  0  0  0  0  0
   -5.5030   18.4660  -34.3000 C   0  0  0  0  0  0  0  0  0  0  0  0
   -5.0030   17.1610  -34.2270 C   0  0  0  0  0  0  0  0  0  0  0  0
   -3.7620   16.6630  -35.3730 Cl  0  0  0  0  0  0  0  0  0  0  0  0
   -6.8832   16.0174  -31.6030 H   0  0  0  0  0  0  0  0  0  0  0  0
   -7.7734   18.3408  -31.7468 H   0  0  0  0  0  0  0  0  0  0  0  0
   -4.4834   21.2512  -33.3335 H   0  0  0  0  0  0  0  0  0  0  0  0
   -3.8231   23.1917  -31.9163 H   0  0  0  0  0  0  0  0  0  0  0  0
   -0.4547   25.1392  -29.6963 H   0  0  0  0  0  0  0  0  0  0  0  0
    0.3449   24.2849  -27.4808 H   0  0  0  0  0  0  0  0  0  0  0  0
   -1.3418   23.4262  -25.8375 H   0  0  0  0  0  0  0  0  0  0  0  0
   -3.6830   23.4500  -26.4430 H   0  0  0  0  0  0  0  0  0  0  0  0
   -7.9114   23.5976  -30.5577 H   0  0  0  0  0  0  0  0  0  0  0  0
   -5.1228   19.1526  -35.0707 H   0  0  0  0  0  0  0  0  0  0  0  0
  1  2  3  0
  2  3  1  0
  3  4  2  0
  4  5  1  0
  5  6  2  0
  6  7  1  0
  7  8  1  0
  8  9  2  0
  9 10  1  0
 10 11  2  0
 11 12  1  0
 12 13  2  0
 12 14  2  0
 12 15  1  0
 15 16  2  3
 16 17  1  0
 17 18  2  0
 18 19  1  0
 19 20  2  0
 20 21  1  0
 11 22  1  0
 22 23  2  0
 23 24  1  0
 24 25  3  0
  6 26  1  0
 26 27  2  0
 27 28  1  0
 27  3  1  0
 23  8  1  0
 21 16  1  0
  4 29  1  0
  5 30  1  0
  9 31  1  0
 10 32  1  0
 18 33  1  0
 19 34  1  0
 20 35  1  0
 21 36  1  0
 22 37  1  0
 26 38  1  0
M  END
>  <UniqueID>  (31) 
30

>  <SMILES>  (31) 
N#Cc1ccc(Oc2ccc(S(=O)(=O)N=c3nccc[nH]3)cc2C#N)cc1Cl

>  <Energy>  (31) 
50.655020508339405

>  <Genealogy>  (31) 
N#Cc1ccc(Oc2ccc(S(=O)(=O)N=c3nccc[nH]3)cc2C#N)cc1Cl (3D coordinates assigned)
N#Cc1ccc(Oc2ccc(S(=O)(=O)N=c3nccc[nH]3)cc2C#N)cc1Cl (optimized conformer: 50.655020508339405 kcal/mol)

>  <smiles>  (31) 
N#Cc1ccc(Oc2ccc(S(=O)(=O)N=c3nccc[nH]3)cc2C#N)cc1Cl

>  <score_type>  (31) 
oracle

>  <origin>  (31) 
adgpu

>  <m_score__min__energy>  (31) 
-9.9800000000000004

>  <m_primary>  (31) 
energy

$$$$
31:0
     RDKit          3D

 47 49  0  0  0  0  0  0  0  0999 V2000
   -1.2860   26.6420  -24.5350 C   0  0  0  0  0  0  0  0  0  0  0  0
   -1.5010   26.0220  -25.8830 C   0  0  0  0  0  0  0  0  0  0  0  0
   -0.6690   26.3660  -26.9600 C   0  0  0  0  0  0  0  0  0  0  0  0
   -0.8950   25.8180  -28.2260 C   0  0  0  0  0  0  0  0  0  0  0  0
   -1.9480   24.9210  -28.4240 C   0  0  0  0  0  0  0  0  0  0  0  0
   -2.7850   24.5740  -27.3570 C   0  0  0  0  0  0  0  0  0  0  0  0
   -4.1620   23.4570  -27.6310 S   0  0  0  0  0  0  0  0  0  0  0  0
   -3.3310   22.5120  -28.9200 C   0  0  0  0  0  0  0  0  0  0  0  0
   -2.2600   21.6980  -28.5210 C   0  0  0  0  0  0  0  0  0  0  0  0
   -1.5700   20.9190  -29.4490 C   0  0  0  0  0  0  0  0  0  0  0  0
   -1.9540   20.9300  -30.7890 C   0  0  0  0  0  0  0  0  0  0  0  0
   -3.0270   21.7190  -31.2000 C   0  0  0  0  0  0  0  0  0  0  0  0
   -3.7310   22.5160  -30.2820 C   0  0  0  0  0  0  0  0  0  0  0  0
   -5.0480   23.5140  -30.9260 S   0  0  0  0  0  0  0  0  0  0  0  0
   -6.1730   23.5550  -29.9340 O   0  0  0  0  0  0  0  0  0  0  0  0
   -4.6090   24.9300  -31.1740 O   0  0  0  0  0  0  0  0  0  0  0  0
   -5.6000   22.8180  -32.4130 N   0  0  0  0  0  0  0  0  0  0  0  0
   -6.2760   21.5580  -32.4090 C   0  0  0  0  0  0  0  0  0  0  0  0
   -5.8060   20.3440  -32.8740 C   0  0  0  0  0  0  0  0  0  0  0  0
   -4.4580   20.0560  -33.4490 C   0  0  0  0  0  0  0  0  0  0  0  0
   -6.7880   19.4260  -32.7750 N   0  0  0  0  0  0  0  0  0  0  0  0
   -7.8500   20.0220  -32.2500 N   0  0  0  0  0  0  0  0  0  0  0  0
   -9.1200   19.3400  -32.0230 C   0  0  0  0  0  0  0  0  0  0  0  0
   -7.5750   21.3250  -32.0150 C   0  0  0  0  0  0  0  0  0  0  0  0
   -8.5350   22.3500  -31.4950 C   0  0  0  0  0  0  0  0  0  0  0  0
   -2.5760   25.1460  -26.0940 C   0  0  0  0  0  0  0  0  0  0  0  0
   -1.5389   25.9126  -23.7514 H   0  0  0  0  0  0  0  0  0  0  0  0
   -0.2321   26.9399  -24.4323 H   0  0  0  0  0  0  0  0  0  0  0  0
   -1.9292   27.5284  -24.4323 H   0  0  0  0  0  0  0  0  0  0  0  0
    0.1633   27.0689  -26.8073 H   0  0  0  0  0  0  0  0  0  0  0  0
   -0.2427   26.0934  -29.0679 H   0  0  0  0  0  0  0  0  0  0  0  0
   -2.1195   24.4868  -29.4200 H   0  0  0  0  0  0  0  0  0  0  0  0
   -1.9610   21.6741  -27.4627 H   0  0  0  0  0  0  0  0  0  0  0  0
   -0.7234   20.2963  -29.1240 H   0  0  0  0  0  0  0  0  0  0  0  0
   -1.4102   20.3160  -31.5220 H   0  0  0  0  0  0  0  0  0  0  0  0
   -3.3269   21.7176  -32.2583 H   0  0  0  0  0  0  0  0  0  0  0  0
   -5.1110   23.1050  -33.2890 H   0  0  0  0  0  0  0  0  0  0  0  0
   -3.7366   19.9019  -32.6330 H   0  0  0  0  0  0  0  0  0  0  0  0
   -4.5099   19.1487  -34.0687 H   0  0  0  0  0  0  0  0  0  0  0  0
   -4.1346   20.9053  -34.0687 H   0  0  0  0  0  0  0  0  0  0  0  0
   -9.2970   19.2450  -30.9415 H   0  0  0  0  0  0  0  0  0  0  0  0
   -9.9351   19.9217  -32.4782 H   0  0  0  0  0  0  0  0  0  0  0  0
   -9.0853   18.3392  -32.4782 H   0  0  0  0  0  0  0  0  0  0  0  0
   -8.5239   22.3381  -30.3951 H   0  0  0  0  0  0  0  0  0  0  0  0
   -8.2376   23.3463  -31.8540 H   0  0  0  0  0  0  0  0  0  0  0  0
   -9.5487   22.1184  -31.8540 H   0  0  0  0  0  0  0  0  0  0  0  0
   -3.2581   24.9067  -25.2649 H   0  0  0  0  0  0  0  0  0  0  0  0
  1  2  1  0
  2  3  2  0
  3  4  1  0
  4  5  2  0
  5  6  1  0
  6  7  1  0
  7  8  1  0
  8  9  2  0
  9 10  1  0
 10 11  2  0
 11 12  1  0
 12 13  2  0
 13 14  1  0
 14 15  2  0
 14 16  2  0
 14 17  1  0
 17 18  1  0
 18 19  1  0
 19 20  1  0
 19 21  2  0
 21 22  1  0
 22 23  1  0
 22 24  1  0
 24 25  1  0
  6 26  2  0
 26  2  1  0
 13  8  1  0
 24 18  2  0
  1 27  1  0
  1 28  1  0
  1 29  1  0
  3 30  1  0
  4 31  1  0
  5 32  1  0
  9 33  1  0
 10 34  1  0
 11 35  1  0
 12 36  1  0
 17 37  1  0
 20 38  1  0
 20 39  1  0
 20 40  1  0
 23 41  1  0
 23 42  1  0
 23 43  1  0
 25 44  1  0
 25 45  1  0
 25 46  1  0
 26 47  1  0
M  END
>  <UniqueID>  (32) 
31

>  <SMILES>  (32) 
Cc1cccc(Sc2ccccc2S(=O)(=O)Nc2c(C)nn(C)c2C)c1

>  <Energy>  (32) 
79.59533040231905

>  <Genealogy>  (32) 
Cc1cccc(Sc2ccccc2S(=O)(=O)Nc2c(C)nn(C)c2C)c1 (3D coordinates assigned)
Cc1cccc(Sc2ccccc2S(=O)(=O)Nc2c(C)nn(C)c2C)c1 (optimized conformer: 79.59533040231905 kcal/mol)

>  <smiles>  (32) 
Cc1cccc(Sc2ccccc2S(=O)(=O)Nc2c(C)nn(C)c2C)c1

>  <score_type>  (32) 
oracle

>  <origin>  (32) 
adgpu

>  <m_score__min__energy>  (32) 
-9.4100000000000001

>  <m_primary>  (32) 
energy

$$$$
32:0
     RDKit          3D

 62 65  0  0  0  0  0  0  0  0999 V2000
   -1.0860   19.2780  -33.3020 C   0  0  0  0  0  0  0  0  0  0  0  0
   -2.4810   19.7560  -32.9900 C   0  0  0  0  0  0  0  0  0  0  0  0
   -3.5420   19.3380  -33.8110 C   0  0  0  0  0  0  0  0  0  0  0  0
   -4.8480   19.7510  -33.5530 C   0  0  0  0  0  0  0  0  0  0  0  0
   -5.1190   20.5930  -32.4700 C   0  0  0  0  0  0  0  0  0  0  0  0
   -6.7800   21.0490  -32.0890 S   0  0  0  0  0  0  0  0  0  0  0  0
   -7.2410   20.2680  -30.8900 O   0  0  0  0  0  0  0  0  0  0  0  0
   -7.6620   20.6720  -33.2480 O   0  0  0  0  0  0  0  0  0  0  0  0
   -6.9560   22.7640  -31.7740 N   0  0  0  0  0  0  0  0  0  0  0  0
   -5.8400   23.5870  -32.3000 C   0  0  0  0  0  0  0  0  0  0  0  0
   -5.0750   24.3750  -31.2210 C   0  0  0  0  0  0  0  0  0  0  0  0
   -4.8680   23.5060  -29.9770 C   0  0  0  0  0  0  0  0  0  0  0  0
   -3.9420   24.1640  -28.9800 C   0  0  0  0  0  0  0  0  0  0  0  0
   -4.0910   23.9770  -27.7400 O   0  0  0  0  0  0  0  0  0  0  0  0
   -2.8290   24.9290  -29.4570 N   0  0  0  0  0  0  0  0  0  0  0  0
   -1.7920   25.4660  -28.5830 C   0  0  0  0  0  0  0  0  0  0  0  0
   -1.0880   24.3380  -27.8760 C   0  0  0  0  0  0  0  0  0  0  0  0
   -0.0170   23.6650  -28.4910 C   0  0  0  0  0  0  0  0  0  0  0  0
    0.6730   22.6600  -27.8020 C   0  0  0  0  0  0  0  0  0  0  0  0
    0.3010   22.3220  -26.4970 C   0  0  0  0  0  0  0  0  0  0  0  0
   -0.7630   22.9880  -25.8790 C   0  0  0  0  0  0  0  0  0  0  0  0
   -1.4510   23.9980  -26.5620 C   0  0  0  0  0  0  0  0  0  0  0  0
   -6.2350   23.1130  -29.3680 C   0  0  0  0  0  0  0  0  0  0  0  0
   -7.3860   23.0680  -30.3950 C   0  0  0  0  0  0  0  0  0  0  0  0
   -4.0640   21.0530  -31.6730 C   0  0  0  0  0  0  0  0  0  0  0  0
   -2.7440   20.6340  -31.9090 C   0  0  0  0  0  0  0  0  0  0  0  0
   -1.4530   21.1960  -30.8300 S   0  0  0  0  0  0  0  0  0  0  0  0
   -1.5340   22.6920  -30.6880 O   0  0  0  0  0  0  0  0  0  0  0  0
   -0.1150   20.8350  -31.4120 O   0  0  0  0  0  0  0  0  0  0  0  0
   -1.5700   20.4620  -29.2290 C   0  0  0  0  0  0  0  0  0  0  0  0
   -2.6690   20.7530  -28.4050 C   0  0  0  0  0  0  0  0  0  0  0  0
   -2.7620   20.1850  -27.1290 C   0  0  0  0  0  0  0  0  0  0  0  0
   -1.7580   19.3230  -26.6720 C   0  0  0  0  0  0  0  0  0  0  0  0
   -0.6580   19.0320  -27.4870 C   0  0  0  0  0  0  0  0  0  0  0  0
   -0.5610   19.6020  -28.7610 C   0  0  0  0  0  0  0  0  0  0  0  0
   -0.5436   19.0921  -32.3633 H   0  0  0  0  0  0  0  0  0  0  0  0
   -1.1393   18.3469  -33.8852 H   0  0  0  0  0  0  0  0  0  0  0  0
   -0.5570   20.0462  -33.8852 H   0  0  0  0  0  0  0  0  0  0  0  0
   -3.3396   18.6774  -34.6670 H   0  0  0  0  0  0  0  0  0  0  0  0
   -5.6683   19.4134  -34.2035 H   0  0  0  0  0  0  0  0  0  0  0  0
   -5.1291   22.9196  -32.8091 H   0  0  0  0  0  0  0  0  0  0  0  0
   -6.2865   24.3298  -32.9774 H   0  0  0  0  0  0  0  0  0  0  0  0
   -4.0955   24.6786  -31.6190 H   0  0  0  0  0  0  0  0  0  0  0  0
   -5.6603   25.2642  -30.9438 H   0  0  0  0  0  0  0  0  0  0  0  0
   -4.3635   22.5755  -30.2764 H   0  0  0  0  0  0  0  0  0  0  0  0
   -1.0644   26.0314  -29.1838 H   0  0  0  0  0  0  0  0  0  0  0  0
   -2.2528   26.1311  -27.8378 H   0  0  0  0  0  0  0  0  0  0  0  0
    0.2796   23.9290  -29.5168 H   0  0  0  0  0  0  0  0  0  0  0  0
    1.5089   22.1356  -28.2880 H   0  0  0  0  0  0  0  0  0  0  0  0
    0.8446   21.5330  -25.9567 H   0  0  0  0  0  0  0  0  0  0  0  0
   -1.0594   22.7176  -24.8548 H   0  0  0  0  0  0  0  0  0  0  0  0
   -2.2790   24.5275  -26.0680 H   0  0  0  0  0  0  0  0  0  0  0  0
   -6.1378   22.1165  -28.9125 H   0  0  0  0  0  0  0  0  0  0  0  0
   -6.4926   23.8895  -28.6327 H   0  0  0  0  0  0  0  0  0  0  0  0
   -8.1007   22.2942  -30.0782 H   0  0  0  0  0  0  0  0  0  0  0  0
   -7.8290   24.0746  -30.4171 H   0  0  0  0  0  0  0  0  0  0  0  0
   -4.2716   21.7527  -30.8500 H   0  0  0  0  0  0  0  0  0  0  0  0
   -3.4592   21.4293  -28.7632 H   0  0  0  0  0  0  0  0  0  0  0  0
   -3.6238   20.4159  -26.4855 H   0  0  0  0  0  0  0  0  0  0  0  0
   -1.8338   18.8737  -25.6708 H   0  0  0  0  0  0  0  0  0  0  0  0
    0.1303   18.3551  -27.1259 H   0  0  0  0  0  0  0  0  0  0  0  0
    0.3069   19.3767  -29.3981 H   0  0  0  0  0  0  0  0  0  0  0  0
  1  2  1  0
  2  3  2  0
  3  4  1  0
  4  5  2  0
  5  6  1  0
  6  7  2  0
  6  8  2  0
  6  9  1  0
  9 10  1  0
 10 11  1  0
 11 12  1  0
 12 13  1  0
 13 14  2  0
 13 15  1  0
 15 16  1  0
 16 17  1  0
 17 18  2  0
 18 19  1  0
 19 20  2  0
 20 21  1  0
 21 22  2  0
 12 23  1  0
 23 24  1  0
  5 25  1  0
 25 26  2  0
 26 27  1  0
 27 28  2  0
 27 29  2  0
 27 30  1  0
 30 31  2  0
 31 32  1  0
 32 33  2  0
 33 34  1  0
 34 35  2  0
 26  2  1  0
 35 30  1  0
 24  9  1  0
 22 17  1  0
  1 36  1  0
  1 37  1  0
  1 38  1  0
  3 39  1  0
  4 40  1  0
 10 41  1  0
 10 42  1  0
 11 43  1  0
 11 44  1  0
 12 45  1  0
 16 46  1  0
 16 47  1  0
 18 48  1  0
 19 49  1  0
 20 50  1  0
 21 51  1  0
 22 52  1  0
 23 53  1  0
 23 54  1  0
 24 55  1  0
 24 56  1  0
 25 57  1  0
 31 58  1  0
 32 59  1  0
 33 60  1  0
 34 61  1  0
 35 62  1  0
M  CHG  1  15  -1
M  END
>  <UniqueID>  (33) 
32

>  <SMILES>  (33) 
Cc1ccc(S(=O)(=O)N2CCC(C(=O)[N-]Cc3ccccc3)CC2)cc1S(=O)(=O)c1ccccc1

>  <Energy>  (33) 
72.9087323869653

>  <Genealogy>  (33) 
Cc1ccc(S(=O)(=O)N2CCC(C(=O)[N-]Cc3ccccc3)CC2)cc1S(=O)(=O)c1ccccc1 (protonated)
Cc1ccc(S(=O)(=O)N2CCC(C(=O)[N-]Cc3ccccc3)CC2)cc1S(=O)(=O)c1ccccc1 (3D coordinates assigned)
Cc1ccc(S(=O)(=O)N2CCC(C(=O)[N-]Cc3ccccc3)CC2)cc1S(=O)(=O)c1ccccc1 (nonaromatic ring conformer: 72.9087323869653 kcal/mol)

>  <smiles>  (33) 
Cc1ccc(S(=O)(=O)N2CCC(C(=O)NCc3ccccc3)CC2)cc1S(=O)(=O)c1ccccc1

>  <score_type>  (33) 
oracle

>  <origin>  (33) 
adgpu

>  <m_score__min__energy>  (33) 
-13.029999999999999

>  <m_primary>  (33) 
energy

$$$$
33:0
     RDKit          3D

 64 67  0  0  0  0  0  0  0  0999 V2000
   -2.4190   19.0230  -26.0190 C   0  0  0  0  0  0  0  0  0  0  0  0
   -2.1610   19.6720  -27.3550 C   0  0  0  0  0  0  0  0  0  0  0  0
   -3.0080   20.7020  -27.7960 C   0  0  0  0  0  0  0  0  0  0  0  0
   -2.7880   21.3260  -29.0240 C   0  0  0  0  0  0  0  0  0  0  0  0
   -1.7260   20.9190  -29.8450 C   0  0  0  0  0  0  0  0  0  0  0  0
   -1.4570   21.5550  -31.1030 N   0  0  0  0  0  0  0  0  0  0  0  0
   -2.1540   21.3300  -32.3360 C   0  0  0  0  0  0  0  0  0  0  0  0
   -2.8910   22.2470  -32.7850 O   0  0  0  0  0  0  0  0  0  0  0  0
   -1.9920   20.0810  -33.1160 C   0  0  0  0  0  0  0  0  0  0  0  0
   -0.7210   19.6140  -33.4790 C   0  0  0  0  0  0  0  0  0  0  0  0
   -0.5940   18.4390  -34.2170 C   0  0  0  0  0  0  0  0  0  0  0  0
   -1.7390   17.7350  -34.5900 C   0  0  0  0  0  0  0  0  0  0  0  0
   -2.9790   18.1880  -34.2340 N   0  0  0  0  0  0  0  0  0  0  0  0
   -4.1710   17.4440  -34.6580 C   0  0  0  0  0  0  0  0  0  0  0  0
   -5.4160   18.1840  -34.2650 C   0  0  0  0  0  0  0  0  0  0  0  0
   -6.0990   18.7560  -35.1570 O   0  0  0  0  0  0  0  0  0  0  0  0
   -5.8350   18.2130  -32.8900 N   0  0  0  0  0  0  0  0  0  0  0  0
   -6.8670   19.0730  -32.3740 C   0  0  0  0  0  0  0  0  0  0  0  0
   -8.1210   18.5690  -31.9810 C   0  0  0  0  0  0  0  0  0  0  0  0
   -9.1110   19.4330  -31.5060 C   0  0  0  0  0  0  0  0  0  0  0  0
   -8.8700   20.8060  -31.4330 C   0  0  0  0  0  0  0  0  0  0  0  0
   -7.6360   21.3250  -31.8460 C   0  0  0  0  0  0  0  0  0  0  0  0
   -7.3450   23.0630  -31.8150 S   0  0  0  0  0  0  0  0  0  0  0  0
   -6.4720   23.4470  -32.9760 O   0  0  0  0  0  0  0  0  0  0  0  0
   -8.6640   23.7670  -31.9650 O   0  0  0  0  0  0  0  0  0  0  0  0
   -6.6090   23.5180  -30.2910 N   0  0  0  0  0  0  0  0  0  0  0  0
   -5.2720   22.9250  -30.1040 C   0  0  0  0  0  0  0  0  0  0  0  0
   -4.1780   23.7200  -30.8310 C   0  0  0  0  0  0  0  0  0  0  0  0
   -4.1950   25.0740  -30.4310 O   0  0  0  0  0  0  0  0  0  0  0  0
   -5.4230   25.6600  -30.8070 C   0  0  0  0  0  0  0  0  0  0  0  0
   -6.6000   24.9800  -30.0890 C   0  0  0  0  0  0  0  0  0  0  0  0
   -6.6440   20.4590  -32.3240 C   0  0  0  0  0  0  0  0  0  0  0  0
   -3.1180   19.3490  -33.5250 C   0  0  0  0  0  0  0  0  0  0  0  0
   -0.8640   19.9110  -29.4030 C   0  0  0  0  0  0  0  0  0  0  0  0
   -1.0710   19.2750  -28.1650 C   0  0  0  0  0  0  0  0  0  0  0  0
   -0.1250   18.1890  -27.7250 C   0  0  0  0  0  0  0  0  0  0  0  0
   -2.1422   19.7192  -25.2136 H   0  0  0  0  0  0  0  0  0  0  0  0
   -3.4861   18.7699  -25.9343 H   0  0  0  0  0  0  0  0  0  0  0  0
   -1.8169   18.1063  -25.9343 H   0  0  0  0  0  0  0  0  0  0  0  0
   -3.8528   21.0196  -27.1671 H   0  0  0  0  0  0  0  0  0  0  0  0
   -3.4506   22.1412  -29.3501 H   0  0  0  0  0  0  0  0  0  0  0  0
    0.1767   20.1756  -33.1810 H   0  0  0  0  0  0  0  0  0  0  0  0
    0.4017   18.0693  -34.5033 H   0  0  0  0  0  0  0  0  0  0  0  0
   -1.6436   16.8083  -35.1750 H   0  0  0  0  0  0  0  0  0  0  0  0
   -4.1520   17.3212  -35.7510 H   0  0  0  0  0  0  0  0  0  0  0  0
   -4.1708   16.4595  -34.1673 H   0  0  0  0  0  0  0  0  0  0  0  0
   -5.4230   17.5040  -32.2430 H   0  0  0  0  0  0  0  0  0  0  0  0
   -8.3226   17.4897  -32.0481 H   0  0  0  0  0  0  0  0  0  0  0  0
  -10.0839   19.0298  -31.1884 H   0  0  0  0  0  0  0  0  0  0  0  0
   -9.6498   21.4811  -31.0508 H   0  0  0  0  0  0  0  0  0  0  0  0
   -5.0404   22.9054  -29.0288 H   0  0  0  0  0  0  0  0  0  0  0  0
   -5.2904   21.9102  -30.5282 H   0  0  0  0  0  0  0  0  0  0  0  0
   -3.1963   23.2852  -30.5917 H   0  0  0  0  0  0  0  0  0  0  0  0
   -4.3645   23.6690  -31.9139 H   0  0  0  0  0  0  0  0  0  0  0  0
   -5.4083   26.7276  -30.5422 H   0  0  0  0  0  0  0  0  0  0  0  0
   -5.5540   25.5341  -31.8919 H   0  0  0  0  0  0  0  0  0  0  0  0
   -6.5250   25.1879  -29.0114 H   0  0  0  0  0  0  0  0  0  0  0  0
   -7.5315   25.3843  -30.5118 H   0  0  0  0  0  0  0  0  0  0  0  0
   -5.6811   20.8683  -32.6635 H   0  0  0  0  0  0  0  0  0  0  0  0
   -4.1244   19.7139  -33.2720 H   0  0  0  0  0  0  0  0  0  0  0  0
   -0.0125   19.6110  -30.0315 H   0  0  0  0  0  0  0  0  0  0  0  0
   -0.0937   18.1531  -26.6260 H   0  0  0  0  0  0  0  0  0  0  0  0
   -0.4724   17.2204  -28.1138 H   0  0  0  0  0  0  0  0  0  0  0  0
    0.8821   18.4003  -28.1138 H   0  0  0  0  0  0  0  0  0  0  0  0
  1  2  1  0
  2  3  2  0
  3  4  1  0
  4  5  2  0
  5  6  1  0
  6  7  1  0
  7  8  2  0
  7  9  1  0
  9 10  2  0
 10 11  1  0
 11 12  2  0
 12 13  1  0
 13 14  1  0
 14 15  1  0
 15 16  2  0
 15 17  1  0
 17 18  1  0
 18 19  2  0
 19 20  1  0
 20 21  2  0
 21 22  1  0
 22 23  1  0
 23 24  2  0
 23 25  2  0
 23 26  1  0
 26 27  1  0
 27 28  1  0
 28 29  1  0
 29 30  1  0
 30 31  1  0
 22 32  2  0
 13 33  2  0
  5 34  1  0
 34 35  2  0
 35 36  1  0
 35  2  1  0
 33  9  1  0
 32 18  1  0
 31 26  1  0
  1 37  1  0
  1 38  1  0
  1 39  1  0
  3 40  1  0
  4 41  1  0
 10 42  1  0
 11 43  1  0
 12 44  1  0
 14 45  1  0
 14 46  1  0
 17 47  1  0
 19 48  1  0
 20 49  1  0
 21 50  1  0
 27 51  1  0
 27 52  1  0
 28 53  1  0
 28 54  1  0
 30 55  1  0
 30 56  1  0
 31 57  1  0
 31 58  1  0
 32 59  1  0
 33 60  1  0
 34 61  1  0
 36 62  1  0
 36 63  1  0
 36 64  1  0
M  CHG  2   6  -1  13   1
M  END
>  <UniqueID>  (34) 
33

>  <SMILES>  (34) 
Cc1ccc([N-]C(=O)c2ccc[n+](CC(=O)Nc3cccc(S(=O)(=O)N4CCOCC4)c3)c2)cc1C

>  <Energy>  (34) 
81.89384331650601

>  <Genealogy>  (34) 
Cc1ccc([N-]C(=O)c2ccc[n+](CC(=O)Nc3cccc(S(=O)(=O)N4CCOCC4)c3)c2)cc1C (protonated)
Cc1ccc([N-]C(=O)c2ccc[n+](CC(=O)Nc3cccc(S(=O)(=O)N4CCOCC4)c3)c2)cc1C (3D coordinates assigned)
Cc1ccc([N-]C(=O)c2ccc[n+](CC(=O)Nc3cccc(S(=O)(=O)N4CCOCC4)c3)c2)cc1C (nonaromatic ring conformer: 81.89384331650601 kcal/mol)

>  <smiles>  (34) 
Cc1ccc(NC(=O)c2ccc[n+](CC(=O)Nc3cccc(S(=O)(=O)N4CCOCC4)c3)c2)cc1C

>  <score_type>  (34) 
oracle

>  <origin>  (34) 
adgpu

>  <m_score__min__energy>  (34) 
-11.25

>  <m_primary>  (34) 
energy

$$$$
34:0
     RDKit          3D

 48 50  0  0  0  0  0  0  0  0999 V2000
   -5.7420   26.0660  -30.4750 C   0  0  0  0  0  0  0  0  0  0  0  0
   -5.4360   24.7380  -29.8520 C   0  0  0  0  0  0  0  0  0  0  0  0
   -5.3610   24.6730  -28.5950 O   0  0  0  0  0  0  0  0  0  0  0  0
   -5.2110   23.5480  -30.6450 N   0  0  0  0  0  0  0  0  0  0  0  0
   -3.8570   23.0810  -30.9890 C   0  0  0  0  0  0  0  0  0  0  0  0
   -3.0040   22.9170  -29.7520 C   0  0  0  0  0  0  0  0  0  0  0  0
   -2.8870   21.6560  -29.1410 C   0  0  0  0  0  0  0  0  0  0  0  0
   -2.0890   21.4900  -28.0050 C   0  0  0  0  0  0  0  0  0  0  0  0
   -1.9400   19.9070  -27.2630 Cl  0  0  0  0  0  0  0  0  0  0  0  0
   -1.4100   22.5830  -27.4610 C   0  0  0  0  0  0  0  0  0  0  0  0
   -1.5380   23.8450  -28.0450 C   0  0  0  0  0  0  0  0  0  0  0  0
   -2.3360   24.0200  -29.1810 C   0  0  0  0  0  0  0  0  0  0  0  0
   -2.4700   25.2940  -29.7220 O   0  0  0  0  0  0  0  0  0  0  0  0
   -6.3510   22.7960  -31.1060 C   0  0  0  0  0  0  0  0  0  0  0  0
   -7.5440   23.4580  -31.4390 C   0  0  0  0  0  0  0  0  0  0  0  0
   -8.6520   22.7320  -31.8810 C   0  0  0  0  0  0  0  0  0  0  0  0
   -8.5790   21.3420  -31.9970 C   0  0  0  0  0  0  0  0  0  0  0  0
   -7.3930   20.6700  -31.6700 C   0  0  0  0  0  0  0  0  0  0  0  0
   -7.2750   18.9190  -31.8350 S   0  0  0  0  0  0  0  0  0  0  0  0
   -8.5210   18.2660  -31.3030 O   0  0  0  0  0  0  0  0  0  0  0  0
   -6.1010   18.4430  -31.0250 O   0  0  0  0  0  0  0  0  0  0  0  0
   -7.0430   18.4960  -33.5180 N   0  0  0  0  0  0  0  0  0  0  0  0
   -6.6350   17.0930  -33.6620 C   0  0  0  0  0  0  0  0  0  0  0  0
   -5.1140   17.0550  -33.7020 C   0  0  0  0  0  0  0  0  0  0  0  0
   -4.6770   18.4790  -33.9990 C   0  0  0  0  0  0  0  0  0  0  0  0
   -5.9620   19.2890  -34.1170 C   0  0  0  0  0  0  0  0  0  0  0  0
   -6.2810   21.4000  -31.2310 C   0  0  0  0  0  0  0  0  0  0  0  0
   -5.9137   26.8111  -29.6842 H   0  0  0  0  0  0  0  0  0  0  0  0
   -4.8933   26.3825  -31.0991 H   0  0  0  0  0  0  0  0  0  0  0  0
   -6.6437   25.9792  -31.0991 H   0  0  0  0  0  0  0  0  0  0  0  0
   -3.9319   22.1120  -31.5041 H   0  0  0  0  0  0  0  0  0  0  0  0
   -3.3850   23.8314  -31.6403 H   0  0  0  0  0  0  0  0  0  0  0  0
   -3.4271   20.7940  -29.5597 H   0  0  0  0  0  0  0  0  0  0  0  0
   -0.7747   22.4496  -26.5729 H   0  0  0  0  0  0  0  0  0  0  0  0
   -1.0089   24.7057  -27.6099 H   0  0  0  0  0  0  0  0  0  0  0  0
   -7.6059   24.5528  -31.3513 H   0  0  0  0  0  0  0  0  0  0  0  0
   -9.5843   23.2560  -32.1384 H   0  0  0  0  0  0  0  0  0  0  0  0
   -9.4538   20.7735  -32.3456 H   0  0  0  0  0  0  0  0  0  0  0  0
   -7.9410   18.6660  -34.0280 H   0  0  0  0  0  0  0  0  0  0  0  0
   -7.0020   16.5065  -32.8068 H   0  0  0  0  0  0  0  0  0  0  0  0
   -7.0554   16.6621  -34.5827 H   0  0  0  0  0  0  0  0  0  0  0  0
   -4.7126   16.7245  -32.7326 H   0  0  0  0  0  0  0  0  0  0  0  0
   -4.7445   16.3494  -34.4607 H   0  0  0  0  0  0  0  0  0  0  0  0
   -4.0529   18.8671  -33.1806 H   0  0  0  0  0  0  0  0  0  0  0  0
   -4.0758   18.5356  -34.9184 H   0  0  0  0  0  0  0  0  0  0  0  0
   -5.8547   20.2430  -33.5800 H   0  0  0  0  0  0  0  0  0  0  0  0
   -6.1838   19.5104  -35.1714 H   0  0  0  0  0  0  0  0  0  0  0  0
   -5.3466   20.8755  -30.9826 H   0  0  0  0  0  0  0  0  0  0  0  0
  1  2  1  0
  2  3  2  0
  2  4  1  0
  4  5  1  0
  5  6  1  0
  6  7  2  0
  7  8  1  0
  8  9  1  0
  8 10  2  0
 10 11  1  0
 11 12  2  0
 12 13  1  0
  4 14  1  0
 14 15  2  0
 15 16  1  0
 16 17  2  0
 17 18  1  0
 18 19  1  0
 19 20  2  0
 19 21  2  0
 19 22  1  0
 22 23  1  0
 23 24  1  0
 24 25  1  0
 25 26  1  0
 18 27  2  0
 12  6  1  0
 27 14  1  0
 26 22  1  0
  1 28  1  0
  1 29  1  0
  1 30  1  0
  5 31  1  0
  5 32  1  0
  7 33  1  0
 10 34  1  0
 11 35  1  0
 15 36  1  0
 16 37  1  0
 17 38  1  0
 22 39  1  0
 23 40  1  0
 23 41  1  0
 24 42  1  0
 24 43  1  0
 25 44  1  0
 25 45  1  0
 26 46  1  0
 26 47  1  0
 27 48  1  0
M  CHG  2  13  -1  22   1
M  END
>  <UniqueID>  (35) 
34

>  <SMILES>  (35) 
CC(=O)N(Cc1cc(Cl)ccc1[O-])c1cccc(S(=O)(=O)[NH+]2CCCC2)c1

>  <Energy>  (35) 
55.47152809234713

>  <Genealogy>  (35) 
CC(=O)N(Cc1cc(Cl)ccc1[O-])c1cccc(S(=O)(=O)[NH+]2CCCC2)c1 (protonated)
CC(=O)N(Cc1cc(Cl)ccc1[O-])c1cccc(S(=O)(=O)[NH+]2CCCC2)c1 (3D coordinates assigned)
CC(=O)N(Cc1cc(Cl)ccc1[O-])c1cccc(S(=O)(=O)[NH+]2CCCC2)c1 (nonaromatic ring conformer: 55.47152809234713 kcal/mol)

>  <smiles>  (35) 
CC(=O)N(Cc1cc(Cl)ccc1O)c1cccc(S(=O)(=O)N2CCCC2)c1

>  <score_type>  (35) 
oracle

>  <origin>  (35) 
adgpu

>  <m_score__min__energy>  (35) 
-12.970000000000001

>  <m_primary>  (35) 
energy

$$$$
35:0
     RDKit          3D

 44 46  0  0  0  0  0  0  0  0999 V2000
    0.9840   22.3720  -27.2610 C   0  0  0  0  0  0  0  0  0  0  0  0
    0.6040   21.1140  -27.8100 O   0  0  0  0  0  0  0  0  0  0  0  0
   -0.0740   20.9550  -29.0280 C   0  0  0  0  0  0  0  0  0  0  0  0
   -0.2500   19.6980  -29.6360 C   0  0  0  0  0  0  0  0  0  0  0  0
   -0.9340   19.5940  -30.8520 C   0  0  0  0  0  0  0  0  0  0  0  0
   -1.4540   20.7380  -31.4700 C   0  0  0  0  0  0  0  0  0  0  0  0
   -2.3050   20.6010  -33.0050 S   0  0  0  0  0  0  0  0  0  0  0  0
   -2.1400   21.8750  -33.7860 O   0  0  0  0  0  0  0  0  0  0  0  0
   -1.7270   19.4440  -33.7720 O   0  0  0  0  0  0  0  0  0  0  0  0
   -3.9900   20.3320  -32.6940 N   0  0  0  0  0  0  0  0  0  0  0  0
   -4.9810   21.2980  -32.3040 C   0  0  0  0  0  0  0  0  0  0  0  0
   -4.5220   22.5170  -31.7920 C   0  0  0  0  0  0  0  0  0  0  0  0
   -5.4140   23.5240  -31.3750 C   0  0  0  0  0  0  0  0  0  0  0  0
   -4.8760   24.8010  -30.8310 C   0  0  0  0  0  0  0  0  0  0  0  0
   -5.6410   25.7850  -30.6340 O   0  0  0  0  0  0  0  0  0  0  0  0
   -3.4900   24.9040  -30.4770 N   0  0  0  0  0  0  0  0  0  0  0  0
   -2.9250   24.5540  -29.2050 C   0  0  0  0  0  0  0  0  0  0  0  0
   -3.4380   23.4390  -28.5300 C   0  0  0  0  0  0  0  0  0  0  0  0
   -2.9100   23.0570  -27.2930 C   0  0  0  0  0  0  0  0  0  0  0  0
   -1.8550   23.7780  -26.7290 C   0  0  0  0  0  0  0  0  0  0  0  0
   -1.3140   24.8710  -27.4110 C   0  0  0  0  0  0  0  0  0  0  0  0
   -1.8320   25.2550  -28.6530 C   0  0  0  0  0  0  0  0  0  0  0  0
   -1.2330   26.3040  -29.3400 O   0  0  0  0  0  0  0  0  0  0  0  0
   -6.8010   23.2900  -31.4900 C   0  0  0  0  0  0  0  0  0  0  0  0
   -7.7250   24.2580  -31.0940 O   0  0  0  0  0  0  0  0  0  0  0  0
   -7.2640   22.0760  -32.0120 C   0  0  0  0  0  0  0  0  0  0  0  0
   -6.3700   21.0840  -32.4240 C   0  0  0  0  0  0  0  0  0  0  0  0
   -6.8900   19.9140  -32.9600 O   0  0  0  0  0  0  0  0  0  0  0  0
   -1.2740   21.9900  -30.8700 C   0  0  0  0  0  0  0  0  0  0  0  0
   -0.5900   22.0960  -29.6550 C   0  0  0  0  0  0  0  0  0  0  0  0
    0.9662   22.3132  -26.1627 H   0  0  0  0  0  0  0  0  0  0  0  0
    1.9994   22.6275  -27.5981 H   0  0  0  0  0  0  0  0  0  0  0  0
    0.2799   23.1469  -27.5981 H   0  0  0  0  0  0  0  0  0  0  0  0
    0.1514   18.7946  -29.1537 H   0  0  0  0  0  0  0  0  0  0  0  0
   -1.0639   18.6093  -31.3247 H   0  0  0  0  0  0  0  0  0  0  0  0
   -3.4390   22.6927  -31.7134 H   0  0  0  0  0  0  0  0  0  0  0  0
   -4.2608   22.8607  -28.9756 H   0  0  0  0  0  0  0  0  0  0  0  0
   -3.3260   22.1874  -26.7632 H   0  0  0  0  0  0  0  0  0  0  0  0
   -1.4504   23.4856  -25.7488 H   0  0  0  0  0  0  0  0  0  0  0  0
   -0.4772   25.4321  -26.9696 H   0  0  0  0  0  0  0  0  0  0  0  0
   -7.4340   25.1310  -30.6690 H   0  0  0  0  0  0  0  0  0  0  0  0
   -8.3464   21.9007  -32.0990 H   0  0  0  0  0  0  0  0  0  0  0  0
   -1.6719   22.8931  -31.3558 H   0  0  0  0  0  0  0  0  0  0  0  0
   -0.4562   23.0830  -29.1882 H   0  0  0  0  0  0  0  0  0  0  0  0
  1  2  1  0
  2  3  1  0
  3  4  2  0
  4  5  1  0
  5  6  2  0
  6  7  1  0
  7  8  2  0
  7  9  2  0
  7 10  1  0
 10 11  1  0
 11 12  2  0
 12 13  1  0
 13 14  1  0
 14 15  2  0
 14 16  1  0
 16 17  1  0
 17 18  2  0
 18 19  1  0
 19 20  2  0
 20 21  1  0
 21 22  2  0
 22 23  1  0
 13 24  2  0
 24 25  1  0
 24 26  1  0
 26 27  2  0
 27 28  1  0
  6 29  1  0
 29 30  2  0
 30  3  1  0
 27 11  1  0
 22 17  1  0
  1 31  1  0
  1 32  1  0
  1 33  1  0
  4 34  1  0
  5 35  1  0
 12 36  1  0
 18 37  1  0
 19 38  1  0
 20 39  1  0
 21 40  1  0
 25 41  1  0
 26 42  1  0
 29 43  1  0
 30 44  1  0
M  CHG  4  10  -1  16  -1  23  -1  28  -1
M  END
>  <UniqueID>  (36) 
35

>  <SMILES>  (36) 
COc1ccc(S(=O)(=O)[N-]c2cc(C(=O)[N-]c3ccccc3[O-])c(O)cc2[O-])cc1

>  <Energy>  (36) 
61.96033260567375

>  <Genealogy>  (36) 
COc1ccc(S(=O)(=O)[N-]c2cc(C(=O)[N-]c3ccccc3[O-])c(O)cc2[O-])cc1 (protonated)
COc1ccc(S(=O)(=O)[N-]c2cc(C(=O)[N-]c3ccccc3[O-])c(O)cc2[O-])cc1 (3D coordinates assigned)
COc1ccc(S(=O)(=O)[N-]c2cc(C(=O)[N-]c3ccccc3[O-])c(O)cc2[O-])cc1 (optimized conformer: 61.96033260567375 kcal/mol)

>  <smiles>  (36) 
COc1ccc(S(=O)(=O)Nc2cc(C(=O)Nc3ccccc3O)c(O)cc2O)cc1

>  <score_type>  (36) 
oracle

>  <origin>  (36) 
adgpu

>  <m_score__min__energy>  (36) 
-12.31

>  <m_primary>  (36) 
energy

$$$$
36:0
     RDKit          3D

 41 43  0  0  0  0  0  0  0  0999 V2000
   -3.1020   21.3030  -27.7110 C   0  0  0  0  0  0  0  0  0  0  0  0
   -3.2480   22.7930  -28.0070 C   0  0  0  0  0  0  0  0  0  0  0  0
   -2.3240   23.2220  -29.1490 C   0  0  0  0  0  0  0  0  0  0  0  0
   -2.5270   24.6700  -29.4670 C   0  0  0  0  0  0  0  0  0  0  0  0
   -1.8460   25.5420  -28.8640 O   0  0  0  0  0  0  0  0  0  0  0  0
   -3.4890   25.0460  -30.4610 N   0  0  0  0  0  0  0  0  0  0  0  0
   -4.7990   24.4890  -30.6350 C   0  0  0  0  0  0  0  0  0  0  0  0
   -5.9550   25.0910  -30.0610 C   0  0  0  0  0  0  0  0  0  0  0  0
   -7.2250   24.5090  -30.2300 C   0  0  0  0  0  0  0  0  0  0  0  0
   -7.3010   23.3270  -30.9590 C   0  0  0  0  0  0  0  0  0  0  0  0
   -8.3820   22.5930  -31.2450 N   0  0  0  0  0  0  0  0  0  0  0  0
   -7.8850   21.5560  -31.9600 C   0  0  0  0  0  0  0  0  0  0  0  0
   -8.9090   20.2430  -32.6170 S   0  0  0  0  0  0  0  0  0  0  0  0
   -8.0600   18.9480  -31.6570 C   0  0  0  0  0  0  0  0  0  0  0  0
   -6.9530   18.3590  -32.4820 C   0  0  0  0  0  0  0  0  0  0  0  0
   -6.5440   18.9870  -33.6710 C   0  0  0  0  0  0  0  0  0  0  0  0
   -5.4910   18.4550  -34.4230 C   0  0  0  0  0  0  0  0  0  0  0  0
   -4.8340   17.2990  -33.9880 C   0  0  0  0  0  0  0  0  0  0  0  0
   -3.3950   16.5750  -35.0160 Br  0  0  0  0  0  0  0  0  0  0  0  0
   -5.2270   16.6780  -32.7990 C   0  0  0  0  0  0  0  0  0  0  0  0
   -6.2790   17.2070  -32.0450 C   0  0  0  0  0  0  0  0  0  0  0  0
   -6.5390   21.6010  -32.1370 N   0  0  0  0  0  0  0  0  0  0  0  0
   -6.1990   22.7320  -31.4930 C   0  0  0  0  0  0  0  0  0  0  0  0
   -4.9260   23.2780  -31.3470 C   0  0  0  0  0  0  0  0  0  0  0  0
   -3.0865   21.1452  -26.6225 H   0  0  0  0  0  0  0  0  0  0  0  0
   -3.9510   20.7573  -28.1486 H   0  0  0  0  0  0  0  0  0  0  0  0
   -2.1632   20.9325  -28.1486 H   0  0  0  0  0  0  0  0  0  0  0  0
   -4.2901   23.0024  -28.2903 H   0  0  0  0  0  0  0  0  0  0  0  0
   -2.9716   23.3569  -27.1039 H   0  0  0  0  0  0  0  0  0  0  0  0
   -1.2780   23.0596  -28.8496 H   0  0  0  0  0  0  0  0  0  0  0  0
   -2.5583   22.6239  -30.0420 H   0  0  0  0  0  0  0  0  0  0  0  0
   -5.8542   26.0196  -29.4801 H   0  0  0  0  0  0  0  0  0  0  0  0
   -8.1256   24.9724  -29.8008 H   0  0  0  0  0  0  0  0  0  0  0  0
   -9.3760   22.7760  -30.9800 H   0  0  0  0  0  0  0  0  0  0  0  0
   -7.6402   19.3870  -30.7399 H   0  0  0  0  0  0  0  0  0  0  0  0
   -8.7783   18.1589  -31.3899 H   0  0  0  0  0  0  0  0  0  0  0  0
   -7.0538   19.9003  -34.0116 H   0  0  0  0  0  0  0  0  0  0  0  0
   -5.1795   18.9459  -35.3568 H   0  0  0  0  0  0  0  0  0  0  0  0
   -4.7075   15.7712  -32.4557 H   0  0  0  0  0  0  0  0  0  0  0  0
   -6.5798   16.7191  -31.1061 H   0  0  0  0  0  0  0  0  0  0  0  0
   -4.0442   22.7787  -31.7750 H   0  0  0  0  0  0  0  0  0  0  0  0
  1  2  1  0
  2  3  1  0
  3  4  1  0
  4  5  2  0
  4  6  1  0
  6  7  1  0
  7  8  2  0
  8  9  1  0
  9 10  2  0
 10 11  1  0
 11 12  1  0
 12 13  1  0
 13 14  1  0
 14 15  1  0
 15 16  2  0
 16 17  1  0
 17 18  2  0
 18 19  1  0
 18 20  1  0
 20 21  2  0
 12 22  2  0
 22 23  1  0
 23 24  2  0
 24  7  1  0
 23 10  1  0
 21 15  1  0
  1 25  1  0
  1 26  1  0
  1 27  1  0
  2 28  1  0
  2 29  1  0
  3 30  1  0
  3 31  1  0
  8 32  1  0
  9 33  1  0
 11 34  1  0
 14 35  1  0
 14 36  1  0
 16 37  1  0
 17 38  1  0
 20 39  1  0
 21 40  1  0
 24 41  1  0
M  CHG  1   6  -1
M  END
>  <UniqueID>  (37) 
36

>  <SMILES>  (37) 
CCCC(=O)[N-]c1ccc2[nH]c(SCc3ccc(Br)cc3)nc2c1

>  <Energy>  (37) 
71.8380784629785

>  <Genealogy>  (37) 
CCCC(=O)[N-]c1ccc2[nH]c(SCc3ccc(Br)cc3)nc2c1 (protonated)
CCCC(=O)[N-]c1ccc2[nH]c(SCc3ccc(Br)cc3)nc2c1 (3D coordinates assigned)
CCCC(=O)[N-]c1ccc2[nH]c(SCc3ccc(Br)cc3)nc2c1 (optimized conformer: 71.8380784629785 kcal/mol)

>  <smiles>  (37) 
CCCC(=O)Nc1ccc2[nH]c(SCc3ccc(Br)cc3)nc2c1

>  <score_type>  (37) 
oracle

>  <origin>  (37) 
adgpu

>  <m_score__min__energy>  (37) 
-11.220000000000001

>  <m_primary>  (37) 
energy

$$$$
37:0
     RDKit          3D

 56 59  0  0  0  0  0  0  0  0999 V2000
   -0.6960   26.9900  -23.5450 C   0  0  0  0  0  0  0  0  0  0  0  0
   -0.7080   27.6850  -25.1830 S   0  0  0  0  0  0  0  0  0  0  0  0
    0.6840   28.1120  -25.5590 O   0  0  0  0  0  0  0  0  0  0  0  0
   -1.6060   28.8900  -25.2120 O   0  0  0  0  0  0  0  0  0  0  0  0
   -1.2910   26.4780  -26.3240 C   0  0  0  0  0  0  0  0  0  0  0  0
   -0.6630   26.3230  -27.5670 C   0  0  0  0  0  0  0  0  0  0  0  0
   -1.1170   25.3550  -28.4690 C   0  0  0  0  0  0  0  0  0  0  0  0
   -2.2040   24.5300  -28.1370 C   0  0  0  0  0  0  0  0  0  0  0  0
   -2.6690   23.5250  -29.0610 N   0  0  0  0  0  0  0  0  0  0  0  0
   -2.4090   22.2100  -28.7900 C   0  0  0  0  0  0  0  0  0  0  0  0
   -2.8290   21.2050  -29.6610 C   0  0  0  0  0  0  0  0  0  0  0  0
   -3.5300   21.5390  -30.8280 C   0  0  0  0  0  0  0  0  0  0  0  0
   -3.9850   20.4820  -31.7680 C   0  0  0  0  0  0  0  0  0  0  0  0
   -5.2090   19.8210  -31.5610 C   0  0  0  0  0  0  0  0  0  0  0  0
   -5.6370   18.8290  -32.4490 C   0  0  0  0  0  0  0  0  0  0  0  0
   -4.8550   18.4870  -33.5590 C   0  0  0  0  0  0  0  0  0  0  0  0
   -5.4110   17.2530  -34.6930 S   0  0  0  0  0  0  0  0  0  0  0  0
   -5.3430   17.8020  -36.0920 O   0  0  0  0  0  0  0  0  0  0  0  0
   -6.8470   16.9200  -34.3940 O   0  0  0  0  0  0  0  0  0  0  0  0
   -4.4460   15.7960  -34.5900 N   0  0  0  0  0  0  0  0  0  0  0  0
   -3.1350   16.0950  -33.9700 C   0  0  0  0  0  0  0  0  0  0  0  0
   -2.4760   14.8190  -33.4270 C   0  0  0  0  0  0  0  0  0  0  0  0
   -3.2940   14.1670  -32.3860 N   0  0  0  0  0  0  0  0  0  0  0  0
   -4.7290   14.4940  -32.4610 C   0  0  0  0  0  0  0  0  0  0  0  0
   -5.1880   14.7010  -33.9120 C   0  0  0  0  0  0  0  0  0  0  0  0
   -3.6300   19.1340  -33.7630 C   0  0  0  0  0  0  0  0  0  0  0  0
   -3.1990   20.1250  -32.8780 C   0  0  0  0  0  0  0  0  0  0  0  0
   -3.7940   22.8910  -31.0880 C   0  0  0  0  0  0  0  0  0  0  0  0
   -3.3590   23.8750  -30.1930 C   0  0  0  0  0  0  0  0  0  0  0  0
   -3.6260   25.0840  -30.4380 O   0  0  0  0  0  0  0  0  0  0  0  0
   -2.8220   24.6810  -26.8840 C   0  0  0  0  0  0  0  0  0  0  0  0
   -2.3680   25.6480  -25.9840 C   0  0  0  0  0  0  0  0  0  0  0  0
   -0.7100   27.8013  -22.8023 H   0  0  0  0  0  0  0  0  0  0  0  0
   -1.5833   26.3540  -23.4100 H   0  0  0  0  0  0  0  0  0  0  0  0
    0.2127   26.3850  -23.4100 H   0  0  0  0  0  0  0  0  0  0  0  0
    0.1896   26.9645  -27.8343 H   0  0  0  0  0  0  0  0  0  0  0  0
   -0.6200   25.2394  -29.4435 H   0  0  0  0  0  0  0  0  0  0  0  0
   -1.8621   21.9417  -27.8741 H   0  0  0  0  0  0  0  0  0  0  0  0
   -2.6104   20.1514  -29.4324 H   0  0  0  0  0  0  0  0  0  0  0  0
   -5.8336   20.0859  -30.6952 H   0  0  0  0  0  0  0  0  0  0  0  0
   -6.5934   18.3145  -32.2745 H   0  0  0  0  0  0  0  0  0  0  0  0
   -4.2680   15.4950  -35.5780 H   0  0  0  0  0  0  0  0  0  0  0  0
   -2.4751   16.5466  -34.7254 H   0  0  0  0  0  0  0  0  0  0  0  0
   -3.2953   16.7891  -33.1318 H   0  0  0  0  0  0  0  0  0  0  0  0
   -2.3329   14.1132  -34.2585 H   0  0  0  0  0  0  0  0  0  0  0  0
   -1.5156   15.1030  -32.9722 H   0  0  0  0  0  0  0  0  0  0  0  0
   -2.9440   14.4700  -31.4470 H   0  0  0  0  0  0  0  0  0  0  0  0
   -5.3065   13.6690  -32.0184 H   0  0  0  0  0  0  0  0  0  0  0  0
   -4.8969   15.4315  -31.9106 H   0  0  0  0  0  0  0  0  0  0  0  0
   -5.0272   13.7669  -34.4701 H   0  0  0  0  0  0  0  0  0  0  0  0
   -6.2519   14.9796  -33.8908 H   0  0  0  0  0  0  0  0  0  0  0  0
   -3.0037   18.8603  -34.6249 H   0  0  0  0  0  0  0  0  0  0  0  0
   -2.2372   20.6301  -33.0507 H   0  0  0  0  0  0  0  0  0  0  0  0
   -4.3436   23.1787  -31.9964 H   0  0  0  0  0  0  0  0  0  0  0  0
   -3.6683   24.0338  -26.6103 H   0  0  0  0  0  0  0  0  0  0  0  0
   -2.8574   25.7585  -25.0051 H   0  0  0  0  0  0  0  0  0  0  0  0
  1  2  1  0
  2  3  2  0
  2  4  2  0
  2  5  1  0
  5  6  2  0
  6  7  1  0
  7  8  2  0
  8  9  1  0
  9 10  1  0
 10 11  2  0
 11 12  1  0
 12 13  1  0
 13 14  2  0
 14 15  1  0
 15 16  2  0
 16 17  1  0
 17 18  2  0
 17 19  2  0
 17 20  1  0
 20 21  1  0
 21 22  1  0
 22 23  1  0
 23 24  1  0
 24 25  1  0
 16 26  1  0
 26 27  2  0
 12 28  2  0
 28 29  1  0
 29 30  2  0
  8 31  1  0
 31 32  2  0
 32  5  1  0
 29  9  1  0
 27 13  1  0
 25 20  1  0
  1 33  1  0
  1 34  1  0
  1 35  1  0
  6 36  1  0
  7 37  1  0
 10 38  1  0
 11 39  1  0
 14 40  1  0
 15 41  1  0
 20 42  1  0
 21 43  1  0
 21 44  1  0
 22 45  1  0
 22 46  1  0
 23 47  1  0
 24 48  1  0
 24 49  1  0
 25 50  1  0
 25 51  1  0
 26 52  1  0
 27 53  1  0
 28 54  1  0
 31 55  1  0
 32 56  1  0
M  CHG  1  20   1
M  END
>  <UniqueID>  (38) 
37

>  <SMILES>  (38) 
CS(=O)(=O)c1ccc(-n2ccc(-c3ccc(S(=O)(=O)[NH+]4CCNCC4)cc3)cc2=O)cc1

>  <Energy>  (38) 
78.56516795085264

>  <Genealogy>  (38) 
CS(=O)(=O)c1ccc(-n2ccc(-c3ccc(S(=O)(=O)[NH+]4CCNCC4)cc3)cc2=O)cc1 (protonated)
CS(=O)(=O)c1ccc(-n2ccc(-c3ccc(S(=O)(=O)[NH+]4CCNCC4)cc3)cc2=O)cc1 (3D coordinates assigned)
CS(=O)(=O)c1ccc(-n2ccc(-c3ccc(S(=O)(=O)[NH+]4CCNCC4)cc3)cc2=O)cc1 (nonaromatic ring conformer: 78.56516795085264 kcal/mol)

>  <smiles>  (38) 
CS(=O)(=O)c1ccc(-n2ccc(-c3ccc(S(=O)(=O)N4CCNCC4)cc3)cc2=O)cc1

>  <score_type>  (38) 
oracle

>  <origin>  (38) 
adgpu

>  <m_score__min__energy>  (38) 
-8.8300000000000001

>  <m_primary>  (38) 
energy

$$$$
38:0
     RDKit          3D

 59 62  0  0  0  0  0  0  0  0999 V2000
   -2.8330   25.0030  -28.4070 O   0  0  0  0  0  0  0  0  0  0  0  0
   -3.1570   23.8170  -28.6820 C   0  0  0  0  0  0  0  0  0  0  0  0
   -2.4410   22.7400  -28.0630 N   0  0  0  0  0  0  0  0  0  0  0  0
   -1.0780   22.3380  -28.4090 C   0  0  2  0  0  0  0  0  0  0  0  0
   -0.8150   22.6650  -29.8880 C   0  0  0  0  0  0  0  0  0  0  0  0
   -1.4180   21.6270  -30.8010 C   0  0  0  0  0  0  0  0  0  0  0  0
   -0.8550   20.3450  -30.8890 C   0  0  0  0  0  0  0  0  0  0  0  0
   -1.3790   19.4030  -31.7770 C   0  0  0  0  0  0  0  0  0  0  0  0
   -2.4610   19.7380  -32.6050 C   0  0  0  0  0  0  0  0  0  0  0  0
   -3.0080   18.7500  -33.5560 C   0  0  0  0  0  0  0  0  0  0  0  0
   -2.1010   17.9290  -34.2450 C   0  0  0  0  0  0  0  0  0  0  0  0
   -2.5530   17.0080  -35.1880 C   0  0  0  0  0  0  0  0  0  0  0  0
   -3.9160   16.8970  -35.4550 C   0  0  0  0  0  0  0  0  0  0  0  0
   -4.8310   17.6970  -34.7700 C   0  0  0  0  0  0  0  0  0  0  0  0
   -4.4030   18.6210  -33.7990 C   0  0  0  0  0  0  0  0  0  0  0  0
   -5.5950   19.6130  -32.9070 S   0  0  0  0  0  0  0  0  0  0  0  0
   -5.5240   21.0210  -33.4280 O   0  0  0  0  0  0  0  0  0  0  0  0
   -5.2170   19.6210  -31.4500 O   0  0  0  0  0  0  0  0  0  0  0  0
   -7.2590   19.0740  -32.9920 N   0  0  0  0  0  0  0  0  0  0  0  0
   -7.6220   18.1210  -31.9370 C   0  0  0  0  0  0  0  0  0  0  0  0
   -8.9820   18.5330  -31.3840 C   0  0  0  0  0  0  0  0  0  0  0  0
   -9.4700   19.6480  -32.2890 C   0  0  0  0  0  0  0  0  0  0  0  0
   -8.2220   20.1770  -32.9690 C   0  0  0  0  0  0  0  0  0  0  0  0
   -3.0370   21.0130  -32.5070 C   0  0  0  0  0  0  0  0  0  0  0  0
   -2.5160   21.9540  -31.6140 C   0  0  0  0  0  0  0  0  0  0  0  0
   -0.8930   20.8710  -28.1380 C   0  0  0  0  0  0  0  0  0  0  0  0
    0.2600   20.3950  -27.9560 O   0  0  0  0  0  0  0  0  0  0  0  0
   -2.0020   20.0370  -28.0540 O   0  0  0  0  0  0  0  0  0  0  0  0
   -4.2440   23.5720  -29.6470 C   0  0  0  0  0  0  0  0  0  0  0  0
   -5.0180   22.4070  -29.5360 C   0  0  0  0  0  0  0  0  0  0  0  0
   -6.0580   22.1640  -30.4380 C   0  0  0  0  0  0  0  0  0  0  0  0
   -6.3270   23.0750  -31.4660 C   0  0  0  0  0  0  0  0  0  0  0  0
   -7.3700   22.8220  -32.3550 O   0  0  0  0  0  0  0  0  0  0  0  0
   -5.5450   24.2310  -31.5930 C   0  0  0  0  0  0  0  0  0  0  0  0
   -4.5010   24.4780  -30.6940 C   0  0  0  0  0  0  0  0  0  0  0  0
   -3.7150   25.6150  -30.8560 O   0  0  0  0  0  0  0  0  0  0  0  0
   -0.3553   22.8913  -27.7913 H   0  0  0  0  0  0  0  0  0  0  0  0
   -1.2564   23.6452  -30.1210 H   0  0  0  0  0  0  0  0  0  0  0  0
    0.2729   22.6760  -30.0501 H   0  0  0  0  0  0  0  0  0  0  0  0
    0.0040   20.0803  -30.2550 H   0  0  0  0  0  0  0  0  0  0  0  0
   -0.9419   18.3948  -31.8274 H   0  0  0  0  0  0  0  0  0  0  0  0
   -1.0239   18.0136  -34.0385 H   0  0  0  0  0  0  0  0  0  0  0  0
   -1.8340   16.3688  -35.7214 H   0  0  0  0  0  0  0  0  0  0  0  0
   -4.2713   16.1773  -36.2072 H   0  0  0  0  0  0  0  0  0  0  0  0
   -5.9042   17.6039  -34.9926 H   0  0  0  0  0  0  0  0  0  0  0  0
   -7.6801   17.1049  -32.3544 H   0  0  0  0  0  0  0  0  0  0  0  0
   -6.8654   18.1253  -31.1386 H   0  0  0  0  0  0  0  0  0  0  0  0
   -9.6805   17.6836  -31.4104 H   0  0  0  0  0  0  0  0  0  0  0  0
   -8.9129   18.8603  -30.3361 H   0  0  0  0  0  0  0  0  0  0  0  0
  -10.1802   19.2588  -33.0333 H   0  0  0  0  0  0  0  0  0  0  0  0
   -9.9992   20.4329  -31.7287 H   0  0  0  0  0  0  0  0  0  0  0  0
   -8.4558   20.4982  -33.9947 H   0  0  0  0  0  0  0  0  0  0  0  0
   -7.8161   21.0471  -32.4321 H   0  0  0  0  0  0  0  0  0  0  0  0
   -3.9017   21.2735  -33.1350 H   0  0  0  0  0  0  0  0  0  0  0  0
   -2.9677   22.9548  -31.5477 H   0  0  0  0  0  0  0  0  0  0  0  0
   -4.8057   21.6822  -28.7363 H   0  0  0  0  0  0  0  0  0  0  0  0
   -6.6672   21.2534  -30.3395 H   0  0  0  0  0  0  0  0  0  0  0  0
   -7.2000   22.4110  -33.2670 H   0  0  0  0  0  0  0  0  0  0  0  0
   -5.7524   24.9468  -32.4021 H   0  0  0  0  0  0  0  0  0  0  0  0
  1  2  2  0
  2  3  1  0
  3  4  1  0
  4  5  1  0
  5  6  1  0
  6  7  2  0
  7  8  1  0
  8  9  2  0
  9 10  1  0
 10 11  2  0
 11 12  1  0
 12 13  2  0
 13 14  1  0
 14 15  2  0
 15 16  1  0
 16 17  2  0
 16 18  2  0
 16 19  1  0
 19 20  1  0
 20 21  1  0
 21 22  1  0
 22 23  1  0
  9 24  1  0
 24 25  2  0
  4 26  1  0
 26 27  2  0
 26 28  1  0
  2 29  1  0
 29 30  2  0
 30 31  1  0
 31 32  2  0
 32 33  1  0
 32 34  1  0
 34 35  2  0
 35 36  1  0
 25  6  1  0
 35 29  1  0
 15 10  1  0
 23 19  1  0
  4 37  1  1
  5 38  1  0
  5 39  1  0
  7 40  1  0
  8 41  1  0
 11 42  1  0
 12 43  1  0
 13 44  1  0
 14 45  1  0
 20 46  1  0
 20 47  1  0
 21 48  1  0
 21 49  1  0
 22 50  1  0
 22 51  1  0
 23 52  1  0
 23 53  1  0
 24 54  1  0
 25 55  1  0
 30 56  1  0
 31 57  1  0
 33 58  1  0
 34 59  1  0
M  CHG  3   3  -1  28  -1  36  -1
M  END
>  <UniqueID>  (39) 
38

>  <SMILES>  (39) 
O=C([N-][C@H](Cc1ccc(-c2ccccc2S(=O)(=O)N2CCCC2)cc1)C(=O)[O-])c1ccc(O)cc1[O-]

>  <Energy>  (39) 
77.5110214331019

>  <Genealogy>  (39) 
O=C([N-]C(Cc1ccc(-c2ccccc2S(=O)(=O)N2CCCC2)cc1)C(=O)[O-])c1ccc(O)cc1[O-] (protonated)
O=C([N-][C@H](Cc1ccc(-c2ccccc2S(=O)(=O)N2CCCC2)cc1)C(=O)[O-])c1ccc(O)cc1[O-] (chirality)
O=C([N-][C@H](Cc1ccc(-c2ccccc2S(=O)(=O)N2CCCC2)cc1)C(=O)[O-])c1ccc(O)cc1[O-] (3D coordinates assigned)
O=C([N-][C@H](Cc1ccc(-c2ccccc2S(=O)(=O)N2CCCC2)cc1)C(=O)[O-])c1ccc(O)cc1[O-] (nonaromatic ring conformer: 77.5110214331019 kcal/mol)

>  <smiles>  (39) 
O=C(NC(Cc1ccc(-c2ccccc2S(=O)(=O)N2CCCC2)cc1)C(=O)O)c1ccc(O)cc1O

>  <score_type>  (39) 
oracle

>  <origin>  (39) 
adgpu

>  <m_score__min__energy>  (39) 
-15.16

>  <m_primary>  (39) 
energy

$$$$
39:0
     RDKit          3D

 72 76  0  0  0  0  0  0  0  0999 V2000
   -4.0170   20.7450  -32.2190 O   0  0  0  0  0  0  0  0  0  0  0  0
   -3.0640   21.3020  -31.6080 C   0  0  0  0  0  0  0  0  0  0  0  0
   -3.3080   22.4780  -30.8240 N   0  0  0  0  0  0  0  0  0  0  0  0
   -4.5720   23.1560  -30.8480 C   0  0  0  0  0  0  0  0  0  0  0  0
   -5.7510   22.4170  -31.0240 C   0  0  0  0  0  0  0  0  0  0  0  0
   -6.9980   23.0590  -31.0800 C   0  0  0  0  0  0  0  0  0  0  0  0
   -8.4370   22.0780  -31.4260 S   0  0  0  0  0  0  0  0  0  0  0  0
   -9.0460   21.6720  -30.1130 O   0  0  0  0  0  0  0  0  0  0  0  0
   -9.4220   22.9440  -32.1620 O   0  0  0  0  0  0  0  0  0  0  0  0
   -8.1770   20.6370  -32.3860 N   0  0  0  0  0  0  0  0  0  0  0  0
   -8.2370   19.3990  -31.6010 C   0  0  0  0  0  0  0  0  0  0  0  0
   -7.0820   18.5080  -32.0480 C   0  0  0  0  0  0  0  0  0  0  0  0
   -6.4600   19.2140  -33.2360 C   0  0  0  0  0  0  0  0  0  0  0  0
   -6.9050   20.6570  -33.1080 C   0  0  0  0  0  0  0  0  0  0  0  0
   -7.0530   24.4550  -30.9330 C   0  0  0  0  0  0  0  0  0  0  0  0
   -5.8850   25.1910  -30.7280 C   0  0  0  0  0  0  0  0  0  0  0  0
   -4.6440   24.5490  -30.6850 C   0  0  0  0  0  0  0  0  0  0  0  0
   -3.4930   25.2970  -30.4630 O   0  0  0  0  0  0  0  0  0  0  0  0
   -1.7010   20.7340  -31.7050 C   0  0  0  0  0  0  0  0  0  0  0  0
   -1.3130   20.0760  -32.8850 C   0  0  0  0  0  0  0  0  0  0  0  0
   -0.0550   19.4680  -32.9830 C   0  0  0  0  0  0  0  0  0  0  0  0
    0.3790   18.5860  -34.4450 S   0  0  0  0  0  0  0  0  0  0  0  0
    1.0000   17.2760  -34.0480 O   0  0  0  0  0  0  0  0  0  0  0  0
   -0.8570   18.3040  -35.2530 O   0  0  0  0  0  0  0  0  0  0  0  0
    1.5150   19.5420  -35.3730 N   0  0  0  0  0  0  0  0  0  0  0  0
    2.1570   20.6010  -34.5510 C   0  0  0  0  0  0  0  0  0  0  0  0
    1.8640   22.0340  -35.0280 C   0  0  0  0  0  0  0  0  0  0  0  0
    0.3830   22.1880  -35.3690 C   0  0  0  0  0  0  0  0  0  0  0  0
   -0.0730   21.1750  -36.4350 C   0  0  0  0  0  0  0  0  0  0  0  0
    0.9250   20.0200  -36.6390 C   0  0  0  0  0  0  0  0  0  0  0  0
    0.8270   19.5210  -31.8960 C   0  0  0  0  0  0  0  0  0  0  0  0
    0.4570   20.1800  -30.7240 C   0  0  0  0  0  0  0  0  0  0  0  0
   -0.8020   20.7890  -30.6160 C   0  0  0  0  0  0  0  0  0  0  0  0
   -1.1500   21.4830  -29.4100 N   0  0  0  0  0  0  0  0  0  0  0  0
   -0.4630   22.7290  -29.0700 C   0  0  0  0  0  0  0  0  0  0  0  0
   -1.3750   23.5930  -28.1970 C   0  0  0  0  0  0  0  0  0  0  0  0
   -1.8530   22.8560  -27.0860 O   0  0  0  0  0  0  0  0  0  0  0  0
   -2.6750   21.7920  -27.5280 C   0  0  0  0  0  0  0  0  0  0  0  0
   -1.8670   20.7810  -28.3460 C   0  0  0  0  0  0  0  0  0  0  0  0
   -2.6180   22.7400  -30.0850 H   0  0  0  0  0  0  0  0  0  0  0  0
   -5.6979   21.3224  -31.1192 H   0  0  0  0  0  0  0  0  0  0  0  0
   -8.1390   19.6297  -30.5299 H   0  0  0  0  0  0  0  0  0  0  0  0
   -9.1991   18.8897  -31.7590 H   0  0  0  0  0  0  0  0  0  0  0  0
   -6.3460   18.3980  -31.2380 H   0  0  0  0  0  0  0  0  0  0  0  0
   -7.4255   17.4963  -32.3094 H   0  0  0  0  0  0  0  0  0  0  0  0
   -5.3630   19.1424  -33.1981 H   0  0  0  0  0  0  0  0  0  0  0  0
   -6.7706   18.7679  -34.1923 H   0  0  0  0  0  0  0  0  0  0  0  0
   -6.1580   21.2366  -32.5458 H   0  0  0  0  0  0  0  0  0  0  0  0
   -7.0157   21.1282  -34.0958 H   0  0  0  0  0  0  0  0  0  0  0  0
   -8.0231   24.9715  -30.9798 H   0  0  0  0  0  0  0  0  0  0  0  0
   -5.9413   26.2820  -30.5996 H   0  0  0  0  0  0  0  0  0  0  0  0
   -2.0042   20.0382  -33.7399 H   0  0  0  0  0  0  0  0  0  0  0  0
    1.7961   20.5011  -33.5167 H   0  0  0  0  0  0  0  0  0  0  0  0
    3.2436   20.4544  -34.6393 H   0  0  0  0  0  0  0  0  0  0  0  0
    2.1280   22.7431  -34.2296 H   0  0  0  0  0  0  0  0  0  0  0  0
    2.4613   22.2401  -35.9284 H   0  0  0  0  0  0  0  0  0  0  0  0
   -0.2096   22.0327  -34.4554 H   0  0  0  0  0  0  0  0  0  0  0  0
    0.2317   23.1990  -35.7751 H   0  0  0  0  0  0  0  0  0  0  0  0
   -1.0395   20.7514  -36.1243 H   0  0  0  0  0  0  0  0  0  0  0  0
   -0.1474   21.7159  -37.3900 H   0  0  0  0  0  0  0  0  0  0  0  0
    0.3990   19.1821  -37.1198 H   0  0  0  0  0  0  0  0  0  0  0  0
    1.7466   20.3994  -37.2643 H   0  0  0  0  0  0  0  0  0  0  0  0
    1.8144   19.0414  -31.9671 H   0  0  0  0  0  0  0  0  0  0  0  0
    1.1581   20.2226  -29.8774 H   0  0  0  0  0  0  0  0  0  0  0  0
    0.4614   22.4995  -28.5196 H   0  0  0  0  0  0  0  0  0  0  0  0
   -0.2150   23.2742  -29.9926 H   0  0  0  0  0  0  0  0  0  0  0  0
   -0.8087   24.4640  -27.8354 H   0  0  0  0  0  0  0  0  0  0  0  0
   -2.2350   23.9192  -28.8003 H   0  0  0  0  0  0  0  0  0  0  0  0
   -3.1078   21.2840  -26.6536 H   0  0  0  0  0  0  0  0  0  0  0  0
   -3.4709   22.2042  -28.1657 H   0  0  0  0  0  0  0  0  0  0  0  0
   -1.1452   20.2713  -27.6908 H   0  0  0  0  0  0  0  0  0  0  0  0
   -2.5465   20.0374  -28.7880 H   0  0  0  0  0  0  0  0  0  0  0  0
  1  2  2  0
  2  3  1  0
  3  4  1  0
  4  5  2  0
  5  6  1  0
  6  7  1  0
  7  8  2  0
  7  9  2  0
  7 10  1  0
 10 11  1  0
 11 12  1  0
 12 13  1  0
 13 14  1  0
  6 15  2  0
 15 16  1  0
 16 17  2  0
 17 18  1  0
  2 19  1  0
 19 20  2  0
 20 21  1  0
 21 22  1  0
 22 23  2  0
 22 24  2  0
 22 25  1  0
 25 26  1  0
 26 27  1  0
 27 28  1  0
 28 29  1  0
 29 30  1  0
 21 31  2  0
 31 32  1  0
 32 33  2  0
 33 34  1  0
 34 35  1  0
 35 36  1  0
 36 37  1  0
 37 38  1  0
 38 39  1  0
 17  4  1  0
 33 19  1  0
 39 34  1  0
 14 10  1  0
 30 25  1  0
  3 40  1  0
  5 41  1  0
 11 42  1  0
 11 43  1  0
 12 44  1  0
 12 45  1  0
 13 46  1  0
 13 47  1  0
 14 48  1  0
 14 49  1  0
 15 50  1  0
 16 51  1  0
 20 52  1  0
 26 53  1  0
 26 54  1  0
 27 55  1  0
 27 56  1  0
 28 57  1  0
 28 58  1  0
 29 59  1  0
 29 60  1  0
 30 61  1  0
 30 62  1  0
 31 63  1  0
 32 64  1  0
 35 65  1  0
 35 66  1  0
 36 67  1  0
 36 68  1  0
 38 69  1  0
 38 70  1  0
 39 71  1  0
 39 72  1  0
M  CHG  1  18  -1
M  END
>  <UniqueID>  (40) 
39

>  <SMILES>  (40) 
O=C(Nc1cc(S(=O)(=O)N2CCCC2)ccc1[O-])c1cc(S(=O)(=O)N2CCCCC2)ccc1N1CCOCC1

>  <Energy>  (40) 
100.77522761587014

>  <Genealogy>  (40) 
O=C(Nc1cc(S(=O)(=O)N2CCCC2)ccc1[O-])c1cc(S(=O)(=O)N2CCCCC2)ccc1N1CCOCC1 (protonated)
O=C(Nc1cc(S(=O)(=O)N2CCCC2)ccc1[O-])c1cc(S(=O)(=O)N2CCCCC2)ccc1N1CCOCC1 (3D coordinates assigned)
O=C(Nc1cc(S(=O)(=O)N2CCCC2)ccc1[O-])c1cc(S(=O)(=O)N2CCCCC2)ccc1N1CCOCC1 (nonaromatic ring conformer: 100.77522761587014 kcal/mol)

>  <smiles>  (40) 
O=C(Nc1cc(S(=O)(=O)N2CCCC2)ccc1O)c1cc(S(=O)(=O)N2CCCCC2)ccc1N1CCOCC1

>  <score_type>  (40) 
oracle

>  <origin>  (40) 
adgpu

>  <m_score__min__energy>  (40) 
-14.390000000000001

>  <m_primary>  (40) 
energy

$$$$
40:0
     RDKit          3D

 40 42  0  0  0  0  0  0  0  0999 V2000
   -2.5588   19.9595  -30.2708 H   0  0  0  0  0  0  0  0  0  0  0  0
   -2.7350   20.8230  -30.9290 C   0  0  0  0  0  0  0  0  0  0  0  0
   -3.2250   20.5950  -32.1580 C   0  0  0  0  0  0  0  0  0  0  0  0
   -3.4010   21.4562  -32.8193 H   0  0  0  0  0  0  0  0  0  0  0  0
   -3.5410   19.2360  -32.6680 C   0  0  0  0  0  0  0  0  0  0  0  0
   -2.5230   18.3110  -32.9670 C   0  0  0  0  0  0  0  0  0  0  0  0
   -1.4703   18.6012  -32.8341 H   0  0  0  0  0  0  0  0  0  0  0  0
   -2.8310   17.0300  -33.4300 C   0  0  0  0  0  0  0  0  0  0  0  0
   -1.7920   16.1490  -33.7140 O   0  0  0  0  0  0  0  0  0  0  0  0
   -4.1710   16.6420  -33.5960 C   0  0  0  0  0  0  0  0  0  0  0  0
   -4.4990   15.3550  -34.0630 C   0  0  0  0  0  0  0  0  0  0  0  0
   -3.6987   14.6406  -34.3062 H   0  0  0  0  0  0  0  0  0  0  0  0
   -5.8350   14.9810  -34.2190 C   0  0  0  0  0  0  0  0  0  0  0  0
   -6.0829   13.9738  -34.5853 H   0  0  0  0  0  0  0  0  0  0  0  0
   -6.8570   15.8800  -33.9120 C   0  0  0  0  0  0  0  0  0  0  0  0
   -7.9077   15.5791  -34.0365 H   0  0  0  0  0  0  0  0  0  0  0  0
   -6.5500   17.1610  -33.4470 C   0  0  0  0  0  0  0  0  0  0  0  0
   -7.3609   17.8644  -33.2068 H   0  0  0  0  0  0  0  0  0  0  0  0
   -5.2090   17.5570  -33.2840 C   0  0  0  0  0  0  0  0  0  0  0  0
   -4.8870   18.8480  -32.8180 C   0  0  0  0  0  0  0  0  0  0  0  0
   -5.9040   19.7510  -32.5130 O   0  0  0  0  0  0  0  0  0  0  0  0
   -2.4180   22.1780  -30.4100 C   0  0  0  0  0  0  0  0  0  0  0  0
   -3.3710   23.1950  -30.5710 C   0  0  0  0  0  0  0  0  0  0  0  0
   -4.3213   22.9742  -31.0791 H   0  0  0  0  0  0  0  0  0  0  0  0
   -3.1250   24.4940  -30.0900 C   0  0  0  0  0  0  0  0  0  0  0  0
   -4.0510   25.5380  -30.2440 O   0  0  0  0  0  0  0  0  0  0  0  0
   -5.4650   25.3780  -30.1820 C   0  0  0  0  0  0  0  0  0  0  0  0
   -5.7841   25.3419  -29.1299 H   0  0  0  0  0  0  0  0  0  0  0  0
   -5.9524   26.2267  -30.6841 H   0  0  0  0  0  0  0  0  0  0  0  0
   -5.7504   24.4418  -30.6841 H   0  0  0  0  0  0  0  0  0  0  0  0
   -1.9180   24.7660  -29.4340 C   0  0  0  0  0  0  0  0  0  0  0  0
   -1.6680   26.0490  -28.9590 O   0  0  0  0  0  0  0  0  0  0  0  0
   -0.9630   23.7600  -29.2460 C   0  0  0  0  0  0  0  0  0  0  0  0
    0.2240   24.0850  -28.5700 O   0  0  0  0  0  0  0  0  0  0  0  0
    0.2860   24.5580  -27.2280 C   0  0  0  0  0  0  0  0  0  0  0  0
    0.1750   23.7109  -26.5352 H   0  0  0  0  0  0  0  0  0  0  0  0
    1.2560   25.0475  -27.0562 H   0  0  0  0  0  0  0  0  0  0  0  0
   -0.5251   25.2809  -27.0562 H   0  0  0  0  0  0  0  0  0  0  0  0
   -1.2190   22.4630  -29.7310 C   0  0  0  0  0  0  0  0  0  0  0  0
   -0.4759   21.6665  -29.5779 H   0  0  0  0  0  0  0  0  0  0  0  0
  1  2  1  0
  2  3  2  0
  3  4  1  0
  3  5  1  0
  5  6  2  0
  6  7  1  0
  6  8  1  0
  8  9  1  0
  8 10  2  0
 10 11  1  0
 11 12  1  0
 11 13  2  0
 13 14  1  0
 13 15  1  0
 15 16  1  0
 15 17  2  0
 17 18  1  0
 17 19  1  0
 19 20  2  0
 20 21  1  0
  2 22  1  0
 22 23  2  0
 23 24  1  0
 23 25  1  0
 25 26  1  0
 26 27  1  0
 27 28  1  0
 27 29  1  0
 27 30  1  0
 25 31  2  0
 31 32  1  0
 31 33  1  0
 33 34  1  0
 34 35  1  0
 35 36  1  0
 35 37  1  0
 35 38  1  0
 33 39  2  0
 39 40  1  0
 20  5  1  0
 39 22  1  0
 19 10  1  0
M  CHG  3   9  -1  21  -1  32  -1
M  END
>  <UniqueID>  (41) 
40

>  <SMILES>  (41) 
COc1cc(/C=C/c2cc([O-])c3ccccc3c2[O-])cc(OC)c1[O-]

>  <Energy>  (41) 
53.27763624117966

>  <Genealogy>  (41) 
COc1cc(C=Cc2cc([O-])c3ccccc3c2[O-])cc(OC)c1[O-] (protonated)
COc1cc(/C=C/c2cc([O-])c3ccccc3c2[O-])cc(OC)c1[O-] (cis-trans isomerization)
COc1cc(/C=C/c2cc([O-])c3ccccc3c2[O-])cc(OC)c1[O-] (3D coordinates assigned)
COc1cc(/C=C/c2cc([O-])c3ccccc3c2[O-])cc(OC)c1[O-] (optimized conformer: 53.27763624117966 kcal/mol)

>  <smiles>  (41) 
COc1cc(C=Cc2cc(O)c3ccccc3c2O)cc(OC)c1O

>  <score_type>  (41) 
oracle

>  <origin>  (41) 
adgpu

>  <m_score__min__energy>  (41) 
-10.18

>  <m_primary>  (41) 
energy

$$$$
41:0
     RDKit          3D

 62 66  0  0  0  0  0  0  0  0999 V2000
   -5.3230   23.5410  -29.6330 O   0  0  0  0  0  0  0  0  0  0  0  0
   -3.9790   24.0850  -30.0300 S   0  0  0  0  0  0  0  0  0  0  0  0
   -4.0810   25.5830  -30.0930 O   0  0  0  0  0  0  0  0  0  0  0  0
   -3.5580   23.4610  -31.5870 N   0  0  0  0  0  0  0  0  0  0  0  0
   -3.9160   22.1260  -31.9540 C   0  0  0  0  0  0  0  0  0  0  0  0
   -5.2580   21.8260  -32.2160 C   0  0  0  0  0  0  0  0  0  0  0  0
   -5.6330   20.5470  -32.6190 C   0  0  0  0  0  0  0  0  0  0  0  0
   -4.6740   19.5380  -32.7630 C   0  0  0  0  0  0  0  0  0  0  0  0
   -5.0960   18.2330  -33.1810 N   0  0  0  0  0  0  0  0  0  0  0  0
   -4.4310   17.6000  -34.3230 C   0  0  0  0  0  0  0  0  0  0  0  0
   -5.0460   16.2260  -34.6100 C   0  0  0  0  0  0  0  0  0  0  0  0
   -6.5080   16.2900  -34.5110 N   0  0  0  0  0  0  0  0  0  0  0  0
   -6.9720   16.6180  -33.1450 C   0  0  0  0  0  0  0  0  0  0  0  0
   -5.9660   17.4410  -32.3130 C   0  0  0  0  0  0  0  0  0  0  0  0
   -3.3150   19.8170  -32.5000 C   0  0  0  0  0  0  0  0  0  0  0  0
   -2.3240   18.8300  -32.6610 C   0  0  0  0  0  0  0  0  0  0  0  0
   -0.9860   19.1210  -32.3950 C   0  0  0  0  0  0  0  0  0  0  0  0
   -0.6140   20.3960  -31.9700 C   0  0  0  0  0  0  0  0  0  0  0  0
   -1.5780   21.3930  -31.8150 C   0  0  0  0  0  0  0  0  0  0  0  0
   -2.9350   21.1210  -32.0800 C   0  0  0  0  0  0  0  0  0  0  0  0
   -2.7550   23.6160  -28.8440 C   0  0  0  0  0  0  0  0  0  0  0  0
   -2.7470   22.2940  -28.3690 C   0  0  0  0  0  0  0  0  0  0  0  0
   -1.7790   21.8690  -27.4530 C   0  0  0  0  0  0  0  0  0  0  0  0
   -1.7470   20.1850  -26.9430 S   0  0  0  0  0  0  0  0  0  0  0  0
   -2.8780   19.4480  -27.6060 O   0  0  0  0  0  0  0  0  0  0  0  0
   -1.9170   20.0900  -25.4510 O   0  0  0  0  0  0  0  0  0  0  0  0
   -0.2220   19.4840  -27.4220 N   0  0  0  0  0  0  0  0  0  0  0  0
   -0.3040   18.0190  -27.5100 C   0  0  0  0  0  0  0  0  0  0  0  0
    0.3250   17.5880  -28.8320 C   0  0  0  0  0  0  0  0  0  0  0  0
    0.9830   18.8410  -29.3750 C   0  0  0  0  0  0  0  0  0  0  0  0
    0.1920   19.9650  -28.7440 C   0  0  0  0  0  0  0  0  0  0  0  0
   -0.8100   22.7700  -27.0020 C   0  0  0  0  0  0  0  0  0  0  0  0
   -0.8000   24.0830  -27.4760 C   0  0  0  0  0  0  0  0  0  0  0  0
   -1.7510   24.5130  -28.4090 C   0  0  0  0  0  0  0  0  0  0  0  0
   -1.6500   25.8170  -28.8950 O   0  0  0  0  0  0  0  0  0  0  0  0
   -6.0234   22.6079  -32.1025 H   0  0  0  0  0  0  0  0  0  0  0  0
   -6.6910   20.3281  -32.8257 H   0  0  0  0  0  0  0  0  0  0  0  0
   -4.5469   18.2406  -35.2097 H   0  0  0  0  0  0  0  0  0  0  0  0
   -3.3649   17.4693  -34.0855 H   0  0  0  0  0  0  0  0  0  0  0  0
   -4.7649   15.9078  -35.6248 H   0  0  0  0  0  0  0  0  0  0  0  0
   -4.6693   15.5046  -33.8700 H   0  0  0  0  0  0  0  0  0  0  0  0
   -6.8520   17.0280  -35.1690 H   0  0  0  0  0  0  0  0  0  0  0  0
   -7.9047   17.1954  -33.2273 H   0  0  0  0  0  0  0  0  0  0  0  0
   -7.1066   15.6609  -32.6198 H   0  0  0  0  0  0  0  0  0  0  0  0
   -6.5193   18.1168  -31.6443 H   0  0  0  0  0  0  0  0  0  0  0  0
   -5.3429   16.7479  -31.7288 H   0  0  0  0  0  0  0  0  0  0  0  0
   -2.6069   17.8222  -32.9990 H   0  0  0  0  0  0  0  0  0  0  0  0
   -0.2206   18.3410  -32.5211 H   0  0  0  0  0  0  0  0  0  0  0  0
    0.4423   20.6165  -31.7563 H   0  0  0  0  0  0  0  0  0  0  0  0
   -1.2766   22.3977  -31.4838 H   0  0  0  0  0  0  0  0  0  0  0  0
   -3.5106   21.5850  -28.7214 H   0  0  0  0  0  0  0  0  0  0  0  0
    0.2427   17.5638  -26.6710 H   0  0  0  0  0  0  0  0  0  0  0  0
   -1.3533   17.6923  -27.4626 H   0  0  0  0  0  0  0  0  0  0  0  0
    1.0728   16.7985  -28.6661 H   0  0  0  0  0  0  0  0  0  0  0  0
   -0.4179   17.1738  -29.5295 H   0  0  0  0  0  0  0  0  0  0  0  0
    2.0404   18.8897  -29.0758 H   0  0  0  0  0  0  0  0  0  0  0  0
    0.9786   18.8821  -30.4742 H   0  0  0  0  0  0  0  0  0  0  0  0
    0.8195   20.8629  -28.6435 H   0  0  0  0  0  0  0  0  0  0  0  0
   -0.6770   20.2382  -29.3607 H   0  0  0  0  0  0  0  0  0  0  0  0
   -0.0541   22.4438  -26.2724 H   0  0  0  0  0  0  0  0  0  0  0  0
   -0.0369   24.7871  -27.1126 H   0  0  0  0  0  0  0  0  0  0  0  0
   -2.4370   26.4480  -28.9660 H   0  0  0  0  0  0  0  0  0  0  0  0
  1  2  2  0
  2  3  2  0
  2  4  1  0
  4  5  1  0
  5  6  2  0
  6  7  1  0
  7  8  2  0
  8  9  1  0
  9 10  1  0
 10 11  1  0
 11 12  1  0
 12 13  1  0
 13 14  1  0
  8 15  1  0
 15 16  2  0
 16 17  1  0
 17 18  2  0
 18 19  1  0
 19 20  2  0
  2 21  1  0
 21 22  2  0
 22 23  1  0
 23 24  1  0
 24 25  2  0
 24 26  2  0
 24 27  1  0
 27 28  1  0
 28 29  1  0
 29 30  1  0
 30 31  1  0
 23 32  2  0
 32 33  1  0
 33 34  2  0
 34 35  1  0
 20  5  1  0
 34 21  1  0
 14  9  1  0
 20 15  1  0
 31 27  1  0
  6 36  1  0
  7 37  1  0
 10 38  1  0
 10 39  1  0
 11 40  1  0
 11 41  1  0
 12 42  1  0
 13 43  1  0
 13 44  1  0
 14 45  1  0
 14 46  1  0
 16 47  1  0
 17 48  1  0
 18 49  1  0
 19 50  1  0
 22 51  1  0
 28 52  1  0
 28 53  1  0
 29 54  1  0
 29 55  1  0
 30 56  1  0
 30 57  1  0
 31 58  1  0
 31 59  1  0
 32 60  1  0
 33 61  1  0
 35 62  1  0
M  CHG  1   4  -1
M  END
>  <UniqueID>  (42) 
41

>  <SMILES>  (42) 
O=S(=O)([N-]c1ccc(N2CCNCC2)c2ccccc12)c1cc(S(=O)(=O)N2CCCC2)ccc1O

>  <Energy>  (42) 
88.33835157267261

>  <Genealogy>  (42) 
O=S(=O)([N-]c1ccc(N2CCNCC2)c2ccccc12)c1cc(S(=O)(=O)N2CCCC2)ccc1O (protonated)
O=S(=O)([N-]c1ccc(N2CCNCC2)c2ccccc12)c1cc(S(=O)(=O)N2CCCC2)ccc1O (3D coordinates assigned)
O=S(=O)([N-]c1ccc(N2CCNCC2)c2ccccc12)c1cc(S(=O)(=O)N2CCCC2)ccc1O (nonaromatic ring conformer: 88.33835157267261 kcal/mol)

>  <smiles>  (42) 
O=S(=O)(Nc1ccc(N2CCNCC2)c2ccccc12)c1cc(S(=O)(=O)N2CCCC2)ccc1O

>  <score_type>  (42) 
oracle

>  <origin>  (42) 
adgpu

>  <m_score__min__energy>  (42) 
-12.15

>  <m_primary>  (42) 
energy

$$$$
42:0
     RDKit          3D

 42 45  0  0  0  0  0  0  0  0999 V2000
   -5.7770   26.0770  -31.1870 O   0  0  0  0  0  0  0  0  0  0  0  0
   -5.2600   24.8850  -30.4290 S   0  0  0  0  0  0  0  0  0  0  0  0
   -5.7520   24.9240  -29.0100 O   0  0  0  0  0  0  0  0  0  0  0  0
   -3.5250   24.9050  -30.4560 N   0  0  0  0  0  0  0  0  0  0  0  0
   -2.6690   24.0790  -29.6530 C   0  0  0  0  0  0  0  0  0  0  0  0
   -2.9460   22.7160  -29.4440 C   0  0  0  0  0  0  0  0  0  0  0  0
   -2.1020   21.9260  -28.6510 C   0  0  0  0  0  0  0  0  0  0  0  0
   -0.9410   22.4960  -28.0870 C   0  0  0  0  0  0  0  0  0  0  0  0
   -0.6750   23.8580  -28.2830 C   0  0  0  0  0  0  0  0  0  0  0  0
   -1.5250   24.6470  -29.0620 C   0  0  0  0  0  0  0  0  0  0  0  0
   -1.2130   25.9960  -29.2360 O   0  0  0  0  0  0  0  0  0  0  0  0
   -0.0430   21.6800  -27.1900 C   0  0  0  0  0  0  0  0  0  0  0  0
   -0.1880   20.2400  -27.4440 N   0  0  0  0  0  0  0  0  0  0  0  0
   -1.5960   19.8430  -27.3370 C   0  0  0  0  0  0  0  0  0  0  0  0
   -2.3960   20.4570  -28.4880 C   0  0  0  0  0  0  0  0  0  0  0  0
   -5.8340   23.4090  -31.1950 C   0  0  0  0  0  0  0  0  0  0  0  0
   -4.9780   22.6630  -32.0210 C   0  0  0  0  0  0  0  0  0  0  0  0
   -5.4340   21.4900  -32.6320 C   0  0  0  0  0  0  0  0  0  0  0  0
   -6.7480   21.0620  -32.4230 C   0  0  0  0  0  0  0  0  0  0  0  0
   -7.6160   21.8220  -31.6280 C   0  0  0  0  0  0  0  0  0  0  0  0
   -7.1590   22.9870  -31.0050 C   0  0  0  0  0  0  0  0  0  0  0  0
   -8.9400   21.3990  -31.4720 O   0  0  0  0  0  0  0  0  0  0  0  0
   -9.4940   20.3810  -32.3090 C   0  0  0  0  0  0  0  0  0  0  0  0
   -8.4500   19.2890  -32.5790 C   0  0  0  0  0  0  0  0  0  0  0  0
   -7.2160   19.8770  -32.9990 O   0  0  0  0  0  0  0  0  0  0  0  0
   -3.8353   22.2646  -29.9082 H   0  0  0  0  0  0  0  0  0  0  0  0
    0.2131   24.3109  -27.8182 H   0  0  0  0  0  0  0  0  0  0  0  0
   -1.2390   26.4480  -30.1420 H   0  0  0  0  0  0  0  0  0  0  0  0
    1.0022   21.9709  -27.3714 H   0  0  0  0  0  0  0  0  0  0  0  0
   -0.3300   21.8756  -26.1463 H   0  0  0  0  0  0  0  0  0  0  0  0
    0.3460   19.7300  -26.7020 H   0  0  0  0  0  0  0  0  0  0  0  0
   -1.6710   18.7466  -27.3841 H   0  0  0  0  0  0  0  0  0  0  0  0
   -2.0029   20.2013  -26.3799 H   0  0  0  0  0  0  0  0  0  0  0  0
   -2.1353   19.9358  -29.4209 H   0  0  0  0  0  0  0  0  0  0  0  0
   -3.4661   20.3452  -28.2592 H   0  0  0  0  0  0  0  0  0  0  0  0
   -3.9450   23.0021  -32.1883 H   0  0  0  0  0  0  0  0  0  0  0  0
   -4.7598   20.9058  -33.2755 H   0  0  0  0  0  0  0  0  0  0  0  0
   -7.8371   23.5723  -30.3666 H   0  0  0  0  0  0  0  0  0  0  0  0
  -10.3658   19.9342  -31.8088 H   0  0  0  0  0  0  0  0  0  0  0  0
   -9.7987   20.8301  -33.2658 H   0  0  0  0  0  0  0  0  0  0  0  0
   -8.2821   18.7114  -31.6580 H   0  0  0  0  0  0  0  0  0  0  0  0
   -8.8212   18.6273  -33.3755 H   0  0  0  0  0  0  0  0  0  0  0  0
  1  2  2  0
  2  3  2  0
  2  4  1  0
  4  5  1  0
  5  6  2  0
  6  7  1  0
  7  8  2  0
  8  9  1  0
  9 10  2  0
 10 11  1  0
  8 12  1  0
 12 13  1  0
 13 14  1  0
 14 15  1  0
  2 16  1  0
 16 17  2  0
 17 18  1  0
 18 19  2  0
 19 20  1  0
 20 21  2  0
 20 22  1  0
 22 23  1  0
 23 24  1  0
 24 25  1  0
 10  5  1  0
 21 16  1  0
 15  7  1  0
 25 19  1  0
  6 26  1  0
  9 27  1  0
 11 28  1  0
 12 29  1  0
 12 30  1  0
 13 31  1  0
 14 32  1  0
 14 33  1  0
 15 34  1  0
 15 35  1  0
 17 36  1  0
 18 37  1  0
 21 38  1  0
 23 39  1  0
 23 40  1  0
 24 41  1  0
 24 42  1  0
M  CHG  1   4  -1
M  END
>  <UniqueID>  (43) 
42

>  <SMILES>  (43) 
O=S(=O)([N-]c1cc2c(cc1O)CNCC2)c1ccc2c(c1)OCCO2

>  <Energy>  (43) 
51.47694364319295

>  <Genealogy>  (43) 
O=S(=O)([N-]c1cc2c(cc1O)CNCC2)c1ccc2c(c1)OCCO2 (protonated)
O=S(=O)([N-]c1cc2c(cc1O)CNCC2)c1ccc2c(c1)OCCO2 (3D coordinates assigned)
O=S(=O)([N-]c1cc2c(cc1O)CNCC2)c1ccc2c(c1)OCCO2 (nonaromatic ring conformer: 51.47694364319295 kcal/mol)

>  <smiles>  (43) 
O=S(=O)(Nc1cc2c(cc1O)CNCC2)c1ccc2c(c1)OCCO2

>  <score_type>  (43) 
oracle

>  <origin>  (43) 
adgpu

>  <m_score__min__energy>  (43) 
-11.220000000000001

>  <m_primary>  (43) 
energy

$$$$
43:0
     RDKit          3D

 46 49  0  0  0  0  0  0  0  0999 V2000
   -0.7960   21.2320  -34.4380 O   0  0  0  0  0  0  0  0  0  0  0  0
   -1.4010   20.6060  -33.5280 C   0  0  0  0  0  0  0  0  0  0  0  0
   -1.3600   19.1740  -33.4700 N   0  0  0  0  0  0  0  0  0  0  0  0
   -2.4180   18.2720  -33.8240 C   0  0  0  0  0  0  0  0  0  0  0  0
   -2.3490   17.4490  -34.9620 C   0  0  0  0  0  0  0  0  0  0  0  0
   -3.4110   16.5970  -35.2780 C   0  0  0  0  0  0  0  0  0  0  0  0
   -4.5480   16.5620  -34.4670 C   0  0  0  0  0  0  0  0  0  0  0  0
   -4.6320   17.3850  -33.3360 C   0  0  0  0  0  0  0  0  0  0  0  0
   -6.0510   17.3180  -32.2890 S   0  0  0  0  0  0  0  0  0  0  0  0
   -7.2100   16.7510  -33.0600 O   0  0  0  0  0  0  0  0  0  0  0  0
   -5.7710   16.3960  -31.1330 O   0  0  0  0  0  0  0  0  0  0  0  0
   -6.4900   18.9000  -31.6800 N   0  0  0  0  0  0  0  0  0  0  0  0
   -6.0790   19.9610  -32.6070 C   0  0  0  0  0  0  0  0  0  0  0  0
   -7.2920   20.3870  -33.4230 C   0  0  0  0  0  0  0  0  0  0  0  0
   -8.4890   19.7330  -32.7620 C   0  0  0  0  0  0  0  0  0  0  0  0
   -7.9440   19.0250  -31.5330 C   0  0  0  0  0  0  0  0  0  0  0  0
   -3.5720   18.2510  -33.0320 C   0  0  0  0  0  0  0  0  0  0  0  0
   -2.0990   21.3530  -32.4750 C   0  0  0  0  0  0  0  0  0  0  0  0
   -3.3180   21.9860  -32.5990 C   0  0  0  0  0  0  0  0  0  0  0  0
   -3.5540   22.5010  -31.3380 C   0  0  0  0  0  0  0  0  0  0  0  0
   -4.7540   23.2490  -30.8930 C   0  0  0  0  0  0  0  0  0  0  0  0
   -5.9930   22.5850  -30.8420 C   0  0  0  0  0  0  0  0  0  0  0  0
   -7.1430   23.2610  -30.4260 C   0  0  0  0  0  0  0  0  0  0  0  0
   -7.0710   24.6040  -30.0560 C   0  0  0  0  0  0  0  0  0  0  0  0
   -5.8450   25.2730  -30.0920 C   0  0  0  0  0  0  0  0  0  0  0  0
   -4.6870   24.6040  -30.5010 C   0  0  0  0  0  0  0  0  0  0  0  0
   -3.4770   25.2900  -30.4870 O   0  0  0  0  0  0  0  0  0  0  0  0
   -2.5330   22.1760  -30.5200 N   0  0  0  0  0  0  0  0  0  0  0  0
   -1.6430   21.4820  -31.2130 N   0  0  0  0  0  0  0  0  0  0  0  0
   -1.4570   17.4758  -35.6052 H   0  0  0  0  0  0  0  0  0  0  0  0
   -3.3514   15.9525  -36.1674 H   0  0  0  0  0  0  0  0  0  0  0  0
   -5.3795   15.8866  -34.7169 H   0  0  0  0  0  0  0  0  0  0  0  0
   -5.6933   20.8207  -32.0394 H   0  0  0  0  0  0  0  0  0  0  0  0
   -5.2867   19.5917  -33.2747 H   0  0  0  0  0  0  0  0  0  0  0  0
   -7.3976   21.4818  -33.4081 H   0  0  0  0  0  0  0  0  0  0  0  0
   -7.1967   20.0835  -34.4760 H   0  0  0  0  0  0  0  0  0  0  0  0
   -9.2288   20.4930  -32.4703 H   0  0  0  0  0  0  0  0  0  0  0  0
   -8.9964   19.0331  -33.4422 H   0  0  0  0  0  0  0  0  0  0  0  0
   -8.1777   19.6111  -30.6320 H   0  0  0  0  0  0  0  0  0  0  0  0
   -8.4018   18.0296  -31.4350 H   0  0  0  0  0  0  0  0  0  0  0  0
   -3.6480   18.9205  -32.1625 H   0  0  0  0  0  0  0  0  0  0  0  0
   -3.9542   22.0631  -33.4930 H   0  0  0  0  0  0  0  0  0  0  0  0
   -6.0571   21.5258  -31.1317 H   0  0  0  0  0  0  0  0  0  0  0  0
   -8.1073   22.7329  -30.3902 H   0  0  0  0  0  0  0  0  0  0  0  0
   -7.9790   25.1361  -29.7360 H   0  0  0  0  0  0  0  0  0  0  0  0
   -5.7903   26.3313  -29.7971 H   0  0  0  0  0  0  0  0  0  0  0  0
  1  2  2  0
  2  3  1  0
  3  4  1  0
  4  5  2  0
  5  6  1  0
  6  7  2  0
  7  8  1  0
  8  9  1  0
  9 10  2  0
  9 11  2  0
  9 12  1  0
 12 13  1  0
 13 14  1  0
 14 15  1  0
 15 16  1  0
  8 17  2  0
  2 18  1  0
 18 19  1  0
 19 20  2  0
 20 21  1  0
 21 22  2  0
 22 23  1  0
 23 24  2  0
 24 25  1  0
 25 26  2  0
 26 27  1  0
 20 28  1  0
 28 29  1  0
 17  4  1  0
 29 18  2  0
 16 12  1  0
 26 21  1  0
  5 30  1  0
  6 31  1  0
  7 32  1  0
 13 33  1  0
 13 34  1  0
 14 35  1  0
 14 36  1  0
 15 37  1  0
 15 38  1  0
 16 39  1  0
 16 40  1  0
 17 41  1  0
 19 42  1  0
 22 43  1  0
 23 44  1  0
 24 45  1  0
 25 46  1  0
M  CHG  3   3  -1  27  -1  28  -1
M  END
>  <UniqueID>  (44) 
43

>  <SMILES>  (44) 
O=C([N-]c1cccc(S(=O)(=O)N2CCCC2)c1)c1cc(-c2ccccc2[O-])[n-]n1

>  <Energy>  (44) 
85.54209279866801

>  <Genealogy>  (44) 
O=C([N-]c1cccc(S(=O)(=O)N2CCCC2)c1)c1cc(-c2ccccc2[O-])[n-]n1 (protonated)
O=C([N-]c1cccc(S(=O)(=O)N2CCCC2)c1)c1cc(-c2ccccc2[O-])[n-]n1 (3D coordinates assigned)
O=C([N-]c1cccc(S(=O)(=O)N2CCCC2)c1)c1cc(-c2ccccc2[O-])[n-]n1 (nonaromatic ring conformer: 85.54209279866801 kcal/mol)

>  <smiles>  (44) 
O=C(Nc1cccc(S(=O)(=O)N2CCCC2)c1)c1cc(-c2ccccc2O)[nH]n1

>  <score_type>  (44) 
oracle

>  <origin>  (44) 
adgpu

>  <m_score__min__energy>  (44) 
-15.5

>  <m_primary>  (44) 
energy

$$$$
44:0
     RDKit          3D

 39 41  0  0  0  0  0  0  0  0999 V2000
   -6.8350   15.9560  -34.1840 C   0  0  0  0  0  0  0  0  0  0  0  0
   -6.0190   16.9450  -33.5650 O   0  0  0  0  0  0  0  0  0  0  0  0
   -6.5060   18.1250  -32.9800 C   0  0  0  0  0  0  0  0  0  0  0  0
   -7.7330   18.1650  -32.2900 C   0  0  0  0  0  0  0  0  0  0  0  0
   -8.1940   19.3600  -31.7390 C   0  0  0  0  0  0  0  0  0  0  0  0
   -7.4430   20.5330  -31.8690 C   0  0  0  0  0  0  0  0  0  0  0  0
   -8.0770   22.0690  -31.2730 S   0  0  0  0  0  0  0  0  0  0  0  0
   -9.5770   22.0190  -31.1810 O   0  0  0  0  0  0  0  0  0  0  0  0
   -7.5130   22.3140  -29.9030 O   0  0  0  0  0  0  0  0  0  0  0  0
   -7.6200   23.4090  -32.3300 C   0  0  0  0  0  0  0  0  0  0  0  0
   -6.4650   24.0860  -32.2570 C   0  0  0  0  0  0  0  0  0  0  0  0
   -5.3560   23.7790  -31.3380 C   0  0  0  0  0  0  0  0  0  0  0  0
   -4.5460   24.7520  -30.8420 N   0  0  0  0  0  0  0  0  0  0  0  0
   -3.7130   24.0610  -30.0490 C   0  0  0  0  0  0  0  0  0  0  0  0
   -2.6830   24.5580  -29.2540 C   0  0  0  0  0  0  0  0  0  0  0  0
   -1.9530   23.6360  -28.4800 C   0  0  0  0  0  0  0  0  0  0  0  0
   -2.2710   22.2590  -28.5210 C   0  0  0  0  0  0  0  0  0  0  0  0
   -3.3190   21.7940  -29.3370 C   0  0  0  0  0  0  0  0  0  0  0  0
   -4.0150   22.7360  -30.0910 C   0  0  0  0  0  0  0  0  0  0  0  0
   -5.0520   22.5240  -30.9130 N   0  0  0  0  0  0  0  0  0  0  0  0
   -6.2090   20.4950  -32.5300 C   0  0  0  0  0  0  0  0  0  0  0  0
   -5.7380   19.2950  -33.0960 C   0  0  0  0  0  0  0  0  0  0  0  0
   -4.5180   19.2250  -33.7870 O   0  0  0  0  0  0  0  0  0  0  0  0
   -3.3650   19.9950  -33.4640 C   0  0  0  0  0  0  0  0  0  0  0  0
   -7.3321   15.3535  -33.4095 H   0  0  0  0  0  0  0  0  0  0  0  0
   -7.5945   16.4468  -34.8104 H   0  0  0  0  0  0  0  0  0  0  0  0
   -6.2089   15.3036  -34.8104 H   0  0  0  0  0  0  0  0  0  0  0  0
   -8.3313   17.2479  -32.1851 H   0  0  0  0  0  0  0  0  0  0  0  0
   -9.1525   19.3805  -31.1997 H   0  0  0  0  0  0  0  0  0  0  0  0
   -8.3377   23.7108  -33.1071 H   0  0  0  0  0  0  0  0  0  0  0  0
   -6.3353   24.9396  -32.9386 H   0  0  0  0  0  0  0  0  0  0  0  0
   -2.4483   25.6324  -29.2317 H   0  0  0  0  0  0  0  0  0  0  0  0
   -1.1309   23.9888  -27.8400 H   0  0  0  0  0  0  0  0  0  0  0  0
   -1.6957   21.5467  -27.9113 H   0  0  0  0  0  0  0  0  0  0  0  0
   -3.5790   20.7259  -29.3779 H   0  0  0  0  0  0  0  0  0  0  0  0
   -5.6030   21.4098  -32.6076 H   0  0  0  0  0  0  0  0  0  0  0  0
   -3.2637   20.0626  -32.3708 H   0  0  0  0  0  0  0  0  0  0  0  0
   -2.4714   19.5118  -33.8858 H   0  0  0  0  0  0  0  0  0  0  0  0
   -3.4690   21.0056  -33.8858 H   0  0  0  0  0  0  0  0  0  0  0  0
  1  2  1  0
  2  3  1  0
  3  4  2  0
  4  5  1  0
  5  6  2  0
  6  7  1  0
  7  8  2  0
  7  9  2  0
  7 10  1  0
 10 11  2  3
 11 12  1  0
 12 13  2  0
 13 14  1  0
 14 15  2  0
 15 16  1  0
 16 17  2  0
 17 18  1  0
 18 19  2  0
 19 20  1  0
  6 21  1  0
 21 22  2  0
 22 23  1  0
 23 24  1  0
 22  3  1  0
 20 12  1  0
 19 14  1  0
  1 25  1  0
  1 26  1  0
  1 27  1  0
  4 28  1  0
  5 29  1  0
 10 30  1  0
 11 31  1  0
 15 32  1  0
 16 33  1  0
 17 34  1  0
 18 35  1  0
 21 36  1  0
 24 37  1  0
 24 38  1  0
 24 39  1  0
M  CHG  1  20  -1
M  END
>  <UniqueID>  (45) 
44

>  <SMILES>  (45) 
COc1ccc(S(=O)(=O)C=Cc2nc3ccccc3[n-]2)cc1OC

>  <Energy>  (45) 
77.80016228849315

>  <Genealogy>  (45) 
COc1ccc(S(=O)(=O)C=Cc2nc3ccccc3[n-]2)cc1OC (protonated)
COc1ccc(S(=O)(=O)C=Cc2nc3ccccc3[n-]2)cc1OC (3D coordinates assigned)
COc1ccc(S(=O)(=O)C=Cc2nc3ccccc3[n-]2)cc1OC (optimized conformer: 77.80016228849315 kcal/mol)

>  <smiles>  (45) 
COc1ccc(S(=O)(=O)C=Cc2nc3ccccc3[nH]2)cc1OC

>  <score_type>  (45) 
oracle

>  <origin>  (45) 
adgpu

>  <m_score__min__energy>  (45) 
-8.9100000000000001

>  <m_primary>  (45) 
energy

$$$$
45:0
     RDKit          3D

 46 48  0  0  0  0  0  0  0  0999 V2000
   -1.7000   20.4930  -26.7510 C   0  0  0  0  0  0  0  0  0  0  0  0
   -1.5530   21.8590  -27.3520 C   0  0  0  0  0  0  0  0  0  0  0  0
   -0.4600   22.6640  -27.0060 C   0  0  0  0  0  0  0  0  0  0  0  0
   -0.3410   23.9520  -27.5310 C   0  0  0  0  0  0  0  0  0  0  0  0
   -1.3160   24.4630  -28.3950 C   0  0  0  0  0  0  0  0  0  0  0  0
   -1.1100   25.7340  -28.9380 O   0  0  0  0  0  0  0  0  0  0  0  0
   -2.4500   23.6800  -28.7140 C   0  0  0  0  0  0  0  0  0  0  0  0
   -3.5610   24.2050  -29.5320 C   0  0  0  0  0  0  0  0  0  0  0  0
   -4.8740   23.7780  -29.4910 C   0  0  0  0  0  0  0  0  0  0  0  0
   -5.5240   24.6200  -30.3680 C   0  0  0  0  0  0  0  0  0  0  0  0
   -6.9470   24.5700  -30.7200 C   0  0  0  0  0  0  0  0  0  0  0  0
   -7.7720   25.2950  -30.1020 O   0  0  0  0  0  0  0  0  0  0  0  0
   -7.3840   23.7250  -31.7910 N   0  0  0  0  0  0  0  0  0  0  0  0
   -7.1590   22.3120  -31.8810 C   0  0  0  0  0  0  0  0  0  0  0  0
   -8.2530   21.4420  -31.7680 C   0  0  0  0  0  0  0  0  0  0  0  0
   -8.0700   20.0610  -31.8850 C   0  0  0  0  0  0  0  0  0  0  0  0
   -6.7940   19.5360  -32.1350 C   0  0  0  0  0  0  0  0  0  0  0  0
   -6.5620   17.7960  -32.2980 S   0  0  0  0  0  0  0  0  0  0  0  0
   -6.1310   17.2400  -30.9670 O   0  0  0  0  0  0  0  0  0  0  0  0
   -7.8660   17.1470  -32.6820 O   0  0  0  0  0  0  0  0  0  0  0  0
   -5.3400   17.4720  -33.5050 N   0  0  0  0  0  0  0  0  0  0  0  0
   -5.6810   18.1700  -34.7530 C   0  0  0  0  0  0  0  0  0  0  0  0
   -5.2640   16.0250  -33.7460 C   0  0  0  0  0  0  0  0  0  0  0  0
   -5.7040   20.4040  -32.2710 C   0  0  0  0  0  0  0  0  0  0  0  0
   -5.8830   21.7850  -32.1460 C   0  0  0  0  0  0  0  0  0  0  0  0
   -4.6480   25.4970  -30.8930 N   0  0  0  0  0  0  0  0  0  0  0  0
   -3.4530   25.2480  -30.3800 N   0  0  0  0  0  0  0  0  0  0  0  0
   -2.5490   22.3760  -28.1930 C   0  0  0  0  0  0  0  0  0  0  0  0
   -1.6915   20.5723  -25.6539 H   0  0  0  0  0  0  0  0  0  0  0  0
   -2.6512   20.0485  -27.0791 H   0  0  0  0  0  0  0  0  0  0  0  0
   -0.8652   19.8563  -27.0791 H   0  0  0  0  0  0  0  0  0  0  0  0
    0.3074   22.2797  -26.3180 H   0  0  0  0  0  0  0  0  0  0  0  0
    0.5277   24.5713  -27.2629 H   0  0  0  0  0  0  0  0  0  0  0  0
   -1.6150   26.0810  -29.7420 H   0  0  0  0  0  0  0  0  0  0  0  0
   -5.3016   22.9570  -28.8967 H   0  0  0  0  0  0  0  0  0  0  0  0
   -9.2592   21.8478  -31.5866 H   0  0  0  0  0  0  0  0  0  0  0  0
   -8.9303   19.3836  -31.7805 H   0  0  0  0  0  0  0  0  0  0  0  0
   -6.1525   19.1352  -34.5162 H   0  0  0  0  0  0  0  0  0  0  0  0
   -4.7658   18.3428  -35.3383 H   0  0  0  0  0  0  0  0  0  0  0  0
   -6.3798   17.5543  -35.3383 H   0  0  0  0  0  0  0  0  0  0  0  0
   -5.2361   15.4939  -32.7831 H   0  0  0  0  0  0  0  0  0  0  0  0
   -6.1464   15.7016  -34.3177 H   0  0  0  0  0  0  0  0  0  0  0  0
   -4.3526   15.7959  -34.3177 H   0  0  0  0  0  0  0  0  0  0  0  0
   -4.7027   19.9978  -32.4770 H   0  0  0  0  0  0  0  0  0  0  0  0
   -5.0225   22.4614  -32.2554 H   0  0  0  0  0  0  0  0  0  0  0  0
   -3.4195   21.7541  -28.4490 H   0  0  0  0  0  0  0  0  0  0  0  0
  1  2  1  0
  2  3  2  0
  3  4  1  0
  4  5  2  0
  5  6  1  0
  5  7  1  0
  7  8  1  0
  8  9  2  0
  9 10  1  0
 10 11  1  0
 11 12  2  0
 11 13  1  0
 13 14  1  0
 14 15  2  0
 15 16  1  0
 16 17  2  0
 17 18  1  0
 18 19  2  0
 18 20  2  0
 18 21  1  0
 21 22  1  0
 21 23  1  0
 17 24  1  0
 24 25  2  0
 10 26  2  0
 26 27  1  0
  7 28  2  0
 28  2  1  0
 27  8  1  0
 25 14  1  0
  1 29  1  0
  1 30  1  0
  1 31  1  0
  3 32  1  0
  4 33  1  0
  6 34  1  0
  9 35  1  0
 15 36  1  0
 16 37  1  0
 22 38  1  0
 22 39  1  0
 22 40  1  0
 23 41  1  0
 23 42  1  0
 23 43  1  0
 24 44  1  0
 25 45  1  0
 28 46  1  0
M  CHG  2  13  -1  27  -1
M  END
>  <UniqueID>  (46) 
45

>  <SMILES>  (46) 
Cc1ccc(O)c(-c2cc(C(=O)[N-]c3ccc(S(=O)(=O)N(C)C)cc3)n[n-]2)c1

>  <Energy>  (46) 
83.70262111368304

>  <Genealogy>  (46) 
Cc1ccc(O)c(-c2cc(C(=O)[N-]c3ccc(S(=O)(=O)N(C)C)cc3)n[n-]2)c1 (protonated)
Cc1ccc(O)c(-c2cc(C(=O)[N-]c3ccc(S(=O)(=O)N(C)C)cc3)n[n-]2)c1 (3D coordinates assigned)
Cc1ccc(O)c(-c2cc(C(=O)[N-]c3ccc(S(=O)(=O)N(C)C)cc3)n[n-]2)c1 (optimized conformer: 83.70262111368304 kcal/mol)

>  <smiles>  (46) 
Cc1ccc(O)c(-c2cc(C(=O)Nc3ccc(S(=O)(=O)N(C)C)cc3)n[nH]2)c1

>  <score_type>  (46) 
oracle

>  <origin>  (46) 
adgpu

>  <m_score__min__energy>  (46) 
-12.49

>  <m_primary>  (46) 
energy

$$$$
46:0
     RDKit          3D

 69 73  0  0  0  0  0  0  0  0999 V2000
   -5.7280   23.8350  -32.6650 O   0  0  0  0  0  0  0  0  0  0  0  0
   -5.1610   23.0330  -31.8770 C   0  0  0  0  0  0  0  0  0  0  0  0
   -5.1760   23.3210  -30.4730 N   0  0  0  0  0  0  0  0  0  0  0  0
   -4.0280   23.5630  -29.6470 C   0  0  0  0  0  0  0  0  0  0  0  0
   -4.2230   23.9590  -28.3170 C   0  0  0  0  0  0  0  0  0  0  0  0
   -3.1250   24.2280  -27.4940 C   0  0  0  0  0  0  0  0  0  0  0  0
   -1.8220   24.1200  -27.9970 C   0  0  0  0  0  0  0  0  0  0  0  0
   -0.4350   24.4950  -26.9700 S   0  0  0  0  0  0  0  0  0  0  0  0
    0.0220   23.2380  -26.2810 O   0  0  0  0  0  0  0  0  0  0  0  0
    0.6960   24.9920  -27.8280 O   0  0  0  0  0  0  0  0  0  0  0  0
   -0.8200   25.7110  -25.7770 N   0  0  0  0  0  0  0  0  0  0  0  0
   -0.3200   25.3110  -24.4490 C   0  0  0  0  0  0  0  0  0  0  0  0
   -0.4360   26.4770  -23.4450 C   0  0  0  0  0  0  0  0  0  0  0  0
   -1.2460   27.5150  -23.9630 O   0  0  0  0  0  0  0  0  0  0  0  0
   -0.6310   28.0800  -25.1100 C   0  0  0  0  0  0  0  0  0  0  0  0
   -0.2540   27.0140  -26.1610 C   0  0  0  0  0  0  0  0  0  0  0  0
   -1.6260   23.7400  -29.3330 C   0  0  0  0  0  0  0  0  0  0  0  0
   -2.7220   23.4720  -30.1570 C   0  0  0  0  0  0  0  0  0  0  0  0
   -4.5360   21.8060  -32.4230 C   0  0  0  0  0  0  0  0  0  0  0  0
   -3.1710   21.8450  -32.7520 C   0  0  0  0  0  0  0  0  0  0  0  0
   -2.5190   20.7100  -33.2490 C   0  0  0  0  0  0  0  0  0  0  0  0
   -0.8120   20.7900  -33.6900 S   0  0  0  0  0  0  0  0  0  0  0  0
   -0.5830   21.9900  -34.5670 O   0  0  0  0  0  0  0  0  0  0  0  0
   -0.4620   19.5660  -34.4900 O   0  0  0  0  0  0  0  0  0  0  0  0
    0.2420   20.8760  -32.2920 N   0  0  0  0  0  0  0  0  0  0  0  0
   -0.4780   21.2560  -31.0610 C   0  0  0  0  0  0  0  0  0  0  0  0
   -1.2110   20.0670  -30.3980 C   0  0  0  0  0  0  0  0  0  0  0  0
   -0.8700   18.8140  -30.9590 O   0  0  0  0  0  0  0  0  0  0  0  0
    0.5300   18.7020  -31.0610 C   0  0  0  0  0  0  0  0  0  0  0  0
    1.0740   19.6660  -32.1300 C   0  0  0  0  0  0  0  0  0  0  0  0
   -3.2330   19.5190  -33.4060 C   0  0  0  0  0  0  0  0  0  0  0  0
   -4.5940   19.4690  -33.1040 C   0  0  0  0  0  0  0  0  0  0  0  0
   -5.2660   20.6050  -32.6200 C   0  0  0  0  0  0  0  0  0  0  0  0
   -6.6860   20.5360  -32.3910 N   0  0  0  0  0  0  0  0  0  0  0  0
   -7.3420   21.1620  -31.2540 C   0  0  0  0  0  0  0  0  0  0  0  0
   -8.7680   20.6210  -31.2420 C   0  0  0  0  0  0  0  0  0  0  0  0
   -8.9560   19.8750  -32.5610 C   0  0  0  0  0  0  0  0  0  0  0  0
   -7.5590   19.6190  -33.1070 C   0  0  0  0  0  0  0  0  0  0  0  0
   -5.2436   24.0586  -27.9189 H   0  0  0  0  0  0  0  0  0  0  0  0
   -3.2851   24.5257  -26.4472 H   0  0  0  0  0  0  0  0  0  0  0  0
   -0.9119   24.4594  -24.0824 H   0  0  0  0  0  0  0  0  0  0  0  0
    0.7394   25.0298  -24.5415 H   0  0  0  0  0  0  0  0  0  0  0  0
   -0.8826   26.1044  -22.5114 H   0  0  0  0  0  0  0  0  0  0  0  0
    0.5706   26.8790  -23.2578 H   0  0  0  0  0  0  0  0  0  0  0  0
   -1.3287   28.7965  -25.5681 H   0  0  0  0  0  0  0  0  0  0  0  0
    0.2970   28.5729  -24.7845 H   0  0  0  0  0  0  0  0  0  0  0  0
   -0.6542   27.3109  -27.1416 H   0  0  0  0  0  0  0  0  0  0  0  0
    0.8415   26.9312  -26.2165 H   0  0  0  0  0  0  0  0  0  0  0  0
   -0.6052   23.6527  -29.7335 H   0  0  0  0  0  0  0  0  0  0  0  0
   -2.5620   23.1890  -31.2079 H   0  0  0  0  0  0  0  0  0  0  0  0
   -2.6068   22.7796  -32.6174 H   0  0  0  0  0  0  0  0  0  0  0  0
    0.2477   21.6649  -30.3426 H   0  0  0  0  0  0  0  0  0  0  0  0
   -1.2406   21.9974  -31.3416 H   0  0  0  0  0  0  0  0  0  0  0  0
   -0.9544   20.0517  -29.3284 H   0  0  0  0  0  0  0  0  0  0  0  0
   -2.2881   20.2154  -30.5649 H   0  0  0  0  0  0  0  0  0  0  0  0
    0.9840   18.9463  -30.0893 H   0  0  0  0  0  0  0  0  0  0  0  0
    0.7831   17.6715  -31.3509 H   0  0  0  0  0  0  0  0  0  0  0  0
    2.0891   19.9747  -31.8399 H   0  0  0  0  0  0  0  0  0  0  0  0
    1.0670   19.1304  -33.0908 H   0  0  0  0  0  0  0  0  0  0  0  0
   -2.7194   18.6167  -33.7694 H   0  0  0  0  0  0  0  0  0  0  0  0
   -5.1480   18.5294  -33.2463 H   0  0  0  0  0  0  0  0  0  0  0  0
   -6.8245   20.8966  -30.3203 H   0  0  0  0  0  0  0  0  0  0  0  0
   -7.3276   22.2590  -31.3340 H   0  0  0  0  0  0  0  0  0  0  0  0
   -8.9077   19.9351  -30.3935 H   0  0  0  0  0  0  0  0  0  0  0  0
   -9.5022   21.4330  -31.1345 H   0  0  0  0  0  0  0  0  0  0  0  0
   -9.4787   18.9225  -32.3892 H   0  0  0  0  0  0  0  0  0  0  0  0
   -9.5621   20.4592  -33.2690 H   0  0  0  0  0  0  0  0  0  0  0  0
   -7.2584   18.5775  -32.9200 H   0  0  0  0  0  0  0  0  0  0  0  0
   -7.5115   19.7768  -34.1946 H   0  0  0  0  0  0  0  0  0  0  0  0
  1  2  2  0
  2  3  1  0
  3  4  1  0
  4  5  2  0
  5  6  1  0
  6  7  2  0
  7  8  1  0
  8  9  2  0
  8 10  2  0
  8 11  1  0
 11 12  1  0
 12 13  1  0
 13 14  1  0
 14 15  1  0
 15 16  1  0
  7 17  1  0
 17 18  2  0
  2 19  1  0
 19 20  2  0
 20 21  1  0
 21 22  1  0
 22 23  2  0
 22 24  2  0
 22 25  1  0
 25 26  1  0
 26 27  1  0
 27 28  1  0
 28 29  1  0
 29 30  1  0
 21 31  2  0
 31 32  1  0
 32 33  2  0
 33 34  1  0
 34 35  1  0
 35 36  1  0
 36 37  1  0
 37 38  1  0
 18  4  1  0
 33 19  1  0
 38 34  1  0
 16 11  1  0
 30 25  1  0
  5 39  1  0
  6 40  1  0
 12 41  1  0
 12 42  1  0
 13 43  1  0
 13 44  1  0
 15 45  1  0
 15 46  1  0
 16 47  1  0
 16 48  1  0
 17 49  1  0
 18 50  1  0
 20 51  1  0
 26 52  1  0
 26 53  1  0
 27 54  1  0
 27 55  1  0
 29 56  1  0
 29 57  1  0
 30 58  1  0
 30 59  1  0
 31 60  1  0
 32 61  1  0
 35 62  1  0
 35 63  1  0
 36 64  1  0
 36 65  1  0
 37 66  1  0
 37 67  1  0
 38 68  1  0
 38 69  1  0
M  CHG  1   3  -1
M  END
>  <UniqueID>  (47) 
46

>  <SMILES>  (47) 
O=C([N-]c1ccc(S(=O)(=O)N2CCOCC2)cc1)c1cc(S(=O)(=O)N2CCOCC2)ccc1N1CCCC1

>  <Energy>  (47) 
101.396624343488

>  <Genealogy>  (47) 
O=C([N-]c1ccc(S(=O)(=O)N2CCOCC2)cc1)c1cc(S(=O)(=O)N2CCOCC2)ccc1N1CCCC1 (protonated)
O=C([N-]c1ccc(S(=O)(=O)N2CCOCC2)cc1)c1cc(S(=O)(=O)N2CCOCC2)ccc1N1CCCC1 (3D coordinates assigned)
O=C([N-]c1ccc(S(=O)(=O)N2CCOCC2)cc1)c1cc(S(=O)(=O)N2CCOCC2)ccc1N1CCCC1 (nonaromatic ring conformer: 101.396624343488 kcal/mol)

>  <smiles>  (47) 
O=C(Nc1ccc(S(=O)(=O)N2CCOCC2)cc1)c1cc(S(=O)(=O)N2CCOCC2)ccc1N1CCCC1

>  <score_type>  (47) 
oracle

>  <origin>  (47) 
adgpu

>  <m_score__min__energy>  (47) 
-12.31

>  <m_primary>  (47) 
energy

$$$$
