0:0
     RDKit          3D

 70 74  0  0  0  0  0  0  0  0999 V2000
   -6.1260   25.7340  -29.7260 C   0  0  0  0  0  0  0  0  0  0  0  0
   -5.4870   24.8000  -30.7110 C   0  0  0  0  0  0  0  0  0  0  0  0
   -4.3360   25.0780  -31.1450 O   0  0  0  0  0  0  0  0  0  0  0  0
   -6.1730   23.6170  -31.1790 N   0  0  0  0  0  0  0  0  0  0  0  0
   -5.4620   22.6260  -32.0020 C   0  0  0  0  0  0  0  0  0  0  0  0
   -5.8420   21.1960  -31.5880 C   0  0  0  0  0  0  0  0  0  0  0  0
   -7.3620   20.9950  -31.3410 C   0  0  0  0  0  0  0  0  0  0  0  0
   -7.9850   19.5780  -32.2480 S   0  0  0  0  0  0  0  0  0  0  0  0
   -8.7540   20.0480  -33.4520 O   0  0  0  0  0  0  0  0  0  0  0  0
   -8.9090   18.7790  -31.3710 O   0  0  0  0  0  0  0  0  0  0  0  0
   -6.6420   18.5710  -32.7790 C   0  0  0  0  0  0  0  0  0  0  0  0
   -5.8610   18.9630  -33.8640 C   0  0  0  0  0  0  0  0  0  0  0  0
   -4.7970   18.1680  -34.2910 C   0  0  0  0  0  0  0  0  0  0  0  0
   -4.4930   16.9350  -33.6600 C   0  0  0  0  0  0  0  0  0  0  0  0
   -3.4580   16.0530  -34.2110 N   0  0  0  0  0  0  0  0  0  0  0  0
   -2.7120   15.1630  -33.2900 C   0  0  0  0  0  0  0  0  0  0  0  0
   -1.3640   14.6110  -33.8130 C   0  0  0  0  0  0  0  0  0  0  0  0
   -0.9670   15.1000  -35.1420 N   0  0  0  0  0  0  0  0  0  0  0  0
   -0.1270   16.6470  -35.0940 S   0  0  0  0  0  0  0  0  0  0  0  0
    1.3510   16.3880  -34.9870 O   0  0  0  0  0  0  0  0  0  0  0  0
   -0.3710   17.3750  -36.3880 O   0  0  0  0  0  0  0  0  0  0  0  0
   -0.5940   17.6980  -33.7470 C   0  0  0  0  0  0  0  0  0  0  0  0
   -0.0820   17.4690  -32.4470 C   0  0  0  0  0  0  0  0  0  0  0  0
   -0.3500   18.3660  -31.3990 C   0  0  0  0  0  0  0  0  0  0  0  0
   -1.1460   19.4800  -31.6710 C   0  0  0  0  0  0  0  0  0  0  0  0
   -1.7060   19.6660  -32.9220 C   0  0  0  0  0  0  0  0  0  0  0  0
   -1.4700   18.7790  -33.9700 C   0  0  0  0  0  0  0  0  0  0  0  0
   -2.4440   20.9180  -32.8950 C   0  0  0  0  0  0  0  0  0  0  0  0
   -3.0780   21.4480  -33.8440 O   0  0  0  0  0  0  0  0  0  0  0  0
   -2.2740   21.4430  -31.5480 C   0  0  0  0  0  0  0  0  0  0  0  0
   -2.7720   22.5120  -31.1080 O   0  0  0  0  0  0  0  0  0  0  0  0
   -1.4480   20.5620  -30.7860 N   0  0  0  0  0  0  0  0  0  0  0  0
   -1.1920   20.6250  -29.3510 C   0  0  0  0  0  0  0  0  0  0  0  0
   -2.0990   15.0540  -36.0740 C   0  0  0  0  0  0  0  0  0  0  0  0
   -3.2190   16.0060  -35.6670 C   0  0  0  0  0  0  0  0  0  0  0  0
   -5.2590   16.5940  -32.5080 C   0  0  0  0  0  0  0  0  0  0  0  0
   -5.0150   15.4890  -31.7650 F   0  0  0  0  0  0  0  0  0  0  0  0
   -6.3230   17.4000  -32.0920 C   0  0  0  0  0  0  0  0  0  0  0  0
   -8.1900   22.2460  -31.6780 C   0  0  0  0  0  0  0  0  0  0  0  0
   -7.6220   23.4750  -30.9610 C   0  0  0  0  0  0  0  0  0  0  0  0
   -5.8977   25.4003  -28.7030 H   0  0  0  0  0  0  0  0  0  0  0  0
   -5.7331   26.7504  -29.8764 H   0  0  0  0  0  0  0  0  0  0  0  0
   -7.2157   25.7361  -29.8764 H   0  0  0  0  0  0  0  0  0  0  0  0
   -5.7279   22.7778  -33.0585 H   0  0  0  0  0  0  0  0  0  0  0  0
   -4.3799   22.7586  -31.8554 H   0  0  0  0  0  0  0  0  0  0  0  0
   -5.5272   20.5089  -32.3872 H   0  0  0  0  0  0  0  0  0  0  0  0
   -5.3341   20.9945  -30.6333 H   0  0  0  0  0  0  0  0  0  0  0  0
   -7.4754   20.8081  -30.2629 H   0  0  0  0  0  0  0  0  0  0  0  0
   -6.0845   19.9046  -34.3869 H   0  0  0  0  0  0  0  0  0  0  0  0
   -4.1797   18.5054  -35.1366 H   0  0  0  0  0  0  0  0  0  0  0  0
   -2.5079   15.7288  -32.3690 H   0  0  0  0  0  0  0  0  0  0  0  0
   -3.3550   14.2818  -33.1482 H   0  0  0  0  0  0  0  0  0  0  0  0
   -0.5784   14.8933  -33.0966 H   0  0  0  0  0  0  0  0  0  0  0  0
   -1.4941   13.5232  -33.9114 H   0  0  0  0  0  0  0  0  0  0  0  0
   -0.2580   14.4210  -35.5110 H   0  0  0  0  0  0  0  0  0  0  0  0
    0.5333   16.5777  -32.2549 H   0  0  0  0  0  0  0  0  0  0  0  0
    0.0566   18.1949  -30.3913 H   0  0  0  0  0  0  0  0  0  0  0  0
   -1.9554   18.9190  -34.9472 H   0  0  0  0  0  0  0  0  0  0  0  0
   -2.1181   20.3971  -28.8030 H   0  0  0  0  0  0  0  0  0  0  0  0
   -0.4178   19.8906  -29.0841 H   0  0  0  0  0  0  0  0  0  0  0  0
   -0.8471   21.6348  -29.0841 H   0  0  0  0  0  0  0  0  0  0  0  0
   -1.7438   15.3331  -37.0770 H   0  0  0  0  0  0  0  0  0  0  0  0
   -2.5042   14.0314  -36.0632 H   0  0  0  0  0  0  0  0  0  0  0  0
   -2.9559   17.0180  -36.0086 H   0  0  0  0  0  0  0  0  0  0  0  0
   -4.1431   15.6329  -36.1326 H   0  0  0  0  0  0  0  0  0  0  0  0
   -6.9154   17.1071  -31.2126 H   0  0  0  0  0  0  0  0  0  0  0  0
   -8.1629   22.4161  -32.7644 H   0  0  0  0  0  0  0  0  0  0  0  0
   -9.2261   22.0871  -31.3446 H   0  0  0  0  0  0  0  0  0  0  0  0
   -8.1286   24.3743  -31.3413 H   0  0  0  0  0  0  0  0  0  0  0  0
   -7.7936   23.3496  -29.8817 H   0  0  0  0  0  0  0  0  0  0  0  0
  1  2  1  0
  2  3  2  0
  2  4  1  0
  4  5  1  0
  5  6  1  0
  6  7  1  0
  7  8  1  0
  8  9  2  0
  8 10  2  0
  8 11  1  0
 11 12  2  0
 12 13  1  0
 13 14  2  0
 14 15  1  0
 15 16  1  0
 16 17  1  0
 17 18  1  0
 18 19  1  0
 19 20  2  0
 19 21  2  0
 19 22  1  0
 22 23  2  0
 23 24  1  0
 24 25  2  0
 25 26  1  0
 26 27  2  0
 26 28  1  0
 28 29  2  0
 28 30  1  0
 30 31  2  0
 30 32  1  0
 32 33  1  0
 18 34  1  0
 34 35  1  0
 14 36  1  0
 36 37  1  0
 36 38  2  0
  7 39  1  0
 39 40  1  0
 40  4  1  0
 38 11  1  0
 35 15  1  0
 27 22  1  0
 32 25  1  0
  1 41  1  0
  1 42  1  0
  1 43  1  0
  5 44  1  0
  5 45  1  0
  6 46  1  0
  6 47  1  0
  7 48  1  0
 12 49  1  0
 13 50  1  0
 16 51  1  0
 16 52  1  0
 17 53  1  0
 17 54  1  0
 18 55  1  0
 23 56  1  0
 24 57  1  0
 27 58  1  0
 33 59  1  0
 33 60  1  0
 33 61  1  0
 34 62  1  0
 34 63  1  0
 35 64  1  0
 35 65  1  0
 38 66  1  0
 39 67  1  0
 39 68  1  0
 40 69  1  0
 40 70  1  0
M  CHG  1  18   1
M  END
>  <UniqueID>  (1) 
1

>  <SMILES>  (1) 
CC(=O)N1CCC(S(=O)(=O)c2ccc(N3CC[NH+](S(=O)(=O)c4ccc5c(c4)C(=O)C(=O)N5C)CC3)c(F)c2)CC1

>  <Energy>  (1) 
114.19507908013509

>  <Genealogy>  (1) 
CC(=O)N1CCC(S(=O)(=O)c2ccc(N3CC[NH+](S(=O)(=O)c4ccc5c(c4)C(=O)C(=O)N5C)CC3)c(F)c2)CC1 (protonated)
CC(=O)N1CCC(S(=O)(=O)c2ccc(N3CC[NH+](S(=O)(=O)c4ccc5c(c4)C(=O)C(=O)N5C)CC3)c(F)c2)CC1 (3D coordinates assigned)
CC(=O)N1CCC(S(=O)(=O)c2ccc(N3CC[NH+](S(=O)(=O)c4ccc5c(c4)C(=O)C(=O)N5C)CC3)c(F)c2)CC1 (nonaromatic ring conformer: 114.19507908013509 kcal/mol)

>  <smiles>  (1) 
CC(=O)N1CCC(S(=O)(=O)c2ccc(N3CCN(S(=O)(=O)c4ccc5c(c4)C(=O)C(=O)N5C)CC3)c(F)c2)CC1

>  <score_type>  (1) 
oracle

>  <origin>  (1) 
adgpu

>  <m_score__min__energy>  (1) 
-10.859999999999999

>  <m_primary>  (1) 
energy

$$$$
1:0
     RDKit          3D

 60 63  0  0  0  0  0  0  0  0999 V2000
   -0.1780   21.9940  -34.2270 O   0  0  0  0  0  0  0  0  0  0  0  0
   -0.0240   20.5990  -33.6870 S   0  0  0  0  0  0  0  0  0  0  0  0
    1.3970   20.1630  -33.9190 O   0  0  0  0  0  0  0  0  0  0  0  0
   -1.0890   19.5360  -34.5470 N   0  0  0  0  0  0  0  0  0  0  0  0
   -2.4270   19.2770  -34.1140 C   0  0  0  0  0  0  0  0  0  0  0  0
   -2.9580   17.9810  -34.1490 C   0  0  0  0  0  0  0  0  0  0  0  0
   -4.2700   17.7490  -33.7290 C   0  0  0  0  0  0  0  0  0  0  0  0
   -5.0590   18.8060  -33.2540 C   0  0  0  0  0  0  0  0  0  0  0  0
   -6.7100   18.5070  -32.7080 S   0  0  0  0  0  0  0  0  0  0  0  0
   -6.6910   18.1550  -31.2460 O   0  0  0  0  0  0  0  0  0  0  0  0
   -7.2760   17.3330  -33.4600 O   0  0  0  0  0  0  0  0  0  0  0  0
   -7.7310   19.9040  -32.9570 N   0  0  0  0  0  0  0  0  0  0  0  0
   -7.1380   21.1290  -32.3630 C   0  0  0  0  0  0  0  0  0  0  0  0
   -7.8060   21.5390  -31.0420 C   0  0  0  0  0  0  0  0  0  0  0  0
   -9.3130   21.7800  -31.2310 C   0  0  0  0  0  0  0  0  0  0  0  0
   -9.9250   20.8970  -32.3340 C   0  0  0  0  0  0  0  0  0  0  0  0
   -9.1150   19.6120  -32.5230 C   0  0  0  0  0  0  0  0  0  0  0  0
   -4.5190   20.0990  -33.1990 C   0  0  0  0  0  0  0  0  0  0  0  0
   -3.2060   20.3310  -33.6170 C   0  0  0  0  0  0  0  0  0  0  0  0
   -0.3780   20.5980  -31.9570 C   0  0  0  0  0  0  0  0  0  0  0  0
   -1.2810   21.5370  -31.4400 C   0  0  0  0  0  0  0  0  0  0  0  0
   -1.5710   21.5690  -30.0710 C   0  0  0  0  0  0  0  0  0  0  0  0
   -2.7250   22.7460  -29.4390 S   0  0  0  0  0  0  0  0  0  0  0  0
   -2.6810   22.7290  -27.9360 O   0  0  0  0  0  0  0  0  0  0  0  0
   -2.3250   24.1220  -29.8970 O   0  0  0  0  0  0  0  0  0  0  0  0
   -4.3600   22.4090  -29.9690 N   0  0  0  0  0  0  0  0  0  0  0  0
   -5.3460   23.0520  -29.0910 C   0  0  0  0  0  0  0  0  0  0  0  0
   -5.8220   24.3380  -29.7560 C   0  0  0  0  0  0  0  0  0  0  0  0
   -5.2990   24.2880  -31.1780 C   0  0  0  0  0  0  0  0  0  0  0  0
   -4.5980   22.9440  -31.3140 C   0  0  0  0  0  0  0  0  0  0  0  0
   -0.9410   20.6610  -29.2090 C   0  0  0  0  0  0  0  0  0  0  0  0
   -0.0290   19.7320  -29.7130 C   0  0  0  0  0  0  0  0  0  0  0  0
    0.2630   19.6980  -31.0850 C   0  0  0  0  0  0  0  0  0  0  0  0
    1.1880   18.7800  -31.5760 O   0  0  0  0  0  0  0  0  0  0  0  0
   -2.3406   17.1444  -34.5079 H   0  0  0  0  0  0  0  0  0  0  0  0
   -4.6862   16.7316  -33.7712 H   0  0  0  0  0  0  0  0  0  0  0  0
   -6.0701   20.9452  -32.1736 H   0  0  0  0  0  0  0  0  0  0  0  0
   -7.2926   21.9499  -33.0787 H   0  0  0  0  0  0  0  0  0  0  0  0
   -7.6610   20.7374  -30.3029 H   0  0  0  0  0  0  0  0  0  0  0  0
   -7.3448   22.4754  -30.6949 H   0  0  0  0  0  0  0  0  0  0  0  0
   -9.8253   21.5627  -30.2822 H   0  0  0  0  0  0  0  0  0  0  0  0
   -9.4450   22.8288  -31.5352 H   0  0  0  0  0  0  0  0  0  0  0  0
  -10.9556   20.6342  -32.0534 H   0  0  0  0  0  0  0  0  0  0  0  0
   -9.9135   21.4598  -33.2791 H   0  0  0  0  0  0  0  0  0  0  0  0
   -9.0829   19.0658  -31.5687 H   0  0  0  0  0  0  0  0  0  0  0  0
   -9.6018   19.0080  -33.3029 H   0  0  0  0  0  0  0  0  0  0  0  0
   -5.1310   20.9333  -32.8256 H   0  0  0  0  0  0  0  0  0  0  0  0
   -2.7823   21.3443  -33.5558 H   0  0  0  0  0  0  0  0  0  0  0  0
   -1.7665   22.2557  -32.1166 H   0  0  0  0  0  0  0  0  0  0  0  0
   -6.2003   22.3767  -28.9357 H   0  0  0  0  0  0  0  0  0  0  0  0
   -4.8901   23.2790  -28.1160 H   0  0  0  0  0  0  0  0  0  0  0  0
   -6.9210   24.3859  -29.7539 H   0  0  0  0  0  0  0  0  0  0  0  0
   -5.4571   25.2279  -29.2223 H   0  0  0  0  0  0  0  0  0  0  0  0
   -6.1302   24.3609  -31.8948 H   0  0  0  0  0  0  0  0  0  0  0  0
   -4.6161   25.1243  -31.3882 H   0  0  0  0  0  0  0  0  0  0  0  0
   -5.2332   22.2494  -31.8833 H   0  0  0  0  0  0  0  0  0  0  0  0
   -3.6435   23.0672  -31.8466 H   0  0  0  0  0  0  0  0  0  0  0  0
   -1.1658   20.6804  -28.1324 H   0  0  0  0  0  0  0  0  0  0  0  0
    0.4632   19.0230  -29.0311 H   0  0  0  0  0  0  0  0  0  0  0  0
    1.3690   18.6870  -32.5680 H   0  0  0  0  0  0  0  0  0  0  0  0
  1  2  2  0
  2  3  2  0
  2  4  1  0
  4  5  1  0
  5  6  2  0
  6  7  1  0
  7  8  2  0
  8  9  1  0
  9 10  2  0
  9 11  2  0
  9 12  1  0
 12 13  1  0
 13 14  1  0
 14 15  1  0
 15 16  1  0
 16 17  1  0
  8 18  1  0
 18 19  2  0
  2 20  1  0
 20 21  2  0
 21 22  1  0
 22 23  1  0
 23 24  2  0
 23 25  2  0
 23 26  1  0
 26 27  1  0
 27 28  1  0
 28 29  1  0
 29 30  1  0
 22 31  2  0
 31 32  1  0
 32 33  2  0
 33 34  1  0
 19  5  1  0
 33 20  1  0
 17 12  1  0
 30 26  1  0
  6 35  1  0
  7 36  1  0
 13 37  1  0
 13 38  1  0
 14 39  1  0
 14 40  1  0
 15 41  1  0
 15 42  1  0
 16 43  1  0
 16 44  1  0
 17 45  1  0
 17 46  1  0
 18 47  1  0
 19 48  1  0
 21 49  1  0
 27 50  1  0
 27 51  1  0
 28 52  1  0
 28 53  1  0
 29 54  1  0
 29 55  1  0
 30 56  1  0
 30 57  1  0
 31 58  1  0
 32 59  1  0
 34 60  1  0
M  CHG  1   4  -1
M  END
>  <UniqueID>  (2) 
2

>  <SMILES>  (2) 
O=S(=O)([N-]c1ccc(S(=O)(=O)N2CCCCC2)cc1)c1cc(S(=O)(=O)N2CCCC2)ccc1O

>  <Energy>  (2) 
74.62015936090052

>  <Genealogy>  (2) 
O=S(=O)([N-]c1ccc(S(=O)(=O)N2CCCCC2)cc1)c1cc(S(=O)(=O)N2CCCC2)ccc1O (protonated)
O=S(=O)([N-]c1ccc(S(=O)(=O)N2CCCCC2)cc1)c1cc(S(=O)(=O)N2CCCC2)ccc1O (3D coordinates assigned)
O=S(=O)([N-]c1ccc(S(=O)(=O)N2CCCCC2)cc1)c1cc(S(=O)(=O)N2CCCC2)ccc1O (nonaromatic ring conformer: 74.62015936090052 kcal/mol)

>  <smiles>  (2) 
O=S(=O)(Nc1ccc(S(=O)(=O)N2CCCCC2)cc1)c1cc(S(=O)(=O)N2CCCC2)ccc1O

>  <score_type>  (2) 
oracle

>  <origin>  (2) 
adgpu

>  <m_score__min__energy>  (2) 
-11.92

>  <m_primary>  (2) 
energy

$$$$
2:0
     RDKit          3D

 63 67  0  0  0  0  0  0  0  0999 V2000
   -1.6090   15.7420  -33.8230 O   0  0  0  0  0  0  0  0  0  0  0  0
   -2.1350   16.8660  -34.0450 C   0  0  0  0  0  0  0  0  0  0  0  0
   -3.4560   16.9550  -34.5970 N   0  0  0  0  0  0  0  0  0  0  0  0
   -4.6270   17.4920  -33.9620 C   0  0  0  0  0  0  0  0  0  0  0  0
   -5.2320   18.6230  -34.5220 C   0  0  0  0  0  0  0  0  0  0  0  0
   -6.3640   19.1930  -33.9260 C   0  0  0  0  0  0  0  0  0  0  0  0
   -6.9130   18.6260  -32.7680 C   0  0  0  0  0  0  0  0  0  0  0  0
   -8.3340   19.3560  -32.0200 S   0  0  0  0  0  0  0  0  0  0  0  0
   -8.7840   18.5180  -30.8560 O   0  0  0  0  0  0  0  0  0  0  0  0
   -9.4390   19.4010  -33.0410 O   0  0  0  0  0  0  0  0  0  0  0  0
   -7.9660   20.9730  -31.4640 N   0  0  0  0  0  0  0  0  0  0  0  0
   -8.6500   21.9670  -32.3150 C   0  0  0  0  0  0  0  0  0  0  0  0
   -8.4940   23.3930  -31.7440 C   0  0  0  0  0  0  0  0  0  0  0  0
   -7.2390   23.5470  -30.8690 C   0  0  0  0  0  0  0  0  0  0  0  0
   -6.0950   22.6670  -31.3790 C   0  0  0  0  0  0  0  0  0  0  0  0
   -6.5000   21.1780  -31.4600 C   0  0  0  0  0  0  0  0  0  0  0  0
   -6.3330   17.4690  -32.2270 C   0  0  0  0  0  0  0  0  0  0  0  0
   -5.2000   16.8990  -32.8220 C   0  0  0  0  0  0  0  0  0  0  0  0
   -1.4510   18.0650  -33.6360 N   0  0  0  0  0  0  0  0  0  0  0  0
   -1.8320   19.3670  -34.1980 C   0  0  0  0  0  0  0  0  0  0  0  0
   -2.5920   20.2020  -33.1520 C   0  0  0  0  0  0  0  0  0  0  0  0
   -2.1600   19.8640  -31.7000 C   0  0  0  0  0  0  0  0  0  0  0  0
   -2.4200   21.0090  -30.7380 C   0  0  0  0  0  0  0  0  0  0  0  0
   -2.8910   22.1810  -31.2560 N   0  0  0  0  0  0  0  0  0  0  0  0
   -3.1130   23.2840  -30.4950 C   0  0  0  0  0  0  0  0  0  0  0  0
   -2.8530   23.2540  -29.1260 C   0  0  0  0  0  0  0  0  0  0  0  0
   -2.3710   22.0730  -28.5450 C   0  0  0  0  0  0  0  0  0  0  0  0
   -2.0890   22.0050  -27.1740 C   0  0  0  0  0  0  0  0  0  0  0  0
   -1.6050   20.8140  -26.6230 C   0  0  0  0  0  0  0  0  0  0  0  0
   -1.4110   19.7040  -27.4500 C   0  0  0  0  0  0  0  0  0  0  0  0
   -1.6880   19.7870  -28.7770 N   0  0  0  0  0  0  0  0  0  0  0  0
   -2.1560   20.9320  -29.3500 C   0  0  0  0  0  0  0  0  0  0  0  0
   -0.7070   19.3420  -31.6330 C   0  0  0  0  0  0  0  0  0  0  0  0
   -0.5740   18.0420  -32.4520 C   0  0  0  0  0  0  0  0  0  0  0  0
   -4.8151   19.0678  -35.4376 H   0  0  0  0  0  0  0  0  0  0  0  0
   -6.8238   20.0890  -34.3685 H   0  0  0  0  0  0  0  0  0  0  0  0
   -8.3250   21.0520  -30.4850 H   0  0  0  0  0  0  0  0  0  0  0  0
   -8.2145   21.9352  -33.3246 H   0  0  0  0  0  0  0  0  0  0  0  0
   -9.7214   21.7199  -32.3466 H   0  0  0  0  0  0  0  0  0  0  0  0
   -8.4281   24.1025  -32.5820 H   0  0  0  0  0  0  0  0  0  0  0  0
   -9.3691   23.5945  -31.1087 H   0  0  0  0  0  0  0  0  0  0  0  0
   -6.9171   24.5987  -30.8858 H   0  0  0  0  0  0  0  0  0  0  0  0
   -7.4888   23.2332  -29.8447 H   0  0  0  0  0  0  0  0  0  0  0  0
   -5.8033   23.0105  -32.3824 H   0  0  0  0  0  0  0  0  0  0  0  0
   -5.2588   22.7529  -30.6695 H   0  0  0  0  0  0  0  0  0  0  0  0
   -6.0847   20.7523  -32.3854 H   0  0  0  0  0  0  0  0  0  0  0  0
   -6.1024   20.6813  -30.5627 H   0  0  0  0  0  0  0  0  0  0  0  0
   -6.7705   17.0064  -31.3300 H   0  0  0  0  0  0  0  0  0  0  0  0
   -4.7575   15.9860  -32.3971 H   0  0  0  0  0  0  0  0  0  0  0  0
   -0.9250   19.9087  -34.5046 H   0  0  0  0  0  0  0  0  0  0  0  0
   -2.4863   19.2026  -35.0668 H   0  0  0  0  0  0  0  0  0  0  0  0
   -2.3959   21.2679  -33.3402 H   0  0  0  0  0  0  0  0  0  0  0  0
   -3.6623   19.9669  -33.2475 H   0  0  0  0  0  0  0  0  0  0  0  0
   -2.8006   19.0358  -31.3627 H   0  0  0  0  0  0  0  0  0  0  0  0
   -3.4989   24.2031  -30.9602 H   0  0  0  0  0  0  0  0  0  0  0  0
   -3.0243   24.1477  -28.5080 H   0  0  0  0  0  0  0  0  0  0  0  0
   -2.2477   22.8851  -26.5335 H   0  0  0  0  0  0  0  0  0  0  0  0
   -1.3790   20.7514  -25.5483 H   0  0  0  0  0  0  0  0  0  0  0  0
   -1.0335   18.7620  -27.0255 H   0  0  0  0  0  0  0  0  0  0  0  0
   -0.0275   20.1028  -32.0447 H   0  0  0  0  0  0  0  0  0  0  0  0
   -0.4459   19.1359  -30.5845 H   0  0  0  0  0  0  0  0  0  0  0  0
    0.4697   17.9305  -32.7809 H   0  0  0  0  0  0  0  0  0  0  0  0
   -0.8725   17.1969  -31.8143 H   0  0  0  0  0  0  0  0  0  0  0  0
  1  2  2  0
  2  3  1  0
  3  4  1  0
  4  5  2  0
  5  6  1  0
  6  7  2  0
  7  8  1  0
  8  9  2  0
  8 10  2  0
  8 11  1  0
 11 12  1  0
 12 13  1  0
 13 14  1  0
 14 15  1  0
 15 16  1  0
  7 17  1  0
 17 18  2  0
  2 19  1  0
 19 20  1  0
 20 21  1  0
 21 22  1  0
 22 23  1  0
 23 24  2  0
 24 25  1  0
 25 26  2  0
 26 27  1  0
 27 28  2  0
 28 29  1  0
 29 30  2  0
 30 31  1  0
 31 32  2  0
 22 33  1  0
 33 34  1  0
 18  4  1  0
 34 19  1  0
 16 11  1  0
 32 23  1  0
 32 27  1  0
  5 35  1  0
  6 36  1  0
 11 37  1  0
 12 38  1  0
 12 39  1  0
 13 40  1  0
 13 41  1  0
 14 42  1  0
 14 43  1  0
 15 44  1  0
 15 45  1  0
 16 46  1  0
 16 47  1  0
 17 48  1  0
 18 49  1  0
 20 50  1  0
 20 51  1  0
 21 52  1  0
 21 53  1  0
 22 54  1  0
 25 55  1  0
 26 56  1  0
 28 57  1  0
 29 58  1  0
 30 59  1  0
 33 60  1  0
 33 61  1  0
 34 62  1  0
 34 63  1  0
M  CHG  2   3  -1  11   1
M  END
>  <UniqueID>  (3) 
3

>  <SMILES>  (3) 
O=C([N-]c1ccc(S(=O)(=O)[NH+]2CCCCC2)cc1)N1CCC(c2nccc3cccnc23)CC1

>  <Energy>  (3) 
84.94869428235843

>  <Genealogy>  (3) 
O=C([N-]c1ccc(S(=O)(=O)[NH+]2CCCCC2)cc1)N1CCC(c2nccc3cccnc23)CC1 (protonated)
O=C([N-]c1ccc(S(=O)(=O)[NH+]2CCCCC2)cc1)N1CCC(c2nccc3cccnc23)CC1 (3D coordinates assigned)
O=C([N-]c1ccc(S(=O)(=O)[NH+]2CCCCC2)cc1)N1CCC(c2nccc3cccnc23)CC1 (nonaromatic ring conformer: 84.94869428235843 kcal/mol)

>  <smiles>  (3) 
O=C(Nc1ccc(S(=O)(=O)N2CCCCC2)cc1)N1CCC(c2nccc3cccnc23)CC1

>  <score_type>  (3) 
oracle

>  <origin>  (3) 
adgpu

>  <m_score__min__energy>  (3) 
-12.5

>  <m_primary>  (3) 
energy

$$$$
3:0
     RDKit          3D

 43 45  0  0  0  0  0  0  0  0999 V2000
   -2.5990   25.2160  -26.6370 C   0  0  0  0  0  0  0  0  0  0  0  0
   -2.3440   25.1070  -28.1120 C   0  0  0  0  0  0  0  0  0  0  0  0
   -1.5960   25.9680  -28.6490 O   0  0  0  0  0  0  0  0  0  0  0  0
   -2.9710   24.0370  -28.9400 C   0  0  0  0  0  0  0  0  0  0  0  0
   -2.8430   22.6830  -28.5700 C   0  0  0  0  0  0  0  0  0  0  0  0
   -3.4280   21.6730  -29.3370 C   0  0  0  0  0  0  0  0  0  0  0  0
   -4.1370   21.9900  -30.5030 C   0  0  0  0  0  0  0  0  0  0  0  0
   -4.7690   20.9750  -31.2920 N   0  0  0  0  0  0  0  0  0  0  0  0
   -4.1140   20.0660  -32.1890 C   0  0  0  0  0  0  0  0  0  0  0  0
   -4.6230   18.9290  -32.3720 O   0  0  0  0  0  0  0  0  0  0  0  0
   -2.9070   20.4790  -33.0030 C   0  0  0  0  0  0  0  0  0  0  0  0
   -1.8590   21.2240  -32.1270 C   0  0  0  0  0  0  0  0  0  0  0  0
   -0.4100   20.8170  -32.4330 C   0  0  0  0  0  0  0  0  0  0  0  0
   -0.2310   20.6090  -33.8770 N   0  0  0  0  0  0  0  0  0  0  0  0
    0.8400   21.2390  -34.6030 C   0  0  0  0  0  0  0  0  0  0  0  0
    0.5920   22.2590  -35.5350 C   0  0  0  0  0  0  0  0  0  0  0  0
    1.6610   22.8220  -36.2290 C   0  0  0  0  0  0  0  0  0  0  0  0
    1.4400   23.8340  -37.1550 O   0  0  0  0  0  0  0  0  0  0  0  0
    2.9500   22.3560  -35.9890 C   0  0  0  0  0  0  0  0  0  0  0  0
    3.1430   21.3550  -35.0920 N   0  0  0  0  0  0  0  0  0  0  0  0
    2.1210   20.8130  -34.4260 N   0  0  0  0  0  0  0  0  0  0  0  0
   -1.1100   19.6640  -34.5800 C   0  0  0  0  0  0  0  0  0  0  0  0
   -2.3070   19.2480  -33.7120 C   0  0  0  0  0  0  0  0  0  0  0  0
   -4.2980   23.3310  -30.8630 C   0  0  0  0  0  0  0  0  0  0  0  0
   -3.7140   24.3500  -30.1030 C   0  0  0  0  0  0  0  0  0  0  0  0
   -3.8770   25.6660  -30.5210 O   0  0  0  0  0  0  0  0  0  0  0  0
   -1.7241   24.8420  -26.0850 H   0  0  0  0  0  0  0  0  0  0  0  0
   -2.7769   26.2688  -26.3725 H   0  0  0  0  0  0  0  0  0  0  0  0
   -3.4829   24.6171  -26.3725 H   0  0  0  0  0  0  0  0  0  0  0  0
   -2.2752   22.4184  -27.6658 H   0  0  0  0  0  0  0  0  0  0  0  0
   -3.3315   20.6229  -29.0239 H   0  0  0  0  0  0  0  0  0  0  0  0
   -3.2266   21.1932  -33.7761 H   0  0  0  0  0  0  0  0  0  0  0  0
   -1.9624   22.3049  -32.3030 H   0  0  0  0  0  0  0  0  0  0  0  0
   -2.0587   20.9528  -31.0798 H   0  0  0  0  0  0  0  0  0  0  0  0
    0.2694   21.6131  -32.0944 H   0  0  0  0  0  0  0  0  0  0  0  0
   -0.1839   19.8782  -31.9062 H   0  0  0  0  0  0  0  0  0  0  0  0
   -0.4348   22.6099  -35.7154 H   0  0  0  0  0  0  0  0  0  0  0  0
    3.8062   22.7952  -36.5219 H   0  0  0  0  0  0  0  0  0  0  0  0
   -1.4840   20.1406  -35.4982 H   0  0  0  0  0  0  0  0  0  0  0  0
   -0.5260   18.7616  -34.8139 H   0  0  0  0  0  0  0  0  0  0  0  0
   -3.0750   18.7865  -34.3501 H   0  0  0  0  0  0  0  0  0  0  0  0
   -1.9659   18.5286  -32.9529 H   0  0  0  0  0  0  0  0  0  0  0  0
   -4.8903   23.5879  -31.7536 H   0  0  0  0  0  0  0  0  0  0  0  0
  1  2  1  0
  2  3  2  0
  2  4  1  0
  4  5  2  0
  5  6  1  0
  6  7  2  0
  7  8  1  0
  8  9  1  0
  9 10  2  0
  9 11  1  0
 11 12  1  0
 12 13  1  0
 13 14  1  0
 14 15  1  0
 15 16  2  0
 16 17  1  0
 17 18  1  0
 17 19  2  0
 19 20  1  0
 20 21  2  0
 14 22  1  0
 22 23  1  0
  7 24  1  0
 24 25  2  0
 25 26  1  0
 25  4  1  0
 23 11  1  0
 21 15  1  0
  1 27  1  0
  1 28  1  0
  1 29  1  0
  5 30  1  0
  6 31  1  0
 11 32  1  0
 12 33  1  0
 12 34  1  0
 13 35  1  0
 13 36  1  0
 16 37  1  0
 19 38  1  0
 22 39  1  0
 22 40  1  0
 23 41  1  0
 23 42  1  0
 24 43  1  0
M  CHG  3   8  -1  18  -1  26  -1
M  END
>  <UniqueID>  (4) 
4

>  <SMILES>  (4) 
CC(=O)c1ccc([N-]C(=O)C2CCN(c3cc([O-])cnn3)CC2)cc1[O-]

>  <Energy>  (4) 
58.37019155253462

>  <Genealogy>  (4) 
CC(=O)c1ccc([N-]C(=O)C2CCN(c3cc([O-])cnn3)CC2)cc1[O-] (protonated)
CC(=O)c1ccc([N-]C(=O)C2CCN(c3cc([O-])cnn3)CC2)cc1[O-] (3D coordinates assigned)
CC(=O)c1ccc([N-]C(=O)C2CCN(c3cc([O-])cnn3)CC2)cc1[O-] (nonaromatic ring conformer: 58.37019155253462 kcal/mol)

>  <smiles>  (4) 
CC(=O)c1ccc(NC(=O)C2CCN(c3cc(O)cnn3)CC2)cc1O

>  <score_type>  (4) 
oracle

>  <origin>  (4) 
adgpu

>  <m_score__min__energy>  (4) 
-11.57

>  <m_primary>  (4) 
energy

$$$$
4:0
     RDKit          3D

 54 57  0  0  0  0  0  0  0  0999 V2000
    2.3160   28.7190  -22.3520 C   0  0  0  0  0  0  0  0  0  0  0  0
    1.0840   28.7900  -23.1610 N   0  0  0  0  0  0  0  0  0  0  0  0
    1.4220   29.1680  -24.5510 C   0  0  0  0  0  0  0  0  0  0  0  0
    0.1970   29.0730  -25.4580 C   0  0  0  0  0  0  0  0  0  0  0  0
   -0.2520   27.6460  -25.4850 C   0  0  0  0  0  0  0  0  0  0  0  0
   -0.7050   27.0520  -26.6730 C   0  0  0  0  0  0  0  0  0  0  0  0
   -1.0560   25.6950  -26.6940 C   0  0  0  0  0  0  0  0  0  0  0  0
   -1.4840   25.0530  -27.9040 N   0  0  0  0  0  0  0  0  0  0  0  0
   -0.6070   24.3020  -28.7630 C   0  0  0  0  0  0  0  0  0  0  0  0
    0.5860   24.0860  -28.4240 O   0  0  0  0  0  0  0  0  0  0  0  0
   -1.0690   23.7900  -30.0200 N   0  0  0  0  0  0  0  0  0  0  0  0
   -2.3380   23.1650  -30.2530 C   0  0  0  0  0  0  0  0  0  0  0  0
   -2.3730   21.7840  -30.4670 C   0  0  0  0  0  0  0  0  0  0  0  0
   -3.5880   21.1310  -30.6860 C   0  0  0  0  0  0  0  0  0  0  0  0
   -4.7780   21.8600  -30.7160 C   0  0  0  0  0  0  0  0  0  0  0  0
   -4.7610   23.2550  -30.5570 C   0  0  0  0  0  0  0  0  0  0  0  0
   -6.2810   24.1620  -30.6610 S   0  0  0  0  0  0  0  0  0  0  0  0
   -6.0970   25.3150  -31.6080 O   0  0  0  0  0  0  0  0  0  0  0  0
   -6.6150   24.7370  -29.3120 O   0  0  0  0  0  0  0  0  0  0  0  0
   -7.6250   23.1860  -31.2090 N   0  0  0  0  0  0  0  0  0  0  0  0
   -7.2660   22.3420  -32.3460 C   0  0  0  0  0  0  0  0  0  0  0  0
   -8.2180   21.1500  -32.3160 C   0  0  0  0  0  0  0  0  0  0  0  0
   -8.8010   21.1360  -30.9110 C   0  0  0  0  0  0  0  0  0  0  0  0
   -8.0980   22.2670  -30.1780 C   0  0  0  0  0  0  0  0  0  0  0  0
   -3.5310   23.9120  -30.3470 C   0  0  0  0  0  0  0  0  0  0  0  0
   -3.4890   25.2990  -30.2520 O   0  0  0  0  0  0  0  0  0  0  0  0
   -0.9390   24.9380  -25.5180 C   0  0  0  0  0  0  0  0  0  0  0  0
   -0.5180   25.5360  -24.3290 C   0  0  0  0  0  0  0  0  0  0  0  0
   -0.1620   26.8910  -24.3060 C   0  0  0  0  0  0  0  0  0  0  0  0
    0.2610   27.5500  -23.0050 C   0  0  0  0  0  0  0  0  0  0  0  0
    2.0545   28.7341  -21.2836 H   0  0  0  0  0  0  0  0  0  0  0  0
    2.8543   27.7883  -22.5846 H   0  0  0  0  0  0  0  0  0  0  0  0
    2.9576   29.5817  -22.5846 H   0  0  0  0  0  0  0  0  0  0  0  0
    1.7977   30.2018  -24.5613 H   0  0  0  0  0  0  0  0  0  0  0  0
    2.1896   28.4749  -24.9256 H   0  0  0  0  0  0  0  0  0  0  0  0
   -0.6087   29.7100  -25.0642 H   0  0  0  0  0  0  0  0  0  0  0  0
    0.4477   29.4129  -26.4737 H   0  0  0  0  0  0  0  0  0  0  0  0
   -0.7849   27.6532  -27.5907 H   0  0  0  0  0  0  0  0  0  0  0  0
   -2.4590   25.2450  -28.2300 H   0  0  0  0  0  0  0  0  0  0  0  0
   -1.4364   21.2072  -30.4629 H   0  0  0  0  0  0  0  0  0  0  0  0
   -3.6072   20.0413  -30.8350 H   0  0  0  0  0  0  0  0  0  0  0  0
   -5.7349   21.3384  -30.8651 H   0  0  0  0  0  0  0  0  0  0  0  0
   -7.3848   22.9001  -33.2864 H   0  0  0  0  0  0  0  0  0  0  0  0
   -6.2172   22.0160  -32.2849 H   0  0  0  0  0  0  0  0  0  0  0  0
   -9.0158   21.2754  -33.0628 H   0  0  0  0  0  0  0  0  0  0  0  0
   -7.7028   20.2080  -32.5552 H   0  0  0  0  0  0  0  0  0  0  0  0
   -9.8864   21.3118  -30.9417 H   0  0  0  0  0  0  0  0  0  0  0  0
   -8.6513   20.1668  -30.4128 H   0  0  0  0  0  0  0  0  0  0  0  0
   -8.7999   22.7789  -29.5032 H   0  0  0  0  0  0  0  0  0  0  0  0
   -7.2671   21.8916  -29.5627 H   0  0  0  0  0  0  0  0  0  0  0  0
   -1.1809   23.8650  -25.5334 H   0  0  0  0  0  0  0  0  0  0  0  0
   -0.4655   24.9406  -23.4056 H   0  0  0  0  0  0  0  0  0  0  0  0
   -0.6483   27.8125  -22.4444 H   0  0  0  0  0  0  0  0  0  0  0  0
    0.9001   26.8209  -22.4854 H   0  0  0  0  0  0  0  0  0  0  0  0
  1  2  1  0
  2  3  1  0
  3  4  1  0
  4  5  1  0
  5  6  2  0
  6  7  1  0
  7  8  1  0
  8  9  1  0
  9 10  2  0
  9 11  1  0
 11 12  1  0
 12 13  2  0
 13 14  1  0
 14 15  2  0
 15 16  1  0
 16 17  1  0
 17 18  2  0
 17 19  2  0
 17 20  1  0
 20 21  1  0
 21 22  1  0
 22 23  1  0
 23 24  1  0
 16 25  2  0
 25 26  1  0
  7 27  2  0
 27 28  1  0
 28 29  2  0
 29 30  1  0
 30  2  1  0
 29  5  1  0
 25 12  1  0
 24 20  1  0
  1 31  1  0
  1 32  1  0
  1 33  1  0
  3 34  1  0
  3 35  1  0
  4 36  1  0
  4 37  1  0
  6 38  1  0
  8 39  1  0
 13 40  1  0
 14 41  1  0
 15 42  1  0
 21 43  1  0
 21 44  1  0
 22 45  1  0
 22 46  1  0
 23 47  1  0
 23 48  1  0
 24 49  1  0
 24 50  1  0
 27 51  1  0
 28 52  1  0
 30 53  1  0
 30 54  1  0
M  CHG  2  11  -1  26  -1
M  END
>  <UniqueID>  (5) 
5

>  <SMILES>  (5) 
CN1CCc2cc(NC(=O)[N-]c3cccc(S(=O)(=O)N4CCCC4)c3[O-])ccc2C1

>  <Energy>  (5) 
76.4549428024804

>  <Genealogy>  (5) 
CN1CCc2cc(NC(=O)[N-]c3cccc(S(=O)(=O)N4CCCC4)c3[O-])ccc2C1 (protonated)
CN1CCc2cc(NC(=O)[N-]c3cccc(S(=O)(=O)N4CCCC4)c3[O-])ccc2C1 (3D coordinates assigned)
CN1CCc2cc(NC(=O)[N-]c3cccc(S(=O)(=O)N4CCCC4)c3[O-])ccc2C1 (nonaromatic ring conformer: 76.4549428024804 kcal/mol)

>  <smiles>  (5) 
CN1CCc2cc(NC(=O)Nc3cccc(S(=O)(=O)N4CCCC4)c3O)ccc2C1

>  <score_type>  (5) 
oracle

>  <origin>  (5) 
adgpu

>  <m_score__min__energy>  (5) 
-13.52

>  <m_primary>  (5) 
energy

$$$$
5:0
     RDKit          3D

 61 65  0  0  0  0  0  0  0  0999 V2000
   -0.4420   28.3050  -25.8920 C   0  0  0  0  0  0  0  0  0  0  0  0
   -0.0470   27.0280  -25.2720 N   0  0  0  0  0  0  0  0  0  0  0  0
   -1.1100   26.4530  -24.4280 C   0  0  0  0  0  0  0  0  0  0  0  0
   -2.3450   26.0430  -25.2420 C   0  0  0  0  0  0  0  0  0  0  0  0
   -1.9730   25.2890  -26.4910 C   0  0  0  0  0  0  0  0  0  0  0  0
   -2.9660   24.5780  -27.1810 C   0  0  0  0  0  0  0  0  0  0  0  0
   -2.6600   23.8920  -28.3620 C   0  0  0  0  0  0  0  0  0  0  0  0
   -3.6900   23.1860  -29.0550 N   0  0  0  0  0  0  0  0  0  0  0  0
   -4.0650   23.5820  -30.6960 S   0  0  0  0  0  0  0  0  0  0  0  0
   -2.9980   23.0520  -31.6100 O   0  0  0  0  0  0  0  0  0  0  0  0
   -4.1240   25.0770  -30.8380 O   0  0  0  0  0  0  0  0  0  0  0  0
   -5.6210   22.8720  -31.1040 C   0  0  0  0  0  0  0  0  0  0  0  0
   -6.7940   23.2870  -30.4550 C   0  0  0  0  0  0  0  0  0  0  0  0
   -8.0090   22.6500  -30.7270 C   0  0  0  0  0  0  0  0  0  0  0  0
   -8.0520   21.5810  -31.6330 C   0  0  0  0  0  0  0  0  0  0  0  0
   -6.8850   21.1630  -32.2850 C   0  0  0  0  0  0  0  0  0  0  0  0
   -5.6760   21.8250  -32.0340 C   0  0  0  0  0  0  0  0  0  0  0  0
   -6.9650   20.0610  -33.3160 C   0  0  0  0  0  0  0  0  0  0  0  0
   -7.9940   19.0160  -33.0250 N   0  0  0  0  0  0  0  0  0  0  0  0
   -7.3860   17.6890  -32.7870 C   0  0  0  0  0  0  0  0  0  0  0  0
   -6.0960   17.5650  -33.5380 C   0  0  0  0  0  0  0  0  0  0  0  0
   -4.8320   17.5920  -32.9880 C   0  0  0  0  0  0  0  0  0  0  0  0
   -3.9530   17.4960  -33.9980 N   0  0  0  0  0  0  0  0  0  0  0  0
   -2.5020   17.4290  -33.8870 C   0  0  0  0  0  0  0  0  0  0  0  0
   -4.6890   17.3980  -35.1250 C   0  0  0  0  0  0  0  0  0  0  0  0
   -6.0170   17.4480  -34.8820 N   0  0  0  0  0  0  0  0  0  0  0  0
   -8.9710   19.3360  -31.9530 C   0  0  0  0  0  0  0  0  0  0  0  0
   -9.3140   20.8270  -31.9010 C   0  0  0  0  0  0  0  0  0  0  0  0
   -1.3500   23.9290  -28.8740 C   0  0  0  0  0  0  0  0  0  0  0  0
   -1.0110   23.2610  -30.0530 O   0  0  0  0  0  0  0  0  0  0  0  0
   -0.3640   24.6560  -28.2010 C   0  0  0  0  0  0  0  0  0  0  0  0
   -0.6660   25.3520  -27.0190 C   0  0  0  0  0  0  0  0  0  0  0  0
    0.4450   26.0560  -26.2720 C   0  0  0  0  0  0  0  0  0  0  0  0
   -0.6692   29.0397  -25.1055 H   0  0  0  0  0  0  0  0  0  0  0  0
    0.3822   28.6797  -26.5167 H   0  0  0  0  0  0  0  0  0  0  0  0
   -1.3339   28.1489  -26.5167 H   0  0  0  0  0  0  0  0  0  0  0  0
   -0.7129   25.5639  -23.9164 H   0  0  0  0  0  0  0  0  0  0  0  0
   -1.4227   27.2250  -23.7095 H   0  0  0  0  0  0  0  0  0  0  0  0
   -2.9850   25.4021  -24.6177 H   0  0  0  0  0  0  0  0  0  0  0  0
   -2.8728   26.9599  -25.5434 H   0  0  0  0  0  0  0  0  0  0  0  0
   -3.9942   24.5594  -26.7905 H   0  0  0  0  0  0  0  0  0  0  0  0
   -6.7578   24.1146  -29.7312 H   0  0  0  0  0  0  0  0  0  0  0  0
   -8.9305   22.9876  -30.2302 H   0  0  0  0  0  0  0  0  0  0  0  0
   -4.7647   21.5212  -32.5700 H   0  0  0  0  0  0  0  0  0  0  0  0
   -7.2028   20.5165  -34.2886 H   0  0  0  0  0  0  0  0  0  0  0  0
   -5.9899   19.5521  -33.3076 H   0  0  0  0  0  0  0  0  0  0  0  0
   -7.1926   17.5664  -31.7111 H   0  0  0  0  0  0  0  0  0  0  0  0
   -8.0795   16.9101  -33.1368 H   0  0  0  0  0  0  0  0  0  0  0  0
   -4.5887   17.6766  -31.9186 H   0  0  0  0  0  0  0  0  0  0  0  0
   -2.2157   17.4158  -32.8250 H   0  0  0  0  0  0  0  0  0  0  0  0
   -2.1387   16.5131  -34.3761 H   0  0  0  0  0  0  0  0  0  0  0  0
   -2.0559   18.3075  -34.3761 H   0  0  0  0  0  0  0  0  0  0  0  0
   -4.2556   17.2894  -36.1302 H   0  0  0  0  0  0  0  0  0  0  0  0
   -9.8947   18.7673  -32.1358 H   0  0  0  0  0  0  0  0  0  0  0  0
   -8.5134   19.0637  -30.9905 H   0  0  0  0  0  0  0  0  0  0  0  0
   -9.7423   21.1455  -32.8629 H   0  0  0  0  0  0  0  0  0  0  0  0
  -10.0519   21.0224  -31.1090 H   0  0  0  0  0  0  0  0  0  0  0  0
   -1.7020   22.8020  -30.6330 H   0  0  0  0  0  0  0  0  0  0  0  0
    0.6601   24.6834  -28.6016 H   0  0  0  0  0  0  0  0  0  0  0  0
    1.0518   25.2988  -25.7538 H   0  0  0  0  0  0  0  0  0  0  0  0
    1.0302   26.6195  -27.0136 H   0  0  0  0  0  0  0  0  0  0  0  0
  1  2  1  0
  2  3  1  0
  3  4  1  0
  4  5  1  0
  5  6  2  0
  6  7  1  0
  7  8  1  0
  8  9  1  0
  9 10  2  0
  9 11  2  0
  9 12  1  0
 12 13  2  0
 13 14  1  0
 14 15  2  0
 15 16  1  0
 16 17  2  0
 16 18  1  0
 18 19  1  0
 19 20  1  0
 20 21  1  0
 21 22  2  0
 22 23  1  0
 23 24  1  0
 23 25  1  0
 25 26  2  0
 19 27  1  0
 27 28  1  0
  7 29  2  0
 29 30  1  0
 29 31  1  0
 31 32  2  0
 32 33  1  0
 33  2  1  0
 32  5  1  0
 17 12  1  0
 26 21  1  0
 28 15  1  0
  1 34  1  0
  1 35  1  0
  1 36  1  0
  3 37  1  0
  3 38  1  0
  4 39  1  0
  4 40  1  0
  6 41  1  0
 13 42  1  0
 14 43  1  0
 17 44  1  0
 18 45  1  0
 18 46  1  0
 20 47  1  0
 20 48  1  0
 22 49  1  0
 24 50  1  0
 24 51  1  0
 24 52  1  0
 25 53  1  0
 27 54  1  0
 27 55  1  0
 28 56  1  0
 28 57  1  0
 30 58  1  0
 31 59  1  0
 33 60  1  0
 33 61  1  0
M  CHG  1   8  -1
M  END
>  <UniqueID>  (6) 
6

>  <SMILES>  (6) 
CN1CCc2cc([N-]S(=O)(=O)c3ccc4c(c3)CN(Cc3cn(C)cn3)CC4)c(O)cc2C1

>  <Energy>  (6) 
114.97421610094275

>  <Genealogy>  (6) 
CN1CCc2cc([N-]S(=O)(=O)c3ccc4c(c3)CN(Cc3cn(C)cn3)CC4)c(O)cc2C1 (protonated)
CN1CCc2cc([N-]S(=O)(=O)c3ccc4c(c3)CN(Cc3cn(C)cn3)CC4)c(O)cc2C1 (3D coordinates assigned)
CN1CCc2cc([N-]S(=O)(=O)c3ccc4c(c3)CN(Cc3cn(C)cn3)CC4)c(O)cc2C1 (nonaromatic ring conformer: 114.97421610094275 kcal/mol)

>  <smiles>  (6) 
CN1CCc2cc(NS(=O)(=O)c3ccc4c(c3)CN(Cc3cn(C)cn3)CC4)c(O)cc2C1

>  <score_type>  (6) 
oracle

>  <origin>  (6) 
adgpu

>  <m_score__min__energy>  (6) 
-12.91

>  <m_primary>  (6) 
energy

$$$$
6:0
     RDKit          3D

 33 35  0  0  0  0  0  0  0  0999 V2000
   -5.4360   20.7950  -33.0510 C   0  0  0  0  0  0  0  0  0  0  0  0
   -6.6730   21.2860  -32.3630 C   0  0  0  0  0  0  0  0  0  0  0  0
   -7.8970   20.7810  -32.6290 N   0  0  0  0  0  0  0  0  0  0  0  0
   -8.7210   21.4440  -31.7940 C   0  0  0  0  0  0  0  0  0  0  0  0
   -7.9940   22.3380  -31.0400 C   0  0  0  0  0  0  0  0  0  0  0  0
   -6.7040   22.2470  -31.4100 N   0  0  0  0  0  0  0  0  0  0  0  0
   -5.6170   23.0200  -30.8720 C   0  0  0  0  0  0  0  0  0  0  0  0
   -4.4140   22.4010  -30.4920 C   0  0  0  0  0  0  0  0  0  0  0  0
   -3.3550   23.1630  -29.9890 C   0  0  0  0  0  0  0  0  0  0  0  0
   -3.4750   24.5520  -29.8610 C   0  0  0  0  0  0  0  0  0  0  0  0
   -2.3640   25.2920  -29.3370 N   0  0  0  0  0  0  0  0  0  0  0  0
   -1.2950   24.7410  -28.0880 S   0  0  0  0  0  0  0  0  0  0  0  0
    0.0770   24.5260  -28.6650 O   0  0  0  0  0  0  0  0  0  0  0  0
   -1.8050   23.4390  -27.5370 O   0  0  0  0  0  0  0  0  0  0  0  0
   -1.2300   25.9230  -26.7960 C   0  0  0  0  0  0  0  0  0  0  0  0
   -1.9090   25.8410  -25.6030 C   0  0  0  0  0  0  0  0  0  0  0  0
   -1.6320   26.9500  -24.9000 N   0  0  0  0  0  0  0  0  0  0  0  0
   -0.8010   27.6730  -25.6780 C   0  0  0  0  0  0  0  0  0  0  0  0
   -0.5320   27.0730  -26.8570 N   0  0  0  0  0  0  0  0  0  0  0  0
   -4.6720   25.1760  -30.2570 C   0  0  0  0  0  0  0  0  0  0  0  0
   -5.7310   24.4160  -30.7610 C   0  0  0  0  0  0  0  0  0  0  0  0
   -4.6906   20.4991  -32.2981 H   0  0  0  0  0  0  0  0  0  0  0  0
   -5.6859   19.9279  -33.6800 H   0  0  0  0  0  0  0  0  0  0  0  0
   -5.0232   21.5975  -33.6800 H   0  0  0  0  0  0  0  0  0  0  0  0
   -9.8085   21.2940  -31.7252 H   0  0  0  0  0  0  0  0  0  0  0  0
   -8.3982   23.0101  -30.2687 H   0  0  0  0  0  0  0  0  0  0  0  0
   -4.3048   21.3109  -30.5908 H   0  0  0  0  0  0  0  0  0  0  0  0
   -2.4195   22.6668  -29.6913 H   0  0  0  0  0  0  0  0  0  0  0  0
   -2.5615   25.0153  -25.2827 H   0  0  0  0  0  0  0  0  0  0  0  0
   -1.9900   27.2020  -23.9530 H   0  0  0  0  0  0  0  0  0  0  0  0
   -0.3863   28.6483  -25.3832 H   0  0  0  0  0  0  0  0  0  0  0  0
   -4.7750   26.2677  -30.1695 H   0  0  0  0  0  0  0  0  0  0  0  0
   -6.6606   24.9144  -31.0731 H   0  0  0  0  0  0  0  0  0  0  0  0
  1  2  1  0
  2  3  2  0
  3  4  1  0
  4  5  2  0
  5  6  1  0
  6  7  1  0
  7  8  2  0
  8  9  1  0
  9 10  2  0
 10 11  1  0
 11 12  1  0
 12 13  2  0
 12 14  2  0
 12 15  1  0
 15 16  2  0
 16 17  1  0
 17 18  1  0
 18 19  2  0
 10 20  1  0
 20 21  2  0
  6  2  1  0
 21  7  1  0
 19 15  1  0
  1 22  1  0
  1 23  1  0
  1 24  1  0
  4 25  1  0
  5 26  1  0
  8 27  1  0
  9 28  1  0
 16 29  1  0
 17 30  1  0
 18 31  1  0
 20 32  1  0
 21 33  1  0
M  CHG  1  11  -1
M  END
>  <UniqueID>  (7) 
7

>  <SMILES>  (7) 
Cc1nccn1-c1ccc([N-]S(=O)(=O)c2c[nH]cn2)cc1

>  <Energy>  (7) 
100.60220905981704

>  <Genealogy>  (7) 
Cc1nccn1-c1ccc([N-]S(=O)(=O)c2c[nH]cn2)cc1 (protonated)
Cc1nccn1-c1ccc([N-]S(=O)(=O)c2c[nH]cn2)cc1 (3D coordinates assigned)
Cc1nccn1-c1ccc([N-]S(=O)(=O)c2c[nH]cn2)cc1 (optimized conformer: 100.60220905981704 kcal/mol)

>  <smiles>  (7) 
Cc1nccn1-c1ccc(NS(=O)(=O)c2c[nH]cn2)cc1

>  <score_type>  (7) 
oracle

>  <origin>  (7) 
adgpu

>  <m_score__min__energy>  (7) 
-8.9900000000000002

>  <m_primary>  (7) 
energy

$$$$
7:0
     RDKit          3D

 66 69  0  0  0  0  0  0  0  0999 V2000
   -1.2390   18.7600  -27.1680 C   0  0  0  0  0  0  0  0  0  0  0  0
   -1.2060   20.2540  -27.3160 C   0  0  0  0  0  0  0  0  0  0  0  0
   -0.0160   20.9070  -27.6720 C   0  0  0  0  0  0  0  0  0  0  0  0
    0.0030   22.2950  -27.8390 C   0  0  0  0  0  0  0  0  0  0  0  0
   -1.1710   23.0420  -27.6670 C   0  0  0  0  0  0  0  0  0  0  0  0
   -1.1380   24.7930  -27.8980 S   0  0  0  0  0  0  0  0  0  0  0  0
    0.2960   25.2310  -28.0100 O   0  0  0  0  0  0  0  0  0  0  0  0
   -1.7510   25.4770  -26.7080 O   0  0  0  0  0  0  0  0  0  0  0  0
   -1.9930   25.2870  -29.3340 N   0  0  0  0  0  0  0  0  0  0  0  0
   -3.3140   24.6600  -29.4370 C   0  0  0  0  0  0  0  0  0  0  0  0
   -3.2980   23.4550  -30.3450 C   0  0  0  0  0  0  0  0  0  0  0  0
   -4.4690   23.0410  -30.9950 C   0  0  0  0  0  0  0  0  0  0  0  0
   -4.4520   21.9290  -31.8440 C   0  0  0  0  0  0  0  0  0  0  0  0
   -3.2570   21.2200  -32.0650 C   0  0  0  0  0  0  0  0  0  0  0  0
   -3.2300   20.0270  -32.9440 C   0  0  0  0  0  0  0  0  0  0  0  0
   -4.0570   19.9360  -33.8920 O   0  0  0  0  0  0  0  0  0  0  0  0
   -2.3010   18.9550  -32.7060 N   0  0  0  0  0  0  0  0  0  0  0  0
   -1.9840   17.9580  -33.6920 C   0  0  0  0  0  0  0  0  0  0  0  0
   -0.8500   18.0820  -34.5130 C   0  0  0  0  0  0  0  0  0  0  0  0
   -0.5650   17.1070  -35.4730 C   0  0  0  0  0  0  0  0  0  0  0  0
   -1.4090   16.0050  -35.6260 C   0  0  0  0  0  0  0  0  0  0  0  0
   -2.5440   15.8690  -34.8130 C   0  0  0  0  0  0  0  0  0  0  0  0
   -3.4630   14.7340  -34.9980 C   0  0  0  0  0  0  0  0  0  0  0  0
   -3.3240   14.0160  -36.0240 O   0  0  0  0  0  0  0  0  0  0  0  0
   -4.4900   14.4200  -34.0310 N   0  0  0  0  0  0  0  0  0  0  0  0
   -4.1230   13.6300  -32.8500 C   0  0  0  0  0  0  0  0  0  0  0  0
   -5.8680   14.9200  -34.1790 C   0  0  0  0  0  0  0  0  0  0  0  0
   -6.0290   16.2550  -33.4990 C   0  0  0  0  0  0  0  0  0  0  0  0
   -6.4530   17.3840  -34.2220 C   0  0  0  0  0  0  0  0  0  0  0  0
   -6.5590   18.6260  -33.5890 C   0  0  0  0  0  0  0  0  0  0  0  0
   -6.2600   18.7470  -32.2290 C   0  0  0  0  0  0  0  0  0  0  0  0
   -5.8590   17.6260  -31.4990 C   0  0  0  0  0  0  0  0  0  0  0  0
   -5.7400   16.3830  -32.1290 C   0  0  0  0  0  0  0  0  0  0  0  0
   -2.8070   16.8290  -33.8250 C   0  0  0  0  0  0  0  0  0  0  0  0
   -2.0840   21.6430  -31.4160 C   0  0  0  0  0  0  0  0  0  0  0  0
   -2.1020   22.7590  -30.5750 C   0  0  0  0  0  0  0  0  0  0  0  0
   -2.3630   22.3900  -27.3230 C   0  0  0  0  0  0  0  0  0  0  0  0
   -2.3830   21.0010  -27.1580 C   0  0  0  0  0  0  0  0  0  0  0  0
   -1.2448   18.4974  -26.0998 H   0  0  0  0  0  0  0  0  0  0  0  0
   -2.1461   18.3639  -27.6479 H   0  0  0  0  0  0  0  0  0  0  0  0
   -0.3503   18.3243  -27.6479 H   0  0  0  0  0  0  0  0  0  0  0  0
    0.9053   20.3246  -27.8202 H   0  0  0  0  0  0  0  0  0  0  0  0
    0.9417   22.8024  -28.1061 H   0  0  0  0  0  0  0  0  0  0  0  0
   -3.6367   24.3446  -28.4338 H   0  0  0  0  0  0  0  0  0  0  0  0
   -4.0084   25.3984  -29.8642 H   0  0  0  0  0  0  0  0  0  0  0  0
   -5.4068   23.5937  -30.8366 H   0  0  0  0  0  0  0  0  0  0  0  0
   -5.3786   21.6071  -32.3418 H   0  0  0  0  0  0  0  0  0  0  0  0
   -1.9610   18.8040  -31.7300 H   0  0  0  0  0  0  0  0  0  0  0  0
   -0.1840   18.9501  -34.3995 H   0  0  0  0  0  0  0  0  0  0  0  0
    0.3264   17.2079  -36.1096 H   0  0  0  0  0  0  0  0  0  0  0  0
   -1.1833   15.2421  -36.3856 H   0  0  0  0  0  0  0  0  0  0  0  0
   -4.3829   14.1895  -31.9393 H   0  0  0  0  0  0  0  0  0  0  0  0
   -4.6700   12.6757  -32.8627 H   0  0  0  0  0  0  0  0  0  0  0  0
   -3.0409   13.4325  -32.8627 H   0  0  0  0  0  0  0  0  0  0  0  0
   -6.0987   15.0301  -35.2489 H   0  0  0  0  0  0  0  0  0  0  0  0
   -6.5561   14.2007  -33.7109 H   0  0  0  0  0  0  0  0  0  0  0  0
   -6.7021   17.2897  -35.2893 H   0  0  0  0  0  0  0  0  0  0  0  0
   -6.8781   19.5091  -34.1620 H   0  0  0  0  0  0  0  0  0  0  0  0
   -6.3406   19.7257  -31.7334 H   0  0  0  0  0  0  0  0  0  0  0  0
   -5.6362   17.7209  -30.4260 H   0  0  0  0  0  0  0  0  0  0  0  0
   -5.4196   15.5035  -31.5513 H   0  0  0  0  0  0  0  0  0  0  0  0
   -3.6647   16.6961  -33.1493 H   0  0  0  0  0  0  0  0  0  0  0  0
   -1.1450   21.0915  -31.5713 H   0  0  0  0  0  0  0  0  0  0  0  0
   -1.1728   23.0936  -30.0906 H   0  0  0  0  0  0  0  0  0  0  0  0
   -3.2856   22.9722  -27.1823 H   0  0  0  0  0  0  0  0  0  0  0  0
   -3.3248   20.4928  -26.9035 H   0  0  0  0  0  0  0  0  0  0  0  0
  1  2  1  0
  2  3  2  0
  3  4  1  0
  4  5  2  0
  5  6  1  0
  6  7  2  0
  6  8  2  0
  6  9  1  0
  9 10  1  0
 10 11  1  0
 11 12  2  0
 12 13  1  0
 13 14  2  0
 14 15  1  0
 15 16  2  0
 15 17  1  0
 17 18  1  0
 18 19  2  0
 19 20  1  0
 20 21  2  0
 21 22  1  0
 22 23  1  0
 23 24  2  0
 23 25  1  0
 25 26  1  0
 25 27  1  0
 27 28  1  0
 28 29  2  0
 29 30  1  0
 30 31  2  0
 31 32  1  0
 32 33  2  0
 22 34  2  0
 14 35  1  0
 35 36  2  0
  5 37  1  0
 37 38  2  0
 38  2  1  0
 36 11  1  0
 34 18  1  0
 33 28  1  0
  1 39  1  0
  1 40  1  0
  1 41  1  0
  3 42  1  0
  4 43  1  0
 10 44  1  0
 10 45  1  0
 12 46  1  0
 13 47  1  0
 17 48  1  0
 19 49  1  0
 20 50  1  0
 21 51  1  0
 26 52  1  0
 26 53  1  0
 26 54  1  0
 27 55  1  0
 27 56  1  0
 29 57  1  0
 30 58  1  0
 31 59  1  0
 32 60  1  0
 33 61  1  0
 34 62  1  0
 35 63  1  0
 36 64  1  0
 37 65  1  0
 38 66  1  0
M  CHG  1   9  -1
M  END
>  <UniqueID>  (8) 
8

>  <SMILES>  (8) 
Cc1ccc(S(=O)(=O)[N-]Cc2ccc(C(=O)Nc3cccc(C(=O)N(C)Cc4ccccc4)c3)cc2)cc1

>  <Energy>  (8) 
75.38148368072714

>  <Genealogy>  (8) 
Cc1ccc(S(=O)(=O)[N-]Cc2ccc(C(=O)Nc3cccc(C(=O)N(C)Cc4ccccc4)c3)cc2)cc1 (protonated)
Cc1ccc(S(=O)(=O)[N-]Cc2ccc(C(=O)Nc3cccc(C(=O)N(C)Cc4ccccc4)c3)cc2)cc1 (3D coordinates assigned)
Cc1ccc(S(=O)(=O)[N-]Cc2ccc(C(=O)Nc3cccc(C(=O)N(C)Cc4ccccc4)c3)cc2)cc1 (optimized conformer: 75.38148368072714 kcal/mol)

>  <smiles>  (8) 
Cc1ccc(S(=O)(=O)NCc2ccc(C(=O)Nc3cccc(C(=O)N(C)Cc4ccccc4)c3)cc2)cc1

>  <score_type>  (8) 
oracle

>  <origin>  (8) 
adgpu

>  <m_score__min__energy>  (8) 
-11.06

>  <m_primary>  (8) 
energy

$$$$
8:0
     RDKit          3D

 51 54  0  0  0  0  0  0  0  0999 V2000
   -2.0960   24.2500  -29.0210 N   0  0  0  0  0  0  0  0  0  0  0  0
   -2.4040   22.5530  -28.9240 S   0  0  0  0  0  0  0  0  0  0  0  0
   -1.8640   22.0210  -27.6250 O   0  0  0  0  0  0  0  0  0  0  0  0
   -3.8870   22.3080  -28.9640 O   0  0  0  0  0  0  0  0  0  0  0  0
   -1.6280   21.7350  -30.2750 C   0  0  0  0  0  0  0  0  0  0  0  0
   -1.7500   22.2460  -31.5750 C   0  0  0  0  0  0  0  0  0  0  0  0
   -1.1490   21.5850  -32.6490 C   0  0  0  0  0  0  0  0  0  0  0  0
   -0.4410   20.3880  -32.4380 C   0  0  0  0  0  0  0  0  0  0  0  0
    0.1990   19.6920  -33.5210 N   0  0  0  0  0  0  0  0  0  0  0  0
   -0.3300   18.7660  -34.2280 N   0  0  0  0  0  0  0  0  0  0  0  0
   -1.6080   18.1560  -33.9780 C   0  0  0  0  0  0  0  0  0  0  0  0
   -2.8000   18.8780  -34.1650 C   0  0  0  0  0  0  0  0  0  0  0  0
   -2.7320   20.2160  -34.5650 O   0  0  0  0  0  0  0  0  0  0  0  0
   -4.0420   18.2630  -33.9270 C   0  0  0  0  0  0  0  0  0  0  0  0
   -5.2430   19.0270  -34.0580 N   0  0  0  0  0  0  0  0  0  0  0  0
   -6.2250   19.3770  -32.6740 S   0  0  0  0  0  0  0  0  0  0  0  0
   -7.6740   19.1700  -33.0120 O   0  0  0  0  0  0  0  0  0  0  0  0
   -5.8470   18.4470  -31.5540 O   0  0  0  0  0  0  0  0  0  0  0  0
   -5.9670   21.0470  -32.1660 C   0  0  0  0  0  0  0  0  0  0  0  0
   -6.8170   21.6470  -31.2290 C   0  0  0  0  0  0  0  0  0  0  0  0
   -6.5550   22.9390  -30.7670 C   0  0  0  0  0  0  0  0  0  0  0  0
   -5.4380   23.6520  -31.2380 C   0  0  0  0  0  0  0  0  0  0  0  0
   -5.1490   25.0170  -30.7440 C   0  0  0  0  0  0  0  0  0  0  0  0
   -6.0650   25.7230  -30.2410 O   0  0  0  0  0  0  0  0  0  0  0  0
   -3.8640   25.5390  -30.8270 O   0  0  0  0  0  0  0  0  0  0  0  0
   -4.5920   23.0460  -32.1820 C   0  0  0  0  0  0  0  0  0  0  0  0
   -4.8560   21.7540  -32.6430 C   0  0  0  0  0  0  0  0  0  0  0  0
   -4.0920   16.9220  -33.4850 C   0  0  0  0  0  0  0  0  0  0  0  0
   -5.3220   16.2710  -33.2640 C   0  0  0  0  0  0  0  0  0  0  0  0
   -5.3540   14.9630  -32.7780 C   0  0  0  0  0  0  0  0  0  0  0  0
   -4.1660   14.2820  -32.5200 C   0  0  0  0  0  0  0  0  0  0  0  0
   -2.9360   14.9010  -32.7500 C   0  0  0  0  0  0  0  0  0  0  0  0
   -2.8840   16.2210  -33.2370 C   0  0  0  0  0  0  0  0  0  0  0  0
   -1.6500   16.8490  -33.4800 C   0  0  0  0  0  0  0  0  0  0  0  0
   -0.4550   16.1730  -33.2450 O   0  0  0  0  0  0  0  0  0  0  0  0
   -0.2950   19.8990  -31.1350 C   0  0  0  0  0  0  0  0  0  0  0  0
   -0.8960   20.5600  -30.0600 C   0  0  0  0  0  0  0  0  0  0  0  0
   -2.1430   24.5110  -30.0310 H   0  0  0  0  0  0  0  0  0  0  0  0
   -2.3206   23.1701  -31.7497 H   0  0  0  0  0  0  0  0  0  0  0  0
   -1.2297   22.0022  -33.6636 H   0  0  0  0  0  0  0  0  0  0  0  0
   -1.8600   20.6760  -34.7890 H   0  0  0  0  0  0  0  0  0  0  0  0
   -7.6944   21.0989  -30.8553 H   0  0  0  0  0  0  0  0  0  0  0  0
   -7.2271   23.4020  -30.0295 H   0  0  0  0  0  0  0  0  0  0  0  0
   -3.7158   23.5927  -32.5607 H   0  0  0  0  0  0  0  0  0  0  0  0
   -4.1884   21.2899  -33.3839 H   0  0  0  0  0  0  0  0  0  0  0  0
   -6.2641   16.7977  -33.4761 H   0  0  0  0  0  0  0  0  0  0  0  0
   -6.3199   14.4683  -32.5981 H   0  0  0  0  0  0  0  0  0  0  0  0
   -4.1975   13.2526  -32.1336 H   0  0  0  0  0  0  0  0  0  0  0  0
   -2.0026   14.3546  -32.5497 H   0  0  0  0  0  0  0  0  0  0  0  0
    0.2963   18.9889  -30.9557 H   0  0  0  0  0  0  0  0  0  0  0  0
   -0.7939   20.1563  -29.0419 H   0  0  0  0  0  0  0  0  0  0  0  0
  1  2  1  0
  2  3  2  0
  2  4  2  0
  2  5  1  0
  5  6  2  0
  6  7  1  0
  7  8  2  0
  8  9  1  0
  9 10  2  3
 10 11  1  0
 11 12  2  0
 12 13  1  0
 12 14  1  0
 14 15  1  0
 15 16  1  0
 16 17  2  0
 16 18  2  0
 16 19  1  0
 19 20  2  0
 20 21  1  0
 21 22  2  0
 22 23  1  0
 23 24  2  0
 23 25  1  0
 22 26  1  0
 26 27  2  0
 14 28  2  0
 28 29  1  0
 29 30  2  0
 30 31  1  0
 31 32  2  0
 32 33  1  0
 33 34  2  0
 34 35  1  0
  8 36  1  0
 36 37  2  0
 37  5  1  0
 34 11  1  0
 27 19  1  0
 33 28  1  0
  1 38  1  0
  6 39  1  0
  7 40  1  0
 13 41  1  0
 20 42  1  0
 21 43  1  0
 26 44  1  0
 27 45  1  0
 29 46  1  0
 30 47  1  0
 31 48  1  0
 32 49  1  0
 36 50  1  0
 37 51  1  0
M  CHG  4   1  -1  15  -1  25  -1  35  -1
M  END
>  <UniqueID>  (9) 
9

>  <SMILES>  (9) 
[NH-]S(=O)(=O)c1ccc(N=Nc2c(O)c([N-]S(=O)(=O)c3ccc(C(=O)[O-])cc3)c3ccccc3c2[O-])cc1

>  <Energy>  (9) 
83.43846332841633

>  <Genealogy>  (9) 
[NH-]S(=O)(=O)c1ccc(N=Nc2c(O)c([N-]S(=O)(=O)c3ccc(C(=O)[O-])cc3)c3ccccc3c2[O-])cc1 (protonated)
[NH-]S(=O)(=O)c1ccc(N=Nc2c(O)c([N-]S(=O)(=O)c3ccc(C(=O)[O-])cc3)c3ccccc3c2[O-])cc1 (3D coordinates assigned)
[NH-]S(=O)(=O)c1ccc(N=Nc2c(O)c([N-]S(=O)(=O)c3ccc(C(=O)[O-])cc3)c3ccccc3c2[O-])cc1 (optimized conformer: 83.43846332841633 kcal/mol)

>  <smiles>  (9) 
NS(=O)(=O)c1ccc(N=Nc2c(O)c(NS(=O)(=O)c3ccc(C(=O)O)cc3)c3ccccc3c2O)cc1

>  <score_type>  (9) 
oracle

>  <origin>  (9) 
adgpu

>  <m_score__min__energy>  (9) 
-11.58

>  <m_primary>  (9) 
energy

$$$$
9:0
     RDKit          3D

 48 51  0  0  0  0  0  0  0  0999 V2000
   -8.5610   18.5240  -31.6260 C   0  0  0  0  0  0  0  0  0  0  0  0
   -9.3280   19.9940  -32.3750 S   0  0  0  0  0  0  0  0  0  0  0  0
   -7.9410   21.0520  -31.9840 C   0  0  0  0  0  0  0  0  0  0  0  0
   -6.6540   20.7140  -32.2430 N   0  0  0  0  0  0  0  0  0  0  0  0
   -5.8090   21.6940  -31.8290 C   0  0  0  0  0  0  0  0  0  0  0  0
   -4.4210   21.6400  -31.9500 C   0  0  0  0  0  0  0  0  0  0  0  0
   -3.6570   22.7130  -31.4560 C   0  0  0  0  0  0  0  0  0  0  0  0
   -4.2800   23.8170  -30.8360 C   0  0  0  0  0  0  0  0  0  0  0  0
   -3.4640   24.8680  -30.3000 N   0  0  0  0  0  0  0  0  0  0  0  0
   -2.4500   24.7040  -29.2980 C   0  0  0  0  0  0  0  0  0  0  0  0
   -1.9820   25.7270  -28.7320 O   0  0  0  0  0  0  0  0  0  0  0  0
   -1.9260   23.3690  -28.9330 C   0  0  0  0  0  0  0  0  0  0  0  0
   -0.6050   23.0090  -29.2520 C   0  0  0  0  0  0  0  0  0  0  0  0
   -0.1480   21.7130  -29.0050 C   0  0  0  0  0  0  0  0  0  0  0  0
   -0.9990   20.7640  -28.4240 C   0  0  0  0  0  0  0  0  0  0  0  0
   -0.4640   19.0980  -28.2240 S   0  0  0  0  0  0  0  0  0  0  0  0
   -1.4790   18.3550  -27.4020 O   0  0  0  0  0  0  0  0  0  0  0  0
    0.8520   19.0720  -27.4970 O   0  0  0  0  0  0  0  0  0  0  0  0
   -0.3050   18.3420  -29.7910 N   0  0  0  0  0  0  0  0  0  0  0  0
   -0.8480   19.2220  -30.8430 C   0  0  0  0  0  0  0  0  0  0  0  0
   -0.5690   18.6480  -32.2490 C   0  0  0  0  0  0  0  0  0  0  0  0
    0.0770   17.3900  -32.1850 O   0  0  0  0  0  0  0  0  0  0  0  0
    1.3080   17.5260  -31.5050 C   0  0  0  0  0  0  0  0  0  0  0  0
    1.1100   18.0230  -30.0560 C   0  0  0  0  0  0  0  0  0  0  0  0
   -2.3030   21.1300  -28.0680 C   0  0  0  0  0  0  0  0  0  0  0  0
   -2.7610   22.4280  -28.3110 C   0  0  0  0  0  0  0  0  0  0  0  0
   -5.6910   23.8720  -30.7630 C   0  0  0  0  0  0  0  0  0  0  0  0
   -6.4190   22.7930  -31.2510 C   0  0  0  0  0  0  0  0  0  0  0  0
   -8.0820   22.5670  -31.2440 S   0  0  0  0  0  0  0  0  0  0  0  0
   -8.6039   18.6063  -30.5299 H   0  0  0  0  0  0  0  0  0  0  0  0
   -9.1039   17.6230  -31.9476 H   0  0  0  0  0  0  0  0  0  0  0  0
   -7.5114   18.4540  -31.9476 H   0  0  0  0  0  0  0  0  0  0  0  0
   -3.9327   20.7750  -32.4227 H   0  0  0  0  0  0  0  0  0  0  0  0
   -2.5616   22.6912  -31.5541 H   0  0  0  0  0  0  0  0  0  0  0  0
    0.0720   23.7522  -29.6985 H   0  0  0  0  0  0  0  0  0  0  0  0
    0.8837   21.4362  -29.2675 H   0  0  0  0  0  0  0  0  0  0  0  0
   -0.8590   17.4540  -29.7680 H   0  0  0  0  0  0  0  0  0  0  0  0
   -1.9349   19.3191  -30.7041 H   0  0  0  0  0  0  0  0  0  0  0  0
   -0.3580   20.2036  -30.7636 H   0  0  0  0  0  0  0  0  0  0  0  0
   -1.5243   18.5309  -32.7817 H   0  0  0  0  0  0  0  0  0  0  0  0
    0.0957   19.3470  -32.7777 H   0  0  0  0  0  0  0  0  0  0  0  0
    1.8114   16.5482  -31.4806 H   0  0  0  0  0  0  0  0  0  0  0  0
    1.9153   18.2695  -32.0419 H   0  0  0  0  0  0  0  0  0  0  0  0
    1.4374   17.2373  -29.3592 H   0  0  0  0  0  0  0  0  0  0  0  0
    1.7055   18.9373  -29.9167 H   0  0  0  0  0  0  0  0  0  0  0  0
   -2.9693   20.3933  -27.5954 H   0  0  0  0  0  0  0  0  0  0  0  0
   -3.7808   22.7133  -28.0133 H   0  0  0  0  0  0  0  0  0  0  0  0
   -6.1997   24.7464  -30.3310 H   0  0  0  0  0  0  0  0  0  0  0  0
  1  2  1  0
  2  3  1  0
  3  4  2  0
  4  5  1  0
  5  6  2  0
  6  7  1  0
  7  8  2  0
  8  9  1  0
  9 10  1  0
 10 11  2  0
 10 12  1  0
 12 13  2  0
 13 14  1  0
 14 15  2  0
 15 16  1  0
 16 17  2  0
 16 18  2  0
 16 19  1  0
 19 20  1  0
 20 21  1  0
 21 22  1  0
 22 23  1  0
 23 24  1  0
 15 25  1  0
 25 26  2  0
  8 27  1  0
 27 28  2  0
 28 29  1  0
 29  3  1  0
 28  5  1  0
 26 12  1  0
 24 19  1  0
  1 30  1  0
  1 31  1  0
  1 32  1  0
  6 33  1  0
  7 34  1  0
 13 35  1  0
 14 36  1  0
 19 37  1  0
 20 38  1  0
 20 39  1  0
 21 40  1  0
 21 41  1  0
 23 42  1  0
 23 43  1  0
 24 44  1  0
 24 45  1  0
 25 46  1  0
 26 47  1  0
 27 48  1  0
M  CHG  2   9  -1  19   1
M  END
>  <UniqueID>  (10) 
10

>  <SMILES>  (10) 
CSc1nc2ccc([N-]C(=O)c3ccc(S(=O)(=O)[NH+]4CCOCC4)cc3)cc2s1

>  <Energy>  (10) 
93.72650521279346

>  <Genealogy>  (10) 
CSc1nc2ccc([N-]C(=O)c3ccc(S(=O)(=O)[NH+]4CCOCC4)cc3)cc2s1 (protonated)
CSc1nc2ccc([N-]C(=O)c3ccc(S(=O)(=O)[NH+]4CCOCC4)cc3)cc2s1 (3D coordinates assigned)
CSc1nc2ccc([N-]C(=O)c3ccc(S(=O)(=O)[NH+]4CCOCC4)cc3)cc2s1 (nonaromatic ring conformer: 93.72650521279346 kcal/mol)

>  <smiles>  (10) 
CSc1nc2ccc(NC(=O)c3ccc(S(=O)(=O)N4CCOCC4)cc3)cc2s1

>  <score_type>  (10) 
oracle

>  <origin>  (10) 
adgpu

>  <m_score__min__energy>  (10) 
-11.93

>  <m_primary>  (10) 
energy

$$$$
10:0
     RDKit          3D

 57 60  0  0  0  0  0  0  0  0999 V2000
   -1.3360   21.0110  -26.8490 C   0  0  0  0  0  0  0  0  0  0  0  0
   -2.2050   22.0620  -27.4930 C   0  0  0  0  0  0  0  0  0  0  0  0
   -3.5740   21.7950  -27.6550 C   0  0  0  0  0  0  0  0  0  0  0  0
   -4.4170   22.7310  -28.2450 C   0  0  0  0  0  0  0  0  0  0  0  0
   -3.9120   23.9460  -28.7080 C   0  0  0  0  0  0  0  0  0  0  0  0
   -4.8190   24.8790  -29.3120 N   0  0  0  0  0  0  0  0  0  0  0  0
   -5.0660   24.9800  -30.7180 C   0  0  0  0  0  0  0  0  0  0  0  0
   -5.3240   26.1050  -31.2170 O   0  0  0  0  0  0  0  0  0  0  0  0
   -5.0390   23.8030  -31.5400 N   0  0  0  0  0  0  0  0  0  0  0  0
   -6.0880   22.8450  -31.7480 C   0  0  0  0  0  0  0  0  0  0  0  0
   -7.4000   23.0540  -31.2890 C   0  0  0  0  0  0  0  0  0  0  0  0
   -8.3790   22.0750  -31.4850 C   0  0  0  0  0  0  0  0  0  0  0  0
   -8.0520   20.8690  -32.1150 C   0  0  0  0  0  0  0  0  0  0  0  0
   -6.7440   20.6400  -32.5490 C   0  0  0  0  0  0  0  0  0  0  0  0
   -5.7680   21.6330  -32.3710 C   0  0  0  0  0  0  0  0  0  0  0  0
   -6.4220   19.3610  -33.2910 C   0  0  0  0  0  0  0  0  0  0  0  0
   -7.2210   18.1770  -32.8640 N   0  0  0  0  0  0  0  0  0  0  0  0
   -6.3600   17.1400  -32.2810 C   0  0  0  0  0  0  0  0  0  0  0  0
   -8.3730   18.4460  -31.9660 C   0  0  0  0  0  0  0  0  0  0  0  0
   -9.0580   19.7750  -32.2880 C   0  0  0  0  0  0  0  0  0  0  0  0
   -2.5480   24.2460  -28.5290 C   0  0  0  0  0  0  0  0  0  0  0  0
   -2.0760   25.5000  -28.8920 O   0  0  0  0  0  0  0  0  0  0  0  0
   -1.6750   23.2960  -27.9530 C   0  0  0  0  0  0  0  0  0  0  0  0
    0.0620   23.6530  -27.7880 S   0  0  0  0  0  0  0  0  0  0  0  0
    0.5420   24.5400  -28.9040 O   0  0  0  0  0  0  0  0  0  0  0  0
    0.8350   22.3650  -27.8560 O   0  0  0  0  0  0  0  0  0  0  0  0
    0.3580   24.4370  -26.2540 N   0  0  0  0  0  0  0  0  0  0  0  0
   -0.8220   24.3350  -25.3670 C   0  0  0  0  0  0  0  0  0  0  0  0
   -1.6110   25.6560  -25.3040 C   0  0  0  0  0  0  0  0  0  0  0  0
   -0.8370   26.7400  -24.8150 O   0  0  0  0  0  0  0  0  0  0  0  0
    0.5280   26.6960  -25.2300 C   0  0  0  0  0  0  0  0  0  0  0  0
    0.7870   25.8330  -26.4780 C   0  0  0  0  0  0  0  0  0  0  0  0
   -1.4069   21.0968  -25.7546 H   0  0  0  0  0  0  0  0  0  0  0  0
   -1.6758   20.0125  -27.1613 H   0  0  0  0  0  0  0  0  0  0  0  0
   -0.2914   21.1571  -27.1613 H   0  0  0  0  0  0  0  0  0  0  0  0
   -3.9847   20.8342  -27.3112 H   0  0  0  0  0  0  0  0  0  0  0  0
   -5.4900   22.5114  -28.3472 H   0  0  0  0  0  0  0  0  0  0  0  0
   -7.6575   23.9911  -30.7737 H   0  0  0  0  0  0  0  0  0  0  0  0
   -9.4091   22.2534  -31.1430 H   0  0  0  0  0  0  0  0  0  0  0  0
   -4.7414   21.4570  -32.7246 H   0  0  0  0  0  0  0  0  0  0  0  0
   -6.6057   19.5304  -34.3622 H   0  0  0  0  0  0  0  0  0  0  0  0
   -5.3715   19.1258  -33.0649 H   0  0  0  0  0  0  0  0  0  0  0  0
   -6.4080   17.1978  -31.1836 H   0  0  0  0  0  0  0  0  0  0  0  0
   -6.7045   16.1490  -32.6114 H   0  0  0  0  0  0  0  0  0  0  0  0
   -5.3225   17.2964  -32.6114 H   0  0  0  0  0  0  0  0  0  0  0  0
   -9.1061   17.6335  -32.0771 H   0  0  0  0  0  0  0  0  0  0  0  0
   -7.9921   18.5032  -30.9356 H   0  0  0  0  0  0  0  0  0  0  0  0
   -9.4232   19.7647  -33.3255 H   0  0  0  0  0  0  0  0  0  0  0  0
   -9.9149   19.9350  -31.6171 H   0  0  0  0  0  0  0  0  0  0  0  0
   -1.4845   23.5432  -25.7466 H   0  0  0  0  0  0  0  0  0  0  0  0
   -0.4659   24.1027  -24.3525 H   0  0  0  0  0  0  0  0  0  0  0  0
   -1.9614   25.9039  -26.3168 H   0  0  0  0  0  0  0  0  0  0  0  0
   -2.4478   25.5071  -24.6057 H   0  0  0  0  0  0  0  0  0  0  0  0
    0.8541   27.7235  -25.4488 H   0  0  0  0  0  0  0  0  0  0  0  0
    1.0912   26.2329  -24.4064 H   0  0  0  0  0  0  0  0  0  0  0  0
    0.2254   26.2502  -27.3269 H   0  0  0  0  0  0  0  0  0  0  0  0
    1.8663   25.8385  -26.6904 H   0  0  0  0  0  0  0  0  0  0  0  0
  1  2  1  0
  2  3  2  0
  3  4  1  0
  4  5  2  0
  5  6  1  0
  6  7  1  0
  7  8  2  0
  7  9  1  0
  9 10  1  0
 10 11  2  0
 11 12  1  0
 12 13  2  0
 13 14  1  0
 14 15  2  0
 14 16  1  0
 16 17  1  0
 17 18  1  0
 17 19  1  0
 19 20  1  0
  5 21  1  0
 21 22  1  0
 21 23  2  0
 23 24  1  0
 24 25  2  0
 24 26  2  0
 24 27  1  0
 27 28  1  0
 28 29  1  0
 29 30  1  0
 30 31  1  0
 31 32  1  0
 23  2  1  0
 32 27  1  0
 15 10  1  0
 20 13  1  0
  1 33  1  0
  1 34  1  0
  1 35  1  0
  3 36  1  0
  4 37  1  0
 11 38  1  0
 12 39  1  0
 15 40  1  0
 16 41  1  0
 16 42  1  0
 18 43  1  0
 18 44  1  0
 18 45  1  0
 19 46  1  0
 19 47  1  0
 20 48  1  0
 20 49  1  0
 28 50  1  0
 28 51  1  0
 29 52  1  0
 29 53  1  0
 31 54  1  0
 31 55  1  0
 32 56  1  0
 32 57  1  0
M  CHG  3   6  -1   9  -1  22  -1
M  END
>  <UniqueID>  (11) 
11

>  <SMILES>  (11) 
Cc1ccc([N-]C(=O)[N-]c2ccc3c(c2)CN(C)CC3)c([O-])c1S(=O)(=O)N1CCOCC1

>  <Energy>  (11) 
93.99524636119754

>  <Genealogy>  (11) 
Cc1ccc([N-]C(=O)[N-]c2ccc3c(c2)CN(C)CC3)c([O-])c1S(=O)(=O)N1CCOCC1 (protonated)
Cc1ccc([N-]C(=O)[N-]c2ccc3c(c2)CN(C)CC3)c([O-])c1S(=O)(=O)N1CCOCC1 (3D coordinates assigned)
Cc1ccc([N-]C(=O)[N-]c2ccc3c(c2)CN(C)CC3)c([O-])c1S(=O)(=O)N1CCOCC1 (nonaromatic ring conformer: 93.99524636119754 kcal/mol)

>  <smiles>  (11) 
Cc1ccc(NC(=O)Nc2ccc3c(c2)CN(C)CC3)c(O)c1S(=O)(=O)N1CCOCC1

>  <score_type>  (11) 
oracle

>  <origin>  (11) 
adgpu

>  <m_score__min__energy>  (11) 
-16.920000000000002

>  <m_primary>  (11) 
energy

$$$$
11:0
     RDKit          3D

 54 57  0  0  0  0  0  0  0  0999 V2000
   -3.7470   14.2890  -34.2710 C   0  0  0  0  0  0  0  0  0  0  0  0
   -4.3950   15.6080  -34.3240 N   0  0  0  0  0  0  0  0  0  0  0  0
   -3.3880   16.6780  -34.2120 C   0  0  0  0  0  0  0  0  0  0  0  0
   -4.0410   18.0250  -34.5270 C   0  0  0  0  0  0  0  0  0  0  0  0
   -5.3350   18.2080  -33.7710 C   0  0  0  0  0  0  0  0  0  0  0  0
   -5.9270   19.4770  -33.7190 C   0  0  0  0  0  0  0  0  0  0  0  0
   -7.1540   19.6690  -33.0690 C   0  0  0  0  0  0  0  0  0  0  0  0
   -7.7890   20.9520  -33.0790 N   0  0  0  0  0  0  0  0  0  0  0  0
   -8.1690   21.8090  -31.6200 S   0  0  0  0  0  0  0  0  0  0  0  0
   -9.3900   22.6490  -31.8600 O   0  0  0  0  0  0  0  0  0  0  0  0
   -8.4590   20.8500  -30.5000 O   0  0  0  0  0  0  0  0  0  0  0  0
   -6.8050   22.8440  -31.1960 C   0  0  0  0  0  0  0  0  0  0  0  0
   -6.9420   24.2380  -31.1720 C   0  0  0  0  0  0  0  0  0  0  0  0
   -5.8320   25.0470  -30.9130 C   0  0  0  0  0  0  0  0  0  0  0  0
   -4.5760   24.4730  -30.6860 C   0  0  0  0  0  0  0  0  0  0  0  0
   -3.4790   25.2990  -30.4650 O   0  0  0  0  0  0  0  0  0  0  0  0
   -4.4330   23.0750  -30.6950 C   0  0  0  0  0  0  0  0  0  0  0  0
   -2.8490   22.3280  -30.4690 S   0  0  0  0  0  0  0  0  0  0  0  0
   -1.9610   23.2430  -29.6690 O   0  0  0  0  0  0  0  0  0  0  0  0
   -3.0270   21.0390  -29.7150 O   0  0  0  0  0  0  0  0  0  0  0  0
   -2.1210   22.0010  -32.0200 N   0  0  0  0  0  0  0  0  0  0  0  0
   -0.9400   21.1420  -31.8940 C   0  0  0  0  0  0  0  0  0  0  0  0
   -0.8840   20.2650  -33.1410 C   0  0  0  0  0  0  0  0  0  0  0  0
   -2.1760   20.5420  -33.8910 C   0  0  0  0  0  0  0  0  0  0  0  0
   -3.0420   21.2810  -32.8950 C   0  0  0  0  0  0  0  0  0  0  0  0
   -5.5540   22.2690  -30.9380 C   0  0  0  0  0  0  0  0  0  0  0  0
   -7.7760   18.5830  -32.4280 C   0  0  0  0  0  0  0  0  0  0  0  0
   -8.9810   18.7410  -31.7440 O   0  0  0  0  0  0  0  0  0  0  0  0
   -7.1970   17.3120  -32.4930 C   0  0  0  0  0  0  0  0  0  0  0  0
   -5.9990   17.1080  -33.1910 C   0  0  0  0  0  0  0  0  0  0  0  0
   -5.3860   15.7270  -33.2350 C   0  0  0  0  0  0  0  0  0  0  0  0
   -3.6019   13.9937  -33.2214 H   0  0  0  0  0  0  0  0  0  0  0  0
   -4.3833   13.5473  -34.7760 H   0  0  0  0  0  0  0  0  0  0  0  0
   -2.7711   14.3394  -34.7760 H   0  0  0  0  0  0  0  0  0  0  0  0
   -2.9841   16.6962  -33.1890 H   0  0  0  0  0  0  0  0  0  0  0  0
   -2.5712   16.4900  -34.9244 H   0  0  0  0  0  0  0  0  0  0  0  0
   -3.3474   18.8316  -34.2472 H   0  0  0  0  0  0  0  0  0  0  0  0
   -4.2654   18.0542  -35.6035 H   0  0  0  0  0  0  0  0  0  0  0  0
   -5.4233   20.3320  -34.1935 H   0  0  0  0  0  0  0  0  0  0  0  0
   -7.9246   24.6966  -31.3573 H   0  0  0  0  0  0  0  0  0  0  0  0
   -5.9463   26.1407  -30.8875 H   0  0  0  0  0  0  0  0  0  0  0  0
   -0.0314   21.7583  -31.8257 H   0  0  0  0  0  0  0  0  0  0  0  0
   -1.0015   20.5249  -30.9855 H   0  0  0  0  0  0  0  0  0  0  0  0
   -0.0151   20.5325  -33.7603 H   0  0  0  0  0  0  0  0  0  0  0  0
   -0.7805   19.1999  -32.8863 H   0  0  0  0  0  0  0  0  0  0  0  0
   -1.9850   21.1648  -34.7774 H   0  0  0  0  0  0  0  0  0  0  0  0
   -2.6528   19.6206  -34.2567 H   0  0  0  0  0  0  0  0  0  0  0  0
   -3.7061   21.9869  -33.4152 H   0  0  0  0  0  0  0  0  0  0  0  0
   -3.6824   20.5906  -32.3265 H   0  0  0  0  0  0  0  0  0  0  0  0
   -5.4502   21.1740  -30.9259 H   0  0  0  0  0  0  0  0  0  0  0  0
   -9.3830   19.6510  -31.5550 H   0  0  0  0  0  0  0  0  0  0  0  0
   -7.6865   16.4641  -31.9915 H   0  0  0  0  0  0  0  0  0  0  0  0
   -4.8877   15.5266  -32.2750 H   0  0  0  0  0  0  0  0  0  0  0  0
   -6.1897   14.9988  -33.4192 H   0  0  0  0  0  0  0  0  0  0  0  0
  1  2  1  0
  2  3  1  0
  3  4  1  0
  4  5  1  0
  5  6  2  0
  6  7  1  0
  7  8  1  0
  8  9  1  0
  9 10  2  0
  9 11  2  0
  9 12  1  0
 12 13  2  0
 13 14  1  0
 14 15  2  0
 15 16  1  0
 15 17  1  0
 17 18  1  0
 18 19  2  0
 18 20  2  0
 18 21  1  0
 21 22  1  0
 22 23  1  0
 23 24  1  0
 24 25  1  0
 17 26  2  0
  7 27  2  0
 27 28  1  0
 27 29  1  0
 29 30  2  0
 30 31  1  0
 31  2  1  0
 30  5  1  0
 26 12  1  0
 25 21  1  0
  1 32  1  0
  1 33  1  0
  1 34  1  0
  3 35  1  0
  3 36  1  0
  4 37  1  0
  4 38  1  0
  6 39  1  0
 13 40  1  0
 14 41  1  0
 22 42  1  0
 22 43  1  0
 23 44  1  0
 23 45  1  0
 24 46  1  0
 24 47  1  0
 25 48  1  0
 25 49  1  0
 26 50  1  0
 28 51  1  0
 29 52  1  0
 31 53  1  0
 31 54  1  0
M  CHG  2   8  -1  16  -1
M  END
>  <UniqueID>  (12) 
12

>  <SMILES>  (12) 
CN1CCc2cc([N-]S(=O)(=O)c3ccc([O-])c(S(=O)(=O)N4CCCC4)c3)c(O)cc2C1

>  <Energy>  (12) 
66.36634997799774

>  <Genealogy>  (12) 
CN1CCc2cc([N-]S(=O)(=O)c3ccc([O-])c(S(=O)(=O)N4CCCC4)c3)c(O)cc2C1 (protonated)
CN1CCc2cc([N-]S(=O)(=O)c3ccc([O-])c(S(=O)(=O)N4CCCC4)c3)c(O)cc2C1 (3D coordinates assigned)
CN1CCc2cc([N-]S(=O)(=O)c3ccc([O-])c(S(=O)(=O)N4CCCC4)c3)c(O)cc2C1 (nonaromatic ring conformer: 66.36634997799774 kcal/mol)

>  <smiles>  (12) 
CN1CCc2cc(NS(=O)(=O)c3ccc(O)c(S(=O)(=O)N4CCCC4)c3)c(O)cc2C1

>  <score_type>  (12) 
oracle

>  <origin>  (12) 
adgpu

>  <m_score__min__energy>  (12) 
-12.550000000000001

>  <m_primary>  (12) 
energy

$$$$
12:0
     RDKit          3D

 64 68  0  0  0  0  0  0  0  0999 V2000
   -0.8800   21.6140  -25.6390 C   0  0  0  0  0  0  0  0  0  0  0  0
   -0.7030   23.0730  -25.9660 C   0  0  0  0  0  0  0  0  0  0  0  0
   -0.6490   24.0070  -24.9190 C   0  0  0  0  0  0  0  0  0  0  0  0
   -0.5140   25.3750  -25.1930 C   0  0  0  0  0  0  0  0  0  0  0  0
   -0.4560   26.3270  -24.1110 C   0  0  0  0  0  0  0  0  0  0  0  0
   -0.4100   27.0920  -23.2420 N   0  0  0  0  0  0  0  0  0  0  0  0
   -0.4430   25.8170  -26.5180 C   0  0  0  0  0  0  0  0  0  0  0  0
   -0.4960   24.8990  -27.5680 C   0  0  0  0  0  0  0  0  0  0  0  0
   -0.6330   23.5280  -27.3030 C   0  0  0  0  0  0  0  0  0  0  0  0
   -0.6740   22.5770  -28.4330 C   0  0  0  0  0  0  0  0  0  0  0  0
    0.3200   21.8200  -28.5990 O   0  0  0  0  0  0  0  0  0  0  0  0
   -1.8130   22.4580  -29.3280 N   0  0  2  0  0  0  0  0  0  0  0  0
   -2.9410   21.6550  -28.7680 C   0  0  0  0  0  0  0  0  0  0  0  0
   -3.8450   21.0100  -29.8450 C   0  0  0  0  0  0  0  0  0  0  0  0
   -3.8880   21.7770  -31.1820 C   0  0  1  0  0  0  0  0  0  0  0  0
   -4.8220   22.9790  -31.1090 C   0  0  0  0  0  0  0  0  0  0  0  0
   -4.2910   24.2060  -30.8560 N   0  0  0  0  0  0  0  0  0  0  0  0
   -5.0690   25.3120  -30.7310 C   0  0  0  0  0  0  0  0  0  0  0  0
   -6.4160   25.2170  -30.8510 N   0  0  0  0  0  0  0  0  0  0  0  0
   -7.0040   24.0240  -31.1170 C   0  0  0  0  0  0  0  0  0  0  0  0
   -6.2270   22.8660  -31.2710 C   0  0  0  0  0  0  0  0  0  0  0  0
   -6.9030   21.5920  -31.6080 C   0  0  0  0  0  0  0  0  0  0  0  0
   -8.1930   21.3260  -31.1310 C   0  0  0  0  0  0  0  0  0  0  0  0
   -8.7930   20.1040  -31.4220 C   0  0  0  0  0  0  0  0  0  0  0  0
   -8.1250   19.1740  -32.1520 N   0  0  0  0  0  0  0  0  0  0  0  0
   -6.8640   19.3840  -32.6320 C   0  0  0  0  0  0  0  0  0  0  0  0
   -6.2030   18.3380  -33.3890 N   0  0  0  0  0  0  0  0  0  0  0  0
   -5.0050   18.6420  -34.1890 C   0  0  0  0  0  0  0  0  0  0  0  0
   -4.6250   17.5000  -35.1370 C   0  0  0  0  0  0  0  0  0  0  0  0
   -4.7100   16.2520  -34.4830 O   0  0  0  0  0  0  0  0  0  0  0  0
   -6.0630   15.9840  -34.1970 C   0  0  0  0  0  0  0  0  0  0  0  0
   -6.5920   16.9400  -33.1290 C   0  0  0  0  0  0  0  0  0  0  0  0
   -6.2300   20.6130  -32.3550 C   0  0  0  0  0  0  0  0  0  0  0  0
   -2.4760   22.1720  -31.6930 C   0  0  0  0  0  0  0  0  0  0  0  0
   -1.3730   21.9540  -30.6420 C   0  0  0  0  0  0  0  0  0  0  0  0
   -0.8960   21.4823  -24.5470 H   0  0  0  0  0  0  0  0  0  0  0  0
   -1.8283   21.2551  -26.0655 H   0  0  0  0  0  0  0  0  0  0  0  0
   -0.0451   21.0387  -26.0655 H   0  0  0  0  0  0  0  0  0  0  0  0
   -0.7131   23.6627  -23.8762 H   0  0  0  0  0  0  0  0  0  0  0  0
   -0.3451   26.8913  -26.7332 H   0  0  0  0  0  0  0  0  0  0  0  0
   -0.4301   25.2519  -28.6078 H   0  0  0  0  0  0  0  0  0  0  0  0
   -2.1650   23.4340  -29.4710 H   0  0  0  0  0  0  0  0  0  0  0  0
   -2.5193   20.8532  -28.1440 H   0  0  0  0  0  0  0  0  0  0  0  0
   -3.5729   22.3484  -28.1936 H   0  0  0  0  0  0  0  0  0  0  0  0
   -3.4732   19.9938  -30.0429 H   0  0  0  0  0  0  0  0  0  0  0  0
   -4.8690   21.0208  -29.4434 H   0  0  0  0  0  0  0  0  0  0  0  0
   -4.3011   21.0821  -31.9280 H   0  0  0  0  0  0  0  0  0  0  0  0
   -4.6044   26.2889  -30.5316 H   0  0  0  0  0  0  0  0  0  0  0  0
   -8.0982   23.9640  -31.2127 H   0  0  0  0  0  0  0  0  0  0  0  0
   -8.7278   22.0770  -30.5310 H   0  0  0  0  0  0  0  0  0  0  0  0
   -9.8098   19.8914  -31.0601 H   0  0  0  0  0  0  0  0  0  0  0  0
   -5.1996   19.5454  -34.7857 H   0  0  0  0  0  0  0  0  0  0  0  0
   -4.1670   18.7894  -33.4918 H   0  0  0  0  0  0  0  0  0  0  0  0
   -5.3105   17.5030  -35.9972 H   0  0  0  0  0  0  0  0  0  0  0  0
   -3.5879   17.6514  -35.4711 H   0  0  0  0  0  0  0  0  0  0  0  0
   -6.6565   16.1052  -35.1152 H   0  0  0  0  0  0  0  0  0  0  0  0
   -6.1462   14.9539  -33.8202 H   0  0  0  0  0  0  0  0  0  0  0  0
   -7.6900   16.8759  -33.1091 H   0  0  0  0  0  0  0  0  0  0  0  0
   -6.1553   16.6425  -32.1642 H   0  0  0  0  0  0  0  0  0  0  0  0
   -5.2112   20.8036  -32.7233 H   0  0  0  0  0  0  0  0  0  0  0  0
   -2.2411   21.5638  -32.5789 H   0  0  0  0  0  0  0  0  0  0  0  0
   -2.4996   23.2466  -31.9269 H   0  0  0  0  0  0  0  0  0  0  0  0
   -1.1535   20.8790  -30.5636 H   0  0  0  0  0  0  0  0  0  0  0  0
   -0.4701   22.5008  -30.9515 H   0  0  0  0  0  0  0  0  0  0  0  0
  1  2  1  0
  2  3  2  0
  3  4  1  0
  4  5  1  0
  5  6  3  0
  4  7  2  0
  7  8  1  0
  8  9  2  0
  9 10  1  0
 10 11  2  0
 10 12  1  0
 12 13  1  0
 13 14  1  0
 14 15  1  0
 15 16  1  0
 16 17  2  0
 17 18  1  0
 18 19  2  0
 19 20  1  0
 20 21  2  0
 21 22  1  0
 22 23  2  0
 23 24  1  0
 24 25  2  0
 25 26  1  0
 26 27  1  0
 27 28  1  0
 28 29  1  0
 29 30  1  0
 30 31  1  0
 31 32  1  0
 26 33  2  0
 15 34  1  0
 34 35  1  0
  9  2  1  0
 35 12  1  0
 21 16  1  0
 33 22  1  0
 32 27  1  0
  1 36  1  0
  1 37  1  0
  1 38  1  0
  3 39  1  0
  7 40  1  0
  8 41  1  0
 12 42  1  6
 13 43  1  0
 13 44  1  0
 14 45  1  0
 14 46  1  0
 15 47  1  6
 18 48  1  0
 20 49  1  0
 23 50  1  0
 24 51  1  0
 28 52  1  0
 28 53  1  0
 29 54  1  0
 29 55  1  0
 31 56  1  0
 31 57  1  0
 32 58  1  0
 32 59  1  0
 33 60  1  0
 34 61  1  0
 34 62  1  0
 35 63  1  0
 35 64  1  0
M  CHG  1  12   1
M  END
>  <UniqueID>  (13) 
13

>  <SMILES>  (13) 
Cc1cc(C#N)ccc1C(=O)[NH+]1CCC(c2ncncc2-c2ccnc(N3CCOCC3)c2)CC1

>  <Energy>  (13) 
103.40773479985116

>  <Genealogy>  (13) 
Cc1cc(C#N)ccc1C(=O)[NH+]1CCC(c2ncncc2-c2ccnc(N3CCOCC3)c2)CC1 (protonated)
Cc1cc(C#N)ccc1C(=O)[NH+]1CCC(c2ncncc2-c2ccnc(N3CCOCC3)c2)CC1 (3D coordinates assigned)
Cc1cc(C#N)ccc1C(=O)[NH+]1CCC(c2ncncc2-c2ccnc(N3CCOCC3)c2)CC1 (nonaromatic ring conformer: 103.40773479985116 kcal/mol)

>  <smiles>  (13) 
Cc1cc(C#N)ccc1C(=O)N1CCC(c2ncncc2-c2ccnc(N3CCOCC3)c2)CC1

>  <score_type>  (13) 
oracle

>  <origin>  (13) 
adgpu

>  <m_score__min__energy>  (13) 
-9.6600000000000001

>  <m_primary>  (13) 
energy

$$$$
13:0
     RDKit          3D

 55 58  0  0  0  0  0  0  0  0999 V2000
   -6.6450   15.5990  -33.8590 O   0  0  0  0  0  0  0  0  0  0  0  0
   -5.6500   16.3690  -33.0340 S   0  0  0  0  0  0  0  0  0  0  0  0
   -5.3140   15.5640  -31.8110 O   0  0  0  0  0  0  0  0  0  0  0  0
   -6.3470   17.9090  -32.5340 C   0  0  0  0  0  0  0  0  0  0  0  0
   -7.7270   18.1120  -32.6390 C   0  0  0  0  0  0  0  0  0  0  0  0
   -8.2920   19.3220  -32.2270 C   0  0  0  0  0  0  0  0  0  0  0  0
   -7.4880   20.3460  -31.7010 C   0  0  0  0  0  0  0  0  0  0  0  0
   -8.1040   21.5830  -31.2920 N   0  0  0  0  0  0  0  0  0  0  0  0
   -7.7830   22.8900  -31.8830 C   0  0  1  0  0  0  0  0  0  0  0  0
   -8.9240   23.7100  -31.9210 O   0  0  0  0  0  0  0  0  0  0  0  0
   -6.6850   23.5690  -31.1070 C   0  0  0  0  0  0  0  0  0  0  0  0
   -5.7930   24.5050  -31.6020 C   0  0  0  0  0  0  0  0  0  0  0  0
   -4.9380   24.7850  -30.5570 C   0  0  0  0  0  0  0  0  0  0  0  0
   -3.8670   25.6690  -30.6200 O   0  0  0  0  0  0  0  0  0  0  0  0
   -5.2670   24.0730  -29.4600 N   0  0  0  0  0  0  0  0  0  0  0  0
   -4.5500   24.0380  -28.1880 C   0  0  0  0  0  0  0  0  0  0  0  0
   -3.0810   23.8350  -28.4310 C   0  0  0  0  0  0  0  0  0  0  0  0
   -2.1490   24.7810  -27.9750 C   0  0  0  0  0  0  0  0  0  0  0  0
   -0.7840   24.6060  -28.2280 C   0  0  0  0  0  0  0  0  0  0  0  0
   -0.3420   23.4900  -28.9470 C   0  0  0  0  0  0  0  0  0  0  0  0
   -1.2660   22.5520  -29.4180 C   0  0  0  0  0  0  0  0  0  0  0  0
   -2.6310   22.7250  -29.1660 C   0  0  0  0  0  0  0  0  0  0  0  0
   -6.3290   23.3150  -29.7940 C   0  0  0  0  0  0  0  0  0  0  0  0
   -6.1010   20.1290  -31.5870 C   0  0  0  0  0  0  0  0  0  0  0  0
   -5.5380   18.9180  -32.0000 C   0  0  0  0  0  0  0  0  0  0  0  0
   -4.2000   16.6600  -33.9630 N   0  0  0  0  0  0  0  0  0  0  0  0
   -4.2150   17.9880  -34.6060 C   0  0  0  0  0  0  0  0  0  0  0  0
   -2.9510   18.7270  -34.1820 C   0  0  0  0  0  0  0  0  0  0  0  0
   -2.0430   17.6520  -33.6320 C   0  0  0  0  0  0  0  0  0  0  0  0
   -3.0010   16.6020  -33.1110 C   0  0  0  0  0  0  0  0  0  0  0  0
   -8.3690   17.3173  -33.0468 H   0  0  0  0  0  0  0  0  0  0  0  0
   -9.3779   19.4738  -32.3157 H   0  0  0  0  0  0  0  0  0  0  0  0
   -8.8330   21.5380  -30.5440 H   0  0  0  0  0  0  0  0  0  0  0  0
   -7.4346   22.7223  -32.9128 H   0  0  0  0  0  0  0  0  0  0  0  0
   -8.6890   24.5700  -31.4840 H   0  0  0  0  0  0  0  0  0  0  0  0
   -5.7710   24.9344  -32.6145 H   0  0  0  0  0  0  0  0  0  0  0  0
   -4.7033   24.9892  -27.6572 H   0  0  0  0  0  0  0  0  0  0  0  0
   -4.9337   23.2053  -27.5802 H   0  0  0  0  0  0  0  0  0  0  0  0
   -2.4935   25.6637  -27.4163 H   0  0  0  0  0  0  0  0  0  0  0  0
   -0.0578   25.3464  -27.8613 H   0  0  0  0  0  0  0  0  0  0  0  0
    0.7316   23.3506  -29.1416 H   0  0  0  0  0  0  0  0  0  0  0  0
   -0.9190   21.6771  -29.9873 H   0  0  0  0  0  0  0  0  0  0  0  0
   -3.3554   21.9889  -29.5448 H   0  0  0  0  0  0  0  0  0  0  0  0
   -6.8357   22.6032  -29.1257 H   0  0  0  0  0  0  0  0  0  0  0  0
   -5.4568   20.9173  -31.1704 H   0  0  0  0  0  0  0  0  0  0  0  0
   -4.4539   18.7576  -31.9047 H   0  0  0  0  0  0  0  0  0  0  0  0
   -4.1320   15.9170  -34.7000 H   0  0  0  0  0  0  0  0  0  0  0  0
   -4.2321   17.8736  -35.6999 H   0  0  0  0  0  0  0  0  0  0  0  0
   -5.1092   18.5516  -34.3015 H   0  0  0  0  0  0  0  0  0  0  0  0
   -2.4846   19.2242  -35.0453 H   0  0  0  0  0  0  0  0  0  0  0  0
   -3.1582   19.5146  -33.4425 H   0  0  0  0  0  0  0  0  0  0  0  0
   -1.4010   17.2384  -34.4237 H   0  0  0  0  0  0  0  0  0  0  0  0
   -1.3604   18.0279  -32.8556 H   0  0  0  0  0  0  0  0  0  0  0  0
   -2.5403   15.6050  -33.1729 H   0  0  0  0  0  0  0  0  0  0  0  0
   -3.2561   16.7885  -32.0574 H   0  0  0  0  0  0  0  0  0  0  0  0
  1  2  2  0
  2  3  2  0
  2  4  1  0
  4  5  2  0
  5  6  1  0
  6  7  2  0
  7  8  1  0
  8  9  1  0
  9 10  1  0
  9 11  1  0
 11 12  1  0
 12 13  2  0
 13 14  1  0
 13 15  1  0
 15 16  1  0
 16 17  1  0
 17 18  2  0
 18 19  1  0
 19 20  2  0
 20 21  1  0
 21 22  2  0
 15 23  1  0
  7 24  1  0
 24 25  2  0
  2 26  1  0
 26 27  1  0
 27 28  1  0
 28 29  1  0
 29 30  1  0
 25  4  1  0
 30 26  1  0
 23 11  2  0
 22 17  1  0
  5 31  1  0
  6 32  1  0
  8 33  1  0
  9 34  1  6
 10 35  1  0
 12 36  1  0
 16 37  1  0
 16 38  1  0
 18 39  1  0
 19 40  1  0
 20 41  1  0
 21 42  1  0
 22 43  1  0
 23 44  1  0
 24 45  1  0
 25 46  1  0
 26 47  1  0
 27 48  1  0
 27 49  1  0
 28 50  1  0
 28 51  1  0
 29 52  1  0
 29 53  1  0
 30 54  1  0
 30 55  1  0
M  CHG  2  14  -1  26   1
M  END
>  <UniqueID>  (14) 
14

>  <SMILES>  (14) 
O=S(=O)(c1ccc(N[C@@H](O)c2cc([O-])n(Cc3ccccc3)c2)cc1)[NH+]1CCCC1

>  <Energy>  (14) 
84.83132356416476

>  <Genealogy>  (14) 
O=S(=O)(c1ccc(NC(O)c2cc([O-])n(Cc3ccccc3)c2)cc1)[NH+]1CCCC1 (protonated)
O=S(=O)(c1ccc(N[C@@H](O)c2cc([O-])n(Cc3ccccc3)c2)cc1)[NH+]1CCCC1 (chirality)
O=S(=O)(c1ccc(N[C@@H](O)c2cc([O-])n(Cc3ccccc3)c2)cc1)[NH+]1CCCC1 (3D coordinates assigned)
O=S(=O)(c1ccc(N[C@@H](O)c2cc([O-])n(Cc3ccccc3)c2)cc1)[NH+]1CCCC1 (nonaromatic ring conformer: 84.83132356416476 kcal/mol)

>  <smiles>  (14) 
O=S(=O)(c1ccc(NC(O)c2cc(O)n(Cc3ccccc3)c2)cc1)N1CCCC1

>  <score_type>  (14) 
oracle

>  <origin>  (14) 
adgpu

>  <m_score__min__energy>  (14) 
-11.6

>  <m_primary>  (14) 
energy

$$$$
14:0
     RDKit          3D

 55 58  0  0  0  0  0  0  0  0999 V2000
    1.4480   18.8840  -37.4150 C   0  0  0  0  0  0  0  0  0  0  0  0
    1.3950   19.5840  -36.1760 O   0  0  0  0  0  0  0  0  0  0  0  0
    0.2710   19.6250  -35.3370 C   0  0  0  0  0  0  0  0  0  0  0  0
   -0.4470   18.4690  -34.9800 C   0  0  0  0  0  0  0  0  0  0  0  0
   -1.5610   18.5620  -34.1400 C   0  0  0  0  0  0  0  0  0  0  0  0
   -1.9840   19.8100  -33.6520 C   0  0  0  0  0  0  0  0  0  0  0  0
   -3.1560   19.8850  -32.7490 C   0  0  0  0  0  0  0  0  0  0  0  0
   -4.4270   19.7670  -33.1830 N   0  0  0  0  0  0  0  0  0  0  0  0
   -5.2340   19.8990  -32.1410 N   0  0  0  0  0  0  0  0  0  0  0  0
   -6.6730   19.8530  -32.2390 C   0  0  0  0  0  0  0  0  0  0  0  0
   -7.3630   18.6290  -32.3480 C   0  0  0  0  0  0  0  0  0  0  0  0
   -8.7570   18.6060  -32.4510 C   0  0  0  0  0  0  0  0  0  0  0  0
   -9.4800   19.8000  -32.4460 C   0  0  0  0  0  0  0  0  0  0  0  0
   -8.8100   21.0210  -32.3380 C   0  0  0  0  0  0  0  0  0  0  0  0
   -7.4170   21.0500  -32.2380 C   0  0  0  0  0  0  0  0  0  0  0  0
   -4.5000   20.1180  -31.0300 C   0  0  0  0  0  0  0  0  0  0  0  0
   -3.1620   20.0960  -31.3770 C   0  0  0  0  0  0  0  0  0  0  0  0
   -2.0250   20.4910  -30.5200 C   0  0  0  0  0  0  0  0  0  0  0  0
   -1.6130   21.7520  -30.3270 C   0  0  0  0  0  0  0  0  0  0  0  0
   -2.3400   22.9620  -30.7680 C   0  0  0  0  0  0  0  0  0  0  0  0
   -3.1580   22.8950  -31.7230 O   0  0  0  0  0  0  0  0  0  0  0  0
   -2.2320   24.1910  -30.0410 N   0  0  0  0  0  0  0  0  0  0  0  0
   -2.6910   24.4240  -28.7000 C   0  0  0  0  0  0  0  0  0  0  0  0
   -1.7760   24.6470  -27.6560 C   0  0  0  0  0  0  0  0  0  0  0  0
   -2.2310   24.9090  -26.3610 C   0  0  0  0  0  0  0  0  0  0  0  0
   -3.6000   24.9680  -26.0990 C   0  0  0  0  0  0  0  0  0  0  0  0
   -4.5190   24.7720  -27.1330 C   0  0  0  0  0  0  0  0  0  0  0  0
   -4.0750   24.5010  -28.4370 C   0  0  0  0  0  0  0  0  0  0  0  0
   -5.2590   24.2660  -29.7280 S   0  0  0  0  0  0  0  0  0  0  0  0
   -4.6320   24.8890  -31.2140 N   0  0  0  0  0  0  0  0  0  0  0  0
   -6.5370   24.9830  -29.3950 O   0  0  0  0  0  0  0  0  0  0  0  0
   -5.5600   22.8010  -29.8800 O   0  0  0  0  0  0  0  0  0  0  0  0
   -1.2550   20.9600  -33.9980 C   0  0  0  0  0  0  0  0  0  0  0  0
   -0.1420   20.8650  -34.8370 C   0  0  0  0  0  0  0  0  0  0  0  0
    1.5298   17.8040  -37.2228 H   0  0  0  0  0  0  0  0  0  0  0  0
    0.5320   19.0858  -37.9896 H   0  0  0  0  0  0  0  0  0  0  0  0
    2.3232   19.2214  -37.9896 H   0  0  0  0  0  0  0  0  0  0  0  0
   -0.1306   17.4877  -35.3634 H   0  0  0  0  0  0  0  0  0  0  0  0
   -2.1104   17.6513  -33.8591 H   0  0  0  0  0  0  0  0  0  0  0  0
   -6.8001   17.6840  -32.3521 H   0  0  0  0  0  0  0  0  0  0  0  0
   -9.2852   17.6449  -32.5362 H   0  0  0  0  0  0  0  0  0  0  0  0
  -10.5768   19.7795  -32.5271 H   0  0  0  0  0  0  0  0  0  0  0  0
   -9.3805   21.9615  -32.3317 H   0  0  0  0  0  0  0  0  0  0  0  0
   -6.8962   22.0156  -32.1578 H   0  0  0  0  0  0  0  0  0  0  0  0
   -4.8991   20.2857  -30.0188 H   0  0  0  0  0  0  0  0  0  0  0  0
   -1.4759   19.6910  -30.0019 H   0  0  0  0  0  0  0  0  0  0  0  0
   -0.6591   21.8982  -29.7991 H   0  0  0  0  0  0  0  0  0  0  0  0
   -0.6955   24.6150  -27.8598 H   0  0  0  0  0  0  0  0  0  0  0  0
   -1.5087   25.0690  -25.5470 H   0  0  0  0  0  0  0  0  0  0  0  0
   -3.9561   25.1689  -25.0778 H   0  0  0  0  0  0  0  0  0  0  0  0
   -5.5974   24.8304  -26.9240 H   0  0  0  0  0  0  0  0  0  0  0  0
   -4.8690   24.1990  -31.9630 H   0  0  0  0  0  0  0  0  0  0  0  0
   -3.5910   24.8950  -31.1260 H   0  0  0  0  0  0  0  0  0  0  0  0
   -1.5623   21.9408  -33.6061 H   0  0  0  0  0  0  0  0  0  0  0  0
    0.4153   21.7741  -35.1073 H   0  0  0  0  0  0  0  0  0  0  0  0
  1  2  1  0
  2  3  1  0
  3  4  2  0
  4  5  1  0
  5  6  2  0
  6  7  1  0
  7  8  2  0
  8  9  1  0
  9 10  1  0
 10 11  2  0
 11 12  1  0
 12 13  2  0
 13 14  1  0
 14 15  2  0
  9 16  1  0
 16 17  2  0
 17 18  1  0
 18 19  2  3
 19 20  1  0
 20 21  2  0
 20 22  1  0
 22 23  1  0
 23 24  2  0
 24 25  1  0
 25 26  2  0
 26 27  1  0
 27 28  2  0
 28 29  1  0
 29 30  1  0
 29 31  2  0
 29 32  2  0
  6 33  1  0
 33 34  2  0
 34  3  1  0
 17  7  1  0
 28 23  1  0
 15 10  1  0
  1 35  1  0
  1 36  1  0
  1 37  1  0
  4 38  1  0
  5 39  1  0
 11 40  1  0
 12 41  1  0
 13 42  1  0
 14 43  1  0
 15 44  1  0
 16 45  1  0
 18 46  1  0
 19 47  1  0
 24 48  1  0
 25 49  1  0
 26 50  1  0
 27 51  1  0
 30 52  1  0
 30 53  1  0
 33 54  1  0
 34 55  1  0
M  CHG  1  22  -1
M  END
>  <UniqueID>  (15) 
15

>  <SMILES>  (15) 
COc1ccc(-c2nn(-c3ccccc3)cc2C=CC(=O)[N-]c2ccccc2S(N)(=O)=O)cc1

>  <Energy>  (15) 
104.91757988040747

>  <Genealogy>  (15) 
COc1ccc(-c2nn(-c3ccccc3)cc2C=CC(=O)[N-]c2ccccc2S(N)(=O)=O)cc1 (protonated)
COc1ccc(-c2nn(-c3ccccc3)cc2C=CC(=O)[N-]c2ccccc2S(N)(=O)=O)cc1 (3D coordinates assigned)
COc1ccc(-c2nn(-c3ccccc3)cc2C=CC(=O)[N-]c2ccccc2S(N)(=O)=O)cc1 (optimized conformer: 104.91757988040747 kcal/mol)

>  <smiles>  (15) 
COc1ccc(-c2nn(-c3ccccc3)cc2C=CC(=O)Nc2ccccc2S(N)(=O)=O)cc1

>  <score_type>  (15) 
oracle

>  <origin>  (15) 
adgpu

>  <m_score__min__energy>  (15) 
-10.800000000000001

>  <m_primary>  (15) 
energy

$$$$
15:0
     RDKit          3D

 49 53  0  0  0  0  0  0  0  0999 V2000
    0.5380   20.5000  -31.4820 C   0  0  0  0  0  0  0  0  0  0  0  0
   -0.4620   21.4170  -30.9530 N   0  0  0  0  0  0  0  0  0  0  0  0
   -1.7290   21.5370  -31.3890 C   0  0  0  0  0  0  0  0  0  0  0  0
   -2.3340   22.5540  -30.6720 C   0  0  0  0  0  0  0  0  0  0  0  0
   -3.7330   23.0350  -30.7680 C   0  0  0  0  0  0  0  0  0  0  0  0
   -4.7460   22.1300  -31.1600 C   0  0  0  0  0  0  0  0  0  0  0  0
   -6.0630   22.5920  -31.2500 C   0  0  0  0  0  0  0  0  0  0  0  0
   -7.2480   21.9580  -31.6060 C   0  0  0  0  0  0  0  0  0  0  0  0
   -7.4530   20.5330  -31.9620 C   0  0  0  0  0  0  0  0  0  0  0  0
   -8.6820   19.8920  -31.7420 C   0  0  0  0  0  0  0  0  0  0  0  0
   -8.8240   18.5470  -32.0840 C   0  0  0  0  0  0  0  0  0  0  0  0
   -7.7530   17.8470  -32.6400 C   0  0  0  0  0  0  0  0  0  0  0  0
   -6.5310   18.5100  -32.8550 C   0  0  0  0  0  0  0  0  0  0  0  0
   -5.3920   17.8330  -33.4370 N   0  0  0  0  0  0  0  0  0  0  0  0
   -5.2500   16.3780  -33.2830 C   0  0  0  0  0  0  0  0  0  0  0  0
   -4.5690   15.7470  -34.5140 C   0  0  0  0  0  0  0  0  0  0  0  0
   -3.4990   16.5670  -35.1210 N   0  0  0  0  0  0  0  0  0  0  0  0
   -3.0700   17.6910  -34.2820 C   0  0  0  0  0  0  0  0  0  0  0  0
   -4.2560   18.6050  -33.9630 C   0  0  0  0  0  0  0  0  0  0  0  0
   -6.4280   19.8230  -32.5050 N   0  0  0  0  0  0  0  0  0  0  0  0
   -8.2300   22.9480  -31.5250 C   0  0  0  0  0  0  0  0  0  0  0  0
   -7.6900   24.1250  -31.1410 N   0  0  0  0  0  0  0  0  0  0  0  0
   -6.3770   23.8980  -30.9780 C   0  0  0  0  0  0  0  0  0  0  0  0
   -5.4120   24.8200  -30.5840 C   0  0  0  0  0  0  0  0  0  0  0  0
   -4.0800   24.3840  -30.4690 C   0  0  0  0  0  0  0  0  0  0  0  0
   -3.1200   25.2910  -30.0350 O   0  0  0  0  0  0  0  0  0  0  0  0
   -1.3500   23.0110  -29.8070 C   0  0  0  0  0  0  0  0  0  0  0  0
   -0.2170   22.3100  -30.0080 N   0  0  0  0  0  0  0  0  0  0  0  0
    1.0674   20.0145  -30.6489 H   0  0  0  0  0  0  0  0  0  0  0  0
    0.0439   19.7345  -32.0983 H   0  0  0  0  0  0  0  0  0  0  0  0
    1.2580   21.0584  -32.0983 H   0  0  0  0  0  0  0  0  0  0  0  0
   -2.2013   20.9325  -32.1774 H   0  0  0  0  0  0  0  0  0  0  0  0
   -4.5029   21.0821  -31.3899 H   0  0  0  0  0  0  0  0  0  0  0  0
   -9.5258   20.4452  -31.3038 H   0  0  0  0  0  0  0  0  0  0  0  0
   -9.7837   18.0367  -31.9147 H   0  0  0  0  0  0  0  0  0  0  0  0
   -7.8631   16.7858  -32.9080 H   0  0  0  0  0  0  0  0  0  0  0  0
   -4.6409   16.1701  -32.3909 H   0  0  0  0  0  0  0  0  0  0  0  0
   -6.2540   15.9406  -33.1800 H   0  0  0  0  0  0  0  0  0  0  0  0
   -4.1307   14.7859  -34.2071 H   0  0  0  0  0  0  0  0  0  0  0  0
   -5.3512   15.6434  -35.2805 H   0  0  0  0  0  0  0  0  0  0  0  0
   -3.8420   16.9510  -36.0330 H   0  0  0  0  0  0  0  0  0  0  0  0
   -2.6499   17.3020  -33.3428 H   0  0  0  0  0  0  0  0  0  0  0  0
   -2.3099   18.2711  -34.8258 H   0  0  0  0  0  0  0  0  0  0  0  0
   -3.9465   19.3463  -33.2115 H   0  0  0  0  0  0  0  0  0  0  0  0
   -4.5721   19.1043  -34.8908 H   0  0  0  0  0  0  0  0  0  0  0  0
   -9.2965   22.7907  -31.7438 H   0  0  0  0  0  0  0  0  0  0  0  0
   -8.1960   25.0270  -30.9960 H   0  0  0  0  0  0  0  0  0  0  0  0
   -5.6843   25.8636  -30.3679 H   0  0  0  0  0  0  0  0  0  0  0  0
   -1.4754   23.8195  -29.0718 H   0  0  0  0  0  0  0  0  0  0  0  0
  1  2  1  0
  2  3  1  0
  3  4  2  0
  4  5  1  0
  5  6  2  0
  6  7  1  0
  7  8  1  0
  8  9  1  0
  9 10  2  0
 10 11  1  0
 11 12  2  0
 12 13  1  0
 13 14  1  0
 14 15  1  0
 15 16  1  0
 16 17  1  0
 17 18  1  0
 18 19  1  0
 13 20  2  0
  8 21  2  0
 21 22  1  0
 22 23  1  0
 23 24  1  0
 24 25  2  0
 25 26  1  0
  4 27  1  0
 27 28  2  0
 28  2  1  0
 25  5  1  0
 23  7  2  0
 20  9  1  0
 19 14  1  0
  1 29  1  0
  1 30  1  0
  1 31  1  0
  3 32  1  0
  6 33  1  0
 10 34  1  0
 11 35  1  0
 12 36  1  0
 15 37  1  0
 15 38  1  0
 16 39  1  0
 16 40  1  0
 17 41  1  0
 18 42  1  0
 18 43  1  0
 19 44  1  0
 19 45  1  0
 21 46  1  0
 22 47  1  0
 24 48  1  0
 27 49  1  0
M  CHG  1  26  -1
M  END
>  <UniqueID>  (16) 
16

>  <SMILES>  (16) 
Cn1cc(-c2cc3c(-c4cccc(N5CCNCC5)n4)c[nH]c3cc2[O-])cn1

>  <Energy>  (16) 
128.10573609605464

>  <Genealogy>  (16) 
Cn1cc(-c2cc3c(-c4cccc(N5CCNCC5)n4)c[nH]c3cc2[O-])cn1 (protonated)
Cn1cc(-c2cc3c(-c4cccc(N5CCNCC5)n4)c[nH]c3cc2[O-])cn1 (3D coordinates assigned)
Cn1cc(-c2cc3c(-c4cccc(N5CCNCC5)n4)c[nH]c3cc2[O-])cn1 (nonaromatic ring conformer: 128.10573609605464 kcal/mol)

>  <smiles>  (16) 
Cn1cc(-c2cc3c(-c4cccc(N5CCNCC5)n4)c[nH]c3cc2O)cn1

>  <score_type>  (16) 
oracle

>  <origin>  (16) 
adgpu

>  <m_score__min__energy>  (16) 
-11.93

>  <m_primary>  (16) 
energy

$$$$
16:0
     RDKit          3D

 63 68  0  0  0  0  0  0  0  0999 V2000
    4.9700   28.5260  -26.6750 C   0  0  0  0  0  0  0  0  0  0  0  0
    4.2240   27.6610  -25.7610 N   0  0  0  0  0  0  0  0  0  0  0  0
    4.7840   27.3910  -24.4380 C   0  0  0  0  0  0  0  0  0  0  0  0
    3.2540   26.7520  -26.3080 C   0  0  0  0  0  0  0  0  0  0  0  0
    3.6920   25.6730  -27.0850 C   0  0  0  0  0  0  0  0  0  0  0  0
    2.7770   24.7770  -27.6290 C   0  0  0  0  0  0  0  0  0  0  0  0
    1.4110   24.9380  -27.4010 C   0  0  0  0  0  0  0  0  0  0  0  0
    0.9310   26.0120  -26.6200 C   0  0  0  0  0  0  0  0  0  0  0  0
   -0.4570   26.2010  -26.3760 C   0  0  0  0  0  0  0  0  0  0  0  0
   -1.6990   25.1180  -27.0380 S   0  0  0  0  0  0  0  0  0  0  0  0
   -1.4110   23.7070  -26.6080 O   0  0  0  0  0  0  0  0  0  0  0  0
   -3.0630   25.5000  -26.5340 O   0  0  0  0  0  0  0  0  0  0  0  0
   -1.6930   25.2150  -28.7650 N   0  0  0  0  0  0  0  0  0  0  0  0
   -2.2480   24.1540  -29.5400 C   0  0  0  0  0  0  0  0  0  0  0  0
   -1.6790   22.8780  -29.4740 C   0  0  0  0  0  0  0  0  0  0  0  0
   -2.1580   21.8460  -30.2900 C   0  0  0  0  0  0  0  0  0  0  0  0
   -3.2600   22.0760  -31.1390 C   0  0  0  0  0  0  0  0  0  0  0  0
   -3.8360   23.3560  -31.1870 C   0  0  0  0  0  0  0  0  0  0  0  0
   -3.3310   24.3910  -30.3950 C   0  0  0  0  0  0  0  0  0  0  0  0
   -3.9060   25.6550  -30.4670 O   0  0  0  0  0  0  0  0  0  0  0  0
   -3.7570   21.0100  -32.0900 C   0  0  0  0  0  0  0  0  0  0  0  0
   -3.1810   19.6660  -31.8220 N   0  0  0  0  0  0  0  0  0  0  0  0
   -3.4390   18.7240  -32.9300 C   0  0  0  0  0  0  0  0  0  0  0  0
   -2.6770   19.0850  -34.2230 C   0  0  0  0  0  0  0  0  0  0  0  0
   -1.3550   19.7860  -33.9940 C   0  0  0  0  0  0  0  0  0  0  0  0
   -0.5800   20.1290  -35.1130 C   0  0  0  0  0  0  0  0  0  0  0  0
    0.6180   20.8250  -34.9600 C   0  0  0  0  0  0  0  0  0  0  0  0
    1.0540   21.1920  -33.6880 C   0  0  0  0  0  0  0  0  0  0  0  0
    0.2930   20.8640  -32.5630 C   0  0  0  0  0  0  0  0  0  0  0  0
   -0.9250   20.1640  -32.6990 C   0  0  0  0  0  0  0  0  0  0  0  0
   -1.7400   19.6920  -31.4990 C   0  0  1  0  0  0  0  0  0  0  0  0
   -1.5530   20.4780  -30.1920 C   0  0  0  0  0  0  0  0  0  0  0  0
   -0.8760   27.2960  -25.6060 C   0  0  0  0  0  0  0  0  0  0  0  0
    0.0480   28.1840  -25.0660 C   0  0  0  0  0  0  0  0  0  0  0  0
    1.4110   28.0030  -25.2850 C   0  0  0  0  0  0  0  0  0  0  0  0
    1.8710   26.9310  -26.0700 C   0  0  0  0  0  0  0  0  0  0  0  0
    5.5801   29.2335  -26.0943 H   0  0  0  0  0  0  0  0  0  0  0  0
    5.6255   27.9109  -27.3090 H   0  0  0  0  0  0  0  0  0  0  0  0
    4.2652   29.0840  -27.3090 H   0  0  0  0  0  0  0  0  0  0  0  0
    4.0790   27.7309  -23.6651 H   0  0  0  0  0  0  0  0  0  0  0  0
    4.9571   26.3104  -24.3267 H   0  0  0  0  0  0  0  0  0  0  0  0
    5.7373   27.9285  -24.3267 H   0  0  0  0  0  0  0  0  0  0  0  0
    4.7677   25.5325  -27.2668 H   0  0  0  0  0  0  0  0  0  0  0  0
    3.1335   23.9366  -28.2427 H   0  0  0  0  0  0  0  0  0  0  0  0
    0.6991   24.2202  -27.8345 H   0  0  0  0  0  0  0  0  0  0  0  0
   -0.8504   22.6842  -28.7770 H   0  0  0  0  0  0  0  0  0  0  0  0
   -4.6909   23.5454  -31.8528 H   0  0  0  0  0  0  0  0  0  0  0  0
   -4.8514   20.9448  -31.9999 H   0  0  0  0  0  0  0  0  0  0  0  0
   -3.4404   21.3036  -33.1017 H   0  0  0  0  0  0  0  0  0  0  0  0
   -3.1311   17.7170  -32.6120 H   0  0  0  0  0  0  0  0  0  0  0  0
   -4.5138   18.7737  -33.1586 H   0  0  0  0  0  0  0  0  0  0  0  0
   -2.4821   18.1558  -34.7785 H   0  0  0  0  0  0  0  0  0  0  0  0
   -3.3145   19.7897  -34.7771 H   0  0  0  0  0  0  0  0  0  0  0  0
   -0.9212   19.8460  -36.1197 H   0  0  0  0  0  0  0  0  0  0  0  0
    1.2196   21.0847  -35.8435 H   0  0  0  0  0  0  0  0  0  0  0  0
    1.9996   21.7413  -33.5695 H   0  0  0  0  0  0  0  0  0  0  0  0
    0.6463   21.1539  -31.5624 H   0  0  0  0  0  0  0  0  0  0  0  0
   -1.3397   18.6859  -31.3052 H   0  0  0  0  0  0  0  0  0  0  0  0
   -2.0378   19.9294  -29.3710 H   0  0  0  0  0  0  0  0  0  0  0  0
   -0.4749   20.5870  -30.0027 H   0  0  0  0  0  0  0  0  0  0  0  0
   -1.9497   27.4544  -25.4269 H   0  0  0  0  0  0  0  0  0  0  0  0
   -0.3002   29.0348  -24.4620 H   0  0  0  0  0  0  0  0  0  0  0  0
    2.1332   28.7037  -24.8407 H   0  0  0  0  0  0  0  0  0  0  0  0
  1  2  1  0
  2  3  1  0
  2  4  1  0
  4  5  2  0
  5  6  1  0
  6  7  2  0
  7  8  1  0
  8  9  2  0
  9 10  1  0
 10 11  2  0
 10 12  2  0
 10 13  1  0
 13 14  1  0
 14 15  2  0
 15 16  1  0
 16 17  2  0
 17 18  1  0
 18 19  2  0
 19 20  1  0
 17 21  1  0
 21 22  1  0
 22 23  1  0
 23 24  1  0
 24 25  1  0
 25 26  2  0
 26 27  1  0
 27 28  2  0
 28 29  1  0
 29 30  2  0
 30 31  1  0
 31 32  1  0
  9 33  1  0
 33 34  2  0
 34 35  1  0
 35 36  2  0
 36  4  1  0
 36  8  1  0
 19 14  1  0
 31 22  1  0
 32 16  1  0
 30 25  1  0
  1 37  1  0
  1 38  1  0
  1 39  1  0
  3 40  1  0
  3 41  1  0
  3 42  1  0
  5 43  1  0
  6 44  1  0
  7 45  1  0
 15 46  1  0
 18 47  1  0
 21 48  1  0
 21 49  1  0
 23 50  1  0
 23 51  1  0
 24 52  1  0
 24 53  1  0
 26 54  1  0
 27 55  1  0
 28 56  1  0
 29 57  1  0
 31 58  1  1
 32 59  1  0
 32 60  1  0
 33 61  1  0
 34 62  1  0
 35 63  1  0
M  CHG  2  13  -1  20  -1
M  END
>  <UniqueID>  (17) 
17

>  <SMILES>  (17) 
CN(C)c1cccc2c(S(=O)(=O)[N-]c3cc4c(cc3[O-])CN3CCc5ccccc5[C@H]3C4)cccc12

>  <Energy>  (17) 
101.49437718999556

>  <Genealogy>  (17) 
CN(C)c1cccc2c(S(=O)(=O)[N-]c3cc4c(cc3[O-])CN3CCc5ccccc5C3C4)cccc12 (protonated)
CN(C)c1cccc2c(S(=O)(=O)[N-]c3cc4c(cc3[O-])CN3CCc5ccccc5[C@H]3C4)cccc12 (chirality)
CN(C)c1cccc2c(S(=O)(=O)[N-]c3cc4c(cc3[O-])CN3CCc5ccccc5[C@H]3C4)cccc12 (3D coordinates assigned)
CN(C)c1cccc2c(S(=O)(=O)[N-]c3cc4c(cc3[O-])CN3CCc5ccccc5[C@H]3C4)cccc12 (nonaromatic ring conformer: 101.49437718999556 kcal/mol)

>  <smiles>  (17) 
CN(C)c1cccc2c(S(=O)(=O)Nc3cc4c(cc3O)CN3CCc5ccccc5C3C4)cccc12

>  <score_type>  (17) 
oracle

>  <origin>  (17) 
adgpu

>  <m_score__min__energy>  (17) 
-13.789999999999999

>  <m_primary>  (17) 
energy

$$$$
17:0
     RDKit          3D

 42 45  0  0  0  0  0  0  0  0999 V2000
   -5.5230   24.9580  -28.7710 O   0  0  0  0  0  0  0  0  0  0  0  0
   -5.2300   24.9710  -30.2440 S   0  0  0  0  0  0  0  0  0  0  0  0
   -5.7380   26.2610  -30.8260 O   0  0  0  0  0  0  0  0  0  0  0  0
   -3.5150   24.8650  -30.4820 N   0  0  0  0  0  0  0  0  0  0  0  0
   -2.6170   24.0470  -29.7170 C   0  0  0  0  0  0  0  0  0  0  0  0
   -2.8440   22.6700  -29.5420 C   0  0  0  0  0  0  0  0  0  0  0  0
   -1.9710   21.8920  -28.7710 C   0  0  0  0  0  0  0  0  0  0  0  0
   -0.8270   22.4850  -28.2000 C   0  0  0  0  0  0  0  0  0  0  0  0
   -0.6020   23.8570  -28.3710 C   0  0  0  0  0  0  0  0  0  0  0  0
   -1.4830   24.6370  -29.1270 C   0  0  0  0  0  0  0  0  0  0  0  0
   -1.2150   25.9970  -29.2720 O   0  0  0  0  0  0  0  0  0  0  0  0
    0.0980   21.6840  -27.3140 C   0  0  0  0  0  0  0  0  0  0  0  0
   -0.0060   20.2380  -27.5550 N   0  0  0  0  0  0  0  0  0  0  0  0
   -1.4040   19.7990  -27.4950 C   0  0  0  0  0  0  0  0  0  0  0  0
   -2.2200   20.4120  -28.6390 C   0  0  0  0  0  0  0  0  0  0  0  0
   -6.0160   23.5830  -30.9900 C   0  0  0  0  0  0  0  0  0  0  0  0
   -7.4060   23.4340  -30.8750 C   0  0  0  0  0  0  0  0  0  0  0  0
   -8.0450   22.3260  -31.4410 C   0  0  0  0  0  0  0  0  0  0  0  0
   -7.2950   21.3610  -32.1160 C   0  0  0  0  0  0  0  0  0  0  0  0
   -5.9100   21.5170  -32.2550 C   0  0  0  0  0  0  0  0  0  0  0  0
   -5.2690   22.6200  -31.6850 C   0  0  0  0  0  0  0  0  0  0  0  0
   -5.1850   20.5560  -32.9680 O   0  0  0  0  0  0  0  0  0  0  0  0
   -5.8460   19.5850  -33.7820 C   0  0  0  0  0  0  0  0  0  0  0  0
   -7.1360   19.1080  -33.1000 C   0  0  0  0  0  0  0  0  0  0  0  0
   -7.9090   20.2280  -32.6600 O   0  0  0  0  0  0  0  0  0  0  0  0
   -3.7174   22.1985  -30.0162 H   0  0  0  0  0  0  0  0  0  0  0  0
    0.2773   24.3261  -27.9055 H   0  0  0  0  0  0  0  0  0  0  0  0
   -1.2400   26.4640  -30.1710 H   0  0  0  0  0  0  0  0  0  0  0  0
    1.1336   22.0005  -27.5072 H   0  0  0  0  0  0  0  0  0  0  0  0
   -0.1933   21.8711  -26.2699 H   0  0  0  0  0  0  0  0  0  0  0  0
    0.3820   20.0220  -28.5040 H   0  0  0  0  0  0  0  0  0  0  0  0
   -1.4407   18.7024  -27.5739 H   0  0  0  0  0  0  0  0  0  0  0  0
   -1.8355   20.1304  -26.5390 H   0  0  0  0  0  0  0  0  0  0  0  0
   -1.9399   19.9181  -29.5811 H   0  0  0  0  0  0  0  0  0  0  0  0
   -3.2870   20.2625  -28.4173 H   0  0  0  0  0  0  0  0  0  0  0  0
   -7.9957   24.1913  -30.3377 H   0  0  0  0  0  0  0  0  0  0  0  0
   -9.1360   22.2151  -31.3545 H   0  0  0  0  0  0  0  0  0  0  0  0
   -4.1791   22.7333  -31.7811 H   0  0  0  0  0  0  0  0  0  0  0  0
   -6.0946   20.0352  -34.7544 H   0  0  0  0  0  0  0  0  0  0  0  0
   -5.1774   18.7234  -33.9258 H   0  0  0  0  0  0  0  0  0  0  0  0
   -7.7275   18.5175  -33.8152 H   0  0  0  0  0  0  0  0  0  0  0  0
   -6.8725   18.4909  -32.2284 H   0  0  0  0  0  0  0  0  0  0  0  0
  1  2  2  0
  2  3  2  0
  2  4  1  0
  4  5  1  0
  5  6  2  0
  6  7  1  0
  7  8  2  0
  8  9  1  0
  9 10  2  0
 10 11  1  0
  8 12  1  0
 12 13  1  0
 13 14  1  0
 14 15  1  0
  2 16  1  0
 16 17  2  0
 17 18  1  0
 18 19  2  0
 19 20  1  0
 20 21  2  0
 20 22  1  0
 22 23  1  0
 23 24  1  0
 24 25  1  0
 10  5  1  0
 21 16  1  0
 15  7  1  0
 25 19  1  0
  6 26  1  0
  9 27  1  0
 11 28  1  0
 12 29  1  0
 12 30  1  0
 13 31  1  0
 14 32  1  0
 14 33  1  0
 15 34  1  0
 15 35  1  0
 17 36  1  0
 18 37  1  0
 21 38  1  0
 23 39  1  0
 23 40  1  0
 24 41  1  0
 24 42  1  0
M  CHG  1   4  -1
M  END
>  <UniqueID>  (18) 
18

>  <SMILES>  (18) 
O=S(=O)([N-]c1cc2c(cc1O)CNCC2)c1ccc2c(c1)OCCO2

>  <Energy>  (18) 
51.14459042847535

>  <Genealogy>  (18) 
O=S(=O)([N-]c1cc2c(cc1O)CNCC2)c1ccc2c(c1)OCCO2 (protonated)
O=S(=O)([N-]c1cc2c(cc1O)CNCC2)c1ccc2c(c1)OCCO2 (3D coordinates assigned)
O=S(=O)([N-]c1cc2c(cc1O)CNCC2)c1ccc2c(c1)OCCO2 (nonaromatic ring conformer: 51.14459042847535 kcal/mol)

>  <smiles>  (18) 
O=S(=O)(Nc1cc2c(cc1O)CNCC2)c1ccc2c(c1)OCCO2

>  <score_type>  (18) 
oracle

>  <origin>  (18) 
adgpu

>  <m_score__min__energy>  (18) 
-11.039999999999999

>  <m_primary>  (18) 
energy

$$$$
18:0
     RDKit          3D

 65 69  0  0  0  0  0  0  0  0999 V2000
   -2.1430   15.0810  -37.0100 N   0  0  0  0  0  0  0  0  0  0  0  0
   -2.1490   14.4100  -35.7100 C   0  0  0  0  0  0  0  0  0  0  0  0
   -3.4710   14.6040  -35.0100 C   0  0  0  0  0  0  0  0  0  0  0  0
   -4.4760   13.6320  -35.1270 C   0  0  0  0  0  0  0  0  0  0  0  0
   -5.7300   13.8430  -34.5500 C   0  0  0  0  0  0  0  0  0  0  0  0
   -5.9930   15.0210  -33.8490 C   0  0  0  0  0  0  0  0  0  0  0  0
   -4.9910   16.0010  -33.7040 C   0  0  0  0  0  0  0  0  0  0  0  0
   -5.2780   17.3060  -32.9850 C   0  0  0  0  0  0  0  0  0  0  0  0
   -6.8040   17.5460  -32.7760 C   0  0  0  0  0  0  0  0  0  0  0  0
   -7.2500   18.9550  -33.1930 C   0  0  0  0  0  0  0  0  0  0  0  0
   -6.3010   19.9520  -32.6760 N   0  0  0  0  0  0  0  0  0  0  0  0
   -6.7020   20.8510  -31.6210 C   0  0  0  0  0  0  0  0  0  0  0  0
   -7.6900   20.5620  -30.8920 O   0  0  0  0  0  0  0  0  0  0  0  0
   -5.9670   22.1060  -31.3490 C   0  0  0  0  0  0  0  0  0  0  0  0
   -6.6210   23.3460  -31.3970 C   0  0  0  0  0  0  0  0  0  0  0  0
   -5.9120   24.5240  -31.1570 C   0  0  0  0  0  0  0  0  0  0  0  0
   -4.5530   24.4760  -30.8360 C   0  0  0  0  0  0  0  0  0  0  0  0
   -3.8690   25.6620  -30.5960 O   0  0  0  0  0  0  0  0  0  0  0  0
   -3.8920   23.2390  -30.7350 C   0  0  0  0  0  0  0  0  0  0  0  0
   -2.5060   23.1900  -30.3590 N   0  0  0  0  0  0  0  0  0  0  0  0
   -1.7070   21.7000  -29.9660 S   0  0  0  0  0  0  0  0  0  0  0  0
   -0.3580   21.9920  -29.3700 O   0  0  0  0  0  0  0  0  0  0  0  0
   -2.5270   20.9410  -28.9610 O   0  0  0  0  0  0  0  0  0  0  0  0
   -1.5530   20.7280  -31.4270 C   0  0  0  0  0  0  0  0  0  0  0  0
   -1.6590   21.3480  -32.6790 C   0  0  0  0  0  0  0  0  0  0  0  0
   -1.4390   20.6200  -33.8510 C   0  0  0  0  0  0  0  0  0  0  0  0
   -1.0940   19.2630  -33.7830 C   0  0  0  0  0  0  0  0  0  0  0  0
   -0.8350   18.5300  -34.9530 C   0  0  0  0  0  0  0  0  0  0  0  0
   -0.4660   17.1810  -34.8690 C   0  0  0  0  0  0  0  0  0  0  0  0
   -0.3600   16.5580  -33.6230 C   0  0  0  0  0  0  0  0  0  0  0  0
   -0.6240   17.2760  -32.4520 C   0  0  0  0  0  0  0  0  0  0  0  0
   -0.9910   18.6300  -32.5200 C   0  0  0  0  0  0  0  0  0  0  0  0
   -1.2310   19.3660  -31.3490 C   0  0  0  0  0  0  0  0  0  0  0  0
   -4.6070   22.0600  -31.0100 C   0  0  0  0  0  0  0  0  0  0  0  0
   -4.8710   19.8050  -33.0060 C   0  0  0  0  0  0  0  0  0  0  0  0
   -4.5810   18.4730  -33.7140 C   0  0  0  0  0  0  0  0  0  0  0  0
   -3.7350   15.7890  -34.3070 C   0  0  0  0  0  0  0  0  0  0  0  0
   -1.4460   15.8610  -36.9870 H   0  0  0  0  0  0  0  0  0  0  0  0
   -3.0870   15.4960  -37.1870 H   0  0  0  0  0  0  0  0  0  0  0  0
   -1.9750   13.3341  -35.8593 H   0  0  0  0  0  0  0  0  0  0  0  0
   -1.3541   14.8450  -35.0864 H   0  0  0  0  0  0  0  0  0  0  0  0
   -4.2753   12.6999  -35.6755 H   0  0  0  0  0  0  0  0  0  0  0  0
   -6.5139   13.0776  -34.6483 H   0  0  0  0  0  0  0  0  0  0  0  0
   -6.9871   15.1851  -33.4077 H   0  0  0  0  0  0  0  0  0  0  0  0
   -4.8562   17.2430  -31.9710 H   0  0  0  0  0  0  0  0  0  0  0  0
   -7.3603   16.8101  -33.3751 H   0  0  0  0  0  0  0  0  0  0  0  0
   -7.0108   17.4390  -31.7009 H   0  0  0  0  0  0  0  0  0  0  0  0
   -7.2832   19.0175  -34.2907 H   0  0  0  0  0  0  0  0  0  0  0  0
   -8.2492   19.1566  -32.7796 H   0  0  0  0  0  0  0  0  0  0  0  0
   -7.6963   23.3901  -31.6246 H   0  0  0  0  0  0  0  0  0  0  0  0
   -6.4255   25.4947  -31.2209 H   0  0  0  0  0  0  0  0  0  0  0  0
   -2.0080   24.0750  -30.1170 H   0  0  0  0  0  0  0  0  0  0  0  0
   -1.9173   22.4155  -32.7396 H   0  0  0  0  0  0  0  0  0  0  0  0
   -1.5367   21.1129  -34.8295 H   0  0  0  0  0  0  0  0  0  0  0  0
   -0.9220   19.0156  -35.9362 H   0  0  0  0  0  0  0  0  0  0  0  0
   -0.2592   16.6108  -35.7867 H   0  0  0  0  0  0  0  0  0  0  0  0
   -0.0679   15.4992  -33.5627 H   0  0  0  0  0  0  0  0  0  0  0  0
   -0.5439   16.7784  -31.4743 H   0  0  0  0  0  0  0  0  0  0  0  0
   -1.1662   18.8728  -30.3679 H   0  0  0  0  0  0  0  0  0  0  0  0
   -4.0929   21.0889  -30.9586 H   0  0  0  0  0  0  0  0  0  0  0  0
   -4.5717   20.6317  -33.6670 H   0  0  0  0  0  0  0  0  0  0  0  0
   -4.3004   19.8228  -32.0658 H   0  0  0  0  0  0  0  0  0  0  0  0
   -4.9515   18.5256  -34.7484 H   0  0  0  0  0  0  0  0  0  0  0  0
   -3.4952   18.2971  -33.7064 H   0  0  0  0  0  0  0  0  0  0  0  0
   -2.9544   16.5598  -34.2257 H   0  0  0  0  0  0  0  0  0  0  0  0
  1  2  1  0
  2  3  1  0
  3  4  2  0
  4  5  1  0
  5  6  2  0
  6  7  1  0
  7  8  1  0
  8  9  1  0
  9 10  1  0
 10 11  1  0
 11 12  1  0
 12 13  2  0
 12 14  1  0
 14 15  2  0
 15 16  1  0
 16 17  2  0
 17 18  1  0
 17 19  1  0
 19 20  1  0
 20 21  1  0
 21 22  2  0
 21 23  2  0
 21 24  1  0
 24 25  2  0
 25 26  1  0
 26 27  2  0
 27 28  1  0
 28 29  2  0
 29 30  1  0
 30 31  2  0
 31 32  1  0
 32 33  2  0
 19 34  2  0
 11 35  1  0
 35 36  1  0
  7 37  2  0
 37  3  1  0
 36  8  1  0
 34 14  1  0
 33 24  1  0
 32 27  1  0
  1 38  1  0
  1 39  1  0
  2 40  1  0
  2 41  1  0
  4 42  1  0
  5 43  1  0
  6 44  1  0
  8 45  1  0
  9 46  1  0
  9 47  1  0
 10 48  1  0
 10 49  1  0
 15 50  1  0
 16 51  1  0
 20 52  1  0
 25 53  1  0
 26 54  1  0
 28 55  1  0
 29 56  1  0
 30 57  1  0
 31 58  1  0
 33 59  1  0
 34 60  1  0
 35 61  1  0
 35 62  1  0
 36 63  1  0
 36 64  1  0
 37 65  1  0
M  CHG  1  18  -1
M  END
>  <UniqueID>  (19) 
19

>  <SMILES>  (19) 
NCc1cccc(C2CCN(C(=O)c3ccc([O-])c(NS(=O)(=O)c4ccc5ccccc5c4)c3)CC2)c1

>  <Energy>  (19) 
84.28255672899255

>  <Genealogy>  (19) 
NCc1cccc(C2CCN(C(=O)c3ccc([O-])c(NS(=O)(=O)c4ccc5ccccc5c4)c3)CC2)c1 (protonated)
NCc1cccc(C2CCN(C(=O)c3ccc([O-])c(NS(=O)(=O)c4ccc5ccccc5c4)c3)CC2)c1 (3D coordinates assigned)
NCc1cccc(C2CCN(C(=O)c3ccc([O-])c(NS(=O)(=O)c4ccc5ccccc5c4)c3)CC2)c1 (nonaromatic ring conformer: 84.28255672899255 kcal/mol)

>  <smiles>  (19) 
NCc1cccc(C2CCN(C(=O)c3ccc(O)c(NS(=O)(=O)c4ccc5ccccc5c4)c3)CC2)c1

>  <score_type>  (19) 
oracle

>  <origin>  (19) 
adgpu

>  <m_score__min__energy>  (19) 
-13.51

>  <m_primary>  (19) 
energy

$$$$
19:0
     RDKit          3D

 55 58  0  0  0  0  0  0  0  0999 V2000
   -3.5360   22.1580  -32.4430 C   0  0  0  0  0  0  0  0  0  0  0  0
   -5.0010   21.8430  -32.3500 C   0  0  0  0  0  0  0  0  0  0  0  0
   -6.0130   22.7260  -31.9550 C   0  0  0  0  0  0  0  0  0  0  0  0
   -5.8870   24.1820  -31.6050 C   0  0  0  0  0  0  0  0  0  0  0  0
   -4.7640   24.3830  -30.6400 C   0  0  0  0  0  0  0  0  0  0  0  0
   -3.9240   25.3000  -30.8470 O   0  0  0  0  0  0  0  0  0  0  0  0
   -4.7050   23.5820  -29.4520 N   0  0  0  0  0  0  0  0  0  0  0  0
   -3.5340   23.1940  -28.7160 C   0  0  0  0  0  0  0  0  0  0  0  0
   -3.3840   21.9130  -28.1520 C   0  0  0  0  0  0  0  0  0  0  0  0
   -2.2300   21.5940  -27.4350 C   0  0  0  0  0  0  0  0  0  0  0  0
   -1.2320   22.5510  -27.2430 C   0  0  0  0  0  0  0  0  0  0  0  0
   -1.3880   23.8420  -27.7610 C   0  0  0  0  0  0  0  0  0  0  0  0
   -0.1610   25.0760  -27.4540 S   0  0  0  0  0  0  0  0  0  0  0  0
    1.1710   24.5830  -27.9540 O   0  0  0  0  0  0  0  0  0  0  0  0
   -0.5120   26.3220  -28.2190 O   0  0  0  0  0  0  0  0  0  0  0  0
   -0.0390   25.4580  -25.7490 N   0  0  0  0  0  0  0  0  0  0  0  0
    0.9810   26.5060  -25.4990 C   0  0  0  0  0  0  0  0  0  0  0  0
    0.3390   27.8830  -25.2570 C   0  0  0  0  0  0  0  0  0  0  0  0
   -0.5550   27.9040  -24.1520 O   0  0  0  0  0  0  0  0  0  0  0  0
   -1.2270   26.6690  -23.9360 C   0  0  0  0  0  0  0  0  0  0  0  0
   -1.3680   25.8120  -25.2060 C   0  0  0  0  0  0  0  0  0  0  0  0
   -2.5360   24.1540  -28.5060 C   0  0  0  0  0  0  0  0  0  0  0  0
   -7.1890   22.0020  -32.0300 C   0  0  0  0  0  0  0  0  0  0  0  0
   -8.5100   22.3770  -31.7880 C   0  0  0  0  0  0  0  0  0  0  0  0
   -9.5080   21.3990  -31.9340 C   0  0  0  0  0  0  0  0  0  0  0  0
   -9.1710   20.0830  -32.3150 C   0  0  0  0  0  0  0  0  0  0  0  0
   -7.8340   19.7360  -32.5710 C   0  0  0  0  0  0  0  0  0  0  0  0
   -6.8580   20.7290  -32.4240 C   0  0  0  0  0  0  0  0  0  0  0  0
   -5.5300   20.6230  -32.6350 N   0  0  0  0  0  0  0  0  0  0  0  0
   -4.8100   19.4120  -33.0380 C   0  0  0  0  0  0  0  0  0  0  0  0
   -3.1154   22.2484  -31.4306 H   0  0  0  0  0  0  0  0  0  0  0  0
   -3.0208   21.3501  -32.9833 H   0  0  0  0  0  0  0  0  0  0  0  0
   -3.3984   23.1063  -32.9833 H   0  0  0  0  0  0  0  0  0  0  0  0
   -5.6887   24.7602  -32.5195 H   0  0  0  0  0  0  0  0  0  0  0  0
   -6.8247   24.5234  -31.1422 H   0  0  0  0  0  0  0  0  0  0  0  0
   -4.1780   21.1619  -28.2767 H   0  0  0  0  0  0  0  0  0  0  0  0
   -2.1062   20.5833  -27.0190 H   0  0  0  0  0  0  0  0  0  0  0  0
   -0.3214   22.2901  -26.6837 H   0  0  0  0  0  0  0  0  0  0  0  0
    0.2800   24.5830  -25.2710 H   0  0  0  0  0  0  0  0  0  0  0  0
    1.5686   26.2264  -24.6121 H   0  0  0  0  0  0  0  0  0  0  0  0
    1.6210   26.5794  -26.3907 H   0  0  0  0  0  0  0  0  0  0  0  0
    1.1403   28.6132  -25.0708 H   0  0  0  0  0  0  0  0  0  0  0  0
   -0.2484   28.1290  -26.1539 H   0  0  0  0  0  0  0  0  0  0  0  0
   -0.6623   26.0923  -23.1887 H   0  0  0  0  0  0  0  0  0  0  0  0
   -2.2449   26.9116  -23.5969 H   0  0  0  0  0  0  0  0  0  0  0  0
   -1.9148   24.8897  -24.9602 H   0  0  0  0  0  0  0  0  0  0  0  0
   -1.9164   26.3909  -25.9637 H   0  0  0  0  0  0  0  0  0  0  0  0
   -2.6530   25.1626  -28.9292 H   0  0  0  0  0  0  0  0  0  0  0  0
   -8.7627   23.4059  -31.4922 H   0  0  0  0  0  0  0  0  0  0  0  0
  -10.5603   21.6613  -31.7498 H   0  0  0  0  0  0  0  0  0  0  0  0
   -9.9606   19.3234  -32.4123 H   0  0  0  0  0  0  0  0  0  0  0  0
   -7.5622   18.7152  -32.8776 H   0  0  0  0  0  0  0  0  0  0  0  0
   -4.4841   18.8638  -32.1417 H   0  0  0  0  0  0  0  0  0  0  0  0
   -5.4747   18.7726  -33.6374 H   0  0  0  0  0  0  0  0  0  0  0  0
   -3.9307   19.6906  -33.6374 H   0  0  0  0  0  0  0  0  0  0  0  0
  1  2  1  0
  2  3  2  0
  3  4  1  0
  4  5  1  0
  5  6  2  0
  5  7  1  0
  7  8  1  0
  8  9  2  0
  9 10  1  0
 10 11  2  0
 11 12  1  0
 12 13  1  0
 13 14  2  0
 13 15  2  0
 13 16  1  0
 16 17  1  0
 17 18  1  0
 18 19  1  0
 19 20  1  0
 20 21  1  0
 12 22  2  0
  3 23  1  0
 23 24  2  0
 24 25  1  0
 25 26  2  0
 26 27  1  0
 27 28  2  0
 28 29  1  0
 29 30  1  0
 29  2  1  0
 22  8  1  0
 28 23  1  0
 21 16  1  0
  1 31  1  0
  1 32  1  0
  1 33  1  0
  4 34  1  0
  4 35  1  0
  9 36  1  0
 10 37  1  0
 11 38  1  0
 16 39  1  0
 17 40  1  0
 17 41  1  0
 18 42  1  0
 18 43  1  0
 20 44  1  0
 20 45  1  0
 21 46  1  0
 21 47  1  0
 22 48  1  0
 24 49  1  0
 25 50  1  0
 26 51  1  0
 27 52  1  0
 30 53  1  0
 30 54  1  0
 30 55  1  0
M  CHG  2   7  -1  16   1
M  END
>  <UniqueID>  (20) 
20

>  <SMILES>  (20) 
Cc1c(CC(=O)[N-]c2cccc(S(=O)(=O)[NH+]3CCOCC3)c2)c2ccccc2n1C

>  <Energy>  (20) 
104.61786060243156

>  <Genealogy>  (20) 
Cc1c(CC(=O)[N-]c2cccc(S(=O)(=O)[NH+]3CCOCC3)c2)c2ccccc2n1C (protonated)
Cc1c(CC(=O)[N-]c2cccc(S(=O)(=O)[NH+]3CCOCC3)c2)c2ccccc2n1C (3D coordinates assigned)
Cc1c(CC(=O)[N-]c2cccc(S(=O)(=O)[NH+]3CCOCC3)c2)c2ccccc2n1C (nonaromatic ring conformer: 104.61786060243156 kcal/mol)

>  <smiles>  (20) 
Cc1c(CC(=O)Nc2cccc(S(=O)(=O)N3CCOCC3)c2)c2ccccc2n1C

>  <score_type>  (20) 
oracle

>  <origin>  (20) 
adgpu

>  <m_score__min__energy>  (20) 
-11.800000000000001

>  <m_primary>  (20) 
energy

$$$$
20:0
     RDKit          3D

 49 51  0  0  0  0  0  0  0  0999 V2000
   -0.4980   21.2570  -31.8680 C   0  0  0  0  0  0  0  0  0  0  0  0
   -1.3740   20.4090  -32.7970 C   0  0  0  0  0  0  0  0  0  0  0  0
   -2.6480   21.1700  -33.1870 C   0  0  0  0  0  0  0  0  0  0  0  0
   -0.6030   19.9090  -34.0390 C   0  0  0  0  0  0  0  0  0  0  0  0
   -0.6790   20.8480  -35.1600 N   0  0  0  0  0  0  0  0  0  0  0  0
    0.3470   21.7780  -35.5450 C   0  0  0  0  0  0  0  0  0  0  0  0
    0.2470   23.0680  -35.3480 O   0  0  0  0  0  0  0  0  0  0  0  0
    1.3450   23.6180  -35.8190 C   0  0  0  0  0  0  0  0  0  0  0  0
    1.6150   25.0690  -35.7790 C   0  0  0  0  0  0  0  0  0  0  0  0
    2.9370   25.5410  -35.8260 C   0  0  0  0  0  0  0  0  0  0  0  0
    3.1980   26.9140  -35.7830 C   0  0  0  0  0  0  0  0  0  0  0  0
    2.1440   27.8260  -35.6890 C   0  0  0  0  0  0  0  0  0  0  0  0
    0.8200   27.3690  -35.6350 C   0  0  0  0  0  0  0  0  0  0  0  0
   -0.5100   28.5200  -35.4890 S   0  0  0  0  0  0  0  0  0  0  0  0
    0.0170   29.8120  -34.9270 O   0  0  0  0  0  0  0  0  0  0  0  0
   -1.5270   27.9770  -34.5240 O   0  0  0  0  0  0  0  0  0  0  0  0
   -1.2810   28.8270  -37.0300 N   0  0  0  0  0  0  0  0  0  0  0  0
   -2.0080   27.6460  -37.5150 C   0  0  0  0  0  0  0  0  0  0  0  0
   -1.1130   26.9180  -38.5070 C   0  0  0  0  0  0  0  0  0  0  0  0
   -0.0230   27.9060  -38.8840 C   0  0  0  0  0  0  0  0  0  0  0  0
   -0.2990   29.1630  -38.0710 C   0  0  0  0  0  0  0  0  0  0  0  0
    0.5600   25.9930  -35.6890 C   0  0  0  0  0  0  0  0  0  0  0  0
    2.1960   22.7100  -36.3510 N   0  0  0  0  0  0  0  0  0  0  0  0
    1.5580   21.5380  -36.1730 C   0  0  0  0  0  0  0  0  0  0  0  0
    2.0810   20.2910  -36.6610 C   0  0  0  0  0  0  0  0  0  0  0  0
    2.5070   19.2900  -37.0560 N   0  0  0  0  0  0  0  0  0  0  0  0
   -0.7401   21.0227  -30.8209 H   0  0  0  0  0  0  0  0  0  0  0  0
    0.5620   21.0331  -32.0582 H   0  0  0  0  0  0  0  0  0  0  0  0
   -0.6873   22.3238  -32.0582 H   0  0  0  0  0  0  0  0  0  0  0  0
   -1.6716   19.5102  -32.2371 H   0  0  0  0  0  0  0  0  0  0  0  0
   -3.1787   21.4870  -32.2772 H   0  0  0  0  0  0  0  0  0  0  0  0
   -2.3787   22.0553  -33.7817 H   0  0  0  0  0  0  0  0  0  0  0  0
   -3.2999   20.5132  -33.7817 H   0  0  0  0  0  0  0  0  0  0  0  0
    0.4535   19.7696  -33.7662 H   0  0  0  0  0  0  0  0  0  0  0  0
   -1.0646   18.9641  -34.3617 H   0  0  0  0  0  0  0  0  0  0  0  0
   -1.6150   20.9750  -35.6060 H   0  0  0  0  0  0  0  0  0  0  0  0
    3.7709   24.8272  -35.8970 H   0  0  0  0  0  0  0  0  0  0  0  0
    4.2357   27.2768  -35.8233 H   0  0  0  0  0  0  0  0  0  0  0  0
    2.3536   28.9054  -35.6573 H   0  0  0  0  0  0  0  0  0  0  0  0
   -1.9470   29.6250  -36.9000 H   0  0  0  0  0  0  0  0  0  0  0  0
   -2.2473   26.9822  -36.6711 H   0  0  0  0  0  0  0  0  0  0  0  0
   -2.9485   27.9481  -37.9989 H   0  0  0  0  0  0  0  0  0  0  0  0
   -0.6744   26.0229  -38.0418 H   0  0  0  0  0  0  0  0  0  0  0  0
   -1.6769   26.5814  -39.3894 H   0  0  0  0  0  0  0  0  0  0  0  0
    0.9670   27.4976  -38.6327 H   0  0  0  0  0  0  0  0  0  0  0  0
   -0.0240   28.1155  -39.9639 H   0  0  0  0  0  0  0  0  0  0  0  0
    0.6321   29.5174  -37.6048 H   0  0  0  0  0  0  0  0  0  0  0  0
   -0.6903   29.9592  -38.7213 H   0  0  0  0  0  0  0  0  0  0  0  0
   -0.4790   25.6330  -35.6607 H   0  0  0  0  0  0  0  0  0  0  0  0
  1  2  1  0
  2  3  1  0
  2  4  1  0
  4  5  1  0
  5  6  1  0
  6  7  1  0
  7  8  1  0
  8  9  1  0
  9 10  2  0
 10 11  1  0
 11 12  2  0
 12 13  1  0
 13 14  1  0
 14 15  2  0
 14 16  2  0
 14 17  1  0
 17 18  1  0
 18 19  1  0
 19 20  1  0
 20 21  1  0
 13 22  2  0
  8 23  2  0
 23 24  1  0
 24 25  1  0
 25 26  3  0
 24  6  2  0
 22  9  1  0
 21 17  1  0
  1 27  1  0
  1 28  1  0
  1 29  1  0
  2 30  1  0
  3 31  1  0
  3 32  1  0
  3 33  1  0
  4 34  1  0
  4 35  1  0
  5 36  1  0
 10 37  1  0
 11 38  1  0
 12 39  1  0
 17 40  1  0
 18 41  1  0
 18 42  1  0
 19 43  1  0
 19 44  1  0
 20 45  1  0
 20 46  1  0
 21 47  1  0
 21 48  1  0
 22 49  1  0
M  CHG  1  17   1
M  END
>  <UniqueID>  (21) 
21

>  <SMILES>  (21) 
CC(C)CNc1oc(-c2cccc(S(=O)(=O)[NH+]3CCCC3)c2)nc1C#N

>  <Energy>  (21) 
76.62736859569593

>  <Genealogy>  (21) 
CC(C)CNc1oc(-c2cccc(S(=O)(=O)[NH+]3CCCC3)c2)nc1C#N (protonated)
CC(C)CNc1oc(-c2cccc(S(=O)(=O)[NH+]3CCCC3)c2)nc1C#N (3D coordinates assigned)
CC(C)CNc1oc(-c2cccc(S(=O)(=O)[NH+]3CCCC3)c2)nc1C#N (nonaromatic ring conformer: 76.62736859569593 kcal/mol)

>  <smiles>  (21) 
CC(C)CNc1oc(-c2cccc(S(=O)(=O)N3CCCC3)c2)nc1C#N

>  <score_type>  (21) 
oracle

>  <origin>  (21) 
adgpu

>  <m_score__min__energy>  (21) 
-8.8499999999999996

>  <m_primary>  (21) 
energy

$$$$
21:0
     RDKit          3D

 35 37  0  0  0  0  0  0  0  0999 V2000
   -5.8030   22.3920  -32.4710 N   0  0  0  0  0  0  0  0  0  0  0  0
   -5.6080   21.2640  -32.6430 C   0  0  0  0  0  0  0  0  0  0  0  0
   -5.3710   19.8590  -32.8630 C   0  0  0  0  0  0  0  0  0  0  0  0
   -6.3960   18.9500  -32.5670 C   0  0  0  0  0  0  0  0  0  0  0  0
   -6.2450   17.5940  -32.8680 C   0  0  0  0  0  0  0  0  0  0  0  0
   -5.0770   17.1420  -33.4860 C   0  0  0  0  0  0  0  0  0  0  0  0
   -4.0510   18.0410  -33.7850 C   0  0  0  0  0  0  0  0  0  0  0  0
   -4.1700   19.3970  -33.4460 C   0  0  0  0  0  0  0  0  0  0  0  0
   -2.8140   20.5260  -33.8310 S   0  0  0  0  0  0  0  0  0  0  0  0
   -1.9500   20.2860  -32.2640 C   0  0  0  0  0  0  0  0  0  0  0  0
   -1.0160   19.2430  -32.1780 C   0  0  0  0  0  0  0  0  0  0  0  0
   -0.3010   19.0260  -30.9990 C   0  0  0  0  0  0  0  0  0  0  0  0
   -0.5000   19.8580  -29.8980 C   0  0  0  0  0  0  0  0  0  0  0  0
   -1.4050   20.9190  -29.9800 C   0  0  0  0  0  0  0  0  0  0  0  0
   -2.1240   21.1580  -31.1650 C   0  0  0  0  0  0  0  0  0  0  0  0
   -3.0400   22.2620  -31.2390 N   0  0  0  0  0  0  0  0  0  0  0  0
   -3.0150   23.3690  -30.3220 C   0  0  0  0  0  0  0  0  0  0  0  0
   -1.9900   23.5870  -29.6210 O   0  0  0  0  0  0  0  0  0  0  0  0
   -4.1610   24.2850  -30.2130 C   0  0  0  0  0  0  0  0  0  0  0  0
   -5.3420   24.0540  -29.5330 C   0  0  0  0  0  0  0  0  0  0  0  0
   -6.1000   25.1920  -29.7050 C   0  0  0  0  0  0  0  0  0  0  0  0
   -5.3370   26.0480  -30.4730 C   0  0  0  0  0  0  0  0  0  0  0  0
   -4.1880   25.4810  -30.7570 O   0  0  0  0  0  0  0  0  0  0  0  0
   -7.3239   19.3059  -32.0954 H   0  0  0  0  0  0  0  0  0  0  0  0
   -7.0459   16.8826  -32.6183 H   0  0  0  0  0  0  0  0  0  0  0  0
   -4.9651   16.0770  -33.7375 H   0  0  0  0  0  0  0  0  0  0  0  0
   -3.1420   17.6829  -34.2905 H   0  0  0  0  0  0  0  0  0  0  0  0
   -0.8456   18.5906  -33.0471 H   0  0  0  0  0  0  0  0  0  0  0  0
    0.4203   18.1977  -30.9384 H   0  0  0  0  0  0  0  0  0  0  0  0
    0.0553   19.6791  -28.9654 H   0  0  0  0  0  0  0  0  0  0  0  0
   -1.5568   21.5739  -29.1093 H   0  0  0  0  0  0  0  0  0  0  0  0
   -3.7170   22.2920  -32.0270 H   0  0  0  0  0  0  0  0  0  0  0  0
   -5.6192   23.1498  -28.9713 H   0  0  0  0  0  0  0  0  0  0  0  0
   -7.1092   25.3801  -29.3100 H   0  0  0  0  0  0  0  0  0  0  0  0
   -5.6451   27.0528  -30.7977 H   0  0  0  0  0  0  0  0  0  0  0  0
  1  2  3  0
  2  3  1  0
  3  4  2  0
  4  5  1  0
  5  6  2  0
  6  7  1  0
  7  8  2  0
  8  9  1  0
  9 10  1  0
 10 11  2  0
 11 12  1  0
 12 13  2  0
 13 14  1  0
 14 15  2  0
 15 16  1  0
 16 17  1  0
 17 18  2  0
 17 19  1  0
 19 20  2  0
 20 21  1  0
 21 22  2  0
 22 23  1  0
  8  3  1  0
 15 10  1  0
 23 19  1  0
  4 24  1  0
  5 25  1  0
  6 26  1  0
  7 27  1  0
 11 28  1  0
 12 29  1  0
 13 30  1  0
 14 31  1  0
 16 32  1  0
 20 33  1  0
 21 34  1  0
 22 35  1  0
M  END
>  <UniqueID>  (22) 
22

>  <SMILES>  (22) 
N#Cc1ccccc1Sc1ccccc1NC(=O)c1ccco1

>  <Energy>  (22) 
65.4159108840618

>  <Genealogy>  (22) 
N#Cc1ccccc1Sc1ccccc1NC(=O)c1ccco1 (3D coordinates assigned)
N#Cc1ccccc1Sc1ccccc1NC(=O)c1ccco1 (optimized conformer: 65.4159108840618 kcal/mol)

>  <smiles>  (22) 
N#Cc1ccccc1Sc1ccccc1NC(=O)c1ccco1

>  <score_type>  (22) 
oracle

>  <origin>  (22) 
adgpu

>  <m_score__min__energy>  (22) 
-8.8200000000000003

>  <m_primary>  (22) 
energy

$$$$
22:0
     RDKit          3D

 68 72  0  0  0  0  0  0  0  0999 V2000
   -6.5290   23.5000  -30.7060 O   0  0  0  0  0  0  0  0  0  0  0  0
   -5.3860   23.0880  -31.0480 C   0  0  0  0  0  0  0  0  0  0  0  0
   -5.2030   22.4570  -32.3210 N   0  0  0  0  0  0  0  0  0  0  0  0
   -4.2810   21.3950  -32.6100 C   0  0  0  0  0  0  0  0  0  0  0  0
   -2.9200   21.6560  -32.8540 C   0  0  0  0  0  0  0  0  0  0  0  0
   -2.0520   20.6170  -33.2140 C   0  0  0  0  0  0  0  0  0  0  0  0
   -0.3480   20.9640  -33.4990 S   0  0  0  0  0  0  0  0  0  0  0  0
    0.2590   21.5050  -32.2350 O   0  0  0  0  0  0  0  0  0  0  0  0
   -0.2080   22.0000  -34.5830 O   0  0  0  0  0  0  0  0  0  0  0  0
    0.4740   19.4960  -33.9630 N   0  0  0  0  0  0  0  0  0  0  0  0
    0.3280   18.4620  -32.9330 C   0  0  0  0  0  0  0  0  0  0  0  0
    0.2820   17.1350  -33.6560 C   0  0  0  0  0  0  0  0  0  0  0  0
   -0.3730   17.4640  -34.9770 C   0  0  0  0  0  0  0  0  0  0  0  0
   -0.0710   18.9390  -35.2110 C   0  0  0  0  0  0  0  0  0  0  0  0
   -2.5430   19.3120  -33.3370 C   0  0  0  0  0  0  0  0  0  0  0  0
   -3.8950   19.0490  -33.1090 C   0  0  0  0  0  0  0  0  0  0  0  0
   -4.7650   20.0840  -32.7470 C   0  0  0  0  0  0  0  0  0  0  0  0
   -6.1390   19.7890  -32.4750 N   0  0  0  0  0  0  0  0  0  0  0  0
   -6.5540   18.6860  -31.6300 C   0  0  0  0  0  0  0  0  0  0  0  0
   -8.0630   18.5810  -31.8110 C   0  0  0  0  0  0  0  0  0  0  0  0
   -8.5000   19.8660  -32.5200 C   0  0  0  0  0  0  0  0  0  0  0  0
   -7.2400   20.4550  -33.1400 C   0  0  0  0  0  0  0  0  0  0  0  0
   -4.2460   23.2390  -30.1130 C   0  0  0  0  0  0  0  0  0  0  0  0
   -3.8590   22.1230  -29.3480 C   0  0  0  0  0  0  0  0  0  0  0  0
   -2.7240   22.1760  -28.5260 C   0  0  0  0  0  0  0  0  0  0  0  0
   -2.2400   20.7840  -27.5620 S   0  0  0  0  0  0  0  0  0  0  0  0
   -3.4720   20.0990  -27.0430 O   0  0  0  0  0  0  0  0  0  0  0  0
   -1.4040   21.2290  -26.3910 O   0  0  0  0  0  0  0  0  0  0  0  0
   -1.3360   19.6800  -28.5670 N   0  0  0  0  0  0  0  0  0  0  0  0
   -0.4970   20.4000  -29.5280 C   0  0  0  0  0  0  0  0  0  0  0  0
    0.7100   19.5160  -29.8100 C   0  0  0  0  0  0  0  0  0  0  0  0
    0.7210   18.4750  -28.7000 C   0  0  0  0  0  0  0  0  0  0  0  0
   -0.4160   18.8690  -27.7730 C   0  0  0  0  0  0  0  0  0  0  0  0
   -1.9740   23.3510  -28.4580 C   0  0  0  0  0  0  0  0  0  0  0  0
   -2.3590   24.4730  -29.1930 C   0  0  0  0  0  0  0  0  0  0  0  0
   -3.4980   24.4400  -30.0020 C   0  0  0  0  0  0  0  0  0  0  0  0
   -3.8740   25.6250  -30.6380 O   0  0  0  0  0  0  0  0  0  0  0  0
   -2.5352   22.6823  -32.7615 H   0  0  0  0  0  0  0  0  0  0  0  0
    1.1850   18.4892  -32.2439 H   0  0  0  0  0  0  0  0  0  0  0  0
   -0.5833   18.6211  -32.3378 H   0  0  0  0  0  0  0  0  0  0  0  0
    1.2962   16.7378  -33.8101 H   0  0  0  0  0  0  0  0  0  0  0  0
   -0.2631   16.3634  -33.0925 H   0  0  0  0  0  0  0  0  0  0  0  0
    0.0534   16.8495  -35.7835 H   0  0  0  0  0  0  0  0  0  0  0  0
   -1.4540   17.2608  -34.9639 H   0  0  0  0  0  0  0  0  0  0  0  0
    0.6664   19.0451  -36.0203 H   0  0  0  0  0  0  0  0  0  0  0  0
   -0.9870   19.4750  -35.5003 H   0  0  0  0  0  0  0  0  0  0  0  0
   -1.8629   18.4929  -33.6136 H   0  0  0  0  0  0  0  0  0  0  0  0
   -4.2784   18.0234  -33.2144 H   0  0  0  0  0  0  0  0  0  0  0  0
   -6.0630   17.7537  -31.9458 H   0  0  0  0  0  0  0  0  0  0  0  0
   -6.2794   18.8519  -30.5778 H   0  0  0  0  0  0  0  0  0  0  0  0
   -8.3130   17.7031  -32.4249 H   0  0  0  0  0  0  0  0  0  0  0  0
   -8.5749   18.4631  -30.8445 H   0  0  0  0  0  0  0  0  0  0  0  0
   -9.2397   19.6382  -33.3017 H   0  0  0  0  0  0  0  0  0  0  0  0
   -8.9711   20.5714  -31.8196 H   0  0  0  0  0  0  0  0  0  0  0  0
   -7.2137   20.2563  -34.2216 H   0  0  0  0  0  0  0  0  0  0  0  0
   -7.1938   21.5470  -33.0156 H   0  0  0  0  0  0  0  0  0  0  0  0
   -4.4535   21.1987  -29.3953 H   0  0  0  0  0  0  0  0  0  0  0  0
   -1.0573   20.5829  -30.4568 H   0  0  0  0  0  0  0  0  0  0  0  0
   -0.1856   21.3753  -29.1258 H   0  0  0  0  0  0  0  0  0  0  0  0
    0.6094   19.0300  -30.7917 H   0  0  0  0  0  0  0  0  0  0  0  0
    1.6440   20.0966  -29.8337 H   0  0  0  0  0  0  0  0  0  0  0  0
    0.5515   17.4695  -29.1125 H   0  0  0  0  0  0  0  0  0  0  0  0
    1.6872   18.4439  -28.1752 H   0  0  0  0  0  0  0  0  0  0  0  0
   -0.9284   17.9712  -27.3970 H   0  0  0  0  0  0  0  0  0  0  0  0
   -0.0436   19.4276  -26.9016 H   0  0  0  0  0  0  0  0  0  0  0  0
   -1.0767   23.3928  -27.8231 H   0  0  0  0  0  0  0  0  0  0  0  0
   -1.7594   25.3934  -29.1349 H   0  0  0  0  0  0  0  0  0  0  0  0
   -4.1730   25.6660  -31.6020 H   0  0  0  0  0  0  0  0  0  0  0  0
  1  2  2  0
  2  3  1  0
  3  4  1  0
  4  5  2  0
  5  6  1  0
  6  7  1  0
  7  8  2  0
  7  9  2  0
  7 10  1  0
 10 11  1  0
 11 12  1  0
 12 13  1  0
 13 14  1  0
  6 15  2  0
 15 16  1  0
 16 17  2  0
 17 18  1  0
 18 19  1  0
 19 20  1  0
 20 21  1  0
 21 22  1  0
  2 23  1  0
 23 24  2  0
 24 25  1  0
 25 26  1  0
 26 27  2  0
 26 28  2  0
 26 29  1  0
 29 30  1  0
 30 31  1  0
 31 32  1  0
 32 33  1  0
 25 34  2  0
 34 35  1  0
 35 36  2  0
 36 37  1  0
 17  4  1  0
 22 18  1  0
 36 23  1  0
 14 10  1  0
 33 29  1  0
  5 38  1  0
 11 39  1  0
 11 40  1  0
 12 41  1  0
 12 42  1  0
 13 43  1  0
 13 44  1  0
 14 45  1  0
 14 46  1  0
 15 47  1  0
 16 48  1  0
 19 49  1  0
 19 50  1  0
 20 51  1  0
 20 52  1  0
 21 53  1  0
 21 54  1  0
 22 55  1  0
 22 56  1  0
 24 57  1  0
 30 58  1  0
 30 59  1  0
 31 60  1  0
 31 61  1  0
 32 62  1  0
 32 63  1  0
 33 64  1  0
 33 65  1  0
 34 66  1  0
 35 67  1  0
 37 68  1  0
M  CHG  1   3  -1
M  END
>  <UniqueID>  (23) 
23

>  <SMILES>  (23) 
O=C([N-]c1cc(S(=O)(=O)N2CCCC2)ccc1N1CCCC1)c1cc(S(=O)(=O)N2CCCC2)ccc1O

>  <Energy>  (23) 
86.39628255917378

>  <Genealogy>  (23) 
O=C([N-]c1cc(S(=O)(=O)N2CCCC2)ccc1N1CCCC1)c1cc(S(=O)(=O)N2CCCC2)ccc1O (protonated)
O=C([N-]c1cc(S(=O)(=O)N2CCCC2)ccc1N1CCCC1)c1cc(S(=O)(=O)N2CCCC2)ccc1O (3D coordinates assigned)
O=C([N-]c1cc(S(=O)(=O)N2CCCC2)ccc1N1CCCC1)c1cc(S(=O)(=O)N2CCCC2)ccc1O (nonaromatic ring conformer: 86.39628255917378 kcal/mol)

>  <smiles>  (23) 
O=C(Nc1cc(S(=O)(=O)N2CCCC2)ccc1N1CCCC1)c1cc(S(=O)(=O)N2CCCC2)ccc1O

>  <score_type>  (23) 
oracle

>  <origin>  (23) 
adgpu

>  <m_score__min__energy>  (23) 
-12.23

>  <m_primary>  (23) 
energy

$$$$
23:0
     RDKit          3D

 40 42  0  0  0  0  0  0  0  0999 V2000
   -2.8440   25.3490  -26.0440 C   0  0  0  0  0  0  0  0  0  0  0  0
   -1.6090   25.7830  -25.3220 C   0  0  0  0  0  0  0  0  0  0  0  0
   -1.5360   26.9190  -24.6030 N   0  0  0  0  0  0  0  0  0  0  0  0
   -0.3090   27.0310  -24.1160 N   0  0  0  0  0  0  0  0  0  0  0  0
    0.4070   25.9630  -24.5140 C   0  0  0  0  0  0  0  0  0  0  0  0
    1.8590   25.7820  -24.2090 C   0  0  0  0  0  0  0  0  0  0  0  0
   -0.3900   25.1210  -25.2690 C   0  0  0  0  0  0  0  0  0  0  0  0
    0.0450   23.8720  -25.9940 C   0  0  0  0  0  0  0  0  0  0  0  0
    0.1380   24.0710  -27.4820 C   0  0  0  0  0  0  0  0  0  0  0  0
    1.2580   24.3580  -27.9820 O   0  0  0  0  0  0  0  0  0  0  0  0
   -1.0420   23.9640  -28.3690 C   0  0  0  0  0  0  0  0  0  0  0  0
   -1.7230   24.9750  -29.0270 C   0  0  0  0  0  0  0  0  0  0  0  0
   -1.4670   26.3390  -28.9610 O   0  0  0  0  0  0  0  0  0  0  0  0
   -2.7260   24.3860  -29.7640 C   0  0  0  0  0  0  0  0  0  0  0  0
   -3.6240   25.0780  -30.5740 O   0  0  0  0  0  0  0  0  0  0  0  0
   -2.7070   23.0470  -29.5910 N   0  0  0  0  0  0  0  0  0  0  0  0
   -3.5510   22.0530  -30.2570 C   0  0  0  0  0  0  0  0  0  0  0  0
   -4.8770   22.6600  -30.6330 C   0  0  0  0  0  0  0  0  0  0  0  0
   -5.2640   22.7430  -31.9790 C   0  0  0  0  0  0  0  0  0  0  0  0
   -6.4870   23.3220  -32.3200 C   0  0  0  0  0  0  0  0  0  0  0  0
   -7.3160   23.8140  -31.3110 C   0  0  0  0  0  0  0  0  0  0  0  0
   -6.9310   23.7250  -30.0100 N   0  0  0  0  0  0  0  0  0  0  0  0
   -5.7440   23.1660  -29.6520 C   0  0  0  0  0  0  0  0  0  0  0  0
   -1.6830   22.7930  -28.7470 C   0  0  0  0  0  0  0  0  0  0  0  0
   -1.3190   21.5150  -28.3370 O   0  0  0  0  0  0  0  0  0  0  0  0
   -3.6195   25.0765  -25.3130 H   0  0  0  0  0  0  0  0  0  0  0  0
   -3.2084   26.1729  -26.6751 H   0  0  0  0  0  0  0  0  0  0  0  0
   -2.6129   24.4782  -26.6751 H   0  0  0  0  0  0  0  0  0  0  0  0
    2.0052   25.7638  -23.1189 H   0  0  0  0  0  0  0  0  0  0  0  0
    2.2091   24.8333  -24.6418 H   0  0  0  0  0  0  0  0  0  0  0  0
    2.4313   26.6158  -24.6418 H   0  0  0  0  0  0  0  0  0  0  0  0
    1.0333   23.5712  -25.6161 H   0  0  0  0  0  0  0  0  0  0  0  0
   -0.7130   23.0970  -25.8078 H   0  0  0  0  0  0  0  0  0  0  0  0
   -3.4780   26.0470  -30.8240 H   0  0  0  0  0  0  0  0  0  0  0  0
   -3.0440   21.6973  -31.1661 H   0  0  0  0  0  0  0  0  0  0  0  0
   -3.7247   21.2127  -29.5688 H   0  0  0  0  0  0  0  0  0  0  0  0
   -4.6029   22.3514  -32.7661 H   0  0  0  0  0  0  0  0  0  0  0  0
   -6.7946   23.3899  -33.3739 H   0  0  0  0  0  0  0  0  0  0  0  0
   -8.2815   24.2741  -31.5683 H   0  0  0  0  0  0  0  0  0  0  0  0
   -5.4625   23.1102  -28.5901 H   0  0  0  0  0  0  0  0  0  0  0  0
  1  2  1  0
  2  3  2  0
  3  4  1  0
  4  5  1  0
  5  6  1  0
  5  7  2  0
  7  8  1  0
  8  9  1  0
  9 10  2  0
  9 11  1  0
 11 12  1  0
 12 13  1  0
 12 14  2  0
 14 15  1  0
 14 16  1  0
 16 17  1  0
 17 18  1  0
 18 19  2  0
 19 20  1  0
 20 21  2  0
 21 22  1  0
 22 23  2  0
 16 24  1  0
 24 25  1  0
  7  2  1  0
 24 11  2  0
 23 18  1  0
  1 26  1  0
  1 27  1  0
  1 28  1  0
  6 29  1  0
  6 30  1  0
  6 31  1  0
  8 32  1  0
  8 33  1  0
 15 34  1  0
 17 35  1  0
 17 36  1  0
 19 37  1  0
 20 38  1  0
 21 39  1  0
 23 40  1  0
M  CHG  3   4  -1  13  -1  25  -1
M  END
>  <UniqueID>  (24) 
24

>  <SMILES>  (24) 
Cc1n[n-]c(C)c1CC(=O)c1c([O-])c(O)n(Cc2cccnc2)c1[O-]

>  <Energy>  (24) 
98.8956895283987

>  <Genealogy>  (24) 
Cc1n[n-]c(C)c1CC(=O)c1c([O-])c(O)n(Cc2cccnc2)c1[O-] (protonated)
Cc1n[n-]c(C)c1CC(=O)c1c([O-])c(O)n(Cc2cccnc2)c1[O-] (3D coordinates assigned)
Cc1n[n-]c(C)c1CC(=O)c1c([O-])c(O)n(Cc2cccnc2)c1[O-] (optimized conformer: 98.8956895283987 kcal/mol)

>  <smiles>  (24) 
Cc1n[nH]c(C)c1CC(=O)c1c(O)c(O)n(Cc2cccnc2)c1O

>  <score_type>  (24) 
oracle

>  <origin>  (24) 
adgpu

>  <m_score__min__energy>  (24) 
-10.529999999999999

>  <m_primary>  (24) 
energy

$$$$
24:0
     RDKit          3D

 49 52  0  0  0  0  0  0  0  0999 V2000
   -5.7230   25.4670  -28.9830 O   0  0  0  0  0  0  0  0  0  0  0  0
   -5.2980   25.0580  -30.3640 S   0  0  0  0  0  0  0  0  0  0  0  0
   -5.7430   26.1060  -31.3420 O   0  0  0  0  0  0  0  0  0  0  0  0
   -3.5710   24.9160  -30.4260 N   0  0  0  0  0  0  0  0  0  0  0  0
   -2.8150   24.1940  -29.4460 C   0  0  0  0  0  0  0  0  0  0  0  0
   -3.2120   22.9200  -29.0250 C   0  0  0  0  0  0  0  0  0  0  0  0
   -2.3750   22.1450  -28.2120 C   0  0  0  0  0  0  0  0  0  0  0  0
   -1.1620   22.6870  -27.7420 C   0  0  0  0  0  0  0  0  0  0  0  0
   -0.8000   23.9900  -28.1120 C   0  0  0  0  0  0  0  0  0  0  0  0
   -1.6220   24.7410  -28.9570 C   0  0  0  0  0  0  0  0  0  0  0  0
   -1.2320   26.0190  -29.3370 O   0  0  0  0  0  0  0  0  0  0  0  0
   -0.1890   21.8370  -26.9600 C   0  0  0  0  0  0  0  0  0  0  0  0
   -0.8250   20.6690  -26.3410 N   0  0  0  0  0  0  0  0  0  0  0  0
   -1.6220   19.9240  -27.3230 C   0  0  0  0  0  0  0  0  0  0  0  0
   -2.8070   20.7620  -27.8130 C   0  0  0  0  0  0  0  0  0  0  0  0
   -6.0240   23.5160  -30.8190 C   0  0  0  0  0  0  0  0  0  0  0  0
   -7.4110   23.3590  -30.7320 C   0  0  0  0  0  0  0  0  0  0  0  0
   -8.0190   22.1980  -31.2160 C   0  0  0  0  0  0  0  0  0  0  0  0
   -7.2480   21.1920  -31.8130 C   0  0  0  0  0  0  0  0  0  0  0  0
   -7.8680   20.0490  -32.3200 O   0  0  0  0  0  0  0  0  0  0  0  0
   -5.8520   21.3440  -31.9050 C   0  0  0  0  0  0  0  0  0  0  0  0
   -4.8740   20.1170  -32.7100 S   0  0  0  0  0  0  0  0  0  0  0  0
   -5.1700   18.7750  -32.1020 O   0  0  0  0  0  0  0  0  0  0  0  0
   -5.2050   20.0510  -34.1740 O   0  0  0  0  0  0  0  0  0  0  0  0
   -3.1690   20.5190  -32.5270 C   0  0  0  0  0  0  0  0  0  0  0  0
   -2.5730   20.4630  -31.2550 C   0  0  0  0  0  0  0  0  0  0  0  0
   -1.2160   20.7680  -31.0990 C   0  0  0  0  0  0  0  0  0  0  0  0
   -0.4490   21.1260  -32.2120 C   0  0  0  0  0  0  0  0  0  0  0  0
   -1.0380   21.1850  -33.4800 C   0  0  0  0  0  0  0  0  0  0  0  0
   -2.3950   20.8810  -33.6390 C   0  0  0  0  0  0  0  0  0  0  0  0
   -5.2440   22.4980  -31.3860 C   0  0  0  0  0  0  0  0  0  0  0  0
   -4.1901   22.5235  -29.3352 H   0  0  0  0  0  0  0  0  0  0  0  0
    0.1375   24.4243  -27.7346 H   0  0  0  0  0  0  0  0  0  0  0  0
    0.5996   21.4873  -27.6425 H   0  0  0  0  0  0  0  0  0  0  0  0
    0.2189   22.4601  -26.1504 H   0  0  0  0  0  0  0  0  0  0  0  0
   -1.4490   20.9900  -25.5620 H   0  0  0  0  0  0  0  0  0  0  0  0
   -0.9851   19.6642  -28.1814 H   0  0  0  0  0  0  0  0  0  0  0  0
   -2.0097   19.0133  -26.8432 H   0  0  0  0  0  0  0  0  0  0  0  0
   -3.2615   20.2646  -28.6825 H   0  0  0  0  0  0  0  0  0  0  0  0
   -3.5314   20.8503  -26.9900 H   0  0  0  0  0  0  0  0  0  0  0  0
   -8.0252   24.1523  -30.2810 H   0  0  0  0  0  0  0  0  0  0  0  0
   -9.1083   22.0731  -31.1279 H   0  0  0  0  0  0  0  0  0  0  0  0
   -7.3310   19.2500  -32.6380 H   0  0  0  0  0  0  0  0  0  0  0  0
   -3.1751   20.1785  -30.3795 H   0  0  0  0  0  0  0  0  0  0  0  0
   -0.7533   20.7261  -30.1019 H   0  0  0  0  0  0  0  0  0  0  0  0
    0.6186   21.3615  -32.0907 H   0  0  0  0  0  0  0  0  0  0  0  0
   -0.4334   21.4708  -34.3534 H   0  0  0  0  0  0  0  0  0  0  0  0
   -2.8548   20.9261  -34.6373 H   0  0  0  0  0  0  0  0  0  0  0  0
   -4.1498   22.6042  -31.4243 H   0  0  0  0  0  0  0  0  0  0  0  0
  1  2  2  0
  2  3  2  0
  2  4  1  0
  4  5  1  0
  5  6  2  0
  6  7  1  0
  7  8  2  0
  8  9  1  0
  9 10  2  0
 10 11  1  0
  8 12  1  0
 12 13  1  0
 13 14  1  0
 14 15  1  0
  2 16  1  0
 16 17  2  0
 17 18  1  0
 18 19  2  0
 19 20  1  0
 19 21  1  0
 21 22  1  0
 22 23  2  0
 22 24  2  0
 22 25  1  0
 25 26  2  0
 26 27  1  0
 27 28  2  0
 28 29  1  0
 29 30  2  0
 21 31  2  0
 10  5  1  0
 31 16  1  0
 15  7  1  0
 30 25  1  0
  6 32  1  0
  9 33  1  0
 12 34  1  0
 12 35  1  0
 13 36  1  0
 14 37  1  0
 14 38  1  0
 15 39  1  0
 15 40  1  0
 17 41  1  0
 18 42  1  0
 20 43  1  0
 26 44  1  0
 27 45  1  0
 28 46  1  0
 29 47  1  0
 30 48  1  0
 31 49  1  0
M  CHG  2   4  -1  11  -1
M  END
>  <UniqueID>  (25) 
25

>  <SMILES>  (25) 
O=S(=O)([N-]c1cc2c(cc1[O-])CNCC2)c1ccc(O)c(S(=O)(=O)c2ccccc2)c1

>  <Energy>  (25) 
61.72838368201077

>  <Genealogy>  (25) 
O=S(=O)([N-]c1cc2c(cc1[O-])CNCC2)c1ccc(O)c(S(=O)(=O)c2ccccc2)c1 (protonated)
O=S(=O)([N-]c1cc2c(cc1[O-])CNCC2)c1ccc(O)c(S(=O)(=O)c2ccccc2)c1 (3D coordinates assigned)
O=S(=O)([N-]c1cc2c(cc1[O-])CNCC2)c1ccc(O)c(S(=O)(=O)c2ccccc2)c1 (nonaromatic ring conformer: 61.72838368201077 kcal/mol)

>  <smiles>  (25) 
O=S(=O)(Nc1cc2c(cc1O)CNCC2)c1ccc(O)c(S(=O)(=O)c2ccccc2)c1

>  <score_type>  (25) 
oracle

>  <origin>  (25) 
adgpu

>  <m_score__min__energy>  (25) 
-14.699999999999999

>  <m_primary>  (25) 
energy

$$$$
25:0
     RDKit          3D

 37 38  0  0  0  0  0  0  0  0999 V2000
   -5.2970   17.8160  -34.9570 C   0  0  0  0  0  0  0  0  0  0  0  0
   -6.4540   16.9220  -33.8740 S   0  0  0  0  0  0  0  0  0  0  0  0
   -7.0510   18.4150  -33.0780 C   0  0  0  0  0  0  0  0  0  0  0  0
   -8.1400   18.3550  -32.2030 C   0  0  0  0  0  0  0  0  0  0  0  0
   -8.6060   19.5180  -31.5820 C   0  0  0  0  0  0  0  0  0  0  0  0
   -7.9920   20.7540  -31.8430 C   0  0  0  0  0  0  0  0  0  0  0  0
   -8.4680   21.9970  -31.1420 C   0  0  0  0  0  0  0  0  0  0  0  0
   -7.3580   22.5980  -30.3930 N   0  0  0  0  0  0  0  0  0  0  0  0
   -7.0160   23.9350  -30.9060 C   0  0  0  0  0  0  0  0  0  0  0  0
   -5.7520   23.8680  -31.7680 C   0  0  0  0  0  0  0  0  0  0  0  0
   -4.5600   23.3890  -30.9730 C   0  0  0  0  0  0  0  0  0  0  0  0
   -4.3550   22.0110  -30.7940 C   0  0  0  0  0  0  0  0  0  0  0  0
   -3.2780   21.5490  -30.0310 C   0  0  0  0  0  0  0  0  0  0  0  0
   -2.4010   22.4580  -29.4360 C   0  0  0  0  0  0  0  0  0  0  0  0
   -2.5990   23.8310  -29.6020 C   0  0  0  0  0  0  0  0  0  0  0  0
   -3.6760   24.3020  -30.3600 C   0  0  0  0  0  0  0  0  0  0  0  0
   -3.8640   25.6730  -30.4940 O   0  0  0  0  0  0  0  0  0  0  0  0
   -6.8950   20.8060  -32.7160 C   0  0  0  0  0  0  0  0  0  0  0  0
   -6.4300   19.6420  -33.3360 C   0  0  0  0  0  0  0  0  0  0  0  0
   -4.5754   18.3736  -34.3419 H   0  0  0  0  0  0  0  0  0  0  0  0
   -4.7589   17.0967  -35.5919 H   0  0  0  0  0  0  0  0  0  0  0  0
   -5.8572   18.5181  -35.5919 H   0  0  0  0  0  0  0  0  0  0  0  0
   -8.6310   17.3912  -32.0028 H   0  0  0  0  0  0  0  0  0  0  0  0
   -9.4566   19.4647  -30.8865 H   0  0  0  0  0  0  0  0  0  0  0  0
   -8.8393   22.7170  -31.8861 H   0  0  0  0  0  0  0  0  0  0  0  0
   -9.2780   21.7350  -30.4454 H   0  0  0  0  0  0  0  0  0  0  0  0
   -7.6600   22.6940  -29.3940 H   0  0  0  0  0  0  0  0  0  0  0  0
   -7.8502   24.3142  -31.5146 H   0  0  0  0  0  0  0  0  0  0  0  0
   -6.8328   24.6078  -30.0553 H   0  0  0  0  0  0  0  0  0  0  0  0
   -5.9261   23.1736  -32.6032 H   0  0  0  0  0  0  0  0  0  0  0  0
   -5.5340   24.8809  -32.1374 H   0  0  0  0  0  0  0  0  0  0  0  0
   -5.0458   21.2909  -31.2568 H   0  0  0  0  0  0  0  0  0  0  0  0
   -3.1216   20.4682  -29.8994 H   0  0  0  0  0  0  0  0  0  0  0  0
   -1.5540   22.0931  -28.8364 H   0  0  0  0  0  0  0  0  0  0  0  0
   -1.9048   24.5448  -29.1345 H   0  0  0  0  0  0  0  0  0  0  0  0
   -6.3981   21.7673  -32.9138 H   0  0  0  0  0  0  0  0  0  0  0  0
   -5.5755   19.6910  -34.0269 H   0  0  0  0  0  0  0  0  0  0  0  0
  1  2  1  0
  2  3  1  0
  3  4  2  0
  4  5  1  0
  5  6  2  0
  6  7  1  0
  7  8  1  0
  8  9  1  0
  9 10  1  0
 10 11  1  0
 11 12  2  0
 12 13  1  0
 13 14  2  0
 14 15  1  0
 15 16  2  0
 16 17  1  0
  6 18  1  0
 18 19  2  0
 19  3  1  0
 16 11  1  0
  1 20  1  0
  1 21  1  0
  1 22  1  0
  4 23  1  0
  5 24  1  0
  7 25  1  0
  7 26  1  0
  8 27  1  0
  9 28  1  0
  9 29  1  0
 10 30  1  0
 10 31  1  0
 12 32  1  0
 13 33  1  0
 14 34  1  0
 15 35  1  0
 18 36  1  0
 19 37  1  0
M  CHG  1  17  -1
M  END
>  <UniqueID>  (26) 
26

>  <SMILES>  (26) 
CSc1ccc(CNCCc2ccccc2[O-])cc1

>  <Energy>  (26) 
29.569482584495724

>  <Genealogy>  (26) 
CSc1ccc(CNCCc2ccccc2[O-])cc1 (protonated)
CSc1ccc(CNCCc2ccccc2[O-])cc1 (3D coordinates assigned)
CSc1ccc(CNCCc2ccccc2[O-])cc1 (optimized conformer: 29.569482584495724 kcal/mol)

>  <smiles>  (26) 
CSc1ccc(CNCCc2ccccc2O)cc1

>  <score_type>  (26) 
oracle

>  <origin>  (26) 
adgpu

>  <m_score__min__energy>  (26) 
-10.619999999999999

>  <m_primary>  (26) 
energy

$$$$
26:0
     RDKit          3D

 49 52  0  0  0  0  0  0  0  0999 V2000
   -7.9770   22.5000  -30.5980 C   0  0  0  0  0  0  0  0  0  0  0  0
   -6.5590   22.7790  -30.8010 N   0  0  0  0  0  0  0  0  0  0  0  0
   -5.8690   23.8580  -30.3630 C   0  0  0  0  0  0  0  0  0  0  0  0
   -6.4280   24.8720  -29.5920 O   0  0  0  0  0  0  0  0  0  0  0  0
   -4.5530   23.8090  -30.7960 C   0  0  0  0  0  0  0  0  0  0  0  0
   -3.5330   24.7630  -30.4750 N   0  0  0  0  0  0  0  0  0  0  0  0
   -2.4650   24.5500  -29.5410 C   0  0  0  0  0  0  0  0  0  0  0  0
   -1.9640   25.5470  -28.9560 O   0  0  0  0  0  0  0  0  0  0  0  0
   -1.9680   23.1930  -29.2210 C   0  0  0  0  0  0  0  0  0  0  0  0
   -0.6740   22.7960  -29.5960 C   0  0  0  0  0  0  0  0  0  0  0  0
   -0.1860   21.5370  -29.2310 C   0  0  0  0  0  0  0  0  0  0  0  0
   -0.9850   20.6600  -28.4890 C   0  0  0  0  0  0  0  0  0  0  0  0
   -0.3230   19.1160  -27.9630 S   0  0  0  0  0  0  0  0  0  0  0  0
   -1.1430   18.5620  -26.8290 O   0  0  0  0  0  0  0  0  0  0  0  0
    1.0810   19.3410  -27.4730 O   0  0  0  0  0  0  0  0  0  0  0  0
   -0.3110   17.9990  -29.3030 N   0  0  0  0  0  0  0  0  0  0  0  0
    0.7350   16.9790  -29.1010 C   0  0  0  0  0  0  0  0  0  0  0  0
    0.9900   16.1880  -30.4010 C   0  0  0  0  0  0  0  0  0  0  0  0
   -0.0610   16.3840  -31.3250 O   0  0  0  0  0  0  0  0  0  0  0  0
   -0.0900   17.7370  -31.7470 C   0  0  0  0  0  0  0  0  0  0  0  0
   -0.0820   18.7260  -30.5600 C   0  0  0  0  0  0  0  0  0  0  0  0
   -2.2900   21.0360  -28.1450 C   0  0  0  0  0  0  0  0  0  0  0  0
   -2.7850   22.2900  -28.5190 C   0  0  0  0  0  0  0  0  0  0  0  0
   -4.4500   22.6710  -31.5810 C   0  0  0  0  0  0  0  0  0  0  0  0
   -3.4050   22.1630  -32.3520 C   0  0  0  0  0  0  0  0  0  0  0  0
   -3.6300   20.9760  -33.0700 C   0  0  0  0  0  0  0  0  0  0  0  0
   -4.8910   20.3420  -33.0270 C   0  0  0  0  0  0  0  0  0  0  0  0
   -5.1760   18.7300  -34.0070 Br  0  0  0  0  0  0  0  0  0  0  0  0
   -5.9410   20.8930  -32.2700 C   0  0  0  0  0  0  0  0  0  0  0  0
   -5.6890   22.0660  -31.5520 C   0  0  0  0  0  0  0  0  0  0  0  0
   -8.1917   22.4578  -29.5200 H   0  0  0  0  0  0  0  0  0  0  0  0
   -8.5774   23.2972  -31.0605 H   0  0  0  0  0  0  0  0  0  0  0  0
   -8.2307   21.5347  -31.0605 H   0  0  0  0  0  0  0  0  0  0  0  0
   -6.2920   24.9000  -28.5880 H   0  0  0  0  0  0  0  0  0  0  0  0
   -0.0404   23.4794  -30.1804 H   0  0  0  0  0  0  0  0  0  0  0  0
    0.8292   21.2353  -29.5282 H   0  0  0  0  0  0  0  0  0  0  0  0
    1.6671   17.4750  -28.7923 H   0  0  0  0  0  0  0  0  0  0  0  0
    0.3974   16.2782  -28.3233 H   0  0  0  0  0  0  0  0  0  0  0  0
    1.9337   16.5297  -30.8512 H   0  0  0  0  0  0  0  0  0  0  0  0
    1.0469   15.1173  -30.1554 H   0  0  0  0  0  0  0  0  0  0  0  0
    0.7932   17.9304  -32.3735 H   0  0  0  0  0  0  0  0  0  0  0  0
   -1.0241   17.8932  -32.3066 H   0  0  0  0  0  0  0  0  0  0  0  0
    0.8924   19.2345  -30.5152 H   0  0  0  0  0  0  0  0  0  0  0  0
   -0.8818   19.4679  -30.7007 H   0  0  0  0  0  0  0  0  0  0  0  0
   -2.9283   20.3422  -27.5783 H   0  0  0  0  0  0  0  0  0  0  0  0
   -3.8174   22.5703  -28.2627 H   0  0  0  0  0  0  0  0  0  0  0  0
   -2.4331   22.6763  -32.3969 H   0  0  0  0  0  0  0  0  0  0  0  0
   -2.8184   20.5379  -33.6695 H   0  0  0  0  0  0  0  0  0  0  0  0
   -6.9313   20.4150  -32.2437 H   0  0  0  0  0  0  0  0  0  0  0  0
  1  2  1  0
  2  3  1  0
  3  4  1  0
  3  5  2  0
  5  6  1  0
  6  7  1  0
  7  8  2  0
  7  9  1  0
  9 10  2  0
 10 11  1  0
 11 12  2  0
 12 13  1  0
 13 14  2  0
 13 15  2  0
 13 16  1  0
 16 17  1  0
 17 18  1  0
 18 19  1  0
 19 20  1  0
 20 21  1  0
 12 22  1  0
 22 23  2  0
  5 24  1  0
 24 25  2  0
 25 26  1  0
 26 27  2  0
 27 28  1  0
 27 29  1  0
 29 30  2  0
 30  2  1  0
 23  9  1  0
 30 24  1  0
 21 16  1  0
  1 31  1  0
  1 32  1  0
  1 33  1  0
  4 34  1  0
 10 35  1  0
 11 36  1  0
 17 37  1  0
 17 38  1  0
 18 39  1  0
 18 40  1  0
 20 41  1  0
 20 42  1  0
 21 43  1  0
 21 44  1  0
 22 45  1  0
 23 46  1  0
 25 47  1  0
 26 48  1  0
 29 49  1  0
M  CHG  1   6  -1
M  END
>  <UniqueID>  (27) 
27

>  <SMILES>  (27) 
Cn1c(O)c([N-]C(=O)c2ccc(S(=O)(=O)N3CCOCC3)cc2)c2ccc(Br)cc21

>  <Energy>  (27) 
101.57130939376509

>  <Genealogy>  (27) 
Cn1c(O)c([N-]C(=O)c2ccc(S(=O)(=O)N3CCOCC3)cc2)c2ccc(Br)cc21 (protonated)
Cn1c(O)c([N-]C(=O)c2ccc(S(=O)(=O)N3CCOCC3)cc2)c2ccc(Br)cc21 (3D coordinates assigned)
Cn1c(O)c([N-]C(=O)c2ccc(S(=O)(=O)N3CCOCC3)cc2)c2ccc(Br)cc21 (nonaromatic ring conformer: 101.57130939376509 kcal/mol)

>  <smiles>  (27) 
Cn1c(O)c(NC(=O)c2ccc(S(=O)(=O)N3CCOCC3)cc2)c2ccc(Br)cc21

>  <score_type>  (27) 
oracle

>  <origin>  (27) 
adgpu

>  <m_score__min__energy>  (27) 
-13.470000000000001

>  <m_primary>  (27) 
energy

$$$$
27:0
     RDKit          3D

 46 48  0  0  0  0  0  0  0  0999 V2000
   -0.8220   21.8450  -26.9350 C   0  0  0  0  0  0  0  0  0  0  0  0
   -1.9120   22.4860  -27.7430 C   0  0  0  0  0  0  0  0  0  0  0  0
   -3.2410   22.0570  -27.6070 C   0  0  0  0  0  0  0  0  0  0  0  0
   -4.2610   22.6720  -28.3390 C   0  0  0  0  0  0  0  0  0  0  0  0
   -3.9650   23.7320  -29.2060 C   0  0  0  0  0  0  0  0  0  0  0  0
   -5.2340   24.5020  -30.1540 S   0  0  0  0  0  0  0  0  0  0  0  0
   -6.0820   25.3810  -29.2760 O   0  0  0  0  0  0  0  0  0  0  0  0
   -4.6100   25.3600  -31.2190 O   0  0  0  0  0  0  0  0  0  0  0  0
   -6.2430   23.2690  -30.8450 N   0  0  0  0  0  0  0  0  0  0  0  0
   -7.5490   23.2430  -30.6400 N   0  0  0  0  0  0  0  0  0  0  0  0
   -8.0380   22.1360  -31.2280 C   0  0  0  0  0  0  0  0  0  0  0  0
   -9.4960   21.8050  -31.2360 C   0  0  0  0  0  0  0  0  0  0  0  0
   -7.0000   21.4160  -31.8110 C   0  0  0  0  0  0  0  0  0  0  0  0
   -7.1230   19.8600  -32.6620 S   0  0  0  0  0  0  0  0  0  0  0  0
   -8.4080   19.1890  -32.2680 O   0  0  0  0  0  0  0  0  0  0  0  0
   -7.1880   20.1000  -34.1440 O   0  0  0  0  0  0  0  0  0  0  0  0
   -5.7900   18.7700  -32.3170 N   0  0  0  0  0  0  0  0  0  0  0  0
   -6.2560   17.4140  -32.0200 C   0  0  0  0  0  0  0  0  0  0  0  0
   -6.1880   16.5960  -33.3020 C   0  0  0  0  0  0  0  0  0  0  0  0
   -5.3260   17.4020  -34.2560 C   0  0  0  0  0  0  0  0  0  0  0  0
   -4.8960   18.6330  -33.4690 C   0  0  0  0  0  0  0  0  0  0  0  0
   -5.8670   22.1890  -31.5660 C   0  0  0  0  0  0  0  0  0  0  0  0
   -4.4640   21.9350  -32.0370 C   0  0  0  0  0  0  0  0  0  0  0  0
   -2.6430   24.1760  -29.3290 C   0  0  0  0  0  0  0  0  0  0  0  0
   -1.6200   23.5620  -28.6000 C   0  0  0  0  0  0  0  0  0  0  0  0
   -0.3470   24.0140  -28.7300 F   0  0  0  0  0  0  0  0  0  0  0  0
   -1.0370   21.9714  -25.8637 H   0  0  0  0  0  0  0  0  0  0  0  0
   -0.7703   20.7726  -27.1745 H   0  0  0  0  0  0  0  0  0  0  0  0
    0.1403   22.3210  -27.1745 H   0  0  0  0  0  0  0  0  0  0  0  0
   -3.4817   21.2320  -26.9204 H   0  0  0  0  0  0  0  0  0  0  0  0
   -5.2988   22.3227  -28.2340 H   0  0  0  0  0  0  0  0  0  0  0  0
   -9.8590   21.7226  -30.2009 H   0  0  0  0  0  0  0  0  0  0  0  0
  -10.0497   22.6003  -31.7565 H   0  0  0  0  0  0  0  0  0  0  0  0
   -9.6520   20.8486  -31.7565 H   0  0  0  0  0  0  0  0  0  0  0  0
   -5.6121   16.9586  -31.2532 H   0  0  0  0  0  0  0  0  0  0  0  0
   -7.2884   17.4415  -31.6413 H   0  0  0  0  0  0  0  0  0  0  0  0
   -5.7307   15.6147  -33.1074 H   0  0  0  0  0  0  0  0  0  0  0  0
   -7.1888   16.4080  -33.7181 H   0  0  0  0  0  0  0  0  0  0  0  0
   -4.4475   16.8182  -34.5679 H   0  0  0  0  0  0  0  0  0  0  0  0
   -5.8714   17.6717  -35.1724 H   0  0  0  0  0  0  0  0  0  0  0  0
   -3.8586   18.5116  -33.1239 H   0  0  0  0  0  0  0  0  0  0  0  0
   -4.9507   19.5300  -34.1034 H   0  0  0  0  0  0  0  0  0  0  0  0
   -3.8013   21.8150  -31.1673 H   0  0  0  0  0  0  0  0  0  0  0  0
   -4.4415   21.0182  -32.6444 H   0  0  0  0  0  0  0  0  0  0  0  0
   -4.1215   22.7857  -32.6444 H   0  0  0  0  0  0  0  0  0  0  0  0
   -2.4077   25.0128  -30.0031 H   0  0  0  0  0  0  0  0  0  0  0  0
  1  2  1  0
  2  3  2  0
  3  4  1  0
  4  5  2  0
  5  6  1  0
  6  7  2  0
  6  8  2  0
  6  9  1  0
  9 10  1  0
 10 11  2  0
 11 12  1  0
 11 13  1  0
 13 14  1  0
 14 15  2  0
 14 16  2  0
 14 17  1  0
 17 18  1  0
 18 19  1  0
 19 20  1  0
 20 21  1  0
 13 22  2  0
 22 23  1  0
  5 24  1  0
 24 25  2  0
 25 26  1  0
 25  2  1  0
 22  9  1  0
 21 17  1  0
  1 27  1  0
  1 28  1  0
  1 29  1  0
  3 30  1  0
  4 31  1  0
 12 32  1  0
 12 33  1  0
 12 34  1  0
 18 35  1  0
 18 36  1  0
 19 37  1  0
 19 38  1  0
 20 39  1  0
 20 40  1  0
 21 41  1  0
 21 42  1  0
 23 43  1  0
 23 44  1  0
 23 45  1  0
 24 46  1  0
M  END
>  <UniqueID>  (28) 
28

>  <SMILES>  (28) 
Cc1ccc(S(=O)(=O)n2nc(C)c(S(=O)(=O)N3CCCC3)c2C)cc1F

>  <Energy>  (28) 
80.03548130831861

>  <Genealogy>  (28) 
Cc1ccc(S(=O)(=O)n2nc(C)c(S(=O)(=O)N3CCCC3)c2C)cc1F (3D coordinates assigned)
Cc1ccc(S(=O)(=O)n2nc(C)c(S(=O)(=O)N3CCCC3)c2C)cc1F (nonaromatic ring conformer: 80.03548130831861 kcal/mol)

>  <smiles>  (28) 
Cc1ccc(S(=O)(=O)n2nc(C)c(S(=O)(=O)N3CCCC3)c2C)cc1F

>  <score_type>  (28) 
oracle

>  <origin>  (28) 
adgpu

>  <m_score__min__energy>  (28) 
-9.5899999999999999

>  <m_primary>  (28) 
energy

$$$$
28:0
     RDKit          3D

 53 56  0  0  0  0  0  0  0  0999 V2000
    3.4831   17.2720  -30.3334 H   0  0  0  0  0  0  0  0  0  0  0  0
    2.5690   17.2470  -29.7220 C   0  0  0  0  0  0  0  0  0  0  0  0
    2.5120   16.2570  -28.7550 C   0  0  0  0  0  0  0  0  0  0  0  0
    3.3072   15.4984  -28.8011 H   0  0  0  0  0  0  0  0  0  0  0  0
    1.5800   16.0950  -27.7310 C   0  0  0  0  0  0  0  0  0  0  0  0
    1.7200   14.8640  -26.9160 C   0  0  0  0  0  0  0  0  0  0  0  0
    0.7050   14.0090  -26.6930 N   0  0  0  0  0  0  0  0  0  0  0  0
    1.2580   13.0370  -25.9370 C   0  0  0  0  0  0  0  0  0  0  0  0
    0.5010   11.8360  -25.4820 C   0  0  0  0  0  0  0  0  0  0  0  0
    0.4836   11.8084  -24.3825 H   0  0  0  0  0  0  0  0  0  0  0  0
   -0.5294   11.8856  -25.8639 H   0  0  0  0  0  0  0  0  0  0  0  0
    0.9902   10.9278  -25.8639 H   0  0  0  0  0  0  0  0  0  0  0  0
    2.5740   13.2110  -25.6950 N   0  0  0  0  0  0  0  0  0  0  0  0
    2.8660   14.3660  -26.3200 C   0  0  0  0  0  0  0  0  0  0  0  0
    4.2400   14.9580  -26.3490 C   0  0  0  0  0  0  0  0  0  0  0  0
    4.5951   15.1110  -25.3192 H   0  0  0  0  0  0  0  0  0  0  0  0
    4.9228   14.2742  -26.8746 H   0  0  0  0  0  0  0  0  0  0  0  0
    4.2121   15.9239  -26.8746 H   0  0  0  0  0  0  0  0  0  0  0  0
    0.6090   17.0250  -27.3400 C   0  0  0  0  0  0  0  0  0  0  0  0
    0.0407   16.7489  -26.4396 H   0  0  0  0  0  0  0  0  0  0  0  0
    0.2460   18.2500  -27.9120 C   0  0  0  0  0  0  0  0  0  0  0  0
   -0.4610   19.0200  -27.1220 N   0  0  0  0  0  0  0  0  0  0  0  0
   -0.7930   20.4100  -27.2560 C   0  0  0  0  0  0  0  0  0  0  0  0
   -2.1210   20.8180  -27.0830 C   0  0  0  0  0  0  0  0  0  0  0  0
   -2.9041   20.0686  -26.8959 H   0  0  0  0  0  0  0  0  0  0  0  0
   -2.4560   22.1730  -27.1470 C   0  0  0  0  0  0  0  0  0  0  0  0
   -3.5048   22.4843  -27.0330 H   0  0  0  0  0  0  0  0  0  0  0  0
   -1.4600   23.1370  -27.3560 C   0  0  0  0  0  0  0  0  0  0  0  0
   -1.8890   24.8440  -27.4170 S   0  0  0  0  0  0  0  0  0  0  0  0
   -0.6920   25.6610  -27.0220 O   0  0  0  0  0  0  0  0  0  0  0  0
   -3.0190   25.1420  -26.4700 O   0  0  0  0  0  0  0  0  0  0  0  0
   -2.3690   25.2770  -29.0270 N   0  0  0  0  0  0  0  0  0  0  0  0
   -3.4880   24.9170  -29.5800 C   0  0  0  0  0  0  0  0  0  0  0  0
   -3.8250   25.2620  -30.8360 N   0  0  0  0  0  0  0  0  0  0  0  0
   -4.9920   24.7320  -31.0640 O   0  0  0  0  0  0  0  0  0  0  0  0
   -5.4190   24.0590  -30.0180 C   0  0  0  0  0  0  0  0  0  0  0  0
   -6.7300   23.3560  -29.9450 C   0  0  0  0  0  0  0  0  0  0  0  0
   -7.0080   23.2070  -28.8912 H   0  0  0  0  0  0  0  0  0  0  0  0
   -7.4996   23.9624  -30.4450 H   0  0  0  0  0  0  0  0  0  0  0  0
   -6.6507   22.3794  -30.4450 H   0  0  0  0  0  0  0  0  0  0  0  0
   -4.4840   24.1450  -29.0080 C   0  0  0  0  0  0  0  0  0  0  0  0
   -4.5207   23.7086  -27.9989 H   0  0  0  0  0  0  0  0  0  0  0  0
   -0.1240   22.7340  -27.4970 C   0  0  0  0  0  0  0  0  0  0  0  0
    0.6622   23.4859  -27.6598 H   0  0  0  0  0  0  0  0  0  0  0  0
    0.2100   21.3780  -27.4310 C   0  0  0  0  0  0  0  0  0  0  0  0
    1.2619   21.0679  -27.5164 H   0  0  0  0  0  0  0  0  0  0  0  0
    0.5010   18.6030  -29.2670 C   0  0  0  0  0  0  0  0  0  0  0  0
   -0.4910   19.4580  -30.0310 C   0  0  0  0  0  0  0  0  0  0  0  0
   -1.1267   20.0059  -29.3200 H   0  0  0  0  0  0  0  0  0  0  0  0
    0.0534   20.1745  -30.6637 H   0  0  0  0  0  0  0  0  0  0  0  0
   -1.1193   18.8139  -30.6637 H   0  0  0  0  0  0  0  0  0  0  0  0
    1.6160   18.2100  -30.0140 C   0  0  0  0  0  0  0  0  0  0  0  0
    1.7564   18.7398  -30.9677 H   0  0  0  0  0  0  0  0  0  0  0  0
  1  2  1  0
  2  3  2  0
  3  4  1  0
  3  5  1  0
  5  6  1  0
  6  7  1  0
  7  8  2  0
  8  9  1  0
  9 10  1  0
  9 11  1  0
  9 12  1  0
  8 13  1  0
 13 14  1  0
 14 15  1  0
 15 16  1  0
 15 17  1  0
 15 18  1  0
  5 19  2  0
 19 20  1  0
 19 21  1  0
 21 22  2  0
 22 23  1  0
 23 24  2  0
 24 25  1  0
 24 26  1  0
 26 27  1  0
 26 28  2  0
 28 29  1  0
 29 30  2  0
 29 31  2  0
 29 32  1  0
 32 33  2  3
 33 34  1  0
 34 35  1  0
 35 36  1  0
 36 37  1  0
 37 38  1  0
 37 39  1  0
 37 40  1  0
 36 41  2  0
 41 42  1  0
 28 43  1  0
 43 44  1  0
 43 45  2  0
 45 46  1  0
 21 47  1  0
 47 48  1  0
 48 49  1  0
 48 50  1  0
 48 51  1  0
 47 52  2  0
 52 53  1  0
 52  2  1  0
 14  6  2  0
 45 23  1  0
 41 33  1  0
M  CHG  2  13  -1  34  -1
M  END
>  <UniqueID>  (29) 
29

>  <SMILES>  (29) 
Cc1nc(-c2cccc(C)/c(=N\c3ccc(S(=O)(=O)N=c4cc(C)o[n-]4)cc3)c2)c(C)[n-]1

>  <Energy>  (29) 
162.21917462256116

>  <Genealogy>  (29) 
Cc1nc(-c2cccc(C)c(=Nc3ccc(S(=O)(=O)N=c4cc(C)o[n-]4)cc3)c2)c(C)[n-]1 (protonated)
Cc1nc(-c2cccc(C)/c(=N\c3ccc(S(=O)(=O)N=c4cc(C)o[n-]4)cc3)c2)c(C)[n-]1 (cis-trans isomerization)
Cc1nc(-c2cccc(C)/c(=N\c3ccc(S(=O)(=O)N=c4cc(C)o[n-]4)cc3)c2)c(C)[n-]1 (3D coordinates assigned)
Cc1nc(-c2cccc(C)/c(=N\c3ccc(S(=O)(=O)N=c4cc(C)o[n-]4)cc3)c2)c(C)[n-]1 (optimized conformer: 162.21917462256116 kcal/mol)

>  <smiles>  (29) 
Cc1nc(-c2cccc(C)c(=Nc3ccc(S(=O)(=O)N=c4cc(C)o[nH]4)cc3)c2)c(C)[nH]1

>  <score_type>  (29) 
oracle

>  <origin>  (29) 
adgpu

>  <m_score__min__energy>  (29) 
-10.91

>  <m_primary>  (29) 
energy

$$$$
29:0
     RDKit          3D

 51 54  0  0  0  0  0  0  0  0999 V2000
   -3.7190   22.5450  -31.8930 C   0  0  0  0  0  0  0  0  0  0  0  0
   -5.2140   22.4760  -31.7480 C   0  0  0  0  0  0  0  0  0  0  0  0
   -6.0250   23.4220  -31.0890 C   0  0  0  0  0  0  0  0  0  0  0  0
   -5.5260   24.8230  -30.1390 S   0  0  0  0  0  0  0  0  0  0  0  0
   -6.7410   25.6690  -29.8800 O   0  0  0  0  0  0  0  0  0  0  0  0
   -4.5130   25.6700  -30.8550 O   0  0  0  0  0  0  0  0  0  0  0  0
   -4.8950   24.2780  -28.6200 N   0  0  0  0  0  0  0  0  0  0  0  0
   -3.7240   23.4550  -28.5680 C   0  0  0  0  0  0  0  0  0  0  0  0
   -3.8170   22.1190  -28.1520 C   0  0  0  0  0  0  0  0  0  0  0  0
   -2.6710   21.3230  -28.0730 C   0  0  0  0  0  0  0  0  0  0  0  0
   -1.4210   21.8560  -28.4130 C   0  0  0  0  0  0  0  0  0  0  0  0
   -0.2390   21.0410  -28.3190 C   0  0  0  0  0  0  0  0  0  0  0  0
    0.7120   20.3860  -28.2410 N   0  0  0  0  0  0  0  0  0  0  0  0
   -1.3260   23.1850  -28.8440 C   0  0  0  0  0  0  0  0  0  0  0  0
   -2.4730   23.9820  -28.9260 C   0  0  0  0  0  0  0  0  0  0  0  0
   -2.3600   25.3020  -29.3470 O   0  0  0  0  0  0  0  0  0  0  0  0
   -7.6300   22.8940  -31.1180 S   0  0  0  0  0  0  0  0  0  0  0  0
   -7.3210   21.4790  -31.9570 C   0  0  0  0  0  0  0  0  0  0  0  0
   -8.2220   20.4760  -32.3020 C   0  0  0  0  0  0  0  0  0  0  0  0
   -7.7250   19.3230  -32.9240 C   0  0  0  0  0  0  0  0  0  0  0  0
   -6.3470   19.1970  -33.1970 C   0  0  0  0  0  0  0  0  0  0  0  0
   -5.7230   17.6920  -33.8690 S   0  0  0  0  0  0  0  0  0  0  0  0
   -6.6720   16.5790  -33.5260 O   0  0  0  0  0  0  0  0  0  0  0  0
   -5.6390   17.7950  -35.3670 O   0  0  0  0  0  0  0  0  0  0  0  0
   -4.1470   17.3100  -33.2300 N   0  0  0  0  0  0  0  0  0  0  0  0
   -3.0700   17.7630  -34.1160 C   0  0  0  0  0  0  0  0  0  0  0  0
   -2.2730   18.8870  -33.5030 C   0  0  0  0  0  0  0  0  0  0  0  0
   -2.1280   20.1100  -34.1810 C   0  0  0  0  0  0  0  0  0  0  0  0
   -1.3860   21.1480  -33.6110 C   0  0  0  0  0  0  0  0  0  0  0  0
   -0.8020   20.9820  -32.3520 C   0  0  0  0  0  0  0  0  0  0  0  0
   -0.9610   19.7800  -31.6610 C   0  0  0  0  0  0  0  0  0  0  0  0
   -1.6990   18.7360  -32.2300 C   0  0  0  0  0  0  0  0  0  0  0  0
   -5.4640   20.2400  -32.8620 C   0  0  0  0  0  0  0  0  0  0  0  0
   -5.9640   21.3830  -32.2250 C   0  0  0  0  0  0  0  0  0  0  0  0
   -3.2545   22.5664  -30.8961 H   0  0  0  0  0  0  0  0  0  0  0  0
   -3.3630   21.6623  -32.4445 H   0  0  0  0  0  0  0  0  0  0  0  0
   -3.4458   23.4567  -32.4445 H   0  0  0  0  0  0  0  0  0  0  0  0
   -5.5550   24.2610  -27.8110 H   0  0  0  0  0  0  0  0  0  0  0  0
   -4.7969   21.6954  -27.8865 H   0  0  0  0  0  0  0  0  0  0  0  0
   -2.7507   20.2766  -27.7434 H   0  0  0  0  0  0  0  0  0  0  0  0
   -0.3466   23.6036  -29.1189 H   0  0  0  0  0  0  0  0  0  0  0  0
   -9.2962   20.5855  -32.0919 H   0  0  0  0  0  0  0  0  0  0  0  0
   -8.4137   18.5112  -33.2011 H   0  0  0  0  0  0  0  0  0  0  0  0
   -2.3957   16.9175  -34.3173 H   0  0  0  0  0  0  0  0  0  0  0  0
   -3.5266   18.1358  -35.0447 H   0  0  0  0  0  0  0  0  0  0  0  0
   -2.6006   20.2505  -35.1643 H   0  0  0  0  0  0  0  0  0  0  0  0
   -1.2614   22.0967  -34.1537 H   0  0  0  0  0  0  0  0  0  0  0  0
   -0.2167   21.7994  -31.9055 H   0  0  0  0  0  0  0  0  0  0  0  0
   -0.5056   19.6530  -30.6678 H   0  0  0  0  0  0  0  0  0  0  0  0
   -1.8301   17.7935  -31.6782 H   0  0  0  0  0  0  0  0  0  0  0  0
   -4.3926   20.1587  -33.0978 H   0  0  0  0  0  0  0  0  0  0  0  0
  1  2  1  0
  2  3  2  0
  3  4  1  0
  4  5  2  0
  4  6  2  0
  4  7  1  0
  7  8  1  0
  8  9  2  0
  9 10  1  0
 10 11  2  0
 11 12  1  0
 12 13  3  0
 11 14  1  0
 14 15  2  0
 15 16  1  0
  3 17  1  0
 17 18  1  0
 18 19  2  0
 19 20  1  0
 20 21  2  0
 21 22  1  0
 22 23  2  0
 22 24  2  0
 22 25  1  0
 25 26  1  0
 26 27  1  0
 27 28  2  0
 28 29  1  0
 29 30  2  0
 30 31  1  0
 31 32  2  0
 21 33  1  0
 33 34  2  0
 34  2  1  0
 15  8  1  0
 34 18  1  0
 32 27  1  0
  1 35  1  0
  1 36  1  0
  1 37  1  0
  7 38  1  0
  9 39  1  0
 10 40  1  0
 14 41  1  0
 19 42  1  0
 20 43  1  0
 26 44  1  0
 26 45  1  0
 28 46  1  0
 29 47  1  0
 30 48  1  0
 31 49  1  0
 32 50  1  0
 33 51  1  0
M  CHG  2  16  -1  25  -1
M  END
>  <UniqueID>  (30) 
30

>  <SMILES>  (30) 
Cc1c(S(=O)(=O)Nc2ccc(C#N)cc2[O-])sc2ccc(S(=O)(=O)[N-]Cc3ccccc3)cc12

>  <Energy>  (30) 
87.72951623912277

>  <Genealogy>  (30) 
Cc1c(S(=O)(=O)Nc2ccc(C#N)cc2[O-])sc2ccc(S(=O)(=O)[N-]Cc3ccccc3)cc12 (protonated)
Cc1c(S(=O)(=O)Nc2ccc(C#N)cc2[O-])sc2ccc(S(=O)(=O)[N-]Cc3ccccc3)cc12 (3D coordinates assigned)
Cc1c(S(=O)(=O)Nc2ccc(C#N)cc2[O-])sc2ccc(S(=O)(=O)[N-]Cc3ccccc3)cc12 (optimized conformer: 87.72951623912277 kcal/mol)

>  <smiles>  (30) 
Cc1c(S(=O)(=O)Nc2ccc(C#N)cc2O)sc2ccc(S(=O)(=O)NCc3ccccc3)cc12

>  <score_type>  (30) 
oracle

>  <origin>  (30) 
adgpu

>  <m_score__min__energy>  (30) 
-14.84

>  <m_primary>  (30) 
energy

$$$$
30:0
     RDKit          3D

 50 53  0  0  0  0  0  0  0  0999 V2000
   -7.5340   23.1790  -31.3010 C   0  0  0  0  0  0  0  0  0  0  0  0
   -6.2170   23.7070  -30.8180 C   0  0  0  0  0  0  0  0  0  0  0  0
   -5.8800   25.0560  -31.0060 C   0  0  0  0  0  0  0  0  0  0  0  0
   -4.6410   25.5390  -30.5780 C   0  0  0  0  0  0  0  0  0  0  0  0
   -3.7240   24.6810  -29.9620 C   0  0  0  0  0  0  0  0  0  0  0  0
   -2.4910   25.1790  -29.5540 O   0  0  0  0  0  0  0  0  0  0  0  0
   -4.0500   23.3260  -29.7710 C   0  0  0  0  0  0  0  0  0  0  0  0
   -3.1110   22.4040  -29.0980 C   0  0  0  0  0  0  0  0  0  0  0  0
   -3.3310   22.0530  -27.7580 C   0  0  0  0  0  0  0  0  0  0  0  0
   -2.4450   21.2000  -27.1020 C   0  0  0  0  0  0  0  0  0  0  0  0
   -1.3350   20.7090  -27.7870 C   0  0  0  0  0  0  0  0  0  0  0  0
   -1.1210   21.0660  -29.0800 N   0  0  0  0  0  0  0  0  0  0  0  0
   -1.9680   21.8930  -29.7510 C   0  0  0  0  0  0  0  0  0  0  0  0
   -1.5600   22.3410  -31.4430 S   0  0  0  0  0  0  0  0  0  0  0  0
   -2.8440   21.2960  -32.1240 C   0  0  0  0  0  0  0  0  0  0  0  0
   -3.8230   21.8330  -32.9650 C   0  0  0  0  0  0  0  0  0  0  0  0
   -4.8230   20.9990  -33.4680 C   0  0  0  0  0  0  0  0  0  0  0  0
   -4.8390   19.6420  -33.1240 C   0  0  0  0  0  0  0  0  0  0  0  0
   -6.0780   18.5640  -33.7580 S   0  0  0  0  0  0  0  0  0  0  0  0
   -5.7490   17.1410  -33.3980 O   0  0  0  0  0  0  0  0  0  0  0  0
   -6.1130   18.6840  -35.2570 O   0  0  0  0  0  0  0  0  0  0  0  0
   -7.6300   19.0150  -33.1000 N   0  0  0  0  0  0  0  0  0  0  0  0
   -8.1870   17.9660  -32.2420 C   0  0  0  0  0  0  0  0  0  0  0  0
   -9.0700   18.6610  -31.2120 C   0  0  0  0  0  0  0  0  0  0  0  0
   -8.6910   20.1340  -31.2750 C   0  0  0  0  0  0  0  0  0  0  0  0
   -7.5370   20.2100  -32.2610 C   0  0  0  0  0  0  0  0  0  0  0  0
   -3.8310   19.1420  -32.2920 C   0  0  0  0  0  0  0  0  0  0  0  0
   -2.8670   19.9720  -31.8150 N   0  0  0  0  0  0  0  0  0  0  0  0
   -5.2870   22.8420  -30.2230 C   0  0  0  0  0  0  0  0  0  0  0  0
   -8.1664   22.9255  -30.4374 H   0  0  0  0  0  0  0  0  0  0  0  0
   -8.0353   23.9457  -31.9100 H   0  0  0  0  0  0  0  0  0  0  0  0
   -7.3669   22.2784  -31.9100 H   0  0  0  0  0  0  0  0  0  0  0  0
   -6.5945   25.7362  -31.4925 H   0  0  0  0  0  0  0  0  0  0  0  0
   -4.3855   26.5986  -30.7261 H   0  0  0  0  0  0  0  0  0  0  0  0
   -4.2054   22.4521  -27.2231 H   0  0  0  0  0  0  0  0  0  0  0  0
   -2.6202   20.9171  -26.0536 H   0  0  0  0  0  0  0  0  0  0  0  0
   -0.6317   20.0319  -27.2802 H   0  0  0  0  0  0  0  0  0  0  0  0
   -3.8056   22.9011  -33.2275 H   0  0  0  0  0  0  0  0  0  0  0  0
   -5.5975   21.4075  -34.1338 H   0  0  0  0  0  0  0  0  0  0  0  0
   -8.2890   19.2000  -33.8940 H   0  0  0  0  0  0  0  0  0  0  0  0
   -8.7854   17.2644  -32.8418 H   0  0  0  0  0  0  0  0  0  0  0  0
   -7.3872   17.3912  -31.7521 H   0  0  0  0  0  0  0  0  0  0  0  0
  -10.1323   18.5268  -31.4639 H   0  0  0  0  0  0  0  0  0  0  0  0
   -8.9235   18.2458  -30.2040 H   0  0  0  0  0  0  0  0  0  0  0  0
   -9.5409   20.7356  -31.6296 H   0  0  0  0  0  0  0  0  0  0  0  0
   -8.4122   20.5281  -30.2866 H   0  0  0  0  0  0  0  0  0  0  0  0
   -7.6237   21.1160  -32.8787 H   0  0  0  0  0  0  0  0  0  0  0  0
   -6.5697   20.2563  -31.7394 H   0  0  0  0  0  0  0  0  0  0  0  0
   -3.8192   18.0753  -32.0238 H   0  0  0  0  0  0  0  0  0  0  0  0
   -5.5295   21.7750  -30.1097 H   0  0  0  0  0  0  0  0  0  0  0  0
  1  2  1  0
  2  3  2  0
  3  4  1  0
  4  5  2  0
  5  6  1  0
  5  7  1  0
  7  8  1  0
  8  9  2  0
  9 10  1  0
 10 11  2  0
 11 12  1  0
 12 13  2  0
 13 14  1  0
 14 15  1  0
 15 16  2  0
 16 17  1  0
 17 18  2  0
 18 19  1  0
 19 20  2  0
 19 21  2  0
 19 22  1  0
 22 23  1  0
 23 24  1  0
 24 25  1  0
 25 26  1  0
 18 27  1  0
 27 28  2  0
  7 29  2  0
 29  2  1  0
 13  8  1  0
 28 15  1  0
 26 22  1  0
  1 30  1  0
  1 31  1  0
  1 32  1  0
  3 33  1  0
  4 34  1  0
  9 35  1  0
 10 36  1  0
 11 37  1  0
 16 38  1  0
 17 39  1  0
 22 40  1  0
 23 41  1  0
 23 42  1  0
 24 43  1  0
 24 44  1  0
 25 45  1  0
 25 46  1  0
 26 47  1  0
 26 48  1  0
 27 49  1  0
 29 50  1  0
M  CHG  2   6  -1  22   1
M  END
>  <UniqueID>  (31) 
31

>  <SMILES>  (31) 
Cc1ccc([O-])c(-c2cccnc2Sc2ccc(S(=O)(=O)[NH+]3CCCC3)cn2)c1

>  <Energy>  (31) 
57.142101180532286

>  <Genealogy>  (31) 
Cc1ccc([O-])c(-c2cccnc2Sc2ccc(S(=O)(=O)[NH+]3CCCC3)cn2)c1 (protonated)
Cc1ccc([O-])c(-c2cccnc2Sc2ccc(S(=O)(=O)[NH+]3CCCC3)cn2)c1 (3D coordinates assigned)
Cc1ccc([O-])c(-c2cccnc2Sc2ccc(S(=O)(=O)[NH+]3CCCC3)cn2)c1 (nonaromatic ring conformer: 57.142101180532286 kcal/mol)

>  <smiles>  (31) 
Cc1ccc(O)c(-c2cccnc2Sc2ccc(S(=O)(=O)N3CCCC3)cn2)c1

>  <score_type>  (31) 
oracle

>  <origin>  (31) 
adgpu

>  <m_score__min__energy>  (31) 
-12.550000000000001

>  <m_primary>  (31) 
energy

$$$$
31:0
     RDKit          3D

 40 42  0  0  0  0  0  0  0  0999 V2000
   -6.9070   14.5470  -34.2620 C   0  0  0  0  0  0  0  0  0  0  0  0
   -5.9060   15.6620  -34.2150 C   0  0  0  0  0  0  0  0  0  0  0  0
   -4.5720   15.4640  -34.5120 C   0  0  0  0  0  0  0  0  0  0  0  0
   -3.7220   16.5530  -34.4410 C   0  0  0  0  0  0  0  0  0  0  0  0
   -4.1850   17.8210  -34.0820 C   0  0  0  0  0  0  0  0  0  0  0  0
   -5.5020   18.0190  -33.7890 C   0  0  0  0  0  0  0  0  0  0  0  0
   -6.0870   19.2910  -33.4050 C   0  0  0  0  0  0  0  0  0  0  0  0
   -6.7750   19.9930  -34.2040 O   0  0  0  0  0  0  0  0  0  0  0  0
   -5.9180   19.8260  -32.0950 N   0  0  0  0  0  0  0  0  0  0  0  0
   -6.5530   21.0970  -31.8560 C   0  0  0  0  0  0  0  0  0  0  0  0
   -7.9340   21.1590  -31.9130 C   0  0  0  0  0  0  0  0  0  0  0  0
   -8.5580   22.3770  -31.6850 C   0  0  0  0  0  0  0  0  0  0  0  0
   -7.8040   23.4920  -31.4100 C   0  0  0  0  0  0  0  0  0  0  0  0
   -6.4300   23.4200  -31.3560 C   0  0  0  0  0  0  0  0  0  0  0  0
   -5.5030   24.9190  -30.9900 S   0  0  0  0  0  0  0  0  0  0  0  0
   -4.4370   24.5870  -29.5970 C   0  0  0  0  0  0  0  0  0  0  0  0
   -3.1220   24.9010  -29.7430 N   0  0  0  0  0  0  0  0  0  0  0  0
   -2.2360   24.6860  -28.7440 C   0  0  0  0  0  0  0  0  0  0  0  0
   -1.0070   25.0130  -28.9640 N   0  0  0  0  0  0  0  0  0  0  0  0
   -2.6850   24.1420  -27.5700 C   0  0  0  0  0  0  0  0  0  0  0  0
   -4.0170   23.8410  -27.4670 C   0  0  0  0  0  0  0  0  0  0  0  0
   -4.9140   24.0480  -28.4520 N   0  0  0  0  0  0  0  0  0  0  0  0
   -5.7870   22.2210  -31.5780 C   0  0  0  0  0  0  0  0  0  0  0  0
   -6.3450   16.9210  -33.8630 C   0  0  0  0  0  0  0  0  0  0  0  0
   -7.1735   14.2501  -33.2369 H   0  0  0  0  0  0  0  0  0  0  0  0
   -7.8093   14.8864  -34.7918 H   0  0  0  0  0  0  0  0  0  0  0  0
   -6.4726   13.6864  -34.7918 H   0  0  0  0  0  0  0  0  0  0  0  0
   -4.1965   14.4700  -34.7965 H   0  0  0  0  0  0  0  0  0  0  0  0
   -2.6554   16.4171  -34.6729 H   0  0  0  0  0  0  0  0  0  0  0  0
   -3.4822   18.6659  -34.0353 H   0  0  0  0  0  0  0  0  0  0  0  0
   -5.3740   19.3290  -31.3710 H   0  0  0  0  0  0  0  0  0  0  0  0
   -8.5264   20.2591  -32.1350 H   0  0  0  0  0  0  0  0  0  0  0  0
   -9.6549   22.4498  -31.7244 H   0  0  0  0  0  0  0  0  0  0  0  0
   -8.3045   24.4550  -31.2306 H   0  0  0  0  0  0  0  0  0  0  0  0
   -0.2550   24.8790  -28.2410 H   0  0  0  0  0  0  0  0  0  0  0  0
   -1.9957   23.9523  -26.7340 H   0  0  0  0  0  0  0  0  0  0  0  0
   -4.3767   23.4040  -26.5238 H   0  0  0  0  0  0  0  0  0  0  0  0
   -5.9250   23.8190  -28.3720 H   0  0  0  0  0  0  0  0  0  0  0  0
   -4.6897   22.1562  -31.5358 H   0  0  0  0  0  0  0  0  0  0  0  0
   -7.4111   17.0601  -33.6307 H   0  0  0  0  0  0  0  0  0  0  0  0
  1  2  1  0
  2  3  2  0
  3  4  1  0
  4  5  2  0
  5  6  1  0
  6  7  1  0
  7  8  2  0
  7  9  1  0
  9 10  1  0
 10 11  2  0
 11 12  1  0
 12 13  2  0
 13 14  1  0
 14 15  1  0
 15 16  1  0
 16 17  2  0
 17 18  1  0
 18 19  2  3
 18 20  1  0
 20 21  2  0
 21 22  1  0
 14 23  2  0
  6 24  2  0
 24  2  1  0
 23 10  1  0
 22 16  1  0
  1 25  1  0
  1 26  1  0
  1 27  1  0
  3 28  1  0
  4 29  1  0
  5 30  1  0
  9 31  1  0
 11 32  1  0
 12 33  1  0
 13 34  1  0
 19 35  1  0
 20 36  1  0
 21 37  1  0
 22 38  1  0
 23 39  1  0
 24 40  1  0
M  END
>  <smiles>  (32) 
Cc1cccc(C(=O)Nc2cccc(Sc3nc(=N)cc[nH]3)c2)c1

>  <score_type>  (32) 
oracle

>  <origin>  (32) 
adgpu

>  <m_score__min__energy>  (32) 
-8.6500000000000004

>  <m_primary>  (32) 
energy

$$$$
32:0
     RDKit          3D

 59 62  0  0  0  0  0  0  0  0999 V2000
   -6.8270   19.7030  -33.2300 C   0  0  0  0  0  0  0  0  0  0  0  0
   -6.4200   20.9790  -32.5470 C   0  0  0  0  0  0  0  0  0  0  0  0
   -7.3710   21.7470  -31.8630 C   0  0  0  0  0  0  0  0  0  0  0  0
   -7.0030   22.9520  -31.2540 C   0  0  0  0  0  0  0  0  0  0  0  0
   -5.6780   23.4010  -31.3180 C   0  0  0  0  0  0  0  0  0  0  0  0
   -5.1980   24.8520  -30.4400 S   0  0  0  0  0  0  0  0  0  0  0  0
   -5.8670   24.8730  -29.0880 O   0  0  0  0  0  0  0  0  0  0  0  0
   -5.6370   26.0640  -31.2110 O   0  0  0  0  0  0  0  0  0  0  0  0
   -3.4740   24.9050  -30.2280 N   0  0  0  0  0  0  0  0  0  0  0  0
   -2.7920   23.9420  -29.4230 C   0  0  0  0  0  0  0  0  0  0  0  0
   -1.9560   22.9910  -30.0220 C   0  0  0  0  0  0  0  0  0  0  0  0
   -1.3780   21.9660  -29.2570 C   0  0  0  0  0  0  0  0  0  0  0  0
   -0.5940   20.8990  -29.9170 C   0  0  0  0  0  0  0  0  0  0  0  0
    0.4470   20.4650  -29.3510 O   0  0  0  0  0  0  0  0  0  0  0  0
   -1.0050   20.3330  -31.1750 N   0  0  0  0  0  0  0  0  0  0  0  0
   -0.8830   18.8910  -31.4130 C   0  0  0  0  0  0  0  0  0  0  0  0
   -0.2640   18.5950  -32.8010 C   0  0  0  0  0  0  0  0  0  0  0  0
    0.2710   19.8700  -33.5140 C   0  0  0  0  0  0  0  0  0  0  0  0
    1.2920   20.4470  -32.7310 O   0  0  0  0  0  0  0  0  0  0  0  0
    0.8270   19.6080  -34.9260 C   0  0  0  0  0  0  0  0  0  0  0  0
    0.2180   18.6070  -35.7160 C   0  0  0  0  0  0  0  0  0  0  0  0
    0.6950   18.3190  -36.9980 C   0  0  0  0  0  0  0  0  0  0  0  0
    1.7690   19.0370  -37.5260 C   0  0  0  0  0  0  0  0  0  0  0  0
    2.3690   20.0500  -36.7760 C   0  0  0  0  0  0  0  0  0  0  0  0
    3.4800   20.7910  -37.3240 C   0  0  0  0  0  0  0  0  0  0  0  0
    4.3720   21.3860  -37.7620 N   0  0  0  0  0  0  0  0  0  0  0  0
    1.9050   20.3340  -35.4840 C   0  0  0  0  0  0  0  0  0  0  0  0
   -0.9030   20.8750  -33.6060 C   0  0  0  0  0  0  0  0  0  0  0  0
   -1.5530   21.1880  -32.2360 C   0  0  0  0  0  0  0  0  0  0  0  0
   -1.6100   21.9310  -27.8730 C   0  0  0  0  0  0  0  0  0  0  0  0
   -2.3940   22.9150  -27.2620 C   0  0  0  0  0  0  0  0  0  0  0  0
   -2.9930   23.9200  -28.0360 C   0  0  0  0  0  0  0  0  0  0  0  0
   -3.8060   24.8830  -27.4370 O   0  0  0  0  0  0  0  0  0  0  0  0
   -4.7290   22.6470  -32.0130 C   0  0  0  0  0  0  0  0  0  0  0  0
   -5.0970   21.4440  -32.6360 C   0  0  0  0  0  0  0  0  0  0  0  0
   -4.1600   20.7320  -33.3180 F   0  0  0  0  0  0  0  0  0  0  0  0
   -7.0694   18.9429  -32.4727 H   0  0  0  0  0  0  0  0  0  0  0  0
   -7.7103   19.8892  -33.8585 H   0  0  0  0  0  0  0  0  0  0  0  0
   -5.9990   19.3433  -33.8585 H   0  0  0  0  0  0  0  0  0  0  0  0
   -8.4134   21.4008  -31.8042 H   0  0  0  0  0  0  0  0  0  0  0  0
   -7.7582   23.5495  -30.7224 H   0  0  0  0  0  0  0  0  0  0  0  0
   -1.7507   23.0480  -31.1012 H   0  0  0  0  0  0  0  0  0  0  0  0
   -0.2407   18.4534  -30.6346 H   0  0  0  0  0  0  0  0  0  0  0  0
   -1.8903   18.4500  -31.3833 H   0  0  0  0  0  0  0  0  0  0  0  0
    0.5709   17.8910  -32.6693 H   0  0  0  0  0  0  0  0  0  0  0  0
   -1.0604   18.1751  -33.4330 H   0  0  0  0  0  0  0  0  0  0  0  0
    1.0250   20.3650  -31.7810 H   0  0  0  0  0  0  0  0  0  0  0  0
   -0.6414   18.0479  -35.3175 H   0  0  0  0  0  0  0  0  0  0  0  0
    0.2222   17.5236  -37.5928 H   0  0  0  0  0  0  0  0  0  0  0  0
    2.1430   18.8045  -38.5340 H   0  0  0  0  0  0  0  0  0  0  0  0
    2.3850   21.1310  -34.8972 H   0  0  0  0  0  0  0  0  0  0  0  0
   -0.5249   21.8145  -34.0354 H   0  0  0  0  0  0  0  0  0  0  0  0
   -1.6779   20.4126  -34.2351 H   0  0  0  0  0  0  0  0  0  0  0  0
   -1.3620   22.2410  -31.9815 H   0  0  0  0  0  0  0  0  0  0  0  0
   -2.6331   20.9947  -32.3131 H   0  0  0  0  0  0  0  0  0  0  0  0
   -1.1727   21.1250  -27.2655 H   0  0  0  0  0  0  0  0  0  0  0  0
   -2.5412   22.9008  -26.1720 H   0  0  0  0  0  0  0  0  0  0  0  0
   -4.4310   25.4660  -27.9810 H   0  0  0  0  0  0  0  0  0  0  0  0
   -3.6881   22.9978  -32.0723 H   0  0  0  0  0  0  0  0  0  0  0  0
  1  2  1  0
  2  3  2  0
  3  4  1  0
  4  5  2  0
  5  6  1  0
  6  7  2  0
  6  8  2  0
  6  9  1  0
  9 10  1  0
 10 11  2  0
 11 12  1  0
 12 13  1  0
 13 14  2  0
 13 15  1  0
 15 16  1  0
 16 17  1  0
 17 18  1  0
 18 19  1  0
 18 20  1  0
 20 21  2  0
 21 22  1  0
 22 23  2  0
 23 24  1  0
 24 25  1  0
 25 26  3  0
 24 27  2  0
 18 28  1  0
 28 29  1  0
 12 30  2  0
 30 31  1  0
 31 32  2  0
 32 33  1  0
  5 34  1  0
 34 35  2  0
 35 36  1  0
 35  2  1  0
 32 10  1  0
 29 15  1  0
 27 20  1  0
  1 37  1  0
  1 38  1  0
  1 39  1  0
  3 40  1  0
  4 41  1  0
 11 42  1  0
 16 43  1  0
 16 44  1  0
 17 45  1  0
 17 46  1  0
 19 47  1  0
 21 48  1  0
 22 49  1  0
 23 50  1  0
 27 51  1  0
 28 52  1  0
 28 53  1  0
 29 54  1  0
 29 55  1  0
 30 56  1  0
 31 57  1  0
 33 58  1  0
 34 59  1  0
M  CHG  1   9  -1
M  END
>  <UniqueID>  (33) 
32

>  <SMILES>  (33) 
Cc1ccc(S(=O)(=O)[N-]c2cc(C(=O)N3CCC(O)(c4cccc(C#N)c4)CC3)ccc2O)cc1F

>  <Energy>  (33) 
84.97525598588638

>  <Genealogy>  (33) 
Cc1ccc(S(=O)(=O)[N-]c2cc(C(=O)N3CCC(O)(c4cccc(C#N)c4)CC3)ccc2O)cc1F (protonated)
Cc1ccc(S(=O)(=O)[N-]c2cc(C(=O)N3CCC(O)(c4cccc(C#N)c4)CC3)ccc2O)cc1F (3D coordinates assigned)
Cc1ccc(S(=O)(=O)[N-]c2cc(C(=O)N3CCC(O)(c4cccc(C#N)c4)CC3)ccc2O)cc1F (nonaromatic ring conformer: 84.97525598588638 kcal/mol)

>  <smiles>  (33) 
Cc1ccc(S(=O)(=O)Nc2cc(C(=O)N3CCC(O)(c4cccc(C#N)c4)CC3)ccc2O)cc1F

>  <score_type>  (33) 
oracle

>  <origin>  (33) 
adgpu

>  <m_score__min__energy>  (33) 
-11.31

>  <m_primary>  (33) 
energy

$$$$
33:0
     RDKit          3D

 32 33  0  0  0  0  0  0  0  0999 V2000
   -9.7050   21.5630  -31.4350 C   0  0  0  0  0  0  0  0  0  0  0  0
   -8.3390   21.3860  -32.0100 C   0  0  0  0  0  0  0  0  0  0  0  0
   -7.2680   22.2380  -31.8190 C   0  0  0  0  0  0  0  0  0  0  0  0
   -6.2150   21.6080  -32.4560 C   0  0  0  0  0  0  0  0  0  0  0  0
   -4.8110   22.0710  -32.4900 C   0  0  0  0  0  0  0  0  0  0  0  0
   -4.1050   21.8080  -33.4990 O   0  0  0  0  0  0  0  0  0  0  0  0
   -4.2260   22.8310  -31.4260 N   0  0  0  0  0  0  0  0  0  0  0  0
   -4.5190   22.6600  -30.0080 C   0  0  0  0  0  0  0  0  0  0  0  0
   -3.4140   23.2760  -29.1950 C   0  0  0  0  0  0  0  0  0  0  0  0
   -2.8740   22.5700  -28.1060 C   0  0  0  0  0  0  0  0  0  0  0  0
   -1.8660   23.1400  -27.3250 C   0  0  0  0  0  0  0  0  0  0  0  0
   -1.3950   24.4200  -27.6160 C   0  0  0  0  0  0  0  0  0  0  0  0
   -1.9330   25.1420  -28.6850 C   0  0  0  0  0  0  0  0  0  0  0  0
   -1.4570   26.4210  -28.9540 O   0  0  0  0  0  0  0  0  0  0  0  0
   -2.9490   24.5760  -29.4770 C   0  0  0  0  0  0  0  0  0  0  0  0
   -3.5030   25.2960  -30.5380 O   0  0  0  0  0  0  0  0  0  0  0  0
   -6.6630   20.4400  -32.9710 N   0  0  0  0  0  0  0  0  0  0  0  0
   -5.8810   19.4380  -33.6870 C   0  0  0  0  0  0  0  0  0  0  0  0
   -7.9480   20.2940  -32.6940 N   0  0  0  0  0  0  0  0  0  0  0  0
   -9.6444   21.5551  -30.3367 H   0  0  0  0  0  0  0  0  0  0  0  0
  -10.1233   22.5228  -31.7723 H   0  0  0  0  0  0  0  0  0  0  0  0
  -10.3541   20.7415  -31.7723 H   0  0  0  0  0  0  0  0  0  0  0  0
   -7.2560   23.1983  -31.2826 H   0  0  0  0  0  0  0  0  0  0  0  0
   -5.4718   23.1542  -29.7673 H   0  0  0  0  0  0  0  0  0  0  0  0
   -4.5954   21.5879  -29.7739 H   0  0  0  0  0  0  0  0  0  0  0  0
   -3.2473   21.5631  -27.8676 H   0  0  0  0  0  0  0  0  0  0  0  0
   -1.4430   22.5784  -26.4790 H   0  0  0  0  0  0  0  0  0  0  0  0
   -0.5971   24.8630  -27.0019 H   0  0  0  0  0  0  0  0  0  0  0  0
   -3.5500   24.9220  -31.4780 H   0  0  0  0  0  0  0  0  0  0  0  0
   -5.3713   18.7849  -32.9634 H   0  0  0  0  0  0  0  0  0  0  0  0
   -6.5491   18.8342  -34.3188 H   0  0  0  0  0  0  0  0  0  0  0  0
   -5.1330   19.9394  -34.3188 H   0  0  0  0  0  0  0  0  0  0  0  0
  1  2  1  0
  2  3  1  0
  3  4  2  0
  4  5  1  0
  5  6  2  0
  5  7  1  0
  7  8  1  0
  8  9  1  0
  9 10  2  0
 10 11  1  0
 11 12  2  0
 12 13  1  0
 13 14  1  0
 13 15  2  0
 15 16  1  0
  4 17  1  0
 17 18  1  0
 17 19  1  0
 19  2  2  0
 15  9  1  0
  1 20  1  0
  1 21  1  0
  1 22  1  0
  3 23  1  0
  8 24  1  0
  8 25  1  0
 10 26  1  0
 11 27  1  0
 12 28  1  0
 16 29  1  0
 18 30  1  0
 18 31  1  0
 18 32  1  0
M  CHG  2   7  -1  14  -1
M  END
>  <UniqueID>  (34) 
33

>  <SMILES>  (34) 
Cc1cc(C(=O)[N-]Cc2cccc([O-])c2O)n(C)n1

>  <Energy>  (34) 
63.06333790259592

>  <Genealogy>  (34) 
Cc1cc(C(=O)[N-]Cc2cccc([O-])c2O)n(C)n1 (protonated)
Cc1cc(C(=O)[N-]Cc2cccc([O-])c2O)n(C)n1 (3D coordinates assigned)
Cc1cc(C(=O)[N-]Cc2cccc([O-])c2O)n(C)n1 (optimized conformer: 63.06333790259592 kcal/mol)

>  <smiles>  (34) 
Cc1cc(C(=O)NCc2cccc(O)c2O)n(C)n1

>  <score_type>  (34) 
oracle

>  <origin>  (34) 
adgpu

>  <m_score__min__energy>  (34) 
-11.119999999999999

>  <m_primary>  (34) 
energy

$$$$
34:0
     RDKit          3D

 45 48  0  0  0  0  0  0  0  0999 V2000
   -1.1080   21.2830  -26.4700 O   0  0  0  0  0  0  0  0  0  0  0  0
   -2.0520   20.6610  -27.0000 N   0  0  0  0  0  0  0  0  0  0  0  0
   -2.4020   19.4310  -26.4930 O   0  0  0  0  0  0  0  0  0  0  0  0
   -2.7600   21.2170  -28.1240 C   0  0  0  0  0  0  0  0  0  0  0  0
   -3.8020   22.1370  -27.9310 C   0  0  0  0  0  0  0  0  0  0  0  0
   -4.4870   22.6710  -29.0230 C   0  0  0  0  0  0  0  0  0  0  0  0
   -4.1470   22.3050  -30.3330 C   0  0  0  0  0  0  0  0  0  0  0  0
   -5.0360   23.0250  -31.6830 S   0  0  0  0  0  0  0  0  0  0  0  0
   -4.3660   22.6760  -32.9830 O   0  0  0  0  0  0  0  0  0  0  0  0
   -5.0210   24.5180  -31.5380 O   0  0  0  0  0  0  0  0  0  0  0  0
   -6.6540   22.3910  -31.7280 N   0  0  0  0  0  0  0  0  0  0  0  0
   -7.8270   23.2380  -31.5190 C   0  0  0  0  0  0  0  0  0  0  0  0
   -9.0550   22.3040  -31.6320 C   0  0  0  0  0  0  0  0  0  0  0  0
   -8.4490   20.9670  -31.8810 C   0  0  0  0  0  0  0  0  0  0  0  0
   -9.1130   19.7550  -32.0740 C   0  0  0  0  0  0  0  0  0  0  0  0
   -8.3500   18.6020  -32.3100 C   0  0  0  0  0  0  0  0  0  0  0  0
   -6.9460   18.6810  -32.3470 C   0  0  0  0  0  0  0  0  0  0  0  0
   -6.2980   19.9110  -32.1530 C   0  0  0  0  0  0  0  0  0  0  0  0
   -7.0810   21.0500  -31.9240 C   0  0  0  0  0  0  0  0  0  0  0  0
   -3.0990   21.3800  -30.5390 C   0  0  0  0  0  0  0  0  0  0  0  0
   -2.7210   20.9570  -31.8560 N   0  0  0  0  0  0  0  0  0  0  0  0
   -1.5420   21.4850  -32.5240 C   0  0  0  0  0  0  0  0  0  0  0  0
   -1.1540   20.4540  -33.5760 C   0  0  0  0  0  0  0  0  0  0  0  0
   -2.3110   19.4610  -33.6520 C   0  0  0  0  0  0  0  0  0  0  0  0
   -3.1290   19.6680  -32.3860 C   0  0  0  0  0  0  0  0  0  0  0  0
   -2.4180   20.8450  -29.4350 C   0  0  0  0  0  0  0  0  0  0  0  0
   -4.0809   22.4395  -26.9109 H   0  0  0  0  0  0  0  0  0  0  0  0
   -5.3039   23.3880  -28.8540 H   0  0  0  0  0  0  0  0  0  0  0  0
   -7.7904   23.7019  -30.5223 H   0  0  0  0  0  0  0  0  0  0  0  0
   -7.8718   24.0524  -32.2571 H   0  0  0  0  0  0  0  0  0  0  0  0
   -9.6374   22.3047  -30.6988 H   0  0  0  0  0  0  0  0  0  0  0  0
   -9.7573   22.6111  -32.4209 H   0  0  0  0  0  0  0  0  0  0  0  0
  -10.2114   19.7049  -32.0417 H   0  0  0  0  0  0  0  0  0  0  0  0
   -8.8501   17.6348  -32.4663 H   0  0  0  0  0  0  0  0  0  0  0  0
   -6.3521   17.7732  -32.5291 H   0  0  0  0  0  0  0  0  0  0  0  0
   -5.2004   19.9790  -32.1802 H   0  0  0  0  0  0  0  0  0  0  0  0
   -1.7733   22.4487  -33.0013 H   0  0  0  0  0  0  0  0  0  0  0  0
   -0.7220   21.6603  -31.8121 H   0  0  0  0  0  0  0  0  0  0  0  0
   -1.0064   20.9418  -34.5508 H   0  0  0  0  0  0  0  0  0  0  0  0
   -0.2122   19.9502  -33.3130 H   0  0  0  0  0  0  0  0  0  0  0  0
   -2.9271   19.6601  -34.5413 H   0  0  0  0  0  0  0  0  0  0  0  0
   -1.9474   18.4258  -33.7306 H   0  0  0  0  0  0  0  0  0  0  0  0
   -4.2036   19.6736  -32.6212 H   0  0  0  0  0  0  0  0  0  0  0  0
   -2.9600   18.8601  -31.6589 H   0  0  0  0  0  0  0  0  0  0  0  0
   -1.6040   20.1234  -29.5984 H   0  0  0  0  0  0  0  0  0  0  0  0
  1  2  2  0
  2  3  1  0
  2  4  1  0
  4  5  2  0
  5  6  1  0
  6  7  2  0
  7  8  1  0
  8  9  2  0
  8 10  2  0
  8 11  1  0
 11 12  1  0
 12 13  1  0
 13 14  1  0
 14 15  2  0
 15 16  1  0
 16 17  2  0
 17 18  1  0
 18 19  2  0
  7 20  1  0
 20 21  1  0
 21 22  1  0
 22 23  1  0
 23 24  1  0
 24 25  1  0
 20 26  2  0
 26  4  1  0
 19 11  1  0
 25 21  1  0
 19 14  1  0
  5 27  1  0
  6 28  1  0
 12 29  1  0
 12 30  1  0
 13 31  1  0
 13 32  1  0
 15 33  1  0
 16 34  1  0
 17 35  1  0
 18 36  1  0
 22 37  1  0
 22 38  1  0
 23 39  1  0
 23 40  1  0
 24 41  1  0
 24 42  1  0
 25 43  1  0
 25 44  1  0
 26 45  1  0
M  CHG  2   2   1   3  -1
M  END
>  <UniqueID>  (35) 
34

>  <SMILES>  (35) 
O=[N+]([O-])c1ccc(S(=O)(=O)N2CCc3ccccc32)c(N2CCCC2)c1

>  <Energy>  (35) 
70.39107442213555

>  <Genealogy>  (35) 
O=[N+]([O-])c1ccc(S(=O)(=O)N2CCc3ccccc32)c(N2CCCC2)c1 (3D coordinates assigned)
O=[N+]([O-])c1ccc(S(=O)(=O)N2CCc3ccccc32)c(N2CCCC2)c1 (nonaromatic ring conformer: 70.39107442213555 kcal/mol)

>  <smiles>  (35) 
O=[N+]([O-])c1ccc(S(=O)(=O)N2CCc3ccccc32)c(N2CCCC2)c1

>  <score_type>  (35) 
oracle

>  <origin>  (35) 
adgpu

>  <m_score__min__energy>  (35) 
-8.8399999999999999

>  <m_primary>  (35) 
energy

$$$$
35:0
     RDKit          3D

 40 42  0  0  0  0  0  0  0  0999 V2000
   -4.9500   15.7720  -32.3910 C   0  0  0  0  0  0  0  0  0  0  0  0
   -5.5420   17.0750  -32.8420 C   0  0  0  0  0  0  0  0  0  0  0  0
   -4.7960   17.9500  -33.6450 C   0  0  0  0  0  0  0  0  0  0  0  0
   -5.3360   19.1760  -34.0370 C   0  0  0  0  0  0  0  0  0  0  0  0
   -6.6160   19.5460  -33.6170 C   0  0  0  0  0  0  0  0  0  0  0  0
   -7.3600   18.6990  -32.7780 C   0  0  0  0  0  0  0  0  0  0  0  0
   -8.7100   19.0920  -32.3120 C   0  0  0  0  0  0  0  0  0  0  0  0
   -9.4960   18.1990  -31.8970 O   0  0  0  0  0  0  0  0  0  0  0  0
   -9.1730   20.4510  -32.3430 N   0  0  0  0  0  0  0  0  0  0  0  0
   -8.4930   21.4830  -31.9400 C   0  0  0  0  0  0  0  0  0  0  0  0
   -8.9380   22.7450  -32.0150 N   0  0  0  0  0  0  0  0  0  0  0  0
   -7.9920   23.5210  -31.5120 N   0  0  0  0  0  0  0  0  0  0  0  0
   -6.9950   22.6860  -31.1420 C   0  0  0  0  0  0  0  0  0  0  0  0
   -5.7210   23.1200  -30.5370 C   0  0  0  0  0  0  0  0  0  0  0  0
   -5.7110   24.1510  -29.5850 C   0  0  0  0  0  0  0  0  0  0  0  0
   -4.5100   24.5630  -29.0020 C   0  0  0  0  0  0  0  0  0  0  0  0
   -3.3020   23.9530  -29.3670 C   0  0  0  0  0  0  0  0  0  0  0  0
   -1.7940   24.4620  -28.6140 S   0  0  0  0  0  0  0  0  0  0  0  0
   -0.6200   23.1290  -28.6850 C   0  0  0  0  0  0  0  0  0  0  0  0
   -1.2400   25.6580  -29.3360 O   0  0  0  0  0  0  0  0  0  0  0  0
   -2.0460   24.8370  -27.1800 O   0  0  0  0  0  0  0  0  0  0  0  0
   -3.3090   22.9170  -30.3110 C   0  0  0  0  0  0  0  0  0  0  0  0
   -4.5100   22.5040  -30.8950 C   0  0  0  0  0  0  0  0  0  0  0  0
   -7.3000   21.4330  -31.3980 O   0  0  0  0  0  0  0  0  0  0  0  0
   -6.8200   17.4580  -32.4040 C   0  0  0  0  0  0  0  0  0  0  0  0
   -4.9343   15.7374  -31.2917 H   0  0  0  0  0  0  0  0  0  0  0  0
   -5.5586   14.9402  -32.7754 H   0  0  0  0  0  0  0  0  0  0  0  0
   -3.9232   15.6832  -32.7754 H   0  0  0  0  0  0  0  0  0  0  0  0
   -3.7823   17.6693  -33.9669 H   0  0  0  0  0  0  0  0  0  0  0  0
   -4.7522   19.8526  -34.6783 H   0  0  0  0  0  0  0  0  0  0  0  0
   -7.0436   20.5051  -33.9447 H   0  0  0  0  0  0  0  0  0  0  0  0
   -9.8510   23.0790  -32.3950 H   0  0  0  0  0  0  0  0  0  0  0  0
   -6.6543   24.6376  -29.2961 H   0  0  0  0  0  0  0  0  0  0  0  0
   -4.5125   25.3692  -28.2537 H   0  0  0  0  0  0  0  0  0  0  0  0
   -0.3505   22.8230  -27.6634 H   0  0  0  0  0  0  0  0  0  0  0  0
   -1.0655   22.2760  -29.2178 H   0  0  0  0  0  0  0  0  0  0  0  0
    0.2825   23.4632  -29.2178 H   0  0  0  0  0  0  0  0  0  0  0  0
   -2.3656   22.4269  -30.5935 H   0  0  0  0  0  0  0  0  0  0  0  0
   -4.5070   21.6931  -31.6382 H   0  0  0  0  0  0  0  0  0  0  0  0
   -7.4028   16.7804  -31.7627 H   0  0  0  0  0  0  0  0  0  0  0  0
  1  2  1  0
  2  3  2  0
  3  4  1  0
  4  5  2  0
  5  6  1  0
  6  7  1  0
  7  8  2  0
  7  9  1  0
  9 10  2  3
 10 11  1  0
 11 12  1  0
 12 13  2  0
 13 14  1  0
 14 15  2  0
 15 16  1  0
 16 17  2  0
 17 18  1  0
 18 19  1  0
 18 20  2  0
 18 21  2  0
 17 22  1  0
 22 23  2  0
 13 24  1  0
  6 25  2  0
 25  2  1  0
 24 10  1  0
 23 14  1  0
  1 26  1  0
  1 27  1  0
  1 28  1  0
  3 29  1  0
  4 30  1  0
  5 31  1  0
 11 32  1  0
 15 33  1  0
 16 34  1  0
 19 35  1  0
 19 36  1  0
 19 37  1  0
 22 38  1  0
 23 39  1  0
 25 40  1  0
M  END
>  <UniqueID>  (36) 
35

>  <SMILES>  (36) 
Cc1cccc(C(=O)N=c2[nH]nc(-c3ccc(S(C)(=O)=O)cc3)o2)c1

>  <Energy>  (36) 
81.05717180668765

>  <Genealogy>  (36) 
Cc1cccc(C(=O)N=c2[nH]nc(-c3ccc(S(C)(=O)=O)cc3)o2)c1 (3D coordinates assigned)
Cc1cccc(C(=O)N=c2[nH]nc(-c3ccc(S(C)(=O)=O)cc3)o2)c1 (optimized conformer: 81.05717180668765 kcal/mol)

>  <smiles>  (36) 
Cc1cccc(C(=O)N=c2[nH]nc(-c3ccc(S(C)(=O)=O)cc3)o2)c1

>  <score_type>  (36) 
oracle

>  <origin>  (36) 
adgpu

>  <m_score__min__energy>  (36) 
-9.0700000000000003

>  <m_primary>  (36) 
energy

$$$$
36:0
     RDKit          3D

 53 56  0  0  0  0  0  0  0  0999 V2000
   -0.8420   28.3510  -25.2360 C   0  0  0  0  0  0  0  0  0  0  0  0
   -0.9590   26.8830  -25.5370 C   0  0  0  0  0  0  0  0  0  0  0  0
   -1.2850   26.4530  -26.8350 C   0  0  0  0  0  0  0  0  0  0  0  0
   -1.3440   25.0800  -27.1460 C   0  0  0  0  0  0  0  0  0  0  0  0
   -1.6680   24.6210  -28.5210 C   0  0  0  0  0  0  0  0  0  0  0  0
   -1.1170   23.5780  -28.9660 O   0  0  0  0  0  0  0  0  0  0  0  0
   -2.6370   25.2910  -29.3440 N   0  0  0  0  0  0  0  0  0  0  0  0
   -3.7210   24.6670  -30.0460 C   0  0  0  0  0  0  0  0  0  0  0  0
   -4.9960   25.2530  -30.0950 C   0  0  0  0  0  0  0  0  0  0  0  0
   -6.0540   24.5760  -30.7030 C   0  0  0  0  0  0  0  0  0  0  0  0
   -5.8430   23.3250  -31.2870 C   0  0  0  0  0  0  0  0  0  0  0  0
   -4.5550   22.7560  -31.3140 C   0  0  0  0  0  0  0  0  0  0  0  0
   -4.3080   21.3620  -31.8700 C   0  0  1  0  0  0  0  0  0  0  0  0
   -3.7810   21.4580  -33.3270 C   0  0  0  0  0  0  0  0  0  0  0  0
   -2.7180   20.4050  -33.6360 C   0  0  0  0  0  0  0  0  0  0  0  0
   -1.5420   20.5580  -32.6690 C   0  0  0  0  0  0  0  0  0  0  0  0
   -1.9930   20.6210  -31.2700 N   0  0  0  0  0  0  0  0  0  0  0  0
   -1.0280   20.4830  -30.2140 C   0  0  0  0  0  0  0  0  0  0  0  0
    0.1940   20.6550  -30.4640 O   0  0  0  0  0  0  0  0  0  0  0  0
   -1.4210   20.1140  -28.8410 C   0  0  0  0  0  0  0  0  0  0  0  0
   -2.2280   20.8410  -27.9820 C   0  0  0  0  0  0  0  0  0  0  0  0
   -2.3260   20.0860  -26.8340 C   0  0  0  0  0  0  0  0  0  0  0  0
   -1.5810   18.9460  -27.0610 C   0  0  0  0  0  0  0  0  0  0  0  0
   -1.0590   18.9910  -28.2650 O   0  0  0  0  0  0  0  0  0  0  0  0
   -3.4210   20.4850  -30.9480 C   0  0  0  0  0  0  0  0  0  0  0  0
   -3.5000   23.4430  -30.6860 C   0  0  0  0  0  0  0  0  0  0  0  0
   -1.1210   24.1400  -26.1260 C   0  0  0  0  0  0  0  0  0  0  0  0
   -0.8070   24.5630  -24.8290 C   0  0  0  0  0  0  0  0  0  0  0  0
   -0.7020   25.9300  -24.5330 C   0  0  0  0  0  0  0  0  0  0  0  0
   -0.3560   26.3480  -23.2450 O   0  0  0  0  0  0  0  0  0  0  0  0
   -0.8300   28.5021  -24.1465 H   0  0  0  0  0  0  0  0  0  0  0  0
    0.0901   28.7413  -25.6706 H   0  0  0  0  0  0  0  0  0  0  0  0
   -1.7005   28.8840  -25.6706 H   0  0  0  0  0  0  0  0  0  0  0  0
   -1.4965   27.1971  -27.6171 H   0  0  0  0  0  0  0  0  0  0  0  0
   -5.1611   26.2469  -29.6536 H   0  0  0  0  0  0  0  0  0  0  0  0
   -7.0564   25.0286  -30.7223 H   0  0  0  0  0  0  0  0  0  0  0  0
   -6.6897   22.7797  -31.7295 H   0  0  0  0  0  0  0  0  0  0  0  0
   -5.2710   20.8310  -31.8975 H   0  0  0  0  0  0  0  0  0  0  0  0
   -4.6260   21.3193  -34.0175 H   0  0  0  0  0  0  0  0  0  0  0  0
   -3.3164   22.4475  -33.4495 H   0  0  0  0  0  0  0  0  0  0  0  0
   -3.1545   19.4015  -33.5246 H   0  0  0  0  0  0  0  0  0  0  0  0
   -2.3607   20.5407  -34.6675 H   0  0  0  0  0  0  0  0  0  0  0  0
   -0.8682   19.6967  -32.7880 H   0  0  0  0  0  0  0  0  0  0  0  0
   -1.0239   21.4992  -32.9051 H   0  0  0  0  0  0  0  0  0  0  0  0
   -2.6940   21.8183  -28.1761 H   0  0  0  0  0  0  0  0  0  0  0  0
   -2.8847   20.3400  -25.9211 H   0  0  0  0  0  0  0  0  0  0  0  0
   -1.4453   18.1245  -26.3422 H   0  0  0  0  0  0  0  0  0  0  0  0
   -3.7142   19.4318  -31.0695 H   0  0  0  0  0  0  0  0  0  0  0  0
   -3.5702   20.8212  -29.9113 H   0  0  0  0  0  0  0  0  0  0  0  0
   -2.4881   23.0119  -30.6985 H   0  0  0  0  0  0  0  0  0  0  0  0
   -1.1936   23.0651  -26.3479 H   0  0  0  0  0  0  0  0  0  0  0  0
   -0.6415   23.8182  -24.0366 H   0  0  0  0  0  0  0  0  0  0  0  0
    0.3210   25.8420  -22.6850 H   0  0  0  0  0  0  0  0  0  0  0  0
  1  2  1  0
  2  3  2  0
  3  4  1  0
  4  5  1  0
  5  6  2  0
  5  7  1  0
  7  8  1  0
  8  9  2  0
  9 10  1  0
 10 11  2  0
 11 12  1  0
 12 13  1  0
 13 14  1  0
 14 15  1  0
 15 16  1  0
 16 17  1  0
 17 18  1  0
 18 19  2  0
 18 20  1  0
 20 21  2  0
 21 22  1  0
 22 23  2  0
 23 24  1  0
 17 25  1  0
 12 26  2  0
  4 27  2  0
 27 28  1  0
 28 29  2  0
 29 30  1  0
 29  2  1  0
 26  8  1  0
 25 13  1  0
 24 20  1  0
  1 31  1  0
  1 32  1  0
  1 33  1  0
  3 34  1  0
  9 35  1  0
 10 36  1  0
 11 37  1  0
 13 38  1  6
 14 39  1  0
 14 40  1  0
 15 41  1  0
 15 42  1  0
 16 43  1  0
 16 44  1  0
 21 45  1  0
 22 46  1  0
 23 47  1  0
 25 48  1  0
 25 49  1  0
 26 50  1  0
 27 51  1  0
 28 52  1  0
 30 53  1  0
M  CHG  1   7  -1
M  END
>  <UniqueID>  (37) 
36

>  <SMILES>  (37) 
Cc1cc(C(=O)[N-]c2cccc([C@H]3CCCN(C(=O)c4ccco4)C3)c2)ccc1O

>  <Energy>  (37) 
95.11417759510495

>  <Genealogy>  (37) 
Cc1cc(C(=O)[N-]c2cccc(C3CCCN(C(=O)c4ccco4)C3)c2)ccc1O (protonated)
Cc1cc(C(=O)[N-]c2cccc([C@H]3CCCN(C(=O)c4ccco4)C3)c2)ccc1O (chirality)
Cc1cc(C(=O)[N-]c2cccc([C@H]3CCCN(C(=O)c4ccco4)C3)c2)ccc1O (3D coordinates assigned)
Cc1cc(C(=O)[N-]c2cccc([C@H]3CCCN(C(=O)c4ccco4)C3)c2)ccc1O (nonaromatic ring conformer: 95.11417759510495 kcal/mol)

>  <smiles>  (37) 
Cc1cc(C(=O)Nc2cccc(C3CCCN(C(=O)c4ccco4)C3)c2)ccc1O

>  <score_type>  (37) 
oracle

>  <origin>  (37) 
adgpu

>  <m_score__min__energy>  (37) 
-10.550000000000001

>  <m_primary>  (37) 
energy

$$$$
37:0
     RDKit          3D

 60 63  0  0  0  0  0  0  0  0999 V2000
   -1.1140   26.9710  -25.1760 C   0  0  0  0  0  0  0  0  0  0  0  0
   -1.4320   25.9840  -26.2600 C   0  0  0  0  0  0  0  0  0  0  0  0
   -0.5840   25.8550  -27.3700 C   0  0  0  0  0  0  0  0  0  0  0  0
   -0.8970   24.9610  -28.3980 C   0  0  0  0  0  0  0  0  0  0  0  0
   -2.0740   24.1900  -28.3410 C   0  0  0  0  0  0  0  0  0  0  0  0
   -2.4280   23.2390  -29.4240 C   0  0  0  0  0  0  0  0  0  0  0  0
   -1.5660   22.5120  -30.2190 C   0  0  0  0  0  0  0  0  0  0  0  0
   -2.2840   21.7740  -31.0820 N   0  0  0  0  0  0  0  0  0  0  0  0
   -3.5700   22.0680  -30.7900 C   0  0  0  0  0  0  0  0  0  0  0  0
   -4.7240   21.4800  -31.5200 C   0  0  0  0  0  0  0  0  0  0  0  0
   -4.5320   20.3020  -32.2670 C   0  0  0  0  0  0  0  0  0  0  0  0
   -5.5830   19.7270  -32.9860 C   0  0  0  0  0  0  0  0  0  0  0  0
   -5.2970   18.2660  -33.9310 S   0  0  0  0  0  0  0  0  0  0  0  0
   -5.7300   17.0770  -33.1170 O   0  0  0  0  0  0  0  0  0  0  0  0
   -6.1070   18.3050  -35.1980 O   0  0  0  0  0  0  0  0  0  0  0  0
   -3.5980   18.1260  -34.3210 N   0  0  0  0  0  0  0  0  0  0  0  0
   -2.7880   17.9180  -33.0930 C   0  0  0  0  0  0  0  0  0  0  0  0
   -2.3770   16.4500  -32.9080 C   0  0  0  0  0  0  0  0  0  0  0  0
   -1.5590   15.9740  -34.0470 N   0  0  0  0  0  0  0  0  0  0  0  0
   -1.5590   14.5050  -34.0980 C   0  0  0  0  0  0  0  0  0  0  0  0
   -1.9560   16.5610  -35.3520 C   0  0  0  0  0  0  0  0  0  0  0  0
   -3.4040   17.0710  -35.3450 C   0  0  0  0  0  0  0  0  0  0  0  0
   -6.8450   20.3260  -32.9620 C   0  0  0  0  0  0  0  0  0  0  0  0
   -7.0590   21.4870  -32.2210 C   0  0  0  0  0  0  0  0  0  0  0  0
   -6.0080   22.0790  -31.4920 C   0  0  0  0  0  0  0  0  0  0  0  0
   -6.2070   23.2430  -30.7270 O   0  0  0  0  0  0  0  0  0  0  0  0
   -6.4920   24.5450  -31.2360 C   0  0  0  0  0  0  0  0  0  0  0  0
   -5.5760   25.5890  -30.5950 C   0  0  0  0  0  0  0  0  0  0  0  0
   -4.2320   25.2690  -30.8360 O   0  0  0  0  0  0  0  0  0  0  0  0
   -3.6940   22.9600  -29.7840 N   0  0  0  0  0  0  0  0  0  0  0  0
   -2.9280   24.3380  -27.2350 C   0  0  0  0  0  0  0  0  0  0  0  0
   -2.6130   25.2310  -26.2060 C   0  0  0  0  0  0  0  0  0  0  0  0
   -1.2661   26.4989  -24.1942 H   0  0  0  0  0  0  0  0  0  0  0  0
   -0.0665   27.2935  -25.2695 H   0  0  0  0  0  0  0  0  0  0  0  0
   -1.7762   27.8443  -25.2695 H   0  0  0  0  0  0  0  0  0  0  0  0
    0.3322   26.4606  -27.4318 H   0  0  0  0  0  0  0  0  0  0  0  0
   -0.2188   24.8590  -29.2580 H   0  0  0  0  0  0  0  0  0  0  0  0
   -0.4680   22.5332  -30.1563 H   0  0  0  0  0  0  0  0  0  0  0  0
   -3.5398   19.8273  -32.2848 H   0  0  0  0  0  0  0  0  0  0  0  0
   -3.3130   19.0410  -34.7430 H   0  0  0  0  0  0  0  0  0  0  0  0
   -1.8792   18.5341  -33.1601 H   0  0  0  0  0  0  0  0  0  0  0  0
   -3.4056   18.2060  -32.2295 H   0  0  0  0  0  0  0  0  0  0  0  0
   -1.7913   16.3556  -31.9817 H   0  0  0  0  0  0  0  0  0  0  0  0
   -3.2892   15.8375  -32.8550 H   0  0  0  0  0  0  0  0  0  0  0  0
   -0.5219   14.1386  -34.1107 H   0  0  0  0  0  0  0  0  0  0  0  0
   -2.0775   14.1074  -33.2131 H   0  0  0  0  0  0  0  0  0  0  0  0
   -2.0775   14.1697  -35.0083 H   0  0  0  0  0  0  0  0  0  0  0  0
   -1.2856   17.4028  -35.5799 H   0  0  0  0  0  0  0  0  0  0  0  0
   -1.8813   15.7705  -36.1133 H   0  0  0  0  0  0  0  0  0  0  0  0
   -3.6431   17.4848  -36.3358 H   0  0  0  0  0  0  0  0  0  0  0  0
   -4.0683   16.2277  -35.1053 H   0  0  0  0  0  0  0  0  0  0  0  0
   -7.6738   19.8792  -33.5307 H   0  0  0  0  0  0  0  0  0  0  0  0
   -8.0585   21.9460  -32.2050 H   0  0  0  0  0  0  0  0  0  0  0  0
   -6.3371   24.5488  -32.3250 H   0  0  0  0  0  0  0  0  0  0  0  0
   -7.5360   24.7969  -30.9979 H   0  0  0  0  0  0  0  0  0  0  0  0
   -5.7964   26.5777  -31.0238 H   0  0  0  0  0  0  0  0  0  0  0  0
   -5.7522   25.6021  -29.5093 H   0  0  0  0  0  0  0  0  0  0  0  0
   -4.1620   24.2800  -30.7790 H   0  0  0  0  0  0  0  0  0  0  0  0
   -3.8532   23.7457  -27.1781 H   0  0  0  0  0  0  0  0  0  0  0  0
   -3.2951   25.3430  -25.3503 H   0  0  0  0  0  0  0  0  0  0  0  0
  1  2  1  0
  2  3  2  0
  3  4  1  0
  4  5  2  0
  5  6  1  0
  6  7  2  0
  7  8  1  0
  8  9  1  0
  9 10  1  0
 10 11  2  0
 11 12  1  0
 12 13  1  0
 13 14  2  0
 13 15  2  0
 13 16  1  0
 16 17  1  0
 17 18  1  0
 18 19  1  0
 19 20  1  0
 19 21  1  0
 21 22  1  0
 12 23  2  0
 23 24  1  0
 24 25  2  0
 25 26  1  0
 26 27  1  0
 27 28  1  0
 28 29  1  0
  9 30  2  0
  5 31  1  0
 31 32  2  0
 32  2  1  0
 30  6  1  0
 25 10  1  0
 22 16  1  0
  1 33  1  0
  1 34  1  0
  1 35  1  0
  3 36  1  0
  4 37  1  0
  7 38  1  0
 11 39  1  0
 16 40  1  0
 17 41  1  0
 17 42  1  0
 18 43  1  0
 18 44  1  0
 20 45  1  0
 20 46  1  0
 20 47  1  0
 21 48  1  0
 21 49  1  0
 22 50  1  0
 22 51  1  0
 23 52  1  0
 24 53  1  0
 27 54  1  0
 27 55  1  0
 28 56  1  0
 28 57  1  0
 29 58  1  0
 31 59  1  0
 32 60  1  0
M  CHG  2   8  -1  16   1
M  END
>  <UniqueID>  (38) 
37

>  <SMILES>  (38) 
Cc1ccc(-c2c[n-]c(-c3cc(S(=O)(=O)[NH+]4CCN(C)CC4)ccc3OCCO)n2)cc1

>  <Energy>  (38) 
101.06483832361965

>  <Genealogy>  (38) 
Cc1ccc(-c2c[n-]c(-c3cc(S(=O)(=O)[NH+]4CCN(C)CC4)ccc3OCCO)n2)cc1 (protonated)
Cc1ccc(-c2c[n-]c(-c3cc(S(=O)(=O)[NH+]4CCN(C)CC4)ccc3OCCO)n2)cc1 (3D coordinates assigned)
Cc1ccc(-c2c[n-]c(-c3cc(S(=O)(=O)[NH+]4CCN(C)CC4)ccc3OCCO)n2)cc1 (nonaromatic ring conformer: 101.06483832361965 kcal/mol)

>  <smiles>  (38) 
Cc1ccc(-c2c[nH]c(-c3cc(S(=O)(=O)N4CCN(C)CC4)ccc3OCCO)n2)cc1

>  <score_type>  (38) 
oracle

>  <origin>  (38) 
adgpu

>  <m_score__min__energy>  (38) 
-9.6400000000000006

>  <m_primary>  (38) 
energy

$$$$
38:0
     RDKit          3D

 48 50  0  0  0  0  0  0  0  0999 V2000
   -9.1640   21.5980  -30.1960 C   0  0  0  0  0  0  0  0  0  0  0  0
   -8.4390   22.2840  -31.6680 S   0  0  0  0  0  0  0  0  0  0  0  0
   -9.4170   23.2170  -32.3240 O   0  0  0  0  0  0  0  0  0  0  0  0
   -8.1100   21.1750  -32.6280 O   0  0  0  0  0  0  0  0  0  0  0  0
   -6.9730   23.1610  -31.2420 C   0  0  0  0  0  0  0  0  0  0  0  0
   -7.0550   24.4080  -30.6100 C   0  0  0  0  0  0  0  0  0  0  0  0
   -5.8910   25.1140  -30.3000 C   0  0  0  0  0  0  0  0  0  0  0  0
   -4.6370   24.5820  -30.6150 C   0  0  0  0  0  0  0  0  0  0  0  0
   -3.4920   25.3020  -30.2960 O   0  0  0  0  0  0  0  0  0  0  0  0
   -4.5390   23.3260  -31.2430 C   0  0  0  0  0  0  0  0  0  0  0  0
   -3.2470   22.7980  -31.5940 N   0  0  0  0  0  0  0  0  0  0  0  0
   -2.9800   21.3940  -31.7490 C   0  0  0  0  0  0  0  0  0  0  0  0
   -3.7430   20.5490  -31.2030 O   0  0  0  0  0  0  0  0  0  0  0  0
   -1.7940   20.9240  -32.5040 C   0  0  0  0  0  0  0  0  0  0  0  0
   -0.5540   20.7800  -31.8560 C   0  0  0  0  0  0  0  0  0  0  0  0
    0.5690   20.3340  -32.5590 C   0  0  0  0  0  0  0  0  0  0  0  0
    0.4700   20.0190  -33.9200 C   0  0  0  0  0  0  0  0  0  0  0  0
    1.8890   19.4630  -34.8120 S   0  0  0  0  0  0  0  0  0  0  0  0
    3.0470   19.3370  -33.8630 O   0  0  0  0  0  0  0  0  0  0  0  0
    2.2500   20.4850  -35.8540 O   0  0  0  0  0  0  0  0  0  0  0  0
    1.6090   17.9230  -35.5870 N   0  0  0  0  0  0  0  0  0  0  0  0
    0.6420   17.1270  -34.8180 C   0  0  0  0  0  0  0  0  0  0  0  0
    0.4250   15.7600  -35.5030 C   0  0  0  0  0  0  0  0  0  0  0  0
    1.0570   15.6870  -36.7690 O   0  0  0  0  0  0  0  0  0  0  0  0
    0.6550   16.7800  -37.5710 C   0  0  0  0  0  0  0  0  0  0  0  0
    1.1250   18.1170  -36.9640 C   0  0  0  0  0  0  0  0  0  0  0  0
   -0.7640   20.1470  -34.5700 C   0  0  0  0  0  0  0  0  0  0  0  0
   -1.8880   20.5940  -33.8680 C   0  0  0  0  0  0  0  0  0  0  0  0
   -5.7170   22.6300  -31.5690 C   0  0  0  0  0  0  0  0  0  0  0  0
   -8.6900   22.0465  -29.3105 H   0  0  0  0  0  0  0  0  0  0  0  0
  -10.2425   21.8140  -30.1835 H   0  0  0  0  0  0  0  0  0  0  0  0
   -9.0079   20.5092  -30.1835 H   0  0  0  0  0  0  0  0  0  0  0  0
   -8.0381   24.8320  -30.3574 H   0  0  0  0  0  0  0  0  0  0  0  0
   -5.9609   26.0940  -29.8053 H   0  0  0  0  0  0  0  0  0  0  0  0
   -2.4390   23.4580  -31.6370 H   0  0  0  0  0  0  0  0  0  0  0  0
   -0.4671   21.0206  -30.7862 H   0  0  0  0  0  0  0  0  0  0  0  0
    1.5340   20.2301  -32.0413 H   0  0  0  0  0  0  0  0  0  0  0  0
    1.0277   16.9680  -33.8002 H   0  0  0  0  0  0  0  0  0  0  0  0
   -0.3160   17.6657  -34.7722 H   0  0  0  0  0  0  0  0  0  0  0  0
    0.8362   14.9709  -34.8562 H   0  0  0  0  0  0  0  0  0  0  0  0
   -0.6561   15.6291  -35.6583 H   0  0  0  0  0  0  0  0  0  0  0  0
    1.0908   16.6684  -38.5748 H   0  0  0  0  0  0  0  0  0  0  0  0
   -0.4436   16.7881  -37.6249 H   0  0  0  0  0  0  0  0  0  0  0  0
    1.9404   18.5257  -37.5789 H   0  0  0  0  0  0  0  0  0  0  0  0
    0.2746   18.8144  -36.9445 H   0  0  0  0  0  0  0  0  0  0  0  0
   -0.8495   19.8949  -35.6373 H   0  0  0  0  0  0  0  0  0  0  0  0
   -2.8534   20.6882  -34.3868 H   0  0  0  0  0  0  0  0  0  0  0  0
   -5.6525   21.6607  -32.0850 H   0  0  0  0  0  0  0  0  0  0  0  0
  1  2  1  0
  2  3  2  0
  2  4  2  0
  2  5  1  0
  5  6  2  0
  6  7  1  0
  7  8  2  0
  8  9  1  0
  8 10  1  0
 10 11  1  0
 11 12  1  0
 12 13  2  0
 12 14  1  0
 14 15  2  0
 15 16  1  0
 16 17  2  0
 17 18  1  0
 18 19  2  0
 18 20  2  0
 18 21  1  0
 21 22  1  0
 22 23  1  0
 23 24  1  0
 24 25  1  0
 25 26  1  0
 17 27  1  0
 27 28  2  0
 10 29  2  0
 29  5  1  0
 28 14  1  0
 26 21  1  0
  1 30  1  0
  1 31  1  0
  1 32  1  0
  6 33  1  0
  7 34  1  0
 11 35  1  0
 15 36  1  0
 16 37  1  0
 22 38  1  0
 22 39  1  0
 23 40  1  0
 23 41  1  0
 25 42  1  0
 25 43  1  0
 26 44  1  0
 26 45  1  0
 27 46  1  0
 28 47  1  0
 29 48  1  0
M  CHG  1   9  -1
M  END
>  <UniqueID>  (39) 
38

>  <SMILES>  (39) 
CS(=O)(=O)c1ccc([O-])c(NC(=O)c2ccc(S(=O)(=O)N3CCOCC3)cc2)c1

>  <Energy>  (39) 
59.836685897335094

>  <Genealogy>  (39) 
CS(=O)(=O)c1ccc([O-])c(NC(=O)c2ccc(S(=O)(=O)N3CCOCC3)cc2)c1 (protonated)
CS(=O)(=O)c1ccc([O-])c(NC(=O)c2ccc(S(=O)(=O)N3CCOCC3)cc2)c1 (3D coordinates assigned)
CS(=O)(=O)c1ccc([O-])c(NC(=O)c2ccc(S(=O)(=O)N3CCOCC3)cc2)c1 (nonaromatic ring conformer: 59.836685897335094 kcal/mol)

>  <smiles>  (39) 
CS(=O)(=O)c1ccc(O)c(NC(=O)c2ccc(S(=O)(=O)N3CCOCC3)cc2)c1

>  <score_type>  (39) 
oracle

>  <origin>  (39) 
adgpu

>  <m_score__min__energy>  (39) 
-10.880000000000001

>  <m_primary>  (39) 
energy

$$$$
39:0
     RDKit          3D

 51 55  0  0  0  0  0  0  0  0999 V2000
   -6.0990   18.7080  -35.4200 O   0  0  0  0  0  0  0  0  0  0  0  0
   -5.9600   18.4720  -34.1880 C   0  0  0  0  0  0  0  0  0  0  0  0
   -5.6040   17.1030  -33.7700 C   0  0  0  0  0  0  0  0  0  0  0  0
   -4.4780   16.7100  -33.0500 C   0  0  0  0  0  0  0  0  0  0  0  0
   -4.3910   15.3240  -32.8690 C   0  0  0  0  0  0  0  0  0  0  0  0
   -5.4310   14.6170  -33.4570 C   0  0  0  0  0  0  0  0  0  0  0  0
   -6.4560   15.7210  -34.2050 S   0  0  0  0  0  0  0  0  0  0  0  0
   -6.1810   19.5290  -33.2350 N   0  0  0  0  0  0  0  0  0  0  0  0
   -7.4940   20.1140  -32.9380 C   0  0  0  0  0  0  0  0  0  0  0  0
   -7.1530   21.3570  -32.2050 C   0  0  0  0  0  0  0  0  0  0  0  0
   -8.0290   22.3110  -31.6790 C   0  0  0  0  0  0  0  0  0  0  0  0
   -7.4880   23.4230  -31.0120 C   0  0  0  0  0  0  0  0  0  0  0  0
   -6.0860   23.5650  -30.8850 C   0  0  0  0  0  0  0  0  0  0  0  0
   -5.3910   24.9450  -30.0440 S   0  0  0  0  0  0  0  0  0  0  0  0
   -6.4340   26.0010  -29.7950 O   0  0  0  0  0  0  0  0  0  0  0  0
   -4.3070   25.5300  -30.9060 O   0  0  0  0  0  0  0  0  0  0  0  0
   -4.7540   24.4000  -28.5250 N   0  0  0  0  0  0  0  0  0  0  0  0
   -3.6050   23.5430  -28.4370 C   0  0  0  0  0  0  0  0  0  0  0  0
   -3.7260   22.2310  -27.9530 C   0  0  0  0  0  0  0  0  0  0  0  0
   -2.6030   21.3950  -27.8630 C   0  0  0  0  0  0  0  0  0  0  0  0
   -1.3490   21.8610  -28.3120 C   0  0  0  0  0  0  0  0  0  0  0  0
   -1.2320   23.1700  -28.8020 C   0  0  0  0  0  0  0  0  0  0  0  0
   -2.3520   24.0040  -28.8720 C   0  0  0  0  0  0  0  0  0  0  0  0
   -2.2090   25.2990  -29.3610 O   0  0  0  0  0  0  0  0  0  0  0  0
   -0.1120   21.0020  -28.1770 C   0  0  0  0  0  0  0  0  0  0  0  0
   -0.4320   19.5710  -28.0720 N   0  0  0  0  0  0  0  0  0  0  0  0
   -1.4250   19.3350  -27.0170 C   0  0  0  0  0  0  0  0  0  0  0  0
   -2.7720   19.9770  -27.3800 C   0  0  0  0  0  0  0  0  0  0  0  0
   -5.2290   22.5850  -31.4200 C   0  0  0  0  0  0  0  0  0  0  0  0
   -5.7900   21.4890  -32.0750 C   0  0  0  0  0  0  0  0  0  0  0  0
   -5.0830   20.3550  -32.7160 C   0  0  0  0  0  0  0  0  0  0  0  0
   -3.7311   17.4183  -32.6620 H   0  0  0  0  0  0  0  0  0  0  0  0
   -3.5745   14.8405  -32.3126 H   0  0  0  0  0  0  0  0  0  0  0  0
   -5.5619   13.5250  -33.4372 H   0  0  0  0  0  0  0  0  0  0  0  0
   -8.0436   20.3401  -33.8636 H   0  0  0  0  0  0  0  0  0  0  0  0
   -8.1468   19.4399  -32.3640 H   0  0  0  0  0  0  0  0  0  0  0  0
   -9.1176   22.1937  -31.7849 H   0  0  0  0  0  0  0  0  0  0  0  0
   -8.1568   24.1859  -30.5870 H   0  0  0  0  0  0  0  0  0  0  0  0
   -5.3920   24.4760  -27.6980 H   0  0  0  0  0  0  0  0  0  0  0  0
   -4.7114   21.8545  -27.6411 H   0  0  0  0  0  0  0  0  0  0  0  0
   -0.2518   23.5432  -29.1337 H   0  0  0  0  0  0  0  0  0  0  0  0
    0.5244   21.1577  -29.0606 H   0  0  0  0  0  0  0  0  0  0  0  0
    0.4033   21.2992  -27.2517 H   0  0  0  0  0  0  0  0  0  0  0  0
   -0.8190   19.2410  -28.9880 H   0  0  0  0  0  0  0  0  0  0  0  0
   -1.5650   18.2514  -26.8898 H   0  0  0  0  0  0  0  0  0  0  0  0
   -1.0601   19.7871  -26.0829 H   0  0  0  0  0  0  0  0  0  0  0  0
   -3.2465   19.3838  -28.1756 H   0  0  0  0  0  0  0  0  0  0  0  0
   -3.3973   19.9957  -26.4752 H   0  0  0  0  0  0  0  0  0  0  0  0
   -4.1375   22.6817  -31.3233 H   0  0  0  0  0  0  0  0  0  0  0  0
   -4.4327   20.7050  -33.5312 H   0  0  0  0  0  0  0  0  0  0  0  0
   -4.4219   19.8113  -32.0251 H   0  0  0  0  0  0  0  0  0  0  0  0
  1  2  2  0
  2  3  1  0
  3  4  2  0
  4  5  1  0
  5  6  2  0
  6  7  1  0
  2  8  1  0
  8  9  1  0
  9 10  1  0
 10 11  2  0
 11 12  1  0
 12 13  2  0
 13 14  1  0
 14 15  2  0
 14 16  2  0
 14 17  1  0
 17 18  1  0
 18 19  2  0
 19 20  1  0
 20 21  2  0
 21 22  1  0
 22 23  2  0
 23 24  1  0
 21 25  1  0
 25 26  1  0
 26 27  1  0
 27 28  1  0
 13 29  1  0
 29 30  2  0
 30 31  1  0
  7  3  1  0
 31  8  1  0
 30 10  1  0
 23 18  1  0
 28 20  1  0
  4 32  1  0
  5 33  1  0
  6 34  1  0
  9 35  1  0
  9 36  1  0
 11 37  1  0
 12 38  1  0
 17 39  1  0
 19 40  1  0
 22 41  1  0
 25 42  1  0
 25 43  1  0
 26 44  1  0
 27 45  1  0
 27 46  1  0
 28 47  1  0
 28 48  1  0
 29 49  1  0
 31 50  1  0
 31 51  1  0
M  CHG  1  24  -1
M  END
>  <UniqueID>  (40) 
39

>  <SMILES>  (40) 
O=C(c1cccs1)N1Cc2ccc(S(=O)(=O)Nc3cc4c(cc3[O-])CNCC4)cc2C1

>  <Energy>  (40) 
103.65079879407483

>  <Genealogy>  (40) 
O=C(c1cccs1)N1Cc2ccc(S(=O)(=O)Nc3cc4c(cc3[O-])CNCC4)cc2C1 (protonated)
O=C(c1cccs1)N1Cc2ccc(S(=O)(=O)Nc3cc4c(cc3[O-])CNCC4)cc2C1 (3D coordinates assigned)
O=C(c1cccs1)N1Cc2ccc(S(=O)(=O)Nc3cc4c(cc3[O-])CNCC4)cc2C1 (nonaromatic ring conformer: 103.65079879407483 kcal/mol)

>  <smiles>  (40) 
O=C(c1cccs1)N1Cc2ccc(S(=O)(=O)Nc3cc4c(cc3O)CNCC4)cc2C1

>  <score_type>  (40) 
oracle

>  <origin>  (40) 
adgpu

>  <m_score__min__energy>  (40) 
-14.619999999999999

>  <m_primary>  (40) 
energy

$$$$
40:0
     RDKit          3D

 23 24  0  0  0  0  0  0  0  0999 V2000
   -3.3410   25.5820  -31.5800 H   0  0  0  0  0  0  0  0  0  0  0  0
   -3.8530   25.3030  -30.7120 N   0  0  0  0  0  0  0  0  0  0  0  0
   -4.9510   24.6220  -30.7730 C   0  0  0  0  0  0  0  0  0  0  0  0
   -5.5140   24.2240  -31.9310 N   0  0  0  0  0  0  0  0  0  0  0  0
   -6.6000   23.5730  -31.4670 C   0  0  0  0  0  0  0  0  0  0  0  0
   -7.6240   22.9260  -32.3430 C   0  0  0  0  0  0  0  0  0  0  0  0
   -8.6270   23.2541  -32.0325 H   0  0  0  0  0  0  0  0  0  0  0  0
   -7.4388   23.2187  -33.3870 H   0  0  0  0  0  0  0  0  0  0  0  0
   -7.5340   21.4190  -32.2300 C   0  0  0  0  0  0  0  0  0  0  0  0
   -6.3260   20.7200  -32.4630 C   0  0  0  0  0  0  0  0  0  0  0  0
   -5.0650   21.4180  -32.8820 C   0  0  0  0  0  0  0  0  0  0  0  0
   -4.5037   21.7287  -31.9885 H   0  0  0  0  0  0  0  0  0  0  0  0
   -4.4486   20.7326  -33.4823 H   0  0  0  0  0  0  0  0  0  0  0  0
   -5.3186   22.3042  -33.4823 H   0  0  0  0  0  0  0  0  0  0  0  0
   -6.2980   19.3690  -32.3240 N   0  0  0  0  0  0  0  0  0  0  0  0
   -7.3970   18.6680  -31.9510 C   0  0  0  0  0  0  0  0  0  0  0  0
   -7.3300   17.4170  -31.8330 O   0  0  0  0  0  0  0  0  0  0  0  0
   -8.5650   19.3160  -31.7030 N   0  0  0  0  0  0  0  0  0  0  0  0
   -9.4060   18.7670  -31.4090 H   0  0  0  0  0  0  0  0  0  0  0  0
   -8.6560   20.6660  -31.8290 C   0  0  0  0  0  0  0  0  0  0  0  0
   -9.7530   21.2380  -31.5810 O   0  0  0  0  0  0  0  0  0  0  0  0
   -6.6590   23.5960  -30.1570 O   0  0  0  0  0  0  0  0  0  0  0  0
   -5.6400   24.2450  -29.6820 N   0  0  0  0  0  0  0  0  0  0  0  0
  1  2  1  0
  2  3  2  0
  3  4  1  0
  4  5  2  0
  5  6  1  0
  6  7  1  0
  6  8  1  0
  6  9  1  0
  9 10  2  0
 10 11  1  0
 11 12  1  0
 11 13  1  0
 11 14  1  0
 10 15  1  0
 15 16  1  0
 16 17  2  0
 16 18  1  0
 18 19  1  0
 18 20  1  0
 20 21  2  0
  5 22  1  0
 22 23  1  0
 23  3  1  0
 20  9  1  0
M  CHG  2  15  -1  23  -1
M  END
>  <UniqueID>  (41) 
40

>  <SMILES>  (41) 
[H]/N=c1\nc(Cc2c(C)[n-]c(=O)[nH]c2=O)o[n-]1

>  <Energy>  (41) 
57.12730815460859

>  <Genealogy>  (41) 
Cc1[n-]c(=O)[nH]c(=O)c1Cc1nc(=N)[n-]o1 (protonated)
[H]/N=c1\nc(Cc2c(C)[n-]c(=O)[nH]c2=O)o[n-]1 (cis-trans isomerization)
[H]/N=c1\nc(Cc2c(C)[n-]c(=O)[nH]c2=O)o[n-]1 (3D coordinates assigned)
[H]/N=c1\nc(Cc2c(C)[n-]c(=O)[nH]c2=O)o[n-]1 (optimized conformer: 57.12730815460859 kcal/mol)

>  <smiles>  (41) 
Cc1[nH]c(=O)[nH]c(=O)c1Cc1nc(=N)[nH]o1

>  <score_type>  (41) 
oracle

>  <origin>  (41) 
adgpu

>  <m_score__min__energy>  (41) 
-7.5700000000000003

>  <m_primary>  (41) 
energy

$$$$
41:0
     RDKit          3D

 43 46  0  0  0  0  0  0  0  0999 V2000
    2.3020   23.7690  -26.4880 O   0  0  0  0  0  0  0  0  0  0  0  0
    1.1790   23.7810  -27.0580 C   0  0  0  0  0  0  0  0  0  0  0  0
    0.2750   22.7680  -26.9270 N   0  0  0  0  0  0  0  0  0  0  0  0
   -0.7470   23.2310  -27.6660 C   0  0  0  0  0  0  0  0  0  0  0  0
   -1.9710   22.6060  -27.9180 C   0  0  0  0  0  0  0  0  0  0  0  0
   -2.8830   23.2760  -28.7560 C   0  0  0  0  0  0  0  0  0  0  0  0
   -2.5450   24.5360  -29.3420 C   0  0  0  0  0  0  0  0  0  0  0  0
   -3.4960   25.1510  -30.2230 N   0  0  0  0  0  0  0  0  0  0  0  0
   -5.2170   24.9840  -30.0930 S   0  0  0  0  0  0  0  0  0  0  0  0
   -5.5860   24.8690  -28.6440 O   0  0  0  0  0  0  0  0  0  0  0  0
   -5.8690   26.2110  -30.6580 O   0  0  0  0  0  0  0  0  0  0  0  0
   -5.7840   23.5760  -30.9820 C   0  0  0  0  0  0  0  0  0  0  0  0
   -7.1510   23.4000  -31.2370 C   0  0  0  0  0  0  0  0  0  0  0  0
   -7.6000   22.2530  -31.8940 C   0  0  0  0  0  0  0  0  0  0  0  0
   -6.6880   21.2710  -32.3030 C   0  0  0  0  0  0  0  0  0  0  0  0
   -7.2660   19.7850  -33.0530 S   0  0  0  0  0  0  0  0  0  0  0  0
   -8.7720   19.7880  -33.0540 O   0  0  0  0  0  0  0  0  0  0  0  0
   -6.8020   19.7370  -34.4840 O   0  0  0  0  0  0  0  0  0  0  0  0
   -6.6870   18.3630  -32.2080 N   0  0  0  0  0  0  0  0  0  0  0  0
   -5.2360   18.2080  -32.3680 C   0  0  0  0  0  0  0  0  0  0  0  0
   -4.9800   17.1970  -33.4730 C   0  0  0  0  0  0  0  0  0  0  0  0
   -6.3070   16.5040  -33.7180 C   0  0  0  0  0  0  0  0  0  0  0  0
   -7.2920   17.1430  -32.7470 C   0  0  0  0  0  0  0  0  0  0  0  0
   -5.3170   21.4650  -32.0800 C   0  0  0  0  0  0  0  0  0  0  0  0
   -4.8670   22.6100  -31.4180 C   0  0  0  0  0  0  0  0  0  0  0  0
   -1.2970   25.1430  -29.0430 C   0  0  0  0  0  0  0  0  0  0  0  0
   -0.4330   24.4500  -28.2010 C   0  0  0  0  0  0  0  0  0  0  0  0
    0.7660   24.7840  -27.8150 O   0  0  0  0  0  0  0  0  0  0  0  0
   -2.2131   21.6272  -27.4782 H   0  0  0  0  0  0  0  0  0  0  0  0
   -3.8653   22.8257  -28.9620 H   0  0  0  0  0  0  0  0  0  0  0  0
   -7.8718   24.1676  -30.9186 H   0  0  0  0  0  0  0  0  0  0  0  0
   -8.6739   22.1196  -32.0914 H   0  0  0  0  0  0  0  0  0  0  0  0
   -4.7867   19.1751  -32.6380 H   0  0  0  0  0  0  0  0  0  0  0  0
   -4.7872   17.8597  -31.4260 H   0  0  0  0  0  0  0  0  0  0  0  0
   -4.6401   17.7066  -34.3866 H   0  0  0  0  0  0  0  0  0  0  0  0
   -4.1958   16.4794  -33.1901 H   0  0  0  0  0  0  0  0  0  0  0  0
   -6.6355   16.6607  -34.7560 H   0  0  0  0  0  0  0  0  0  0  0  0
   -6.2319   15.4175  -33.5635 H   0  0  0  0  0  0  0  0  0  0  0  0
   -8.2242   17.3929  -33.2747 H   0  0  0  0  0  0  0  0  0  0  0  0
   -7.5234   16.4439  -31.9298 H   0  0  0  0  0  0  0  0  0  0  0  0
   -4.5934   20.7129  -32.4276 H   0  0  0  0  0  0  0  0  0  0  0  0
   -3.7913   22.7536  -31.2387 H   0  0  0  0  0  0  0  0  0  0  0  0
   -1.0237   26.1232  -29.4608 H   0  0  0  0  0  0  0  0  0  0  0  0
  1  2  2  0
  2  3  1  0
  3  4  1  0
  4  5  2  0
  5  6  1  0
  6  7  2  0
  7  8  1  0
  8  9  1  0
  9 10  2  0
  9 11  2  0
  9 12  1  0
 12 13  2  0
 13 14  1  0
 14 15  2  0
 15 16  1  0
 16 17  2  0
 16 18  2  0
 16 19  1  0
 19 20  1  0
 20 21  1  0
 21 22  1  0
 22 23  1  0
 15 24  1  0
 24 25  2  0
  7 26  1  0
 26 27  2  0
 27 28  1  0
 28  2  1  0
 27  4  1  0
 25 12  1  0
 23 19  1  0
  5 29  1  0
  6 30  1  0
 13 31  1  0
 14 32  1  0
 20 33  1  0
 20 34  1  0
 21 35  1  0
 21 36  1  0
 22 37  1  0
 22 38  1  0
 23 39  1  0
 23 40  1  0
 24 41  1  0
 25 42  1  0
 26 43  1  0
M  CHG  2   3  -1   8  -1
M  END
>  <UniqueID>  (42) 
41

>  <SMILES>  (42) 
O=c1[n-]c2ccc([N-]S(=O)(=O)c3ccc(S(=O)(=O)N4CCCC4)cc3)cc2o1

>  <Energy>  (42) 
88.15035959909365

>  <Genealogy>  (42) 
O=c1[n-]c2ccc([N-]S(=O)(=O)c3ccc(S(=O)(=O)N4CCCC4)cc3)cc2o1 (protonated)
O=c1[n-]c2ccc([N-]S(=O)(=O)c3ccc(S(=O)(=O)N4CCCC4)cc3)cc2o1 (3D coordinates assigned)
O=c1[n-]c2ccc([N-]S(=O)(=O)c3ccc(S(=O)(=O)N4CCCC4)cc3)cc2o1 (nonaromatic ring conformer: 88.15035959909365 kcal/mol)

>  <smiles>  (42) 
O=c1[nH]c2ccc(NS(=O)(=O)c3ccc(S(=O)(=O)N4CCCC4)cc3)cc2o1

>  <score_type>  (42) 
oracle

>  <origin>  (42) 
adgpu

>  <m_score__min__energy>  (42) 
-11.25

>  <m_primary>  (42) 
energy

$$$$
42:0
     RDKit          3D

 56 59  0  0  0  0  0  0  0  0999 V2000
   -5.8010   26.3160  -30.8590 O   0  0  0  0  0  0  0  0  0  0  0  0
   -5.2220   25.0450  -30.3030 S   0  0  0  0  0  0  0  0  0  0  0  0
   -5.5690   24.9790  -28.8410 O   0  0  0  0  0  0  0  0  0  0  0  0
   -3.4890   25.0300  -30.4400 N   0  0  0  0  0  0  0  0  0  0  0  0
   -2.5540   24.2900  -29.6390 C   0  0  0  0  0  0  0  0  0  0  0  0
   -2.5560   22.8840  -29.5770 C   0  0  0  0  0  0  0  0  0  0  0  0
   -1.6280   22.2050  -28.7750 C   0  0  0  0  0  0  0  0  0  0  0  0
   -1.6430   20.4430  -28.7250 S   0  0  0  0  0  0  0  0  0  0  0  0
   -1.8430   19.8830  -30.1070 O   0  0  0  0  0  0  0  0  0  0  0  0
   -2.7840   20.0020  -27.8500 O   0  0  0  0  0  0  0  0  0  0  0  0
   -0.1360   19.8750  -28.0530 N   0  0  0  0  0  0  0  0  0  0  0  0
    0.9740   20.0370  -28.9910 C   0  0  0  0  0  0  0  0  0  0  0  0
    2.0190   19.0050  -28.5910 C   0  0  0  0  0  0  0  0  0  0  0  0
    1.2650   17.9810  -27.7500 C   0  0  0  0  0  0  0  0  0  0  0  0
   -0.1810   18.4410  -27.7740 C   0  0  0  0  0  0  0  0  0  0  0  0
   -0.6870   22.9320  -28.0350 C   0  0  0  0  0  0  0  0  0  0  0  0
   -0.6690   24.3280  -28.1020 C   0  0  0  0  0  0  0  0  0  0  0  0
   -1.5930   25.0050  -28.9050 C   0  0  0  0  0  0  0  0  0  0  0  0
   -1.5590   26.3960  -28.9620 O   0  0  0  0  0  0  0  0  0  0  0  0
   -5.9010   23.6430  -31.1320 C   0  0  0  0  0  0  0  0  0  0  0  0
   -7.2730   23.3590  -31.0570 C   0  0  0  0  0  0  0  0  0  0  0  0
   -7.7920   22.2210  -31.6850 C   0  0  0  0  0  0  0  0  0  0  0  0
   -6.9440   21.3580  -32.3930 C   0  0  0  0  0  0  0  0  0  0  0  0
   -7.5660   19.8800  -33.1250 S   0  0  0  0  0  0  0  0  0  0  0  0
   -9.0390   20.0190  -33.3950 O   0  0  0  0  0  0  0  0  0  0  0  0
   -6.8470   19.6510  -34.4250 O   0  0  0  0  0  0  0  0  0  0  0  0
   -7.2820   18.5290  -32.0470 N   0  0  0  0  0  0  0  0  0  0  0  0
   -7.5390   17.2570  -32.7310 C   0  0  0  0  0  0  0  0  0  0  0  0
   -6.2290   16.7730  -33.3260 C   0  0  0  0  0  0  0  0  0  0  0  0
   -5.1460   17.5030  -32.5570 C   0  0  0  0  0  0  0  0  0  0  0  0
   -5.8730   18.4800  -31.6420 C   0  0  0  0  0  0  0  0  0  0  0  0
   -5.5830   21.6550  -32.4890 C   0  0  0  0  0  0  0  0  0  0  0  0
   -5.0650   22.7910  -31.8630 C   0  0  0  0  0  0  0  0  0  0  0  0
   -3.2917   22.3132  -30.1626 H   0  0  0  0  0  0  0  0  0  0  0  0
    0.6330   19.8555  -30.0209 H   0  0  0  0  0  0  0  0  0  0  0  0
    1.3833   21.0574  -28.9567 H   0  0  0  0  0  0  0  0  0  0  0  0
    2.4522   18.5285  -29.4828 H   0  0  0  0  0  0  0  0  0  0  0  0
    2.8545   19.4580  -28.0372 H   0  0  0  0  0  0  0  0  0  0  0  0
    1.3585   16.9765  -28.1885 H   0  0  0  0  0  0  0  0  0  0  0  0
    1.6608   17.9157  -26.7258 H   0  0  0  0  0  0  0  0  0  0  0  0
   -0.7379   17.9142  -28.5629 H   0  0  0  0  0  0  0  0  0  0  0  0
   -0.6901   18.2286  -26.8223 H   0  0  0  0  0  0  0  0  0  0  0  0
    0.0392   22.4034  -27.4000 H   0  0  0  0  0  0  0  0  0  0  0  0
    0.0735   24.8956  -27.5219 H   0  0  0  0  0  0  0  0  0  0  0  0
   -7.9429   24.0329  -30.5028 H   0  0  0  0  0  0  0  0  0  0  0  0
   -8.8684   22.0031  -31.6228 H   0  0  0  0  0  0  0  0  0  0  0  0
   -7.9189   16.5163  -32.0120 H   0  0  0  0  0  0  0  0  0  0  0  0
   -8.2915   17.3929  -33.5218 H   0  0  0  0  0  0  0  0  0  0  0  0
   -6.1261   15.6854  -33.1976 H   0  0  0  0  0  0  0  0  0  0  0  0
   -6.1706   16.9731  -34.4061 H   0  0  0  0  0  0  0  0  0  0  0  0
   -4.5521   16.7921  -31.9637 H   0  0  0  0  0  0  0  0  0  0  0  0
   -4.4501   18.0223  -33.2323 H   0  0  0  0  0  0  0  0  0  0  0  0
   -5.7975   18.1392  -30.5989 H   0  0  0  0  0  0  0  0  0  0  0  0
   -5.4213   19.4799  -31.7199 H   0  0  0  0  0  0  0  0  0  0  0  0
   -4.9163   20.9918  -33.0598 H   0  0  0  0  0  0  0  0  0  0  0  0
   -3.9918   23.0179  -31.9451 H   0  0  0  0  0  0  0  0  0  0  0  0
  1  2  2  0
  2  3  2  0
  2  4  1  0
  4  5  1  0
  5  6  2  0
  6  7  1  0
  7  8  1  0
  8  9  2  0
  8 10  2  0
  8 11  1  0
 11 12  1  0
 12 13  1  0
 13 14  1  0
 14 15  1  0
  7 16  2  0
 16 17  1  0
 17 18  2  0
 18 19  1  0
  2 20  1  0
 20 21  2  0
 21 22  1  0
 22 23  2  0
 23 24  1  0
 24 25  2  0
 24 26  2  0
 24 27  1  0
 27 28  1  0
 28 29  1  0
 29 30  1  0
 30 31  1  0
 23 32  1  0
 32 33  2  0
 18  5  1  0
 33 20  1  0
 15 11  1  0
 31 27  1  0
  6 34  1  0
 12 35  1  0
 12 36  1  0
 13 37  1  0
 13 38  1  0
 14 39  1  0
 14 40  1  0
 15 41  1  0
 15 42  1  0
 16 43  1  0
 17 44  1  0
 21 45  1  0
 22 46  1  0
 28 47  1  0
 28 48  1  0
 29 49  1  0
 29 50  1  0
 30 51  1  0
 30 52  1  0
 31 53  1  0
 31 54  1  0
 32 55  1  0
 33 56  1  0
M  CHG  2   4  -1  19  -1
M  END
>  <UniqueID>  (43) 
42

>  <SMILES>  (43) 
O=S(=O)([N-]c1cc(S(=O)(=O)N2CCCC2)ccc1[O-])c1ccc(S(=O)(=O)N2CCCC2)cc1

>  <Energy>  (43) 
64.56744292018735

>  <Genealogy>  (43) 
O=S(=O)([N-]c1cc(S(=O)(=O)N2CCCC2)ccc1[O-])c1ccc(S(=O)(=O)N2CCCC2)cc1 (protonated)
O=S(=O)([N-]c1cc(S(=O)(=O)N2CCCC2)ccc1[O-])c1ccc(S(=O)(=O)N2CCCC2)cc1 (3D coordinates assigned)
O=S(=O)([N-]c1cc(S(=O)(=O)N2CCCC2)ccc1[O-])c1ccc(S(=O)(=O)N2CCCC2)cc1 (nonaromatic ring conformer: 64.56744292018735 kcal/mol)

>  <smiles>  (43) 
O=S(=O)(Nc1cc(S(=O)(=O)N2CCCC2)ccc1O)c1ccc(S(=O)(=O)N2CCCC2)cc1

>  <score_type>  (43) 
oracle

>  <origin>  (43) 
adgpu

>  <m_score__min__energy>  (43) 
-15.710000000000001

>  <m_primary>  (43) 
energy

$$$$
43:0
     RDKit          3D

 44 46  0  0  0  0  0  0  0  0999 V2000
   -0.5140   20.4420  -27.4500 C   0  0  0  0  0  0  0  0  0  0  0  0
   -1.5410   21.5010  -27.7260 C   0  0  0  0  0  0  0  0  0  0  0  0
   -1.1430   22.8120  -28.0190 C   0  0  0  0  0  0  0  0  0  0  0  0
   -2.0990   23.8060  -28.2410 C   0  0  0  0  0  0  0  0  0  0  0  0
   -3.4690   23.5090  -28.1680 C   0  0  0  0  0  0  0  0  0  0  0  0
   -4.4280   24.5530  -28.4160 N   0  0  0  0  0  0  0  0  0  0  0  0
   -5.1820   24.8250  -29.9550 S   0  0  0  0  0  0  0  0  0  0  0  0
   -4.2310   25.5700  -30.8480 O   0  0  0  0  0  0  0  0  0  0  0  0
   -6.4200   25.6550  -29.7550 O   0  0  0  0  0  0  0  0  0  0  0  0
   -5.5830   23.2870  -30.7140 C   0  0  0  0  0  0  0  0  0  0  0  0
   -4.5580   22.4140  -31.1380 C   0  0  0  0  0  0  0  0  0  0  0  0
   -4.8730   21.1970  -31.7590 C   0  0  0  0  0  0  0  0  0  0  0  0
   -6.2170   20.8690  -31.9520 C   0  0  0  0  0  0  0  0  0  0  0  0
   -7.2220   21.7230  -31.5370 C   0  0  0  0  0  0  0  0  0  0  0  0
   -6.9310   22.9340  -30.9070 C   0  0  0  0  0  0  0  0  0  0  0  0
   -8.5110   21.2050  -31.8320 N   0  0  0  0  0  0  0  0  0  0  0  0
   -9.7730   21.6450  -31.2460 C   0  0  0  0  0  0  0  0  0  0  0  0
   -8.2670   19.9250  -32.4140 C   0  0  0  0  0  0  0  0  0  0  0  0
   -9.1900   19.1330  -32.7460 O   0  0  0  0  0  0  0  0  0  0  0  0
   -6.7960   19.6240  -32.5700 C   0  0  0  0  0  0  0  0  0  0  0  0
   -6.4130   19.5070  -34.0510 C   0  0  0  0  0  0  0  0  0  0  0  0
   -6.4030   18.3710  -31.7760 C   0  0  0  0  0  0  0  0  0  0  0  0
   -3.8650   22.1970  -27.8460 C   0  0  0  0  0  0  0  0  0  0  0  0
   -2.9070   21.2030  -27.6240 C   0  0  0  0  0  0  0  0  0  0  0  0
   -0.3959   20.3202  -26.3632 H   0  0  0  0  0  0  0  0  0  0  0  0
   -0.8414   19.4895  -27.8923 H   0  0  0  0  0  0  0  0  0  0  0  0
    0.4481   20.7401  -27.8923 H   0  0  0  0  0  0  0  0  0  0  0  0
   -0.0727   23.0597  -28.0745 H   0  0  0  0  0  0  0  0  0  0  0  0
   -1.7753   24.8309  -28.4752 H   0  0  0  0  0  0  0  0  0  0  0  0
   -4.6170   25.2550  -27.6670 H   0  0  0  0  0  0  0  0  0  0  0  0
   -3.5050   22.6903  -30.9802 H   0  0  0  0  0  0  0  0  0  0  0  0
   -4.0766   20.5133  -32.0881 H   0  0  0  0  0  0  0  0  0  0  0  0
   -7.7393   23.5988  -30.5683 H   0  0  0  0  0  0  0  0  0  0  0  0
   -9.6968   21.6185  -30.1490 H   0  0  0  0  0  0  0  0  0  0  0  0
   -9.9910   22.6722  -31.5737 H   0  0  0  0  0  0  0  0  0  0  0  0
  -10.5824   20.9760  -31.5737 H   0  0  0  0  0  0  0  0  0  0  0  0
   -5.3640   19.1865  -34.1342 H   0  0  0  0  0  0  0  0  0  0  0  0
   -7.0626   18.7663  -34.5403 H   0  0  0  0  0  0  0  0  0  0  0  0
   -6.5378   20.4842  -34.5403 H   0  0  0  0  0  0  0  0  0  0  0  0
   -6.4697   18.5836  -30.6988 H   0  0  0  0  0  0  0  0  0  0  0  0
   -7.0858   17.5468  -32.0300 H   0  0  0  0  0  0  0  0  0  0  0  0
   -5.3718   18.0844  -32.0300 H   0  0  0  0  0  0  0  0  0  0  0  0
   -4.9346   21.9523  -27.7686 H   0  0  0  0  0  0  0  0  0  0  0  0
   -3.2268   20.1821  -27.3680 H   0  0  0  0  0  0  0  0  0  0  0  0
  1  2  1  0
  2  3  2  0
  3  4  1  0
  4  5  2  0
  5  6  1  0
  6  7  1  0
  7  8  2  0
  7  9  2  0
  7 10  1  0
 10 11  2  0
 11 12  1  0
 12 13  2  0
 13 14  1  0
 14 15  2  0
 14 16  1  0
 16 17  1  0
 16 18  1  0
 18 19  2  0
 18 20  1  0
 20 21  1  0
 20 22  1  0
  5 23  1  0
 23 24  2  0
 24  2  1  0
 15 10  1  0
 20 13  1  0
  1 25  1  0
  1 26  1  0
  1 27  1  0
  3 28  1  0
  4 29  1  0
  6 30  1  0
 11 31  1  0
 12 32  1  0
 15 33  1  0
 17 34  1  0
 17 35  1  0
 17 36  1  0
 21 37  1  0
 21 38  1  0
 21 39  1  0
 22 40  1  0
 22 41  1  0
 22 42  1  0
 23 43  1  0
 24 44  1  0
M  END
>  <UniqueID>  (44) 
43

>  <SMILES>  (44) 
Cc1ccc(NS(=O)(=O)c2ccc3c(c2)N(C)C(=O)C3(C)C)cc1

>  <Energy>  (44) 
62.68633649436383

>  <Genealogy>  (44) 
Cc1ccc(NS(=O)(=O)c2ccc3c(c2)N(C)C(=O)C3(C)C)cc1 (3D coordinates assigned)
Cc1ccc(NS(=O)(=O)c2ccc3c(c2)N(C)C(=O)C3(C)C)cc1 (nonaromatic ring conformer: 62.68633649436383 kcal/mol)

>  <smiles>  (44) 
Cc1ccc(NS(=O)(=O)c2ccc3c(c2)N(C)C(=O)C3(C)C)cc1

>  <score_type>  (44) 
oracle

>  <origin>  (44) 
adgpu

>  <m_score__min__energy>  (44) 
-9.9900000000000002

>  <m_primary>  (44) 
energy

$$$$
44:0
     RDKit          3D

 53 56  0  0  0  0  0  0  0  0999 V2000
   -0.8670   28.7150  -26.1140 C   0  0  0  0  0  0  0  0  0  0  0  0
   -0.0500   27.8550  -25.1410 C   0  0  1  0  0  0  0  0  0  0  0  0
   -0.9680   27.1150  -24.1370 C   0  0  0  0  0  0  0  0  0  0  0  0
   -1.2100   25.6640  -24.5710 C   0  0  0  0  0  0  0  0  0  0  0  0
    0.0540   24.8870  -24.6130 N   0  0  1  0  0  0  0  0  0  0  0  0
   -0.1620   23.4690  -25.6140 S   0  0  0  0  0  0  0  0  0  0  0  0
    1.1780   22.9460  -26.0550 O   0  0  0  0  0  0  0  0  0  0  0  0
   -0.8620   22.3940  -24.8290 O   0  0  0  0  0  0  0  0  0  0  0  0
   -1.1440   23.8710  -27.0210 C   0  0  0  0  0  0  0  0  0  0  0  0
   -0.5410   24.2450  -28.2300 C   0  0  0  0  0  0  0  0  0  0  0  0
   -1.3300   24.5870  -29.3330 C   0  0  0  0  0  0  0  0  0  0  0  0
   -2.7260   24.5510  -29.2420 C   0  0  0  0  0  0  0  0  0  0  0  0
   -3.5050   24.9320  -30.3840 N   0  0  0  0  0  0  0  0  0  0  0  0
   -4.9360   24.9830  -30.4310 C   0  0  0  0  0  0  0  0  0  0  0  0
   -5.5120   26.0820  -30.2230 O   0  0  0  0  0  0  0  0  0  0  0  0
   -5.7150   23.8230  -30.7630 N   0  0  0  0  0  0  0  0  0  0  0  0
   -7.1430   23.7120  -30.4590 C   0  0  0  0  0  0  0  0  0  0  0  0
   -7.5500   22.4930  -31.1990 C   0  0  0  0  0  0  0  0  0  0  0  0
   -8.8140   21.9040  -31.2500 C   0  0  0  0  0  0  0  0  0  0  0  0
   -8.9820   20.7440  -32.0240 C   0  0  0  0  0  0  0  0  0  0  0  0
   -7.8930   20.1990  -32.7300 C   0  0  0  0  0  0  0  0  0  0  0  0
   -6.6300   20.8100  -32.6670 C   0  0  0  0  0  0  0  0  0  0  0  0
   -6.4860   21.9620  -31.8900 C   0  0  0  0  0  0  0  0  0  0  0  0
   -5.2590   22.7640  -31.6690 C   0  0  0  0  0  0  0  0  0  0  0  0
   -3.3290   24.2070  -28.0190 C   0  0  0  0  0  0  0  0  0  0  0  0
   -2.5390   23.8620  -26.9190 C   0  0  0  0  0  0  0  0  0  0  0  0
    1.2400   25.6710  -25.0560 C   0  0  0  0  0  0  0  0  0  0  0  0
    0.8640   26.8810  -25.9210 C   0  0  0  0  0  0  0  0  0  0  0  0
   -1.5153   29.3974  -25.5447 H   0  0  0  0  0  0  0  0  0  0  0  0
   -0.1846   29.3007  -26.7475 H   0  0  0  0  0  0  0  0  0  0  0  0
   -1.4869   28.0635  -26.7475 H   0  0  0  0  0  0  0  0  0  0  0  0
    0.5972   28.5174  -24.5474 H   0  0  0  0  0  0  0  0  0  0  0  0
   -1.9338   27.6385  -24.0811 H   0  0  0  0  0  0  0  0  0  0  0  0
   -0.4735   27.1065  -23.1544 H   0  0  0  0  0  0  0  0  0  0  0  0
   -1.6633   25.6623  -25.5733 H   0  0  0  0  0  0  0  0  0  0  0  0
   -1.8788   25.1925  -23.8359 H   0  0  0  0  0  0  0  0  0  0  0  0
    0.2470   24.5370  -23.6450 H   0  0  0  0  0  0  0  0  0  0  0  0
    0.5557   24.2696  -28.3114 H   0  0  0  0  0  0  0  0  0  0  0  0
   -0.8508   24.8858  -30.2769 H   0  0  0  0  0  0  0  0  0  0  0  0
   -7.3086   23.5917  -29.3782 H   0  0  0  0  0  0  0  0  0  0  0  0
   -7.7173   24.6049  -30.7470 H   0  0  0  0  0  0  0  0  0  0  0  0
   -9.6597   22.3383  -30.6966 H   0  0  0  0  0  0  0  0  0  0  0  0
   -9.9681   20.2597  -32.0786 H   0  0  0  0  0  0  0  0  0  0  0  0
   -8.0319   19.2902  -33.3340 H   0  0  0  0  0  0  0  0  0  0  0  0
   -5.7741   20.3912  -33.2167 H   0  0  0  0  0  0  0  0  0  0  0  0
   -4.4691   22.1574  -31.2020 H   0  0  0  0  0  0  0  0  0  0  0  0
   -4.8203   23.1503  -32.6008 H   0  0  0  0  0  0  0  0  0  0  0  0
   -4.4252   24.2095  -27.9279 H   0  0  0  0  0  0  0  0  0  0  0  0
   -3.0165   23.5820  -25.9684 H   0  0  0  0  0  0  0  0  0  0  0  0
    1.8984   25.0119  -25.6409 H   0  0  0  0  0  0  0  0  0  0  0  0
    1.7408   26.0519  -24.1537 H   0  0  0  0  0  0  0  0  0  0  0  0
    0.3339   26.5309  -26.8190 H   0  0  0  0  0  0  0  0  0  0  0  0
    1.7855   27.4123  -26.2013 H   0  0  0  0  0  0  0  0  0  0  0  0
  1  2  1  0
  2  3  1  0
  3  4  1  0
  4  5  1  0
  5  6  1  0
  6  7  2  0
  6  8  2  0
  6  9  1  0
  9 10  2  0
 10 11  1  0
 11 12  2  0
 12 13  1  0
 13 14  1  0
 14 15  2  0
 14 16  1  0
 16 17  1  0
 17 18  1  0
 18 19  2  0
 19 20  1  0
 20 21  2  0
 21 22  1  0
 22 23  2  0
 23 24  1  0
 12 25  1  0
 25 26  2  0
  5 27  1  0
 27 28  1  0
 28  2  1  0
 26  9  1  0
 24 16  1  0
 23 18  1  0
  1 29  1  0
  1 30  1  0
  1 31  1  0
  2 32  1  1
  3 33  1  0
  3 34  1  0
  4 35  1  0
  4 36  1  0
  5 37  1  1
 10 38  1  0
 11 39  1  0
 17 40  1  0
 17 41  1  0
 19 42  1  0
 20 43  1  0
 21 44  1  0
 22 45  1  0
 24 46  1  0
 24 47  1  0
 25 48  1  0
 26 49  1  0
 27 50  1  0
 27 51  1  0
 28 52  1  0
 28 53  1  0
M  CHG  2   5   1  13  -1
M  END
>  <UniqueID>  (45) 
44

>  <SMILES>  (45) 
CC1CC[NH+](S(=O)(=O)c2ccc([N-]C(=O)N3Cc4ccccc4C3)cc2)CC1

>  <Energy>  (45) 
74.69657225861056

>  <Genealogy>  (45) 
CC1CC[NH+](S(=O)(=O)c2ccc([N-]C(=O)N3Cc4ccccc4C3)cc2)CC1 (protonated)
CC1CC[NH+](S(=O)(=O)c2ccc([N-]C(=O)N3Cc4ccccc4C3)cc2)CC1 (3D coordinates assigned)
CC1CC[NH+](S(=O)(=O)c2ccc([N-]C(=O)N3Cc4ccccc4C3)cc2)CC1 (nonaromatic ring conformer: 74.69657225861056 kcal/mol)

>  <smiles>  (45) 
CC1CCN(S(=O)(=O)c2ccc(NC(=O)N3Cc4ccccc4C3)cc2)CC1

>  <score_type>  (45) 
oracle

>  <origin>  (45) 
adgpu

>  <m_score__min__energy>  (45) 
-11.41

>  <m_primary>  (45) 
energy

$$$$
45:0
     RDKit          3D

 65 68  0  0  0  0  0  0  0  0999 V2000
   -9.1430   20.7090  -31.9910 C   0  0  0  0  0  0  0  0  0  0  0  0
   -8.6350   19.3550  -32.2310 N   0  0  0  0  0  0  0  0  0  0  0  0
   -9.5000   18.2090  -31.9530 C   0  0  0  0  0  0  0  0  0  0  0  0
   -7.3120   19.1280  -32.7580 C   0  0  0  0  0  0  0  0  0  0  0  0
   -7.1100   18.1440  -33.5210 O   0  0  0  0  0  0  0  0  0  0  0  0
   -6.1780   20.0180  -32.4220 C   0  0  0  0  0  0  0  0  0  0  0  0
   -5.0000   19.4960  -31.8600 C   0  0  0  0  0  0  0  0  0  0  0  0
   -3.9410   20.3420  -31.5260 C   0  0  0  0  0  0  0  0  0  0  0  0
   -4.0430   21.7250  -31.7330 C   0  0  0  0  0  0  0  0  0  0  0  0
   -2.9530   22.5770  -31.3500 N   0  0  0  0  0  0  0  0  0  0  0  0
   -2.6930   22.9780  -29.9980 C   0  0  0  0  0  0  0  0  0  0  0  0
   -3.4220   22.5680  -29.0560 O   0  0  0  0  0  0  0  0  0  0  0  0
   -1.5540   23.7970  -29.7180 N   0  0  0  0  0  0  0  0  0  0  0  0
   -1.0960   24.1140  -28.3980 C   0  0  0  0  0  0  0  0  0  0  0  0
   -0.7660   23.1040  -27.4640 C   0  0  0  0  0  0  0  0  0  0  0  0
   -1.0140   21.7170  -27.7500 N   0  0  0  0  0  0  0  0  0  0  0  0
   -0.2190   20.9360  -28.6830 C   0  0  0  0  0  0  0  0  0  0  0  0
   -0.8550   19.5540  -28.6870 C   0  0  0  0  0  0  0  0  0  0  0  0
   -1.6400   19.4610  -27.3820 C   0  0  0  0  0  0  0  0  0  0  0  0
   -1.9300   20.9000  -26.9720 C   0  0  0  0  0  0  0  0  0  0  0  0
   -0.2540   23.4700  -26.2110 C   0  0  0  0  0  0  0  0  0  0  0  0
   -0.0970   24.8150  -25.8730 C   0  0  0  0  0  0  0  0  0  0  0  0
   -0.4500   25.8210  -26.7800 C   0  0  0  0  0  0  0  0  0  0  0  0
   -0.2380   27.5130  -26.3060 S   0  0  0  0  0  0  0  0  0  0  0  0
   -0.4260   28.3690  -27.5290 O   0  0  0  0  0  0  0  0  0  0  0  0
   -1.2800   27.9060  -25.2960 O   0  0  0  0  0  0  0  0  0  0  0  0
    1.3740   27.7540  -25.6610 N   0  0  0  0  0  0  0  0  0  0  0  0
    1.4200   27.5910  -24.1920 C   0  0  0  0  0  0  0  0  0  0  0  0
    1.3890   28.9340  -23.4400 C   0  0  0  0  0  0  0  0  0  0  0  0
    0.6370   29.8830  -24.1590 O   0  0  0  0  0  0  0  0  0  0  0  0
    1.3140   30.2430  -25.3520 C   0  0  0  0  0  0  0  0  0  0  0  0
    1.9440   29.0390  -26.0970 C   0  0  0  0  0  0  0  0  0  0  0  0
   -0.9620   25.4650  -28.0430 C   0  0  0  0  0  0  0  0  0  0  0  0
   -1.3260   26.4450  -28.9590 O   0  0  0  0  0  0  0  0  0  0  0  0
   -5.1990   22.2430  -32.3420 C   0  0  0  0  0  0  0  0  0  0  0  0
   -6.2560   21.3960  -32.6860 C   0  0  0  0  0  0  0  0  0  0  0  0
   -9.2104   20.8887  -30.9079 H   0  0  0  0  0  0  0  0  0  0  0  0
   -8.4590   21.4426  -32.4425 H   0  0  0  0  0  0  0  0  0  0  0  0
  -10.1408   20.8117  -32.4425 H   0  0  0  0  0  0  0  0  0  0  0  0
   -9.5981   18.0790  -30.8651 H   0  0  0  0  0  0  0  0  0  0  0  0
  -10.4931   18.3841  -32.3924 H   0  0  0  0  0  0  0  0  0  0  0  0
   -9.0594   17.3019  -32.3924 H   0  0  0  0  0  0  0  0  0  0  0  0
   -4.9121   18.4140  -31.6823 H   0  0  0  0  0  0  0  0  0  0  0  0
   -3.0198   19.9206  -31.0973 H   0  0  0  0  0  0  0  0  0  0  0  0
   -2.2330   22.8140  -32.0710 H   0  0  0  0  0  0  0  0  0  0  0  0
   -0.2561   21.3809  -29.6883 H   0  0  0  0  0  0  0  0  0  0  0  0
    0.8411   20.9006  -28.3915 H   0  0  0  0  0  0  0  0  0  0  0  0
   -1.5289   19.4437  -29.5494 H   0  0  0  0  0  0  0  0  0  0  0  0
   -0.0998   18.7581  -28.7658 H   0  0  0  0  0  0  0  0  0  0  0  0
   -2.5791   18.9098  -27.5377 H   0  0  0  0  0  0  0  0  0  0  0  0
   -1.0754   18.9235  -26.6059 H   0  0  0  0  0  0  0  0  0  0  0  0
   -2.9724   21.1634  -27.2044 H   0  0  0  0  0  0  0  0  0  0  0  0
   -1.7948   21.0517  -25.8909 H   0  0  0  0  0  0  0  0  0  0  0  0
    0.0265   22.6900  -25.4879 H   0  0  0  0  0  0  0  0  0  0  0  0
    0.3071   25.0865  -24.8866 H   0  0  0  0  0  0  0  0  0  0  0  0
    0.5523   26.9924  -23.8777 H   0  0  0  0  0  0  0  0  0  0  0  0
    2.3701   27.0952  -23.9440 H   0  0  0  0  0  0  0  0  0  0  0  0
    0.9326   28.7846  -22.4504 H   0  0  0  0  0  0  0  0  0  0  0  0
    2.4188   29.3046  -23.3298 H   0  0  0  0  0  0  0  0  0  0  0  0
    0.5946   30.7309  -26.0261 H   0  0  0  0  0  0  0  0  0  0  0  0
    2.1391   30.9114  -25.0648 H   0  0  0  0  0  0  0  0  0  0  0  0
    1.7656   29.1576  -27.1759 H   0  0  0  0  0  0  0  0  0  0  0  0
    3.0197   29.0259  -25.8676 H   0  0  0  0  0  0  0  0  0  0  0  0
   -5.2721   23.3209  -32.5490 H   0  0  0  0  0  0  0  0  0  0  0  0
   -7.1546   21.8105  -33.1664 H   0  0  0  0  0  0  0  0  0  0  0  0
  1  2  1  0
  2  3  1  0
  2  4  1  0
  4  5  2  0
  4  6  1  0
  6  7  2  0
  7  8  1  0
  8  9  2  0
  9 10  1  0
 10 11  1  0
 11 12  2  0
 11 13  1  0
 13 14  1  0
 14 15  1  0
 15 16  1  0
 16 17  1  0
 17 18  1  0
 18 19  1  0
 19 20  1  0
 15 21  2  0
 21 22  1  0
 22 23  2  0
 23 24  1  0
 24 25  2  0
 24 26  2  0
 24 27  1  0
 27 28  1  0
 28 29  1  0
 29 30  1  0
 30 31  1  0
 31 32  1  0
 23 33  1  0
 33 34  1  0
  9 35  1  0
 35 36  2  0
 36  6  1  0
 33 14  2  0
 20 16  1  0
 32 27  1  0
  1 37  1  0
  1 38  1  0
  1 39  1  0
  3 40  1  0
  3 41  1  0
  3 42  1  0
  7 43  1  0
  8 44  1  0
 10 45  1  0
 17 46  1  0
 17 47  1  0
 18 48  1  0
 18 49  1  0
 19 50  1  0
 19 51  1  0
 20 52  1  0
 20 53  1  0
 21 54  1  0
 22 55  1  0
 28 56  1  0
 28 57  1  0
 29 58  1  0
 29 59  1  0
 31 60  1  0
 31 61  1  0
 32 62  1  0
 32 63  1  0
 35 64  1  0
 36 65  1  0
M  CHG  2  13  -1  34  -1
M  END
>  <UniqueID>  (46) 
45

>  <SMILES>  (46) 
CN(C)C(=O)c1ccc(NC(=O)[N-]c2c(N3CCCC3)ccc(S(=O)(=O)N3CCOCC3)c2[O-])cc1

>  <Energy>  (46) 
95.36109608009316

>  <Genealogy>  (46) 
CN(C)C(=O)c1ccc(NC(=O)[N-]c2c(N3CCCC3)ccc(S(=O)(=O)N3CCOCC3)c2[O-])cc1 (protonated)
CN(C)C(=O)c1ccc(NC(=O)[N-]c2c(N3CCCC3)ccc(S(=O)(=O)N3CCOCC3)c2[O-])cc1 (3D coordinates assigned)
CN(C)C(=O)c1ccc(NC(=O)[N-]c2c(N3CCCC3)ccc(S(=O)(=O)N3CCOCC3)c2[O-])cc1 (nonaromatic ring conformer: 95.36109608009316 kcal/mol)

>  <smiles>  (46) 
CN(C)C(=O)c1ccc(NC(=O)Nc2c(N3CCCC3)ccc(S(=O)(=O)N3CCOCC3)c2O)cc1

>  <score_type>  (46) 
oracle

>  <origin>  (46) 
adgpu

>  <m_score__min__energy>  (46) 
-12.08

>  <m_primary>  (46) 
energy

$$$$
46:0
     RDKit          3D

 50 53  0  0  0  0  0  0  0  0999 V2000
   -6.1240   15.3490  -33.9270 C   0  0  0  0  0  0  0  0  0  0  0  0
   -7.1140   16.3490  -33.7010 O   0  0  0  0  0  0  0  0  0  0  0  0
   -6.8270   17.6980  -33.4490 C   0  0  0  0  0  0  0  0  0  0  0  0
   -5.6700   18.2630  -34.0420 C   0  0  0  0  0  0  0  0  0  0  0  0
   -5.3110   19.6010  -33.7900 C   0  0  0  0  0  0  0  0  0  0  0  0
   -6.1360   20.3450  -32.9530 C   0  0  0  0  0  0  0  0  0  0  0  0
   -5.9620   21.6110  -32.5380 N   0  0  0  0  0  0  0  0  0  0  0  0
   -7.0320   21.7950  -31.7220 C   0  0  0  0  0  0  0  0  0  0  0  0
   -7.3140   23.3070  -30.7980 S   0  0  0  0  0  0  0  0  0  0  0  0
   -5.9390   24.2500  -31.5660 C   0  0  0  0  0  0  0  0  0  0  0  0
   -5.3010   25.2680  -30.6610 C   0  0  0  0  0  0  0  0  0  0  0  0
   -6.0380   26.0870  -30.0490 O   0  0  0  0  0  0  0  0  0  0  0  0
   -3.8840   25.2910  -30.4570 N   0  0  0  0  0  0  0  0  0  0  0  0
   -3.1230   24.3040  -29.7440 C   0  0  0  0  0  0  0  0  0  0  0  0
   -2.6470   24.5270  -28.4380 C   0  0  0  0  0  0  0  0  0  0  0  0
   -1.8060   23.5960  -27.8270 C   0  0  0  0  0  0  0  0  0  0  0  0
   -1.4150   22.4460  -28.5140 C   0  0  0  0  0  0  0  0  0  0  0  0
   -1.8730   22.2170  -29.8170 C   0  0  0  0  0  0  0  0  0  0  0  0
   -1.3450   20.7840  -30.7020 S   0  0  0  0  0  0  0  0  0  0  0  0
   -1.1180   19.6590  -29.7300 O   0  0  0  0  0  0  0  0  0  0  0  0
   -0.0350   21.0780  -31.3800 O   0  0  0  0  0  0  0  0  0  0  0  0
   -2.5180   20.2830  -31.9030 N   0  0  0  0  0  0  0  0  0  0  0  0
   -2.1470   18.9930  -32.4950 C   0  0  0  0  0  0  0  0  0  0  0  0
   -1.4290   19.2600  -33.8110 C   0  0  0  0  0  0  0  0  0  0  0  0
   -1.7360   20.7030  -34.1610 C   0  0  0  0  0  0  0  0  0  0  0  0
   -2.5790   21.2410  -33.0120 C   0  0  0  0  0  0  0  0  0  0  0  0
   -2.7270   23.1480  -30.4250 C   0  0  0  0  0  0  0  0  0  0  0  0
   -7.8610   20.7250  -31.6240 N   0  0  0  0  0  0  0  0  0  0  0  0
   -7.2620   19.8190  -32.4050 C   0  0  0  0  0  0  0  0  0  0  0  0
   -7.6470   18.4990  -32.6180 C   0  0  0  0  0  0  0  0  0  0  0  0
   -5.7536   14.9749  -32.9612 H   0  0  0  0  0  0  0  0  0  0  0  0
   -6.5654   14.5183  -34.4971 H   0  0  0  0  0  0  0  0  0  0  0  0
   -5.2889   15.7820  -34.4971 H   0  0  0  0  0  0  0  0  0  0  0  0
   -5.0451   17.6488  -34.7070 H   0  0  0  0  0  0  0  0  0  0  0  0
   -4.4094   20.0426  -34.2395 H   0  0  0  0  0  0  0  0  0  0  0  0
   -5.1642   23.5347  -31.8791 H   0  0  0  0  0  0  0  0  0  0  0  0
   -6.3737   24.8081  -32.4084 H   0  0  0  0  0  0  0  0  0  0  0  0
   -2.9393   25.4390  -27.8969 H   0  0  0  0  0  0  0  0  0  0  0  0
   -1.4502   23.7692  -26.8006 H   0  0  0  0  0  0  0  0  0  0  0  0
   -0.7460   21.7185  -28.0311 H   0  0  0  0  0  0  0  0  0  0  0  0
   -1.4797   18.4480  -31.8111 H   0  0  0  0  0  0  0  0  0  0  0  0
   -3.0460   18.3838  -32.6704 H   0  0  0  0  0  0  0  0  0  0  0  0
   -0.3449   19.1165  -33.6923 H   0  0  0  0  0  0  0  0  0  0  0  0
   -1.7613   18.5711  -34.6016 H   0  0  0  0  0  0  0  0  0  0  0  0
   -0.8045   21.2804  -34.2551 H   0  0  0  0  0  0  0  0  0  0  0  0
   -2.2657   20.7816  -35.1219 H   0  0  0  0  0  0  0  0  0  0  0  0
   -2.1829   22.2136  -32.6846 H   0  0  0  0  0  0  0  0  0  0  0  0
   -3.6209   21.3743  -33.3386 H   0  0  0  0  0  0  0  0  0  0  0  0
   -3.0893   22.9676  -31.4478 H   0  0  0  0  0  0  0  0  0  0  0  0
   -8.5583   18.0913  -32.1561 H   0  0  0  0  0  0  0  0  0  0  0  0
  1  2  1  0
  2  3  1  0
  3  4  2  0
  4  5  1  0
  5  6  2  0
  6  7  1  0
  7  8  1  0
  8  9  1  0
  9 10  1  0
 10 11  1  0
 11 12  2  0
 11 13  1  0
 13 14  1  0
 14 15  2  0
 15 16  1  0
 16 17  2  0
 17 18  1  0
 18 19  1  0
 19 20  2  0
 19 21  2  0
 19 22  1  0
 22 23  1  0
 23 24  1  0
 24 25  1  0
 25 26  1  0
 18 27  2  0
  8 28  2  0
 28 29  1  0
 29 30  2  0
 30  3  1  0
 29  6  1  0
 27 14  1  0
 26 22  1  0
  1 31  1  0
  1 32  1  0
  1 33  1  0
  4 34  1  0
  5 35  1  0
 10 36  1  0
 10 37  1  0
 15 38  1  0
 16 39  1  0
 17 40  1  0
 23 41  1  0
 23 42  1  0
 24 43  1  0
 24 44  1  0
 25 45  1  0
 25 46  1  0
 26 47  1  0
 26 48  1  0
 27 49  1  0
 30 50  1  0
M  CHG  2   7  -1  13  -1
M  END
>  <UniqueID>  (47) 
46

>  <SMILES>  (47) 
COc1ccc2[n-]c(SCC(=O)[N-]c3cccc(S(=O)(=O)N4CCCC4)c3)nc2c1

>  <Energy>  (47) 
86.65571279680069

>  <Genealogy>  (47) 
COc1ccc2[n-]c(SCC(=O)[N-]c3cccc(S(=O)(=O)N4CCCC4)c3)nc2c1 (protonated)
COc1ccc2[n-]c(SCC(=O)[N-]c3cccc(S(=O)(=O)N4CCCC4)c3)nc2c1 (3D coordinates assigned)
COc1ccc2[n-]c(SCC(=O)[N-]c3cccc(S(=O)(=O)N4CCCC4)c3)nc2c1 (nonaromatic ring conformer: 86.65571279680069 kcal/mol)

>  <smiles>  (47) 
COc1ccc2[nH]c(SCC(=O)Nc3cccc(S(=O)(=O)N4CCCC4)c3)nc2c1

>  <score_type>  (47) 
oracle

>  <origin>  (47) 
adgpu

>  <m_score__min__energy>  (47) 
-11.52

>  <m_primary>  (47) 
energy

$$$$
47:0
     RDKit          3D

 50 53  0  0  0  0  0  0  0  0999 V2000
   -8.7570   19.3920  -31.2530 C   0  0  0  0  0  0  0  0  0  0  0  0
   -8.7520   20.3390  -32.3800 N   0  0  0  0  0  0  0  0  0  0  0  0
   -7.5850   20.1420  -33.2620 C   0  0  0  0  0  0  0  0  0  0  0  0
   -6.2610   20.5960  -32.6150 C   0  0  0  0  0  0  0  0  0  0  0  0
   -6.4260   21.8360  -31.7090 C   0  0  0  0  0  0  0  0  0  0  0  0
   -4.9730   22.8850  -31.7810 S   0  0  0  0  0  0  0  0  0  0  0  0
   -5.3810   24.3300  -31.7180 O   0  0  0  0  0  0  0  0  0  0  0  0
   -4.2450   22.6500  -33.0760 O   0  0  0  0  0  0  0  0  0  0  0  0
   -3.9140   22.5180  -30.4160 C   0  0  0  0  0  0  0  0  0  0  0  0
   -3.6750   21.1830  -30.0610 C   0  0  0  0  0  0  0  0  0  0  0  0
   -2.8630   20.8810  -28.9690 C   0  0  0  0  0  0  0  0  0  0  0  0
   -2.2560   21.9050  -28.2420 C   0  0  0  0  0  0  0  0  0  0  0  0
   -2.4480   23.2430  -28.6050 C   0  0  0  0  0  0  0  0  0  0  0  0
   -1.7050   24.2490  -27.9040 N   0  0  0  0  0  0  0  0  0  0  0  0
   -0.7810   25.1790  -28.4900 C   0  0  0  0  0  0  0  0  0  0  0  0
   -1.2180   26.0450  -29.2920 O   0  0  0  0  0  0  0  0  0  0  0  0
    0.6270   25.1380  -28.2140 N   0  0  0  0  0  0  0  0  0  0  0  0
    1.2260   25.1350  -26.9120 C   0  0  0  0  0  0  0  0  0  0  0  0
    0.4880   25.5850  -25.7990 C   0  0  0  0  0  0  0  0  0  0  0  0
    1.0830   25.6400  -24.5180 C   0  0  0  0  0  0  0  0  0  0  0  0
    2.4130   25.2210  -24.3300 C   0  0  0  0  0  0  0  0  0  0  0  0
    3.1060   24.7470  -25.4400 C   0  0  0  0  0  0  0  0  0  0  0  0
    4.3600   24.2700  -25.4820 N   0  0  0  0  0  0  0  0  0  0  0  0
    4.6010   23.9070  -26.7390 N   0  0  0  0  0  0  0  0  0  0  0  0
    3.5040   24.1520  -27.4940 C   0  0  0  0  0  0  0  0  0  0  0  0
    2.5360   24.6980  -26.6810 C   0  0  0  0  0  0  0  0  0  0  0  0
   -3.3360   23.5580  -29.6630 C   0  0  0  0  0  0  0  0  0  0  0  0
   -3.6670   24.8810  -29.9640 O   0  0  0  0  0  0  0  0  0  0  0  0
   -7.6830   22.6270  -32.0790 C   0  0  0  0  0  0  0  0  0  0  0  0
   -8.9410   21.7470  -31.9410 C   0  0  0  0  0  0  0  0  0  0  0  0
   -8.7541   19.9501  -30.3051 H   0  0  0  0  0  0  0  0  0  0  0  0
   -9.6585   18.7639  -31.3059 H   0  0  0  0  0  0  0  0  0  0  0  0
   -7.8622   18.7544  -31.3059 H   0  0  0  0  0  0  0  0  0  0  0  0
   -7.5071   19.0726  -33.5076 H   0  0  0  0  0  0  0  0  0  0  0  0
   -7.7420   20.7577  -34.1600 H   0  0  0  0  0  0  0  0  0  0  0  0
   -5.8657   19.7683  -32.0078 H   0  0  0  0  0  0  0  0  0  0  0  0
   -5.5748   20.8723  -33.4291 H   0  0  0  0  0  0  0  0  0  0  0  0
   -6.5400   21.4800  -30.6745 H   0  0  0  0  0  0  0  0  0  0  0  0
   -4.1301   20.3706  -30.6465 H   0  0  0  0  0  0  0  0  0  0  0  0
   -2.7005   19.8322  -28.6798 H   0  0  0  0  0  0  0  0  0  0  0  0
   -1.6220   21.6593  -27.3773 H   0  0  0  0  0  0  0  0  0  0  0  0
   -0.5592   25.8959  -25.9281 H   0  0  0  0  0  0  0  0  0  0  0  0
    0.5020   26.0131  -23.6617 H   0  0  0  0  0  0  0  0  0  0  0  0
    2.8889   25.2665  -23.3393 H   0  0  0  0  0  0  0  0  0  0  0  0
    3.4035   23.9498  -28.5706 H   0  0  0  0  0  0  0  0  0  0  0  0
   -3.0600   25.6610  -29.7550 H   0  0  0  0  0  0  0  0  0  0  0  0
   -7.7740   23.4946  -31.4089 H   0  0  0  0  0  0  0  0  0  0  0  0
   -7.5968   22.9593  -33.1241 H   0  0  0  0  0  0  0  0  0  0  0  0
   -9.2431   21.7408  -30.8833 H   0  0  0  0  0  0  0  0  0  0  0  0
   -9.7055   22.1834  -32.6005 H   0  0  0  0  0  0  0  0  0  0  0  0
  1  2  1  0
  2  3  1  0
  3  4  1  0
  4  5  1  0
  5  6  1  0
  6  7  2  0
  6  8  2  0
  6  9  1  0
  9 10  2  0
 10 11  1  0
 11 12  2  0
 12 13  1  0
 13 14  1  0
 14 15  1  0
 15 16  2  0
 15 17  1  0
 17 18  1  0
 18 19  2  0
 19 20  1  0
 20 21  2  0
 21 22  1  0
 22 23  1  0
 23 24  1  0
 24 25  2  0
 25 26  1  0
 13 27  2  0
 27 28  1  0
  5 29  1  0
 29 30  1  0
 30  2  1  0
 27  9  1  0
 26 18  1  0
 26 22  2  0
  1 31  1  0
  1 32  1  0
  1 33  1  0
  3 34  1  0
  3 35  1  0
  4 36  1  0
  4 37  1  0
  5 38  1  0
 10 39  1  0
 11 40  1  0
 12 41  1  0
 19 42  1  0
 20 43  1  0
 21 44  1  0
 25 45  1  0
 28 46  1  0
 29 47  1  0
 29 48  1  0
 30 49  1  0
 30 50  1  0
M  CHG  3  14  -1  17  -1  23  -1
M  END
>  <UniqueID>  (48) 
47

>  <SMILES>  (48) 
CN1CCC(S(=O)(=O)c2cccc([N-]C(=O)[N-]c3cccc4[n-]ncc34)c2O)CC1

>  <Energy>  (48) 
106.36138816825816

>  <Genealogy>  (48) 
CN1CCC(S(=O)(=O)c2cccc([N-]C(=O)[N-]c3cccc4[n-]ncc34)c2O)CC1 (protonated)
CN1CCC(S(=O)(=O)c2cccc([N-]C(=O)[N-]c3cccc4[n-]ncc34)c2O)CC1 (3D coordinates assigned)
CN1CCC(S(=O)(=O)c2cccc([N-]C(=O)[N-]c3cccc4[n-]ncc34)c2O)CC1 (nonaromatic ring conformer: 106.36138816825816 kcal/mol)

>  <smiles>  (48) 
CN1CCC(S(=O)(=O)c2cccc(NC(=O)Nc3cccc4[nH]ncc34)c2O)CC1

>  <score_type>  (48) 
oracle

>  <origin>  (48) 
adgpu

>  <m_score__min__energy>  (48) 
-13.32

>  <m_primary>  (48) 
energy

$$$$
48:0
     RDKit          3D

 54 57  0  0  0  0  0  0  0  0999 V2000
   -1.4050   19.7160  -26.3440 C   0  0  0  0  0  0  0  0  0  0  0  0
   -1.6570   19.4220  -27.7650 N   0  0  0  0  0  0  0  0  0  0  0  0
   -0.4790   19.6750  -28.6170 C   0  0  0  0  0  0  0  0  0  0  0  0
   -0.0920   21.1610  -28.6670 C   0  0  0  0  0  0  0  0  0  0  0  0
   -1.2900   22.0660  -28.7980 C   0  0  0  0  0  0  0  0  0  0  0  0
   -1.0900   23.4250  -29.0710 C   0  0  0  0  0  0  0  0  0  0  0  0
   -2.1700   24.3130  -29.0900 C   0  0  0  0  0  0  0  0  0  0  0  0
   -1.9310   25.6590  -29.3400 O   0  0  0  0  0  0  0  0  0  0  0  0
   -3.4780   23.8520  -28.8450 C   0  0  0  0  0  0  0  0  0  0  0  0
   -4.5760   24.7870  -28.8180 N   0  0  0  0  0  0  0  0  0  0  0  0
   -5.7040   24.9880  -30.1240 S   0  0  0  0  0  0  0  0  0  0  0  0
   -6.8580   25.8320  -29.6630 O   0  0  0  0  0  0  0  0  0  0  0  0
   -5.0120   25.6830  -31.2630 O   0  0  0  0  0  0  0  0  0  0  0  0
   -6.3200   23.4170  -30.6390 C   0  0  0  0  0  0  0  0  0  0  0  0
   -7.3650   22.8000  -29.9360 C   0  0  0  0  0  0  0  0  0  0  0  0
   -7.9170   21.6040  -30.4060 C   0  0  0  0  0  0  0  0  0  0  0  0
   -7.4270   21.0120  -31.5790 C   0  0  0  0  0  0  0  0  0  0  0  0
   -8.1480   19.5230  -32.1940 S   0  0  0  0  0  0  0  0  0  0  0  0
   -9.1380   19.0060  -31.1890 O   0  0  0  0  0  0  0  0  0  0  0  0
   -8.8970   19.8300  -33.4640 O   0  0  0  0  0  0  0  0  0  0  0  0
   -6.9460   18.2890  -32.5130 N   0  0  0  0  0  0  0  0  0  0  0  0
   -6.4040   18.4170  -33.8700 C   0  0  0  0  0  0  0  0  0  0  0  0
   -5.1030   19.1980  -33.7920 C   0  0  0  0  0  0  0  0  0  0  0  0
   -4.6740   19.1250  -32.3400 C   0  0  0  0  0  0  0  0  0  0  0  0
   -5.8030   18.4170  -31.6030 C   0  0  0  0  0  0  0  0  0  0  0  0
   -6.3720   21.6240  -32.2720 C   0  0  0  0  0  0  0  0  0  0  0  0
   -5.8180   22.8180  -31.8010 C   0  0  0  0  0  0  0  0  0  0  0  0
   -3.6810   22.4790  -28.6160 C   0  0  0  0  0  0  0  0  0  0  0  0
   -2.5940   21.5940  -28.5430 C   0  0  0  0  0  0  0  0  0  0  0  0
   -2.8490   20.1290  -28.2730 C   0  0  0  0  0  0  0  0  0  0  0  0
   -1.9935   19.0295  -25.7176 H   0  0  0  0  0  0  0  0  0  0  0  0
   -0.3347   19.5845  -26.1266 H   0  0  0  0  0  0  0  0  0  0  0  0
   -1.6986   20.7536  -26.1266 H   0  0  0  0  0  0  0  0  0  0  0  0
    0.3722   19.1028  -28.2196 H   0  0  0  0  0  0  0  0  0  0  0  0
   -0.7359   19.3638  -29.6403 H   0  0  0  0  0  0  0  0  0  0  0  0
    0.4439   21.4172  -27.7412 H   0  0  0  0  0  0  0  0  0  0  0  0
    0.5393   21.3120  -29.5551 H   0  0  0  0  0  0  0  0  0  0  0  0
   -0.0746   23.7971  -29.2722 H   0  0  0  0  0  0  0  0  0  0  0  0
   -4.7660   25.3340  -27.9500 H   0  0  0  0  0  0  0  0  0  0  0  0
   -7.7512   23.2576  -29.0132 H   0  0  0  0  0  0  0  0  0  0  0  0
   -8.7390   21.1257  -29.8532 H   0  0  0  0  0  0  0  0  0  0  0  0
   -6.2138   17.4184  -34.2904 H   0  0  0  0  0  0  0  0  0  0  0  0
   -7.1225   18.9410  -34.5174 H   0  0  0  0  0  0  0  0  0  0  0  0
   -4.3412   18.7420  -34.4414 H   0  0  0  0  0  0  0  0  0  0  0  0
   -5.2300   20.2375  -34.1285 H   0  0  0  0  0  0  0  0  0  0  0  0
   -3.7389   18.5533  -32.2462 H   0  0  0  0  0  0  0  0  0  0  0  0
   -4.4876   20.1263  -31.9245 H   0  0  0  0  0  0  0  0  0  0  0  0
   -5.4690   17.4185  -31.2843 H   0  0  0  0  0  0  0  0  0  0  0  0
   -6.0930   18.9956  -30.7136 H   0  0  0  0  0  0  0  0  0  0  0  0
   -5.9790   21.1625  -33.1899 H   0  0  0  0  0  0  0  0  0  0  0  0
   -4.9854   23.2883  -32.3447 H   0  0  0  0  0  0  0  0  0  0  0  0
   -4.7041   22.0942  -28.4926 H   0  0  0  0  0  0  0  0  0  0  0  0
   -3.6520   20.0445  -27.5260 H   0  0  0  0  0  0  0  0  0  0  0  0
   -3.1277   19.6611  -29.2287 H   0  0  0  0  0  0  0  0  0  0  0  0
  1  2  1  0
  2  3  1  0
  3  4  1  0
  4  5  1  0
  5  6  2  0
  6  7  1  0
  7  8  1  0
  7  9  2  0
  9 10  1  0
 10 11  1  0
 11 12  2  0
 11 13  2  0
 11 14  1  0
 14 15  2  0
 15 16  1  0
 16 17  2  0
 17 18  1  0
 18 19  2  0
 18 20  2  0
 18 21  1  0
 21 22  1  0
 22 23  1  0
 23 24  1  0
 24 25  1  0
 17 26  1  0
 26 27  2  0
  9 28  1  0
 28 29  2  0
 29 30  1  0
 30  2  1  0
 29  5  1  0
 27 14  1  0
 25 21  1  0
  1 31  1  0
  1 32  1  0
  1 33  1  0
  3 34  1  0
  3 35  1  0
  4 36  1  0
  4 37  1  0
  6 38  1  0
 10 39  1  0
 15 40  1  0
 16 41  1  0
 22 42  1  0
 22 43  1  0
 23 44  1  0
 23 45  1  0
 24 46  1  0
 24 47  1  0
 25 48  1  0
 25 49  1  0
 26 50  1  0
 27 51  1  0
 28 52  1  0
 30 53  1  0
 30 54  1  0
M  CHG  1   8  -1
M  END
>  <UniqueID>  (49) 
48

>  <SMILES>  (49) 
CN1CCc2cc([O-])c(NS(=O)(=O)c3ccc(S(=O)(=O)N4CCCC4)cc3)cc2C1

>  <Energy>  (49) 
64.20199612069992

>  <Genealogy>  (49) 
CN1CCc2cc([O-])c(NS(=O)(=O)c3ccc(S(=O)(=O)N4CCCC4)cc3)cc2C1 (protonated)
CN1CCc2cc([O-])c(NS(=O)(=O)c3ccc(S(=O)(=O)N4CCCC4)cc3)cc2C1 (3D coordinates assigned)
CN1CCc2cc([O-])c(NS(=O)(=O)c3ccc(S(=O)(=O)N4CCCC4)cc3)cc2C1 (nonaromatic ring conformer: 64.20199612069992 kcal/mol)

>  <smiles>  (49) 
CN1CCc2cc(O)c(NS(=O)(=O)c3ccc(S(=O)(=O)N4CCCC4)cc3)cc2C1

>  <score_type>  (49) 
oracle

>  <origin>  (49) 
adgpu

>  <m_score__min__energy>  (49) 
-14.24

>  <m_primary>  (49) 
energy

$$$$
