0:0
     RDKit          3D

 34 35  0  0  0  0  0  0  0  0999 V2000
   -1.5440   20.9460  -30.5510 C   0  0  0  0  0  0  0  0  0  0  0  0
   -2.0170   22.3440  -30.2800 C   0  0  0  0  0  0  0  0  0  0  0  0
   -1.2060   23.1680  -29.5640 N   0  0  0  0  0  0  0  0  0  0  0  0
   -1.5620   24.4450  -29.2810 C   0  0  0  0  0  0  0  0  0  0  0  0
   -0.7890   25.1820  -28.6160 O   0  0  0  0  0  0  0  0  0  0  0  0
   -2.7500   24.9290  -29.7170 N   0  0  0  0  0  0  0  0  0  0  0  0
   -3.6050   24.1570  -30.4360 C   0  0  0  0  0  0  0  0  0  0  0  0
   -4.6940   24.6550  -30.8230 O   0  0  0  0  0  0  0  0  0  0  0  0
   -3.2660   22.8230  -30.7410 C   0  0  0  0  0  0  0  0  0  0  0  0
   -4.3570   21.7880  -31.6930 S   0  0  0  0  0  0  0  0  0  0  0  0
   -4.2090   22.1260  -33.1490 O   0  0  0  0  0  0  0  0  0  0  0  0
   -4.0220   20.3330  -31.5150 O   0  0  0  0  0  0  0  0  0  0  0  0
   -6.0050   22.0620  -31.2050 N   0  0  0  0  0  0  0  0  0  0  0  0
   -6.9240   22.0840  -32.3620 C   0  0  0  0  0  0  0  0  0  0  0  0
   -6.9450   20.6860  -33.0350 C   0  0  0  0  0  0  0  0  0  0  0  0
   -8.1870   19.8420  -32.6970 C   0  0  0  0  0  0  0  0  0  0  0  0
   -8.6610   20.0900  -31.2660 C   0  0  0  0  0  0  0  0  0  0  0  0
   -9.0900   21.5540  -31.0570 C   0  0  0  0  0  0  0  0  0  0  0  0
   -8.3450   22.5520  -31.9690 C   0  0  0  0  0  0  0  0  0  0  0  0
   -1.3684   20.4270  -29.5972 H   0  0  0  0  0  0  0  0  0  0  0  0
   -2.3092   20.4052  -31.1272 H   0  0  0  0  0  0  0  0  0  0  0  0
   -0.6077   20.9809  -31.1272 H   0  0  0  0  0  0  0  0  0  0  0  0
   -6.0320   22.9630  -30.6750 H   0  0  0  0  0  0  0  0  0  0  0  0
   -6.5508   22.8217  -33.0877 H   0  0  0  0  0  0  0  0  0  0  0  0
   -6.9102   20.8274  -34.1253 H   0  0  0  0  0  0  0  0  0  0  0  0
   -6.0742   20.1360  -32.6487 H   0  0  0  0  0  0  0  0  0  0  0  0
   -8.9977   20.1048  -33.3925 H   0  0  0  0  0  0  0  0  0  0  0  0
   -7.9181   18.7796  -32.7919 H   0  0  0  0  0  0  0  0  0  0  0  0
   -9.5178   19.4333  -31.0548 H   0  0  0  0  0  0  0  0  0  0  0  0
   -7.8246   19.8758  -30.5844 H   0  0  0  0  0  0  0  0  0  0  0  0
  -10.1678   21.6333  -31.2620 H   0  0  0  0  0  0  0  0  0  0  0  0
   -8.8413   21.8181  -30.0185 H   0  0  0  0  0  0  0  0  0  0  0  0
   -8.9331   22.6900  -32.8883 H   0  0  0  0  0  0  0  0  0  0  0  0
   -8.2329   23.4879  -31.4020 H   0  0  0  0  0  0  0  0  0  0  0  0
  1  2  1  0
  2  3  1  0
  3  4  1  0
  4  5  2  0
  4  6  1  0
  6  7  1  0
  7  8  2  0
  7  9  1  0
  9 10  1  0
 10 11  2  0
 10 12  2  0
 10 13  1  0
 13 14  1  0
 14 15  1  0
 15 16  1  0
 16 17  1  0
 17 18  1  0
 18 19  1  0
  9  2  2  0
 19 14  1  0
  1 20  1  0
  1 21  1  0
  1 22  1  0
 13 23  1  0
 14 24  1  0
 15 25  1  0
 15 26  1  0
 16 27  1  0
 16 28  1  0
 17 29  1  0
 17 30  1  0
 18 31  1  0
 18 32  1  0
 19 33  1  0
 19 34  1  0
M  CHG  2   3  -1   6  -1
M  END
>  <UniqueID>  (1) 
1

>  <SMILES>  (1) 
Cc1[n-]c(=O)[n-]c(=O)c1S(=O)(=O)NC1CCCCC1

>  <Energy>  (1) 
39.752185519984934

>  <Genealogy>  (1) 
Cc1[n-]c(=O)[n-]c(=O)c1S(=O)(=O)NC1CCCCC1 (protonated)
Cc1[n-]c(=O)[n-]c(=O)c1S(=O)(=O)NC1CCCCC1 (3D coordinates assigned)
Cc1[n-]c(=O)[n-]c(=O)c1S(=O)(=O)NC1CCCCC1 (nonaromatic ring conformer: 39.752185519984934 kcal/mol)

>  <smiles>  (1) 
Cc1[nH]c(=O)[nH]c(=O)c1S(=O)(=O)NC1CCCCC1

>  <score_type>  (1) 
oracle

>  <origin>  (1) 
adgpu

>  <m_score__min__energy>  (1) 
-9.8800000000000008

>  <m_primary>  (1) 
energy

$$$$
1:0
     RDKit          3D

 51 54  0  0  0  0  0  0  0  0999 V2000
    0.0950   26.0870  -23.7240 C   0  0  0  0  0  0  0  0  0  0  0  0
   -0.7940   25.5200  -24.7460 N   0  0  0  0  0  0  0  0  0  0  0  0
   -1.5260   26.5870  -25.4460 C   0  0  0  0  0  0  0  0  0  0  0  0
   -2.6620   25.9490  -26.2460 C   0  0  0  0  0  0  0  0  0  0  0  0
   -2.2050   24.7310  -26.9280 N   0  0  0  0  0  0  0  0  0  0  0  0
   -3.1830   23.8550  -27.5240 C   0  0  0  0  0  0  0  0  0  0  0  0
   -4.2940   23.6870  -26.9520 O   0  0  0  0  0  0  0  0  0  0  0  0
   -2.9140   23.1290  -28.7850 C   0  0  0  0  0  0  0  0  0  0  0  0
   -2.6540   21.7510  -28.7460 C   0  0  0  0  0  0  0  0  0  0  0  0
   -2.4160   21.0410  -29.9250 C   0  0  0  0  0  0  0  0  0  0  0  0
   -2.4380   21.6910  -31.1640 C   0  0  0  0  0  0  0  0  0  0  0  0
   -2.1880   20.9210  -32.3470 N   0  0  0  0  0  0  0  0  0  0  0  0
   -3.2210   19.6790  -32.9790 S   0  0  0  0  0  0  0  0  0  0  0  0
   -3.0650   19.6300  -34.4720 O   0  0  0  0  0  0  0  0  0  0  0  0
   -2.8190   18.3460  -32.4130 O   0  0  0  0  0  0  0  0  0  0  0  0
   -4.9010   20.0510  -32.5970 C   0  0  0  0  0  0  0  0  0  0  0  0
   -5.8090   19.0280  -32.2910 C   0  0  0  0  0  0  0  0  0  0  0  0
   -7.1350   19.3310  -31.9760 C   0  0  0  0  0  0  0  0  0  0  0  0
   -7.5720   20.6630  -31.9750 C   0  0  0  0  0  0  0  0  0  0  0  0
   -8.9050   20.9800  -31.6700 C   0  0  0  0  0  0  0  0  0  0  0  0
   -9.3290   22.3120  -31.6800 C   0  0  0  0  0  0  0  0  0  0  0  0
   -8.4310   23.3330  -31.9940 C   0  0  0  0  0  0  0  0  0  0  0  0
   -7.1000   23.0320  -32.2960 C   0  0  0  0  0  0  0  0  0  0  0  0
   -6.6600   21.7000  -32.2900 C   0  0  0  0  0  0  0  0  0  0  0  0
   -5.3270   21.3850  -32.5930 C   0  0  0  0  0  0  0  0  0  0  0  0
   -2.7170   23.0670  -31.2100 C   0  0  0  0  0  0  0  0  0  0  0  0
   -2.9690   23.7800  -30.0330 C   0  0  0  0  0  0  0  0  0  0  0  0
   -3.3100   25.1260  -30.1190 O   0  0  0  0  0  0  0  0  0  0  0  0
   -0.7660   24.4430  -27.0350 C   0  0  0  0  0  0  0  0  0  0  0  0
   -0.0300   24.6790  -25.6950 C   0  0  0  0  0  0  0  0  0  0  0  0
   -0.2916   25.8404  -22.7241 H   0  0  0  0  0  0  0  0  0  0  0  0
    1.1042   25.6654  -23.8412 H   0  0  0  0  0  0  0  0  0  0  0  0
    0.1383   27.1799  -23.8412 H   0  0  0  0  0  0  0  0  0  0  0  0
   -1.9399   27.2956  -24.7135 H   0  0  0  0  0  0  0  0  0  0  0  0
   -0.8479   27.1305  -26.1204 H   0  0  0  0  0  0  0  0  0  0  0  0
   -3.4837   25.6914  -25.5615 H   0  0  0  0  0  0  0  0  0  0  0  0
   -3.0040   26.6685  -27.0045 H   0  0  0  0  0  0  0  0  0  0  0  0
   -2.6374   21.2257  -27.7797 H   0  0  0  0  0  0  0  0  0  0  0  0
   -2.2095   19.9615  -29.8792 H   0  0  0  0  0  0  0  0  0  0  0  0
   -5.4748   17.9800  -32.2991 H   0  0  0  0  0  0  0  0  0  0  0  0
   -7.8385   18.5226  -31.7280 H   0  0  0  0  0  0  0  0  0  0  0  0
   -9.6171   20.1789  -31.4227 H   0  0  0  0  0  0  0  0  0  0  0  0
  -10.3742   22.5562  -31.4395 H   0  0  0  0  0  0  0  0  0  0  0  0
   -8.7720   24.3788  -32.0039 H   0  0  0  0  0  0  0  0  0  0  0  0
   -6.3959   23.8414  -32.5389 H   0  0  0  0  0  0  0  0  0  0  0  0
   -4.6138   22.1887  -32.8283 H   0  0  0  0  0  0  0  0  0  0  0  0
   -2.7375   23.5878  -32.1787 H   0  0  0  0  0  0  0  0  0  0  0  0
   -0.6347   23.3922  -27.3328 H   0  0  0  0  0  0  0  0  0  0  0  0
   -0.3366   25.1239  -27.7847 H   0  0  0  0  0  0  0  0  0  0  0  0
    0.1576   23.7031  -25.2234 H   0  0  0  0  0  0  0  0  0  0  0  0
    0.9026   25.2146  -25.9261 H   0  0  0  0  0  0  0  0  0  0  0  0
  1  2  1  0
  2  3  1  0
  3  4  1  0
  4  5  1  0
  5  6  1  0
  6  7  2  0
  6  8  1  0
  8  9  2  0
  9 10  1  0
 10 11  2  0
 11 12  1  0
 12 13  1  0
 13 14  2  0
 13 15  2  0
 13 16  1  0
 16 17  2  0
 17 18  1  0
 18 19  2  0
 19 20  1  0
 20 21  2  0
 21 22  1  0
 22 23  2  0
 23 24  1  0
 24 25  2  0
 11 26  1  0
 26 27  2  0
 27 28  1  0
  5 29  1  0
 29 30  1  0
 30  2  1  0
 27  8  1  0
 25 16  1  0
 24 19  1  0
  1 31  1  0
  1 32  1  0
  1 33  1  0
  3 34  1  0
  3 35  1  0
  4 36  1  0
  4 37  1  0
  9 38  1  0
 10 39  1  0
 17 40  1  0
 18 41  1  0
 20 42  1  0
 21 43  1  0
 22 44  1  0
 23 45  1  0
 25 46  1  0
 26 47  1  0
 29 48  1  0
 29 49  1  0
 30 50  1  0
 30 51  1  0
M  CHG  2  12  -1  28  -1
M  END
>  <UniqueID>  (2) 
2

>  <SMILES>  (2) 
CN1CCN(C(=O)c2ccc([N-]S(=O)(=O)c3ccc4ccccc4c3)cc2[O-])CC1

>  <Energy>  (2) 
72.13285007542478

>  <Genealogy>  (2) 
CN1CCN(C(=O)c2ccc([N-]S(=O)(=O)c3ccc4ccccc4c3)cc2[O-])CC1 (protonated)
CN1CCN(C(=O)c2ccc([N-]S(=O)(=O)c3ccc4ccccc4c3)cc2[O-])CC1 (3D coordinates assigned)
CN1CCN(C(=O)c2ccc([N-]S(=O)(=O)c3ccc4ccccc4c3)cc2[O-])CC1 (nonaromatic ring conformer: 72.13285007542478 kcal/mol)

>  <smiles>  (2) 
CN1CCN(C(=O)c2ccc(NS(=O)(=O)c3ccc4ccccc4c3)cc2O)CC1

>  <score_type>  (2) 
oracle

>  <origin>  (2) 
adgpu

>  <m_score__min__energy>  (2) 
-13.51

>  <m_primary>  (2) 
energy

$$$$
2:0
     RDKit          3D

 44 46  0  0  0  0  0  0  0  0999 V2000
   -7.1650   18.6810  -32.9620 C   0  0  0  0  0  0  0  0  0  0  0  0
   -6.6000   19.8680  -33.5100 O   0  0  0  0  0  0  0  0  0  0  0  0
   -6.3120   21.0310  -32.7790 C   0  0  0  0  0  0  0  0  0  0  0  0
   -4.9960   21.5330  -32.7050 C   0  0  0  0  0  0  0  0  0  0  0  0
   -4.7100   22.6790  -31.9610 C   0  0  0  0  0  0  0  0  0  0  0  0
   -5.7300   23.3460  -31.2790 C   0  0  0  0  0  0  0  0  0  0  0  0
   -5.3710   24.7370  -30.2560 S   0  0  0  0  0  0  0  0  0  0  0  0
   -4.3190   25.6090  -30.8850 O   0  0  0  0  0  0  0  0  0  0  0  0
   -6.6270   25.5400  -30.0710 O   0  0  0  0  0  0  0  0  0  0  0  0
   -4.8090   24.1850  -28.7100 N   0  0  0  0  0  0  0  0  0  0  0  0
   -3.6290   23.3910  -28.5120 C   0  0  0  0  0  0  0  0  0  0  0  0
   -3.7000   22.0780  -28.0140 C   0  0  0  0  0  0  0  0  0  0  0  0
   -2.5310   21.3470  -27.7590 C   0  0  0  0  0  0  0  0  0  0  0  0
   -1.2750   21.9170  -28.0450 C   0  0  0  0  0  0  0  0  0  0  0  0
   -1.2080   23.2180  -28.5640 C   0  0  0  0  0  0  0  0  0  0  0  0
   -2.3790   23.9500  -28.8070 C   0  0  0  0  0  0  0  0  0  0  0  0
   -2.3030   25.2400  -29.3280 O   0  0  0  0  0  0  0  0  0  0  0  0
    0.0010   21.1900  -27.6890 C   0  0  0  0  0  0  0  0  0  0  0  0
   -0.1980   19.7390  -27.5830 N   0  0  0  0  0  0  0  0  0  0  0  0
   -1.3150   19.4310  -26.6790 C   0  0  0  0  0  0  0  0  0  0  0  0
   -2.6420   19.9290  -27.2610 C   0  0  0  0  0  0  0  0  0  0  0  0
   -7.0410   22.8670  -31.3580 C   0  0  0  0  0  0  0  0  0  0  0  0
   -7.3490   21.7170  -32.0960 C   0  0  0  0  0  0  0  0  0  0  0  0
   -8.6970   21.3150  -32.1010 O   0  0  0  0  0  0  0  0  0  0  0  0
   -9.6650   21.5940  -31.0950 C   0  0  0  0  0  0  0  0  0  0  0  0
   -7.1390   18.7357  -31.8637 H   0  0  0  0  0  0  0  0  0  0  0  0
   -8.2072   18.5813  -33.2995 H   0  0  0  0  0  0  0  0  0  0  0  0
   -6.5852   17.8093  -33.2995 H   0  0  0  0  0  0  0  0  0  0  0  0
   -4.1858   21.0156  -33.2396 H   0  0  0  0  0  0  0  0  0  0  0  0
   -3.6784   23.0577  -31.9118 H   0  0  0  0  0  0  0  0  0  0  0  0
   -4.6817   21.6201  -27.8227 H   0  0  0  0  0  0  0  0  0  0  0  0
   -0.2284   23.6682  -28.7824 H   0  0  0  0  0  0  0  0  0  0  0  0
   -3.1140   25.7040  -29.7190 H   0  0  0  0  0  0  0  0  0  0  0  0
    0.7511   21.3886  -28.4687 H   0  0  0  0  0  0  0  0  0  0  0  0
    0.3362   21.5573  -26.7078 H   0  0  0  0  0  0  0  0  0  0  0  0
   -0.4110   19.3630  -28.5380 H   0  0  0  0  0  0  0  0  0  0  0  0
   -1.3713   18.3421  -26.5340 H   0  0  0  0  0  0  0  0  0  0  0  0
   -1.1400   19.9377  -25.7185 H   0  0  0  0  0  0  0  0  0  0  0  0
   -2.9312   19.2778  -28.0990 H   0  0  0  0  0  0  0  0  0  0  0  0
   -3.3994   19.9023  -26.4637 H   0  0  0  0  0  0  0  0  0  0  0  0
   -7.8447   23.4025  -30.8314 H   0  0  0  0  0  0  0  0  0  0  0  0
   -9.2101   21.4629  -30.1021 H   0  0  0  0  0  0  0  0  0  0  0  0
  -10.0176   22.6303  -31.2028 H   0  0  0  0  0  0  0  0  0  0  0  0
  -10.5151   20.9043  -31.2028 H   0  0  0  0  0  0  0  0  0  0  0  0
  1  2  1  0
  2  3  1  0
  3  4  2  0
  4  5  1  0
  5  6  2  0
  6  7  1  0
  7  8  2  0
  7  9  2  0
  7 10  1  0
 10 11  1  0
 11 12  2  0
 12 13  1  0
 13 14  2  0
 14 15  1  0
 15 16  2  0
 16 17  1  0
 14 18  1  0
 18 19  1  0
 19 20  1  0
 20 21  1  0
  6 22  1  0
 22 23  2  0
 23 24  1  0
 24 25  1  0
 23  3  1  0
 16 11  1  0
 21 13  1  0
  1 26  1  0
  1 27  1  0
  1 28  1  0
  4 29  1  0
  5 30  1  0
 12 31  1  0
 15 32  1  0
 17 33  1  0
 18 34  1  0
 18 35  1  0
 19 36  1  0
 20 37  1  0
 20 38  1  0
 21 39  1  0
 21 40  1  0
 22 41  1  0
 25 42  1  0
 25 43  1  0
 25 44  1  0
M  CHG  1  10  -1
M  END
>  <UniqueID>  (3) 
3

>  <SMILES>  (3) 
COc1ccc(S(=O)(=O)[N-]c2cc3c(cc2O)CNCC3)cc1OC

>  <Energy>  (3) 
51.93497156422402

>  <Genealogy>  (3) 
COc1ccc(S(=O)(=O)[N-]c2cc3c(cc2O)CNCC3)cc1OC (protonated)
COc1ccc(S(=O)(=O)[N-]c2cc3c(cc2O)CNCC3)cc1OC (3D coordinates assigned)
COc1ccc(S(=O)(=O)[N-]c2cc3c(cc2O)CNCC3)cc1OC (nonaromatic ring conformer: 51.93497156422402 kcal/mol)

>  <smiles>  (3) 
COc1ccc(S(=O)(=O)Nc2cc3c(cc2O)CNCC3)cc1OC

>  <score_type>  (3) 
oracle

>  <origin>  (3) 
adgpu

>  <m_score__min__energy>  (3) 
-10.4

>  <m_primary>  (3) 
energy

$$$$
3:0
     RDKit          3D

 44 47  0  0  0  0  0  0  0  0999 V2000
   -0.5312   20.5688  -28.0736 H   0  0  0  0  0  0  0  0  0  0  0  0
   -1.1810   21.2530  -28.6390 C   0  0  0  0  0  0  0  0  0  0  0  0
   -0.7200   21.8630  -29.7600 N   0  0  0  0  0  0  0  0  0  0  0  0
   -1.4880   22.6970  -30.4650 N   0  0  0  0  0  0  0  0  0  0  0  0
   -2.7680   22.9780  -30.0990 C   0  0  0  0  0  0  0  0  0  0  0  0
   -3.4590   23.8000  -30.8340 N   0  0  0  0  0  0  0  0  0  0  0  0
   -5.1000   24.3030  -30.5600 S   0  0  0  0  0  0  0  0  0  0  0  0
   -5.3430   24.4070  -29.0800 O   0  0  0  0  0  0  0  0  0  0  0  0
   -5.3240   25.6350  -31.2200 O   0  0  0  0  0  0  0  0  0  0  0  0
   -6.2290   23.1210  -31.2480 C   0  0  0  0  0  0  0  0  0  0  0  0
   -7.6080   23.3380  -31.0900 C   0  0  0  0  0  0  0  0  0  0  0  0
   -7.9596   24.2301  -30.5509 H   0  0  0  0  0  0  0  0  0  0  0  0
   -8.5370   22.4350  -31.6090 C   0  0  0  0  0  0  0  0  0  0  0  0
   -9.6132   22.6199  -31.4763 H   0  0  0  0  0  0  0  0  0  0  0  0
   -8.1080   21.3010  -32.2940 C   0  0  0  0  0  0  0  0  0  0  0  0
   -8.8458   20.5933  -32.6999 H   0  0  0  0  0  0  0  0  0  0  0  0
   -6.7430   21.0600  -32.4670 C   0  0  0  0  0  0  0  0  0  0  0  0
   -6.3400   19.9480  -33.1350 N   0  0  0  0  0  0  0  0  0  0  0  0
   -5.0290   19.6620  -33.3360 C   0  0  0  0  0  0  0  0  0  0  0  0
   -4.7451   18.7490  -33.8800 H   0  0  0  0  0  0  0  0  0  0  0  0
   -4.0350   20.5240  -32.8540 C   0  0  0  0  0  0  0  0  0  0  0  0
   -2.6400   20.2170  -33.0510 N   0  0  0  0  0  0  0  0  0  0  0  0
   -2.0840   18.9230  -32.6390 C   0  0  0  0  0  0  0  0  0  0  0  0
   -2.8376   18.3763  -32.0531 H   0  0  0  0  0  0  0  0  0  0  0  0
   -1.8124   18.3521  -33.5392 H   0  0  0  0  0  0  0  0  0  0  0  0
   -0.8200   19.1220  -31.7780 C   0  0  0  0  0  0  0  0  0  0  0  0
   -1.1132   19.0971  -30.7181 H   0  0  0  0  0  0  0  0  0  0  0  0
   -0.1215   18.3126  -32.0367 H   0  0  0  0  0  0  0  0  0  0  0  0
   -0.1220   20.4000  -32.0410 N   0  0  0  0  0  0  0  0  0  0  0  0
   -0.4870   21.1370  -31.3910 H   0  0  0  0  0  0  0  0  0  0  0  0
    0.8980   20.2790  -31.8430 H   0  0  0  0  0  0  0  0  0  0  0  0
   -0.2840   20.8580  -33.4280 C   0  0  0  0  0  0  0  0  0  0  0  0
    0.3270   21.7588  -33.5868 H   0  0  0  0  0  0  0  0  0  0  0  0
    0.0410   20.0585  -34.1101 H   0  0  0  0  0  0  0  0  0  0  0  0
   -1.7560   21.1880  -33.7090 C   0  0  0  0  0  0  0  0  0  0  0  0
   -1.9793   22.1956  -33.3283 H   0  0  0  0  0  0  0  0  0  0  0  0
   -1.9276   21.1438  -34.7946 H   0  0  0  0  0  0  0  0  0  0  0  0
   -4.4230   21.6750  -32.1520 C   0  0  0  0  0  0  0  0  0  0  0  0
   -3.6553   22.3570  -31.7577 H   0  0  0  0  0  0  0  0  0  0  0  0
   -5.7860   21.9660  -31.9470 C   0  0  0  0  0  0  0  0  0  0  0  0
   -3.2890   22.3690  -28.9420 C   0  0  0  0  0  0  0  0  0  0  0  0
   -4.3199   22.5764  -28.6192 H   0  0  0  0  0  0  0  0  0  0  0  0
   -2.4810   21.4990  -28.2100 C   0  0  0  0  0  0  0  0  0  0  0  0
   -2.8680   21.0124  -27.3026 H   0  0  0  0  0  0  0  0  0  0  0  0
  1  2  1  0
  2  3  2  0
  3  4  1  0
  4  5  1  0
  5  6  2  0
  6  7  1  0
  7  8  2  0
  7  9  2  0
  7 10  1  0
 10 11  2  0
 11 12  1  0
 11 13  1  0
 13 14  1  0
 13 15  2  0
 15 16  1  0
 15 17  1  0
 17 18  2  0
 18 19  1  0
 19 20  1  0
 19 21  2  0
 21 22  1  0
 22 23  1  0
 23 24  1  0
 23 25  1  0
 23 26  1  0
 26 27  1  0
 26 28  1  0
 26 29  1  0
 29 30  1  0
 29 31  1  0
 29 32  1  0
 32 33  1  0
 32 34  1  0
 32 35  1  0
 35 36  1  0
 35 37  1  0
 21 38  1  0
 38 39  1  0
 38 40  2  0
  5 41  1  0
 41 42  1  0
 41 43  2  0
 43 44  1  0
 43  2  1  0
 40 10  1  0
 40 17  1  0
 35 22  1  0
M  CHG  2   4  -1  29   1
M  END
>  <UniqueID>  (4) 
4

>  <SMILES>  (4) 
O=S(=O)(/N=c1\cccn[n-]1)c1cccc2ncc(N3CC[NH2+]CC3)cc12

>  <Energy>  (4) 
69.26119984491139

>  <Genealogy>  (4) 
O=S(=O)(N=c1cccn[n-]1)c1cccc2ncc(N3CC[NH2+]CC3)cc12 (protonated)
O=S(=O)(/N=c1\cccn[n-]1)c1cccc2ncc(N3CC[NH2+]CC3)cc12 (cis-trans isomerization)
O=S(=O)(/N=c1\cccn[n-]1)c1cccc2ncc(N3CC[NH2+]CC3)cc12 (3D coordinates assigned)
O=S(=O)(/N=c1\cccn[n-]1)c1cccc2ncc(N3CC[NH2+]CC3)cc12 (nonaromatic ring conformer: 69.26119984491139 kcal/mol)

>  <smiles>  (4) 
O=S(=O)(N=c1cccn[nH]1)c1cccc2ncc(N3CCNCC3)cc12

>  <score_type>  (4) 
oracle

>  <origin>  (4) 
adgpu

>  <m_score__min__energy>  (4) 
-8.1999999999999993

>  <m_primary>  (4) 
energy

$$$$
4:0
     RDKit          3D

 55 57  0  0  0  0  0  0  0  0999 V2000
   -0.0790   27.2750  -27.0010 C   0  0  0  0  0  0  0  0  0  0  0  0
   -0.0560   26.1040  -26.1130 N   0  0  0  0  0  0  0  0  0  0  0  0
   -1.3170   26.0210  -25.3640 C   0  0  0  0  0  0  0  0  0  0  0  0
    0.1530   24.6500  -27.0610 S   0  0  0  0  0  0  0  0  0  0  0  0
    0.6640   23.5450  -26.1790 O   0  0  0  0  0  0  0  0  0  0  0  0
    1.1440   24.9010  -28.1640 O   0  0  0  0  0  0  0  0  0  0  0  0
   -1.3770   24.1660  -27.7980 C   0  0  0  0  0  0  0  0  0  0  0  0
   -2.0540   23.0340  -27.3190 C   0  0  0  0  0  0  0  0  0  0  0  0
   -3.2590   22.6360  -27.8980 C   0  0  0  0  0  0  0  0  0  0  0  0
   -3.8190   23.3830  -28.9350 C   0  0  0  0  0  0  0  0  0  0  0  0
   -3.1910   24.5490  -29.3870 C   0  0  0  0  0  0  0  0  0  0  0  0
   -3.8120   25.2980  -30.4400 N   0  0  0  0  0  0  0  0  0  0  0  0
   -5.2020   25.2480  -30.7730 C   0  0  0  0  0  0  0  0  0  0  0  0
   -6.0360   25.7880  -30.0020 O   0  0  0  0  0  0  0  0  0  0  0  0
   -5.6380   24.5840  -31.9680 N   0  0  0  0  0  0  0  0  0  0  0  0
   -6.2330   23.2820  -32.0490 C   0  0  0  0  0  0  0  0  0  0  0  0
   -7.6300   23.1780  -32.0330 C   0  0  0  0  0  0  0  0  0  0  0  0
   -8.2480   21.9260  -32.0960 C   0  0  0  0  0  0  0  0  0  0  0  0
   -7.4740   20.7600  -32.1470 C   0  0  0  0  0  0  0  0  0  0  0  0
   -8.2560   19.1780  -32.2180 S   0  0  0  0  0  0  0  0  0  0  0  0
   -9.4740   19.2650  -33.0970 O   0  0  0  0  0  0  0  0  0  0  0  0
   -8.7080   18.7920  -30.8380 O   0  0  0  0  0  0  0  0  0  0  0  0
   -7.1800   17.9520  -32.8420 N   0  0  0  0  0  0  0  0  0  0  0  0
   -6.2390   17.5130  -31.8010 C   0  0  0  0  0  0  0  0  0  0  0  0
   -5.4890   16.2520  -32.2650 C   0  0  0  0  0  0  0  0  0  0  0  0
   -5.3500   16.1830  -33.7970 C   0  0  0  0  0  0  0  0  0  0  0  0
   -5.2450   17.5830  -34.4080 C   0  0  0  0  0  0  0  0  0  0  0  0
   -6.4640   18.4580  -34.0330 C   0  0  0  0  0  0  0  0  0  0  0  0
   -6.0760   20.8590  -32.1380 C   0  0  0  0  0  0  0  0  0  0  0  0
   -5.4570   22.1100  -32.0840 C   0  0  0  0  0  0  0  0  0  0  0  0
   -1.9470   24.9250  -28.8390 C   0  0  0  0  0  0  0  0  0  0  0  0
   -1.2700   26.0310  -29.3390 O   0  0  0  0  0  0  0  0  0  0  0  0
   -0.0970   28.1936  -26.3961 H   0  0  0  0  0  0  0  0  0  0  0  0
    0.8194   27.2715  -27.6357 H   0  0  0  0  0  0  0  0  0  0  0  0
   -0.9766   27.2363  -27.6357 H   0  0  0  0  0  0  0  0  0  0  0  0
   -1.1041   26.0350  -24.2849 H   0  0  0  0  0  0  0  0  0  0  0  0
   -1.9546   26.8791  -25.6231 H   0  0  0  0  0  0  0  0  0  0  0  0
   -1.8366   25.0867  -25.6231 H   0  0  0  0  0  0  0  0  0  0  0  0
   -1.6322   22.4575  -26.4825 H   0  0  0  0  0  0  0  0  0  0  0  0
   -3.7690   21.7310  -27.5362 H   0  0  0  0  0  0  0  0  0  0  0  0
   -4.7598   23.0533  -29.4000 H   0  0  0  0  0  0  0  0  0  0  0  0
   -8.2448   24.0880  -31.9704 H   0  0  0  0  0  0  0  0  0  0  0  0
   -9.3457   21.8563  -32.1056 H   0  0  0  0  0  0  0  0  0  0  0  0
   -5.5136   18.3161  -31.6040 H   0  0  0  0  0  0  0  0  0  0  0  0
   -6.7993   17.2818  -30.8831 H   0  0  0  0  0  0  0  0  0  0  0  0
   -4.4836   16.2545  -31.8187 H   0  0  0  0  0  0  0  0  0  0  0  0
   -6.0713   15.3768  -31.9410 H   0  0  0  0  0  0  0  0  0  0  0  0
   -4.4440   15.6126  -34.0496 H   0  0  0  0  0  0  0  0  0  0  0  0
   -6.2450   15.6912  -34.2058 H   0  0  0  0  0  0  0  0  0  0  0  0
   -4.3297   18.0672  -34.0369 H   0  0  0  0  0  0  0  0  0  0  0  0
   -5.2174   17.4806  -35.5029 H   0  0  0  0  0  0  0  0  0  0  0  0
   -6.1142   19.4802  -33.8263 H   0  0  0  0  0  0  0  0  0  0  0  0
   -7.1656   18.4339  -34.8798 H   0  0  0  0  0  0  0  0  0  0  0  0
   -5.4628   19.9464  -32.1737 H   0  0  0  0  0  0  0  0  0  0  0  0
   -4.3592   22.1785  -32.0688 H   0  0  0  0  0  0  0  0  0  0  0  0
  1  2  1  0
  2  3  1  0
  2  4  1  0
  4  5  2  0
  4  6  2  0
  4  7  1  0
  7  8  2  0
  8  9  1  0
  9 10  2  0
 10 11  1  0
 11 12  1  0
 12 13  1  0
 13 14  2  0
 13 15  1  0
 15 16  1  0
 16 17  2  0
 17 18  1  0
 18 19  2  0
 19 20  1  0
 20 21  2  0
 20 22  2  0
 20 23  1  0
 23 24  1  0
 24 25  1  0
 25 26  1  0
 26 27  1  0
 27 28  1  0
 19 29  1  0
 29 30  2  0
 11 31  2  0
 31 32  1  0
 31  7  1  0
 30 16  1  0
 28 23  1  0
  1 33  1  0
  1 34  1  0
  1 35  1  0
  3 36  1  0
  3 37  1  0
  3 38  1  0
  8 39  1  0
  9 40  1  0
 10 41  1  0
 17 42  1  0
 18 43  1  0
 24 44  1  0
 24 45  1  0
 25 46  1  0
 25 47  1  0
 26 48  1  0
 26 49  1  0
 27 50  1  0
 27 51  1  0
 28 52  1  0
 28 53  1  0
 29 54  1  0
 30 55  1  0
M  CHG  3  12  -1  15  -1  32  -1
M  END
>  <UniqueID>  (5) 
5

>  <SMILES>  (5) 
CN(C)S(=O)(=O)c1cccc([N-]C(=O)[N-]c2ccc(S(=O)(=O)N3CCCCC3)cc2)c1[O-]

>  <Energy>  (5) 
66.52135525741171

>  <Genealogy>  (5) 
CN(C)S(=O)(=O)c1cccc([N-]C(=O)[N-]c2ccc(S(=O)(=O)N3CCCCC3)cc2)c1[O-] (protonated)
CN(C)S(=O)(=O)c1cccc([N-]C(=O)[N-]c2ccc(S(=O)(=O)N3CCCCC3)cc2)c1[O-] (3D coordinates assigned)
CN(C)S(=O)(=O)c1cccc([N-]C(=O)[N-]c2ccc(S(=O)(=O)N3CCCCC3)cc2)c1[O-] (nonaromatic ring conformer: 66.52135525741171 kcal/mol)

>  <smiles>  (5) 
CN(C)S(=O)(=O)c1cccc(NC(=O)Nc2ccc(S(=O)(=O)N3CCCCC3)cc2)c1O

>  <score_type>  (5) 
oracle

>  <origin>  (5) 
adgpu

>  <m_score__min__energy>  (5) 
-16.960000000000001

>  <m_primary>  (5) 
energy

$$$$
5:0
     RDKit          3D

 60 63  0  0  0  0  0  0  0  0999 V2000
   -4.0370   23.1030  -31.7390 O   0  0  0  0  0  0  0  0  0  0  0  0
   -4.9020   22.8280  -30.8620 C   0  0  0  0  0  0  0  0  0  0  0  0
   -4.5330   22.8120  -29.4700 N   0  0  0  0  0  0  0  0  0  0  0  0
   -3.2810   23.3140  -28.9670 C   0  0  0  0  0  0  0  0  0  0  0  0
   -2.5090   22.5630  -28.0600 C   0  0  0  0  0  0  0  0  0  0  0  0
   -1.2840   23.0590  -27.5880 C   0  0  0  0  0  0  0  0  0  0  0  0
   -0.3400   22.1310  -26.4200 S   0  0  0  0  0  0  0  0  0  0  0  0
   -1.2460   21.1710  -25.6990 O   0  0  0  0  0  0  0  0  0  0  0  0
    0.6970   21.3260  -27.1530 O   0  0  0  0  0  0  0  0  0  0  0  0
    0.4510   23.1680  -25.2510 N   0  0  0  0  0  0  0  0  0  0  0  0
    1.4420   24.0550  -25.9010 C   0  0  0  0  0  0  0  0  0  0  0  0
    1.6010   25.3890  -25.1700 C   0  0  0  0  0  0  0  0  0  0  0  0
    0.2710   26.1460  -25.1760 C   0  0  0  0  0  0  0  0  0  0  0  0
   -0.9250   25.2410  -24.8130 C   0  0  0  0  0  0  0  0  0  0  0  0
   -0.5140   23.8330  -24.3480 C   0  0  0  0  0  0  0  0  0  0  0  0
   -0.8130   24.2960  -28.0510 C   0  0  0  0  0  0  0  0  0  0  0  0
   -1.5590   25.0350  -28.9710 C   0  0  0  0  0  0  0  0  0  0  0  0
   -2.7860   24.5490  -29.4310 C   0  0  0  0  0  0  0  0  0  0  0  0
   -3.5150   25.3040  -30.3430 O   0  0  0  0  0  0  0  0  0  0  0  0
   -6.2890   22.5250  -31.2900 C   0  0  0  0  0  0  0  0  0  0  0  0
   -7.1970   23.5770  -31.4890 C   0  0  0  0  0  0  0  0  0  0  0  0
   -8.5160   23.3110  -31.8670 C   0  0  0  0  0  0  0  0  0  0  0  0
   -8.9400   21.9970  -32.0640 C   0  0  0  0  0  0  0  0  0  0  0  0
   -8.0410   20.9360  -31.8960 C   0  0  0  0  0  0  0  0  0  0  0  0
   -8.5680   19.2750  -32.1800 S   0  0  0  0  0  0  0  0  0  0  0  0
   -9.8660   19.2950  -32.9340 O   0  0  0  0  0  0  0  0  0  0  0  0
   -8.8080   18.5980  -30.8600 O   0  0  0  0  0  0  0  0  0  0  0  0
   -7.3880   18.3630  -33.0840 N   0  0  0  0  0  0  0  0  0  0  0  0
   -6.5140   19.2670  -33.8550 C   0  0  0  0  0  0  0  0  0  0  0  0
   -5.2930   18.5130  -34.4120 C   0  0  0  0  0  0  0  0  0  0  0  0
   -5.4990   17.1130  -34.3570 O   0  0  0  0  0  0  0  0  0  0  0  0
   -5.5790   16.6910  -33.0040 C   0  0  0  0  0  0  0  0  0  0  0  0
   -6.5910   17.5200  -32.1840 C   0  0  0  0  0  0  0  0  0  0  0  0
   -6.7170   21.2020  -31.5070 C   0  0  0  0  0  0  0  0  0  0  0  0
   -5.1890   22.3880  -28.7760 H   0  0  0  0  0  0  0  0  0  0  0  0
   -2.8685   21.5809  -27.7191 H   0  0  0  0  0  0  0  0  0  0  0  0
    2.4158   23.5436  -25.9180 H   0  0  0  0  0  0  0  0  0  0  0  0
    1.0815   24.2713  -26.9175 H   0  0  0  0  0  0  0  0  0  0  0  0
    1.9096   25.2014  -24.1310 H   0  0  0  0  0  0  0  0  0  0  0  0
    2.3650   25.9937  -25.6805 H   0  0  0  0  0  0  0  0  0  0  0  0
    0.3281   26.9656  -24.4445 H   0  0  0  0  0  0  0  0  0  0  0  0
    0.1064   26.5249  -26.1955 H   0  0  0  0  0  0  0  0  0  0  0  0
   -1.4923   25.7228  -24.0030 H   0  0  0  0  0  0  0  0  0  0  0  0
   -1.5241   25.1165  -25.7271 H   0  0  0  0  0  0  0  0  0  0  0  0
   -0.0567   23.9159  -23.3510 H   0  0  0  0  0  0  0  0  0  0  0  0
   -1.4255   23.2173  -24.3410 H   0  0  0  0  0  0  0  0  0  0  0  0
    0.1491   24.6861  -27.6875 H   0  0  0  0  0  0  0  0  0  0  0  0
   -1.1803   26.0017  -29.3346 H   0  0  0  0  0  0  0  0  0  0  0  0
   -6.8684   24.6170  -31.3466 H   0  0  0  0  0  0  0  0  0  0  0  0
   -9.2228   24.1417  -32.0098 H   0  0  0  0  0  0  0  0  0  0  0  0
   -9.9820   21.7935  -32.3518 H   0  0  0  0  0  0  0  0  0  0  0  0
   -7.0863   19.6928  -34.6923 H   0  0  0  0  0  0  0  0  0  0  0  0
   -6.1578   20.0643  -33.1861 H   0  0  0  0  0  0  0  0  0  0  0  0
   -5.1301   18.8128  -35.4577 H   0  0  0  0  0  0  0  0  0  0  0  0
   -4.4139   18.7645  -33.8005 H   0  0  0  0  0  0  0  0  0  0  0  0
   -5.8876   15.6354  -32.9816 H   0  0  0  0  0  0  0  0  0  0  0  0
   -4.5867   16.8325  -32.5509 H   0  0  0  0  0  0  0  0  0  0  0  0
   -7.2584   16.8408  -31.6333 H   0  0  0  0  0  0  0  0  0  0  0  0
   -6.0461   18.1599  -31.4744 H   0  0  0  0  0  0  0  0  0  0  0  0
   -6.0102   20.3702  -31.3712 H   0  0  0  0  0  0  0  0  0  0  0  0
  1  2  2  0
  2  3  1  0
  3  4  1  0
  4  5  2  0
  5  6  1  0
  6  7  1  0
  7  8  2  0
  7  9  2  0
  7 10  1  0
 10 11  1  0
 11 12  1  0
 12 13  1  0
 13 14  1  0
 14 15  1  0
  6 16  2  0
 16 17  1  0
 17 18  2  0
 18 19  1  0
  2 20  1  0
 20 21  2  0
 21 22  1  0
 22 23  2  0
 23 24  1  0
 24 25  1  0
 25 26  2  0
 25 27  2  0
 25 28  1  0
 28 29  1  0
 29 30  1  0
 30 31  1  0
 31 32  1  0
 32 33  1  0
 24 34  2  0
 18  4  1  0
 34 20  1  0
 15 10  1  0
 33 28  1  0
  3 35  1  0
  5 36  1  0
 11 37  1  0
 11 38  1  0
 12 39  1  0
 12 40  1  0
 13 41  1  0
 13 42  1  0
 14 43  1  0
 14 44  1  0
 15 45  1  0
 15 46  1  0
 16 47  1  0
 17 48  1  0
 21 49  1  0
 22 50  1  0
 23 51  1  0
 29 52  1  0
 29 53  1  0
 30 54  1  0
 30 55  1  0
 32 56  1  0
 32 57  1  0
 33 58  1  0
 33 59  1  0
 34 60  1  0
M  CHG  1  19  -1
M  END
>  <UniqueID>  (6) 
6

>  <SMILES>  (6) 
O=C(Nc1cc(S(=O)(=O)N2CCCCC2)ccc1[O-])c1cccc(S(=O)(=O)N2CCOCC2)c1

>  <Energy>  (6) 
82.52347453803294

>  <Genealogy>  (6) 
O=C(Nc1cc(S(=O)(=O)N2CCCCC2)ccc1[O-])c1cccc(S(=O)(=O)N2CCOCC2)c1 (protonated)
O=C(Nc1cc(S(=O)(=O)N2CCCCC2)ccc1[O-])c1cccc(S(=O)(=O)N2CCOCC2)c1 (3D coordinates assigned)
O=C(Nc1cc(S(=O)(=O)N2CCCCC2)ccc1[O-])c1cccc(S(=O)(=O)N2CCOCC2)c1 (nonaromatic ring conformer: 82.52347453803294 kcal/mol)

>  <smiles>  (6) 
O=C(Nc1cc(S(=O)(=O)N2CCCCC2)ccc1O)c1cccc(S(=O)(=O)N2CCOCC2)c1

>  <score_type>  (6) 
oracle

>  <origin>  (6) 
adgpu

>  <m_score__min__energy>  (6) 
-14.619999999999999

>  <m_primary>  (6) 
energy

$$$$
6:0
     RDKit          3D

 70 74  0  0  0  0  0  0  0  0999 V2000
    0.7570   17.5520  -28.6170 O   0  0  0  0  0  0  0  0  0  0  0  0
    0.8650   18.7540  -28.9810 C   0  0  0  0  0  0  0  0  0  0  0  0
    0.6980   19.8110  -28.0280 N   0  0  0  0  0  0  0  0  0  0  0  0
   -0.4480   20.6650  -27.8890 C   0  0  0  0  0  0  0  0  0  0  0  0
   -1.7540   20.1480  -27.7980 C   0  0  0  0  0  0  0  0  0  0  0  0
   -2.8470   21.0140  -27.7180 C   0  0  0  0  0  0  0  0  0  0  0  0
   -2.6520   22.3970  -27.7430 C   0  0  0  0  0  0  0  0  0  0  0  0
   -1.3570   22.9250  -27.8360 C   0  0  0  0  0  0  0  0  0  0  0  0
   -1.1100   24.6740  -27.8880 S   0  0  0  0  0  0  0  0  0  0  0  0
   -1.9420   25.2530  -28.9980 O   0  0  0  0  0  0  0  0  0  0  0  0
    0.3340   24.9520  -28.1950 O   0  0  0  0  0  0  0  0  0  0  0  0
   -1.5310   25.4610  -26.3860 N   0  0  0  0  0  0  0  0  0  0  0  0
   -1.0760   26.8500  -26.3370 C   0  0  0  0  0  0  0  0  0  0  0  0
   -0.9080   27.2000  -24.8650 C   0  0  0  0  0  0  0  0  0  0  0  0
   -0.8250   25.8660  -24.1360 C   0  0  0  0  0  0  0  0  0  0  0  0
   -0.9340   24.8050  -25.2220 C   0  0  0  0  0  0  0  0  0  0  0  0
   -0.2620   22.0530  -27.9210 C   0  0  0  0  0  0  0  0  0  0  0  0
    1.2180   19.0710  -30.3840 C   0  0  0  0  0  0  0  0  0  0  0  0
    2.5180   18.8270  -30.8650 C   0  0  0  0  0  0  0  0  0  0  0  0
    2.8500   19.1190  -32.1900 C   0  0  0  0  0  0  0  0  0  0  0  0
    1.8920   19.6590  -33.0500 C   0  0  0  0  0  0  0  0  0  0  0  0
    0.5920   19.9040  -32.5900 C   0  0  0  0  0  0  0  0  0  0  0  0
   -0.6020   20.6150  -33.6680 S   0  0  0  0  0  0  0  0  0  0  0  0
   -0.8940   19.6780  -34.8070 O   0  0  0  0  0  0  0  0  0  0  0  0
   -0.0670   21.8950  -34.2450 O   0  0  0  0  0  0  0  0  0  0  0  0
   -2.0730   20.9340  -32.7590 C   0  0  0  0  0  0  0  0  0  0  0  0
   -2.0910   21.9350  -31.7790 C   0  0  0  0  0  0  0  0  0  0  0  0
   -3.2670   22.2050  -31.0760 C   0  0  0  0  0  0  0  0  0  0  0  0
   -4.4330   21.4820  -31.3470 C   0  0  0  0  0  0  0  0  0  0  0  0
   -5.5650   21.7780  -30.6620 F   0  0  0  0  0  0  0  0  0  0  0  0
   -4.4250   20.4790  -32.3330 C   0  0  0  0  0  0  0  0  0  0  0  0
   -5.8780   19.5610  -32.7330 S   0  0  0  0  0  0  0  0  0  0  0  0
   -5.6700   18.0950  -32.4700 O   0  0  0  0  0  0  0  0  0  0  0  0
   -6.1700   19.7410  -34.1970 O   0  0  0  0  0  0  0  0  0  0  0  0
   -7.2180   20.1590  -31.7840 N   0  0  0  0  0  0  0  0  0  0  0  0
   -8.3050   19.1580  -31.7020 C   0  0  0  0  0  0  0  0  0  0  0  0
   -9.4860   19.5110  -32.6260 C   0  0  0  0  0  0  0  0  0  0  0  0
  -10.0610   20.7790  -32.3400 O   0  0  0  0  0  0  0  0  0  0  0  0
   -9.1210   21.7460  -31.8880 C   0  0  0  0  0  0  0  0  0  0  0  0
   -7.6700   21.4580  -32.3140 C   0  0  0  0  0  0  0  0  0  0  0  0
   -3.2420   20.2170  -33.0400 C   0  0  0  0  0  0  0  0  0  0  0  0
    0.2600   19.6160  -31.2600 C   0  0  0  0  0  0  0  0  0  0  0  0
   -1.9142   19.0598  -27.7899 H   0  0  0  0  0  0  0  0  0  0  0  0
   -3.8650   20.6055  -27.6350 H   0  0  0  0  0  0  0  0  0  0  0  0
   -3.5175   23.0738  -27.6895 H   0  0  0  0  0  0  0  0  0  0  0  0
   -2.5740   25.4380  -26.2870 H   0  0  0  0  0  0  0  0  0  0  0  0
   -0.1160   26.9539  -26.8640 H   0  0  0  0  0  0  0  0  0  0  0  0
   -1.7976   27.5217  -26.8250 H   0  0  0  0  0  0  0  0  0  0  0  0
    0.0137   27.7803  -24.7107 H   0  0  0  0  0  0  0  0  0  0  0  0
   -1.7407   27.8160  -24.4947 H   0  0  0  0  0  0  0  0  0  0  0  0
    0.1343   25.7764  -23.6052 H   0  0  0  0  0  0  0  0  0  0  0  0
   -1.6183   25.7620  -23.3812 H   0  0  0  0  0  0  0  0  0  0  0  0
    0.0635   24.4164  -25.4750 H   0  0  0  0  0  0  0  0  0  0  0  0
   -1.5464   23.9548  -24.8872 H   0  0  0  0  0  0  0  0  0  0  0  0
    0.7543   22.4636  -28.0138 H   0  0  0  0  0  0  0  0  0  0  0  0
    3.2783   18.4032  -30.1924 H   0  0  0  0  0  0  0  0  0  0  0  0
    3.8684   18.9231  -32.5566 H   0  0  0  0  0  0  0  0  0  0  0  0
    2.1588   19.8926  -34.0913 H   0  0  0  0  0  0  0  0  0  0  0  0
   -1.1778   22.5089  -31.5631 H   0  0  0  0  0  0  0  0  0  0  0  0
   -3.2762   22.9900  -30.3055 H   0  0  0  0  0  0  0  0  0  0  0  0
   -7.9060   18.1758  -31.9952 H   0  0  0  0  0  0  0  0  0  0  0  0
   -8.6763   19.1439  -30.6666 H   0  0  0  0  0  0  0  0  0  0  0  0
   -9.1270   19.5164  -33.6657 H   0  0  0  0  0  0  0  0  0  0  0  0
  -10.2668   18.7536  -32.4625 H   0  0  0  0  0  0  0  0  0  0  0  0
   -9.4120   22.7265  -32.2930 H   0  0  0  0  0  0  0  0  0  0  0  0
   -9.1406   21.7182  -30.7885 H   0  0  0  0  0  0  0  0  0  0  0  0
   -7.6134   21.4390  -33.4124 H   0  0  0  0  0  0  0  0  0  0  0  0
   -7.0202   22.2490  -31.9113 H   0  0  0  0  0  0  0  0  0  0  0  0
   -3.2329   19.4424  -33.8210 H   0  0  0  0  0  0  0  0  0  0  0  0
   -0.7585   19.8175  -30.8967 H   0  0  0  0  0  0  0  0  0  0  0  0
  1  2  2  0
  2  3  1  0
  3  4  1  0
  4  5  2  0
  5  6  1  0
  6  7  2  0
  7  8  1  0
  8  9  1  0
  9 10  2  0
  9 11  2  0
  9 12  1  0
 12 13  1  0
 13 14  1  0
 14 15  1  0
 15 16  1  0
  8 17  2  0
  2 18  1  0
 18 19  2  0
 19 20  1  0
 20 21  2  0
 21 22  1  0
 22 23  1  0
 23 24  2  0
 23 25  2  0
 23 26  1  0
 26 27  2  0
 27 28  1  0
 28 29  2  0
 29 30  1  0
 29 31  1  0
 31 32  1  0
 32 33  2  0
 32 34  2  0
 32 35  1  0
 35 36  1  0
 36 37  1  0
 37 38  1  0
 38 39  1  0
 39 40  1  0
 31 41  2  0
 22 42  2  0
 17  4  1  0
 42 18  1  0
 16 12  1  0
 41 26  1  0
 40 35  1  0
  5 43  1  0
  6 44  1  0
  7 45  1  0
 12 46  1  0
 13 47  1  0
 13 48  1  0
 14 49  1  0
 14 50  1  0
 15 51  1  0
 15 52  1  0
 16 53  1  0
 16 54  1  0
 17 55  1  0
 19 56  1  0
 20 57  1  0
 21 58  1  0
 27 59  1  0
 28 60  1  0
 36 61  1  0
 36 62  1  0
 37 63  1  0
 37 64  1  0
 39 65  1  0
 39 66  1  0
 40 67  1  0
 40 68  1  0
 41 69  1  0
 42 70  1  0
M  CHG  2   3  -1  12   1
M  END
>  <UniqueID>  (7) 
7

>  <SMILES>  (7) 
O=C([N-]c1cccc(S(=O)(=O)[NH+]2CCCC2)c1)c1cccc(S(=O)(=O)c2ccc(F)c(S(=O)(=O)N3CCOCC3)c2)c1

>  <Energy>  (7) 
94.62974911328861

>  <Genealogy>  (7) 
O=C([N-]c1cccc(S(=O)(=O)[NH+]2CCCC2)c1)c1cccc(S(=O)(=O)c2ccc(F)c(S(=O)(=O)N3CCOCC3)c2)c1 (protonated)
O=C([N-]c1cccc(S(=O)(=O)[NH+]2CCCC2)c1)c1cccc(S(=O)(=O)c2ccc(F)c(S(=O)(=O)N3CCOCC3)c2)c1 (3D coordinates assigned)
O=C([N-]c1cccc(S(=O)(=O)[NH+]2CCCC2)c1)c1cccc(S(=O)(=O)c2ccc(F)c(S(=O)(=O)N3CCOCC3)c2)c1 (nonaromatic ring conformer: 94.62974911328861 kcal/mol)

>  <smiles>  (7) 
O=C(Nc1cccc(S(=O)(=O)N2CCCC2)c1)c1cccc(S(=O)(=O)c2ccc(F)c(S(=O)(=O)N3CCOCC3)c2)c1

>  <score_type>  (7) 
oracle

>  <origin>  (7) 
adgpu

>  <m_score__min__energy>  (7) 
-12.82

>  <m_primary>  (7) 
energy

$$$$
7:0
     RDKit          3D

 46 48  0  0  0  0  0  0  0  0999 V2000
   -0.0850   23.3030  -24.9640 C   0  0  0  0  0  0  0  0  0  0  0  0
   -0.7090   24.6940  -24.8780 C   0  0  0  0  0  0  0  0  0  0  0  0
   -0.8410   25.3550  -26.2560 C   0  0  0  0  0  0  0  0  0  0  0  0
   -1.7450   24.6010  -27.1240 N   0  0  0  0  0  0  0  0  0  0  0  0
   -2.0100   24.9790  -28.4830 C   0  0  0  0  0  0  0  0  0  0  0  0
   -1.5100   26.0350  -28.9570 O   0  0  0  0  0  0  0  0  0  0  0  0
   -2.9090   24.1360  -29.3470 C   0  0  2  0  0  0  0  0  0  0  0  0
   -2.1280   22.9610  -29.9680 C   0  0  0  0  0  0  0  0  0  0  0  0
   -1.6760   21.9880  -28.9200 C   0  0  0  0  0  0  0  0  0  0  0  0
   -0.5680   21.1800  -28.9900 C   0  0  0  0  0  0  0  0  0  0  0  0
   -0.4580   20.4930  -27.8400 N   0  0  0  0  0  0  0  0  0  0  0  0
   -1.5060   20.9190  -27.1020 C   0  0  0  0  0  0  0  0  0  0  0  0
   -2.2720   21.8380  -27.7250 N   0  0  0  0  0  0  0  0  0  0  0  0
   -3.4770   24.9780  -30.4000 N   0  0  0  0  0  0  0  0  0  0  0  0
   -4.8410   24.9620  -30.8430 C   0  0  0  0  0  0  0  0  0  0  0  0
   -5.4960   26.0370  -30.8220 O   0  0  0  0  0  0  0  0  0  0  0  0
   -5.4940   23.7350  -31.3380 C   0  0  0  0  0  0  0  0  0  0  0  0
   -4.7380   22.7110  -31.9280 C   0  0  0  0  0  0  0  0  0  0  0  0
   -5.3590   21.5500  -32.3940 C   0  0  0  0  0  0  0  0  0  0  0  0
   -6.7450   21.3890  -32.2600 C   0  0  0  0  0  0  0  0  0  0  0  0
   -7.3810   20.2280  -32.7280 C   0  0  0  0  0  0  0  0  0  0  0  0
   -8.7630   20.0790  -32.5830 C   0  0  0  0  0  0  0  0  0  0  0  0
   -9.5200   21.0830  -31.9730 C   0  0  0  0  0  0  0  0  0  0  0  0
   -8.8990   22.2440  -31.5040 C   0  0  0  0  0  0  0  0  0  0  0  0
   -7.5110   22.4070  -31.6420 C   0  0  0  0  0  0  0  0  0  0  0  0
   -6.8780   23.5700  -31.1800 C   0  0  0  0  0  0  0  0  0  0  0  0
    0.0887   22.9157  -23.9492 H   0  0  0  0  0  0  0  0  0  0  0  0
   -0.7666   22.6280  -25.5024 H   0  0  0  0  0  0  0  0  0  0  0  0
    0.8724   23.3632  -25.5024 H   0  0  0  0  0  0  0  0  0  0  0  0
   -1.7096   24.6065  -24.4296 H   0  0  0  0  0  0  0  0  0  0  0  0
   -0.0489   25.3233  -24.2630 H   0  0  0  0  0  0  0  0  0  0  0  0
   -1.2346   26.3742  -26.1281 H   0  0  0  0  0  0  0  0  0  0  0  0
    0.1531   25.3772  -26.7265 H   0  0  0  0  0  0  0  0  0  0  0  0
   -2.2400   23.7730  -26.7200 H   0  0  0  0  0  0  0  0  0  0  0  0
   -3.7156   23.7152  -28.7287 H   0  0  0  0  0  0  0  0  0  0  0  0
   -2.7784   22.4382  -30.6847 H   0  0  0  0  0  0  0  0  0  0  0  0
   -1.2374   23.3655  -30.4712 H   0  0  0  0  0  0  0  0  0  0  0  0
    0.1175   21.1069  -29.8471 H   0  0  0  0  0  0  0  0  0  0  0  0
   -1.7154   20.5506  -26.0869 H   0  0  0  0  0  0  0  0  0  0  0  0
   -3.6480   22.8233  -32.0243 H   0  0  0  0  0  0  0  0  0  0  0  0
   -4.7585   20.7594  -32.8677 H   0  0  0  0  0  0  0  0  0  0  0  0
   -6.7906   19.4345  -33.2095 H   0  0  0  0  0  0  0  0  0  0  0  0
   -9.2571   19.1675  -32.9506 H   0  0  0  0  0  0  0  0  0  0  0  0
  -10.6073   20.9592  -31.8617 H   0  0  0  0  0  0  0  0  0  0  0  0
   -9.4990   23.0321  -31.0256 H   0  0  0  0  0  0  0  0  0  0  0  0
   -7.4702   24.3574  -30.6909 H   0  0  0  0  0  0  0  0  0  0  0  0
  1  2  1  0
  2  3  1  0
  3  4  1  0
  4  5  1  0
  5  6  2  0
  5  7  1  0
  7  8  1  0
  8  9  1  0
  9 10  2  0
 10 11  1  0
 11 12  1  0
 12 13  2  0
  7 14  1  0
 14 15  1  0
 15 16  2  0
 15 17  1  0
 17 18  2  0
 18 19  1  0
 19 20  2  0
 20 21  1  0
 21 22  2  0
 22 23  1  0
 23 24  2  0
 24 25  1  0
 25 26  2  0
 13  9  1  0
 26 17  1  0
 25 20  1  0
  1 27  1  0
  1 28  1  0
  1 29  1  0
  2 30  1  0
  2 31  1  0
  3 32  1  0
  3 33  1  0
  4 34  1  0
  7 35  1  1
  8 36  1  0
  8 37  1  0
 10 38  1  0
 12 39  1  0
 18 40  1  0
 19 41  1  0
 21 42  1  0
 22 43  1  0
 23 44  1  0
 24 45  1  0
 26 46  1  0
M  CHG  2  11  -1  14  -1
M  END
>  <UniqueID>  (8) 
8

>  <SMILES>  (8) 
CCCNC(=O)[C@H](Cc1c[n-]cn1)[N-]C(=O)c1ccc2ccccc2c1

>  <Energy>  (8) 
71.68410099841839

>  <Genealogy>  (8) 
CCCNC(=O)C(Cc1c[n-]cn1)[N-]C(=O)c1ccc2ccccc2c1 (protonated)
CCCNC(=O)[C@H](Cc1c[n-]cn1)[N-]C(=O)c1ccc2ccccc2c1 (chirality)
CCCNC(=O)[C@H](Cc1c[n-]cn1)[N-]C(=O)c1ccc2ccccc2c1 (3D coordinates assigned)
CCCNC(=O)[C@H](Cc1c[n-]cn1)[N-]C(=O)c1ccc2ccccc2c1 (optimized conformer: 71.68410099841839 kcal/mol)

>  <smiles>  (8) 
CCCNC(=O)C(Cc1c[nH]cn1)NC(=O)c1ccc2ccccc2c1

>  <score_type>  (8) 
oracle

>  <origin>  (8) 
adgpu

>  <m_score__min__energy>  (8) 
-10.76

>  <m_primary>  (8) 
energy

$$$$
8:0
     RDKit          3D

 59 62  0  0  0  0  0  0  0  0999 V2000
   -1.2100   25.5360  -28.4790 C   0  0  0  0  0  0  0  0  0  0  0  0
   -2.3600   25.2880  -29.3400 N   0  0  0  0  0  0  0  0  0  0  0  0
   -3.2490   24.1740  -29.1930 C   0  0  0  0  0  0  0  0  0  0  0  0
   -2.8840   23.1950  -28.4900 O   0  0  0  0  0  0  0  0  0  0  0  0
   -4.5710   24.1360  -29.8450 C   0  0  0  0  0  0  0  0  0  0  0  0
   -5.6000   24.9940  -29.4210 C   0  0  0  0  0  0  0  0  0  0  0  0
   -6.8620   24.9290  -30.0140 C   0  0  0  0  0  0  0  0  0  0  0  0
   -7.1070   24.0080  -31.0330 C   0  0  0  0  0  0  0  0  0  0  0  0
   -6.0880   23.1530  -31.4770 C   0  0  0  0  0  0  0  0  0  0  0  0
   -6.3640   22.2460  -32.5080 O   0  0  0  0  0  0  0  0  0  0  0  0
   -7.2570   21.1670  -32.4180 C   0  0  0  0  0  0  0  0  0  0  0  0
   -8.6270   21.3530  -32.1570 C   0  0  0  0  0  0  0  0  0  0  0  0
   -9.4680   20.2500  -32.0020 C   0  0  0  0  0  0  0  0  0  0  0  0
   -8.9530   18.9550  -32.1050 C   0  0  0  0  0  0  0  0  0  0  0  0
   -7.5970   18.7530  -32.3910 C   0  0  0  0  0  0  0  0  0  0  0  0
   -7.0970   17.4100  -32.4590 N   0  0  0  0  0  0  0  0  0  0  0  0
   -6.4530   16.8090  -33.5870 C   0  0  0  0  0  0  0  0  0  0  0  0
   -7.0860   16.0040  -34.3260 O   0  0  0  0  0  0  0  0  0  0  0  0
   -5.0220   17.0850  -33.8630 C   0  0  0  0  0  0  0  0  0  0  0  0
   -4.4640   18.3160  -33.4640 C   0  0  0  0  0  0  0  0  0  0  0  0
   -3.1080   18.5950  -33.6910 C   0  0  0  0  0  0  0  0  0  0  0  0
   -2.4220   20.1410  -33.1990 S   0  0  0  0  0  0  0  0  0  0  0  0
   -3.3930   21.2450  -33.5230 O   0  0  0  0  0  0  0  0  0  0  0  0
   -1.1630   20.3760  -33.9880 O   0  0  0  0  0  0  0  0  0  0  0  0
   -2.0680   20.0940  -31.4800 N   0  0  0  0  0  0  0  0  0  0  0  0
   -2.0180   21.4500  -30.8890 C   0  0  0  0  0  0  0  0  0  0  0  0
   -0.5830   22.0150  -30.8150 C   0  0  0  0  0  0  0  0  0  0  0  0
    0.2140   21.4850  -31.8530 O   0  0  0  0  0  0  0  0  0  0  0  0
    0.4330   20.1010  -31.6450 C   0  0  0  0  0  0  0  0  0  0  0  0
   -0.8380   19.3340  -31.2000 C   0  0  0  0  0  0  0  0  0  0  0  0
   -2.2990   17.6350  -34.3150 C   0  0  0  0  0  0  0  0  0  0  0  0
   -2.8420   16.4160  -34.7190 C   0  0  0  0  0  0  0  0  0  0  0  0
   -4.1960   16.1310  -34.4980 C   0  0  0  0  0  0  0  0  0  0  0  0
   -4.7090   14.8950  -34.8910 O   0  0  0  0  0  0  0  0  0  0  0  0
   -6.7500   19.8670  -32.5280 C   0  0  0  0  0  0  0  0  0  0  0  0
   -4.8270   23.2000  -30.8590 C   0  0  0  0  0  0  0  0  0  0  0  0
   -1.5195   25.4693  -27.4256 H   0  0  0  0  0  0  0  0  0  0  0  0
   -0.4321   24.7850  -28.6809 H   0  0  0  0  0  0  0  0  0  0  0  0
   -0.8107   26.5409  -28.6809 H   0  0  0  0  0  0  0  0  0  0  0  0
   -5.4100   25.7208  -28.6175 H   0  0  0  0  0  0  0  0  0  0  0  0
   -7.6631   25.6037  -29.6780 H   0  0  0  0  0  0  0  0  0  0  0  0
   -8.1056   23.9522  -31.4909 H   0  0  0  0  0  0  0  0  0  0  0  0
   -9.0364   22.3707  -32.0749 H   0  0  0  0  0  0  0  0  0  0  0  0
  -10.5385   20.4003  -31.7983 H   0  0  0  0  0  0  0  0  0  0  0  0
   -9.6164   18.0895  -31.9606 H   0  0  0  0  0  0  0  0  0  0  0  0
   -5.0985   19.0661  -32.9693 H   0  0  0  0  0  0  0  0  0  0  0  0
   -2.6307   22.1250  -31.5046 H   0  0  0  0  0  0  0  0  0  0  0  0
   -2.4004   21.3784  -29.8601 H   0  0  0  0  0  0  0  0  0  0  0  0
   -0.6203   23.1102  -30.9111 H   0  0  0  0  0  0  0  0  0  0  0  0
   -0.1402   21.7326  -29.8485 H   0  0  0  0  0  0  0  0  0  0  0  0
    0.7940   19.6603  -32.5860 H   0  0  0  0  0  0  0  0  0  0  0  0
    1.1681   20.0084  -30.8319 H   0  0  0  0  0  0  0  0  0  0  0  0
   -0.8818   18.3763  -31.7394 H   0  0  0  0  0  0  0  0  0  0  0  0
   -0.7763   19.1763  -30.1131 H   0  0  0  0  0  0  0  0  0  0  0  0
   -1.2327   17.8441  -34.4864 H   0  0  0  0  0  0  0  0  0  0  0  0
   -2.2020   15.6717  -35.2154 H   0  0  0  0  0  0  0  0  0  0  0  0
   -5.7050   14.7210  -34.9260 H   0  0  0  0  0  0  0  0  0  0  0  0
   -5.6782   19.7153  -32.7236 H   0  0  0  0  0  0  0  0  0  0  0  0
   -4.0375   22.5006  -31.1711 H   0  0  0  0  0  0  0  0  0  0  0  0
  1  2  1  0
  2  3  1  0
  3  4  2  0
  3  5  1  0
  5  6  2  0
  6  7  1  0
  7  8  2  0
  8  9  1  0
  9 10  1  0
 10 11  1  0
 11 12  2  0
 12 13  1  0
 13 14  2  0
 14 15  1  0
 15 16  1  0
 16 17  1  0
 17 18  2  0
 17 19  1  0
 19 20  2  0
 20 21  1  0
 21 22  1  0
 22 23  2  0
 22 24  2  0
 22 25  1  0
 25 26  1  0
 26 27  1  0
 27 28  1  0
 28 29  1  0
 29 30  1  0
 21 31  2  0
 31 32  1  0
 32 33  2  0
 33 34  1  0
 15 35  2  0
  9 36  2  0
 36  5  1  0
 35 11  1  0
 33 19  1  0
 30 25  1  0
  1 37  1  0
  1 38  1  0
  1 39  1  0
  6 40  1  0
  7 41  1  0
  8 42  1  0
 12 43  1  0
 13 44  1  0
 14 45  1  0
 20 46  1  0
 26 47  1  0
 26 48  1  0
 27 49  1  0
 27 50  1  0
 29 51  1  0
 29 52  1  0
 30 53  1  0
 30 54  1  0
 31 55  1  0
 32 56  1  0
 34 57  1  0
 35 58  1  0
 36 59  1  0
M  CHG  2   2  -1  16  -1
M  END
>  <UniqueID>  (9) 
9

>  <SMILES>  (9) 
C[N-]C(=O)c1cccc(Oc2cccc([N-]C(=O)c3cc(S(=O)(=O)N4CCOCC4)ccc3O)c2)c1

>  <Energy>  (9) 
90.79280692122396

>  <Genealogy>  (9) 
C[N-]C(=O)c1cccc(Oc2cccc([N-]C(=O)c3cc(S(=O)(=O)N4CCOCC4)ccc3O)c2)c1 (protonated)
C[N-]C(=O)c1cccc(Oc2cccc([N-]C(=O)c3cc(S(=O)(=O)N4CCOCC4)ccc3O)c2)c1 (3D coordinates assigned)
C[N-]C(=O)c1cccc(Oc2cccc([N-]C(=O)c3cc(S(=O)(=O)N4CCOCC4)ccc3O)c2)c1 (nonaromatic ring conformer: 90.79280692122396 kcal/mol)

>  <smiles>  (9) 
CNC(=O)c1cccc(Oc2cccc(NC(=O)c3cc(S(=O)(=O)N4CCOCC4)ccc3O)c2)c1

>  <score_type>  (9) 
oracle

>  <origin>  (9) 
adgpu

>  <m_score__min__energy>  (9) 
-11.83

>  <m_primary>  (9) 
energy

$$$$
9:0
     RDKit          3D

 43 45  0  0  0  0  0  0  0  0999 V2000
   -4.4290   15.1370  -32.8890 C   0  0  0  0  0  0  0  0  0  0  0  0
   -5.3640   16.0850  -34.0680 S   0  0  0  0  0  0  0  0  0  0  0  0
   -6.5430   15.2800  -34.5400 O   0  0  0  0  0  0  0  0  0  0  0  0
   -4.4980   16.4100  -35.2520 O   0  0  0  0  0  0  0  0  0  0  0  0
   -5.9220   17.5720  -33.3090 C   0  0  0  0  0  0  0  0  0  0  0  0
   -6.7650   17.5190  -32.1920 C   0  0  0  0  0  0  0  0  0  0  0  0
   -7.2200   18.7000  -31.5970 C   0  0  0  0  0  0  0  0  0  0  0  0
   -6.8510   19.9500  -32.1210 C   0  0  0  0  0  0  0  0  0  0  0  0
   -7.3300   21.1980  -31.4740 C   0  0  0  0  0  0  0  0  0  0  0  0
   -8.5270   21.2680  -31.0840 O   0  0  0  0  0  0  0  0  0  0  0  0
   -6.4420   22.3620  -31.2490 C   0  0  0  0  0  0  0  0  0  0  0  0
   -5.0800   22.1480  -30.9820 C   0  0  0  0  0  0  0  0  0  0  0  0
   -4.2100   23.2270  -30.7510 C   0  0  0  0  0  0  0  0  0  0  0  0
   -2.7780   22.9600  -30.4810 C   0  0  0  0  0  0  0  0  0  0  0  0
   -2.0240   22.6660  -31.4490 O   0  0  0  0  0  0  0  0  0  0  0  0
   -2.2160   22.9890  -29.1070 C   0  0  0  0  0  0  0  0  0  0  0  0
   -2.1890   21.8130  -28.3330 C   0  0  0  0  0  0  0  0  0  0  0  0
   -1.6480   21.8200  -27.0450 C   0  0  0  0  0  0  0  0  0  0  0  0
   -1.6260   20.3460  -26.0940 Cl  0  0  0  0  0  0  0  0  0  0  0  0
   -1.1190   23.0000  -26.5170 C   0  0  0  0  0  0  0  0  0  0  0  0
   -1.1310   24.1720  -27.2750 C   0  0  0  0  0  0  0  0  0  0  0  0
   -1.6760   24.1770  -28.5670 C   0  0  0  0  0  0  0  0  0  0  0  0
   -1.6930   25.3600  -29.3050 O   0  0  0  0  0  0  0  0  0  0  0  0
   -4.7180   24.5410  -30.8100 C   0  0  0  0  0  0  0  0  0  0  0  0
   -3.8790   25.6380  -30.6510 O   0  0  0  0  0  0  0  0  0  0  0  0
   -6.0770   24.7560  -31.0510 C   0  0  0  0  0  0  0  0  0  0  0  0
   -6.9420   23.6790  -31.2570 C   0  0  0  0  0  0  0  0  0  0  0  0
   -8.2960   23.9270  -31.4540 O   0  0  0  0  0  0  0  0  0  0  0  0
   -5.9990   19.9950  -33.2390 C   0  0  0  0  0  0  0  0  0  0  0  0
   -5.5440   18.8140  -33.8320 C   0  0  0  0  0  0  0  0  0  0  0  0
   -4.7190   15.4310  -31.8695 H   0  0  0  0  0  0  0  0  0  0  0  0
   -4.6343   14.0661  -33.0342 H   0  0  0  0  0  0  0  0  0  0  0  0
   -3.3554   15.3275  -33.0342 H   0  0  0  0  0  0  0  0  0  0  0  0
   -7.0703   16.5453  -31.7813 H   0  0  0  0  0  0  0  0  0  0  0  0
   -7.8716   18.6497  -30.7122 H   0  0  0  0  0  0  0  0  0  0  0  0
   -4.6884   21.1205  -30.9533 H   0  0  0  0  0  0  0  0  0  0  0  0
   -2.5980   20.8794  -28.7467 H   0  0  0  0  0  0  0  0  0  0  0  0
   -0.6926   23.0057  -25.5030 H   0  0  0  0  0  0  0  0  0  0  0  0
   -0.7101   25.0979  -26.8560 H   0  0  0  0  0  0  0  0  0  0  0  0
   -2.5210   25.6670  -29.8020 H   0  0  0  0  0  0  0  0  0  0  0  0
   -6.4696   25.7832  -31.0788 H   0  0  0  0  0  0  0  0  0  0  0  0
   -5.6884   20.9670  -33.6498 H   0  0  0  0  0  0  0  0  0  0  0  0
   -4.8866   18.8608  -34.7127 H   0  0  0  0  0  0  0  0  0  0  0  0
  1  2  1  0
  2  3  2  0
  2  4  2  0
  2  5  1  0
  5  6  2  0
  6  7  1  0
  7  8  2  0
  8  9  1  0
  9 10  2  0
  9 11  1  0
 11 12  2  0
 12 13  1  0
 13 14  1  0
 14 15  2  0
 14 16  1  0
 16 17  2  0
 17 18  1  0
 18 19  1  0
 18 20  2  0
 20 21  1  0
 21 22  2  0
 22 23  1  0
 13 24  2  0
 24 25  1  0
 24 26  1  0
 26 27  2  0
 27 28  1  0
  8 29  1  0
 29 30  2  0
 30  5  1  0
 27 11  1  0
 22 16  1  0
  1 31  1  0
  1 32  1  0
  1 33  1  0
  6 34  1  0
  7 35  1  0
 12 36  1  0
 17 37  1  0
 20 38  1  0
 21 39  1  0
 23 40  1  0
 26 41  1  0
 29 42  1  0
 30 43  1  0
M  CHG  2  25  -1  28  -1
M  END
>  <UniqueID>  (10) 
10

>  <SMILES>  (10) 
CS(=O)(=O)c1ccc(C(=O)c2cc(C(=O)c3cc(Cl)ccc3O)c([O-])cc2[O-])cc1

>  <Energy>  (10) 
59.47184969813738

>  <Genealogy>  (10) 
CS(=O)(=O)c1ccc(C(=O)c2cc(C(=O)c3cc(Cl)ccc3O)c([O-])cc2[O-])cc1 (protonated)
CS(=O)(=O)c1ccc(C(=O)c2cc(C(=O)c3cc(Cl)ccc3O)c([O-])cc2[O-])cc1 (3D coordinates assigned)
CS(=O)(=O)c1ccc(C(=O)c2cc(C(=O)c3cc(Cl)ccc3O)c([O-])cc2[O-])cc1 (optimized conformer: 59.47184969813738 kcal/mol)

>  <smiles>  (10) 
CS(=O)(=O)c1ccc(C(=O)c2cc(C(=O)c3cc(Cl)ccc3O)c(O)cc2O)cc1

>  <score_type>  (10) 
oracle

>  <origin>  (10) 
adgpu

>  <m_score__min__energy>  (10) 
-13.16

>  <m_primary>  (10) 
energy

$$$$
10:0
     RDKit          3D

 54 58  0  0  0  0  0  0  0  0999 V2000
   -2.3490   16.7500  -33.9870 H   0  0  0  0  0  0  0  0  0  0  0  0
   -1.8700   17.6720  -33.9030 N   0  0  0  0  0  0  0  0  0  0  0  0
   -2.4370   18.8070  -33.6310 C   0  0  0  0  0  0  0  0  0  0  0  0
   -1.6430   19.9100  -33.5680 N   0  0  0  0  0  0  0  0  0  0  0  0
   -2.1280   21.1480  -33.3000 C   0  0  0  0  0  0  0  0  0  0  0  0
   -1.4441   22.0086  -33.2594 H   0  0  0  0  0  0  0  0  0  0  0  0
   -3.4850   21.3310  -33.0770 C   0  0  0  0  0  0  0  0  0  0  0  0
   -3.8802   22.3350  -32.8630 H   0  0  0  0  0  0  0  0  0  0  0  0
   -4.3490   20.2290  -33.1260 C   0  0  0  0  0  0  0  0  0  0  0  0
   -5.7230   20.4120  -32.9120 C   0  0  0  0  0  0  0  0  0  0  0  0
   -6.1145   21.4202  -32.7113 H   0  0  0  0  0  0  0  0  0  0  0  0
   -6.6020   19.3190  -32.9520 C   0  0  0  0  0  0  0  0  0  0  0  0
   -8.0180   19.4750  -32.7870 N   0  0  0  0  0  0  0  0  0  0  0  0
   -8.6980   20.6080  -32.2330 C   0  0  0  0  0  0  0  0  0  0  0  0
   -9.9580   20.6500  -32.2340 O   0  0  0  0  0  0  0  0  0  0  0  0
   -7.9190   21.7470  -31.6940 C   0  0  0  0  0  0  0  0  0  0  0  0
   -7.4570   21.7310  -30.3670 C   0  0  0  0  0  0  0  0  0  0  0  0
   -7.7080   20.8843  -29.7111 H   0  0  0  0  0  0  0  0  0  0  0  0
   -6.6820   22.7820  -29.8760 C   0  0  0  0  0  0  0  0  0  0  0  0
   -6.3252   22.7597  -28.8357 H   0  0  0  0  0  0  0  0  0  0  0  0
   -6.3560   23.8660  -30.7020 C   0  0  0  0  0  0  0  0  0  0  0  0
   -5.3240   25.1610  -30.1170 S   0  0  0  0  0  0  0  0  0  0  0  0
   -5.7390   26.4370  -30.7890 O   0  0  0  0  0  0  0  0  0  0  0  0
   -5.4690   25.3010  -28.6320 O   0  0  0  0  0  0  0  0  0  0  0  0
   -3.6740   24.8020  -30.5120 N   0  0  0  0  0  0  0  0  0  0  0  0
   -2.7810   24.0510  -29.6780 C   0  0  0  0  0  0  0  0  0  0  0  0
   -2.9800   22.6700  -29.5620 C   0  0  0  0  0  0  0  0  0  0  0  0
   -3.8318   22.1994  -30.0748 H   0  0  0  0  0  0  0  0  0  0  0  0
   -2.1080   21.8790  -28.8010 C   0  0  0  0  0  0  0  0  0  0  0  0
   -1.0480   22.4880  -28.1000 C   0  0  0  0  0  0  0  0  0  0  0  0
   -0.8690   23.8770  -28.1900 C   0  0  0  0  0  0  0  0  0  0  0  0
   -0.0360   24.3541  -27.6528 H   0  0  0  0  0  0  0  0  0  0  0  0
   -1.7390   24.6620  -28.9560 C   0  0  0  0  0  0  0  0  0  0  0  0
   -1.5740   26.0430  -28.9670 O   0  0  0  0  0  0  0  0  0  0  0  0
   -0.0360   21.6510  -27.3420 C   0  0  0  0  0  0  0  0  0  0  0  0
    0.8664   21.5435  -27.9617 H   0  0  0  0  0  0  0  0  0  0  0  0
    0.1797   22.1676  -26.3951 H   0  0  0  0  0  0  0  0  0  0  0  0
   -0.5420   20.3100  -27.0110 N   0  0  0  0  0  0  0  0  0  0  0  0
   -1.2750   20.3930  -26.2710 H   0  0  0  0  0  0  0  0  0  0  0  0
   -1.1180   19.6530  -28.1950 C   0  0  0  0  0  0  0  0  0  0  0  0
   -0.3719   19.6452  -29.0032 H   0  0  0  0  0  0  0  0  0  0  0  0
   -1.3998   18.6237  -27.9282 H   0  0  0  0  0  0  0  0  0  0  0  0
   -2.3670   20.4000  -28.6700 C   0  0  0  0  0  0  0  0  0  0  0  0
   -2.6710   20.0020  -29.6494 H   0  0  0  0  0  0  0  0  0  0  0  0
   -3.1622   20.2530  -27.9244 H   0  0  0  0  0  0  0  0  0  0  0  0
   -6.8250   23.8970  -32.0180 C   0  0  0  0  0  0  0  0  0  0  0  0
   -6.5848   24.7526  -32.6662 H   0  0  0  0  0  0  0  0  0  0  0  0
   -7.5980   22.8440  -32.5120 C   0  0  0  0  0  0  0  0  0  0  0  0
   -7.9589   22.8734  -33.5507 H   0  0  0  0  0  0  0  0  0  0  0  0
   -6.0990   18.0430  -33.2230 C   0  0  0  0  0  0  0  0  0  0  0  0
   -6.7853   17.1842  -33.2623 H   0  0  0  0  0  0  0  0  0  0  0  0
   -4.7360   17.8480  -33.4440 C   0  0  0  0  0  0  0  0  0  0  0  0
   -4.3578   16.8365  -33.6532 H   0  0  0  0  0  0  0  0  0  0  0  0
   -3.8360   18.9360  -33.4020 C   0  0  0  0  0  0  0  0  0  0  0  0
  1  2  1  0
  2  3  2  0
  3  4  1  0
  4  5  1  0
  5  6  1  0
  5  7  2  0
  7  8  1  0
  7  9  1  0
  9 10  2  0
 10 11  1  0
 10 12  1  0
 12 13  1  0
 13 14  1  0
 14 15  2  0
 14 16  1  0
 16 17  2  0
 17 18  1  0
 17 19  1  0
 19 20  1  0
 19 21  2  0
 21 22  1  0
 22 23  2  0
 22 24  2  0
 22 25  1  0
 25 26  1  0
 26 27  2  0
 27 28  1  0
 27 29  1  0
 29 30  2  0
 30 31  1  0
 31 32  1  0
 31 33  2  0
 33 34  1  0
 30 35  1  0
 35 36  1  0
 35 37  1  0
 35 38  1  0
 38 39  1  0
 38 40  1  0
 40 41  1  0
 40 42  1  0
 40 43  1  0
 43 44  1  0
 43 45  1  0
 21 46  1  0
 46 47  1  0
 46 48  2  0
 48 49  1  0
 12 50  2  0
 50 51  1  0
 50 52  1  0
 52 53  1  0
 52 54  2  0
 54  3  1  0
 54  9  1  0
 48 16  1  0
 33 26  1  0
 43 29  1  0
M  CHG  4   4  -1  13  -1  25  -1  34  -1
M  END
>  <UniqueID>  (11) 
11

>  <SMILES>  (11) 
[H]/N=c1/[n-]ccc2cc([N-]C(=O)c3ccc(S(=O)(=O)[N-]c4cc5c(cc4[O-])CNCC5)cc3)ccc12

>  <Energy>  (11) 
84.56607948575657

>  <Genealogy>  (11) 
N=c1[n-]ccc2cc([N-]C(=O)c3ccc(S(=O)(=O)[N-]c4cc5c(cc4[O-])CNCC5)cc3)ccc12 (protonated)
[H]/N=c1/[n-]ccc2cc([N-]C(=O)c3ccc(S(=O)(=O)[N-]c4cc5c(cc4[O-])CNCC5)cc3)ccc12 (cis-trans isomerization)
[H]/N=c1/[n-]ccc2cc([N-]C(=O)c3ccc(S(=O)(=O)[N-]c4cc5c(cc4[O-])CNCC5)cc3)ccc12 (3D coordinates assigned)
[H]/N=c1/[n-]ccc2cc([N-]C(=O)c3ccc(S(=O)(=O)[N-]c4cc5c(cc4[O-])CNCC5)cc3)ccc12 (nonaromatic ring conformer: 84.56607948575657 kcal/mol)

>  <smiles>  (11) 
N=c1[nH]ccc2cc(NC(=O)c3ccc(S(=O)(=O)Nc4cc5c(cc4O)CNCC5)cc3)ccc12

>  <score_type>  (11) 
oracle

>  <origin>  (11) 
adgpu

>  <m_score__min__energy>  (11) 
-15.779999999999999

>  <m_primary>  (11) 
energy

$$$$
11:0
     RDKit          3D

 74 79  0  0  0  0  0  0  0  0999 V2000
   -9.3020   21.7180  -30.4360 C   0  0  0  0  0  0  0  0  0  0  0  0
   -9.0130   21.3890  -31.8420 N   0  0  0  0  0  0  0  0  0  0  0  0
   -9.4390   20.0310  -32.2520 C   0  0  0  0  0  0  0  0  0  0  0  0
   -8.6970   18.8850  -31.5410 C   0  0  0  0  0  0  0  0  0  0  0  0
   -7.3960   18.5680  -32.2240 C   0  0  0  0  0  0  0  0  0  0  0  0
   -7.1960   17.2780  -32.7390 C   0  0  0  0  0  0  0  0  0  0  0  0
   -5.9980   16.9270  -33.3680 C   0  0  0  0  0  0  0  0  0  0  0  0
   -5.8740   15.6250  -33.8590 O   0  0  0  0  0  0  0  0  0  0  0  0
   -4.9680   17.8820  -33.4880 C   0  0  0  0  0  0  0  0  0  0  0  0
   -3.4250   17.4850  -34.2530 S   0  0  0  0  0  0  0  0  0  0  0  0
   -3.6560   17.1290  -35.6960 O   0  0  0  0  0  0  0  0  0  0  0  0
   -2.8250   16.3040  -33.5410 O   0  0  0  0  0  0  0  0  0  0  0  0
   -2.3560   18.8520  -34.1830 N   0  0  0  0  0  0  0  0  0  0  0  0
   -2.0090   19.5830  -33.0010 C   0  0  0  0  0  0  0  0  0  0  0  0
   -1.0680   19.0140  -32.1080 C   0  0  0  0  0  0  0  0  0  0  0  0
   -0.6840   19.6930  -30.9350 C   0  0  0  0  0  0  0  0  0  0  0  0
   -1.2710   20.9290  -30.6840 C   0  0  0  0  0  0  0  0  0  0  0  0
   -1.0600   21.7460  -29.6390 N   0  0  0  0  0  0  0  0  0  0  0  0
   -1.9060   22.7750  -29.9160 C   0  0  0  0  0  0  0  0  0  0  0  0
   -2.0480   23.9250  -29.0630 N   0  0  0  0  0  0  0  0  0  0  0  0
   -0.8830   24.7850  -28.8160 C   0  0  0  0  0  0  0  0  0  0  0  0
   -1.2200   25.9870  -27.9150 C   0  0  0  0  0  0  0  0  0  0  0  0
   -2.1490   25.6660  -26.7020 C   0  0  0  0  0  0  0  0  0  0  0  0
   -1.4280   25.4650  -25.4160 N   0  0  0  0  0  0  0  0  0  0  0  0
   -1.2660   26.7190  -24.6390 C   0  0  0  0  0  0  0  0  0  0  0  0
   -0.3250   26.5210  -23.4470 C   0  0  0  0  0  0  0  0  0  0  0  0
    1.0850   26.1110  -23.9080 C   0  0  0  0  0  0  0  0  0  0  0  0
    1.0830   25.3580  -25.2520 C   0  0  0  0  0  0  0  0  0  0  0  0
   -0.2280   24.5880  -25.4670 C   0  0  0  0  0  0  0  0  0  0  0  0
   -3.1440   24.5050  -26.9590 C   0  0  0  0  0  0  0  0  0  0  0  0
   -3.3430   24.2390  -28.4500 C   0  0  0  0  0  0  0  0  0  0  0  0
   -2.5880   22.6130  -31.0380 O   0  0  0  0  0  0  0  0  0  0  0  0
   -2.1980   21.4660  -31.5230 C   0  0  0  0  0  0  0  0  0  0  0  0
   -2.6090   20.8250  -32.6870 C   0  0  0  0  0  0  0  0  0  0  0  0
   -5.1660   19.1710  -32.9720 C   0  0  0  0  0  0  0  0  0  0  0  0
   -6.3600   19.5260  -32.3200 C   0  0  0  0  0  0  0  0  0  0  0  0
   -6.4880   20.9510  -31.8080 C   0  0  0  0  0  0  0  0  0  0  0  0
   -7.6780   21.8100  -32.3150 C   0  0  0  0  0  0  0  0  0  0  0  0
   -8.7205   21.0560  -29.7775 H   0  0  0  0  0  0  0  0  0  0  0  0
   -9.0259   22.7646  -30.2401 H   0  0  0  0  0  0  0  0  0  0  0  0
  -10.3755   21.5791  -30.2401 H   0  0  0  0  0  0  0  0  0  0  0  0
  -10.5132   19.9291  -32.0381 H   0  0  0  0  0  0  0  0  0  0  0  0
   -9.2018   19.9395  -33.3222 H   0  0  0  0  0  0  0  0  0  0  0  0
   -8.4928   19.1812  -30.5015 H   0  0  0  0  0  0  0  0  0  0  0  0
   -9.3328   17.9879  -31.5731 H   0  0  0  0  0  0  0  0  0  0  0  0
   -7.9966   16.5294  -32.6460 H   0  0  0  0  0  0  0  0  0  0  0  0
   -4.9920   15.2130  -34.1390 H   0  0  0  0  0  0  0  0  0  0  0  0
   -0.6317   18.0297  -32.3333 H   0  0  0  0  0  0  0  0  0  0  0  0
    0.0535   19.2614  -30.2424 H   0  0  0  0  0  0  0  0  0  0  0  0
   -0.0996   24.1866  -28.3280 H   0  0  0  0  0  0  0  0  0  0  0  0
   -0.5451   25.1780  -29.7862 H   0  0  0  0  0  0  0  0  0  0  0  0
   -0.2763   26.3941  -27.5230 H   0  0  0  0  0  0  0  0  0  0  0  0
   -1.7749   26.6967  -28.5462 H   0  0  0  0  0  0  0  0  0  0  0  0
   -2.7428   26.5858  -26.5956 H   0  0  0  0  0  0  0  0  0  0  0  0
   -0.8510   27.4966  -25.2971 H   0  0  0  0  0  0  0  0  0  0  0  0
   -2.2525   27.0179  -24.2550 H   0  0  0  0  0  0  0  0  0  0  0  0
   -0.2576   27.4634  -22.8836 H   0  0  0  0  0  0  0  0  0  0  0  0
   -0.7305   25.7171  -22.8151 H   0  0  0  0  0  0  0  0  0  0  0  0
    1.6965   27.0190  -24.0157 H   0  0  0  0  0  0  0  0  0  0  0  0
    1.4942   25.4284  -23.1487 H   0  0  0  0  0  0  0  0  0  0  0  0
    1.2082   26.0846  -26.0684 H   0  0  0  0  0  0  0  0  0  0  0  0
    1.9100   24.6327  -25.2411 H   0  0  0  0  0  0  0  0  0  0  0  0
   -0.1912   24.1001  -26.4522 H   0  0  0  0  0  0  0  0  0  0  0  0
   -0.3188   23.8556  -24.6513 H   0  0  0  0  0  0  0  0  0  0  0  0
   -2.7543   23.5922  -26.4847 H   0  0  0  0  0  0  0  0  0  0  0  0
   -4.1168   24.7917  -26.5330 H   0  0  0  0  0  0  0  0  0  0  0  0
   -4.0285   23.3891  -28.5834 H   0  0  0  0  0  0  0  0  0  0  0  0
   -3.7713   25.1314  -28.9298 H   0  0  0  0  0  0  0  0  0  0  0  0
   -3.3743   21.2686  -33.3409 H   0  0  0  0  0  0  0  0  0  0  0  0
   -4.3689   19.9214  -33.0799 H   0  0  0  0  0  0  0  0  0  0  0  0
   -6.5681   20.8976  -30.7122 H   0  0  0  0  0  0  0  0  0  0  0  0
   -5.5967   21.4622  -32.2008 H   0  0  0  0  0  0  0  0  0  0  0  0
   -7.5128   22.8463  -31.9851 H   0  0  0  0  0  0  0  0  0  0  0  0
   -7.6931   21.6899  -33.4083 H   0  0  0  0  0  0  0  0  0  0  0  0
  1  2  1  0
  2  3  1  0
  3  4  1  0
  4  5  1  0
  5  6  2  0
  6  7  1  0
  7  8  1  0
  7  9  2  0
  9 10  1  0
 10 11  2  0
 10 12  2  0
 10 13  1  0
 13 14  1  0
 14 15  2  0
 15 16  1  0
 16 17  2  0
 17 18  1  0
 18 19  2  0
 19 20  1  0
 20 21  1  0
 21 22  1  0
 22 23  1  0
 23 24  1  0
 24 25  1  0
 25 26  1  0
 26 27  1  0
 27 28  1  0
 28 29  1  0
 23 30  1  0
 30 31  1  0
 19 32  1  0
 32 33  1  0
 33 34  2  0
  9 35  1  0
 35 36  2  0
 36 37  1  0
 37 38  1  0
 38  2  1  0
 36  5  1  0
 34 14  1  0
 33 17  1  0
 31 20  1  0
 29 24  1  0
  1 39  1  0
  1 40  1  0
  1 41  1  0
  3 42  1  0
  3 43  1  0
  4 44  1  0
  4 45  1  0
  6 46  1  0
  8 47  1  0
 15 48  1  0
 16 49  1  0
 21 50  1  0
 21 51  1  0
 22 52  1  0
 22 53  1  0
 23 54  1  0
 25 55  1  0
 25 56  1  0
 26 57  1  0
 26 58  1  0
 27 59  1  0
 27 60  1  0
 28 61  1  0
 28 62  1  0
 29 63  1  0
 29 64  1  0
 30 65  1  0
 30 66  1  0
 31 67  1  0
 31 68  1  0
 34 69  1  0
 35 70  1  0
 37 71  1  0
 37 72  1  0
 38 73  1  0
 38 74  1  0
M  CHG  1  13  -1
M  END
>  <UniqueID>  (12) 
12

>  <SMILES>  (12) 
CN1CCc2cc(O)c(S(=O)(=O)[N-]c3ccc4nc(N5CCC(N6CCCCC6)CC5)oc4c3)cc2CC1

>  <Energy>  (12) 
157.95127502047367

>  <Genealogy>  (12) 
CN1CCc2cc(O)c(S(=O)(=O)[N-]c3ccc4nc(N5CCC(N6CCCCC6)CC5)oc4c3)cc2CC1 (protonated)
CN1CCc2cc(O)c(S(=O)(=O)[N-]c3ccc4nc(N5CCC(N6CCCCC6)CC5)oc4c3)cc2CC1 (3D coordinates assigned)
CN1CCc2cc(O)c(S(=O)(=O)[N-]c3ccc4nc(N5CCC(N6CCCCC6)CC5)oc4c3)cc2CC1 (nonaromatic ring conformer: 157.95127502047367 kcal/mol)

>  <smiles>  (12) 
CN1CCc2cc(O)c(S(=O)(=O)Nc3ccc4nc(N5CCC(N6CCCCC6)CC5)oc4c3)cc2CC1

>  <score_type>  (12) 
oracle

>  <origin>  (12) 
adgpu

>  <m_score__min__energy>  (12) 
-9.2400000000000002

>  <m_primary>  (12) 
energy

$$$$
12:0
     RDKit          3D

 50 53  0  0  0  0  0  0  0  0999 V2000
   -3.5020   20.9480  -33.1320 C   0  0  0  0  0  0  0  0  0  0  0  0
   -4.7310   20.1920  -32.9310 N   0  0  0  0  0  0  0  0  0  0  0  0
   -5.7220   20.5590  -32.1230 N   0  0  0  0  0  0  0  0  0  0  0  0
   -6.6780   19.5990  -32.1760 C   0  0  0  0  0  0  0  0  0  0  0  0
   -8.2130   19.6450  -31.2570 S   0  0  0  0  0  0  0  0  0  0  0  0
   -8.7810   21.1790  -32.0600 C   0  0  0  0  0  0  0  0  0  0  0  0
   -7.8960   22.3170  -31.6450 C   0  0  0  0  0  0  0  0  0  0  0  0
   -7.2660   23.1140  -32.6120 C   0  0  0  0  0  0  0  0  0  0  0  0
   -6.4110   24.1510  -32.2280 C   0  0  0  0  0  0  0  0  0  0  0  0
   -6.1610   24.4020  -30.8660 C   0  0  0  0  0  0  0  0  0  0  0  0
   -5.2490   25.4950  -30.4570 C   0  0  0  0  0  0  0  0  0  0  0  0
   -5.7190   26.6100  -30.0970 O   0  0  0  0  0  0  0  0  0  0  0  0
   -3.8300   25.2930  -30.4710 N   0  0  0  0  0  0  0  0  0  0  0  0
   -3.1490   24.2330  -29.7330 C   0  0  0  0  0  0  0  0  0  0  0  0
   -3.7630   24.0800  -28.3310 C   0  0  0  0  0  0  0  0  0  0  0  0
   -3.0290   23.0090  -27.5000 C   0  0  0  0  0  0  0  0  0  0  0  0
   -2.3830   21.9000  -28.3560 C   0  0  0  0  0  0  0  0  0  0  0  0
   -3.1750   21.6490  -29.6420 C   0  0  0  0  0  0  0  0  0  0  0  0
   -3.2480   22.9100  -30.5280 C   0  0  0  0  0  0  0  0  0  0  0  0
   -6.7830   23.5910  -29.9000 C   0  0  0  0  0  0  0  0  0  0  0  0
   -7.6400   22.5570  -30.2860 C   0  0  0  0  0  0  0  0  0  0  0  0
   -6.2700   18.6050  -33.0420 C   0  0  0  0  0  0  0  0  0  0  0  0
   -6.8340   17.4080  -33.4670 C   0  0  0  0  0  0  0  0  0  0  0  0
   -6.0880   16.6400  -34.3810 C   0  0  0  0  0  0  0  0  0  0  0  0
   -4.8220   17.0980  -34.8190 C   0  0  0  0  0  0  0  0  0  0  0  0
   -4.3150   18.2860  -34.3660 N   0  0  0  0  0  0  0  0  0  0  0  0
   -5.0510   19.0110  -33.4860 C   0  0  0  0  0  0  0  0  0  0  0  0
   -3.0708   21.2132  -32.1554 H   0  0  0  0  0  0  0  0  0  0  0  0
   -2.7830   20.3358  -33.6962 H   0  0  0  0  0  0  0  0  0  0  0  0
   -3.7242   21.8658  -33.6962 H   0  0  0  0  0  0  0  0  0  0  0  0
   -8.7365   21.0593  -33.1526 H   0  0  0  0  0  0  0  0  0  0  0  0
   -9.8170   21.3902  -31.7566 H   0  0  0  0  0  0  0  0  0  0  0  0
   -7.4460   22.9217  -33.6800 H   0  0  0  0  0  0  0  0  0  0  0  0
   -5.9303   24.7752  -32.9957 H   0  0  0  0  0  0  0  0  0  0  0  0
   -2.0876   24.4944  -29.6097 H   0  0  0  0  0  0  0  0  0  0  0  0
   -3.6979   25.0446  -27.8063 H   0  0  0  0  0  0  0  0  0  0  0  0
   -4.8102   23.7644  -28.4482 H   0  0  0  0  0  0  0  0  0  0  0  0
   -2.2383   23.5030  -26.9163 H   0  0  0  0  0  0  0  0  0  0  0  0
   -3.7813   22.5256  -26.8594 H   0  0  0  0  0  0  0  0  0  0  0  0
   -1.3593   22.2035  -28.6204 H   0  0  0  0  0  0  0  0  0  0  0  0
   -2.3769   20.9703  -27.7680 H   0  0  0  0  0  0  0  0  0  0  0  0
   -2.6859   20.8435  -30.2094 H   0  0  0  0  0  0  0  0  0  0  0  0
   -4.2012   21.3696  -29.3613 H   0  0  0  0  0  0  0  0  0  0  0  0
   -2.4191   22.8757  -31.2504 H   0  0  0  0  0  0  0  0  0  0  0  0
   -4.2322   22.9021  -31.0191 H   0  0  0  0  0  0  0  0  0  0  0  0
   -6.5933   23.7721  -28.8317 H   0  0  0  0  0  0  0  0  0  0  0  0
   -8.1168   21.9274  -29.5203 H   0  0  0  0  0  0  0  0  0  0  0  0
   -7.8184   17.0758  -33.1057 H   0  0  0  0  0  0  0  0  0  0  0  0
   -6.4880   15.6857  -34.7542 H   0  0  0  0  0  0  0  0  0  0  0  0
   -4.2402   16.4933  -35.5302 H   0  0  0  0  0  0  0  0  0  0  0  0
  1  2  1  0
  2  3  1  0
  3  4  2  0
  4  5  1  0
  5  6  1  0
  6  7  1  0
  7  8  2  0
  8  9  1  0
  9 10  2  0
 10 11  1  0
 11 12  2  0
 11 13  1  0
 13 14  1  0
 14 15  1  0
 15 16  1  0
 16 17  1  0
 17 18  1  0
 18 19  1  0
 10 20  1  0
 20 21  2  0
  4 22  1  0
 22 23  2  0
 23 24  1  0
 24 25  2  0
 25 26  1  0
 26 27  2  0
 27  2  1  0
 21  7  1  0
 27 22  1  0
 19 14  1  0
  1 28  1  0
  1 29  1  0
  1 30  1  0
  6 31  1  0
  6 32  1  0
  8 33  1  0
  9 34  1  0
 14 35  1  0
 15 36  1  0
 15 37  1  0
 16 38  1  0
 16 39  1  0
 17 40  1  0
 17 41  1  0
 18 42  1  0
 18 43  1  0
 19 44  1  0
 19 45  1  0
 20 46  1  0
 21 47  1  0
 23 48  1  0
 24 49  1  0
 25 50  1  0
M  CHG  1  13  -1
M  END
>  <UniqueID>  (13) 
13

>  <SMILES>  (13) 
Cn1nc(SCc2ccc(C(=O)[N-]C3CCCCC3)cc2)c2cccnc21

>  <Energy>  (13) 
89.97288054753004

>  <Genealogy>  (13) 
Cn1nc(SCc2ccc(C(=O)[N-]C3CCCCC3)cc2)c2cccnc21 (protonated)
Cn1nc(SCc2ccc(C(=O)[N-]C3CCCCC3)cc2)c2cccnc21 (3D coordinates assigned)
Cn1nc(SCc2ccc(C(=O)[N-]C3CCCCC3)cc2)c2cccnc21 (nonaromatic ring conformer: 89.97288054753004 kcal/mol)

>  <smiles>  (13) 
Cn1nc(SCc2ccc(C(=O)NC3CCCCC3)cc2)c2cccnc21

>  <score_type>  (13) 
oracle

>  <origin>  (13) 
adgpu

>  <m_score__min__energy>  (13) 
-11.550000000000001

>  <m_primary>  (13) 
energy

$$$$
13:0
     RDKit          3D

 70 74  0  0  0  0  0  0  0  0999 V2000
   -1.3340   19.6700  -28.5110 O   0  0  0  0  0  0  0  0  0  0  0  0
   -0.7710   20.4250  -29.3490 C   0  0  0  0  0  0  0  0  0  0  0  0
    0.1190   19.8480  -30.3160 N   0  0  0  0  0  0  0  0  0  0  0  0
   -0.1180   18.5480  -30.8780 C   0  0  0  0  0  0  0  0  0  0  0  0
   -1.0360   18.4170  -31.9290 C   0  0  0  0  0  0  0  0  0  0  0  0
   -1.2420   17.1760  -32.5460 C   0  0  0  0  0  0  0  0  0  0  0  0
   -2.3910   17.0220  -33.8780 S   0  0  0  0  0  0  0  0  0  0  0  0
   -1.8580   17.7590  -35.0760 O   0  0  0  0  0  0  0  0  0  0  0  0
   -2.5300   15.5730  -34.2510 O   0  0  0  0  0  0  0  0  0  0  0  0
   -3.9610   17.6640  -33.4590 N   0  0  0  0  0  0  0  0  0  0  0  0
   -4.7860   16.6300  -32.8160 C   0  0  0  0  0  0  0  0  0  0  0  0
   -6.1500   17.2320  -32.4100 C   0  0  0  0  0  0  0  0  0  0  0  0
   -6.3410   18.5340  -32.9370 O   0  0  0  0  0  0  0  0  0  0  0  0
   -6.1170   18.5240  -34.3340 C   0  0  0  0  0  0  0  0  0  0  0  0
   -4.6460   18.1830  -34.6550 C   0  0  0  0  0  0  0  0  0  0  0  0
   -0.5270   16.0580  -32.1040 C   0  0  0  0  0  0  0  0  0  0  0  0
    0.3680   16.1720  -31.0380 C   0  0  0  0  0  0  0  0  0  0  0  0
    0.5660   17.4050  -30.4050 C   0  0  0  0  0  0  0  0  0  0  0  0
    1.4210   17.4740  -29.2550 N   0  0  0  0  0  0  0  0  0  0  0  0
    1.1890   16.7110  -28.0420 C   0  0  0  0  0  0  0  0  0  0  0  0
    2.3840   17.0020  -27.1420 C   0  0  0  0  0  0  0  0  0  0  0  0
    3.1140   18.1840  -27.7760 C   0  0  0  0  0  0  0  0  0  0  0  0
    2.6590   18.2270  -29.2260 C   0  0  0  0  0  0  0  0  0  0  0  0
   -1.0840   21.8760  -29.3570 C   0  0  0  0  0  0  0  0  0  0  0  0
   -0.1170   22.7950  -28.9220 C   0  0  0  0  0  0  0  0  0  0  0  0
   -0.4270   24.1480  -28.8090 C   0  0  0  0  0  0  0  0  0  0  0  0
   -1.7070   24.6080  -29.1240 C   0  0  0  0  0  0  0  0  0  0  0  0
   -1.9900   25.9580  -28.9690 O   0  0  0  0  0  0  0  0  0  0  0  0
   -2.6840   23.7110  -29.5940 C   0  0  0  0  0  0  0  0  0  0  0  0
   -4.3360   24.2380  -29.9820 S   0  0  0  0  0  0  0  0  0  0  0  0
   -5.0310   24.7200  -28.7400 O   0  0  0  0  0  0  0  0  0  0  0  0
   -4.2410   25.3980  -30.9360 O   0  0  0  0  0  0  0  0  0  0  0  0
   -5.3050   22.9550  -30.6810 N   0  0  0  0  0  0  0  0  0  0  0  0
   -6.7150   23.3660  -30.7840 C   0  0  0  0  0  0  0  0  0  0  0  0
   -7.5300   22.2440  -31.4410 C   0  0  0  0  0  0  0  0  0  0  0  0
   -7.0230   21.9420  -32.7280 O   0  0  0  0  0  0  0  0  0  0  0  0
   -5.6860   21.4950  -32.6270 C   0  0  0  0  0  0  0  0  0  0  0  0
   -4.7900   22.5740  -32.0080 C   0  0  0  0  0  0  0  0  0  0  0  0
   -2.3590   22.3520  -29.7200 C   0  0  0  0  0  0  0  0  0  0  0  0
    1.0540   20.2910  -30.4650 H   0  0  0  0  0  0  0  0  0  0  0  0
   -1.6000   19.2967  -32.2727 H   0  0  0  0  0  0  0  0  0  0  0  0
   -4.9472   15.8003  -33.5200 H   0  0  0  0  0  0  0  0  0  0  0  0
   -4.2701   16.2573  -31.9188 H   0  0  0  0  0  0  0  0  0  0  0  0
   -6.9511   16.5777  -32.7844 H   0  0  0  0  0  0  0  0  0  0  0  0
   -6.1722   17.3062  -31.3127 H   0  0  0  0  0  0  0  0  0  0  0  0
   -6.7706   17.7706  -34.7979 H   0  0  0  0  0  0  0  0  0  0  0  0
   -6.3401   19.5248  -34.7323 H   0  0  0  0  0  0  0  0  0  0  0  0
   -4.6163   17.4210  -35.4478 H   0  0  0  0  0  0  0  0  0  0  0  0
   -4.1343   19.0983  -34.9874 H   0  0  0  0  0  0  0  0  0  0  0  0
   -0.6702   15.0855  -32.5978 H   0  0  0  0  0  0  0  0  0  0  0  0
    0.9216   15.2863  -30.6931 H   0  0  0  0  0  0  0  0  0  0  0  0
    0.2556   17.0337  -27.5577 H   0  0  0  0  0  0  0  0  0  0  0  0
    1.0875   15.6356  -28.2499 H   0  0  0  0  0  0  0  0  0  0  0  0
    2.0443   17.2622  -26.1286 H   0  0  0  0  0  0  0  0  0  0  0  0
    3.0419   16.1251  -27.0516 H   0  0  0  0  0  0  0  0  0  0  0  0
    2.8453   19.1192  -27.2630 H   0  0  0  0  0  0  0  0  0  0  0  0
    4.2056   18.0724  -27.6989 H   0  0  0  0  0  0  0  0  0  0  0  0
    2.4873   19.2652  -29.5464 H   0  0  0  0  0  0  0  0  0  0  0  0
    3.4133   17.8069  -29.9076 H   0  0  0  0  0  0  0  0  0  0  0  0
    0.8941   22.4439  -28.6682 H   0  0  0  0  0  0  0  0  0  0  0  0
    0.3412   24.8584  -28.4696 H   0  0  0  0  0  0  0  0  0  0  0  0
   -7.1125   23.5668  -29.7782 H   0  0  0  0  0  0  0  0  0  0  0  0
   -6.7868   24.2771  -31.3962 H   0  0  0  0  0  0  0  0  0  0  0  0
   -7.4764   21.3433  -30.8118 H   0  0  0  0  0  0  0  0  0  0  0  0
   -8.5730   22.5786  -31.5424 H   0  0  0  0  0  0  0  0  0  0  0  0
   -5.6545   20.5954  -31.9948 H   0  0  0  0  0  0  0  0  0  0  0  0
   -5.3151   21.2696  -33.6377 H   0  0  0  0  0  0  0  0  0  0  0  0
   -3.7673   22.1826  -31.9034 H   0  0  0  0  0  0  0  0  0  0  0  0
   -4.7853   23.4587  -32.6616 H   0  0  0  0  0  0  0  0  0  0  0  0
   -3.1104   21.6484  -30.1077 H   0  0  0  0  0  0  0  0  0  0  0  0
  1  2  2  0
  2  3  1  0
  3  4  1  0
  4  5  2  0
  5  6  1  0
  6  7  1  0
  7  8  2  0
  7  9  2  0
  7 10  1  0
 10 11  1  0
 11 12  1  0
 12 13  1  0
 13 14  1  0
 14 15  1  0
  6 16  2  0
 16 17  1  0
 17 18  2  0
 18 19  1  0
 19 20  1  0
 20 21  1  0
 21 22  1  0
 22 23  1  0
  2 24  1  0
 24 25  2  0
 25 26  1  0
 26 27  2  0
 27 28  1  0
 27 29  1  0
 29 30  1  0
 30 31  2  0
 30 32  2  0
 30 33  1  0
 33 34  1  0
 34 35  1  0
 35 36  1  0
 36 37  1  0
 37 38  1  0
 29 39  2  0
 18  4  1  0
 23 19  1  0
 39 24  1  0
 15 10  1  0
 38 33  1  0
  3 40  1  0
  5 41  1  0
 11 42  1  0
 11 43  1  0
 12 44  1  0
 12 45  1  0
 14 46  1  0
 14 47  1  0
 15 48  1  0
 15 49  1  0
 16 50  1  0
 17 51  1  0
 20 52  1  0
 20 53  1  0
 21 54  1  0
 21 55  1  0
 22 56  1  0
 22 57  1  0
 23 58  1  0
 23 59  1  0
 25 60  1  0
 26 61  1  0
 34 62  1  0
 34 63  1  0
 35 64  1  0
 35 65  1  0
 37 66  1  0
 37 67  1  0
 38 68  1  0
 38 69  1  0
 39 70  1  0
M  CHG  1  28  -1
M  END
>  <UniqueID>  (14) 
14

>  <SMILES>  (14) 
O=C(Nc1cc(S(=O)(=O)N2CCOCC2)ccc1N1CCCC1)c1ccc([O-])c(S(=O)(=O)N2CCOCC2)c1

>  <Energy>  (14) 
92.98169662630691

>  <Genealogy>  (14) 
O=C(Nc1cc(S(=O)(=O)N2CCOCC2)ccc1N1CCCC1)c1ccc([O-])c(S(=O)(=O)N2CCOCC2)c1 (protonated)
O=C(Nc1cc(S(=O)(=O)N2CCOCC2)ccc1N1CCCC1)c1ccc([O-])c(S(=O)(=O)N2CCOCC2)c1 (3D coordinates assigned)
O=C(Nc1cc(S(=O)(=O)N2CCOCC2)ccc1N1CCCC1)c1ccc([O-])c(S(=O)(=O)N2CCOCC2)c1 (nonaromatic ring conformer: 92.98169662630691 kcal/mol)

>  <smiles>  (14) 
O=C(Nc1cc(S(=O)(=O)N2CCOCC2)ccc1N1CCCC1)c1ccc(O)c(S(=O)(=O)N2CCOCC2)c1

>  <score_type>  (14) 
oracle

>  <origin>  (14) 
adgpu

>  <m_score__min__energy>  (14) 
-12.84

>  <m_primary>  (14) 
energy

$$$$
14:0
     RDKit          3D

 51 54  0  0  0  0  0  0  0  0999 V2000
   -5.6100   26.3770  -30.2970 O   0  0  0  0  0  0  0  0  0  0  0  0
   -5.0290   25.2670  -30.4460 C   0  0  0  0  0  0  0  0  0  0  0  0
   -3.5960   25.2160  -30.4800 N   0  0  0  0  0  0  0  0  0  0  0  0
   -2.7490   24.4100  -29.6490 C   0  0  0  0  0  0  0  0  0  0  0  0
   -1.7970   25.0470  -28.8420 C   0  0  0  0  0  0  0  0  0  0  0  0
   -0.9450   24.2960  -28.0280 C   0  0  0  0  0  0  0  0  0  0  0  0
   -1.0220   22.9020  -28.0280 C   0  0  0  0  0  0  0  0  0  0  0  0
   -1.9470   22.2500  -28.8560 C   0  0  0  0  0  0  0  0  0  0  0  0
   -2.0560   20.4920  -28.8720 S   0  0  0  0  0  0  0  0  0  0  0  0
   -1.2250   19.9490  -27.7430 O   0  0  0  0  0  0  0  0  0  0  0  0
   -3.4840   20.0710  -28.6600 O   0  0  0  0  0  0  0  0  0  0  0  0
   -1.4540   19.9130  -30.4100 N   0  0  0  0  0  0  0  0  0  0  0  0
   -0.1070   20.4070  -30.7510 C   0  0  0  0  0  0  0  0  0  0  0  0
    0.2650   20.3040  -32.2440 C   0  0  0  0  0  0  0  0  0  0  0  0
   -0.2130   21.5190  -33.0520 C   0  0  0  0  0  0  0  0  0  0  0  0
   -1.7150   21.4940  -33.3800 C   0  0  0  0  0  0  0  0  0  0  0  0
   -2.6490   21.2560  -32.1830 C   0  0  0  0  0  0  0  0  0  0  0  0
   -2.4490   19.8900  -31.4990 C   0  0  0  0  0  0  0  0  0  0  0  0
   -2.8070   23.0040  -29.6660 C   0  0  0  0  0  0  0  0  0  0  0  0
   -5.8400   24.0290  -30.6230 C   0  0  0  0  0  0  0  0  0  0  0  0
   -6.8800   23.7610  -29.7210 C   0  0  0  0  0  0  0  0  0  0  0  0
   -7.6500   22.6560  -29.8620 N   0  0  0  0  0  0  0  0  0  0  0  0
   -7.4410   21.7500  -30.8490 C   0  0  0  0  0  0  0  0  0  0  0  0
   -8.2980   20.6520  -30.9490 C   0  0  0  0  0  0  0  0  0  0  0  0
   -8.1050   19.7260  -31.9700 C   0  0  0  0  0  0  0  0  0  0  0  0
   -8.8840   18.7440  -32.0880 O   0  0  0  0  0  0  0  0  0  0  0  0
   -7.0690   19.8740  -32.8320 N   0  0  0  0  0  0  0  0  0  0  0  0
   -6.1920   20.9100  -32.7600 C   0  0  0  0  0  0  0  0  0  0  0  0
   -5.1210   20.8940  -33.6570 O   0  0  0  0  0  0  0  0  0  0  0  0
   -6.3810   21.9250  -31.7730 C   0  0  0  0  0  0  0  0  0  0  0  0
   -5.6100   23.1130  -31.6780 C   0  0  0  0  0  0  0  0  0  0  0  0
   -4.7470   23.3860  -32.5530 O   0  0  0  0  0  0  0  0  0  0  0  0
   -1.7199   26.1443  -28.8493 H   0  0  0  0  0  0  0  0  0  0  0  0
   -0.2114   24.8047  -27.3853 H   0  0  0  0  0  0  0  0  0  0  0  0
   -0.3566   22.3148  -27.3781 H   0  0  0  0  0  0  0  0  0  0  0  0
   -0.0466   21.4651  -30.4562 H   0  0  0  0  0  0  0  0  0  0  0  0
    0.6030   19.7628  -30.2116 H   0  0  0  0  0  0  0  0  0  0  0  0
    1.3591   20.2302  -32.3311 H   0  0  0  0  0  0  0  0  0  0  0  0
   -0.2332   19.4126  -32.6528 H   0  0  0  0  0  0  0  0  0  0  0  0
   -0.0001   22.4280  -32.4702 H   0  0  0  0  0  0  0  0  0  0  0  0
    0.3249   21.4976  -34.0113 H   0  0  0  0  0  0  0  0  0  0  0  0
   -1.9800   22.4623  -33.8295 H   0  0  0  0  0  0  0  0  0  0  0  0
   -1.8630   20.6374  -34.0540 H   0  0  0  0  0  0  0  0  0  0  0  0
   -2.4675   22.0459  -31.4393 H   0  0  0  0  0  0  0  0  0  0  0  0
   -3.6778   21.2715  -32.5719 H   0  0  0  0  0  0  0  0  0  0  0  0
   -3.4137   19.5660  -31.0814 H   0  0  0  0  0  0  0  0  0  0  0  0
   -2.0707   19.1983  -32.2661 H   0  0  0  0  0  0  0  0  0  0  0  0
   -3.5311   22.4941  -30.3185 H   0  0  0  0  0  0  0  0  0  0  0  0
   -7.0723   24.4558  -28.8902 H   0  0  0  0  0  0  0  0  0  0  0  0
   -9.1179   20.5202  -30.2276 H   0  0  0  0  0  0  0  0  0  0  0  0
   -4.6390   21.7160  -33.9900 H   0  0  0  0  0  0  0  0  0  0  0  0
  1  2  2  0
  2  3  1  0
  3  4  1  0
  4  5  2  0
  5  6  1  0
  6  7  2  0
  7  8  1  0
  8  9  1  0
  9 10  2  0
  9 11  2  0
  9 12  1  0
 12 13  1  0
 13 14  1  0
 14 15  1  0
 15 16  1  0
 16 17  1  0
 17 18  1  0
  8 19  2  0
  2 20  1  0
 20 21  2  0
 21 22  1  0
 22 23  1  0
 23 24  2  0
 24 25  1  0
 25 26  2  0
 25 27  1  0
 27 28  1  0
 28 29  1  0
 28 30  2  0
 30 31  1  0
 31 32  2  0
 19  4  1  0
 31 20  1  0
 18 12  1  0
 30 23  1  0
  5 33  1  0
  6 34  1  0
  7 35  1  0
 13 36  1  0
 13 37  1  0
 14 38  1  0
 14 39  1  0
 15 40  1  0
 15 41  1  0
 16 42  1  0
 16 43  1  0
 17 44  1  0
 17 45  1  0
 18 46  1  0
 18 47  1  0
 19 48  1  0
 21 49  1  0
 24 50  1  0
 29 51  1  0
M  CHG  3   3  -1  22  -1  27  -1
M  END
>  <UniqueID>  (15) 
15

>  <SMILES>  (15) 
O=C([N-]c1cccc(S(=O)(=O)N2CCCCCC2)c1)c1c[n-]c2cc(=O)[n-]c(O)c2c1=O

>  <Energy>  (15) 
83.26830960546786

>  <Genealogy>  (15) 
O=C([N-]c1cccc(S(=O)(=O)N2CCCCCC2)c1)c1c[n-]c2cc(=O)[n-]c(O)c2c1=O (protonated)
O=C([N-]c1cccc(S(=O)(=O)N2CCCCCC2)c1)c1c[n-]c2cc(=O)[n-]c(O)c2c1=O (3D coordinates assigned)
O=C([N-]c1cccc(S(=O)(=O)N2CCCCCC2)c1)c1c[n-]c2cc(=O)[n-]c(O)c2c1=O (nonaromatic ring conformer: 83.26830960546786 kcal/mol)

>  <smiles>  (15) 
O=C(Nc1cccc(S(=O)(=O)N2CCCCCC2)c1)c1c[nH]c2cc(=O)[nH]c(O)c2c1=O

>  <score_type>  (15) 
oracle

>  <origin>  (15) 
adgpu

>  <m_score__min__energy>  (15) 
-9.6699999999999999

>  <m_primary>  (15) 
energy

$$$$
15:0
     RDKit          3D

 32 33  0  0  0  0  0  0  0  0999 V2000
   -2.7790   22.2120  -29.4070 C   0  0  0  0  0  0  0  0  0  0  0  0
   -3.7920   23.1720  -29.9320 C   0  0  0  0  0  0  0  0  0  0  0  0
   -3.4970   24.1800  -30.7740 N   0  0  0  0  0  0  0  0  0  0  0  0
   -4.6390   24.7390  -31.0360 O   0  0  0  0  0  0  0  0  0  0  0  0
   -5.5930   24.1070  -30.3980 C   0  0  0  0  0  0  0  0  0  0  0  0
   -7.0400   24.4710  -30.4770 C   0  0  0  0  0  0  0  0  0  0  0  0
   -7.6690   23.7920  -31.6080 N   0  0  0  0  0  0  0  0  0  0  0  0
   -7.6980   22.3600  -31.7670 C   0  0  0  0  0  0  0  0  0  0  0  0
   -8.8500   21.6340  -31.4250 C   0  0  0  0  0  0  0  0  0  0  0  0
   -8.9040   20.2570  -31.6180 C   0  0  0  0  0  0  0  0  0  0  0  0
   -7.8230   19.5740  -32.1730 C   0  0  0  0  0  0  0  0  0  0  0  0
   -7.9700   17.8280  -32.3460 Cl  0  0  0  0  0  0  0  0  0  0  0  0
   -6.6570   20.2790  -32.5460 C   0  0  0  0  0  0  0  0  0  0  0  0
   -5.2720   19.4180  -33.2550 S   0  0  0  0  0  0  0  0  0  0  0  0
   -5.7890   18.6060  -34.7510 C   0  0  0  0  0  0  0  0  0  0  0  0
   -4.1630   20.3850  -33.5630 O   0  0  0  0  0  0  0  0  0  0  0  0
   -4.7340   18.3880  -32.3020 O   0  0  0  0  0  0  0  0  0  0  0  0
   -6.5830   21.6710  -32.3040 C   0  0  0  0  0  0  0  0  0  0  0  0
   -5.3880   22.3440  -32.5680 O   0  0  0  0  0  0  0  0  0  0  0  0
   -5.1130   23.0770  -29.6750 N   0  0  0  0  0  0  0  0  0  0  0  0
   -2.7949   22.2271  -28.3072 H   0  0  0  0  0  0  0  0  0  0  0  0
   -3.0152   21.1984  -29.7632 H   0  0  0  0  0  0  0  0  0  0  0  0
   -1.7796   22.5023  -29.7632 H   0  0  0  0  0  0  0  0  0  0  0  0
   -7.5423   24.1686  -29.5463 H   0  0  0  0  0  0  0  0  0  0  0  0
   -7.1300   25.5585  -30.6154 H   0  0  0  0  0  0  0  0  0  0  0  0
   -8.2020   24.3900  -32.2790 H   0  0  0  0  0  0  0  0  0  0  0  0
   -9.7184   22.1589  -31.0003 H   0  0  0  0  0  0  0  0  0  0  0  0
   -9.8088   19.7019  -31.3297 H   0  0  0  0  0  0  0  0  0  0  0  0
   -6.3640   17.7030  -34.4982 H   0  0  0  0  0  0  0  0  0  0  0  0
   -6.4190   19.2888  -35.3399 H   0  0  0  0  0  0  0  0  0  0  0  0
   -4.9037   18.3241  -35.3399 H   0  0  0  0  0  0  0  0  0  0  0  0
   -4.8140   22.7700  -31.8530 H   0  0  0  0  0  0  0  0  0  0  0  0
  1  2  1  0
  2  3  2  0
  3  4  1  0
  4  5  1  0
  5  6  1  0
  6  7  1  0
  7  8  1  0
  8  9  2  0
  9 10  1  0
 10 11  2  0
 11 12  1  0
 11 13  1  0
 13 14  1  0
 14 15  1  0
 14 16  2  0
 14 17  2  0
 13 18  2  0
 18 19  1  0
  5 20  2  0
 20  2  1  0
 18  8  1  0
  1 21  1  0
  1 22  1  0
  1 23  1  0
  6 24  1  0
  6 25  1  0
  7 26  1  0
  9 27  1  0
 10 28  1  0
 15 29  1  0
 15 30  1  0
 15 31  1  0
 19 32  1  0
M  END
>  <UniqueID>  (16) 
16

>  <SMILES>  (16) 
Cc1noc(CNc2ccc(Cl)c(S(C)(=O)=O)c2O)n1

>  <Energy>  (16) 
66.59780548885144

>  <Genealogy>  (16) 
Cc1noc(CNc2ccc(Cl)c(S(C)(=O)=O)c2O)n1 (3D coordinates assigned)
Cc1noc(CNc2ccc(Cl)c(S(C)(=O)=O)c2O)n1 (optimized conformer: 66.59780548885144 kcal/mol)

>  <smiles>  (16) 
Cc1noc(CNc2ccc(Cl)c(S(C)(=O)=O)c2O)n1

>  <score_type>  (16) 
oracle

>  <origin>  (16) 
adgpu

>  <m_score__min__energy>  (16) 
-8.4700000000000006

>  <m_primary>  (16) 
energy

$$$$
16:0
     RDKit          3D

 45 47  0  0  0  0  0  0  0  0999 V2000
   -8.7120   18.5630  -31.2070 C   0  0  0  0  0  0  0  0  0  0  0  0
   -9.1490   19.8180  -31.8390 N   0  0  0  0  0  0  0  0  0  0  0  0
   -9.0910   20.9360  -30.8850 C   0  0  0  0  0  0  0  0  0  0  0  0
   -8.4270   20.1030  -33.1000 C   0  0  0  0  0  0  0  0  0  0  0  0
   -6.9730   20.4820  -32.9020 C   0  0  0  0  0  0  0  0  0  0  0  0
   -5.9600   19.5220  -33.0650 C   0  0  0  0  0  0  0  0  0  0  0  0
   -4.6200   19.8720  -32.8800 C   0  0  0  0  0  0  0  0  0  0  0  0
   -4.2670   21.1840  -32.5430 C   0  0  0  0  0  0  0  0  0  0  0  0
   -2.9120   21.4890  -32.3600 O   0  0  0  0  0  0  0  0  0  0  0  0
   -2.3830   22.0900  -31.2110 C   0  0  0  0  0  0  0  0  0  0  0  0
   -2.8200   23.3710  -30.8600 C   0  0  0  0  0  0  0  0  0  0  0  0
   -2.2960   24.0160  -29.7350 C   0  0  0  0  0  0  0  0  0  0  0  0
   -2.7290   25.3000  -29.4220 O   0  0  0  0  0  0  0  0  0  0  0  0
   -1.3390   23.3700  -28.9370 C   0  0  0  0  0  0  0  0  0  0  0  0
   -0.6360   24.1970  -27.5460 S   0  0  0  0  0  0  0  0  0  0  0  0
   -0.5110   23.2220  -26.4080 O   0  0  0  0  0  0  0  0  0  0  0  0
    0.7280   24.7350  -27.8750 O   0  0  0  0  0  0  0  0  0  0  0  0
   -1.6650   25.5080  -27.0740 N   0  0  0  0  0  0  0  0  0  0  0  0
   -1.2850   26.4300  -26.0470 C   0  0  0  0  0  0  0  0  0  0  0  0
   -0.8680   27.7260  -26.3260 C   0  0  0  0  0  0  0  0  0  0  0  0
   -0.5040   28.4620  -24.8600 S   0  0  0  0  0  0  0  0  0  0  0  0
   -0.8910   27.1100  -23.9400 C   0  0  0  0  0  0  0  0  0  0  0  0
   -1.2980   26.0920  -24.7280 N   0  0  0  0  0  0  0  0  0  0  0  0
   -0.9250   22.0720  -29.2680 C   0  0  0  0  0  0  0  0  0  0  0  0
   -1.4450   21.4280  -30.3960 C   0  0  0  0  0  0  0  0  0  0  0  0
   -0.9460   19.7760  -30.7330 Cl  0  0  0  0  0  0  0  0  0  0  0  0
   -5.2810   22.1460  -32.3760 C   0  0  0  0  0  0  0  0  0  0  0  0
   -6.6210   21.7980  -32.5620 C   0  0  0  0  0  0  0  0  0  0  0  0
   -8.7496   18.6709  -30.1130 H   0  0  0  0  0  0  0  0  0  0  0  0
   -9.3781   17.7446  -31.5178 H   0  0  0  0  0  0  0  0  0  0  0  0
   -7.6817   18.3353  -31.5178 H   0  0  0  0  0  0  0  0  0  0  0  0
   -9.1114   20.5429  -29.8578 H   0  0  0  0  0  0  0  0  0  0  0  0
   -8.1622   21.5041  -31.0419 H   0  0  0  0  0  0  0  0  0  0  0  0
   -9.9561   21.5971  -31.0419 H   0  0  0  0  0  0  0  0  0  0  0  0
   -8.4677   19.2045  -33.7333 H   0  0  0  0  0  0  0  0  0  0  0  0
   -8.9227   20.9687  -33.5635 H   0  0  0  0  0  0  0  0  0  0  0  0
   -6.2232   18.4898  -33.3396 H   0  0  0  0  0  0  0  0  0  0  0  0
   -3.8358   19.1101  -33.0002 H   0  0  0  0  0  0  0  0  0  0  0  0
   -3.5815   23.8752  -31.4732 H   0  0  0  0  0  0  0  0  0  0  0  0
   -2.5730   25.6360  -27.5750 H   0  0  0  0  0  0  0  0  0  0  0  0
   -0.7905   28.1852  -27.3226 H   0  0  0  0  0  0  0  0  0  0  0  0
   -0.8220   27.0610  -22.8433 H   0  0  0  0  0  0  0  0  0  0  0  0
   -0.1864   21.5565  -28.6366 H   0  0  0  0  0  0  0  0  0  0  0  0
   -5.0169   23.1769  -32.0976 H   0  0  0  0  0  0  0  0  0  0  0  0
   -7.4053   22.5597  -32.4413 H   0  0  0  0  0  0  0  0  0  0  0  0
  1  2  1  0
  2  3  1  0
  2  4  1  0
  4  5  1  0
  5  6  2  0
  6  7  1  0
  7  8  2  0
  8  9  1  0
  9 10  1  0
 10 11  2  0
 11 12  1  0
 12 13  1  0
 12 14  2  0
 14 15  1  0
 15 16  2  0
 15 17  2  0
 15 18  1  0
 18 19  1  0
 19 20  2  0
 20 21  1  0
 21 22  1  0
 22 23  2  0
 14 24  1  0
 24 25  2  0
 25 26  1  0
  8 27  1  0
 27 28  2  0
 28  5  1  0
 25 10  1  0
 23 19  1  0
  1 29  1  0
  1 30  1  0
  1 31  1  0
  3 32  1  0
  3 33  1  0
  3 34  1  0
  4 35  1  0
  4 36  1  0
  6 37  1  0
  7 38  1  0
 11 39  1  0
 18 40  1  0
 20 41  1  0
 22 42  1  0
 24 43  1  0
 27 44  1  0
 28 45  1  0
M  CHG  1  13  -1
M  END
>  <UniqueID>  (17) 
17

>  <SMILES>  (17) 
CN(C)Cc1ccc(Oc2cc([O-])c(S(=O)(=O)Nc3cscn3)cc2Cl)cc1

>  <Energy>  (17) 
88.22395219421276

>  <Genealogy>  (17) 
CN(C)Cc1ccc(Oc2cc([O-])c(S(=O)(=O)Nc3cscn3)cc2Cl)cc1 (protonated)
CN(C)Cc1ccc(Oc2cc([O-])c(S(=O)(=O)Nc3cscn3)cc2Cl)cc1 (3D coordinates assigned)
CN(C)Cc1ccc(Oc2cc([O-])c(S(=O)(=O)Nc3cscn3)cc2Cl)cc1 (optimized conformer: 88.22395219421276 kcal/mol)

>  <smiles>  (17) 
CN(C)Cc1ccc(Oc2cc(O)c(S(=O)(=O)Nc3cscn3)cc2Cl)cc1

>  <score_type>  (17) 
oracle

>  <origin>  (17) 
adgpu

>  <m_score__min__energy>  (17) 
-11.1

>  <m_primary>  (17) 
energy

$$$$
17:0
     RDKit          3D

 65 70  0  0  0  0  0  0  0  0999 V2000
   -0.4550   26.8250  -22.9120 C   0  0  0  0  0  0  0  0  0  0  0  0
    0.1880   25.8280  -23.7870 N   0  0  0  0  0  0  0  0  0  0  0  0
   -0.8110   24.8140  -24.2060 C   0  0  0  0  0  0  0  0  0  0  0  0
   -0.3140   24.0030  -25.4110 C   0  0  0  0  0  0  0  0  0  0  0  0
    0.0270   24.8540  -26.5750 N   0  0  0  0  0  0  0  0  0  0  0  0
   -1.0800   24.6210  -27.9090 S   0  0  0  0  0  0  0  0  0  0  0  0
   -2.4890   24.7170  -27.3910 O   0  0  0  0  0  0  0  0  0  0  0  0
   -0.8890   25.7100  -28.9280 O   0  0  0  0  0  0  0  0  0  0  0  0
   -0.8480   23.0520  -28.6850 C   0  0  0  0  0  0  0  0  0  0  0  0
   -0.2480   21.9960  -27.9870 C   0  0  0  0  0  0  0  0  0  0  0  0
   -0.0230   20.7700  -28.6220 C   0  0  0  0  0  0  0  0  0  0  0  0
   -0.4070   20.5760  -29.9550 C   0  0  0  0  0  0  0  0  0  0  0  0
   -0.0430   19.3480  -30.6110 N   0  0  0  0  0  0  0  0  0  0  0  0
   -0.6810   18.7610  -31.5810 C   0  0  0  0  0  0  0  0  0  0  0  0
   -0.1110   17.6830  -32.2030 N   0  0  0  0  0  0  0  0  0  0  0  0
   -0.7110   17.0700  -33.2630 C   0  0  0  0  0  0  0  0  0  0  0  0
   -1.9340   17.5700  -33.6860 C   0  0  0  0  0  0  0  0  0  0  0  0
   -2.6790   17.1460  -34.7290 N   0  0  0  0  0  0  0  0  0  0  0  0
   -3.7600   17.9700  -34.6950 C   0  0  0  0  0  0  0  0  0  0  0  0
   -3.6450   18.8580  -33.6330 C   0  0  0  0  0  0  0  0  0  0  0  0
   -4.6550   19.8160  -33.1610 C   0  0  0  0  0  0  0  0  0  0  0  0
   -6.0020   19.6660  -33.5150 C   0  0  0  0  0  0  0  0  0  0  0  0
   -6.9510   20.5870  -33.0610 C   0  0  0  0  0  0  0  0  0  0  0  0
   -6.5680   21.6360  -32.2200 C   0  0  0  0  0  0  0  0  0  0  0  0
   -5.2270   21.7700  -31.8190 C   0  0  0  0  0  0  0  0  0  0  0  0
   -4.8350   22.8010  -30.8360 C   0  0  0  0  0  0  0  0  0  0  0  0
   -4.5670   22.4750  -29.6460 O   0  0  0  0  0  0  0  0  0  0  0  0
   -4.7160   24.1670  -31.2500 N   0  0  0  0  0  0  0  0  0  0  0  0
   -5.6540   25.2090  -30.8550 C   0  0  0  0  0  0  0  0  0  0  0  0
   -5.7860   25.3270  -29.3460 C   0  0  0  0  0  0  0  0  0  0  0  0
   -6.9010   24.6870  -30.1620 C   0  0  0  0  0  0  0  0  0  0  0  0
   -4.2720   20.8680  -32.3170 C   0  0  0  0  0  0  0  0  0  0  0  0
   -2.4880   18.5850  -33.0230 N   0  0  0  0  0  0  0  0  0  0  0  0
   -1.9050   19.2030  -32.0000 N   0  0  0  0  0  0  0  0  0  0  0  0
   -0.9980   21.6450  -30.6570 C   0  0  0  0  0  0  0  0  0  0  0  0
   -1.2270   22.8660  -30.0210 C   0  0  0  0  0  0  0  0  0  0  0  0
    0.1480   26.2910  -26.2580 C   0  0  0  0  0  0  0  0  0  0  0  0
    0.8850   26.4850  -24.9280 C   0  0  0  0  0  0  0  0  0  0  0  0
   -0.2813   26.5557  -21.8597 H   0  0  0  0  0  0  0  0  0  0  0  0
   -0.0270   27.8184  -23.1117 H   0  0  0  0  0  0  0  0  0  0  0  0
   -1.5365   26.8449  -23.1117 H   0  0  0  0  0  0  0  0  0  0  0  0
    0.9110   25.3370  -23.2100 H   0  0  0  0  0  0  0  0  0  0  0  0
   -0.9992   24.1287  -23.3664 H   0  0  0  0  0  0  0  0  0  0  0  0
   -1.7339   25.3369  -24.4974 H   0  0  0  0  0  0  0  0  0  0  0  0
    0.5834   23.4420  -25.1110 H   0  0  0  0  0  0  0  0  0  0  0  0
   -1.1304   23.3330  -25.7186 H   0  0  0  0  0  0  0  0  0  0  0  0
    0.0472   22.1313  -26.9360 H   0  0  0  0  0  0  0  0  0  0  0  0
    0.4600   19.9507  -28.0693 H   0  0  0  0  0  0  0  0  0  0  0  0
   -0.2424   16.2104  -33.7644 H   0  0  0  0  0  0  0  0  0  0  0  0
   -4.6009   17.9382  -35.4034 H   0  0  0  0  0  0  0  0  0  0  0  0
   -6.3132   18.8236  -34.1502 H   0  0  0  0  0  0  0  0  0  0  0  0
   -8.0028   20.4858  -33.3667 H   0  0  0  0  0  0  0  0  0  0  0  0
   -7.3190   22.3597  -31.8704 H   0  0  0  0  0  0  0  0  0  0  0  0
   -5.4675   25.9028  -31.6880 H   0  0  0  0  0  0  0  0  0  0  0  0
   -5.1594   24.7063  -28.6886 H   0  0  0  0  0  0  0  0  0  0  0  0
   -5.7271   26.1529  -28.6218 H   0  0  0  0  0  0  0  0  0  0  0  0
   -7.0802   23.6038  -30.0943 H   0  0  0  0  0  0  0  0  0  0  0  0
   -7.9820   24.8587  -30.2718 H   0  0  0  0  0  0  0  0  0  0  0  0
   -3.2137   20.9882  -32.0421 H   0  0  0  0  0  0  0  0  0  0  0  0
   -1.2805   21.5166  -31.7123 H   0  0  0  0  0  0  0  0  0  0  0  0
   -1.7081   23.6875  -30.5721 H   0  0  0  0  0  0  0  0  0  0  0  0
    0.7093   26.7930  -27.0599 H   0  0  0  0  0  0  0  0  0  0  0  0
   -0.8598   26.7237  -26.1737 H   0  0  0  0  0  0  0  0  0  0  0  0
    1.8941   26.0567  -25.0184 H   0  0  0  0  0  0  0  0  0  0  0  0
    0.9203   27.5647  -24.7204 H   0  0  0  0  0  0  0  0  0  0  0  0
  1  2  1  0
  2  3  1  0
  3  4  1  0
  4  5  1  0
  5  6  1  0
  6  7  2  0
  6  8  2  0
  6  9  1  0
  9 10  2  0
 10 11  1  0
 11 12  2  0
 12 13  1  0
 13 14  2  3
 14 15  1  0
 15 16  2  0
 16 17  1  0
 17 18  2  0
 18 19  1  0
 19 20  2  0
 20 21  1  0
 21 22  2  0
 22 23  1  0
 23 24  2  0
 24 25  1  0
 25 26  1  0
 26 27  2  0
 26 28  1  0
 28 29  1  0
 29 30  1  0
 30 31  1  0
 25 32  2  0
 20 33  1  0
 33 34  1  0
 12 35  1  0
 35 36  2  0
  5 37  1  0
 37 38  1  0
 38  2  1  0
 36  9  1  0
 34 14  1  0
 33 17  1  0
 32 21  1  0
 31 29  1  0
  1 39  1  0
  1 40  1  0
  1 41  1  0
  2 42  1  0
  3 43  1  0
  3 44  1  0
  4 45  1  0
  4 46  1  0
 10 47  1  0
 11 48  1  0
 16 49  1  0
 19 50  1  0
 22 51  1  0
 23 52  1  0
 24 53  1  0
 29 54  1  0
 30 55  1  0
 30 56  1  0
 31 57  1  0
 31 58  1  0
 32 59  1  0
 35 60  1  0
 36 61  1  0
 37 62  1  0
 37 63  1  0
 38 64  1  0
 38 65  1  0
M  CHG  3   2   1  28  -1  34  -1
M  END
>  <UniqueID>  (18) 
18

>  <SMILES>  (18) 
C[NH+]1CCN(S(=O)(=O)c2ccc(N=c3ncc4ncc(-c5cccc(C(=O)[N-]C6CC6)c5)n4[n-]3)cc2)CC1

>  <Energy>  (18) 
394.20108007864707

>  <Genealogy>  (18) 
C[NH+]1CCN(S(=O)(=O)c2ccc(N=c3ncc4ncc(-c5cccc(C(=O)[N-]C6CC6)c5)n4[n-]3)cc2)CC1 (protonated)
C[NH+]1CCN(S(=O)(=O)c2ccc(N=c3ncc4ncc(-c5cccc(C(=O)[N-]C6CC6)c5)n4[n-]3)cc2)CC1 (3D coordinates assigned)
C[NH+]1CCN(S(=O)(=O)c2ccc(N=c3ncc4ncc(-c5cccc(C(=O)[N-]C6CC6)c5)n4[n-]3)cc2)CC1 (nonaromatic ring conformer: 394.20108007864707 kcal/mol)

>  <smiles>  (18) 
CN1CCN(S(=O)(=O)c2ccc(N=c3ncc4ncc(-c5cccc(C(=O)NC6CC6)c5)n4[nH]3)cc2)CC1

>  <score_type>  (18) 
oracle

>  <origin>  (18) 
adgpu

>  <m_score__min__energy>  (18) 
-11.699999999999999

>  <m_primary>  (18) 
energy

$$$$
18:0
     RDKit          3D

 35 37  0  0  0  0  0  0  0  0999 V2000
   -8.7570   19.2280  -32.6540 C   0  0  0  0  0  0  0  0  0  0  0  0
   -7.3500   19.6580  -32.7740 N   0  0  0  0  0  0  0  0  0  0  0  0
   -6.4610   18.9020  -33.5040 C   0  0  0  0  0  0  0  0  0  0  0  0
   -6.8310   17.8390  -34.0770 O   0  0  0  0  0  0  0  0  0  0  0  0
   -5.1250   19.3060  -33.6210 C   0  0  0  0  0  0  0  0  0  0  0  0
   -4.3040   18.6200  -34.2880 O   0  0  0  0  0  0  0  0  0  0  0  0
   -4.7100   20.4410  -33.0160 N   0  0  0  0  0  0  0  0  0  0  0  0
   -5.5610   21.2060  -32.2910 C   0  0  0  0  0  0  0  0  0  0  0  0
   -5.0890   22.3720  -31.6770 C   0  0  0  0  0  0  0  0  0  0  0  0
   -5.9520   23.1680  -30.9180 C   0  0  0  0  0  0  0  0  0  0  0  0
   -5.3560   24.6190  -30.1170 S   0  0  0  0  0  0  0  0  0  0  0  0
   -6.5020   25.5680  -29.9140 O   0  0  0  0  0  0  0  0  0  0  0  0
   -4.3030   25.2940  -30.9500 O   0  0  0  0  0  0  0  0  0  0  0  0
   -4.6800   24.2050  -28.5750 N   0  0  0  0  0  0  0  0  0  0  0  0
   -3.4800   23.4420  -28.3760 C   0  0  0  0  0  0  0  0  0  0  0  0
   -3.5000   22.1670  -27.7790 C   0  0  0  0  0  0  0  0  0  0  0  0
   -2.3090   21.4590  -27.5860 C   0  0  0  0  0  0  0  0  0  0  0  0
   -2.3430   19.8780  -26.8290 Cl  0  0  0  0  0  0  0  0  0  0  0  0
   -1.0920   22.0140  -27.9910 C   0  0  0  0  0  0  0  0  0  0  0  0
   -1.0640   23.2740  -28.5920 C   0  0  0  0  0  0  0  0  0  0  0  0
   -2.2530   23.9910  -28.7850 C   0  0  0  0  0  0  0  0  0  0  0  0
   -2.2240   25.2490  -29.3840 O   0  0  0  0  0  0  0  0  0  0  0  0
   -7.2950   22.8020  -30.7850 C   0  0  0  0  0  0  0  0  0  0  0  0
   -7.7760   21.6400  -31.3950 C   0  0  0  0  0  0  0  0  0  0  0  0
   -6.9170   20.8160  -32.1600 C   0  0  0  0  0  0  0  0  0  0  0  0
   -9.0259   19.1458  -31.5905 H   0  0  0  0  0  0  0  0  0  0  0  0
   -9.4093   19.9678  -33.1410 H   0  0  0  0  0  0  0  0  0  0  0  0
   -8.8843   18.2499  -33.1410 H   0  0  0  0  0  0  0  0  0  0  0  0
   -4.0345   22.6632  -31.7922 H   0  0  0  0  0  0  0  0  0  0  0  0
   -4.4566   21.7255  -27.4629 H   0  0  0  0  0  0  0  0  0  0  0  0
   -0.1556   21.4579  -27.8362 H   0  0  0  0  0  0  0  0  0  0  0  0
   -0.1053   23.7057  -28.9153 H   0  0  0  0  0  0  0  0  0  0  0  0
   -3.0660   25.6890  -29.7380 H   0  0  0  0  0  0  0  0  0  0  0  0
   -7.9775   23.4327  -30.1964 H   0  0  0  0  0  0  0  0  0  0  0  0
   -8.8342   21.3630  -31.2790 H   0  0  0  0  0  0  0  0  0  0  0  0
  1  2  1  0
  2  3  1  0
  3  4  2  0
  3  5  1  0
  5  6  2  0
  5  7  1  0
  7  8  1  0
  8  9  2  0
  9 10  1  0
 10 11  1  0
 11 12  2  0
 11 13  2  0
 11 14  1  0
 14 15  1  0
 15 16  2  0
 16 17  1  0
 17 18  1  0
 17 19  2  0
 19 20  1  0
 20 21  2  0
 21 22  1  0
 10 23  2  0
 23 24  1  0
 24 25  2  0
 25  2  1  0
 25  8  1  0
 21 15  1  0
  1 26  1  0
  1 27  1  0
  1 28  1  0
  9 29  1  0
 16 30  1  0
 19 31  1  0
 20 32  1  0
 22 33  1  0
 23 34  1  0
 24 35  1  0
M  CHG  2   7  -1  14  -1
M  END
>  <UniqueID>  (19) 
19

>  <SMILES>  (19) 
Cn1c(=O)c(=O)[n-]c2cc(S(=O)(=O)[N-]c3cc(Cl)ccc3O)ccc21

>  <Energy>  (19) 
50.87750378252871

>  <Genealogy>  (19) 
Cn1c(=O)c(=O)[n-]c2cc(S(=O)(=O)[N-]c3cc(Cl)ccc3O)ccc21 (protonated)
Cn1c(=O)c(=O)[n-]c2cc(S(=O)(=O)[N-]c3cc(Cl)ccc3O)ccc21 (3D coordinates assigned)
Cn1c(=O)c(=O)[n-]c2cc(S(=O)(=O)[N-]c3cc(Cl)ccc3O)ccc21 (optimized conformer: 50.87750378252871 kcal/mol)

>  <smiles>  (19) 
Cn1c(=O)c(=O)[nH]c2cc(S(=O)(=O)Nc3cc(Cl)ccc3O)ccc21

>  <score_type>  (19) 
oracle

>  <origin>  (19) 
adgpu

>  <m_score__min__energy>  (19) 
-11.65

>  <m_primary>  (19) 
energy

$$$$
19:0
     RDKit          3D

 55 58  0  0  0  0  0  0  0  0999 V2000
   -3.9080   21.8170  -32.4830 C   0  0  0  0  0  0  0  0  0  0  0  0
   -5.3620   21.8410  -32.0880 C   0  0  0  0  0  0  0  0  0  0  0  0
   -6.2470   20.9390  -32.7040 C   0  0  0  0  0  0  0  0  0  0  0  0
   -7.6050   20.9410  -32.3780 C   0  0  0  0  0  0  0  0  0  0  0  0
   -8.0950   21.8360  -31.4280 C   0  0  0  0  0  0  0  0  0  0  0  0
   -7.2280   22.7280  -30.7950 C   0  0  0  0  0  0  0  0  0  0  0  0
   -5.8570   22.7420  -31.1100 C   0  0  0  0  0  0  0  0  0  0  0  0
   -4.9680   23.6810  -30.3870 C   0  0  0  0  0  0  0  0  0  0  0  0
   -4.5950   24.7390  -30.9610 O   0  0  0  0  0  0  0  0  0  0  0  0
   -4.4970   23.3610  -29.0640 N   0  0  0  0  0  0  0  0  0  0  0  0
   -3.5450   24.1440  -28.3210 C   0  0  0  0  0  0  0  0  0  0  0  0
   -2.3410   24.5930  -28.8950 C   0  0  0  0  0  0  0  0  0  0  0  0
   -1.4370   25.3470  -28.1410 C   0  0  0  0  0  0  0  0  0  0  0  0
   -1.7300   25.6780  -26.8120 C   0  0  0  0  0  0  0  0  0  0  0  0
   -0.6220   26.6650  -25.8660 S   0  0  0  0  0  0  0  0  0  0  0  0
   -0.5480   28.0660  -26.4040 O   0  0  0  0  0  0  0  0  0  0  0  0
   -1.1790   26.7360  -24.4720 O   0  0  0  0  0  0  0  0  0  0  0  0
    1.0090   25.9620  -25.8360 C   0  0  0  0  0  0  0  0  0  0  0  0
    2.0750   26.7910  -26.2350 C   0  0  0  0  0  0  0  0  0  0  0  0
    3.3880   26.3230  -26.2390 C   0  0  0  0  0  0  0  0  0  0  0  0
    3.6630   25.0170  -25.8450 C   0  0  0  0  0  0  0  0  0  0  0  0
    4.9730   24.5530  -25.8430 O   0  0  0  0  0  0  0  0  0  0  0  0
    2.6250   24.1750  -25.4500 C   0  0  0  0  0  0  0  0  0  0  0  0
    1.2900   24.6220  -25.4420 C   0  0  0  0  0  0  0  0  0  0  0  0
    0.0650   23.4570  -24.8860 S   0  0  0  0  0  0  0  0  0  0  0  0
   -1.1560   24.2110  -24.4370 O   0  0  0  0  0  0  0  0  0  0  0  0
    0.5700   22.6680  -23.7130 O   0  0  0  0  0  0  0  0  0  0  0  0
   -0.4170   22.3630  -26.1810 C   0  0  0  0  0  0  0  0  0  0  0  0
   -1.2330   21.2600  -25.8910 C   0  0  0  0  0  0  0  0  0  0  0  0
   -1.6590   20.4110  -26.9180 C   0  0  0  0  0  0  0  0  0  0  0  0
   -1.2650   20.6530  -28.2370 C   0  0  0  0  0  0  0  0  0  0  0  0
   -0.4580   21.7550  -28.5330 C   0  0  0  0  0  0  0  0  0  0  0  0
   -0.0420   22.6140  -27.5110 C   0  0  0  0  0  0  0  0  0  0  0  0
   -2.9480   25.2740  -26.2530 C   0  0  0  0  0  0  0  0  0  0  0  0
   -3.8490   24.5140  -27.0030 C   0  0  0  0  0  0  0  0  0  0  0  0
   -3.2824   21.8067  -31.5783 H   0  0  0  0  0  0  0  0  0  0  0  0
   -3.7049   20.9154  -33.0795 H   0  0  0  0  0  0  0  0  0  0  0  0
   -3.6753   22.7114  -33.0795 H   0  0  0  0  0  0  0  0  0  0  0  0
   -5.8665   20.2252  -33.4495 H   0  0  0  0  0  0  0  0  0  0  0  0
   -8.2892   20.2352  -32.8717 H   0  0  0  0  0  0  0  0  0  0  0  0
   -9.1660   21.8392  -31.1771 H   0  0  0  0  0  0  0  0  0  0  0  0
   -7.6207   23.4272  -30.0421 H   0  0  0  0  0  0  0  0  0  0  0  0
   -4.7840   22.4450  -28.6520 H   0  0  0  0  0  0  0  0  0  0  0  0
   -2.1101   24.3493  -29.9425 H   0  0  0  0  0  0  0  0  0  0  0  0
   -0.4918   25.6817  -28.5933 H   0  0  0  0  0  0  0  0  0  0  0  0
    1.8682   27.8249  -26.5487 H   0  0  0  0  0  0  0  0  0  0  0  0
    4.2071   26.9863  -26.5537 H   0  0  0  0  0  0  0  0  0  0  0  0
    2.8525   23.1445  -25.1395 H   0  0  0  0  0  0  0  0  0  0  0  0
   -1.5389   21.0618  -24.8531 H   0  0  0  0  0  0  0  0  0  0  0  0
   -2.3053   19.5513  -26.6870 H   0  0  0  0  0  0  0  0  0  0  0  0
   -1.5898   19.9767  -29.0414 H   0  0  0  0  0  0  0  0  0  0  0  0
   -0.1497   21.9469  -29.5713 H   0  0  0  0  0  0  0  0  0  0  0  0
    0.5807   23.4888  -27.7494 H   0  0  0  0  0  0  0  0  0  0  0  0
   -3.1967   25.5560  -25.2193 H   0  0  0  0  0  0  0  0  0  0  0  0
   -4.8048   24.2033  -26.5559 H   0  0  0  0  0  0  0  0  0  0  0  0
  1  2  1  0
  2  3  2  0
  3  4  1  0
  4  5  2  0
  5  6  1  0
  6  7  2  0
  7  8  1  0
  8  9  2  0
  8 10  1  0
 10 11  1  0
 11 12  2  0
 12 13  1  0
 13 14  2  0
 14 15  1  0
 15 16  2  0
 15 17  2  0
 15 18  1  0
 18 19  2  0
 19 20  1  0
 20 21  2  0
 21 22  1  0
 21 23  1  0
 23 24  2  0
 24 25  1  0
 25 26  2  0
 25 27  2  0
 25 28  1  0
 28 29  2  0
 29 30  1  0
 30 31  2  0
 31 32  1  0
 32 33  2  0
 14 34  1  0
 34 35  2  0
  7  2  1  0
 35 11  1  0
 24 18  1  0
 33 28  1  0
  1 36  1  0
  1 37  1  0
  1 38  1  0
  3 39  1  0
  4 40  1  0
  5 41  1  0
  6 42  1  0
 10 43  1  0
 12 44  1  0
 13 45  1  0
 19 46  1  0
 20 47  1  0
 23 48  1  0
 29 49  1  0
 30 50  1  0
 31 51  1  0
 32 52  1  0
 33 53  1  0
 34 54  1  0
 35 55  1  0
M  CHG  1  22  -1
M  END
>  <UniqueID>  (20) 
20

>  <SMILES>  (20) 
Cc1ccccc1C(=O)Nc1ccc(S(=O)(=O)c2ccc([O-])cc2S(=O)(=O)c2ccccc2)cc1

>  <Energy>  (20) 
72.38175497342198

>  <Genealogy>  (20) 
Cc1ccccc1C(=O)Nc1ccc(S(=O)(=O)c2ccc([O-])cc2S(=O)(=O)c2ccccc2)cc1 (protonated)
Cc1ccccc1C(=O)Nc1ccc(S(=O)(=O)c2ccc([O-])cc2S(=O)(=O)c2ccccc2)cc1 (3D coordinates assigned)
Cc1ccccc1C(=O)Nc1ccc(S(=O)(=O)c2ccc([O-])cc2S(=O)(=O)c2ccccc2)cc1 (optimized conformer: 72.38175497342198 kcal/mol)

>  <smiles>  (20) 
Cc1ccccc1C(=O)Nc1ccc(S(=O)(=O)c2ccc(O)cc2S(=O)(=O)c2ccccc2)cc1

>  <score_type>  (20) 
oracle

>  <origin>  (20) 
adgpu

>  <m_score__min__energy>  (20) 
-11.16

>  <m_primary>  (20) 
energy

$$$$
20:0
     RDKit          3D

 45 48  0  0  0  0  0  0  0  0999 V2000
   -3.2780   24.9180  -30.3270 O   0  0  0  0  0  0  0  0  0  0  0  0
   -4.0150   24.1920  -29.6040 C   0  0  0  0  0  0  0  0  0  0  0  0
   -3.6510   23.9390  -28.2330 N   0  0  0  0  0  0  0  0  0  0  0  0
   -2.5370   24.5610  -27.5710 C   0  0  0  0  0  0  0  0  0  0  0  0
   -1.2420   24.5810  -28.1590 C   0  0  0  0  0  0  0  0  0  0  0  0
   -0.1710   25.2200  -27.5080 C   0  0  0  0  0  0  0  0  0  0  0  0
   -0.4270   25.8380  -26.2880 C   0  0  0  0  0  0  0  0  0  0  0  0
   -1.6640   25.8420  -25.7310 C   0  0  0  0  0  0  0  0  0  0  0  0
   -2.7500   25.2220  -26.3410 C   0  0  0  0  0  0  0  0  0  0  0  0
   -1.6280   26.5320  -24.5340 O   0  0  0  0  0  0  0  0  0  0  0  0
   -0.2840   26.9890  -24.3270 C   0  0  0  0  0  0  0  0  0  0  0  0
    0.4490   26.5240  -25.4710 O   0  0  0  0  0  0  0  0  0  0  0  0
   -5.2430   23.6080  -30.1930 C   0  0  0  0  0  0  0  0  0  0  0  0
   -6.1920   22.9940  -29.3560 C   0  0  0  0  0  0  0  0  0  0  0  0
   -7.3550   22.4330  -29.8910 C   0  0  0  0  0  0  0  0  0  0  0  0
   -7.5910   22.4820  -31.2690 C   0  0  0  0  0  0  0  0  0  0  0  0
   -9.0550   21.7600  -31.9290 S   0  0  0  0  0  0  0  0  0  0  0  0
   -9.8470   22.8010  -32.6700 O   0  0  0  0  0  0  0  0  0  0  0  0
   -9.8820   21.2320  -30.7890 O   0  0  0  0  0  0  0  0  0  0  0  0
   -8.6100   20.4550  -33.0100 N   0  0  0  0  0  0  0  0  0  0  0  0
   -9.4460   19.2510  -32.7940 C   0  0  0  0  0  0  0  0  0  0  0  0
   -8.7400   18.1810  -31.9430 C   0  0  0  0  0  0  0  0  0  0  0  0
   -7.8890   18.7900  -30.9990 O   0  0  0  0  0  0  0  0  0  0  0  0
   -6.7850   19.3920  -31.6530 C   0  0  0  0  0  0  0  0  0  0  0  0
   -7.1690   20.1570  -32.9420 C   0  0  0  0  0  0  0  0  0  0  0  0
   -6.6620   23.1110  -32.1080 C   0  0  0  0  0  0  0  0  0  0  0  0
   -5.4970   23.6710  -31.5750 C   0  0  0  0  0  0  0  0  0  0  0  0
   -4.1860   23.2290  -27.6880 H   0  0  0  0  0  0  0  0  0  0  0  0
   -1.0766   24.0928  -29.1308 H   0  0  0  0  0  0  0  0  0  0  0  0
    0.8365   25.2307  -27.9494 H   0  0  0  0  0  0  0  0  0  0  0  0
   -3.7475   25.2459  -25.8779 H   0  0  0  0  0  0  0  0  0  0  0  0
   -0.2540   28.0871  -24.2692 H   0  0  0  0  0  0  0  0  0  0  0  0
    0.1394   26.6115  -23.3846 H   0  0  0  0  0  0  0  0  0  0  0  0
   -6.0174   22.9550  -28.2707 H   0  0  0  0  0  0  0  0  0  0  0  0
   -8.0872   21.9513  -29.2263 H   0  0  0  0  0  0  0  0  0  0  0  0
  -10.3717   19.5529  -32.2822 H   0  0  0  0  0  0  0  0  0  0  0  0
   -9.6511   18.8084  -33.7799 H   0  0  0  0  0  0  0  0  0  0  0  0
   -9.4955   17.5799  -31.4159 H   0  0  0  0  0  0  0  0  0  0  0  0
   -8.1399   17.5374  -32.6031 H   0  0  0  0  0  0  0  0  0  0  0  0
   -6.3123   20.1000  -30.9564 H   0  0  0  0  0  0  0  0  0  0  0  0
   -6.1052   18.5801  -31.9507 H   0  0  0  0  0  0  0  0  0  0  0  0
   -6.6107   21.1043  -32.9701 H   0  0  0  0  0  0  0  0  0  0  0  0
   -6.9183   19.5157  -33.7999 H   0  0  0  0  0  0  0  0  0  0  0  0
   -6.8499   23.1645  -33.1905 H   0  0  0  0  0  0  0  0  0  0  0  0
   -4.7740   24.1643  -32.2412 H   0  0  0  0  0  0  0  0  0  0  0  0
  1  2  2  0
  2  3  1  0
  3  4  1  0
  4  5  2  0
  5  6  1  0
  6  7  2  0
  7  8  1  0
  8  9  2  0
  8 10  1  0
 10 11  1  0
 11 12  1  0
  2 13  1  0
 13 14  2  0
 14 15  1  0
 15 16  2  0
 16 17  1  0
 17 18  2  0
 17 19  2  0
 17 20  1  0
 20 21  1  0
 21 22  1  0
 22 23  1  0
 23 24  1  0
 24 25  1  0
 16 26  1  0
 26 27  2  0
  9  4  1  0
 27 13  1  0
 12  7  1  0
 25 20  1  0
  3 28  1  0
  5 29  1  0
  6 30  1  0
  9 31  1  0
 11 32  1  0
 11 33  1  0
 14 34  1  0
 15 35  1  0
 21 36  1  0
 21 37  1  0
 22 38  1  0
 22 39  1  0
 24 40  1  0
 24 41  1  0
 25 42  1  0
 25 43  1  0
 26 44  1  0
 27 45  1  0
M  END
>  <UniqueID>  (21) 
21

>  <SMILES>  (21) 
O=C(Nc1ccc2c(c1)OCO2)c1ccc(S(=O)(=O)N2CCOCC2)cc1

>  <Energy>  (21) 
93.73550747144414

>  <Genealogy>  (21) 
O=C(Nc1ccc2c(c1)OCO2)c1ccc(S(=O)(=O)N2CCOCC2)cc1 (3D coordinates assigned)
O=C(Nc1ccc2c(c1)OCO2)c1ccc(S(=O)(=O)N2CCOCC2)cc1 (nonaromatic ring conformer: 93.73550747144414 kcal/mol)

>  <smiles>  (21) 
O=C(Nc1ccc2c(c1)OCO2)c1ccc(S(=O)(=O)N2CCOCC2)cc1

>  <score_type>  (21) 
oracle

>  <origin>  (21) 
adgpu

>  <m_score__min__energy>  (21) 
-8.8200000000000003

>  <m_primary>  (21) 
energy

$$$$
21:0
     RDKit          3D

 56 58  0  0  0  0  0  0  0  0999 V2000
   -3.6360   16.7980  -34.8600 C   0  0  0  0  0  0  0  0  0  0  0  0
   -3.9200   18.1980  -34.8950 O   0  0  0  0  0  0  0  0  0  0  0  0
   -3.6150   19.0960  -33.8590 C   0  0  0  0  0  0  0  0  0  0  0  0
   -2.4160   19.8480  -33.8570 C   0  0  0  0  0  0  0  0  0  0  0  0
   -2.1370   20.7350  -32.8120 C   0  0  0  0  0  0  0  0  0  0  0  0
   -3.0410   20.8760  -31.7570 C   0  0  0  0  0  0  0  0  0  0  0  0
   -4.2420   20.1550  -31.7550 C   0  0  0  0  0  0  0  0  0  0  0  0
   -4.5460   19.2720  -32.8070 C   0  0  0  0  0  0  0  0  0  0  0  0
   -5.8890   18.5790  -32.8370 C   0  0  0  0  0  0  0  0  0  0  0  0
   -6.8480   19.2840  -33.7050 N   0  0  0  0  0  0  0  0  0  0  0  0
   -8.0780   19.6910  -33.0030 C   0  0  0  0  0  0  0  0  0  0  0  0
   -7.7260   20.6060  -31.8280 C   0  0  0  0  0  0  0  0  0  0  0  0
   -9.0270   21.7700  -31.4290 S   0  0  0  0  0  0  0  0  0  0  0  0
  -10.2060   21.5600  -32.3370 O   0  0  0  0  0  0  0  0  0  0  0  0
   -9.4560   21.5810  -30.0000 O   0  0  0  0  0  0  0  0  0  0  0  0
   -8.4140   23.3860  -31.6300 N   0  0  0  0  0  0  0  0  0  0  0  0
   -7.1330   23.7600  -31.1060 C   0  0  0  0  0  0  0  0  0  0  0  0
   -5.9680   23.1600  -31.6050 C   0  0  0  0  0  0  0  0  0  0  0  0
   -4.7070   23.6090  -31.1890 C   0  0  0  0  0  0  0  0  0  0  0  0
   -4.5940   24.6620  -30.2710 C   0  0  0  0  0  0  0  0  0  0  0  0
   -3.3090   25.1460  -29.9650 O   0  0  0  0  0  0  0  0  0  0  0  0
   -2.3880   24.4560  -29.1750 C   0  0  0  0  0  0  0  0  0  0  0  0
   -1.7450   23.3120  -29.6670 C   0  0  0  0  0  0  0  0  0  0  0  0
   -0.8560   22.5990  -28.8540 C   0  0  0  0  0  0  0  0  0  0  0  0
   -0.6050   23.0310  -27.5460 C   0  0  0  0  0  0  0  0  0  0  0  0
   -1.2140   24.2010  -27.0600 C   0  0  0  0  0  0  0  0  0  0  0  0
   -0.9990   24.6280  -25.6390 C   0  0  0  0  0  0  0  0  0  0  0  0
   -2.1040   24.9080  -27.8830 C   0  0  0  0  0  0  0  0  0  0  0  0
   -5.7700   25.2230  -29.7260 C   0  0  0  0  0  0  0  0  0  0  0  0
   -7.0250   24.7650  -30.1310 C   0  0  0  0  0  0  0  0  0  0  0  0
   -3.5682   16.4637  -33.8142 H   0  0  0  0  0  0  0  0  0  0  0  0
   -4.4408   16.2478  -35.3694 H   0  0  0  0  0  0  0  0  0  0  0  0
   -2.6804   16.6049  -35.3694 H   0  0  0  0  0  0  0  0  0  0  0  0
   -1.6985   19.7341  -34.6830 H   0  0  0  0  0  0  0  0  0  0  0  0
   -1.2062   21.3211  -32.8212 H   0  0  0  0  0  0  0  0  0  0  0  0
   -2.8090   21.5560  -30.9241 H   0  0  0  0  0  0  0  0  0  0  0  0
   -4.9526   20.2802  -30.9247 H   0  0  0  0  0  0  0  0  0  0  0  0
   -5.7530   17.5548  -33.2145 H   0  0  0  0  0  0  0  0  0  0  0  0
   -6.2937   18.5723  -31.8142 H   0  0  0  0  0  0  0  0  0  0  0  0
   -7.1240   18.6140  -34.4610 H   0  0  0  0  0  0  0  0  0  0  0  0
   -8.7356   20.2298  -33.7011 H   0  0  0  0  0  0  0  0  0  0  0  0
   -8.5931   18.7958  -32.6244 H   0  0  0  0  0  0  0  0  0  0  0  0
   -7.5321   19.9812  -30.9437 H   0  0  0  0  0  0  0  0  0  0  0  0
   -6.8417   21.1907  -32.1214 H   0  0  0  0  0  0  0  0  0  0  0  0
   -9.1060   24.1330  -31.8480 H   0  0  0  0  0  0  0  0  0  0  0  0
   -6.0440   22.3330  -32.3263 H   0  0  0  0  0  0  0  0  0  0  0  0
   -3.7992   23.1313  -31.5861 H   0  0  0  0  0  0  0  0  0  0  0  0
   -1.9395   22.9733  -30.6953 H   0  0  0  0  0  0  0  0  0  0  0  0
   -0.3550   21.7000  -29.2424 H   0  0  0  0  0  0  0  0  0  0  0  0
    0.0702   22.4536  -26.8974 H   0  0  0  0  0  0  0  0  0  0  0  0
   -1.3885   23.8545  -24.9608 H   0  0  0  0  0  0  0  0  0  0  0  0
    0.0768   24.7675  -25.4568 H   0  0  0  0  0  0  0  0  0  0  0  0
   -1.5276   25.5753  -25.4568 H   0  0  0  0  0  0  0  0  0  0  0  0
   -2.5820   25.8252  -27.5085 H   0  0  0  0  0  0  0  0  0  0  0  0
   -5.6966   26.0259  -28.9777 H   0  0  0  0  0  0  0  0  0  0  0  0
   -7.9342   25.1936  -29.6841 H   0  0  0  0  0  0  0  0  0  0  0  0
  1  2  1  0
  2  3  1  0
  3  4  2  0
  4  5  1  0
  5  6  2  0
  6  7  1  0
  7  8  2  0
  8  9  1  0
  9 10  1  0
 10 11  1  0
 11 12  1  0
 12 13  1  0
 13 14  2  0
 13 15  2  0
 13 16  1  0
 16 17  1  0
 17 18  2  0
 18 19  1  0
 19 20  2  0
 20 21  1  0
 21 22  1  0
 22 23  2  0
 23 24  1  0
 24 25  2  0
 25 26  1  0
 26 27  1  0
 26 28  2  0
 20 29  1  0
 29 30  2  0
  8  3  1  0
 30 17  1  0
 28 22  1  0
  1 31  1  0
  1 32  1  0
  1 33  1  0
  4 34  1  0
  5 35  1  0
  6 36  1  0
  7 37  1  0
  9 38  1  0
  9 39  1  0
 10 40  1  0
 11 41  1  0
 11 42  1  0
 12 43  1  0
 12 44  1  0
 16 45  1  0
 18 46  1  0
 19 47  1  0
 23 48  1  0
 24 49  1  0
 25 50  1  0
 27 51  1  0
 27 52  1  0
 27 53  1  0
 28 54  1  0
 29 55  1  0
 30 56  1  0
M  END
>  <UniqueID>  (22) 
22

>  <SMILES>  (22) 
COc1ccccc1CNCCS(=O)(=O)Nc1ccc(Oc2cccc(C)c2)cc1

>  <Energy>  (22) 
60.17742003681277

>  <Genealogy>  (22) 
COc1ccccc1CNCCS(=O)(=O)Nc1ccc(Oc2cccc(C)c2)cc1 (3D coordinates assigned)
COc1ccccc1CNCCS(=O)(=O)Nc1ccc(Oc2cccc(C)c2)cc1 (optimized conformer: 60.17742003681277 kcal/mol)

>  <smiles>  (22) 
COc1ccccc1CNCCS(=O)(=O)Nc1ccc(Oc2cccc(C)c2)cc1

>  <score_type>  (22) 
oracle

>  <origin>  (22) 
adgpu

>  <m_score__min__energy>  (22) 
-9.1999999999999993

>  <m_primary>  (22) 
energy

$$$$
22:0
     RDKit          3D

 24 25  0  0  0  0  0  0  0  0999 V2000
   -9.1250   20.2840  -32.0290 C   0  0  0  0  0  0  0  0  0  0  0  0
   -7.4550   20.9230  -32.3870 S   0  0  0  0  0  0  0  0  0  0  0  0
   -7.8230   22.6620  -31.9650 C   0  0  0  0  0  0  0  0  0  0  0  0
   -6.5950   23.3500  -31.4680 C   0  0  0  0  0  0  0  0  0  0  0  0
   -6.1550   24.5300  -31.9480 N   0  0  0  0  0  0  0  0  0  0  0  0
   -5.0450   24.7510  -31.3130 O   0  0  0  0  0  0  0  0  0  0  0  0
   -4.8030   23.7610  -30.4900 C   0  0  0  0  0  0  0  0  0  0  0  0
   -3.6010   23.6770  -29.6060 C   0  0  0  0  0  0  0  0  0  0  0  0
   -2.7940   24.8920  -29.7160 N   0  0  0  0  0  0  0  0  0  0  0  0
   -1.9430   25.2910  -28.8160 C   0  0  0  0  0  0  0  0  0  0  0  0
   -1.2300   26.4260  -28.9560 N   0  0  0  0  0  0  0  0  0  0  0  0
   -0.4960   26.4760  -27.8320 C   0  0  0  0  0  0  0  0  0  0  0  0
   -0.7830   25.3810  -27.0500 C   0  0  0  0  0  0  0  0  0  0  0  0
   -1.7030   24.6200  -27.6680 N   0  0  0  0  0  0  0  0  0  0  0  0
   -5.7690   22.8240  -30.5410 N   0  0  0  0  0  0  0  0  0  0  0  0
   -9.2706   20.2283  -30.9401 H   0  0  0  0  0  0  0  0  0  0  0  0
   -9.8768   20.9580  -32.4655 H   0  0  0  0  0  0  0  0  0  0  0  0
   -9.2349   19.2803  -32.4655 H   0  0  0  0  0  0  0  0  0  0  0  0
   -8.1916   23.1819  -32.8615 H   0  0  0  0  0  0  0  0  0  0  0  0
   -8.5872   22.6823  -31.1741 H   0  0  0  0  0  0  0  0  0  0  0  0
   -3.9275   23.5533  -28.5629 H   0  0  0  0  0  0  0  0  0  0  0  0
   -2.9907   22.8169  -29.9187 H   0  0  0  0  0  0  0  0  0  0  0  0
    0.2225   27.2688  -27.5767 H   0  0  0  0  0  0  0  0  0  0  0  0
   -0.3303   25.1623  -26.0716 H   0  0  0  0  0  0  0  0  0  0  0  0
  1  2  1  0
  2  3  1  0
  3  4  1  0
  4  5  2  0
  5  6  1  0
  6  7  1  0
  7  8  1  0
  8  9  1  0
  9 10  2  3
 10 11  1  0
 11 12  1  0
 12 13  2  0
 13 14  1  0
  7 15  2  0
 15  4  1  0
 14 10  1  0
  1 16  1  0
  1 17  1  0
  1 18  1  0
  3 19  1  0
  3 20  1  0
  8 21  1  0
  8 22  1  0
 12 23  1  0
 13 24  1  0
M  CHG  2  11  -1  14  -1
M  END
>  <UniqueID>  (23) 
23

>  <SMILES>  (23) 
CSCc1noc(CN=c2[n-]cc[n-]2)n1

>  <Energy>  (23) 
77.62154501907202

>  <Genealogy>  (23) 
CSCc1noc(CN=c2[n-]cc[n-]2)n1 (protonated)
CSCc1noc(CN=c2[n-]cc[n-]2)n1 (3D coordinates assigned)
CSCc1noc(CN=c2[n-]cc[n-]2)n1 (optimized conformer: 77.62154501907202 kcal/mol)

>  <smiles>  (23) 
CSCc1noc(CN=c2[nH]cc[nH]2)n1

>  <score_type>  (23) 
oracle

>  <origin>  (23) 
adgpu

>  <m_score__min__energy>  (23) 
-8.6799999999999997

>  <m_primary>  (23) 
energy

$$$$
23:0
     RDKit          3D

 84 88  0  0  1  0  0  0  0  0999 V2000
   -0.4110   27.5640  -24.0050 C   0  0  0  0  0  0  0  0  0  0  0  0
   -0.3200   26.2950  -23.7090 C   0  0  0  0  0  0  0  0  0  0  0  0
   -0.7100   25.2110  -24.6250 C   0  0  0  0  0  0  0  0  0  0  0  0
   -1.5470   25.4960  -25.5120 O   0  0  0  0  0  0  0  0  0  0  0  0
   -0.1770   23.9120  -24.5240 N   0  0  0  0  0  0  0  0  0  0  0  0
   -0.4720   22.8040  -25.3350 C   0  0  0  0  0  0  0  0  0  0  0  0
   -0.9640   21.5970  -24.9080 C   0  0  0  0  0  0  0  0  0  0  0  0
   -1.2330   20.5390  -25.7810 C   0  0  0  0  0  0  0  0  0  0  0  0
   -1.0110   20.6690  -27.1350 C   0  0  0  0  0  0  0  0  0  0  0  0
   -0.5160   21.8800  -27.5690 C   0  0  0  0  0  0  0  0  0  0  0  0
   -0.2820   22.0430  -28.9270 O   0  0  0  0  0  0  0  0  0  0  0  0
   -1.3330   22.5420  -29.6770 C   0  0  0  0  0  0  0  0  0  0  0  0
   -2.1170   23.6110  -29.2620 C   0  0  0  0  0  0  0  0  0  0  0  0
   -3.1550   24.0840  -30.0340 C   0  0  0  0  0  0  0  0  0  0  0  0
   -3.9090   25.0730  -29.6910 N   0  0  0  0  0  0  0  0  0  0  0  0
   -4.9950   25.5430  -30.5300 C   0  0  0  0  0  0  0  0  0  0  0  0
   -5.9910   24.4580  -30.7760 C   0  0  0  0  0  0  0  0  0  0  0  0
   -6.5370   23.7150  -29.7550 C   0  0  0  0  0  0  0  0  0  0  0  0
   -7.4590   22.7070  -29.9520 C   0  0  0  0  0  0  0  0  0  0  0  0
   -7.8410   22.4470  -31.2580 C   0  0  0  0  0  0  0  0  0  0  0  0
   -8.7980   21.3950  -31.4290 N   0  0  0  0  0  0  0  0  0  0  0  0
   -8.5260   20.3680  -32.3780 C   0  0  0  0  0  0  0  0  0  0  0  0
   -7.4470   20.4000  -33.0510 O   0  0  0  0  0  0  0  0  0  0  0  0
   -9.4750   19.2530  -32.6000 C   0  0  0  0  0  0  0  0  0  0  0  0
   -9.2030   18.1760  -31.5980 C   0  0  0  0  0  0  0  0  0  0  0  0
   -7.3240   23.1620  -32.3170 C   0  0  0  0  0  0  0  0  0  0  0  0
   -6.3910   24.1770  -32.0750 C   0  0  0  0  0  0  0  0  0  0  0  0
   -3.3730   23.4510  -31.2190 N   0  0  0  0  0  0  0  0  0  0  0  0
   -2.6130   22.4140  -31.6230 C   0  0  0  0  0  0  0  0  0  0  0  0
   -2.8440   21.8410  -32.7420 N   0  0  0  0  0  0  0  0  0  0  0  0
   -2.0990   20.7400  -33.2540 C   0  0  0  0  0  0  0  0  0  0  0  0
   -0.8070   21.0380  -33.6930 C   0  0  0  0  0  0  0  0  0  0  0  0
    0.0060   20.0510  -34.2090 C   0  0  0  0  0  0  0  0  0  0  0  0
   -0.5160   18.7760  -34.2690 C   0  0  0  0  0  0  0  0  0  0  0  0
   -1.8070   18.4820  -33.8290 C   0  0  0  0  0  0  0  0  0  0  0  0
   -2.3200   16.8220  -33.9710 S   0  0  0  0  0  0  0  0  0  0  0  0
   -1.8290   15.9890  -32.8150 O   0  0  0  0  0  0  0  0  0  0  0  0
   -1.8070   16.1740  -35.2190 O   0  0  0  0  0  0  0  0  0  0  0  0
   -4.0300   16.7850  -33.9570 N   0  0  0  0  0  0  0  0  0  0  0  0
   -4.5590   16.6200  -32.6390 C   0  0  0  0  0  0  0  0  0  0  0  0
   -5.6930   17.6110  -32.3870 C   0  0  0  0  0  0  0  0  0  0  0  0
   -6.7300   17.4380  -33.4910 C   0  0  0  0  0  0  0  0  0  0  0  0
   -6.1220   17.4400  -34.8620 C   0  0  0  0  0  0  0  0  0  0  0  0
   -4.6530   17.8220  -34.7250 C   0  0  0  0  0  0  0  0  0  0  0  0
   -2.6190   19.4750  -33.3120 C   0  0  0  0  0  0  0  0  0  0  0  0
   -1.5860   21.9380  -30.8700 N   0  0  0  0  0  0  0  0  0  0  0  0
   -0.2560   22.9110  -26.7120 C   0  0  0  0  0  0  0  0  0  0  0  0
   -0.1012   28.3233  -23.2719 H   0  0  0  0  0  0  0  0  0  0  0  0
   -0.7974   27.8733  -24.9874 H   0  0  0  0  0  0  0  0  0  0  0  0
    0.0706   26.0207  -22.7180 H   0  0  0  0  0  0  0  0  0  0  0  0
    0.5250   23.7640  -23.7410 H   0  0  0  0  0  0  0  0  0  0  0  0
   -1.1548   21.4557  -23.8339 H   0  0  0  0  0  0  0  0  0  0  0  0
   -1.6263   19.5920  -25.3829 H   0  0  0  0  0  0  0  0  0  0  0  0
   -1.2187   19.8464  -27.8352 H   0  0  0  0  0  0  0  0  0  0  0  0
   -1.9041   24.0905  -28.2952 H   0  0  0  0  0  0  0  0  0  0  0  0
   -5.4966   26.3850  -30.0306 H   0  0  0  0  0  0  0  0  0  0  0  0
   -4.5778   25.8608  -31.4969 H   0  0  0  0  0  0  0  0  0  0  0  0
   -6.2213   23.9365  -28.7248 H   0  0  0  0  0  0  0  0  0  0  0  0
   -7.8726   22.1348  -29.1085 H   0  0  0  0  0  0  0  0  0  0  0  0
   -9.6930   21.3610  -30.8740 H   0  0  0  0  0  0  0  0  0  0  0  0
  -10.5062   19.6167  -32.4799 H   0  0  0  0  0  0  0  0  0  0  0  0
   -9.3493   18.8546  -33.6176 H   0  0  0  0  0  0  0  0  0  0  0  0
   -9.3064   18.5855  -30.5823 H   0  0  0  0  0  0  0  0  0  0  0  0
   -9.9221   17.3553  -31.7374 H   0  0  0  0  0  0  0  0  0  0  0  0
   -8.1805   17.7952  -31.7374 H   0  0  0  0  0  0  0  0  0  0  0  0
   -7.6425   22.9364  -33.3454 H   0  0  0  0  0  0  0  0  0  0  0  0
   -5.9745   24.7524  -32.9149 H   0  0  0  0  0  0  0  0  0  0  0  0
   -4.1390   23.7460  -31.8640 H   0  0  0  0  0  0  0  0  0  0  0  0
   -0.4342   22.0707  -33.6264 H   0  0  0  0  0  0  0  0  0  0  0  0
    1.0259   20.2710  -34.5574 H   0  0  0  0  0  0  0  0  0  0  0  0
    0.1052   17.9649  -34.6767 H   0  0  0  0  0  0  0  0  0  0  0  0
   -4.9435   15.5952  -32.5295 H   0  0  0  0  0  0  0  0  0  0  0  0
   -3.7571   16.8057  -31.9093 H   0  0  0  0  0  0  0  0  0  0  0  0
   -6.1534   17.4093  -31.4086 H   0  0  0  0  0  0  0  0  0  0  0  0
   -5.3054   18.6405  -32.3873 H   0  0  0  0  0  0  0  0  0  0  0  0
   -7.2503   16.4809  -33.3382 H   0  0  0  0  0  0  0  0  0  0  0  0
   -7.4220   18.2911  -33.4333 H   0  0  0  0  0  0  0  0  0  0  0  0
   -6.2072   16.4388  -35.3096 H   0  0  0  0  0  0  0  0  0  0  0  0
   -6.6447   18.1581  -35.5109 H   0  0  0  0  0  0  0  0  0  0  0  0
   -4.1849   17.8922  -35.7180 H   0  0  0  0  0  0  0  0  0  0  0  0
   -4.5417   18.8002  -34.2344 H   0  0  0  0  0  0  0  0  0  0  0  0
   -3.6390   19.2576  -32.9624 H   0  0  0  0  0  0  0  0  0  0  0  0
   -1.0220   21.1320  -31.2210 H   0  0  0  0  0  0  0  0  0  0  0  0
    0.1357   23.8553  -27.1180 H   0  0  0  0  0  0  0  0  0  0  0  0
  1  2  2  0
  2  3  1  0
  3  4  2  0
  3  5  1  0
  5  6  1  0
  6  7  2  0
  7  8  1  0
  8  9  2  0
  9 10  1  0
 10 11  1  0
 11 12  1  0
 12 13  2  0
 13 14  1  0
 14 15  2  0
 15 16  1  0
 16 17  1  0
 17 18  2  0
 18 19  1  0
 19 20  2  0
 20 21  1  0
 21 22  1  0
 22 23  2  0
 22 24  1  0
 24 25  1  0
 20 26  1  0
 26 27  2  0
 14 28  1  0
 28 29  1  0
 29 30  2  0
 30 31  1  0
 31 32  2  0
 32 33  1  0
 33 34  2  0
 34 35  1  0
 35 36  1  0
 36 37  2  0
 36 38  2  0
 36 39  1  0
 39 40  1  0
 40 41  1  0
 41 42  1  0
 42 43  1  0
 43 44  1  0
 35 45  2  0
 29 46  1  0
 10 47  2  0
 47  6  1  0
 46 12  1  0
 27 17  1  0
 45 31  1  0
 44 39  1  0
  1 48  1  0
  1 49  1  0
  2 50  1  0
  5 51  1  0
  7 52  1  0
  8 53  1  0
  9 54  1  0
 13 55  1  0
 16 56  1  0
 16 57  1  0
 18 58  1  0
 19 59  1  0
 21 60  1  0
 24 61  1  0
 24 62  1  0
 25 63  1  0
 25 64  1  0
 25 65  1  0
 26 66  1  0
 27 67  1  0
 28 68  1  0
 32 69  1  0
 33 70  1  0
 34 71  1  0
 40 72  1  0
 40 73  1  0
 41 74  1  0
 41 75  1  0
 42 76  1  0
 42 77  1  0
 43 78  1  0
 43 79  1  0
 44 80  1  0
 44 81  1  0
 45 82  1  0
 46 83  1  0
 47 84  1  0
M  END
>  <smiles>  (24) 
C=CC(=O)Nc1cccc(Oc2cc(=NCc3ccc(NC(=O)CC)cc3)[nH]c(=Nc3cccc(S(=O)(=O)N4CCCCC4)c3)[nH]2)c1

>  <score_type>  (24) 
oracle

>  <origin>  (24) 
adgpu

>  <m_score__min__energy>  (24) 
-13.880000000000001

>  <m_primary>  (24) 
energy

$$$$
24:0
     RDKit          3D

 46 49  0  0  0  0  0  0  0  0999 V2000
   -5.9330   25.9470  -31.4310 O   0  0  0  0  0  0  0  0  0  0  0  0
   -5.4350   24.9600  -30.4170 S   0  0  0  0  0  0  0  0  0  0  0  0
   -6.2220   25.1390  -29.1510 O   0  0  0  0  0  0  0  0  0  0  0  0
   -3.7630   25.2730  -30.0920 N   0  0  0  0  0  0  0  0  0  0  0  0
   -2.8980   24.4320  -29.3140 C   0  0  0  0  0  0  0  0  0  0  0  0
   -3.2710   23.1310  -28.9380 C   0  0  0  0  0  0  0  0  0  0  0  0
   -2.4040   22.3290  -28.1830 C   0  0  0  0  0  0  0  0  0  0  0  0
   -1.1460   22.8330  -27.7970 C   0  0  0  0  0  0  0  0  0  0  0  0
   -0.7790   24.1370  -28.1650 C   0  0  0  0  0  0  0  0  0  0  0  0
   -1.6390   24.9210  -28.9360 C   0  0  0  0  0  0  0  0  0  0  0  0
   -1.2380   26.1900  -29.3300 O   0  0  0  0  0  0  0  0  0  0  0  0
   -0.2290   22.0180  -26.9150 C   0  0  0  0  0  0  0  0  0  0  0  0
   -0.4850   20.5760  -27.0290 N   0  0  0  0  0  0  0  0  0  0  0  0
   -1.9070   20.2780  -26.8140 C   0  0  0  0  0  0  0  0  0  0  0  0
   -2.7670   20.8910  -27.9240 C   0  0  0  0  0  0  0  0  0  0  0  0
   -5.6420   23.3360  -31.0610 C   0  0  0  0  0  0  0  0  0  0  0  0
   -6.7790   22.5830  -30.7440 C   0  0  0  0  0  0  0  0  0  0  0  0
   -6.9550   21.3100  -31.2880 C   0  0  0  0  0  0  0  0  0  0  0  0
   -5.9970   20.7700  -32.1680 C   0  0  0  0  0  0  0  0  0  0  0  0
   -6.2140   19.4410  -32.7960 C   0  0  0  0  0  0  0  0  0  0  0  0
   -5.6120   19.1160  -34.0280 C   0  0  0  0  0  0  0  0  0  0  0  0
   -5.8270   17.8630  -34.6150 C   0  0  0  0  0  0  0  0  0  0  0  0
   -6.6480   16.9210  -33.9810 C   0  0  0  0  0  0  0  0  0  0  0  0
   -6.8700   15.6720  -34.5560 O   0  0  0  0  0  0  0  0  0  0  0  0
   -7.2510   17.2370  -32.7580 C   0  0  0  0  0  0  0  0  0  0  0  0
   -7.0360   18.4850  -32.1670 C   0  0  0  0  0  0  0  0  0  0  0  0
   -4.8490   21.5260  -32.4660 C   0  0  0  0  0  0  0  0  0  0  0  0
   -4.6740   22.7990  -31.9160 C   0  0  0  0  0  0  0  0  0  0  0  0
   -4.2532   22.7376  -29.2390 H   0  0  0  0  0  0  0  0  0  0  0  0
    0.1915   24.5433  -27.8441 H   0  0  0  0  0  0  0  0  0  0  0  0
    0.8126   22.2169  -27.2076 H   0  0  0  0  0  0  0  0  0  0  0  0
   -0.4155   22.3122  -25.8716 H   0  0  0  0  0  0  0  0  0  0  0  0
   -0.2040   20.2560  -27.9860 H   0  0  0  0  0  0  0  0  0  0  0  0
   -2.0497   19.1873  -26.8084 H   0  0  0  0  0  0  0  0  0  0  0  0
   -2.2154   20.7103  -25.8507 H   0  0  0  0  0  0  0  0  0  0  0  0
   -2.6187   20.3142  -28.8488 H   0  0  0  0  0  0  0  0  0  0  0  0
   -3.8179   20.8566  -27.6007 H   0  0  0  0  0  0  0  0  0  0  0  0
   -7.5372   22.9968  -30.0629 H   0  0  0  0  0  0  0  0  0  0  0  0
   -7.8487   20.7239  -31.0276 H   0  0  0  0  0  0  0  0  0  0  0  0
   -4.9685   19.8520  -34.5322 H   0  0  0  0  0  0  0  0  0  0  0  0
   -5.3505   17.6178  -35.5756 H   0  0  0  0  0  0  0  0  0  0  0  0
   -6.1600   14.9480  -34.5410 H   0  0  0  0  0  0  0  0  0  0  0  0
   -7.8972   16.4994  -32.2596 H   0  0  0  0  0  0  0  0  0  0  0  0
   -7.5118   18.7226  -31.2041 H   0  0  0  0  0  0  0  0  0  0  0  0
   -4.0825   21.1119  -33.1375 H   0  0  0  0  0  0  0  0  0  0  0  0
   -3.7718   23.3806  -32.1564 H   0  0  0  0  0  0  0  0  0  0  0  0
  1  2  2  0
  2  3  2  0
  2  4  1  0
  4  5  1  0
  5  6  2  0
  6  7  1  0
  7  8  2  0
  8  9  1  0
  9 10  2  0
 10 11  1  0
  8 12  1  0
 12 13  1  0
 13 14  1  0
 14 15  1  0
  2 16  1  0
 16 17  2  0
 17 18  1  0
 18 19  2  0
 19 20  1  0
 20 21  2  0
 21 22  1  0
 22 23  2  0
 23 24  1  0
 23 25  1  0
 25 26  2  0
 19 27  1  0
 27 28  2  0
 10  5  1  0
 28 16  1  0
 15  7  1  0
 26 20  1  0
  6 29  1  0
  9 30  1  0
 12 31  1  0
 12 32  1  0
 13 33  1  0
 14 34  1  0
 14 35  1  0
 15 36  1  0
 15 37  1  0
 17 38  1  0
 18 39  1  0
 21 40  1  0
 22 41  1  0
 24 42  1  0
 25 43  1  0
 26 44  1  0
 27 45  1  0
 28 46  1  0
M  CHG  2   4  -1  11  -1
M  END
>  <UniqueID>  (25) 
24

>  <SMILES>  (25) 
O=S(=O)([N-]c1cc2c(cc1[O-])CNCC2)c1ccc(-c2ccc(O)cc2)cc1

>  <Energy>  (25) 
60.61107731932538

>  <Genealogy>  (25) 
O=S(=O)([N-]c1cc2c(cc1[O-])CNCC2)c1ccc(-c2ccc(O)cc2)cc1 (protonated)
O=S(=O)([N-]c1cc2c(cc1[O-])CNCC2)c1ccc(-c2ccc(O)cc2)cc1 (3D coordinates assigned)
O=S(=O)([N-]c1cc2c(cc1[O-])CNCC2)c1ccc(-c2ccc(O)cc2)cc1 (nonaromatic ring conformer: 60.61107731932538 kcal/mol)

>  <smiles>  (25) 
O=S(=O)(Nc1cc2c(cc1O)CNCC2)c1ccc(-c2ccc(O)cc2)cc1

>  <score_type>  (25) 
oracle

>  <origin>  (25) 
adgpu

>  <m_score__min__energy>  (25) 
-14.23

>  <m_primary>  (25) 
energy

$$$$
25:0
     RDKit          3D

 60 63  0  0  0  0  0  0  0  0999 V2000
   -9.0300   17.7830  -31.9600 O   0  0  0  0  0  0  0  0  0  0  0  0
   -7.6940   18.4650  -32.0610 S   0  0  0  0  0  0  0  0  0  0  0  0
   -6.8240   17.9500  -30.9490 O   0  0  0  0  0  0  0  0  0  0  0  0
   -7.8660   20.2130  -31.8580 C   0  0  0  0  0  0  0  0  0  0  0  0
   -6.7680   20.9450  -31.3830 C   0  0  0  0  0  0  0  0  0  0  0  0
   -6.8420   22.3400  -31.2260 C   0  0  0  0  0  0  0  0  0  0  0  0
   -5.6730   23.1070  -30.7260 C   0  0  0  0  0  0  0  0  0  0  0  0
   -5.5740   24.4890  -30.9600 C   0  0  0  0  0  0  0  0  0  0  0  0
   -4.4700   25.2080  -30.4980 C   0  0  0  0  0  0  0  0  0  0  0  0
   -3.4520   24.5620  -29.7920 C   0  0  0  0  0  0  0  0  0  0  0  0
   -2.3540   25.2970  -29.3560 O   0  0  0  0  0  0  0  0  0  0  0  0
   -3.5420   23.1820  -29.5310 C   0  0  0  0  0  0  0  0  0  0  0  0
   -2.4390   22.4650  -28.7980 C   0  0  0  0  0  0  0  0  0  0  0  0
   -2.0540   23.2420  -27.6120 N   0  0  0  0  0  0  0  0  0  0  0  0
   -1.0150   22.5700  -26.8170 C   0  0  0  0  0  0  0  0  0  0  0  0
    0.1000   21.9680  -27.6910 C   0  0  0  0  0  0  0  0  0  0  0  0
    0.0330   20.4650  -27.6670 C   0  0  0  0  0  0  0  0  0  0  0  0
    1.0660   19.7010  -28.2340 C   0  0  0  0  0  0  0  0  0  0  0  0
    0.9880   18.3040  -28.2390 C   0  0  0  0  0  0  0  0  0  0  0  0
   -0.1250   17.6630  -27.6900 C   0  0  0  0  0  0  0  0  0  0  0  0
   -1.1640   18.4170  -27.1360 C   0  0  0  0  0  0  0  0  0  0  0  0
   -1.0890   19.8130  -27.1290 C   0  0  0  0  0  0  0  0  0  0  0  0
   -4.6460   22.4620  -30.0130 C   0  0  0  0  0  0  0  0  0  0  0  0
   -8.0390   22.9980  -31.5540 C   0  0  0  0  0  0  0  0  0  0  0  0
   -9.1340   22.2770  -32.0330 C   0  0  0  0  0  0  0  0  0  0  0  0
   -9.0560   20.8880  -32.1930 C   0  0  0  0  0  0  0  0  0  0  0  0
  -10.1540   20.1870  -32.6880 O   0  0  0  0  0  0  0  0  0  0  0  0
   -6.9320   18.1030  -33.5970 N   0  0  0  0  0  0  0  0  0  0  0  0
   -6.1400   16.8620  -33.5440 C   0  0  0  0  0  0  0  0  0  0  0  0
   -4.8030   17.0470  -32.7870 C   0  0  0  0  0  0  0  0  0  0  0  0
   -4.4250   18.4030  -32.6290 O   0  0  0  0  0  0  0  0  0  0  0  0
   -4.6390   19.1090  -33.8300 C   0  0  0  0  0  0  0  0  0  0  0  0
   -6.1460   19.2500  -34.1050 C   0  0  0  0  0  0  0  0  0  0  0  0
   -5.8353   20.4198  -31.1296 H   0  0  0  0  0  0  0  0  0  0  0  0
   -6.3720   25.0081  -31.5111 H   0  0  0  0  0  0  0  0  0  0  0  0
   -4.4013   26.2888  -30.6909 H   0  0  0  0  0  0  0  0  0  0  0  0
   -2.7916   21.4707  -28.4865 H   0  0  0  0  0  0  0  0  0  0  0  0
   -1.5691   22.3538  -29.4620 H   0  0  0  0  0  0  0  0  0  0  0  0
   -1.7080   24.1830  -27.9160 H   0  0  0  0  0  0  0  0  0  0  0  0
   -0.5674   23.3032  -26.1299 H   0  0  0  0  0  0  0  0  0  0  0  0
   -1.4943   21.7438  -26.2713 H   0  0  0  0  0  0  0  0  0  0  0  0
   -0.0216   22.3195  -28.7262 H   0  0  0  0  0  0  0  0  0  0  0  0
    1.0751   22.2876  -27.2947 H   0  0  0  0  0  0  0  0  0  0  0  0
    1.9396   20.2027  -28.6758 H   0  0  0  0  0  0  0  0  0  0  0  0
    1.8042   17.7098  -28.6758 H   0  0  0  0  0  0  0  0  0  0  0  0
   -0.1841   16.5646  -27.6935 H   0  0  0  0  0  0  0  0  0  0  0  0
   -2.0409   17.9115  -26.7054 H   0  0  0  0  0  0  0  0  0  0  0  0
   -1.9122   20.4035  -26.7003 H   0  0  0  0  0  0  0  0  0  0  0  0
   -4.7091   21.3790  -29.8309 H   0  0  0  0  0  0  0  0  0  0  0  0
   -8.1139   24.0887  -31.4325 H   0  0  0  0  0  0  0  0  0  0  0  0
  -10.0656   22.8040  -32.2868 H   0  0  0  0  0  0  0  0  0  0  0  0
  -10.0520   19.2820  -33.1340 H   0  0  0  0  0  0  0  0  0  0  0  0
   -6.7309   16.0874  -33.0332 H   0  0  0  0  0  0  0  0  0  0  0  0
   -5.9024   16.5715  -34.5780 H   0  0  0  0  0  0  0  0  0  0  0  0
   -4.9027   16.5950  -31.7891 H   0  0  0  0  0  0  0  0  0  0  0  0
   -4.0209   16.5616  -33.3892 H   0  0  0  0  0  0  0  0  0  0  0  0
   -4.1899   20.1098  -33.7476 H   0  0  0  0  0  0  0  0  0  0  0  0
   -4.1743   18.5546  -34.6587 H   0  0  0  0  0  0  0  0  0  0  0  0
   -6.5078   20.1673  -33.6176 H   0  0  0  0  0  0  0  0  0  0  0  0
   -6.2814   19.2868  -35.1960 H   0  0  0  0  0  0  0  0  0  0  0  0
  1  2  2  0
  2  3  2  0
  2  4  1  0
  4  5  2  0
  5  6  1  0
  6  7  1  0
  7  8  2  0
  8  9  1  0
  9 10  2  0
 10 11  1  0
 10 12  1  0
 12 13  1  0
 13 14  1  0
 14 15  1  0
 15 16  1  0
 16 17  1  0
 17 18  2  0
 18 19  1  0
 19 20  2  0
 20 21  1  0
 21 22  2  0
 12 23  2  0
  6 24  2  0
 24 25  1  0
 25 26  2  0
 26 27  1  0
  2 28  1  0
 28 29  1  0
 29 30  1  0
 30 31  1  0
 31 32  1  0
 32 33  1  0
 26  4  1  0
 33 28  1  0
 23  7  1  0
 22 17  1  0
  5 34  1  0
  8 35  1  0
  9 36  1  0
 13 37  1  0
 13 38  1  0
 14 39  1  0
 15 40  1  0
 15 41  1  0
 16 42  1  0
 16 43  1  0
 18 44  1  0
 19 45  1  0
 20 46  1  0
 21 47  1  0
 22 48  1  0
 23 49  1  0
 24 50  1  0
 25 51  1  0
 27 52  1  0
 29 53  1  0
 29 54  1  0
 30 55  1  0
 30 56  1  0
 32 57  1  0
 32 58  1  0
 33 59  1  0
 33 60  1  0
M  CHG  1  11  -1
M  END
>  <UniqueID>  (26) 
25

>  <SMILES>  (26) 
O=S(=O)(c1cc(-c2ccc([O-])c(CNCCc3ccccc3)c2)ccc1O)N1CCOCC1

>  <Energy>  (26) 
78.23925482735274

>  <Genealogy>  (26) 
O=S(=O)(c1cc(-c2ccc([O-])c(CNCCc3ccccc3)c2)ccc1O)N1CCOCC1 (protonated)
O=S(=O)(c1cc(-c2ccc([O-])c(CNCCc3ccccc3)c2)ccc1O)N1CCOCC1 (3D coordinates assigned)
O=S(=O)(c1cc(-c2ccc([O-])c(CNCCc3ccccc3)c2)ccc1O)N1CCOCC1 (nonaromatic ring conformer: 78.23925482735274 kcal/mol)

>  <smiles>  (26) 
O=S(=O)(c1cc(-c2ccc(O)c(CNCCc3ccccc3)c2)ccc1O)N1CCOCC1

>  <score_type>  (26) 
oracle

>  <origin>  (26) 
adgpu

>  <m_score__min__energy>  (26) 
-12.550000000000001

>  <m_primary>  (26) 
energy

$$$$
26:0
     RDKit          3D

 62 66  0  0  0  0  0  0  0  0999 V2000
   -5.0520   25.4460  -31.2400 O   0  0  0  0  0  0  0  0  0  0  0  0
   -5.6770   24.3220  -30.4610 S   0  0  0  0  0  0  0  0  0  0  0  0
   -7.1420   24.6160  -30.2970 O   0  0  0  0  0  0  0  0  0  0  0  0
   -4.9370   24.2330  -28.8950 N   0  0  0  0  0  0  0  0  0  0  0  0
   -3.7490   23.4590  -28.6770 C   0  0  0  0  0  0  0  0  0  0  0  0
   -3.8350   22.1470  -28.1860 C   0  0  0  0  0  0  0  0  0  0  0  0
   -2.6760   21.3910  -27.9590 C   0  0  0  0  0  0  0  0  0  0  0  0
   -1.4140   21.9380  -28.2690 C   0  0  0  0  0  0  0  0  0  0  0  0
   -1.3310   23.2450  -28.7700 C   0  0  0  0  0  0  0  0  0  0  0  0
   -2.4910   23.9990  -28.9830 C   0  0  0  0  0  0  0  0  0  0  0  0
   -2.3830   25.2910  -29.4860 O   0  0  0  0  0  0  0  0  0  0  0  0
   -0.1450   21.1700  -27.9720 C   0  0  0  0  0  0  0  0  0  0  0  0
   -0.3750   19.7220  -27.8680 N   0  0  0  0  0  0  0  0  0  0  0  0
   -1.4760   19.4310  -26.9410 C   0  0  0  0  0  0  0  0  0  0  0  0
   -2.8060   19.9650  -27.4870 C   0  0  0  0  0  0  0  0  0  0  0  0
   -5.4490   22.8230  -31.3560 C   0  0  0  0  0  0  0  0  0  0  0  0
   -6.2410   21.7000  -31.0780 C   0  0  0  0  0  0  0  0  0  0  0  0
   -6.0260   20.5020  -31.7630 C   0  0  0  0  0  0  0  0  0  0  0  0
   -5.0160   20.4070  -32.7380 C   0  0  0  0  0  0  0  0  0  0  0  0
   -4.7810   19.1320  -33.4610 C   0  0  0  0  0  0  0  0  0  0  0  0
   -5.7570   18.6170  -34.3320 C   0  0  0  0  0  0  0  0  0  0  0  0
   -5.5370   17.4160  -35.0110 C   0  0  0  0  0  0  0  0  0  0  0  0
   -4.3410   16.7160  -34.8300 C   0  0  0  0  0  0  0  0  0  0  0  0
   -3.3580   17.2120  -33.9630 C   0  0  0  0  0  0  0  0  0  0  0  0
   -2.0610   16.4640  -33.7900 C   0  0  0  0  0  0  0  0  0  0  0  0
   -1.3470   16.9350  -32.5850 N   0  0  0  0  0  0  0  0  0  0  0  0
   -0.4510   15.8940  -32.0500 C   0  0  0  0  0  0  0  0  0  0  0  0
    0.2540   16.4080  -30.7750 C   0  0  0  0  0  0  0  0  0  0  0  0
    0.0420   17.7930  -30.5630 O   0  0  0  0  0  0  0  0  0  0  0  0
    0.3800   18.5110  -31.7310 C   0  0  0  0  0  0  0  0  0  0  0  0
   -0.5710   18.1540  -32.8920 C   0  0  0  0  0  0  0  0  0  0  0  0
   -3.5800   18.4220  -33.2840 C   0  0  0  0  0  0  0  0  0  0  0  0
   -4.2290   21.5410  -33.0140 C   0  0  0  0  0  0  0  0  0  0  0  0
   -4.4440   22.7380  -32.3250 C   0  0  0  0  0  0  0  0  0  0  0  0
   -5.5420   24.4630  -28.0740 H   0  0  0  0  0  0  0  0  0  0  0  0
   -4.8215   21.7074  -27.9772 H   0  0  0  0  0  0  0  0  0  0  0  0
   -0.3470   23.6811  -28.9973 H   0  0  0  0  0  0  0  0  0  0  0  0
    0.5771   21.3553  -28.7809 H   0  0  0  0  0  0  0  0  0  0  0  0
    0.2372   21.5184  -27.0012 H   0  0  0  0  0  0  0  0  0  0  0  0
   -0.6180   19.3480  -28.8160 H   0  0  0  0  0  0  0  0  0  0  0  0
   -1.5538   18.3423  -26.8045 H   0  0  0  0  0  0  0  0  0  0  0  0
   -1.2667   19.9244  -25.9804 H   0  0  0  0  0  0  0  0  0  0  0  0
   -3.1240   19.3363  -28.3318 H   0  0  0  0  0  0  0  0  0  0  0  0
   -3.5489   19.9358  -26.6763 H   0  0  0  0  0  0  0  0  0  0  0  0
   -7.0340   21.7626  -30.3182 H   0  0  0  0  0  0  0  0  0  0  0  0
   -6.6515   19.6254  -31.5384 H   0  0  0  0  0  0  0  0  0  0  0  0
   -6.7002   19.1633  -34.4799 H   0  0  0  0  0  0  0  0  0  0  0  0
   -6.3070   17.0204  -35.6897 H   0  0  0  0  0  0  0  0  0  0  0  0
   -4.1707   15.7728  -35.3697 H   0  0  0  0  0  0  0  0  0  0  0  0
   -2.2739   15.3897  -33.6875 H   0  0  0  0  0  0  0  0  0  0  0  0
   -1.4273   16.6434  -34.6711 H   0  0  0  0  0  0  0  0  0  0  0  0
   -1.0396   14.9977  -31.8046 H   0  0  0  0  0  0  0  0  0  0  0  0
    0.3075   15.6464  -32.8072 H   0  0  0  0  0  0  0  0  0  0  0  0
   -0.1353   15.8540  -29.9081 H   0  0  0  0  0  0  0  0  0  0  0  0
    1.3351   16.2491  -30.9016 H   0  0  0  0  0  0  0  0  0  0  0  0
    0.3073   19.5890  -31.5246 H   0  0  0  0  0  0  0  0  0  0  0  0
    1.4063   18.2437  -32.0229 H   0  0  0  0  0  0  0  0  0  0  0  0
   -1.2658   18.9904  -33.0580 H   0  0  0  0  0  0  0  0  0  0  0  0
    0.0310   17.9683  -33.7937 H   0  0  0  0  0  0  0  0  0  0  0  0
   -2.8075   18.8174  -32.6080 H   0  0  0  0  0  0  0  0  0  0  0  0
   -3.4391   21.4847  -33.7774 H   0  0  0  0  0  0  0  0  0  0  0  0
   -3.8202   23.6167  -32.5458 H   0  0  0  0  0  0  0  0  0  0  0  0
  1  2  2  0
  2  3  2  0
  2  4  1  0
  4  5  1  0
  5  6  2  0
  6  7  1  0
  7  8  2  0
  8  9  1  0
  9 10  2  0
 10 11  1  0
  8 12  1  0
 12 13  1  0
 13 14  1  0
 14 15  1  0
  2 16  1  0
 16 17  2  0
 17 18  1  0
 18 19  2  0
 19 20  1  0
 20 21  2  0
 21 22  1  0
 22 23  2  0
 23 24  1  0
 24 25  1  0
 25 26  1  0
 26 27  1  0
 27 28  1  0
 28 29  1  0
 29 30  1  0
 30 31  1  0
 24 32  2  0
 19 33  1  0
 33 34  2  0
 10  5  1  0
 34 16  1  0
 15  7  1  0
 32 20  1  0
 31 26  1  0
  4 35  1  0
  6 36  1  0
  9 37  1  0
 12 38  1  0
 12 39  1  0
 13 40  1  0
 14 41  1  0
 14 42  1  0
 15 43  1  0
 15 44  1  0
 17 45  1  0
 18 46  1  0
 21 47  1  0
 22 48  1  0
 23 49  1  0
 25 50  1  0
 25 51  1  0
 27 52  1  0
 27 53  1  0
 28 54  1  0
 28 55  1  0
 30 56  1  0
 30 57  1  0
 31 58  1  0
 31 59  1  0
 32 60  1  0
 33 61  1  0
 34 62  1  0
M  CHG  1  11  -1
M  END
>  <UniqueID>  (27) 
26

>  <SMILES>  (27) 
O=S(=O)(Nc1cc2c(cc1[O-])CNCC2)c1ccc(-c2cccc(CN3CCOCC3)c2)cc1

>  <Energy>  (27) 
88.27107756772892

>  <Genealogy>  (27) 
O=S(=O)(Nc1cc2c(cc1[O-])CNCC2)c1ccc(-c2cccc(CN3CCOCC3)c2)cc1 (protonated)
O=S(=O)(Nc1cc2c(cc1[O-])CNCC2)c1ccc(-c2cccc(CN3CCOCC3)c2)cc1 (3D coordinates assigned)
O=S(=O)(Nc1cc2c(cc1[O-])CNCC2)c1ccc(-c2cccc(CN3CCOCC3)c2)cc1 (nonaromatic ring conformer: 88.27107756772892 kcal/mol)

>  <smiles>  (27) 
O=S(=O)(Nc1cc2c(cc1O)CNCC2)c1ccc(-c2cccc(CN3CCOCC3)c2)cc1

>  <score_type>  (27) 
oracle

>  <origin>  (27) 
adgpu

>  <m_score__min__energy>  (27) 
-14.23

>  <m_primary>  (27) 
energy

$$$$
27:0
     RDKit          3D

 49 51  0  0  0  0  0  0  0  0999 V2000
   -9.5260   21.1610  -31.9490 C   0  0  0  0  0  0  0  0  0  0  0  0
   -8.0980   21.6190  -32.0030 C   0  0  0  0  0  0  0  0  0  0  0  0
   -7.0760   20.7170  -32.3290 C   0  0  0  0  0  0  0  0  0  0  0  0
   -5.7550   21.1570  -32.4260 C   0  0  0  0  0  0  0  0  0  0  0  0
   -5.4380   22.5000  -32.2030 C   0  0  0  0  0  0  0  0  0  0  0  0
   -4.1050   22.9010  -32.3160 O   0  0  0  0  0  0  0  0  0  0  0  0
   -6.4540   23.4180  -31.8730 C   0  0  0  0  0  0  0  0  0  0  0  0
   -6.1160   24.8020  -31.6820 N   0  0  0  0  0  0  0  0  0  0  0  0
   -5.2430   25.3340  -30.6800 C   0  0  0  0  0  0  0  0  0  0  0  0
   -5.6960   26.0510  -29.7490 O   0  0  0  0  0  0  0  0  0  0  0  0
   -3.8600   24.9660  -30.6970 N   0  0  0  0  0  0  0  0  0  0  0  0
   -3.1980   24.2110  -29.6730 C   0  0  0  0  0  0  0  0  0  0  0  0
   -3.6220   22.9060  -29.4320 C   0  0  0  0  0  0  0  0  0  0  0  0
   -3.0130   22.1380  -28.4440 C   0  0  0  0  0  0  0  0  0  0  0  0
   -1.9640   22.6590  -27.6690 C   0  0  0  0  0  0  0  0  0  0  0  0
   -1.3470   21.7590  -26.6290 C   0  0  0  0  0  0  0  0  0  0  0  0
   -1.4920   23.9780  -27.9270 C   0  0  0  0  0  0  0  0  0  0  0  0
   -0.1640   24.7240  -26.9860 S   0  0  0  0  0  0  0  0  0  0  0  0
    0.2810   23.8180  -25.8740 O   0  0  0  0  0  0  0  0  0  0  0  0
    1.0260   24.9200  -27.8850 O   0  0  0  0  0  0  0  0  0  0  0  0
   -0.6320   26.2650  -26.2940 N   0  0  0  0  0  0  0  0  0  0  0  0
    0.5550   27.0770  -25.9690 C   0  0  0  0  0  0  0  0  0  0  0  0
    0.1860   28.2030  -24.9890 C   0  0  0  0  0  0  0  0  0  0  0  0
   -0.3490   27.7470  -23.7510 O   0  0  0  0  0  0  0  0  0  0  0  0
   -0.8880   26.4330  -23.8090 C   0  0  0  0  0  0  0  0  0  0  0  0
   -1.5640   26.1200  -25.1550 C   0  0  0  0  0  0  0  0  0  0  0  0
   -2.1030   24.7300  -28.9570 C   0  0  0  0  0  0  0  0  0  0  0  0
   -1.6020   25.9820  -29.2990 O   0  0  0  0  0  0  0  0  0  0  0  0
   -7.7870   22.9720  -31.8010 C   0  0  0  0  0  0  0  0  0  0  0  0
   -9.8394   21.0605  -30.8994 H   0  0  0  0  0  0  0  0  0  0  0  0
  -10.1670   21.8986  -32.4540 H   0  0  0  0  0  0  0  0  0  0  0  0
   -9.6184   20.1882  -32.4540 H   0  0  0  0  0  0  0  0  0  0  0  0
   -7.3158   19.6587  -32.5090 H   0  0  0  0  0  0  0  0  0  0  0  0
   -4.9582   20.4423  -32.6796 H   0  0  0  0  0  0  0  0  0  0  0  0
   -3.7760   23.7930  -31.9680 H   0  0  0  0  0  0  0  0  0  0  0  0
   -4.4435   22.4798  -30.0265 H   0  0  0  0  0  0  0  0  0  0  0  0
   -3.3581   21.1085  -28.2676 H   0  0  0  0  0  0  0  0  0  0  0  0
   -1.6015   22.1302  -25.6253 H   0  0  0  0  0  0  0  0  0  0  0  0
   -1.7354   20.7372  -26.7514 H   0  0  0  0  0  0  0  0  0  0  0  0
   -0.2538   21.7529  -26.7514 H   0  0  0  0  0  0  0  0  0  0  0  0
    1.3192   26.4330  -25.5092 H   0  0  0  0  0  0  0  0  0  0  0  0
    0.9437   27.5251  -26.8953 H   0  0  0  0  0  0  0  0  0  0  0  0
    1.0934   28.7880  -24.7781 H   0  0  0  0  0  0  0  0  0  0  0  0
   -0.6018   28.7984  -25.4737 H   0  0  0  0  0  0  0  0  0  0  0  0
   -0.0724   25.7122  -23.6502 H   0  0  0  0  0  0  0  0  0  0  0  0
   -1.6592   26.3587  -23.0281 H   0  0  0  0  0  0  0  0  0  0  0  0
   -1.9374   25.0856  -25.1320 H   0  0  0  0  0  0  0  0  0  0  0  0
   -2.3850   26.8383  -25.2962 H   0  0  0  0  0  0  0  0  0  0  0  0
   -8.5916   23.6902  -31.5846 H   0  0  0  0  0  0  0  0  0  0  0  0
  1  2  1  0
  2  3  2  0
  3  4  1  0
  4  5  2  0
  5  6  1  0
  5  7  1  0
  7  8  1  0
  8  9  1  0
  9 10  2  0
  9 11  1  0
 11 12  1  0
 12 13  2  0
 13 14  1  0
 14 15  2  0
 15 16  1  0
 15 17  1  0
 17 18  1  0
 18 19  2  0
 18 20  2  0
 18 21  1  0
 21 22  1  0
 22 23  1  0
 23 24  1  0
 24 25  1  0
 25 26  1  0
 17 27  2  0
 27 28  1  0
  7 29  2  0
 29  2  1  0
 27 12  1  0
 26 21  1  0
  1 30  1  0
  1 31  1  0
  1 32  1  0
  3 33  1  0
  4 34  1  0
  6 35  1  0
 13 36  1  0
 14 37  1  0
 16 38  1  0
 16 39  1  0
 16 40  1  0
 22 41  1  0
 22 42  1  0
 23 43  1  0
 23 44  1  0
 25 45  1  0
 25 46  1  0
 26 47  1  0
 26 48  1  0
 29 49  1  0
M  CHG  3   8  -1  11  -1  28  -1
M  END
>  <UniqueID>  (28) 
27

>  <SMILES>  (28) 
Cc1ccc(O)c([N-]C(=O)[N-]c2ccc(C)c(S(=O)(=O)N3CCOCC3)c2[O-])c1

>  <Energy>  (28) 
75.71055569553315

>  <Genealogy>  (28) 
Cc1ccc(O)c([N-]C(=O)[N-]c2ccc(C)c(S(=O)(=O)N3CCOCC3)c2[O-])c1 (protonated)
Cc1ccc(O)c([N-]C(=O)[N-]c2ccc(C)c(S(=O)(=O)N3CCOCC3)c2[O-])c1 (3D coordinates assigned)
Cc1ccc(O)c([N-]C(=O)[N-]c2ccc(C)c(S(=O)(=O)N3CCOCC3)c2[O-])c1 (nonaromatic ring conformer: 75.71055569553315 kcal/mol)

>  <smiles>  (28) 
Cc1ccc(O)c(NC(=O)Nc2ccc(C)c(S(=O)(=O)N3CCOCC3)c2O)c1

>  <score_type>  (28) 
oracle

>  <origin>  (28) 
adgpu

>  <m_score__min__energy>  (28) 
-14.550000000000001

>  <m_primary>  (28) 
energy

$$$$
28:0
     RDKit          3D

 60 63  0  0  0  0  0  0  0  0999 V2000
   -4.2180   25.3560  -30.8510 O   0  0  0  0  0  0  0  0  0  0  0  0
   -5.1760   24.7190  -30.3340 C   0  0  0  0  0  0  0  0  0  0  0  0
   -6.4400   24.5230  -31.1160 C   0  0  0  0  0  0  0  0  0  0  0  0
   -6.7130   23.0560  -31.3290 C   0  0  0  0  0  0  0  0  0  0  0  0
   -5.6580   22.1290  -31.3050 C   0  0  0  0  0  0  0  0  0  0  0  0
   -5.9130   20.7660  -31.4850 C   0  0  0  0  0  0  0  0  0  0  0  0
   -7.2180   20.3160  -31.7230 C   0  0  0  0  0  0  0  0  0  0  0  0
   -7.5330   18.6020  -31.9920 S   0  0  0  0  0  0  0  0  0  0  0  0
   -6.8700   17.8050  -30.9030 O   0  0  0  0  0  0  0  0  0  0  0  0
   -9.0160   18.3610  -31.8990 O   0  0  0  0  0  0  0  0  0  0  0  0
   -6.9560   18.0480  -33.5540 N   0  0  0  0  0  0  0  0  0  0  0  0
   -6.3730   16.6930  -33.4930 C   0  0  0  0  0  0  0  0  0  0  0  0
   -4.8990   16.6850  -33.0170 C   0  0  0  0  0  0  0  0  0  0  0  0
   -4.3320   17.9780  -32.9330 O   0  0  0  0  0  0  0  0  0  0  0  0
   -4.5890   18.6890  -34.1230 C   0  0  0  0  0  0  0  0  0  0  0  0
   -6.0860   19.0370  -34.2280 C   0  0  0  0  0  0  0  0  0  0  0  0
   -8.2730   21.2400  -31.7530 C   0  0  0  0  0  0  0  0  0  0  0  0
   -8.0230   22.6000  -31.5560 C   0  0  0  0  0  0  0  0  0  0  0  0
   -5.0680   24.2140  -28.9960 N   0  0  0  0  0  0  0  0  0  0  0  0
   -3.8150   23.8410  -28.4000 C   0  0  0  0  0  0  0  0  0  0  0  0
   -3.3450   24.5370  -27.2800 C   0  0  0  0  0  0  0  0  0  0  0  0
   -2.1360   24.1740  -26.6780 C   0  0  0  0  0  0  0  0  0  0  0  0
   -1.3920   23.1060  -27.1850 C   0  0  0  0  0  0  0  0  0  0  0  0
   -1.8550   22.3850  -28.2990 C   0  0  0  0  0  0  0  0  0  0  0  0
   -0.9240   20.9930  -28.8810 S   0  0  0  0  0  0  0  0  0  0  0  0
    0.4410   21.0410  -28.2480 O   0  0  0  0  0  0  0  0  0  0  0  0
   -1.6150   19.7390  -28.4250 O   0  0  0  0  0  0  0  0  0  0  0  0
   -0.6910   20.9260  -30.6190 N   0  0  0  0  0  0  0  0  0  0  0  0
   -1.5510   21.8600  -31.3450 C   0  0  0  0  0  0  0  0  0  0  0  0
   -1.8490   21.2200  -32.6870 C   0  0  0  0  0  0  0  0  0  0  0  0
   -1.7570   19.7290  -32.4300 C   0  0  0  0  0  0  0  0  0  0  0  0
   -0.8940   19.5840  -31.1830 C   0  0  0  0  0  0  0  0  0  0  0  0
   -3.0770   22.7490  -28.8870 C   0  0  0  0  0  0  0  0  0  0  0  0
   -7.2795   24.9699  -30.5633 H   0  0  0  0  0  0  0  0  0  0  0  0
   -6.3276   25.0078  -32.0970 H   0  0  0  0  0  0  0  0  0  0  0  0
   -4.6269   22.4767  -31.1439 H   0  0  0  0  0  0  0  0  0  0  0  0
   -5.0847   20.0436  -31.4395 H   0  0  0  0  0  0  0  0  0  0  0  0
   -6.9692   16.0867  -32.7952 H   0  0  0  0  0  0  0  0  0  0  0  0
   -6.3896   16.2832  -34.5137 H   0  0  0  0  0  0  0  0  0  0  0  0
   -4.8560   16.2194  -32.0213 H   0  0  0  0  0  0  0  0  0  0  0  0
   -4.3185   16.1221  -33.7628 H   0  0  0  0  0  0  0  0  0  0  0  0
   -4.0000   19.6180  -34.1246 H   0  0  0  0  0  0  0  0  0  0  0  0
   -4.3075   18.0615  -34.9815 H   0  0  0  0  0  0  0  0  0  0  0  0
   -6.2506   20.0216  -33.7661 H   0  0  0  0  0  0  0  0  0  0  0  0
   -6.3509   19.0361  -35.2956 H   0  0  0  0  0  0  0  0  0  0  0  0
   -9.3010   20.8922  -31.9323 H   0  0  0  0  0  0  0  0  0  0  0  0
   -8.8559   23.3181  -31.5786 H   0  0  0  0  0  0  0  0  0  0  0  0
   -5.9420   24.1010  -28.4370 H   0  0  0  0  0  0  0  0  0  0  0  0
   -3.9299   25.3741  -26.8712 H   0  0  0  0  0  0  0  0  0  0  0  0
   -1.7700   24.7310  -25.8029 H   0  0  0  0  0  0  0  0  0  0  0  0
   -0.4395   22.8280  -26.7102 H   0  0  0  0  0  0  0  0  0  0  0  0
   -2.4849   22.0272  -30.7884 H   0  0  0  0  0  0  0  0  0  0  0  0
   -1.0596   22.8360  -31.4711 H   0  0  0  0  0  0  0  0  0  0  0  0
   -2.8573   21.4929  -33.0318 H   0  0  0  0  0  0  0  0  0  0  0  0
   -1.1518   21.5515  -33.4706 H   0  0  0  0  0  0  0  0  0  0  0  0
   -2.7576   19.3063  -32.2565 H   0  0  0  0  0  0  0  0  0  0  0  0
   -1.3272   19.1924  -33.2887 H   0  0  0  0  0  0  0  0  0  0  0  0
   -1.4026   18.9423  -30.4484 H   0  0  0  0  0  0  0  0  0  0  0  0
    0.0723   19.1231  -31.4357 H   0  0  0  0  0  0  0  0  0  0  0  0
   -3.4618   22.1715  -29.7405 H   0  0  0  0  0  0  0  0  0  0  0  0
  1  2  2  0
  2  3  1  0
  3  4  1  0
  4  5  2  0
  5  6  1  0
  6  7  2  0
  7  8  1  0
  8  9  2  0
  8 10  2  0
  8 11  1  0
 11 12  1  0
 12 13  1  0
 13 14  1  0
 14 15  1  0
 15 16  1  0
  7 17  1  0
 17 18  2  0
  2 19  1  0
 19 20  1  0
 20 21  2  0
 21 22  1  0
 22 23  2  0
 23 24  1  0
 24 25  1  0
 25 26  2  0
 25 27  2  0
 25 28  1  0
 28 29  1  0
 29 30  1  0
 30 31  1  0
 31 32  1  0
 24 33  2  0
 18  4  1  0
 33 20  1  0
 16 11  1  0
 32 28  1  0
  3 34  1  0
  3 35  1  0
  5 36  1  0
  6 37  1  0
 12 38  1  0
 12 39  1  0
 13 40  1  0
 13 41  1  0
 15 42  1  0
 15 43  1  0
 16 44  1  0
 16 45  1  0
 17 46  1  0
 18 47  1  0
 19 48  1  0
 21 49  1  0
 22 50  1  0
 23 51  1  0
 29 52  1  0
 29 53  1  0
 30 54  1  0
 30 55  1  0
 31 56  1  0
 31 57  1  0
 32 58  1  0
 32 59  1  0
 33 60  1  0
M  END
>  <UniqueID>  (29) 
28

>  <SMILES>  (29) 
O=C(Cc1ccc(S(=O)(=O)N2CCOCC2)cc1)Nc1cccc(S(=O)(=O)N2CCCC2)c1

>  <Energy>  (29) 
76.76071798767846

>  <Genealogy>  (29) 
O=C(Cc1ccc(S(=O)(=O)N2CCOCC2)cc1)Nc1cccc(S(=O)(=O)N2CCCC2)c1 (3D coordinates assigned)
O=C(Cc1ccc(S(=O)(=O)N2CCOCC2)cc1)Nc1cccc(S(=O)(=O)N2CCCC2)c1 (nonaromatic ring conformer: 76.76071798767846 kcal/mol)

>  <smiles>  (29) 
O=C(Cc1ccc(S(=O)(=O)N2CCOCC2)cc1)Nc1cccc(S(=O)(=O)N2CCCC2)c1

>  <score_type>  (29) 
oracle

>  <origin>  (29) 
adgpu

>  <m_score__min__energy>  (29) 
-12.460000000000001

>  <m_primary>  (29) 
energy

$$$$
29:0
     RDKit          3D

 62 66  0  0  0  0  0  0  0  0999 V2000
   -9.6230   21.6510  -31.8860 C   0  0  0  0  0  0  0  0  0  0  0  0
   -8.0420   22.4960  -31.5860 S   0  0  0  0  0  0  0  0  0  0  0  0
   -7.0890   20.9790  -31.6510 C   0  0  0  0  0  0  0  0  0  0  0  0
   -7.7770   19.4490  -31.5850 S   0  0  0  0  0  0  0  0  0  0  0  0
   -6.3310   18.5900  -31.6750 C   0  0  0  0  0  0  0  0  0  0  0  0
   -6.2020   17.1160  -31.6670 C   0  0  0  0  0  0  0  0  0  0  0  0
   -5.8190   16.4360  -30.4660 N   0  0  0  0  0  0  0  0  0  0  0  0
   -6.4350   16.4280  -32.7440 N   0  0  0  0  0  0  0  0  0  0  0  0
   -5.2850   19.5050  -31.7620 C   0  0  0  0  0  0  0  0  0  0  0  0
   -5.7050   20.8420  -31.7740 C   0  0  0  0  0  0  0  0  0  0  0  0
   -4.5510   22.1690  -31.9160 S   0  0  0  0  0  0  0  0  0  0  0  0
   -5.1130   23.2150  -32.8390 O   0  0  0  0  0  0  0  0  0  0  0  0
   -3.2900   21.6330  -32.5320 O   0  0  0  0  0  0  0  0  0  0  0  0
   -4.1780   22.9440  -30.3630 C   0  0  0  0  0  0  0  0  0  0  0  0
   -5.0590   23.9250  -29.8740 C   0  0  0  0  0  0  0  0  0  0  0  0
   -4.8330   24.5330  -28.6380 C   0  0  0  0  0  0  0  0  0  0  0  0
   -3.7330   24.1620  -27.8680 C   0  0  0  0  0  0  0  0  0  0  0  0
   -2.8510   23.1870  -28.3340 C   0  0  0  0  0  0  0  0  0  0  0  0
   -3.0560   22.5730  -29.5810 C   0  0  0  0  0  0  0  0  0  0  0  0
   -2.0820   21.5540  -30.0200 C   0  0  0  0  0  0  0  0  0  0  0  0
   -1.9450   20.3590  -29.2990 C   0  0  0  0  0  0  0  0  0  0  0  0
   -0.9730   19.4260  -29.6650 C   0  0  0  0  0  0  0  0  0  0  0  0
   -0.1350   19.6740  -30.7550 C   0  0  0  0  0  0  0  0  0  0  0  0
   -0.2760   20.8570  -31.5030 C   0  0  0  0  0  0  0  0  0  0  0  0
    0.6130   21.1680  -32.6860 C   0  0  0  0  0  0  0  0  0  0  0  0
    0.6680   20.0720  -33.6570 N   0  0  0  0  0  0  0  0  0  0  0  0
   -0.3590   19.0730  -33.8160 C   0  0  0  0  0  0  0  0  0  0  0  0
   -0.0760   17.6990  -33.7100 C   0  0  0  0  0  0  0  0  0  0  0  0
   -1.0860   16.7480  -33.8770 C   0  0  0  0  0  0  0  0  0  0  0  0
   -2.3980   17.1560  -34.1440 C   0  0  0  0  0  0  0  0  0  0  0  0
   -3.4300   16.2210  -34.3020 C   0  0  0  0  0  0  0  0  0  0  0  0
   -4.6950   16.6420  -34.5650 N   0  0  0  0  0  0  0  0  0  0  0  0
   -5.0030   17.9600  -34.6840 C   0  0  0  0  0  0  0  0  0  0  0  0
   -4.0100   18.9310  -34.5350 C   0  0  0  0  0  0  0  0  0  0  0  0
   -2.6940   18.5320  -34.2610 C   0  0  0  0  0  0  0  0  0  0  0  0
   -1.6730   19.4800  -34.1010 C   0  0  0  0  0  0  0  0  0  0  0  0
   -1.2310   21.8060  -31.1060 C   0  0  0  0  0  0  0  0  0  0  0  0
  -10.0929   21.3998  -30.9237 H   0  0  0  0  0  0  0  0  0  0  0  0
  -10.2898   22.3130  -32.4580 H   0  0  0  0  0  0  0  0  0  0  0  0
   -9.4431   20.7288  -32.4580 H   0  0  0  0  0  0  0  0  0  0  0  0
   -5.7260   16.9470  -29.5620 H   0  0  0  0  0  0  0  0  0  0  0  0
   -5.6630   15.4050  -30.4630 H   0  0  0  0  0  0  0  0  0  0  0  0
   -6.3470   15.3870  -32.7410 H   0  0  0  0  0  0  0  0  0  0  0  0
   -6.7000   16.8870  -33.6440 H   0  0  0  0  0  0  0  0  0  0  0  0
   -4.2277   19.2063  -31.8162 H   0  0  0  0  0  0  0  0  0  0  0  0
   -5.9353   24.2162  -30.4717 H   0  0  0  0  0  0  0  0  0  0  0  0
   -5.5244   25.3061  -28.2715 H   0  0  0  0  0  0  0  0  0  0  0  0
   -3.5598   24.6383  -26.8917 H   0  0  0  0  0  0  0  0  0  0  0  0
   -1.9865   22.8960  -27.7192 H   0  0  0  0  0  0  0  0  0  0  0  0
   -2.6051   20.1562  -28.4428 H   0  0  0  0  0  0  0  0  0  0  0  0
   -0.8666   18.4924  -29.0931 H   0  0  0  0  0  0  0  0  0  0  0  0
    0.6382   18.9413  -31.0294 H   0  0  0  0  0  0  0  0  0  0  0  0
    0.2260   22.0657  -33.1904 H   0  0  0  0  0  0  0  0  0  0  0  0
    1.6324   21.3235  -32.3031 H   0  0  0  0  0  0  0  0  0  0  0  0
    1.4570   20.0870  -34.3440 H   0  0  0  0  0  0  0  0  0  0  0  0
    0.9510   17.3699  -33.4934 H   0  0  0  0  0  0  0  0  0  0  0  0
   -0.8496   15.6766  -33.7985 H   0  0  0  0  0  0  0  0  0  0  0  0
   -3.2159   15.1457  -34.2131 H   0  0  0  0  0  0  0  0  0  0  0  0
   -6.0383   18.2635  -34.8985 H   0  0  0  0  0  0  0  0  0  0  0  0
   -4.2580   19.9983  -34.6317 H   0  0  0  0  0  0  0  0  0  0  0  0
   -1.9030   20.5512  -34.1995 H   0  0  0  0  0  0  0  0  0  0  0  0
   -1.3128   22.7572  -31.6523 H   0  0  0  0  0  0  0  0  0  0  0  0
  1  2  1  0
  2  3  1  0
  3  4  1  0
  4  5  1  0
  5  6  1  0
  6  7  1  0
  6  8  2  0
  5  9  2  0
  9 10  1  0
 10 11  1  0
 11 12  2  0
 11 13  2  0
 11 14  1  0
 14 15  2  0
 15 16  1  0
 16 17  2  0
 17 18  1  0
 18 19  2  0
 19 20  1  0
 20 21  2  0
 21 22  1  0
 22 23  2  0
 23 24  1  0
 24 25  1  0
 25 26  1  0
 26 27  1  0
 27 28  2  0
 28 29  1  0
 29 30  2  0
 30 31  1  0
 31 32  2  0
 32 33  1  0
 33 34  2  0
 34 35  1  0
 35 36  2  0
 24 37  2  0
 10  3  2  0
 19 14  1  0
 37 20  1  0
 36 27  1  0
 35 30  1  0
  1 38  1  0
  1 39  1  0
  1 40  1  0
  7 41  1  0
  7 42  1  0
  8 43  1  0
  8 44  1  0
  9 45  1  0
 15 46  1  0
 16 47  1  0
 17 48  1  0
 18 49  1  0
 21 50  1  0
 22 51  1  0
 23 52  1  0
 25 53  1  0
 25 54  1  0
 26 55  1  0
 28 56  1  0
 29 57  1  0
 31 58  1  0
 33 59  1  0
 34 60  1  0
 36 61  1  0
 37 62  1  0
M  CHG  1   8   1
M  END
>  <UniqueID>  (30) 
29

>  <SMILES>  (30) 
CSc1sc(C(N)=[NH2+])cc1S(=O)(=O)c1ccccc1-c1cccc(CNc2ccc3cnccc3c2)c1

>  <Energy>  (30) 
98.86787457246177

>  <Genealogy>  (30) 
CSc1sc(C(N)=[NH2+])cc1S(=O)(=O)c1ccccc1-c1cccc(CNc2ccc3cnccc3c2)c1 (protonated)
CSc1sc(C(N)=[NH2+])cc1S(=O)(=O)c1ccccc1-c1cccc(CNc2ccc3cnccc3c2)c1 (3D coordinates assigned)
CSc1sc(C(N)=[NH2+])cc1S(=O)(=O)c1ccccc1-c1cccc(CNc2ccc3cnccc3c2)c1 (optimized conformer: 98.86787457246177 kcal/mol)

>  <smiles>  (30) 
CSc1sc(C(=N)N)cc1S(=O)(=O)c1ccccc1-c1cccc(CNc2ccc3cnccc3c2)c1

>  <score_type>  (30) 
oracle

>  <origin>  (30) 
adgpu

>  <m_score__min__energy>  (30) 
-11.199999999999999

>  <m_primary>  (30) 
energy

$$$$
30:0
     RDKit          3D

 41 42  0  0  0  0  0  0  0  0999 V2000
   -2.8940   21.0790  -27.4690 C   0  0  0  0  0  0  0  0  0  0  0  0
   -3.1240   22.2690  -28.3460 C   0  0  0  0  0  0  0  0  0  0  0  0
   -2.0450   23.0250  -28.8180 C   0  0  0  0  0  0  0  0  0  0  0  0
   -2.2920   24.1600  -29.5920 C   0  0  0  0  0  0  0  0  0  0  0  0
   -3.6070   24.5380  -29.8780 C   0  0  0  0  0  0  0  0  0  0  0  0
   -3.8460   25.6760  -30.6390 O   0  0  0  0  0  0  0  0  0  0  0  0
   -4.6680   23.7600  -29.3840 C   0  0  0  0  0  0  0  0  0  0  0  0
   -6.1030   24.1070  -29.6790 C   0  0  0  0  0  0  0  0  0  0  0  0
   -6.4000   24.1480  -31.1850 C   0  0  0  0  0  0  0  0  0  0  0  0
   -6.9270   22.8300  -31.6950 C   0  0  0  0  0  0  0  0  0  0  0  0
   -8.2830   22.5040  -31.5460 C   0  0  0  0  0  0  0  0  0  0  0  0
   -8.7660   21.2760  -32.0080 C   0  0  0  0  0  0  0  0  0  0  0  0
   -7.8980   20.3630  -32.6110 C   0  0  0  0  0  0  0  0  0  0  0  0
   -6.5340   20.6680  -32.7520 C   0  0  0  0  0  0  0  0  0  0  0  0
   -5.6330   19.7240  -33.3540 N   0  0  0  0  0  0  0  0  0  0  0  0
   -6.1440   18.4810  -33.9290 C   0  0  0  0  0  0  0  0  0  0  0  0
   -3.9310   19.8600  -33.0280 S   0  0  0  0  0  0  0  0  0  0  0  0
   -3.1070   18.3920  -33.5990 C   0  0  0  0  0  0  0  0  0  0  0  0
   -3.3620   21.0470  -33.7540 O   0  0  0  0  0  0  0  0  0  0  0  0
   -3.7000   20.0370  -31.5540 O   0  0  0  0  0  0  0  0  0  0  0  0
   -6.0550   21.9030  -32.2890 C   0  0  0  0  0  0  0  0  0  0  0  0
   -4.3960   22.6550  -28.6350 N   0  0  0  0  0  0  0  0  0  0  0  0
   -2.9530   21.3843  -26.4139 H   0  0  0  0  0  0  0  0  0  0  0  0
   -3.6618   20.3184  -27.6742 H   0  0  0  0  0  0  0  0  0  0  0  0
   -1.8981   20.6593  -27.6742 H   0  0  0  0  0  0  0  0  0  0  0  0
   -1.0127   22.7278  -28.5814 H   0  0  0  0  0  0  0  0  0  0  0  0
   -1.4520   24.7569  -29.9768 H   0  0  0  0  0  0  0  0  0  0  0  0
   -6.7519   23.3516  -29.2118 H   0  0  0  0  0  0  0  0  0  0  0  0
   -6.2945   25.1112  -29.2729 H   0  0  0  0  0  0  0  0  0  0  0  0
   -7.1507   24.9286  -31.3774 H   0  0  0  0  0  0  0  0  0  0  0  0
   -5.4578   24.3625  -31.7106 H   0  0  0  0  0  0  0  0  0  0  0  0
   -8.9685   23.2167  -31.0642 H   0  0  0  0  0  0  0  0  0  0  0  0
   -9.8319   21.0284  -31.8963 H   0  0  0  0  0  0  0  0  0  0  0  0
   -8.2843   19.4004  -32.9773 H   0  0  0  0  0  0  0  0  0  0  0  0
   -6.4273   17.7919  -33.1197 H   0  0  0  0  0  0  0  0  0  0  0  0
   -7.0253   18.6994  -34.5500 H   0  0  0  0  0  0  0  0  0  0  0  0
   -5.3639   18.0164  -34.5500 H   0  0  0  0  0  0  0  0  0  0  0  0
   -2.7740   17.7987  -32.7346 H   0  0  0  0  0  0  0  0  0  0  0  0
   -3.8018   17.7948  -34.2078 H   0  0  0  0  0  0  0  0  0  0  0  0
   -2.2354   18.6741  -34.2078 H   0  0  0  0  0  0  0  0  0  0  0  0
   -4.9874   22.1472  -32.3922 H   0  0  0  0  0  0  0  0  0  0  0  0
  1  2  1  0
  2  3  2  0
  3  4  1  0
  4  5  2  0
  5  6  1  0
  5  7  1  0
  7  8  1  0
  8  9  1  0
  9 10  1  0
 10 11  2  0
 11 12  1  0
 12 13  2  0
 13 14  1  0
 14 15  1  0
 15 16  1  0
 15 17  1  0
 17 18  1  0
 17 19  2  0
 17 20  2  0
 14 21  2  0
  7 22  2  0
 22  2  1  0
 21 10  1  0
  1 23  1  0
  1 24  1  0
  1 25  1  0
  3 26  1  0
  4 27  1  0
  8 28  1  0
  8 29  1  0
  9 30  1  0
  9 31  1  0
 11 32  1  0
 12 33  1  0
 13 34  1  0
 16 35  1  0
 16 36  1  0
 16 37  1  0
 18 38  1  0
 18 39  1  0
 18 40  1  0
 21 41  1  0
M  CHG  1   6  -1
M  END
>  <UniqueID>  (31) 
30

>  <SMILES>  (31) 
Cc1ccc([O-])c(CCc2cccc(N(C)S(C)(=O)=O)c2)n1

>  <Energy>  (31) 
35.198965900624195

>  <Genealogy>  (31) 
Cc1ccc([O-])c(CCc2cccc(N(C)S(C)(=O)=O)c2)n1 (protonated)
Cc1ccc([O-])c(CCc2cccc(N(C)S(C)(=O)=O)c2)n1 (3D coordinates assigned)
Cc1ccc([O-])c(CCc2cccc(N(C)S(C)(=O)=O)c2)n1 (optimized conformer: 35.198965900624195 kcal/mol)

>  <smiles>  (31) 
Cc1ccc(O)c(CCc2cccc(N(C)S(C)(=O)=O)c2)n1

>  <score_type>  (31) 
oracle

>  <origin>  (31) 
adgpu

>  <m_score__min__energy>  (31) 
-11.4

>  <m_primary>  (31) 
energy

$$$$
31:0
     RDKit          3D

 53 56  0  0  0  0  0  0  0  0999 V2000
   -9.1400   21.2810  -31.7380 C   0  0  0  0  0  0  0  0  0  0  0  0
   -7.8060   21.8780  -31.3860 C   0  0  0  0  0  0  0  0  0  0  0  0
   -7.6450   22.4700  -30.1340 C   0  0  0  0  0  0  0  0  0  0  0  0
   -6.4180   23.0360  -29.7710 C   0  0  0  0  0  0  0  0  0  0  0  0
   -5.3600   23.0080  -30.6560 C   0  0  0  0  0  0  0  0  0  0  0  0
   -3.7900   23.6980  -30.2730 S   0  0  0  0  0  0  0  0  0  0  0  0
   -3.8250   25.1450  -30.6260 O   0  0  0  0  0  0  0  0  0  0  0  0
   -2.7370   23.1180  -31.2130 O   0  0  0  0  0  0  0  0  0  0  0  0
   -3.3810   23.3800  -28.6380 N   0  0  0  0  0  0  0  0  0  0  0  0
   -3.6810   24.2000  -27.5030 C   0  0  0  0  0  0  0  0  0  0  0  0
   -2.6650   25.1740  -27.0880 C   0  0  0  0  0  0  0  0  0  0  0  0
   -2.7670   25.6600  -25.7740 C   0  0  0  0  0  0  0  0  0  0  0  0
   -1.8750   26.5350  -25.2760 N   0  0  0  0  0  0  0  0  0  0  0  0
   -0.8440   26.9790  -26.0300 C   0  0  0  0  0  0  0  0  0  0  0  0
    0.0950   27.9420  -25.4070 C   0  0  0  0  0  0  0  0  0  0  0  0
   -0.7240   26.5300  -27.2890 N   0  0  0  0  0  0  0  0  0  0  0  0
   -1.6160   25.6410  -27.8210 C   0  0  0  0  0  0  0  0  0  0  0  0
   -1.4810   25.2640  -29.0260 N   0  0  0  0  0  0  0  0  0  0  0  0
   -2.6620   22.1690  -28.3750 C   0  0  0  0  0  0  0  0  0  0  0  0
   -3.3550   21.2280  -27.6050 C   0  0  0  0  0  0  0  0  0  0  0  0
   -2.7480   20.0270  -27.2970 C   0  0  0  0  0  0  0  0  0  0  0  0
   -1.4720   19.8030  -27.7650 C   0  0  0  0  0  0  0  0  0  0  0  0
   -0.9020   18.5730  -27.4270 C   0  0  0  0  0  0  0  0  0  0  0  0
    0.3840   18.3010  -27.8780 C   0  0  0  0  0  0  0  0  0  0  0  0
    1.0650   19.2280  -28.6360 C   0  0  0  0  0  0  0  0  0  0  0  0
    0.5030   20.4470  -28.9720 C   0  0  0  0  0  0  0  0  0  0  0  0
   -0.7770   20.7280  -28.5290 C   0  0  0  0  0  0  0  0  0  0  0  0
   -1.3900   21.9420  -28.8410 C   0  0  0  0  0  0  0  0  0  0  0  0
   -0.7440   22.9030  -29.6000 O   0  0  0  0  0  0  0  0  0  0  0  0
   -5.5330   22.4150  -31.9030 C   0  0  0  0  0  0  0  0  0  0  0  0
   -6.7450   21.8570  -32.2600 C   0  0  0  0  0  0  0  0  0  0  0  0
   -9.6870   21.0362  -30.8156 H   0  0  0  0  0  0  0  0  0  0  0  0
   -9.7214   22.0048  -32.3280 H   0  0  0  0  0  0  0  0  0  0  0  0
   -8.9877   20.3652  -32.3280 H   0  0  0  0  0  0  0  0  0  0  0  0
   -8.4877   22.4922  -29.4273 H   0  0  0  0  0  0  0  0  0  0  0  0
   -6.2972   23.5023  -28.7821 H   0  0  0  0  0  0  0  0  0  0  0  0
   -4.5999   24.7591  -27.7332 H   0  0  0  0  0  0  0  0  0  0  0  0
   -3.7590   23.4974  -26.6602 H   0  0  0  0  0  0  0  0  0  0  0  0
   -3.5958   25.3170  -25.1373 H   0  0  0  0  0  0  0  0  0  0  0  0
   -2.0010   26.8630  -24.2900 H   0  0  0  0  0  0  0  0  0  0  0  0
    0.0230   27.8681  -24.3118 H   0  0  0  0  0  0  0  0  0  0  0  0
    1.1225   27.7092  -25.7234 H   0  0  0  0  0  0  0  0  0  0  0  0
   -0.1636   28.9633  -25.7234 H   0  0  0  0  0  0  0  0  0  0  0  0
   -0.6890   25.6070  -29.6060 H   0  0  0  0  0  0  0  0  0  0  0  0
   -4.3732   21.4432  -27.2488 H   0  0  0  0  0  0  0  0  0  0  0  0
   -3.2694   19.2691  -26.6939 H   0  0  0  0  0  0  0  0  0  0  0  0
   -1.4555   17.8406  -26.8210 H   0  0  0  0  0  0  0  0  0  0  0  0
    0.8602   17.3413  -27.6286 H   0  0  0  0  0  0  0  0  0  0  0  0
    2.0820   18.9931  -28.9832 H   0  0  0  0  0  0  0  0  0  0  0  0
    1.0614   21.1760  -29.5776 H   0  0  0  0  0  0  0  0  0  0  0  0
   -1.3280   23.5710  -30.1100 H   0  0  0  0  0  0  0  0  0  0  0  0
   -4.6937   22.3903  -32.6136 H   0  0  0  0  0  0  0  0  0  0  0  0
   -6.8621   21.3927  -33.2503 H   0  0  0  0  0  0  0  0  0  0  0  0
  1  2  1  0
  2  3  2  0
  3  4  1  0
  4  5  2  0
  5  6  1  0
  6  7  2  0
  6  8  2  0
  6  9  1  0
  9 10  1  0
 10 11  1  0
 11 12  2  0
 12 13  1  0
 13 14  1  0
 14 15  1  0
 14 16  2  0
 16 17  1  0
 17 18  2  3
  9 19  1  0
 19 20  2  0
 20 21  1  0
 21 22  2  0
 22 23  1  0
 23 24  2  0
 24 25  1  0
 25 26  2  0
 26 27  1  0
 27 28  2  0
 28 29  1  0
  5 30  1  0
 30 31  2  0
 31  2  1  0
 17 11  1  0
 28 19  1  0
 27 22  1  0
  1 32  1  0
  1 33  1  0
  1 34  1  0
  3 35  1  0
  4 36  1  0
 10 37  1  0
 10 38  1  0
 12 39  1  0
 13 40  1  0
 15 41  1  0
 15 42  1  0
 15 43  1  0
 18 44  1  0
 20 45  1  0
 21 46  1  0
 23 47  1  0
 24 48  1  0
 25 49  1  0
 26 50  1  0
 29 51  1  0
 30 52  1  0
 31 53  1  0
M  END
>  <smiles>  (32) 
Cc1ccc(S(=O)(=O)N(Cc2c[nH]c(C)nc2=N)c2ccc3ccccc3c2O)cc1

>  <score_type>  (32) 
oracle

>  <origin>  (32) 
adgpu

>  <m_score__min__energy>  (32) 
-10.640000000000001

>  <m_primary>  (32) 
energy

$$$$
32:0
     RDKit          3D

 52 54  0  0  0  0  0  0  0  0999 V2000
   -8.7560   18.8270  -31.2710 C   0  0  0  0  0  0  0  0  0  0  0  0
   -8.2240   19.9410  -32.0630 N   0  0  0  0  0  0  0  0  0  0  0  0
   -8.6520   21.3190  -31.7680 C   0  0  0  0  0  0  0  0  0  0  0  0
   -7.4770   22.1940  -31.4140 C   0  0  0  0  0  0  0  0  0  0  0  0
   -6.8020   22.9200  -32.4090 C   0  0  0  0  0  0  0  0  0  0  0  0
   -5.7070   23.7220  -32.0770 C   0  0  0  0  0  0  0  0  0  0  0  0
   -5.2530   23.7890  -30.7480 C   0  0  0  0  0  0  0  0  0  0  0  0
   -4.1700   24.5980  -30.3710 O   0  0  0  0  0  0  0  0  0  0  0  0
   -3.0110   24.1530  -29.7200 C   0  0  0  0  0  0  0  0  0  0  0  0
   -2.3660   24.9260  -28.7390 C   0  0  0  0  0  0  0  0  0  0  0  0
   -1.1980   24.4600  -28.1340 C   0  0  0  0  0  0  0  0  0  0  0  0
   -0.6610   23.2230  -28.5020 C   0  0  0  0  0  0  0  0  0  0  0  0
   -1.2940   22.4350  -29.4770 C   0  0  0  0  0  0  0  0  0  0  0  0
   -0.6790   21.1280  -29.9090 C   0  0  0  0  0  0  0  0  0  0  0  0
   -0.1940   21.2260  -31.2020 F   0  0  0  0  0  0  0  0  0  0  0  0
    0.3720   20.7760  -29.0790 F   0  0  0  0  0  0  0  0  0  0  0  0
   -1.6400   20.1350  -29.8620 F   0  0  0  0  0  0  0  0  0  0  0  0
   -2.4570   22.9240  -30.1000 C   0  0  0  0  0  0  0  0  0  0  0  0
   -5.9260   23.0660  -29.7570 C   0  0  0  0  0  0  0  0  0  0  0  0
   -7.0210   22.2620  -30.0880 C   0  0  0  0  0  0  0  0  0  0  0  0
   -7.3090   19.6510  -33.1430 C   0  0  0  0  0  0  0  0  0  0  0  0
   -7.2410   20.4230  -34.1380 O   0  0  0  0  0  0  0  0  0  0  0  0
   -6.4550   18.4500  -33.1300 C   0  0  0  0  0  0  0  0  0  0  0  0
   -7.0380   17.2160  -33.4540 C   0  0  0  0  0  0  0  0  0  0  0  0
   -6.2810   16.0440  -33.4160 C   0  0  0  0  0  0  0  0  0  0  0  0
   -4.9310   16.0970  -33.0670 C   0  0  0  0  0  0  0  0  0  0  0  0
   -4.3320   17.3220  -32.7710 C   0  0  0  0  0  0  0  0  0  0  0  0
   -5.0770   18.5120  -32.8120 C   0  0  0  0  0  0  0  0  0  0  0  0
   -4.2560   20.0490  -32.4820 S   0  0  0  0  0  0  0  0  0  0  0  0
   -2.4940   19.8750  -32.6630 C   0  0  0  0  0  0  0  0  0  0  0  0
   -4.5770   20.5160  -31.0900 O   0  0  0  0  0  0  0  0  0  0  0  0
   -4.7330   21.0960  -33.4490 O   0  0  0  0  0  0  0  0  0  0  0  0
   -8.6477   19.0539  -30.2001 H   0  0  0  0  0  0  0  0  0  0  0  0
   -9.8201   18.6829  -31.5095 H   0  0  0  0  0  0  0  0  0  0  0  0
   -8.1992   17.9088  -31.5095 H   0  0  0  0  0  0  0  0  0  0  0  0
   -9.1547   21.7353  -32.6534 H   0  0  0  0  0  0  0  0  0  0  0  0
   -9.3369   21.2929  -30.9076 H   0  0  0  0  0  0  0  0  0  0  0  0
   -7.1370   22.8569  -33.4548 H   0  0  0  0  0  0  0  0  0  0  0  0
   -5.1976   24.3038  -32.8593 H   0  0  0  0  0  0  0  0  0  0  0  0
   -2.7832   25.9011  -28.4473 H   0  0  0  0  0  0  0  0  0  0  0  0
   -0.6984   25.0679  -27.3653 H   0  0  0  0  0  0  0  0  0  0  0  0
    0.2631   22.8646  -28.0250 H   0  0  0  0  0  0  0  0  0  0  0  0
   -2.9368   22.3341  -30.8949 H   0  0  0  0  0  0  0  0  0  0  0  0
   -5.5916   23.1305  -28.7111 H   0  0  0  0  0  0  0  0  0  0  0  0
   -7.5281   21.6794  -29.3048 H   0  0  0  0  0  0  0  0  0  0  0  0
   -8.0992   17.1717  -33.7400 H   0  0  0  0  0  0  0  0  0  0  0  0
   -6.7484   15.0789  -33.6611 H   0  0  0  0  0  0  0  0  0  0  0  0
   -4.3380   15.1715  -33.0252 H   0  0  0  0  0  0  0  0  0  0  0  0
   -3.2657   17.3561  -32.5029 H   0  0  0  0  0  0  0  0  0  0  0  0
   -2.0260   19.8288  -31.6686 H   0  0  0  0  0  0  0  0  0  0  0  0
   -2.2717   18.9505  -33.2161 H   0  0  0  0  0  0  0  0  0  0  0  0
   -2.0952   20.7381  -33.2161 H   0  0  0  0  0  0  0  0  0  0  0  0
  1  2  1  0
  2  3  1  0
  3  4  1  0
  4  5  2  0
  5  6  1  0
  6  7  2  0
  7  8  1  0
  8  9  1  0
  9 10  2  0
 10 11  1  0
 11 12  2  0
 12 13  1  0
 13 14  1  0
 14 15  1  0
 14 16  1  0
 14 17  1  0
 13 18  2  0
  7 19  1  0
 19 20  2  0
  2 21  1  0
 21 22  2  0
 21 23  1  0
 23 24  2  0
 24 25  1  0
 25 26  2  0
 26 27  1  0
 27 28  2  0
 28 29  1  0
 29 30  1  0
 29 31  2  0
 29 32  2  0
 20  4  1  0
 28 23  1  0
 18  9  1  0
  1 33  1  0
  1 34  1  0
  1 35  1  0
  3 36  1  0
  3 37  1  0
  5 38  1  0
  6 39  1  0
 10 40  1  0
 11 41  1  0
 12 42  1  0
 18 43  1  0
 19 44  1  0
 20 45  1  0
 24 46  1  0
 25 47  1  0
 26 48  1  0
 27 49  1  0
 30 50  1  0
 30 51  1  0
 30 52  1  0
M  END
>  <UniqueID>  (33) 
31

>  <SMILES>  (33) 
CN(Cc1ccc(Oc2cccc(C(F)(F)F)c2)cc1)C(=O)c1ccccc1S(C)(=O)=O

>  <Energy>  (33) 
63.18322824454233

>  <Genealogy>  (33) 
CN(Cc1ccc(Oc2cccc(C(F)(F)F)c2)cc1)C(=O)c1ccccc1S(C)(=O)=O (3D coordinates assigned)
CN(Cc1ccc(Oc2cccc(C(F)(F)F)c2)cc1)C(=O)c1ccccc1S(C)(=O)=O (optimized conformer: 63.18322824454233 kcal/mol)

>  <smiles>  (33) 
CN(Cc1ccc(Oc2cccc(C(F)(F)F)c2)cc1)C(=O)c1ccccc1S(C)(=O)=O

>  <score_type>  (33) 
oracle

>  <origin>  (33) 
adgpu

>  <m_score__min__energy>  (33) 
-10.01

>  <m_primary>  (33) 
energy

$$$$
33:0
     RDKit          3D

 54 57  0  0  0  0  0  0  0  0999 V2000
    0.3770   18.7390  -34.4110 C   0  0  0  0  0  0  0  0  0  0  0  0
   -0.9150   19.2890  -33.8860 C   0  0  0  0  0  0  0  0  0  0  0  0
   -1.7690   18.4820  -33.1170 C   0  0  0  0  0  0  0  0  0  0  0  0
   -2.9940   18.9810  -32.6670 C   0  0  0  0  0  0  0  0  0  0  0  0
   -3.3870   20.2850  -32.9950 C   0  0  0  0  0  0  0  0  0  0  0  0
   -4.6660   20.7840  -32.5610 N   0  0  0  0  0  0  0  0  0  0  0  0
   -4.7500   21.9530  -31.8400 C   0  0  0  0  0  0  0  0  0  0  0  0
   -3.5290   22.7640  -31.4960 C   0  0  0  0  0  0  0  0  0  0  0  0
   -3.9360   24.0030  -30.8310 N   0  0  0  0  0  0  0  0  0  0  0  0
   -3.3130   24.0420  -29.2100 S   0  0  0  0  0  0  0  0  0  0  0  0
   -4.4500   24.2360  -28.2470 O   0  0  0  0  0  0  0  0  0  0  0  0
   -2.3650   25.2000  -29.0640 O   0  0  0  0  0  0  0  0  0  0  0  0
   -2.4850   22.5330  -28.8340 C   0  0  0  0  0  0  0  0  0  0  0  0
   -1.1990   22.3020  -29.3300 C   0  0  0  0  0  0  0  0  0  0  0  0
   -0.5250   21.1210  -29.0160 C   0  0  0  0  0  0  0  0  0  0  0  0
   -1.1260   20.1510  -28.1940 C   0  0  0  0  0  0  0  0  0  0  0  0
   -0.3740   18.8860  -27.8750 C   0  0  0  0  0  0  0  0  0  0  0  0
   -2.4300   20.3800  -27.6900 C   0  0  0  0  0  0  0  0  0  0  0  0
   -3.1090   19.3740  -26.7990 C   0  0  0  0  0  0  0  0  0  0  0  0
   -3.0940   21.5760  -28.0120 C   0  0  0  0  0  0  0  0  0  0  0  0
   -5.9640   22.4240  -31.4510 N   0  0  0  0  0  0  0  0  0  0  0  0
   -7.1110   21.7650  -31.7440 C   0  0  0  0  0  0  0  0  0  0  0  0
   -8.3420   22.2800  -31.3210 C   0  0  0  0  0  0  0  0  0  0  0  0
   -9.5250   21.6010  -31.6250 C   0  0  0  0  0  0  0  0  0  0  0  0
   -9.4830   20.4070  -32.3500 C   0  0  0  0  0  0  0  0  0  0  0  0
   -8.2570   19.8870  -32.7770 C   0  0  0  0  0  0  0  0  0  0  0  0
   -7.0600   20.5630  -32.4760 C   0  0  0  0  0  0  0  0  0  0  0  0
   -5.8020   20.0870  -32.8820 C   0  0  0  0  0  0  0  0  0  0  0  0
   -5.7200   19.0120  -33.5410 O   0  0  0  0  0  0  0  0  0  0  0  0
   -2.5410   21.0910  -33.7680 C   0  0  0  0  0  0  0  0  0  0  0  0
   -1.3150   20.5940  -34.2190 C   0  0  0  0  0  0  0  0  0  0  0  0
    1.0272   18.4622  -33.5680 H   0  0  0  0  0  0  0  0  0  0  0  0
    0.1741   17.8492  -35.0251 H   0  0  0  0  0  0  0  0  0  0  0  0
    0.8777   19.5020  -35.0251 H   0  0  0  0  0  0  0  0  0  0  0  0
   -1.4722   17.4525  -32.8678 H   0  0  0  0  0  0  0  0  0  0  0  0
   -3.6518   18.3480  -32.0533 H   0  0  0  0  0  0  0  0  0  0  0  0
   -2.8808   22.1830  -30.8235 H   0  0  0  0  0  0  0  0  0  0  0  0
   -2.9791   23.0066  -32.4173 H   0  0  0  0  0  0  0  0  0  0  0  0
   -4.9800   24.0120  -30.7620 H   0  0  0  0  0  0  0  0  0  0  0  0
   -0.7159   23.0544  -29.9707 H   0  0  0  0  0  0  0  0  0  0  0  0
    0.4853   20.9473  -29.4150 H   0  0  0  0  0  0  0  0  0  0  0  0
   -0.3032   18.7668  -26.7838 H   0  0  0  0  0  0  0  0  0  0  0  0
   -0.9068   18.0246  -28.3041 H   0  0  0  0  0  0  0  0  0  0  0  0
    0.6373   18.9425  -28.3041 H   0  0  0  0  0  0  0  0  0  0  0  0
   -2.9310   19.6377  -25.7460 H   0  0  0  0  0  0  0  0  0  0  0  0
   -4.1905   19.3771  -27.0000 H   0  0  0  0  0  0  0  0  0  0  0  0
   -2.7016   18.3722  -27.0000 H   0  0  0  0  0  0  0  0  0  0  0  0
   -4.1025   21.7626  -27.6144 H   0  0  0  0  0  0  0  0  0  0  0  0
   -8.3782   23.2191  -30.7493 H   0  0  0  0  0  0  0  0  0  0  0  0
  -10.4917   22.0074  -31.2928 H   0  0  0  0  0  0  0  0  0  0  0  0
  -10.4165   19.8749  -32.5854 H   0  0  0  0  0  0  0  0  0  0  0  0
   -8.2283   18.9479  -33.3491 H   0  0  0  0  0  0  0  0  0  0  0  0
   -2.8426   22.1182  -34.0208 H   0  0  0  0  0  0  0  0  0  0  0  0
   -0.6610   21.2268  -34.8369 H   0  0  0  0  0  0  0  0  0  0  0  0
  1  2  1  0
  2  3  2  0
  3  4  1  0
  4  5  2  0
  5  6  1  0
  6  7  1  0
  7  8  1  0
  8  9  1  0
  9 10  1  0
 10 11  2  0
 10 12  2  0
 10 13  1  0
 13 14  2  0
 14 15  1  0
 15 16  2  0
 16 17  1  0
 16 18  1  0
 18 19  1  0
 18 20  2  0
  7 21  2  0
 21 22  1  0
 22 23  2  0
 23 24  1  0
 24 25  2  0
 25 26  1  0
 26 27  2  0
 27 28  1  0
 28 29  2  0
  5 30  1  0
 30 31  2  0
 31  2  1  0
 28  6  1  0
 20 13  1  0
 27 22  1  0
  1 32  1  0
  1 33  1  0
  1 34  1  0
  3 35  1  0
  4 36  1  0
  8 37  1  0
  8 38  1  0
  9 39  1  0
 14 40  1  0
 15 41  1  0
 17 42  1  0
 17 43  1  0
 17 44  1  0
 19 45  1  0
 19 46  1  0
 19 47  1  0
 20 48  1  0
 23 49  1  0
 24 50  1  0
 25 51  1  0
 26 52  1  0
 30 53  1  0
 31 54  1  0
M  END
>  <UniqueID>  (34) 
32

>  <SMILES>  (34) 
Cc1ccc(-n2c(CNS(=O)(=O)c3ccc(C)c(C)c3)nc3ccccc3c2=O)cc1

>  <Energy>  (34) 
67.75680473336435

>  <Genealogy>  (34) 
Cc1ccc(-n2c(CNS(=O)(=O)c3ccc(C)c(C)c3)nc3ccccc3c2=O)cc1 (3D coordinates assigned)
Cc1ccc(-n2c(CNS(=O)(=O)c3ccc(C)c(C)c3)nc3ccccc3c2=O)cc1 (optimized conformer: 67.75680473336435 kcal/mol)

>  <smiles>  (34) 
Cc1ccc(-n2c(CNS(=O)(=O)c3ccc(C)c(C)c3)nc3ccccc3c2=O)cc1

>  <score_type>  (34) 
oracle

>  <origin>  (34) 
adgpu

>  <m_score__min__energy>  (34) 
-11.039999999999999

>  <m_primary>  (34) 
energy

$$$$
34:0
     RDKit          3D

 23 25  0  0  0  0  0  0  0  0999 V2000
   -1.3820   25.4870  -29.0680 O   0  0  0  0  0  0  0  0  0  0  0  0
   -2.3500   24.7280  -29.3430 C   0  0  0  0  0  0  0  0  0  0  0  0
   -3.4860   25.2820  -30.0280 N   0  0  0  0  0  0  0  0  0  0  0  0
   -4.6790   24.5820  -30.4110 C   0  0  0  0  0  0  0  0  0  0  0  0
   -5.9180   25.2010  -30.2020 C   0  0  0  0  0  0  0  0  0  0  0  0
   -7.1050   24.5280  -30.5090 C   0  0  0  0  0  0  0  0  0  0  0  0
   -7.0610   23.2360  -31.0380 C   0  0  0  0  0  0  0  0  0  0  0  0
   -5.8300   22.6230  -31.2830 C   0  0  0  0  0  0  0  0  0  0  0  0
   -4.6370   23.2980  -30.9920 C   0  0  0  0  0  0  0  0  0  0  0  0
   -3.0760   22.5450  -31.4280 S   0  0  0  0  0  0  0  0  0  0  0  0
   -2.6850   22.2570  -29.7100 C   0  0  0  0  0  0  0  0  0  0  0  0
   -2.7110   20.9860  -29.2260 N   0  0  0  0  0  0  0  0  0  0  0  0
   -2.3640   20.7010  -27.9420 C   0  0  0  0  0  0  0  0  0  0  0  0
   -1.9570   21.7250  -27.0850 C   0  0  0  0  0  0  0  0  0  0  0  0
   -1.9290   23.0390  -27.5550 C   0  0  0  0  0  0  0  0  0  0  0  0
   -2.3160   23.3250  -28.8720 C   0  0  0  0  0  0  0  0  0  0  0  0
   -5.9577   26.2219  -29.7942 H   0  0  0  0  0  0  0  0  0  0  0  0
   -8.0746   25.0169  -30.3336 H   0  0  0  0  0  0  0  0  0  0  0  0
   -7.9959   22.7012  -31.2617 H   0  0  0  0  0  0  0  0  0  0  0  0
   -5.7970   21.6079  -31.7054 H   0  0  0  0  0  0  0  0  0  0  0  0
   -2.4041   19.6634  -27.5789 H   0  0  0  0  0  0  0  0  0  0  0  0
   -1.6614   21.4987  -26.0499 H   0  0  0  0  0  0  0  0  0  0  0  0
   -1.6024   23.8524  -26.8904 H   0  0  0  0  0  0  0  0  0  0  0  0
  1  2  2  0
  2  3  1  0
  3  4  1  0
  4  5  2  0
  5  6  1  0
  6  7  2  0
  7  8  1  0
  8  9  2  0
  9 10  1  0
 10 11  1  0
 11 12  2  0
 12 13  1  0
 13 14  2  0
 14 15  1  0
 15 16  2  0
 16  2  1  0
  9  4  1  0
 16 11  1  0
  5 17  1  0
  6 18  1  0
  7 19  1  0
  8 20  1  0
 13 21  1  0
 14 22  1  0
 15 23  1  0
M  CHG  1   3  -1
M  END
>  <UniqueID>  (35) 
33

>  <SMILES>  (35) 
O=C1[N-]c2ccccc2Sc2ncccc21

>  <Energy>  (35) 
38.65701771073689

>  <Genealogy>  (35) 
O=C1[N-]c2ccccc2Sc2ncccc21 (protonated)
O=C1[N-]c2ccccc2Sc2ncccc21 (3D coordinates assigned)
O=C1[N-]c2ccccc2Sc2ncccc21 (nonaromatic ring conformer: 38.65701771073689 kcal/mol)

>  <smiles>  (35) 
O=C1Nc2ccccc2Sc2ncccc21

>  <score_type>  (35) 
oracle

>  <origin>  (35) 
adgpu

>  <m_score__min__energy>  (35) 
-8.3000000000000007

>  <m_primary>  (35) 
energy

$$$$
35:0
     RDKit          3D

 66 70  0  0  0  0  0  0  0  0999 V2000
   -1.3240   20.4180  -25.9250 C   0  0  0  0  0  0  0  0  0  0  0  0
   -0.5100   20.2390  -27.1390 N   0  0  0  0  0  0  0  0  0  0  0  0
   -1.2480   19.5610  -28.2200 C   0  0  0  0  0  0  0  0  0  0  0  0
   -2.4330   20.3930  -28.7330 C   0  0  0  0  0  0  0  0  0  0  0  0
   -2.0820   21.8490  -28.9060 C   0  0  0  0  0  0  0  0  0  0  0  0
   -2.9620   22.6850  -29.6100 C   0  0  0  0  0  0  0  0  0  0  0  0
   -2.6890   24.0520  -29.7480 C   0  0  0  0  0  0  0  0  0  0  0  0
   -3.5680   24.8800  -30.5100 N   0  0  0  0  0  0  0  0  0  0  0  0
   -5.2340   25.0580  -30.0870 S   0  0  0  0  0  0  0  0  0  0  0  0
   -5.7430   26.4110  -30.5000 O   0  0  0  0  0  0  0  0  0  0  0  0
   -5.3830   24.9270  -28.5970 O   0  0  0  0  0  0  0  0  0  0  0  0
   -6.1450   23.7960  -30.9070 C   0  0  0  0  0  0  0  0  0  0  0  0
   -7.5450   23.7920  -30.8660 C   0  0  0  0  0  0  0  0  0  0  0  0
   -8.2590   22.7480  -31.4550 C   0  0  0  0  0  0  0  0  0  0  0  0
   -7.5810   21.6970  -32.0790 C   0  0  0  0  0  0  0  0  0  0  0  0
   -6.1740   21.6840  -32.1270 C   0  0  0  0  0  0  0  0  0  0  0  0
   -5.4540   20.5630  -32.7890 C   0  0  0  0  0  0  0  0  0  0  0  0
   -6.1540   19.4200  -33.2200 C   0  0  0  0  0  0  0  0  0  0  0  0
   -5.4760   18.3590  -33.8210 C   0  0  0  0  0  0  0  0  0  0  0  0
   -4.0930   18.4200  -34.0030 C   0  0  0  0  0  0  0  0  0  0  0  0
   -3.3760   19.5540  -33.5930 C   0  0  0  0  0  0  0  0  0  0  0  0
   -1.8800   19.5910  -33.7570 C   0  0  0  0  0  0  0  0  0  0  0  0
   -1.3900   20.9670  -33.5170 N   0  0  0  0  0  0  0  0  0  0  0  0
   -0.8370   21.1420  -32.1600 C   0  0  0  0  0  0  0  0  0  0  0  0
    0.4970   20.3810  -31.9810 C   0  0  0  0  0  0  0  0  0  0  0  0
    1.3060   20.3250  -33.2110 N   0  0  0  0  0  0  0  0  0  0  0  0
    1.0220   21.4410  -34.1210 C   0  0  0  0  0  0  0  0  0  0  0  0
   -0.4550   21.4410  -34.5680 C   0  0  0  0  0  0  0  0  0  0  0  0
   -4.0590   20.6210  -32.9830 C   0  0  0  0  0  0  0  0  0  0  0  0
   -5.4640   22.7450  -31.5340 C   0  0  0  0  0  0  0  0  0  0  0  0
   -1.5360   24.5970  -29.1590 C   0  0  0  0  0  0  0  0  0  0  0  0
   -1.2420   25.9570  -29.2660 O   0  0  0  0  0  0  0  0  0  0  0  0
   -0.6640   23.7700  -28.4440 C   0  0  0  0  0  0  0  0  0  0  0  0
   -0.9310   22.3990  -28.3050 C   0  0  0  0  0  0  0  0  0  0  0  0
    0.0740   21.5120  -27.6090 C   0  0  0  0  0  0  0  0  0  0  0  0
   -0.6916   20.2789  -25.0357 H   0  0  0  0  0  0  0  0  0  0  0  0
   -1.7513   21.4316  -25.9162 H   0  0  0  0  0  0  0  0  0  0  0  0
   -2.1371   19.6772  -25.9162 H   0  0  0  0  0  0  0  0  0  0  0  0
   -0.5580   19.3762  -29.0565 H   0  0  0  0  0  0  0  0  0  0  0  0
   -1.6498   18.6214  -27.8130 H   0  0  0  0  0  0  0  0  0  0  0  0
   -2.7536   19.9892  -29.7047 H   0  0  0  0  0  0  0  0  0  0  0  0
   -3.2364   20.3287  -27.9844 H   0  0  0  0  0  0  0  0  0  0  0  0
   -3.8741   22.2633  -30.0574 H   0  0  0  0  0  0  0  0  0  0  0  0
   -8.0823   24.6130  -30.3688 H   0  0  0  0  0  0  0  0  0  0  0  0
   -9.3587   22.7520  -31.4282 H   0  0  0  0  0  0  0  0  0  0  0  0
   -8.1507   20.8743  -32.5358 H   0  0  0  0  0  0  0  0  0  0  0  0
   -7.2438   19.3630  -33.0818 H   0  0  0  0  0  0  0  0  0  0  0  0
   -6.0334   17.4706  -34.1529 H   0  0  0  0  0  0  0  0  0  0  0  0
   -3.5638   17.5760  -34.4695 H   0  0  0  0  0  0  0  0  0  0  0  0
   -1.4150   18.9050  -33.0337 H   0  0  0  0  0  0  0  0  0  0  0  0
   -1.6159   19.2813  -34.7789 H   0  0  0  0  0  0  0  0  0  0  0  0
   -0.6624   22.2134  -31.9821 H   0  0  0  0  0  0  0  0  0  0  0  0
   -1.5622   20.7347  -31.4401 H   0  0  0  0  0  0  0  0  0  0  0  0
    1.0844   20.8853  -31.1995 H   0  0  0  0  0  0  0  0  0  0  0  0
    0.2469   19.3451  -31.7083 H   0  0  0  0  0  0  0  0  0  0  0  0
    1.0950   19.4330  -33.7140 H   0  0  0  0  0  0  0  0  0  0  0  0
    1.2398   22.3878  -33.6051 H   0  0  0  0  0  0  0  0  0  0  0  0
    1.6541   21.3288  -35.0142 H   0  0  0  0  0  0  0  0  0  0  0  0
   -0.7349   22.4678  -34.8462 H   0  0  0  0  0  0  0  0  0  0  0  0
   -0.5377   20.7432  -35.4143 H   0  0  0  0  0  0  0  0  0  0  0  0
   -3.4996   21.5092  -32.6541 H   0  0  0  0  0  0  0  0  0  0  0  0
   -4.3644   22.7487  -31.5633 H   0  0  0  0  0  0  0  0  0  0  0  0
   -1.2390   26.4430  -30.1550 H   0  0  0  0  0  0  0  0  0  0  0  0
    0.2399   24.1980  -27.9861 H   0  0  0  0  0  0  0  0  0  0  0  0
    0.8887   21.2856  -28.3125 H   0  0  0  0  0  0  0  0  0  0  0  0
    0.4362   22.0554  -26.7238 H   0  0  0  0  0  0  0  0  0  0  0  0
  1  2  1  0
  2  3  1  0
  3  4  1  0
  4  5  1  0
  5  6  2  0
  6  7  1  0
  7  8  1  0
  8  9  1  0
  9 10  2  0
  9 11  2  0
  9 12  1  0
 12 13  2  0
 13 14  1  0
 14 15  2  0
 15 16  1  0
 16 17  1  0
 17 18  2  0
 18 19  1  0
 19 20  2  0
 20 21  1  0
 21 22  1  0
 22 23  1  0
 23 24  1  0
 24 25  1  0
 25 26  1  0
 26 27  1  0
 27 28  1  0
 21 29  2  0
 16 30  2  0
  7 31  2  0
 31 32  1  0
 31 33  1  0
 33 34  2  0
 34 35  1  0
 35  2  1  0
 34  5  1  0
 30 12  1  0
 29 17  1  0
 28 23  1  0
  1 36  1  0
  1 37  1  0
  1 38  1  0
  3 39  1  0
  3 40  1  0
  4 41  1  0
  4 42  1  0
  6 43  1  0
 13 44  1  0
 14 45  1  0
 15 46  1  0
 18 47  1  0
 19 48  1  0
 20 49  1  0
 22 50  1  0
 22 51  1  0
 24 52  1  0
 24 53  1  0
 25 54  1  0
 25 55  1  0
 26 56  1  0
 27 57  1  0
 27 58  1  0
 28 59  1  0
 28 60  1  0
 29 61  1  0
 30 62  1  0
 32 63  1  0
 33 64  1  0
 35 65  1  0
 35 66  1  0
M  CHG  1   8  -1
M  END
>  <UniqueID>  (36) 
34

>  <SMILES>  (36) 
CN1CCc2cc([N-]S(=O)(=O)c3cccc(-c4cccc(CN5CCNCC5)c4)c3)c(O)cc2C1

>  <Energy>  (36) 
96.29736582432803

>  <Genealogy>  (36) 
CN1CCc2cc([N-]S(=O)(=O)c3cccc(-c4cccc(CN5CCNCC5)c4)c3)c(O)cc2C1 (protonated)
CN1CCc2cc([N-]S(=O)(=O)c3cccc(-c4cccc(CN5CCNCC5)c4)c3)c(O)cc2C1 (3D coordinates assigned)
CN1CCc2cc([N-]S(=O)(=O)c3cccc(-c4cccc(CN5CCNCC5)c4)c3)c(O)cc2C1 (nonaromatic ring conformer: 96.29736582432803 kcal/mol)

>  <smiles>  (36) 
CN1CCc2cc(NS(=O)(=O)c3cccc(-c4cccc(CN5CCNCC5)c4)c3)c(O)cc2C1

>  <score_type>  (36) 
oracle

>  <origin>  (36) 
adgpu

>  <m_score__min__energy>  (36) 
-13.6

>  <m_primary>  (36) 
energy

$$$$
36:0
     RDKit          3D

 37 38  0  0  0  0  0  0  0  0999 V2000
   -5.6480   19.3960  -33.8460 C   0  0  0  0  0  0  0  0  0  0  0  0
   -5.5370   20.6580  -33.0300 C   0  0  0  0  0  0  0  0  0  0  0  0
   -6.7040   21.2760  -32.5560 C   0  0  0  0  0  0  0  0  0  0  0  0
   -6.6500   22.4600  -31.8020 C   0  0  0  0  0  0  0  0  0  0  0  0
   -7.9430   23.0650  -31.3260 C   0  0  0  0  0  0  0  0  0  0  0  0
   -5.3870   23.0280  -31.4970 C   0  0  0  0  0  0  0  0  0  0  0  0
   -5.1770   24.5170  -30.5510 S   0  0  0  0  0  0  0  0  0  0  0  0
   -5.9720   25.6650  -31.1070 O   0  0  0  0  0  0  0  0  0  0  0  0
   -5.6610   24.2600  -29.1510 O   0  0  0  0  0  0  0  0  0  0  0  0
   -3.4950   24.9450  -30.4850 N   0  0  0  0  0  0  0  0  0  0  0  0
   -2.7800   24.0250  -29.6060 C   0  0  0  0  0  0  0  0  0  0  0  0
   -2.2500   24.7840  -28.4290 C   0  0  0  0  0  0  0  0  0  0  0  0
   -2.7850   24.5800  -27.1490 C   0  0  0  0  0  0  0  0  0  0  0  0
   -2.2930   25.3240  -26.0750 C   0  0  0  0  0  0  0  0  0  0  0  0
   -1.2850   26.2680  -26.2880 C   0  0  0  0  0  0  0  0  0  0  0  0
   -0.7850   26.4540  -27.5780 C   0  0  0  0  0  0  0  0  0  0  0  0
   -1.2760   25.7180  -28.6120 N   0  0  0  0  0  0  0  0  0  0  0  0
   -4.2260   22.4180  -31.9900 C   0  0  0  0  0  0  0  0  0  0  0  0
   -4.2830   21.2470  -32.7600 C   0  0  0  0  0  0  0  0  0  0  0  0
   -3.0040   20.6270  -33.2580 C   0  0  0  0  0  0  0  0  0  0  0  0
   -5.7242   18.5295  -33.1727 H   0  0  0  0  0  0  0  0  0  0  0  0
   -6.5451   19.4473  -34.4805 H   0  0  0  0  0  0  0  0  0  0  0  0
   -4.7557   19.2899  -34.4805 H   0  0  0  0  0  0  0  0  0  0  0  0
   -7.6816   20.8240  -32.7795 H   0  0  0  0  0  0  0  0  0  0  0  0
   -7.9609   23.0734  -30.2262 H   0  0  0  0  0  0  0  0  0  0  0  0
   -8.0260   24.0954  -31.7019 H   0  0  0  0  0  0  0  0  0  0  0  0
   -8.7873   22.4684  -31.7019 H   0  0  0  0  0  0  0  0  0  0  0  0
   -3.4666   23.2390  -29.2586 H   0  0  0  0  0  0  0  0  0  0  0  0
   -1.9464   23.5615  -30.1539 H   0  0  0  0  0  0  0  0  0  0  0  0
   -3.5846   23.8409  -26.9926 H   0  0  0  0  0  0  0  0  0  0  0  0
   -2.6976   25.1676  -25.0642 H   0  0  0  0  0  0  0  0  0  0  0  0
   -0.8897   26.8582  -25.4481 H   0  0  0  0  0  0  0  0  0  0  0  0
    0.0065   27.1961  -27.7589 H   0  0  0  0  0  0  0  0  0  0  0  0
   -3.2471   22.8679  -31.7680 H   0  0  0  0  0  0  0  0  0  0  0  0
   -2.3840   20.3265  -32.4005 H   0  0  0  0  0  0  0  0  0  0  0  0
   -3.2387   19.7427  -33.8686 H   0  0  0  0  0  0  0  0  0  0  0  0
   -2.4551   21.3590  -33.8686 H   0  0  0  0  0  0  0  0  0  0  0  0
  1  2  1  0
  2  3  2  0
  3  4  1  0
  4  5  1  0
  4  6  2  0
  6  7  1  0
  7  8  2  0
  7  9  2  0
  7 10  1  0
 10 11  1  0
 11 12  1  0
 12 13  2  0
 13 14  1  0
 14 15  2  0
 15 16  1  0
 16 17  2  0
  6 18  1  0
 18 19  2  0
 19 20  1  0
 19  2  1  0
 17 12  1  0
  1 21  1  0
  1 22  1  0
  1 23  1  0
  3 24  1  0
  5 25  1  0
  5 26  1  0
  5 27  1  0
 11 28  1  0
 11 29  1  0
 13 30  1  0
 14 31  1  0
 15 32  1  0
 16 33  1  0
 18 34  1  0
 20 35  1  0
 20 36  1  0
 20 37  1  0
M  CHG  1  10  -1
M  END
>  <UniqueID>  (37) 
35

>  <SMILES>  (37) 
Cc1cc(C)c(S(=O)(=O)[N-]Cc2ccccn2)cc1C

>  <Energy>  (37) 
38.02896775252524

>  <Genealogy>  (37) 
Cc1cc(C)c(S(=O)(=O)[N-]Cc2ccccn2)cc1C (protonated)
Cc1cc(C)c(S(=O)(=O)[N-]Cc2ccccn2)cc1C (3D coordinates assigned)
Cc1cc(C)c(S(=O)(=O)[N-]Cc2ccccn2)cc1C (optimized conformer: 38.02896775252524 kcal/mol)

>  <smiles>  (37) 
Cc1cc(C)c(S(=O)(=O)NCc2ccccn2)cc1C

>  <score_type>  (37) 
oracle

>  <origin>  (37) 
adgpu

>  <m_score__min__energy>  (37) 
-9.6699999999999999

>  <m_primary>  (37) 
energy

$$$$
37:0
     RDKit          3D

 29 31  0  0  0  0  0  0  0  0999 V2000
   -5.7740   24.8400  -31.5890 O   0  0  0  0  0  0  0  0  0  0  0  0
   -6.2890   23.6910  -31.5730 C   0  0  0  0  0  0  0  0  0  0  0  0
   -7.6300   23.5600  -31.4100 N   0  0  0  0  0  0  0  0  0  0  0  0
   -8.2240   22.3390  -31.3850 C   0  0  0  0  0  0  0  0  0  0  0  0
   -9.4750   22.2690  -31.2520 O   0  0  0  0  0  0  0  0  0  0  0  0
   -7.4680   21.2010  -31.5080 N   0  0  0  0  0  0  0  0  0  0  0  0
   -8.1020   19.8750  -31.5240 C   0  0  0  0  0  0  0  0  0  0  0  0
   -7.6740   18.9890  -32.6880 C   0  0  0  0  0  0  0  0  0  0  0  0
   -9.0470   19.6350  -32.6960 C   0  0  0  0  0  0  0  0  0  0  0  0
   -6.1230   21.3040  -31.7230 C   0  0  0  0  0  0  0  0  0  0  0  0
   -5.4970   22.5510  -31.7330 C   0  0  0  0  0  0  0  0  0  0  0  0
   -3.7170   22.6640  -31.9610 S   0  0  0  0  0  0  0  0  0  0  0  0
   -3.4080   22.8850  -30.2050 C   0  0  0  0  0  0  0  0  0  0  0  0
   -3.2450   21.7610  -29.3840 C   0  0  0  0  0  0  0  0  0  0  0  0
   -3.0160   21.9170  -28.0140 C   0  0  0  0  0  0  0  0  0  0  0  0
   -2.8630   20.7990  -27.2040 O   0  0  0  0  0  0  0  0  0  0  0  0
   -2.9380   23.1990  -27.4590 C   0  0  0  0  0  0  0  0  0  0  0  0
   -3.0890   24.3240  -28.2760 C   0  0  0  0  0  0  0  0  0  0  0  0
   -3.3200   24.1720  -29.6480 C   0  0  0  0  0  0  0  0  0  0  0  0
   -3.4580   25.3000  -30.4480 O   0  0  0  0  0  0  0  0  0  0  0  0
   -8.1682   19.7578  -30.4323 H   0  0  0  0  0  0  0  0  0  0  0  0
   -6.8991   19.3365  -33.3871 H   0  0  0  0  0  0  0  0  0  0  0  0
   -7.2994   17.9592  -32.7836 H   0  0  0  0  0  0  0  0  0  0  0  0
   -9.2666   20.4505  -33.4008 H   0  0  0  0  0  0  0  0  0  0  0  0
  -10.0783   19.2668  -32.7997 H   0  0  0  0  0  0  0  0  0  0  0  0
   -5.5272   20.3945  -31.8900 H   0  0  0  0  0  0  0  0  0  0  0  0
   -3.2975   20.7522  -29.8194 H   0  0  0  0  0  0  0  0  0  0  0  0
   -2.7580   23.3220  -26.3808 H   0  0  0  0  0  0  0  0  0  0  0  0
   -3.0260   25.3315  -27.8389 H   0  0  0  0  0  0  0  0  0  0  0  0
  1  2  2  0
  2  3  1  0
  3  4  1  0
  4  5  2  0
  4  6  1  0
  6  7  1  0
  7  8  1  0
  8  9  1  0
  6 10  1  0
 10 11  2  0
 11 12  1  0
 12 13  1  0
 13 14  2  0
 14 15  1  0
 15 16  1  0
 15 17  2  0
 17 18  1  0
 18 19  2  0
 19 20  1  0
 11  2  1  0
 19 13  1  0
  9  7  1  0
  7 21  1  0
  8 22  1  0
  8 23  1  0
  9 24  1  0
  9 25  1  0
 10 26  1  0
 14 27  1  0
 17 28  1  0
 18 29  1  0
M  CHG  3   3  -1  16  -1  20  -1
M  END
>  <UniqueID>  (38) 
36

>  <SMILES>  (38) 
O=c1[n-]c(=O)n(C2CC2)cc1Sc1cc([O-])ccc1[O-]

>  <Energy>  (38) 
294.93316168034295

>  <Genealogy>  (38) 
O=c1[n-]c(=O)n(C2CC2)cc1Sc1cc([O-])ccc1[O-] (protonated)
O=c1[n-]c(=O)n(C2CC2)cc1Sc1cc([O-])ccc1[O-] (3D coordinates assigned)
O=c1[n-]c(=O)n(C2CC2)cc1Sc1cc([O-])ccc1[O-] (nonaromatic ring conformer: 294.93316168034295 kcal/mol)

>  <smiles>  (38) 
O=c1[nH]c(=O)n(C2CC2)cc1Sc1cc(O)ccc1O

>  <score_type>  (38) 
oracle

>  <origin>  (38) 
adgpu

>  <m_score__min__energy>  (38) 
-10.869999999999999

>  <m_primary>  (38) 
energy

$$$$
38:0
     RDKit          3D

 47 48  0  0  1  0  0  0  0  0999 V2000
   -4.5550   17.5620  -35.0310 C   0  0  0  0  0  0  0  0  0  0  0  0
   -4.9180   18.4960  -34.0150 N   0  0  0  0  0  0  0  0  0  0  0  0
   -3.8040   19.1750  -33.4110 C   0  0  0  0  0  0  0  0  0  0  0  0
   -6.0070   19.3670  -34.3450 C   0  0  0  0  0  0  0  0  0  0  0  0
   -6.9030   19.5380  -33.1710 C   0  0  0  0  0  0  0  0  0  0  0  0
   -7.1710   20.7740  -32.6200 C   0  0  0  0  0  0  0  0  0  0  0  0
   -8.0040   20.9420  -31.5250 C   0  0  0  0  0  0  0  0  0  0  0  0
   -8.2350   22.3130  -31.0000 C   0  0  0  0  0  0  0  0  0  0  0  0
   -6.9950   23.1200  -30.9040 C   0  0  0  0  0  0  0  0  0  0  0  0
   -7.0720   24.4870  -30.7380 C   0  0  0  0  0  0  0  0  0  0  0  0
   -5.8740   25.1630  -30.6570 C   0  0  0  0  0  0  0  0  0  0  0  0
   -4.6450   24.5730  -30.7310 C   0  0  0  0  0  0  0  0  0  0  0  0
   -3.4970   25.3340  -30.6410 O   0  0  0  0  0  0  0  0  0  0  0  0
   -4.5570   23.2120  -30.8990 C   0  0  0  0  0  0  0  0  0  0  0  0
   -3.2670   22.6080  -30.8100 C   0  0  0  0  0  0  0  0  0  0  0  0
   -2.3650   22.7520  -29.8980 C   0  0  0  0  0  0  0  0  0  0  0  0
   -2.3470   23.5130  -28.6890 C   0  0  0  0  0  0  0  0  0  0  0  0
   -2.9390   22.8100  -27.5700 O   0  0  0  0  0  0  0  0  0  0  0  0
   -1.9720   24.6450  -28.3650 N   0  0  0  0  0  0  0  0  0  0  0  0
   -1.4380   25.6690  -28.9190 O   0  0  0  0  0  0  0  0  0  0  0  0
   -5.7600   22.5270  -30.9780 C   0  0  0  0  0  0  0  0  0  0  0  0
   -8.5850   19.8180  -30.9730 C   0  0  0  0  0  0  0  0  0  0  0  0
   -8.3110   18.5710  -31.5310 C   0  0  0  0  0  0  0  0  0  0  0  0
   -7.4890   18.4020  -32.6130 C   0  0  0  0  0  0  0  0  0  0  0  0
   -7.2440   17.1290  -33.1400 O   0  0  0  0  0  0  0  0  0  0  0  0
   -4.1942   16.6338  -34.5638 H   0  0  0  0  0  0  0  0  0  0  0  0
   -5.4326   17.3408  -35.6562 H   0  0  0  0  0  0  0  0  0  0  0  0
   -3.7583   17.9915  -35.6562 H   0  0  0  0  0  0  0  0  0  0  0  0
   -3.8919   19.1214  -32.3158 H   0  0  0  0  0  0  0  0  0  0  0  0
   -2.8664   18.6946  -33.7275 H   0  0  0  0  0  0  0  0  0  0  0  0
   -3.8013   20.2285  -33.7275 H   0  0  0  0  0  0  0  0  0  0  0  0
   -5.6095   20.3480  -34.6444 H   0  0  0  0  0  0  0  0  0  0  0  0
   -6.5811   18.9253  -35.1728 H   0  0  0  0  0  0  0  0  0  0  0  0
   -6.7041   21.6634  -33.0684 H   0  0  0  0  0  0  0  0  0  0  0  0
   -8.9372   22.8301  -31.6705 H   0  0  0  0  0  0  0  0  0  0  0  0
   -8.6360   22.2088  -29.9810 H   0  0  0  0  0  0  0  0  0  0  0  0
   -8.0378   25.0095  -30.6737 H   0  0  0  0  0  0  0  0  0  0  0  0
   -5.9104   26.2542  -30.5234 H   0  0  0  0  0  0  0  0  0  0  0  0
   -3.1510   25.6720  -29.7490 H   0  0  0  0  0  0  0  0  0  0  0  0
   -3.0053   21.9256  -31.6321 H   0  0  0  0  0  0  0  0  0  0  0  0
   -1.4413   22.1851  -30.0860 H   0  0  0  0  0  0  0  0  0  0  0  0
   -3.9520   22.9530  -27.4090 H   0  0  0  0  0  0  0  0  0  0  0  0
   -1.6040   26.0830  -29.8160 H   0  0  0  0  0  0  0  0  0  0  0  0
   -5.7216   21.4355  -31.1087 H   0  0  0  0  0  0  0  0  0  0  0  0
   -9.2548   19.9056  -30.1049 H   0  0  0  0  0  0  0  0  0  0  0  0
   -8.7764   17.6814  -31.0816 H   0  0  0  0  0  0  0  0  0  0  0  0
   -6.3500   16.9430  -33.5590 H   0  0  0  0  0  0  0  0  0  0  0  0
  1  2  1  0
  2  3  1  0
  2  4  1  0
  4  5  1  0
  5  6  2  0
  6  7  1  0
  7  8  1  0
  8  9  1  0
  9 10  2  0
 10 11  1  0
 11 12  2  0
 12 13  1  0
 12 14  1  0
 14 15  1  0
 15 16  2  0
 16 17  1  0
 17 18  1  0
 17 19  2  0
 19 20  1  0
 14 21  2  0
  7 22  2  0
 22 23  1  0
 23 24  2  0
 24 25  1  0
 24  5  1  0
 21  9  1  0
  1 26  1  0
  1 27  1  0
  1 28  1  0
  3 29  1  0
  3 30  1  0
  3 31  1  0
  4 32  1  0
  4 33  1  0
  6 34  1  0
  8 35  1  0
  8 36  1  0
 10 37  1  0
 11 38  1  0
 13 39  1  0
 15 40  1  0
 16 41  1  0
 18 42  1  0
 20 43  1  0
 21 44  1  0
 22 45  1  0
 23 46  1  0
 25 47  1  0
M  END
>  <smiles>  (39) 
CN(C)Cc1cc(Cc2ccc(O)c(C=CC(O)=NO)c2)ccc1O

>  <score_type>  (39) 
oracle

>  <origin>  (39) 
adgpu

>  <m_score__min__energy>  (39) 
-9.5999999999999996

>  <m_primary>  (39) 
energy

$$$$
39:0
     RDKit          3D

 59 63  0  0  0  0  0  0  0  0999 V2000
   -4.1790   25.6730  -30.8290 O   0  0  0  0  0  0  0  0  0  0  0  0
   -3.9230   24.5860  -30.2430 C   0  0  0  0  0  0  0  0  0  0  0  0
   -4.0100   24.5320  -28.7440 C   0  0  0  0  0  0  0  0  0  0  0  0
   -2.9920   23.6370  -28.1640 N   0  0  0  0  0  0  0  0  0  0  0  0
   -3.3600   22.2700  -27.8740 C   0  0  0  0  0  0  0  0  0  0  0  0
   -4.5860   21.9700  -27.8380 O   0  0  0  0  0  0  0  0  0  0  0  0
   -2.3740   21.1810  -27.6370 C   0  0  0  0  0  0  0  0  0  0  0  0
   -2.7970   20.0320  -26.9340 C   0  0  0  0  0  0  0  0  0  0  0  0
   -1.9680   18.9130  -26.8230 C   0  0  0  0  0  0  0  0  0  0  0  0
   -0.7130   18.9100  -27.4280 C   0  0  0  0  0  0  0  0  0  0  0  0
   -0.2740   20.0400  -28.1230 C   0  0  0  0  0  0  0  0  0  0  0  0
   -1.0810   21.1820  -28.2100 C   0  0  0  0  0  0  0  0  0  0  0  0
   -0.5500   22.2940  -28.8560 O   0  0  0  0  0  0  0  0  0  0  0  0
   -0.5190   23.5430  -28.2480 C   0  0  0  0  0  0  0  0  0  0  0  0
    0.7240   24.1640  -28.0610 C   0  0  0  0  0  0  0  0  0  0  0  0
    0.8060   25.4090  -27.4340 C   0  0  0  0  0  0  0  0  0  0  0  0
   -0.3580   26.0460  -26.9980 C   0  0  0  0  0  0  0  0  0  0  0  0
   -1.6010   25.4440  -27.1990 C   0  0  0  0  0  0  0  0  0  0  0  0
   -1.6990   24.1850  -27.8250 C   0  0  0  0  0  0  0  0  0  0  0  0
   -3.6170   23.4060  -30.9970 N   0  0  0  0  0  0  0  0  0  0  0  0
   -4.5370   22.3760  -31.3870 C   0  0  0  0  0  0  0  0  0  0  0  0
   -5.7850   22.7490  -31.8970 C   0  0  0  0  0  0  0  0  0  0  0  0
   -6.7230   21.7760  -32.2550 C   0  0  0  0  0  0  0  0  0  0  0  0
   -6.4230   20.4170  -32.1020 C   0  0  0  0  0  0  0  0  0  0  0  0
   -7.6200   19.1990  -32.5380 S   0  0  0  0  0  0  0  0  0  0  0  0
   -8.8380   19.8610  -33.1210 O   0  0  0  0  0  0  0  0  0  0  0  0
   -8.0260   18.4550  -31.2960 O   0  0  0  0  0  0  0  0  0  0  0  0
   -6.9380   18.0830  -33.6980 N   0  0  0  0  0  0  0  0  0  0  0  0
   -6.4760   16.8350  -33.0390 C   0  0  0  0  0  0  0  0  0  0  0  0
   -4.9560   16.7940  -32.8290 C   0  0  0  0  0  0  0  0  0  0  0  0
   -4.2050   16.9240  -34.1670 C   0  0  0  0  0  0  0  0  0  0  0  0
   -4.9710   17.7710  -35.1990 C   0  0  0  0  0  0  0  0  0  0  0  0
   -5.9030   18.7720  -34.5060 C   0  0  0  0  0  0  0  0  0  0  0  0
   -5.1850   20.0400  -31.5650 C   0  0  0  0  0  0  0  0  0  0  0  0
   -4.2510   21.0110  -31.1990 C   0  0  0  0  0  0  0  0  0  0  0  0
   -3.8620   25.5455  -28.3429 H   0  0  0  0  0  0  0  0  0  0  0  0
   -5.0014   24.1387  -28.4750 H   0  0  0  0  0  0  0  0  0  0  0  0
   -3.7930   20.0177  -26.4673 H   0  0  0  0  0  0  0  0  0  0  0  0
   -2.3067   18.0328  -26.2569 H   0  0  0  0  0  0  0  0  0  0  0  0
   -0.0695   18.0206  -27.3588 H   0  0  0  0  0  0  0  0  0  0  0  0
    0.7142   20.0329  -28.6062 H   0  0  0  0  0  0  0  0  0  0  0  0
    1.6410   23.6671  -28.4106 H   0  0  0  0  0  0  0  0  0  0  0  0
    1.7852   25.8870  -27.2838 H   0  0  0  0  0  0  0  0  0  0  0  0
   -0.2950   27.0227  -26.4959 H   0  0  0  0  0  0  0  0  0  0  0  0
   -2.5145   25.9579  -26.8651 H   0  0  0  0  0  0  0  0  0  0  0  0
   -6.0300   23.8146  -32.0171 H   0  0  0  0  0  0  0  0  0  0  0  0
   -7.7004   22.0793  -32.6584 H   0  0  0  0  0  0  0  0  0  0  0  0
   -6.9675   16.7540  -32.0583 H   0  0  0  0  0  0  0  0  0  0  0  0
   -6.7391   15.9969  -33.7011 H   0  0  0  0  0  0  0  0  0  0  0  0
   -4.6623   17.6248  -32.1705 H   0  0  0  0  0  0  0  0  0  0  0  0
   -4.6932   15.8273  -32.3747 H   0  0  0  0  0  0  0  0  0  0  0  0
   -3.2297   17.3964  -33.9785 H   0  0  0  0  0  0  0  0  0  0  0  0
   -4.0935   15.9125  -34.5848 H   0  0  0  0  0  0  0  0  0  0  0  0
   -4.2487   18.3220  -35.8192 H   0  0  0  0  0  0  0  0  0  0  0  0
   -5.5798   17.0986  -35.8214 H   0  0  0  0  0  0  0  0  0  0  0  0
   -5.3058   19.4181  -33.8457 H   0  0  0  0  0  0  0  0  0  0  0  0
   -6.4096   19.3652  -35.2816 H   0  0  0  0  0  0  0  0  0  0  0  0
   -4.9479   18.9742  -31.4312 H   0  0  0  0  0  0  0  0  0  0  0  0
   -3.2880   20.7080  -30.7621 H   0  0  0  0  0  0  0  0  0  0  0  0
  1  2  2  0
  2  3  1  0
  3  4  1  0
  4  5  1  0
  5  6  2  0
  5  7  1  0
  7  8  2  0
  8  9  1  0
  9 10  2  0
 10 11  1  0
 11 12  2  0
 12 13  1  0
 13 14  1  0
 14 15  2  0
 15 16  1  0
 16 17  2  0
 17 18  1  0
 18 19  2  0
  2 20  1  0
 20 21  1  0
 21 22  2  0
 22 23  1  0
 23 24  2  0
 24 25  1  0
 25 26  2  0
 25 27  2  0
 25 28  1  0
 28 29  1  0
 29 30  1  0
 30 31  1  0
 31 32  1  0
 32 33  1  0
 24 34  1  0
 34 35  2  0
 19  4  1  0
 35 21  1  0
 12  7  1  0
 19 14  1  0
 33 28  1  0
  3 36  1  0
  3 37  1  0
  8 38  1  0
  9 39  1  0
 10 40  1  0
 11 41  1  0
 15 42  1  0
 16 43  1  0
 17 44  1  0
 18 45  1  0
 22 46  1  0
 23 47  1  0
 29 48  1  0
 29 49  1  0
 30 50  1  0
 30 51  1  0
 31 52  1  0
 31 53  1  0
 32 54  1  0
 32 55  1  0
 33 56  1  0
 33 57  1  0
 34 58  1  0
 35 59  1  0
M  CHG  1  20  -1
M  END
>  <UniqueID>  (40) 
37

>  <SMILES>  (40) 
O=C(CN1C(=O)c2ccccc2Oc2ccccc21)[N-]c1ccc(S(=O)(=O)N2CCCCC2)cc1

>  <Energy>  (40) 
98.48694976665291

>  <Genealogy>  (40) 
O=C(CN1C(=O)c2ccccc2Oc2ccccc21)[N-]c1ccc(S(=O)(=O)N2CCCCC2)cc1 (protonated)
O=C(CN1C(=O)c2ccccc2Oc2ccccc21)[N-]c1ccc(S(=O)(=O)N2CCCCC2)cc1 (3D coordinates assigned)
O=C(CN1C(=O)c2ccccc2Oc2ccccc21)[N-]c1ccc(S(=O)(=O)N2CCCCC2)cc1 (nonaromatic ring conformer: 98.48694976665291 kcal/mol)

>  <smiles>  (40) 
O=C(CN1C(=O)c2ccccc2Oc2ccccc21)Nc1ccc(S(=O)(=O)N2CCCCC2)cc1

>  <score_type>  (40) 
oracle

>  <origin>  (40) 
adgpu

>  <m_score__min__energy>  (40) 
-12.51

>  <m_primary>  (40) 
energy

$$$$
40:0
     RDKit          3D

 57 60  0  0  0  0  0  0  0  0999 V2000
   -4.5410   21.0960  -31.7350 O   0  0  0  0  0  0  0  0  0  0  0  0
   -3.7570   22.0780  -31.5980 C   0  0  0  0  0  0  0  0  0  0  0  0
   -2.3460   21.8860  -31.8100 N   0  0  0  0  0  0  0  0  0  0  0  0
   -1.8540   20.9330  -32.7710 C   0  0  0  0  0  0  0  0  0  0  0  0
   -0.5950   21.1130  -33.3620 C   0  0  0  0  0  0  0  0  0  0  0  0
   -0.1040   20.1580  -34.2610 C   0  0  0  0  0  0  0  0  0  0  0  0
   -0.8740   19.0400  -34.5990 C   0  0  0  0  0  0  0  0  0  0  0  0
   -2.1540   18.8780  -34.0560 C   0  0  0  0  0  0  0  0  0  0  0  0
   -3.1420   17.4840  -34.4790 S   0  0  0  0  0  0  0  0  0  0  0  0
   -4.4560   17.9470  -35.0430 O   0  0  0  0  0  0  0  0  0  0  0  0
   -2.4290   16.6680  -35.5220 O   0  0  0  0  0  0  0  0  0  0  0  0
   -3.3990   16.4980  -33.0640 N   0  0  0  0  0  0  0  0  0  0  0  0
   -4.7890   16.0670  -32.9260 C   0  0  0  0  0  0  0  0  0  0  0  0
   -4.7300   14.8370  -32.0540 C   0  0  0  0  0  0  0  0  0  0  0  0
   -3.4720   14.1460  -32.5130 C   0  0  0  0  0  0  0  0  0  0  0  0
   -2.6050   15.2640  -33.0970 C   0  0  0  0  0  0  0  0  0  0  0  0
   -2.6400   19.8250  -33.1470 C   0  0  0  0  0  0  0  0  0  0  0  0
   -4.3070   23.3610  -31.0480 C   0  0  0  0  0  0  0  0  0  0  0  0
   -5.5950   22.7070  -31.4180 C   0  0  0  0  0  0  0  0  0  0  0  0
   -6.8100   22.8660  -30.7230 C   0  0  0  0  0  0  0  0  0  0  0  0
   -8.2340   21.9310  -31.1780 S   0  0  0  0  0  0  0  0  0  0  0  0
   -9.1980   21.8930  -30.0200 O   0  0  0  0  0  0  0  0  0  0  0  0
   -8.9050   22.5870  -32.3470 O   0  0  0  0  0  0  0  0  0  0  0  0
   -7.7490   20.3110  -31.6220 N   0  0  0  0  0  0  0  0  0  0  0  0
   -8.8940   19.3940  -31.5550 C   0  0  0  0  0  0  0  0  0  0  0  0
   -8.5070   18.0010  -32.0800 C   0  0  0  0  0  0  0  0  0  0  0  0
   -7.1390   17.9270  -32.4240 O   0  0  0  0  0  0  0  0  0  0  0  0
   -6.8540   18.8710  -33.4330 C   0  0  0  0  0  0  0  0  0  0  0  0
   -7.1640   20.3120  -32.9710 C   0  0  0  0  0  0  0  0  0  0  0  0
   -6.9430   23.9220  -29.8500 C   0  0  0  0  0  0  0  0  0  0  0  0
   -5.9340   24.8570  -29.8420 C   0  0  0  0  0  0  0  0  0  0  0  0
   -4.7550   24.6130  -30.5600 C   0  0  0  0  0  0  0  0  0  0  0  0
   -3.8590   25.6710  -30.6740 O   0  0  0  0  0  0  0  0  0  0  0  0
   -1.6700   22.4310  -31.2330 H   0  0  0  0  0  0  0  0  0  0  0  0
    0.0055   22.0023  -33.1200 H   0  0  0  0  0  0  0  0  0  0  0  0
    0.8942   20.2879  -34.7045 H   0  0  0  0  0  0  0  0  0  0  0  0
   -0.4728   18.2867  -35.2929 H   0  0  0  0  0  0  0  0  0  0  0  0
   -5.3919   16.8524  -32.4468 H   0  0  0  0  0  0  0  0  0  0  0  0
   -5.2573   15.8617  -33.9000 H   0  0  0  0  0  0  0  0  0  0  0  0
   -4.6636   15.1107  -30.9907 H   0  0  0  0  0  0  0  0  0  0  0  0
   -5.6252   14.2039  -32.1420 H   0  0  0  0  0  0  0  0  0  0  0  0
   -2.9633   13.6633  -31.6655 H   0  0  0  0  0  0  0  0  0  0  0  0
   -3.6772   13.3525  -33.2466 H   0  0  0  0  0  0  0  0  0  0  0  0
   -1.6936   15.3871  -32.4935 H   0  0  0  0  0  0  0  0  0  0  0  0
   -2.3034   15.0237  -34.1272 H   0  0  0  0  0  0  0  0  0  0  0  0
   -3.6469   19.7031  -32.7212 H   0  0  0  0  0  0  0  0  0  0  0  0
   -5.5965   22.0506  -32.3007 H   0  0  0  0  0  0  0  0  0  0  0  0
   -9.2258   19.3065  -30.5099 H   0  0  0  0  0  0  0  0  0  0  0  0
   -9.7049   19.7948  -32.1809 H   0  0  0  0  0  0  0  0  0  0  0  0
   -8.7177   17.2558  -31.2988 H   0  0  0  0  0  0  0  0  0  0  0  0
   -9.0969   17.8036  -32.9872 H   0  0  0  0  0  0  0  0  0  0  0  0
   -5.7878   18.8021  -33.6948 H   0  0  0  0  0  0  0  0  0  0  0  0
   -7.4887   18.6456  -34.3027 H   0  0  0  0  0  0  0  0  0  0  0  0
   -6.2319   20.8960  -32.9599 H   0  0  0  0  0  0  0  0  0  0  0  0
   -7.8865   20.7595  -33.6694 H   0  0  0  0  0  0  0  0  0  0  0  0
   -7.8170   24.0141  -29.1884 H   0  0  0  0  0  0  0  0  0  0  0  0
   -6.0518   25.7920  -29.2747 H   0  0  0  0  0  0  0  0  0  0  0  0
  1  2  2  0
  2  3  1  0
  3  4  1  0
  4  5  2  0
  5  6  1  0
  6  7  2  0
  7  8  1  0
  8  9  1  0
  9 10  2  0
  9 11  2  0
  9 12  1  0
 12 13  1  0
 13 14  1  0
 14 15  1  0
 15 16  1  0
  8 17  2  0
  2 18  1  0
 18 19  2  0
 19 20  1  0
 20 21  1  0
 21 22  2  0
 21 23  2  0
 21 24  1  0
 24 25  1  0
 25 26  1  0
 26 27  1  0
 27 28  1  0
 28 29  1  0
 20 30  2  0
 30 31  1  0
 31 32  2  0
 32 33  1  0
 17  4  1  0
 32 18  1  0
 16 12  1  0
 29 24  1  0
  3 34  1  0
  5 35  1  0
  6 36  1  0
  7 37  1  0
 13 38  1  0
 13 39  1  0
 14 40  1  0
 14 41  1  0
 15 42  1  0
 15 43  1  0
 16 44  1  0
 16 45  1  0
 17 46  1  0
 19 47  1  0
 25 48  1  0
 25 49  1  0
 26 50  1  0
 26 51  1  0
 28 52  1  0
 28 53  1  0
 29 54  1  0
 29 55  1  0
 30 56  1  0
 31 57  1  0
M  CHG  1  33  -1
M  END
>  <UniqueID>  (41) 
38

>  <SMILES>  (41) 
O=C(Nc1cccc(S(=O)(=O)N2CCCC2)c1)c1cc(S(=O)(=O)N2CCOCC2)ccc1[O-]

>  <Energy>  (41) 
216.35824617101525

>  <Genealogy>  (41) 
O=C(Nc1cccc(S(=O)(=O)N2CCCC2)c1)c1cc(S(=O)(=O)N2CCOCC2)ccc1[O-] (protonated)
O=C(Nc1cccc(S(=O)(=O)N2CCCC2)c1)c1cc(S(=O)(=O)N2CCOCC2)ccc1[O-] (3D coordinates assigned)
O=C(Nc1cccc(S(=O)(=O)N2CCCC2)c1)c1cc(S(=O)(=O)N2CCOCC2)ccc1[O-] (nonaromatic ring conformer: 216.35824617101525 kcal/mol)

>  <smiles>  (41) 
O=C(Nc1cccc(S(=O)(=O)N2CCCC2)c1)c1cc(S(=O)(=O)N2CCOCC2)ccc1O

>  <score_type>  (41) 
oracle

>  <origin>  (41) 
adgpu

>  <m_score__min__energy>  (41) 
-13.59

>  <m_primary>  (41) 
energy

$$$$
41:0
     RDKit          3D

 54 57  0  0  0  0  0  0  0  0999 V2000
   -5.3750   26.4800  -30.3930 O   0  0  0  0  0  0  0  0  0  0  0  0
   -5.0460   25.2790  -30.5800 C   0  0  0  0  0  0  0  0  0  0  0  0
   -3.6600   24.9250  -30.4930 N   0  0  0  0  0  0  0  0  0  0  0  0
   -3.1270   23.5920  -30.4430 C   0  0  0  0  0  0  0  0  0  0  0  0
   -3.2810   22.7140  -31.5290 C   0  0  0  0  0  0  0  0  0  0  0  0
   -2.7790   21.4080  -31.4700 C   0  0  0  0  0  0  0  0  0  0  0  0
   -3.0160   20.3020  -32.8280 S   0  0  0  0  0  0  0  0  0  0  0  0
   -2.4950   18.9440  -32.4490 O   0  0  0  0  0  0  0  0  0  0  0  0
   -2.2180   20.7930  -34.0040 O   0  0  0  0  0  0  0  0  0  0  0  0
   -4.6920   20.1580  -33.3020 N   0  0  0  0  0  0  0  0  0  0  0  0
   -4.9710   18.8780  -33.9510 C   0  0  0  0  0  0  0  0  0  0  0  0
   -6.4540   18.6100  -33.7460 C   0  0  0  0  0  0  0  0  0  0  0  0
   -6.8590   19.4750  -32.5620 C   0  0  0  0  0  0  0  0  0  0  0  0
   -5.5950   20.2190  -32.1550 C   0  0  0  0  0  0  0  0  0  0  0  0
   -2.1120   20.9790  -30.3170 C   0  0  0  0  0  0  0  0  0  0  0  0
   -1.9270   21.8520  -29.2440 C   0  0  0  0  0  0  0  0  0  0  0  0
   -2.4180   23.1660  -29.3020 C   0  0  0  0  0  0  0  0  0  0  0  0
   -2.2130   24.0500  -28.1840 N   0  0  0  0  0  0  0  0  0  0  0  0
   -1.0270   24.9130  -28.1300 C   0  0  0  0  0  0  0  0  0  0  0  0
   -0.4850   24.9580  -26.6990 C   0  0  0  0  0  0  0  0  0  0  0  0
   -1.5540   25.3820  -25.6680 C   0  0  0  0  0  0  0  0  0  0  0  0
   -2.9960   25.3070  -26.1980 C   0  0  0  0  0  0  0  0  0  0  0  0
   -3.2100   24.0910  -27.1040 C   0  0  0  0  0  0  0  0  0  0  0  0
   -6.0940   24.2600  -30.8110 C   0  0  0  0  0  0  0  0  0  0  0  0
   -6.6070   23.4980  -29.7470 C   0  0  0  0  0  0  0  0  0  0  0  0
   -7.5970   22.5460  -30.0010 C   0  0  0  0  0  0  0  0  0  0  0  0
   -8.0610   22.3530  -31.3020 C   0  0  0  0  0  0  0  0  0  0  0  0
   -7.5240   23.1190  -32.3380 C   0  0  0  0  0  0  0  0  0  0  0  0
   -6.5620   24.0420  -32.0730 N   0  0  0  0  0  0  0  0  0  0  0  0
   -3.8016   23.0562  -32.4356 H   0  0  0  0  0  0  0  0  0  0  0  0
   -4.7394   18.9369  -35.0247 H   0  0  0  0  0  0  0  0  0  0  0  0
   -4.3562   18.0713  -33.5251 H   0  0  0  0  0  0  0  0  0  0  0  0
   -7.0242   18.8934  -34.6430 H   0  0  0  0  0  0  0  0  0  0  0  0
   -6.6565   17.5443  -33.5633 H   0  0  0  0  0  0  0  0  0  0  0  0
   -7.6462   20.1851  -32.8554 H   0  0  0  0  0  0  0  0  0  0  0  0
   -7.2642   18.8734  -31.7350 H   0  0  0  0  0  0  0  0  0  0  0  0
   -5.8312   21.2655  -31.9122 H   0  0  0  0  0  0  0  0  0  0  0  0
   -5.1368   19.7675  -31.2627 H   0  0  0  0  0  0  0  0  0  0  0  0
   -1.7317   19.9486  -30.2561 H   0  0  0  0  0  0  0  0  0  0  0  0
   -1.3925   21.5080  -28.3462 H   0  0  0  0  0  0  0  0  0  0  0  0
   -0.2530   24.5129  -28.8015 H   0  0  0  0  0  0  0  0  0  0  0  0
   -1.3022   25.9298  -28.4470 H   0  0  0  0  0  0  0  0  0  0  0  0
   -0.1158   23.9570  -26.4312 H   0  0  0  0  0  0  0  0  0  0  0  0
    0.3180   25.7094  -26.6721 H   0  0  0  0  0  0  0  0  0  0  0  0
   -1.4721   24.7211  -24.7925 H   0  0  0  0  0  0  0  0  0  0  0  0
   -1.3591   26.4361  -25.4214 H   0  0  0  0  0  0  0  0  0  0  0  0
   -3.6856   25.2395  -25.3437 H   0  0  0  0  0  0  0  0  0  0  0  0
   -3.1877   26.2124  -26.7925 H   0  0  0  0  0  0  0  0  0  0  0  0
   -3.1237   23.1749  -26.5012 H   0  0  0  0  0  0  0  0  0  0  0  0
   -4.2101   24.1654  -27.5561 H   0  0  0  0  0  0  0  0  0  0  0  0
   -6.2323   23.6500  -28.7240 H   0  0  0  0  0  0  0  0  0  0  0  0
   -8.0106   21.9486  -29.1751 H   0  0  0  0  0  0  0  0  0  0  0  0
   -8.8412   21.6057  -31.5093 H   0  0  0  0  0  0  0  0  0  0  0  0
   -7.8794   22.9757  -33.3691 H   0  0  0  0  0  0  0  0  0  0  0  0
  1  2  2  0
  2  3  1  0
  3  4  1  0
  4  5  2  0
  5  6  1  0
  6  7  1  0
  7  8  2  0
  7  9  2  0
  7 10  1  0
 10 11  1  0
 11 12  1  0
 12 13  1  0
 13 14  1  0
  6 15  2  0
 15 16  1  0
 16 17  2  0
 17 18  1  0
 18 19  1  0
 19 20  1  0
 20 21  1  0
 21 22  1  0
 22 23  1  0
  2 24  1  0
 24 25  2  0
 25 26  1  0
 26 27  2  0
 27 28  1  0
 28 29  2  0
 17  4  1  0
 23 18  1  0
 29 24  1  0
 14 10  1  0
  5 30  1  0
 11 31  1  0
 11 32  1  0
 12 33  1  0
 12 34  1  0
 13 35  1  0
 13 36  1  0
 14 37  1  0
 14 38  1  0
 15 39  1  0
 16 40  1  0
 19 41  1  0
 19 42  1  0
 20 43  1  0
 20 44  1  0
 21 45  1  0
 21 46  1  0
 22 47  1  0
 22 48  1  0
 23 49  1  0
 23 50  1  0
 25 51  1  0
 26 52  1  0
 27 53  1  0
 28 54  1  0
M  CHG  1   3  -1
M  END
>  <UniqueID>  (42) 
39

>  <SMILES>  (42) 
O=C([N-]c1cc(S(=O)(=O)N2CCCC2)ccc1N1CCCCC1)c1ccccn1

>  <Energy>  (42) 
68.25083762007205

>  <Genealogy>  (42) 
O=C([N-]c1cc(S(=O)(=O)N2CCCC2)ccc1N1CCCCC1)c1ccccn1 (protonated)
O=C([N-]c1cc(S(=O)(=O)N2CCCC2)ccc1N1CCCCC1)c1ccccn1 (3D coordinates assigned)
O=C([N-]c1cc(S(=O)(=O)N2CCCC2)ccc1N1CCCCC1)c1ccccn1 (nonaromatic ring conformer: 68.25083762007205 kcal/mol)

>  <smiles>  (42) 
O=C(Nc1cc(S(=O)(=O)N2CCCC2)ccc1N1CCCCC1)c1ccccn1

>  <score_type>  (42) 
oracle

>  <origin>  (42) 
adgpu

>  <m_score__min__energy>  (42) 
-10.960000000000001

>  <m_primary>  (42) 
energy

$$$$
42:0
     RDKit          3D

 54 57  0  0  0  0  0  0  0  0999 V2000
   -2.8120   21.1900  -29.3060 C   0  0  0  0  0  0  0  0  0  0  0  0
   -2.7540   22.4770  -28.6040 N   0  0  0  0  0  0  0  0  0  0  0  0
   -1.5240   22.9070  -27.9360 C   0  0  0  0  0  0  0  0  0  0  0  0
   -3.9540   23.2460  -28.4130 C   0  0  0  0  0  0  0  0  0  0  0  0
   -4.1960   23.7360  -27.2760 O   0  0  0  0  0  0  0  0  0  0  0  0
   -4.8970   23.4990  -29.5290 C   0  0  0  0  0  0  0  0  0  0  0  0
   -6.0570   22.7010  -29.6570 C   0  0  0  0  0  0  0  0  0  0  0  0
   -6.8920   22.9250  -30.7490 C   0  0  0  0  0  0  0  0  0  0  0  0
   -8.0460   22.3150  -31.1880 C   0  0  0  0  0  0  0  0  0  0  0  0
   -8.7450   21.1360  -30.5730 C   0  0  0  0  0  0  0  0  0  0  0  0
   -8.7260   19.9120  -31.5000 C   0  0  0  0  0  0  0  0  0  0  0  0
   -7.3570   19.6820  -32.0860 C   0  0  0  0  0  0  0  0  0  0  0  0
   -7.0370   20.1790  -33.3590 C   0  0  0  0  0  0  0  0  0  0  0  0
   -5.7350   20.0660  -33.8540 C   0  0  0  0  0  0  0  0  0  0  0  0
   -4.7280   19.4700  -33.0750 C   0  0  0  0  0  0  0  0  0  0  0  0
   -3.3740   19.3640  -33.5500 N   0  0  0  0  0  0  0  0  0  0  0  0
   -2.4140   20.4320  -33.4690 C   0  0  0  0  0  0  0  0  0  0  0  0
   -2.6370   21.4230  -32.7220 O   0  0  0  0  0  0  0  0  0  0  0  0
   -1.1330   20.3590  -34.2120 C   0  0  0  0  0  0  0  0  0  0  0  0
   -0.4240   21.5370  -34.5160 C   0  0  0  0  0  0  0  0  0  0  0  0
    0.7830   21.4760  -35.2190 C   0  0  0  0  0  0  0  0  0  0  0  0
    1.2910   20.2440  -35.6330 C   0  0  0  0  0  0  0  0  0  0  0  0
    0.5930   19.0690  -35.3470 C   0  0  0  0  0  0  0  0  0  0  0  0
   -0.6140   19.1240  -34.6430 C   0  0  0  0  0  0  0  0  0  0  0  0
   -5.0600   18.9380  -31.8200 C   0  0  0  0  0  0  0  0  0  0  0  0
   -6.3620   19.0470  -31.3270 C   0  0  0  0  0  0  0  0  0  0  0  0
   -8.4200   22.8950  -32.3530 N   0  0  0  0  0  0  0  0  0  0  0  0
   -7.5500   23.8550  -32.6570 N   0  0  0  0  0  0  0  0  0  0  0  0
   -6.6200   23.8750  -31.6870 C   0  0  0  0  0  0  0  0  0  0  0  0
   -5.4930   24.6850  -31.6040 C   0  0  0  0  0  0  0  0  0  0  0  0
   -4.6210   24.4950  -30.5130 C   0  0  0  0  0  0  0  0  0  0  0  0
   -3.4910   25.2990  -30.4110 O   0  0  0  0  0  0  0  0  0  0  0  0
   -2.8488   20.3726  -28.5708 H   0  0  0  0  0  0  0  0  0  0  0  0
   -3.7126   21.1567  -29.9368 H   0  0  0  0  0  0  0  0  0  0  0  0
   -1.9181   21.0758  -29.9368 H   0  0  0  0  0  0  0  0  0  0  0  0
   -1.6626   22.8585  -26.8458 H   0  0  0  0  0  0  0  0  0  0  0  0
   -0.6963   22.2449  -28.2302 H   0  0  0  0  0  0  0  0  0  0  0  0
   -1.2891   23.9406  -28.2302 H   0  0  0  0  0  0  0  0  0  0  0  0
   -6.2936   21.9246  -28.9146 H   0  0  0  0  0  0  0  0  0  0  0  0
   -8.2414   20.8760  -29.6302 H   0  0  0  0  0  0  0  0  0  0  0  0
   -9.7945   21.4150  -30.3980 H   0  0  0  0  0  0  0  0  0  0  0  0
   -9.0217   19.0230  -30.9237 H   0  0  0  0  0  0  0  0  0  0  0  0
   -9.4281   20.0953  -32.3267 H   0  0  0  0  0  0  0  0  0  0  0  0
   -7.8150   20.6599  -33.9702 H   0  0  0  0  0  0  0  0  0  0  0  0
   -5.4969   20.4455  -34.8586 H   0  0  0  0  0  0  0  0  0  0  0  0
   -3.0310   18.4160  -33.8270 H   0  0  0  0  0  0  0  0  0  0  0  0
   -0.8225   22.5118  -34.1982 H   0  0  0  0  0  0  0  0  0  0  0  0
    1.3333   22.4010  -35.4462 H   0  0  0  0  0  0  0  0  0  0  0  0
    2.2415   20.1985  -36.1848 H   0  0  0  0  0  0  0  0  0  0  0  0
    0.9932   18.0986  -35.6760 H   0  0  0  0  0  0  0  0  0  0  0  0
   -1.1616   18.1953  -34.4246 H   0  0  0  0  0  0  0  0  0  0  0  0
   -4.2894   18.4315  -31.2202 H   0  0  0  0  0  0  0  0  0  0  0  0
   -6.6090   18.6329  -30.3383 H   0  0  0  0  0  0  0  0  0  0  0  0
   -5.2881   25.4508  -32.3666 H   0  0  0  0  0  0  0  0  0  0  0  0
  1  2  1  0
  2  3  1  0
  2  4  1  0
  4  5  2  0
  4  6  1  0
  6  7  2  0
  7  8  1  0
  8  9  2  0
  9 10  1  0
 10 11  1  0
 11 12  1  0
 12 13  2  0
 13 14  1  0
 14 15  2  0
 15 16  1  0
 16 17  1  0
 17 18  2  0
 17 19  1  0
 19 20  2  0
 20 21  1  0
 21 22  2  0
 22 23  1  0
 23 24  2  0
 15 25  1  0
 25 26  2  0
  9 27  1  0
 27 28  1  0
 28 29  2  0
 29 30  1  0
 30 31  2  0
 31 32  1  0
 31  6  1  0
 29  8  1  0
 26 12  1  0
 24 19  1  0
  1 33  1  0
  1 34  1  0
  1 35  1  0
  3 36  1  0
  3 37  1  0
  3 38  1  0
  7 39  1  0
 10 40  1  0
 10 41  1  0
 11 42  1  0
 11 43  1  0
 13 44  1  0
 14 45  1  0
 16 46  1  0
 20 47  1  0
 21 48  1  0
 22 49  1  0
 23 50  1  0
 24 51  1  0
 25 52  1  0
 26 53  1  0
 30 54  1  0
M  CHG  2  27  -1  32  -1
M  END
>  <UniqueID>  (43) 
40

>  <SMILES>  (43) 
CN(C)C(=O)c1cc2c(CCc3ccc(NC(=O)c4ccccc4)cc3)[n-]nc2cc1[O-]

>  <Energy>  (43) 
97.32612986508052

>  <Genealogy>  (43) 
CN(C)C(=O)c1cc2c(CCc3ccc(NC(=O)c4ccccc4)cc3)[n-]nc2cc1[O-] (protonated)
CN(C)C(=O)c1cc2c(CCc3ccc(NC(=O)c4ccccc4)cc3)[n-]nc2cc1[O-] (3D coordinates assigned)
CN(C)C(=O)c1cc2c(CCc3ccc(NC(=O)c4ccccc4)cc3)[n-]nc2cc1[O-] (optimized conformer: 97.32612986508052 kcal/mol)

>  <smiles>  (43) 
CN(C)C(=O)c1cc2c(CCc3ccc(NC(=O)c4ccccc4)cc3)[nH]nc2cc1O

>  <score_type>  (43) 
oracle

>  <origin>  (43) 
adgpu

>  <m_score__min__energy>  (43) 
-11.85

>  <m_primary>  (43) 
energy

$$$$
43:0
     RDKit          3D

 51 54  0  0  0  0  0  0  0  0999 V2000
   -0.8170   26.8130  -23.1040 C   0  0  0  0  0  0  0  0  0  0  0  0
    0.1370   26.7510  -24.2220 N   0  0  0  0  0  0  0  0  0  0  0  0
    0.7950   25.4230  -24.2660 C   0  0  0  0  0  0  0  0  0  0  0  0
    1.3470   25.0920  -25.6560 C   0  0  0  0  0  0  0  0  0  0  0  0
    0.2600   25.1270  -26.6390 N   0  0  0  0  0  0  0  0  0  0  0  0
    0.3910   24.4010  -27.8760 C   0  0  0  0  0  0  0  0  0  0  0  0
    1.5350   24.2420  -28.3840 O   0  0  0  0  0  0  0  0  0  0  0  0
   -0.7900   23.8180  -28.5510 C   0  0  0  0  0  0  0  0  0  0  0  0
   -0.8920   22.4250  -28.6930 C   0  0  0  0  0  0  0  0  0  0  0  0
   -1.9970   21.8530  -29.3240 C   0  0  0  0  0  0  0  0  0  0  0  0
   -3.0280   22.6670  -29.8280 C   0  0  0  0  0  0  0  0  0  0  0  0
   -4.1980   22.1050  -30.4470 N   0  0  0  0  0  0  0  0  0  0  0  0
   -5.0620   22.8830  -31.7370 S   0  0  0  0  0  0  0  0  0  0  0  0
   -4.3120   22.6550  -33.0200 O   0  0  0  0  0  0  0  0  0  0  0  0
   -5.1330   24.3580  -31.4670 O   0  0  0  0  0  0  0  0  0  0  0  0
   -6.7100   22.2440  -31.8270 C   0  0  0  0  0  0  0  0  0  0  0  0
   -7.7770   23.1470  -31.9460 C   0  0  0  0  0  0  0  0  0  0  0  0
   -9.0970   22.6910  -31.9860 C   0  0  0  0  0  0  0  0  0  0  0  0
   -9.3700   21.3250  -31.9150 C   0  0  0  0  0  0  0  0  0  0  0  0
   -8.3190   20.4040  -31.8150 C   0  0  0  0  0  0  0  0  0  0  0  0
   -8.5700   19.0280  -31.7570 C   0  0  0  0  0  0  0  0  0  0  0  0
   -7.5060   18.1290  -31.6620 C   0  0  0  0  0  0  0  0  0  0  0  0
   -6.1980   18.6170  -31.6260 C   0  0  0  0  0  0  0  0  0  0  0  0
   -5.9670   19.9550  -31.6830 N   0  0  0  0  0  0  0  0  0  0  0  0
   -6.9800   20.8610  -31.7730 C   0  0  0  0  0  0  0  0  0  0  0  0
   -2.9120   24.0590  -29.7160 C   0  0  0  0  0  0  0  0  0  0  0  0
   -1.8060   24.6350  -29.0810 C   0  0  0  0  0  0  0  0  0  0  0  0
   -1.7360   26.0200  -28.9670 O   0  0  0  0  0  0  0  0  0  0  0  0
   -0.8980   25.9990  -26.3980 C   0  0  0  0  0  0  0  0  0  0  0  0
   -0.4960   27.1770  -25.4980 C   0  0  0  0  0  0  0  0  0  0  0  0
   -0.2682   26.7773  -22.1513 H   0  0  0  0  0  0  0  0  0  0  0  0
   -1.3898   27.7503  -23.1623 H   0  0  0  0  0  0  0  0  0  0  0  0
   -1.5063   25.9578  -23.1623 H   0  0  0  0  0  0  0  0  0  0  0  0
    1.6257   25.4160  -23.5449 H   0  0  0  0  0  0  0  0  0  0  0  0
    0.0384   24.6648  -24.0157 H   0  0  0  0  0  0  0  0  0  0  0  0
    2.1131   25.8318  -25.9312 H   0  0  0  0  0  0  0  0  0  0  0  0
    1.7935   24.0868  -25.6414 H   0  0  0  0  0  0  0  0  0  0  0  0
   -0.0926   21.7780  -28.3028 H   0  0  0  0  0  0  0  0  0  0  0  0
   -2.0625   20.7599  -29.4280 H   0  0  0  0  0  0  0  0  0  0  0  0
   -4.4810   21.1280  -30.2080 H   0  0  0  0  0  0  0  0  0  0  0  0
   -7.5721   24.2259  -32.0085 H   0  0  0  0  0  0  0  0  0  0  0  0
   -9.9236   23.4115  -32.0738 H   0  0  0  0  0  0  0  0  0  0  0  0
  -10.4111   20.9706  -31.9375 H   0  0  0  0  0  0  0  0  0  0  0  0
   -9.6046   18.6554  -31.7862 H   0  0  0  0  0  0  0  0  0  0  0  0
   -7.6962   17.0465  -31.6159 H   0  0  0  0  0  0  0  0  0  0  0  0
   -5.3529   17.9169  -31.5513 H   0  0  0  0  0  0  0  0  0  0  0  0
   -3.6987   24.7058  -30.1317 H   0  0  0  0  0  0  0  0  0  0  0  0
   -1.2681   26.3856  -27.3590 H   0  0  0  0  0  0  0  0  0  0  0  0
   -1.6872   25.4181  -25.8982 H   0  0  0  0  0  0  0  0  0  0  0  0
    0.2168   27.8093  -26.0476 H   0  0  0  0  0  0  0  0  0  0  0  0
   -1.4172   27.7200  -25.2401 H   0  0  0  0  0  0  0  0  0  0  0  0
  1  2  1  0
  2  3  1  0
  3  4  1  0
  4  5  1  0
  5  6  1  0
  6  7  2  0
  6  8  1  0
  8  9  2  0
  9 10  1  0
 10 11  2  0
 11 12  1  0
 12 13  1  0
 13 14  2  0
 13 15  2  0
 13 16  1  0
 16 17  2  0
 17 18  1  0
 18 19  2  0
 19 20  1  0
 20 21  2  0
 21 22  1  0
 22 23  2  0
 23 24  1  0
 24 25  2  0
 11 26  1  0
 26 27  2  0
 27 28  1  0
  5 29  1  0
 29 30  1  0
 30  2  1  0
 27  8  1  0
 25 16  1  0
 25 20  1  0
  1 31  1  0
  1 32  1  0
  1 33  1  0
  3 34  1  0
  3 35  1  0
  4 36  1  0
  4 37  1  0
  9 38  1  0
 10 39  1  0
 12 40  1  0
 17 41  1  0
 18 42  1  0
 19 43  1  0
 21 44  1  0
 22 45  1  0
 23 46  1  0
 26 47  1  0
 29 48  1  0
 29 49  1  0
 30 50  1  0
 30 51  1  0
M  CHG  1  28  -1
M  END
>  <UniqueID>  (44) 
41

>  <SMILES>  (44) 
CN1CCN(C(=O)c2ccc(NS(=O)(=O)c3cccc4cccnc34)cc2[O-])CC1

>  <Energy>  (44) 
73.56032999560995

>  <Genealogy>  (44) 
CN1CCN(C(=O)c2ccc(NS(=O)(=O)c3cccc4cccnc34)cc2[O-])CC1 (protonated)
CN1CCN(C(=O)c2ccc(NS(=O)(=O)c3cccc4cccnc34)cc2[O-])CC1 (3D coordinates assigned)
CN1CCN(C(=O)c2ccc(NS(=O)(=O)c3cccc4cccnc34)cc2[O-])CC1 (nonaromatic ring conformer: 73.56032999560995 kcal/mol)

>  <smiles>  (44) 
CN1CCN(C(=O)c2ccc(NS(=O)(=O)c3cccc4cccnc34)cc2O)CC1

>  <score_type>  (44) 
oracle

>  <origin>  (44) 
adgpu

>  <m_score__min__energy>  (44) 
-13.19

>  <m_primary>  (44) 
energy

$$$$
44:0
     RDKit          3D

 53 57  0  0  0  0  0  0  0  0999 V2000
   -0.7920   23.4000  -26.3840 C   0  0  0  0  0  0  0  0  0  0  0  0
   -1.9280   23.7570  -27.2960 C   0  0  0  0  0  0  0  0  0  0  0  0
   -3.1490   24.1980  -26.7640 C   0  0  0  0  0  0  0  0  0  0  0  0
   -4.2210   24.4940  -27.6100 C   0  0  0  0  0  0  0  0  0  0  0  0
   -4.0860   24.3450  -28.9980 C   0  0  0  0  0  0  0  0  0  0  0  0
   -5.4440   24.6890  -30.0610 S   0  0  0  0  0  0  0  0  0  0  0  0
   -4.9880   25.5310  -31.2200 O   0  0  0  0  0  0  0  0  0  0  0  0
   -6.4990   25.4560  -29.3140 O   0  0  0  0  0  0  0  0  0  0  0  0
   -6.1060   23.1700  -30.6510 C   0  0  0  0  0  0  0  0  0  0  0  0
   -7.4960   22.9200  -30.5620 C   0  0  0  0  0  0  0  0  0  0  0  0
   -8.0330   21.7000  -31.0080 C   0  0  0  0  0  0  0  0  0  0  0  0
   -7.1580   20.7510  -31.5290 C   0  0  0  0  0  0  0  0  0  0  0  0
   -5.8030   20.9890  -31.6140 C   0  0  0  0  0  0  0  0  0  0  0  0
   -5.2440   22.1890  -31.1790 C   0  0  0  0  0  0  0  0  0  0  0  0
   -5.1790   19.8030  -32.1890 C   0  0  0  0  0  0  0  0  0  0  0  0
   -3.9420   19.6450  -32.3680 O   0  0  0  0  0  0  0  0  0  0  0  0
   -6.1740   18.8110  -32.4700 N   0  0  0  0  0  0  0  0  0  0  0  0
   -5.9770   17.5000  -33.0260 C   0  0  0  0  0  0  0  0  0  0  0  0
   -4.7170   16.8830  -32.9650 C   0  0  0  0  0  0  0  0  0  0  0  0
   -4.5260   15.6060  -33.5040 C   0  0  0  0  0  0  0  0  0  0  0  0
   -5.5930   14.9300  -34.1110 C   0  0  0  0  0  0  0  0  0  0  0  0
   -5.3750   13.3190  -34.7850 S   0  0  0  0  0  0  0  0  0  0  0  0
   -6.6770   12.8150  -35.3450 O   0  0  0  0  0  0  0  0  0  0  0  0
   -4.9060   12.3940  -33.6980 O   0  0  0  0  0  0  0  0  0  0  0  0
   -4.1920   13.4020  -36.0500 N   0  0  0  0  0  0  0  0  0  0  0  0
   -2.9120   13.2670  -35.8720 C   0  0  0  0  0  0  0  0  0  0  0  0
   -2.3150   13.0410  -34.6790 N   0  0  0  0  0  0  0  0  0  0  0  0
   -0.9640   12.9430  -34.7980 C   0  0  0  0  0  0  0  0  0  0  0  0
   -0.4790   13.0930  -36.0930 C   0  0  0  0  0  0  0  0  0  0  0  0
   -1.7910   13.3560  -37.1180 S   0  0  0  0  0  0  0  0  0  0  0  0
   -6.8520   15.5410  -34.1710 C   0  0  0  0  0  0  0  0  0  0  0  0
   -7.0430   16.8170  -33.6340 C   0  0  0  0  0  0  0  0  0  0  0  0
   -7.4060   19.4130  -32.0560 C   0  0  0  0  0  0  0  0  0  0  0  0
   -8.5390   18.8760  -32.1760 O   0  0  0  0  0  0  0  0  0  0  0  0
   -2.8760   23.8800  -29.5290 C   0  0  0  0  0  0  0  0  0  0  0  0
   -1.8030   23.5840  -28.6820 C   0  0  0  0  0  0  0  0  0  0  0  0
   -1.1159   23.5018  -25.3377 H   0  0  0  0  0  0  0  0  0  0  0  0
   -0.4828   22.3614  -26.5727 H   0  0  0  0  0  0  0  0  0  0  0  0
    0.0558   24.0750  -26.5727 H   0  0  0  0  0  0  0  0  0  0  0  0
   -3.2630   24.3113  -25.6758 H   0  0  0  0  0  0  0  0  0  0  0  0
   -5.1735   24.8449  -27.1861 H   0  0  0  0  0  0  0  0  0  0  0  0
   -8.1620   23.6871  -30.1401 H   0  0  0  0  0  0  0  0  0  0  0  0
   -9.1131   21.5010  -30.9471 H   0  0  0  0  0  0  0  0  0  0  0  0
   -4.1603   22.3652  -31.2460 H   0  0  0  0  0  0  0  0  0  0  0  0
   -3.8745   17.4072  -32.4903 H   0  0  0  0  0  0  0  0  0  0  0  0
   -3.5352   15.1312  -33.4511 H   0  0  0  0  0  0  0  0  0  0  0  0
   -2.8070   12.9470  -33.7640 H   0  0  0  0  0  0  0  0  0  0  0  0
   -0.3053   12.7592  -33.9364 H   0  0  0  0  0  0  0  0  0  0  0  0
    0.5776   13.0478  -36.3957 H   0  0  0  0  0  0  0  0  0  0  0  0
   -7.6943   15.0140  -34.6430 H   0  0  0  0  0  0  0  0  0  0  0  0
   -8.0349   17.2896  -33.6879 H   0  0  0  0  0  0  0  0  0  0  0  0
   -2.7693   23.7472  -30.6157 H   0  0  0  0  0  0  0  0  0  0  0  0
   -0.8573   23.2140  -29.1048 H   0  0  0  0  0  0  0  0  0  0  0  0
  1  2  1  0
  2  3  2  0
  3  4  1  0
  4  5  2  0
  5  6  1  0
  6  7  2  0
  6  8  2  0
  6  9  1  0
  9 10  2  0
 10 11  1  0
 11 12  2  0
 12 13  1  0
 13 14  2  0
 13 15  1  0
 15 16  2  0
 15 17  1  0
 17 18  1  0
 18 19  2  0
 19 20  1  0
 20 21  2  0
 21 22  1  0
 22 23  2  0
 22 24  2  0
 22 25  1  0
 25 26  2  3
 26 27  1  0
 27 28  1  0
 28 29  2  0
 29 30  1  0
 21 31  1  0
 31 32  2  0
 17 33  1  0
 33 34  2  0
  5 35  1  0
 35 36  2  0
 36  2  1  0
 14  9  1  0
 32 18  1  0
 33 12  1  0
 30 26  1  0
  1 37  1  0
  1 38  1  0
  1 39  1  0
  3 40  1  0
  4 41  1  0
 10 42  1  0
 11 43  1  0
 14 44  1  0
 19 45  1  0
 20 46  1  0
 27 47  1  0
 28 48  1  0
 29 49  1  0
 31 50  1  0
 32 51  1  0
 35 52  1  0
 36 53  1  0
M  END
>  <UniqueID>  (45) 
42

>  <SMILES>  (45) 
Cc1ccc(S(=O)(=O)c2ccc3c(c2)C(=O)N(c2ccc(S(=O)(=O)N=c4[nH]ccs4)cc2)C3=O)cc1

>  <Energy>  (45) 
131.79315708047787

>  <Genealogy>  (45) 
Cc1ccc(S(=O)(=O)c2ccc3c(c2)C(=O)N(c2ccc(S(=O)(=O)N=c4[nH]ccs4)cc2)C3=O)cc1 (3D coordinates assigned)
Cc1ccc(S(=O)(=O)c2ccc3c(c2)C(=O)N(c2ccc(S(=O)(=O)N=c4[nH]ccs4)cc2)C3=O)cc1 (nonaromatic ring conformer: 131.79315708047787 kcal/mol)

>  <smiles>  (45) 
Cc1ccc(S(=O)(=O)c2ccc3c(c2)C(=O)N(c2ccc(S(=O)(=O)N=c4[nH]ccs4)cc2)C3=O)cc1

>  <score_type>  (45) 
oracle

>  <origin>  (45) 
adgpu

>  <m_score__min__energy>  (45) 
-10.199999999999999

>  <m_primary>  (45) 
energy

$$$$
45:0
     RDKit          3D

 36 38  0  0  0  0  0  0  0  0999 V2000
    1.6473   19.5288  -28.7089 H   0  0  0  0  0  0  0  0  0  0  0  0
    0.6060   19.6260  -28.3680 C   0  0  0  0  0  0  0  0  0  0  0  0
   -0.1550   20.6670  -28.7980 N   0  0  0  0  0  0  0  0  0  0  0  0
   -1.4490   20.8350  -28.4020 C   0  0  0  0  0  0  0  0  0  0  0  0
   -2.2220   21.9950  -28.9180 C   0  0  0  0  0  0  0  0  0  0  0  0
   -3.4890   21.7980  -29.4920 C   0  0  0  0  0  0  0  0  0  0  0  0
   -3.9088   20.7832  -29.5548 H   0  0  0  0  0  0  0  0  0  0  0  0
   -4.1990   22.8530  -29.9700 N   0  0  0  0  0  0  0  0  0  0  0  0
   -3.7240   24.1290  -29.9240 C   0  0  0  0  0  0  0  0  0  0  0  0
   -4.4260   25.1200  -30.3910 N   0  0  0  0  0  0  0  0  0  0  0  0
   -5.7610   24.9940  -30.9770 C   0  0  0  0  0  0  0  0  0  0  0  0
   -6.0692   25.9668  -31.3878 H   0  0  0  0  0  0  0  0  0  0  0  0
   -6.4639   24.6727  -30.1942 H   0  0  0  0  0  0  0  0  0  0  0  0
   -5.7590   23.9510  -32.0990 C   0  0  0  0  0  0  0  0  0  0  0  0
   -4.8421   23.3472  -32.0302 H   0  0  0  0  0  0  0  0  0  0  0  0
   -5.7994   24.4707  -33.0676 H   0  0  0  0  0  0  0  0  0  0  0  0
   -6.9520   23.0510  -31.9820 C   0  0  0  0  0  0  0  0  0  0  0  0
   -6.9800   21.6710  -31.9780 C   0  0  0  0  0  0  0  0  0  0  0  0
   -5.8000   20.7540  -32.0120 C   0  0  0  0  0  0  0  0  0  0  0  0
   -5.4919   20.5146  -30.9835 H   0  0  0  0  0  0  0  0  0  0  0  0
   -6.0710   19.8271  -32.5388 H   0  0  0  0  0  0  0  0  0  0  0  0
   -4.9687   21.2455  -32.5388 H   0  0  0  0  0  0  0  0  0  0  0  0
   -8.2580   21.2520  -31.9310 N   0  0  0  0  0  0  0  0  0  0  0  0
   -9.0460   22.3180  -31.9200 N   0  0  0  0  0  0  0  0  0  0  0  0
   -8.2770   23.4250  -31.9570 C   0  0  0  0  0  0  0  0  0  0  0  0
   -8.6484   24.4604  -31.9658 H   0  0  0  0  0  0  0  0  0  0  0  0
   -2.4590   24.3710  -29.3750 C   0  0  0  0  0  0  0  0  0  0  0  0
   -1.9420   25.6620  -29.3270 O   0  0  0  0  0  0  0  0  0  0  0  0
   -1.7100   23.3040  -28.8750 C   0  0  0  0  0  0  0  0  0  0  0  0
   -0.7143   23.4883  -28.4453 H   0  0  0  0  0  0  0  0  0  0  0  0
   -2.0240   19.8910  -27.5300 C   0  0  0  0  0  0  0  0  0  0  0  0
   -3.0702   19.9993  -27.2079 H   0  0  0  0  0  0  0  0  0  0  0  0
   -1.2560   18.8160  -27.0770 C   0  0  0  0  0  0  0  0  0  0  0  0
   -1.6952   18.0767  -26.3911 H   0  0  0  0  0  0  0  0  0  0  0  0
    0.0670   18.6800  -27.4940 C   0  0  0  0  0  0  0  0  0  0  0  0
    0.6789   17.8377  -27.1389 H   0  0  0  0  0  0  0  0  0  0  0  0
  1  2  1  0
  2  3  2  0
  3  4  1  0
  4  5  1  0
  5  6  2  0
  6  7  1  0
  6  8  1  0
  8  9  1  0
  9 10  2  0
 10 11  1  0
 11 12  1  0
 11 13  1  0
 11 14  1  0
 14 15  1  0
 14 16  1  0
 14 17  1  0
 17 18  1  0
 18 19  1  0
 19 20  1  0
 19 21  1  0
 19 22  1  0
 18 23  2  0
 23 24  1  0
 24 25  1  0
 25 26  1  0
  9 27  1  0
 27 28  1  0
 27 29  2  0
 29 30  1  0
  4 31  2  0
 31 32  1  0
 31 33  1  0
 33 34  1  0
 33 35  2  0
 35 36  1  0
 35  2  1  0
 29  5  1  0
 25 17  2  0
M  CHG  3   8  -1  24  -1  28  -1
M  END
>  <UniqueID>  (46) 
43

>  <SMILES>  (46) 
Cc1n[n-]cc1CC/N=c1\[n-]cc(-c2ccccn2)cc1[O-]

>  <Energy>  (46) 
69.15243077726606

>  <Genealogy>  (46) 
Cc1n[n-]cc1CCN=c1[n-]cc(-c2ccccn2)cc1[O-] (protonated)
Cc1n[n-]cc1CC/N=c1\[n-]cc(-c2ccccn2)cc1[O-] (cis-trans isomerization)
Cc1n[n-]cc1CC/N=c1\[n-]cc(-c2ccccn2)cc1[O-] (3D coordinates assigned)
Cc1n[n-]cc1CC/N=c1\[n-]cc(-c2ccccn2)cc1[O-] (optimized conformer: 69.15243077726606 kcal/mol)

>  <smiles>  (46) 
Cc1n[nH]cc1CCN=c1[nH]cc(-c2ccccn2)cc1O

>  <score_type>  (46) 
oracle

>  <origin>  (46) 
adgpu

>  <m_score__min__energy>  (46) 
-10.970000000000001

>  <m_primary>  (46) 
energy

$$$$
46:0
     RDKit          3D

 58 61  0  0  0  0  0  0  0  0999 V2000
   -4.8130   24.9430  -30.7530 O   0  0  0  0  0  0  0  0  0  0  0  0
   -4.4010   23.8230  -31.1600 C   0  0  0  0  0  0  0  0  0  0  0  0
   -5.1440   23.1110  -32.1580 N   0  0  0  0  0  0  0  0  0  0  0  0
   -6.2890   22.2810  -31.9210 C   0  0  0  0  0  0  0  0  0  0  0  0
   -6.1470   20.8950  -32.0640 C   0  0  0  0  0  0  0  0  0  0  0  0
   -7.2380   20.0390  -31.8620 C   0  0  0  0  0  0  0  0  0  0  0  0
   -7.0490   18.2950  -32.0680 S   0  0  0  0  0  0  0  0  0  0  0  0
   -8.4010   17.6770  -32.2980 O   0  0  0  0  0  0  0  0  0  0  0  0
   -6.4800   17.7080  -30.8050 O   0  0  0  0  0  0  0  0  0  0  0  0
   -6.0070   17.9050  -33.4160 N   0  0  0  0  0  0  0  0  0  0  0  0
   -4.6940   18.5490  -33.2590 C   0  0  0  0  0  0  0  0  0  0  0  0
   -3.7930   18.2090  -34.4670 C   0  0  0  0  0  0  0  0  0  0  0  0
   -4.3870   17.2530  -35.3260 O   0  0  0  0  0  0  0  0  0  0  0  0
   -4.7650   16.1080  -34.5860 C   0  0  0  0  0  0  0  0  0  0  0  0
   -5.8480   16.4480  -33.5420 C   0  0  0  0  0  0  0  0  0  0  0  0
   -8.4780   20.5760  -31.5000 C   0  0  0  0  0  0  0  0  0  0  0  0
   -8.6180   21.9530  -31.3090 C   0  0  0  0  0  0  0  0  0  0  0  0
   -7.5250   22.8100  -31.5000 C   0  0  0  0  0  0  0  0  0  0  0  0
   -7.6630   24.1740  -31.2430 O   0  0  0  0  0  0  0  0  0  0  0  0
   -3.1090   23.2910  -30.6610 C   0  0  0  0  0  0  0  0  0  0  0  0
   -2.6790   22.0150  -31.0760 C   0  0  0  0  0  0  0  0  0  0  0  0
   -1.4780   21.4740  -30.6010 C   0  0  0  0  0  0  0  0  0  0  0  0
   -0.9750   19.8700  -31.1340 S   0  0  0  0  0  0  0  0  0  0  0  0
   -0.5900   19.0330  -29.9450 O   0  0  0  0  0  0  0  0  0  0  0  0
   -2.1410   19.2150  -31.8190 O   0  0  0  0  0  0  0  0  0  0  0  0
    0.3670   20.0080  -32.2510 N   0  0  0  0  0  0  0  0  0  0  0  0
    0.5780   18.7590  -33.0060 C   0  0  0  0  0  0  0  0  0  0  0  0
   -0.4740   18.5590  -34.1240 C   0  0  0  0  0  0  0  0  0  0  0  0
   -1.1990   19.7340  -34.4370 O   0  0  0  0  0  0  0  0  0  0  0  0
   -0.3220   20.8350  -34.5240 C   0  0  0  0  0  0  0  0  0  0  0  0
    0.2330   21.1880  -33.1340 C   0  0  0  0  0  0  0  0  0  0  0  0
   -0.6850   22.2140  -29.7160 C   0  0  0  0  0  0  0  0  0  0  0  0
   -1.0920   23.4830  -29.3040 C   0  0  0  0  0  0  0  0  0  0  0  0
   -2.2960   24.0260  -29.7690 C   0  0  0  0  0  0  0  0  0  0  0  0
   -2.6580   25.3020  -29.3500 O   0  0  0  0  0  0  0  0  0  0  0  0
   -5.1684   20.4738  -32.3379 H   0  0  0  0  0  0  0  0  0  0  0  0
   -4.8275   19.6392  -33.1991 H   0  0  0  0  0  0  0  0  0  0  0  0
   -4.2183   18.1811  -32.3379 H   0  0  0  0  0  0  0  0  0  0  0  0
   -3.6046   19.1298  -35.0385 H   0  0  0  0  0  0  0  0  0  0  0  0
   -2.8575   17.7792  -34.0796 H   0  0  0  0  0  0  0  0  0  0  0  0
   -5.1595   15.3487  -35.2773 H   0  0  0  0  0  0  0  0  0  0  0  0
   -3.8787   15.7289  -34.0561 H   0  0  0  0  0  0  0  0  0  0  0  0
   -6.8048   16.0059  -33.8567 H   0  0  0  0  0  0  0  0  0  0  0  0
   -5.5419   16.0393  -32.5677 H   0  0  0  0  0  0  0  0  0  0  0  0
   -9.3450   19.9125  -31.3654 H   0  0  0  0  0  0  0  0  0  0  0  0
   -9.5913   22.3670  -31.0070 H   0  0  0  0  0  0  0  0  0  0  0  0
   -6.8670   24.8020  -31.2570 H   0  0  0  0  0  0  0  0  0  0  0  0
   -3.2940   21.4370  -31.7815 H   0  0  0  0  0  0  0  0  0  0  0  0
    1.5781   18.7875  -33.4632 H   0  0  0  0  0  0  0  0  0  0  0  0
    0.4805   17.9207  -32.3005 H   0  0  0  0  0  0  0  0  0  0  0  0
    0.0444   18.2180  -35.0323 H   0  0  0  0  0  0  0  0  0  0  0  0
   -1.2007   17.8204  -33.7546 H   0  0  0  0  0  0  0  0  0  0  0  0
    0.5127   20.5817  -35.1941 H   0  0  0  0  0  0  0  0  0  0  0  0
   -0.8737   21.7009  -34.9189 H   0  0  0  0  0  0  0  0  0  0  0  0
    1.2245   21.6478  -33.2583 H   0  0  0  0  0  0  0  0  0  0  0  0
   -0.4808   21.8768  -32.6586 H   0  0  0  0  0  0  0  0  0  0  0  0
    0.2613   21.7938  -29.3446 H   0  0  0  0  0  0  0  0  0  0  0  0
   -0.4636   24.0604  -28.6099 H   0  0  0  0  0  0  0  0  0  0  0  0
  1  2  2  0
  2  3  1  0
  3  4  1  0
  4  5  2  0
  5  6  1  0
  6  7  1  0
  7  8  2  0
  7  9  2  0
  7 10  1  0
 10 11  1  0
 11 12  1  0
 12 13  1  0
 13 14  1  0
 14 15  1  0
  6 16  2  0
 16 17  1  0
 17 18  2  0
 18 19  1  0
  2 20  1  0
 20 21  2  0
 21 22  1  0
 22 23  1  0
 23 24  2  0
 23 25  2  0
 23 26  1  0
 26 27  1  0
 27 28  1  0
 28 29  1  0
 29 30  1  0
 30 31  1  0
 22 32  2  0
 32 33  1  0
 33 34  2  0
 34 35  1  0
 18  4  1  0
 34 20  1  0
 15 10  1  0
 31 26  1  0
  5 36  1  0
 11 37  1  0
 11 38  1  0
 12 39  1  0
 12 40  1  0
 14 41  1  0
 14 42  1  0
 15 43  1  0
 15 44  1  0
 16 45  1  0
 17 46  1  0
 19 47  1  0
 21 48  1  0
 27 49  1  0
 27 50  1  0
 28 51  1  0
 28 52  1  0
 30 53  1  0
 30 54  1  0
 31 55  1  0
 31 56  1  0
 32 57  1  0
 33 58  1  0
M  CHG  2   3  -1  35  -1
M  END
>  <UniqueID>  (47) 
44

>  <SMILES>  (47) 
O=C([N-]c1cc(S(=O)(=O)N2CCOCC2)ccc1O)c1cc(S(=O)(=O)N2CCOCC2)ccc1[O-]

>  <Energy>  (47) 
86.75455239341309

>  <Genealogy>  (47) 
O=C([N-]c1cc(S(=O)(=O)N2CCOCC2)ccc1O)c1cc(S(=O)(=O)N2CCOCC2)ccc1[O-] (protonated)
O=C([N-]c1cc(S(=O)(=O)N2CCOCC2)ccc1O)c1cc(S(=O)(=O)N2CCOCC2)ccc1[O-] (3D coordinates assigned)
O=C([N-]c1cc(S(=O)(=O)N2CCOCC2)ccc1O)c1cc(S(=O)(=O)N2CCOCC2)ccc1[O-] (nonaromatic ring conformer: 86.75455239341309 kcal/mol)

>  <smiles>  (47) 
O=C(Nc1cc(S(=O)(=O)N2CCOCC2)ccc1O)c1cc(S(=O)(=O)N2CCOCC2)ccc1O

>  <score_type>  (47) 
oracle

>  <origin>  (47) 
adgpu

>  <m_score__min__energy>  (47) 
-14.51

>  <m_primary>  (47) 
energy

$$$$
47:0
     RDKit          3D

 54 58  0  0  0  0  0  0  0  0999 V2000
   -5.0280   25.3790  -31.2150 O   0  0  0  0  0  0  0  0  0  0  0  0
   -4.6990   24.1920  -30.9510 C   0  0  0  0  0  0  0  0  0  0  0  0
   -4.9960   23.1660  -31.9050 N   0  0  0  0  0  0  0  0  0  0  0  0
   -6.2220   22.4240  -31.9430 C   0  0  0  0  0  0  0  0  0  0  0  0
   -7.4470   23.0410  -31.6330 C   0  0  0  0  0  0  0  0  0  0  0  0
   -8.6250   22.2890  -31.6030 C   0  0  0  0  0  0  0  0  0  0  0  0
   -8.5900   20.9210  -31.8880 C   0  0  0  0  0  0  0  0  0  0  0  0
   -7.3820   20.3060  -32.2190 C   0  0  0  0  0  0  0  0  0  0  0  0
   -6.1950   21.0500  -32.2410 C   0  0  0  0  0  0  0  0  0  0  0  0
   -4.9730   20.4160  -32.6320 N   0  0  0  0  0  0  0  0  0  0  0  0
   -3.8020   20.4980  -31.7580 C   0  0  0  0  0  0  0  0  0  0  0  0
   -2.5180   20.7450  -32.5760 C   0  0  0  0  0  0  0  0  0  0  0  0
   -2.5940   20.2560  -33.9720 N   0  0  0  0  0  0  0  0  0  0  0  0
   -3.5150   19.1200  -34.1340 C   0  0  0  0  0  0  0  0  0  0  0  0
   -4.9500   19.5600  -33.8210 C   0  0  0  0  0  0  0  0  0  0  0  0
   -4.0990   23.8690  -29.6360 C   0  0  0  0  0  0  0  0  0  0  0  0
   -3.0430   22.9430  -29.5570 C   0  0  0  0  0  0  0  0  0  0  0  0
   -2.5250   22.5500  -28.3120 C   0  0  0  0  0  0  0  0  0  0  0  0
   -1.5180   21.5800  -28.2110 O   0  0  0  0  0  0  0  0  0  0  0  0
   -1.7040   20.3220  -27.6250 C   0  0  0  0  0  0  0  0  0  0  0  0
   -2.8820   20.0370  -26.9090 C   0  0  0  0  0  0  0  0  0  0  0  0
   -3.0450   18.7710  -26.3010 C   0  0  0  0  0  0  0  0  0  0  0  0
   -2.0570   17.8270  -26.3800 N   0  0  0  0  0  0  0  0  0  0  0  0
   -0.9230   18.1180  -27.0670 C   0  0  0  0  0  0  0  0  0  0  0  0
    0.1530   17.3260  -27.1890 N   0  0  0  0  0  0  0  0  0  0  0  0
    1.0530   18.0500  -27.8930 C   0  0  0  0  0  0  0  0  0  0  0  0
    0.5370   19.2990  -28.2260 C   0  0  0  0  0  0  0  0  0  0  0  0
   -0.7320   19.3210  -27.6850 C   0  0  0  0  0  0  0  0  0  0  0  0
   -3.0580   23.0980  -27.1410 C   0  0  0  0  0  0  0  0  0  0  0  0
   -4.0900   24.0360  -27.2100 C   0  0  0  0  0  0  0  0  0  0  0  0
   -4.6140   24.4200  -28.4470 C   0  0  0  0  0  0  0  0  0  0  0  0
   -5.6210   25.3300  -28.4810 F   0  0  0  0  0  0  0  0  0  0  0  0
   -7.4784   24.1184  -31.4135 H   0  0  0  0  0  0  0  0  0  0  0  0
   -9.5805   22.7743  -31.3549 H   0  0  0  0  0  0  0  0  0  0  0  0
   -9.5160   20.3285  -31.8513 H   0  0  0  0  0  0  0  0  0  0  0  0
   -7.3616   19.2337  -32.4634 H   0  0  0  0  0  0  0  0  0  0  0  0
   -3.9407   21.3262  -31.0475 H   0  0  0  0  0  0  0  0  0  0  0  0
   -3.6976   19.5434  -31.2215 H   0  0  0  0  0  0  0  0  0  0  0  0
   -2.3239   21.8275  -32.5980 H   0  0  0  0  0  0  0  0  0  0  0  0
   -1.7116   20.1821  -32.0833 H   0  0  0  0  0  0  0  0  0  0  0  0
   -2.9030   21.0370  -34.5990 H   0  0  0  0  0  0  0  0  0  0  0  0
   -1.6390   19.9590  -34.2810 H   0  0  0  0  0  0  0  0  0  0  0  0
   -3.4638   18.7544  -35.1702 H   0  0  0  0  0  0  0  0  0  0  0  0
   -3.2239   18.3173  -33.4405 H   0  0  0  0  0  0  0  0  0  0  0  0
   -5.3530   20.1192  -34.6783 H   0  0  0  0  0  0  0  0  0  0  0  0
   -5.5638   18.6673  -33.6304 H   0  0  0  0  0  0  0  0  0  0  0  0
   -2.6183   22.5221  -30.4803 H   0  0  0  0  0  0  0  0  0  0  0  0
   -3.6729   20.7966  -26.8228 H   0  0  0  0  0  0  0  0  0  0  0  0
   -3.9747   18.5425  -25.7593 H   0  0  0  0  0  0  0  0  0  0  0  0
    0.2800   16.3620  -26.8050 H   0  0  0  0  0  0  0  0  0  0  0  0
    2.0589   17.6984  -28.1660 H   0  0  0  0  0  0  0  0  0  0  0  0
    1.0339   20.0968  -28.7975 H   0  0  0  0  0  0  0  0  0  0  0  0
   -2.6628   22.7890  -26.1620 H   0  0  0  0  0  0  0  0  0  0  0  0
   -4.4927   24.4751  -26.2853 H   0  0  0  0  0  0  0  0  0  0  0  0
  1  2  2  0
  2  3  1  0
  3  4  1  0
  4  5  2  0
  5  6  1  0
  6  7  2  0
  7  8  1  0
  8  9  2  0
  9 10  1  0
 10 11  1  0
 11 12  1  0
 12 13  1  0
 13 14  1  0
 14 15  1  0
  2 16  1  0
 16 17  2  0
 17 18  1  0
 18 19  1  0
 19 20  1  0
 20 21  2  0
 21 22  1  0
 22 23  2  0
 23 24  1  0
 24 25  1  0
 25 26  1  0
 26 27  2  0
 27 28  1  0
 18 29  2  0
 29 30  1  0
 30 31  2  0
 31 32  1  0
  9  4  1  0
 15 10  1  0
 31 16  1  0
 28 20  1  0
 28 24  2  0
  5 33  1  0
  6 34  1  0
  7 35  1  0
  8 36  1  0
 11 37  1  0
 11 38  1  0
 12 39  1  0
 12 40  1  0
 13 41  1  0
 13 42  1  0
 14 43  1  0
 14 44  1  0
 15 45  1  0
 15 46  1  0
 17 47  1  0
 21 48  1  0
 22 49  1  0
 25 50  1  0
 26 51  1  0
 27 52  1  0
 29 53  1  0
 30 54  1  0
M  CHG  2   3  -1  13   1
M  END
>  <UniqueID>  (48) 
45

>  <SMILES>  (48) 
O=C([N-]c1ccccc1N1CC[NH2+]CC1)c1cc(Oc2ccnc3[nH]ccc23)ccc1F

>  <Energy>  (48) 
113.37608049386925

>  <Genealogy>  (48) 
O=C([N-]c1ccccc1N1CC[NH2+]CC1)c1cc(Oc2ccnc3[nH]ccc23)ccc1F (protonated)
O=C([N-]c1ccccc1N1CC[NH2+]CC1)c1cc(Oc2ccnc3[nH]ccc23)ccc1F (3D coordinates assigned)
O=C([N-]c1ccccc1N1CC[NH2+]CC1)c1cc(Oc2ccnc3[nH]ccc23)ccc1F (nonaromatic ring conformer: 113.37608049386925 kcal/mol)

>  <smiles>  (48) 
O=C(Nc1ccccc1N1CCNCC1)c1cc(Oc2ccnc3[nH]ccc23)ccc1F

>  <score_type>  (48) 
oracle

>  <origin>  (48) 
adgpu

>  <m_score__min__energy>  (48) 
-10.1

>  <m_primary>  (48) 
energy

$$$$
