0:0
     RDKit          3D

 59 62  0  0  0  0  0  0  0  0999 V2000
   -5.5350   26.2500  -30.8990 O   0  0  0  0  0  0  0  0  0  0  0  0
   -5.1260   25.0710  -30.0610 S   0  0  0  0  0  0  0  0  0  0  0  0
   -5.6000   25.2970  -28.6500 O   0  0  0  0  0  0  0  0  0  0  0  0
   -3.3980   24.9250  -30.0780 N   0  0  0  0  0  0  0  0  0  0  0  0
   -2.5830   24.7080  -28.9180 C   0  0  0  0  0  0  0  0  0  0  0  0
   -3.0890   24.1040  -27.7520 C   0  0  0  0  0  0  0  0  0  0  0  0
   -2.2600   23.8960  -26.6470 C   0  0  0  0  0  0  0  0  0  0  0  0
   -0.9110   24.2820  -26.6940 C   0  0  0  0  0  0  0  0  0  0  0  0
    0.1390   24.0290  -25.3000 S   0  0  0  0  0  0  0  0  0  0  0  0
   -0.2430   22.7480  -24.6070 O   0  0  0  0  0  0  0  0  0  0  0  0
    1.5530   23.8990  -25.7940 O   0  0  0  0  0  0  0  0  0  0  0  0
    0.0390   25.3750  -24.1760 N   0  0  0  0  0  0  0  0  0  0  0  0
    1.2050   26.2750  -24.2860 C   0  0  0  0  0  0  0  0  0  0  0  0
    1.1790   27.1050  -25.5930 C   0  0  0  0  0  0  0  0  0  0  0  0
   -0.1070   27.2040  -26.1820 O   0  0  0  0  0  0  0  0  0  0  0  0
   -1.0900   27.3890  -25.1860 C   0  0  0  0  0  0  0  0  0  0  0  0
   -1.2400   26.1140  -24.3310 C   0  0  0  0  0  0  0  0  0  0  0  0
   -0.4050   24.8850  -27.8540 C   0  0  0  0  0  0  0  0  0  0  0  0
   -1.2390   25.1050  -28.9540 C   0  0  0  0  0  0  0  0  0  0  0  0
   -5.8390   23.6090  -30.7400 C   0  0  0  0  0  0  0  0  0  0  0  0
   -5.0530   22.4540  -30.8730 C   0  0  0  0  0  0  0  0  0  0  0  0
   -5.6230   21.2680  -31.3450 C   0  0  0  0  0  0  0  0  0  0  0  0
   -6.9880   21.2240  -31.6780 C   0  0  0  0  0  0  0  0  0  0  0  0
   -7.7350   19.7310  -32.2430 S   0  0  0  0  0  0  0  0  0  0  0  0
   -8.5540   20.0390  -33.4670 O   0  0  0  0  0  0  0  0  0  0  0  0
   -8.6470   19.1730  -31.1830 O   0  0  0  0  0  0  0  0  0  0  0  0
   -6.5020   18.5600  -32.6440 N   0  0  0  0  0  0  0  0  0  0  0  0
   -7.1310   17.2970  -33.0710 C   0  0  0  0  0  0  0  0  0  0  0  0
   -6.1100   16.4010  -33.8000 C   0  0  0  0  0  0  0  0  0  0  0  0
   -5.4430   17.0090  -34.9040 O   0  0  0  0  0  0  0  0  0  0  0  0
   -5.6670   18.4050  -35.0070 C   0  0  0  0  0  0  0  0  0  0  0  0
   -5.5550   19.1090  -33.6440 C   0  0  0  0  0  0  0  0  0  0  0  0
   -7.7700   22.3850  -31.5640 C   0  0  0  0  0  0  0  0  0  0  0  0
   -7.1980   23.5740  -31.1020 C   0  0  0  0  0  0  0  0  0  0  0  0
   -4.1435   23.7938  -27.7104 H   0  0  0  0  0  0  0  0  0  0  0  0
   -2.6653   23.4285  -25.7375 H   0  0  0  0  0  0  0  0  0  0  0  0
    0.0530   24.9520  -23.2170 H   0  0  0  0  0  0  0  0  0  0  0  0
    1.2036   26.9638  -23.4283 H   0  0  0  0  0  0  0  0  0  0  0  0
    2.1126   25.6536  -24.2974 H   0  0  0  0  0  0  0  0  0  0  0  0
    1.5358   28.1205  -25.3662 H   0  0  0  0  0  0  0  0  0  0  0  0
    1.8237   26.5843  -26.3163 H   0  0  0  0  0  0  0  0  0  0  0  0
   -0.7949   28.2270  -24.5375 H   0  0  0  0  0  0  0  0  0  0  0  0
   -2.0524   27.6063  -25.6723 H   0  0  0  0  0  0  0  0  0  0  0  0
   -1.6045   26.4000  -23.3333 H   0  0  0  0  0  0  0  0  0  0  0  0
   -1.9480   25.4489  -24.8471 H   0  0  0  0  0  0  0  0  0  0  0  0
    0.6520   25.1861  -27.8987 H   0  0  0  0  0  0  0  0  0  0  0  0
   -0.8378   25.5932  -29.8544 H   0  0  0  0  0  0  0  0  0  0  0  0
   -3.9864   22.4820  -30.6053 H   0  0  0  0  0  0  0  0  0  0  0  0
   -5.0018   20.3670  -31.4561 H   0  0  0  0  0  0  0  0  0  0  0  0
   -7.5114   16.7655  -32.1862 H   0  0  0  0  0  0  0  0  0  0  0  0
   -7.9563   17.5276  -33.7608 H   0  0  0  0  0  0  0  0  0  0  0  0
   -5.3469   16.0924  -33.0703 H   0  0  0  0  0  0  0  0  0  0  0  0
   -6.6860   15.5621  -34.2178 H   0  0  0  0  0  0  0  0  0  0  0  0
   -4.9205   18.8349  -35.6911 H   0  0  0  0  0  0  0  0  0  0  0  0
   -6.6885   18.5581  -35.3854 H   0  0  0  0  0  0  0  0  0  0  0  0
   -4.5298   18.9842  -33.2653 H   0  0  0  0  0  0  0  0  0  0  0  0
   -5.8034   20.1701  -33.7935 H   0  0  0  0  0  0  0  0  0  0  0  0
   -8.8348   22.3587  -31.8388 H   0  0  0  0  0  0  0  0  0  0  0  0
   -7.8114   24.4835  -31.0214 H   0  0  0  0  0  0  0  0  0  0  0  0
  1  2  2  0
  2  3  2  0
  2  4  1  0
  4  5  1  0
  5  6  2  0
  6  7  1  0
  7  8  2  0
  8  9  1  0
  9 10  2  0
  9 11  2  0
  9 12  1  0
 12 13  1  0
 13 14  1  0
 14 15  1  0
 15 16  1  0
 16 17  1  0
  8 18  1  0
 18 19  2  0
  2 20  1  0
 20 21  2  0
 21 22  1  0
 22 23  2  0
 23 24  1  0
 24 25  2  0
 24 26  2  0
 24 27  1  0
 27 28  1  0
 28 29  1  0
 29 30  1  0
 30 31  1  0
 31 32  1  0
 23 33  1  0
 33 34  2  0
 19  5  1  0
 34 20  1  0
 17 12  1  0
 32 27  1  0
  6 35  1  0
  7 36  1  0
 12 37  1  0
 13 38  1  0
 13 39  1  0
 14 40  1  0
 14 41  1  0
 16 42  1  0
 16 43  1  0
 17 44  1  0
 17 45  1  0
 18 46  1  0
 19 47  1  0
 21 48  1  0
 22 49  1  0
 28 50  1  0
 28 51  1  0
 29 52  1  0
 29 53  1  0
 31 54  1  0
 31 55  1  0
 32 56  1  0
 32 57  1  0
 33 58  1  0
 34 59  1  0
M  CHG  2   4  -1  12   1
M  END
>  <UniqueID>  (1) 
1

>  <SMILES>  (1) 
O=S(=O)([N-]c1ccc(S(=O)(=O)[NH+]2CCOCC2)cc1)c1ccc(S(=O)(=O)N2CCOCC2)cc1

>  <Energy>  (1) 
87.78184186513302

>  <Genealogy>  (1) 
O=S(=O)([N-]c1ccc(S(=O)(=O)[NH+]2CCOCC2)cc1)c1ccc(S(=O)(=O)N2CCOCC2)cc1 (protonated)
O=S(=O)([N-]c1ccc(S(=O)(=O)[NH+]2CCOCC2)cc1)c1ccc(S(=O)(=O)N2CCOCC2)cc1 (3D coordinates assigned)
O=S(=O)([N-]c1ccc(S(=O)(=O)[NH+]2CCOCC2)cc1)c1ccc(S(=O)(=O)N2CCOCC2)cc1 (nonaromatic ring conformer: 87.78184186513302 kcal/mol)

>  <smiles>  (1) 
O=S(=O)(Nc1ccc(S(=O)(=O)N2CCOCC2)cc1)c1ccc(S(=O)(=O)N2CCOCC2)cc1

>  <score_type>  (1) 
oracle

>  <origin>  (1) 
adgpu

>  <m_score__min__energy>  (1) 
-12.75

>  <m_primary>  (1) 
energy

$$$$
1:0
     RDKit          3D

 65 69  0  0  0  0  0  0  0  0999 V2000
    0.1660   21.5560  -33.9860 O   0  0  0  0  0  0  0  0  0  0  0  0
   -0.5390   20.3630  -33.3980 S   0  0  0  0  0  0  0  0  0  0  0  0
    0.3700   19.1700  -33.5250 O   0  0  0  0  0  0  0  0  0  0  0  0
   -2.0060   20.0710  -34.2790 N   0  0  0  0  0  0  0  0  0  0  0  0
   -3.3170   20.2440  -33.7150 C   0  0  0  0  0  0  0  0  0  0  0  0
   -3.8500   21.5160  -33.4650 C   0  0  0  0  0  0  0  0  0  0  0  0
   -5.1180   21.6580  -32.8980 C   0  0  0  0  0  0  0  0  0  0  0  0
   -5.8880   20.5290  -32.5590 C   0  0  0  0  0  0  0  0  0  0  0  0
   -5.3740   19.2470  -32.8650 C   0  0  0  0  0  0  0  0  0  0  0  0
   -4.0950   19.1160  -33.4270 C   0  0  0  0  0  0  0  0  0  0  0  0
   -6.1630   18.0080  -32.5390 C   0  0  0  0  0  0  0  0  0  0  0  0
   -7.6630   18.2980  -32.5560 C   0  0  0  0  0  0  0  0  0  0  0  0
   -7.9810   19.4520  -31.6090 C   0  0  0  0  0  0  0  0  0  0  0  0
   -7.1940   20.6540  -31.9340 N   0  0  0  0  0  0  0  0  0  0  0  0
   -7.7500   22.1810  -31.2910 S   0  0  0  0  0  0  0  0  0  0  0  0
   -8.6980   21.9330  -30.1510 O   0  0  0  0  0  0  0  0  0  0  0  0
   -8.4650   22.9570  -32.3640 O   0  0  0  0  0  0  0  0  0  0  0  0
   -6.3990   23.1600  -30.7140 C   0  0  0  0  0  0  0  0  0  0  0  0
   -6.1310   24.4080  -31.2970 C   0  0  0  0  0  0  0  0  0  0  0  0
   -5.0810   25.1950  -30.8160 C   0  0  0  0  0  0  0  0  0  0  0  0
   -4.2980   24.7440  -29.7510 C   0  0  0  0  0  0  0  0  0  0  0  0
   -4.5640   23.5020  -29.1650 C   0  0  0  0  0  0  0  0  0  0  0  0
   -5.6110   22.7120  -29.6440 C   0  0  0  0  0  0  0  0  0  0  0  0
   -0.9080   20.6960  -31.7110 C   0  0  0  0  0  0  0  0  0  0  0  0
   -0.6700   19.7100  -30.7440 C   0  0  0  0  0  0  0  0  0  0  0  0
   -0.9900   19.9460  -29.4040 C   0  0  0  0  0  0  0  0  0  0  0  0
   -1.5550   21.1680  -29.0180 C   0  0  0  0  0  0  0  0  0  0  0  0
   -2.0150   21.4420  -27.3340 S   0  0  0  0  0  0  0  0  0  0  0  0
   -1.5310   20.2930  -26.4950 O   0  0  0  0  0  0  0  0  0  0  0  0
   -3.5150   21.4940  -27.2300 O   0  0  0  0  0  0  0  0  0  0  0  0
   -1.3360   22.9320  -26.7150 N   0  0  0  0  0  0  0  0  0  0  0  0
   -2.1150   24.0910  -27.1880 C   0  0  0  0  0  0  0  0  0  0  0  0
   -1.2770   25.3760  -27.1070 C   0  0  0  0  0  0  0  0  0  0  0  0
   -0.0930   25.3450  -27.9000 O   0  0  0  0  0  0  0  0  0  0  0  0
    0.3880   24.0350  -28.1600 C   0  0  0  0  0  0  0  0  0  0  0  0
    0.1090   23.0410  -27.0170 C   0  0  0  0  0  0  0  0  0  0  0  0
   -1.7710   22.1660  -29.9810 C   0  0  0  0  0  0  0  0  0  0  0  0
   -1.4540   21.9290  -31.3230 C   0  0  0  0  0  0  0  0  0  0  0  0
   -1.9150   19.6240  -35.2180 H   0  0  0  0  0  0  0  0  0  0  0  0
   -3.2634   22.4115  -33.7181 H   0  0  0  0  0  0  0  0  0  0  0  0
   -5.5206   22.6650  -32.7138 H   0  0  0  0  0  0  0  0  0  0  0  0
   -3.6981   18.1134  -33.6443 H   0  0  0  0  0  0  0  0  0  0  0  0
   -5.9378   17.2309  -33.2842 H   0  0  0  0  0  0  0  0  0  0  0  0
   -5.8819   17.6667  -31.5318 H   0  0  0  0  0  0  0  0  0  0  0  0
   -7.9703   18.5689  -33.5769 H   0  0  0  0  0  0  0  0  0  0  0  0
   -8.2085   17.4007  -32.2286 H   0  0  0  0  0  0  0  0  0  0  0  0
   -9.0511   19.6940  -31.6882 H   0  0  0  0  0  0  0  0  0  0  0  0
   -7.7232   19.1385  -30.5866 H   0  0  0  0  0  0  0  0  0  0  0  0
   -6.7482   24.7673  -32.1337 H   0  0  0  0  0  0  0  0  0  0  0  0
   -4.8709   26.1714  -31.2770 H   0  0  0  0  0  0  0  0  0  0  0  0
   -3.4725   25.3652  -29.3732 H   0  0  0  0  0  0  0  0  0  0  0  0
   -3.9476   23.1472  -28.3258 H   0  0  0  0  0  0  0  0  0  0  0  0
   -5.8182   21.7360  -29.1809 H   0  0  0  0  0  0  0  0  0  0  0  0
   -0.2297   18.7466  -31.0407 H   0  0  0  0  0  0  0  0  0  0  0  0
   -0.7973   19.1689  -28.6497 H   0  0  0  0  0  0  0  0  0  0  0  0
   -2.4169   23.9217  -28.2321 H   0  0  0  0  0  0  0  0  0  0  0  0
   -3.0027   24.2060  -26.5487 H   0  0  0  0  0  0  0  0  0  0  0  0
   -1.8992   26.2171  -27.4466 H   0  0  0  0  0  0  0  0  0  0  0  0
   -0.9570   25.4827  -26.0600 H   0  0  0  0  0  0  0  0  0  0  0  0
   -0.0973   23.6606  -29.0734 H   0  0  0  0  0  0  0  0  0  0  0  0
    1.4804   24.1064  -28.2678 H   0  0  0  0  0  0  0  0  0  0  0  0
    0.4862   22.0498  -27.3088 H   0  0  0  0  0  0  0  0  0  0  0  0
    0.6170   23.4111  -26.1143 H   0  0  0  0  0  0  0  0  0  0  0  0
   -2.1907   23.1372  -29.6798 H   0  0  0  0  0  0  0  0  0  0  0  0
   -1.6332   22.7110  -32.0756 H   0  0  0  0  0  0  0  0  0  0  0  0
  1  2  2  0
  2  3  2  0
  2  4  1  0
  4  5  1  0
  5  6  2  0
  6  7  1  0
  7  8  2  0
  8  9  1  0
  9 10  2  0
  9 11  1  0
 11 12  1  0
 12 13  1  0
 13 14  1  0
 14 15  1  0
 15 16  2  0
 15 17  2  0
 15 18  1  0
 18 19  2  0
 19 20  1  0
 20 21  2  0
 21 22  1  0
 22 23  2  0
  2 24  1  0
 24 25  2  0
 25 26  1  0
 26 27  2  0
 27 28  1  0
 28 29  2  0
 28 30  2  0
 28 31  1  0
 31 32  1  0
 32 33  1  0
 33 34  1  0
 34 35  1  0
 35 36  1  0
 27 37  1  0
 37 38  2  0
 10  5  1  0
 23 18  1  0
 38 24  1  0
 14  8  1  0
 36 31  1  0
  4 39  1  0
  6 40  1  0
  7 41  1  0
 10 42  1  0
 11 43  1  0
 11 44  1  0
 12 45  1  0
 12 46  1  0
 13 47  1  0
 13 48  1  0
 19 49  1  0
 20 50  1  0
 21 51  1  0
 22 52  1  0
 23 53  1  0
 25 54  1  0
 26 55  1  0
 32 56  1  0
 32 57  1  0
 33 58  1  0
 33 59  1  0
 35 60  1  0
 35 61  1  0
 36 62  1  0
 36 63  1  0
 37 64  1  0
 38 65  1  0
M  END
>  <UniqueID>  (2) 
2

>  <SMILES>  (2) 
O=S(=O)(Nc1ccc2c(c1)CCCN2S(=O)(=O)c1ccccc1)c1ccc(S(=O)(=O)N2CCOCC2)cc1

>  <Energy>  (2) 
89.15309830968575

>  <Genealogy>  (2) 
O=S(=O)(Nc1ccc2c(c1)CCCN2S(=O)(=O)c1ccccc1)c1ccc(S(=O)(=O)N2CCOCC2)cc1 (3D coordinates assigned)
O=S(=O)(Nc1ccc2c(c1)CCCN2S(=O)(=O)c1ccccc1)c1ccc(S(=O)(=O)N2CCOCC2)cc1 (nonaromatic ring conformer: 89.15309830968575 kcal/mol)

>  <smiles>  (2) 
O=S(=O)(Nc1ccc2c(c1)CCCN2S(=O)(=O)c1ccccc1)c1ccc(S(=O)(=O)N2CCOCC2)cc1

>  <score_type>  (2) 
oracle

>  <origin>  (2) 
adgpu

>  <m_score__min__energy>  (2) 
-11.98

>  <m_primary>  (2) 
energy

$$$$
2:0
     RDKit          3D

 39 41  0  0  0  0  0  0  0  0999 V2000
   -9.4250   21.6630  -31.9510 N   0  0  0  0  0  0  0  0  0  0  0  0
   -8.4340   22.2030  -31.6920 C   0  0  0  0  0  0  0  0  0  0  0  0
   -7.1970   22.8760  -31.3690 C   0  0  0  0  0  0  0  0  0  0  0  0
   -7.2610   24.0930  -30.6800 C   0  0  0  0  0  0  0  0  0  0  0  0
   -6.0940   24.7870  -30.3600 C   0  0  0  0  0  0  0  0  0  0  0  0
   -4.8450   24.2790  -30.7430 C   0  0  0  0  0  0  0  0  0  0  0  0
   -3.6300   24.9930  -30.4660 N   0  0  0  0  0  0  0  0  0  0  0  0
   -2.5580   24.5430  -29.6240 C   0  0  0  0  0  0  0  0  0  0  0  0
   -1.9740   25.3880  -28.8940 O   0  0  0  0  0  0  0  0  0  0  0  0
   -2.1620   23.1150  -29.5480 C   0  0  0  0  0  0  0  0  0  0  0  0
   -1.7440   22.4350  -30.7060 C   0  0  0  0  0  0  0  0  0  0  0  0
   -1.2990   21.1110  -30.6370 C   0  0  0  0  0  0  0  0  0  0  0  0
   -0.6700   20.3400  -32.0870 S   0  0  0  0  0  0  0  0  0  0  0  0
    0.3010   19.2550  -31.7160 O   0  0  0  0  0  0  0  0  0  0  0  0
   -1.8120   19.7580  -32.8700 O   0  0  0  0  0  0  0  0  0  0  0  0
    0.1500   21.5470  -33.0280 N   0  0  0  0  0  0  0  0  0  0  0  0
    0.3280   21.4830  -34.3110 C   0  0  0  0  0  0  0  0  0  0  0  0
   -0.0910   20.4740  -35.1570 C   0  0  0  0  0  0  0  0  0  0  0  0
    0.3500   20.8980  -36.3920 C   0  0  0  0  0  0  0  0  0  0  0  0
    0.9660   22.0510  -36.2490 O   0  0  0  0  0  0  0  0  0  0  0  0
    0.9720   22.4360  -35.0060 N   0  0  0  0  0  0  0  0  0  0  0  0
   -1.3290   20.4320  -29.4120 C   0  0  0  0  0  0  0  0  0  0  0  0
   -1.7850   21.0830  -28.2630 C   0  0  0  0  0  0  0  0  0  0  0  0
   -2.1950   22.4190  -28.3240 C   0  0  0  0  0  0  0  0  0  0  0  0
   -2.5940   23.0360  -27.1820 F   0  0  0  0  0  0  0  0  0  0  0  0
   -4.7730   23.0470  -31.4010 C   0  0  0  0  0  0  0  0  0  0  0  0
   -5.9410   22.3320  -31.7320 C   0  0  0  0  0  0  0  0  0  0  0  0
   -5.8490   21.0120  -32.4720 C   0  0  0  0  0  0  0  0  0  0  0  0
   -6.0270   19.9680  -31.5820 F   0  0  0  0  0  0  0  0  0  0  0  0
   -6.8110   20.9080  -33.4620 F   0  0  0  0  0  0  0  0  0  0  0  0
   -4.6040   20.8970  -33.0630 F   0  0  0  0  0  0  0  0  0  0  0  0
   -8.2385   24.5049  -30.3889 H   0  0  0  0  0  0  0  0  0  0  0  0
   -6.1541   25.7353  -29.8057 H   0  0  0  0  0  0  0  0  0  0  0  0
   -1.7674   22.9506  -31.6774 H   0  0  0  0  0  0  0  0  0  0  0  0
   -0.6423   19.5559  -34.9059 H   0  0  0  0  0  0  0  0  0  0  0  0
    0.2098   20.3603  -37.3413 H   0  0  0  0  0  0  0  0  0  0  0  0
   -0.9934   19.3860  -29.3548 H   0  0  0  0  0  0  0  0  0  0  0  0
   -1.8218   20.5423  -27.3057 H   0  0  0  0  0  0  0  0  0  0  0  0
   -3.7897   22.6300  -31.6641 H   0  0  0  0  0  0  0  0  0  0  0  0
  1  2  3  0
  2  3  1  0
  3  4  2  0
  4  5  1  0
  5  6  2  0
  6  7  1  0
  7  8  1  0
  8  9  2  0
  8 10  1  0
 10 11  2  0
 11 12  1  0
 12 13  1  0
 13 14  2  0
 13 15  2  0
 13 16  1  0
 16 17  2  3
 17 18  1  0
 18 19  2  0
 19 20  1  0
 20 21  1  0
 12 22  2  0
 22 23  1  0
 23 24  2  0
 24 25  1  0
  6 26  1  0
 26 27  2  0
 27 28  1  0
 28 29  1  0
 28 30  1  0
 28 31  1  0
 27  3  1  0
 24 10  1  0
 21 17  1  0
  4 32  1  0
  5 33  1  0
 11 34  1  0
 18 35  1  0
 19 36  1  0
 22 37  1  0
 23 38  1  0
 26 39  1  0
M  CHG  2   7  -1  21  -1
M  END
>  <UniqueID>  (3) 
3

>  <SMILES>  (3) 
N#Cc1ccc([N-]C(=O)c2cc(S(=O)(=O)N=c3cco[n-]3)ccc2F)cc1C(F)(F)F

>  <Energy>  (3) 
84.3776512265516

>  <Genealogy>  (3) 
N#Cc1ccc([N-]C(=O)c2cc(S(=O)(=O)N=c3cco[n-]3)ccc2F)cc1C(F)(F)F (protonated)
N#Cc1ccc([N-]C(=O)c2cc(S(=O)(=O)N=c3cco[n-]3)ccc2F)cc1C(F)(F)F (3D coordinates assigned)
N#Cc1ccc([N-]C(=O)c2cc(S(=O)(=O)N=c3cco[n-]3)ccc2F)cc1C(F)(F)F (optimized conformer: 84.3776512265516 kcal/mol)

>  <smiles>  (3) 
N#Cc1ccc(NC(=O)c2cc(S(=O)(=O)N=c3cco[nH]3)ccc2F)cc1C(F)(F)F

>  <score_type>  (3) 
oracle

>  <origin>  (3) 
adgpu

>  <m_score__min__energy>  (3) 
-10.949999999999999

>  <m_primary>  (3) 
energy

$$$$
3:0
     RDKit          3D

 35 37  0  0  0  0  0  0  0  0999 V2000
   -3.2690   22.2530  -30.2890 O   0  0  0  0  0  0  0  0  0  0  0  0
   -4.0760   23.1250  -29.8660 C   0  0  0  0  0  0  0  0  0  0  0  0
   -3.6740   24.0510  -28.8450 N   0  0  0  0  0  0  0  0  0  0  0  0
   -2.4390   23.9360  -28.1210 C   0  0  0  0  0  0  0  0  0  0  0  0
   -2.1850   22.7700  -27.3830 C   0  0  0  0  0  0  0  0  0  0  0  0
   -0.9880   22.6270  -26.6760 C   0  0  0  0  0  0  0  0  0  0  0  0
   -0.0280   23.6420  -26.7120 C   0  0  0  0  0  0  0  0  0  0  0  0
   -0.2590   24.7950  -27.4670 C   0  0  0  0  0  0  0  0  0  0  0  0
   -1.4530   24.9430  -28.1820 C   0  0  0  0  0  0  0  0  0  0  0  0
   -1.6360   26.0730  -28.9690 O   0  0  0  0  0  0  0  0  0  0  0  0
   -5.4230   23.2090  -30.4480 C   0  0  0  0  0  0  0  0  0  0  0  0
   -5.9510   24.2960  -31.1210 C   0  0  0  0  0  0  0  0  0  0  0  0
   -7.2270   23.9250  -31.4900 C   0  0  0  0  0  0  0  0  0  0  0  0
   -7.3950   22.6400  -31.0130 C   0  0  0  0  0  0  0  0  0  0  0  0
   -8.6120   21.7930  -31.1960 C   0  0  0  0  0  0  0  0  0  0  0  0
   -8.2350   20.5030  -31.7610 N   0  0  0  0  0  0  0  0  0  0  0  0
   -7.4010   20.3120  -32.8020 C   0  0  0  0  0  0  0  0  0  0  0  0
   -7.2570   18.9520  -32.9660 C   0  0  0  0  0  0  0  0  0  0  0  0
   -6.4580   18.2820  -33.9440 N   0  0  0  0  0  0  0  0  0  0  0  0
   -5.7030   18.9330  -34.6940 O   0  0  0  0  0  0  0  0  0  0  0  0
   -6.5170   16.9130  -34.0660 O   0  0  0  0  0  0  0  0  0  0  0  0
   -8.0250   18.3640  -31.9810 C   0  0  0  0  0  0  0  0  0  0  0  0
   -8.6080   19.3370  -31.2510 N   0  0  0  0  0  0  0  0  0  0  0  0
   -6.3060   22.2370  -30.4020 O   0  0  0  0  0  0  0  0  0  0  0  0
   -4.2310   24.9270  -28.7250 H   0  0  0  0  0  0  0  0  0  0  0  0
   -2.9327   21.9635  -27.3608 H   0  0  0  0  0  0  0  0  0  0  0  0
   -0.8013   21.7146  -26.0906 H   0  0  0  0  0  0  0  0  0  0  0  0
    0.9091   23.5333  -26.1462 H   0  0  0  0  0  0  0  0  0  0  0  0
    0.5009   25.5897  -27.4995 H   0  0  0  0  0  0  0  0  0  0  0  0
   -5.4555   25.2576  -31.3206 H   0  0  0  0  0  0  0  0  0  0  0  0
   -7.9588   24.5274  -32.0482 H   0  0  0  0  0  0  0  0  0  0  0  0
   -9.0983   21.6370  -30.2217 H   0  0  0  0  0  0  0  0  0  0  0  0
   -9.3080   22.3000  -31.8805 H   0  0  0  0  0  0  0  0  0  0  0  0
   -6.9239   21.0963  -33.4081 H   0  0  0  0  0  0  0  0  0  0  0  0
   -8.1420   17.2824  -31.8185 H   0  0  0  0  0  0  0  0  0  0  0  0
  1  2  2  0
  2  3  1  0
  3  4  1  0
  4  5  2  0
  5  6  1  0
  6  7  2  0
  7  8  1  0
  8  9  2  0
  9 10  1  0
  2 11  1  0
 11 12  2  0
 12 13  1  0
 13 14  2  0
 14 15  1  0
 15 16  1  0
 16 17  1  0
 17 18  2  0
 18 19  1  0
 19 20  2  0
 19 21  1  0
 18 22  1  0
 22 23  2  0
 14 24  1  0
  9  4  1  0
 24 11  1  0
 23 16  1  0
  3 25  1  0
  5 26  1  0
  6 27  1  0
  7 28  1  0
  8 29  1  0
 12 30  1  0
 13 31  1  0
 15 32  1  0
 15 33  1  0
 17 34  1  0
 22 35  1  0
M  CHG  3  10  -1  19   1  21  -1
M  END
>  <UniqueID>  (4) 
4

>  <SMILES>  (4) 
O=C(Nc1ccccc1[O-])c1ccc(Cn2cc([N+](=O)[O-])cn2)o1

>  <Energy>  (4) 
96.20230361280053

>  <Genealogy>  (4) 
O=C(Nc1ccccc1[O-])c1ccc(Cn2cc([N+](=O)[O-])cn2)o1 (protonated)
O=C(Nc1ccccc1[O-])c1ccc(Cn2cc([N+](=O)[O-])cn2)o1 (3D coordinates assigned)
O=C(Nc1ccccc1[O-])c1ccc(Cn2cc([N+](=O)[O-])cn2)o1 (optimized conformer: 96.20230361280053 kcal/mol)

>  <smiles>  (4) 
O=C(Nc1ccccc1O)c1ccc(Cn2cc([N+](=O)[O-])cn2)o1

>  <score_type>  (4) 
oracle

>  <origin>  (4) 
adgpu

>  <m_score__min__energy>  (4) 
-11.27

>  <m_primary>  (4) 
energy

$$$$
4:0
     RDKit          3D

 61 64  0  0  0  0  0  0  0  0999 V2000
   -5.1570   25.2970  -30.6060 C   0  0  0  0  0  0  0  0  0  0  0  0
   -3.7640   25.3040  -30.3050 O   0  0  0  0  0  0  0  0  0  0  0  0
   -3.1710   24.5500  -29.2810 C   0  0  0  0  0  0  0  0  0  0  0  0
   -3.7960   23.4160  -28.7220 C   0  0  0  0  0  0  0  0  0  0  0  0
   -3.1650   22.6900  -27.7070 C   0  0  0  0  0  0  0  0  0  0  0  0
   -1.9040   23.0850  -27.2330 C   0  0  0  0  0  0  0  0  0  0  0  0
   -1.2260   22.3070  -26.1320 C   0  0  0  0  0  0  0  0  0  0  0  0
   -0.5090   21.1230  -26.6630 N   0  0  0  0  0  0  0  0  0  0  0  0
    0.2180   21.4480  -27.9250 C   0  0  0  0  0  0  0  0  0  0  0  0
   -0.1190   20.5260  -29.1080 C   0  0  0  0  0  0  0  0  0  0  0  0
   -1.5690   20.3240  -29.1840 N   0  0  0  0  0  0  0  0  0  0  0  0
   -2.2830   20.4950  -30.4220 C   0  0  0  0  0  0  0  0  0  0  0  0
   -3.4630   20.9380  -30.4070 O   0  0  0  0  0  0  0  0  0  0  0  0
   -1.6740   20.1970  -31.6850 N   0  0  0  0  0  0  0  0  0  0  0  0
   -1.9630   19.0510  -32.4990 C   0  0  0  0  0  0  0  0  0  0  0  0
   -3.0430   19.0390  -33.3990 C   0  0  0  0  0  0  0  0  0  0  0  0
   -3.2750   17.9190  -34.2020 C   0  0  0  0  0  0  0  0  0  0  0  0
   -2.4280   16.8070  -34.1260 C   0  0  0  0  0  0  0  0  0  0  0  0
   -2.7210   15.4160  -35.1690 S   0  0  0  0  0  0  0  0  0  0  0  0
   -1.3940   14.8260  -35.5580 O   0  0  0  0  0  0  0  0  0  0  0  0
   -3.4440   15.8480  -36.4160 O   0  0  0  0  0  0  0  0  0  0  0  0
   -3.6680   14.2230  -34.3030 N   0  0  0  0  0  0  0  0  0  0  0  0
   -3.5290   14.4060  -32.8530 C   0  0  0  0  0  0  0  0  0  0  0  0
   -4.6750   15.2820  -32.3710 C   0  0  0  0  0  0  0  0  0  0  0  0
   -5.6860   15.2900  -33.5030 C   0  0  0  0  0  0  0  0  0  0  0  0
   -5.0950   14.4000  -34.5860 C   0  0  0  0  0  0  0  0  0  0  0  0
   -1.3370   16.8250  -33.2440 C   0  0  0  0  0  0  0  0  0  0  0  0
   -1.1060   17.9450  -32.4390 C   0  0  0  0  0  0  0  0  0  0  0  0
   -2.3080   19.9720  -27.9680 C   0  0  0  0  0  0  0  0  0  0  0  0
   -1.3700   19.9190  -26.7550 C   0  0  0  0  0  0  0  0  0  0  0  0
   -1.2850   24.2190  -27.7830 C   0  0  0  0  0  0  0  0  0  0  0  0
   -1.9120   24.9430  -28.8030 C   0  0  0  0  0  0  0  0  0  0  0  0
   -1.2790   26.0580  -29.3450 O   0  0  0  0  0  0  0  0  0  0  0  0
   -5.7344   25.2941  -29.6697 H   0  0  0  0  0  0  0  0  0  0  0  0
   -5.4104   26.1939  -31.1903 H   0  0  0  0  0  0  0  0  0  0  0  0
   -5.4014   24.3976  -31.1903 H   0  0  0  0  0  0  0  0  0  0  0  0
   -4.7850   23.1010  -29.0863 H   0  0  0  0  0  0  0  0  0  0  0  0
   -3.6588   21.8056  -27.2781 H   0  0  0  0  0  0  0  0  0  0  0  0
   -0.5043   22.9631  -25.6234 H   0  0  0  0  0  0  0  0  0  0  0  0
   -1.9987   21.9563  -25.4321 H   0  0  0  0  0  0  0  0  0  0  0  0
   -0.0334   22.4800  -28.2108 H   0  0  0  0  0  0  0  0  0  0  0  0
    1.2888   21.3098  -27.7147 H   0  0  0  0  0  0  0  0  0  0  0  0
    0.2348   20.9867  -30.0421 H   0  0  0  0  0  0  0  0  0  0  0  0
    0.3756   19.5542  -28.9629 H   0  0  0  0  0  0  0  0  0  0  0  0
   -3.7069   19.9131  -33.4713 H   0  0  0  0  0  0  0  0  0  0  0  0
   -4.1274   17.9112  -34.8972 H   0  0  0  0  0  0  0  0  0  0  0  0
   -3.5700   13.4291  -32.3490 H   0  0  0  0  0  0  0  0  0  0  0  0
   -2.5646   14.8817  -32.6214 H   0  0  0  0  0  0  0  0  0  0  0  0
   -5.1230   14.8608  -31.4589 H   0  0  0  0  0  0  0  0  0  0  0  0
   -4.3342   16.2979  -32.1222 H   0  0  0  0  0  0  0  0  0  0  0  0
   -6.6504   14.8877  -33.1593 H   0  0  0  0  0  0  0  0  0  0  0  0
   -5.8756   16.3087  -33.8721 H   0  0  0  0  0  0  0  0  0  0  0  0
   -5.5998   13.4227  -34.5817 H   0  0  0  0  0  0  0  0  0  0  0  0
   -5.2325   14.8616  -35.5750 H   0  0  0  0  0  0  0  0  0  0  0  0
   -0.6630   15.9577  -33.1857 H   0  0  0  0  0  0  0  0  0  0  0  0
   -0.2454   17.9573  -31.7541 H   0  0  0  0  0  0  0  0  0  0  0  0
   -3.0871   20.7274  -27.7884 H   0  0  0  0  0  0  0  0  0  0  0  0
   -2.7610   18.9792  -28.1063 H   0  0  0  0  0  0  0  0  0  0  0  0
   -1.9767   19.8460  -25.8403 H   0  0  0  0  0  0  0  0  0  0  0  0
   -0.7156   19.0424  -26.8707 H   0  0  0  0  0  0  0  0  0  0  0  0
   -0.3013   24.5401  -27.4098 H   0  0  0  0  0  0  0  0  0  0  0  0
  1  2  1  0
  2  3  1  0
  3  4  2  0
  4  5  1  0
  5  6  2  0
  6  7  1  0
  7  8  1  0
  8  9  1  0
  9 10  1  0
 10 11  1  0
 11 12  1  0
 12 13  2  0
 12 14  1  0
 14 15  1  0
 15 16  2  0
 16 17  1  0
 17 18  2  0
 18 19  1  0
 19 20  2  0
 19 21  2  0
 19 22  1  0
 22 23  1  0
 23 24  1  0
 24 25  1  0
 25 26  1  0
 18 27  1  0
 27 28  2  0
 11 29  1  0
 29 30  1  0
  6 31  1  0
 31 32  2  0
 32 33  1  0
 32  3  1  0
 30  8  1  0
 28 15  1  0
 26 22  1  0
  1 34  1  0
  1 35  1  0
  1 36  1  0
  4 37  1  0
  5 38  1  0
  7 39  1  0
  7 40  1  0
  9 41  1  0
  9 42  1  0
 10 43  1  0
 10 44  1  0
 16 45  1  0
 17 46  1  0
 23 47  1  0
 23 48  1  0
 24 49  1  0
 24 50  1  0
 25 51  1  0
 25 52  1  0
 26 53  1  0
 26 54  1  0
 27 55  1  0
 28 56  1  0
 29 57  1  0
 29 58  1  0
 30 59  1  0
 30 60  1  0
 31 61  1  0
M  CHG  2  14  -1  33  -1
M  END
>  <UniqueID>  (5) 
5

>  <SMILES>  (5) 
COc1ccc(CN2CCN(C(=O)[N-]c3ccc(S(=O)(=O)N4CCCC4)cc3)CC2)cc1[O-]

>  <Energy>  (5) 
77.36394327771369

>  <Genealogy>  (5) 
COc1ccc(CN2CCN(C(=O)[N-]c3ccc(S(=O)(=O)N4CCCC4)cc3)CC2)cc1[O-] (protonated)
COc1ccc(CN2CCN(C(=O)[N-]c3ccc(S(=O)(=O)N4CCCC4)cc3)CC2)cc1[O-] (3D coordinates assigned)
COc1ccc(CN2CCN(C(=O)[N-]c3ccc(S(=O)(=O)N4CCCC4)cc3)CC2)cc1[O-] (nonaromatic ring conformer: 77.36394327771369 kcal/mol)

>  <smiles>  (5) 
COc1ccc(CN2CCN(C(=O)Nc3ccc(S(=O)(=O)N4CCCC4)cc3)CC2)cc1O

>  <score_type>  (5) 
oracle

>  <origin>  (5) 
adgpu

>  <m_score__min__energy>  (5) 
-13.07

>  <m_primary>  (5) 
energy

$$$$
5:0
     RDKit          3D

 52 54  0  0  0  0  0  0  0  0999 V2000
   -1.5980   25.3190  -27.6890 C   0  0  0  0  0  0  0  0  0  0  0  0
   -2.1590   24.7400  -28.8640 O   0  0  0  0  0  0  0  0  0  0  0  0
   -2.1270   23.3680  -29.1640 C   0  0  0  0  0  0  0  0  0  0  0  0
   -2.6660   22.3930  -28.3020 C   0  0  0  0  0  0  0  0  0  0  0  0
   -2.5920   21.0390  -28.6410 C   0  0  0  0  0  0  0  0  0  0  0  0
   -1.9880   20.6450  -29.8370 C   0  0  0  0  0  0  0  0  0  0  0  0
   -1.4540   21.6070  -30.7100 C   0  0  0  0  0  0  0  0  0  0  0  0
   -0.7660   21.1900  -31.9800 C   0  0  0  0  0  0  0  0  0  0  0  0
   -1.1510   19.4510  -32.3970 S   0  0  0  0  0  0  0  0  0  0  0  0
   -2.8110   19.7990  -32.9910 C   0  0  0  0  0  0  0  0  0  0  0  0
   -3.2450   21.0390  -33.2820 N   0  0  0  0  0  0  0  0  0  0  0  0
   -4.4870   20.9190  -33.7290 N   0  0  0  0  0  0  0  0  0  0  0  0
   -4.7920   19.6060  -33.7030 C   0  0  0  0  0  0  0  0  0  0  0  0
   -6.1040   19.0580  -34.1850 C   0  0  0  0  0  0  0  0  0  0  0  0
   -7.0940   18.9360  -33.0200 C   0  0  0  0  0  0  0  0  0  0  0  0
   -7.7750   20.2110  -32.7880 N   0  0  0  0  0  0  0  0  0  0  0  0
   -7.1740   21.3610  -32.1560 C   0  0  0  0  0  0  0  0  0  0  0  0
   -6.0580   21.1760  -31.3240 C   0  0  0  0  0  0  0  0  0  0  0  0
   -5.4480   22.2680  -30.6970 C   0  0  0  0  0  0  0  0  0  0  0  0
   -5.9510   23.5620  -30.8850 C   0  0  0  0  0  0  0  0  0  0  0  0
   -5.1700   24.9270  -30.0940 S   0  0  0  0  0  0  0  0  0  0  0  0
   -4.7870   24.5010  -28.4620 N   0  0  0  0  0  0  0  0  0  0  0  0
   -3.9090   25.3010  -30.8250 O   0  0  0  0  0  0  0  0  0  0  0  0
   -6.1010   26.1060  -30.1030 O   0  0  0  0  0  0  0  0  0  0  0  0
   -7.0650   23.7570  -31.7120 C   0  0  0  0  0  0  0  0  0  0  0  0
   -7.6780   22.6650  -32.3380 C   0  0  0  0  0  0  0  0  0  0  0  0
   -3.7620   18.8730  -33.2240 N   0  0  0  0  0  0  0  0  0  0  0  0
   -3.6630   17.4190  -33.1040 C   0  0  0  0  0  0  0  0  0  0  0  0
   -1.5280   22.9660  -30.3650 C   0  0  0  0  0  0  0  0  0  0  0  0
   -2.0487   24.8538  -26.7999 H   0  0  0  0  0  0  0  0  0  0  0  0
   -0.5111   25.1501  -27.6800 H   0  0  0  0  0  0  0  0  0  0  0  0
   -1.8011   26.4000  -27.6800 H   0  0  0  0  0  0  0  0  0  0  0  0
   -3.1460   22.6977  -27.3603 H   0  0  0  0  0  0  0  0  0  0  0  0
   -3.0111   20.2808  -27.9631 H   0  0  0  0  0  0  0  0  0  0  0  0
   -1.9303   19.5775  -30.0962 H   0  0  0  0  0  0  0  0  0  0  0  0
   -1.1032   21.8395  -32.8012 H   0  0  0  0  0  0  0  0  0  0  0  0
    0.3205   21.2823  -31.8353 H   0  0  0  0  0  0  0  0  0  0  0  0
   -6.5214   19.7340  -34.9458 H   0  0  0  0  0  0  0  0  0  0  0  0
   -5.9365   18.0601  -34.6164 H   0  0  0  0  0  0  0  0  0  0  0  0
   -7.8413   18.1652  -33.2596 H   0  0  0  0  0  0  0  0  0  0  0  0
   -6.5401   18.6588  -32.1110 H   0  0  0  0  0  0  0  0  0  0  0  0
   -8.7700   20.2820  -33.1060 H   0  0  0  0  0  0  0  0  0  0  0  0
   -5.6597   20.1633  -31.1637 H   0  0  0  0  0  0  0  0  0  0  0  0
   -4.5698   22.1098  -30.0538 H   0  0  0  0  0  0  0  0  0  0  0  0
   -4.1380   25.2350  -28.0950 H   0  0  0  0  0  0  0  0  0  0  0  0
   -5.6740   24.5680  -27.9110 H   0  0  0  0  0  0  0  0  0  0  0  0
   -7.4594   24.7716  -31.8700 H   0  0  0  0  0  0  0  0  0  0  0  0
   -8.5592   22.8256  -32.9765 H   0  0  0  0  0  0  0  0  0  0  0  0
   -3.6440   17.1393  -32.0403 H   0  0  0  0  0  0  0  0  0  0  0  0
   -4.5314   16.9509  -33.5907 H   0  0  0  0  0  0  0  0  0  0  0  0
   -2.7392   17.0730  -33.5907 H   0  0  0  0  0  0  0  0  0  0  0  0
   -1.1111   23.7234  -31.0451 H   0  0  0  0  0  0  0  0  0  0  0  0
  1  2  1  0
  2  3  1  0
  3  4  2  0
  4  5  1  0
  5  6  2  0
  6  7  1  0
  7  8  1  0
  8  9  1  0
  9 10  1  0
 10 11  2  0
 11 12  1  0
 12 13  2  0
 13 14  1  0
 14 15  1  0
 15 16  1  0
 16 17  1  0
 17 18  2  0
 18 19  1  0
 19 20  2  0
 20 21  1  0
 21 22  1  0
 21 23  2  0
 21 24  2  0
 20 25  1  0
 25 26  2  0
 13 27  1  0
 27 28  1  0
  7 29  2  0
 29  3  1  0
 27 10  1  0
 26 17  1  0
  1 30  1  0
  1 31  1  0
  1 32  1  0
  4 33  1  0
  5 34  1  0
  6 35  1  0
  8 36  1  0
  8 37  1  0
 14 38  1  0
 14 39  1  0
 15 40  1  0
 15 41  1  0
 16 42  1  0
 18 43  1  0
 19 44  1  0
 22 45  1  0
 22 46  1  0
 25 47  1  0
 26 48  1  0
 28 49  1  0
 28 50  1  0
 28 51  1  0
 29 52  1  0
M  END
>  <UniqueID>  (6) 
6

>  <SMILES>  (6) 
COc1cccc(CSc2nnc(CCNc3ccc(S(N)(=O)=O)cc3)n2C)c1

>  <Energy>  (6) 
78.82835295513475

>  <Genealogy>  (6) 
COc1cccc(CSc2nnc(CCNc3ccc(S(N)(=O)=O)cc3)n2C)c1 (3D coordinates assigned)
COc1cccc(CSc2nnc(CCNc3ccc(S(N)(=O)=O)cc3)n2C)c1 (optimized conformer: 78.82835295513475 kcal/mol)

>  <smiles>  (6) 
COc1cccc(CSc2nnc(CCNc3ccc(S(N)(=O)=O)cc3)n2C)c1

>  <score_type>  (6) 
oracle

>  <origin>  (6) 
adgpu

>  <m_score__min__energy>  (6) 
-9.9900000000000002

>  <m_primary>  (6) 
energy

$$$$
6:0
     RDKit          3D

 56 58  0  0  0  0  0  0  0  0999 V2000
   -4.5810   13.6600  -31.2150 C   0  0  0  0  0  0  0  0  0  0  0  0
   -4.8160   14.7890  -32.0290 O   0  0  0  0  0  0  0  0  0  0  0  0
   -4.9130   14.3820  -33.3780 C   0  0  0  0  0  0  0  0  0  0  0  0
   -5.1930   15.6010  -34.2560 C   0  0  0  0  0  0  0  0  0  0  0  0
   -5.5190   16.7760  -33.4440 N   0  0  0  0  0  0  0  0  0  0  0  0
   -5.8050   18.0450  -34.0520 C   0  0  0  0  0  0  0  0  0  0  0  0
   -5.6930   18.1730  -35.3030 O   0  0  0  0  0  0  0  0  0  0  0  0
   -6.2070   19.2180  -33.2380 C   0  0  0  0  0  0  0  0  0  0  0  0
   -5.2110   20.0460  -32.6550 C   0  0  0  0  0  0  0  0  0  0  0  0
   -5.5620   21.1620  -31.8750 C   0  0  0  0  0  0  0  0  0  0  0  0
   -6.9200   21.4350  -31.6920 C   0  0  0  0  0  0  0  0  0  0  0  0
   -7.8850   20.6480  -32.2640 C   0  0  0  0  0  0  0  0  0  0  0  0
   -9.1130   21.1760  -31.9240 C   0  0  0  0  0  0  0  0  0  0  0  0
   -8.8290   22.2870  -31.1400 C   0  0  0  0  0  0  0  0  0  0  0  0
   -7.4900   22.4430  -30.9970 N   0  0  0  0  0  0  0  0  0  0  0  0
   -6.8350   23.5310  -30.2680 C   0  0  0  0  0  0  0  0  0  0  0  0
   -6.0310   24.4310  -31.2190 C   0  0  0  0  0  0  0  0  0  0  0  0
   -5.2750   25.5500  -30.4890 C   0  0  0  0  0  0  0  0  0  0  0  0
   -3.8650   25.3120  -30.4930 O   0  0  0  0  0  0  0  0  0  0  0  0
   -3.2240   24.1850  -29.9550 C   0  0  0  0  0  0  0  0  0  0  0  0
   -3.0530   23.0730  -30.7820 C   0  0  0  0  0  0  0  0  0  0  0  0
   -2.4260   21.9100  -30.3100 C   0  0  0  0  0  0  0  0  0  0  0  0
   -2.2590   20.7290  -31.2310 C   0  0  0  0  0  0  0  0  0  0  0  0
   -1.9470   21.8660  -28.9850 C   0  0  0  0  0  0  0  0  0  0  0  0
   -1.1360   20.4140  -28.3840 Cl  0  0  0  0  0  0  0  0  0  0  0  0
   -2.1130   22.9850  -28.1410 C   0  0  0  0  0  0  0  0  0  0  0  0
   -1.6050   22.9650  -26.7250 C   0  0  0  0  0  0  0  0  0  0  0  0
   -2.7470   24.1380  -28.6340 C   0  0  0  0  0  0  0  0  0  0  0  0
   -7.5730   19.5380  -33.0450 C   0  0  0  0  0  0  0  0  0  0  0  0
   -4.6418   13.9522  -30.1563 H   0  0  0  0  0  0  0  0  0  0  0  0
   -5.3383   12.8909  -31.4272 H   0  0  0  0  0  0  0  0  0  0  0  0
   -3.5797   13.2570  -31.4272 H   0  0  0  0  0  0  0  0  0  0  0  0
   -3.9672   13.9146  -33.6894 H   0  0  0  0  0  0  0  0  0  0  0  0
   -5.7321   13.6556  -33.4851 H   0  0  0  0  0  0  0  0  0  0  0  0
   -4.3009   15.8196  -34.8613 H   0  0  0  0  0  0  0  0  0  0  0  0
   -6.0542   15.3744  -34.9017 H   0  0  0  0  0  0  0  0  0  0  0  0
   -5.4840   16.7000  -32.4040 H   0  0  0  0  0  0  0  0  0  0  0  0
   -4.1487   19.8105  -32.8162 H   0  0  0  0  0  0  0  0  0  0  0  0
   -4.7900   21.8015  -31.4221 H   0  0  0  0  0  0  0  0  0  0  0  0
  -10.1051   20.7981  -32.2121 H   0  0  0  0  0  0  0  0  0  0  0  0
   -9.5867   22.9494  -30.6961 H   0  0  0  0  0  0  0  0  0  0  0  0
   -7.6015   24.1369  -29.7627 H   0  0  0  0  0  0  0  0  0  0  0  0
   -6.1425   23.0920  -29.5347 H   0  0  0  0  0  0  0  0  0  0  0  0
   -5.3014   23.8086  -31.7578 H   0  0  0  0  0  0  0  0  0  0  0  0
   -6.7469   24.9095  -31.9035 H   0  0  0  0  0  0  0  0  0  0  0  0
   -5.4784   26.5071  -30.9917 H   0  0  0  0  0  0  0  0  0  0  0  0
   -5.6196   25.5783  -29.4448 H   0  0  0  0  0  0  0  0  0  0  0  0
   -3.4156   23.1094  -31.8199 H   0  0  0  0  0  0  0  0  0  0  0  0
   -2.1296   19.8140  -30.6342 H   0  0  0  0  0  0  0  0  0  0  0  0
   -3.1520   20.6297  -31.8655 H   0  0  0  0  0  0  0  0  0  0  0  0
   -1.3734   20.8812  -31.8655 H   0  0  0  0  0  0  0  0  0  0  0  0
   -2.4565   22.9985  -26.0295 H   0  0  0  0  0  0  0  0  0  0  0  0
   -1.0289   22.0435  -26.5551 H   0  0  0  0  0  0  0  0  0  0  0  0
   -0.9582   23.8384  -26.5551 H   0  0  0  0  0  0  0  0  0  0  0  0
   -2.8712   25.0130  -27.9790 H   0  0  0  0  0  0  0  0  0  0  0  0
   -8.3661   18.9263  -33.4997 H   0  0  0  0  0  0  0  0  0  0  0  0
  1  2  1  0
  2  3  1  0
  3  4  1  0
  4  5  1  0
  5  6  1  0
  6  7  2  0
  6  8  1  0
  8  9  2  0
  9 10  1  0
 10 11  2  0
 11 12  1  0
 12 13  1  0
 13 14  2  0
 14 15  1  0
 15 16  1  0
 16 17  1  0
 17 18  1  0
 18 19  1  0
 19 20  1  0
 20 21  2  0
 21 22  1  0
 22 23  1  0
 22 24  2  0
 24 25  1  0
 24 26  1  0
 26 27  1  0
 26 28  2  0
 12 29  2  0
 29  8  1  0
 15 11  1  0
 28 20  1  0
  1 30  1  0
  1 31  1  0
  1 32  1  0
  3 33  1  0
  3 34  1  0
  4 35  1  0
  4 36  1  0
  5 37  1  0
  9 38  1  0
 10 39  1  0
 13 40  1  0
 14 41  1  0
 16 42  1  0
 16 43  1  0
 17 44  1  0
 17 45  1  0
 18 46  1  0
 18 47  1  0
 21 48  1  0
 23 49  1  0
 23 50  1  0
 23 51  1  0
 27 52  1  0
 27 53  1  0
 27 54  1  0
 28 55  1  0
 29 56  1  0
M  END
>  <UniqueID>  (7) 
7

>  <SMILES>  (7) 
COCCNC(=O)c1ccc2c(ccn2CCCOc2cc(C)c(Cl)c(C)c2)c1

>  <Energy>  (7) 
86.48347176488419

>  <Genealogy>  (7) 
COCCNC(=O)c1ccc2c(ccn2CCCOc2cc(C)c(Cl)c(C)c2)c1 (3D coordinates assigned)
COCCNC(=O)c1ccc2c(ccn2CCCOc2cc(C)c(Cl)c(C)c2)c1 (optimized conformer: 86.48347176488419 kcal/mol)

>  <smiles>  (7) 
COCCNC(=O)c1ccc2c(ccn2CCCOc2cc(C)c(Cl)c(C)c2)c1

>  <score_type>  (7) 
oracle

>  <origin>  (7) 
adgpu

>  <m_score__min__energy>  (7) 
-9.1199999999999992

>  <m_primary>  (7) 
energy

$$$$
7:0
     RDKit          3D

 53 55  0  0  0  0  0  0  0  0999 V2000
   -5.7200   26.1210  -31.1980 O   0  0  0  0  0  0  0  0  0  0  0  0
   -5.2700   24.9360  -30.3900 S   0  0  0  0  0  0  0  0  0  0  0  0
   -5.6550   25.1630  -28.9550 O   0  0  0  0  0  0  0  0  0  0  0  0
   -3.5400   24.7870  -30.5000 N   0  0  0  0  0  0  0  0  0  0  0  0
   -3.0250   23.8130  -29.5330 C   0  0  0  0  0  0  0  0  0  0  0  0
   -2.6710   24.5280  -28.2140 C   0  0  0  0  0  0  0  0  0  0  0  0
   -1.2280   24.7830  -28.0190 N   0  0  0  0  0  0  0  0  0  0  0  0
   -0.5070   23.6910  -27.3450 C   0  0  0  0  0  0  0  0  0  0  0  0
    1.0100   23.9720  -27.3780 C   0  0  0  0  0  0  0  0  0  0  0  0
    1.3100   25.2840  -27.8260 O   0  0  0  0  0  0  0  0  0  0  0  0
    0.5590   26.2310  -27.0890 C   0  0  0  0  0  0  0  0  0  0  0  0
   -0.9470   26.0850  -27.3840 C   0  0  0  0  0  0  0  0  0  0  0  0
   -6.0630   23.4730  -30.9710 C   0  0  0  0  0  0  0  0  0  0  0  0
   -5.4510   22.2200  -30.8170 C   0  0  0  0  0  0  0  0  0  0  0  0
   -6.1140   21.0600  -31.2240 C   0  0  0  0  0  0  0  0  0  0  0  0
   -7.3940   21.1380  -31.7870 C   0  0  0  0  0  0  0  0  0  0  0  0
   -8.2200   19.6650  -32.2880 S   0  0  0  0  0  0  0  0  0  0  0  0
   -9.5190   20.0110  -32.9620 O   0  0  0  0  0  0  0  0  0  0  0  0
   -8.5170   18.8420  -31.0660 O   0  0  0  0  0  0  0  0  0  0  0  0
   -7.2050   18.7540  -33.3800 N   0  0  0  0  0  0  0  0  0  0  0  0
   -6.5450   17.6480  -32.6500 C   0  0  0  0  0  0  0  0  0  0  0  0
   -5.3280   17.1180  -33.4120 C   0  0  0  0  0  0  0  0  0  0  0  0
   -4.2580   18.2120  -33.5750 C   0  0  0  0  0  0  0  0  0  0  0  0
   -4.8500   19.6310  -33.5450 C   0  0  0  0  0  0  0  0  0  0  0  0
   -6.2760   19.6500  -34.1140 C   0  0  0  0  0  0  0  0  0  0  0  0
   -7.9970   22.3920  -31.9620 C   0  0  0  0  0  0  0  0  0  0  0  0
   -7.3340   23.5530  -31.5560 C   0  0  0  0  0  0  0  0  0  0  0  0
   -3.7921   23.0485  -29.3401 H   0  0  0  0  0  0  0  0  0  0  0  0
   -2.1225   23.3355  -29.9422 H   0  0  0  0  0  0  0  0  0  0  0  0
   -3.1955   25.4948  -28.1966 H   0  0  0  0  0  0  0  0  0  0  0  0
   -2.9805   23.8538  -27.4018 H   0  0  0  0  0  0  0  0  0  0  0  0
   -0.8433   23.6209  -26.3000 H   0  0  0  0  0  0  0  0  0  0  0  0
   -0.7135   22.7432  -27.8636 H   0  0  0  0  0  0  0  0  0  0  0  0
    1.4144   23.8448  -26.3630 H   0  0  0  0  0  0  0  0  0  0  0  0
    1.4655   23.2646  -28.0866 H   0  0  0  0  0  0  0  0  0  0  0  0
    0.7331   26.0719  -26.0146 H   0  0  0  0  0  0  0  0  0  0  0  0
    0.8795   27.2412  -27.3835 H   0  0  0  0  0  0  0  0  0  0  0  0
   -1.5087   26.1560  -26.4409 H   0  0  0  0  0  0  0  0  0  0  0  0
   -1.2533   26.8879  -28.0706 H   0  0  0  0  0  0  0  0  0  0  0  0
   -4.4463   22.1510  -30.3745 H   0  0  0  0  0  0  0  0  0  0  0  0
   -5.6285   20.0805  -31.1018 H   0  0  0  0  0  0  0  0  0  0  0  0
   -6.2182   18.0147  -31.6658 H   0  0  0  0  0  0  0  0  0  0  0  0
   -7.2685   16.8264  -32.5424 H   0  0  0  0  0  0  0  0  0  0  0  0
   -4.8960   16.2727  -32.8562 H   0  0  0  0  0  0  0  0  0  0  0  0
   -5.6544   16.7962  -34.4120 H   0  0  0  0  0  0  0  0  0  0  0  0
   -3.5301   18.1171  -32.7557 H   0  0  0  0  0  0  0  0  0  0  0  0
   -3.7852   18.0702  -34.5580 H   0  0  0  0  0  0  0  0  0  0  0  0
   -4.8740   19.9878  -32.5048 H   0  0  0  0  0  0  0  0  0  0  0  0
   -4.2189   20.2848  -34.1649 H   0  0  0  0  0  0  0  0  0  0  0  0
   -6.6625   20.6783  -34.0572 H   0  0  0  0  0  0  0  0  0  0  0  0
   -6.2213   19.2889  -35.1516 H   0  0  0  0  0  0  0  0  0  0  0  0
   -8.9946   22.4618  -32.4201 H   0  0  0  0  0  0  0  0  0  0  0  0
   -7.8117   24.5339  -31.6961 H   0  0  0  0  0  0  0  0  0  0  0  0
  1  2  2  0
  2  3  2  0
  2  4  1  0
  4  5  1  0
  5  6  1  0
  6  7  1  0
  7  8  1  0
  8  9  1  0
  9 10  1  0
 10 11  1  0
 11 12  1  0
  2 13  1  0
 13 14  2  0
 14 15  1  0
 15 16  2  0
 16 17  1  0
 17 18  2  0
 17 19  2  0
 17 20  1  0
 20 21  1  0
 21 22  1  0
 22 23  1  0
 23 24  1  0
 24 25  1  0
 16 26  1  0
 26 27  2  0
 12  7  1  0
 27 13  1  0
 25 20  1  0
  5 28  1  0
  5 29  1  0
  6 30  1  0
  6 31  1  0
  8 32  1  0
  8 33  1  0
  9 34  1  0
  9 35  1  0
 11 36  1  0
 11 37  1  0
 12 38  1  0
 12 39  1  0
 14 40  1  0
 15 41  1  0
 21 42  1  0
 21 43  1  0
 22 44  1  0
 22 45  1  0
 23 46  1  0
 23 47  1  0
 24 48  1  0
 24 49  1  0
 25 50  1  0
 25 51  1  0
 26 52  1  0
 27 53  1  0
M  CHG  1   4  -1
M  END
>  <UniqueID>  (8) 
8

>  <SMILES>  (8) 
O=S(=O)([N-]CCN1CCOCC1)c1ccc(S(=O)(=O)N2CCCCC2)cc1

>  <Energy>  (8) 
66.37624295304583

>  <Genealogy>  (8) 
O=S(=O)([N-]CCN1CCOCC1)c1ccc(S(=O)(=O)N2CCCCC2)cc1 (protonated)
O=S(=O)([N-]CCN1CCOCC1)c1ccc(S(=O)(=O)N2CCCCC2)cc1 (3D coordinates assigned)
O=S(=O)([N-]CCN1CCOCC1)c1ccc(S(=O)(=O)N2CCCCC2)cc1 (nonaromatic ring conformer: 66.37624295304583 kcal/mol)

>  <smiles>  (8) 
O=S(=O)(NCCN1CCOCC1)c1ccc(S(=O)(=O)N2CCCCC2)cc1

>  <score_type>  (8) 
oracle

>  <origin>  (8) 
adgpu

>  <m_score__min__energy>  (8) 
-10.880000000000001

>  <m_primary>  (8) 
energy

$$$$
8:0
     RDKit          3D

 46 48  0  0  0  0  0  0  0  0999 V2000
   -0.2080   17.4140  -27.1330 N   0  0  0  0  0  0  0  0  0  0  0  0
   -0.8310   18.6750  -27.3930 C   0  0  0  0  0  0  0  0  0  0  0  0
   -2.1070   18.9500  -26.8820 C   0  0  0  0  0  0  0  0  0  0  0  0
   -2.7060   20.1920  -27.1160 C   0  0  0  0  0  0  0  0  0  0  0  0
   -2.0390   21.1640  -27.8730 C   0  0  0  0  0  0  0  0  0  0  0  0
   -2.7620   22.7520  -28.1150 S   0  0  0  0  0  0  0  0  0  0  0  0
   -1.9470   23.7880  -27.3930 O   0  0  0  0  0  0  0  0  0  0  0  0
   -4.1630   22.7750  -27.5720 O   0  0  0  0  0  0  0  0  0  0  0  0
   -2.7750   23.1150  -29.8070 N   0  0  0  0  0  0  0  0  0  0  0  0
   -4.0080   23.2300  -30.5150 C   0  0  0  0  0  0  0  0  0  0  0  0
   -4.7070   22.0700  -30.8680 C   0  0  0  0  0  0  0  0  0  0  0  0
   -5.9560   22.1620  -31.4980 C   0  0  0  0  0  0  0  0  0  0  0  0
   -6.8810   20.7080  -31.8610 S   0  0  0  0  0  0  0  0  0  0  0  0
   -7.4750   20.8200  -33.2360 O   0  0  0  0  0  0  0  0  0  0  0  0
   -8.0050   20.6000  -30.8670 O   0  0  0  0  0  0  0  0  0  0  0  0
   -5.8440   19.3030  -31.7270 N   0  0  0  0  0  0  0  0  0  0  0  0
   -4.8280   19.2260  -32.7970 C   0  0  0  0  0  0  0  0  0  0  0  0
   -5.3940   18.7150  -34.1300 C   0  0  0  0  0  0  0  0  0  0  0  0
   -6.1220   17.3860  -33.9360 C   0  0  0  0  0  0  0  0  0  0  0  0
   -7.1960   17.5110  -32.8570 C   0  0  0  0  0  0  0  0  0  0  0  0
   -6.5980   18.0470  -31.5480 C   0  0  0  0  0  0  0  0  0  0  0  0
   -6.4990   23.4220  -31.7820 C   0  0  0  0  0  0  0  0  0  0  0  0
   -5.7950   24.5810  -31.4440 C   0  0  0  0  0  0  0  0  0  0  0  0
   -4.5530   24.4910  -30.8100 C   0  0  0  0  0  0  0  0  0  0  0  0
   -3.8640   25.6520  -30.4780 O   0  0  0  0  0  0  0  0  0  0  0  0
   -0.7630   20.8890  -28.3840 C   0  0  0  0  0  0  0  0  0  0  0  0
   -0.1620   19.6500  -28.1460 C   0  0  0  0  0  0  0  0  0  0  0  0
   -0.6830   16.6950  -26.5430 H   0  0  0  0  0  0  0  0  0  0  0  0
    0.7270   17.1860  -27.5390 H   0  0  0  0  0  0  0  0  0  0  0  0
   -2.6388   18.1866  -26.2952 H   0  0  0  0  0  0  0  0  0  0  0  0
   -3.7034   20.4062  -26.7046 H   0  0  0  0  0  0  0  0  0  0  0  0
   -4.2747   21.0822  -30.6503 H   0  0  0  0  0  0  0  0  0  0  0  0
   -4.4106   20.2312  -32.9563 H   0  0  0  0  0  0  0  0  0  0  0  0
   -4.0611   18.5085  -32.4699 H   0  0  0  0  0  0  0  0  0  0  0  0
   -6.0996   19.4577  -34.5306 H   0  0  0  0  0  0  0  0  0  0  0  0
   -4.5606   18.5616  -34.8314 H   0  0  0  0  0  0  0  0  0  0  0  0
   -6.5955   17.0919  -34.8843 H   0  0  0  0  0  0  0  0  0  0  0  0
   -5.3920   16.6255  -33.6218 H   0  0  0  0  0  0  0  0  0  0  0  0
   -7.9777   18.2020  -33.2053 H   0  0  0  0  0  0  0  0  0  0  0  0
   -7.6210   16.5144  -32.6670 H   0  0  0  0  0  0  0  0  0  0  0  0
   -7.4177   18.2291  -30.8375 H   0  0  0  0  0  0  0  0  0  0  0  0
   -5.8911   17.2904  -31.1766 H   0  0  0  0  0  0  0  0  0  0  0  0
   -7.4809   23.4991  -32.2718 H   0  0  0  0  0  0  0  0  0  0  0  0
   -6.2203   25.5681  -31.6780 H   0  0  0  0  0  0  0  0  0  0  0  0
   -0.2330   21.6510  -28.9743 H   0  0  0  0  0  0  0  0  0  0  0  0
    0.8389   19.4392  -28.5507 H   0  0  0  0  0  0  0  0  0  0  0  0
  1  2  1  0
  2  3  2  0
  3  4  1  0
  4  5  2  0
  5  6  1  0
  6  7  2  0
  6  8  2  0
  6  9  1  0
  9 10  1  0
 10 11  2  0
 11 12  1  0
 12 13  1  0
 13 14  2  0
 13 15  2  0
 13 16  1  0
 16 17  1  0
 17 18  1  0
 18 19  1  0
 19 20  1  0
 20 21  1  0
 12 22  2  0
 22 23  1  0
 23 24  2  0
 24 25  1  0
  5 26  1  0
 26 27  2  0
 27  2  1  0
 24 10  1  0
 21 16  1  0
  1 28  1  0
  1 29  1  0
  3 30  1  0
  4 31  1  0
 11 32  1  0
 17 33  1  0
 17 34  1  0
 18 35  1  0
 18 36  1  0
 19 37  1  0
 19 38  1  0
 20 39  1  0
 20 40  1  0
 21 41  1  0
 21 42  1  0
 22 43  1  0
 23 44  1  0
 26 45  1  0
 27 46  1  0
M  CHG  2   9  -1  25  -1
M  END
>  <UniqueID>  (9) 
9

>  <SMILES>  (9) 
Nc1ccc(S(=O)(=O)[N-]c2cc(S(=O)(=O)N3CCCCC3)ccc2[O-])cc1

>  <Energy>  (9) 
51.411552816322626

>  <Genealogy>  (9) 
Nc1ccc(S(=O)(=O)[N-]c2cc(S(=O)(=O)N3CCCCC3)ccc2[O-])cc1 (protonated)
Nc1ccc(S(=O)(=O)[N-]c2cc(S(=O)(=O)N3CCCCC3)ccc2[O-])cc1 (3D coordinates assigned)
Nc1ccc(S(=O)(=O)[N-]c2cc(S(=O)(=O)N3CCCCC3)ccc2[O-])cc1 (nonaromatic ring conformer: 51.411552816322626 kcal/mol)

>  <smiles>  (9) 
Nc1ccc(S(=O)(=O)Nc2cc(S(=O)(=O)N3CCCCC3)ccc2O)cc1

>  <score_type>  (9) 
oracle

>  <origin>  (9) 
adgpu

>  <m_score__min__energy>  (9) 
-13.130000000000001

>  <m_primary>  (9) 
energy

$$$$
9:0
     RDKit          3D

 76 80  0  0  0  0  0  0  0  0999 V2000
    2.0170   17.5000  -31.8190 C   0  0  0  0  0  0  0  0  0  0  0  0
    0.5690   17.4890  -31.5610 N   0  0  0  0  0  0  0  0  0  0  0  0
    0.2500   18.2310  -30.3300 C   0  0  0  0  0  0  0  0  0  0  0  0
    0.0850   16.1230  -31.4670 C   0  0  0  0  0  0  0  0  0  0  0  0
    0.4660   15.3940  -30.5600 O   0  0  0  0  0  0  0  0  0  0  0  0
   -0.8390   15.5570  -32.5140 C   0  0  0  0  0  0  0  0  0  0  0  0
   -1.1860   16.5420  -33.4850 O   0  0  0  0  0  0  0  0  0  0  0  0
   -2.4800   17.0410  -33.7110 C   0  0  0  0  0  0  0  0  0  0  0  0
   -3.5840   16.1860  -33.8810 C   0  0  0  0  0  0  0  0  0  0  0  0
   -4.8680   16.7100  -34.0420 C   0  0  0  0  0  0  0  0  0  0  0  0
   -5.0750   18.0960  -34.0270 C   0  0  0  0  0  0  0  0  0  0  0  0
   -6.3840   18.6600  -34.2250 N   0  0  0  0  0  0  0  0  0  0  0  0
   -6.7060   20.0480  -33.8960 C   0  0  0  0  0  0  0  0  0  0  0  0
   -7.6830   20.0860  -32.7590 C   0  0  0  0  0  0  0  0  0  0  0  0
   -8.3910   19.0090  -32.2710 C   0  0  0  0  0  0  0  0  0  0  0  0
   -9.1130   19.3980  -31.2010 N   0  0  0  0  0  0  0  0  0  0  0  0
   -8.8230   20.7070  -31.0550 C   0  0  0  0  0  0  0  0  0  0  0  0
   -7.9450   21.1510  -31.9750 N   0  0  0  0  0  0  0  0  0  0  0  0
   -7.4290   22.5170  -32.0920 C   0  0  0  0  0  0  0  0  0  0  0  0
   -6.0950   22.6390  -31.4020 C   0  0  0  0  0  0  0  0  0  0  0  0
   -4.9130   22.3210  -32.0870 C   0  0  0  0  0  0  0  0  0  0  0  0
   -3.6760   22.4090  -31.4410 C   0  0  0  0  0  0  0  0  0  0  0  0
   -3.6060   22.8140  -30.1000 C   0  0  0  0  0  0  0  0  0  0  0  0
   -2.3410   22.8910  -29.4250 N   0  0  0  0  0  0  0  0  0  0  0  0
   -1.7370   21.6430  -28.9310 C   0  0  0  0  0  0  0  0  0  0  0  0
   -0.2290   21.7850  -28.7070 C   0  0  0  0  0  0  0  0  0  0  0  0
    0.0530   22.9930  -27.8170 C   0  0  0  0  0  0  0  0  0  0  0  0
   -0.3940   24.2850  -28.5020 C   0  0  0  0  0  0  0  0  0  0  0  0
   -1.7790   24.1730  -29.0750 C   0  0  0  0  0  0  0  0  0  0  0  0
   -2.4020   25.2330  -29.3460 O   0  0  0  0  0  0  0  0  0  0  0  0
   -4.7850   23.1510  -29.4190 C   0  0  0  0  0  0  0  0  0  0  0  0
   -6.0200   23.0680  -30.0660 C   0  0  0  0  0  0  0  0  0  0  0  0
   -3.9720   18.9500  -33.8950 C   0  0  0  0  0  0  0  0  0  0  0  0
   -2.6750   18.4320  -33.7480 C   0  0  0  0  0  0  0  0  0  0  0  0
   -1.5260   19.3630  -33.6320 C   0  0  0  0  0  0  0  0  0  0  0  0
   -0.5440   19.4050  -34.6360 C   0  0  0  0  0  0  0  0  0  0  0  0
    0.5270   20.2980  -34.5420 C   0  0  0  0  0  0  0  0  0  0  0  0
    0.6280   21.1560  -33.4470 C   0  0  0  0  0  0  0  0  0  0  0  0
   -0.3420   21.1200  -32.4390 C   0  0  0  0  0  0  0  0  0  0  0  0
   -1.4180   20.2290  -32.5300 C   0  0  0  0  0  0  0  0  0  0  0  0
    2.5599   17.5041  -30.8623 H   0  0  0  0  0  0  0  0  0  0  0  0
    2.2938   16.6039  -32.3938 H   0  0  0  0  0  0  0  0  0  0  0  0
    2.2802   18.4002  -32.3938 H   0  0  0  0  0  0  0  0  0  0  0  0
    0.1020   17.9770  -32.3610 H   0  0  0  0  0  0  0  0  0  0  0  0
    0.5130   17.6192  -29.4545 H   0  0  0  0  0  0  0  0  0  0  0  0
    0.8244   19.1688  -30.3079 H   0  0  0  0  0  0  0  0  0  0  0  0
   -0.8258   18.4594  -30.3079 H   0  0  0  0  0  0  0  0  0  0  0  0
   -0.3379   14.7175  -33.0182 H   0  0  0  0  0  0  0  0  0  0  0  0
   -1.7605   15.2185  -32.0178 H   0  0  0  0  0  0  0  0  0  0  0  0
   -3.4345   15.0962  -33.8871 H   0  0  0  0  0  0  0  0  0  0  0  0
   -5.7222   16.0310  -34.1814 H   0  0  0  0  0  0  0  0  0  0  0  0
   -7.0310   18.1730  -34.8910 H   0  0  0  0  0  0  0  0  0  0  0  0
   -5.7866   20.5774  -33.6055 H   0  0  0  0  0  0  0  0  0  0  0  0
   -7.1521   20.5360  -34.7751 H   0  0  0  0  0  0  0  0  0  0  0  0
   -8.3703   17.9917  -32.6889 H   0  0  0  0  0  0  0  0  0  0  0  0
   -9.2566   21.3433  -30.2695 H   0  0  0  0  0  0  0  0  0  0  0  0
   -7.3104   22.7691  -33.1561 H   0  0  0  0  0  0  0  0  0  0  0  0
   -8.1402   23.2076  -31.6153 H   0  0  0  0  0  0  0  0  0  0  0  0
   -4.9594   22.0006  -33.1383 H   0  0  0  0  0  0  0  0  0  0  0  0
   -2.7541   22.1596  -31.9867 H   0  0  0  0  0  0  0  0  0  0  0  0
   -2.2136   21.3709  -27.9777 H   0  0  0  0  0  0  0  0  0  0  0  0
   -1.8957   20.8644  -29.6917 H   0  0  0  0  0  0  0  0  0  0  0  0
    0.1546   20.8761  -28.2204 H   0  0  0  0  0  0  0  0  0  0  0  0
    0.2694   21.9261  -29.6774 H   0  0  0  0  0  0  0  0  0  0  0  0
   -0.4938   22.8789  -26.8694 H   0  0  0  0  0  0  0  0  0  0  0  0
    1.1353   23.0487  -27.6287 H   0  0  0  0  0  0  0  0  0  0  0  0
   -0.3807   25.1004  -27.7638 H   0  0  0  0  0  0  0  0  0  0  0  0
    0.2999   24.4853  -29.3317 H   0  0  0  0  0  0  0  0  0  0  0  0
   -4.7368   23.4820  -28.3711 H   0  0  0  0  0  0  0  0  0  0  0  0
   -6.9393   23.3400  -29.5266 H   0  0  0  0  0  0  0  0  0  0  0  0
   -4.1239   20.0394  -33.9067 H   0  0  0  0  0  0  0  0  0  0  0  0
   -0.6186   18.7306  -35.5018 H   0  0  0  0  0  0  0  0  0  0  0  0
    1.2913   20.3242  -35.3327 H   0  0  0  0  0  0  0  0  0  0  0  0
    1.4697   21.8606  -33.3758 H   0  0  0  0  0  0  0  0  0  0  0  0
   -0.2588   21.7933  -31.5731 H   0  0  0  0  0  0  0  0  0  0  0  0
   -2.1805   20.2065  -31.7375 H   0  0  0  0  0  0  0  0  0  0  0  0
  1  2  1  0
  2  3  1  0
  2  4  1  0
  4  5  2  0
  4  6  1  0
  6  7  1  0
  7  8  1  0
  8  9  2  0
  9 10  1  0
 10 11  2  0
 11 12  1  0
 12 13  1  0
 13 14  1  0
 14 15  2  0
 15 16  1  0
 16 17  2  0
 17 18  1  0
 18 19  1  0
 19 20  1  0
 20 21  2  0
 21 22  1  0
 22 23  2  0
 23 24  1  0
 24 25  1  0
 25 26  1  0
 26 27  1  0
 27 28  1  0
 28 29  1  0
 29 30  2  0
 23 31  1  0
 31 32  2  0
 11 33  1  0
 33 34  2  0
 34 35  1  0
 35 36  2  0
 36 37  1  0
 37 38  2  0
 38 39  1  0
 39 40  2  0
 34  8  1  0
 40 35  1  0
 18 14  1  0
 32 20  1  0
 29 24  1  0
  1 41  1  0
  1 42  1  0
  1 43  1  0
  2 44  1  0
  3 45  1  0
  3 46  1  0
  3 47  1  0
  6 48  1  0
  6 49  1  0
  9 50  1  0
 10 51  1  0
 12 52  1  0
 13 53  1  0
 13 54  1  0
 15 55  1  0
 17 56  1  0
 19 57  1  0
 19 58  1  0
 21 59  1  0
 22 60  1  0
 25 61  1  0
 25 62  1  0
 26 63  1  0
 26 64  1  0
 27 65  1  0
 27 66  1  0
 28 67  1  0
 28 68  1  0
 31 69  1  0
 32 70  1  0
 33 71  1  0
 36 72  1  0
 37 73  1  0
 38 74  1  0
 39 75  1  0
 40 76  1  0
M  CHG  1   2   1
M  END
>  <UniqueID>  (10) 
10

>  <SMILES>  (10) 
C[NH+](C)C(=O)COc1ccc(NCc2cncn2Cc2ccc(N3CCCCC3=O)cc2)cc1-c1ccccc1

>  <Energy>  (10) 
117.88579359652114

>  <Genealogy>  (10) 
C[NH+](C)C(=O)COc1ccc(NCc2cncn2Cc2ccc(N3CCCCC3=O)cc2)cc1-c1ccccc1 (protonated)
C[NH+](C)C(=O)COc1ccc(NCc2cncn2Cc2ccc(N3CCCCC3=O)cc2)cc1-c1ccccc1 (3D coordinates assigned)
C[NH+](C)C(=O)COc1ccc(NCc2cncn2Cc2ccc(N3CCCCC3=O)cc2)cc1-c1ccccc1 (nonaromatic ring conformer: 117.88579359652114 kcal/mol)

>  <smiles>  (10) 
CN(C)C(=O)COc1ccc(NCc2cncn2Cc2ccc(N3CCCCC3=O)cc2)cc1-c1ccccc1

>  <score_type>  (10) 
oracle

>  <origin>  (10) 
adgpu

>  <m_score__min__energy>  (10) 
-10.210000000000001

>  <m_primary>  (10) 
energy

$$$$
10:0
     RDKit          3D

 45 46  0  0  0  0  0  0  0  0999 V2000
   -0.8150   26.4690  -27.7160 C   0  0  0  0  0  0  0  0  0  0  0  0
   -1.2270   26.0490  -28.9990 O   0  0  0  0  0  0  0  0  0  0  0  0
   -1.4510   24.6520  -29.0120 C   0  0  0  0  0  0  0  0  0  0  0  0
   -2.9390   24.3580  -29.2200 C   0  0  0  0  0  0  0  0  0  0  0  0
   -3.5080   25.2690  -30.2070 N   0  0  0  0  0  0  0  0  0  0  0  0
   -4.9030   25.3270  -30.5250 C   0  0  0  0  0  0  0  0  0  0  0  0
   -5.5270   26.4180  -30.4070 O   0  0  0  0  0  0  0  0  0  0  0  0
   -5.6130   24.1140  -30.9970 C   0  0  0  0  0  0  0  0  0  0  0  0
   -6.9220   23.8480  -30.5710 C   0  0  0  0  0  0  0  0  0  0  0  0
   -7.5940   22.7090  -31.0120 C   0  0  0  0  0  0  0  0  0  0  0  0
   -6.9740   21.8040  -31.8880 C   0  0  0  0  0  0  0  0  0  0  0  0
   -7.7390   20.5840  -32.3300 C   0  0  0  0  0  0  0  0  0  0  0  0
   -5.6530   22.0550  -32.3350 C   0  0  0  0  0  0  0  0  0  0  0  0
   -4.9970   21.1440  -33.2480 N   0  0  0  0  0  0  0  0  0  0  0  0
   -3.9040   20.2530  -32.8490 C   0  0  0  0  0  0  0  0  0  0  0  0
   -4.0950   18.8800  -33.4340 C   0  0  0  0  0  0  0  0  0  0  0  0
   -3.0430   18.2340  -34.0990 C   0  0  0  0  0  0  0  0  0  0  0  0
   -3.2350   17.0060  -34.6500 N   0  0  0  0  0  0  0  0  0  0  0  0
   -4.4380   16.3760  -34.5950 C   0  0  0  0  0  0  0  0  0  0  0  0
   -5.5310   16.9940  -33.9720 C   0  0  0  0  0  0  0  0  0  0  0  0
   -6.8540   16.2960  -33.8800 C   0  0  0  0  0  0  0  0  0  0  0  0
   -5.3480   18.2520  -33.3820 C   0  0  0  0  0  0  0  0  0  0  0  0
   -4.9890   23.2140  -31.8770 C   0  0  0  0  0  0  0  0  0  0  0  0
   -1.3681   25.9051  -26.9504 H   0  0  0  0  0  0  0  0  0  0  0  0
    0.2633   26.2856  -27.5988 H   0  0  0  0  0  0  0  0  0  0  0  0
   -1.0191   27.5435  -27.5988 H   0  0  0  0  0  0  0  0  0  0  0  0
   -0.8730   24.1988  -29.8308 H   0  0  0  0  0  0  0  0  0  0  0  0
   -1.1322   24.2280  -28.0484 H   0  0  0  0  0  0  0  0  0  0  0  0
   -3.0574   23.3228  -29.5726 H   0  0  0  0  0  0  0  0  0  0  0  0
   -3.4654   24.4962  -28.2641 H   0  0  0  0  0  0  0  0  0  0  0  0
   -7.4233   24.5443  -29.8826 H   0  0  0  0  0  0  0  0  0  0  0  0
   -8.6216   22.5172  -30.6697 H   0  0  0  0  0  0  0  0  0  0  0  0
   -8.0869   20.0292  -31.4462 H   0  0  0  0  0  0  0  0  0  0  0  0
   -8.6053   20.8931  -32.9333 H   0  0  0  0  0  0  0  0  0  0  0  0
   -7.0835   19.9388  -32.9333 H   0  0  0  0  0  0  0  0  0  0  0  0
   -5.3130   21.1030  -34.2420 H   0  0  0  0  0  0  0  0  0  0  0  0
   -2.9506   20.6685  -33.2073 H   0  0  0  0  0  0  0  0  0  0  0  0
   -3.8973   20.1717  -31.7520 H   0  0  0  0  0  0  0  0  0  0  0  0
   -2.0601   18.7219  -34.1750 H   0  0  0  0  0  0  0  0  0  0  0  0
   -4.5544   15.3773  -35.0411 H   0  0  0  0  0  0  0  0  0  0  0  0
   -7.1214   16.1549  -32.8224 H   0  0  0  0  0  0  0  0  0  0  0  0
   -7.6249   16.9047  -34.3751 H   0  0  0  0  0  0  0  0  0  0  0  0
   -6.7867   15.3160  -34.3751 H   0  0  0  0  0  0  0  0  0  0  0  0
   -6.1896   18.7483  -32.8766 H   0  0  0  0  0  0  0  0  0  0  0  0
   -3.9623   23.4163  -32.2161 H   0  0  0  0  0  0  0  0  0  0  0  0
  1  2  1  0
  2  3  1  0
  3  4  1  0
  4  5  1  0
  5  6  1  0
  6  7  2  0
  6  8  1  0
  8  9  2  0
  9 10  1  0
 10 11  2  0
 11 12  1  0
 11 13  1  0
 13 14  1  0
 14 15  1  0
 15 16  1  0
 16 17  2  0
 17 18  1  0
 18 19  2  0
 19 20  1  0
 20 21  1  0
 20 22  2  0
 13 23  2  0
 23  8  1  0
 22 16  1  0
  1 24  1  0
  1 25  1  0
  1 26  1  0
  3 27  1  0
  3 28  1  0
  4 29  1  0
  4 30  1  0
  9 31  1  0
 10 32  1  0
 12 33  1  0
 12 34  1  0
 12 35  1  0
 14 36  1  0
 15 37  1  0
 15 38  1  0
 17 39  1  0
 19 40  1  0
 21 41  1  0
 21 42  1  0
 21 43  1  0
 22 44  1  0
 23 45  1  0
M  CHG  1   5  -1
M  END
>  <UniqueID>  (11) 
11

>  <SMILES>  (11) 
COCC[N-]C(=O)c1ccc(C)c(NCc2cncc(C)c2)c1

>  <Energy>  (11) 
44.81361138025359

>  <Genealogy>  (11) 
COCC[N-]C(=O)c1ccc(C)c(NCc2cncc(C)c2)c1 (protonated)
COCC[N-]C(=O)c1ccc(C)c(NCc2cncc(C)c2)c1 (3D coordinates assigned)
COCC[N-]C(=O)c1ccc(C)c(NCc2cncc(C)c2)c1 (optimized conformer: 44.81361138025359 kcal/mol)

>  <smiles>  (11) 
COCCNC(=O)c1ccc(C)c(NCc2cncc(C)c2)c1

>  <score_type>  (11) 
oracle

>  <origin>  (11) 
adgpu

>  <m_score__min__energy>  (11) 
-10.02

>  <m_primary>  (11) 
energy

$$$$
11:0
     RDKit          3D

 42 43  0  0  0  0  0  0  0  0999 V2000
   -3.1822   20.0351  -30.1684 H   0  0  0  0  0  0  0  0  0  0  0  0
   -2.9450   20.8280  -30.8930 C   0  0  0  0  0  0  0  0  0  0  0  0
   -2.9470   20.5140  -32.1980 C   0  0  0  0  0  0  0  0  0  0  0  0
   -2.7102   21.3030  -32.9270 H   0  0  0  0  0  0  0  0  0  0  0  0
   -3.2540   19.1510  -32.7050 C   0  0  0  0  0  0  0  0  0  0  0  0
   -2.2710   18.3710  -33.3430 C   0  0  0  0  0  0  0  0  0  0  0  0
   -1.2599   18.7800  -33.4862 H   0  0  0  0  0  0  0  0  0  0  0  0
   -2.5680   17.0750  -33.7990 C   0  0  0  0  0  0  0  0  0  0  0  0
   -1.6120   16.2720  -34.4420 O   0  0  0  0  0  0  0  0  0  0  0  0
   -1.8150   15.6150  -35.6890 C   0  0  0  0  0  0  0  0  0  0  0  0
   -2.1354   14.5781  -35.5093 H   0  0  0  0  0  0  0  0  0  0  0  0
   -2.5913   16.1448  -36.2605 H   0  0  0  0  0  0  0  0  0  0  0  0
   -0.8751   15.6145  -36.2605 H   0  0  0  0  0  0  0  0  0  0  0  0
   -3.8520   16.5540  -33.6060 C   0  0  0  0  0  0  0  0  0  0  0  0
   -4.1360   15.2680  -34.0600 O   0  0  0  0  0  0  0  0  0  0  0  0
   -4.8460   17.3120  -32.9600 C   0  0  0  0  0  0  0  0  0  0  0  0
   -6.2200   16.7200  -32.7300 C   0  0  0  0  0  0  0  0  0  0  0  0
   -6.3222   16.4642  -31.6651 H   0  0  0  0  0  0  0  0  0  0  0  0
   -6.3149   15.8275  -33.3660 H   0  0  0  0  0  0  0  0  0  0  0  0
   -7.3430   17.6970  -33.1150 C   0  0  0  0  0  0  0  0  0  0  0  0
   -8.0273   17.1914  -33.8122 H   0  0  0  0  0  0  0  0  0  0  0  0
   -6.8759   18.5793  -33.5769 H   0  0  0  0  0  0  0  0  0  0  0  0
   -8.1450   18.1760  -31.8980 C   0  0  0  0  0  0  0  0  0  0  0  0
   -7.4668   18.2762  -31.0377 H   0  0  0  0  0  0  0  0  0  0  0  0
   -8.9323   17.4376  -31.6860 H   0  0  0  0  0  0  0  0  0  0  0  0
   -8.8060   19.5240  -32.1710 C   0  0  0  0  0  0  0  0  0  0  0  0
   -9.0465   20.0145  -31.2162 H   0  0  0  0  0  0  0  0  0  0  0  0
   -8.1176   20.1600  -32.7468 H   0  0  0  0  0  0  0  0  0  0  0  0
   -9.7304   19.3692  -32.7468 H   0  0  0  0  0  0  0  0  0  0  0  0
   -4.5370   18.6100  -32.5030 C   0  0  0  0  0  0  0  0  0  0  0  0
   -5.5100   19.3670  -31.8540 O   0  0  0  0  0  0  0  0  0  0  0  0
   -2.6410   22.1840  -30.3720 C   0  0  0  0  0  0  0  0  0  0  0  0
   -1.4970   22.3550  -29.5730 C   0  0  0  0  0  0  0  0  0  0  0  0
   -0.8562   21.4902  -29.3458 H   0  0  0  0  0  0  0  0  0  0  0  0
   -1.1670   23.6140  -29.0650 C   0  0  0  0  0  0  0  0  0  0  0  0
   -0.2751   23.7335  -28.4324 H   0  0  0  0  0  0  0  0  0  0  0  0
   -1.9660   24.7210  -29.3580 C   0  0  0  0  0  0  0  0  0  0  0  0
   -1.6310   25.9710  -28.8480 O   0  0  0  0  0  0  0  0  0  0  0  0
   -3.0970   24.5710  -30.1670 C   0  0  0  0  0  0  0  0  0  0  0  0
   -3.8890   25.6710  -30.4720 O   0  0  0  0  0  0  0  0  0  0  0  0
   -3.4340   23.3110  -30.6750 C   0  0  0  0  0  0  0  0  0  0  0  0
   -4.3222   23.1988  -31.3141 H   0  0  0  0  0  0  0  0  0  0  0  0
  1  2  1  0
  2  3  2  0
  3  4  1  0
  3  5  1  0
  5  6  2  0
  6  7  1  0
  6  8  1  0
  8  9  1  0
  9 10  1  0
 10 11  1  0
 10 12  1  0
 10 13  1  0
  8 14  2  0
 14 15  1  0
 14 16  1  0
 16 17  1  0
 17 18  1  0
 17 19  1  0
 17 20  1  0
 20 21  1  0
 20 22  1  0
 20 23  1  0
 23 24  1  0
 23 25  1  0
 23 26  1  0
 26 27  1  0
 26 28  1  0
 26 29  1  0
 16 30  2  0
 30 31  1  0
  2 32  1  0
 32 33  2  0
 33 34  1  0
 33 35  1  0
 35 36  1  0
 35 37  2  0
 37 38  1  0
 37 39  1  0
 39 40  1  0
 39 41  2  0
 41 42  1  0
 30  5  1  0
 41 32  1  0
M  CHG  4  15  -1  31  -1  38  -1  40  -1
M  END
>  <UniqueID>  (12) 
12

>  <SMILES>  (12) 
CCCCc1c([O-])c(/C=C/c2ccc([O-])c([O-])c2)cc(OC)c1[O-]

>  <Energy>  (12) 
42.89857341575966

>  <Genealogy>  (12) 
CCCCc1c([O-])c(C=Cc2ccc([O-])c([O-])c2)cc(OC)c1[O-] (protonated)
CCCCc1c([O-])c(/C=C/c2ccc([O-])c([O-])c2)cc(OC)c1[O-] (cis-trans isomerization)
CCCCc1c([O-])c(/C=C/c2ccc([O-])c([O-])c2)cc(OC)c1[O-] (3D coordinates assigned)
CCCCc1c([O-])c(/C=C/c2ccc([O-])c([O-])c2)cc(OC)c1[O-] (optimized conformer: 42.89857341575966 kcal/mol)

>  <smiles>  (12) 
CCCCc1c(O)c(C=Cc2ccc(O)c(O)c2)cc(OC)c1O

>  <score_type>  (12) 
oracle

>  <origin>  (12) 
adgpu

>  <m_score__min__energy>  (12) 
-11.640000000000001

>  <m_primary>  (12) 
energy

$$$$
12:0
     RDKit          3D

 55 58  0  0  0  0  0  0  0  0999 V2000
   -4.5340   16.3200  -34.9420 C   0  0  0  0  0  0  0  0  0  0  0  0
   -5.6960   17.1740  -34.4210 C   0  0  1  0  0  0  0  0  0  0  0  0
   -6.1680   16.6820  -33.0340 C   0  0  0  0  0  0  0  0  0  0  0  0
   -6.9050   17.7770  -32.2340 C   0  0  0  0  0  0  0  0  0  0  0  0
   -7.5110   18.7810  -33.1280 N   0  0  1  0  0  0  0  0  0  0  0  0
   -8.5020   19.8800  -32.2020 S   0  0  0  0  0  0  0  0  0  0  0  0
   -9.6120   20.4160  -33.0640 O   0  0  0  0  0  0  0  0  0  0  0  0
   -9.1120   19.1600  -31.0300 O   0  0  0  0  0  0  0  0  0  0  0  0
   -7.5230   21.2320  -31.6360 C   0  0  0  0  0  0  0  0  0  0  0  0
   -8.0640   22.5190  -31.5610 C   0  0  0  0  0  0  0  0  0  0  0  0
   -7.2900   23.5830  -31.0900 C   0  0  0  0  0  0  0  0  0  0  0  0
   -5.9600   23.3720  -30.6760 C   0  0  0  0  0  0  0  0  0  0  0  0
   -5.4170   22.0700  -30.7490 C   0  0  0  0  0  0  0  0  0  0  0  0
   -6.2050   21.0090  -31.2260 C   0  0  0  0  0  0  0  0  0  0  0  0
   -4.0140   21.8440  -30.3400 C   0  0  0  0  0  0  0  0  0  0  0  0
   -3.5340   20.6770  -30.3430 O   0  0  0  0  0  0  0  0  0  0  0  0
   -3.2100   22.9950  -29.8620 C   0  0  0  0  0  0  0  0  0  0  0  0
   -1.8630   22.9910  -29.7800 C   0  0  0  0  0  0  0  0  0  0  0  0
   -0.9730   21.9770  -30.3780 C   0  0  0  0  0  0  0  0  0  0  0  0
   -0.3130   21.0220  -29.5860 C   0  0  0  0  0  0  0  0  0  0  0  0
    0.4730   20.0470  -30.2030 C   0  0  0  0  0  0  0  0  0  0  0  0
    0.5790   20.0180  -31.5950 C   0  0  0  0  0  0  0  0  0  0  0  0
   -0.1160   20.9630  -32.3520 C   0  0  0  0  0  0  0  0  0  0  0  0
   -0.8760   21.9060  -31.7340 N   0  0  0  0  0  0  0  0  0  0  0  0
   -3.9850   24.1680  -29.3210 C   0  0  0  0  0  0  0  0  0  0  0  0
   -5.1440   24.4620  -30.1810 N   0  0  0  0  0  0  0  0  0  0  0  0
   -5.4730   25.8560  -30.5020 C   0  0  0  0  0  0  0  0  0  0  0  0
   -6.4810   19.5390  -33.8800 C   0  0  0  0  0  0  0  0  0  0  0  0
   -5.3050   18.6570  -34.3600 C   0  0  0  0  0  0  0  0  0  0  0  0
   -3.9722   15.9071  -34.0912 H   0  0  0  0  0  0  0  0  0  0  0  0
   -4.9300   15.4964  -35.5543 H   0  0  0  0  0  0  0  0  0  0  0  0
   -3.8662   16.9438  -35.5543 H   0  0  0  0  0  0  0  0  0  0  0  0
   -6.5323   17.0665  -35.1274 H   0  0  0  0  0  0  0  0  0  0  0  0
   -6.8497   15.8304  -33.1757 H   0  0  0  0  0  0  0  0  0  0  0  0
   -5.2740   16.3957  -32.4605 H   0  0  0  0  0  0  0  0  0  0  0  0
   -7.6979   17.3083  -31.6326 H   0  0  0  0  0  0  0  0  0  0  0  0
   -6.1738   18.2851  -31.5882 H   0  0  0  0  0  0  0  0  0  0  0  0
   -8.1470   18.2970  -33.8060 H   0  0  0  0  0  0  0  0  0  0  0  0
   -9.1037   22.6949  -31.8742 H   0  0  0  0  0  0  0  0  0  0  0  0
   -7.7226   24.5932  -31.0421 H   0  0  0  0  0  0  0  0  0  0  0  0
   -5.7817   19.9950  -31.2773 H   0  0  0  0  0  0  0  0  0  0  0  0
   -1.3892   23.8115  -29.2212 H   0  0  0  0  0  0  0  0  0  0  0  0
   -0.4147   21.0425  -28.4909 H   0  0  0  0  0  0  0  0  0  0  0  0
    1.0076   19.3033  -29.5939 H   0  0  0  0  0  0  0  0  0  0  0  0
    1.2031   19.2591  -32.0896 H   0  0  0  0  0  0  0  0  0  0  0  0
   -0.0487   20.9447  -33.4498 H   0  0  0  0  0  0  0  0  0  0  0  0
   -3.3284   25.0498  -29.2846 H   0  0  0  0  0  0  0  0  0  0  0  0
   -4.3450   23.9211  -28.3113 H   0  0  0  0  0  0  0  0  0  0  0  0
   -5.6073   26.4250  -29.5702 H   0  0  0  0  0  0  0  0  0  0  0  0
   -4.6550   26.3002  -31.0882 H   0  0  0  0  0  0  0  0  0  0  0  0
   -6.4033   25.8876  -31.0882 H   0  0  0  0  0  0  0  0  0  0  0  0
   -6.9567   19.9966  -34.7600 H   0  0  0  0  0  0  0  0  0  0  0  0
   -6.0657   20.2934  -33.1956 H   0  0  0  0  0  0  0  0  0  0  0  0
   -4.9987   18.9865  -35.3638 H   0  0  0  0  0  0  0  0  0  0  0  0
   -4.4796   18.7648  -33.6409 H   0  0  0  0  0  0  0  0  0  0  0  0
  1  2  1  0
  2  3  1  0
  3  4  1  0
  4  5  1  0
  5  6  1  0
  6  7  2  0
  6  8  2  0
  6  9  1  0
  9 10  2  0
 10 11  1  0
 11 12  2  0
 12 13  1  0
 13 14  2  0
 13 15  1  0
 15 16  2  0
 15 17  1  0
 17 18  2  3
 18 19  1  0
 19 20  2  0
 20 21  1  0
 21 22  2  0
 22 23  1  0
 23 24  2  0
 17 25  1  0
 25 26  1  0
 26 27  1  0
  5 28  1  0
 28 29  1  0
 29  2  1  0
 14  9  1  0
 24 19  1  0
 26 12  1  0
  1 30  1  0
  1 31  1  0
  1 32  1  0
  2 33  1  1
  3 34  1  0
  3 35  1  0
  4 36  1  0
  4 37  1  0
  5 38  1  1
 10 39  1  0
 11 40  1  0
 14 41  1  0
 18 42  1  0
 20 43  1  0
 21 44  1  0
 22 45  1  0
 23 46  1  0
 25 47  1  0
 25 48  1  0
 27 49  1  0
 27 50  1  0
 27 51  1  0
 28 52  1  0
 28 53  1  0
 29 54  1  0
 29 55  1  0
M  CHG  1   5   1
M  END
>  <UniqueID>  (13) 
13

>  <SMILES>  (13) 
CC1CC[NH+](S(=O)(=O)c2ccc3c(c2)C(=O)C(=Cc2ccccn2)CN3C)CC1

>  <Energy>  (13) 
72.08072597266971

>  <Genealogy>  (13) 
CC1CC[NH+](S(=O)(=O)c2ccc3c(c2)C(=O)C(=Cc2ccccn2)CN3C)CC1 (protonated)
CC1CC[NH+](S(=O)(=O)c2ccc3c(c2)C(=O)C(=Cc2ccccn2)CN3C)CC1 (3D coordinates assigned)
CC1CC[NH+](S(=O)(=O)c2ccc3c(c2)C(=O)C(=Cc2ccccn2)CN3C)CC1 (nonaromatic ring conformer: 72.08072597266971 kcal/mol)

>  <smiles>  (13) 
CC1CCN(S(=O)(=O)c2ccc3c(c2)C(=O)C(=Cc2ccccn2)CN3C)CC1

>  <score_type>  (13) 
oracle

>  <origin>  (13) 
adgpu

>  <m_score__min__energy>  (13) 
-9.3300000000000001

>  <m_primary>  (13) 
energy

$$$$
13:0
     RDKit          3D

 48 51  0  0  0  0  0  0  0  0999 V2000
   -7.9230   19.3980  -32.2840 C   0  0  0  0  0  0  0  0  0  0  0  0
   -6.6810   18.7390  -32.8240 C   0  0  0  0  0  0  0  0  0  0  0  0
   -6.8000   17.4670  -33.4300 C   0  0  0  0  0  0  0  0  0  0  0  0
   -5.6550   16.8730  -33.9470 C   0  0  0  0  0  0  0  0  0  0  0  0
   -4.4410   17.4680  -33.8770 C   0  0  0  0  0  0  0  0  0  0  0  0
   -4.2630   18.7100  -33.2790 C   0  0  0  0  0  0  0  0  0  0  0  0
   -5.3920   19.3570  -32.7280 C   0  0  0  0  0  0  0  0  0  0  0  0
   -5.2040   20.6720  -32.0750 C   0  0  0  0  0  0  0  0  0  0  0  0
   -5.6980   21.8430  -32.6720 C   0  0  0  0  0  0  0  0  0  0  0  0
   -5.4930   23.0840  -32.0620 C   0  0  0  0  0  0  0  0  0  0  0  0
   -4.8040   23.1670  -30.8460 C   0  0  0  0  0  0  0  0  0  0  0  0
   -4.5150   24.7430  -30.1170 S   0  0  0  0  0  0  0  0  0  0  0  0
   -5.3230   24.9150  -28.8610 O   0  0  0  0  0  0  0  0  0  0  0  0
   -4.9060   25.8120  -31.0980 O   0  0  0  0  0  0  0  0  0  0  0  0
   -2.8310   24.9040  -29.7390 N   0  0  0  0  0  0  0  0  0  0  0  0
   -1.9570   23.8300  -29.3560 C   0  0  0  0  0  0  0  0  0  0  0  0
   -1.5500   22.8510  -30.2830 C   0  0  0  0  0  0  0  0  0  0  0  0
   -0.7220   21.8000  -29.8860 C   0  0  0  0  0  0  0  0  0  0  0  0
   -0.2900   21.7110  -28.5640 C   0  0  0  0  0  0  0  0  0  0  0  0
   -0.6790   22.6770  -27.6340 C   0  0  0  0  0  0  0  0  0  0  0  0
   -1.5090   23.7430  -28.0220 C   0  0  0  0  0  0  0  0  0  0  0  0
   -2.0020   24.9590  -26.8340 S   0  0  0  0  0  0  0  0  0  0  0  0
   -3.7580   24.9440  -26.5290 C   0  0  0  0  0  0  0  0  0  0  0  0
   -1.3040   24.6900  -25.5320 O   0  0  0  0  0  0  0  0  0  0  0  0
   -1.6130   26.3210  -27.3380 O   0  0  0  0  0  0  0  0  0  0  0  0
   -4.3320   21.9980  -30.2330 C   0  0  0  0  0  0  0  0  0  0  0  0
   -4.5320   20.7580  -30.8450 C   0  0  0  0  0  0  0  0  0  0  0  0
   -3.4940   16.6560  -34.4700 O   0  0  0  0  0  0  0  0  0  0  0  0
   -4.1550   15.4750  -34.9430 C   0  0  0  0  0  0  0  0  0  0  0  0
   -5.5350   15.6560  -34.5890 O   0  0  0  0  0  0  0  0  0  0  0  0
   -7.8969   19.3842  -31.1844 H   0  0  0  0  0  0  0  0  0  0  0  0
   -7.9686   20.4390  -32.6366 H   0  0  0  0  0  0  0  0  0  0  0  0
   -8.8106   18.8522  -32.6366 H   0  0  0  0  0  0  0  0  0  0  0  0
   -7.7745   16.9603  -33.4907 H   0  0  0  0  0  0  0  0  0  0  0  0
   -3.2683   19.1776  -33.2357 H   0  0  0  0  0  0  0  0  0  0  0  0
   -6.2481   21.7836  -33.6227 H   0  0  0  0  0  0  0  0  0  0  0  0
   -5.8745   23.9988  -32.5392 H   0  0  0  0  0  0  0  0  0  0  0  0
   -1.8873   22.9152  -31.3280 H   0  0  0  0  0  0  0  0  0  0  0  0
   -0.4098   21.0405  -30.6179 H   0  0  0  0  0  0  0  0  0  0  0  0
    0.3583   20.8786  -28.2528 H   0  0  0  0  0  0  0  0  0  0  0  0
   -0.3341   22.6035  -26.5921 H   0  0  0  0  0  0  0  0  0  0  0  0
   -3.9418   24.9424  -25.4445 H   0  0  0  0  0  0  0  0  0  0  0  0
   -4.2156   25.8383  -26.9772 H   0  0  0  0  0  0  0  0  0  0  0  0
   -4.2003   24.0420  -26.9772 H   0  0  0  0  0  0  0  0  0  0  0  0
   -3.8040   22.0570  -29.2698 H   0  0  0  0  0  0  0  0  0  0  0  0
   -4.1606   19.8431  -30.3601 H   0  0  0  0  0  0  0  0  0  0  0  0
   -4.0445   15.3802  -36.0333 H   0  0  0  0  0  0  0  0  0  0  0  0
   -3.7317   14.5598  -34.5034 H   0  0  0  0  0  0  0  0  0  0  0  0
  1  2  1  0
  2  3  2  0
  3  4  1  0
  4  5  2  0
  5  6  1  0
  6  7  2  0
  7  8  1  0
  8  9  2  0
  9 10  1  0
 10 11  2  0
 11 12  1  0
 12 13  2  0
 12 14  2  0
 12 15  1  0
 15 16  1  0
 16 17  2  0
 17 18  1  0
 18 19  2  0
 19 20  1  0
 20 21  2  0
 21 22  1  0
 22 23  1  0
 22 24  2  0
 22 25  2  0
 11 26  1  0
 26 27  2  0
  5 28  1  0
 28 29  1  0
 29 30  1  0
  7  2  1  0
 27  8  1  0
 30  4  1  0
 21 16  1  0
  1 31  1  0
  1 32  1  0
  1 33  1  0
  3 34  1  0
  6 35  1  0
  9 36  1  0
 10 37  1  0
 17 38  1  0
 18 39  1  0
 19 40  1  0
 20 41  1  0
 23 42  1  0
 23 43  1  0
 23 44  1  0
 26 45  1  0
 27 46  1  0
 29 47  1  0
 29 48  1  0
M  CHG  1  15  -1
M  END
>  <UniqueID>  (14) 
14

>  <SMILES>  (14) 
Cc1cc2c(cc1-c1ccc(S(=O)(=O)[N-]c3ccccc3S(C)(=O)=O)cc1)OCO2

>  <Energy>  (14) 
88.6473073097651

>  <Genealogy>  (14) 
Cc1cc2c(cc1-c1ccc(S(=O)(=O)[N-]c3ccccc3S(C)(=O)=O)cc1)OCO2 (protonated)
Cc1cc2c(cc1-c1ccc(S(=O)(=O)[N-]c3ccccc3S(C)(=O)=O)cc1)OCO2 (3D coordinates assigned)
Cc1cc2c(cc1-c1ccc(S(=O)(=O)[N-]c3ccccc3S(C)(=O)=O)cc1)OCO2 (nonaromatic ring conformer: 88.6473073097651 kcal/mol)

>  <smiles>  (14) 
Cc1cc2c(cc1-c1ccc(S(=O)(=O)Nc3ccccc3S(C)(=O)=O)cc1)OCO2

>  <score_type>  (14) 
oracle

>  <origin>  (14) 
adgpu

>  <m_score__min__energy>  (14) 
-11.359999999999999

>  <m_primary>  (14) 
energy

$$$$
14:0
     RDKit          3D

 46 49  0  0  0  0  0  0  0  0999 V2000
   -7.6190   17.7440  -33.2610 O   0  0  0  0  0  0  0  0  0  0  0  0
   -7.4560   18.8760  -32.7330 C   0  0  0  0  0  0  0  0  0  0  0  0
   -8.3360   19.3080  -31.5990 C   0  0  0  0  0  0  0  0  0  0  0  0
   -8.8320   21.0400  -31.8540 S   0  0  0  0  0  0  0  0  0  0  0  0
   -7.1440   21.6670  -31.8700 C   0  0  0  0  0  0  0  0  0  0  0  0
   -6.8390   22.8450  -31.1790 C   0  0  0  0  0  0  0  0  0  0  0  0
   -5.5520   23.3960  -31.2560 C   0  0  0  0  0  0  0  0  0  0  0  0
   -5.1880   24.8830  -30.3880 S   0  0  0  0  0  0  0  0  0  0  0  0
   -5.9080   24.9260  -29.0690 O   0  0  0  0  0  0  0  0  0  0  0  0
   -5.6360   26.0520  -31.2190 O   0  0  0  0  0  0  0  0  0  0  0  0
   -3.4820   25.0030  -30.1130 N   0  0  0  0  0  0  0  0  0  0  0  0
   -2.6560   23.9620  -29.5710 C   0  0  0  0  0  0  0  0  0  0  0  0
   -3.1670   22.6890  -29.2570 C   0  0  0  0  0  0  0  0  0  0  0  0
   -2.3240   21.6990  -28.7400 C   0  0  0  0  0  0  0  0  0  0  0  0
   -0.9610   21.9650  -28.5190 C   0  0  0  0  0  0  0  0  0  0  0  0
   -0.0710   20.9050  -27.9880 C   0  0  0  0  0  0  0  0  0  0  0  0
    0.7600   21.1930  -27.0860 O   0  0  0  0  0  0  0  0  0  0  0  0
   -0.1240   19.5540  -28.4830 N   0  0  0  0  0  0  0  0  0  0  0  0
   -0.1700   18.4240  -27.5520 C   0  0  0  0  0  0  0  0  0  0  0  0
    0.7180   17.2930  -28.0800 C   0  0  0  0  0  0  0  0  0  0  0  0
    0.3850   16.9740  -29.4200 O   0  0  0  0  0  0  0  0  0  0  0  0
    0.6740   18.0750  -30.2620 C   0  0  0  0  0  0  0  0  0  0  0  0
   -0.2190   19.2720  -29.9180 C   0  0  0  0  0  0  0  0  0  0  0  0
   -0.4530   23.2340  -28.8490 C   0  0  0  0  0  0  0  0  0  0  0  0
   -1.2970   24.2210  -29.3660 C   0  0  0  0  0  0  0  0  0  0  0  0
   -4.5700   22.7600  -32.0300 C   0  0  0  0  0  0  0  0  0  0  0  0
   -4.8670   21.5720  -32.7050 C   0  0  0  0  0  0  0  0  0  0  0  0
   -6.1440   21.0100  -32.6110 C   0  0  0  0  0  0  0  0  0  0  0  0
   -6.3850   19.7170  -33.1780 N   0  0  0  0  0  0  0  0  0  0  0  0
   -9.2314   18.6700  -31.5643 H   0  0  0  0  0  0  0  0  0  0  0  0
   -7.7879   19.2162  -30.6497 H   0  0  0  0  0  0  0  0  0  0  0  0
   -7.6119   23.3406  -30.5731 H   0  0  0  0  0  0  0  0  0  0  0  0
   -4.2331   22.4714  -29.4186 H   0  0  0  0  0  0  0  0  0  0  0  0
   -2.7309   20.7045  -28.5045 H   0  0  0  0  0  0  0  0  0  0  0  0
    0.1942   18.7464  -26.5654 H   0  0  0  0  0  0  0  0  0  0  0  0
   -1.2059   18.0654  -27.4604 H   0  0  0  0  0  0  0  0  0  0  0  0
    1.7703   17.6105  -28.0359 H   0  0  0  0  0  0  0  0  0  0  0  0
    0.5601   16.4009  -27.4561 H   0  0  0  0  0  0  0  0  0  0  0  0
    1.7279   18.3620  -30.1315 H   0  0  0  0  0  0  0  0  0  0  0  0
    0.4836   17.7811  -31.3048 H   0  0  0  0  0  0  0  0  0  0  0  0
    0.1123   20.1527  -30.4878 H   0  0  0  0  0  0  0  0  0  0  0  0
   -1.2620   19.0389  -30.1783 H   0  0  0  0  0  0  0  0  0  0  0  0
    0.6149   23.4512  -28.6994 H   0  0  0  0  0  0  0  0  0  0  0  0
   -0.8881   25.2116  -29.6142 H   0  0  0  0  0  0  0  0  0  0  0  0
   -3.5635   23.1971  -32.1061 H   0  0  0  0  0  0  0  0  0  0  0  0
   -4.0938   21.0780  -33.3118 H   0  0  0  0  0  0  0  0  0  0  0  0
  1  2  2  0
  2  3  1  0
  3  4  1  0
  4  5  1  0
  5  6  2  0
  6  7  1  0
  7  8  1  0
  8  9  2  0
  8 10  2  0
  8 11  1  0
 11 12  1  0
 12 13  2  0
 13 14  1  0
 14 15  2  0
 15 16  1  0
 16 17  2  0
 16 18  1  0
 18 19  1  0
 19 20  1  0
 20 21  1  0
 21 22  1  0
 22 23  1  0
 15 24  1  0
 24 25  2  0
  7 26  2  0
 26 27  1  0
 27 28  2  0
 28 29  1  0
 29  2  1  0
 28  5  1  0
 25 12  1  0
 23 18  1  0
  3 30  1  0
  3 31  1  0
  6 32  1  0
 13 33  1  0
 14 34  1  0
 19 35  1  0
 19 36  1  0
 20 37  1  0
 20 38  1  0
 22 39  1  0
 22 40  1  0
 23 41  1  0
 23 42  1  0
 24 43  1  0
 25 44  1  0
 26 45  1  0
 27 46  1  0
M  CHG  2  11  -1  29  -1
M  END
>  <UniqueID>  (15) 
15

>  <SMILES>  (15) 
O=C1CSc2cc(S(=O)(=O)[N-]c3ccc(C(=O)N4CCOCC4)cc3)ccc2[N-]1

>  <Energy>  (15) 
63.29700508635965

>  <Genealogy>  (15) 
O=C1CSc2cc(S(=O)(=O)[N-]c3ccc(C(=O)N4CCOCC4)cc3)ccc2[N-]1 (protonated)
O=C1CSc2cc(S(=O)(=O)[N-]c3ccc(C(=O)N4CCOCC4)cc3)ccc2[N-]1 (3D coordinates assigned)
O=C1CSc2cc(S(=O)(=O)[N-]c3ccc(C(=O)N4CCOCC4)cc3)ccc2[N-]1 (nonaromatic ring conformer: 63.29700508635965 kcal/mol)

>  <smiles>  (15) 
O=C1CSc2cc(S(=O)(=O)Nc3ccc(C(=O)N4CCOCC4)cc3)ccc2N1

>  <score_type>  (15) 
oracle

>  <origin>  (15) 
adgpu

>  <m_score__min__energy>  (15) 
-11.130000000000001

>  <m_primary>  (15) 
energy

$$$$
15:0
     RDKit          3D

 45 47  0  0  0  0  0  0  0  0999 V2000
   -2.9280   19.5830  -33.6600 C   0  0  0  0  0  0  0  0  0  0  0  0
   -3.7690   20.7690  -33.3130 C   0  0  0  0  0  0  0  0  0  0  0  0
   -3.2640   21.9220  -33.3780 O   0  0  0  0  0  0  0  0  0  0  0  0
   -5.1620   20.6090  -32.9900 N   0  0  0  0  0  0  0  0  0  0  0  0
   -5.9180   19.5850  -33.7320 C   0  0  0  0  0  0  0  0  0  0  0  0
   -7.2000   19.2020  -32.9910 C   0  0  0  0  0  0  0  0  0  0  0  0
   -7.9280   20.3700  -32.6280 O   0  0  0  0  0  0  0  0  0  0  0  0
   -7.2780   21.4810  -32.0870 C   0  0  0  0  0  0  0  0  0  0  0  0
   -8.0150   22.4540  -31.4070 C   0  0  0  0  0  0  0  0  0  0  0  0
   -7.3650   23.5330  -30.8060 C   0  0  0  0  0  0  0  0  0  0  0  0
   -5.9710   23.6430  -30.8790 C   0  0  0  0  0  0  0  0  0  0  0  0
   -5.1320   24.9660  -30.0700 S   0  0  0  0  0  0  0  0  0  0  0  0
   -3.8620   25.2660  -30.8140 O   0  0  0  0  0  0  0  0  0  0  0  0
   -5.9870   26.2030  -30.0680 O   0  0  0  0  0  0  0  0  0  0  0  0
   -4.7470   24.5240  -28.4340 N   0  0  0  0  0  0  0  0  0  0  0  0
   -3.2940   24.4760  -28.2620 C   0  0  0  0  0  0  0  0  0  0  0  0
   -2.7410   23.2710  -28.9700 C   0  0  0  0  0  0  0  0  0  0  0  0
   -3.3790   22.0260  -28.8520 C   0  0  0  0  0  0  0  0  0  0  0  0
   -2.8470   20.8970  -29.4820 C   0  0  0  0  0  0  0  0  0  0  0  0
   -1.6540   20.9930  -30.2170 C   0  0  0  0  0  0  0  0  0  0  0  0
   -1.1040   19.7900  -30.9230 C   0  0  0  0  0  0  0  0  0  0  0  0
   -1.0170   22.2370  -30.3350 C   0  0  0  0  0  0  0  0  0  0  0  0
   -1.5500   23.3660  -29.7060 C   0  0  0  0  0  0  0  0  0  0  0  0
   -5.2320   22.6770  -31.5740 C   0  0  0  0  0  0  0  0  0  0  0  0
   -5.8820   21.6040  -32.2180 C   0  0  0  0  0  0  0  0  0  0  0  0
   -2.5824   19.0957  -32.7364 H   0  0  0  0  0  0  0  0  0  0  0  0
   -3.5240   18.8707  -34.2495 H   0  0  0  0  0  0  0  0  0  0  0  0
   -2.0587   19.9098  -34.2495 H   0  0  0  0  0  0  0  0  0  0  0  0
   -6.1811   19.9811  -34.7239 H   0  0  0  0  0  0  0  0  0  0  0  0
   -5.2889   18.6878  -33.8283 H   0  0  0  0  0  0  0  0  0  0  0  0
   -7.8234   18.5743  -33.6448 H   0  0  0  0  0  0  0  0  0  0  0  0
   -6.9342   18.6478  -32.0787 H   0  0  0  0  0  0  0  0  0  0  0  0
   -9.1100   22.3694  -31.3452 H   0  0  0  0  0  0  0  0  0  0  0  0
   -7.9489   24.2985  -30.2740 H   0  0  0  0  0  0  0  0  0  0  0  0
   -5.1240   25.2820  -27.8200 H   0  0  0  0  0  0  0  0  0  0  0  0
   -2.8452   25.3869  -28.6849 H   0  0  0  0  0  0  0  0  0  0  0  0
   -3.0554   24.4109  -27.1902 H   0  0  0  0  0  0  0  0  0  0  0  0
   -4.3024   21.9384  -28.2607 H   0  0  0  0  0  0  0  0  0  0  0  0
   -3.3647   19.9298  -29.4017 H   0  0  0  0  0  0  0  0  0  0  0  0
   -0.7665   19.0517  -30.1807 H   0  0  0  0  0  0  0  0  0  0  0  0
   -1.8878   19.3444  -31.5531 H   0  0  0  0  0  0  0  0  0  0  0  0
   -0.2542   20.0913  -31.5531 H   0  0  0  0  0  0  0  0  0  0  0  0
   -0.0931   22.3247  -30.9256 H   0  0  0  0  0  0  0  0  0  0  0  0
   -1.0333   24.3336  -29.7884 H   0  0  0  0  0  0  0  0  0  0  0  0
   -4.1357   22.7561  -31.6178 H   0  0  0  0  0  0  0  0  0  0  0  0
  1  2  1  0
  2  3  2  0
  2  4  1  0
  4  5  1  0
  5  6  1  0
  6  7  1  0
  7  8  1  0
  8  9  2  0
  9 10  1  0
 10 11  2  0
 11 12  1  0
 12 13  2  0
 12 14  2  0
 12 15  1  0
 15 16  1  0
 16 17  1  0
 17 18  2  0
 18 19  1  0
 19 20  2  0
 20 21  1  0
 20 22  1  0
 22 23  2  0
 11 24  1  0
 24 25  2  0
 25  4  1  0
 25  8  1  0
 23 17  1  0
  1 26  1  0
  1 27  1  0
  1 28  1  0
  5 29  1  0
  5 30  1  0
  6 31  1  0
  6 32  1  0
  9 33  1  0
 10 34  1  0
 15 35  1  0
 16 36  1  0
 16 37  1  0
 18 38  1  0
 19 39  1  0
 21 40  1  0
 21 41  1  0
 21 42  1  0
 22 43  1  0
 23 44  1  0
 24 45  1  0
M  END
>  <UniqueID>  (16) 
16

>  <SMILES>  (16) 
CC(=O)N1CCOc2ccc(S(=O)(=O)NCc3ccc(C)cc3)cc21

>  <Energy>  (16) 
48.98500746498004

>  <Genealogy>  (16) 
CC(=O)N1CCOc2ccc(S(=O)(=O)NCc3ccc(C)cc3)cc21 (3D coordinates assigned)
CC(=O)N1CCOc2ccc(S(=O)(=O)NCc3ccc(C)cc3)cc21 (nonaromatic ring conformer: 48.98500746498004 kcal/mol)

>  <smiles>  (16) 
CC(=O)N1CCOc2ccc(S(=O)(=O)NCc3ccc(C)cc3)cc21

>  <score_type>  (16) 
oracle

>  <origin>  (16) 
adgpu

>  <m_score__min__energy>  (16) 
-9.3599999999999994

>  <m_primary>  (16) 
energy

$$$$
16:0
     RDKit          3D

 35 37  0  0  0  0  0  0  0  0999 V2000
   -6.7340   22.7240  -29.6040 O   0  0  0  0  0  0  0  0  0  0  0  0
   -5.7780   23.7480  -30.1510 S   0  0  0  0  0  0  0  0  0  0  0  0
   -6.3950   25.1030  -29.9510 O   0  0  0  0  0  0  0  0  0  0  0  0
   -4.2780   23.6710  -29.2260 C   0  0  0  0  0  0  0  0  0  0  0  0
   -4.1060   22.6960  -28.2320 C   0  0  0  0  0  0  0  0  0  0  0  0
   -2.9110   22.6270  -27.5120 C   0  0  0  0  0  0  0  0  0  0  0  0
   -1.8840   23.5390  -27.7730 C   0  0  0  0  0  0  0  0  0  0  0  0
   -2.0550   24.5250  -28.7490 C   0  0  0  0  0  0  0  0  0  0  0  0
   -1.0590   25.4110  -28.9990 F   0  0  0  0  0  0  0  0  0  0  0  0
   -3.2500   24.5940  -29.4720 C   0  0  0  0  0  0  0  0  0  0  0  0
   -5.5550   23.4890  -31.8690 N   0  0  0  0  0  0  0  0  0  0  0  0
   -4.4040   22.6600  -32.2740 C   0  0  0  0  0  0  0  0  0  0  0  0
   -4.6270   21.1410  -32.1710 C   0  0  0  0  0  0  0  0  0  0  0  0
   -5.7300   20.6840  -33.0100 N   0  0  0  0  0  0  0  0  0  0  0  0
   -7.0790   20.8610  -32.5810 C   0  0  0  0  0  0  0  0  0  0  0  0
   -7.8720   19.7690  -32.4050 N   0  0  0  0  0  0  0  0  0  0  0  0
   -9.1560   19.8740  -31.9760 C   0  0  0  0  0  0  0  0  0  0  0  0
   -9.7030   21.1300  -31.7110 C   0  0  0  0  0  0  0  0  0  0  0  0
   -8.9210   22.2690  -31.9030 C   0  0  0  0  0  0  0  0  0  0  0  0
   -7.5910   22.1470  -32.3370 C   0  0  0  0  0  0  0  0  0  0  0  0
   -6.7820   23.3740  -32.6690 C   0  0  0  0  0  0  0  0  0  0  0  0
   -4.9158   21.9827  -28.0187 H   0  0  0  0  0  0  0  0  0  0  0  0
   -2.7780   21.8551  -26.7397 H   0  0  0  0  0  0  0  0  0  0  0  0
   -0.9408   23.4806  -27.2100 H   0  0  0  0  0  0  0  0  0  0  0  0
   -3.3846   25.3741  -30.2358 H   0  0  0  0  0  0  0  0  0  0  0  0
   -4.1629   22.8991  -33.3203 H   0  0  0  0  0  0  0  0  0  0  0  0
   -3.5914   22.8992  -31.5722 H   0  0  0  0  0  0  0  0  0  0  0  0
   -3.7070   20.6265  -32.4854 H   0  0  0  0  0  0  0  0  0  0  0  0
   -4.8809   20.9087  -31.1262 H   0  0  0  0  0  0  0  0  0  0  0  0
   -5.5300   19.9390  -33.7160 H   0  0  0  0  0  0  0  0  0  0  0  0
   -9.7652   18.9686  -31.8373 H   0  0  0  0  0  0  0  0  0  0  0  0
  -10.7397   21.2210  -31.3545 H   0  0  0  0  0  0  0  0  0  0  0  0
   -9.3472   23.2653  -31.7140 H   0  0  0  0  0  0  0  0  0  0  0  0
   -6.5040   23.3329  -33.7325 H   0  0  0  0  0  0  0  0  0  0  0  0
   -7.4062   24.2504  -32.4401 H   0  0  0  0  0  0  0  0  0  0  0  0
  1  2  2  0
  2  3  2  0
  2  4  1  0
  4  5  2  0
  5  6  1  0
  6  7  2  0
  7  8  1  0
  8  9  1  0
  8 10  2  0
  2 11  1  0
 11 12  1  0
 12 13  1  0
 13 14  1  0
 14 15  1  0
 15 16  2  0
 16 17  1  0
 17 18  2  0
 18 19  1  0
 19 20  2  0
 20 21  1  0
 10  4  1  0
 21 11  1  0
 20 15  1  0
  5 22  1  0
  6 23  1  0
  7 24  1  0
 10 25  1  0
 12 26  1  0
 12 27  1  0
 13 28  1  0
 13 29  1  0
 14 30  1  0
 17 31  1  0
 18 32  1  0
 19 33  1  0
 21 34  1  0
 21 35  1  0
M  END
>  <UniqueID>  (17) 
17

>  <SMILES>  (17) 
O=S(=O)(c1cccc(F)c1)N1CCNc2ncccc2C1

>  <Energy>  (17) 
50.337622595832535

>  <Genealogy>  (17) 
O=S(=O)(c1cccc(F)c1)N1CCNc2ncccc2C1 (3D coordinates assigned)
O=S(=O)(c1cccc(F)c1)N1CCNc2ncccc2C1 (nonaromatic ring conformer: 50.337622595832535 kcal/mol)

>  <smiles>  (17) 
O=S(=O)(c1cccc(F)c1)N1CCNc2ncccc2C1

>  <score_type>  (17) 
oracle

>  <origin>  (17) 
adgpu

>  <m_score__min__energy>  (17) 
-7.1200000000000001

>  <m_primary>  (17) 
energy

$$$$
17:0
     RDKit          3D

 43 45  0  0  0  0  0  0  0  0999 V2000
   -4.4690   25.4360  -30.9550 O   0  0  0  0  0  0  0  0  0  0  0  0
   -5.4760   24.9430  -29.9520 S   0  0  0  0  0  0  0  0  0  0  0  0
   -6.4830   26.0320  -29.7110 O   0  0  0  0  0  0  0  0  0  0  0  0
   -4.6670   24.5740  -28.4550 N   0  0  0  0  0  0  0  0  0  0  0  0
   -3.2730   24.1780  -28.6920 C   0  0  0  0  0  0  0  0  0  0  0  0
   -3.2050   23.0880  -29.7130 C   0  0  0  0  0  0  0  0  0  0  0  0
   -3.2360   21.7320  -29.4530 C   0  0  0  0  0  0  0  0  0  0  0  0
   -3.1410   21.1160  -30.6810 C   0  0  0  0  0  0  0  0  0  0  0  0
   -3.0510   22.1310  -31.6120 C   0  0  0  0  0  0  0  0  0  0  0  0
   -3.0930   23.2950  -31.0050 O   0  0  0  0  0  0  0  0  0  0  0  0
   -6.3160   23.5260  -30.5760 C   0  0  0  0  0  0  0  0  0  0  0  0
   -6.2750   23.2440  -31.9470 C   0  0  0  0  0  0  0  0  0  0  0  0
   -6.9580   22.1370  -32.4590 C   0  0  0  0  0  0  0  0  0  0  0  0
   -7.6710   21.2890  -31.5990 C   0  0  0  0  0  0  0  0  0  0  0  0
   -8.5300   19.8930  -32.2470 S   0  0  0  0  0  0  0  0  0  0  0  0
   -9.6810   20.3600  -33.0940 O   0  0  0  0  0  0  0  0  0  0  0  0
   -9.0840   19.1020  -31.0940 O   0  0  0  0  0  0  0  0  0  0  0  0
   -7.4410   18.8820  -33.1760 N   0  0  0  0  0  0  0  0  0  0  0  0
   -7.1690   17.6010  -32.5000 C   0  0  0  0  0  0  0  0  0  0  0  0
   -6.1980   17.7570  -31.3050 C   0  0  0  0  0  0  0  0  0  0  0  0
   -5.4750   18.9750  -31.3180 O   0  0  0  0  0  0  0  0  0  0  0  0
   -5.0150   19.2520  -32.6210 C   0  0  0  0  0  0  0  0  0  0  0  0
   -6.1990   19.5980  -33.5420 C   0  0  0  0  0  0  0  0  0  0  0  0
   -7.7050   21.5670  -30.2260 C   0  0  0  0  0  0  0  0  0  0  0  0
   -7.0340   22.6830  -29.7170 C   0  0  0  0  0  0  0  0  0  0  0  0
   -4.6590   25.4590  -27.8990 H   0  0  0  0  0  0  0  0  0  0  0  0
   -2.7058   25.0485  -29.0534 H   0  0  0  0  0  0  0  0  0  0  0  0
   -2.8424   23.8098  -27.7491 H   0  0  0  0  0  0  0  0  0  0  0  0
   -3.3192   21.2454  -28.4700 H   0  0  0  0  0  0  0  0  0  0  0  0
   -3.1375   20.0341  -30.8797 H   0  0  0  0  0  0  0  0  0  0  0  0
   -2.9581   21.9868  -32.6985 H   0  0  0  0  0  0  0  0  0  0  0  0
   -5.7032   23.8960  -32.6236 H   0  0  0  0  0  0  0  0  0  0  0  0
   -6.9362   21.9304  -33.5392 H   0  0  0  0  0  0  0  0  0  0  0  0
   -8.1194   17.1879  -32.1309 H   0  0  0  0  0  0  0  0  0  0  0  0
   -6.6942   16.9307  -33.2317 H   0  0  0  0  0  0  0  0  0  0  0  0
   -6.7817   17.7088  -30.3739 H   0  0  0  0  0  0  0  0  0  0  0  0
   -5.4614   16.9434  -31.3791 H   0  0  0  0  0  0  0  0  0  0  0  0
   -4.3202   20.1041  -32.5873 H   0  0  0  0  0  0  0  0  0  0  0  0
   -4.5014   18.3631  -33.0162 H   0  0  0  0  0  0  0  0  0  0  0  0
   -6.3867   20.6802  -33.4810 H   0  0  0  0  0  0  0  0  0  0  0  0
   -5.9265   19.2868  -34.5613 H   0  0  0  0  0  0  0  0  0  0  0  0
   -8.2615   20.9049  -29.5463 H   0  0  0  0  0  0  0  0  0  0  0  0
   -7.0697   22.9000  -28.6392 H   0  0  0  0  0  0  0  0  0  0  0  0
  1  2  2  0
  2  3  2  0
  2  4  1  0
  4  5  1  0
  5  6  1  0
  6  7  2  0
  7  8  1  0
  8  9  2  0
  9 10  1  0
  2 11  1  0
 11 12  2  0
 12 13  1  0
 13 14  2  0
 14 15  1  0
 15 16  2  0
 15 17  2  0
 15 18  1  0
 18 19  1  0
 19 20  1  0
 20 21  1  0
 21 22  1  0
 22 23  1  0
 14 24  1  0
 24 25  2  0
 10  6  1  0
 25 11  1  0
 23 18  1  0
  4 26  1  0
  5 27  1  0
  5 28  1  0
  7 29  1  0
  8 30  1  0
  9 31  1  0
 12 32  1  0
 13 33  1  0
 19 34  1  0
 19 35  1  0
 20 36  1  0
 20 37  1  0
 22 38  1  0
 22 39  1  0
 23 40  1  0
 23 41  1  0
 24 42  1  0
 25 43  1  0
M  END
>  <UniqueID>  (18) 
18

>  <SMILES>  (18) 
O=S(=O)(NCc1ccco1)c1ccc(S(=O)(=O)N2CCOCC2)cc1

>  <Energy>  (18) 
75.4410857095704

>  <Genealogy>  (18) 
O=S(=O)(NCc1ccco1)c1ccc(S(=O)(=O)N2CCOCC2)cc1 (3D coordinates assigned)
O=S(=O)(NCc1ccco1)c1ccc(S(=O)(=O)N2CCOCC2)cc1 (nonaromatic ring conformer: 75.4410857095704 kcal/mol)

>  <smiles>  (18) 
O=S(=O)(NCc1ccco1)c1ccc(S(=O)(=O)N2CCOCC2)cc1

>  <score_type>  (18) 
oracle

>  <origin>  (18) 
adgpu

>  <m_score__min__energy>  (18) 
-10.300000000000001

>  <m_primary>  (18) 
energy

$$$$
18:0
     RDKit          3D

 53 56  0  0  0  0  0  0  0  0999 V2000
   -0.5030   26.8390  -23.2920 C   0  0  0  0  0  0  0  0  0  0  0  0
   -0.8710   25.9590  -24.4500 C   0  0  0  0  0  0  0  0  0  0  0  0
   -0.0710   24.8550  -24.7810 C   0  0  0  0  0  0  0  0  0  0  0  0
   -0.3930   24.0570  -25.8830 C   0  0  0  0  0  0  0  0  0  0  0  0
   -1.5200   24.3470  -26.6660 C   0  0  0  0  0  0  0  0  0  0  0  0
   -1.8110   23.5230  -27.8070 N   0  0  0  0  0  0  0  0  0  0  0  0
   -2.1500   24.0350  -29.1070 C   0  0  0  0  0  0  0  0  0  0  0  0
   -2.0970   25.2730  -29.3390 O   0  0  0  0  0  0  0  0  0  0  0  0
   -2.5360   23.1480  -30.1660 N   0  0  0  0  0  0  0  0  0  0  0  0
   -1.6580   22.4410  -30.8670 N   0  0  0  0  0  0  0  0  0  0  0  0
   -2.3350   21.7720  -31.8240 C   0  0  0  0  0  0  0  0  0  0  0  0
   -1.6830   20.9710  -32.9010 C   0  0  0  0  0  0  0  0  0  0  0  0
   -3.6780   22.0850  -31.7350 C   0  0  0  0  0  0  0  0  0  0  0  0
   -3.7680   22.9690  -30.6940 C   0  0  0  0  0  0  0  0  0  0  0  0
   -5.0370   23.6890  -30.3490 C   0  0  0  0  0  0  0  0  0  0  0  0
   -6.0530   23.5810  -31.5120 C   0  0  0  0  0  0  0  0  0  0  0  0
   -6.0990   22.2300  -32.1360 N   0  0  0  0  0  0  0  0  0  0  0  0
   -6.6450   21.1910  -31.2360 C   0  0  0  0  0  0  0  0  0  0  0  0
   -7.8360   20.5210  -31.8620 C   0  0  0  0  0  0  0  0  0  0  0  0
   -7.9930   19.1940  -32.2230 C   0  0  0  0  0  0  0  0  0  0  0  0
   -7.0030   18.0900  -32.0480 C   0  0  0  0  0  0  0  0  0  0  0  0
   -9.2390   19.0090  -32.7040 N   0  0  0  0  0  0  0  0  0  0  0  0
   -9.8410   20.1630  -32.6620 O   0  0  0  0  0  0  0  0  0  0  0  0
   -9.0540   21.0930  -32.1720 C   0  0  0  0  0  0  0  0  0  0  0  0
   -9.4530   22.5170  -31.9700 C   0  0  0  0  0  0  0  0  0  0  0  0
   -4.7890   21.8410  -32.7100 C   0  0  0  0  0  0  0  0  0  0  0  0
   -2.2950   25.4770  -26.3580 C   0  0  0  0  0  0  0  0  0  0  0  0
   -1.9730   26.2770  -25.2570 C   0  0  0  0  0  0  0  0  0  0  0  0
   -0.7219   26.3156  -22.3496 H   0  0  0  0  0  0  0  0  0  0  0  0
    0.5700   27.0768  -23.3387 H   0  0  0  0  0  0  0  0  0  0  0  0
   -1.0873   27.7698  -23.3387 H   0  0  0  0  0  0  0  0  0  0  0  0
    0.8129   24.6163  -24.1712 H   0  0  0  0  0  0  0  0  0  0  0  0
    0.2420   23.1957  -26.1377 H   0  0  0  0  0  0  0  0  0  0  0  0
   -1.8390   22.4920  -27.6560 H   0  0  0  0  0  0  0  0  0  0  0  0
   -1.0503   20.1937  -32.4478 H   0  0  0  0  0  0  0  0  0  0  0  0
   -2.4556   20.4975  -33.5246 H   0  0  0  0  0  0  0  0  0  0  0  0
   -1.0625   21.6314  -33.5246 H   0  0  0  0  0  0  0  0  0  0  0  0
   -5.4732   23.2409  -29.4440 H   0  0  0  0  0  0  0  0  0  0  0  0
   -4.8081   24.7504  -30.1731 H   0  0  0  0  0  0  0  0  0  0  0  0
   -7.0540   23.8194  -31.1233 H   0  0  0  0  0  0  0  0  0  0  0  0
   -5.7295   24.2868  -32.2912 H   0  0  0  0  0  0  0  0  0  0  0  0
   -5.8678   20.4375  -31.0404 H   0  0  0  0  0  0  0  0  0  0  0  0
   -6.9596   21.6666  -30.2953 H   0  0  0  0  0  0  0  0  0  0  0  0
   -6.8410   17.9094  -30.9751 H   0  0  0  0  0  0  0  0  0  0  0  0
   -7.3880   17.1740  -32.5200 H   0  0  0  0  0  0  0  0  0  0  0  0
   -6.0506   18.3733  -32.5200 H   0  0  0  0  0  0  0  0  0  0  0  0
   -9.5131   22.7317  -30.8928 H   0  0  0  0  0  0  0  0  0  0  0  0
   -8.7051   23.1767  -32.4342 H   0  0  0  0  0  0  0  0  0  0  0  0
  -10.4348   22.6921  -32.4342 H   0  0  0  0  0  0  0  0  0  0  0  0
   -4.8128   20.7717  -32.9670 H   0  0  0  0  0  0  0  0  0  0  0  0
   -4.6062   22.4507  -33.6071 H   0  0  0  0  0  0  0  0  0  0  0  0
   -3.1604   25.7343  -26.9864 H   0  0  0  0  0  0  0  0  0  0  0  0
   -2.5867   27.1594  -25.0230 H   0  0  0  0  0  0  0  0  0  0  0  0
  1  2  1  0
  2  3  2  0
  3  4  1  0
  4  5  2  0
  5  6  1  0
  6  7  1  0
  7  8  2  0
  7  9  1  0
  9 10  1  0
 10 11  2  0
 11 12  1  0
 11 13  1  0
 13 14  2  0
 14 15  1  0
 15 16  1  0
 16 17  1  0
 17 18  1  0
 18 19  1  0
 19 20  1  0
 20 21  1  0
 20 22  2  0
 22 23  1  0
 23 24  1  0
 24 25  1  0
 17 26  1  0
  5 27  1  0
 27 28  2  0
 28  2  1  0
 14  9  1  0
 24 19  2  0
 26 13  1  0
  1 29  1  0
  1 30  1  0
  1 31  1  0
  3 32  1  0
  4 33  1  0
  6 34  1  0
 12 35  1  0
 12 36  1  0
 12 37  1  0
 15 38  1  0
 15 39  1  0
 16 40  1  0
 16 41  1  0
 18 42  1  0
 18 43  1  0
 21 44  1  0
 21 45  1  0
 21 46  1  0
 25 47  1  0
 25 48  1  0
 25 49  1  0
 26 50  1  0
 26 51  1  0
 27 52  1  0
 28 53  1  0
M  END
>  <UniqueID>  (19) 
19

>  <SMILES>  (19) 
Cc1ccc(NC(=O)n2nc(C)c3c2CCN(Cc2c(C)noc2C)C3)cc1

>  <Energy>  (19) 
126.9083626735006

>  <Genealogy>  (19) 
Cc1ccc(NC(=O)n2nc(C)c3c2CCN(Cc2c(C)noc2C)C3)cc1 (3D coordinates assigned)
Cc1ccc(NC(=O)n2nc(C)c3c2CCN(Cc2c(C)noc2C)C3)cc1 (nonaromatic ring conformer: 126.9083626735006 kcal/mol)

>  <smiles>  (19) 
Cc1ccc(NC(=O)n2nc(C)c3c2CCN(Cc2c(C)noc2C)C3)cc1

>  <score_type>  (19) 
oracle

>  <origin>  (19) 
adgpu

>  <m_score__min__energy>  (19) 
-9.6600000000000001

>  <m_primary>  (19) 
energy

$$$$
19:0
     RDKit          3D

 43 45  0  0  0  0  0  0  0  0999 V2000
   -1.5050   25.8720  -27.6970 C   0  0  0  0  0  0  0  0  0  0  0  0
   -2.0250   25.3480  -28.9140 O   0  0  0  0  0  0  0  0  0  0  0  0
   -1.7990   24.0430  -29.3820 C   0  0  0  0  0  0  0  0  0  0  0  0
   -0.5810   23.3730  -29.1540 C   0  0  0  0  0  0  0  0  0  0  0  0
   -0.3880   22.0750  -29.6340 C   0  0  0  0  0  0  0  0  0  0  0  0
   -1.4030   21.4330  -30.3470 C   0  0  0  0  0  0  0  0  0  0  0  0
   -1.1340   19.6590  -31.0020 Br  0  0  0  0  0  0  0  0  0  0  0  0
   -2.6140   22.0870  -30.5780 C   0  0  0  0  0  0  0  0  0  0  0  0
   -2.8220   23.3870  -30.0960 C   0  0  0  0  0  0  0  0  0  0  0  0
   -4.3750   24.1830  -30.3710 S   0  0  0  0  0  0  0  0  0  0  0  0
   -4.2350   25.6770  -30.2870 O   0  0  0  0  0  0  0  0  0  0  0  0
   -5.3460   23.7220  -29.3200 O   0  0  0  0  0  0  0  0  0  0  0  0
   -4.9910   23.7610  -31.9360 N   0  0  0  0  0  0  0  0  0  0  0  0
   -5.1910   22.4210  -32.4160 C   0  0  0  0  0  0  0  0  0  0  0  0
   -4.1430   21.7060  -33.0160 C   0  0  0  0  0  0  0  0  0  0  0  0
   -4.3360   20.4030  -33.4700 C   0  0  0  0  0  0  0  0  0  0  0  0
   -5.5850   19.7750  -33.3420 C   0  0  0  0  0  0  0  0  0  0  0  0
   -5.7920   18.4290  -33.8050 N   0  0  0  0  0  0  0  0  0  0  0  0
   -6.1400   17.0450  -32.8190 S   0  0  0  0  0  0  0  0  0  0  0  0
   -4.7130   15.9850  -32.7250 C   0  0  0  0  0  0  0  0  0  0  0  0
   -6.5620   17.4840  -31.4450 O   0  0  0  0  0  0  0  0  0  0  0  0
   -7.2680   16.2780  -33.4490 O   0  0  0  0  0  0  0  0  0  0  0  0
   -6.6540   20.4800  -32.7450 C   0  0  0  0  0  0  0  0  0  0  0  0
   -7.9230   19.8830  -32.5980 C   0  0  0  0  0  0  0  0  0  0  0  0
   -8.9730   20.5840  -32.0040 C   0  0  0  0  0  0  0  0  0  0  0  0
   -8.7770   21.8850  -31.5460 C   0  0  0  0  0  0  0  0  0  0  0  0
   -7.5310   22.4970  -31.6800 C   0  0  0  0  0  0  0  0  0  0  0  0
   -6.4560   21.8110  -32.2810 C   0  0  0  0  0  0  0  0  0  0  0  0
   -1.9956   25.3776  -26.8456 H   0  0  0  0  0  0  0  0  0  0  0  0
   -0.4212   25.6890  -27.6524 H   0  0  0  0  0  0  0  0  0  0  0  0
   -1.6963   26.9543  -27.6524 H   0  0  0  0  0  0  0  0  0  0  0  0
    0.2227   23.8745  -28.5949 H   0  0  0  0  0  0  0  0  0  0  0  0
    0.5652   21.5578  -29.4500 H   0  0  0  0  0  0  0  0  0  0  0  0
   -3.4104   21.5793  -31.1419 H   0  0  0  0  0  0  0  0  0  0  0  0
   -3.1569   22.1802  -33.1292 H   0  0  0  0  0  0  0  0  0  0  0  0
   -3.4997   19.8598  -33.9343 H   0  0  0  0  0  0  0  0  0  0  0  0
   -4.4630   15.7993  -31.6700 H   0  0  0  0  0  0  0  0  0  0  0  0
   -4.9326   15.0293  -33.2235 H   0  0  0  0  0  0  0  0  0  0  0  0
   -3.8615   16.4713  -33.2235 H   0  0  0  0  0  0  0  0  0  0  0  0
   -8.0866   18.8554  -32.9548 H   0  0  0  0  0  0  0  0  0  0  0  0
   -9.9588   20.1078  -31.8970 H   0  0  0  0  0  0  0  0  0  0  0  0
   -9.6083   22.4317  -31.0768 H   0  0  0  0  0  0  0  0  0  0  0  0
   -7.3858   23.5239  -31.3135 H   0  0  0  0  0  0  0  0  0  0  0  0
  1  2  1  0
  2  3  1  0
  3  4  2  0
  4  5  1  0
  5  6  2  0
  6  7  1  0
  6  8  1  0
  8  9  2  0
  9 10  1  0
 10 11  2  0
 10 12  2  0
 10 13  1  0
 13 14  1  0
 14 15  2  0
 15 16  1  0
 16 17  2  0
 17 18  1  0
 18 19  1  0
 19 20  1  0
 19 21  2  0
 19 22  2  0
 17 23  1  0
 23 24  2  0
 24 25  1  0
 25 26  2  0
 26 27  1  0
 27 28  2  0
  9  3  1  0
 28 14  1  0
 28 23  1  0
  1 29  1  0
  1 30  1  0
  1 31  1  0
  4 32  1  0
  5 33  1  0
  8 34  1  0
 15 35  1  0
 16 36  1  0
 20 37  1  0
 20 38  1  0
 20 39  1  0
 24 40  1  0
 25 41  1  0
 26 42  1  0
 27 43  1  0
M  CHG  2  13  -1  18  -1
M  END
>  <UniqueID>  (20) 
20

>  <SMILES>  (20) 
COc1ccc(Br)cc1S(=O)(=O)[N-]c1ccc([N-]S(C)(=O)=O)c2ccccc12

>  <Energy>  (20) 
52.44886670420834

>  <Genealogy>  (20) 
COc1ccc(Br)cc1S(=O)(=O)[N-]c1ccc([N-]S(C)(=O)=O)c2ccccc12 (protonated)
COc1ccc(Br)cc1S(=O)(=O)[N-]c1ccc([N-]S(C)(=O)=O)c2ccccc12 (3D coordinates assigned)
COc1ccc(Br)cc1S(=O)(=O)[N-]c1ccc([N-]S(C)(=O)=O)c2ccccc12 (optimized conformer: 52.44886670420834 kcal/mol)

>  <smiles>  (20) 
COc1ccc(Br)cc1S(=O)(=O)Nc1ccc(NS(C)(=O)=O)c2ccccc12

>  <score_type>  (20) 
oracle

>  <origin>  (20) 
adgpu

>  <m_score__min__energy>  (20) 
-11.449999999999999

>  <m_primary>  (20) 
energy

$$$$
20:0
     RDKit          3D

 61 65  0  0  0  0  0  0  0  0999 V2000
   -2.4990   24.9950  -29.3440 O   0  0  0  0  0  0  0  0  0  0  0  0
   -2.9450   23.8270  -29.1760 C   0  0  0  0  0  0  0  0  0  0  0  0
   -4.2480   23.4850  -29.7730 C   0  0  0  0  0  0  0  0  0  0  0  0
   -4.3960   23.5010  -31.1660 C   0  0  0  0  0  0  0  0  0  0  0  0
   -5.6070   23.1210  -31.7500 C   0  0  0  0  0  0  0  0  0  0  0  0
   -6.6840   22.7230  -30.9450 C   0  0  0  0  0  0  0  0  0  0  0  0
   -8.1810   22.1510  -31.6840 S   0  0  0  0  0  0  0  0  0  0  0  0
   -9.2370   22.0210  -30.6220 O   0  0  0  0  0  0  0  0  0  0  0  0
   -8.6560   23.1600  -32.6910 O   0  0  0  0  0  0  0  0  0  0  0  0
   -7.9520   20.6030  -32.4600 N   0  0  0  0  0  0  0  0  0  0  0  0
   -8.3780   19.5220  -31.5570 C   0  0  0  0  0  0  0  0  0  0  0  0
   -8.3960   18.1930  -32.3130 C   0  0  0  0  0  0  0  0  0  0  0  0
   -7.1330   17.9820  -33.1090 C   0  0  0  0  0  0  0  0  0  0  0  0
   -6.8440   16.7070  -33.6190 C   0  0  0  0  0  0  0  0  0  0  0  0
   -5.7000   16.5000  -34.3930 C   0  0  0  0  0  0  0  0  0  0  0  0
   -4.8410   17.5650  -34.6740 C   0  0  0  0  0  0  0  0  0  0  0  0
   -5.1280   18.8420  -34.1860 C   0  0  0  0  0  0  0  0  0  0  0  0
   -6.2800   19.0650  -33.4160 C   0  0  0  0  0  0  0  0  0  0  0  0
   -6.5340   20.4320  -32.8280 C   0  0  0  0  0  0  0  0  0  0  0  0
   -6.5490   22.7430  -29.5500 C   0  0  0  0  0  0  0  0  0  0  0  0
   -5.3390   23.1290  -28.9660 C   0  0  0  0  0  0  0  0  0  0  0  0
   -2.1520   22.8380  -28.4790 N   0  0  0  0  0  0  0  0  0  0  0  0
   -2.7670   21.5790  -28.0190 C   0  0  0  0  0  0  0  0  0  0  0  0
   -1.7320   20.6360  -27.4020 C   0  0  0  0  0  0  0  0  0  0  0  0
   -0.5410   20.5930  -28.2560 N   0  0  0  0  0  0  0  0  0  0  0  0
   -0.1210   19.3510  -28.8480 C   0  0  0  0  0  0  0  0  0  0  0  0
    0.3340   19.3290  -30.1780 C   0  0  0  0  0  0  0  0  0  0  0  0
    0.7530   18.1320  -30.7630 C   0  0  0  0  0  0  0  0  0  0  0  0
    0.7230   16.9460  -30.0270 C   0  0  0  0  0  0  0  0  0  0  0  0
    0.2700   16.9550  -28.7050 C   0  0  0  0  0  0  0  0  0  0  0  0
   -0.1570   18.1520  -28.1100 C   0  0  0  0  0  0  0  0  0  0  0  0
   -0.6270   18.1500  -26.7980 O   0  0  0  0  0  0  0  0  0  0  0  0
    0.0990   21.8490  -28.6780 C   0  0  0  0  0  0  0  0  0  0  0  0
   -0.7180   23.0730  -28.2390 C   0  0  0  0  0  0  0  0  0  0  0  0
   -3.5553   23.8140  -31.8026 H   0  0  0  0  0  0  0  0  0  0  0  0
   -5.7159   23.1341  -32.8445 H   0  0  0  0  0  0  0  0  0  0  0  0
   -7.6756   19.4528  -30.7133 H   0  0  0  0  0  0  0  0  0  0  0  0
   -9.3885   19.7398  -31.1809 H   0  0  0  0  0  0  0  0  0  0  0  0
   -8.5005   17.3726  -31.5877 H   0  0  0  0  0  0  0  0  0  0  0  0
   -9.2425   18.2116  -33.0152 H   0  0  0  0  0  0  0  0  0  0  0  0
   -7.5217   15.8666  -33.4082 H   0  0  0  0  0  0  0  0  0  0  0  0
   -5.4750   15.4961  -34.7822 H   0  0  0  0  0  0  0  0  0  0  0  0
   -3.9382   17.3980  -35.2798 H   0  0  0  0  0  0  0  0  0  0  0  0
   -4.4473   19.6775  -34.4064 H   0  0  0  0  0  0  0  0  0  0  0  0
   -5.9131   20.5560  -31.9285 H   0  0  0  0  0  0  0  0  0  0  0  0
   -6.2786   21.1881  -33.5850 H   0  0  0  0  0  0  0  0  0  0  0  0
   -7.3978   22.4541  -28.9128 H   0  0  0  0  0  0  0  0  0  0  0  0
   -5.2420   23.1537  -27.8706 H   0  0  0  0  0  0  0  0  0  0  0  0
   -3.5325   21.8112  -27.2640 H   0  0  0  0  0  0  0  0  0  0  0  0
   -3.2124   21.0765  -28.8903 H   0  0  0  0  0  0  0  0  0  0  0  0
   -1.4535   21.0005  -26.4022 H   0  0  0  0  0  0  0  0  0  0  0  0
   -2.1598   19.6261  -27.3175 H   0  0  0  0  0  0  0  0  0  0  0  0
    0.3602   20.2609  -30.7619 H   0  0  0  0  0  0  0  0  0  0  0  0
    1.1069   18.1237  -31.8045 H   0  0  0  0  0  0  0  0  0  0  0  0
    1.0560   16.0043  -30.4878 H   0  0  0  0  0  0  0  0  0  0  0  0
    0.2480   16.0189  -28.1278 H   0  0  0  0  0  0  0  0  0  0  0  0
   -0.7790   17.2870  -26.2900 H   0  0  0  0  0  0  0  0  0  0  0  0
    1.1010   21.9082  -28.2281 H   0  0  0  0  0  0  0  0  0  0  0  0
    0.1617   21.8521  -29.7762 H   0  0  0  0  0  0  0  0  0  0  0  0
   -0.5537   23.2543  -27.1666 H   0  0  0  0  0  0  0  0  0  0  0  0
   -0.3947   23.9487  -28.8209 H   0  0  0  0  0  0  0  0  0  0  0  0
  1  2  2  0
  2  3  1  0
  3  4  2  0
  4  5  1  0
  5  6  2  0
  6  7  1  0
  7  8  2  0
  7  9  2  0
  7 10  1  0
 10 11  1  0
 11 12  1  0
 12 13  1  0
 13 14  2  0
 14 15  1  0
 15 16  2  0
 16 17  1  0
 17 18  2  0
 18 19  1  0
  6 20  1  0
 20 21  2  0
  2 22  1  0
 22 23  1  0
 23 24  1  0
 24 25  1  0
 25 26  1  0
 26 27  2  0
 27 28  1  0
 28 29  2  0
 29 30  1  0
 30 31  2  0
 31 32  1  0
 25 33  1  0
 33 34  1  0
 21  3  1  0
 34 22  1  0
 19 10  1  0
 31 26  1  0
 18 13  1  0
  4 35  1  0
  5 36  1  0
 11 37  1  0
 11 38  1  0
 12 39  1  0
 12 40  1  0
 14 41  1  0
 15 42  1  0
 16 43  1  0
 17 44  1  0
 19 45  1  0
 19 46  1  0
 20 47  1  0
 21 48  1  0
 23 49  1  0
 23 50  1  0
 24 51  1  0
 24 52  1  0
 27 53  1  0
 28 54  1  0
 29 55  1  0
 30 56  1  0
 32 57  1  0
 33 58  1  0
 33 59  1  0
 34 60  1  0
 34 61  1  0
M  END
>  <UniqueID>  (21) 
21

>  <SMILES>  (21) 
O=C(c1ccc(S(=O)(=O)N2CCc3ccccc3C2)cc1)N1CCN(c2ccccc2O)CC1

>  <Energy>  (21) 
79.32152694130578

>  <Genealogy>  (21) 
O=C(c1ccc(S(=O)(=O)N2CCc3ccccc3C2)cc1)N1CCN(c2ccccc2O)CC1 (3D coordinates assigned)
O=C(c1ccc(S(=O)(=O)N2CCc3ccccc3C2)cc1)N1CCN(c2ccccc2O)CC1 (nonaromatic ring conformer: 79.32152694130578 kcal/mol)

>  <smiles>  (21) 
O=C(c1ccc(S(=O)(=O)N2CCc3ccccc3C2)cc1)N1CCN(c2ccccc2O)CC1

>  <score_type>  (21) 
oracle

>  <origin>  (21) 
adgpu

>  <m_score__min__energy>  (21) 
-10.6

>  <m_primary>  (21) 
energy

$$$$
21:0
     RDKit          3D

 42 43  0  0  0  0  0  0  0  0999 V2000
   -8.7220   18.8340  -31.5050 C   0  0  0  0  0  0  0  0  0  0  0  0
   -7.4240   19.0210  -32.1620 N   0  0  0  0  0  0  0  0  0  0  0  0
   -7.1930   20.2360  -32.9580 C   0  0  0  0  0  0  0  0  0  0  0  0
   -6.4360   21.2640  -32.1660 C   0  0  0  0  0  0  0  0  0  0  0  0
   -7.0580   22.2270  -31.6410 O   0  0  0  0  0  0  0  0  0  0  0  0
   -5.0010   21.2120  -32.1170 N   0  0  0  0  0  0  0  0  0  0  0  0
   -4.1870   22.0840  -31.3120 C   0  0  0  0  0  0  0  0  0  0  0  0
   -3.2090   21.5310  -30.4750 C   0  0  0  0  0  0  0  0  0  0  0  0
   -2.4280   22.3510  -29.6580 C   0  0  0  0  0  0  0  0  0  0  0  0
   -2.6200   23.7450  -29.6430 C   0  0  0  0  0  0  0  0  0  0  0  0
   -1.7790   24.5860  -28.7550 C   0  0  0  0  0  0  0  0  0  0  0  0
   -1.5250   24.2300  -27.5740 O   0  0  0  0  0  0  0  0  0  0  0  0
   -1.2490   25.7840  -29.2200 O   0  0  0  0  0  0  0  0  0  0  0  0
   -3.6200   24.3000  -30.4740 C   0  0  0  0  0  0  0  0  0  0  0  0
   -3.8630   25.6700  -30.4910 O   0  0  0  0  0  0  0  0  0  0  0  0
   -4.3920   23.4730  -31.2970 C   0  0  0  0  0  0  0  0  0  0  0  0
   -6.4330   17.9740  -32.0560 C   0  0  0  0  0  0  0  0  0  0  0  0
   -6.5180   17.1310  -31.1200 O   0  0  0  0  0  0  0  0  0  0  0  0
   -5.3010   17.8650  -33.0020 C   0  0  0  0  0  0  0  0  0  0  0  0
   -4.3030   18.7900  -32.9540 N   0  0  0  0  0  0  0  0  0  0  0  0
   -3.2230   18.7100  -33.7740 C   0  0  0  0  0  0  0  0  0  0  0  0
   -1.9460   19.9070  -33.6650 S   0  0  0  0  0  0  0  0  0  0  0  0
   -0.9550   19.6160  -32.2150 C   0  0  0  0  0  0  0  0  0  0  0  0
   -2.5560   21.2750  -33.5590 O   0  0  0  0  0  0  0  0  0  0  0  0
   -1.0770   19.8320  -34.8880 O   0  0  0  0  0  0  0  0  0  0  0  0
   -3.1250   17.6950  -34.6690 N   0  0  0  0  0  0  0  0  0  0  0  0
   -4.0920   16.7470  -34.7580 C   0  0  0  0  0  0  0  0  0  0  0  0
   -5.2070   16.8030  -33.9210 C   0  0  0  0  0  0  0  0  0  0  0  0
   -6.4630   15.5810  -34.0930 Cl  0  0  0  0  0  0  0  0  0  0  0  0
   -8.5867   18.8535  -30.4135 H   0  0  0  0  0  0  0  0  0  0  0  0
   -9.4044   19.6431  -31.8044 H   0  0  0  0  0  0  0  0  0  0  0  0
   -9.1483   17.8652  -31.8044 H   0  0  0  0  0  0  0  0  0  0  0  0
   -6.6121   19.9735  -33.8544 H   0  0  0  0  0  0  0  0  0  0  0  0
   -8.1679   20.6600  -33.2404 H   0  0  0  0  0  0  0  0  0  0  0  0
   -4.5160   20.5660  -32.7820 H   0  0  0  0  0  0  0  0  0  0  0  0
   -3.0551   20.4419  -30.4613 H   0  0  0  0  0  0  0  0  0  0  0  0
   -1.6536   21.9021  -29.0186 H   0  0  0  0  0  0  0  0  0  0  0  0
   -5.1678   23.9156  -31.9391 H   0  0  0  0  0  0  0  0  0  0  0  0
   -1.5614   19.7941  -31.3147 H   0  0  0  0  0  0  0  0  0  0  0  0
   -0.5987   18.5753  -32.2172 H   0  0  0  0  0  0  0  0  0  0  0  0
   -0.0926   20.2988  -32.2172 H   0  0  0  0  0  0  0  0  0  0  0  0
   -3.9966   15.9328  -35.4915 H   0  0  0  0  0  0  0  0  0  0  0  0
  1  2  1  0
  2  3  1  0
  3  4  1  0
  4  5  2  0
  4  6  1  0
  6  7  1  0
  7  8  2  0
  8  9  1  0
  9 10  2  0
 10 11  1  0
 11 12  2  0
 11 13  1  0
 10 14  1  0
 14 15  1  0
 14 16  2  0
  2 17  1  0
 17 18  2  0
 17 19  1  0
 19 20  2  0
 20 21  1  0
 21 22  1  0
 22 23  1  0
 22 24  2  0
 22 25  2  0
 21 26  2  0
 26 27  1  0
 27 28  2  0
 28 29  1  0
 16  7  1  0
 28 19  1  0
  1 30  1  0
  1 31  1  0
  1 32  1  0
  3 33  1  0
  3 34  1  0
  6 35  1  0
  8 36  1  0
  9 37  1  0
 16 38  1  0
 23 39  1  0
 23 40  1  0
 23 41  1  0
 27 42  1  0
M  CHG  2  13  -1  15  -1
M  END
>  <UniqueID>  (22) 
22

>  <SMILES>  (22) 
CN(CC(=O)Nc1ccc(C(=O)[O-])c([O-])c1)C(=O)c1nc(S(C)(=O)=O)ncc1Cl

>  <Energy>  (22) 
47.23722555457081

>  <Genealogy>  (22) 
CN(CC(=O)Nc1ccc(C(=O)[O-])c([O-])c1)C(=O)c1nc(S(C)(=O)=O)ncc1Cl (protonated)
CN(CC(=O)Nc1ccc(C(=O)[O-])c([O-])c1)C(=O)c1nc(S(C)(=O)=O)ncc1Cl (3D coordinates assigned)
CN(CC(=O)Nc1ccc(C(=O)[O-])c([O-])c1)C(=O)c1nc(S(C)(=O)=O)ncc1Cl (optimized conformer: 47.23722555457081 kcal/mol)

>  <smiles>  (22) 
CN(CC(=O)Nc1ccc(C(=O)O)c(O)c1)C(=O)c1nc(S(C)(=O)=O)ncc1Cl

>  <score_type>  (22) 
oracle

>  <origin>  (22) 
adgpu

>  <m_score__min__energy>  (22) 
-12.69

>  <m_primary>  (22) 
energy

$$$$
22:0
     RDKit          3D

 47 49  0  0  0  0  0  0  0  0999 V2000
    0.4680   19.5020  -34.1070 C   0  0  0  0  0  0  0  0  0  0  0  0
   -0.9880   19.8820  -34.4020 C   0  0  1  0  0  0  0  0  0  0  0  0
   -1.9640   18.7730  -33.9390 C   0  0  0  0  0  0  0  0  0  0  0  0
   -2.5140   19.0580  -32.5320 C   0  0  0  0  0  0  0  0  0  0  0  0
   -3.2300   20.3610  -32.4390 N   0  0  2  0  0  0  0  0  0  0  0  0
   -4.9620   20.1280  -32.5000 S   0  0  0  0  0  0  0  0  0  0  0  0
   -5.3650   19.0110  -31.5780 O   0  0  0  0  0  0  0  0  0  0  0  0
   -5.3820   19.7690  -33.8990 O   0  0  0  0  0  0  0  0  0  0  0  0
   -5.7760   21.6190  -32.0310 C   0  0  0  0  0  0  0  0  0  0  0  0
   -7.1570   21.7480  -32.2280 C   0  0  0  0  0  0  0  0  0  0  0  0
   -7.8070   22.9350  -31.8820 C   0  0  0  0  0  0  0  0  0  0  0  0
   -7.0810   24.0050  -31.3560 C   0  0  0  0  0  0  0  0  0  0  0  0
   -5.6920   23.8980  -31.1810 C   0  0  0  0  0  0  0  0  0  0  0  0
   -4.9280   25.0520  -30.6720 C   0  0  0  0  0  0  0  0  0  0  0  0
   -5.5310   26.1350  -30.4520 O   0  0  0  0  0  0  0  0  0  0  0  0
   -3.5070   24.9980  -30.4690 N   0  0  0  0  0  0  0  0  0  0  0  0
   -2.8300   24.5540  -29.2520 C   0  0  0  0  0  0  0  0  0  0  0  0
   -1.9660   23.3620  -29.5260 C   0  0  0  0  0  0  0  0  0  0  0  0
   -0.8400   22.9980  -28.8160 C   0  0  0  0  0  0  0  0  0  0  0  0
   -0.3620   21.8650  -29.4390 C   0  0  0  0  0  0  0  0  0  0  0  0
   -1.2250   21.6090  -30.4860 C   0  0  0  0  0  0  0  0  0  0  0  0
   -2.1710   22.5190  -30.5110 O   0  0  0  0  0  0  0  0  0  0  0  0
   -5.0480   22.6930  -31.4990 C   0  0  0  0  0  0  0  0  0  0  0  0
   -2.8250   21.3530  -33.4640 C   0  0  0  0  0  0  0  0  0  0  0  0
   -1.3280   21.2560  -33.7780 C   0  0  0  0  0  0  0  0  0  0  0  0
    0.6231   19.4615  -33.0187 H   0  0  0  0  0  0  0  0  0  0  0  0
    0.6859   18.5169  -34.5453 H   0  0  0  0  0  0  0  0  0  0  0  0
    1.1395   20.2550  -34.5453 H   0  0  0  0  0  0  0  0  0  0  0  0
   -1.1089   19.9744  -35.4914 H   0  0  0  0  0  0  0  0  0  0  0  0
   -1.4315   17.8106  -33.9264 H   0  0  0  0  0  0  0  0  0  0  0  0
   -2.8104   18.7430  -34.6409 H   0  0  0  0  0  0  0  0  0  0  0  0
   -1.6733   19.0688  -31.8227 H   0  0  0  0  0  0  0  0  0  0  0  0
   -3.2404   18.2663  -32.2965 H   0  0  0  0  0  0  0  0  0  0  0  0
   -3.0220   20.7710  -31.4980 H   0  0  0  0  0  0  0  0  0  0  0  0
   -7.7307   20.9128  -32.6561 H   0  0  0  0  0  0  0  0  0  0  0  0
   -8.8939   23.0268  -32.0244 H   0  0  0  0  0  0  0  0  0  0  0  0
   -7.5987   24.9348  -31.0778 H   0  0  0  0  0  0  0  0  0  0  0  0
   -2.2031   25.3729  -28.8693 H   0  0  0  0  0  0  0  0  0  0  0  0
   -3.5909   24.2733  -28.5089 H   0  0  0  0  0  0  0  0  0  0  0  0
   -0.4137   23.5051  -27.9379 H   0  0  0  0  0  0  0  0  0  0  0  0
    0.5278   21.2822  -29.1585 H   0  0  0  0  0  0  0  0  0  0  0  0
   -1.1338   20.7702  -31.1918 H   0  0  0  0  0  0  0  0  0  0  0  0
   -3.9659   22.5900  -31.3301 H   0  0  0  0  0  0  0  0  0  0  0  0
   -3.0473   22.3637  -33.0910 H   0  0  0  0  0  0  0  0  0  0  0  0
   -3.3858   21.1445  -34.3871 H   0  0  0  0  0  0  0  0  0  0  0  0
   -0.7550   21.3817  -32.8475 H   0  0  0  0  0  0  0  0  0  0  0  0
   -1.0657   22.0457  -34.4974 H   0  0  0  0  0  0  0  0  0  0  0  0
  1  2  1  0
  2  3  1  0
  3  4  1  0
  4  5  1  0
  5  6  1  0
  6  7  2  0
  6  8  2  0
  6  9  1  0
  9 10  2  0
 10 11  1  0
 11 12  2  0
 12 13  1  0
 13 14  1  0
 14 15  2  0
 14 16  1  0
 16 17  1  0
 17 18  1  0
 18 19  2  0
 19 20  1  0
 20 21  2  0
 21 22  1  0
 13 23  2  0
  5 24  1  0
 24 25  1  0
 25  2  1  0
 23  9  1  0
 22 18  1  0
  1 26  1  0
  1 27  1  0
  1 28  1  0
  2 29  1  6
  3 30  1  0
  3 31  1  0
  4 32  1  0
  4 33  1  0
  5 34  1  1
 10 35  1  0
 11 36  1  0
 12 37  1  0
 17 38  1  0
 17 39  1  0
 19 40  1  0
 20 41  1  0
 21 42  1  0
 23 43  1  0
 24 44  1  0
 24 45  1  0
 25 46  1  0
 25 47  1  0
M  CHG  2   5   1  16  -1
M  END
>  <UniqueID>  (23) 
23

>  <SMILES>  (23) 
CC1CC[NH+](S(=O)(=O)c2cccc(C(=O)[N-]Cc3ccco3)c2)CC1

>  <Energy>  (23) 
78.1094964199553

>  <Genealogy>  (23) 
CC1CC[NH+](S(=O)(=O)c2cccc(C(=O)[N-]Cc3ccco3)c2)CC1 (protonated)
CC1CC[NH+](S(=O)(=O)c2cccc(C(=O)[N-]Cc3ccco3)c2)CC1 (3D coordinates assigned)
CC1CC[NH+](S(=O)(=O)c2cccc(C(=O)[N-]Cc3ccco3)c2)CC1 (nonaromatic ring conformer: 78.1094964199553 kcal/mol)

>  <smiles>  (23) 
CC1CCN(S(=O)(=O)c2cccc(C(=O)NCc3ccco3)c2)CC1

>  <score_type>  (23) 
oracle

>  <origin>  (23) 
adgpu

>  <m_score__min__energy>  (23) 
-11.16

>  <m_primary>  (23) 
energy

$$$$
23:0
     RDKit          3D

 25 28  0  0  0  0  0  0  0  0999 V2000
   -9.8420   20.1100  -32.3500 O   0  0  0  0  0  0  0  0  0  0  0  0
   -8.6000   20.2920  -32.2670 C   0  0  0  0  0  0  0  0  0  0  0  0
   -7.9070   21.4940  -31.8020 C   0  0  0  0  0  0  0  0  0  0  0  0
   -8.4380   22.6610  -31.3620 N   0  0  0  0  0  0  0  0  0  0  0  0
   -7.6020   23.6680  -30.9690 C   0  0  0  0  0  0  0  0  0  0  0  0
   -6.1990   23.5000  -31.0180 C   0  0  0  0  0  0  0  0  0  0  0  0
   -5.0440   24.9170  -30.4660 Br  0  0  0  0  0  0  0  0  0  0  0  0
   -5.6540   22.2880  -31.4760 C   0  0  0  0  0  0  0  0  0  0  0  0
   -6.5410   21.2900  -31.8660 C   0  0  0  0  0  0  0  0  0  0  0  0
   -6.3210   19.9430  -32.3770 C   0  0  0  0  0  0  0  0  0  0  0  0
   -5.1580   19.2900  -32.6150 N   0  0  0  0  0  0  0  0  0  0  0  0
   -5.2150   18.0140  -33.1020 C   0  0  0  0  0  0  0  0  0  0  0  0
   -4.0390   17.3040  -33.3630 C   0  0  0  0  0  0  0  0  0  0  0  0
   -4.1070   15.9980  -33.8620 C   0  0  0  0  0  0  0  0  0  0  0  0
   -5.3480   15.3970  -34.1030 C   0  0  0  0  0  0  0  0  0  0  0  0
   -6.5330   16.0950  -33.8490 C   0  0  0  0  0  0  0  0  0  0  0  0
   -6.4830   17.4010  -33.3500 C   0  0  0  0  0  0  0  0  0  0  0  0
   -7.6360   18.0890  -33.0990 N   0  0  0  0  0  0  0  0  0  0  0  0
   -7.5420   19.3510  -32.6160 C   0  0  0  0  0  0  0  0  0  0  0  0
   -8.0246   24.6184  -30.6111 H   0  0  0  0  0  0  0  0  0  0  0  0
   -4.5659   22.1344  -31.5242 H   0  0  0  0  0  0  0  0  0  0  0  0
   -3.0610   17.7715  -33.1763 H   0  0  0  0  0  0  0  0  0  0  0  0
   -3.1805   15.4411  -34.0658 H   0  0  0  0  0  0  0  0  0  0  0  0
   -5.3914   14.3699  -34.4944 H   0  0  0  0  0  0  0  0  0  0  0  0
   -7.5048   15.6169  -34.0417 H   0  0  0  0  0  0  0  0  0  0  0  0
  1  2  2  0
  2  3  1  0
  3  4  2  0
  4  5  1  0
  5  6  2  0
  6  7  1  0
  6  8  1  0
  8  9  2  0
  9 10  1  0
 10 11  2  0
 11 12  1  0
 12 13  2  0
 13 14  1  0
 14 15  2  0
 15 16  1  0
 16 17  2  0
 17 18  1  0
 18 19  2  0
 19  2  1  0
  9  3  1  0
 19 10  1  0
 17 12  1  0
  5 20  1  0
  8 21  1  0
 13 22  1  0
 14 23  1  0
 15 24  1  0
 16 25  1  0
M  END
>  <UniqueID>  (24) 
24

>  <SMILES>  (24) 
O=C1c2ncc(Br)cc2-c2nc3ccccc3nc21

>  <Energy>  (24) 
72.72120266876038

>  <Genealogy>  (24) 
O=C1c2ncc(Br)cc2-c2nc3ccccc3nc21 (3D coordinates assigned)
O=C1c2ncc(Br)cc2-c2nc3ccccc3nc21 (nonaromatic ring conformer: 72.72120266876038 kcal/mol)

>  <smiles>  (24) 
O=C1c2ncc(Br)cc2-c2nc3ccccc3nc21

>  <score_type>  (24) 
oracle

>  <origin>  (24) 
adgpu

>  <m_score__min__energy>  (24) 
-7.6900000000000004

>  <m_primary>  (24) 
energy

$$$$
24:0
     RDKit          3D

 59 62  0  0  0  0  0  0  0  0999 V2000
   -2.0270   21.9030  -33.5360 O   0  0  0  0  0  0  0  0  0  0  0  0
   -2.7900   21.6200  -32.2720 S   0  0  0  0  0  0  0  0  0  0  0  0
   -3.9870   20.7620  -32.5770 O   0  0  0  0  0  0  0  0  0  0  0  0
   -3.2990   23.1250  -31.5780 N   0  0  0  0  0  0  0  0  0  0  0  0
   -4.6480   23.4830  -31.2540 C   0  0  0  0  0  0  0  0  0  0  0  0
   -5.7180   22.5830  -31.4140 C   0  0  0  0  0  0  0  0  0  0  0  0
   -7.0220   22.9620  -31.0690 C   0  0  0  0  0  0  0  0  0  0  0  0
   -8.3520   21.8220  -31.2670 S   0  0  0  0  0  0  0  0  0  0  0  0
   -9.2810   22.3100  -32.3450 O   0  0  0  0  0  0  0  0  0  0  0  0
   -9.1190   21.7460  -29.9760 O   0  0  0  0  0  0  0  0  0  0  0  0
   -7.7310   20.2430  -31.6760 N   0  0  0  0  0  0  0  0  0  0  0  0
   -7.2560   20.2310  -33.0700 C   0  0  0  0  0  0  0  0  0  0  0  0
   -6.5070   18.9210  -33.3690 C   0  0  0  0  0  0  0  0  0  0  0  0
   -6.9620   17.7630  -32.4640 C   0  0  0  0  0  0  0  0  0  0  0  0
   -8.4530   17.8760  -32.1430 C   0  0  0  0  0  0  0  0  0  0  0  0
   -8.7860   19.2260  -31.4660 C   0  0  0  0  0  0  0  0  0  0  0  0
   -7.2620   24.2510  -30.5760 C   0  0  0  0  0  0  0  0  0  0  0  0
   -6.2060   25.1490  -30.4210 C   0  0  0  0  0  0  0  0  0  0  0  0
   -4.9030   24.7680  -30.7530 C   0  0  0  0  0  0  0  0  0  0  0  0
   -3.8600   25.6740  -30.5890 O   0  0  0  0  0  0  0  0  0  0  0  0
   -1.7650   20.7730  -31.1130 C   0  0  0  0  0  0  0  0  0  0  0  0
   -1.7610   21.1880  -29.7730 C   0  0  0  0  0  0  0  0  0  0  0  0
   -0.9720   20.5250  -28.8240 C   0  0  0  0  0  0  0  0  0  0  0  0
   -0.9760   21.0700  -27.1480 S   0  0  0  0  0  0  0  0  0  0  0  0
    0.3900   21.5750  -26.7720 O   0  0  0  0  0  0  0  0  0  0  0  0
   -1.3150   19.9070  -26.2570 O   0  0  0  0  0  0  0  0  0  0  0  0
   -2.1730   22.3240  -26.9510 N   0  0  0  0  0  0  0  0  0  0  0  0
   -3.4620   21.9240  -27.5150 C   0  0  0  0  0  0  0  0  0  0  0  0
   -4.1730   23.2030  -27.9270 C   0  0  0  0  0  0  0  0  0  0  0  0
   -3.0750   24.2460  -28.0640 C   0  0  0  0  0  0  0  0  0  0  0  0
   -1.7860   23.5420  -27.6640 C   0  0  0  0  0  0  0  0  0  0  0  0
   -0.1720   19.4470  -29.2180 C   0  0  0  0  0  0  0  0  0  0  0  0
   -0.1770   19.0210  -30.5500 C   0  0  0  0  0  0  0  0  0  0  0  0
   -0.9750   19.6730  -31.4960 C   0  0  0  0  0  0  0  0  0  0  0  0
   -0.9780   19.2160  -32.8100 O   0  0  0  0  0  0  0  0  0  0  0  0
   -5.5293   21.5753  -31.8126 H   0  0  0  0  0  0  0  0  0  0  0  0
   -8.1181   20.3186  -33.7476 H   0  0  0  0  0  0  0  0  0  0  0  0
   -6.5697   21.0773  -33.2209 H   0  0  0  0  0  0  0  0  0  0  0  0
   -6.6889   18.6419  -34.4174 H   0  0  0  0  0  0  0  0  0  0  0  0
   -5.4381   19.0956  -33.1768 H   0  0  0  0  0  0  0  0  0  0  0  0
   -6.7755   16.8088  -32.9786 H   0  0  0  0  0  0  0  0  0  0  0  0
   -6.3949   17.8085  -31.5225 H   0  0  0  0  0  0  0  0  0  0  0  0
   -9.0271   17.7936  -33.0776 H   0  0  0  0  0  0  0  0  0  0  0  0
   -8.7188   17.0662  -31.4476 H   0  0  0  0  0  0  0  0  0  0  0  0
   -9.7301   19.6062  -31.8834 H   0  0  0  0  0  0  0  0  0  0  0  0
   -8.8647   19.0458  -30.3837 H   0  0  0  0  0  0  0  0  0  0  0  0
   -8.2851   24.5556  -30.3106 H   0  0  0  0  0  0  0  0  0  0  0  0
   -6.3995   26.1611  -30.0359 H   0  0  0  0  0  0  0  0  0  0  0  0
   -2.3828   22.0414  -29.4647 H   0  0  0  0  0  0  0  0  0  0  0  0
   -3.3083   21.2765  -28.3908 H   0  0  0  0  0  0  0  0  0  0  0  0
   -4.0566   21.3586  -26.7824 H   0  0  0  0  0  0  0  0  0  0  0  0
   -4.6932   23.0629  -28.8860 H   0  0  0  0  0  0  0  0  0  0  0  0
   -4.9349   23.5035  -27.1927 H   0  0  0  0  0  0  0  0  0  0  0  0
   -3.0113   24.6016  -29.1030 H   0  0  0  0  0  0  0  0  0  0  0  0
   -3.2697   25.1258  -27.4331 H   0  0  0  0  0  0  0  0  0  0  0  0
   -1.2004   23.2867  -28.5595 H   0  0  0  0  0  0  0  0  0  0  0  0
   -1.1631   24.1897  -27.0295 H   0  0  0  0  0  0  0  0  0  0  0  0
    0.4615   18.9340  -28.4794 H   0  0  0  0  0  0  0  0  0  0  0  0
    0.4492   18.1697  -30.8551 H   0  0  0  0  0  0  0  0  0  0  0  0
  1  2  2  0
  2  3  2  0
  2  4  1  0
  4  5  1  0
  5  6  2  0
  6  7  1  0
  7  8  1  0
  8  9  2  0
  8 10  2  0
  8 11  1  0
 11 12  1  0
 12 13  1  0
 13 14  1  0
 14 15  1  0
 15 16  1  0
  7 17  2  0
 17 18  1  0
 18 19  2  0
 19 20  1  0
  2 21  1  0
 21 22  2  0
 22 23  1  0
 23 24  1  0
 24 25  2  0
 24 26  2  0
 24 27  1  0
 27 28  1  0
 28 29  1  0
 29 30  1  0
 30 31  1  0
 23 32  2  0
 32 33  1  0
 33 34  2  0
 34 35  1  0
 19  5  1  0
 34 21  1  0
 16 11  1  0
 31 27  1  0
  6 36  1  0
 12 37  1  0
 12 38  1  0
 13 39  1  0
 13 40  1  0
 14 41  1  0
 14 42  1  0
 15 43  1  0
 15 44  1  0
 16 45  1  0
 16 46  1  0
 17 47  1  0
 18 48  1  0
 22 49  1  0
 28 50  1  0
 28 51  1  0
 29 52  1  0
 29 53  1  0
 30 54  1  0
 30 55  1  0
 31 56  1  0
 31 57  1  0
 32 58  1  0
 33 59  1  0
M  CHG  3   4  -1  20  -1  35  -1
M  END
>  <UniqueID>  (25) 
25

>  <SMILES>  (25) 
O=S(=O)([N-]c1cc(S(=O)(=O)N2CCCCC2)ccc1[O-])c1cc(S(=O)(=O)N2CCCC2)ccc1[O-]

>  <Energy>  (25) 
69.56171938368539

>  <Genealogy>  (25) 
O=S(=O)([N-]c1cc(S(=O)(=O)N2CCCCC2)ccc1[O-])c1cc(S(=O)(=O)N2CCCC2)ccc1[O-] (protonated)
O=S(=O)([N-]c1cc(S(=O)(=O)N2CCCCC2)ccc1[O-])c1cc(S(=O)(=O)N2CCCC2)ccc1[O-] (3D coordinates assigned)
O=S(=O)([N-]c1cc(S(=O)(=O)N2CCCCC2)ccc1[O-])c1cc(S(=O)(=O)N2CCCC2)ccc1[O-] (nonaromatic ring conformer: 69.56171938368539 kcal/mol)

>  <smiles>  (25) 
O=S(=O)(Nc1cc(S(=O)(=O)N2CCCCC2)ccc1O)c1cc(S(=O)(=O)N2CCCC2)ccc1O

>  <score_type>  (25) 
oracle

>  <origin>  (25) 
adgpu

>  <m_score__min__energy>  (25) 
-15.460000000000001

>  <m_primary>  (25) 
energy

$$$$
25:0
     RDKit          3D

 53 57  0  0  0  0  0  0  0  0999 V2000
   -6.2910   25.8030  -29.5270 O   0  0  0  0  0  0  0  0  0  0  0  0
   -5.1240   24.9220  -29.8720 S   0  0  0  0  0  0  0  0  0  0  0  0
   -4.2780   25.6230  -30.8970 O   0  0  0  0  0  0  0  0  0  0  0  0
   -4.1700   24.6250  -28.4590 N   0  0  0  0  0  0  0  0  0  0  0  0
   -3.0100   23.7990  -28.5360 C   0  0  0  0  0  0  0  0  0  0  0  0
   -3.0870   22.4540  -28.1540 C   0  0  0  0  0  0  0  0  0  0  0  0
   -1.9410   21.6520  -28.1590 C   0  0  0  0  0  0  0  0  0  0  0  0
   -0.7050   22.1940  -28.5630 C   0  0  0  0  0  0  0  0  0  0  0  0
   -0.6360   23.5380  -28.9610 C   0  0  0  0  0  0  0  0  0  0  0  0
   -1.7820   24.3400  -28.9440 C   0  0  0  0  0  0  0  0  0  0  0  0
   -1.6940   25.6730  -29.3300 O   0  0  0  0  0  0  0  0  0  0  0  0
    0.5470   21.3510  -28.5870 C   0  0  0  0  0  0  0  0  0  0  0  0
    0.3480   19.9390  -28.0920 C   0  0  0  0  0  0  0  0  0  0  0  0
    1.4480   19.0690  -28.0270 C   0  0  0  0  0  0  0  0  0  0  0  0
    1.2810   17.7540  -27.5820 C   0  0  0  0  0  0  0  0  0  0  0  0
    0.0160   17.2950  -27.2060 C   0  0  0  0  0  0  0  0  0  0  0  0
   -1.0860   18.1510  -27.2720 C   0  0  0  0  0  0  0  0  0  0  0  0
   -0.9260   19.4730  -27.7070 C   0  0  0  0  0  0  0  0  0  0  0  0
   -2.0360   20.3190  -27.7520 O   0  0  0  0  0  0  0  0  0  0  0  0
   -5.6960   23.3870  -30.5170 C   0  0  0  0  0  0  0  0  0  0  0  0
   -4.8600   22.6310  -31.3490 C   0  0  0  0  0  0  0  0  0  0  0  0
   -5.3390   21.4680  -31.9570 C   0  0  0  0  0  0  0  0  0  0  0  0
   -6.6570   21.0460  -31.7340 C   0  0  0  0  0  0  0  0  0  0  0  0
   -7.2820   19.6090  -32.5510 S   0  0  0  0  0  0  0  0  0  0  0  0
   -7.6730   18.5860  -31.5200 O   0  0  0  0  0  0  0  0  0  0  0  0
   -8.5170   19.9880  -33.3240 O   0  0  0  0  0  0  0  0  0  0  0  0
   -6.1160   18.8980  -33.6450 N   0  0  0  0  0  0  0  0  0  0  0  0
   -4.8160   18.7170  -33.0070 C   0  0  0  0  0  0  0  0  0  0  0  0
   -4.1280   17.6010  -33.7630 C   0  0  0  0  0  0  0  0  0  0  0  0
   -5.2630   16.7290  -34.2660 C   0  0  0  0  0  0  0  0  0  0  0  0
   -6.5260   17.5740  -34.1240 C   0  0  0  0  0  0  0  0  0  0  0  0
   -7.4770   21.7780  -30.8640 C   0  0  0  0  0  0  0  0  0  0  0  0
   -7.0030   22.9490  -30.2680 C   0  0  0  0  0  0  0  0  0  0  0  0
   -4.0533   22.0261  -27.8486 H   0  0  0  0  0  0  0  0  0  0  0  0
    0.3244   23.9631  -29.2881 H   0  0  0  0  0  0  0  0  0  0  0  0
    0.9132   21.3055  -29.6233 H   0  0  0  0  0  0  0  0  0  0  0  0
    1.2646   21.8288  -27.9038 H   0  0  0  0  0  0  0  0  0  0  0  0
    2.4451   19.4233  -28.3273 H   0  0  0  0  0  0  0  0  0  0  0  0
    2.1479   17.0790  -27.5278 H   0  0  0  0  0  0  0  0  0  0  0  0
   -0.1122   16.2594  -26.8580 H   0  0  0  0  0  0  0  0  0  0  0  0
   -2.0822   17.7860  -26.9816 H   0  0  0  0  0  0  0  0  0  0  0  0
   -3.8232   22.9541  -31.5241 H   0  0  0  0  0  0  0  0  0  0  0  0
   -4.6794   20.8812  -32.6132 H   0  0  0  0  0  0  0  0  0  0  0  0
   -4.2261   19.6431  -33.0734 H   0  0  0  0  0  0  0  0  0  0  0  0
   -4.9231   18.4725  -31.9399 H   0  0  0  0  0  0  0  0  0  0  0  0
   -3.5441   18.0031  -34.6041 H   0  0  0  0  0  0  0  0  0  0  0  0
   -3.4189   17.0436  -33.1334 H   0  0  0  0  0  0  0  0  0  0  0  0
   -5.0999   16.4567  -35.3192 H   0  0  0  0  0  0  0  0  0  0  0  0
   -5.3364   15.7899  -33.6979 H   0  0  0  0  0  0  0  0  0  0  0  0
   -7.0286   17.6656  -35.0982 H   0  0  0  0  0  0  0  0  0  0  0  0
   -7.2290   17.1064  -33.4190 H   0  0  0  0  0  0  0  0  0  0  0  0
   -8.4979   21.4288  -30.6498 H   0  0  0  0  0  0  0  0  0  0  0  0
   -7.6580   23.5289  -29.6012 H   0  0  0  0  0  0  0  0  0  0  0  0
  1  2  2  0
  2  3  2  0
  2  4  1  0
  4  5  1  0
  5  6  2  0
  6  7  1  0
  7  8  2  0
  8  9  1  0
  9 10  2  0
 10 11  1  0
  8 12  1  0
 12 13  1  0
 13 14  2  0
 14 15  1  0
 15 16  2  0
 16 17  1  0
 17 18  2  0
 18 19  1  0
  2 20  1  0
 20 21  2  0
 21 22  1  0
 22 23  2  0
 23 24  1  0
 24 25  2  0
 24 26  2  0
 24 27  1  0
 27 28  1  0
 28 29  1  0
 29 30  1  0
 30 31  1  0
 23 32  1  0
 32 33  2  0
 10  5  1  0
 18 13  1  0
 33 20  1  0
 19  7  1  0
 31 27  1  0
  6 34  1  0
  9 35  1  0
 12 36  1  0
 12 37  1  0
 14 38  1  0
 15 39  1  0
 16 40  1  0
 17 41  1  0
 21 42  1  0
 22 43  1  0
 28 44  1  0
 28 45  1  0
 29 46  1  0
 29 47  1  0
 30 48  1  0
 30 49  1  0
 31 50  1  0
 31 51  1  0
 32 52  1  0
 33 53  1  0
M  CHG  2   4  -1  11  -1
M  END
>  <UniqueID>  (26) 
26

>  <SMILES>  (26) 
O=S(=O)([N-]c1cc2c(cc1[O-])Cc1ccccc1O2)c1ccc(S(=O)(=O)N2CCCC2)cc1

>  <Energy>  (26) 
69.4528069097277

>  <Genealogy>  (26) 
O=S(=O)([N-]c1cc2c(cc1[O-])Cc1ccccc1O2)c1ccc(S(=O)(=O)N2CCCC2)cc1 (protonated)
O=S(=O)([N-]c1cc2c(cc1[O-])Cc1ccccc1O2)c1ccc(S(=O)(=O)N2CCCC2)cc1 (3D coordinates assigned)
O=S(=O)([N-]c1cc2c(cc1[O-])Cc1ccccc1O2)c1ccc(S(=O)(=O)N2CCCC2)cc1 (nonaromatic ring conformer: 69.4528069097277 kcal/mol)

>  <smiles>  (26) 
O=S(=O)(Nc1cc2c(cc1O)Cc1ccccc1O2)c1ccc(S(=O)(=O)N2CCCC2)cc1

>  <score_type>  (26) 
oracle

>  <origin>  (26) 
adgpu

>  <m_score__min__energy>  (26) 
-14.890000000000001

>  <m_primary>  (26) 
energy

$$$$
26:0
     RDKit          3D

 37 39  0  0  0  0  0  0  0  0999 V2000
   -4.0460   21.4350  -33.4790 O   0  0  0  0  0  0  0  0  0  0  0  0
   -3.0910   21.7580  -32.7220 C   0  0  0  0  0  0  0  0  0  0  0  0
   -3.2660   22.7800  -31.7270 N   0  0  0  0  0  0  0  0  0  0  0  0
   -4.5490   23.3060  -31.3440 C   0  0  0  0  0  0  0  0  0  0  0  0
   -5.7270   22.5670  -31.5580 C   0  0  0  0  0  0  0  0  0  0  0  0
   -6.9740   23.0830  -31.1770 C   0  0  0  0  0  0  0  0  0  0  0  0
   -8.4480   22.1510  -31.4620 S   0  0  0  0  0  0  0  0  0  0  0  0
   -9.3900   22.9680  -32.3020 O   0  0  0  0  0  0  0  0  0  0  0  0
   -9.1180   21.8790  -30.1430 O   0  0  0  0  0  0  0  0  0  0  0  0
   -8.1420   20.6310  -32.2690 N   0  0  0  0  0  0  0  0  0  0  0  0
   -7.0390   19.8950  -31.6560 C   0  0  0  0  0  0  0  0  0  0  0  0
   -7.2720   18.4270  -31.9750 C   0  0  0  0  0  0  0  0  0  0  0  0
   -8.7460   18.3220  -32.3410 C   0  0  0  0  0  0  0  0  0  0  0  0
   -9.2940   19.7340  -32.2060 C   0  0  0  0  0  0  0  0  0  0  0  0
   -7.0400   24.3330  -30.5460 C   0  0  0  0  0  0  0  0  0  0  0  0
   -5.8740   25.0610  -30.3050 C   0  0  0  0  0  0  0  0  0  0  0  0
   -4.6310   24.5530  -30.6980 C   0  0  0  0  0  0  0  0  0  0  0  0
   -3.4820   25.2970  -30.4540 O   0  0  0  0  0  0  0  0  0  0  0  0
   -1.7830   21.1060  -32.8930 C   0  0  0  0  0  0  0  0  0  0  0  0
   -1.4870   20.1000  -33.7880 C   0  0  0  0  0  0  0  0  0  0  0  0
   -0.1560   19.8290  -33.5620 C   0  0  0  0  0  0  0  0  0  0  0  0
    0.3060   20.6340  -32.5850 N   0  0  0  0  0  0  0  0  0  0  0  0
   -0.6850   21.4120  -32.1770 N   0  0  0  0  0  0  0  0  0  0  0  0
   -2.4120   23.2200  -31.3170 H   0  0  0  0  0  0  0  0  0  0  0  0
   -5.6692   21.5746  -32.0289 H   0  0  0  0  0  0  0  0  0  0  0  0
   -6.0790   20.2280  -32.0772 H   0  0  0  0  0  0  0  0  0  0  0  0
   -7.0009   20.0657  -30.5700 H   0  0  0  0  0  0  0  0  0  0  0  0
   -6.6422   18.1121  -32.8201 H   0  0  0  0  0  0  0  0  0  0  0  0
   -7.0142   17.7777  -31.1253 H   0  0  0  0  0  0  0  0  0  0  0  0
   -8.8619   17.9607  -33.3735 H   0  0  0  0  0  0  0  0  0  0  0  0
   -9.2799   17.6110  -31.6934 H   0  0  0  0  0  0  0  0  0  0  0  0
   -9.9913   19.9518  -33.0284 H   0  0  0  0  0  0  0  0  0  0  0  0
   -9.8460   19.8592  -31.2628 H   0  0  0  0  0  0  0  0  0  0  0  0
   -8.0143   24.7415  -30.2397 H   0  0  0  0  0  0  0  0  0  0  0  0
   -5.9325   26.0385  -29.8039 H   0  0  0  0  0  0  0  0  0  0  0  0
   -2.1599   19.6231  -34.5159 H   0  0  0  0  0  0  0  0  0  0  0  0
    0.4380   19.0727  -34.0961 H   0  0  0  0  0  0  0  0  0  0  0  0
  1  2  2  0
  2  3  1  0
  3  4  1  0
  4  5  2  0
  5  6  1  0
  6  7  1  0
  7  8  2  0
  7  9  2  0
  7 10  1  0
 10 11  1  0
 11 12  1  0
 12 13  1  0
 13 14  1  0
  6 15  2  0
 15 16  1  0
 16 17  2  0
 17 18  1  0
  2 19  1  0
 19 20  1  0
 20 21  2  0
 21 22  1  0
 22 23  1  0
 17  4  1  0
 23 19  2  0
 14 10  1  0
  3 24  1  0
  5 25  1  0
 11 26  1  0
 11 27  1  0
 12 28  1  0
 12 29  1  0
 13 30  1  0
 13 31  1  0
 14 32  1  0
 14 33  1  0
 15 34  1  0
 16 35  1  0
 20 36  1  0
 21 37  1  0
M  CHG  2  18  -1  22  -1
M  END
>  <UniqueID>  (27) 
27

>  <SMILES>  (27) 
O=C(Nc1cc(S(=O)(=O)N2CCCC2)ccc1[O-])c1cc[n-]n1

>  <Energy>  (27) 
71.39857296340932

>  <Genealogy>  (27) 
O=C(Nc1cc(S(=O)(=O)N2CCCC2)ccc1[O-])c1cc[n-]n1 (protonated)
O=C(Nc1cc(S(=O)(=O)N2CCCC2)ccc1[O-])c1cc[n-]n1 (3D coordinates assigned)
O=C(Nc1cc(S(=O)(=O)N2CCCC2)ccc1[O-])c1cc[n-]n1 (nonaromatic ring conformer: 71.39857296340932 kcal/mol)

>  <smiles>  (27) 
O=C(Nc1cc(S(=O)(=O)N2CCCC2)ccc1O)c1cc[nH]n1

>  <score_type>  (27) 
oracle

>  <origin>  (27) 
adgpu

>  <m_score__min__energy>  (27) 
-11.49

>  <m_primary>  (27) 
energy

$$$$
27:0
     RDKit          3D

 40 42  0  0  0  0  0  0  0  0999 V2000
   -1.8070   24.2770  -27.0540 C   0  0  0  0  0  0  0  0  0  0  0  0
   -1.4750   24.7050  -28.4510 C   0  0  0  0  0  0  0  0  0  0  0  0
   -0.2940   24.5720  -28.8640 O   0  0  0  0  0  0  0  0  0  0  0  0
   -2.4500   25.2980  -29.3190 N   0  0  0  0  0  0  0  0  0  0  0  0
   -3.6830   24.7060  -29.7520 C   0  0  0  0  0  0  0  0  0  0  0  0
   -4.0220   23.4310  -29.2840 C   0  0  0  0  0  0  0  0  0  0  0  0
   -5.2270   22.8340  -29.6660 C   0  0  0  0  0  0  0  0  0  0  0  0
   -6.1200   23.5160  -30.5090 C   0  0  0  0  0  0  0  0  0  0  0  0
   -7.4120   22.8730  -30.9390 C   0  0  0  0  0  0  0  0  0  0  0  0
   -7.1460   21.6010  -31.6150 N   0  0  0  0  0  0  0  0  0  0  0  0
   -7.9300   20.4990  -31.5900 C   0  0  0  0  0  0  0  0  0  0  0  0
   -9.1150   20.3970  -30.8710 O   0  0  0  0  0  0  0  0  0  0  0  0
   -7.3920   19.5060  -32.3810 C   0  0  0  0  0  0  0  0  0  0  0  0
   -6.2550   20.0320  -32.9500 C   0  0  0  0  0  0  0  0  0  0  0  0
   -6.1180   21.3110  -32.4480 C   0  0  0  0  0  0  0  0  0  0  0  0
   -5.0710   22.1760  -32.7580 O   0  0  0  0  0  0  0  0  0  0  0  0
   -5.3360   19.2640  -33.8490 C   0  0  0  0  0  0  0  0  0  0  0  0
   -6.0630   18.0370  -34.4370 C   0  0  0  0  0  0  0  0  0  0  0  0
   -6.8620   17.2720  -33.3590 C   0  0  0  0  0  0  0  0  0  0  0  0
   -7.9500   18.1570  -32.7180 C   0  0  0  0  0  0  0  0  0  0  0  0
   -5.7960   24.8080  -30.9490 C   0  0  0  0  0  0  0  0  0  0  0  0
   -4.5900   25.4030  -30.5670 C   0  0  0  0  0  0  0  0  0  0  0  0
   -1.2956   24.9363  -26.3372 H   0  0  0  0  0  0  0  0  0  0  0  0
   -2.8942   24.3407  -26.8996 H   0  0  0  0  0  0  0  0  0  0  0  0
   -1.4749   23.2398  -26.8996 H   0  0  0  0  0  0  0  0  0  0  0  0
   -3.3359   22.8954  -28.6114 H   0  0  0  0  0  0  0  0  0  0  0  0
   -5.4770   21.8255  -29.3048 H   0  0  0  0  0  0  0  0  0  0  0  0
   -8.0384   22.6894  -30.0536 H   0  0  0  0  0  0  0  0  0  0  0  0
   -7.9327   23.5466  -31.6356 H   0  0  0  0  0  0  0  0  0  0  0  0
   -4.9980   22.6240  -33.6620 H   0  0  0  0  0  0  0  0  0  0  0  0
   -5.0029   19.9161  -34.6699 H   0  0  0  0  0  0  0  0  0  0  0  0
   -4.4695   18.9202  -33.2651 H   0  0  0  0  0  0  0  0  0  0  0  0
   -6.7566   18.3759  -35.2206 H   0  0  0  0  0  0  0  0  0  0  0  0
   -5.3043   17.3549  -34.8482 H   0  0  0  0  0  0  0  0  0  0  0  0
   -7.3419   16.3984  -33.8243 H   0  0  0  0  0  0  0  0  0  0  0  0
   -6.1619   16.9637  -32.5685 H   0  0  0  0  0  0  0  0  0  0  0  0
   -8.7841   18.2758  -33.4252 H   0  0  0  0  0  0  0  0  0  0  0  0
   -8.3042   17.6757  -31.7945 H   0  0  0  0  0  0  0  0  0  0  0  0
   -6.4947   25.3560  -31.5982 H   0  0  0  0  0  0  0  0  0  0  0  0
   -4.3504   26.4216  -30.9062 H   0  0  0  0  0  0  0  0  0  0  0  0
  1  2  1  0
  2  3  2  0
  2  4  1  0
  4  5  1  0
  5  6  2  0
  6  7  1  0
  7  8  2  0
  8  9  1  0
  9 10  1  0
 10 11  1  0
 11 12  1  0
 11 13  2  0
 13 14  1  0
 14 15  2  0
 15 16  1  0
 14 17  1  0
 17 18  1  0
 18 19  1  0
 19 20  1  0
  8 21  1  0
 21 22  2  0
 22  5  1  0
 15 10  1  0
 20 13  1  0
  1 23  1  0
  1 24  1  0
  1 25  1  0
  6 26  1  0
  7 27  1  0
  9 28  1  0
  9 29  1  0
 16 30  1  0
 17 31  1  0
 17 32  1  0
 18 33  1  0
 18 34  1  0
 19 35  1  0
 19 36  1  0
 20 37  1  0
 20 38  1  0
 21 39  1  0
 22 40  1  0
M  CHG  2   4  -1  12  -1
M  END
>  <UniqueID>  (28) 
28

>  <SMILES>  (28) 
CC(=O)[N-]c1ccc(Cn2c([O-])c3c(c2O)CCCC3)cc1

>  <Energy>  (28) 
71.36193200781284

>  <Genealogy>  (28) 
CC(=O)[N-]c1ccc(Cn2c([O-])c3c(c2O)CCCC3)cc1 (protonated)
CC(=O)[N-]c1ccc(Cn2c([O-])c3c(c2O)CCCC3)cc1 (3D coordinates assigned)
CC(=O)[N-]c1ccc(Cn2c([O-])c3c(c2O)CCCC3)cc1 (nonaromatic ring conformer: 71.36193200781284 kcal/mol)

>  <smiles>  (28) 
CC(=O)Nc1ccc(Cn2c(O)c3c(c2O)CCCC3)cc1

>  <score_type>  (28) 
oracle

>  <origin>  (28) 
adgpu

>  <m_score__min__energy>  (28) 
-9.9000000000000004

>  <m_primary>  (28) 
energy

$$$$
28:0
     RDKit          3D

 49 52  0  0  0  0  0  0  0  0999 V2000
   -3.2480   17.4850  -34.2170 C   0  0  0  0  0  0  0  0  0  0  0  0
   -4.6200   17.6970  -33.6500 C   0  0  0  0  0  0  0  0  0  0  0  0
   -5.0870   16.8770  -32.6130 C   0  0  0  0  0  0  0  0  0  0  0  0
   -6.3790   17.0480  -32.1060 C   0  0  0  0  0  0  0  0  0  0  0  0
   -7.2260   18.0320  -32.6330 C   0  0  0  0  0  0  0  0  0  0  0  0
   -8.5130   18.1630  -32.0830 O   0  0  0  0  0  0  0  0  0  0  0  0
   -9.4680   19.1580  -32.4510 C   0  0  0  0  0  0  0  0  0  0  0  0
   -8.9460   20.5250  -32.1430 C   0  0  0  0  0  0  0  0  0  0  0  0
   -7.7050   20.7720  -31.6820 N   0  0  0  0  0  0  0  0  0  0  0  0
   -7.7240   22.1170  -31.5700 C   0  0  0  0  0  0  0  0  0  0  0  0
   -6.5800   22.9210  -31.0910 C   0  0  0  0  0  0  0  0  0  0  0  0
   -5.2710   22.4170  -31.1740 C   0  0  0  0  0  0  0  0  0  0  0  0
   -4.1870   23.1810  -30.7310 C   0  0  0  0  0  0  0  0  0  0  0  0
   -4.3960   24.4650  -30.1950 C   0  0  0  0  0  0  0  0  0  0  0  0
   -3.3140   25.2820  -29.7270 N   0  0  0  0  0  0  0  0  0  0  0  0
   -2.3310   24.9470  -28.3360 S   0  0  0  0  0  0  0  0  0  0  0  0
   -1.1740   25.9070  -28.3210 O   0  0  0  0  0  0  0  0  0  0  0  0
   -3.1640   25.1610  -27.1050 O   0  0  0  0  0  0  0  0  0  0  0  0
   -1.7480   23.2760  -28.3520 C   0  0  0  0  0  0  0  0  0  0  0  0
   -2.6390   22.2350  -28.0360 C   0  0  0  0  0  0  0  0  0  0  0  0
   -2.2130   20.9050  -28.0570 C   0  0  0  0  0  0  0  0  0  0  0  0
   -0.8930   20.5990  -28.3890 C   0  0  0  0  0  0  0  0  0  0  0  0
    0.0060   21.6230  -28.6910 C   0  0  0  0  0  0  0  0  0  0  0  0
   -0.4050   22.9620  -28.6670 C   0  0  0  0  0  0  0  0  0  0  0  0
    0.5480   23.9430  -28.9480 O   0  0  0  0  0  0  0  0  0  0  0  0
   -5.7010   24.9630  -30.1030 C   0  0  0  0  0  0  0  0  0  0  0  0
   -6.7850   24.2000  -30.5460 C   0  0  0  0  0  0  0  0  0  0  0  0
   -8.9090   22.6450  -31.9420 N   0  0  0  0  0  0  0  0  0  0  0  0
   -9.6360   21.6280  -32.2870 O   0  0  0  0  0  0  0  0  0  0  0  0
   -6.7630   18.8420  -33.6870 C   0  0  0  0  0  0  0  0  0  0  0  0
   -5.4710   18.6690  -34.1940 C   0  0  0  0  0  0  0  0  0  0  0  0
   -2.5250   17.3733  -33.3955 H   0  0  0  0  0  0  0  0  0  0  0  0
   -3.2434   16.5755  -34.8357 H   0  0  0  0  0  0  0  0  0  0  0  0
   -2.9691   18.3507  -34.8357 H   0  0  0  0  0  0  0  0  0  0  0  0
   -4.4342   16.0958  -32.1964 H   0  0  0  0  0  0  0  0  0  0  0  0
   -6.7332   16.4049  -31.2869 H   0  0  0  0  0  0  0  0  0  0  0  0
   -9.6716   19.0829  -33.5294 H   0  0  0  0  0  0  0  0  0  0  0  0
  -10.3923   18.9929  -31.8779 H   0  0  0  0  0  0  0  0  0  0  0  0
   -5.0977   21.4138  -31.5906 H   0  0  0  0  0  0  0  0  0  0  0  0
   -3.1665   22.7765  -30.8018 H   0  0  0  0  0  0  0  0  0  0  0  0
   -3.6802   22.4701  -27.7701 H   0  0  0  0  0  0  0  0  0  0  0  0
   -2.9190   20.0980  -27.8115 H   0  0  0  0  0  0  0  0  0  0  0  0
   -0.5607   19.5507  -28.4128 H   0  0  0  0  0  0  0  0  0  0  0  0
    1.0462   21.3765  -28.9501 H   0  0  0  0  0  0  0  0  0  0  0  0
    0.3310   24.9280  -29.0180 H   0  0  0  0  0  0  0  0  0  0  0  0
   -5.8747   25.9629  -29.6786 H   0  0  0  0  0  0  0  0  0  0  0  0
   -7.8054   24.6033  -30.4675 H   0  0  0  0  0  0  0  0  0  0  0  0
   -7.4200   19.6142  -34.1137 H   0  0  0  0  0  0  0  0  0  0  0  0
   -5.1206   19.2994  -35.0245 H   0  0  0  0  0  0  0  0  0  0  0  0
  1  2  1  0
  2  3  2  0
  3  4  1  0
  4  5  2  0
  5  6  1  0
  6  7  1  0
  7  8  1  0
  8  9  2  0
  9 10  1  0
 10 11  1  0
 11 12  2  0
 12 13  1  0
 13 14  2  0
 14 15  1  0
 15 16  1  0
 16 17  2  0
 16 18  2  0
 16 19  1  0
 19 20  2  0
 20 21  1  0
 21 22  2  0
 22 23  1  0
 23 24  2  0
 24 25  1  0
 14 26  1  0
 26 27  2  0
 10 28  2  0
 28 29  1  0
  5 30  1  0
 30 31  2  0
 31  2  1  0
 29  8  1  0
 27 11  1  0
 24 19  1  0
  1 32  1  0
  1 33  1  0
  1 34  1  0
  3 35  1  0
  4 36  1  0
  7 37  1  0
  7 38  1  0
 12 39  1  0
 13 40  1  0
 20 41  1  0
 21 42  1  0
 22 43  1  0
 23 44  1  0
 25 45  1  0
 26 46  1  0
 27 47  1  0
 30 48  1  0
 31 49  1  0
M  CHG  1  15  -1
M  END
>  <UniqueID>  (29) 
29

>  <SMILES>  (29) 
Cc1ccc(OCc2nc(-c3ccc([N-]S(=O)(=O)c4ccccc4O)cc3)no2)cc1

>  <Energy>  (29) 
90.77516844518948

>  <Genealogy>  (29) 
Cc1ccc(OCc2nc(-c3ccc([N-]S(=O)(=O)c4ccccc4O)cc3)no2)cc1 (protonated)
Cc1ccc(OCc2nc(-c3ccc([N-]S(=O)(=O)c4ccccc4O)cc3)no2)cc1 (3D coordinates assigned)
Cc1ccc(OCc2nc(-c3ccc([N-]S(=O)(=O)c4ccccc4O)cc3)no2)cc1 (optimized conformer: 90.77516844518948 kcal/mol)

>  <smiles>  (29) 
Cc1ccc(OCc2nc(-c3ccc(NS(=O)(=O)c4ccccc4O)cc3)no2)cc1

>  <score_type>  (29) 
oracle

>  <origin>  (29) 
adgpu

>  <m_score__min__energy>  (29) 
-11.43

>  <m_primary>  (29) 
energy

$$$$
29:0
     RDKit          3D

 39 41  0  0  0  0  0  0  0  0999 V2000
    4.8300   24.2610  -25.6540 N   0  0  0  0  0  0  0  0  0  0  0  0
    3.6570   25.5290  -25.6750 S   0  0  0  0  0  0  0  0  0  0  0  0
    3.4320   26.0230  -24.2730 O   0  0  0  0  0  0  0  0  0  0  0  0
    4.1640   26.6700  -26.5120 O   0  0  0  0  0  0  0  0  0  0  0  0
    2.1460   24.9230  -26.3440 C   0  0  0  0  0  0  0  0  0  0  0  0
    1.7740   23.5870  -26.1440 C   0  0  0  0  0  0  0  0  0  0  0  0
    0.5680   23.1060  -26.6630 C   0  0  0  0  0  0  0  0  0  0  0  0
   -0.2840   23.9570  -27.3860 C   0  0  0  0  0  0  0  0  0  0  0  0
   -1.5260   23.4620  -27.9200 N   0  0  0  0  0  0  0  0  0  0  0  0
   -1.9800   22.1890  -27.8840 C   0  0  0  0  0  0  0  0  0  0  0  0
   -1.3130   21.1390  -27.2640 O   0  0  0  0  0  0  0  0  0  0  0  0
   -3.2000   22.0710  -28.5190 C   0  0  0  0  0  0  0  0  0  0  0  0
   -3.5150   23.3460  -28.9460 C   0  0  0  0  0  0  0  0  0  0  0  0
   -4.7020   23.6940  -29.6670 N   0  0  0  0  0  0  0  0  0  0  0  0
   -4.7390   24.5750  -30.7920 C   0  0  0  0  0  0  0  0  0  0  0  0
   -4.0070   25.6010  -30.8210 O   0  0  0  0  0  0  0  0  0  0  0  0
   -5.6140   24.2690  -31.8830 N   0  0  0  0  0  0  0  0  0  0  0  0
   -6.4540   23.1100  -32.0080 C   0  0  0  0  0  0  0  0  0  0  0  0
   -5.8630   21.8870  -32.3510 C   0  0  0  0  0  0  0  0  0  0  0  0
   -6.6420   20.7310  -32.4640 C   0  0  0  0  0  0  0  0  0  0  0  0
   -8.0170   20.7860  -32.2170 C   0  0  0  0  0  0  0  0  0  0  0  0
   -8.9920   19.3340  -32.3560 Cl  0  0  0  0  0  0  0  0  0  0  0  0
   -8.6110   21.9970  -31.8490 C   0  0  0  0  0  0  0  0  0  0  0  0
   -7.8340   23.1550  -31.7360 C   0  0  0  0  0  0  0  0  0  0  0  0
   -2.4580   24.1720  -28.5910 C   0  0  0  0  0  0  0  0  0  0  0  0
   -2.3050   25.5140  -28.9360 O   0  0  0  0  0  0  0  0  0  0  0  0
    0.0890   25.2980  -27.5760 C   0  0  0  0  0  0  0  0  0  0  0  0
    1.2940   25.7780  -27.0560 C   0  0  0  0  0  0  0  0  0  0  0  0
    4.8030   23.8380  -24.6990 H   0  0  0  0  0  0  0  0  0  0  0  0
    2.4333   22.9139  -25.5764 H   0  0  0  0  0  0  0  0  0  0  0  0
    0.2849   22.0550  -26.5041 H   0  0  0  0  0  0  0  0  0  0  0  0
   -3.7949   21.1559  -28.6558 H   0  0  0  0  0  0  0  0  0  0  0  0
   -4.7793   21.8356  -32.5326 H   0  0  0  0  0  0  0  0  0  0  0  0
   -6.1724   19.7775  -32.7475 H   0  0  0  0  0  0  0  0  0  0  0  0
   -9.6916   22.0394  -31.6479 H   0  0  0  0  0  0  0  0  0  0  0  0
   -8.3030   24.1030  -31.4338 H   0  0  0  0  0  0  0  0  0  0  0  0
   -3.0590   26.0530  -29.3410 H   0  0  0  0  0  0  0  0  0  0  0  0
   -0.5718   25.9746  -28.1378 H   0  0  0  0  0  0  0  0  0  0  0  0
    1.5748   26.8309  -27.2061 H   0  0  0  0  0  0  0  0  0  0  0  0
  1  2  1  0
  2  3  2  0
  2  4  2  0
  2  5  1  0
  5  6  2  0
  6  7  1  0
  7  8  2  0
  8  9  1  0
  9 10  1  0
 10 11  1  0
 10 12  2  0
 12 13  1  0
 13 14  1  0
 14 15  1  0
 15 16  2  0
 15 17  1  0
 17 18  1  0
 18 19  2  0
 19 20  1  0
 20 21  2  0
 21 22  1  0
 21 23  1  0
 23 24  2  0
 13 25  2  0
 25 26  1  0
  8 27  1  0
 27 28  2  0
 28  5  1  0
 25  9  1  0
 24 18  1  0
  1 29  1  0
  6 30  1  0
  7 31  1  0
 12 32  1  0
 19 33  1  0
 20 34  1  0
 23 35  1  0
 24 36  1  0
 26 37  1  0
 27 38  1  0
 28 39  1  0
M  CHG  4   1  -1  11  -1  14  -1  17  -1
M  END
>  <UniqueID>  (30) 
30

>  <SMILES>  (30) 
[NH-]S(=O)(=O)c1ccc(-n2c([O-])cc([N-]C(=O)[N-]c3ccc(Cl)cc3)c2O)cc1

>  <Energy>  (30) 
83.97065486321442

>  <Genealogy>  (30) 
[NH-]S(=O)(=O)c1ccc(-n2c([O-])cc([N-]C(=O)[N-]c3ccc(Cl)cc3)c2O)cc1 (protonated)
[NH-]S(=O)(=O)c1ccc(-n2c([O-])cc([N-]C(=O)[N-]c3ccc(Cl)cc3)c2O)cc1 (3D coordinates assigned)
[NH-]S(=O)(=O)c1ccc(-n2c([O-])cc([N-]C(=O)[N-]c3ccc(Cl)cc3)c2O)cc1 (optimized conformer: 83.97065486321442 kcal/mol)

>  <smiles>  (30) 
NS(=O)(=O)c1ccc(-n2c(O)cc(NC(=O)Nc3ccc(Cl)cc3)c2O)cc1

>  <score_type>  (30) 
oracle

>  <origin>  (30) 
adgpu

>  <m_score__min__energy>  (30) 
-10.460000000000001

>  <m_primary>  (30) 
energy

$$$$
30:0
     RDKit          3D

 47 49  0  0  0  0  0  0  0  0999 V2000
   -2.0840   25.2580  -28.9570 O   0  0  0  0  0  0  0  0  0  0  0  0
   -2.8720   24.2760  -28.9220 C   0  0  0  0  0  0  0  0  0  0  0  0
   -2.3230   22.8700  -28.9360 C   0  0  0  0  0  0  0  0  0  0  0  0
   -2.3550   22.2560  -30.3130 C   0  0  0  0  0  0  0  0  0  0  0  0
   -3.5510   22.2210  -31.0480 C   0  0  0  0  0  0  0  0  0  0  0  0
   -3.5800   21.6360  -32.3180 C   0  0  0  0  0  0  0  0  0  0  0  0
   -2.4180   21.0780  -32.8590 C   0  0  0  0  0  0  0  0  0  0  0  0
   -1.2260   21.1000  -32.1290 C   0  0  0  0  0  0  0  0  0  0  0  0
   -1.1930   21.6850  -30.8580 C   0  0  0  0  0  0  0  0  0  0  0  0
   -4.2780   24.5320  -28.8090 N   0  0  0  0  0  0  0  0  0  0  0  0
   -5.2840   25.1290  -30.0900 S   0  0  0  0  0  0  0  0  0  0  0  0
   -4.4140   25.6250  -31.2110 O   0  0  0  0  0  0  0  0  0  0  0  0
   -6.1140   26.2710  -29.5780 O   0  0  0  0  0  0  0  0  0  0  0  0
   -6.3580   23.8520  -30.6460 C   0  0  0  0  0  0  0  0  0  0  0  0
   -6.5420   23.6180  -32.0160 C   0  0  0  0  0  0  0  0  0  0  0  0
   -7.2810   22.5130  -32.4460 C   0  0  0  0  0  0  0  0  0  0  0  0
   -7.8490   21.6370  -31.5100 C   0  0  0  0  0  0  0  0  0  0  0  0
   -8.6490   20.1610  -32.0370 S   0  0  0  0  0  0  0  0  0  0  0  0
   -9.9640   20.4960  -32.6870 O   0  0  0  0  0  0  0  0  0  0  0  0
   -8.9080   19.2840  -30.8440 O   0  0  0  0  0  0  0  0  0  0  0  0
   -7.6060   19.3310  -33.1630 N   0  0  0  0  0  0  0  0  0  0  0  0
   -7.5430   17.8940  -32.8890 C   0  0  0  0  0  0  0  0  0  0  0  0
   -6.2010   17.4080  -33.4160 C   0  0  0  0  0  0  0  0  0  0  0  0
   -5.3380   18.6570  -33.5380 C   0  0  0  0  0  0  0  0  0  0  0  0
   -6.2240   19.8110  -33.0910 C   0  0  0  0  0  0  0  0  0  0  0  0
   -7.6890   21.8880  -30.1410 C   0  0  0  0  0  0  0  0  0  0  0  0
   -6.9490   22.9920  -29.7110 C   0  0  0  0  0  0  0  0  0  0  0  0
   -1.2813   22.8936  -28.5835 H   0  0  0  0  0  0  0  0  0  0  0  0
   -2.9560   22.2554  -28.2791 H   0  0  0  0  0  0  0  0  0  0  0  0
   -4.4682   22.6552  -30.6234 H   0  0  0  0  0  0  0  0  0  0  0  0
   -4.5182   21.6149  -32.8919 H   0  0  0  0  0  0  0  0  0  0  0  0
   -2.4416   20.6214  -33.8595 H   0  0  0  0  0  0  0  0  0  0  0  0
   -0.3132   20.6571  -32.5539 H   0  0  0  0  0  0  0  0  0  0  0  0
   -0.2546   21.6977  -30.2842 H   0  0  0  0  0  0  0  0  0  0  0  0
   -6.1036   24.3059  -32.7540 H   0  0  0  0  0  0  0  0  0  0  0  0
   -7.4176   22.3297  -33.5220 H   0  0  0  0  0  0  0  0  0  0  0  0
   -7.9740   19.4810  -34.1330 H   0  0  0  0  0  0  0  0  0  0  0  0
   -7.6144   17.7107  -31.8067 H   0  0  0  0  0  0  0  0  0  0  0  0
   -8.3750   17.3616  -33.3731 H   0  0  0  0  0  0  0  0  0  0  0  0
   -5.7473   16.6939  -32.7131 H   0  0  0  0  0  0  0  0  0  0  0  0
   -6.3043   16.8865  -34.3790 H   0  0  0  0  0  0  0  0  0  0  0  0
   -4.4537   18.5778  -32.8886 H   0  0  0  0  0  0  0  0  0  0  0  0
   -4.9707   18.7996  -34.5650 H   0  0  0  0  0  0  0  0  0  0  0  0
   -5.9766   20.1017  -32.0593 H   0  0  0  0  0  0  0  0  0  0  0  0
   -6.0773   20.6940  -33.7304 H   0  0  0  0  0  0  0  0  0  0  0  0
   -8.1474   21.2138  -29.4026 H   0  0  0  0  0  0  0  0  0  0  0  0
   -6.8299   23.1868  -28.6350 H   0  0  0  0  0  0  0  0  0  0  0  0
  1  2  2  0
  2  3  1  0
  3  4  1  0
  4  5  2  0
  5  6  1  0
  6  7  2  0
  7  8  1  0
  8  9  2  0
  2 10  1  0
 10 11  1  0
 11 12  2  0
 11 13  2  0
 11 14  1  0
 14 15  2  0
 15 16  1  0
 16 17  2  0
 17 18  1  0
 18 19  2  0
 18 20  2  0
 18 21  1  0
 21 22  1  0
 22 23  1  0
 23 24  1  0
 24 25  1  0
 17 26  1  0
 26 27  2  0
  9  4  1  0
 27 14  1  0
 25 21  1  0
  3 28  1  0
  3 29  1  0
  5 30  1  0
  6 31  1  0
  7 32  1  0
  8 33  1  0
  9 34  1  0
 15 35  1  0
 16 36  1  0
 21 37  1  0
 22 38  1  0
 22 39  1  0
 23 40  1  0
 23 41  1  0
 24 42  1  0
 24 43  1  0
 25 44  1  0
 25 45  1  0
 26 46  1  0
 27 47  1  0
M  CHG  2  10  -1  21   1
M  END
>  <UniqueID>  (31) 
31

>  <SMILES>  (31) 
O=C(Cc1ccccc1)[N-]S(=O)(=O)c1ccc(S(=O)(=O)[NH+]2CCCC2)cc1

>  <Energy>  (31) 
49.578440377934044

>  <Genealogy>  (31) 
O=C(Cc1ccccc1)[N-]S(=O)(=O)c1ccc(S(=O)(=O)[NH+]2CCCC2)cc1 (protonated)
O=C(Cc1ccccc1)[N-]S(=O)(=O)c1ccc(S(=O)(=O)[NH+]2CCCC2)cc1 (3D coordinates assigned)
O=C(Cc1ccccc1)[N-]S(=O)(=O)c1ccc(S(=O)(=O)[NH+]2CCCC2)cc1 (nonaromatic ring conformer: 49.578440377934044 kcal/mol)

>  <smiles>  (31) 
O=C(Cc1ccccc1)NS(=O)(=O)c1ccc(S(=O)(=O)N2CCCC2)cc1

>  <score_type>  (31) 
oracle

>  <origin>  (31) 
adgpu

>  <m_score__min__energy>  (31) 
-11.25

>  <m_primary>  (31) 
energy

$$$$
31:0
     RDKit          3D

 40 42  0  0  0  0  0  0  0  0999 V2000
   -4.4640   22.2850  -32.7320 C   0  0  0  0  0  0  0  0  0  0  0  0
   -4.0500   20.8620  -32.9960 C   0  0  0  0  0  0  0  0  0  0  0  0
   -5.0270   19.8670  -33.1620 C   0  0  0  0  0  0  0  0  0  0  0  0
   -4.6520   18.5440  -33.4090 C   0  0  0  0  0  0  0  0  0  0  0  0
   -3.3020   18.2050  -33.5010 C   0  0  0  0  0  0  0  0  0  0  0  0
   -2.3200   19.1840  -33.3330 C   0  0  0  0  0  0  0  0  0  0  0  0
   -2.6830   20.5160  -33.0580 C   0  0  0  0  0  0  0  0  0  0  0  0
   -1.6920   21.5450  -32.9060 N   0  0  0  0  0  0  0  0  0  0  0  0
   -0.4240   21.4260  -32.2490 C   0  0  0  0  0  0  0  0  0  0  0  0
    0.6060   21.0990  -32.8950 O   0  0  0  0  0  0  0  0  0  0  0  0
   -0.3100   21.6870  -30.8480 N   0  0  0  0  0  0  0  0  0  0  0  0
   -0.3090   20.6860  -29.8200 C   0  0  0  0  0  0  0  0  0  0  0  0
   -0.3100   19.3180  -30.1360 C   0  0  0  0  0  0  0  0  0  0  0  0
   -0.2780   18.3660  -29.1160 C   0  0  0  0  0  0  0  0  0  0  0  0
   -0.2340   18.7890  -27.7880 C   0  0  0  0  0  0  0  0  0  0  0  0
   -0.2210   20.1160  -27.4960 N   0  0  0  0  0  0  0  0  0  0  0  0
   -0.2550   21.0670  -28.4680 C   0  0  0  0  0  0  0  0  0  0  0  0
   -0.2700   22.7980  -27.9830 S   0  0  0  0  0  0  0  0  0  0  0  0
   -1.9080   23.0770  -28.6740 C   0  0  0  0  0  0  0  0  0  0  0  0
   -2.8520   22.0420  -28.6090 C   0  0  0  0  0  0  0  0  0  0  0  0
   -4.1160   22.2020  -29.1800 C   0  0  0  0  0  0  0  0  0  0  0  0
   -4.4500   23.4010  -29.8140 C   0  0  0  0  0  0  0  0  0  0  0  0
   -3.5260   24.4480  -29.8640 C   0  0  0  0  0  0  0  0  0  0  0  0
   -3.8740   25.6420  -30.4860 O   0  0  0  0  0  0  0  0  0  0  0  0
   -2.2580   24.3020  -29.2850 C   0  0  0  0  0  0  0  0  0  0  0  0
   -1.3790   25.3860  -29.3150 O   0  0  0  0  0  0  0  0  0  0  0  0
   -4.5140   22.4570  -31.6467 H   0  0  0  0  0  0  0  0  0  0  0  0
   -3.7279   22.9698  -33.1782 H   0  0  0  0  0  0  0  0  0  0  0  0
   -5.4526   22.4680  -33.1782 H   0  0  0  0  0  0  0  0  0  0  0  0
   -6.0930   20.1306  -33.0972 H   0  0  0  0  0  0  0  0  0  0  0  0
   -5.4225   17.7685  -33.5311 H   0  0  0  0  0  0  0  0  0  0  0  0
   -3.0102   17.1645  -33.7063 H   0  0  0  0  0  0  0  0  0  0  0  0
   -1.2572   18.9127  -33.4160 H   0  0  0  0  0  0  0  0  0  0  0  0
   -0.3360   18.9965  -31.1877 H   0  0  0  0  0  0  0  0  0  0  0  0
   -0.2874   17.2928  -29.3572 H   0  0  0  0  0  0  0  0  0  0  0  0
   -0.2098   18.0475  -26.9758 H   0  0  0  0  0  0  0  0  0  0  0  0
   -2.5951   21.0985  -28.1052 H   0  0  0  0  0  0  0  0  0  0  0  0
   -4.8492   21.3835  -29.1306 H   0  0  0  0  0  0  0  0  0  0  0  0
   -5.4417   23.5211  -30.2745 H   0  0  0  0  0  0  0  0  0  0  0  0
   -1.6110   26.2680  -29.7550 H   0  0  0  0  0  0  0  0  0  0  0  0
  1  2  1  0
  2  3  2  0
  3  4  1  0
  4  5  2  0
  5  6  1  0
  6  7  2  0
  7  8  1  0
  8  9  1  0
  9 10  2  0
  9 11  1  0
 11 12  1  0
 12 13  2  0
 13 14  1  0
 14 15  2  0
 15 16  1  0
 16 17  2  0
 17 18  1  0
 18 19  1  0
 19 20  2  0
 20 21  1  0
 21 22  2  0
 22 23  1  0
 23 24  1  0
 23 25  2  0
 25 26  1  0
  7  2  1  0
 17 12  1  0
 25 19  1  0
  1 27  1  0
  1 28  1  0
  1 29  1  0
  3 30  1  0
  4 31  1  0
  5 32  1  0
  6 33  1  0
 13 34  1  0
 14 35  1  0
 15 36  1  0
 20 37  1  0
 21 38  1  0
 22 39  1  0
 26 40  1  0
M  CHG  3   8  -1  11  -1  24  -1
M  END
>  <UniqueID>  (32) 
32

>  <SMILES>  (32) 
Cc1ccccc1[N-]C(=O)[N-]c1cccnc1Sc1cccc([O-])c1O

>  <Energy>  (32) 
46.983847448019894

>  <Genealogy>  (32) 
Cc1ccccc1[N-]C(=O)[N-]c1cccnc1Sc1cccc([O-])c1O (protonated)
Cc1ccccc1[N-]C(=O)[N-]c1cccnc1Sc1cccc([O-])c1O (3D coordinates assigned)
Cc1ccccc1[N-]C(=O)[N-]c1cccnc1Sc1cccc([O-])c1O (optimized conformer: 46.983847448019894 kcal/mol)

>  <smiles>  (32) 
Cc1ccccc1NC(=O)Nc1cccnc1Sc1cccc(O)c1O

>  <score_type>  (32) 
oracle

>  <origin>  (32) 
adgpu

>  <m_score__min__energy>  (32) 
-11.67

>  <m_primary>  (32) 
energy

$$$$
32:0
     RDKit          3D

 71 76  0  0  0  0  0  0  0  0999 V2000
    3.5220   11.4400  -29.9230 C   0  0  0  0  0  0  0  0  0  0  0  0
    2.2100   11.7420  -29.4590 O   0  0  0  0  0  0  0  0  0  0  0  0
    1.1960   12.3180  -30.2430 C   0  0  0  0  0  0  0  0  0  0  0  0
    0.3840   11.5340  -31.0840 C   0  0  0  0  0  0  0  0  0  0  0  0
   -0.6340   12.1200  -31.8340 C   0  0  0  0  0  0  0  0  0  0  0  0
   -0.8650   13.5000  -31.7610 C   0  0  0  0  0  0  0  0  0  0  0  0
   -1.9460   14.1270  -32.5600 C   0  0  0  0  0  0  0  0  0  0  0  0
   -2.8720   13.3290  -33.2570 C   0  0  0  0  0  0  0  0  0  0  0  0
   -3.8860   13.9180  -34.0170 C   0  0  0  0  0  0  0  0  0  0  0  0
   -3.9880   15.3090  -34.0900 C   0  0  0  0  0  0  0  0  0  0  0  0
   -3.0750   16.1170  -33.4000 C   0  0  0  0  0  0  0  0  0  0  0  0
   -3.1770   17.5510  -33.4890 N   0  0  0  0  0  0  0  0  0  0  0  0
   -2.1490   18.2440  -34.0800 C   0  0  0  0  0  0  0  0  0  0  0  0
   -1.1260   17.6370  -34.5070 O   0  0  0  0  0  0  0  0  0  0  0  0
   -2.2190   19.6300  -34.2270 C   0  0  0  0  0  0  0  0  0  0  0  0
   -3.3410   20.3170  -33.7810 C   0  0  0  0  0  0  0  0  0  0  0  0
   -4.3910   19.6200  -33.1760 C   0  0  0  0  0  0  0  0  0  0  0  0
   -5.5290   20.3070  -32.7270 C   0  0  0  0  0  0  0  0  0  0  0  0
   -6.5750   19.6130  -32.1100 C   0  0  0  0  0  0  0  0  0  0  0  0
   -8.0140   20.4600  -31.5460 S   0  0  0  0  0  0  0  0  0  0  0  0
   -8.7160   21.1530  -32.6810 O   0  0  0  0  0  0  0  0  0  0  0  0
   -8.9610   19.4550  -30.9520 O   0  0  0  0  0  0  0  0  0  0  0  0
   -7.5880   21.6180  -30.3220 N   0  0  0  0  0  0  0  0  0  0  0  0
   -6.6900   22.5580  -30.4120 C   0  0  0  0  0  0  0  0  0  0  0  0
   -5.9150   22.7630  -31.5730 C   0  0  0  0  0  0  0  0  0  0  0  0
   -4.9710   23.7910  -31.5960 C   0  0  0  0  0  0  0  0  0  0  0  0
   -4.8010   24.6060  -30.4780 C   0  0  0  0  0  0  0  0  0  0  0  0
   -3.8640   25.6310  -30.4920 O   0  0  0  0  0  0  0  0  0  0  0  0
   -5.5830   24.3800  -29.3450 C   0  0  0  0  0  0  0  0  0  0  0  0
   -6.4970   23.3730  -29.3390 N   0  0  0  0  0  0  0  0  0  0  0  0
   -6.4820   18.2280  -31.9410 C   0  0  0  0  0  0  0  0  0  0  0  0
   -5.3590   17.5330  -32.3930 C   0  0  0  0  0  0  0  0  0  0  0  0
   -4.2940   18.2140  -33.0230 C   0  0  0  0  0  0  0  0  0  0  0  0
   -2.0570   15.5270  -32.6360 C   0  0  0  0  0  0  0  0  0  0  0  0
   -0.0560   14.2850  -30.9220 C   0  0  0  0  0  0  0  0  0  0  0  0
    0.9850   13.7130  -30.1720 C   0  0  0  0  0  0  0  0  0  0  0  0
    2.0220   14.6770  -29.0880 S   0  0  0  0  0  0  0  0  0  0  0  0
    3.4340   14.5630  -29.5970 O   0  0  0  0  0  0  0  0  0  0  0  0
    1.9620   14.0480  -27.7230 O   0  0  0  0  0  0  0  0  0  0  0  0
    1.6730   16.3850  -28.9290 N   0  0  0  0  0  0  0  0  0  0  0  0
    1.3740   17.0240  -30.2180 C   0  0  0  0  0  0  0  0  0  0  0  0
    1.0990   18.5160  -30.0000 C   0  0  0  0  0  0  0  0  0  0  0  0
    0.0540   18.7040  -29.0640 O   0  0  0  0  0  0  0  0  0  0  0  0
    0.4380   18.1820  -27.8080 C   0  0  0  0  0  0  0  0  0  0  0  0
    0.6660   16.6690  -27.8950 C   0  0  0  0  0  0  0  0  0  0  0  0
    4.1891   11.2864  -29.0620 H   0  0  0  0  0  0  0  0  0  0  0  0
    3.4937   10.5249  -30.5327 H   0  0  0  0  0  0  0  0  0  0  0  0
    3.8966   12.2754  -30.5327 H   0  0  0  0  0  0  0  0  0  0  0  0
    0.5544   10.4493  -31.1498 H   0  0  0  0  0  0  0  0  0  0  0  0
   -1.2603   11.4950  -32.4876 H   0  0  0  0  0  0  0  0  0  0  0  0
   -2.7971   12.2329  -33.2032 H   0  0  0  0  0  0  0  0  0  0  0  0
   -4.6047   13.2853  -34.5584 H   0  0  0  0  0  0  0  0  0  0  0  0
   -4.7861   15.7706  -34.6899 H   0  0  0  0  0  0  0  0  0  0  0  0
   -1.3875   20.1773  -34.6950 H   0  0  0  0  0  0  0  0  0  0  0  0
   -3.4032   21.4084  -33.9038 H   0  0  0  0  0  0  0  0  0  0  0  0
   -5.5989   21.3966  -32.8609 H   0  0  0  0  0  0  0  0  0  0  0  0
   -6.0536   22.1178  -32.4531 H   0  0  0  0  0  0  0  0  0  0  0  0
   -4.3613   23.9579  -32.4962 H   0  0  0  0  0  0  0  0  0  0  0  0
   -5.4603   25.0165  -28.4563 H   0  0  0  0  0  0  0  0  0  0  0  0
   -7.3000   17.6821  -31.4482 H   0  0  0  0  0  0  0  0  0  0  0  0
   -5.3029   16.4429  -32.2570 H   0  0  0  0  0  0  0  0  0  0  0  0
   -1.3418   16.1627  -32.0935 H   0  0  0  0  0  0  0  0  0  0  0  0
   -0.2412   15.3670  -30.8512 H   0  0  0  0  0  0  0  0  0  0  0  0
    2.2337   16.9050  -30.8939 H   0  0  0  0  0  0  0  0  0  0  0  0
    0.4871   16.5501  -30.6639 H   0  0  0  0  0  0  0  0  0  0  0  0
    2.0122   18.9994  -29.6226 H   0  0  0  0  0  0  0  0  0  0  0  0
    0.7972   18.9622  -30.9591 H   0  0  0  0  0  0  0  0  0  0  0  0
    1.3696   18.6692  -27.4844 H   0  0  0  0  0  0  0  0  0  0  0  0
   -0.3669   18.3765  -27.0839 H   0  0  0  0  0  0  0  0  0  0  0  0
    1.0219   16.2951  -26.9237 H   0  0  0  0  0  0  0  0  0  0  0  0
   -0.2788   16.1696  -28.1555 H   0  0  0  0  0  0  0  0  0  0  0  0
  1  2  1  0
  2  3  1  0
  3  4  2  0
  4  5  1  0
  5  6  2  0
  6  7  1  0
  7  8  2  0
  8  9  1  0
  9 10  2  0
 10 11  1  0
 11 12  1  0
 12 13  1  0
 13 14  2  0
 13 15  1  0
 15 16  2  0
 16 17  1  0
 17 18  2  0
 18 19  1  0
 19 20  1  0
 20 21  2  0
 20 22  2  0
 20 23  1  0
 23 24  2  3
 24 25  1  0
 25 26  2  0
 26 27  1  0
 27 28  1  0
 27 29  2  0
 29 30  1  0
 19 31  2  0
 31 32  1  0
 32 33  2  0
 11 34  2  0
  6 35  1  0
 35 36  2  0
 36 37  1  0
 37 38  2  0
 37 39  2  0
 37 40  1  0
 40 41  1  0
 41 42  1  0
 42 43  1  0
 43 44  1  0
 44 45  1  0
 36  3  1  0
 45 40  1  0
 34  7  1  0
 33 12  1  0
 33 17  1  0
 30 24  1  0
  1 46  1  0
  1 47  1  0
  1 48  1  0
  4 49  1  0
  5 50  1  0
  8 51  1  0
  9 52  1  0
 10 53  1  0
 15 54  1  0
 16 55  1  0
 18 56  1  0
 25 57  1  0
 26 58  1  0
 29 59  1  0
 31 60  1  0
 32 61  1  0
 34 62  1  0
 35 63  1  0
 41 64  1  0
 41 65  1  0
 42 66  1  0
 42 67  1  0
 44 68  1  0
 44 69  1  0
 45 70  1  0
 45 71  1  0
M  CHG  2  28  -1  30  -1
M  END
>  <UniqueID>  (33) 
33

>  <SMILES>  (33) 
COc1ccc(-c2cccc(-n3c(=O)ccc4cc(S(=O)(=O)N=c5ccc([O-])c[n-]5)ccc43)c2)cc1S(=O)(=O)N1CCOCC1

>  <Energy>  (33) 
112.80944329291643

>  <Genealogy>  (33) 
COc1ccc(-c2cccc(-n3c(=O)ccc4cc(S(=O)(=O)N=c5ccc([O-])c[n-]5)ccc43)c2)cc1S(=O)(=O)N1CCOCC1 (protonated)
COc1ccc(-c2cccc(-n3c(=O)ccc4cc(S(=O)(=O)N=c5ccc([O-])c[n-]5)ccc43)c2)cc1S(=O)(=O)N1CCOCC1 (3D coordinates assigned)
COc1ccc(-c2cccc(-n3c(=O)ccc4cc(S(=O)(=O)N=c5ccc([O-])c[n-]5)ccc43)c2)cc1S(=O)(=O)N1CCOCC1 (nonaromatic ring conformer: 112.80944329291643 kcal/mol)

>  <smiles>  (33) 
COc1ccc(-c2cccc(-n3c(=O)ccc4cc(S(=O)(=O)N=c5ccc(O)c[nH]5)ccc43)c2)cc1S(=O)(=O)N1CCOCC1

>  <score_type>  (33) 
oracle

>  <origin>  (33) 
adgpu

>  <m_score__min__energy>  (33) 
-13.98

>  <m_primary>  (33) 
energy

$$$$
33:0
     RDKit          3D

 39 40  0  0  0  0  0  0  0  0999 V2000
   -9.1200   19.0330  -32.7080 C   0  0  0  0  0  0  0  0  0  0  0  0
   -8.2570   20.1600  -32.2220 C   0  0  0  0  0  0  0  0  0  0  0  0
   -8.7160   21.0150  -31.2090 C   0  0  0  0  0  0  0  0  0  0  0  0
   -7.8970   22.0410  -30.7280 C   0  0  0  0  0  0  0  0  0  0  0  0
   -6.6090   22.2300  -31.2520 C   0  0  0  0  0  0  0  0  0  0  0  0
   -5.7760   23.2710  -30.7110 N   0  0  0  0  0  0  0  0  0  0  0  0
   -6.2030   24.6260  -30.5040 C   0  0  0  0  0  0  0  0  0  0  0  0
   -7.4300   24.9110  -30.4340 O   0  0  0  0  0  0  0  0  0  0  0  0
   -5.1840   25.7120  -30.3170 C   0  0  0  0  0  0  0  0  0  0  0  0
   -3.8700   25.3080  -30.8240 N   0  0  0  0  0  0  0  0  0  0  0  0
   -3.0010   24.3210  -29.6800 S   0  0  0  0  0  0  0  0  0  0  0  0
   -3.9530   23.8640  -28.6110 O   0  0  0  0  0  0  0  0  0  0  0  0
   -1.9290   25.1530  -29.0310 O   0  0  0  0  0  0  0  0  0  0  0  0
   -2.2820   22.9000  -30.4360 C   0  0  0  0  0  0  0  0  0  0  0  0
   -1.1210   22.3360  -29.8930 C   0  0  0  0  0  0  0  0  0  0  0  0
   -0.5570   21.1920  -30.4670 C   0  0  0  0  0  0  0  0  0  0  0  0
   -1.1430   20.6090  -31.6010 C   0  0  0  0  0  0  0  0  0  0  0  0
   -0.5650   19.3570  -32.1900 C   0  0  0  0  0  0  0  0  0  0  0  0
   -2.3140   21.1670  -32.1360 C   0  0  0  0  0  0  0  0  0  0  0  0
   -2.8750   22.3110  -31.5630 C   0  0  0  0  0  0  0  0  0  0  0  0
   -6.1380   21.3470  -32.2400 C   0  0  0  0  0  0  0  0  0  0  0  0
   -6.9560   20.3200  -32.7190 C   0  0  0  0  0  0  0  0  0  0  0  0
   -9.5351   18.4909  -31.8456 H   0  0  0  0  0  0  0  0  0  0  0  0
   -9.9419   19.4370  -33.3174 H   0  0  0  0  0  0  0  0  0  0  0  0
   -8.5157   18.3449  -33.3174 H   0  0  0  0  0  0  0  0  0  0  0  0
   -9.7243   20.8777  -30.7914 H   0  0  0  0  0  0  0  0  0  0  0  0
   -8.2652   22.7054  -29.9324 H   0  0  0  0  0  0  0  0  0  0  0  0
   -4.8040   23.0170  -30.4230 H   0  0  0  0  0  0  0  0  0  0  0  0
   -5.5154   26.6103  -30.8585 H   0  0  0  0  0  0  0  0  0  0  0  0
   -5.0907   25.9163  -29.2402 H   0  0  0  0  0  0  0  0  0  0  0  0
   -0.6504   22.7948  -29.0109 H   0  0  0  0  0  0  0  0  0  0  0  0
    0.3487   20.7479  -30.0282 H   0  0  0  0  0  0  0  0  0  0  0  0
   -0.2529   18.6810  -31.3803 H   0  0  0  0  0  0  0  0  0  0  0  0
   -1.3245   18.8593  -32.8109 H   0  0  0  0  0  0  0  0  0  0  0  0
    0.3064   19.6122  -32.8109 H   0  0  0  0  0  0  0  0  0  0  0  0
   -2.7924   20.7017  -33.0104 H   0  0  0  0  0  0  0  0  0  0  0  0
   -3.7848   22.7515  -31.9969 H   0  0  0  0  0  0  0  0  0  0  0  0
   -5.1195   21.4654  -32.6383 H   0  0  0  0  0  0  0  0  0  0  0  0
   -6.5769   19.6334  -33.4903 H   0  0  0  0  0  0  0  0  0  0  0  0
  1  2  1  0
  2  3  2  0
  3  4  1  0
  4  5  2  0
  5  6  1  0
  6  7  1  0
  7  8  2  0
  7  9  1  0
  9 10  1  0
 10 11  1  0
 11 12  2  0
 11 13  2  0
 11 14  1  0
 14 15  2  0
 15 16  1  0
 16 17  2  0
 17 18  1  0
 17 19  1  0
 19 20  2  0
  5 21  1  0
 21 22  2  0
 22  2  1  0
 20 14  1  0
  1 23  1  0
  1 24  1  0
  1 25  1  0
  3 26  1  0
  4 27  1  0
  6 28  1  0
  9 29  1  0
  9 30  1  0
 15 31  1  0
 16 32  1  0
 18 33  1  0
 18 34  1  0
 18 35  1  0
 19 36  1  0
 20 37  1  0
 21 38  1  0
 22 39  1  0
M  CHG  1  10  -1
M  END
>  <UniqueID>  (34) 
34

>  <SMILES>  (34) 
Cc1ccc(NC(=O)C[N-]S(=O)(=O)c2ccc(C)cc2)cc1

>  <Energy>  (34) 
37.96219275254637

>  <Genealogy>  (34) 
Cc1ccc(NC(=O)C[N-]S(=O)(=O)c2ccc(C)cc2)cc1 (protonated)
Cc1ccc(NC(=O)C[N-]S(=O)(=O)c2ccc(C)cc2)cc1 (3D coordinates assigned)
Cc1ccc(NC(=O)C[N-]S(=O)(=O)c2ccc(C)cc2)cc1 (optimized conformer: 37.96219275254637 kcal/mol)

>  <smiles>  (34) 
Cc1ccc(NC(=O)CNS(=O)(=O)c2ccc(C)cc2)cc1

>  <score_type>  (34) 
oracle

>  <origin>  (34) 
adgpu

>  <m_score__min__energy>  (34) 
-9.25

>  <m_primary>  (34) 
energy

$$$$
34:0
     RDKit          3D

 57 60  0  0  0  0  0  0  0  0999 V2000
   -4.1100   20.1820  -30.8450 O   0  0  0  0  0  0  0  0  0  0  0  0
   -4.6940   21.2980  -30.9130 C   0  0  0  0  0  0  0  0  0  0  0  0
   -6.0180   21.3800  -31.4730 N   0  0  0  0  0  0  0  0  0  0  0  0
   -6.7970   20.2310  -31.8420 C   0  0  0  0  0  0  0  0  0  0  0  0
   -8.1870   20.2530  -31.6630 C   0  0  0  0  0  0  0  0  0  0  0  0
   -8.9620   19.1420  -32.0050 C   0  0  0  0  0  0  0  0  0  0  0  0
   -8.3550   17.9930  -32.5150 C   0  0  0  0  0  0  0  0  0  0  0  0
   -6.9630   17.9460  -32.6790 C   0  0  0  0  0  0  0  0  0  0  0  0
   -6.1920   16.4950  -33.3220 S   0  0  0  0  0  0  0  0  0  0  0  0
   -7.2520   15.5440  -33.8040 O   0  0  0  0  0  0  0  0  0  0  0  0
   -5.4280   15.8140  -32.2220 O   0  0  0  0  0  0  0  0  0  0  0  0
   -5.1030   16.8620  -34.6420 N   0  0  0  0  0  0  0  0  0  0  0  0
   -3.7230   16.4900  -34.3120 C   0  0  0  0  0  0  0  0  0  0  0  0
   -2.9820   17.7410  -33.8590 C   0  0  0  0  0  0  0  0  0  0  0  0
   -3.8720   18.9090  -34.2340 C   0  0  0  0  0  0  0  0  0  0  0  0
   -5.0830   18.3000  -34.9260 C   0  0  0  0  0  0  0  0  0  0  0  0
   -6.1870   19.0600  -32.3270 C   0  0  0  0  0  0  0  0  0  0  0  0
   -3.9910   22.5050  -30.4140 C   0  0  0  0  0  0  0  0  0  0  0  0
   -4.4650   23.7990  -30.6930 C   0  0  0  0  0  0  0  0  0  0  0  0
   -3.7870   24.9210  -30.2080 C   0  0  0  0  0  0  0  0  0  0  0  0
   -2.6240   24.7690  -29.4490 C   0  0  0  0  0  0  0  0  0  0  0  0
   -1.9750   25.8990  -28.9640 O   0  0  0  0  0  0  0  0  0  0  0  0
   -2.1230   23.4850  -29.1810 C   0  0  0  0  0  0  0  0  0  0  0  0
   -0.6610   23.2830  -28.2100 S   0  0  0  0  0  0  0  0  0  0  0  0
    0.3400   24.3170  -28.6410 O   0  0  0  0  0  0  0  0  0  0  0  0
   -0.0680   21.9230  -28.4540 O   0  0  0  0  0  0  0  0  0  0  0  0
   -1.0230   23.4970  -26.5110 N   0  0  0  0  0  0  0  0  0  0  0  0
    0.2010   23.6170  -25.6980 C   0  0  0  0  0  0  0  0  0  0  0  0
    0.8930   24.9880  -25.8770 C   0  0  0  0  0  0  0  0  0  0  0  0
    0.0460   25.9850  -26.4230 O   0  0  0  0  0  0  0  0  0  0  0  0
   -1.2350   25.9120  -25.8390 C   0  0  0  0  0  0  0  0  0  0  0  0
   -1.9540   24.6260  -26.2860 C   0  0  0  0  0  0  0  0  0  0  0  0
   -2.8100   22.3600  -29.6640 C   0  0  0  0  0  0  0  0  0  0  0  0
   -6.4340   22.3160  -31.6730 H   0  0  0  0  0  0  0  0  0  0  0  0
   -8.6708   21.1507  -31.2506 H   0  0  0  0  0  0  0  0  0  0  0  0
  -10.0535   19.1727  -31.8720 H   0  0  0  0  0  0  0  0  0  0  0  0
   -8.9697   17.1228  -32.7888 H   0  0  0  0  0  0  0  0  0  0  0  0
   -3.7227   15.7448  -33.5029 H   0  0  0  0  0  0  0  0  0  0  0  0
   -3.2279   16.0563  -35.1934 H   0  0  0  0  0  0  0  0  0  0  0  0
   -2.8200   17.7171  -32.7713 H   0  0  0  0  0  0  0  0  0  0  0  0
   -1.9925   17.8185  -34.3332 H   0  0  0  0  0  0  0  0  0  0  0  0
   -4.1817   19.4595  -33.3334 H   0  0  0  0  0  0  0  0  0  0  0  0
   -3.3493   19.6241  -34.8862 H   0  0  0  0  0  0  0  0  0  0  0  0
   -6.0029   18.7670  -34.5443 H   0  0  0  0  0  0  0  0  0  0  0  0
   -5.0239   18.4704  -36.0111 H   0  0  0  0  0  0  0  0  0  0  0  0
   -5.0927   19.0176  -32.4310 H   0  0  0  0  0  0  0  0  0  0  0  0
   -5.3752   23.9292  -31.2968 H   0  0  0  0  0  0  0  0  0  0  0  0
   -4.1711   25.9287  -30.4250 H   0  0  0  0  0  0  0  0  0  0  0  0
   -0.0647   23.4907  -24.6381 H   0  0  0  0  0  0  0  0  0  0  0  0
    0.9039   22.8395  -26.0317 H   0  0  0  0  0  0  0  0  0  0  0  0
    1.2443   25.3312  -24.8927 H   0  0  0  0  0  0  0  0  0  0  0  0
    1.7189   24.8417  -26.5887 H   0  0  0  0  0  0  0  0  0  0  0  0
   -1.1347   25.9095  -24.7436 H   0  0  0  0  0  0  0  0  0  0  0  0
   -1.8253   26.7823  -26.1616 H   0  0  0  0  0  0  0  0  0  0  0  0
   -2.6747   24.3373  -25.5068 H   0  0  0  0  0  0  0  0  0  0  0  0
   -2.4520   24.8405  -27.2431 H   0  0  0  0  0  0  0  0  0  0  0  0
   -2.4201   21.3532  -29.4534 H   0  0  0  0  0  0  0  0  0  0  0  0
  1  2  2  0
  2  3  1  0
  3  4  1  0
  4  5  2  0
  5  6  1  0
  6  7  2  0
  7  8  1  0
  8  9  1  0
  9 10  2  0
  9 11  2  0
  9 12  1  0
 12 13  1  0
 13 14  1  0
 14 15  1  0
 15 16  1  0
  8 17  2  0
  2 18  1  0
 18 19  2  0
 19 20  1  0
 20 21  2  0
 21 22  1  0
 21 23  1  0
 23 24  1  0
 24 25  2  0
 24 26  2  0
 24 27  1  0
 27 28  1  0
 28 29  1  0
 29 30  1  0
 30 31  1  0
 31 32  1  0
 23 33  2  0
 17  4  1  0
 33 18  1  0
 16 12  1  0
 32 27  1  0
  3 34  1  0
  5 35  1  0
  6 36  1  0
  7 37  1  0
 13 38  1  0
 13 39  1  0
 14 40  1  0
 14 41  1  0
 15 42  1  0
 15 43  1  0
 16 44  1  0
 16 45  1  0
 17 46  1  0
 19 47  1  0
 20 48  1  0
 28 49  1  0
 28 50  1  0
 29 51  1  0
 29 52  1  0
 31 53  1  0
 31 54  1  0
 32 55  1  0
 32 56  1  0
 33 57  1  0
M  CHG  1  22  -1
M  END
>  <UniqueID>  (35) 
35

>  <SMILES>  (35) 
O=C(Nc1cccc(S(=O)(=O)N2CCCC2)c1)c1ccc([O-])c(S(=O)(=O)N2CCOCC2)c1

>  <Energy>  (35) 
76.97658385719804

>  <Genealogy>  (35) 
O=C(Nc1cccc(S(=O)(=O)N2CCCC2)c1)c1ccc([O-])c(S(=O)(=O)N2CCOCC2)c1 (protonated)
O=C(Nc1cccc(S(=O)(=O)N2CCCC2)c1)c1ccc([O-])c(S(=O)(=O)N2CCOCC2)c1 (3D coordinates assigned)
O=C(Nc1cccc(S(=O)(=O)N2CCCC2)c1)c1ccc([O-])c(S(=O)(=O)N2CCOCC2)c1 (nonaromatic ring conformer: 76.97658385719804 kcal/mol)

>  <smiles>  (35) 
O=C(Nc1cccc(S(=O)(=O)N2CCCC2)c1)c1ccc(O)c(S(=O)(=O)N2CCOCC2)c1

>  <score_type>  (35) 
oracle

>  <origin>  (35) 
adgpu

>  <m_score__min__energy>  (35) 
-11.779999999999999

>  <m_primary>  (35) 
energy

$$$$
35:0
     RDKit          3D

 40 43  0  0  0  0  0  0  0  0999 V2000
    4.3890   21.2110  -38.5590 N   0  0  0  0  0  0  0  0  0  0  0  0
    3.9040   21.0670  -36.9070 S   0  0  0  0  0  0  0  0  0  0  0  0
    2.5950   21.7800  -36.7140 O   0  0  0  0  0  0  0  0  0  0  0  0
    4.9510   21.6880  -36.0260 O   0  0  0  0  0  0  0  0  0  0  0  0
    3.7240   19.4100  -36.5180 O   0  0  0  0  0  0  0  0  0  0  0  0
    2.8840   18.9110  -35.5130 C   0  0  0  0  0  0  0  0  0  0  0  0
    3.1470   17.6310  -35.0100 C   0  0  0  0  0  0  0  0  0  0  0  0
    2.3450   17.0850  -34.0050 C   0  0  0  0  0  0  0  0  0  0  0  0
    1.2680   17.8120  -33.4950 C   0  0  0  0  0  0  0  0  0  0  0  0
    0.9800   19.0950  -33.9900 C   0  0  0  0  0  0  0  0  0  0  0  0
   -0.1620   19.8680  -33.4400 C   0  0  0  0  0  0  0  0  0  0  0  0
    0.0750   21.0260  -32.6980 C   0  0  0  0  0  0  0  0  0  0  0  0
   -0.9310   21.7310  -32.2000 O   0  0  0  0  0  0  0  0  0  0  0  0
   -2.2160   21.4100  -32.3510 C   0  0  0  0  0  0  0  0  0  0  0  0
   -2.5450   20.2600  -33.1100 C   0  0  0  0  0  0  0  0  0  0  0  0
   -3.8930   19.9430  -33.3160 C   0  0  0  0  0  0  0  0  0  0  0  0
   -4.2760   18.8090  -34.0260 O   0  0  0  0  0  0  0  0  0  0  0  0
   -4.8830   20.7800  -32.8260 C   0  0  0  0  0  0  0  0  0  0  0  0
   -4.5920   21.9530  -32.0960 C   0  0  0  0  0  0  0  0  0  0  0  0
   -5.7210   22.7200  -31.7640 C   0  0  0  0  0  0  0  0  0  0  0  0
   -5.8150   24.0200  -31.2800 C   0  0  0  0  0  0  0  0  0  0  0  0
   -6.9640   24.5430  -31.3140 O   0  0  0  0  0  0  0  0  0  0  0  0
   -4.7940   24.7950  -30.7450 C   0  0  0  0  0  0  0  0  0  0  0  0
   -5.1330   26.0980  -30.3800 O   0  0  0  0  0  0  0  0  0  0  0  0
   -3.4940   24.3960  -30.4490 C   0  0  0  0  0  0  0  0  0  0  0  0
   -2.7600   25.2890  -29.6690 O   0  0  0  0  0  0  0  0  0  0  0  0
   -2.8210   23.2330  -30.8380 C   0  0  0  0  0  0  0  0  0  0  0  0
   -1.5740   23.0780  -30.2310 O   0  0  0  0  0  0  0  0  0  0  0  0
   -3.2340   22.2400  -31.7710 C   0  0  0  0  0  0  0  0  0  0  0  0
   -1.4950   19.4750  -33.6410 C   0  0  0  0  0  0  0  0  0  0  0  0
   -1.7410   18.4150  -34.2800 O   0  0  0  0  0  0  0  0  0  0  0  0
    1.7980   19.6430  -34.9950 C   0  0  0  0  0  0  0  0  0  0  0  0
    4.8760   22.1310  -38.6520 H   0  0  0  0  0  0  0  0  0  0  0  0
    3.9919   17.0508  -35.4094 H   0  0  0  0  0  0  0  0  0  0  0  0
    2.5626   16.0799  -33.6146 H   0  0  0  0  0  0  0  0  0  0  0  0
    0.6416   17.3782  -32.7016 H   0  0  0  0  0  0  0  0  0  0  0  0
    1.1093   21.3577  -32.5243 H   0  0  0  0  0  0  0  0  0  0  0  0
   -5.9355   20.5206  -33.0129 H   0  0  0  0  0  0  0  0  0  0  0  0
   -6.6849   22.2106  -31.9103 H   0  0  0  0  0  0  0  0  0  0  0  0
    1.5875   20.6519  -35.3795 H   0  0  0  0  0  0  0  0  0  0  0  0
  1  2  1  0
  2  3  2  0
  2  4  2  0
  2  5  1  0
  5  6  1  0
  6  7  2  0
  7  8  1  0
  8  9  2  0
  9 10  1  0
 10 11  1  0
 11 12  2  0
 12 13  1  0
 13 14  1  0
 14 15  2  0
 15 16  1  0
 16 17  1  0
 16 18  2  0
 18 19  1  0
 19 20  2  0
 20 21  1  0
 21 22  2  0
 21 23  1  0
 23 24  1  0
 23 25  2  0
 25 26  1  0
 25 27  1  0
 27 28  1  0
 27 29  2  0
 15 30  1  0
 30 31  2  0
 10 32  2  0
 32  6  1  0
 30 11  1  0
 29 14  1  0
 29 19  1  0
  1 33  1  0
  7 34  1  0
  8 35  1  0
  9 36  1  0
 12 37  1  0
 18 38  1  0
 20 39  1  0
 32 40  1  0
M  CHG  5   1  -1  17  -1  24  -1  26  -1  28  -1
M  END
>  <UniqueID>  (36) 
36

>  <SMILES>  (36) 
[NH-]S(=O)(=O)Oc1cccc(-c2coc3c(c([O-])cc4cc(=O)c([O-])c([O-])c([O-])c43)c2=O)c1

>  <Energy>  (36) 
98.55189612937153

>  <Genealogy>  (36) 
[NH-]S(=O)(=O)Oc1cccc(-c2coc3c(c([O-])cc4cc(=O)c([O-])c([O-])c([O-])c43)c2=O)c1 (protonated)
[NH-]S(=O)(=O)Oc1cccc(-c2coc3c(c([O-])cc4cc(=O)c([O-])c([O-])c([O-])c43)c2=O)c1 (3D coordinates assigned)
[NH-]S(=O)(=O)Oc1cccc(-c2coc3c(c([O-])cc4cc(=O)c([O-])c([O-])c([O-])c43)c2=O)c1 (optimized conformer: 98.55189612937153 kcal/mol)

>  <smiles>  (36) 
NS(=O)(=O)Oc1cccc(-c2coc3c(c(O)cc4cc(=O)c(O)c(O)c(O)c43)c2=O)c1

>  <score_type>  (36) 
oracle

>  <origin>  (36) 
adgpu

>  <m_score__min__energy>  (36) 
-12.1

>  <m_primary>  (36) 
energy

$$$$
36:0
     RDKit          3D

 57 60  0  0  0  0  0  0  0  0999 V2000
   -7.3280   18.4890  -31.5660 O   0  0  0  0  0  0  0  0  0  0  0  0
   -7.1720   19.3980  -32.4270 C   0  0  0  0  0  0  0  0  0  0  0  0
   -6.7090   19.0580  -33.7460 N   0  0  0  0  0  0  0  0  0  0  0  0
   -5.9840   17.8530  -34.0500 C   0  0  0  0  0  0  0  0  0  0  0  0
   -4.6880   17.9450  -34.5800 C   0  0  0  0  0  0  0  0  0  0  0  0
   -3.9540   16.7900  -34.8630 C   0  0  0  0  0  0  0  0  0  0  0  0
   -4.4980   15.5240  -34.6010 C   0  0  0  0  0  0  0  0  0  0  0  0
   -3.5730   14.0630  -34.9660 S   0  0  0  0  0  0  0  0  0  0  0  0
   -2.2020   14.4590  -35.4390 O   0  0  0  0  0  0  0  0  0  0  0  0
   -4.2530   13.3200  -36.0820 O   0  0  0  0  0  0  0  0  0  0  0  0
   -3.4130   12.9970  -33.5900 N   0  0  0  0  0  0  0  0  0  0  0  0
   -2.9900   13.7120  -32.3870 C   0  0  0  0  0  0  0  0  0  0  0  0
   -3.4830   12.8900  -31.2060 C   0  0  0  0  0  0  0  0  0  0  0  0
   -4.5870   12.0050  -31.7630 C   0  0  0  0  0  0  0  0  0  0  0  0
   -4.6800   12.3580  -33.2400 C   0  0  0  0  0  0  0  0  0  0  0  0
   -5.7880   15.4290  -34.0620 C   0  0  0  0  0  0  0  0  0  0  0  0
   -6.5230   16.5830  -33.7780 C   0  0  0  0  0  0  0  0  0  0  0  0
   -7.5190   20.7980  -32.0820 C   0  0  0  0  0  0  0  0  0  0  0  0
   -8.8160   21.2960  -32.3030 C   0  0  0  0  0  0  0  0  0  0  0  0
   -9.1300   22.6180  -31.9790 C   0  0  0  0  0  0  0  0  0  0  0  0
   -8.1590   23.4580  -31.4330 C   0  0  0  0  0  0  0  0  0  0  0  0
   -6.8610   22.9810  -31.2070 C   0  0  0  0  0  0  0  0  0  0  0  0
   -5.6360   24.0380  -30.4980 S   0  0  0  0  0  0  0  0  0  0  0  0
   -6.2980   24.9890  -29.5390 O   0  0  0  0  0  0  0  0  0  0  0  0
   -4.9940   24.8510  -31.5880 O   0  0  0  0  0  0  0  0  0  0  0  0
   -4.4050   23.1260  -29.6550 N   0  0  0  0  0  0  0  0  0  0  0  0
   -3.1960   22.9970  -30.4890 C   0  0  0  0  0  0  0  0  0  0  0  0
   -1.9700   22.6740  -29.6190 C   0  0  0  0  0  0  0  0  0  0  0  0
   -1.6780   23.6610  -28.6370 O   0  0  0  0  0  0  0  0  0  0  0  0
   -2.7980   24.4580  -28.2730 C   0  0  0  0  0  0  0  0  0  0  0  0
   -4.1300   23.6880  -28.3140 C   0  0  0  0  0  0  0  0  0  0  0  0
   -6.5430   21.6570  -31.5430 C   0  0  0  0  0  0  0  0  0  0  0  0
   -7.0140   19.6600  -34.5430 H   0  0  0  0  0  0  0  0  0  0  0  0
   -4.2465   18.9336  -34.7742 H   0  0  0  0  0  0  0  0  0  0  0  0
   -2.9451   16.8741  -35.2932 H   0  0  0  0  0  0  0  0  0  0  0  0
   -1.8936   13.7973  -32.3604 H   0  0  0  0  0  0  0  0  0  0  0  0
   -3.4007   14.7322  -32.3632 H   0  0  0  0  0  0  0  0  0  0  0  0
   -2.6670   12.2760  -30.7970 H   0  0  0  0  0  0  0  0  0  0  0  0
   -3.8445   13.5279  -30.3860 H   0  0  0  0  0  0  0  0  0  0  0  0
   -4.3298   10.9430  -31.6364 H   0  0  0  0  0  0  0  0  0  0  0  0
   -5.5426   12.1660  -31.2426 H   0  0  0  0  0  0  0  0  0  0  0  0
   -4.8263   11.4481  -33.8405 H   0  0  0  0  0  0  0  0  0  0  0  0
   -5.5321   13.0247  -33.4387 H   0  0  0  0  0  0  0  0  0  0  0  0
   -6.2248   14.4396  -33.8612 H   0  0  0  0  0  0  0  0  0  0  0  0
   -7.5282   16.4976  -33.3395 H   0  0  0  0  0  0  0  0  0  0  0  0
   -9.5874   20.6405  -32.7335 H   0  0  0  0  0  0  0  0  0  0  0  0
  -10.1470   22.9983  -32.1551 H   0  0  0  0  0  0  0  0  0  0  0  0
   -8.4131   24.4977  -31.1792 H   0  0  0  0  0  0  0  0  0  0  0  0
   -3.3449   22.1874  -31.2186 H   0  0  0  0  0  0  0  0  0  0  0  0
   -3.0205   23.9504  -31.0089 H   0  0  0  0  0  0  0  0  0  0  0  0
   -2.1532   21.7189  -29.1049 H   0  0  0  0  0  0  0  0  0  0  0  0
   -1.1033   22.6333  -30.2951 H   0  0  0  0  0  0  0  0  0  0  0  0
   -2.6425   24.8331  -27.2507 H   0  0  0  0  0  0  0  0  0  0  0  0
   -2.8701   25.2744  -29.0066 H   0  0  0  0  0  0  0  0  0  0  0  0
   -4.0866   22.8645  -27.5860 H   0  0  0  0  0  0  0  0  0  0  0  0
   -4.9377   24.3935  -28.0694 H   0  0  0  0  0  0  0  0  0  0  0  0
   -5.5198   21.2859  -31.3836 H   0  0  0  0  0  0  0  0  0  0  0  0
  1  2  2  0
  2  3  1  0
  3  4  1  0
  4  5  2  0
  5  6  1  0
  6  7  2  0
  7  8  1  0
  8  9  2  0
  8 10  2  0
  8 11  1  0
 11 12  1  0
 12 13  1  0
 13 14  1  0
 14 15  1  0
  7 16  1  0
 16 17  2  0
  2 18  1  0
 18 19  2  0
 19 20  1  0
 20 21  2  0
 21 22  1  0
 22 23  1  0
 23 24  2  0
 23 25  2  0
 23 26  1  0
 26 27  1  0
 27 28  1  0
 28 29  1  0
 29 30  1  0
 30 31  1  0
 22 32  2  0
 17  4  1  0
 32 18  1  0
 15 11  1  0
 31 26  1  0
  3 33  1  0
  5 34  1  0
  6 35  1  0
 12 36  1  0
 12 37  1  0
 13 38  1  0
 13 39  1  0
 14 40  1  0
 14 41  1  0
 15 42  1  0
 15 43  1  0
 16 44  1  0
 17 45  1  0
 19 46  1  0
 20 47  1  0
 21 48  1  0
 27 49  1  0
 27 50  1  0
 28 51  1  0
 28 52  1  0
 30 53  1  0
 30 54  1  0
 31 55  1  0
 31 56  1  0
 32 57  1  0
M  END
>  <UniqueID>  (37) 
37

>  <SMILES>  (37) 
O=C(Nc1ccc(S(=O)(=O)N2CCCC2)cc1)c1cccc(S(=O)(=O)N2CCOCC2)c1

>  <Energy>  (37) 
77.35884505138854

>  <Genealogy>  (37) 
O=C(Nc1ccc(S(=O)(=O)N2CCCC2)cc1)c1cccc(S(=O)(=O)N2CCOCC2)c1 (3D coordinates assigned)
O=C(Nc1ccc(S(=O)(=O)N2CCCC2)cc1)c1cccc(S(=O)(=O)N2CCOCC2)c1 (nonaromatic ring conformer: 77.35884505138854 kcal/mol)

>  <smiles>  (37) 
O=C(Nc1ccc(S(=O)(=O)N2CCCC2)cc1)c1cccc(S(=O)(=O)N2CCOCC2)c1

>  <score_type>  (37) 
oracle

>  <origin>  (37) 
adgpu

>  <m_score__min__energy>  (37) 
-11.5

>  <m_primary>  (37) 
energy

$$$$
37:0
     RDKit          3D

 67 71  0  0  0  0  0  0  0  0999 V2000
   -8.4700   22.8420  -31.9560 C   0  0  0  0  0  0  0  0  0  0  0  0
   -7.1990   23.4610  -31.4530 C   0  0  0  0  0  0  0  0  0  0  0  0
   -7.2390   24.5060  -30.5180 C   0  0  0  0  0  0  0  0  0  0  0  0
   -6.0530   25.0460  -30.0130 C   0  0  0  0  0  0  0  0  0  0  0  0
   -4.8070   24.5530  -30.4470 C   0  0  0  0  0  0  0  0  0  0  0  0
   -3.5650   25.0780  -29.9440 N   0  0  0  0  0  0  0  0  0  0  0  0
   -2.5480   24.3810  -29.5330 C   0  0  0  0  0  0  0  0  0  0  0  0
   -2.6090   23.0250  -29.4560 N   0  0  0  0  0  0  0  0  0  0  0  0
   -1.5630   22.3130  -28.9640 C   0  0  0  0  0  0  0  0  0  0  0  0
   -1.6950   20.8340  -28.7810 C   0  0  0  0  0  0  0  0  0  0  0  0
   -0.1500   19.9730  -29.2490 S   0  0  0  0  0  0  0  0  0  0  0  0
   -0.3090   20.2570  -31.0180 C   0  0  0  0  0  0  0  0  0  0  0  0
    0.3400   19.4160  -31.9220 C   0  0  0  0  0  0  0  0  0  0  0  0
    0.1910   19.6540  -33.2950 C   0  0  0  0  0  0  0  0  0  0  0  0
    0.8330   18.7900  -34.3170 C   0  0  0  0  0  0  0  0  0  0  0  0
    1.8330   19.2290  -34.9370 O   0  0  0  0  0  0  0  0  0  0  0  0
    0.3240   17.4910  -34.6640 N   0  0  0  0  0  0  0  0  0  0  0  0
   -0.9850   16.9960  -34.3580 C   0  0  0  0  0  0  0  0  0  0  0  0
   -1.9800   17.0380  -35.3450 C   0  0  0  0  0  0  0  0  0  0  0  0
   -3.2890   16.6610  -35.0420 C   0  0  0  0  0  0  0  0  0  0  0  0
   -3.6140   16.2190  -33.7490 C   0  0  0  0  0  0  0  0  0  0  0  0
   -5.2890   15.8500  -33.3340 S   0  0  0  0  0  0  0  0  0  0  0  0
   -5.8370   14.8540  -34.3170 O   0  0  0  0  0  0  0  0  0  0  0  0
   -5.3150   15.2160  -31.9720 O   0  0  0  0  0  0  0  0  0  0  0  0
   -6.3030   17.2750  -33.3520 N   0  0  0  0  0  0  0  0  0  0  0  0
   -6.9600   17.4580  -32.0450 C   0  0  0  0  0  0  0  0  0  0  0  0
   -7.9430   18.6320  -32.1160 C   0  0  0  0  0  0  0  0  0  0  0  0
   -7.2240   19.9110  -32.5520 C   0  0  0  0  0  0  0  0  0  0  0  0
   -6.4300   19.6790  -33.8460 C   0  0  0  0  0  0  0  0  0  0  0  0
   -5.5080   18.4650  -33.7020 C   0  0  0  0  0  0  0  0  0  0  0  0
   -2.6090   16.1230  -32.7770 C   0  0  0  0  0  0  0  0  0  0  0  0
   -1.2990   16.5050  -33.0800 C   0  0  0  0  0  0  0  0  0  0  0  0
   -0.6100   20.6770  -33.7010 N   0  0  0  0  0  0  0  0  0  0  0  0
   -1.2350   21.4870  -32.8070 C   0  0  0  0  0  0  0  0  0  0  0  0
   -1.0750   21.2800  -31.4750 N   0  0  0  0  0  0  0  0  0  0  0  0
   -0.4490   22.9620  -28.5360 N   0  0  0  0  0  0  0  0  0  0  0  0
   -0.3800   24.3160  -28.6150 C   0  0  0  0  0  0  0  0  0  0  0  0
    0.6830   24.9300  -28.2070 N   0  0  0  0  0  0  0  0  0  0  0  0
   -1.4320   25.0220  -29.1050 N   0  0  0  0  0  0  0  0  0  0  0  0
   -4.7720   23.4760  -31.3430 C   0  0  0  0  0  0  0  0  0  0  0  0
   -5.9580   22.9370  -31.8490 C   0  0  0  0  0  0  0  0  0  0  0  0
   -9.0931   22.5385  -31.1018 H   0  0  0  0  0  0  0  0  0  0  0  0
   -9.0176   23.5743  -32.5675 H   0  0  0  0  0  0  0  0  0  0  0  0
   -8.2310   21.9594  -32.5675 H   0  0  0  0  0  0  0  0  0  0  0  0
   -8.2082   24.9022  -30.1808 H   0  0  0  0  0  0  0  0  0  0  0  0
   -6.0928   25.8594  -29.2735 H   0  0  0  0  0  0  0  0  0  0  0  0
   -1.9195   20.6211  -27.7254 H   0  0  0  0  0  0  0  0  0  0  0  0
   -2.5070   20.4725  -29.4291 H   0  0  0  0  0  0  0  0  0  0  0  0
    0.9584   18.5800  -31.5632 H   0  0  0  0  0  0  0  0  0  0  0  0
   -1.7276   17.3697  -36.3630 H   0  0  0  0  0  0  0  0  0  0  0  0
   -4.0678   16.7101  -35.8173 H   0  0  0  0  0  0  0  0  0  0  0  0
   -7.5058   16.5407  -31.7793 H   0  0  0  0  0  0  0  0  0  0  0  0
   -6.1965   17.6701  -31.2820 H   0  0  0  0  0  0  0  0  0  0  0  0
   -8.7350   18.3970  -32.8423 H   0  0  0  0  0  0  0  0  0  0  0  0
   -8.3772   18.7919  -31.1180 H   0  0  0  0  0  0  0  0  0  0  0  0
   -7.9686   20.7023  -32.7233 H   0  0  0  0  0  0  0  0  0  0  0  0
   -6.5232   20.2085  -31.7580 H   0  0  0  0  0  0  0  0  0  0  0  0
   -7.1321   19.5035  -34.6744 H   0  0  0  0  0  0  0  0  0  0  0  0
   -5.8159   20.5686  -34.0497 H   0  0  0  0  0  0  0  0  0  0  0  0
   -4.9852   18.2883  -34.6535 H   0  0  0  0  0  0  0  0  0  0  0  0
   -4.7733   18.6585  -32.9066 H   0  0  0  0  0  0  0  0  0  0  0  0
   -2.8518   15.7459  -31.7726 H   0  0  0  0  0  0  0  0  0  0  0  0
   -0.5122   16.4209  -32.3159 H   0  0  0  0  0  0  0  0  0  0  0  0
   -1.8710   22.3110  -33.1628 H   0  0  0  0  0  0  0  0  0  0  0  0
    0.7610   25.9740  -28.2450 H   0  0  0  0  0  0  0  0  0  0  0  0
   -3.8045   23.0520  -31.6501 H   0  0  0  0  0  0  0  0  0  0  0  0
   -5.9191   22.0989  -32.5604 H   0  0  0  0  0  0  0  0  0  0  0  0
  1  2  1  0
  2  3  2  0
  3  4  1  0
  4  5  2  0
  5  6  1  0
  6  7  2  3
  7  8  1  0
  8  9  1  0
  9 10  1  0
 10 11  1  0
 11 12  1  0
 12 13  2  0
 13 14  1  0
 14 15  1  0
 15 16  2  0
 15 17  1  0
 17 18  1  0
 18 19  2  0
 19 20  1  0
 20 21  2  0
 21 22  1  0
 22 23  2  0
 22 24  2  0
 22 25  1  0
 25 26  1  0
 26 27  1  0
 27 28  1  0
 28 29  1  0
 29 30  1  0
 21 31  1  0
 31 32  2  0
 14 33  2  0
 33 34  1  0
 34 35  2  0
  9 36  2  0
 36 37  1  0
 37 38  2  3
 37 39  1  0
  5 40  1  0
 40 41  2  0
 41  2  1  0
 39  7  1  0
 35 12  1  0
 32 18  1  0
 30 25  1  0
  1 42  1  0
  1 43  1  0
  1 44  1  0
  3 45  1  0
  4 46  1  0
 10 47  1  0
 10 48  1  0
 13 49  1  0
 19 50  1  0
 20 51  1  0
 26 52  1  0
 26 53  1  0
 27 54  1  0
 27 55  1  0
 28 56  1  0
 28 57  1  0
 29 58  1  0
 29 59  1  0
 30 60  1  0
 30 61  1  0
 31 62  1  0
 32 63  1  0
 34 64  1  0
 38 65  1  0
 40 66  1  0
 41 67  1  0
M  CHG  3   8  -1  17  -1  39  -1
M  END
>  <UniqueID>  (38) 
38

>  <SMILES>  (38) 
Cc1ccc(N=c2[n-]c(CSc3cc(C(=O)[N-]c4ccc(S(=O)(=O)N5CCCCC5)cc4)ncn3)nc(=N)[n-]2)cc1

>  <Energy>  (38) 
71.79440967051515

>  <Genealogy>  (38) 
Cc1ccc(N=c2[n-]c(CSc3cc(C(=O)[N-]c4ccc(S(=O)(=O)N5CCCCC5)cc4)ncn3)nc(=N)[n-]2)cc1 (protonated)
Cc1ccc(N=c2[n-]c(CSc3cc(C(=O)[N-]c4ccc(S(=O)(=O)N5CCCCC5)cc4)ncn3)nc(=N)[n-]2)cc1 (3D coordinates assigned)
Cc1ccc(N=c2[n-]c(CSc3cc(C(=O)[N-]c4ccc(S(=O)(=O)N5CCCCC5)cc4)ncn3)nc(=N)[n-]2)cc1 (nonaromatic ring conformer: 71.79440967051515 kcal/mol)

>  <smiles>  (38) 
Cc1ccc(N=c2[nH]c(CSc3cc(C(=O)Nc4ccc(S(=O)(=O)N5CCCCC5)cc4)ncn3)nc(=N)[nH]2)cc1

>  <score_type>  (38) 
oracle

>  <origin>  (38) 
adgpu

>  <m_score__min__energy>  (38) 
-15.91

>  <m_primary>  (38) 
energy

$$$$
38:0
     RDKit          3D

 57 60  0  0  0  0  0  0  0  0999 V2000
    0.7830   20.1250  -27.5370 O   0  0  0  0  0  0  0  0  0  0  0  0
    0.2510   20.4500  -28.6340 C   0  0  0  0  0  0  0  0  0  0  0  0
   -0.4430   21.7540  -28.7500 C   0  0  0  0  0  0  0  0  0  0  0  0
   -0.0740   22.8320  -27.9280 C   0  0  0  0  0  0  0  0  0  0  0  0
   -0.7170   24.0640  -28.0500 C   0  0  0  0  0  0  0  0  0  0  0  0
   -1.7330   24.2440  -28.9940 C   0  0  0  0  0  0  0  0  0  0  0  0
   -2.3530   25.4920  -29.0830 O   0  0  0  0  0  0  0  0  0  0  0  0
   -2.1090   23.1780  -29.8340 C   0  0  0  0  0  0  0  0  0  0  0  0
   -3.1530   23.3820  -30.7970 N   0  0  0  0  0  0  0  0  0  0  0  0
   -4.6690   24.1660  -30.4940 S   0  0  0  0  0  0  0  0  0  0  0  0
   -4.6820   25.5030  -31.1820 O   0  0  0  0  0  0  0  0  0  0  0  0
   -4.8690   24.3530  -29.0160 O   0  0  0  0  0  0  0  0  0  0  0  0
   -5.9620   23.1490  -31.1220 C   0  0  0  0  0  0  0  0  0  0  0  0
   -7.2160   23.7130  -31.3850 C   0  0  0  0  0  0  0  0  0  0  0  0
   -8.2520   22.9190  -31.8790 C   0  0  0  0  0  0  0  0  0  0  0  0
   -8.0440   21.5570  -32.1160 C   0  0  0  0  0  0  0  0  0  0  0  0
   -9.0650   20.8010  -32.5930 F   0  0  0  0  0  0  0  0  0  0  0  0
   -6.7870   20.9830  -31.8610 C   0  0  0  0  0  0  0  0  0  0  0  0
   -6.5240   19.2660  -32.1650 S   0  0  0  0  0  0  0  0  0  0  0  0
   -7.6530   18.7470  -33.0120 O   0  0  0  0  0  0  0  0  0  0  0  0
   -6.4960   18.4960  -30.8740 O   0  0  0  0  0  0  0  0  0  0  0  0
   -4.9810   19.0470  -32.9860 C   0  0  0  0  0  0  0  0  0  0  0  0
   -4.0990   20.1310  -33.1050 C   0  0  0  0  0  0  0  0  0  0  0  0
   -2.8730   19.9710  -33.7600 C   0  0  0  0  0  0  0  0  0  0  0  0
   -2.5230   18.7290  -34.2970 C   0  0  0  0  0  0  0  0  0  0  0  0
   -3.3990   17.6460  -34.1820 C   0  0  0  0  0  0  0  0  0  0  0  0
   -4.6260   17.8020  -33.5270 C   0  0  0  0  0  0  0  0  0  0  0  0
   -5.7480   21.7840  -31.3660 C   0  0  0  0  0  0  0  0  0  0  0  0
   -1.4560   21.9370  -29.7070 C   0  0  0  0  0  0  0  0  0  0  0  0
    0.3130   19.5370  -29.7440 N   0  0  0  0  0  0  0  0  0  0  0  0
    0.1080   18.1030  -29.4940 C   0  0  0  0  0  0  0  0  0  0  0  0
    0.1940   17.2850  -30.7890 C   0  0  0  0  0  0  0  0  0  0  0  0
   -0.5650   17.9940  -31.9120 C   0  0  0  0  0  0  0  0  0  0  0  0
   -0.0040   19.4020  -32.2040 C   0  0  0  0  0  0  0  0  0  0  0  0
    0.8210   19.9920  -31.0460 C   0  0  0  0  0  0  0  0  0  0  0  0
    0.7262   22.7039  -27.1842 H   0  0  0  0  0  0  0  0  0  0  0  0
   -0.4226   24.9002  -27.3987 H   0  0  0  0  0  0  0  0  0  0  0  0
   -3.1140   25.6760  -29.7230 H   0  0  0  0  0  0  0  0  0  0  0  0
   -7.3852   24.7844  -31.2019 H   0  0  0  0  0  0  0  0  0  0  0  0
   -9.2360   23.3666  -32.0827 H   0  0  0  0  0  0  0  0  0  0  0  0
   -4.3718   21.1093  -32.6824 H   0  0  0  0  0  0  0  0  0  0  0  0
   -2.1840   20.8235  -33.8524 H   0  0  0  0  0  0  0  0  0  0  0  0
   -1.5581   18.6038  -34.8101 H   0  0  0  0  0  0  0  0  0  0  0  0
   -3.1236   16.6695  -34.6070 H   0  0  0  0  0  0  0  0  0  0  0  0
   -5.3128   16.9476  -33.4362 H   0  0  0  0  0  0  0  0  0  0  0  0
   -4.7611   21.3404  -31.1682 H   0  0  0  0  0  0  0  0  0  0  0  0
   -1.7417   21.1020  -30.3636 H   0  0  0  0  0  0  0  0  0  0  0  0
    0.8808   17.7485  -28.7961 H   0  0  0  0  0  0  0  0  0  0  0  0
   -0.8976   17.9686  -29.0688 H   0  0  0  0  0  0  0  0  0  0  0  0
    1.2493   17.1722  -31.0783 H   0  0  0  0  0  0  0  0  0  0  0  0
   -0.2564   16.2958  -30.6197 H   0  0  0  0  0  0  0  0  0  0  0  0
   -0.4904   17.3874  -32.8266 H   0  0  0  0  0  0  0  0  0  0  0  0
   -1.6102   18.1098  -31.5892 H   0  0  0  0  0  0  0  0  0  0  0  0
    0.6401   19.3415  -33.0937 H   0  0  0  0  0  0  0  0  0  0  0  0
   -0.8672   20.0669  -32.3550 H   0  0  0  0  0  0  0  0  0  0  0  0
    1.8684   19.6736  -31.1534 H   0  0  0  0  0  0  0  0  0  0  0  0
    0.7421   21.0884  -31.0862 H   0  0  0  0  0  0  0  0  0  0  0  0
  1  2  2  0
  2  3  1  0
  3  4  2  0
  4  5  1  0
  5  6  2  0
  6  7  1  0
  6  8  1  0
  8  9  1  0
  9 10  1  0
 10 11  2  0
 10 12  2  0
 10 13  1  0
 13 14  2  0
 14 15  1  0
 15 16  2  0
 16 17  1  0
 16 18  1  0
 18 19  1  0
 19 20  2  0
 19 21  2  0
 19 22  1  0
 22 23  2  0
 23 24  1  0
 24 25  2  0
 25 26  1  0
 26 27  2  0
 18 28  2  0
  8 29  2  0
  2 30  1  0
 30 31  1  0
 31 32  1  0
 32 33  1  0
 33 34  1  0
 34 35  1  0
 29  3  1  0
 35 30  1  0
 28 13  1  0
 27 22  1  0
  4 36  1  0
  5 37  1  0
  7 38  1  0
 14 39  1  0
 15 40  1  0
 23 41  1  0
 24 42  1  0
 25 43  1  0
 26 44  1  0
 27 45  1  0
 28 46  1  0
 29 47  1  0
 31 48  1  0
 31 49  1  0
 32 50  1  0
 32 51  1  0
 33 52  1  0
 33 53  1  0
 34 54  1  0
 34 55  1  0
 35 56  1  0
 35 57  1  0
M  CHG  1   9  -1
M  END
>  <UniqueID>  (39) 
39

>  <SMILES>  (39) 
O=C(c1ccc(O)c([N-]S(=O)(=O)c2ccc(F)c(S(=O)(=O)c3ccccc3)c2)c1)N1CCCCC1

>  <Energy>  (39) 
73.002941104083

>  <Genealogy>  (39) 
O=C(c1ccc(O)c([N-]S(=O)(=O)c2ccc(F)c(S(=O)(=O)c3ccccc3)c2)c1)N1CCCCC1 (protonated)
O=C(c1ccc(O)c([N-]S(=O)(=O)c2ccc(F)c(S(=O)(=O)c3ccccc3)c2)c1)N1CCCCC1 (3D coordinates assigned)
O=C(c1ccc(O)c([N-]S(=O)(=O)c2ccc(F)c(S(=O)(=O)c3ccccc3)c2)c1)N1CCCCC1 (nonaromatic ring conformer: 73.002941104083 kcal/mol)

>  <smiles>  (39) 
O=C(c1ccc(O)c(NS(=O)(=O)c2ccc(F)c(S(=O)(=O)c3ccccc3)c2)c1)N1CCCCC1

>  <score_type>  (39) 
oracle

>  <origin>  (39) 
adgpu

>  <m_score__min__energy>  (39) 
-12.109999999999999

>  <m_primary>  (39) 
energy

$$$$
39:0
     RDKit          3D

 57 60  0  0  0  0  0  0  0  0999 V2000
   -1.8990   25.6410  -28.9550 O   0  0  0  0  0  0  0  0  0  0  0  0
   -2.7360   24.8200  -29.4190 C   0  0  0  0  0  0  0  0  0  0  0  0
   -3.7700   25.2640  -30.3080 N   0  0  0  0  0  0  0  0  0  0  0  0
   -4.9000   24.4980  -30.7510 C   0  0  0  0  0  0  0  0  0  0  0  0
   -6.2200   24.9490  -30.5770 C   0  0  0  0  0  0  0  0  0  0  0  0
   -7.2930   24.1570  -30.9930 C   0  0  0  0  0  0  0  0  0  0  0  0
   -7.0610   22.9110  -31.5780 C   0  0  0  0  0  0  0  0  0  0  0  0
   -5.7490   22.4460  -31.7530 C   0  0  0  0  0  0  0  0  0  0  0  0
   -5.4500   20.8680  -32.4910 S   0  0  0  0  0  0  0  0  0  0  0  0
   -4.6500   20.0240  -31.5380 O   0  0  0  0  0  0  0  0  0  0  0  0
   -4.6350   21.0580  -33.7420 O   0  0  0  0  0  0  0  0  0  0  0  0
   -6.9290   20.0270  -32.8990 N   0  0  0  0  0  0  0  0  0  0  0  0
   -7.8060   19.8690  -31.7370 C   0  0  0  0  0  0  0  0  0  0  0  0
   -8.5560   18.5700  -31.9360 C   0  0  0  0  0  0  0  0  0  0  0  0
   -7.5870   17.7050  -32.7100 C   0  0  0  0  0  0  0  0  0  0  0  0
   -6.6770   18.6840  -33.4410 C   0  0  0  0  0  0  0  0  0  0  0  0
   -4.6750   23.2370  -31.3170 C   0  0  0  0  0  0  0  0  0  0  0  0
   -2.6540   23.3990  -29.0280 C   0  0  0  0  0  0  0  0  0  0  0  0
   -1.8730   22.5320  -29.8130 C   0  0  0  0  0  0  0  0  0  0  0  0
   -1.7010   21.1910  -29.4450 C   0  0  0  0  0  0  0  0  0  0  0  0
   -0.7260   20.1060  -30.4350 S   0  0  0  0  0  0  0  0  0  0  0  0
    0.6050   20.7390  -30.7280 O   0  0  0  0  0  0  0  0  0  0  0  0
   -0.4940   18.8380  -29.6600 O   0  0  0  0  0  0  0  0  0  0  0  0
   -1.5830   19.7530  -31.9200 N   0  0  0  0  0  0  0  0  0  0  0  0
   -1.9530   20.9850  -32.6530 C   0  0  0  0  0  0  0  0  0  0  0  0
   -0.9860   21.3040  -33.8060 C   0  0  0  0  0  0  0  0  0  0  0  0
    0.3170   20.8730  -33.4870 O   0  0  0  0  0  0  0  0  0  0  0  0
    0.3710   19.4570  -33.4690 C   0  0  0  0  0  0  0  0  0  0  0  0
   -0.8410   18.8000  -32.7630 C   0  0  0  0  0  0  0  0  0  0  0  0
   -2.3210   20.7060  -28.2910 C   0  0  0  0  0  0  0  0  0  0  0  0
   -3.1150   21.5490  -27.5140 C   0  0  0  0  0  0  0  0  0  0  0  0
   -3.3070   22.8870  -27.8800 C   0  0  0  0  0  0  0  0  0  0  0  0
   -4.1780   23.6570  -27.1050 O   0  0  0  0  0  0  0  0  0  0  0  0
   -6.4085   25.9280  -30.1121 H   0  0  0  0  0  0  0  0  0  0  0  0
   -8.3240   24.5164  -30.8591 H   0  0  0  0  0  0  0  0  0  0  0  0
   -7.9099   22.2915  -31.9029 H   0  0  0  0  0  0  0  0  0  0  0  0
   -7.2092   19.8253  -30.8140 H   0  0  0  0  0  0  0  0  0  0  0  0
   -8.4996   20.7178  -31.6447 H   0  0  0  0  0  0  0  0  0  0  0  0
   -8.8047   18.1096  -30.9684 H   0  0  0  0  0  0  0  0  0  0  0  0
   -9.5128   18.7089  -32.4607 H   0  0  0  0  0  0  0  0  0  0  0  0
   -7.0028   17.0722  -32.0257 H   0  0  0  0  0  0  0  0  0  0  0  0
   -8.1044   17.0265  -33.4042 H   0  0  0  0  0  0  0  0  0  0  0  0
   -5.6246   18.4075  -33.2799 H   0  0  0  0  0  0  0  0  0  0  0  0
   -6.8812   18.6627  -34.5217 H   0  0  0  0  0  0  0  0  0  0  0  0
   -3.6459   22.8627  -31.4209 H   0  0  0  0  0  0  0  0  0  0  0  0
   -1.3916   22.9110  -30.7265 H   0  0  0  0  0  0  0  0  0  0  0  0
   -2.9641   20.8577  -33.0670 H   0  0  0  0  0  0  0  0  0  0  0  0
   -1.9070   21.8216  -31.9403 H   0  0  0  0  0  0  0  0  0  0  0  0
   -1.3254   20.7890  -34.7168 H   0  0  0  0  0  0  0  0  0  0  0  0
   -0.9722   22.3916  -33.9699 H   0  0  0  0  0  0  0  0  0  0  0  0
    0.4057   19.0969  -34.5078 H   0  0  0  0  0  0  0  0  0  0  0  0
    1.2685   19.1753  -32.8988 H   0  0  0  0  0  0  0  0  0  0  0  0
   -1.5223   18.4007  -33.5288 H   0  0  0  0  0  0  0  0  0  0  0  0
   -0.4573   18.0022  -32.1101 H   0  0  0  0  0  0  0  0  0  0  0  0
   -2.1825   19.6559  -27.9942 H   0  0  0  0  0  0  0  0  0  0  0  0
   -3.5953   21.1590  -26.6045 H   0  0  0  0  0  0  0  0  0  0  0  0
   -5.0160   24.0850  -27.4730 H   0  0  0  0  0  0  0  0  0  0  0  0
  1  2  2  0
  2  3  1  0
  3  4  1  0
  4  5  2  0
  5  6  1  0
  6  7  2  0
  7  8  1  0
  8  9  1  0
  9 10  2  0
  9 11  2  0
  9 12  1  0
 12 13  1  0
 13 14  1  0
 14 15  1  0
 15 16  1  0
  8 17  2  0
  2 18  1  0
 18 19  2  0
 19 20  1  0
 20 21  1  0
 21 22  2  0
 21 23  2  0
 21 24  1  0
 24 25  1  0
 25 26  1  0
 26 27  1  0
 27 28  1  0
 28 29  1  0
 20 30  2  0
 30 31  1  0
 31 32  2  0
 32 33  1  0
 17  4  1  0
 32 18  1  0
 16 12  1  0
 29 24  1  0
  5 34  1  0
  6 35  1  0
  7 36  1  0
 13 37  1  0
 13 38  1  0
 14 39  1  0
 14 40  1  0
 15 41  1  0
 15 42  1  0
 16 43  1  0
 16 44  1  0
 17 45  1  0
 19 46  1  0
 25 47  1  0
 25 48  1  0
 26 49  1  0
 26 50  1  0
 28 51  1  0
 28 52  1  0
 29 53  1  0
 29 54  1  0
 30 55  1  0
 31 56  1  0
 33 57  1  0
M  CHG  1   3  -1
M  END
>  <UniqueID>  (40) 
40

>  <SMILES>  (40) 
O=C([N-]c1cccc(S(=O)(=O)N2CCCC2)c1)c1cc(S(=O)(=O)N2CCOCC2)ccc1O

>  <Energy>  (40) 
80.70244872570312

>  <Genealogy>  (40) 
O=C([N-]c1cccc(S(=O)(=O)N2CCCC2)c1)c1cc(S(=O)(=O)N2CCOCC2)ccc1O (protonated)
O=C([N-]c1cccc(S(=O)(=O)N2CCCC2)c1)c1cc(S(=O)(=O)N2CCOCC2)ccc1O (3D coordinates assigned)
O=C([N-]c1cccc(S(=O)(=O)N2CCCC2)c1)c1cc(S(=O)(=O)N2CCOCC2)ccc1O (nonaromatic ring conformer: 80.70244872570312 kcal/mol)

>  <smiles>  (40) 
O=C(Nc1cccc(S(=O)(=O)N2CCCC2)c1)c1cc(S(=O)(=O)N2CCOCC2)ccc1O

>  <score_type>  (40) 
oracle

>  <origin>  (40) 
adgpu

>  <m_score__min__energy>  (40) 
-11.289999999999999

>  <m_primary>  (40) 
energy

$$$$
40:0
     RDKit          3D

 40 42  0  0  0  0  0  0  0  0999 V2000
   -6.5600   25.3050  -30.0650 C   0  0  0  0  0  0  0  0  0  0  0  0
   -5.9090   24.0990  -30.6730 C   0  0  0  0  0  0  0  0  0  0  0  0
   -4.5490   23.9100  -30.8530 C   0  0  0  0  0  0  0  0  0  0  0  0
   -3.5140   24.8190  -30.4570 N   0  0  0  0  0  0  0  0  0  0  0  0
   -2.4160   24.5480  -29.1460 S   0  0  0  0  0  0  0  0  0  0  0  0
   -3.0940   24.9100  -27.8530 O   0  0  0  0  0  0  0  0  0  0  0  0
   -1.2110   25.4260  -29.3240 O   0  0  0  0  0  0  0  0  0  0  0  0
   -1.8990   22.8650  -29.1370 C   0  0  0  0  0  0  0  0  0  0  0  0
   -2.5130   21.9530  -28.2680 C   0  0  0  0  0  0  0  0  0  0  0  0
   -2.1000   20.6180  -28.2450 C   0  0  0  0  0  0  0  0  0  0  0  0
   -1.0720   20.1880  -29.0900 C   0  0  0  0  0  0  0  0  0  0  0  0
   -0.4580   21.0920  -29.9620 C   0  0  0  0  0  0  0  0  0  0  0  0
   -0.8700   22.4290  -29.9870 C   0  0  0  0  0  0  0  0  0  0  0  0
   -4.4400   22.6840  -31.4800 C   0  0  0  0  0  0  0  0  0  0  0  0
   -3.3700   22.1050  -31.8120 O   0  0  0  0  0  0  0  0  0  0  0  0
   -5.6710   22.1700  -31.6700 N   0  0  0  0  0  0  0  0  0  0  0  0
   -5.9650   20.8970  -32.2710 C   0  0  0  0  0  0  0  0  0  0  0  0
   -6.8630   20.0110  -31.6570 C   0  0  0  0  0  0  0  0  0  0  0  0
   -7.1220   18.7620  -32.2300 C   0  0  0  0  0  0  0  0  0  0  0  0
   -6.4830   18.3890  -33.4160 C   0  0  0  0  0  0  0  0  0  0  0  0
   -5.5830   19.2650  -34.0290 C   0  0  0  0  0  0  0  0  0  0  0  0
   -5.3200   20.5140  -33.4570 C   0  0  0  0  0  0  0  0  0  0  0  0
   -6.5660   23.0340  -31.1960 N   0  0  0  0  0  0  0  0  0  0  0  0
   -8.0200   22.8450  -31.2180 C   0  0  0  0  0  0  0  0  0  0  0  0
   -6.5194   25.2298  -28.9683 H   0  0  0  0  0  0  0  0  0  0  0  0
   -6.0287   26.2116  -30.3903 H   0  0  0  0  0  0  0  0  0  0  0  0
   -7.6094   25.3584  -30.3903 H   0  0  0  0  0  0  0  0  0  0  0  0
   -3.3219   22.2887  -27.6024 H   0  0  0  0  0  0  0  0  0  0  0  0
   -2.5840   19.9048  -27.5616 H   0  0  0  0  0  0  0  0  0  0  0  0
   -0.7462   19.1376  -29.0685 H   0  0  0  0  0  0  0  0  0  0  0  0
    0.3487   20.7523  -30.6282 H   0  0  0  0  0  0  0  0  0  0  0  0
   -0.3869   23.1397  -30.6737 H   0  0  0  0  0  0  0  0  0  0  0  0
   -7.3650   20.2998  -30.7218 H   0  0  0  0  0  0  0  0  0  0  0  0
   -7.8295   18.0721  -31.7468 H   0  0  0  0  0  0  0  0  0  0  0  0
   -6.6884   17.4067  -33.8665 H   0  0  0  0  0  0  0  0  0  0  0  0
   -5.0807   18.9718  -34.9627 H   0  0  0  0  0  0  0  0  0  0  0  0
   -4.6055   21.1980  -33.9382 H   0  0  0  0  0  0  0  0  0  0  0  0
   -8.3990   22.7957  -30.1865 H   0  0  0  0  0  0  0  0  0  0  0  0
   -8.4916   23.6894  -31.7420 H   0  0  0  0  0  0  0  0  0  0  0  0
   -8.2601   21.9081  -31.7420 H   0  0  0  0  0  0  0  0  0  0  0  0
  1  2  1  0
  2  3  2  0
  3  4  1  0
  4  5  1  0
  5  6  2  0
  5  7  2  0
  5  8  1  0
  8  9  2  0
  9 10  1  0
 10 11  2  0
 11 12  1  0
 12 13  2  0
  3 14  1  0
 14 15  2  0
 14 16  1  0
 16 17  1  0
 17 18  2  0
 18 19  1  0
 19 20  2  0
 20 21  1  0
 21 22  2  0
 16 23  1  0
 23 24  1  0
 23  2  1  0
 13  8  1  0
 22 17  1  0
  1 25  1  0
  1 26  1  0
  1 27  1  0
  9 28  1  0
 10 29  1  0
 11 30  1  0
 12 31  1  0
 13 32  1  0
 18 33  1  0
 19 34  1  0
 20 35  1  0
 21 36  1  0
 22 37  1  0
 24 38  1  0
 24 39  1  0
 24 40  1  0
M  CHG  1   4  -1
M  END
>  <UniqueID>  (41) 
41

>  <SMILES>  (41) 
Cc1c([N-]S(=O)(=O)c2ccccc2)c(=O)n(-c2ccccc2)n1C

>  <Energy>  (41) 
85.92624647868145

>  <Genealogy>  (41) 
Cc1c([N-]S(=O)(=O)c2ccccc2)c(=O)n(-c2ccccc2)n1C (protonated)
Cc1c([N-]S(=O)(=O)c2ccccc2)c(=O)n(-c2ccccc2)n1C (3D coordinates assigned)
Cc1c([N-]S(=O)(=O)c2ccccc2)c(=O)n(-c2ccccc2)n1C (optimized conformer: 85.92624647868145 kcal/mol)

>  <smiles>  (41) 
Cc1c(NS(=O)(=O)c2ccccc2)c(=O)n(-c2ccccc2)n1C

>  <score_type>  (41) 
oracle

>  <origin>  (41) 
adgpu

>  <m_score__min__energy>  (41) 
-9.7300000000000004

>  <m_primary>  (41) 
energy

$$$$
41:0
     RDKit          3D

 55 58  0  0  0  0  0  0  0  0999 V2000
   -5.4110   24.9800  -31.5440 O   0  0  0  0  0  0  0  0  0  0  0  0
   -5.3500   23.8570  -30.5470 S   0  0  0  0  0  0  0  0  0  0  0  0
   -6.7460   23.5040  -30.1160 O   0  0  0  0  0  0  0  0  0  0  0  0
   -4.4360   24.3630  -29.1600 N   0  0  0  0  0  0  0  0  0  0  0  0
   -3.2280   23.7010  -28.7480 C   0  0  0  0  0  0  0  0  0  0  0  0
   -3.2570   22.3850  -28.2550 C   0  0  0  0  0  0  0  0  0  0  0  0
   -2.0680   21.7260  -27.9090 C   0  0  0  0  0  0  0  0  0  0  0  0
   -0.8360   22.3910  -28.0300 C   0  0  0  0  0  0  0  0  0  0  0  0
   -0.8100   23.7160  -28.4840 C   0  0  0  0  0  0  0  0  0  0  0  0
   -1.9940   24.3640  -28.8520 C   0  0  0  0  0  0  0  0  0  0  0  0
   -1.9310   25.6660  -29.3350 O   0  0  0  0  0  0  0  0  0  0  0  0
    0.4450   21.7160  -27.5970 C   0  0  0  0  0  0  0  0  0  0  0  0
    0.4310   20.1680  -27.6930 C   0  0  0  0  0  0  0  0  0  0  0  0
   -0.9250   19.5440  -28.0660 C   0  0  0  0  0  0  0  0  0  0  0  0
   -2.0920   20.3020  -27.4330 C   0  0  0  0  0  0  0  0  0  0  0  0
   -4.5600   22.4740  -31.3010 C   0  0  0  0  0  0  0  0  0  0  0  0
   -3.2710   22.5910  -31.8390 C   0  0  0  0  0  0  0  0  0  0  0  0
   -2.6790   21.4980  -32.4800 C   0  0  0  0  0  0  0  0  0  0  0  0
   -3.3720   20.2890  -32.5940 C   0  0  0  0  0  0  0  0  0  0  0  0
   -4.6610   20.1670  -32.0590 C   0  0  0  0  0  0  0  0  0  0  0  0
   -5.5690   18.6650  -32.2200 S   0  0  0  0  0  0  0  0  0  0  0  0
   -5.8930   18.1630  -30.8390 O   0  0  0  0  0  0  0  0  0  0  0  0
   -4.7400   17.6280  -32.9260 O   0  0  0  0  0  0  0  0  0  0  0  0
   -7.0570   18.9450  -33.0990 N   0  0  0  0  0  0  0  0  0  0  0  0
   -8.1780   18.1420  -32.5720 C   0  0  0  0  0  0  0  0  0  0  0  0
   -8.7230   18.6760  -31.2350 C   0  0  0  0  0  0  0  0  0  0  0  0
   -8.7650   20.2130  -31.1700 C   0  0  0  0  0  0  0  0  0  0  0  0
   -8.6520   20.8450  -32.5550 C   0  0  0  0  0  0  0  0  0  0  0  0
   -7.3530   20.3930  -33.2480 C   0  0  0  0  0  0  0  0  0  0  0  0
   -5.2460   21.2570  -31.4040 C   0  0  0  0  0  0  0  0  0  0  0  0
   -4.6830   25.2910  -28.7460 H   0  0  0  0  0  0  0  0  0  0  0  0
   -4.2207   21.8673  -28.1395 H   0  0  0  0  0  0  0  0  0  0  0  0
    0.1487   24.2510  -28.5517 H   0  0  0  0  0  0  0  0  0  0  0  0
    1.2607   22.0906  -28.2328 H   0  0  0  0  0  0  0  0  0  0  0  0
    0.5773   21.9583  -26.5322 H   0  0  0  0  0  0  0  0  0  0  0  0
    1.1643   19.8683  -28.4562 H   0  0  0  0  0  0  0  0  0  0  0  0
    0.6683   19.7988  -26.6843 H   0  0  0  0  0  0  0  0  0  0  0  0
   -1.0380   19.5655  -29.1600 H   0  0  0  0  0  0  0  0  0  0  0  0
   -0.9421   18.5115  -27.6870 H   0  0  0  0  0  0  0  0  0  0  0  0
   -3.0410   19.8307  -27.7283 H   0  0  0  0  0  0  0  0  0  0  0  0
   -2.0006   20.2757  -26.3371 H   0  0  0  0  0  0  0  0  0  0  0  0
   -2.7251   23.5424  -31.7571 H   0  0  0  0  0  0  0  0  0  0  0  0
   -1.6648   21.5898  -32.8959 H   0  0  0  0  0  0  0  0  0  0  0  0
   -2.9050   19.4335  -33.1039 H   0  0  0  0  0  0  0  0  0  0  0  0
   -8.9928   18.1498  -33.3110 H   0  0  0  0  0  0  0  0  0  0  0  0
   -7.7984   17.1256  -32.3906 H   0  0  0  0  0  0  0  0  0  0  0  0
   -9.7442   18.2918  -31.0949 H   0  0  0  0  0  0  0  0  0  0  0  0
   -8.0412   18.3331  -30.4429 H   0  0  0  0  0  0  0  0  0  0  0  0
   -9.7166   20.5237  -30.7140 H   0  0  0  0  0  0  0  0  0  0  0  0
   -7.9079   20.5522  -30.5697 H   0  0  0  0  0  0  0  0  0  0  0  0
   -9.5141   20.5373  -33.1651 H   0  0  0  0  0  0  0  0  0  0  0  0
   -8.6362   21.9396  -32.4471 H   0  0  0  0  0  0  0  0  0  0  0  0
   -7.4374   20.6195  -34.3211 H   0  0  0  0  0  0  0  0  0  0  0  0
   -6.5292   20.9363  -32.7620 H   0  0  0  0  0  0  0  0  0  0  0  0
   -6.2507   21.1573  -30.9674 H   0  0  0  0  0  0  0  0  0  0  0  0
  1  2  2  0
  2  3  2  0
  2  4  1  0
  4  5  1  0
  5  6  2  0
  6  7  1  0
  7  8  2  0
  8  9  1  0
  9 10  2  0
 10 11  1  0
  8 12  1  0
 12 13  1  0
 13 14  1  0
 14 15  1  0
  2 16  1  0
 16 17  2  0
 17 18  1  0
 18 19  2  0
 19 20  1  0
 20 21  1  0
 21 22  2  0
 21 23  2  0
 21 24  1  0
 24 25  1  0
 25 26  1  0
 26 27  1  0
 27 28  1  0
 28 29  1  0
 20 30  2  0
 10  5  1  0
 30 16  1  0
 15  7  1  0
 29 24  1  0
  4 31  1  0
  6 32  1  0
  9 33  1  0
 12 34  1  0
 12 35  1  0
 13 36  1  0
 13 37  1  0
 14 38  1  0
 14 39  1  0
 15 40  1  0
 15 41  1  0
 17 42  1  0
 18 43  1  0
 19 44  1  0
 25 45  1  0
 25 46  1  0
 26 47  1  0
 26 48  1  0
 27 49  1  0
 27 50  1  0
 28 51  1  0
 28 52  1  0
 29 53  1  0
 29 54  1  0
 30 55  1  0
M  CHG  1  11  -1
M  END
>  <UniqueID>  (42) 
42

>  <SMILES>  (42) 
O=S(=O)(Nc1cc2c(cc1[O-])CCCC2)c1cccc(S(=O)(=O)N2CCCCC2)c1

>  <Energy>  (42) 
66.30658844902088

>  <Genealogy>  (42) 
O=S(=O)(Nc1cc2c(cc1[O-])CCCC2)c1cccc(S(=O)(=O)N2CCCCC2)c1 (protonated)
O=S(=O)(Nc1cc2c(cc1[O-])CCCC2)c1cccc(S(=O)(=O)N2CCCCC2)c1 (3D coordinates assigned)
O=S(=O)(Nc1cc2c(cc1[O-])CCCC2)c1cccc(S(=O)(=O)N2CCCCC2)c1 (nonaromatic ring conformer: 66.30658844902088 kcal/mol)

>  <smiles>  (42) 
O=S(=O)(Nc1cc2c(cc1O)CCCC2)c1cccc(S(=O)(=O)N2CCCCC2)c1

>  <score_type>  (42) 
oracle

>  <origin>  (42) 
adgpu

>  <m_score__min__energy>  (42) 
-14.93

>  <m_primary>  (42) 
energy

$$$$
42:0
     RDKit          3D

 30 31  0  0  0  0  0  0  0  0999 V2000
   -7.1110   18.5620  -32.6740 C   0  0  0  0  0  0  0  0  0  0  0  0
   -7.0790   19.8420  -33.2970 O   0  0  0  0  0  0  0  0  0  0  0  0
   -6.6170   21.0150  -32.6780 C   0  0  0  0  0  0  0  0  0  0  0  0
   -5.2610   21.3940  -32.7100 C   0  0  0  0  0  0  0  0  0  0  0  0
   -4.8380   22.5600  -32.0680 C   0  0  0  0  0  0  0  0  0  0  0  0
   -5.7600   23.3650  -31.3880 C   0  0  0  0  0  0  0  0  0  0  0  0
   -5.2290   24.7920  -30.5010 S   0  0  0  0  0  0  0  0  0  0  0  0
   -5.7290   24.6980  -29.0880 O   0  0  0  0  0  0  0  0  0  0  0  0
   -5.7940   26.0370  -31.1270 O   0  0  0  0  0  0  0  0  0  0  0  0
   -3.4900   24.8860  -30.4850 N   0  0  0  0  0  0  0  0  0  0  0  0
   -2.9280   24.0820  -29.3990 C   0  0  0  0  0  0  0  0  0  0  0  0
   -2.0470   24.9220  -28.5280 C   0  0  0  0  0  0  0  0  0  0  0  0
   -1.7150   24.6520  -27.2150 C   0  0  0  0  0  0  0  0  0  0  0  0
   -0.9020   25.6920  -26.8180 C   0  0  0  0  0  0  0  0  0  0  0  0
   -0.7810   26.5240  -27.9130 C   0  0  0  0  0  0  0  0  0  0  0  0
   -1.4720   26.0370  -28.9180 O   0  0  0  0  0  0  0  0  0  0  0  0
   -7.1110   22.9990  -31.3640 C   0  0  0  0  0  0  0  0  0  0  0  0
   -7.5380   21.8290  -32.0020 C   0  0  0  0  0  0  0  0  0  0  0  0
   -9.3870   21.3450  -31.9140 Br  0  0  0  0  0  0  0  0  0  0  0  0
   -7.1079   18.6860  -31.5810 H   0  0  0  0  0  0  0  0  0  0  0  0
   -8.0228   18.0280  -32.9799 H   0  0  0  0  0  0  0  0  0  0  0  0
   -6.2270   17.9831  -32.9799 H   0  0  0  0  0  0  0  0  0  0  0  0
   -4.5308   20.7680  -33.2438 H   0  0  0  0  0  0  0  0  0  0  0  0
   -3.7765   22.8470  -32.0967 H   0  0  0  0  0  0  0  0  0  0  0  0
   -3.7476   23.6681  -28.7932 H   0  0  0  0  0  0  0  0  0  0  0  0
   -2.3286   23.2677  -29.8321 H   0  0  0  0  0  0  0  0  0  0  0  0
   -2.0326   23.7883  -26.6124 H   0  0  0  0  0  0  0  0  0  0  0  0
   -0.4424   25.8309  -25.8283 H   0  0  0  0  0  0  0  0  0  0  0  0
   -0.1945   27.4542  -27.9397 H   0  0  0  0  0  0  0  0  0  0  0  0
   -7.8408   23.6344  -30.8409 H   0  0  0  0  0  0  0  0  0  0  0  0
  1  2  1  0
  2  3  1  0
  3  4  2  0
  4  5  1  0
  5  6  2  0
  6  7  1  0
  7  8  2  0
  7  9  2  0
  7 10  1  0
 10 11  1  0
 11 12  1  0
 12 13  2  0
 13 14  1  0
 14 15  2  0
 15 16  1  0
  6 17  1  0
 17 18  2  0
 18 19  1  0
 18  3  1  0
 16 12  1  0
  1 20  1  0
  1 21  1  0
  1 22  1  0
  4 23  1  0
  5 24  1  0
 11 25  1  0
 11 26  1  0
 13 27  1  0
 14 28  1  0
 15 29  1  0
 17 30  1  0
M  CHG  1  10  -1
M  END
>  <UniqueID>  (43) 
43

>  <SMILES>  (43) 
COc1ccc(S(=O)(=O)[N-]Cc2ccco2)cc1Br

>  <Energy>  (43) 
51.12112259584361

>  <Genealogy>  (43) 
COc1ccc(S(=O)(=O)[N-]Cc2ccco2)cc1Br (protonated)
COc1ccc(S(=O)(=O)[N-]Cc2ccco2)cc1Br (3D coordinates assigned)
COc1ccc(S(=O)(=O)[N-]Cc2ccco2)cc1Br (optimized conformer: 51.12112259584361 kcal/mol)

>  <smiles>  (43) 
COc1ccc(S(=O)(=O)NCc2ccco2)cc1Br

>  <score_type>  (43) 
oracle

>  <origin>  (43) 
adgpu

>  <m_score__min__energy>  (43) 
-9.5099999999999998

>  <m_primary>  (43) 
energy

$$$$
43:0
     RDKit          3D

 48 50  0  0  0  0  0  0  0  0999 V2000
    1.3310   15.6380  -27.1320 C   0  0  0  0  0  0  0  0  0  0  0  0
    1.1310   16.5440  -28.3090 C   0  0  0  0  0  0  0  0  0  0  0  0
    1.6680   16.2360  -29.4080 O   0  0  0  0  0  0  0  0  0  0  0  0
    0.3340   17.7430  -28.2050 N   0  0  0  0  0  0  0  0  0  0  0  0
    0.3870   18.7490  -29.2760 C   0  0  0  0  0  0  0  0  0  0  0  0
    0.2350   20.1600  -28.6970 C   0  0  0  0  0  0  0  0  0  0  0  0
   -0.9060   20.2400  -27.7770 N   0  0  0  0  0  0  0  0  0  0  0  0
   -1.3480   21.5200  -27.3070 C   0  0  0  0  0  0  0  0  0  0  0  0
   -1.1880   21.8110  -26.0910 O   0  0  0  0  0  0  0  0  0  0  0  0
   -2.0060   22.4850  -28.2210 C   0  0  0  0  0  0  0  0  0  0  0  0
   -1.8340   23.8680  -28.0480 C   0  0  0  0  0  0  0  0  0  0  0  0
   -2.4500   24.7730  -28.9150 C   0  0  0  0  0  0  0  0  0  0  0  0
   -3.2420   24.3110  -29.9720 C   0  0  0  0  0  0  0  0  0  0  0  0
   -3.8610   25.2190  -30.8310 O   0  0  0  0  0  0  0  0  0  0  0  0
   -3.4160   22.9340  -30.1690 C   0  0  0  0  0  0  0  0  0  0  0  0
   -4.2270   22.4910  -31.2650 N   0  0  0  0  0  0  0  0  0  0  0  0
   -5.7970   23.1070  -31.6650 S   0  0  0  0  0  0  0  0  0  0  0  0
   -5.7320   23.8230  -32.9850 O   0  0  0  0  0  0  0  0  0  0  0  0
   -6.2660   24.0580  -30.5990 O   0  0  0  0  0  0  0  0  0  0  0  0
   -6.9280   21.7610  -31.7590 C   0  0  0  0  0  0  0  0  0  0  0  0
   -8.3000   21.9990  -31.5970 C   0  0  0  0  0  0  0  0  0  0  0  0
   -9.2100   20.9400  -31.6660 C   0  0  0  0  0  0  0  0  0  0  0  0
   -8.7550   19.6380  -31.8940 C   0  0  0  0  0  0  0  0  0  0  0  0
   -7.3870   19.3950  -32.0540 C   0  0  0  0  0  0  0  0  0  0  0  0
   -6.4730   20.4520  -31.9860 C   0  0  0  0  0  0  0  0  0  0  0  0
   -2.7940   22.0260  -29.2920 C   0  0  0  0  0  0  0  0  0  0  0  0
   -1.6150   19.0330  -27.3480 C   0  0  0  0  0  0  0  0  0  0  0  0
   -0.6230   17.8940  -27.0950 C   0  0  0  0  0  0  0  0  0  0  0  0
    1.2044   16.2117  -26.2020 H   0  0  0  0  0  0  0  0  0  0  0  0
    0.5907   14.8251  -27.1651 H   0  0  0  0  0  0  0  0  0  0  0  0
    2.3447   15.2123  -27.1651 H   0  0  0  0  0  0  0  0  0  0  0  0
    1.3535   18.6734  -29.7958 H   0  0  0  0  0  0  0  0  0  0  0  0
   -0.4381   18.5629  -29.9793 H   0  0  0  0  0  0  0  0  0  0  0  0
    1.1534   20.4245  -28.1524 H   0  0  0  0  0  0  0  0  0  0  0  0
    0.0599   20.8589  -29.5282 H   0  0  0  0  0  0  0  0  0  0  0  0
   -1.2092   24.2413  -27.2232 H   0  0  0  0  0  0  0  0  0  0  0  0
   -2.3120   25.8541  -28.7663 H   0  0  0  0  0  0  0  0  0  0  0  0
   -4.4790   24.9080  -31.5740 H   0  0  0  0  0  0  0  0  0  0  0  0
   -8.6615   23.0218  -31.4151 H   0  0  0  0  0  0  0  0  0  0  0  0
  -10.2859   21.1316  -31.5407 H   0  0  0  0  0  0  0  0  0  0  0  0
   -9.4721   18.8056  -31.9475 H   0  0  0  0  0  0  0  0  0  0  0  0
   -7.0289   18.3706  -32.2337 H   0  0  0  0  0  0  0  0  0  0  0  0
   -5.3975   20.2576  -32.1104 H   0  0  0  0  0  0  0  0  0  0  0  0
   -2.9256   20.9448  -29.4458 H   0  0  0  0  0  0  0  0  0  0  0  0
   -2.1662   19.2466  -26.4203 H   0  0  0  0  0  0  0  0  0  0  0  0
   -2.3141   18.7285  -28.1408 H   0  0  0  0  0  0  0  0  0  0  0  0
   -0.0654   18.1066  -26.1710 H   0  0  0  0  0  0  0  0  0  0  0  0
   -1.1937   16.9578  -27.0069 H   0  0  0  0  0  0  0  0  0  0  0  0
  1  2  1  0
  2  3  2  0
  2  4  1  0
  4  5  1  0
  5  6  1  0
  6  7  1  0
  7  8  1  0
  8  9  2  0
  8 10  1  0
 10 11  2  0
 11 12  1  0
 12 13  2  0
 13 14  1  0
 13 15  1  0
 15 16  1  0
 16 17  1  0
 17 18  2  0
 17 19  2  0
 17 20  1  0
 20 21  2  0
 21 22  1  0
 22 23  2  0
 23 24  1  0
 24 25  2  0
 15 26  2  0
  7 27  1  0
 27 28  1  0
 28  4  1  0
 26 10  1  0
 25 20  1  0
  1 29  1  0
  1 30  1  0
  1 31  1  0
  5 32  1  0
  5 33  1  0
  6 34  1  0
  6 35  1  0
 11 36  1  0
 12 37  1  0
 14 38  1  0
 21 39  1  0
 22 40  1  0
 23 41  1  0
 24 42  1  0
 25 43  1  0
 26 44  1  0
 27 45  1  0
 27 46  1  0
 28 47  1  0
 28 48  1  0
M  CHG  1  16  -1
M  END
>  <UniqueID>  (44) 
44

>  <SMILES>  (44) 
CC(=O)N1CCN(C(=O)c2ccc(O)c([N-]S(=O)(=O)c3ccccc3)c2)CC1

>  <Energy>  (44) 
58.88854410768482

>  <Genealogy>  (44) 
CC(=O)N1CCN(C(=O)c2ccc(O)c([N-]S(=O)(=O)c3ccccc3)c2)CC1 (protonated)
CC(=O)N1CCN(C(=O)c2ccc(O)c([N-]S(=O)(=O)c3ccccc3)c2)CC1 (3D coordinates assigned)
CC(=O)N1CCN(C(=O)c2ccc(O)c([N-]S(=O)(=O)c3ccccc3)c2)CC1 (nonaromatic ring conformer: 58.88854410768482 kcal/mol)

>  <smiles>  (44) 
CC(=O)N1CCN(C(=O)c2ccc(O)c(NS(=O)(=O)c3ccccc3)c2)CC1

>  <score_type>  (44) 
oracle

>  <origin>  (44) 
adgpu

>  <m_score__min__energy>  (44) 
-10.300000000000001

>  <m_primary>  (44) 
energy

$$$$
44:0
     RDKit          3D

 39 40  0  0  0  0  0  0  0  0999 V2000
   -9.4860   22.2760  -31.6330 C   0  0  0  0  0  0  0  0  0  0  0  0
   -7.9850   22.1920  -31.6120 C   0  0  0  0  0  0  0  0  0  0  0  0
   -7.2520   23.2740  -31.0940 C   0  0  0  0  0  0  0  0  0  0  0  0
   -5.8540   23.2330  -31.0460 C   0  0  0  0  0  0  0  0  0  0  0  0
   -4.9500   24.5920  -30.3870 S   0  0  0  0  0  0  0  0  0  0  0  0
   -5.0200   24.5440  -28.6610 N   0  0  0  0  0  0  0  0  0  0  0  0
   -5.5410   25.8830  -30.8780 O   0  0  0  0  0  0  0  0  0  0  0  0
   -3.5170   24.5170  -30.8360 O   0  0  0  0  0  0  0  0  0  0  0  0
   -5.1790   22.0950  -31.5020 C   0  0  0  0  0  0  0  0  0  0  0  0
   -5.8960   21.0080  -32.0010 C   0  0  0  0  0  0  0  0  0  0  0  0
   -7.2960   21.0360  -32.0460 C   0  0  0  0  0  0  0  0  0  0  0  0
   -8.1520   19.5830  -32.6810 S   0  0  0  0  0  0  0  0  0  0  0  0
   -6.6590   18.8840  -33.3930 C   0  0  0  0  0  0  0  0  0  0  0  0
   -6.1630   19.2670  -34.5840 N   0  0  0  0  0  0  0  0  0  0  0  0
   -5.0590   18.5620  -34.7880 N   0  0  0  0  0  0  0  0  0  0  0  0
   -4.9100   17.7440  -33.7260 C   0  0  0  0  0  0  0  0  0  0  0  0
   -3.7290   16.8220  -33.5380 C   0  0  0  0  0  0  0  0  0  0  0  0
   -3.8510   15.5850  -34.4350 C   0  0  0  0  0  0  0  0  0  0  0  0
   -2.4290   17.5760  -33.8240 C   0  0  0  0  0  0  0  0  0  0  0  0
   -5.8960   17.9300  -32.8240 N   0  0  0  0  0  0  0  0  0  0  0  0
   -6.1180   17.2050  -31.5750 C   0  0  0  0  0  0  0  0  0  0  0  0
   -9.8665   22.2973  -30.6011 H   0  0  0  0  0  0  0  0  0  0  0  0
   -9.7946   23.1928  -32.1566 H   0  0  0  0  0  0  0  0  0  0  0  0
   -9.8950   21.3993  -32.1566 H   0  0  0  0  0  0  0  0  0  0  0  0
   -7.7832   24.1626  -30.7223 H   0  0  0  0  0  0  0  0  0  0  0  0
   -4.9030   25.5260  -28.3230 H   0  0  0  0  0  0  0  0  0  0  0  0
   -5.9890   24.2490  -28.4020 H   0  0  0  0  0  0  0  0  0  0  0  0
   -4.0802   22.0579  -31.4667 H   0  0  0  0  0  0  0  0  0  0  0  0
   -5.3571   20.1199  -32.3628 H   0  0  0  0  0  0  0  0  0  0  0  0
   -3.7151   16.4767  -32.4937 H   0  0  0  0  0  0  0  0  0  0  0  0
   -3.9397   14.6852  -33.8086 H   0  0  0  0  0  0  0  0  0  0  0  0
   -4.7442   15.6792  -35.0701 H   0  0  0  0  0  0  0  0  0  0  0  0
   -2.9566   15.5029  -35.0701 H   0  0  0  0  0  0  0  0  0  0  0  0
   -1.9497   17.8540  -32.8737 H   0  0  0  0  0  0  0  0  0  0  0  0
   -1.7507   16.9312  -34.4020 H   0  0  0  0  0  0  0  0  0  0  0  0
   -2.6519   18.4850  -34.4020 H   0  0  0  0  0  0  0  0  0  0  0  0
   -5.9141   17.8707  -30.7234 H   0  0  0  0  0  0  0  0  0  0  0  0
   -7.1623   16.8622  -31.5307 H   0  0  0  0  0  0  0  0  0  0  0  0
   -5.4447   16.3363  -31.5307 H   0  0  0  0  0  0  0  0  0  0  0  0
  1  2  1  0
  2  3  2  0
  3  4  1  0
  4  5  1  0
  5  6  1  0
  5  7  2  0
  5  8  2  0
  4  9  2  0
  9 10  1  0
 10 11  2  0
 11 12  1  0
 12 13  1  0
 13 14  2  0
 14 15  1  0
 15 16  2  0
 16 17  1  0
 17 18  1  0
 17 19  1  0
 16 20  1  0
 20 21  1  0
 11  2  1  0
 20 13  1  0
  1 22  1  0
  1 23  1  0
  1 24  1  0
  3 25  1  0
  6 26  1  0
  6 27  1  0
  9 28  1  0
 10 29  1  0
 17 30  1  0
 18 31  1  0
 18 32  1  0
 18 33  1  0
 19 34  1  0
 19 35  1  0
 19 36  1  0
 21 37  1  0
 21 38  1  0
 21 39  1  0
M  END
>  <UniqueID>  (45) 
45

>  <SMILES>  (45) 
Cc1cc(S(N)(=O)=O)ccc1Sc1nnc(C(C)C)n1C

>  <Energy>  (45) 
63.87116611295406

>  <Genealogy>  (45) 
Cc1cc(S(N)(=O)=O)ccc1Sc1nnc(C(C)C)n1C (3D coordinates assigned)
Cc1cc(S(N)(=O)=O)ccc1Sc1nnc(C(C)C)n1C (optimized conformer: 63.87116611295406 kcal/mol)

>  <smiles>  (45) 
Cc1cc(S(N)(=O)=O)ccc1Sc1nnc(C(C)C)n1C

>  <score_type>  (45) 
oracle

>  <origin>  (45) 
adgpu

>  <m_score__min__energy>  (45) 
-9.3200000000000003

>  <m_primary>  (45) 
energy

$$$$
45:0
     RDKit          3D

 38 40  0  0  0  0  0  0  0  0999 V2000
    3.8190   25.8310  -25.3160 H   0  0  0  0  0  0  0  0  0  0  0  0
    3.5240   25.9770  -26.2740 O   0  0  0  0  0  0  0  0  0  0  0  0
    2.2280   25.6870  -26.7070 C   0  0  0  0  0  0  0  0  0  0  0  0
    1.8910   24.3930  -27.1340 C   0  0  0  0  0  0  0  0  0  0  0  0
    2.8420   23.3790  -27.1280 O   0  0  0  0  0  0  0  0  0  0  0  0
    0.5940   24.1130  -27.5710 C   0  0  0  0  0  0  0  0  0  0  0  0
    0.3407   23.0958  -27.9043 H   0  0  0  0  0  0  0  0  0  0  0  0
   -0.3910   25.1150  -27.5900 C   0  0  0  0  0  0  0  0  0  0  0  0
   -1.7620   24.7930  -28.0660 C   0  0  0  0  0  0  0  0  0  0  0  0
   -2.1500   25.0650  -29.3440 N   0  0  0  0  0  0  0  0  0  0  0  0
   -3.4220   24.6850  -29.5830 C   0  0  0  0  0  0  0  0  0  0  0  0
   -3.9990   24.8860  -30.7300 N   0  0  0  0  0  0  0  0  0  0  0  0
   -5.3290   24.4760  -31.0800 C   0  0  0  0  0  0  0  0  0  0  0  0
   -6.2630   25.3170  -30.9870 O   0  0  0  0  0  0  0  0  0  0  0  0
   -5.6190   23.1220  -31.6110 C   0  0  0  0  0  0  0  0  0  0  0  0
   -6.8950   22.5490  -31.4580 C   0  0  0  0  0  0  0  0  0  0  0  0
   -7.6888   23.1112  -30.9444 H   0  0  0  0  0  0  0  0  0  0  0  0
   -7.1600   21.2690  -31.9550 C   0  0  0  0  0  0  0  0  0  0  0  0
   -8.1625   20.8320  -31.8371 H   0  0  0  0  0  0  0  0  0  0  0  0
   -6.1540   20.5420  -32.6020 C   0  0  0  0  0  0  0  0  0  0  0  0
   -6.4810   18.9300  -33.2230 S   0  0  0  0  0  0  0  0  0  0  0  0
   -7.9430   18.6170  -33.0700 O   0  0  0  0  0  0  0  0  0  0  0  0
   -6.0980   18.8620  -34.6740 O   0  0  0  0  0  0  0  0  0  0  0  0
   -5.5980   17.7940  -32.3650 F   0  0  0  0  0  0  0  0  0  0  0  0
   -4.8770   21.0980  -32.7390 C   0  0  0  0  0  0  0  0  0  0  0  0
   -4.0810   20.5258  -33.2380 H   0  0  0  0  0  0  0  0  0  0  0  0
   -4.6090   22.3780  -32.2440 C   0  0  0  0  0  0  0  0  0  0  0  0
   -3.6010   22.8052  -32.3508 H   0  0  0  0  0  0  0  0  0  0  0  0
   -4.1340   24.0050  -28.2160 S   0  0  0  0  0  0  0  0  0  0  0  0
   -2.7500   24.1880  -27.2780 C   0  0  0  0  0  0  0  0  0  0  0  0
   -2.6395   23.8848  -26.2264 H   0  0  0  0  0  0  0  0  0  0  0  0
   -0.0450   26.4130  -27.1670 C   0  0  0  0  0  0  0  0  0  0  0  0
   -0.8015   27.2112  -27.1893 H   0  0  0  0  0  0  0  0  0  0  0  0
    1.2540   26.7010  -26.7170 C   0  0  0  0  0  0  0  0  0  0  0  0
    1.6110   28.0950  -26.2830 C   0  0  0  0  0  0  0  0  0  0  0  0
    1.6238   28.1450  -25.1842 H   0  0  0  0  0  0  0  0  0  0  0  0
    2.6053   28.3573  -26.6736 H   0  0  0  0  0  0  0  0  0  0  0  0
    0.8652   28.8029  -26.6736 H   0  0  0  0  0  0  0  0  0  0  0  0
  1  2  1  0
  2  3  1  0
  3  4  2  0
  4  5  1  0
  4  6  1  0
  6  7  1  0
  6  8  2  0
  8  9  1  0
  9 10  1  0
 10 11  1  0
 11 12  2  0
 12 13  1  0
 13 14  2  0
 13 15  1  0
 15 16  2  0
 16 17  1  0
 16 18  1  0
 18 19  1  0
 18 20  2  0
 20 21  1  0
 21 22  2  0
 21 23  2  0
 21 24  1  0
 20 25  1  0
 25 26  1  0
 25 27  2  0
 27 28  1  0
 11 29  1  0
 29 30  1  0
 30 31  1  0
  8 32  1  0
 32 33  1  0
 32 34  2  0
 34 35  1  0
 35 36  1  0
 35 37  1  0
 35 38  1  0
 34  3  1  0
 30  9  2  0
 27 15  1  0
M  CHG  2   5  -1  10  -1
M  END
>  <UniqueID>  (46) 
46

>  <SMILES>  (46) 
Cc1cc(-c2cs/c(=N\C(=O)c3ccc(S(=O)(=O)F)cc3)[n-]2)cc([O-])c1O

>  <Energy>  (46) 
82.68741659937682

>  <Genealogy>  (46) 
Cc1cc(-c2csc(=NC(=O)c3ccc(S(=O)(=O)F)cc3)[n-]2)cc([O-])c1O (protonated)
Cc1cc(-c2cs/c(=N\C(=O)c3ccc(S(=O)(=O)F)cc3)[n-]2)cc([O-])c1O (cis-trans isomerization)
Cc1cc(-c2cs/c(=N\C(=O)c3ccc(S(=O)(=O)F)cc3)[n-]2)cc([O-])c1O (3D coordinates assigned)
Cc1cc(-c2cs/c(=N\C(=O)c3ccc(S(=O)(=O)F)cc3)[n-]2)cc([O-])c1O (optimized conformer: 82.68741659937682 kcal/mol)

>  <smiles>  (46) 
Cc1cc(-c2csc(=NC(=O)c3ccc(S(=O)(=O)F)cc3)[nH]2)cc(O)c1O

>  <score_type>  (46) 
oracle

>  <origin>  (46) 
adgpu

>  <m_score__min__energy>  (46) 
-10.24

>  <m_primary>  (46) 
energy

$$$$
46:0
     RDKit          3D

 63 66  0  0  0  0  0  0  0  0999 V2000
   -9.4870   19.4630  -32.4620 C   0  0  0  0  0  0  0  0  0  0  0  0
   -7.9980   19.3370  -32.3970 C   0  0  0  0  0  0  0  0  0  0  0  0
   -7.4790   18.7120  -31.4310 O   0  0  0  0  0  0  0  0  0  0  0  0
   -7.1780   19.8520  -33.4570 N   0  0  0  0  0  0  0  0  0  0  0  0
   -5.7590   20.0520  -33.3530 C   0  0  0  0  0  0  0  0  0  0  0  0
   -4.8440   19.0920  -33.8200 C   0  0  0  0  0  0  0  0  0  0  0  0
   -3.4690   19.2940  -33.6660 C   0  0  0  0  0  0  0  0  0  0  0  0
   -2.9850   20.4440  -33.0370 C   0  0  0  0  0  0  0  0  0  0  0  0
   -1.6000   20.5840  -32.8820 O   0  0  0  0  0  0  0  0  0  0  0  0
   -0.7240   19.5450  -32.4470 C   0  0  0  0  0  0  0  0  0  0  0  0
    0.2370   20.1020  -31.4030 C   0  0  0  0  0  0  0  0  0  0  0  0
   -0.0940   19.5670  -30.0730 N   0  0  0  0  0  0  0  0  0  0  0  0
    0.5460   18.3370  -29.5930 C   0  0  0  0  0  0  0  0  0  0  0  0
   -1.0290   20.2740  -29.2340 C   0  0  0  0  0  0  0  0  0  0  0  0
   -1.6180   19.6580  -28.1230 C   0  0  0  0  0  0  0  0  0  0  0  0
   -2.5330   20.3860  -27.3650 C   0  0  0  0  0  0  0  0  0  0  0  0
   -2.8230   21.6680  -27.6970 N   0  0  0  0  0  0  0  0  0  0  0  0
   -2.2380   22.2680  -28.7670 C   0  0  0  0  0  0  0  0  0  0  0  0
   -2.5720   23.6300  -29.1090 N   0  0  0  0  0  0  0  0  0  0  0  0
   -1.6090   24.7060  -28.8340 C   0  0  0  0  0  0  0  0  0  0  0  0
   -1.3320   24.7970  -27.3580 C   0  0  0  0  0  0  0  0  0  0  0  0
   -2.0420   25.7100  -26.5610 C   0  0  0  0  0  0  0  0  0  0  0  0
   -1.7710   25.8140  -25.1920 C   0  0  0  0  0  0  0  0  0  0  0  0
   -0.7910   25.0040  -24.6110 C   0  0  0  0  0  0  0  0  0  0  0  0
   -0.0810   24.0930  -25.3970 C   0  0  0  0  0  0  0  0  0  0  0  0
   -0.3480   23.9890  -26.7660 C   0  0  0  0  0  0  0  0  0  0  0  0
   -3.7960   23.9410  -29.8050 C   0  0  0  0  0  0  0  0  0  0  0  0
   -4.9890   23.2500  -29.7170 C   0  0  0  0  0  0  0  0  0  0  0  0
   -5.7970   23.8970  -30.6240 C   0  0  0  0  0  0  0  0  0  0  0  0
   -7.2120   23.5520  -30.9480 C   0  0  0  0  0  0  0  0  0  0  0  0
   -5.1190   24.8680  -31.1860 O   0  0  0  0  0  0  0  0  0  0  0  0
   -3.9040   24.9210  -30.7210 N   0  0  0  0  0  0  0  0  0  0  0  0
   -1.3640   21.5590  -29.5310 N   0  0  0  0  0  0  0  0  0  0  0  0
   -3.8980   21.4160  -32.5840 C   0  0  0  0  0  0  0  0  0  0  0  0
   -5.2720   21.2070  -32.7250 C   0  0  0  0  0  0  0  0  0  0  0  0
   -9.8969   19.4977  -31.4418 H   0  0  0  0  0  0  0  0  0  0  0  0
   -9.7538   20.3869  -32.9960 H   0  0  0  0  0  0  0  0  0  0  0  0
   -9.9053   18.5970  -32.9960 H   0  0  0  0  0  0  0  0  0  0  0  0
   -7.6330   20.0320  -34.3820 H   0  0  0  0  0  0  0  0  0  0  0  0
   -5.2116   18.1777  -34.3088 H   0  0  0  0  0  0  0  0  0  0  0  0
   -2.7619   18.5407  -34.0435 H   0  0  0  0  0  0  0  0  0  0  0  0
   -1.3135   18.7280  -32.0053 H   0  0  0  0  0  0  0  0  0  0  0  0
   -0.1537   19.1598  -33.3051 H   0  0  0  0  0  0  0  0  0  0  0  0
    1.2657   19.8137  -31.6652 H   0  0  0  0  0  0  0  0  0  0  0  0
    0.1488   21.1982  -31.3817 H   0  0  0  0  0  0  0  0  0  0  0  0
    0.5493   18.3306  -28.4930 H   0  0  0  0  0  0  0  0  0  0  0  0
   -0.0125   17.4646  -29.9631 H   0  0  0  0  0  0  0  0  0  0  0  0
    1.5810   18.2937  -29.9631 H   0  0  0  0  0  0  0  0  0  0  0  0
   -1.3639   18.6220  -27.8544 H   0  0  0  0  0  0  0  0  0  0  0  0
   -3.0206   19.9199  -26.4961 H   0  0  0  0  0  0  0  0  0  0  0  0
   -0.6697   24.4968  -29.3669 H   0  0  0  0  0  0  0  0  0  0  0  0
   -2.0334   25.6611  -29.1771 H   0  0  0  0  0  0  0  0  0  0  0  0
   -2.8153   26.3468  -27.0154 H   0  0  0  0  0  0  0  0  0  0  0  0
   -2.3288   26.5326  -24.5736 H   0  0  0  0  0  0  0  0  0  0  0  0
   -0.5788   25.0839  -23.5346 H   0  0  0  0  0  0  0  0  0  0  0  0
    0.6897   23.4561  -24.9382 H   0  0  0  0  0  0  0  0  0  0  0  0
    0.2149   23.2716  -27.3812 H   0  0  0  0  0  0  0  0  0  0  0  0
   -5.2340   22.3900  -29.0764 H   0  0  0  0  0  0  0  0  0  0  0  0
   -7.7785   23.4139  -30.0153 H   0  0  0  0  0  0  0  0  0  0  0  0
   -7.6631   24.3665  -31.5338 H   0  0  0  0  0  0  0  0  0  0  0  0
   -7.2376   22.6213  -31.5338 H   0  0  0  0  0  0  0  0  0  0  0  0
   -3.5284   22.3415  -32.1183 H   0  0  0  0  0  0  0  0  0  0  0  0
   -5.9790   21.9563  -32.3394 H   0  0  0  0  0  0  0  0  0  0  0  0
  1  2  1  0
  2  3  2  0
  2  4  1  0
  4  5  1  0
  5  6  2  0
  6  7  1  0
  7  8  2  0
  8  9  1  0
  9 10  1  0
 10 11  1  0
 11 12  1  0
 12 13  1  0
 12 14  1  0
 14 15  2  0
 15 16  1  0
 16 17  2  0
 17 18  1  0
 18 19  1  0
 19 20  1  0
 20 21  1  0
 21 22  2  0
 22 23  1  0
 23 24  2  0
 24 25  1  0
 25 26  2  0
 19 27  1  0
 27 28  1  0
 28 29  2  0
 29 30  1  0
 29 31  1  0
 31 32  1  0
 18 33  2  0
  8 34  1  0
 34 35  2  0
 35  5  1  0
 33 14  1  0
 26 21  1  0
 32 27  2  0
  1 36  1  0
  1 37  1  0
  1 38  1  0
  4 39  1  0
  6 40  1  0
  7 41  1  0
 10 42  1  0
 10 43  1  0
 11 44  1  0
 11 45  1  0
 13 46  1  0
 13 47  1  0
 13 48  1  0
 15 49  1  0
 16 50  1  0
 20 51  1  0
 20 52  1  0
 22 53  1  0
 23 54  1  0
 24 55  1  0
 25 56  1  0
 26 57  1  0
 28 58  1  0
 30 59  1  0
 30 60  1  0
 30 61  1  0
 34 62  1  0
 35 63  1  0
M  END
>  <UniqueID>  (47) 
47

>  <SMILES>  (47) 
CC(=O)Nc1ccc(OCCN(C)c2ccnc(N(Cc3ccccc3)c3cc(C)on3)n2)cc1

>  <Energy>  (47) 
98.85727537874408

>  <Genealogy>  (47) 
CC(=O)Nc1ccc(OCCN(C)c2ccnc(N(Cc3ccccc3)c3cc(C)on3)n2)cc1 (3D coordinates assigned)
CC(=O)Nc1ccc(OCCN(C)c2ccnc(N(Cc3ccccc3)c3cc(C)on3)n2)cc1 (optimized conformer: 98.85727537874408 kcal/mol)

>  <smiles>  (47) 
CC(=O)Nc1ccc(OCCN(C)c2ccnc(N(Cc3ccccc3)c3cc(C)on3)n2)cc1

>  <score_type>  (47) 
oracle

>  <origin>  (47) 
adgpu

>  <m_score__min__energy>  (47) 
-9.7300000000000004

>  <m_primary>  (47) 
energy

$$$$
47:0
     RDKit          3D

 70 73  0  0  0  0  0  0  0  0999 V2000
    0.2100   17.9010  -29.2930 C   0  0  0  0  0  0  0  0  0  0  0  0
    0.2450   19.1010  -28.5270 O   0  0  0  0  0  0  0  0  0  0  0  0
   -0.6720   20.1560  -28.6600 C   0  0  0  0  0  0  0  0  0  0  0  0
   -0.4090   21.2770  -29.4700 C   0  0  0  0  0  0  0  0  0  0  0  0
   -1.3460   22.3070  -29.5800 C   0  0  0  0  0  0  0  0  0  0  0  0
   -2.5470   22.2480  -28.8620 C   0  0  0  0  0  0  0  0  0  0  0  0
   -3.5850   23.3280  -29.0200 C   0  0  0  0  0  0  0  0  0  0  0  0
   -4.3440   23.1130  -30.2570 N   0  0  0  0  0  0  0  0  0  0  0  0
   -4.0090   22.0110  -31.1120 C   0  0  0  0  0  0  0  0  0  0  0  0
   -4.5130   20.7300  -30.8400 C   0  0  0  0  0  0  0  0  0  0  0  0
   -4.1330   19.6420  -31.6330 C   0  0  0  0  0  0  0  0  0  0  0  0
   -3.2410   19.8230  -32.6970 C   0  0  0  0  0  0  0  0  0  0  0  0
   -2.7680   18.4450  -33.6880 S   0  0  0  0  0  0  0  0  0  0  0  0
   -1.6280   18.8350  -34.5870 O   0  0  0  0  0  0  0  0  0  0  0  0
   -2.2900   17.3500  -32.7720 O   0  0  0  0  0  0  0  0  0  0  0  0
   -4.1290   17.8590  -34.6270 N   0  0  0  0  0  0  0  0  0  0  0  0
   -5.3500   18.6820  -34.3870 C   0  0  0  0  0  0  0  0  0  0  0  0
   -6.4940   17.9250  -33.6810 C   0  0  0  0  0  0  0  0  0  0  0  0
   -5.9580   17.0460  -32.5530 C   0  0  0  0  0  0  0  0  0  0  0  0
   -4.9040   16.0460  -33.0570 C   0  0  0  0  0  0  0  0  0  0  0  0
   -4.3400   16.4060  -34.4460 C   0  0  0  0  0  0  0  0  0  0  0  0
   -2.7420   21.1040  -32.9760 C   0  0  0  0  0  0  0  0  0  0  0  0
   -3.1300   22.1930  -32.1910 C   0  0  0  0  0  0  0  0  0  0  0  0
   -5.4900   24.3040  -30.8000 S   0  0  0  0  0  0  0  0  0  0  0  0
   -6.6170   24.4230  -29.8110 O   0  0  0  0  0  0  0  0  0  0  0  0
   -4.8030   25.6350  -30.9370 O   0  0  0  0  0  0  0  0  0  0  0  0
   -6.1690   23.7980  -32.3750 C   0  0  0  0  0  0  0  0  0  0  0  0
   -7.1990   22.7210  -32.1850 C   0  0  0  0  0  0  0  0  0  0  0  0
   -6.9390   21.4080  -32.6140 C   0  0  0  0  0  0  0  0  0  0  0  0
   -7.9040   20.4090  -32.4460 C   0  0  0  0  0  0  0  0  0  0  0  0
   -9.1350   20.7160  -31.8600 C   0  0  0  0  0  0  0  0  0  0  0  0
   -9.4060   22.0240  -31.4450 C   0  0  0  0  0  0  0  0  0  0  0  0
   -8.4440   23.0240  -31.6080 C   0  0  0  0  0  0  0  0  0  0  0  0
   -2.8150   21.1300  -28.0570 C   0  0  0  0  0  0  0  0  0  0  0  0
   -1.8890   20.0740  -27.9650 C   0  0  0  0  0  0  0  0  0  0  0  0
   -2.1500   18.9240  -27.2030 O   0  0  0  0  0  0  0  0  0  0  0  0
   -3.1320   18.8480  -26.1750 C   0  0  0  0  0  0  0  0  0  0  0  0
    0.1847   17.0344  -28.6159 H   0  0  0  0  0  0  0  0  0  0  0  0
   -0.6886   17.8970  -29.9274 H   0  0  0  0  0  0  0  0  0  0  0  0
    1.1069   17.8446  -29.9274 H   0  0  0  0  0  0  0  0  0  0  0  0
    0.5413   21.3422  -30.0202 H   0  0  0  0  0  0  0  0  0  0  0  0
   -1.1398   23.1678  -30.2331 H   0  0  0  0  0  0  0  0  0  0  0  0
   -4.2720   23.3022  -28.1613 H   0  0  0  0  0  0  0  0  0  0  0  0
   -3.0854   24.3069  -29.0668 H   0  0  0  0  0  0  0  0  0  0  0  0
   -5.2087   20.5809  -30.0011 H   0  0  0  0  0  0  0  0  0  0  0  0
   -4.5363   18.6410  -31.4200 H   0  0  0  0  0  0  0  0  0  0  0  0
   -3.8490   17.9940  -35.6260 H   0  0  0  0  0  0  0  0  0  0  0  0
   -5.0687   19.5426  -33.7623 H   0  0  0  0  0  0  0  0  0  0  0  0
   -5.7303   18.9792  -35.3755 H   0  0  0  0  0  0  0  0  0  0  0  0
   -7.2027   18.6546  -33.2621 H   0  0  0  0  0  0  0  0  0  0  0  0
   -6.9937   17.2802  -34.4189 H   0  0  0  0  0  0  0  0  0  0  0  0
   -5.5002   17.6897  -31.7874 H   0  0  0  0  0  0  0  0  0  0  0  0
   -6.8002   16.4733  -32.1374 H   0  0  0  0  0  0  0  0  0  0  0  0
   -4.0723   16.0224  -32.3374 H   0  0  0  0  0  0  0  0  0  0  0  0
   -5.3991   15.0680  -33.1488 H   0  0  0  0  0  0  0  0  0  0  0  0
   -3.3756   15.8932  -34.5761 H   0  0  0  0  0  0  0  0  0  0  0  0
   -5.0803   16.0860  -35.1940 H   0  0  0  0  0  0  0  0  0  0  0  0
   -2.0445   21.2514  -33.8137 H   0  0  0  0  0  0  0  0  0  0  0  0
   -2.7447   23.1976  -32.4198 H   0  0  0  0  0  0  0  0  0  0  0  0
   -6.6385   24.6655  -32.8618 H   0  0  0  0  0  0  0  0  0  0  0  0
   -5.3555   23.4042  -33.0020 H   0  0  0  0  0  0  0  0  0  0  0  0
   -5.9741   21.1652  -33.0831 H   0  0  0  0  0  0  0  0  0  0  0  0
   -7.6935   19.3808  -32.7755 H   0  0  0  0  0  0  0  0  0  0  0  0
   -9.8912   19.9286  -31.7250 H   0  0  0  0  0  0  0  0  0  0  0  0
  -10.3778   22.2656  -30.9897 H   0  0  0  0  0  0  0  0  0  0  0  0
   -8.6619   24.0522  -31.2835 H   0  0  0  0  0  0  0  0  0  0  0  0
   -3.7578   21.0785  -27.4926 H   0  0  0  0  0  0  0  0  0  0  0  0
   -2.6383   18.8862  -25.1928 H   0  0  0  0  0  0  0  0  0  0  0  0
   -3.8275   19.6950  -26.2690 H   0  0  0  0  0  0  0  0  0  0  0  0
   -3.6889   17.9041  -26.2690 H   0  0  0  0  0  0  0  0  0  0  0  0
  1  2  1  0
  2  3  1  0
  3  4  2  0
  4  5  1  0
  5  6  2  0
  6  7  1  0
  7  8  1  0
  8  9  1  0
  9 10  2  0
 10 11  1  0
 11 12  2  0
 12 13  1  0
 13 14  2  0
 13 15  2  0
 13 16  1  0
 16 17  1  0
 17 18  1  0
 18 19  1  0
 19 20  1  0
 20 21  1  0
 12 22  1  0
 22 23  2  0
  8 24  1  0
 24 25  2  0
 24 26  2  0
 24 27  1  0
 27 28  1  0
 28 29  2  0
 29 30  1  0
 30 31  2  0
 31 32  1  0
 32 33  2  0
  6 34  1  0
 34 35  2  0
 35 36  1  0
 36 37  1  0
 35  3  1  0
 23  9  1  0
 33 28  1  0
 21 16  1  0
  1 38  1  0
  1 39  1  0
  1 40  1  0
  4 41  1  0
  5 42  1  0
  7 43  1  0
  7 44  1  0
 10 45  1  0
 11 46  1  0
 16 47  1  0
 17 48  1  0
 17 49  1  0
 18 50  1  0
 18 51  1  0
 19 52  1  0
 19 53  1  0
 20 54  1  0
 20 55  1  0
 21 56  1  0
 21 57  1  0
 22 58  1  0
 23 59  1  0
 27 60  1  0
 27 61  1  0
 29 62  1  0
 30 63  1  0
 31 64  1  0
 32 65  1  0
 33 66  1  0
 34 67  1  0
 37 68  1  0
 37 69  1  0
 37 70  1  0
M  CHG  1  16   1
M  END
>  <UniqueID>  (48) 
48

>  <SMILES>  (48) 
COc1ccc(CN(c2ccc(S(=O)(=O)[NH+]3CCCCC3)cc2)S(=O)(=O)Cc2ccccc2)cc1OC

>  <Energy>  (48) 
76.32618003306537

>  <Genealogy>  (48) 
COc1ccc(CN(c2ccc(S(=O)(=O)[NH+]3CCCCC3)cc2)S(=O)(=O)Cc2ccccc2)cc1OC (protonated)
COc1ccc(CN(c2ccc(S(=O)(=O)[NH+]3CCCCC3)cc2)S(=O)(=O)Cc2ccccc2)cc1OC (3D coordinates assigned)
COc1ccc(CN(c2ccc(S(=O)(=O)[NH+]3CCCCC3)cc2)S(=O)(=O)Cc2ccccc2)cc1OC (nonaromatic ring conformer: 76.32618003306537 kcal/mol)

>  <smiles>  (48) 
COc1ccc(CN(c2ccc(S(=O)(=O)N3CCCCC3)cc2)S(=O)(=O)Cc2ccccc2)cc1OC

>  <score_type>  (48) 
oracle

>  <origin>  (48) 
adgpu

>  <m_score__min__energy>  (48) 
-10.789999999999999

>  <m_primary>  (48) 
energy

$$$$
48:0
     RDKit          3D

 40 42  0  0  0  0  0  0  0  0999 V2000
   -5.6540   26.0800  -30.8430 O   0  0  0  0  0  0  0  0  0  0  0  0
   -4.9210   25.0560  -30.8410 C   0  0  0  0  0  0  0  0  0  0  0  0
   -3.5750   25.1770  -30.3550 N   0  0  0  0  0  0  0  0  0  0  0  0
   -3.0030   24.4680  -29.2450 C   0  0  0  0  0  0  0  0  0  0  0  0
   -3.7450   23.4480  -28.6400 C   0  0  0  0  0  0  0  0  0  0  0  0
   -3.2150   22.7380  -27.5600 C   0  0  0  0  0  0  0  0  0  0  0  0
   -1.9370   23.0370  -27.0840 C   0  0  0  0  0  0  0  0  0  0  0  0
   -1.1650   24.0350  -27.6970 C   0  0  0  0  0  0  0  0  0  0  0  0
    0.4360   24.4140  -27.0350 S   0  0  0  0  0  0  0  0  0  0  0  0
    1.0090   23.1560  -26.4450 O   0  0  0  0  0  0  0  0  0  0  0  0
    1.3170   24.8510  -28.1720 O   0  0  0  0  0  0  0  0  0  0  0  0
    0.4710   25.6820  -25.8240 N   0  0  0  0  0  0  0  0  0  0  0  0
   -0.4340   26.8040  -26.1310 C   0  0  0  0  0  0  0  0  0  0  0  0
   -1.2380   27.1150  -24.8730 C   0  0  0  0  0  0  0  0  0  0  0  0
   -0.5870   26.3110  -23.7680 C   0  0  0  0  0  0  0  0  0  0  0  0
    0.1400   25.1880  -24.4810 C   0  0  0  0  0  0  0  0  0  0  0  0
   -1.7030   24.7400  -28.7850 C   0  0  0  0  0  0  0  0  0  0  0  0
   -5.4540   23.7810  -31.3750 C   0  0  0  0  0  0  0  0  0  0  0  0
   -4.6130   22.8470  -32.0040 C   0  0  0  0  0  0  0  0  0  0  0  0
   -5.1180   21.6720  -32.4650 N   0  0  0  0  0  0  0  0  0  0  0  0
   -6.4360   21.3630  -32.3460 C   0  0  0  0  0  0  0  0  0  0  0  0
   -7.3140   22.2680  -31.7470 C   0  0  0  0  0  0  0  0  0  0  0  0
   -9.1670   21.8430  -31.5740 Br  0  0  0  0  0  0  0  0  0  0  0  0
   -6.8200   23.4840  -31.2670 C   0  0  0  0  0  0  0  0  0  0  0  0
   -4.7495   23.2041  -29.0161 H   0  0  0  0  0  0  0  0  0  0  0  0
   -3.8058   21.9417  -27.0836 H   0  0  0  0  0  0  0  0  0  0  0  0
   -1.5326   22.4860  -26.2221 H   0  0  0  0  0  0  0  0  0  0  0  0
    1.4530   26.0500  -25.7970 H   0  0  0  0  0  0  0  0  0  0  0  0
    0.1519   27.6864  -26.4278 H   0  0  0  0  0  0  0  0  0  0  0  0
   -1.1066   26.5382  -26.9598 H   0  0  0  0  0  0  0  0  0  0  0  0
   -1.1930   28.1900  -24.6440 H   0  0  0  0  0  0  0  0  0  0  0  0
   -2.3005   26.8572  -24.9936 H   0  0  0  0  0  0  0  0  0  0  0  0
    0.1219   26.9334  -23.2023 H   0  0  0  0  0  0  0  0  0  0  0  0
   -1.3218   25.9338  -23.0415 H   0  0  0  0  0  0  0  0  0  0  0  0
    1.0593   24.9263  -23.9366 H   0  0  0  0  0  0  0  0  0  0  0  0
   -0.4857   24.2850  -24.5358 H   0  0  0  0  0  0  0  0  0  0  0  0
   -1.1006   25.5139  -29.2831 H   0  0  0  0  0  0  0  0  0  0  0  0
   -3.5420   23.0676  -32.1238 H   0  0  0  0  0  0  0  0  0  0  0  0
   -6.8111   20.3996  -32.7217 H   0  0  0  0  0  0  0  0  0  0  0  0
   -7.5044   24.2097  -30.8034 H   0  0  0  0  0  0  0  0  0  0  0  0
  1  2  2  0
  2  3  1  0
  3  4  1  0
  4  5  2  0
  5  6  1  0
  6  7  2  0
  7  8  1  0
  8  9  1  0
  9 10  2  0
  9 11  2  0
  9 12  1  0
 12 13  1  0
 13 14  1  0
 14 15  1  0
 15 16  1  0
  8 17  2  0
  2 18  1  0
 18 19  2  0
 19 20  1  0
 20 21  2  0
 21 22  1  0
 22 23  1  0
 22 24  2  0
 17  4  1  0
 24 18  1  0
 16 12  1  0
  5 25  1  0
  6 26  1  0
  7 27  1  0
 12 28  1  0
 13 29  1  0
 13 30  1  0
 14 31  1  0
 14 32  1  0
 15 33  1  0
 15 34  1  0
 16 35  1  0
 16 36  1  0
 17 37  1  0
 19 38  1  0
 21 39  1  0
 24 40  1  0
M  CHG  2   3  -1  12   1
M  END
>  <UniqueID>  (49) 
49

>  <SMILES>  (49) 
O=C([N-]c1cccc(S(=O)(=O)[NH+]2CCCC2)c1)c1cncc(Br)c1

>  <Energy>  (49) 
50.07892241265253

>  <Genealogy>  (49) 
O=C([N-]c1cccc(S(=O)(=O)[NH+]2CCCC2)c1)c1cncc(Br)c1 (protonated)
O=C([N-]c1cccc(S(=O)(=O)[NH+]2CCCC2)c1)c1cncc(Br)c1 (3D coordinates assigned)
O=C([N-]c1cccc(S(=O)(=O)[NH+]2CCCC2)c1)c1cncc(Br)c1 (nonaromatic ring conformer: 50.07892241265253 kcal/mol)

>  <smiles>  (49) 
O=C(Nc1cccc(S(=O)(=O)N2CCCC2)c1)c1cncc(Br)c1

>  <score_type>  (49) 
oracle

>  <origin>  (49) 
adgpu

>  <m_score__min__energy>  (49) 
-10.029999999999999

>  <m_primary>  (49) 
energy

$$$$
49:0
     RDKit          3D

 61 63  0  0  0  0  0  0  0  0999 V2000
   -1.2210   26.5650  -24.5980 C   0  0  0  0  0  0  0  0  0  0  0  0
   -1.3240   26.4190  -26.1120 C   0  0  0  0  0  0  0  0  0  0  0  0
   -1.1760   25.0020  -26.5050 N   0  0  0  0  0  0  0  0  0  0  0  0
   -0.1780   24.2760  -25.6890 C   0  0  0  0  0  0  0  0  0  0  0  0
   -0.4790   22.7800  -25.5190 C   0  0  0  0  0  0  0  0  0  0  0  0
   -0.8790   24.8160  -28.2220 S   0  0  0  0  0  0  0  0  0  0  0  0
   -1.2400   26.0780  -28.9540 O   0  0  0  0  0  0  0  0  0  0  0  0
    0.5750   24.5200  -28.4670 O   0  0  0  0  0  0  0  0  0  0  0  0
   -1.8220   23.4690  -28.8500 C   0  0  0  0  0  0  0  0  0  0  0  0
   -1.2250   22.2240  -29.0870 C   0  0  0  0  0  0  0  0  0  0  0  0
   -1.9810   21.1720  -29.6090 C   0  0  0  0  0  0  0  0  0  0  0  0
   -3.3370   21.3560  -29.8900 C   0  0  0  0  0  0  0  0  0  0  0  0
   -3.9540   22.5910  -29.6400 C   0  0  0  0  0  0  0  0  0  0  0  0
   -5.3440   22.7600  -29.9670 N   0  0  0  0  0  0  0  0  0  0  0  0
   -5.8560   23.7830  -30.8340 C   0  0  0  0  0  0  0  0  0  0  0  0
   -5.1080   24.7090  -31.2490 O   0  0  0  0  0  0  0  0  0  0  0  0
   -7.3160   23.8130  -31.1750 C   0  0  0  0  0  0  0  0  0  0  0  0
   -7.7530   22.4690  -31.6870 C   0  0  0  0  0  0  0  0  0  0  0  0
   -9.0860   22.0520  -31.5420 C   0  0  0  0  0  0  0  0  0  0  0  0
   -9.4800   20.7870  -31.9840 C   0  0  0  0  0  0  0  0  0  0  0  0
   -8.5470   19.9240  -32.5640 C   0  0  0  0  0  0  0  0  0  0  0  0
   -7.2110   20.3240  -32.7110 C   0  0  0  0  0  0  0  0  0  0  0  0
   -6.0210   19.2170  -33.4040 S   0  0  0  0  0  0  0  0  0  0  0  0
   -6.1200   19.2680  -34.9030 O   0  0  0  0  0  0  0  0  0  0  0  0
   -6.3450   17.8150  -32.9640 O   0  0  0  0  0  0  0  0  0  0  0  0
   -4.3820   19.5950  -32.9310 N   0  0  0  0  0  0  0  0  0  0  0  0
   -4.0150   20.9710  -33.2610 C   0  0  0  0  0  0  0  0  0  0  0  0
   -2.5030   20.9850  -33.4500 C   0  0  0  0  0  0  0  0  0  0  0  0
   -2.0990   19.5270  -33.6020 C   0  0  0  0  0  0  0  0  0  0  0  0
   -3.4060   18.7530  -33.6150 C   0  0  0  0  0  0  0  0  0  0  0  0
   -6.8190   21.5950  -32.2670 C   0  0  0  0  0  0  0  0  0  0  0  0
   -3.1820   23.6530  -29.1360 C   0  0  0  0  0  0  0  0  0  0  0  0
   -1.7900   25.7585  -24.1123 H   0  0  0  0  0  0  0  0  0  0  0  0
   -0.1655   26.5032  -24.2946 H   0  0  0  0  0  0  0  0  0  0  0  0
   -1.6333   27.5387  -24.2946 H   0  0  0  0  0  0  0  0  0  0  0  0
   -2.3056   26.7868  -26.4455 H   0  0  0  0  0  0  0  0  0  0  0  0
   -0.5206   27.0051  -26.5821 H   0  0  0  0  0  0  0  0  0  0  0  0
    0.8046   24.3783  -26.1727 H   0  0  0  0  0  0  0  0  0  0  0  0
   -0.2039   24.7219  -24.6838 H   0  0  0  0  0  0  0  0  0  0  0  0
   -0.5282   22.5353  -24.4477 H   0  0  0  0  0  0  0  0  0  0  0  0
   -1.4427   22.5436  -25.9938 H   0  0  0  0  0  0  0  0  0  0  0  0
    0.3183   22.1893  -25.9938 H   0  0  0  0  0  0  0  0  0  0  0  0
   -0.1588   22.0747  -28.8615 H   0  0  0  0  0  0  0  0  0  0  0  0
   -1.5080   20.1972  -29.7991 H   0  0  0  0  0  0  0  0  0  0  0  0
   -3.9251   20.5268  -30.3102 H   0  0  0  0  0  0  0  0  0  0  0  0
   -6.0360   22.1570  -29.4660 H   0  0  0  0  0  0  0  0  0  0  0  0
   -7.8951   24.0655  -30.2745 H   0  0  0  0  0  0  0  0  0  0  0  0
   -7.4889   24.5696  -31.9546 H   0  0  0  0  0  0  0  0  0  0  0  0
   -9.8229   22.7243  -31.0784 H   0  0  0  0  0  0  0  0  0  0  0  0
  -10.5275   20.4695  -31.8751 H   0  0  0  0  0  0  0  0  0  0  0  0
   -8.8615   18.9271  -32.9066 H   0  0  0  0  0  0  0  0  0  0  0  0
   -4.5163   21.2855  -34.1882 H   0  0  0  0  0  0  0  0  0  0  0  0
   -4.3217   21.6652  -32.4647 H   0  0  0  0  0  0  0  0  0  0  0  0
   -2.2336   21.5546  -34.3517 H   0  0  0  0  0  0  0  0  0  0  0  0
   -1.9903   21.4643  -32.6030 H   0  0  0  0  0  0  0  0  0  0  0  0
   -1.5506   19.3744  -34.5432 H   0  0  0  0  0  0  0  0  0  0  0  0
   -1.4331   19.1973  -32.7909 H   0  0  0  0  0  0  0  0  0  0  0  0
   -3.7259   18.5614  -34.6499 H   0  0  0  0  0  0  0  0  0  0  0  0
   -3.2998   17.7769  -33.1191 H   0  0  0  0  0  0  0  0  0  0  0  0
   -5.7706   21.9104  -32.3739 H   0  0  0  0  0  0  0  0  0  0  0  0
   -3.6484   24.6345  -28.9651 H   0  0  0  0  0  0  0  0  0  0  0  0
  1  2  1  0
  2  3  1  0
  3  4  1  0
  4  5  1  0
  3  6  1  0
  6  7  2  0
  6  8  2  0
  6  9  1  0
  9 10  2  0
 10 11  1  0
 11 12  2  0
 12 13  1  0
 13 14  1  0
 14 15  1  0
 15 16  2  0
 15 17  1  0
 17 18  1  0
 18 19  2  0
 19 20  1  0
 20 21  2  0
 21 22  1  0
 22 23  1  0
 23 24  2  0
 23 25  2  0
 23 26  1  0
 26 27  1  0
 27 28  1  0
 28 29  1  0
 29 30  1  0
 22 31  2  0
 13 32  2  0
 32  9  1  0
 31 18  1  0
 30 26  1  0
  1 33  1  0
  1 34  1  0
  1 35  1  0
  2 36  1  0
  2 37  1  0
  4 38  1  0
  4 39  1  0
  5 40  1  0
  5 41  1  0
  5 42  1  0
 10 43  1  0
 11 44  1  0
 12 45  1  0
 14 46  1  0
 17 47  1  0
 17 48  1  0
 19 49  1  0
 20 50  1  0
 21 51  1  0
 27 52  1  0
 27 53  1  0
 28 54  1  0
 28 55  1  0
 29 56  1  0
 29 57  1  0
 30 58  1  0
 30 59  1  0
 31 60  1  0
 32 61  1  0
M  END
>  <UniqueID>  (50) 
50

>  <SMILES>  (50) 
CCN(CC)S(=O)(=O)c1cccc(NC(=O)Cc2cccc(S(=O)(=O)N3CCCC3)c2)c1

>  <Energy>  (50) 
62.741021721634446

>  <Genealogy>  (50) 
CCN(CC)S(=O)(=O)c1cccc(NC(=O)Cc2cccc(S(=O)(=O)N3CCCC3)c2)c1 (3D coordinates assigned)
CCN(CC)S(=O)(=O)c1cccc(NC(=O)Cc2cccc(S(=O)(=O)N3CCCC3)c2)c1 (nonaromatic ring conformer: 62.741021721634446 kcal/mol)

>  <smiles>  (50) 
CCN(CC)S(=O)(=O)c1cccc(NC(=O)Cc2cccc(S(=O)(=O)N3CCCC3)c2)c1

>  <score_type>  (50) 
oracle

>  <origin>  (50) 
adgpu

>  <m_score__min__energy>  (50) 
-11.08

>  <m_primary>  (50) 
energy

$$$$
