0:0
     RDKit          3D

 33 33  0  0  0  0  0  0  0  0999 V2000
   -8.7280   18.7960  -31.8960 C   0  0  0  0  0  0  0  0  0  0  0  0
   -9.1830   20.1750  -32.3360 C   0  0  0  0  0  0  0  0  0  0  0  0
   -9.0580   21.1530  -31.1830 C   0  0  0  0  0  0  0  0  0  0  0  0
   -8.7070   22.5390  -31.6930 C   0  0  0  0  0  0  0  0  0  0  0  0
   -7.2120   22.6470  -31.8370 C   0  0  0  0  0  0  0  0  0  0  0  0
   -6.5250   23.7630  -31.3950 C   0  0  0  0  0  0  0  0  0  0  0  0
   -5.1510   23.7980  -31.5580 C   0  0  0  0  0  0  0  0  0  0  0  0
   -4.5440   24.8630  -31.1300 N   0  0  0  0  0  0  0  0  0  0  0  0
   -4.4770   22.7750  -32.1340 N   0  0  0  0  0  0  0  0  0  0  0  0
   -5.1510   21.7040  -32.5560 C   0  0  0  0  0  0  0  0  0  0  0  0
   -4.5210   20.5260  -33.2010 C   0  0  0  0  0  0  0  0  0  0  0  0
   -5.3320   19.2780  -33.0100 C   0  0  0  0  0  0  0  0  0  0  0  0
   -6.0960   18.9550  -34.2690 C   0  0  0  0  0  0  0  0  0  0  0  0
   -6.4960   21.6580  -32.4020 N   0  0  0  0  0  0  0  0  0  0  0  0
   -8.7123   18.7484  -30.7971 H   0  0  0  0  0  0  0  0  0  0  0  0
   -9.4238   18.0385  -32.2859 H   0  0  0  0  0  0  0  0  0  0  0  0
   -7.7180   18.6014  -32.2859 H   0  0  0  0  0  0  0  0  0  0  0  0
   -8.5560   20.5160  -33.1730 H   0  0  0  0  0  0  0  0  0  0  0  0
  -10.2344   20.1244  -32.6552 H   0  0  0  0  0  0  0  0  0  0  0  0
  -10.0149   21.1985  -30.6423 H   0  0  0  0  0  0  0  0  0  0  0  0
   -8.2573   20.8091  -30.5118 H   0  0  0  0  0  0  0  0  0  0  0  0
   -9.1840   22.7036  -32.6704 H   0  0  0  0  0  0  0  0  0  0  0  0
   -9.0666   23.2975  -30.9822 H   0  0  0  0  0  0  0  0  0  0  0  0
   -7.0579   24.6028  -30.9251 H   0  0  0  0  0  0  0  0  0  0  0  0
   -3.5010   24.9220  -31.2390 H   0  0  0  0  0  0  0  0  0  0  0  0
   -3.4570   22.8150  -32.2490 H   0  0  0  0  0  0  0  0  0  0  0  0
   -4.4209   20.7227  -34.2786 H   0  0  0  0  0  0  0  0  0  0  0  0
   -3.5388   20.3673  -32.7318 H   0  0  0  0  0  0  0  0  0  0  0  0
   -4.6599   18.4415  -32.7683 H   0  0  0  0  0  0  0  0  0  0  0  0
   -6.0457   19.4363  -32.1880 H   0  0  0  0  0  0  0  0  0  0  0  0
   -7.0795   18.5392  -34.0046 H   0  0  0  0  0  0  0  0  0  0  0  0
   -6.2327   19.8723  -34.8605 H   0  0  0  0  0  0  0  0  0  0  0  0
   -5.5332   18.2178  -34.8605 H   0  0  0  0  0  0  0  0  0  0  0  0
  1  2  1  0
  2  3  1  0
  3  4  1  0
  4  5  1  0
  5  6  2  0
  6  7  1  0
  7  8  2  3
  7  9  1  0
  9 10  1  0
 10 11  1  0
 11 12  1  0
 12 13  1  0
 10 14  2  0
 14  5  1  0
  1 15  1  0
  1 16  1  0
  1 17  1  0
  2 18  1  0
  2 19  1  0
  3 20  1  0
  3 21  1  0
  4 22  1  0
  4 23  1  0
  6 24  1  0
  8 25  1  0
  9 26  1  0
 11 27  1  0
 11 28  1  0
 12 29  1  0
 12 30  1  0
 13 31  1  0
 13 32  1  0
 13 33  1  0
M  END
>  <smiles>  (1) 
CCCCc1cc(=N)[nH]c(CCC)n1

>  <score_type>  (1) 
oracle

>  <origin>  (1) 
adgpu

>  <m_score__min__energy>  (1) 
-6.1100000000000003

>  <m_primary>  (1) 
energy

$$$$
1:0
     RDKit          3D

 46 48  0  0  0  0  0  0  0  0999 V2000
   -5.4596   19.6605  -34.5585 H   0  0  0  0  0  0  0  0  0  0  0  0
   -5.8820   20.0630  -33.6260 C   0  0  0  0  0  0  0  0  0  0  0  0
   -7.0380   19.5540  -33.1380 N   0  0  0  0  0  0  0  0  0  0  0  0
   -7.5760   20.0230  -31.9830 C   0  0  0  0  0  0  0  0  0  0  0  0
   -8.8540   19.4540  -31.4760 C   0  0  0  0  0  0  0  0  0  0  0  0
   -8.8461   19.4575  -30.3760 H   0  0  0  0  0  0  0  0  0  0  0  0
   -9.6956   20.0624  -31.8386 H   0  0  0  0  0  0  0  0  0  0  0  0
   -8.9650   18.4214  -31.8386 H   0  0  0  0  0  0  0  0  0  0  0  0
   -6.9670   21.0360  -31.3150 N   0  0  0  0  0  0  0  0  0  0  0  0
   -5.8110   21.5930  -31.7630 C   0  0  0  0  0  0  0  0  0  0  0  0
   -5.2200   22.6880  -30.9690 C   0  0  0  0  0  0  0  0  0  0  0  0
   -5.9270   23.8810  -30.7990 C   0  0  0  0  0  0  0  0  0  0  0  0
   -6.9319   23.9960  -31.2313 H   0  0  0  0  0  0  0  0  0  0  0  0
   -5.3490   24.9250  -30.0770 C   0  0  0  0  0  0  0  0  0  0  0  0
   -5.9057   25.8628  -29.9336 H   0  0  0  0  0  0  0  0  0  0  0  0
   -4.1030   24.7930  -29.5490 N   0  0  0  0  0  0  0  0  0  0  0  0
   -3.7300   25.6000  -29.0060 H   0  0  0  0  0  0  0  0  0  0  0  0
   -3.3680   23.6480  -29.7290 C   0  0  0  0  0  0  0  0  0  0  0  0
   -2.1670   23.5110  -29.2480 N   0  0  0  0  0  0  0  0  0  0  0  0
   -1.2690   24.6820  -28.3290 S   0  0  0  0  0  0  0  0  0  0  0  0
    0.2070   24.4610  -28.5100 O   0  0  0  0  0  0  0  0  0  0  0  0
   -1.6170   26.0510  -28.8380 O   0  0  0  0  0  0  0  0  0  0  0  0
   -1.7080   24.5940  -26.6030 C   0  0  0  0  0  0  0  0  0  0  0  0
   -0.8140   24.7732  -25.9877 H   0  0  0  0  0  0  0  0  0  0  0  0
   -2.4669   25.3579  -26.3783 H   0  0  0  0  0  0  0  0  0  0  0  0
   -2.1139   23.5966  -26.3783 H   0  0  0  0  0  0  0  0  0  0  0  0
   -3.9200   22.5850  -30.4550 C   0  0  0  0  0  0  0  0  0  0  0  0
   -3.3335   21.6695  -30.6218 H   0  0  0  0  0  0  0  0  0  0  0  0
   -5.2180   21.1000  -32.9520 C   0  0  0  0  0  0  0  0  0  0  0  0
   -3.8600   21.5380  -33.4540 C   0  0  0  0  0  0  0  0  0  0  0  0
   -3.6240   22.5308  -33.0434 H   0  0  0  0  0  0  0  0  0  0  0  0
   -3.8808   21.5806  -34.5530 H   0  0  0  0  0  0  0  0  0  0  0  0
   -2.8030   20.5570  -33.0210 C   0  0  0  0  0  0  0  0  0  0  0  0
   -2.7950   19.2500  -33.5330 C   0  0  0  0  0  0  0  0  0  0  0  0
   -3.5456   18.9483  -34.2783 H   0  0  0  0  0  0  0  0  0  0  0  0
   -1.8350   18.3300  -33.0980 C   0  0  0  0  0  0  0  0  0  0  0  0
   -1.8295   17.3093  -33.5079 H   0  0  0  0  0  0  0  0  0  0  0  0
   -0.8830   18.7020  -32.1450 C   0  0  0  0  0  0  0  0  0  0  0  0
   -0.1346   17.9718  -31.8033 H   0  0  0  0  0  0  0  0  0  0  0  0
   -0.8790   20.0060  -31.6220 C   0  0  0  0  0  0  0  0  0  0  0  0
    0.1070   20.4050  -30.5670 C   0  0  0  0  0  0  0  0  0  0  0  0
   -0.3287   20.2287  -29.5725 H   0  0  0  0  0  0  0  0  0  0  0  0
    1.0237   19.8071  -30.6770 H   0  0  0  0  0  0  0  0  0  0  0  0
    0.3499   21.4722  -30.6770 H   0  0  0  0  0  0  0  0  0  0  0  0
   -1.8430   20.9280  -32.0590 C   0  0  0  0  0  0  0  0  0  0  0  0
   -1.8489   21.9480  -31.6472 H   0  0  0  0  0  0  0  0  0  0  0  0
  1  2  1  0
  2  3  2  0
  3  4  1  0
  4  5  1  0
  5  6  1  0
  5  7  1  0
  5  8  1  0
  4  9  2  0
  9 10  1  0
 10 11  1  0
 11 12  1  0
 12 13  1  0
 12 14  2  0
 14 15  1  0
 14 16  1  0
 16 17  1  0
 16 18  1  0
 18 19  2  0
 19 20  1  0
 20 21  2  0
 20 22  2  0
 20 23  1  0
 23 24  1  0
 23 25  1  0
 23 26  1  0
 18 27  1  0
 27 28  1  0
 10 29  2  0
 29 30  1  0
 30 31  1  0
 30 32  1  0
 30 33  1  0
 33 34  2  0
 34 35  1  0
 34 36  1  0
 36 37  1  0
 36 38  2  0
 38 39  1  0
 38 40  1  0
 40 41  1  0
 41 42  1  0
 41 43  1  0
 41 44  1  0
 40 45  2  0
 45 46  1  0
 29  2  1  0
 45 33  1  0
 27 11  2  0
M  END
>  <UniqueID>  (2) 
1

>  <SMILES>  (2) 
Cc1cccc(Cc2cnc(C)nc2-c2cc[nH]/c(=N\S(C)(=O)=O)c2)c1

>  <Energy>  (2) 
54.107319158012835

>  <Genealogy>  (2) 
Cc1cccc(Cc2cnc(C)nc2-c2cc[nH]/c(=N\S(C)(=O)=O)c2)c1 (cis-trans isomerization)
Cc1cccc(Cc2cnc(C)nc2-c2cc[nH]/c(=N\S(C)(=O)=O)c2)c1 (3D coordinates assigned)
Cc1cccc(Cc2cnc(C)nc2-c2cc[nH]/c(=N\S(C)(=O)=O)c2)c1 (optimized conformer: 54.107319158012835 kcal/mol)

>  <smiles>  (2) 
Cc1cccc(Cc2cnc(C)nc2-c2cc[nH]c(=NS(C)(=O)=O)c2)c1

>  <score_type>  (2) 
oracle

>  <origin>  (2) 
adgpu

>  <m_score__min__energy>  (2) 
-9.3300000000000001

>  <m_primary>  (2) 
energy

$$$$
2:0
     RDKit          3D

 53 56  0  0  0  0  0  0  0  0999 V2000
   -6.9288   24.1493  -29.8585 H   0  0  0  0  0  0  0  0  0  0  0  0
   -6.1370   24.1580  -30.6220 C   0  0  0  0  0  0  0  0  0  0  0  0
   -5.1010   25.2150  -30.5590 C   0  0  0  0  0  0  0  0  0  0  0  0
   -5.4710   26.4150  -30.5480 O   0  0  0  0  0  0  0  0  0  0  0  0
   -3.6960   24.9280  -30.5310 N   0  0  0  0  0  0  0  0  0  0  0  0
   -3.0630   23.6560  -30.3140 C   0  0  0  0  0  0  0  0  0  0  0  0
   -2.7800   23.2580  -29.0020 C   0  0  0  0  0  0  0  0  0  0  0  0
   -3.0807   23.8987  -28.1600 H   0  0  0  0  0  0  0  0  0  0  0  0
   -2.1190   22.0540  -28.7550 C   0  0  0  0  0  0  0  0  0  0  0  0
   -1.8889   21.7556  -27.7215 H   0  0  0  0  0  0  0  0  0  0  0  0
   -1.7490   21.2270  -29.8190 C   0  0  0  0  0  0  0  0  0  0  0  0
   -1.2090   20.2897  -29.6193 H   0  0  0  0  0  0  0  0  0  0  0  0
   -2.0610   21.5830  -31.1410 C   0  0  0  0  0  0  0  0  0  0  0  0
   -1.6110   20.7360  -32.2200 N   0  0  0  0  0  0  0  0  0  0  0  0
   -0.7810   21.0540  -32.7750 H   0  0  0  0  0  0  0  0  0  0  0  0
   -2.3290   19.5950  -32.7160 C   0  0  0  0  0  0  0  0  0  0  0  0
   -1.6990   18.3450  -32.7490 C   0  0  0  0  0  0  0  0  0  0  0  0
   -0.6766   18.2377  -32.3577 H   0  0  0  0  0  0  0  0  0  0  0  0
   -2.3600   17.2350  -33.2750 C   0  0  0  0  0  0  0  0  0  0  0  0
   -1.8527   16.2593  -33.2997 H   0  0  0  0  0  0  0  0  0  0  0  0
   -3.6720   17.3530  -33.7750 C   0  0  0  0  0  0  0  0  0  0  0  0
   -4.3380   18.6010  -33.6780 C   0  0  0  0  0  0  0  0  0  0  0  0
   -3.6620   19.7070  -33.1370 C   0  0  0  0  0  0  0  0  0  0  0  0
   -4.1835   20.6709  -33.0426 H   0  0  0  0  0  0  0  0  0  0  0  0
   -5.7600   18.7680  -34.1530 C   0  0  0  0  0  0  0  0  0  0  0  0
   -6.0882   19.7954  -33.9367 H   0  0  0  0  0  0  0  0  0  0  0  0
   -5.7836   18.5616  -35.2332 H   0  0  0  0  0  0  0  0  0  0  0  0
   -6.7180   17.7850  -33.4610 C   0  0  0  0  0  0  0  0  0  0  0  0
   -6.3680   17.6316  -32.4295 H   0  0  0  0  0  0  0  0  0  0  0  0
   -7.7204   18.2352  -33.5103 H   0  0  0  0  0  0  0  0  0  0  0  0
   -6.8190   16.4080  -34.1460 C   0  0  0  0  0  0  0  0  0  0  0  0
   -7.6948   15.8795  -33.7413 H   0  0  0  0  0  0  0  0  0  0  0  0
   -6.9079   16.5866  -35.2278 H   0  0  0  0  0  0  0  0  0  0  0  0
   -5.5740   15.5300  -33.9280 C   0  0  0  0  0  0  0  0  0  0  0  0
   -5.4690   15.3338  -32.8507 H   0  0  0  0  0  0  0  0  0  0  0  0
   -5.7218   14.6048  -34.5043 H   0  0  0  0  0  0  0  0  0  0  0  0
   -4.2990   16.1700  -34.4260 C   0  0  0  0  0  0  0  0  0  0  0  0
   -3.7580   15.6810  -35.4550 O   0  0  0  0  0  0  0  0  0  0  0  0
   -2.7260   22.8010  -31.3800 C   0  0  0  0  0  0  0  0  0  0  0  0
   -2.9847   23.0871  -32.4102 H   0  0  0  0  0  0  0  0  0  0  0  0
   -6.1490   23.2120  -31.5710 C   0  0  0  0  0  0  0  0  0  0  0  0
   -5.3712   23.2453  -32.3481 H   0  0  0  0  0  0  0  0  0  0  0  0
   -7.1550   22.1210  -31.6310 C   0  0  0  0  0  0  0  0  0  0  0  0
   -6.8060   20.7590  -31.5160 C   0  0  0  0  0  0  0  0  0  0  0  0
   -5.7551   20.4736  -31.3605 H   0  0  0  0  0  0  0  0  0  0  0  0
   -7.7910   19.7710  -31.5990 C   0  0  0  0  0  0  0  0  0  0  0  0
   -7.5137   18.7110  -31.5017 H   0  0  0  0  0  0  0  0  0  0  0  0
   -9.1260   20.1250  -31.8050 C   0  0  0  0  0  0  0  0  0  0  0  0
   -9.8993   19.3446  -31.8593 H   0  0  0  0  0  0  0  0  0  0  0  0
   -9.4800   21.4680  -31.9420 C   0  0  0  0  0  0  0  0  0  0  0  0
  -10.5307   21.7442  -32.1147 H   0  0  0  0  0  0  0  0  0  0  0  0
   -8.5010   22.4630  -31.8600 C   0  0  0  0  0  0  0  0  0  0  0  0
   -8.7845   23.5196  -31.9752 H   0  0  0  0  0  0  0  0  0  0  0  0
  1  2  1  0
  2  3  1  0
  3  4  2  0
  3  5  1  0
  5  6  1  0
  6  7  2  0
  7  8  1  0
  7  9  1  0
  9 10  1  0
  9 11  2  0
 11 12  1  0
 11 13  1  0
 13 14  1  0
 14 15  1  0
 14 16  1  0
 16 17  2  0
 17 18  1  0
 17 19  1  0
 19 20  1  0
 19 21  2  0
 21 22  1  0
 22 23  2  0
 23 24  1  0
 22 25  1  0
 25 26  1  0
 25 27  1  0
 25 28  1  0
 28 29  1  0
 28 30  1  0
 28 31  1  0
 31 32  1  0
 31 33  1  0
 31 34  1  0
 34 35  1  0
 34 36  1  0
 34 37  1  0
 37 38  2  0
 13 39  2  0
 39 40  1  0
  2 41  2  0
 41 42  1  0
 41 43  1  0
 43 44  2  0
 44 45  1  0
 44 46  1  0
 46 47  1  0
 46 48  2  0
 48 49  1  0
 48 50  1  0
 50 51  1  0
 50 52  2  0
 52 53  1  0
 39  6  1  0
 52 43  1  0
 23 16  1  0
 37 21  1  0
M  CHG  1   5  -1
M  END
>  <UniqueID>  (3) 
2

>  <SMILES>  (3) 
O=C(/C=C/c1ccccc1)[N-]c1cccc(Nc2ccc3c(c2)CCCCC3=O)c1

>  <Energy>  (3) 
74.24633189704016

>  <Genealogy>  (3) 
O=C(C=Cc1ccccc1)[N-]c1cccc(Nc2ccc3c(c2)CCCCC3=O)c1 (protonated)
O=C(/C=C/c1ccccc1)[N-]c1cccc(Nc2ccc3c(c2)CCCCC3=O)c1 (cis-trans isomerization)
O=C(/C=C/c1ccccc1)[N-]c1cccc(Nc2ccc3c(c2)CCCCC3=O)c1 (3D coordinates assigned)
O=C(/C=C/c1ccccc1)[N-]c1cccc(Nc2ccc3c(c2)CCCCC3=O)c1 (nonaromatic ring conformer: 74.24633189704016 kcal/mol)

>  <smiles>  (3) 
O=C(C=Cc1ccccc1)Nc1cccc(Nc2ccc3c(c2)CCCCC3=O)c1

>  <score_type>  (3) 
oracle

>  <origin>  (3) 
adgpu

>  <m_score__min__energy>  (3) 
-10.119999999999999

>  <m_primary>  (3) 
energy

$$$$
3:0
     RDKit          3D

 41 43  0  0  0  0  0  0  0  0999 V2000
    0.6089   25.6433  -26.4094 H   0  0  0  0  0  0  0  0  0  0  0  0
   -0.2770   25.3070  -26.9680 C   0  0  0  0  0  0  0  0  0  0  0  0
   -0.1520   24.9040  -28.2590 N   0  0  0  0  0  0  0  0  0  0  0  0
   -1.2220   24.4810  -28.9840 C   0  0  0  0  0  0  0  0  0  0  0  0
   -1.0846   24.1624  -30.0279 H   0  0  0  0  0  0  0  0  0  0  0  0
   -2.5040   24.4490  -28.4050 C   0  0  0  0  0  0  0  0  0  0  0  0
   -3.6820   23.9870  -29.1820 C   0  0  0  0  0  0  0  0  0  0  0  0
   -4.9430   24.5500  -28.9530 C   0  0  0  0  0  0  0  0  0  0  0  0
   -5.0721   25.3222  -28.1803 H   0  0  0  0  0  0  0  0  0  0  0  0
   -6.0300   24.1280  -29.7070 C   0  0  0  0  0  0  0  0  0  0  0  0
   -7.0178   24.5815  -29.5379 H   0  0  0  0  0  0  0  0  0  0  0  0
   -5.8830   23.1300  -30.6820 C   0  0  0  0  0  0  0  0  0  0  0  0
   -7.0120   22.9300  -31.6130 C   0  0  0  0  0  0  0  0  0  0  0  0
   -6.9150   23.3180  -32.8100 O   0  0  0  0  0  0  0  0  0  0  0  0
   -8.1600   22.2560  -31.1820 O   0  0  0  0  0  0  0  0  0  0  0  0
   -9.3330   22.1550  -31.9780 C   0  0  0  0  0  0  0  0  0  0  0  0
  -10.2144   22.0791  -31.3242 H   0  0  0  0  0  0  0  0  0  0  0  0
   -9.4233   23.0487  -32.6129 H   0  0  0  0  0  0  0  0  0  0  0  0
   -9.2692   21.2590  -32.6129 H   0  0  0  0  0  0  0  0  0  0  0  0
   -4.6090   22.5020  -30.8210 C   0  0  0  0  0  0  0  0  0  0  0  0
   -4.3870   21.4550  -31.5770 N   0  0  0  0  0  0  0  0  0  0  0  0
   -5.3170   20.5670  -32.2150 C   0  0  0  0  0  0  0  0  0  0  0  0
   -5.0870   20.1730  -33.5390 C   0  0  0  0  0  0  0  0  0  0  0  0
   -4.2159   20.5647  -34.0847 H   0  0  0  0  0  0  0  0  0  0  0  0
   -5.9610   19.2840  -34.1680 C   0  0  0  0  0  0  0  0  0  0  0  0
   -5.7908   18.9970  -35.2162 H   0  0  0  0  0  0  0  0  0  0  0  0
   -7.0510   18.7580  -33.4700 C   0  0  0  0  0  0  0  0  0  0  0  0
   -7.7492   18.0759  -33.9771 H   0  0  0  0  0  0  0  0  0  0  0  0
   -7.2580   19.0970  -32.1240 C   0  0  0  0  0  0  0  0  0  0  0  0
   -8.4410   18.5560  -31.3800 C   0  0  0  0  0  0  0  0  0  0  0  0
   -8.2622   18.6378  -30.2977 H   0  0  0  0  0  0  0  0  0  0  0  0
   -9.3381   19.1333  -31.6481 H   0  0  0  0  0  0  0  0  0  0  0  0
   -8.5911   17.4998  -31.6481 H   0  0  0  0  0  0  0  0  0  0  0  0
   -6.3850   20.0010  -31.4990 C   0  0  0  0  0  0  0  0  0  0  0  0
   -6.5379   20.2678  -30.4428 H   0  0  0  0  0  0  0  0  0  0  0  0
   -3.5520   22.9930  -30.1090 N   0  0  0  0  0  0  0  0  0  0  0  0
   -2.6090   22.5690  -30.2680 H   0  0  0  0  0  0  0  0  0  0  0  0
   -2.6430   24.8640  -27.0710 C   0  0  0  0  0  0  0  0  0  0  0  0
   -3.6336   24.8496  -26.5929 H   0  0  0  0  0  0  0  0  0  0  0  0
   -1.5280   25.2950  -26.3490 C   0  0  0  0  0  0  0  0  0  0  0  0
   -1.6345   25.6214  -25.3040 H   0  0  0  0  0  0  0  0  0  0  0  0
  1  2  1  0
  2  3  2  0
  3  4  1  0
  4  5  1  0
  4  6  2  0
  6  7  1  0
  7  8  2  0
  8  9  1  0
  8 10  1  0
 10 11  1  0
 10 12  2  0
 12 13  1  0
 13 14  2  0
 13 15  1  0
 15 16  1  0
 16 17  1  0
 16 18  1  0
 16 19  1  0
 12 20  1  0
 20 21  2  0
 21 22  1  0
 22 23  2  0
 23 24  1  0
 23 25  1  0
 25 26  1  0
 25 27  2  0
 27 28  1  0
 27 29  1  0
 29 30  1  0
 30 31  1  0
 30 32  1  0
 30 33  1  0
 29 34  2  0
 34 35  1  0
 20 36  1  0
 36 37  1  0
  6 38  1  0
 38 39  1  0
 38 40  2  0
 40 41  1  0
 40  2  1  0
 36  7  1  0
 34 22  1  0
M  END
>  <UniqueID>  (4) 
3

>  <SMILES>  (4) 
COC(=O)c1ccc(-c2cccnc2)[nH]/c1=N/c1cccc(C)c1

>  <Energy>  (4) 
66.26555940395797

>  <Genealogy>  (4) 
COC(=O)c1ccc(-c2cccnc2)[nH]/c1=N/c1cccc(C)c1 (cis-trans isomerization)
COC(=O)c1ccc(-c2cccnc2)[nH]/c1=N/c1cccc(C)c1 (3D coordinates assigned)
COC(=O)c1ccc(-c2cccnc2)[nH]/c1=N/c1cccc(C)c1 (optimized conformer: 66.26555940395797 kcal/mol)

>  <smiles>  (4) 
COC(=O)c1ccc(-c2cccnc2)[nH]c1=Nc1cccc(C)c1

>  <score_type>  (4) 
oracle

>  <origin>  (4) 
adgpu

>  <m_score__min__energy>  (4) 
-7.6799999999999997

>  <m_primary>  (4) 
energy

$$$$
4:0
     RDKit          3D

 54 58  0  0  1  0  0  0  0  0999 V2000
   -3.4390   21.6620  -29.1380 N   0  0  0  0  0  0  0  0  0  0  0  0
   -2.4190   22.0610  -28.5460 C   0  0  0  0  0  0  0  0  0  0  0  0
   -1.7320   20.9870  -28.0180 N   0  0  0  0  0  0  0  0  0  0  0  0
   -0.6220   21.2120  -27.3550 C   0  0  0  0  0  0  0  0  0  0  0  0
   -0.0780   22.4470  -27.1380 C   0  0  0  0  0  0  0  0  0  0  0  0
   -0.7340   23.5270  -27.6470 C   0  0  0  0  0  0  0  0  0  0  0  0
   -0.2080   24.7360  -27.4370 N   0  0  0  0  0  0  0  0  0  0  0  0
   -0.8320   25.8080  -27.9220 C   0  0  0  0  0  0  0  0  0  0  0  0
   -0.3450   26.9550  -27.7290 N   0  0  0  0  0  0  0  0  0  0  0  0
    0.8400   27.3100  -27.0330 C   0  0  0  0  0  0  0  0  0  0  0  0
    0.5010   27.2590  -25.5660 C   0  0  0  0  0  0  0  0  0  0  0  0
   -0.7650   26.9640  -25.1150 C   0  0  0  0  0  0  0  0  0  0  0  0
   -1.0710   26.9200  -23.7730 C   0  0  0  0  0  0  0  0  0  0  0  0
   -0.0840   27.1800  -22.8170 C   0  0  0  0  0  0  0  0  0  0  0  0
    1.1890   27.4790  -23.2470 C   0  0  0  0  0  0  0  0  0  0  0  0
    1.4590   27.5130  -24.5960 C   0  0  0  0  0  0  0  0  0  0  0  0
   -1.9670   25.6190  -28.6030 N   0  0  0  0  0  0  0  0  0  0  0  0
   -2.5270   24.4050  -28.8350 C   0  0  0  0  0  0  0  0  0  0  0  0
   -3.5530   24.3380  -29.4560 N   0  0  0  0  0  0  0  0  0  0  0  0
   -4.4420   23.5010  -29.9230 C   0  0  0  0  0  0  0  0  0  0  0  0
   -4.3190   22.9690  -31.2520 C   0  0  0  0  0  0  0  0  0  0  0  0
   -5.3210   22.2280  -31.7980 C   0  0  0  0  0  0  0  0  0  0  0  0
   -6.4820   21.9610  -31.1080 C   0  0  0  0  0  0  0  0  0  0  0  0
   -7.5490   21.1640  -31.6920 C   0  0  0  0  0  0  0  0  0  0  0  0
   -8.8500   21.5590  -31.7970 C   0  0  0  0  0  0  0  0  0  0  0  0
   -9.8030   20.7430  -32.3620 C   0  0  0  0  0  0  0  0  0  0  0  0
   -9.4800   19.4750  -32.8520 C   0  0  0  0  0  0  0  0  0  0  0  0
   -8.1450   19.0820  -32.7400 C   0  0  0  0  0  0  0  0  0  0  0  0
   -7.2050   19.9150  -32.1710 C   0  0  0  0  0  0  0  0  0  0  0  0
   -6.6360   22.4620  -29.8170 C   0  0  0  0  0  0  0  0  0  0  0  0
   -5.6440   23.2160  -29.2270 C   0  0  0  0  0  0  0  0  0  0  0  0
   -1.9040   23.2900  -28.3460 C   0  0  0  0  0  0  0  0  0  0  0  0
   -3.8470   20.7700  -29.3040 H   0  0  0  0  0  0  0  0  0  0  0  0
   -2.0740   20.0130  -28.1370 H   0  0  0  0  0  0  0  0  0  0  0  0
   -0.0898   20.3418  -26.9432 H   0  0  0  0  0  0  0  0  0  0  0  0
    0.8576   22.5648  -26.5717 H   0  0  0  0  0  0  0  0  0  0  0  0
    0.6750   24.8460  -26.9030 H   0  0  0  0  0  0  0  0  0  0  0  0
    1.6449   26.5963  -27.2628 H   0  0  0  0  0  0  0  0  0  0  0  0
    1.1918   28.3098  -27.3272 H   0  0  0  0  0  0  0  0  0  0  0  0
   -1.5574   26.7568  -25.8493 H   0  0  0  0  0  0  0  0  0  0  0  0
   -2.0953   26.6795  -23.4520 H   0  0  0  0  0  0  0  0  0  0  0  0
   -0.3201   27.1463  -21.7432 H   0  0  0  0  0  0  0  0  0  0  0  0
    1.9849   27.6893  -22.5174 H   0  0  0  0  0  0  0  0  0  0  0  0
    2.4825   27.7528  -24.9200 H   0  0  0  0  0  0  0  0  0  0  0  0
   -2.4200   26.5040  -28.9670 H   0  0  0  0  0  0  0  0  0  0  0  0
   -3.4057   23.1627  -31.8338 H   0  0  0  0  0  0  0  0  0  0  0  0
   -5.2003   21.8320  -32.8171 H   0  0  0  0  0  0  0  0  0  0  0  0
   -9.1437   22.5506  -31.4222 H   0  0  0  0  0  0  0  0  0  0  0  0
  -10.8424   21.0968  -32.4294 H   0  0  0  0  0  0  0  0  0  0  0  0
  -10.2393   18.8194  -33.3033 H   0  0  0  0  0  0  0  0  0  0  0  0
   -7.8385   18.0930  -33.1113 H   0  0  0  0  0  0  0  0  0  0  0  0
   -6.1605   19.5782  -32.0971 H   0  0  0  0  0  0  0  0  0  0  0  0
   -7.5618   22.2531  -29.2609 H   0  0  0  0  0  0  0  0  0  0  0  0
   -5.7864   23.6003  -28.2062 H   0  0  0  0  0  0  0  0  0  0  0  0
  1  2  2  3
  2  3  1  0
  3  4  1  0
  4  5  2  0
  5  6  1  0
  6  7  1  0
  7  8  1  0
  8  9  2  0
  9 10  1  0
 10 11  1  0
 11 12  2  0
 12 13  1  0
 13 14  2  0
 14 15  1  0
 15 16  2  0
  8 17  1  0
 17 18  1  0
 18 19  2  0
 19 20  1  0
 20 21  2  0
 21 22  1  0
 22 23  2  0
 23 24  1  0
 24 25  2  0
 25 26  1  0
 26 27  2  0
 27 28  1  0
 28 29  2  0
 23 30  1  0
 30 31  2  0
 18 32  1  0
 32  2  1  0
 32  6  2  0
 16 11  1  0
 31 20  1  0
 29 24  1  0
  1 33  1  0
  3 34  1  0
  4 35  1  0
  5 36  1  0
  7 37  1  0
 10 38  1  0
 10 39  1  0
 12 40  1  0
 13 41  1  0
 14 42  1  0
 15 43  1  0
 16 44  1  0
 17 45  1  0
 21 46  1  0
 22 47  1  0
 25 48  1  0
 26 49  1  0
 27 50  1  0
 28 51  1  0
 29 52  1  0
 30 53  1  0
 31 54  1  0
M  END
>  <smiles>  (5) 
N=c1[nH]ccc2[nH]c(=NCc3ccccc3)[nH]c(=Nc3ccc(-c4ccccc4)cc3)c12

>  <score_type>  (5) 
oracle

>  <origin>  (5) 
adgpu

>  <m_score__min__energy>  (5) 
-10.029999999999999

>  <m_primary>  (5) 
energy

$$$$
5:0
     RDKit          3D

 57 60  0  0  0  0  0  0  0  0999 V2000
    0.3030   28.7300  -23.7260 N   0  0  0  0  0  0  0  0  0  0  0  0
    0.1630   27.3250  -23.9650 C   0  0  0  0  0  0  0  0  0  0  0  0
    0.4020   26.4880  -22.9990 N   0  0  0  0  0  0  0  0  0  0  0  0
   -0.2140   26.8350  -25.3170 C   0  0  0  0  0  0  0  0  0  0  0  0
   -0.1120   27.6690  -26.4460 C   0  0  0  0  0  0  0  0  0  0  0  0
   -0.5350   27.2190  -27.7020 C   0  0  0  0  0  0  0  0  0  0  0  0
   -1.0690   25.9350  -27.8470 C   0  0  0  0  0  0  0  0  0  0  0  0
   -1.6080   25.5370  -29.1160 N   0  0  0  0  0  0  0  0  0  0  0  0
   -2.8840   24.9090  -29.3180 C   0  0  0  0  0  0  0  0  0  0  0  0
   -3.2440   23.9920  -28.5360 O   0  0  0  0  0  0  0  0  0  0  0  0
   -3.7620   25.2990  -30.3860 N   0  0  0  0  0  0  0  0  0  0  0  0
   -4.8910   24.5340  -30.8280 C   0  0  0  0  0  0  0  0  0  0  0  0
   -6.1970   24.9260  -30.4980 C   0  0  0  0  0  0  0  0  0  0  0  0
   -7.2810   24.1140  -30.8370 C   0  0  0  0  0  0  0  0  0  0  0  0
   -7.0670   22.8980  -31.4900 C   0  0  0  0  0  0  0  0  0  0  0  0
   -5.7670   22.4950  -31.8300 C   0  0  0  0  0  0  0  0  0  0  0  0
   -5.4910   20.9070  -32.5450 S   0  0  0  0  0  0  0  0  0  0  0  0
   -6.6550   20.5400  -33.4210 O   0  0  0  0  0  0  0  0  0  0  0  0
   -5.3380   19.8880  -31.4490 O   0  0  0  0  0  0  0  0  0  0  0  0
   -4.0340   20.9680  -33.4820 N   0  0  0  0  0  0  0  0  0  0  0  0
   -2.8520   20.1850  -33.2530 C   0  0  0  0  0  0  0  0  0  0  0  0
   -1.8520   20.6040  -32.3560 C   0  0  0  0  0  0  0  0  0  0  0  0
   -0.6740   19.8650  -32.2160 C   0  0  0  0  0  0  0  0  0  0  0  0
   -0.4810   18.7030  -32.9640 C   0  0  0  0  0  0  0  0  0  0  0  0
   -1.4760   18.2650  -33.8390 C   0  0  0  0  0  0  0  0  0  0  0  0
   -2.6720   18.9810  -33.9700 C   0  0  0  0  0  0  0  0  0  0  0  0
   -3.6530   18.4880  -34.8420 O   0  0  0  0  0  0  0  0  0  0  0  0
   -4.5980   17.5040  -34.5140 C   0  0  0  0  0  0  0  0  0  0  0  0
   -5.9230   17.8260  -34.1560 C   0  0  0  0  0  0  0  0  0  0  0  0
   -6.8290   16.8110  -33.8330 C   0  0  0  0  0  0  0  0  0  0  0  0
   -6.4250   15.4740  -33.8580 C   0  0  0  0  0  0  0  0  0  0  0  0
   -5.1070   15.1490  -34.1930 C   0  0  0  0  0  0  0  0  0  0  0  0
   -4.7030   13.8210  -34.2130 O   0  0  0  0  0  0  0  0  0  0  0  0
   -4.1960   16.1630  -34.5110 C   0  0  0  0  0  0  0  0  0  0  0  0
   -4.6800   23.3360  -31.5280 C   0  0  0  0  0  0  0  0  0  0  0  0
   -3.3870   22.9660  -31.8800 O   0  0  0  0  0  0  0  0  0  0  0  0
   -1.0940   25.0720  -26.7420 C   0  0  0  0  0  0  0  0  0  0  0  0
   -0.6900   25.5250  -25.4850 C   0  0  0  0  0  0  0  0  0  0  0  0
    0.6400   29.0830  -22.8020 H   0  0  0  0  0  0  0  0  0  0  0  0
    0.0270   29.4330  -24.4470 H   0  0  0  0  0  0  0  0  0  0  0  0
    0.6730   26.8310  -22.0500 H   0  0  0  0  0  0  0  0  0  0  0  0
    0.3610   25.4540  -23.1420 H   0  0  0  0  0  0  0  0  0  0  0  0
    0.3033   28.6821  -26.3405 H   0  0  0  0  0  0  0  0  0  0  0  0
   -0.4470   27.8780  -28.5783 H   0  0  0  0  0  0  0  0  0  0  0  0
   -6.3675   25.8761  -29.9705 H   0  0  0  0  0  0  0  0  0  0  0  0
   -8.3045   24.4322  -30.5896 H   0  0  0  0  0  0  0  0  0  0  0  0
   -7.9224   22.2528  -31.7390 H   0  0  0  0  0  0  0  0  0  0  0  0
   -1.9982   21.5181  -31.7618 H   0  0  0  0  0  0  0  0  0  0  0  0
    0.1035   20.2005  -31.5139 H   0  0  0  0  0  0  0  0  0  0  0  0
    0.4544   18.1328  -32.8641 H   0  0  0  0  0  0  0  0  0  0  0  0
   -1.3195   17.3506  -34.4301 H   0  0  0  0  0  0  0  0  0  0  0  0
   -6.2447   18.8776  -34.1307 H   0  0  0  0  0  0  0  0  0  0  0  0
   -7.8631   17.0662  -33.5583 H   0  0  0  0  0  0  0  0  0  0  0  0
   -7.1433   14.6774  -33.6143 H   0  0  0  0  0  0  0  0  0  0  0  0
   -3.1564   15.9042  -34.7604 H   0  0  0  0  0  0  0  0  0  0  0  0
   -1.4336   24.0331  -26.8664 H   0  0  0  0  0  0  0  0  0  0  0  0
   -0.7451   24.8496  -24.6185 H   0  0  0  0  0  0  0  0  0  0  0  0
  1  2  1  0
  2  3  2  0
  2  4  1  0
  4  5  2  0
  5  6  1  0
  6  7  2  0
  7  8  1  0
  8  9  1  0
  9 10  2  0
  9 11  1  0
 11 12  1  0
 12 13  2  0
 13 14  1  0
 14 15  2  0
 15 16  1  0
 16 17  1  0
 17 18  2  0
 17 19  2  0
 17 20  1  0
 20 21  1  0
 21 22  2  0
 22 23  1  0
 23 24  2  0
 24 25  1  0
 25 26  2  0
 26 27  1  0
 27 28  1  0
 28 29  2  0
 29 30  1  0
 30 31  2  0
 31 32  1  0
 32 33  1  0
 32 34  2  0
 16 35  2  0
 35 36  1  0
  7 37  1  0
 37 38  2  0
 38  4  1  0
 35 12  1  0
 26 21  1  0
 34 28  1  0
  1 39  1  0
  1 40  1  0
  3 41  1  0
  3 42  1  0
  5 43  1  0
  6 44  1  0
 13 45  1  0
 14 46  1  0
 15 47  1  0
 22 48  1  0
 23 49  1  0
 24 50  1  0
 25 51  1  0
 29 52  1  0
 30 53  1  0
 31 54  1  0
 34 55  1  0
 37 56  1  0
 38 57  1  0
M  CHG  6   3   1   8  -1  11  -1  20  -1  33  -1  36  -1
M  END
>  <UniqueID>  (6) 
4

>  <SMILES>  (6) 
NC(=[NH2+])c1ccc([N-]C(=O)[N-]c2cccc(S(=O)(=O)[N-]c3ccccc3Oc3cccc([O-])c3)c2[O-])cc1

>  <Energy>  (6) 
79.79838210894304

>  <Genealogy>  (6) 
NC(=[NH2+])c1ccc([N-]C(=O)[N-]c2cccc(S(=O)(=O)[N-]c3ccccc3Oc3cccc([O-])c3)c2[O-])cc1 (protonated)
NC(=[NH2+])c1ccc([N-]C(=O)[N-]c2cccc(S(=O)(=O)[N-]c3ccccc3Oc3cccc([O-])c3)c2[O-])cc1 (3D coordinates assigned)
NC(=[NH2+])c1ccc([N-]C(=O)[N-]c2cccc(S(=O)(=O)[N-]c3ccccc3Oc3cccc([O-])c3)c2[O-])cc1 (optimized conformer: 79.79838210894304 kcal/mol)

>  <smiles>  (6) 
N=C(N)c1ccc(NC(=O)Nc2cccc(S(=O)(=O)Nc3ccccc3Oc3cccc(O)c3)c2O)cc1

>  <score_type>  (6) 
oracle

>  <origin>  (6) 
adgpu

>  <m_score__min__energy>  (6) 
-16.09

>  <m_primary>  (6) 
energy

$$$$
6:0
     RDKit          3D

 47 50  0  0  0  0  0  0  0  0999 V2000
   -4.3280   21.6760  -31.4690 C   0  0  0  0  0  0  0  0  0  0  0  0
   -5.6220   21.6940  -31.1030 C   0  0  0  0  0  0  0  0  0  0  0  0
   -6.2670   22.6510  -30.3000 C   0  0  0  0  0  0  0  0  0  0  0  0
   -5.7660   23.6430  -29.5340 C   0  0  0  0  0  0  0  0  0  0  0  0
   -4.3430   23.7930  -29.1680 C   0  0  0  0  0  0  0  0  0  0  0  0
   -3.5810   24.8240  -29.7190 C   0  0  0  0  0  0  0  0  0  0  0  0
   -4.1570   25.7350  -30.6020 O   0  0  0  0  0  0  0  0  0  0  0  0
   -2.2670   24.9300  -29.4070 N   0  0  0  0  0  0  0  0  0  0  0  0
   -1.6640   24.0580  -28.5590 C   0  0  0  0  0  0  0  0  0  0  0  0
   -0.4300   24.1820  -28.3360 O   0  0  0  0  0  0  0  0  0  0  0  0
   -2.3900   23.0570  -27.9630 N   0  0  0  0  0  0  0  0  0  0  0  0
   -1.7210   22.0580  -27.1070 C   0  0  0  0  0  0  0  0  0  0  0  0
   -1.2050   20.9350  -27.9520 C   0  0  0  0  0  0  0  0  0  0  0  0
   -0.8090   19.6940  -27.4940 C   0  0  0  0  0  0  0  0  0  0  0  0
   -0.4680   18.9760  -28.6190 C   0  0  0  0  0  0  0  0  0  0  0  0
   -0.6770   19.8210  -29.6900 C   0  0  0  0  0  0  0  0  0  0  0  0
   -1.1200   20.9800  -29.2600 O   0  0  0  0  0  0  0  0  0  0  0  0
   -3.7290   22.9320  -28.2430 C   0  0  0  0  0  0  0  0  0  0  0  0
   -4.4160   22.0350  -27.6770 O   0  0  0  0  0  0  0  0  0  0  0  0
   -7.6220   22.3800  -30.3860 C   0  0  0  0  0  0  0  0  0  0  0  0
   -7.7550   21.2470  -31.1630 C   0  0  0  0  0  0  0  0  0  0  0  0
   -9.0610   20.5870  -31.4850 C   0  0  0  0  0  0  0  0  0  0  0  0
   -6.5450   20.8300  -31.5980 N   0  0  0  0  0  0  0  0  0  0  0  0
   -6.2990   19.6780  -32.4260 C   0  0  0  0  0  0  0  0  0  0  0  0
   -5.9930   19.8410  -33.7870 C   0  0  0  0  0  0  0  0  0  0  0  0
   -5.7530   18.7230  -34.5930 C   0  0  0  0  0  0  0  0  0  0  0  0
   -5.8150   17.4390  -34.0440 C   0  0  0  0  0  0  0  0  0  0  0  0
   -6.1180   17.2700  -32.6900 C   0  0  0  0  0  0  0  0  0  0  0  0
   -6.3600   18.3850  -31.8820 C   0  0  0  0  0  0  0  0  0  0  0  0
   -3.9476   20.8632  -32.1052 H   0  0  0  0  0  0  0  0  0  0  0  0
   -3.6500   22.4741  -31.1322 H   0  0  0  0  0  0  0  0  0  0  0  0
   -6.4709   24.3968  -29.1535 H   0  0  0  0  0  0  0  0  0  0  0  0
   -3.9850   25.6730  -31.5980 H   0  0  0  0  0  0  0  0  0  0  0  0
   -0.8818   22.5331  -26.5778 H   0  0  0  0  0  0  0  0  0  0  0  0
   -2.4419   21.6629  -26.3762 H   0  0  0  0  0  0  0  0  0  0  0  0
   -0.7733   19.3507  -26.4496 H   0  0  0  0  0  0  0  0  0  0  0  0
   -0.1030   17.9390  -28.6562 H   0  0  0  0  0  0  0  0  0  0  0  0
   -0.4994   19.5627  -30.7444 H   0  0  0  0  0  0  0  0  0  0  0  0
   -8.4364   22.9570  -29.9237 H   0  0  0  0  0  0  0  0  0  0  0  0
   -9.5795   20.3250  -30.5509 H   0  0  0  0  0  0  0  0  0  0  0  0
   -9.6862   21.2773  -32.0702 H   0  0  0  0  0  0  0  0  0  0  0  0
   -8.8760   19.6741  -32.0702 H   0  0  0  0  0  0  0  0  0  0  0  0
   -5.9419   20.8507  -34.2205 H   0  0  0  0  0  0  0  0  0  0  0  0
   -5.5155   18.8544  -35.6590 H   0  0  0  0  0  0  0  0  0  0  0  0
   -5.6251   16.5606  -34.6783 H   0  0  0  0  0  0  0  0  0  0  0  0
   -6.1661   16.2588  -32.2597 H   0  0  0  0  0  0  0  0  0  0  0  0
   -6.5989   18.2489  -30.8169 H   0  0  0  0  0  0  0  0  0  0  0  0
  1  2  2  0
  2  3  1  0
  3  4  2  3
  4  5  1  0
  5  6  2  0
  6  7  1  0
  6  8  1  0
  8  9  1  0
  9 10  2  0
  9 11  1  0
 11 12  1  0
 12 13  1  0
 13 14  2  0
 14 15  1  0
 15 16  2  0
 16 17  1  0
 11 18  1  0
 18 19  2  0
  3 20  1  0
 20 21  2  0
 21 22  1  0
 21 23  1  0
 23 24  1  0
 24 25  2  0
 25 26  1  0
 26 27  2  0
 27 28  1  0
 28 29  2  0
 23  2  1  0
 29 24  1  0
 18  5  1  0
 17 13  1  0
  1 30  1  0
  1 31  1  0
  4 32  1  0
  7 33  1  0
 12 34  1  0
 12 35  1  0
 14 36  1  0
 15 37  1  0
 16 38  1  0
 20 39  1  0
 22 40  1  0
 22 41  1  0
 22 42  1  0
 25 43  1  0
 26 44  1  0
 27 45  1  0
 28 46  1  0
 29 47  1  0
M  CHG  1   8  -1
M  END
>  <UniqueID>  (7) 
5

>  <SMILES>  (7) 
C=c1c(=Cc2c(O)[n-]c(=O)n(Cc3ccco3)c2=O)cc(C)n1-c1ccccc1

>  <Energy>  (7) 
125.92315899076584

>  <Genealogy>  (7) 
C=c1c(=Cc2c(O)[n-]c(=O)n(Cc3ccco3)c2=O)cc(C)n1-c1ccccc1 (protonated)
C=c1c(=Cc2c(O)[n-]c(=O)n(Cc3ccco3)c2=O)cc(C)n1-c1ccccc1 (3D coordinates assigned)
C=c1c(=Cc2c(O)[n-]c(=O)n(Cc3ccco3)c2=O)cc(C)n1-c1ccccc1 (optimized conformer: 125.92315899076584 kcal/mol)

>  <smiles>  (7) 
C=c1c(=Cc2c(O)[nH]c(=O)n(Cc3ccco3)c2=O)cc(C)n1-c1ccccc1

>  <score_type>  (7) 
oracle

>  <origin>  (7) 
adgpu

>  <m_score__min__energy>  (7) 
-11.18

>  <m_primary>  (7) 
energy

$$$$
7:0
     RDKit          3D

 56 59  0  0  0  0  0  0  0  0999 V2000
    3.0580   25.8110  -24.0040 C   0  0  0  0  0  0  0  0  0  0  0  0
    3.0220   25.4170  -25.3710 O   0  0  0  0  0  0  0  0  0  0  0  0
    1.8840   24.9100  -26.0190 C   0  0  0  0  0  0  0  0  0  0  0  0
    1.9520   24.2590  -27.2660 C   0  0  0  0  0  0  0  0  0  0  0  0
    0.7890   23.7700  -27.8680 C   0  0  0  0  0  0  0  0  0  0  0  0
   -0.4520   23.9170  -27.2350 C   0  0  0  0  0  0  0  0  0  0  0  0
   -1.6500   23.4110  -27.8550 N   0  0  0  0  0  0  0  0  0  0  0  0
   -2.1810   22.2110  -27.4600 C   0  0  0  0  0  0  0  0  0  0  0  0
   -1.4630   21.2480  -26.1150 S   0  0  0  0  0  0  0  0  0  0  0  0
   -1.1180   19.7800  -27.1460 C   0  0  0  0  0  0  0  0  0  0  0  0
   -0.6450   20.1950  -28.5050 C   0  0  0  0  0  0  0  0  0  0  0  0
    0.5510   20.5650  -28.6580 O   0  0  0  0  0  0  0  0  0  0  0  0
   -1.5560   20.1850  -29.6150 N   0  0  0  0  0  0  0  0  0  0  0  0
   -1.1460   20.2510  -30.9910 C   0  0  0  0  0  0  0  0  0  0  0  0
   -1.2650   21.4650  -31.6860 C   0  0  0  0  0  0  0  0  0  0  0  0
   -0.8980   21.5490  -33.0330 C   0  0  0  0  0  0  0  0  0  0  0  0
   -0.4260   20.4160  -33.7020 C   0  0  0  0  0  0  0  0  0  0  0  0
   -0.3250   19.1980  -33.0240 C   0  0  0  0  0  0  0  0  0  0  0  0
   -0.6870   19.1100  -31.6770 C   0  0  0  0  0  0  0  0  0  0  0  0
   -3.2910   21.7260  -28.0660 N   0  0  0  0  0  0  0  0  0  0  0  0
   -3.9160   22.4090  -29.0530 C   0  0  0  0  0  0  0  0  0  0  0  0
   -3.4280   23.6530  -29.4730 C   0  0  0  0  0  0  0  0  0  0  0  0
   -4.1410   24.4040  -30.5410 C   0  0  0  0  0  0  0  0  0  0  0  0
   -4.2290   25.6610  -30.4670 O   0  0  0  0  0  0  0  0  0  0  0  0
   -4.6640   23.7190  -31.6880 N   0  0  0  0  0  0  0  0  0  0  0  0
   -5.8860   22.9670  -31.7590 C   0  0  0  0  0  0  0  0  0  0  0  0
   -7.0840   23.4480  -31.1950 C   0  0  0  0  0  0  0  0  0  0  0  0
   -8.2510   22.6830  -31.2610 C   0  0  0  0  0  0  0  0  0  0  0  0
   -8.2330   21.4290  -31.8780 C   0  0  0  0  0  0  0  0  0  0  0  0
   -7.0430   20.9300  -32.4100 C   0  0  0  0  0  0  0  0  0  0  0  0
   -5.8700   21.6910  -32.3500 C   0  0  0  0  0  0  0  0  0  0  0  0
   -4.3880   21.0350  -33.0330 Cl  0  0  0  0  0  0  0  0  0  0  0  0
   -2.2560   24.1370  -28.8500 C   0  0  0  0  0  0  0  0  0  0  0  0
   -1.7520   25.2340  -29.2200 O   0  0  0  0  0  0  0  0  0  0  0  0
   -0.5210   24.5710  -25.9960 C   0  0  0  0  0  0  0  0  0  0  0  0
    0.6410   25.0620  -25.3940 C   0  0  0  0  0  0  0  0  0  0  0  0
    2.9766   24.9204  -23.3635 H   0  0  0  0  0  0  0  0  0  0  0  0
    4.0070   26.3268  -23.7959 H   0  0  0  0  0  0  0  0  0  0  0  0
    2.2182   26.4903  -23.7959 H   0  0  0  0  0  0  0  0  0  0  0  0
    2.9230   24.1350  -27.7677 H   0  0  0  0  0  0  0  0  0  0  0  0
    0.8487   23.2669  -28.8444 H   0  0  0  0  0  0  0  0  0  0  0  0
   -0.3398   19.1718  -26.6616 H   0  0  0  0  0  0  0  0  0  0  0  0
   -2.0431   19.1947  -27.2539 H   0  0  0  0  0  0  0  0  0  0  0  0
   -2.5790   20.1880  -29.4030 H   0  0  0  0  0  0  0  0  0  0  0  0
   -1.6494   22.3559  -31.1678 H   0  0  0  0  0  0  0  0  0  0  0  0
   -0.9809   22.5074  -33.5664 H   0  0  0  0  0  0  0  0  0  0  0  0
   -0.1345   20.4829  -34.7606 H   0  0  0  0  0  0  0  0  0  0  0  0
    0.0408   18.3053  -33.5525 H   0  0  0  0  0  0  0  0  0  0  0  0
   -0.6132   18.1467  -31.1511 H   0  0  0  0  0  0  0  0  0  0  0  0
   -4.8127   21.9847  -29.5283 H   0  0  0  0  0  0  0  0  0  0  0  0
   -7.1006   24.4304  -30.7004 H   0  0  0  0  0  0  0  0  0  0  0  0
   -9.1854   23.0681  -30.8268 H   0  0  0  0  0  0  0  0  0  0  0  0
   -9.1567   20.8354  -31.9443 H   0  0  0  0  0  0  0  0  0  0  0  0
   -7.0271   19.9348  -32.8782 H   0  0  0  0  0  0  0  0  0  0  0  0
   -1.4928   24.6979  -25.4965 H   0  0  0  0  0  0  0  0  0  0  0  0
    0.5780   25.5719  -24.4214 H   0  0  0  0  0  0  0  0  0  0  0  0
  1  2  1  0
  2  3  1  0
  3  4  2  0
  4  5  1  0
  5  6  2  0
  6  7  1  0
  7  8  1  0
  8  9  1  0
  9 10  1  0
 10 11  1  0
 11 12  2  0
 11 13  1  0
 13 14  1  0
 14 15  2  0
 15 16  1  0
 16 17  2  0
 17 18  1  0
 18 19  2  0
  8 20  2  0
 20 21  1  0
 21 22  2  0
 22 23  1  0
 23 24  2  0
 23 25  1  0
 25 26  1  0
 26 27  2  0
 27 28  1  0
 28 29  2  0
 29 30  1  0
 30 31  2  0
 31 32  1  0
 22 33  1  0
 33 34  2  0
  6 35  1  0
 35 36  2  0
 36  3  1  0
 33  7  1  0
 19 14  1  0
 31 26  1  0
  1 37  1  0
  1 38  1  0
  1 39  1  0
  4 40  1  0
  5 41  1  0
 10 42  1  0
 10 43  1  0
 13 44  1  0
 15 45  1  0
 16 46  1  0
 17 47  1  0
 18 48  1  0
 19 49  1  0
 21 50  1  0
 27 51  1  0
 28 52  1  0
 29 53  1  0
 30 54  1  0
 35 55  1  0
 36 56  1  0
M  CHG  1  25  -1
M  END
>  <UniqueID>  (8) 
6

>  <SMILES>  (8) 
COc1ccc(-n2c(SCC(=O)Nc3ccccc3)ncc(C(=O)[N-]c3ccccc3Cl)c2=O)cc1

>  <Energy>  (8) 
75.05349599135947

>  <Genealogy>  (8) 
COc1ccc(-n2c(SCC(=O)Nc3ccccc3)ncc(C(=O)[N-]c3ccccc3Cl)c2=O)cc1 (protonated)
COc1ccc(-n2c(SCC(=O)Nc3ccccc3)ncc(C(=O)[N-]c3ccccc3Cl)c2=O)cc1 (3D coordinates assigned)
COc1ccc(-n2c(SCC(=O)Nc3ccccc3)ncc(C(=O)[N-]c3ccccc3Cl)c2=O)cc1 (optimized conformer: 75.05349599135947 kcal/mol)

>  <smiles>  (8) 
COc1ccc(-n2c(SCC(=O)Nc3ccccc3)ncc(C(=O)Nc3ccccc3Cl)c2=O)cc1

>  <score_type>  (8) 
oracle

>  <origin>  (8) 
adgpu

>  <m_score__min__energy>  (8) 
-11.18

>  <m_primary>  (8) 
energy

$$$$
8:0
     RDKit          3D

 50 53  0  0  0  0  0  0  0  0999 V2000
   -1.6060   25.7050  -27.6420 C   0  0  0  0  0  0  0  0  0  0  0  0
   -2.2370   25.4060  -28.8840 O   0  0  0  0  0  0  0  0  0  0  0  0
   -2.1960   24.1530  -29.5130 C   0  0  0  0  0  0  0  0  0  0  0  0
   -1.2030   23.1910  -29.1990 C   0  0  0  0  0  0  0  0  0  0  0  0
   -1.2300   21.9770  -29.8740 C   0  0  0  0  0  0  0  0  0  0  0  0
   -0.4080   20.9260  -29.6960 N   0  0  0  0  0  0  0  0  0  0  0  0
   -0.8900   20.0070  -30.5720 C   0  0  0  0  0  0  0  0  0  0  0  0
   -1.9590   20.4500  -31.2790 N   0  0  0  0  0  0  0  0  0  0  0  0
   -2.6800   19.7240  -32.2890 C   0  0  0  0  0  0  0  0  0  0  0  0
   -2.0830   19.4700  -33.5340 C   0  0  0  0  0  0  0  0  0  0  0  0
   -2.7860   18.7790  -34.5240 C   0  0  0  0  0  0  0  0  0  0  0  0
   -4.0900   18.3400  -34.2830 C   0  0  0  0  0  0  0  0  0  0  0  0
   -4.7000   18.5870  -33.0400 C   0  0  0  0  0  0  0  0  0  0  0  0
   -6.0160   18.1840  -32.7680 O   0  0  0  0  0  0  0  0  0  0  0  0
   -7.0910   19.0460  -32.5050 C   0  0  0  0  0  0  0  0  0  0  0  0
   -8.3920   18.5370  -32.5610 C   0  0  0  0  0  0  0  0  0  0  0  0
   -9.4880   19.3670  -32.3090 C   0  0  0  0  0  0  0  0  0  0  0  0
   -9.2890   20.7180  -32.0120 C   0  0  0  0  0  0  0  0  0  0  0  0
   -7.9920   21.2480  -31.9790 C   0  0  0  0  0  0  0  0  0  0  0  0
   -7.7230   22.9480  -31.6080 S   0  0  0  0  0  0  0  0  0  0  0  0
   -6.2270   23.4930  -32.4010 C   0  0  0  0  0  0  0  0  0  0  0  0
   -8.8860   23.7590  -32.1050 O   0  0  0  0  0  0  0  0  0  0  0  0
   -7.5940   23.1440  -30.1220 O   0  0  0  0  0  0  0  0  0  0  0  0
   -6.8960   20.4130  -32.2310 C   0  0  0  0  0  0  0  0  0  0  0  0
   -3.9980   19.2970  -32.0590 C   0  0  0  0  0  0  0  0  0  0  0  0
   -2.1680   21.6980  -30.8210 C   0  0  0  0  0  0  0  0  0  0  0  0
   -3.1810   22.6020  -31.1430 C   0  0  0  0  0  0  0  0  0  0  0  0
   -3.1880   23.8560  -30.4820 C   0  0  0  0  0  0  0  0  0  0  0  0
   -4.1620   24.8290  -30.7550 O   0  0  0  0  0  0  0  0  0  0  0  0
   -5.2780   25.1100  -29.9160 C   0  0  0  0  0  0  0  0  0  0  0  0
   -2.2606   25.3948  -26.8141 H   0  0  0  0  0  0  0  0  0  0  0  0
   -0.6506   25.1639  -27.5765 H   0  0  0  0  0  0  0  0  0  0  0  0
   -1.4197   26.7871  -27.5765 H   0  0  0  0  0  0  0  0  0  0  0  0
   -0.4327   23.4000  -28.4421 H   0  0  0  0  0  0  0  0  0  0  0  0
   -0.4566   19.0036  -30.6957 H   0  0  0  0  0  0  0  0  0  0  0  0
   -1.0577   19.8164  -33.7308 H   0  0  0  0  0  0  0  0  0  0  0  0
   -2.3112   18.5800  -35.4961 H   0  0  0  0  0  0  0  0  0  0  0  0
   -4.6410   17.7999  -35.0671 H   0  0  0  0  0  0  0  0  0  0  0  0
   -8.5540   17.4767  -32.8049 H   0  0  0  0  0  0  0  0  0  0  0  0
  -10.5079   18.9565  -32.3445 H   0  0  0  0  0  0  0  0  0  0  0  0
  -10.1524   21.3670  -31.8036 H   0  0  0  0  0  0  0  0  0  0  0  0
   -5.4842   23.7636  -31.6361 H   0  0  0  0  0  0  0  0  0  0  0  0
   -5.8284   22.6823  -33.0286 H   0  0  0  0  0  0  0  0  0  0  0  0
   -6.4433   24.3701  -33.0286 H   0  0  0  0  0  0  0  0  0  0  0  0
   -5.8773   20.8277  -32.2147 H   0  0  0  0  0  0  0  0  0  0  0  0
   -4.4836   19.5228  -31.0982 H   0  0  0  0  0  0  0  0  0  0  0  0
   -3.9507   22.3493  -31.8871 H   0  0  0  0  0  0  0  0  0  0  0  0
   -4.9729   25.0332  -28.8620 H   0  0  0  0  0  0  0  0  0  0  0  0
   -5.6423   26.1279  -30.1190 H   0  0  0  0  0  0  0  0  0  0  0  0
   -6.0809   24.3860  -30.1190 H   0  0  0  0  0  0  0  0  0  0  0  0
  1  2  1  0
  2  3  1  0
  3  4  2  0
  4  5  1  0
  5  6  1  0
  6  7  2  0
  7  8  1  0
  8  9  1  0
  9 10  2  0
 10 11  1  0
 11 12  2  0
 12 13  1  0
 13 14  1  0
 14 15  1  0
 15 16  2  0
 16 17  1  0
 17 18  2  0
 18 19  1  0
 19 20  1  0
 20 21  1  0
 20 22  2  0
 20 23  2  0
 19 24  2  0
 13 25  2  0
  8 26  1  0
 26 27  1  0
 27 28  2  0
 28 29  1  0
 29 30  1  0
 28  3  1  0
 26  5  2  0
 25  9  1  0
 24 15  1  0
  1 31  1  0
  1 32  1  0
  1 33  1  0
  4 34  1  0
  7 35  1  0
 10 36  1  0
 11 37  1  0
 12 38  1  0
 16 39  1  0
 17 40  1  0
 18 41  1  0
 21 42  1  0
 21 43  1  0
 21 44  1  0
 24 45  1  0
 25 46  1  0
 27 47  1  0
 30 48  1  0
 30 49  1  0
 30 50  1  0
M  END
>  <UniqueID>  (9) 
7

>  <SMILES>  (9) 
COc1cc2ncn(-c3cccc(Oc4cccc(S(C)(=O)=O)c4)c3)c2cc1OC

>  <Energy>  (9) 
99.07039538376378

>  <Genealogy>  (9) 
COc1cc2ncn(-c3cccc(Oc4cccc(S(C)(=O)=O)c4)c3)c2cc1OC (3D coordinates assigned)
COc1cc2ncn(-c3cccc(Oc4cccc(S(C)(=O)=O)c4)c3)c2cc1OC (optimized conformer: 99.07039538376378 kcal/mol)

>  <smiles>  (9) 
COc1cc2ncn(-c3cccc(Oc4cccc(S(C)(=O)=O)c4)c3)c2cc1OC

>  <score_type>  (9) 
oracle

>  <origin>  (9) 
adgpu

>  <m_score__min__energy>  (9) 
-9.2899999999999991

>  <m_primary>  (9) 
energy

$$$$
9:0
     RDKit          3D

 42 44  0  0  0  0  0  0  0  0999 V2000
   -4.7520   23.7690  -31.5380 O   0  0  0  0  0  0  0  0  0  0  0  0
   -5.5860   23.2870  -30.7230 C   0  0  0  0  0  0  0  0  0  0  0  0
   -5.2820   23.2770  -29.3170 N   0  0  0  0  0  0  0  0  0  0  0  0
   -3.9430   23.3310  -28.7930 C   0  0  0  0  0  0  0  0  0  0  0  0
   -3.4980   22.3980  -27.8370 C   0  0  0  0  0  0  0  0  0  0  0  0
   -2.2020   22.4800  -27.3200 C   0  0  0  0  0  0  0  0  0  0  0  0
   -1.3430   23.4980  -27.7400 C   0  0  0  0  0  0  0  0  0  0  0  0
   -1.7800   24.4390  -28.6740 C   0  0  0  0  0  0  0  0  0  0  0  0
   -3.0760   24.3640  -29.1950 C   0  0  0  0  0  0  0  0  0  0  0  0
   -3.4820   25.2860  -30.1040 F   0  0  0  0  0  0  0  0  0  0  0  0
   -6.8870   22.7820  -31.2240 C   0  0  0  0  0  0  0  0  0  0  0  0
   -7.9160   23.6820  -31.5550 C   0  0  0  0  0  0  0  0  0  0  0  0
   -9.1400   23.2120  -32.0360 C   0  0  0  0  0  0  0  0  0  0  0  0
   -9.3500   21.8430  -32.2020 C   0  0  0  0  0  0  0  0  0  0  0  0
   -8.3320   20.9310  -31.8950 C   0  0  0  0  0  0  0  0  0  0  0  0
   -8.5850   19.2000  -32.1400 S   0  0  0  0  0  0  0  0  0  0  0  0
   -8.9330   18.5600  -30.8240 O   0  0  0  0  0  0  0  0  0  0  0  0
   -9.7420   18.9950  -33.0770 O   0  0  0  0  0  0  0  0  0  0  0  0
   -7.1610   18.4260  -32.7990 N   0  0  0  0  0  0  0  0  0  0  0  0
   -6.5730   19.2550  -33.8680 C   0  0  0  0  0  0  0  0  0  0  0  0
   -5.0980   18.8790  -34.0940 C   0  0  0  0  0  0  0  0  0  0  0  0
   -4.2740   19.0580  -32.9480 O   0  0  0  0  0  0  0  0  0  0  0  0
   -4.9830   19.0230  -31.7180 C   0  0  0  0  0  0  0  0  0  0  0  0
   -6.1910   18.0690  -31.7400 C   0  0  0  0  0  0  0  0  0  0  0  0
   -7.1070   21.4030  -31.4000 C   0  0  0  0  0  0  0  0  0  0  0  0
   -6.0770   23.3360  -28.6430 H   0  0  0  0  0  0  0  0  0  0  0  0
   -4.1739   21.6003  -27.4952 H   0  0  0  0  0  0  0  0  0  0  0  0
   -1.8580   21.7414  -26.5810 H   0  0  0  0  0  0  0  0  0  0  0  0
   -0.3221   23.5583  -27.3348 H   0  0  0  0  0  0  0  0  0  0  0  0
   -1.1031   25.2419  -29.0013 H   0  0  0  0  0  0  0  0  0  0  0  0
   -7.7556   24.7635  -31.4342 H   0  0  0  0  0  0  0  0  0  0  0  0
   -9.9410   23.9237  -32.2847 H   0  0  0  0  0  0  0  0  0  0  0  0
  -10.3183   21.4783  -32.5753 H   0  0  0  0  0  0  0  0  0  0  0  0
   -7.1342   19.0944  -34.8003 H   0  0  0  0  0  0  0  0  0  0  0  0
   -6.6282   20.3120  -33.5686 H   0  0  0  0  0  0  0  0  0  0  0  0
   -5.0522   17.8209  -34.3913 H   0  0  0  0  0  0  0  0  0  0  0  0
   -4.7126   19.5542  -34.8722 H   0  0  0  0  0  0  0  0  0  0  0  0
   -4.2932   18.6951  -30.9263 H   0  0  0  0  0  0  0  0  0  0  0  0
   -5.3705   20.0362  -31.5357 H   0  0  0  0  0  0  0  0  0  0  0  0
   -5.8314   17.0449  -31.9186 H   0  0  0  0  0  0  0  0  0  0  0  0
   -6.7034   18.1477  -30.7698 H   0  0  0  0  0  0  0  0  0  0  0  0
   -6.3103   20.6880  -31.1469 H   0  0  0  0  0  0  0  0  0  0  0  0
  1  2  2  0
  2  3  1  0
  3  4  1  0
  4  5  2  0
  5  6  1  0
  6  7  2  0
  7  8  1  0
  8  9  2  0
  9 10  1  0
  2 11  1  0
 11 12  2  0
 12 13  1  0
 13 14  2  0
 14 15  1  0
 15 16  1  0
 16 17  2  0
 16 18  2  0
 16 19  1  0
 19 20  1  0
 20 21  1  0
 21 22  1  0
 22 23  1  0
 23 24  1  0
 15 25  2  0
  9  4  1  0
 25 11  1  0
 24 19  1  0
  3 26  1  0
  5 27  1  0
  6 28  1  0
  7 29  1  0
  8 30  1  0
 12 31  1  0
 13 32  1  0
 14 33  1  0
 20 34  1  0
 20 35  1  0
 21 36  1  0
 21 37  1  0
 23 38  1  0
 23 39  1  0
 24 40  1  0
 24 41  1  0
 25 42  1  0
M  END
>  <UniqueID>  (10) 
8

>  <SMILES>  (10) 
O=C(Nc1ccccc1F)c1cccc(S(=O)(=O)N2CCOCC2)c1

>  <Energy>  (10) 
60.99969238280906

>  <Genealogy>  (10) 
O=C(Nc1ccccc1F)c1cccc(S(=O)(=O)N2CCOCC2)c1 (3D coordinates assigned)
O=C(Nc1ccccc1F)c1cccc(S(=O)(=O)N2CCOCC2)c1 (nonaromatic ring conformer: 60.99969238280906 kcal/mol)

>  <smiles>  (10) 
O=C(Nc1ccccc1F)c1cccc(S(=O)(=O)N2CCOCC2)c1

>  <score_type>  (10) 
oracle

>  <origin>  (10) 
adgpu

>  <m_score__min__energy>  (10) 
-9.3000000000000007

>  <m_primary>  (10) 
energy

$$$$
10:0
     RDKit          3D

 53 56  0  0  0  0  0  0  0  0999 V2000
   -6.0210   19.6840  -33.5480 C   0  0  0  0  0  0  0  0  0  0  0  0
   -4.9180   20.5680  -33.3880 O   0  0  0  0  0  0  0  0  0  0  0  0
   -4.7300   21.4130  -32.2830 C   0  0  0  0  0  0  0  0  0  0  0  0
   -4.2600   20.8520  -31.0950 C   0  0  0  0  0  0  0  0  0  0  0  0
   -4.0600   21.6460  -29.9640 C   0  0  0  0  0  0  0  0  0  0  0  0
   -4.3410   23.0190  -30.0010 C   0  0  0  0  0  0  0  0  0  0  0  0
   -4.0820   23.8590  -28.7800 C   0  0  0  0  0  0  0  0  0  0  0  0
   -3.0770   24.8680  -29.0910 N   0  0  0  0  0  0  0  0  0  0  0  0
   -1.6870   24.5790  -29.2700 C   0  0  0  0  0  0  0  0  0  0  0  0
   -0.8600   25.5270  -29.3000 O   0  0  0  0  0  0  0  0  0  0  0  0
   -1.2050   23.2030  -29.4560 C   0  0  0  0  0  0  0  0  0  0  0  0
   -1.1870   22.5870  -30.6600 N   0  0  0  0  0  0  0  0  0  0  0  0
   -0.6820   21.3620  -30.4390 C   0  0  0  0  0  0  0  0  0  0  0  0
   -0.4590   20.3590  -31.3810 C   0  0  0  0  0  0  0  0  0  0  0  0
    0.1020   19.1490  -30.9350 C   0  0  0  0  0  0  0  0  0  0  0  0
    0.4260   18.9700  -29.5700 C   0  0  0  0  0  0  0  0  0  0  0  0
    1.1880   17.3210  -28.9820 Br  0  0  0  0  0  0  0  0  0  0  0  0
    0.1900   20.0000  -28.6430 C   0  0  0  0  0  0  0  0  0  0  0  0
   -0.3690   21.1890  -29.1140 C   0  0  0  0  0  0  0  0  0  0  0  0
   -0.6940   22.3630  -28.4650 C   0  0  0  0  0  0  0  0  0  0  0  0
   -0.3450   22.7520  -26.7790 S   0  0  0  0  0  0  0  0  0  0  0  0
   -1.2750   22.0140  -25.8590 O   0  0  0  0  0  0  0  0  0  0  0  0
    1.0660   22.3510  -26.4580 O   0  0  0  0  0  0  0  0  0  0  0  0
   -0.5740   24.4790  -26.5290 C   0  0  0  0  0  0  0  0  0  0  0  0
    0.4760   25.3650  -26.8100 C   0  0  0  0  0  0  0  0  0  0  0  0
    0.3140   26.7370  -26.5970 C   0  0  0  0  0  0  0  0  0  0  0  0
   -0.8950   27.2300  -26.0940 C   0  0  0  0  0  0  0  0  0  0  0  0
   -1.9450   26.3510  -25.8100 C   0  0  0  0  0  0  0  0  0  0  0  0
   -1.7880   24.9780  -26.0300 C   0  0  0  0  0  0  0  0  0  0  0  0
   -4.7970   23.6060  -31.1990 C   0  0  0  0  0  0  0  0  0  0  0  0
   -5.0390   24.9890  -31.2280 O   0  0  0  0  0  0  0  0  0  0  0  0
   -5.9720   25.6680  -30.3940 C   0  0  0  0  0  0  0  0  0  0  0  0
   -4.9960   22.7950  -32.3340 C   0  0  0  0  0  0  0  0  0  0  0  0
   -6.3963   19.3832  -32.5587 H   0  0  0  0  0  0  0  0  0  0  0  0
   -6.8215   20.1935  -34.1045 H   0  0  0  0  0  0  0  0  0  0  0  0
   -5.6981   18.7918  -34.1045 H   0  0  0  0  0  0  0  0  0  0  0  0
   -4.0450   19.7742  -31.0490 H   0  0  0  0  0  0  0  0  0  0  0  0
   -3.6794   21.1911  -29.0376 H   0  0  0  0  0  0  0  0  0  0  0  0
   -5.0145   24.3532  -28.4699 H   0  0  0  0  0  0  0  0  0  0  0  0
   -3.7187   23.2180  -27.9632 H   0  0  0  0  0  0  0  0  0  0  0  0
   -1.5020   22.9830  -31.5740 H   0  0  0  0  0  0  0  0  0  0  0  0
   -0.7139   20.5093  -32.4404 H   0  0  0  0  0  0  0  0  0  0  0  0
    0.2900   18.3366  -31.6524 H   0  0  0  0  0  0  0  0  0  0  0  0
    0.4383   19.8728  -27.5790 H   0  0  0  0  0  0  0  0  0  0  0  0
    1.4298   24.9793  -27.1991 H   0  0  0  0  0  0  0  0  0  0  0  0
    1.1376   27.4296  -26.8250 H   0  0  0  0  0  0  0  0  0  0  0  0
   -1.0196   28.3093  -25.9219 H   0  0  0  0  0  0  0  0  0  0  0  0
   -2.8948   26.7391  -25.4135 H   0  0  0  0  0  0  0  0  0  0  0  0
   -2.6169   24.2886  -25.8117 H   0  0  0  0  0  0  0  0  0  0  0  0
   -5.7211   25.4854  -29.3387 H   0  0  0  0  0  0  0  0  0  0  0  0
   -5.9294   26.7478  -30.5995 H   0  0  0  0  0  0  0  0  0  0  0  0
   -6.9864   25.2954  -30.5995 H   0  0  0  0  0  0  0  0  0  0  0  0
   -5.3624   23.2454  -33.2683 H   0  0  0  0  0  0  0  0  0  0  0  0
  1  2  1  0
  2  3  1  0
  3  4  2  0
  4  5  1  0
  5  6  2  0
  6  7  1  0
  7  8  1  0
  8  9  1  0
  9 10  2  0
  9 11  1  0
 11 12  1  0
 12 13  1  0
 13 14  2  0
 14 15  1  0
 15 16  2  0
 16 17  1  0
 16 18  1  0
 18 19  2  0
 19 20  1  0
 20 21  1  0
 21 22  2  0
 21 23  2  0
 21 24  1  0
 24 25  2  0
 25 26  1  0
 26 27  2  0
 27 28  1  0
 28 29  2  0
  6 30  1  0
 30 31  1  0
 31 32  1  0
 30 33  2  0
 33  3  1  0
 20 11  2  0
 29 24  1  0
 19 13  1  0
  1 34  1  0
  1 35  1  0
  1 36  1  0
  4 37  1  0
  5 38  1  0
  7 39  1  0
  7 40  1  0
 12 41  1  0
 14 42  1  0
 15 43  1  0
 18 44  1  0
 25 45  1  0
 26 46  1  0
 27 47  1  0
 28 48  1  0
 29 49  1  0
 32 50  1  0
 32 51  1  0
 32 52  1  0
 33 53  1  0
M  CHG  1   8  -1
M  END
>  <UniqueID>  (11) 
9

>  <SMILES>  (11) 
COc1ccc(C[N-]C(=O)c2[nH]c3ccc(Br)cc3c2S(=O)(=O)c2ccccc2)c(OC)c1

>  <Energy>  (11) 
94.15662397725309

>  <Genealogy>  (11) 
COc1ccc(C[N-]C(=O)c2[nH]c3ccc(Br)cc3c2S(=O)(=O)c2ccccc2)c(OC)c1 (protonated)
COc1ccc(C[N-]C(=O)c2[nH]c3ccc(Br)cc3c2S(=O)(=O)c2ccccc2)c(OC)c1 (3D coordinates assigned)
COc1ccc(C[N-]C(=O)c2[nH]c3ccc(Br)cc3c2S(=O)(=O)c2ccccc2)c(OC)c1 (optimized conformer: 94.15662397725309 kcal/mol)

>  <smiles>  (11) 
COc1ccc(CNC(=O)c2[nH]c3ccc(Br)cc3c2S(=O)(=O)c2ccccc2)c(OC)c1

>  <score_type>  (11) 
oracle

>  <origin>  (11) 
adgpu

>  <m_score__min__energy>  (11) 
-11.51

>  <m_primary>  (11) 
energy

$$$$
11:0
     RDKit          3D

 49 52  0  0  0  0  0  0  0  0999 V2000
   -5.2410   19.2850  -33.5940 C   0  0  0  0  0  0  0  0  0  0  0  0
   -3.9110   19.9080  -33.2980 C   0  0  0  0  0  0  0  0  0  0  0  0
   -3.6970   21.1990  -32.8470 C   0  0  0  0  0  0  0  0  0  0  0  0
   -4.7050   22.1460  -32.4630 N   0  0  0  0  0  0  0  0  0  0  0  0
   -4.7310   22.8400  -31.3610 C   0  0  0  0  0  0  0  0  0  0  0  0
   -3.6160   22.8770  -30.3860 C   0  0  0  0  0  0  0  0  0  0  0  0
   -3.0370   24.0890  -29.9870 C   0  0  0  0  0  0  0  0  0  0  0  0
   -3.5190   25.2990  -30.4740 O   0  0  0  0  0  0  0  0  0  0  0  0
   -2.0080   24.0890  -29.1030 N   0  0  0  0  0  0  0  0  0  0  0  0
   -1.5310   22.9310  -28.5740 C   0  0  0  0  0  0  0  0  0  0  0  0
   -0.5770   22.9780  -27.7490 O   0  0  0  0  0  0  0  0  0  0  0  0
   -2.0920   21.7290  -28.9210 N   0  0  0  0  0  0  0  0  0  0  0  0
   -1.5790   20.5040  -28.3570 C   0  0  0  0  0  0  0  0  0  0  0  0
   -2.2570   19.8730  -27.3020 C   0  0  0  0  0  0  0  0  0  0  0  0
   -1.7580   18.6870  -26.7550 C   0  0  0  0  0  0  0  0  0  0  0  0
   -0.5800   18.1250  -27.2570 C   0  0  0  0  0  0  0  0  0  0  0  0
   -0.0970   16.9740  -26.7250 F   0  0  0  0  0  0  0  0  0  0  0  0
    0.1000   18.7490  -28.3070 C   0  0  0  0  0  0  0  0  0  0  0  0
   -0.3960   19.9350  -28.8570 C   0  0  0  0  0  0  0  0  0  0  0  0
   -3.1340   21.6910  -29.8120 C   0  0  0  0  0  0  0  0  0  0  0  0
   -3.6480   20.5850  -30.1440 O   0  0  0  0  0  0  0  0  0  0  0  0
   -2.3270   21.3030  -32.7030 C   0  0  0  0  0  0  0  0  0  0  0  0
   -1.7010   22.2770  -32.2050 O   0  0  0  0  0  0  0  0  0  0  0  0
   -1.7490   20.1560  -33.1090 N   0  0  0  0  0  0  0  0  0  0  0  0
   -0.3430   19.8610  -33.0630 C   0  0  0  0  0  0  0  0  0  0  0  0
    0.1710   19.0970  -32.0040 C   0  0  0  0  0  0  0  0  0  0  0  0
    1.5380   18.8130  -31.9360 C   0  0  0  0  0  0  0  0  0  0  0  0
    2.4010   19.2900  -32.9260 C   0  0  0  0  0  0  0  0  0  0  0  0
    1.8990   20.0490  -33.9860 C   0  0  0  0  0  0  0  0  0  0  0  0
    0.5310   20.3380  -34.0620 C   0  0  0  0  0  0  0  0  0  0  0  0
   -0.0690   21.2580  -35.4350 Cl  0  0  0  0  0  0  0  0  0  0  0  0
   -2.7070   19.3100  -33.4800 N   0  0  0  0  0  0  0  0  0  0  0  0
   -2.4890   17.9400  -33.9480 C   0  0  0  0  0  0  0  0  0  0  0  0
   -5.7520   19.0456  -32.6498 H   0  0  0  0  0  0  0  0  0  0  0  0
   -5.8547   19.9893  -34.1748 H   0  0  0  0  0  0  0  0  0  0  0  0
   -5.0927   18.3627  -34.1748 H   0  0  0  0  0  0  0  0  0  0  0  0
   -5.6318   23.4321  -31.1418 H   0  0  0  0  0  0  0  0  0  0  0  0
   -1.5810   24.9990  -28.8200 H   0  0  0  0  0  0  0  0  0  0  0  0
   -3.1835   20.3130  -26.9046 H   0  0  0  0  0  0  0  0  0  0  0  0
   -2.2926   18.1954  -25.9288 H   0  0  0  0  0  0  0  0  0  0  0  0
    1.0267   18.3063  -28.7011 H   0  0  0  0  0  0  0  0  0  0  0  0
    0.1414   20.4236  -29.6831 H   0  0  0  0  0  0  0  0  0  0  0  0
   -0.5056   18.7195  -31.2231 H   0  0  0  0  0  0  0  0  0  0  0  0
    1.9344   18.2139  -31.1030 H   0  0  0  0  0  0  0  0  0  0  0  0
    3.4769   19.0676  -32.8707 H   0  0  0  0  0  0  0  0  0  0  0  0
    2.5814   20.4212  -34.7643 H   0  0  0  0  0  0  0  0  0  0  0  0
   -2.3823   17.2695  -33.0825 H   0  0  0  0  0  0  0  0  0  0  0  0
   -3.3474   17.6194  -34.5566 H   0  0  0  0  0  0  0  0  0  0  0  0
   -1.5735   17.9017  -34.5566 H   0  0  0  0  0  0  0  0  0  0  0  0
  1  2  1  0
  2  3  2  0
  3  4  1  0
  4  5  2  3
  5  6  1  0
  6  7  2  0
  7  8  1  0
  7  9  1  0
  9 10  1  0
 10 11  2  0
 10 12  1  0
 12 13  1  0
 13 14  2  0
 14 15  1  0
 15 16  2  0
 16 17  1  0
 16 18  1  0
 18 19  2  0
 12 20  1  0
 20 21  2  0
  3 22  1  0
 22 23  2  0
 22 24  1  0
 24 25  1  0
 25 26  2  0
 26 27  1  0
 27 28  2  0
 28 29  1  0
 29 30  2  0
 30 31  1  0
 24 32  1  0
 32 33  1  0
 32  2  1  0
 20  6  1  0
 30 25  1  0
 19 13  1  0
  1 34  1  0
  1 35  1  0
  1 36  1  0
  5 37  1  0
  9 38  1  0
 14 39  1  0
 15 40  1  0
 18 41  1  0
 19 42  1  0
 26 43  1  0
 27 44  1  0
 28 45  1  0
 29 46  1  0
 33 47  1  0
 33 48  1  0
 33 49  1  0
M  CHG  1   8  -1
M  END
>  <UniqueID>  (12) 
10

>  <SMILES>  (12) 
Cc1c(N=Cc2c([O-])[nH]c(=O)n(-c3ccc(F)cc3)c2=O)c(=O)n(-c2ccccc2Cl)n1C

>  <Energy>  (12) 
117.47404351758165

>  <Genealogy>  (12) 
Cc1c(N=Cc2c([O-])[nH]c(=O)n(-c3ccc(F)cc3)c2=O)c(=O)n(-c2ccccc2Cl)n1C (protonated)
Cc1c(N=Cc2c([O-])[nH]c(=O)n(-c3ccc(F)cc3)c2=O)c(=O)n(-c2ccccc2Cl)n1C (3D coordinates assigned)
Cc1c(N=Cc2c([O-])[nH]c(=O)n(-c3ccc(F)cc3)c2=O)c(=O)n(-c2ccccc2Cl)n1C (optimized conformer: 117.47404351758165 kcal/mol)

>  <smiles>  (12) 
Cc1c(N=Cc2c(O)[nH]c(=O)n(-c3ccc(F)cc3)c2=O)c(=O)n(-c2ccccc2Cl)n1C

>  <score_type>  (12) 
oracle

>  <origin>  (12) 
adgpu

>  <m_score__min__energy>  (12) 
-11.32

>  <m_primary>  (12) 
energy

$$$$
12:0
     RDKit          3D

 27 28  0  0  0  0  0  0  0  0999 V2000
   -1.6080   25.6720  -29.3340 O   0  0  0  0  0  0  0  0  0  0  0  0
   -1.0500   24.6000  -28.9790 C   0  0  0  0  0  0  0  0  0  0  0  0
    0.3380   24.5370  -28.9630 O   0  0  0  0  0  0  0  0  0  0  0  0
   -1.8680   23.4130  -28.6320 C   0  0  0  0  0  0  0  0  0  0  0  0
   -1.4490   22.6000  -27.5600 C   0  0  0  0  0  0  0  0  0  0  0  0
   -2.2300   21.5260  -27.1320 C   0  0  0  0  0  0  0  0  0  0  0  0
   -3.4420   21.2480  -27.7600 C   0  0  0  0  0  0  0  0  0  0  0  0
   -3.8670   22.0270  -28.8360 C   0  0  0  0  0  0  0  0  0  0  0  0
   -3.0810   23.0970  -29.3020 C   0  0  0  0  0  0  0  0  0  0  0  0
   -3.5320   23.8060  -30.5220 C   0  0  0  0  0  0  0  0  0  0  0  0
   -3.7240   25.0490  -30.4720 O   0  0  0  0  0  0  0  0  0  0  0  0
   -3.7450   23.1230  -31.7660 N   0  0  0  0  0  0  0  0  0  0  0  0
   -4.8480   22.2610  -32.0870 C   0  0  0  0  0  0  0  0  0  0  0  0
   -6.1720   22.6010  -31.7590 C   0  0  0  0  0  0  0  0  0  0  0  0
   -7.2220   21.7350  -32.0770 C   0  0  0  0  0  0  0  0  0  0  0  0
   -9.0100   22.2150  -31.5960 Br  0  0  0  0  0  0  0  0  0  0  0  0
   -6.9600   20.5320  -32.7480 C   0  0  0  0  0  0  0  0  0  0  0  0
   -8.0030   19.6680  -33.0640 O   0  0  0  0  0  0  0  0  0  0  0  0
   -5.6440   20.2040  -33.1040 C   0  0  0  0  0  0  0  0  0  0  0  0
   -5.2600   18.5730  -34.0270 Br  0  0  0  0  0  0  0  0  0  0  0  0
   -4.5950   21.0720  -32.7800 C   0  0  0  0  0  0  0  0  0  0  0  0
   -0.4956   22.8145  -27.0550 H   0  0  0  0  0  0  0  0  0  0  0  0
   -1.8879   20.8973  -26.2967 H   0  0  0  0  0  0  0  0  0  0  0  0
   -4.0647   20.4129  -27.4067 H   0  0  0  0  0  0  0  0  0  0  0  0
   -4.8263   21.8026  -29.3253 H   0  0  0  0  0  0  0  0  0  0  0  0
   -6.3826   23.5530  -31.2497 H   0  0  0  0  0  0  0  0  0  0  0  0
   -3.5653   20.8180  -33.0719 H   0  0  0  0  0  0  0  0  0  0  0  0
  1  2  2  0
  2  3  1  0
  2  4  1  0
  4  5  2  0
  5  6  1  0
  6  7  2  0
  7  8  1  0
  8  9  2  0
  9 10  1  0
 10 11  2  0
 10 12  1  0
 12 13  1  0
 13 14  2  0
 14 15  1  0
 15 16  1  0
 15 17  2  0
 17 18  1  0
 17 19  1  0
 19 20  1  0
 19 21  2  0
  9  4  1  0
 21 13  1  0
  5 22  1  0
  6 23  1  0
  7 24  1  0
  8 25  1  0
 14 26  1  0
 21 27  1  0
M  CHG  3   3  -1  12  -1  18  -1
M  END
>  <UniqueID>  (13) 
11

>  <SMILES>  (13) 
O=C([O-])c1ccccc1C(=O)[N-]c1cc(Br)c([O-])c(Br)c1

>  <Energy>  (13) 
41.21571405554051

>  <Genealogy>  (13) 
O=C([O-])c1ccccc1C(=O)[N-]c1cc(Br)c([O-])c(Br)c1 (protonated)
O=C([O-])c1ccccc1C(=O)[N-]c1cc(Br)c([O-])c(Br)c1 (3D coordinates assigned)
O=C([O-])c1ccccc1C(=O)[N-]c1cc(Br)c([O-])c(Br)c1 (optimized conformer: 41.21571405554051 kcal/mol)

>  <smiles>  (13) 
O=C(O)c1ccccc1C(=O)Nc1cc(Br)c(O)c(Br)c1

>  <score_type>  (13) 
oracle

>  <origin>  (13) 
adgpu

>  <m_score__min__energy>  (13) 
-10.84

>  <m_primary>  (13) 
energy

$$$$
13:0
     RDKit          3D

 37 39  0  0  0  0  0  0  0  0999 V2000
   -2.4910   24.1610  -29.3690 C   0  0  0  0  0  0  0  0  0  0  0  0
   -3.3580   24.8270  -30.2820 O   0  0  0  0  0  0  0  0  0  0  0  0
   -4.7040   24.4860  -30.4870 C   0  0  0  0  0  0  0  0  0  0  0  0
   -5.7520   25.0880  -29.7670 C   0  0  0  0  0  0  0  0  0  0  0  0
   -7.0770   24.7150  -30.0110 C   0  0  0  0  0  0  0  0  0  0  0  0
   -7.3680   23.7410  -30.9670 C   0  0  0  0  0  0  0  0  0  0  0  0
   -6.3330   23.1280  -31.6900 C   0  0  0  0  0  0  0  0  0  0  0  0
   -6.6410   22.0600  -32.7170 C   0  0  0  0  0  0  0  0  0  0  0  0
   -6.9620   20.7500  -32.0980 N   0  0  2  0  0  0  0  0  0  0  0  0
   -6.6850   19.5860  -32.9380 C   0  0  0  0  0  0  0  0  0  0  0  0
   -5.9600   19.6580  -34.1550 C   0  0  0  0  0  0  0  0  0  0  0  0
   -5.6690   18.5020  -34.8830 C   0  0  0  0  0  0  0  0  0  0  0  0
   -6.0830   17.2550  -34.4200 C   0  0  0  0  0  0  0  0  0  0  0  0
   -6.7980   17.1560  -33.2280 C   0  0  0  0  0  0  0  0  0  0  0  0
   -7.1010   18.3080  -32.4860 C   0  0  0  0  0  0  0  0  0  0  0  0
   -7.9160   18.2030  -31.2240 C   0  0  0  0  0  0  0  0  0  0  0  0
   -9.1130   19.0330  -31.3290 N   0  0  0  0  0  0  0  0  0  0  0  0
   -8.6460   20.6840  -31.6090 S   0  0  0  0  0  0  0  0  0  0  0  0
   -8.8400   21.4620  -30.3370 O   0  0  0  0  0  0  0  0  0  0  0  0
   -9.5240   21.2590  -32.6850 O   0  0  0  0  0  0  0  0  0  0  0  0
   -5.0040   23.5100  -31.4460 C   0  0  0  0  0  0  0  0  0  0  0  0
   -2.7950   24.3945  -28.3380 H   0  0  0  0  0  0  0  0  0  0  0  0
   -2.5514   23.0748  -29.5320 H   0  0  0  0  0  0  0  0  0  0  0  0
   -1.4571   24.4993  -29.5320 H   0  0  0  0  0  0  0  0  0  0  0  0
   -5.5283   25.8542  -29.0101 H   0  0  0  0  0  0  0  0  0  0  0  0
   -7.8930   25.1909  -29.4475 H   0  0  0  0  0  0  0  0  0  0  0  0
   -8.4128   23.4525  -31.1547 H   0  0  0  0  0  0  0  0  0  0  0  0
   -7.5027   22.3866  -33.3176 H   0  0  0  0  0  0  0  0  0  0  0  0
   -5.7427   21.9247  -33.3372 H   0  0  0  0  0  0  0  0  0  0  0  0
   -6.3790   20.6480  -31.2360 H   0  0  0  0  0  0  0  0  0  0  0  0
   -5.6230   20.6357  -34.5299 H   0  0  0  0  0  0  0  0  0  0  0  0
   -5.1098   18.5767  -35.8273 H   0  0  0  0  0  0  0  0  0  0  0  0
   -5.8454   16.3482  -34.9955 H   0  0  0  0  0  0  0  0  0  0  0  0
   -7.1265   16.1702  -32.8670 H   0  0  0  0  0  0  0  0  0  0  0  0
   -8.2124   17.1552  -31.0684 H   0  0  0  0  0  0  0  0  0  0  0  0
   -7.3102   18.5508  -30.3743 H   0  0  0  0  0  0  0  0  0  0  0  0
   -4.1893   23.0375  -32.0143 H   0  0  0  0  0  0  0  0  0  0  0  0
  1  2  1  0
  2  3  1  0
  3  4  2  0
  4  5  1  0
  5  6  2  0
  6  7  1  0
  7  8  1  0
  8  9  1  0
  9 10  1  0
 10 11  2  0
 11 12  1  0
 12 13  2  0
 13 14  1  0
 14 15  2  0
 15 16  1  0
 16 17  1  0
 17 18  1  0
 18 19  2  0
 18 20  2  0
  7 21  2  0
 21  3  1  0
 18  9  1  0
 15 10  1  0
  1 22  1  0
  1 23  1  0
  1 24  1  0
  4 25  1  0
  5 26  1  0
  6 27  1  0
  8 28  1  0
  8 29  1  0
  9 30  1  1
 11 31  1  0
 12 32  1  0
 13 33  1  0
 14 34  1  0
 16 35  1  0
 16 36  1  0
 21 37  1  0
M  CHG  2   9   1  17  -1
M  END
>  <UniqueID>  (14) 
12

>  <SMILES>  (14) 
COc1cccc(C[N@@H+]2c3ccccc3C[N-]S2(=O)=O)c1

>  <Energy>  (14) 
47.38708310655468

>  <Genealogy>  (14) 
COc1cccc(C[NH+]2c3ccccc3C[N-]S2(=O)=O)c1 (protonated)
COc1cccc(C[N@@H+]2c3ccccc3C[N-]S2(=O)=O)c1 (chirality)
COc1cccc(C[N@@H+]2c3ccccc3C[N-]S2(=O)=O)c1 (3D coordinates assigned)
COc1cccc(C[N@@H+]2c3ccccc3C[N-]S2(=O)=O)c1 (nonaromatic ring conformer: 47.38708310655468 kcal/mol)

>  <smiles>  (14) 
COc1cccc(CN2c3ccccc3CNS2(=O)=O)c1

>  <score_type>  (14) 
oracle

>  <origin>  (14) 
adgpu

>  <m_score__min__energy>  (14) 
-8.1899999999999995

>  <m_primary>  (14) 
energy

$$$$
14:0
     RDKit          3D

 52 56  0  0  0  0  0  0  0  0999 V2000
   -2.5971   23.7450  -29.9979 H   0  0  0  0  0  0  0  0  0  0  0  0
   -3.6140   24.1340  -30.1550 C   0  0  0  0  0  0  0  0  0  0  0  0
   -4.7210   23.4980  -29.7220 N   0  0  0  0  0  0  0  0  0  0  0  0
   -5.7240   24.2980  -30.1230 C   0  0  0  0  0  0  0  0  0  0  0  0
   -7.1730   24.0220  -29.8670 C   0  0  0  0  0  0  0  0  0  0  0  0
   -7.6666   24.9514  -29.5466 H   0  0  0  0  0  0  0  0  0  0  0  0
   -7.2540   23.2566  -29.0811 H   0  0  0  0  0  0  0  0  0  0  0  0
   -7.8260   23.5240  -31.0780 N   0  0  0  0  0  0  0  0  0  0  0  0
   -8.5050   24.1640  -31.5490 H   0  0  0  0  0  0  0  0  0  0  0  0
   -7.5760   22.2330  -31.6710 C   0  0  0  0  0  0  0  0  0  0  0  0
   -8.6640   21.4180  -32.0080 C   0  0  0  0  0  0  0  0  0  0  0  0
   -9.6880   21.7667  -31.8084 H   0  0  0  0  0  0  0  0  0  0  0  0
   -8.4620   20.1690  -32.5940 C   0  0  0  0  0  0  0  0  0  0  0  0
   -9.3273   19.5407  -32.8518 H   0  0  0  0  0  0  0  0  0  0  0  0
   -7.1650   19.7080  -32.8570 C   0  0  0  0  0  0  0  0  0  0  0  0
   -6.0490   20.5100  -32.5220 C   0  0  0  0  0  0  0  0  0  0  0  0
   -6.2700   21.7710  -31.9250 C   0  0  0  0  0  0  0  0  0  0  0  0
   -5.4098   22.4011  -31.6546 H   0  0  0  0  0  0  0  0  0  0  0  0
   -4.7410   20.0420  -32.8130 C   0  0  0  0  0  0  0  0  0  0  0  0
   -3.7290   20.8300  -32.5380 N   0  0  0  0  0  0  0  0  0  0  0  0
   -2.3460   20.6900  -32.8790 C   0  0  0  0  0  0  0  0  0  0  0  0
   -1.3960   20.3880  -31.8920 C   0  0  0  0  0  0  0  0  0  0  0  0
   -1.7071   20.2982  -30.8408 H   0  0  0  0  0  0  0  0  0  0  0  0
   -0.0560   20.2010  -32.2400 C   0  0  0  0  0  0  0  0  0  0  0  0
    0.6868   19.9757  -31.4606 H   0  0  0  0  0  0  0  0  0  0  0  0
    0.3460   20.3000  -33.5840 C   0  0  0  0  0  0  0  0  0  0  0  0
    1.6810   20.1130  -33.9740 O   0  0  0  0  0  0  0  0  0  0  0  0
    2.4440   21.0250  -34.7170 C   0  0  0  0  0  0  0  0  0  0  0  0
    1.8720   22.2560  -35.0640 C   0  0  0  0  0  0  0  0  0  0  0  0
    0.8394   22.4842  -34.7614 H   0  0  0  0  0  0  0  0  0  0  0  0
    2.6070   23.1960  -35.7930 C   0  0  0  0  0  0  0  0  0  0  0  0
    2.1478   24.1562  -36.0708 H   0  0  0  0  0  0  0  0  0  0  0  0
    3.9230   22.9180  -36.1690 C   0  0  0  0  0  0  0  0  0  0  0  0
    4.4973   23.6564  -36.7478 H   0  0  0  0  0  0  0  0  0  0  0  0
    4.5100   21.7020  -35.8100 C   0  0  0  0  0  0  0  0  0  0  0  0
    5.5490   21.4867  -36.1002 H   0  0  0  0  0  0  0  0  0  0  0  0
    3.7780   20.7580  -35.0820 C   0  0  0  0  0  0  0  0  0  0  0  0
    4.2453   19.8048  -34.7939 H   0  0  0  0  0  0  0  0  0  0  0  0
   -0.6170   20.5410  -34.5720 C   0  0  0  0  0  0  0  0  0  0  0  0
   -0.3170   20.5826  -35.6295 H   0  0  0  0  0  0  0  0  0  0  0  0
   -1.9570   20.7290  -34.2220 C   0  0  0  0  0  0  0  0  0  0  0  0
   -2.7082   20.9082  -35.0053 H   0  0  0  0  0  0  0  0  0  0  0  0
   -4.5990   18.7390  -33.3740 C   0  0  0  0  0  0  0  0  0  0  0  0
   -3.3300   18.0700  -33.5450 C   0  0  0  0  0  0  0  0  0  0  0  0
   -2.3180   17.5240  -33.6830 N   0  0  0  0  0  0  0  0  0  0  0  0
   -5.7430   17.9970  -33.6840 C   0  0  0  0  0  0  0  0  0  0  0  0
   -5.6364   17.0000  -34.1363 H   0  0  0  0  0  0  0  0  0  0  0  0
   -6.9820   18.4890  -33.4350 N   0  0  0  0  0  0  0  0  0  0  0  0
   -7.8070   17.8960  -33.6820 H   0  0  0  0  0  0  0  0  0  0  0  0
   -5.2090   25.3930  -30.7740 C   0  0  0  0  0  0  0  0  0  0  0  0
   -5.7970   26.2171  -31.2042 H   0  0  0  0  0  0  0  0  0  0  0  0
   -3.8690   25.2920  -30.7990 N   0  0  0  0  0  0  0  0  0  0  0  0
  1  2  1  0
  2  3  2  0
  3  4  1  0
  4  5  1  0
  5  6  1  0
  5  7  1  0
  5  8  1  0
  8  9  1  0
  8 10  1  0
 10 11  2  0
 11 12  1  0
 11 13  1  0
 13 14  1  0
 13 15  2  0
 15 16  1  0
 16 17  2  0
 17 18  1  0
 16 19  1  0
 19 20  2  0
 20 21  1  0
 21 22  2  0
 22 23  1  0
 22 24  1  0
 24 25  1  0
 24 26  2  0
 26 27  1  0
 27 28  1  0
 28 29  2  0
 29 30  1  0
 29 31  1  0
 31 32  1  0
 31 33  2  0
 33 34  1  0
 33 35  1  0
 35 36  1  0
 35 37  2  0
 37 38  1  0
 26 39  1  0
 39 40  1  0
 39 41  2  0
 41 42  1  0
 19 43  1  0
 43 44  1  0
 44 45  3  0
 43 46  2  0
 46 47  1  0
 46 48  1  0
 48 49  1  0
  4 50  2  0
 50 51  1  0
 50 52  1  0
 52  2  1  0
 17 10  1  0
 41 21  1  0
 48 15  1  0
 37 28  1  0
M  CHG  1  52  -1
M  END
>  <UniqueID>  (15) 
13

>  <SMILES>  (15) 
N#Cc1c[nH]c2ccc(NCc3c[n-]cn3)cc2/c1=N/c1ccc(Oc2ccccc2)cc1

>  <Energy>  (15) 
111.32441790025395

>  <Genealogy>  (15) 
N#Cc1c[nH]c2ccc(NCc3c[n-]cn3)cc2c1=Nc1ccc(Oc2ccccc2)cc1 (protonated)
N#Cc1c[nH]c2ccc(NCc3c[n-]cn3)cc2/c1=N/c1ccc(Oc2ccccc2)cc1 (cis-trans isomerization)
N#Cc1c[nH]c2ccc(NCc3c[n-]cn3)cc2/c1=N/c1ccc(Oc2ccccc2)cc1 (3D coordinates assigned)
N#Cc1c[nH]c2ccc(NCc3c[n-]cn3)cc2/c1=N/c1ccc(Oc2ccccc2)cc1 (optimized conformer: 111.32441790025395 kcal/mol)

>  <smiles>  (15) 
N#Cc1c[nH]c2ccc(NCc3c[nH]cn3)cc2c1=Nc1ccc(Oc2ccccc2)cc1

>  <score_type>  (15) 
oracle

>  <origin>  (15) 
adgpu

>  <m_score__min__energy>  (15) 
-11.34

>  <m_primary>  (15) 
energy

$$$$
15:0
     RDKit          3D

 48 51  0  0  0  0  0  0  0  0999 V2000
   -5.6120   17.9700  -34.9090 C   0  0  0  0  0  0  0  0  0  0  0  0
   -6.3050   19.0760  -34.2610 N   0  0  0  0  0  0  0  0  0  0  0  0
   -6.2280   19.2860  -32.8420 C   0  0  0  0  0  0  0  0  0  0  0  0
   -5.5480   18.4910  -32.1360 O   0  0  0  0  0  0  0  0  0  0  0  0
   -6.9610   20.3950  -32.1830 C   0  0  0  0  0  0  0  0  0  0  0  0
   -8.2990   20.6540  -32.5320 C   0  0  0  0  0  0  0  0  0  0  0  0
   -8.9880   21.7260  -31.9590 C   0  0  0  0  0  0  0  0  0  0  0  0
   -8.3520   22.5540  -31.0330 C   0  0  0  0  0  0  0  0  0  0  0  0
   -7.0270   22.3030  -30.6550 C   0  0  0  0  0  0  0  0  0  0  0  0
   -6.3170   23.2440  -29.7190 C   0  0  0  0  0  0  0  0  0  0  0  0
   -5.2690   24.4280  -30.6420 S   0  0  0  0  0  0  0  0  0  0  0  0
   -3.9360   23.2550  -30.9600 C   0  0  0  0  0  0  0  0  0  0  0  0
   -3.9920   22.5330  -32.1080 N   0  0  0  0  0  0  0  0  0  0  0  0
   -3.0850   21.5650  -32.3830 C   0  0  0  0  0  0  0  0  0  0  0  0
   -3.2030   20.8100  -33.5550 C   0  0  0  0  0  0  0  0  0  0  0  0
   -2.2880   19.7870  -33.8220 C   0  0  0  0  0  0  0  0  0  0  0  0
   -1.2520   19.5210  -32.9230 C   0  0  0  0  0  0  0  0  0  0  0  0
   -1.1250   20.2740  -31.7520 C   0  0  0  0  0  0  0  0  0  0  0  0
   -2.0470   21.3020  -31.4710 C   0  0  0  0  0  0  0  0  0  0  0  0
   -1.9840   22.0710  -30.2960 C   0  0  0  0  0  0  0  0  0  0  0  0
   -1.0530   21.8710  -29.4640 O   0  0  0  0  0  0  0  0  0  0  0  0
   -2.9280   23.0360  -30.0540 N   0  0  0  0  0  0  0  0  0  0  0  0
   -2.8630   23.8070  -28.8400 C   0  0  0  0  0  0  0  0  0  0  0  0
   -1.7710   24.6550  -28.5960 C   0  0  0  0  0  0  0  0  0  0  0  0
   -1.7130   25.4020  -27.4150 C   0  0  0  0  0  0  0  0  0  0  0  0
   -2.7400   25.3040  -26.4720 C   0  0  0  0  0  0  0  0  0  0  0  0
   -3.8260   24.4570  -26.7060 C   0  0  0  0  0  0  0  0  0  0  0  0
   -3.8880   23.7070  -27.8850 C   0  0  0  0  0  0  0  0  0  0  0  0
   -6.3420   21.2110  -31.2180 C   0  0  0  0  0  0  0  0  0  0  0  0
   -5.1928   17.3009  -34.1431 H   0  0  0  0  0  0  0  0  0  0  0  0
   -6.3211   17.4102  -35.5365 H   0  0  0  0  0  0  0  0  0  0  0  0
   -4.7990   18.3640  -35.5365 H   0  0  0  0  0  0  0  0  0  0  0  0
   -6.9170   19.6770  -34.8540 H   0  0  0  0  0  0  0  0  0  0  0  0
   -8.8071   20.0070  -33.2622 H   0  0  0  0  0  0  0  0  0  0  0  0
  -10.0345   21.9178  -32.2385 H   0  0  0  0  0  0  0  0  0  0  0  0
   -8.8935   23.4071  -30.5983 H   0  0  0  0  0  0  0  0  0  0  0  0
   -7.0643   23.8037  -29.1374 H   0  0  0  0  0  0  0  0  0  0  0  0
   -5.6716   22.6525  -29.0529 H   0  0  0  0  0  0  0  0  0  0  0  0
   -4.0153   21.0211  -34.2661 H   0  0  0  0  0  0  0  0  0  0  0  0
   -2.3839   19.1906  -34.7413 H   0  0  0  0  0  0  0  0  0  0  0  0
   -0.5336   18.7161  -33.1374 H   0  0  0  0  0  0  0  0  0  0  0  0
   -0.3049   20.0639  -31.0496 H   0  0  0  0  0  0  0  0  0  0  0  0
   -0.9597   24.7320  -29.3349 H   0  0  0  0  0  0  0  0  0  0  0  0
   -0.8576   26.0678  -27.2280 H   0  0  0  0  0  0  0  0  0  0  0  0
   -2.6931   25.8942  -25.5449 H   0  0  0  0  0  0  0  0  0  0  0  0
   -4.6330   24.3798  -25.9625 H   0  0  0  0  0  0  0  0  0  0  0  0
   -4.7418   23.0371  -28.0647 H   0  0  0  0  0  0  0  0  0  0  0  0
   -5.3117   20.9926  -30.9006 H   0  0  0  0  0  0  0  0  0  0  0  0
  1  2  1  0
  2  3  1  0
  3  4  2  0
  3  5  1  0
  5  6  2  0
  6  7  1  0
  7  8  2  0
  8  9  1  0
  9 10  1  0
 10 11  1  0
 11 12  1  0
 12 13  2  0
 13 14  1  0
 14 15  2  0
 15 16  1  0
 16 17  2  0
 17 18  1  0
 18 19  2  0
 19 20  1  0
 20 21  2  0
 20 22  1  0
 22 23  1  0
 23 24  2  0
 24 25  1  0
 25 26  2  0
 26 27  1  0
 27 28  2  0
  9 29  2  0
 29  5  1  0
 22 12  1  0
 28 23  1  0
 19 14  1  0
  1 30  1  0
  1 31  1  0
  1 32  1  0
  2 33  1  0
  6 34  1  0
  7 35  1  0
  8 36  1  0
 10 37  1  0
 10 38  1  0
 15 39  1  0
 16 40  1  0
 17 41  1  0
 18 42  1  0
 24 43  1  0
 25 44  1  0
 26 45  1  0
 27 46  1  0
 28 47  1  0
 29 48  1  0
M  END
>  <UniqueID>  (16) 
14

>  <SMILES>  (16) 
CNC(=O)c1cccc(CSc2nc3ccccc3c(=O)n2-c2ccccc2)c1

>  <Energy>  (16) 
57.80208413859793

>  <Genealogy>  (16) 
CNC(=O)c1cccc(CSc2nc3ccccc3c(=O)n2-c2ccccc2)c1 (3D coordinates assigned)
CNC(=O)c1cccc(CSc2nc3ccccc3c(=O)n2-c2ccccc2)c1 (optimized conformer: 57.80208413859793 kcal/mol)

>  <smiles>  (16) 
CNC(=O)c1cccc(CSc2nc3ccccc3c(=O)n2-c2ccccc2)c1

>  <score_type>  (16) 
oracle

>  <origin>  (16) 
adgpu

>  <m_score__min__energy>  (16) 
-10.359999999999999

>  <m_primary>  (16) 
energy

$$$$
16:0
     RDKit          3D

 31 32  0  0  0  0  0  0  0  0999 V2000
   -6.0610   17.9600  -32.8490 C   0  0  0  0  0  0  0  0  0  0  0  0
   -6.8670   18.9260  -33.5170 O   0  0  0  0  0  0  0  0  0  0  0  0
   -7.4740   20.0260  -32.8890 C   0  0  0  0  0  0  0  0  0  0  0  0
   -8.8470   20.0420  -32.5770 C   0  0  0  0  0  0  0  0  0  0  0  0
   -9.4160   21.1560  -31.9550 C   0  0  0  0  0  0  0  0  0  0  0  0
   -8.6250   22.2590  -31.6360 C   0  0  0  0  0  0  0  0  0  0  0  0
   -7.2620   22.2540  -31.9390 C   0  0  0  0  0  0  0  0  0  0  0  0
   -6.6770   21.1400  -32.5700 C   0  0  0  0  0  0  0  0  0  0  0  0
   -5.2820   21.1070  -32.9010 N   0  0  0  0  0  0  0  0  0  0  0  0
   -4.0020   20.6670  -31.8160 S   0  0  0  0  0  0  0  0  0  0  0  0
   -4.5250   19.6690  -30.8210 O   0  0  0  0  0  0  0  0  0  0  0  0
   -2.8870   20.0370  -32.6010 O   0  0  0  0  0  0  0  0  0  0  0  0
   -3.3860   22.0980  -30.9960 C   0  0  0  0  0  0  0  0  0  0  0  0
   -2.2220   22.0140  -30.2200 C   0  0  0  0  0  0  0  0  0  0  0  0
   -1.7240   23.1490  -29.5760 C   0  0  0  0  0  0  0  0  0  0  0  0
   -2.3880   24.3740  -29.6990 C   0  0  0  0  0  0  0  0  0  0  0  0
   -1.8850   25.4990  -29.0550 O   0  0  0  0  0  0  0  0  0  0  0  0
   -3.5540   24.4660  -30.4680 C   0  0  0  0  0  0  0  0  0  0  0  0
   -4.2120   25.6890  -30.5850 O   0  0  0  0  0  0  0  0  0  0  0  0
   -4.0530   23.3250  -31.1150 C   0  0  0  0  0  0  0  0  0  0  0  0
   -6.1651   18.0848  -31.7611 H   0  0  0  0  0  0  0  0  0  0  0  0
   -6.3874   16.9492  -33.1350 H   0  0  0  0  0  0  0  0  0  0  0  0
   -5.0081   18.1000  -33.1350 H   0  0  0  0  0  0  0  0  0  0  0  0
   -9.4746   19.1731  -32.8242 H   0  0  0  0  0  0  0  0  0  0  0  0
  -10.4898   21.1630  -31.7165 H   0  0  0  0  0  0  0  0  0  0  0  0
   -9.0753   23.1343  -31.1450 H   0  0  0  0  0  0  0  0  0  0  0  0
   -6.6418   23.1257  -31.6831 H   0  0  0  0  0  0  0  0  0  0  0  0
   -1.6992   21.0516  -30.1178 H   0  0  0  0  0  0  0  0  0  0  0  0
   -0.8080   23.0794  -28.9710 H   0  0  0  0  0  0  0  0  0  0  0  0
   -3.8680   26.5230  -30.1250 H   0  0  0  0  0  0  0  0  0  0  0  0
   -4.9707   23.3938  -31.7176 H   0  0  0  0  0  0  0  0  0  0  0  0
  1  2  1  0
  2  3  1  0
  3  4  2  0
  4  5  1  0
  5  6  2  0
  6  7  1  0
  7  8  2  0
  8  9  1  0
  9 10  1  0
 10 11  2  0
 10 12  2  0
 10 13  1  0
 13 14  2  0
 14 15  1  0
 15 16  2  0
 16 17  1  0
 16 18  1  0
 18 19  1  0
 18 20  2  0
  8  3  1  0
 20 13  1  0
  1 21  1  0
  1 22  1  0
  1 23  1  0
  4 24  1  0
  5 25  1  0
  6 26  1  0
  7 27  1  0
 14 28  1  0
 15 29  1  0
 19 30  1  0
 20 31  1  0
M  CHG  2   9  -1  17  -1
M  END
>  <UniqueID>  (17) 
15

>  <SMILES>  (17) 
COc1ccccc1[N-]S(=O)(=O)c1ccc([O-])c(O)c1

>  <Energy>  (17) 
34.23293014948814

>  <Genealogy>  (17) 
COc1ccccc1[N-]S(=O)(=O)c1ccc([O-])c(O)c1 (protonated)
COc1ccccc1[N-]S(=O)(=O)c1ccc([O-])c(O)c1 (3D coordinates assigned)
COc1ccccc1[N-]S(=O)(=O)c1ccc([O-])c(O)c1 (optimized conformer: 34.23293014948814 kcal/mol)

>  <smiles>  (17) 
COc1ccccc1NS(=O)(=O)c1ccc(O)c(O)c1

>  <score_type>  (17) 
oracle

>  <origin>  (17) 
adgpu

>  <m_score__min__energy>  (17) 
-9.9600000000000009

>  <m_primary>  (17) 
energy

$$$$
17:0
     RDKit          3D

 41 43  0  0  0  0  0  0  0  0999 V2000
   -9.4680   21.6500  -30.7470 C   0  0  0  0  0  0  0  0  0  0  0  0
   -8.5490   20.7930  -31.5670 C   0  0  0  0  0  0  0  0  0  0  0  0
   -8.6990   19.3990  -31.5700 C   0  0  0  0  0  0  0  0  0  0  0  0
   -7.8300   18.5960  -32.3150 C   0  0  0  0  0  0  0  0  0  0  0  0
   -6.7930   19.1790  -33.0620 C   0  0  0  0  0  0  0  0  0  0  0  0
   -5.8940   18.3470  -33.8830 C   0  0  0  0  0  0  0  0  0  0  0  0
   -5.8600   18.3450  -35.2310 N   0  0  0  0  0  0  0  0  0  0  0  0
   -4.9100   17.4910  -35.5810 N   0  0  0  0  0  0  0  0  0  0  0  0
   -4.4010   17.0110  -34.4320 C   0  0  0  0  0  0  0  0  0  0  0  0
   -3.0460   15.8420  -34.3260 S   0  0  0  0  0  0  0  0  0  0  0  0
   -2.0710   16.7920  -33.1000 C   0  0  0  0  0  0  0  0  0  0  0  0
   -1.9030   18.2400  -33.4600 C   0  0  0  0  0  0  0  0  0  0  0  0
   -2.0190   18.5880  -34.6660 O   0  0  0  0  0  0  0  0  0  0  0  0
   -1.5380   19.2000  -32.4610 N   0  0  0  0  0  0  0  0  0  0  0  0
   -2.2750   20.3880  -32.1310 C   0  0  0  0  0  0  0  0  0  0  0  0
   -3.2140   20.9530  -33.0150 C   0  0  0  0  0  0  0  0  0  0  0  0
   -3.9680   22.0640  -32.6280 C   0  0  0  0  0  0  0  0  0  0  0  0
   -3.8100   22.6140  -31.3490 C   0  0  0  0  0  0  0  0  0  0  0  0
   -4.7790   23.9950  -30.8450 S   0  0  0  0  0  0  0  0  0  0  0  0
   -3.7380   25.2900  -30.3730 N   0  0  0  0  0  0  0  0  0  0  0  0
   -5.6530   23.6020  -29.6870 O   0  0  0  0  0  0  0  0  0  0  0  0
   -5.6540   24.4510  -31.9780 O   0  0  0  0  0  0  0  0  0  0  0  0
   -2.8800   22.0510  -30.4660 C   0  0  0  0  0  0  0  0  0  0  0  0
   -2.1220   20.9410  -30.8540 C   0  0  0  0  0  0  0  0  0  0  0  0
   -5.0030   17.5220  -33.3900 O   0  0  0  0  0  0  0  0  0  0  0  0
   -6.6300   20.5740  -33.0390 C   0  0  0  0  0  0  0  0  0  0  0  0
   -7.4980   21.3740  -32.2920 C   0  0  0  0  0  0  0  0  0  0  0  0
   -9.2781   21.4729  -29.6781 H   0  0  0  0  0  0  0  0  0  0  0  0
   -9.2873   22.7095  -30.9809 H   0  0  0  0  0  0  0  0  0  0  0  0
  -10.5124   21.3958  -30.9809 H   0  0  0  0  0  0  0  0  0  0  0  0
   -9.5049   18.9344  -30.9829 H   0  0  0  0  0  0  0  0  0  0  0  0
   -7.9589   17.5036  -32.3162 H   0  0  0  0  0  0  0  0  0  0  0  0
   -2.5815   16.7321  -32.1275 H   0  0  0  0  0  0  0  0  0  0  0  0
   -1.0654   16.3470  -33.0717 H   0  0  0  0  0  0  0  0  0  0  0  0
   -3.3548   20.5176  -34.0153 H   0  0  0  0  0  0  0  0  0  0  0  0
   -4.6885   22.5086  -33.3303 H   0  0  0  0  0  0  0  0  0  0  0  0
   -3.4980   25.8210  -31.2400 H   0  0  0  0  0  0  0  0  0  0  0  0
   -2.7450   22.4833  -29.4635 H   0  0  0  0  0  0  0  0  0  0  0  0
   -1.4006   20.4996  -30.1506 H   0  0  0  0  0  0  0  0  0  0  0  0
   -5.8145   21.0390  -33.6123 H   0  0  0  0  0  0  0  0  0  0  0  0
   -7.3567   22.4647  -32.2722 H   0  0  0  0  0  0  0  0  0  0  0  0
  1  2  1  0
  2  3  2  0
  3  4  1  0
  4  5  2  0
  5  6  1  0
  6  7  2  0
  7  8  1  0
  8  9  2  0
  9 10  1  0
 10 11  1  0
 11 12  1  0
 12 13  2  0
 12 14  1  0
 14 15  1  0
 15 16  2  0
 16 17  1  0
 17 18  2  0
 18 19  1  0
 19 20  1  0
 19 21  2  0
 19 22  2  0
 18 23  1  0
 23 24  2  0
  9 25  1  0
  5 26  1  0
 26 27  2  0
 27  2  1  0
 25  6  1  0
 24 15  1  0
  1 28  1  0
  1 29  1  0
  1 30  1  0
  3 31  1  0
  4 32  1  0
 11 33  1  0
 11 34  1  0
 16 35  1  0
 17 36  1  0
 20 37  1  0
 23 38  1  0
 24 39  1  0
 26 40  1  0
 27 41  1  0
M  CHG  2  14  -1  20  -1
M  END
>  <UniqueID>  (18) 
16

>  <SMILES>  (18) 
Cc1ccc(-c2nnc(SCC(=O)[N-]c3ccc(S([NH-])(=O)=O)cc3)o2)cc1

>  <Energy>  (18) 
72.17062707046786

>  <Genealogy>  (18) 
Cc1ccc(-c2nnc(SCC(=O)[N-]c3ccc(S([NH-])(=O)=O)cc3)o2)cc1 (protonated)
Cc1ccc(-c2nnc(SCC(=O)[N-]c3ccc(S([NH-])(=O)=O)cc3)o2)cc1 (3D coordinates assigned)
Cc1ccc(-c2nnc(SCC(=O)[N-]c3ccc(S([NH-])(=O)=O)cc3)o2)cc1 (optimized conformer: 72.17062707046786 kcal/mol)

>  <smiles>  (18) 
Cc1ccc(-c2nnc(SCC(=O)Nc3ccc(S(N)(=O)=O)cc3)o2)cc1

>  <score_type>  (18) 
oracle

>  <origin>  (18) 
adgpu

>  <m_score__min__energy>  (18) 
-11.279999999999999

>  <m_primary>  (18) 
energy

$$$$
18:0
     RDKit          3D

 43 45  0  0  0  0  0  0  0  0999 V2000
   -3.5450   18.8920  -34.4730 O   0  0  0  0  0  0  0  0  0  0  0  0
   -4.6440   18.3100  -34.5590 N   0  0  0  0  0  0  0  0  0  0  0  0
   -4.9300   17.5900  -35.6990 O   0  0  0  0  0  0  0  0  0  0  0  0
   -5.6580   18.5150  -33.5570 C   0  0  0  0  0  0  0  0  0  0  0  0
   -5.7940   17.5990  -32.4960 C   0  0  0  0  0  0  0  0  0  0  0  0
   -6.7870   17.7890  -31.5280 C   0  0  0  0  0  0  0  0  0  0  0  0
   -7.6650   18.8790  -31.6220 C   0  0  0  0  0  0  0  0  0  0  0  0
   -7.5680   19.7800  -32.6900 C   0  0  0  0  0  0  0  0  0  0  0  0
   -8.5050   20.8700  -32.7630 N   0  0  0  0  0  0  0  0  0  0  0  0
   -8.6690   22.1470  -31.5880 S   0  0  0  0  0  0  0  0  0  0  0  0
   -9.6820   23.1430  -32.0850 O   0  0  0  0  0  0  0  0  0  0  0  0
   -9.1760   21.5600  -30.3010 O   0  0  0  0  0  0  0  0  0  0  0  0
   -7.1580   23.0060  -31.2870 C   0  0  0  0  0  0  0  0  0  0  0  0
   -7.1580   24.1960  -30.5480 C   0  0  0  0  0  0  0  0  0  0  0  0
   -5.9550   24.8480  -30.2610 C   0  0  0  0  0  0  0  0  0  0  0  0
   -4.7370   24.3350  -30.7390 C   0  0  0  0  0  0  0  0  0  0  0  0
   -3.4810   24.9760  -30.4710 N   0  0  0  0  0  0  0  0  0  0  0  0
   -2.3870   24.5290  -29.2000 S   0  0  0  0  0  0  0  0  0  0  0  0
   -3.1040   24.5800  -27.8770 O   0  0  0  0  0  0  0  0  0  0  0  0
   -1.2430   25.5070  -29.1570 O   0  0  0  0  0  0  0  0  0  0  0  0
   -1.7600   22.9050  -29.5160 C   0  0  0  0  0  0  0  0  0  0  0  0
   -1.7450   22.4180  -30.8350 C   0  0  0  0  0  0  0  0  0  0  0  0
   -1.2300   21.1510  -31.1180 C   0  0  0  0  0  0  0  0  0  0  0  0
   -1.2020   20.4990  -32.9140 Br  0  0  0  0  0  0  0  0  0  0  0  0
   -0.7350   20.3560  -30.0810 C   0  0  0  0  0  0  0  0  0  0  0  0
   -0.7400   20.8270  -28.7690 C   0  0  0  0  0  0  0  0  0  0  0  0
   -1.2470   22.0980  -28.4730 C   0  0  0  0  0  0  0  0  0  0  0  0
   -1.2320   22.5210  -27.1420 O   0  0  0  0  0  0  0  0  0  0  0  0
   -4.7440   23.1550  -31.4920 C   0  0  0  0  0  0  0  0  0  0  0  0
   -5.9450   22.4880  -31.7590 C   0  0  0  0  0  0  0  0  0  0  0  0
   -6.5330   19.6240  -33.6290 C   0  0  0  0  0  0  0  0  0  0  0  0
   -5.1190   16.7331  -32.4279 H   0  0  0  0  0  0  0  0  0  0  0  0
   -6.8792   17.0813  -30.6909 H   0  0  0  0  0  0  0  0  0  0  0  0
   -8.4355   19.0273  -30.8511 H   0  0  0  0  0  0  0  0  0  0  0  0
   -8.1088   24.6194  -30.1919 H   0  0  0  0  0  0  0  0  0  0  0  0
   -5.9619   25.7677  -29.6576 H   0  0  0  0  0  0  0  0  0  0  0  0
   -2.1422   23.0400  -31.6507 H   0  0  0  0  0  0  0  0  0  0  0  0
   -0.3394   19.3535  -30.3010 H   0  0  0  0  0  0  0  0  0  0  0  0
   -0.3428   20.1956  -27.9606 H   0  0  0  0  0  0  0  0  0  0  0  0
   -1.6670   23.3790  -26.8270 H   0  0  0  0  0  0  0  0  0  0  0  0
   -3.7973   22.7484  -31.8772 H   0  0  0  0  0  0  0  0  0  0  0  0
   -5.9365   21.5546  -32.3410 H   0  0  0  0  0  0  0  0  0  0  0  0
   -6.4027   20.3707  -34.4262 H   0  0  0  0  0  0  0  0  0  0  0  0
  1  2  2  0
  2  3  1  0
  2  4  1  0
  4  5  2  0
  5  6  1  0
  6  7  2  0
  7  8  1  0
  8  9  1  0
  9 10  1  0
 10 11  2  0
 10 12  2  0
 10 13  1  0
 13 14  2  0
 14 15  1  0
 15 16  2  0
 16 17  1  0
 17 18  1  0
 18 19  2  0
 18 20  2  0
 18 21  1  0
 21 22  2  0
 22 23  1  0
 23 24  1  0
 23 25  2  0
 25 26  1  0
 26 27  2  0
 27 28  1  0
 16 29  1  0
 29 30  2  0
  8 31  2  0
 31  4  1  0
 30 13  1  0
 27 21  1  0
  5 32  1  0
  6 33  1  0
  7 34  1  0
 14 35  1  0
 15 36  1  0
 22 37  1  0
 25 38  1  0
 26 39  1  0
 28 40  1  0
 29 41  1  0
 30 42  1  0
 31 43  1  0
M  CHG  4   2   1   3  -1   9  -1  17  -1
M  END
>  <UniqueID>  (19) 
17

>  <SMILES>  (19) 
O=[N+]([O-])c1cccc([N-]S(=O)(=O)c2ccc([N-]S(=O)(=O)c3cc(Br)ccc3O)cc2)c1

>  <Energy>  (19) 
58.20834627953658

>  <Genealogy>  (19) 
O=[N+]([O-])c1cccc([N-]S(=O)(=O)c2ccc([N-]S(=O)(=O)c3cc(Br)ccc3O)cc2)c1 (protonated)
O=[N+]([O-])c1cccc([N-]S(=O)(=O)c2ccc([N-]S(=O)(=O)c3cc(Br)ccc3O)cc2)c1 (3D coordinates assigned)
O=[N+]([O-])c1cccc([N-]S(=O)(=O)c2ccc([N-]S(=O)(=O)c3cc(Br)ccc3O)cc2)c1 (optimized conformer: 58.20834627953658 kcal/mol)

>  <smiles>  (19) 
O=[N+]([O-])c1cccc(NS(=O)(=O)c2ccc(NS(=O)(=O)c3cc(Br)ccc3O)cc2)c1

>  <score_type>  (19) 
oracle

>  <origin>  (19) 
adgpu

>  <m_score__min__energy>  (19) 
-11.710000000000001

>  <m_primary>  (19) 
energy

$$$$
19:0
     RDKit          3D

 55 57  0  0  0  0  0  0  0  0999 V2000
   -4.3910   24.5920  -27.2160 C   0  0  0  0  0  0  0  0  0  0  0  0
   -3.3780   23.5230  -27.4700 C   0  0  0  0  0  0  0  0  0  0  0  0
   -3.6380   22.3360  -27.1300 O   0  0  0  0  0  0  0  0  0  0  0  0
   -2.1470   23.8340  -28.1370 N   0  0  0  0  0  0  0  0  0  0  0  0
   -1.1610   22.8050  -28.4790 C   0  0  2  0  0  0  0  0  0  0  0  0
    0.2220   23.4320  -28.6670 C   0  0  0  0  0  0  0  0  0  0  0  0
   -1.5960   22.0620  -29.7230 C   0  0  0  0  0  0  0  0  0  0  0  0
   -2.6680   21.1540  -29.6830 C   0  0  0  0  0  0  0  0  0  0  0  0
   -3.0670   20.4750  -30.8380 C   0  0  0  0  0  0  0  0  0  0  0  0
   -2.3830   20.6770  -32.0490 C   0  0  0  0  0  0  0  0  0  0  0  0
   -2.7590   20.0280  -33.2350 O   0  0  0  0  0  0  0  0  0  0  0  0
   -3.9750   19.3640  -33.4610 C   0  0  0  0  0  0  0  0  0  0  0  0
   -4.0300   18.0630  -33.9890 C   0  0  0  0  0  0  0  0  0  0  0  0
   -5.2630   17.4360  -34.1820 C   0  0  0  0  0  0  0  0  0  0  0  0
   -6.4490   18.1070  -33.8820 C   0  0  0  0  0  0  0  0  0  0  0  0
   -6.4110   19.4310  -33.4070 C   0  0  0  0  0  0  0  0  0  0  0  0
   -7.5960   20.1630  -33.0550 N   0  0  0  0  0  0  0  0  0  0  0  0
   -8.3710   20.0740  -31.8520 C   0  0  0  0  0  0  0  0  0  0  0  0
   -9.1310   19.0930  -31.6380 O   0  0  0  0  0  0  0  0  0  0  0  0
   -8.3150   21.2000  -30.8640 C   0  0  0  0  0  0  0  0  0  0  0  0
   -8.2460   22.5670  -31.5600 C   0  0  0  0  0  0  0  0  0  0  0  0
   -6.9780   23.3050  -31.2150 C   0  0  0  0  0  0  0  0  0  0  0  0
   -5.7330   22.7750  -31.5930 C   0  0  0  0  0  0  0  0  0  0  0  0
   -4.5500   23.4420  -31.2600 C   0  0  0  0  0  0  0  0  0  0  0  0
   -4.6000   24.6400  -30.5390 C   0  0  0  0  0  0  0  0  0  0  0  0
   -3.4230   25.3000  -30.2040 O   0  0  0  0  0  0  0  0  0  0  0  0
   -5.8340   25.1700  -30.1540 C   0  0  0  0  0  0  0  0  0  0  0  0
   -7.0210   24.5060  -30.4880 C   0  0  0  0  0  0  0  0  0  0  0  0
   -5.1680   20.0430  -33.1910 C   0  0  0  0  0  0  0  0  0  0  0  0
   -1.3260   21.5910  -32.0920 C   0  0  0  0  0  0  0  0  0  0  0  0
   -0.9320   22.2770  -30.9410 C   0  0  0  0  0  0  0  0  0  0  0  0
   -4.5183   24.7263  -26.1317 H   0  0  0  0  0  0  0  0  0  0  0  0
   -4.0482   25.5360  -27.6647 H   0  0  0  0  0  0  0  0  0  0  0  0
   -5.3521   24.3005  -27.6647 H   0  0  0  0  0  0  0  0  0  0  0  0
   -2.0070   24.8080  -28.4970 H   0  0  0  0  0  0  0  0  0  0  0  0
   -1.0954   22.0833  -27.6515 H   0  0  0  0  0  0  0  0  0  0  0  0
    0.6695   23.6349  -27.6828 H   0  0  0  0  0  0  0  0  0  0  0  0
    0.8662   22.7379  -29.2267 H   0  0  0  0  0  0  0  0  0  0  0  0
    0.1245   24.3740  -29.2267 H   0  0  0  0  0  0  0  0  0  0  0  0
   -3.1973   20.9762  -28.7353 H   0  0  0  0  0  0  0  0  0  0  0  0
   -3.9190   19.7804  -30.7989 H   0  0  0  0  0  0  0  0  0  0  0  0
   -3.1000   17.5372  -34.2509 H   0  0  0  0  0  0  0  0  0  0  0  0
   -5.2993   16.4082  -34.5724 H   0  0  0  0  0  0  0  0  0  0  0  0
   -7.4158   17.5999  -34.0171 H   0  0  0  0  0  0  0  0  0  0  0  0
   -9.2163   21.1662  -30.2343 H   0  0  0  0  0  0  0  0  0  0  0  0
   -7.4047   21.0784  -30.2586 H   0  0  0  0  0  0  0  0  0  0  0  0
   -8.2850   22.4150  -32.6488 H   0  0  0  0  0  0  0  0  0  0  0  0
   -9.0986   23.1706  -31.2154 H   0  0  0  0  0  0  0  0  0  0  0  0
   -5.6886   21.8299  -32.1541 H   0  0  0  0  0  0  0  0  0  0  0  0
   -3.5792   23.0244  -31.5652 H   0  0  0  0  0  0  0  0  0  0  0  0
   -5.8734   26.1117  -29.5868 H   0  0  0  0  0  0  0  0  0  0  0  0
   -7.9898   24.9263  -30.1801 H   0  0  0  0  0  0  0  0  0  0  0  0
   -5.1304   21.0719  -32.8037 H   0  0  0  0  0  0  0  0  0  0  0  0
   -0.7999   21.7715  -33.0410 H   0  0  0  0  0  0  0  0  0  0  0  0
   -0.0960   22.9903  -30.9892 H   0  0  0  0  0  0  0  0  0  0  0  0
  1  2  1  0
  2  3  2  0
  2  4  1  0
  4  5  1  0
  5  6  1  0
  5  7  1  0
  7  8  2  0
  8  9  1  0
  9 10  2  0
 10 11  1  0
 11 12  1  0
 12 13  2  0
 13 14  1  0
 14 15  2  0
 15 16  1  0
 16 17  1  0
 17 18  1  0
 18 19  2  0
 18 20  1  0
 20 21  1  0
 21 22  1  0
 22 23  2  0
 23 24  1  0
 24 25  2  0
 25 26  1  0
 25 27  1  0
 27 28  2  0
 16 29  2  0
 10 30  1  0
 30 31  2  0
 31  7  1  0
 29 12  1  0
 28 22  1  0
  1 32  1  0
  1 33  1  0
  1 34  1  0
  4 35  1  0
  5 36  1  1
  6 37  1  0
  6 38  1  0
  6 39  1  0
  8 40  1  0
  9 41  1  0
 13 42  1  0
 14 43  1  0
 15 44  1  0
 20 45  1  0
 20 46  1  0
 21 47  1  0
 21 48  1  0
 23 49  1  0
 24 50  1  0
 27 51  1  0
 28 52  1  0
 29 53  1  0
 30 54  1  0
 31 55  1  0
M  CHG  2  17  -1  26  -1
M  END
>  <UniqueID>  (20) 
18

>  <SMILES>  (20) 
CC(=O)N[C@H](C)c1ccc(Oc2cccc([N-]C(=O)CCc3ccc([O-])cc3)c2)cc1

>  <Energy>  (20) 
59.31230674256293

>  <Genealogy>  (20) 
CC(=O)NC(C)c1ccc(Oc2cccc([N-]C(=O)CCc3ccc([O-])cc3)c2)cc1 (protonated)
CC(=O)N[C@H](C)c1ccc(Oc2cccc([N-]C(=O)CCc3ccc([O-])cc3)c2)cc1 (chirality)
CC(=O)N[C@H](C)c1ccc(Oc2cccc([N-]C(=O)CCc3ccc([O-])cc3)c2)cc1 (3D coordinates assigned)
CC(=O)N[C@H](C)c1ccc(Oc2cccc([N-]C(=O)CCc3ccc([O-])cc3)c2)cc1 (optimized conformer: 59.31230674256293 kcal/mol)

>  <smiles>  (20) 
CC(=O)NC(C)c1ccc(Oc2cccc(NC(=O)CCc3ccc(O)cc3)c2)cc1

>  <score_type>  (20) 
oracle

>  <origin>  (20) 
adgpu

>  <m_score__min__energy>  (20) 
-12.539999999999999

>  <m_primary>  (20) 
energy

$$$$
20:0
     RDKit          3D

 43 45  0  0  0  0  0  0  0  0999 V2000
    4.7420   19.7280  -36.3960 C   0  0  0  0  0  0  0  0  0  0  0  0
    3.6700   19.9120  -35.3680 C   0  0  0  0  0  0  0  0  0  0  0  0
    2.5340   20.6820  -35.5110 C   0  0  0  0  0  0  0  0  0  0  0  0
    1.8900   20.5650  -34.2880 C   0  0  0  0  0  0  0  0  0  0  0  0
    0.6220   21.2050  -33.8990 C   0  0  0  0  0  0  0  0  0  0  0  0
    0.1530   22.1210  -34.6260 O   0  0  0  0  0  0  0  0  0  0  0  0
   -0.0540   20.8250  -32.6870 N   0  0  0  0  0  0  0  0  0  0  0  0
   -1.4220   21.1540  -32.3980 C   0  0  0  0  0  0  0  0  0  0  0  0
   -1.9020   21.0130  -31.0870 C   0  0  0  0  0  0  0  0  0  0  0  0
   -3.2350   21.3050  -30.7840 C   0  0  0  0  0  0  0  0  0  0  0  0
   -4.1150   21.7170  -31.7930 C   0  0  0  0  0  0  0  0  0  0  0  0
   -5.5230   22.0300  -31.4770 C   0  0  0  0  0  0  0  0  0  0  0  0
   -6.5290   21.2570  -32.0820 C   0  0  0  0  0  0  0  0  0  0  0  0
   -7.8760   21.5300  -31.8380 C   0  0  0  0  0  0  0  0  0  0  0  0
   -8.2330   22.5730  -30.9850 C   0  0  0  0  0  0  0  0  0  0  0  0
   -7.2460   23.3410  -30.3650 C   0  0  0  0  0  0  0  0  0  0  0  0
   -5.8850   23.0760  -30.5920 C   0  0  0  0  0  0  0  0  0  0  0  0
   -4.6740   24.0420  -29.7310 S   0  0  0  0  0  0  0  0  0  0  0  0
   -3.8340   25.0750  -30.8340 N   0  0  0  0  0  0  0  0  0  0  0  0
   -5.3460   24.8720  -28.6750 O   0  0  0  0  0  0  0  0  0  0  0  0
   -3.6690   23.1380  -29.0750 O   0  0  0  0  0  0  0  0  0  0  0  0
   -3.6430   21.8550  -33.1060 C   0  0  0  0  0  0  0  0  0  0  0  0
   -2.3100   21.5650  -33.4100 C   0  0  0  0  0  0  0  0  0  0  0  0
    2.6100   19.7780  -33.4630 N   0  0  0  0  0  0  0  0  0  0  0  0
    3.6890   19.3900  -34.1240 N   0  0  0  0  0  0  0  0  0  0  0  0
    4.7140   18.5210  -33.5590 C   0  0  0  0  0  0  0  0  0  0  0  0
    5.7067   19.5624  -35.8941 H   0  0  0  0  0  0  0  0  0  0  0  0
    4.5017   18.8580  -37.0247 H   0  0  0  0  0  0  0  0  0  0  0  0
    4.8055   20.6284  -37.0247 H   0  0  0  0  0  0  0  0  0  0  0  0
    2.2129   21.2566  -36.3923 H   0  0  0  0  0  0  0  0  0  0  0  0
    0.5070   20.3710  -31.9320 H   0  0  0  0  0  0  0  0  0  0  0  0
   -1.2240   20.6700  -30.2915 H   0  0  0  0  0  0  0  0  0  0  0  0
   -3.5945   21.2108  -29.7487 H   0  0  0  0  0  0  0  0  0  0  0  0
   -6.2526   20.4304  -32.7531 H   0  0  0  0  0  0  0  0  0  0  0  0
   -8.6561   20.9218  -32.3191 H   0  0  0  0  0  0  0  0  0  0  0  0
   -9.2951   22.7914  -30.8000 H   0  0  0  0  0  0  0  0  0  0  0  0
   -7.5365   24.1614  -29.6923 H   0  0  0  0  0  0  0  0  0  0  0  0
   -3.9120   26.0480  -30.4610 H   0  0  0  0  0  0  0  0  0  0  0  0
   -4.3248   22.1930  -33.9003 H   0  0  0  0  0  0  0  0  0  0  0  0
   -1.9527   21.6585  -34.4461 H   0  0  0  0  0  0  0  0  0  0  0  0
    4.6652   18.5624  -32.4609 H   0  0  0  0  0  0  0  0  0  0  0  0
    4.5443   17.4874  -33.8949 H   0  0  0  0  0  0  0  0  0  0  0  0
    5.7059   18.8575  -33.8949 H   0  0  0  0  0  0  0  0  0  0  0  0
  1  2  1  0
  2  3  2  0
  3  4  1  0
  4  5  1  0
  5  6  2  0
  5  7  1  0
  7  8  1  0
  8  9  2  0
  9 10  1  0
 10 11  2  0
 11 12  1  0
 12 13  2  0
 13 14  1  0
 14 15  2  0
 15 16  1  0
 16 17  2  0
 17 18  1  0
 18 19  1  0
 18 20  2  0
 18 21  2  0
 11 22  1  0
 22 23  2  0
  4 24  2  0
 24 25  1  0
 25 26  1  0
 25  2  1  0
 23  8  1  0
 17 12  1  0
  1 27  1  0
  1 28  1  0
  1 29  1  0
  3 30  1  0
  7 31  1  0
  9 32  1  0
 10 33  1  0
 13 34  1  0
 14 35  1  0
 15 36  1  0
 16 37  1  0
 19 38  1  0
 22 39  1  0
 23 40  1  0
 26 41  1  0
 26 42  1  0
 26 43  1  0
M  CHG  1  19  -1
M  END
>  <UniqueID>  (21) 
19

>  <SMILES>  (21) 
Cc1cc(C(=O)Nc2ccc(-c3ccccc3S([NH-])(=O)=O)cc2)nn1C

>  <Energy>  (21) 
84.31817407130472

>  <Genealogy>  (21) 
Cc1cc(C(=O)Nc2ccc(-c3ccccc3S([NH-])(=O)=O)cc2)nn1C (protonated)
Cc1cc(C(=O)Nc2ccc(-c3ccccc3S([NH-])(=O)=O)cc2)nn1C (3D coordinates assigned)
Cc1cc(C(=O)Nc2ccc(-c3ccccc3S([NH-])(=O)=O)cc2)nn1C (optimized conformer: 84.31817407130472 kcal/mol)

>  <smiles>  (21) 
Cc1cc(C(=O)Nc2ccc(-c3ccccc3S(N)(=O)=O)cc2)nn1C

>  <score_type>  (21) 
oracle

>  <origin>  (21) 
adgpu

>  <m_score__min__energy>  (21) 
-9.3499999999999996

>  <m_primary>  (21) 
energy

$$$$
21:0
     RDKit          3D

 29 30  0  0  0  0  0  0  0  0999 V2000
   -6.4380   16.7270  -33.9610 N   0  0  0  0  0  0  0  0  0  0  0  0
   -6.8990   17.9330  -33.3440 C   0  0  0  0  0  0  0  0  0  0  0  0
   -6.4680   19.1790  -33.8210 C   0  0  0  0  0  0  0  0  0  0  0  0
   -6.9190   20.3570  -33.2180 C   0  0  0  0  0  0  0  0  0  0  0  0
   -7.8000   20.3000  -32.1310 C   0  0  0  0  0  0  0  0  0  0  0  0
   -8.3880   21.7840  -31.3900 S   0  0  0  0  0  0  0  0  0  0  0  0
   -9.3200   22.4930  -32.3320 O   0  0  0  0  0  0  0  0  0  0  0  0
   -9.1490   21.4620  -30.1350 O   0  0  0  0  0  0  0  0  0  0  0  0
   -7.0160   22.8180  -31.0110 C   0  0  0  0  0  0  0  0  0  0  0  0
   -5.7090   22.3400  -31.1660 C   0  0  0  0  0  0  0  0  0  0  0  0
   -4.6180   23.1550  -30.8470 C   0  0  0  0  0  0  0  0  0  0  0  0
   -4.8270   24.4540  -30.3630 C   0  0  0  0  0  0  0  0  0  0  0  0
   -3.7120   25.2880  -30.0350 N   0  0  0  0  0  0  0  0  0  0  0  0
   -6.1360   24.9290  -30.1990 C   0  0  0  0  0  0  0  0  0  0  0  0
   -7.2260   24.1140  -30.5190 C   0  0  0  0  0  0  0  0  0  0  0  0
   -8.2400   19.0550  -31.6600 C   0  0  0  0  0  0  0  0  0  0  0  0
   -7.7880   17.8770  -32.2620 C   0  0  0  0  0  0  0  0  0  0  0  0
   -5.8830   16.7580  -34.8450 H   0  0  0  0  0  0  0  0  0  0  0  0
   -6.6490   15.7960  -33.5380 H   0  0  0  0  0  0  0  0  0  0  0  0
   -5.7730   19.2299  -34.6721 H   0  0  0  0  0  0  0  0  0  0  0  0
   -6.5806   21.3320  -33.5987 H   0  0  0  0  0  0  0  0  0  0  0  0
   -5.5396   21.3195  -31.5401 H   0  0  0  0  0  0  0  0  0  0  0  0
   -3.5935   22.7758  -30.9762 H   0  0  0  0  0  0  0  0  0  0  0  0
   -3.0960   25.6770  -30.7840 H   0  0  0  0  0  0  0  0  0  0  0  0
   -3.4950   25.5230  -29.0400 H   0  0  0  0  0  0  0  0  0  0  0  0
   -6.3060   25.9465  -29.8172 H   0  0  0  0  0  0  0  0  0  0  0  0
   -8.2508   24.4905  -30.3844 H   0  0  0  0  0  0  0  0  0  0  0  0
   -8.9424   19.0049  -30.8149 H   0  0  0  0  0  0  0  0  0  0  0  0
   -8.1314   16.9024  -31.8850 H   0  0  0  0  0  0  0  0  0  0  0  0
  1  2  1  0
  2  3  2  0
  3  4  1  0
  4  5  2  0
  5  6  1  0
  6  7  2  0
  6  8  2  0
  6  9  1  0
  9 10  2  0
 10 11  1  0
 11 12  2  0
 12 13  1  0
 12 14  1  0
 14 15  2  0
  5 16  1  0
 16 17  2  0
 17  2  1  0
 15  9  1  0
  1 18  1  0
  1 19  1  0
  3 20  1  0
  4 21  1  0
 10 22  1  0
 11 23  1  0
 13 24  1  0
 13 25  1  0
 14 26  1  0
 15 27  1  0
 16 28  1  0
 17 29  1  0
M  END
>  <UniqueID>  (22) 
20

>  <SMILES>  (22) 
Nc1ccc(S(=O)(=O)c2ccc(N)cc2)cc1

>  <Energy>  (22) 
29.558904116675695

>  <Genealogy>  (22) 
Nc1ccc(S(=O)(=O)c2ccc(N)cc2)cc1 (3D coordinates assigned)
Nc1ccc(S(=O)(=O)c2ccc(N)cc2)cc1 (optimized conformer: 29.558904116675695 kcal/mol)

>  <smiles>  (22) 
Nc1ccc(S(=O)(=O)c2ccc(N)cc2)cc1

>  <score_type>  (22) 
oracle

>  <origin>  (22) 
adgpu

>  <m_score__min__energy>  (22) 
-7.7199999999999998

>  <m_primary>  (22) 
energy

$$$$
22:0
     RDKit          3D

 39 40  0  0  0  0  0  0  0  0999 V2000
   -7.5890   22.6920  -30.5880 C   0  0  0  0  0  0  0  0  0  0  0  0
   -8.3130   22.5270  -31.9250 C   0  0  0  0  0  0  0  0  0  0  0  0
   -9.2220   21.2890  -31.9540 C   0  0  0  0  0  0  0  0  0  0  0  0
   -8.4350   19.9790  -31.7980 C   0  0  0  0  0  0  0  0  0  0  0  0
   -7.6670   19.6960  -33.0130 N   0  0  0  0  0  0  0  0  0  0  0  0
   -6.2340   19.8360  -33.1260 C   0  0  0  0  0  0  0  0  0  0  0  0
   -5.4930   20.6650  -32.2660 C   0  0  0  0  0  0  0  0  0  0  0  0
   -4.1380   20.7810  -32.3990 N   0  0  0  0  0  0  0  0  0  0  0  0
   -3.4190   21.6560  -31.5050 C   0  0  0  0  0  0  0  0  0  0  0  0
   -2.1260   21.3200  -31.0720 C   0  0  0  0  0  0  0  0  0  0  0  0
   -1.4350   22.1590  -30.1940 C   0  0  0  0  0  0  0  0  0  0  0  0
   -2.0260   23.3440  -29.7380 C   0  0  0  0  0  0  0  0  0  0  0  0
   -1.1600   24.3910  -28.6170 S   0  0  0  0  0  0  0  0  0  0  0  0
   -1.5910   26.0370  -28.9170 N   0  0  0  0  0  0  0  0  0  0  0  0
   -1.5150   24.0260  -27.2030 O   0  0  0  0  0  0  0  0  0  0  0  0
    0.3220   24.2200  -28.8020 O   0  0  0  0  0  0  0  0  0  0  0  0
   -3.3220   23.6770  -30.1570 C   0  0  0  0  0  0  0  0  0  0  0  0
   -4.0130   22.8390  -31.0350 C   0  0  0  0  0  0  0  0  0  0  0  0
   -3.4850   20.0680  -33.3690 C   0  0  0  0  0  0  0  0  0  0  0  0
   -2.2320   20.1400  -33.4910 O   0  0  0  0  0  0  0  0  0  0  0  0
   -4.1830   19.2600  -34.2060 N   0  0  0  0  0  0  0  0  0  0  0  0
   -5.5290   19.1280  -34.1110 C   0  0  0  0  0  0  0  0  0  0  0  0
   -6.1320   18.3680  -34.9130 O   0  0  0  0  0  0  0  0  0  0  0  0
   -8.2994   22.5301  -29.7639 H   0  0  0  0  0  0  0  0  0  0  0  0
   -6.7739   21.9566  -30.5192 H   0  0  0  0  0  0  0  0  0  0  0  0
   -7.1730   23.7080  -30.5192 H   0  0  0  0  0  0  0  0  0  0  0  0
   -8.9285   23.4207  -32.1053 H   0  0  0  0  0  0  0  0  0  0  0  0
   -7.5482   22.3979  -32.7050 H   0  0  0  0  0  0  0  0  0  0  0  0
   -9.9480   21.3648  -31.1311 H   0  0  0  0  0  0  0  0  0  0  0  0
   -9.7226   21.2642  -32.9332 H   0  0  0  0  0  0  0  0  0  0  0  0
   -7.7450   20.0701  -30.9462 H   0  0  0  0  0  0  0  0  0  0  0  0
   -9.1437   19.1559  -31.6244 H   0  0  0  0  0  0  0  0  0  0  0  0
   -8.2070   19.3520  -33.8380 H   0  0  0  0  0  0  0  0  0  0  0  0
   -6.0108   21.2279  -31.4754 H   0  0  0  0  0  0  0  0  0  0  0  0
   -1.6547   20.3913  -31.4260 H   0  0  0  0  0  0  0  0  0  0  0  0
   -0.4228   21.8877  -29.8596 H   0  0  0  0  0  0  0  0  0  0  0  0
   -1.0400   26.3500  -29.7470 H   0  0  0  0  0  0  0  0  0  0  0  0
   -3.7957   24.6007  -29.7932 H   0  0  0  0  0  0  0  0  0  0  0  0
   -5.0289   23.1071  -31.3606 H   0  0  0  0  0  0  0  0  0  0  0  0
  1  2  1  0
  2  3  1  0
  3  4  1  0
  4  5  1  0
  5  6  1  0
  6  7  2  0
  7  8  1  0
  8  9  1  0
  9 10  2  0
 10 11  1  0
 11 12  2  0
 12 13  1  0
 13 14  1  0
 13 15  2  0
 13 16  2  0
 12 17  1  0
 17 18  2  0
  8 19  1  0
 19 20  2  0
 19 21  1  0
 21 22  1  0
 22 23  2  0
 22  6  1  0
 18  9  1  0
  1 24  1  0
  1 25  1  0
  1 26  1  0
  2 27  1  0
  2 28  1  0
  3 29  1  0
  3 30  1  0
  4 31  1  0
  4 32  1  0
  5 33  1  0
  7 34  1  0
 10 35  1  0
 11 36  1  0
 14 37  1  0
 17 38  1  0
 18 39  1  0
M  CHG  2  14  -1  21  -1
M  END
>  <UniqueID>  (23) 
21

>  <SMILES>  (23) 
CCCCNc1cn(-c2ccc(S([NH-])(=O)=O)cc2)c(=O)[n-]c1=O

>  <Energy>  (23) 
42.15720155210968

>  <Genealogy>  (23) 
CCCCNc1cn(-c2ccc(S([NH-])(=O)=O)cc2)c(=O)[n-]c1=O (protonated)
CCCCNc1cn(-c2ccc(S([NH-])(=O)=O)cc2)c(=O)[n-]c1=O (3D coordinates assigned)
CCCCNc1cn(-c2ccc(S([NH-])(=O)=O)cc2)c(=O)[n-]c1=O (optimized conformer: 42.15720155210968 kcal/mol)

>  <smiles>  (23) 
CCCCNc1cn(-c2ccc(S(N)(=O)=O)cc2)c(=O)[nH]c1=O

>  <score_type>  (23) 
oracle

>  <origin>  (23) 
adgpu

>  <m_score__min__energy>  (23) 
-10.1

>  <m_primary>  (23) 
energy

$$$$
23:0
     RDKit          3D

 37 38  0  0  0  0  0  0  0  0999 V2000
   -5.8300   16.4080  -34.2090 C   0  0  0  0  0  0  0  0  0  0  0  0
   -5.2620   17.5920  -34.4310 C   0  0  0  0  0  0  0  0  0  0  0  0
   -5.5720   18.7970  -33.6390 C   0  0  0  0  0  0  0  0  0  0  0  0
   -4.7220   19.1990  -32.8000 O   0  0  0  0  0  0  0  0  0  0  0  0
   -6.7840   19.5440  -33.8470 N   0  0  0  0  0  0  0  0  0  0  0  0
   -7.3360   20.4540  -32.8780 C   0  0  0  0  0  0  0  0  0  0  0  0
   -8.5050   20.1420  -32.1600 C   0  0  0  0  0  0  0  0  0  0  0  0
   -9.0370   21.0560  -31.2450 C   0  0  0  0  0  0  0  0  0  0  0  0
   -8.4160   22.2920  -31.0480 C   0  0  0  0  0  0  0  0  0  0  0  0
   -7.2670   22.6220  -31.7730 C   0  0  0  0  0  0  0  0  0  0  0  0
   -6.4860   24.2190  -31.5420 S   0  0  0  0  0  0  0  0  0  0  0  0
   -5.0330   23.4920  -30.7920 C   0  0  0  0  0  0  0  0  0  0  0  0
   -4.8280   23.5820  -29.4160 C   0  0  0  0  0  0  0  0  0  0  0  0
   -3.6750   23.0120  -28.8790 C   0  0  0  0  0  0  0  0  0  0  0  0
   -2.7840   22.3900  -29.6940 N   0  0  0  0  0  0  0  0  0  0  0  0
   -2.9940   22.3070  -31.0380 C   0  0  0  0  0  0  0  0  0  0  0  0
   -2.0340   21.6500  -31.8860 N   0  0  0  0  0  0  0  0  0  0  0  0
   -0.6660   21.4360  -31.4040 C   0  0  0  0  0  0  0  0  0  0  0  0
   -2.4340   21.1930  -33.2210 C   0  0  0  0  0  0  0  0  0  0  0  0
   -4.1200   22.8580  -31.5730 N   0  0  0  0  0  0  0  0  0  0  0  0
   -6.7300   21.7060  -32.6870 C   0  0  0  0  0  0  0  0  0  0  0  0
   -5.5598   15.5428  -34.8323 H   0  0  0  0  0  0  0  0  0  0  0  0
   -6.5694   16.2953  -33.4024 H   0  0  0  0  0  0  0  0  0  0  0  0
   -4.5261   17.6752  -35.2443 H   0  0  0  0  0  0  0  0  0  0  0  0
   -7.2250   19.5130  -34.7930 H   0  0  0  0  0  0  0  0  0  0  0  0
   -9.0030   19.1742  -32.3192 H   0  0  0  0  0  0  0  0  0  0  0  0
   -9.9456   20.8015  -30.6796 H   0  0  0  0  0  0  0  0  0  0  0  0
   -8.8315   23.0061  -30.3218 H   0  0  0  0  0  0  0  0  0  0  0  0
   -5.5585   24.0906  -28.7697 H   0  0  0  0  0  0  0  0  0  0  0  0
   -3.4868   23.0658  -27.7965 H   0  0  0  0  0  0  0  0  0  0  0  0
   -0.6607   21.4352  -30.3040 H   0  0  0  0  0  0  0  0  0  0  0  0
   -0.2943   20.4688  -31.7732 H   0  0  0  0  0  0  0  0  0  0  0  0
   -0.0166   22.2435  -31.7732 H   0  0  0  0  0  0  0  0  0  0  0  0
   -3.1557   20.3684  -33.1253 H   0  0  0  0  0  0  0  0  0  0  0  0
   -2.8990   22.0255  -33.7695 H   0  0  0  0  0  0  0  0  0  0  0  0
   -1.5473   20.8424  -33.7695 H   0  0  0  0  0  0  0  0  0  0  0  0
   -5.8278   21.9694  -33.2586 H   0  0  0  0  0  0  0  0  0  0  0  0
  1  2  2  0
  2  3  1  0
  3  4  2  0
  3  5  1  0
  5  6  1  0
  6  7  2  0
  7  8  1  0
  8  9  2  0
  9 10  1  0
 10 11  1  0
 11 12  1  0
 12 13  2  0
 13 14  1  0
 14 15  2  0
 15 16  1  0
 16 17  1  0
 17 18  1  0
 17 19  1  0
 16 20  2  0
 10 21  2  0
 21  6  1  0
 20 12  1  0
  1 22  1  0
  1 23  1  0
  2 24  1  0
  5 25  1  0
  7 26  1  0
  8 27  1  0
  9 28  1  0
 13 29  1  0
 14 30  1  0
 18 31  1  0
 18 32  1  0
 18 33  1  0
 19 34  1  0
 19 35  1  0
 19 36  1  0
 21 37  1  0
M  END
>  <UniqueID>  (24) 
22

>  <SMILES>  (24) 
C=CC(=O)Nc1cccc(Sc2ccnc(N(C)C)n2)c1

>  <Energy>  (24) 
32.98096833830178

>  <Genealogy>  (24) 
C=CC(=O)Nc1cccc(Sc2ccnc(N(C)C)n2)c1 (3D coordinates assigned)
C=CC(=O)Nc1cccc(Sc2ccnc(N(C)C)n2)c1 (optimized conformer: 32.98096833830178 kcal/mol)

>  <smiles>  (24) 
C=CC(=O)Nc1cccc(Sc2ccnc(N(C)C)n2)c1

>  <score_type>  (24) 
oracle

>  <origin>  (24) 
adgpu

>  <m_score__min__energy>  (24) 
-7.6299999999999999

>  <m_primary>  (24) 
energy

$$$$
24:0
     RDKit          3D

 35 37  0  0  0  0  0  0  0  0999 V2000
    0.6050   25.6820  -27.1640 C   0  0  0  0  0  0  0  0  0  0  0  0
   -0.7830   25.7010  -26.6130 C   0  0  0  0  0  0  0  0  0  0  0  0
   -1.1130   26.2900  -25.4460 N   0  0  0  0  0  0  0  0  0  0  0  0
   -2.4060   26.0870  -25.2430 N   0  0  0  0  0  0  0  0  0  0  0  0
   -2.9180   25.3760  -26.2650 C   0  0  0  0  0  0  0  0  0  0  0  0
   -4.3400   24.9150  -26.3410 C   0  0  0  0  0  0  0  0  0  0  0  0
   -1.9030   25.0920  -27.1570 C   0  0  0  0  0  0  0  0  0  0  0  0
   -2.0170   24.1380  -28.6360 S   0  0  0  0  0  0  0  0  0  0  0  0
   -2.5500   22.7620  -28.3520 O   0  0  0  0  0  0  0  0  0  0  0  0
   -0.6460   24.0160  -29.2400 O   0  0  0  0  0  0  0  0  0  0  0  0
   -3.0680   24.9300  -29.7640 N   0  0  0  0  0  0  0  0  0  0  0  0
   -4.3780   24.4750  -30.1400 C   0  0  0  0  0  0  0  0  0  0  0  0
   -5.5350   25.1500  -29.7050 C   0  0  0  0  0  0  0  0  0  0  0  0
   -6.8030   24.7050  -30.0830 C   0  0  0  0  0  0  0  0  0  0  0  0
   -6.9420   23.5810  -30.8950 C   0  0  0  0  0  0  0  0  0  0  0  0
   -5.8080   22.8910  -31.3440 C   0  0  0  0  0  0  0  0  0  0  0  0
   -5.9480   21.7650  -32.1710 C   0  0  0  0  0  0  0  0  0  0  0  0
   -4.8180   21.0850  -32.6320 C   0  0  0  0  0  0  0  0  0  0  0  0
   -3.5420   21.5210  -32.2710 C   0  0  0  0  0  0  0  0  0  0  0  0
   -3.3860   22.6370  -31.4440 C   0  0  0  0  0  0  0  0  0  0  0  0
   -4.5130   23.3370  -30.9690 C   0  0  0  0  0  0  0  0  0  0  0  0
    1.3283   25.6721  -26.3353 H   0  0  0  0  0  0  0  0  0  0  0  0
    0.7422   24.7819  -27.7812 H   0  0  0  0  0  0  0  0  0  0  0  0
    0.7668   26.5780  -27.7812 H   0  0  0  0  0  0  0  0  0  0  0  0
   -2.9270   26.4290  -24.4060 H   0  0  0  0  0  0  0  0  0  0  0  0
   -4.7384   24.7858  -25.3239 H   0  0  0  0  0  0  0  0  0  0  0  0
   -4.9403   25.6646  -26.8775 H   0  0  0  0  0  0  0  0  0  0  0  0
   -4.3863   23.9558  -26.8775 H   0  0  0  0  0  0  0  0  0  0  0  0
   -5.4386   26.0366  -29.0611 H   0  0  0  0  0  0  0  0  0  0  0  0
   -7.6974   25.2445  -29.7380 H   0  0  0  0  0  0  0  0  0  0  0  0
   -7.9450   23.2343  -31.1844 H   0  0  0  0  0  0  0  0  0  0  0  0
   -6.9515   21.4168  -32.4571 H   0  0  0  0  0  0  0  0  0  0  0  0
   -4.9340   20.2043  -33.2807 H   0  0  0  0  0  0  0  0  0  0  0  0
   -2.6553   20.9839  -32.6390 H   0  0  0  0  0  0  0  0  0  0  0  0
   -2.3766   22.9711  -31.1620 H   0  0  0  0  0  0  0  0  0  0  0  0
  1  2  1  0
  2  3  2  0
  3  4  1  0
  4  5  1  0
  5  6  1  0
  5  7  2  0
  7  8  1  0
  8  9  2  0
  8 10  2  0
  8 11  1  0
 11 12  1  0
 12 13  2  0
 13 14  1  0
 14 15  2  0
 15 16  1  0
 16 17  2  0
 17 18  1  0
 18 19  2  0
 19 20  1  0
 20 21  2  0
  7  2  1  0
 21 12  1  0
 21 16  1  0
  1 22  1  0
  1 23  1  0
  1 24  1  0
  4 25  1  0
  6 26  1  0
  6 27  1  0
  6 28  1  0
 13 29  1  0
 14 30  1  0
 15 31  1  0
 17 32  1  0
 18 33  1  0
 19 34  1  0
 20 35  1  0
M  CHG  1  11  -1
M  END
>  <UniqueID>  (25) 
23

>  <SMILES>  (25) 
Cc1n[nH]c(C)c1S(=O)(=O)[N-]c1cccc2ccccc12

>  <Energy>  (25) 
72.21143295912205

>  <Genealogy>  (25) 
Cc1n[nH]c(C)c1S(=O)(=O)[N-]c1cccc2ccccc12 (protonated)
Cc1n[nH]c(C)c1S(=O)(=O)[N-]c1cccc2ccccc12 (3D coordinates assigned)
Cc1n[nH]c(C)c1S(=O)(=O)[N-]c1cccc2ccccc12 (optimized conformer: 72.21143295912205 kcal/mol)

>  <smiles>  (25) 
Cc1n[nH]c(C)c1S(=O)(=O)Nc1cccc2ccccc12

>  <score_type>  (25) 
oracle

>  <origin>  (25) 
adgpu

>  <m_score__min__energy>  (25) 
-9.0199999999999996

>  <m_primary>  (25) 
energy

$$$$
25:0
     RDKit          3D

 47 49  0  0  0  0  0  0  0  0999 V2000
   -6.2940   14.3770  -34.5900 C   0  0  0  0  0  0  0  0  0  0  0  0
   -5.9990   15.7030  -33.9750 C   0  0  0  0  0  0  0  0  0  0  0  0
   -6.8900   16.4750  -33.2560 C   0  0  0  0  0  0  0  0  0  0  0  0
   -6.1900   17.6350  -32.9830 C   0  0  0  0  0  0  0  0  0  0  0  0
   -6.7550   18.8210  -32.3120 C   0  0  0  0  0  0  0  0  0  0  0  0
   -7.4100   18.6720  -31.2450 O   0  0  0  0  0  0  0  0  0  0  0  0
   -6.6320   20.1220  -32.9040 N   0  0  0  0  0  0  0  0  0  0  0  0
   -6.6530   21.3480  -32.1540 C   0  0  0  0  0  0  0  0  0  0  0  0
   -7.8740   21.9870  -31.9160 C   0  0  0  0  0  0  0  0  0  0  0  0
   -7.9150   23.1890  -31.2080 C   0  0  0  0  0  0  0  0  0  0  0  0
   -6.7370   23.7800  -30.7400 C   0  0  0  0  0  0  0  0  0  0  0  0
   -6.8870   25.2860  -29.8410 Cl  0  0  0  0  0  0  0  0  0  0  0  0
   -5.4920   23.1630  -30.9980 C   0  0  0  0  0  0  0  0  0  0  0  0
   -3.9470   23.8500  -30.4550 S   0  0  0  0  0  0  0  0  0  0  0  0
   -2.8270   23.1400  -31.1660 O   0  0  0  0  0  0  0  0  0  0  0  0
   -3.8590   25.3050  -30.8200 O   0  0  0  0  0  0  0  0  0  0  0  0
   -3.7280   23.6640  -28.7310 N   0  0  0  0  0  0  0  0  0  0  0  0
   -3.8270   22.2490  -28.3600 C   0  0  0  0  0  0  0  0  0  0  0  0
   -2.4210   24.2020  -28.3320 C   0  0  0  0  0  0  0  0  0  0  0  0
   -5.4650   21.9510  -31.7070 C   0  0  0  0  0  0  0  0  0  0  0  0
   -4.9480   17.5280  -33.5140 N   0  0  0  0  0  0  0  0  0  0  0  0
   -3.8550   18.4550  -33.4020 C   0  0  0  0  0  0  0  0  0  0  0  0
   -2.6450   18.0440  -32.8200 C   0  0  0  0  0  0  0  0  0  0  0  0
   -1.5800   18.9410  -32.7010 C   0  0  0  0  0  0  0  0  0  0  0  0
   -1.7200   20.2580  -33.1500 C   0  0  0  0  0  0  0  0  0  0  0  0
   -2.9280   20.6820  -33.7090 C   0  0  0  0  0  0  0  0  0  0  0  0
   -3.9970   19.7870  -33.8250 C   0  0  0  0  0  0  0  0  0  0  0  0
   -4.8340   16.3610  -34.1310 N   0  0  0  0  0  0  0  0  0  0  0  0
   -6.4594   13.6334  -33.7964 H   0  0  0  0  0  0  0  0  0  0  0  0
   -7.1968   14.4547  -35.2136 H   0  0  0  0  0  0  0  0  0  0  0  0
   -5.4434   14.0647  -35.2136 H   0  0  0  0  0  0  0  0  0  0  0  0
   -7.9212   16.2241  -32.9667 H   0  0  0  0  0  0  0  0  0  0  0  0
   -6.5640   20.1790  -33.9460 H   0  0  0  0  0  0  0  0  0  0  0  0
   -8.8072   21.5397  -32.2889 H   0  0  0  0  0  0  0  0  0  0  0  0
   -8.8825   23.6759  -31.0163 H   0  0  0  0  0  0  0  0  0  0  0  0
   -3.8334   22.1569  -27.2639 H   0  0  0  0  0  0  0  0  0  0  0  0
   -4.7569   21.8269  -28.7689 H   0  0  0  0  0  0  0  0  0  0  0  0
   -2.9650   21.7016  -28.7689 H   0  0  0  0  0  0  0  0  0  0  0  0
   -2.3552   24.2291  -27.2343 H   0  0  0  0  0  0  0  0  0  0  0  0
   -1.6225   23.5594  -28.7314 H   0  0  0  0  0  0  0  0  0  0  0  0
   -2.3063   25.2205  -28.7314 H   0  0  0  0  0  0  0  0  0  0  0  0
   -4.4997   21.4666  -31.9155 H   0  0  0  0  0  0  0  0  0  0  0  0
   -2.5350   17.0117  -32.4562 H   0  0  0  0  0  0  0  0  0  0  0  0
   -0.6308   18.6108  -32.2538 H   0  0  0  0  0  0  0  0  0  0  0  0
   -0.8782   20.9607  -33.0629 H   0  0  0  0  0  0  0  0  0  0  0  0
   -3.0387   21.7193  -34.0579 H   0  0  0  0  0  0  0  0  0  0  0  0
   -4.9529   20.1278  -34.2493 H   0  0  0  0  0  0  0  0  0  0  0  0
  1  2  1  0
  2  3  1  0
  3  4  2  0
  4  5  1  0
  5  6  2  0
  5  7  1  0
  7  8  1  0
  8  9  2  0
  9 10  1  0
 10 11  2  0
 11 12  1  0
 11 13  1  0
 13 14  1  0
 14 15  2  0
 14 16  2  0
 14 17  1  0
 17 18  1  0
 17 19  1  0
 13 20  2  0
  4 21  1  0
 21 22  1  0
 22 23  2  0
 23 24  1  0
 24 25  2  0
 25 26  1  0
 26 27  2  0
 21 28  1  0
 28  2  2  0
 20  8  1  0
 27 22  1  0
  1 29  1  0
  1 30  1  0
  1 31  1  0
  3 32  1  0
  7 33  1  0
  9 34  1  0
 10 35  1  0
 18 36  1  0
 18 37  1  0
 18 38  1  0
 19 39  1  0
 19 40  1  0
 19 41  1  0
 20 42  1  0
 23 43  1  0
 24 44  1  0
 25 45  1  0
 26 46  1  0
 27 47  1  0
M  END
>  <UniqueID>  (26) 
24

>  <SMILES>  (26) 
Cc1cc(C(=O)Nc2ccc(Cl)c(S(=O)(=O)N(C)C)c2)n(-c2ccccc2)n1

>  <Energy>  (26) 
87.0352219891819

>  <Genealogy>  (26) 
Cc1cc(C(=O)Nc2ccc(Cl)c(S(=O)(=O)N(C)C)c2)n(-c2ccccc2)n1 (3D coordinates assigned)
Cc1cc(C(=O)Nc2ccc(Cl)c(S(=O)(=O)N(C)C)c2)n(-c2ccccc2)n1 (optimized conformer: 87.0352219891819 kcal/mol)

>  <smiles>  (26) 
Cc1cc(C(=O)Nc2ccc(Cl)c(S(=O)(=O)N(C)C)c2)n(-c2ccccc2)n1

>  <score_type>  (26) 
oracle

>  <origin>  (26) 
adgpu

>  <m_score__min__energy>  (26) 
-9.6600000000000001

>  <m_primary>  (26) 
energy

$$$$
26:0
     RDKit          3D

 36 37  0  0  0  0  0  0  0  0999 V2000
   -2.4960   18.9880  -26.0310 C   0  0  0  0  0  0  0  0  0  0  0  0
   -2.0280   20.2780  -26.5220 N   0  0  0  0  0  0  0  0  0  0  0  0
   -2.4570   20.7990  -27.7900 C   0  0  0  0  0  0  0  0  0  0  0  0
   -3.0960   20.0530  -28.5840 O   0  0  0  0  0  0  0  0  0  0  0  0
   -2.1540   22.1950  -28.1910 C   0  0  0  0  0  0  0  0  0  0  0  0
   -1.0010   22.8320  -27.7020 C   0  0  0  0  0  0  0  0  0  0  0  0
   -0.7000   24.1400  -28.0810 C   0  0  0  0  0  0  0  0  0  0  0  0
   -1.5350   24.8270  -28.9650 C   0  0  0  0  0  0  0  0  0  0  0  0
   -1.2180   26.1290  -29.3370 O   0  0  0  0  0  0  0  0  0  0  0  0
   -2.6820   24.2070  -29.4800 C   0  0  0  0  0  0  0  0  0  0  0  0
   -3.5060   24.9330  -30.4040 N   0  0  0  0  0  0  0  0  0  0  0  0
   -5.2400   24.9320  -30.4160 S   0  0  0  0  0  0  0  0  0  0  0  0
   -5.7400   25.0190  -29.0020 O   0  0  0  0  0  0  0  0  0  0  0  0
   -5.7280   26.1290  -31.1810 O   0  0  0  0  0  0  0  0  0  0  0  0
   -5.8360   23.4730  -31.2020 C   0  0  0  0  0  0  0  0  0  0  0  0
   -7.1970   23.1430  -31.1530 C   0  0  0  0  0  0  0  0  0  0  0  0
   -7.6580   21.9690  -31.7560 C   0  0  0  0  0  0  0  0  0  0  0  0
   -6.7640   21.1210  -32.4280 C   0  0  0  0  0  0  0  0  0  0  0  0
   -7.2490   19.8410  -33.0430 C   0  0  0  0  0  0  0  0  0  0  0  0
   -5.4000   21.4480  -32.4650 C   0  0  0  0  0  0  0  0  0  0  0  0
   -4.9400   22.6210  -31.8600 C   0  0  0  0  0  0  0  0  0  0  0  0
   -2.9890   22.8910  -29.0850 C   0  0  0  0  0  0  0  0  0  0  0  0
   -2.4946   18.9919  -24.9310 H   0  0  0  0  0  0  0  0  0  0  0  0
   -3.5176   18.8055  -26.3957 H   0  0  0  0  0  0  0  0  0  0  0  0
   -1.8290   18.1929  -26.3957 H   0  0  0  0  0  0  0  0  0  0  0  0
   -1.3340   20.8020  -25.9460 H   0  0  0  0  0  0  0  0  0  0  0  0
   -0.3306   22.2949  -27.0149 H   0  0  0  0  0  0  0  0  0  0  0  0
    0.1989   24.6327  -27.6820 H   0  0  0  0  0  0  0  0  0  0  0  0
   -7.9047   23.8097  -30.6385 H   0  0  0  0  0  0  0  0  0  0  0  0
   -8.7255   21.7089  -31.7036 H   0  0  0  0  0  0  0  0  0  0  0  0
   -7.5181   19.1308  -32.2473 H   0  0  0  0  0  0  0  0  0  0  0  0
   -8.1321   20.0452  -33.6663 H   0  0  0  0  0  0  0  0  0  0  0  0
   -6.4523   19.4087  -33.6663 H   0  0  0  0  0  0  0  0  0  0  0  0
   -4.6898   20.7784  -32.9722 H   0  0  0  0  0  0  0  0  0  0  0  0
   -3.8707   22.8759  -31.9008 H   0  0  0  0  0  0  0  0  0  0  0  0
   -3.8915   22.4013  -29.4795 H   0  0  0  0  0  0  0  0  0  0  0  0
  1  2  1  0
  2  3  1  0
  3  4  2  0
  3  5  1  0
  5  6  2  0
  6  7  1  0
  7  8  2  0
  8  9  1  0
  8 10  1  0
 10 11  1  0
 11 12  1  0
 12 13  2  0
 12 14  2  0
 12 15  1  0
 15 16  2  0
 16 17  1  0
 17 18  2  0
 18 19  1  0
 18 20  1  0
 20 21  2  0
 10 22  2  0
 22  5  1  0
 21 15  1  0
  1 23  1  0
  1 24  1  0
  1 25  1  0
  2 26  1  0
  6 27  1  0
  7 28  1  0
 16 29  1  0
 17 30  1  0
 19 31  1  0
 19 32  1  0
 19 33  1  0
 20 34  1  0
 21 35  1  0
 22 36  1  0
M  CHG  2   9  -1  11  -1
M  END
>  <UniqueID>  (27) 
25

>  <SMILES>  (27) 
CNC(=O)c1ccc([O-])c([N-]S(=O)(=O)c2ccc(C)cc2)c1

>  <Energy>  (27) 
38.10268240122096

>  <Genealogy>  (27) 
CNC(=O)c1ccc([O-])c([N-]S(=O)(=O)c2ccc(C)cc2)c1 (protonated)
CNC(=O)c1ccc([O-])c([N-]S(=O)(=O)c2ccc(C)cc2)c1 (3D coordinates assigned)
CNC(=O)c1ccc([O-])c([N-]S(=O)(=O)c2ccc(C)cc2)c1 (optimized conformer: 38.10268240122096 kcal/mol)

>  <smiles>  (27) 
CNC(=O)c1ccc(O)c(NS(=O)(=O)c2ccc(C)cc2)c1

>  <score_type>  (27) 
oracle

>  <origin>  (27) 
adgpu

>  <m_score__min__energy>  (27) 
-12.779999999999999

>  <m_primary>  (27) 
energy

$$$$
27:0
     RDKit          3D

 45 48  0  0  0  0  0  0  0  0999 V2000
   -0.5110   21.4890  -32.6800 O   0  0  0  0  0  0  0  0  0  0  0  0
   -1.2390   21.0060  -33.5900 C   0  0  0  0  0  0  0  0  0  0  0  0
   -0.8470   21.1320  -34.9710 N   0  0  0  0  0  0  0  0  0  0  0  0
    0.3940   21.7130  -35.4070 C   0  0  0  0  0  0  0  0  0  0  0  0
    1.5480   20.9150  -35.4490 C   0  0  0  0  0  0  0  0  0  0  0  0
    2.7750   21.4600  -35.8430 C   0  0  0  0  0  0  0  0  0  0  0  0
    2.8610   22.8140  -36.1820 C   0  0  0  0  0  0  0  0  0  0  0  0
    4.0790   23.3560  -36.5730 O   0  0  0  0  0  0  0  0  0  0  0  0
    1.7230   23.6220  -36.1220 C   0  0  0  0  0  0  0  0  0  0  0  0
    0.4960   23.0800  -35.7270 C   0  0  0  0  0  0  0  0  0  0  0  0
   -2.4980   20.3250  -33.2140 C   0  0  0  0  0  0  0  0  0  0  0  0
   -3.3150   19.7100  -34.1800 C   0  0  0  0  0  0  0  0  0  0  0  0
   -4.5070   19.0860  -33.8060 C   0  0  0  0  0  0  0  0  0  0  0  0
   -4.9060   19.0700  -32.4650 C   0  0  0  0  0  0  0  0  0  0  0  0
   -6.4260   18.3050  -32.0140 S   0  0  0  0  0  0  0  0  0  0  0  0
   -6.3130   17.6610  -30.6600 O   0  0  0  0  0  0  0  0  0  0  0  0
   -6.7680   17.2530  -33.0310 O   0  0  0  0  0  0  0  0  0  0  0  0
   -7.6800   19.5010  -31.9630 N   0  0  0  0  0  0  0  0  0  0  0  0
   -9.0790   19.2420  -32.2870 C   0  0  0  0  0  0  0  0  0  0  0  0
   -9.7750   20.6270  -32.2920 C   0  0  0  0  0  0  0  0  0  0  0  0
   -8.6580   21.5760  -32.0170 C   0  0  0  0  0  0  0  0  0  0  0  0
   -8.7060   22.9690  -31.9560 C   0  0  0  0  0  0  0  0  0  0  0  0
   -7.5160   23.6690  -31.6950 C   0  0  0  0  0  0  0  0  0  0  0  0
   -6.3090   22.9680  -31.5050 C   0  0  0  0  0  0  0  0  0  0  0  0
   -6.2860   21.5650  -31.5760 C   0  0  0  0  0  0  0  0  0  0  0  0
   -7.4850   20.8970  -31.8350 C   0  0  0  0  0  0  0  0  0  0  0  0
   -4.1020   19.6830  -31.4990 C   0  0  0  0  0  0  0  0  0  0  0  0
   -2.9100   20.3120  -31.8700 C   0  0  0  0  0  0  0  0  0  0  0  0
   -1.5160   20.8320  -35.7150 H   0  0  0  0  0  0  0  0  0  0  0  0
    1.4872   19.8527  -35.1699 H   0  0  0  0  0  0  0  0  0  0  0  0
    3.6714   20.8238  -35.8861 H   0  0  0  0  0  0  0  0  0  0  0  0
    1.7923   24.6875  -36.3862 H   0  0  0  0  0  0  0  0  0  0  0  0
   -0.3933   23.7246  -35.6661 H   0  0  0  0  0  0  0  0  0  0  0  0
   -3.0127   19.7207  -35.2376 H   0  0  0  0  0  0  0  0  0  0  0  0
   -5.1355   18.6045  -34.5696 H   0  0  0  0  0  0  0  0  0  0  0  0
   -9.1617   18.7682  -33.2763 H   0  0  0  0  0  0  0  0  0  0  0  0
   -9.5429   18.5585  -31.5606 H   0  0  0  0  0  0  0  0  0  0  0  0
  -10.2348   20.8330  -33.2699 H   0  0  0  0  0  0  0  0  0  0  0  0
  -10.5912   20.7002  -31.5582 H   0  0  0  0  0  0  0  0  0  0  0  0
   -9.6534   23.5067  -32.1087 H   0  0  0  0  0  0  0  0  0  0  0  0
   -7.5269   24.7675  -31.6389 H   0  0  0  0  0  0  0  0  0  0  0  0
   -5.3806   23.5213  -31.3002 H   0  0  0  0  0  0  0  0  0  0  0  0
   -5.3488   21.0075  -31.4315 H   0  0  0  0  0  0  0  0  0  0  0  0
   -4.4088   19.6702  -30.4427 H   0  0  0  0  0  0  0  0  0  0  0  0
   -2.2896   20.8006  -31.1043 H   0  0  0  0  0  0  0  0  0  0  0  0
  1  2  2  0
  2  3  1  0
  3  4  1  0
  4  5  2  0
  5  6  1  0
  6  7  2  0
  7  8  1  0
  7  9  1  0
  9 10  2  0
  2 11  1  0
 11 12  2  0
 12 13  1  0
 13 14  2  0
 14 15  1  0
 15 16  2  0
 15 17  2  0
 15 18  1  0
 18 19  1  0
 19 20  1  0
 20 21  1  0
 21 22  2  0
 22 23  1  0
 23 24  2  0
 24 25  1  0
 25 26  2  0
 14 27  1  0
 27 28  2  0
 10  4  1  0
 28 11  1  0
 26 18  1  0
 26 21  1  0
  3 29  1  0
  5 30  1  0
  6 31  1  0
  9 32  1  0
 10 33  1  0
 12 34  1  0
 13 35  1  0
 19 36  1  0
 19 37  1  0
 20 38  1  0
 20 39  1  0
 22 40  1  0
 23 41  1  0
 24 42  1  0
 25 43  1  0
 27 44  1  0
 28 45  1  0
M  CHG  1   8  -1
M  END
>  <UniqueID>  (28) 
26

>  <SMILES>  (28) 
O=C(Nc1ccc([O-])cc1)c1ccc(S(=O)(=O)N2CCc3ccccc32)cc1

>  <Energy>  (28) 
71.5530170693114

>  <Genealogy>  (28) 
O=C(Nc1ccc([O-])cc1)c1ccc(S(=O)(=O)N2CCc3ccccc32)cc1 (protonated)
O=C(Nc1ccc([O-])cc1)c1ccc(S(=O)(=O)N2CCc3ccccc32)cc1 (3D coordinates assigned)
O=C(Nc1ccc([O-])cc1)c1ccc(S(=O)(=O)N2CCc3ccccc32)cc1 (nonaromatic ring conformer: 71.5530170693114 kcal/mol)

>  <smiles>  (28) 
O=C(Nc1ccc(O)cc1)c1ccc(S(=O)(=O)N2CCc3ccccc32)cc1

>  <score_type>  (28) 
oracle

>  <origin>  (28) 
adgpu

>  <m_score__min__energy>  (28) 
-9.5999999999999996

>  <m_primary>  (28) 
energy

$$$$
28:0
     RDKit          3D

 46 48  0  0  0  0  0  0  0  0999 V2000
   -4.5950   14.1150  -31.5060 C   0  0  0  0  0  0  0  0  0  0  0  0
   -4.9780   14.9350  -32.4880 C   0  0  0  0  0  0  0  0  0  0  0  0
   -5.0410   16.4240  -32.2770 C   0  0  0  0  0  0  0  0  0  0  0  0
   -5.1540   17.1420  -33.5540 N   0  0  0  0  0  0  0  0  0  0  0  0
   -4.3700   17.0100  -34.6450 C   0  0  0  0  0  0  0  0  0  0  0  0
   -2.9540   15.9120  -34.7850 S   0  0  0  0  0  0  0  0  0  0  0  0
   -1.7150   17.2470  -34.9070 C   0  0  0  0  0  0  0  0  0  0  0  0
   -1.9080   18.2350  -33.8030 C   0  0  0  0  0  0  0  0  0  0  0  0
   -1.2270   18.1180  -32.7490 O   0  0  0  0  0  0  0  0  0  0  0  0
   -2.8700   19.2920  -33.9420 N   0  0  0  0  0  0  0  0  0  0  0  0
   -2.9710   20.4230  -33.0570 C   0  0  0  0  0  0  0  0  0  0  0  0
   -1.8600   20.7860  -32.2820 C   0  0  0  0  0  0  0  0  0  0  0  0
   -1.9460   21.8380  -31.3660 C   0  0  0  0  0  0  0  0  0  0  0  0
   -3.1510   22.5340  -31.2020 C   0  0  0  0  0  0  0  0  0  0  0  0
   -3.2820   23.8530  -30.0440 S   0  0  0  0  0  0  0  0  0  0  0  0
   -3.9420   25.2460  -30.8260 N   0  0  0  0  0  0  0  0  0  0  0  0
   -1.9260   24.2000  -29.4950 O   0  0  0  0  0  0  0  0  0  0  0  0
   -4.1760   23.4360  -28.9100 O   0  0  0  0  0  0  0  0  0  0  0  0
   -4.2700   22.1630  -31.9590 C   0  0  0  0  0  0  0  0  0  0  0  0
   -4.1850   21.1120  -32.8760 C   0  0  0  0  0  0  0  0  0  0  0  0
   -4.7320   17.8600  -35.6240 N   0  0  0  0  0  0  0  0  0  0  0  0
   -5.7620   18.5560  -35.1710 N   0  0  0  0  0  0  0  0  0  0  0  0
   -6.0030   18.1360  -33.9130 C   0  0  0  0  0  0  0  0  0  0  0  0
   -7.0800   18.7090  -33.0790 C   0  0  0  0  0  0  0  0  0  0  0  0
   -7.2870   20.0960  -33.0640 C   0  0  0  0  0  0  0  0  0  0  0  0
   -8.2970   20.6430  -32.2710 C   0  0  0  0  0  0  0  0  0  0  0  0
   -9.0820   19.8000  -31.4850 C   0  0  0  0  0  0  0  0  0  0  0  0
   -8.8540   18.4600  -31.4880 N   0  0  0  0  0  0  0  0  0  0  0  0
   -7.8790   17.9020  -32.2530 C   0  0  0  0  0  0  0  0  0  0  0  0
   -4.5554   13.0295  -31.6799 H   0  0  0  0  0  0  0  0  0  0  0  0
   -4.3191   14.5250  -30.5233 H   0  0  0  0  0  0  0  0  0  0  0  0
   -5.2520   14.5153  -33.4672 H   0  0  0  0  0  0  0  0  0  0  0  0
   -5.9166   16.6606  -31.6547 H   0  0  0  0  0  0  0  0  0  0  0  0
   -4.1123   16.7431  -31.7814 H   0  0  0  0  0  0  0  0  0  0  0  0
   -0.7064   16.8140  -34.8344 H   0  0  0  0  0  0  0  0  0  0  0  0
   -1.8357   17.7605  -35.8723 H   0  0  0  0  0  0  0  0  0  0  0  0
   -3.5770   19.2060  -34.7080 H   0  0  0  0  0  0  0  0  0  0  0  0
   -0.9130   20.2381  -32.3960 H   0  0  0  0  0  0  0  0  0  0  0  0
   -1.0646   22.1206  -30.7717 H   0  0  0  0  0  0  0  0  0  0  0  0
   -3.8790   26.0370  -30.1470 H   0  0  0  0  0  0  0  0  0  0  0  0
   -5.2204   22.7018  -31.8308 H   0  0  0  0  0  0  0  0  0  0  0  0
   -5.0713   20.8217  -33.4593 H   0  0  0  0  0  0  0  0  0  0  0  0
   -6.6531   20.7531  -33.6775 H   0  0  0  0  0  0  0  0  0  0  0  0
   -8.4721   21.7290  -32.2661 H   0  0  0  0  0  0  0  0  0  0  0  0
   -9.8859   20.2196  -30.8624 H   0  0  0  0  0  0  0  0  0  0  0  0
   -7.7152   16.8146  -32.2250 H   0  0  0  0  0  0  0  0  0  0  0  0
  1  2  2  0
  2  3  1  0
  3  4  1  0
  4  5  1  0
  5  6  1  0
  6  7  1  0
  7  8  1  0
  8  9  2  0
  8 10  1  0
 10 11  1  0
 11 12  2  0
 12 13  1  0
 13 14  2  0
 14 15  1  0
 15 16  1  0
 15 17  2  0
 15 18  2  0
 14 19  1  0
 19 20  2  0
  5 21  2  0
 21 22  1  0
 22 23  2  0
 23 24  1  0
 24 25  2  0
 25 26  1  0
 26 27  2  0
 27 28  1  0
 28 29  2  0
 23  4  1  0
 29 24  1  0
 20 11  1  0
  1 30  1  0
  1 31  1  0
  2 32  1  0
  3 33  1  0
  3 34  1  0
  7 35  1  0
  7 36  1  0
 10 37  1  0
 12 38  1  0
 13 39  1  0
 16 40  1  0
 19 41  1  0
 20 42  1  0
 25 43  1  0
 26 44  1  0
 27 45  1  0
 29 46  1  0
M  CHG  1  16  -1
M  END
>  <UniqueID>  (29) 
27

>  <SMILES>  (29) 
C=CCn1c(SCC(=O)Nc2ccc(S([NH-])(=O)=O)cc2)nnc1-c1cccnc1

>  <Energy>  (29) 
81.9090601457005

>  <Genealogy>  (29) 
C=CCn1c(SCC(=O)Nc2ccc(S([NH-])(=O)=O)cc2)nnc1-c1cccnc1 (protonated)
C=CCn1c(SCC(=O)Nc2ccc(S([NH-])(=O)=O)cc2)nnc1-c1cccnc1 (3D coordinates assigned)
C=CCn1c(SCC(=O)Nc2ccc(S([NH-])(=O)=O)cc2)nnc1-c1cccnc1 (optimized conformer: 81.9090601457005 kcal/mol)

>  <smiles>  (29) 
C=CCn1c(SCC(=O)Nc2ccc(S(N)(=O)=O)cc2)nnc1-c1cccnc1

>  <score_type>  (29) 
oracle

>  <origin>  (29) 
adgpu

>  <m_score__min__energy>  (29) 
-10.449999999999999

>  <m_primary>  (29) 
energy

$$$$
29:0
     RDKit          3D

 52 55  0  0  0  0  0  0  0  0999 V2000
   -2.2640   14.8870  -32.7810 C   0  0  0  0  0  0  0  0  0  0  0  0
   -3.3070   15.0990  -33.7760 N   0  0  0  0  0  0  0  0  0  0  0  0
   -3.7110   16.3800  -34.2780 C   0  0  0  0  0  0  0  0  0  0  0  0
   -3.1020   16.8620  -35.2690 O   0  0  0  0  0  0  0  0  0  0  0  0
   -4.8420   17.1330  -33.6980 C   0  0  0  0  0  0  0  0  0  0  0  0
   -5.3650   16.7540  -32.4510 C   0  0  0  0  0  0  0  0  0  0  0  0
   -6.4420   17.4530  -31.8960 C   0  0  0  0  0  0  0  0  0  0  0  0
   -7.0120   18.5270  -32.5890 C   0  0  0  0  0  0  0  0  0  0  0  0
   -8.3860   19.4280  -31.8730 S   0  0  0  0  0  0  0  0  0  0  0  0
   -7.4710   20.9690  -31.8290 C   0  0  0  0  0  0  0  0  0  0  0  0
   -8.1500   22.1900  -31.9190 C   0  0  0  0  0  0  0  0  0  0  0  0
   -7.4380   23.3920  -31.8730 C   0  0  0  0  0  0  0  0  0  0  0  0
   -6.0470   23.3840  -31.7150 C   0  0  0  0  0  0  0  0  0  0  0  0
   -5.3520   24.6330  -31.6030 N   0  0  0  0  0  0  0  0  0  0  0  0
   -4.9100   25.2490  -30.3840 C   0  0  0  0  0  0  0  0  0  0  0  0
   -5.7640   25.7620  -29.6180 O   0  0  0  0  0  0  0  0  0  0  0  0
   -3.5250   25.2960  -30.0070 N   0  0  0  0  0  0  0  0  0  0  0  0
   -2.6780   24.1700  -29.7340 C   0  0  0  0  0  0  0  0  0  0  0  0
   -1.8280   24.2160  -28.6240 C   0  0  0  0  0  0  0  0  0  0  0  0
   -0.9390   23.1690  -28.3730 C   0  0  0  0  0  0  0  0  0  0  0  0
   -0.8930   22.0670  -29.2290 C   0  0  0  0  0  0  0  0  0  0  0  0
   -1.7610   21.9860  -30.3330 C   0  0  0  0  0  0  0  0  0  0  0  0
   -1.6920   20.8350  -31.2650 C   0  0  0  0  0  0  0  0  0  0  0  0
   -2.4540   20.8140  -32.4440 C   0  0  0  0  0  0  0  0  0  0  0  0
   -2.3640   19.7300  -33.3190 C   0  0  0  0  0  0  0  0  0  0  0  0
   -1.5070   18.6720  -33.0100 C   0  0  0  0  0  0  0  0  0  0  0  0
   -0.7710   18.7040  -31.8690 N   0  0  0  0  0  0  0  0  0  0  0  0
   -0.8430   19.7460  -31.0000 C   0  0  0  0  0  0  0  0  0  0  0  0
   -2.6750   23.0320  -30.5590 C   0  0  0  0  0  0  0  0  0  0  0  0
   -5.3650   22.1560  -31.6570 C   0  0  0  0  0  0  0  0  0  0  0  0
   -6.0770   20.9540  -31.7040 C   0  0  0  0  0  0  0  0  0  0  0  0
   -6.5120   18.8920  -33.8440 C   0  0  0  0  0  0  0  0  0  0  0  0
   -5.4350   18.1940  -34.3990 C   0  0  0  0  0  0  0  0  0  0  0  0
   -2.6956   14.9747  -31.7730 H   0  0  0  0  0  0  0  0  0  0  0  0
   -1.8334   13.8830  -32.9094 H   0  0  0  0  0  0  0  0  0  0  0  0
   -1.4756   15.6433  -32.9094 H   0  0  0  0  0  0  0  0  0  0  0  0
   -4.9258   15.9039  -31.9084 H   0  0  0  0  0  0  0  0  0  0  0  0
   -6.8412   17.1584  -30.9142 H   0  0  0  0  0  0  0  0  0  0  0  0
   -9.2447   22.2035  -32.0260 H   0  0  0  0  0  0  0  0  0  0  0  0
   -7.9733   24.3489  -31.9614 H   0  0  0  0  0  0  0  0  0  0  0  0
   -1.8601   25.0813  -27.9455 H   0  0  0  0  0  0  0  0  0  0  0  0
   -0.2731   23.2125  -27.4985 H   0  0  0  0  0  0  0  0  0  0  0  0
   -0.1735   21.2570  -29.0389 H   0  0  0  0  0  0  0  0  0  0  0  0
   -3.1239   21.6542  -32.6790 H   0  0  0  0  0  0  0  0  0  0  0  0
   -2.9619   19.7096  -34.2421 H   0  0  0  0  0  0  0  0  0  0  0  0
   -1.4278   17.8119  -33.6911 H   0  0  0  0  0  0  0  0  0  0  0  0
   -0.2338   19.7376  -30.0842 H   0  0  0  0  0  0  0  0  0  0  0  0
   -3.3935   22.9583  -31.3887 H   0  0  0  0  0  0  0  0  0  0  0  0
   -4.2682   22.1410  -31.5744 H   0  0  0  0  0  0  0  0  0  0  0  0
   -5.5412   19.9953  -31.6427 H   0  0  0  0  0  0  0  0  0  0  0  0
   -6.9667   19.7288  -34.3944 H   0  0  0  0  0  0  0  0  0  0  0  0
   -5.0508   18.4780  -35.3898 H   0  0  0  0  0  0  0  0  0  0  0  0
  1  2  1  0
  2  3  1  0
  3  4  2  0
  3  5  1  0
  5  6  2  0
  6  7  1  0
  7  8  2  0
  8  9  1  0
  9 10  1  0
 10 11  2  0
 11 12  1  0
 12 13  2  0
 13 14  1  0
 14 15  1  0
 15 16  2  0
 15 17  1  0
 17 18  1  0
 18 19  2  0
 19 20  1  0
 20 21  2  0
 21 22  1  0
 22 23  1  0
 23 24  2  0
 24 25  1  0
 25 26  2  0
 26 27  1  0
 27 28  2  0
 22 29  2  0
 13 30  1  0
 30 31  2  0
  8 32  1  0
 32 33  2  0
 33  5  1  0
 31 10  1  0
 29 18  1  0
 28 23  1  0
  1 34  1  0
  1 35  1  0
  1 36  1  0
  6 37  1  0
  7 38  1  0
 11 39  1  0
 12 40  1  0
 19 41  1  0
 20 42  1  0
 21 43  1  0
 24 44  1  0
 25 45  1  0
 26 46  1  0
 28 47  1  0
 29 48  1  0
 30 49  1  0
 31 50  1  0
 32 51  1  0
 33 52  1  0
M  CHG  3   2  -1  14  -1  17  -1
M  END
>  <UniqueID>  (30) 
28

>  <SMILES>  (30) 
C[N-]C(=O)c1ccc(Sc2ccc([N-]C(=O)[N-]c3cccc(-c4cccnc4)c3)cc2)cc1

>  <Energy>  (30) 
67.72627256171302

>  <Genealogy>  (30) 
C[N-]C(=O)c1ccc(Sc2ccc([N-]C(=O)[N-]c3cccc(-c4cccnc4)c3)cc2)cc1 (protonated)
C[N-]C(=O)c1ccc(Sc2ccc([N-]C(=O)[N-]c3cccc(-c4cccnc4)c3)cc2)cc1 (3D coordinates assigned)
C[N-]C(=O)c1ccc(Sc2ccc([N-]C(=O)[N-]c3cccc(-c4cccnc4)c3)cc2)cc1 (optimized conformer: 67.72627256171302 kcal/mol)

>  <smiles>  (30) 
CNC(=O)c1ccc(Sc2ccc(NC(=O)Nc3cccc(-c4cccnc4)c3)cc2)cc1

>  <score_type>  (30) 
oracle

>  <origin>  (30) 
adgpu

>  <m_score__min__energy>  (30) 
-13.279999999999999

>  <m_primary>  (30) 
energy

$$$$
30:0
     RDKit          3D

 45 47  0  0  0  0  0  0  0  0999 V2000
   -1.0300   25.9770  -27.7900 C   0  0  0  0  0  0  0  0  0  0  0  0
   -1.7810   25.6790  -28.9620 O   0  0  0  0  0  0  0  0  0  0  0  0
   -2.5220   24.5030  -29.1540 C   0  0  0  0  0  0  0  0  0  0  0  0
   -2.2440   23.3150  -28.4470 C   0  0  0  0  0  0  0  0  0  0  0  0
   -2.9940   22.1520  -28.6870 C   0  0  0  0  0  0  0  0  0  0  0  0
   -2.6360   20.8540  -28.0110 C   0  0  0  0  0  0  0  0  0  0  0  0
   -1.8270   20.0160  -28.9130 N   0  0  0  0  0  0  0  0  0  0  0  0
   -0.8880   20.8010  -29.7350 C   0  0  0  0  0  0  0  0  0  0  0  0
   -1.2130   20.7070  -31.2060 C   0  0  0  0  0  0  0  0  0  0  0  0
   -0.3170   21.2100  -32.1620 C   0  0  0  0  0  0  0  0  0  0  0  0
   -0.6380   21.1640  -33.5200 C   0  0  0  0  0  0  0  0  0  0  0  0
   -1.8570   20.6230  -33.9360 C   0  0  0  0  0  0  0  0  0  0  0  0
   -2.7550   20.0980  -33.0000 C   0  0  0  0  0  0  0  0  0  0  0  0
   -3.9960   19.6290  -33.4560 O   0  0  0  0  0  0  0  0  0  0  0  0
   -5.2470   20.0620  -32.9990 C   0  0  0  0  0  0  0  0  0  0  0  0
   -5.5030   21.4170  -32.7200 C   0  0  0  0  0  0  0  0  0  0  0  0
   -6.7610   21.8130  -32.2560 C   0  0  0  0  0  0  0  0  0  0  0  0
   -7.7650   20.8600  -32.0550 C   0  0  0  0  0  0  0  0  0  0  0  0
   -7.5090   19.5100  -32.3120 C   0  0  0  0  0  0  0  0  0  0  0  0
   -6.2510   19.1120  -32.7750 C   0  0  0  0  0  0  0  0  0  0  0  0
   -2.4160   20.1200  -31.6330 C   0  0  0  0  0  0  0  0  0  0  0  0
   -4.0440   22.1890  -29.6170 C   0  0  0  0  0  0  0  0  0  0  0  0
   -4.3250   23.3640  -30.3150 C   0  0  0  0  0  0  0  0  0  0  0  0
   -3.5660   24.5150  -30.0890 C   0  0  0  0  0  0  0  0  0  0  0  0
   -3.8500   25.6750  -30.8010 O   0  0  0  0  0  0  0  0  0  0  0  0
   -1.6302   25.7388  -26.8995 H   0  0  0  0  0  0  0  0  0  0  0  0
   -0.1085   25.3764  -27.7824 H   0  0  0  0  0  0  0  0  0  0  0  0
   -0.7710   27.0460  -27.7824 H   0  0  0  0  0  0  0  0  0  0  0  0
   -1.4343   23.2990  -27.7026 H   0  0  0  0  0  0  0  0  0  0  0  0
   -2.0598   21.0666  -27.0985 H   0  0  0  0  0  0  0  0  0  0  0  0
   -3.5607   20.3161  -27.7549 H   0  0  0  0  0  0  0  0  0  0  0  0
   -1.2500   19.3760  -28.3190 H   0  0  0  0  0  0  0  0  0  0  0  0
   -0.9406   21.8554  -29.4259 H   0  0  0  0  0  0  0  0  0  0  0  0
    0.1220   20.3928  -29.5824 H   0  0  0  0  0  0  0  0  0  0  0  0
    0.6420   21.6422  -31.8401 H   0  0  0  0  0  0  0  0  0  0  0  0
    0.0710   21.5549  -34.2646 H   0  0  0  0  0  0  0  0  0  0  0  0
   -2.1125   20.6096  -35.0058 H   0  0  0  0  0  0  0  0  0  0  0  0
   -4.7115   22.1666  -32.8673 H   0  0  0  0  0  0  0  0  0  0  0  0
   -6.9613   22.8746  -32.0489 H   0  0  0  0  0  0  0  0  0  0  0  0
   -8.7561   21.1729  -31.6947 H   0  0  0  0  0  0  0  0  0  0  0  0
   -8.2976   18.7604  -32.1499 H   0  0  0  0  0  0  0  0  0  0  0  0
   -6.0491   18.0474  -32.9642 H   0  0  0  0  0  0  0  0  0  0  0  0
   -3.0982   19.6743  -30.8942 H   0  0  0  0  0  0  0  0  0  0  0  0
   -4.6483   21.2876  -29.7966 H   0  0  0  0  0  0  0  0  0  0  0  0
   -5.1470   23.3842  -31.0457 H   0  0  0  0  0  0  0  0  0  0  0  0
  1  2  1  0
  2  3  1  0
  3  4  2  0
  4  5  1  0
  5  6  1  0
  6  7  1  0
  7  8  1  0
  8  9  1  0
  9 10  2  0
 10 11  1  0
 11 12  2  0
 12 13  1  0
 13 14  1  0
 14 15  1  0
 15 16  2  0
 16 17  1  0
 17 18  2  0
 18 19  1  0
 19 20  2  0
 13 21  2  0
  5 22  2  0
 22 23  1  0
 23 24  2  0
 24 25  1  0
 24  3  1  0
 21  9  1  0
 20 15  1  0
  1 26  1  0
  1 27  1  0
  1 28  1  0
  4 29  1  0
  6 30  1  0
  6 31  1  0
  7 32  1  0
  8 33  1  0
  8 34  1  0
 10 35  1  0
 11 36  1  0
 12 37  1  0
 16 38  1  0
 17 39  1  0
 18 40  1  0
 19 41  1  0
 20 42  1  0
 21 43  1  0
 22 44  1  0
 23 45  1  0
M  CHG  1  25  -1
M  END
>  <UniqueID>  (31) 
29

>  <SMILES>  (31) 
COc1cc(CNCc2cccc(Oc3ccccc3)c2)ccc1[O-]

>  <Energy>  (31) 
48.718216788059976

>  <Genealogy>  (31) 
COc1cc(CNCc2cccc(Oc3ccccc3)c2)ccc1[O-] (protonated)
COc1cc(CNCc2cccc(Oc3ccccc3)c2)ccc1[O-] (3D coordinates assigned)
COc1cc(CNCc2cccc(Oc3ccccc3)c2)ccc1[O-] (optimized conformer: 48.718216788059976 kcal/mol)

>  <smiles>  (31) 
COc1cc(CNCc2cccc(Oc3ccccc3)c2)ccc1O

>  <score_type>  (31) 
oracle

>  <origin>  (31) 
adgpu

>  <m_score__min__energy>  (31) 
-11.18

>  <m_primary>  (31) 
energy

$$$$
31:0
     RDKit          3D

 35 38  0  0  0  0  0  0  0  0999 V2000
   -1.6300   24.1540  -29.7030 O   0  0  0  0  0  0  0  0  0  0  0  0
   -2.7860   23.5280  -30.1530 C   0  0  0  0  0  0  0  0  0  0  0  0
   -2.8130   22.1390  -30.2850 C   0  0  0  0  0  0  0  0  0  0  0  0
   -3.9640   21.4950  -30.7380 C   0  0  0  0  0  0  0  0  0  0  0  0
   -5.1150   22.2370  -31.0760 C   0  0  0  0  0  0  0  0  0  0  0  0
   -6.2930   21.6010  -31.5390 C   0  0  0  0  0  0  0  0  0  0  0  0
   -6.3400   20.1790  -31.7130 N   0  0  0  0  0  0  0  0  0  0  0  0
   -5.4070   19.4090  -32.2980 C   0  0  0  0  0  0  0  0  0  0  0  0
   -5.8950   18.1170  -32.2550 C   0  0  0  0  0  0  0  0  0  0  0  0
   -5.2470   16.8850  -32.7650 C   0  0  0  0  0  0  0  0  0  0  0  0
   -5.0460   15.7690  -31.9310 C   0  0  0  0  0  0  0  0  0  0  0  0
   -4.4320   14.6150  -32.4300 C   0  0  0  0  0  0  0  0  0  0  0  0
   -4.0150   14.5620  -33.7620 C   0  0  0  0  0  0  0  0  0  0  0  0
   -4.2100   15.6630  -34.5980 C   0  0  0  0  0  0  0  0  0  0  0  0
   -4.8220   16.8190  -34.1050 C   0  0  0  0  0  0  0  0  0  0  0  0
   -7.1040   18.1480  -31.6530 N   0  0  0  0  0  0  0  0  0  0  0  0
   -7.3500   19.4120  -31.3380 N   0  0  0  0  0  0  0  0  0  0  0  0
   -7.4340   22.3770  -31.8370 C   0  0  0  0  0  0  0  0  0  0  0  0
   -8.6100   21.7950  -32.3120 O   0  0  0  0  0  0  0  0  0  0  0  0
   -7.3980   23.7620  -31.6730 C   0  0  0  0  0  0  0  0  0  0  0  0
   -6.2390   24.3960  -31.2280 C   0  0  0  0  0  0  0  0  0  0  0  0
   -5.0910   23.6500  -30.9250 C   0  0  0  0  0  0  0  0  0  0  0  0
   -3.9180   24.2860  -30.4680 C   0  0  0  0  0  0  0  0  0  0  0  0
   -3.8710   25.6690  -30.3210 O   0  0  0  0  0  0  0  0  0  0  0  0
   -1.9207   21.5484  -30.0301 H   0  0  0  0  0  0  0  0  0  0  0  0
   -3.9744   20.3991  -30.8325 H   0  0  0  0  0  0  0  0  0  0  0  0
   -4.4488   19.7402  -32.7247 H   0  0  0  0  0  0  0  0  0  0  0  0
   -5.3734   15.8043  -30.8814 H   0  0  0  0  0  0  0  0  0  0  0  0
   -4.2773   13.7474  -31.7717 H   0  0  0  0  0  0  0  0  0  0  0  0
   -3.5332   13.6533  -34.1521 H   0  0  0  0  0  0  0  0  0  0  0  0
   -3.8813   15.6207  -35.6469 H   0  0  0  0  0  0  0  0  0  0  0  0
   -4.9724   17.6830  -34.7690 H   0  0  0  0  0  0  0  0  0  0  0  0
   -8.7800   20.7980  -32.2780 H   0  0  0  0  0  0  0  0  0  0  0  0
   -8.2936   24.3600  -31.8972 H   0  0  0  0  0  0  0  0  0  0  0  0
   -6.2249   25.4900  -31.1137 H   0  0  0  0  0  0  0  0  0  0  0  0
  1  2  1  0
  2  3  2  0
  3  4  1  0
  4  5  2  0
  5  6  1  0
  6  7  1  0
  7  8  1  0
  8  9  2  0
  9 10  1  0
 10 11  2  0
 11 12  1  0
 12 13  2  0
 13 14  1  0
 14 15  2  0
  9 16  1  0
 16 17  2  0
  6 18  2  0
 18 19  1  0
 18 20  1  0
 20 21  2  0
 21 22  1  0
 22 23  2  0
 23 24  1  0
 23  2  1  0
 22  5  1  0
 17  7  1  0
 15 10  1  0
  3 25  1  0
  4 26  1  0
  8 27  1  0
 11 28  1  0
 12 29  1  0
 13 30  1  0
 14 31  1  0
 15 32  1  0
 19 33  1  0
 20 34  1  0
 21 35  1  0
M  CHG  2   1  -1  24  -1
M  END
>  <UniqueID>  (32) 
30

>  <SMILES>  (32) 
[O-]c1ccc2c(-n3cc(-c4ccccc4)nn3)c(O)ccc2c1[O-]

>  <Energy>  (32) 
89.55493800428168

>  <Genealogy>  (32) 
[O-]c1ccc2c(-n3cc(-c4ccccc4)nn3)c(O)ccc2c1[O-] (protonated)
[O-]c1ccc2c(-n3cc(-c4ccccc4)nn3)c(O)ccc2c1[O-] (3D coordinates assigned)
[O-]c1ccc2c(-n3cc(-c4ccccc4)nn3)c(O)ccc2c1[O-] (optimized conformer: 89.55493800428168 kcal/mol)

>  <smiles>  (32) 
Oc1ccc2c(-n3cc(-c4ccccc4)nn3)c(O)ccc2c1O

>  <score_type>  (32) 
oracle

>  <origin>  (32) 
adgpu

>  <m_score__min__energy>  (32) 
-11.460000000000001

>  <m_primary>  (32) 
energy

$$$$
32:0
     RDKit          3D

 42 45  0  0  0  0  0  0  0  0999 V2000
   -0.3260   27.2199  -28.7952 H   0  0  0  0  0  0  0  0  0  0  0  0
   -0.8720   26.4510  -28.2290 C   0  0  0  0  0  0  0  0  0  0  0  0
   -1.8060   25.6820  -28.8510 N   0  0  0  0  0  0  0  0  0  0  0  0
   -2.5020   24.7110  -28.1920 C   0  0  0  0  0  0  0  0  0  0  0  0
   -3.3980   23.9870  -28.8000 N   0  0  0  0  0  0  0  0  0  0  0  0
   -3.7360   24.0220  -30.1970 C   0  0  0  0  0  0  0  0  0  0  0  0
   -3.8570   25.1420  -30.7600 O   0  0  0  0  0  0  0  0  0  0  0  0
   -4.0440   22.7930  -30.9670 C   0  0  0  0  0  0  0  0  0  0  0  0
   -5.3890   22.4300  -31.1280 C   0  0  0  0  0  0  0  0  0  0  0  0
   -6.1816   23.0537  -30.6889 H   0  0  0  0  0  0  0  0  0  0  0  0
   -5.7260   21.2760  -31.8460 C   0  0  0  0  0  0  0  0  0  0  0  0
   -7.1430   20.8730  -32.0100 C   0  0  0  0  0  0  0  0  0  0  0  0
   -8.1430   21.8620  -31.9650 C   0  0  0  0  0  0  0  0  0  0  0  0
   -7.8638   22.9110  -31.7870 H   0  0  0  0  0  0  0  0  0  0  0  0
   -9.4860   21.5250  -32.1440 C   0  0  0  0  0  0  0  0  0  0  0  0
  -10.2586   22.3069  -32.1044 H   0  0  0  0  0  0  0  0  0  0  0  0
   -9.8490   20.1980  -32.3730 C   0  0  0  0  0  0  0  0  0  0  0  0
  -10.9070   19.9362  -32.5216 H   0  0  0  0  0  0  0  0  0  0  0  0
   -8.8730   19.2020  -32.4140 C   0  0  0  0  0  0  0  0  0  0  0  0
   -9.1668   18.1584  -32.5998 H   0  0  0  0  0  0  0  0  0  0  0  0
   -7.5170   19.5200  -32.2200 C   0  0  0  0  0  0  0  0  0  0  0  0
   -6.4990   18.4090  -32.2450 C   0  0  0  0  0  0  0  0  0  0  0  0
   -6.2397   18.1260  -31.2141 H   0  0  0  0  0  0  0  0  0  0  0  0
   -6.9193   17.5383  -32.7696 H   0  0  0  0  0  0  0  0  0  0  0  0
   -5.5949   18.7518  -32.7696 H   0  0  0  0  0  0  0  0  0  0  0  0
   -4.7420   20.5230  -32.4040 N   0  0  0  0  0  0  0  0  0  0  0  0
   -3.4280   20.8390  -32.2800 C   0  0  0  0  0  0  0  0  0  0  0  0
   -2.4620   20.0130  -32.8670 C   0  0  0  0  0  0  0  0  0  0  0  0
   -2.7732   19.1278  -33.4412 H   0  0  0  0  0  0  0  0  0  0  0  0
   -1.1060   20.3090  -32.7260 C   0  0  0  0  0  0  0  0  0  0  0  0
   -0.3508   19.6614  -33.1954 H   0  0  0  0  0  0  0  0  0  0  0  0
   -0.7060   21.4260  -31.9900 C   0  0  0  0  0  0  0  0  0  0  0  0
    0.3646   21.6507  -31.8747 H   0  0  0  0  0  0  0  0  0  0  0  0
   -1.6590   22.2600  -31.3990 C   0  0  0  0  0  0  0  0  0  0  0  0
   -1.3345   23.1337  -30.8147 H   0  0  0  0  0  0  0  0  0  0  0  0
   -3.0360   21.9870  -31.5480 C   0  0  0  0  0  0  0  0  0  0  0  0
   -2.2690   24.5070  -26.8260 C   0  0  0  0  0  0  0  0  0  0  0  0
   -2.8334   23.7395  -26.2761 H   0  0  0  0  0  0  0  0  0  0  0  0
   -1.3140   25.2860  -26.1670 C   0  0  0  0  0  0  0  0  0  0  0  0
   -1.1197   25.1295  -25.0957 H   0  0  0  0  0  0  0  0  0  0  0  0
   -0.6070   26.2630  -26.8700 C   0  0  0  0  0  0  0  0  0  0  0  0
    0.5950   27.2470  -26.0570 Cl  0  0  0  0  0  0  0  0  0  0  0  0
  1  2  1  0
  2  3  1  0
  3  4  1  0
  4  5  2  0
  5  6  1  0
  6  7  2  0
  6  8  1  0
  8  9  2  0
  9 10  1  0
  9 11  1  0
 11 12  1  0
 12 13  2  0
 13 14  1  0
 13 15  1  0
 15 16  1  0
 15 17  2  0
 17 18  1  0
 17 19  1  0
 19 20  1  0
 19 21  2  0
 21 22  1  0
 22 23  1  0
 22 24  1  0
 22 25  1  0
 11 26  2  0
 26 27  1  0
 27 28  2  0
 28 29  1  0
 28 30  1  0
 30 31  1  0
 30 32  2  0
 32 33  1  0
 32 34  1  0
 34 35  1  0
 34 36  2  0
  4 37  1  0
 37 38  1  0
 37 39  2  0
 39 40  1  0
 39 41  1  0
 41 42  1  0
 41  2  2  0
 36  8  1  0
 21 12  1  0
 36 27  1  0
M  CHG  1   3  -1
M  END
>  <UniqueID>  (33) 
31

>  <SMILES>  (33) 
Cc1ccccc1-c1cc(C(=O)/N=c2/ccc(Cl)c[n-]2)c2ccccc2n1

>  <Energy>  (33) 
67.45578703415313

>  <Genealogy>  (33) 
Cc1ccccc1-c1cc(C(=O)N=c2ccc(Cl)c[n-]2)c2ccccc2n1 (protonated)
Cc1ccccc1-c1cc(C(=O)/N=c2/ccc(Cl)c[n-]2)c2ccccc2n1 (cis-trans isomerization)
Cc1ccccc1-c1cc(C(=O)/N=c2/ccc(Cl)c[n-]2)c2ccccc2n1 (3D coordinates assigned)
Cc1ccccc1-c1cc(C(=O)/N=c2/ccc(Cl)c[n-]2)c2ccccc2n1 (optimized conformer: 67.45578703415313 kcal/mol)

>  <smiles>  (33) 
Cc1ccccc1-c1cc(C(=O)N=c2ccc(Cl)c[nH]2)c2ccccc2n1

>  <score_type>  (33) 
oracle

>  <origin>  (33) 
adgpu

>  <m_score__min__energy>  (33) 
-11.199999999999999

>  <m_primary>  (33) 
energy

$$$$
33:0
     RDKit          3D

 36 38  0  0  0  0  0  0  0  0999 V2000
   -9.4800   21.8450  -32.0280 C   0  0  0  0  0  0  0  0  0  0  0  0
   -8.7300   21.0480  -30.9550 C   0  0  1  0  0  0  0  0  0  0  0  0
   -8.7980   19.5320  -31.2200 C   0  0  0  0  0  0  0  0  0  0  0  0
   -7.8740   19.1360  -32.3360 C   0  0  0  0  0  0  0  0  0  0  0  0
   -8.1570   18.1390  -33.0540 O   0  0  0  0  0  0  0  0  0  0  0  0
   -6.6100   19.8740  -32.5340 C   0  0  0  0  0  0  0  0  0  0  0  0
   -5.6270   19.4230  -33.4260 C   0  0  0  0  0  0  0  0  0  0  0  0
   -4.4240   20.1200  -33.5520 C   0  0  0  0  0  0  0  0  0  0  0  0
   -4.1930   21.2700  -32.7910 C   0  0  0  0  0  0  0  0  0  0  0  0
   -5.1720   21.7410  -31.9020 C   0  0  0  0  0  0  0  0  0  0  0  0
   -4.9310   22.9410  -31.1460 N   0  0  0  0  0  0  0  0  0  0  0  0
   -6.0480   23.8010  -30.7410 C   0  0  0  0  0  0  0  0  0  0  0  0
   -5.6730   25.2940  -30.8550 C   0  0  0  0  0  0  0  0  0  0  0  0
   -4.2370   25.5810  -30.6580 N   0  0  0  0  0  0  0  0  0  0  0  0
   -3.5460   24.5440  -29.8820 C   0  0  0  0  0  0  0  0  0  0  0  0
   -3.5840   23.2070  -30.6310 C   0  0  0  0  0  0  0  0  0  0  0  0
   -6.3870   21.0400  -31.7780 C   0  0  0  0  0  0  0  0  0  0  0  0
   -7.3720   21.4900  -30.8890 O   0  0  0  0  0  0  0  0  0  0  0  0
  -10.1570   22.5644  -31.5442 H   0  0  0  0  0  0  0  0  0  0  0  0
   -8.7566   22.3868  -32.6550 H   0  0  0  0  0  0  0  0  0  0  0  0
  -10.0647   21.1558  -32.6550 H   0  0  0  0  0  0  0  0  0  0  0  0
   -9.2184   21.2297  -29.9863 H   0  0  0  0  0  0  0  0  0  0  0  0
   -8.5079   18.9941  -30.3054 H   0  0  0  0  0  0  0  0  0  0  0  0
   -9.8271   19.2740  -31.5104 H   0  0  0  0  0  0  0  0  0  0  0  0
   -5.8038   18.5190  -34.0272 H   0  0  0  0  0  0  0  0  0  0  0  0
   -3.6548   19.7631  -34.2527 H   0  0  0  0  0  0  0  0  0  0  0  0
   -3.2389   21.8086  -32.8895 H   0  0  0  0  0  0  0  0  0  0  0  0
   -6.9116   23.5973  -31.3911 H   0  0  0  0  0  0  0  0  0  0  0  0
   -6.2928   23.5826  -29.6911 H   0  0  0  0  0  0  0  0  0  0  0  0
   -5.9593   25.6447  -31.8575 H   0  0  0  0  0  0  0  0  0  0  0  0
   -6.2100   25.8143  -30.0482 H   0  0  0  0  0  0  0  0  0  0  0  0
   -3.7740   25.6540  -31.5940 H   0  0  0  0  0  0  0  0  0  0  0  0
   -2.4990   24.8437  -29.7269 H   0  0  0  0  0  0  0  0  0  0  0  0
   -4.0511   24.4259  -28.9120 H   0  0  0  0  0  0  0  0  0  0  0  0
   -2.8763   23.2439  -31.4723 H   0  0  0  0  0  0  0  0  0  0  0  0
   -3.3059   22.4026  -29.9342 H   0  0  0  0  0  0  0  0  0  0  0  0
  1  2  1  0
  2  3  1  0
  3  4  1  0
  4  5  2  0
  4  6  1  0
  6  7  2  0
  7  8  1  0
  8  9  2  0
  9 10  1  0
 10 11  1  0
 11 12  1  0
 12 13  1  0
 13 14  1  0
 14 15  1  0
 15 16  1  0
 10 17  2  0
 17 18  1  0
 18  2  1  0
 17  6  1  0
 16 11  1  0
  1 19  1  0
  1 20  1  0
  1 21  1  0
  2 22  1  1
  3 23  1  0
  3 24  1  0
  7 25  1  0
  8 26  1  0
  9 27  1  0
 12 28  1  0
 12 29  1  0
 13 30  1  0
 13 31  1  0
 14 32  1  0
 15 33  1  0
 15 34  1  0
 16 35  1  0
 16 36  1  0
M  END
>  <UniqueID>  (34) 
32

>  <SMILES>  (34) 
C[C@H]1CC(=O)c2cccc(N3CCNCC3)c2O1

>  <Energy>  (34) 
44.26501975146646

>  <Genealogy>  (34) 
C[C@H]1CC(=O)c2cccc(N3CCNCC3)c2O1 (chirality)
C[C@H]1CC(=O)c2cccc(N3CCNCC3)c2O1 (3D coordinates assigned)
C[C@H]1CC(=O)c2cccc(N3CCNCC3)c2O1 (nonaromatic ring conformer: 44.26501975146646 kcal/mol)

>  <smiles>  (34) 
CC1CC(=O)c2cccc(N3CCNCC3)c2O1

>  <score_type>  (34) 
oracle

>  <origin>  (34) 
adgpu

>  <m_score__min__energy>  (34) 
-7.9699999999999998

>  <m_primary>  (34) 
energy

$$$$
34:0
     RDKit          3D

 36 39  0  0  0  0  0  0  0  0999 V2000
   -2.9520   21.0470  -34.5830 H   0  0  0  0  0  0  0  0  0  0  0  0
   -2.6500   21.5670  -33.7290 N   0  0  0  0  0  0  0  0  0  0  0  0
   -3.4800   21.8950  -32.7900 C   0  0  0  0  0  0  0  0  0  0  0  0
   -3.0130   22.5920  -31.6720 C   0  0  0  0  0  0  0  0  0  0  0  0
   -1.9477   22.8547  -31.5933 H   0  0  0  0  0  0  0  0  0  0  0  0
   -3.9010   22.9560  -30.6520 C   0  0  0  0  0  0  0  0  0  0  0  0
   -3.3960   23.6940  -29.4700 C   0  0  0  0  0  0  0  0  0  0  0  0
   -2.2870   24.4150  -29.4870 O   0  0  0  0  0  0  0  0  0  0  0  0
   -2.1270   24.9310  -28.2940 C   0  0  0  0  0  0  0  0  0  0  0  0
   -1.0980   25.7590  -27.8540 C   0  0  0  0  0  0  0  0  0  0  0  0
   -0.2838   26.0605  -28.5294 H   0  0  0  0  0  0  0  0  0  0  0  0
   -1.1330   26.1980  -26.5170 C   0  0  0  0  0  0  0  0  0  0  0  0
   -0.3358   26.8527  -26.1350 H   0  0  0  0  0  0  0  0  0  0  0  0
   -2.1870   25.8020  -25.6630 C   0  0  0  0  0  0  0  0  0  0  0  0
   -2.2051   26.1500  -24.6197 H   0  0  0  0  0  0  0  0  0  0  0  0
   -3.2140   24.9650  -26.1390 C   0  0  0  0  0  0  0  0  0  0  0  0
   -4.0405   24.6498  -25.4851 H   0  0  0  0  0  0  0  0  0  0  0  0
   -3.1470   24.5500  -27.4670 C   0  0  0  0  0  0  0  0  0  0  0  0
   -3.9850   23.7450  -28.2020 C   0  0  0  0  0  0  0  0  0  0  0  0
   -4.9101   23.2521  -27.8683 H   0  0  0  0  0  0  0  0  0  0  0  0
   -5.2540   22.6040  -30.7760 C   0  0  0  0  0  0  0  0  0  0  0  0
   -5.9676   22.8772  -29.9847 H   0  0  0  0  0  0  0  0  0  0  0  0
   -5.6980   21.9030  -31.9100 C   0  0  0  0  0  0  0  0  0  0  0  0
   -7.1270   21.5210  -32.0440 C   0  0  0  0  0  0  0  0  0  0  0  0
   -7.4820   20.2760  -32.5950 C   0  0  0  0  0  0  0  0  0  0  0  0
   -6.6963   19.5815  -32.9272 H   0  0  0  0  0  0  0  0  0  0  0  0
   -8.8260   19.9160  -32.7230 C   0  0  0  0  0  0  0  0  0  0  0  0
   -9.0940   18.9397  -33.1531 H   0  0  0  0  0  0  0  0  0  0  0  0
   -9.8300   20.7930  -32.3060 C   0  0  0  0  0  0  0  0  0  0  0  0
  -10.8874   20.5080  -32.4088 H   0  0  0  0  0  0  0  0  0  0  0  0
   -9.4900   22.0330  -31.7580 C   0  0  0  0  0  0  0  0  0  0  0  0
  -10.2808   22.7229  -31.4284 H   0  0  0  0  0  0  0  0  0  0  0  0
   -8.1470   22.3980  -31.6280 C   0  0  0  0  0  0  0  0  0  0  0  0
   -7.8854   23.3762  -31.1982 H   0  0  0  0  0  0  0  0  0  0  0  0
   -4.8020   21.5650  -32.8860 N   0  0  0  0  0  0  0  0  0  0  0  0
   -5.1380   21.0620  -33.7380 H   0  0  0  0  0  0  0  0  0  0  0  0
  1  2  1  0
  2  3  2  0
  3  4  1  0
  4  5  1  0
  4  6  2  0
  6  7  1  0
  7  8  1  0
  8  9  1  0
  9 10  2  0
 10 11  1  0
 10 12  1  0
 12 13  1  0
 12 14  2  0
 14 15  1  0
 14 16  1  0
 16 17  1  0
 16 18  2  0
 18 19  1  0
 19 20  1  0
  6 21  1  0
 21 22  1  0
 21 23  2  0
 23 24  1  0
 24 25  2  0
 25 26  1  0
 25 27  1  0
 27 28  1  0
 27 29  2  0
 29 30  1  0
 29 31  1  0
 31 32  1  0
 31 33  2  0
 33 34  1  0
 23 35  1  0
 35 36  1  0
 35  3  1  0
 19  7  2  0
 33 24  1  0
 18  9  1  0
M  END
>  <UniqueID>  (35) 
33

>  <SMILES>  (35) 
[H]/N=c1/cc(-c2cc3ccccc3o2)cc(-c2ccccc2)[nH]1

>  <Energy>  (35) 
81.21691313474172

>  <Genealogy>  (35) 
[H]/N=c1/cc(-c2cc3ccccc3o2)cc(-c2ccccc2)[nH]1 (cis-trans isomerization)
[H]/N=c1/cc(-c2cc3ccccc3o2)cc(-c2ccccc2)[nH]1 (3D coordinates assigned)
[H]/N=c1/cc(-c2cc3ccccc3o2)cc(-c2ccccc2)[nH]1 (optimized conformer: 81.21691313474172 kcal/mol)

>  <smiles>  (35) 
N=c1cc(-c2cc3ccccc3o2)cc(-c2ccccc2)[nH]1

>  <score_type>  (35) 
oracle

>  <origin>  (35) 
adgpu

>  <m_score__min__energy>  (35) 
-8.3100000000000005

>  <m_primary>  (35) 
energy

$$$$
35:0
     RDKit          3D

 37 39  0  0  0  0  0  0  0  0999 V2000
   -9.1270   18.5190  -31.9480 C   0  0  0  0  0  0  0  0  0  0  0  0
   -8.4700   19.8690  -32.0710 C   0  0  0  0  0  0  0  0  0  0  0  0
   -9.1600   21.0120  -31.6350 C   0  0  0  0  0  0  0  0  0  0  0  0
   -8.5790   22.2770  -31.7420 C   0  0  0  0  0  0  0  0  0  0  0  0
   -7.2940   22.4210  -32.2790 C   0  0  0  0  0  0  0  0  0  0  0  0
   -6.6860   23.7890  -32.4290 C   0  0  0  0  0  0  0  0  0  0  0  0
   -5.7170   24.0370  -31.3190 C   0  0  0  0  0  0  0  0  0  0  0  0
   -5.8780   25.0030  -30.3910 N   0  0  0  0  0  0  0  0  0  0  0  0
   -4.7750   24.8890  -29.6270 C   0  0  0  0  0  0  0  0  0  0  0  0
   -3.9870   23.8660  -30.1230 C   0  0  0  0  0  0  0  0  0  0  0  0
   -2.6710   23.3930  -29.6320 C   0  0  0  0  0  0  0  0  0  0  0  0
   -2.4640   22.0080  -29.4950 C   0  0  0  0  0  0  0  0  0  0  0  0
   -1.2370   21.5130  -29.0460 C   0  0  0  0  0  0  0  0  0  0  0  0
   -0.2040   22.3930  -28.7200 C   0  0  0  0  0  0  0  0  0  0  0  0
   -0.4000   23.7700  -28.8340 C   0  0  0  0  0  0  0  0  0  0  0  0
   -1.6260   24.2780  -29.2800 C   0  0  0  0  0  0  0  0  0  0  0  0
   -1.7950   25.6550  -29.3400 O   0  0  0  0  0  0  0  0  0  0  0  0
   -4.5970   23.3680  -31.1720 O   0  0  0  0  0  0  0  0  0  0  0  0
   -6.6050   21.2890  -32.7350 C   0  0  0  0  0  0  0  0  0  0  0  0
   -7.1810   20.0100  -32.6390 C   0  0  0  0  0  0  0  0  0  0  0  0
   -6.4100   18.8140  -33.1330 C   0  0  0  0  0  0  0  0  0  0  0  0
   -9.2499   18.2665  -30.8844 H   0  0  0  0  0  0  0  0  0  0  0  0
  -10.1130   18.5454  -32.4349 H   0  0  0  0  0  0  0  0  0  0  0  0
   -8.4979   17.7593  -32.4349 H   0  0  0  0  0  0  0  0  0  0  0  0
  -10.1674   20.9096  -31.2053 H   0  0  0  0  0  0  0  0  0  0  0  0
   -9.1333   23.1645  -31.4029 H   0  0  0  0  0  0  0  0  0  0  0  0
   -6.1604   23.8512  -33.3933 H   0  0  0  0  0  0  0  0  0  0  0  0
   -7.4827   24.5465  -32.3915 H   0  0  0  0  0  0  0  0  0  0  0  0
   -4.5387   25.5094  -28.7499 H   0  0  0  0  0  0  0  0  0  0  0  0
   -3.2757   21.3085  -29.7437 H   0  0  0  0  0  0  0  0  0  0  0  0
   -1.0849   20.4279  -28.9493 H   0  0  0  0  0  0  0  0  0  0  0  0
    0.7638   22.0016  -28.3735 H   0  0  0  0  0  0  0  0  0  0  0  0
    0.4145   24.4611  -28.5716 H   0  0  0  0  0  0  0  0  0  0  0  0
   -5.6023   21.4024  -33.1729 H   0  0  0  0  0  0  0  0  0  0  0  0
   -6.0380   18.2370  -32.2735 H   0  0  0  0  0  0  0  0  0  0  0  0
   -7.0693   18.1792  -33.7431 H   0  0  0  0  0  0  0  0  0  0  0  0
   -5.5596   19.1524  -33.7431 H   0  0  0  0  0  0  0  0  0  0  0  0
  1  2  1  0
  2  3  2  0
  3  4  1  0
  4  5  2  0
  5  6  1  0
  6  7  1  0
  7  8  2  0
  8  9  1  0
  9 10  2  0
 10 11  1  0
 11 12  2  0
 12 13  1  0
 13 14  2  0
 14 15  1  0
 15 16  2  0
 16 17  1  0
 10 18  1  0
  5 19  1  0
 19 20  2  0
 20 21  1  0
 20  2  1  0
 18  7  1  0
 16 11  1  0
  1 22  1  0
  1 23  1  0
  1 24  1  0
  3 25  1  0
  4 26  1  0
  6 27  1  0
  6 28  1  0
  9 29  1  0
 12 30  1  0
 13 31  1  0
 14 32  1  0
 15 33  1  0
 19 34  1  0
 21 35  1  0
 21 36  1  0
 21 37  1  0
M  CHG  1  17  -1
M  END
>  <UniqueID>  (36) 
34

>  <SMILES>  (36) 
Cc1ccc(Cc2ncc(-c3ccccc3[O-])o2)cc1C

>  <Energy>  (36) 
70.53943326509082

>  <Genealogy>  (36) 
Cc1ccc(Cc2ncc(-c3ccccc3[O-])o2)cc1C (protonated)
Cc1ccc(Cc2ncc(-c3ccccc3[O-])o2)cc1C (3D coordinates assigned)
Cc1ccc(Cc2ncc(-c3ccccc3[O-])o2)cc1C (optimized conformer: 70.53943326509082 kcal/mol)

>  <smiles>  (36) 
Cc1ccc(Cc2ncc(-c3ccccc3O)o2)cc1C

>  <score_type>  (36) 
oracle

>  <origin>  (36) 
adgpu

>  <m_score__min__energy>  (36) 
-11.4

>  <m_primary>  (36) 
energy

$$$$
36:0
     RDKit          3D

 57 60  0  0  0  0  0  0  0  0999 V2000
   -0.5890   21.0980  -33.6210 C   0  0  0  0  0  0  0  0  0  0  0  0
   -1.3110   21.0980  -32.2980 C   0  0  0  0  0  0  0  0  0  0  0  0
   -0.8220   21.9300  -31.2750 C   0  0  0  0  0  0  0  0  0  0  0  0
   -1.4770   22.0120  -30.0470 C   0  0  0  0  0  0  0  0  0  0  0  0
   -2.6300   21.2640  -29.8200 C   0  0  0  0  0  0  0  0  0  0  0  0
   -3.1240   20.4210  -30.8150 C   0  0  0  0  0  0  0  0  0  0  0  0
   -2.4700   20.3050  -32.0580 C   0  0  0  0  0  0  0  0  0  0  0  0
   -3.0260   19.3530  -33.0550 C   0  0  0  0  0  0  0  0  0  0  0  0
   -2.3790   18.3110  -33.3480 O   0  0  0  0  0  0  0  0  0  0  0  0
   -4.2830   19.6050  -33.6930 N   0  0  0  0  0  0  0  0  0  0  0  0
   -5.5080   19.8840  -33.0060 C   0  0  0  0  0  0  0  0  0  0  0  0
   -5.8490   21.2210  -32.7700 C   0  0  0  0  0  0  0  0  0  0  0  0
   -7.0240   21.5470  -32.0810 C   0  0  0  0  0  0  0  0  0  0  0  0
   -7.4130   23.2370  -31.7660 S   0  0  0  0  0  0  0  0  0  0  0  0
   -6.6930   24.0870  -32.7770 O   0  0  0  0  0  0  0  0  0  0  0  0
   -8.8920   23.4540  -31.9260 O   0  0  0  0  0  0  0  0  0  0  0  0
   -6.8940   23.6610  -30.1470 N   0  0  0  0  0  0  0  0  0  0  0  0
   -6.8730   25.1240  -29.9350 C   0  0  0  0  0  0  0  0  0  0  0  0
   -5.4640   25.7280  -30.0850 C   0  0  0  0  0  0  0  0  0  0  0  0
   -4.7130   24.9940  -31.0260 O   0  0  0  0  0  0  0  0  0  0  0  0
   -4.4100   23.7090  -30.5110 C   0  0  0  0  0  0  0  0  0  0  0  0
   -5.6080   23.0270  -29.8050 C   0  0  0  0  0  0  0  0  0  0  0  0
   -7.8670   20.5260  -31.6300 C   0  0  0  0  0  0  0  0  0  0  0  0
   -7.5530   19.1900  -31.8870 C   0  0  0  0  0  0  0  0  0  0  0  0
   -6.3830   18.8540  -32.5880 C   0  0  0  0  0  0  0  0  0  0  0  0
   -6.1310   17.4800  -32.9370 N   0  0  0  0  0  0  0  0  0  0  0  0
   -4.9820   16.7820  -32.3550 C   0  0  0  0  0  0  0  0  0  0  0  0
   -4.6020   15.5850  -33.2340 C   0  0  0  0  0  0  0  0  0  0  0  0
   -5.7270   14.7630  -33.4790 O   0  0  0  0  0  0  0  0  0  0  0  0
   -6.6850   15.4750  -34.2380 C   0  0  0  0  0  0  0  0  0  0  0  0
   -7.2380   16.6650  -33.4470 C   0  0  0  0  0  0  0  0  0  0  0  0
   -0.4134   20.0609  -33.9429 H   0  0  0  0  0  0  0  0  0  0  0  0
   -1.2017   21.6165  -34.3731 H   0  0  0  0  0  0  0  0  0  0  0  0
    0.3750   21.6165  -33.5126 H   0  0  0  0  0  0  0  0  0  0  0  0
    0.0884   22.5233  -31.4458 H   0  0  0  0  0  0  0  0  0  0  0  0
   -1.0830   22.6679  -29.2567 H   0  0  0  0  0  0  0  0  0  0  0  0
   -3.1516   21.3384  -28.8544 H   0  0  0  0  0  0  0  0  0  0  0  0
   -4.0376   19.8380  -30.6269 H   0  0  0  0  0  0  0  0  0  0  0  0
   -5.1877   22.0233  -33.1292 H   0  0  0  0  0  0  0  0  0  0  0  0
   -7.5382   25.5958  -30.6732 H   0  0  0  0  0  0  0  0  0  0  0  0
   -7.2073   25.3145  -28.9045 H   0  0  0  0  0  0  0  0  0  0  0  0
   -5.5507   26.7708  -30.4243 H   0  0  0  0  0  0  0  0  0  0  0  0
   -4.9532   25.6889  -29.1116 H   0  0  0  0  0  0  0  0  0  0  0  0
   -4.0860   23.0678  -31.3440 H   0  0  0  0  0  0  0  0  0  0  0  0
   -3.6221   23.8415  -29.7549 H   0  0  0  0  0  0  0  0  0  0  0  0
   -5.6427   21.9703  -30.1088 H   0  0  0  0  0  0  0  0  0  0  0  0
   -5.4610   23.1285  -28.7196 H   0  0  0  0  0  0  0  0  0  0  0  0
   -8.7806   20.7765  -31.0709 H   0  0  0  0  0  0  0  0  0  0  0  0
   -8.2273   18.3942  -31.5377 H   0  0  0  0  0  0  0  0  0  0  0  0
   -4.1289   17.4734  -32.2908 H   0  0  0  0  0  0  0  0  0  0  0  0
   -5.2458   16.4245  -31.3487 H   0  0  0  0  0  0  0  0  0  0  0  0
   -4.2086   15.9527  -34.1932 H   0  0  0  0  0  0  0  0  0  0  0  0
   -3.8394   14.9908  -32.7092 H   0  0  0  0  0  0  0  0  0  0  0  0
   -6.2114   15.8445  -35.1595 H   0  0  0  0  0  0  0  0  0  0  0  0
   -7.5169   14.7964  -34.4776 H   0  0  0  0  0  0  0  0  0  0  0  0
   -7.8703   17.2789  -34.1053 H   0  0  0  0  0  0  0  0  0  0  0  0
   -7.8348   16.2930  -32.6012 H   0  0  0  0  0  0  0  0  0  0  0  0
  1  2  1  0
  2  3  2  0
  3  4  1  0
  4  5  2  0
  5  6  1  0
  6  7  2  0
  7  8  1  0
  8  9  2  0
  8 10  1  0
 10 11  1  0
 11 12  2  0
 12 13  1  0
 13 14  1  0
 14 15  2  0
 14 16  2  0
 14 17  1  0
 17 18  1  0
 18 19  1  0
 19 20  1  0
 20 21  1  0
 21 22  1  0
 13 23  2  0
 23 24  1  0
 24 25  2  0
 25 26  1  0
 26 27  1  0
 27 28  1  0
 28 29  1  0
 29 30  1  0
 30 31  1  0
  7  2  1  0
 25 11  1  0
 31 26  1  0
 22 17  1  0
  1 32  1  0
  1 33  1  0
  1 34  1  0
  3 35  1  0
  4 36  1  0
  5 37  1  0
  6 38  1  0
 12 39  1  0
 18 40  1  0
 18 41  1  0
 19 42  1  0
 19 43  1  0
 21 44  1  0
 21 45  1  0
 22 46  1  0
 22 47  1  0
 23 48  1  0
 24 49  1  0
 27 50  1  0
 27 51  1  0
 28 52  1  0
 28 53  1  0
 30 54  1  0
 30 55  1  0
 31 56  1  0
 31 57  1  0
M  CHG  1  10  -1
M  END
>  <UniqueID>  (37) 
35

>  <SMILES>  (37) 
Cc1ccccc1C(=O)[N-]c1cc(S(=O)(=O)N2CCOCC2)ccc1N1CCOCC1

>  <Energy>  (37) 
84.00192658415838

>  <Genealogy>  (37) 
Cc1ccccc1C(=O)[N-]c1cc(S(=O)(=O)N2CCOCC2)ccc1N1CCOCC1 (protonated)
Cc1ccccc1C(=O)[N-]c1cc(S(=O)(=O)N2CCOCC2)ccc1N1CCOCC1 (3D coordinates assigned)
Cc1ccccc1C(=O)[N-]c1cc(S(=O)(=O)N2CCOCC2)ccc1N1CCOCC1 (nonaromatic ring conformer: 84.00192658415838 kcal/mol)

>  <smiles>  (37) 
Cc1ccccc1C(=O)Nc1cc(S(=O)(=O)N2CCOCC2)ccc1N1CCOCC1

>  <score_type>  (37) 
oracle

>  <origin>  (37) 
adgpu

>  <m_score__min__energy>  (37) 
-9.8699999999999992

>  <m_primary>  (37) 
energy

$$$$
37:0
     RDKit          3D

 46 48  0  0  1  0  0  0  0  0999 V2000
   -6.1110   26.0160  -30.0720 C   0  0  0  0  0  0  0  0  0  0  0  0
   -5.2230   24.8410  -30.2660 C   0  0  0  0  0  0  0  0  0  0  0  0
   -5.4550   23.8540  -31.1910 C   0  0  0  0  0  0  0  0  0  0  0  0
   -4.6130   22.7780  -31.3460 C   0  0  0  0  0  0  0  0  0  0  0  0
   -4.8970   21.9070  -32.2250 N   0  0  0  0  0  0  0  0  0  0  0  0
   -4.0900   20.7580  -32.4610 C   0  0  1  0  0  0  0  0  0  0  0  0
   -4.7230   19.6710  -33.2880 C   0  0  0  0  0  0  0  0  0  0  0  0
   -6.1420   19.4200  -32.8170 C   0  0  0  0  0  0  0  0  0  0  0  0
   -7.1670   20.2800  -33.1530 C   0  0  0  0  0  0  0  0  0  0  0  0
   -8.4710   20.0440  -32.7150 C   0  0  0  0  0  0  0  0  0  0  0  0
   -8.7340   18.9280  -31.9340 C   0  0  0  0  0  0  0  0  0  0  0  0
   -7.7090   18.0670  -31.5960 C   0  0  0  0  0  0  0  0  0  0  0  0
   -6.4020   18.2940  -32.0280 C   0  0  0  0  0  0  0  0  0  0  0  0
   -2.6620   20.9770  -32.6880 C   0  0  0  0  0  0  0  0  0  0  0  0
   -1.8560   20.6390  -31.7610 O   0  0  0  0  0  0  0  0  0  0  0  0
   -2.1010   21.5260  -33.8300 O   0  0  0  0  0  0  0  0  0  0  0  0
   -3.5430   22.6970  -30.5710 N   0  0  0  0  0  0  0  0  0  0  0  0
   -3.2930   23.6490  -29.6570 C   0  0  0  0  0  0  0  0  0  0  0  0
   -2.2330   23.5140  -28.9310 N   0  0  0  0  0  0  0  0  0  0  0  0
   -1.9490   24.5020  -27.9640 C   0  0  0  0  0  0  0  0  0  0  0  0
   -2.6620   24.5930  -26.7630 C   0  0  0  0  0  0  0  0  0  0  0  0
   -2.3570   25.5770  -25.8320 C   0  0  0  0  0  0  0  0  0  0  0  0
   -1.3440   26.4530  -26.1180 C   0  0  0  0  0  0  0  0  0  0  0  0
   -0.6050   26.4100  -27.2930 C   0  0  0  0  0  0  0  0  0  0  0  0
   -0.9250   25.4240  -28.2050 C   0  0  0  0  0  0  0  0  0  0  0  0
   -4.1110   24.7040  -29.4990 N   0  0  0  0  0  0  0  0  0  0  0  0
   -6.2485   26.1980  -28.9959 H   0  0  0  0  0  0  0  0  0  0  0  0
   -5.6545   26.9016  -30.5382 H   0  0  0  0  0  0  0  0  0  0  0  0
   -7.0875   25.8185  -30.5382 H   0  0  0  0  0  0  0  0  0  0  0  0
   -6.3465   23.9263  -31.8313 H   0  0  0  0  0  0  0  0  0  0  0  0
   -4.0697   20.3188  -31.4527 H   0  0  0  0  0  0  0  0  0  0  0  0
   -4.7389   19.9792  -34.3438 H   0  0  0  0  0  0  0  0  0  0  0  0
   -4.1374   18.7464  -33.1777 H   0  0  0  0  0  0  0  0  0  0  0  0
   -6.9539   21.1627  -33.7738 H   0  0  0  0  0  0  0  0  0  0  0  0
   -9.2820   20.7359  -32.9863 H   0  0  0  0  0  0  0  0  0  0  0  0
   -9.7579   18.7293  -31.5845 H   0  0  0  0  0  0  0  0  0  0  0  0
   -7.9269   17.1858  -30.9747 H   0  0  0  0  0  0  0  0  0  0  0  0
   -5.5922   17.6018  -31.7539 H   0  0  0  0  0  0  0  0  0  0  0  0
   -2.6620   21.9200  -34.5860 H   0  0  0  0  0  0  0  0  0  0  0  0
   -2.9070   21.9060  -30.6700 H   0  0  0  0  0  0  0  0  0  0  0  0
   -3.4717   23.8782  -26.5547 H   0  0  0  0  0  0  0  0  0  0  0  0
   -2.9157   25.6511  -24.8874 H   0  0  0  0  0  0  0  0  0  0  0  0
   -1.1032   27.2311  -25.3787 H   0  0  0  0  0  0  0  0  0  0  0  0
    0.2018   27.1315  -27.4890 H   0  0  0  0  0  0  0  0  0  0  0  0
   -0.3595   25.3618  -29.1464 H   0  0  0  0  0  0  0  0  0  0  0  0
   -3.9300   25.4520  -28.7940 H   0  0  0  0  0  0  0  0  0  0  0  0
  1  2  1  0
  2  3  2  0
  3  4  1  0
  4  5  2  0
  5  6  1  0
  6  7  1  0
  7  8  1  0
  8  9  2  0
  9 10  1  0
 10 11  2  0
 11 12  1  0
 12 13  2  0
  6 14  1  0
 14 15  2  0
 14 16  1  0
  4 17  1  0
 17 18  1  0
 18 19  2  0
 19 20  1  0
 20 21  2  0
 21 22  1  0
 22 23  2  0
 23 24  1  0
 24 25  2  0
 18 26  1  0
 26  2  1  0
 13  8  1  0
 25 20  1  0
  1 27  1  0
  1 28  1  0
  1 29  1  0
  3 30  1  0
  6 31  1  1
  7 32  1  0
  7 33  1  0
  9 34  1  0
 10 35  1  0
 11 36  1  0
 12 37  1  0
 13 38  1  0
 16 39  1  0
 17 40  1  0
 21 41  1  0
 22 42  1  0
 23 43  1  0
 24 44  1  0
 25 45  1  0
 26 46  1  0
M  END
>  <smiles>  (38) 
Cc1cc(=NC(Cc2ccccc2)C(=O)O)[nH]c(=Nc2ccccc2)[nH]1

>  <score_type>  (38) 
oracle

>  <origin>  (38) 
adgpu

>  <m_score__min__energy>  (38) 
-9.5800000000000001

>  <m_primary>  (38) 
energy

$$$$
38:0
     RDKit          3D

 49 51  0  0  0  0  0  0  0  0999 V2000
   -8.9950   18.5810  -31.5910 C   0  0  0  0  0  0  0  0  0  0  0  0
   -7.8020   17.8360  -32.1810 C   0  0  0  0  0  0  0  0  0  0  0  0
   -6.8610   18.7900  -32.8490 C   0  0  0  0  0  0  0  0  0  0  0  0
   -7.3200   19.8040  -33.4430 O   0  0  0  0  0  0  0  0  0  0  0  0
   -5.4490   18.5320  -32.8420 N   0  0  0  0  0  0  0  0  0  0  0  0
   -4.4850   19.4770  -33.4170 C   0  0  1  0  0  0  0  0  0  0  0  0
   -4.3730   20.7300  -32.5740 C   0  0  0  0  0  0  0  0  0  0  0  0
   -5.3170   21.7590  -32.7260 C   0  0  0  0  0  0  0  0  0  0  0  0
   -5.2150   22.9300  -31.9710 C   0  0  0  0  0  0  0  0  0  0  0  0
   -4.1650   23.0920  -31.0580 C   0  0  0  0  0  0  0  0  0  0  0  0
   -4.0440   24.5450  -30.0720 S   0  0  0  0  0  0  0  0  0  0  0  0
   -4.6090   25.7030  -30.8460 O   0  0  0  0  0  0  0  0  0  0  0  0
   -4.8170   24.3950  -28.7910 O   0  0  0  0  0  0  0  0  0  0  0  0
   -2.3810   24.8640  -29.7010 N   0  0  0  0  0  0  0  0  0  0  0  0
   -1.8590   25.1560  -28.3940 C   0  0  0  0  0  0  0  0  0  0  0  0
   -1.2350   26.3860  -28.1090 C   0  0  0  0  0  0  0  0  0  0  0  0
   -0.7360   26.6480  -26.8320 C   0  0  0  0  0  0  0  0  0  0  0  0
   -0.8510   25.6880  -25.8260 C   0  0  0  0  0  0  0  0  0  0  0  0
   -1.4650   24.4640  -26.0940 C   0  0  0  0  0  0  0  0  0  0  0  0
   -1.9680   24.1860  -27.3760 C   0  0  0  0  0  0  0  0  0  0  0  0
   -2.6390   22.8670  -27.6460 C   0  0  0  0  0  0  0  0  0  0  0  0
   -3.2100   22.0790  -30.9160 C   0  0  0  0  0  0  0  0  0  0  0  0
   -3.3060   20.9090  -31.6750 C   0  0  0  0  0  0  0  0  0  0  0  0
   -3.1340   18.8360  -33.5730 C   0  0  0  0  0  0  0  0  0  0  0  0
   -2.0360   19.3760  -34.2170 C   0  0  0  0  0  0  0  0  0  0  0  0
   -1.0400   18.4290  -34.1130 C   0  0  0  0  0  0  0  0  0  0  0  0
   -1.5880   17.3720  -33.4140 C   0  0  0  0  0  0  0  0  0  0  0  0
   -2.8350   17.6450  -33.1070 O   0  0  0  0  0  0  0  0  0  0  0  0
   -8.9415   18.5476  -30.4928 H   0  0  0  0  0  0  0  0  0  0  0  0
   -8.9762   19.6281  -31.9273 H   0  0  0  0  0  0  0  0  0  0  0  0
   -9.9277   18.1045  -31.9273 H   0  0  0  0  0  0  0  0  0  0  0  0
   -7.2704   17.3092  -31.3748 H   0  0  0  0  0  0  0  0  0  0  0  0
   -8.1681   17.1176  -32.9292 H   0  0  0  0  0  0  0  0  0  0  0  0
   -5.1070   17.6640  -32.3700 H   0  0  0  0  0  0  0  0  0  0  0  0
   -4.8567   19.7632  -34.4120 H   0  0  0  0  0  0  0  0  0  0  0  0
   -6.1419   21.6420  -33.4442 H   0  0  0  0  0  0  0  0  0  0  0  0
   -5.9621   23.7279  -32.0939 H   0  0  0  0  0  0  0  0  0  0  0  0
   -1.1402   27.1459  -28.8987 H   0  0  0  0  0  0  0  0  0  0  0  0
   -0.2516   27.6123  -26.6185 H   0  0  0  0  0  0  0  0  0  0  0  0
   -0.4571   25.8964  -24.8203 H   0  0  0  0  0  0  0  0  0  0  0  0
   -1.5558   23.7119  -25.2964 H   0  0  0  0  0  0  0  0  0  0  0  0
   -2.8870   22.3796  -26.6916 H   0  0  0  0  0  0  0  0  0  0  0  0
   -3.5609   23.0357  -28.2219 H   0  0  0  0  0  0  0  0  0  0  0  0
   -1.9598   22.2212  -28.2219 H   0  0  0  0  0  0  0  0  0  0  0  0
   -2.3806   22.2039  -30.2044 H   0  0  0  0  0  0  0  0  0  0  0  0
   -2.5429   20.1239  -31.5686 H   0  0  0  0  0  0  0  0  0  0  0  0
   -1.9709   20.3573  -34.7098 H   0  0  0  0  0  0  0  0  0  0  0  0
   -0.0156   18.5008  -34.5072 H   0  0  0  0  0  0  0  0  0  0  0  0
   -1.0602   16.4426  -33.1539 H   0  0  0  0  0  0  0  0  0  0  0  0
  1  2  1  0
  2  3  1  0
  3  4  2  0
  3  5  1  0
  5  6  1  0
  6  7  1  0
  7  8  2  0
  8  9  1  0
  9 10  2  0
 10 11  1  0
 11 12  2  0
 11 13  2  0
 11 14  1  0
 14 15  1  0
 15 16  2  0
 16 17  1  0
 17 18  2  0
 18 19  1  0
 19 20  2  0
 20 21  1  0
 10 22  1  0
 22 23  2  0
  6 24  1  0
 24 25  2  0
 25 26  1  0
 26 27  2  0
 27 28  1  0
 23  7  1  0
 28 24  1  0
 20 15  1  0
  1 29  1  0
  1 30  1  0
  1 31  1  0
  2 32  1  0
  2 33  1  0
  5 34  1  0
  6 35  1  6
  8 36  1  0
  9 37  1  0
 16 38  1  0
 17 39  1  0
 18 40  1  0
 19 41  1  0
 21 42  1  0
 21 43  1  0
 21 44  1  0
 22 45  1  0
 23 46  1  0
 25 47  1  0
 26 48  1  0
 27 49  1  0
M  CHG  1  14  -1
M  END
>  <UniqueID>  (39) 
36

>  <SMILES>  (39) 
CCC(=O)N[C@@H](c1ccc(S(=O)(=O)[N-]c2ccccc2C)cc1)c1ccco1

>  <Energy>  (39) 
73.96134486280557

>  <Genealogy>  (39) 
CCC(=O)NC(c1ccc(S(=O)(=O)[N-]c2ccccc2C)cc1)c1ccco1 (protonated)
CCC(=O)N[C@@H](c1ccc(S(=O)(=O)[N-]c2ccccc2C)cc1)c1ccco1 (chirality)
CCC(=O)N[C@@H](c1ccc(S(=O)(=O)[N-]c2ccccc2C)cc1)c1ccco1 (3D coordinates assigned)
CCC(=O)N[C@@H](c1ccc(S(=O)(=O)[N-]c2ccccc2C)cc1)c1ccco1 (optimized conformer: 73.96134486280557 kcal/mol)

>  <smiles>  (39) 
CCC(=O)NC(c1ccc(S(=O)(=O)Nc2ccccc2C)cc1)c1ccco1

>  <score_type>  (39) 
oracle

>  <origin>  (39) 
adgpu

>  <m_score__min__energy>  (39) 
-10.039999999999999

>  <m_primary>  (39) 
energy

$$$$
39:0
     RDKit          3D

 67 71  0  0  0  0  0  0  0  0999 V2000
   -7.1800   24.5730  -30.4190 C   0  0  0  0  0  0  0  0  0  0  0  0
   -7.1100   23.1280  -30.8350 C   0  0  0  0  0  0  0  0  0  0  0  0
   -8.1940   22.2860  -30.5370 C   0  0  0  0  0  0  0  0  0  0  0  0
   -8.1920   20.9530  -30.9500 C   0  0  0  0  0  0  0  0  0  0  0  0
   -7.1040   20.4390  -31.6650 C   0  0  0  0  0  0  0  0  0  0  0  0
   -7.1190   18.7760  -32.2510 S   0  0  0  0  0  0  0  0  0  0  0  0
   -6.3570   17.9240  -31.2730 O   0  0  0  0  0  0  0  0  0  0  0  0
   -8.5330   18.2710  -32.3130 O   0  0  0  0  0  0  0  0  0  0  0  0
   -6.3530   18.6790  -33.8260 N   0  0  0  0  0  0  0  0  0  0  0  0
   -4.9660   19.2040  -33.7910 C   0  0  0  0  0  0  0  0  0  0  0  0
   -3.9100   18.0870  -33.6750 C   0  0  0  0  0  0  0  0  0  0  0  0
   -4.4180   17.0050  -32.9300 O   0  0  0  0  0  0  0  0  0  0  0  0
   -5.4450   16.3460  -33.6520 C   0  0  0  0  0  0  0  0  0  0  0  0
   -6.4100   17.3120  -34.3790 C   0  0  0  0  0  0  0  0  0  0  0  0
   -6.0130   21.2650  -31.9510 C   0  0  0  0  0  0  0  0  0  0  0  0
   -5.9890   22.5940  -31.5140 C   0  0  0  0  0  0  0  0  0  0  0  0
   -4.8340   23.3860  -31.8200 N   0  0  0  0  0  0  0  0  0  0  0  0
   -3.8590   23.8000  -30.8550 C   0  0  0  0  0  0  0  0  0  0  0  0
   -3.8070   25.0080  -30.4950 O   0  0  0  0  0  0  0  0  0  0  0  0
   -2.9450   22.8050  -30.2480 C   0  0  0  0  0  0  0  0  0  0  0  0
   -2.7320   21.5590  -30.8640 C   0  0  0  0  0  0  0  0  0  0  0  0
   -1.8880   20.6130  -30.2750 C   0  0  0  0  0  0  0  0  0  0  0  0
   -1.2480   20.8990  -29.0680 C   0  0  0  0  0  0  0  0  0  0  0  0
   -1.4440   22.1380  -28.4440 C   0  0  0  0  0  0  0  0  0  0  0  0
   -0.6420   22.4960  -26.9130 S   0  0  0  0  0  0  0  0  0  0  0  0
    0.8120   22.1290  -27.0200 O   0  0  0  0  0  0  0  0  0  0  0  0
   -1.2520   21.6590  -25.8240 O   0  0  0  0  0  0  0  0  0  0  0  0
   -0.7920   24.1850  -26.4900 N   0  0  0  0  0  0  0  0  0  0  0  0
   -0.4510   25.0250  -27.6490 C   0  0  0  0  0  0  0  0  0  0  0  0
   -0.8110   26.4820  -27.3500 C   0  0  0  0  0  0  0  0  0  0  0  0
   -0.3050   26.9180  -25.9990 C   0  0  0  0  0  0  0  0  0  0  0  0
   -0.2720   28.2850  -25.6800 C   0  0  0  0  0  0  0  0  0  0  0  0
    0.1470   28.7050  -24.4150 C   0  0  0  0  0  0  0  0  0  0  0  0
    0.5270   27.7660  -23.4550 C   0  0  0  0  0  0  0  0  0  0  0  0
    0.4900   26.4020  -23.7570 C   0  0  0  0  0  0  0  0  0  0  0  0
    0.0560   25.9670  -25.0190 C   0  0  0  0  0  0  0  0  0  0  0  0
    0.0950   24.4980  -25.3550 C   0  0  0  0  0  0  0  0  0  0  0  0
   -2.2890   23.0870  -29.0360 C   0  0  0  0  0  0  0  0  0  0  0  0
   -7.1832   24.6387  -29.3210 H   0  0  0  0  0  0  0  0  0  0  0  0
   -6.3069   25.1116  -30.8160 H   0  0  0  0  0  0  0  0  0  0  0  0
   -8.1011   25.0247  -30.8160 H   0  0  0  0  0  0  0  0  0  0  0  0
   -9.0520   22.6808  -29.9731 H   0  0  0  0  0  0  0  0  0  0  0  0
   -9.0481   20.3042  -30.7129 H   0  0  0  0  0  0  0  0  0  0  0  0
   -6.9160   19.2950  -34.4580 H   0  0  0  0  0  0  0  0  0  0  0  0
   -4.7802   19.7693  -34.7162 H   0  0  0  0  0  0  0  0  0  0  0  0
   -4.8745   19.8417  -32.8994 H   0  0  0  0  0  0  0  0  0  0  0  0
   -3.6398   17.7379  -34.6825 H   0  0  0  0  0  0  0  0  0  0  0  0
   -3.0228   18.4872  -33.1624 H   0  0  0  0  0  0  0  0  0  0  0  0
   -4.9774   15.6917  -34.4025 H   0  0  0  0  0  0  0  0  0  0  0  0
   -6.0432   15.7833  -32.9202 H   0  0  0  0  0  0  0  0  0  0  0  0
   -6.1378   17.3493  -35.4442 H   0  0  0  0  0  0  0  0  0  0  0  0
   -7.4337   16.9342  -34.2399 H   0  0  0  0  0  0  0  0  0  0  0  0
   -5.1643   20.8658  -32.5258 H   0  0  0  0  0  0  0  0  0  0  0  0
   -3.2328   21.3272  -31.8156 H   0  0  0  0  0  0  0  0  0  0  0  0
   -1.7278   19.6408  -30.7640 H   0  0  0  0  0  0  0  0  0  0  0  0
   -0.5883   20.1500  -28.6057 H   0  0  0  0  0  0  0  0  0  0  0  0
    0.6274   24.9485  -27.8520 H   0  0  0  0  0  0  0  0  0  0  0  0
   -1.0162   24.6818  -28.5281 H   0  0  0  0  0  0  0  0  0  0  0  0
   -0.3635   27.1249  -28.1222 H   0  0  0  0  0  0  0  0  0  0  0  0
   -1.9075   26.5698  -27.3489 H   0  0  0  0  0  0  0  0  0  0  0  0
   -0.5777   29.0293  -26.4301 H   0  0  0  0  0  0  0  0  0  0  0  0
    0.1774   29.7781  -24.1752 H   0  0  0  0  0  0  0  0  0  0  0  0
    0.8559   28.0998  -22.4598 H   0  0  0  0  0  0  0  0  0  0  0  0
    0.8025   25.6656  -23.0020 H   0  0  0  0  0  0  0  0  0  0  0  0
    1.1257   24.2176  -25.6177 H   0  0  0  0  0  0  0  0  0  0  0  0
   -0.2505   23.9316  -24.4776 H   0  0  0  0  0  0  0  0  0  0  0  0
   -2.4405   24.0612  -28.5483 H   0  0  0  0  0  0  0  0  0  0  0  0
  1  2  1  0
  2  3  2  0
  3  4  1  0
  4  5  2  0
  5  6  1  0
  6  7  2  0
  6  8  2  0
  6  9  1  0
  9 10  1  0
 10 11  1  0
 11 12  1  0
 12 13  1  0
 13 14  1  0
  5 15  1  0
 15 16  2  0
 16 17  1  0
 17 18  1  0
 18 19  2  0
 18 20  1  0
 20 21  2  0
 21 22  1  0
 22 23  2  0
 23 24  1  0
 24 25  1  0
 25 26  2  0
 25 27  2  0
 25 28  1  0
 28 29  1  0
 29 30  1  0
 30 31  1  0
 31 32  2  0
 32 33  1  0
 33 34  2  0
 34 35  1  0
 35 36  2  0
 36 37  1  0
 24 38  2  0
 16  2  1  0
 38 20  1  0
 14  9  1  0
 37 28  1  0
 36 31  1  0
  1 39  1  0
  1 40  1  0
  1 41  1  0
  3 42  1  0
  4 43  1  0
  9 44  1  0
 10 45  1  0
 10 46  1  0
 11 47  1  0
 11 48  1  0
 13 49  1  0
 13 50  1  0
 14 51  1  0
 14 52  1  0
 15 53  1  0
 21 54  1  0
 22 55  1  0
 23 56  1  0
 29 57  1  0
 29 58  1  0
 30 59  1  0
 30 60  1  0
 32 61  1  0
 33 62  1  0
 34 63  1  0
 35 64  1  0
 37 65  1  0
 37 66  1  0
 38 67  1  0
M  CHG  2   9   1  17  -1
M  END
>  <UniqueID>  (40) 
37

>  <SMILES>  (40) 
Cc1ccc(S(=O)(=O)[NH+]2CCOCC2)cc1[N-]C(=O)c1cccc(S(=O)(=O)N2CCc3ccccc3C2)c1

>  <Energy>  (40) 
89.93397989590107

>  <Genealogy>  (40) 
Cc1ccc(S(=O)(=O)[NH+]2CCOCC2)cc1[N-]C(=O)c1cccc(S(=O)(=O)N2CCc3ccccc3C2)c1 (protonated)
Cc1ccc(S(=O)(=O)[NH+]2CCOCC2)cc1[N-]C(=O)c1cccc(S(=O)(=O)N2CCc3ccccc3C2)c1 (3D coordinates assigned)
Cc1ccc(S(=O)(=O)[NH+]2CCOCC2)cc1[N-]C(=O)c1cccc(S(=O)(=O)N2CCc3ccccc3C2)c1 (nonaromatic ring conformer: 89.93397989590107 kcal/mol)

>  <smiles>  (40) 
Cc1ccc(S(=O)(=O)N2CCOCC2)cc1NC(=O)c1cccc(S(=O)(=O)N2CCc3ccccc3C2)c1

>  <score_type>  (40) 
oracle

>  <origin>  (40) 
adgpu

>  <m_score__min__energy>  (40) 
-12.140000000000001

>  <m_primary>  (40) 
energy

$$$$
40:0
     RDKit          3D

 61 64  0  0  0  0  0  0  0  0999 V2000
   -4.2430   16.7190  -35.3370 C   0  0  0  0  0  0  0  0  0  0  0  0
   -4.7150   18.0060  -34.9570 O   0  0  0  0  0  0  0  0  0  0  0  0
   -4.0980   18.8340  -34.0040 C   0  0  0  0  0  0  0  0  0  0  0  0
   -2.7790   19.2970  -34.1660 C   0  0  0  0  0  0  0  0  0  0  0  0
   -2.1970   20.1250  -33.2060 C   0  0  0  0  0  0  0  0  0  0  0  0
   -2.9180   20.5180  -32.0670 C   0  0  0  0  0  0  0  0  0  0  0  0
   -2.2910   21.4000  -31.0530 C   0  0  0  0  0  0  0  0  0  0  0  0
   -1.2300   22.0200  -31.3420 O   0  0  0  0  0  0  0  0  0  0  0  0
   -2.9030   21.5950  -29.7680 N   0  0  0  0  0  0  0  0  0  0  0  0
   -2.1940   22.0660  -28.6080 C   0  0  0  0  0  0  0  0  0  0  0  0
   -1.6620   23.3640  -28.6060 C   0  0  0  0  0  0  0  0  0  0  0  0
   -0.9910   23.8540  -27.4810 C   0  0  0  0  0  0  0  0  0  0  0  0
   -0.8590   23.0580  -26.3360 C   0  0  0  0  0  0  0  0  0  0  0  0
   -0.0320   23.6860  -24.9070 S   0  0  0  0  0  0  0  0  0  0  0  0
    1.3840   24.0400  -25.2700 O   0  0  0  0  0  0  0  0  0  0  0  0
    0.0130   22.6160  -23.8510 O   0  0  0  0  0  0  0  0  0  0  0  0
   -0.8380   25.0980  -24.2620 N   0  0  0  0  0  0  0  0  0  0  0  0
    0.1510   26.0930  -23.8060 C   0  0  0  0  0  0  0  0  0  0  0  0
   -0.4860   27.4900  -23.7220 C   0  0  0  0  0  0  0  0  0  0  0  0
   -0.9970   27.9690  -24.9620 O   0  0  0  0  0  0  0  0  0  0  0  0
   -1.3120   26.9400  -25.8890 C   0  0  0  0  0  0  0  0  0  0  0  0
   -1.8210   25.6510  -25.2180 C   0  0  0  0  0  0  0  0  0  0  0  0
   -1.3970   21.7640  -26.3300 C   0  0  0  0  0  0  0  0  0  0  0  0
   -2.0680   21.2740  -27.4530 C   0  0  0  0  0  0  0  0  0  0  0  0
   -4.2310   20.0450  -31.8980 C   0  0  0  0  0  0  0  0  0  0  0  0
   -4.8210   19.2090  -32.8580 C   0  0  0  0  0  0  0  0  0  0  0  0
   -6.4790   18.6430  -32.6370 S   0  0  0  0  0  0  0  0  0  0  0  0
   -6.7640   17.5590  -33.6390 O   0  0  0  0  0  0  0  0  0  0  0  0
   -6.6590   18.0800  -31.2530 O   0  0  0  0  0  0  0  0  0  0  0  0
   -7.5760   19.9770  -32.8910 N   0  0  0  0  0  0  0  0  0  0  0  0
   -7.0990   21.1890  -32.2250 C   0  0  0  0  0  0  0  0  0  0  0  0
   -8.3300   22.0230  -31.9070 C   0  0  0  0  0  0  0  0  0  0  0  0
   -9.5010   21.0540  -31.9680 C   0  0  0  0  0  0  0  0  0  0  0  0
   -8.8910   19.7040  -32.3130 C   0  0  0  0  0  0  0  0  0  0  0  0
   -4.0259   16.1272  -34.4355 H   0  0  0  0  0  0  0  0  0  0  0  0
   -5.0123   16.2081  -35.9347 H   0  0  0  0  0  0  0  0  0  0  0  0
   -3.3258   16.8266  -35.9347 H   0  0  0  0  0  0  0  0  0  0  0  0
   -2.2028   19.0039  -35.0560 H   0  0  0  0  0  0  0  0  0  0  0  0
   -1.1627   20.4736  -33.3427 H   0  0  0  0  0  0  0  0  0  0  0  0
   -3.9400   21.4950  -29.6980 H   0  0  0  0  0  0  0  0  0  0  0  0
   -1.7734   24.0011  -29.4958 H   0  0  0  0  0  0  0  0  0  0  0  0
   -0.5653   24.8682  -27.4954 H   0  0  0  0  0  0  0  0  0  0  0  0
    0.5220   25.8044  -22.8115 H   0  0  0  0  0  0  0  0  0  0  0  0
    0.9809   26.1244  -24.5273 H   0  0  0  0  0  0  0  0  0  0  0  0
   -1.3141   27.4497  -22.9990 H   0  0  0  0  0  0  0  0  0  0  0  0
    0.3099   28.1849  -23.4160 H   0  0  0  0  0  0  0  0  0  0  0  0
   -2.0921   27.3105  -26.5702 H   0  0  0  0  0  0  0  0  0  0  0  0
   -0.3837   26.6856  -26.4214 H   0  0  0  0  0  0  0  0  0  0  0  0
   -2.7530   25.8757  -24.6787 H   0  0  0  0  0  0  0  0  0  0  0  0
   -1.9874   24.9013  -26.0055 H   0  0  0  0  0  0  0  0  0  0  0  0
   -1.2904   21.1311  -25.4367 H   0  0  0  0  0  0  0  0  0  0  0  0
   -2.5003   20.2627  -27.4336 H   0  0  0  0  0  0  0  0  0  0  0  0
   -4.8021   20.3335  -31.0033 H   0  0  0  0  0  0  0  0  0  0  0  0
   -6.5672   20.9284  -31.2980 H   0  0  0  0  0  0  0  0  0  0  0  0
   -6.3983   21.7443  -32.8659 H   0  0  0  0  0  0  0  0  0  0  0  0
   -8.2472   22.4639  -30.9027 H   0  0  0  0  0  0  0  0  0  0  0  0
   -8.4523   22.8576  -32.6131 H   0  0  0  0  0  0  0  0  0  0  0  0
  -10.0132   21.0076  -30.9956 H   0  0  0  0  0  0  0  0  0  0  0  0
  -10.2512   21.3653  -32.7098 H   0  0  0  0  0  0  0  0  0  0  0  0
   -8.7872   19.0910  -31.4055 H   0  0  0  0  0  0  0  0  0  0  0  0
   -9.5274   19.1489  -33.0179 H   0  0  0  0  0  0  0  0  0  0  0  0
  1  2  1  0
  2  3  1  0
  3  4  2  0
  4  5  1  0
  5  6  2  0
  6  7  1  0
  7  8  2  0
  7  9  1  0
  9 10  1  0
 10 11  2  0
 11 12  1  0
 12 13  2  0
 13 14  1  0
 14 15  2  0
 14 16  2  0
 14 17  1  0
 17 18  1  0
 18 19  1  0
 19 20  1  0
 20 21  1  0
 21 22  1  0
 13 23  1  0
 23 24  2  0
  6 25  1  0
 25 26  2  0
 26 27  1  0
 27 28  2  0
 27 29  2  0
 27 30  1  0
 30 31  1  0
 31 32  1  0
 32 33  1  0
 33 34  1  0
 26  3  1  0
 34 30  1  0
 24 10  1  0
 22 17  1  0
  1 35  1  0
  1 36  1  0
  1 37  1  0
  4 38  1  0
  5 39  1  0
  9 40  1  0
 11 41  1  0
 12 42  1  0
 18 43  1  0
 18 44  1  0
 19 45  1  0
 19 46  1  0
 21 47  1  0
 21 48  1  0
 22 49  1  0
 22 50  1  0
 23 51  1  0
 24 52  1  0
 25 53  1  0
 31 54  1  0
 31 55  1  0
 32 56  1  0
 32 57  1  0
 33 58  1  0
 33 59  1  0
 34 60  1  0
 34 61  1  0
M  END
>  <UniqueID>  (41) 
38

>  <SMILES>  (41) 
COc1ccc(C(=O)Nc2ccc(S(=O)(=O)N3CCOCC3)cc2)cc1S(=O)(=O)N1CCCC1

>  <Energy>  (41) 
80.39759822079077

>  <Genealogy>  (41) 
COc1ccc(C(=O)Nc2ccc(S(=O)(=O)N3CCOCC3)cc2)cc1S(=O)(=O)N1CCCC1 (3D coordinates assigned)
COc1ccc(C(=O)Nc2ccc(S(=O)(=O)N3CCOCC3)cc2)cc1S(=O)(=O)N1CCCC1 (nonaromatic ring conformer: 80.39759822079077 kcal/mol)

>  <smiles>  (41) 
COc1ccc(C(=O)Nc2ccc(S(=O)(=O)N3CCOCC3)cc2)cc1S(=O)(=O)N1CCCC1

>  <score_type>  (41) 
oracle

>  <origin>  (41) 
adgpu

>  <m_score__min__energy>  (41) 
-10.01

>  <m_primary>  (41) 
energy

$$$$
41:0
     RDKit          3D

 67 70  0  0  1  0  0  0  0  0999 V2000
    3.2700   30.2670  -22.3250 C   0  0  0  0  0  0  0  0  0  0  0  0
    2.1740   29.5730  -21.5460 C   0  0  0  0  0  0  0  0  0  0  0  0
    1.8110   28.2870  -22.1110 N   0  0  0  0  0  0  0  0  0  0  0  0
    1.0860   28.0920  -23.1350 C   0  0  0  0  0  0  0  0  0  0  0  0
    0.5890   29.1620  -23.7830 N   0  0  0  0  0  0  0  0  0  0  0  0
   -0.1740   28.9650  -24.8670 C   0  0  0  0  0  0  0  0  0  0  0  0
   -0.4590   27.6900  -25.3290 C   0  0  0  0  0  0  0  0  0  0  0  0
    0.0760   26.6320  -24.6260 C   0  0  0  0  0  0  0  0  0  0  0  0
   -0.1520   25.4240  -25.0150 N   0  0  0  0  0  0  0  0  0  0  0  0
   -0.9510   25.1310  -26.1630 C   0  0  0  0  0  0  0  0  0  0  0  0
   -2.3210   25.2020  -25.9820 C   0  0  0  0  0  0  0  0  0  0  0  0
   -3.1420   24.9280  -27.0540 C   0  0  0  0  0  0  0  0  0  0  0  0
   -2.6610   24.5830  -28.2990 C   0  0  0  0  0  0  0  0  0  0  0  0
   -3.5210   24.2880  -29.4390 C   0  0  0  0  0  0  0  0  0  0  0  0
   -3.5260   25.0490  -30.4430 O   0  0  0  0  0  0  0  0  0  0  0  0
   -4.3680   23.1570  -29.4710 N   0  0  0  0  0  0  0  0  0  0  0  0
   -5.2210   22.8360  -30.5690 C   0  0  0  0  0  0  0  0  0  0  0  0
   -4.8330   21.8320  -31.4540 C   0  0  0  0  0  0  0  0  0  0  0  0
   -5.6310   21.5020  -32.5130 C   0  0  0  0  0  0  0  0  0  0  0  0
   -5.3170   20.4530  -33.5110 C   0  0  0  0  0  0  0  0  0  0  0  0
   -5.8470   19.1730  -33.1610 N   0  0  0  0  0  0  0  0  0  0  0  0
   -7.1920   19.2630  -32.6700 C   0  0  0  0  0  0  0  0  0  0  0  0
   -7.7030   17.9430  -32.1580 C   0  0  0  0  0  0  0  0  0  0  0  0
   -6.8850   16.8180  -32.5780 N   0  0  0  0  0  0  0  0  0  0  0  0
   -5.7450   16.6200  -31.7250 C   0  0  0  0  0  0  0  0  0  0  0  0
   -6.4850   16.9520  -33.9610 C   0  0  0  0  0  0  0  0  0  0  0  0
   -5.6640   18.1900  -34.1990 C   0  0  0  0  0  0  0  0  0  0  0  0
   -6.8210   22.1920  -32.6670 C   0  0  0  0  0  0  0  0  0  0  0  0
   -7.2240   23.1850  -31.8090 C   0  0  0  0  0  0  0  0  0  0  0  0
   -6.4070   23.5140  -30.7360 C   0  0  0  0  0  0  0  0  0  0  0  0
   -6.8330   24.5810  -29.8050 C   0  0  0  0  0  0  0  0  0  0  0  0
   -1.2910   24.5210  -28.4430 C   0  0  0  0  0  0  0  0  0  0  0  0
   -0.4180   24.7920  -27.3850 C   0  0  0  0  0  0  0  0  0  0  0  0
    0.8520   26.8270  -23.5250 N   0  0  0  0  0  0  0  0  0  0  0  0
    3.9867   30.7208  -21.6247 H   0  0  0  0  0  0  0  0  0  0  0  0
    3.7905   29.5335  -22.9583 H   0  0  0  0  0  0  0  0  0  0  0  0
    2.8296   31.0512  -22.9583 H   0  0  0  0  0  0  0  0  0  0  0  0
    2.5206   29.4181  -20.5136 H   0  0  0  0  0  0  0  0  0  0  0  0
    1.2821   30.2156  -21.5848 H   0  0  0  0  0  0  0  0  0  0  0  0
    0.8020   30.1230  -23.4350 H   0  0  0  0  0  0  0  0  0  0  0  0
   -0.5831   29.8348  -25.4019 H   0  0  0  0  0  0  0  0  0  0  0  0
   -1.0854   27.5291  -26.2188 H   0  0  0  0  0  0  0  0  0  0  0  0
   -2.7454   25.4713  -25.0036 H   0  0  0  0  0  0  0  0  0  0  0  0
   -4.2309   24.9872  -26.9099 H   0  0  0  0  0  0  0  0  0  0  0  0
   -4.4120   22.4760  -28.6620 H   0  0  0  0  0  0  0  0  0  0  0  0
   -3.8809   21.3032  -31.2996 H   0  0  0  0  0  0  0  0  0  0  0  0
   -5.7396   20.7541  -34.4809 H   0  0  0  0  0  0  0  0  0  0  0  0
   -4.2221   20.3556  -33.5527 H   0  0  0  0  0  0  0  0  0  0  0  0
   -7.2209   19.9956  -31.8499 H   0  0  0  0  0  0  0  0  0  0  0  0
   -7.8358   19.5712  -33.5070 H   0  0  0  0  0  0  0  0  0  0  0  0
   -7.7177   17.9750  -31.0586 H   0  0  0  0  0  0  0  0  0  0  0  0
   -8.7091   17.7939  -32.5770 H   0  0  0  0  0  0  0  0  0  0  0  0
   -6.0605   16.6748  -30.6727 H   0  0  0  0  0  0  0  0  0  0  0  0
   -5.3047   15.6319  -31.9248 H   0  0  0  0  0  0  0  0  0  0  0  0
   -4.9974   17.4017  -31.9248 H   0  0  0  0  0  0  0  0  0  0  0  0
   -5.8887   16.0720  -34.2439 H   0  0  0  0  0  0  0  0  0  0  0  0
   -7.3977   17.0305  -34.5699 H   0  0  0  0  0  0  0  0  0  0  0  0
   -4.6013   17.9084  -34.2367 H   0  0  0  0  0  0  0  0  0  0  0  0
   -5.9940   18.6365  -35.1486 H   0  0  0  0  0  0  0  0  0  0  0  0
   -7.4727   21.9332  -33.5145 H   0  0  0  0  0  0  0  0  0  0  0  0
   -8.1771   23.7105  -31.9689 H   0  0  0  0  0  0  0  0  0  0  0  0
   -6.6965   24.2392  -28.7684 H   0  0  0  0  0  0  0  0  0  0  0  0
   -6.2256   25.4818  -29.9770 H   0  0  0  0  0  0  0  0  0  0  0  0
   -7.8938   24.8157  -29.9770 H   0  0  0  0  0  0  0  0  0  0  0  0
   -0.8710   24.2493  -29.4227 H   0  0  0  0  0  0  0  0  0  0  0  0
    0.6714   24.7354  -27.5267 H   0  0  0  0  0  0  0  0  0  0  0  0
    1.2170   25.9940  -23.0500 H   0  0  0  0  0  0  0  0  0  0  0  0
  1  2  1  0
  2  3  1  0
  3  4  2  0
  4  5  1  0
  5  6  1  0
  6  7  2  0
  7  8  1  0
  8  9  2  0
  9 10  1  0
 10 11  2  0
 11 12  1  0
 12 13  2  0
 13 14  1  0
 14 15  2  0
 14 16  1  0
 16 17  1  0
 17 18  2  0
 18 19  1  0
 19 20  1  0
 20 21  1  0
 21 22  1  0
 22 23  1  0
 23 24  1  0
 24 25  1  0
 24 26  1  0
 26 27  1  0
 19 28  2  0
 28 29  1  0
 29 30  2  0
 30 31  1  0
 13 32  1  0
 32 33  2  0
  8 34  1  0
 34  4  1  0
 33 10  1  0
 30 17  1  0
 27 21  1  0
  1 35  1  0
  1 36  1  0
  1 37  1  0
  2 38  1  0
  2 39  1  0
  5 40  1  0
  6 41  1  0
  7 42  1  0
 11 43  1  0
 12 44  1  0
 16 45  1  0
 18 46  1  0
 20 47  1  0
 20 48  1  0
 22 49  1  0
 22 50  1  0
 23 51  1  0
 23 52  1  0
 25 53  1  0
 25 54  1  0
 25 55  1  0
 26 56  1  0
 26 57  1  0
 27 58  1  0
 27 59  1  0
 28 60  1  0
 29 61  1  0
 31 62  1  0
 31 63  1  0
 31 64  1  0
 32 65  1  0
 33 66  1  0
 34 67  1  0
M  END
>  <smiles>  (42) 
CCN=c1[nH]ccc(=Nc2ccc(C(=O)Nc3cc(CN4CCN(C)CC4)ccc3C)cc2)[nH]1

>  <score_type>  (42) 
oracle

>  <origin>  (42) 
adgpu

>  <m_score__min__energy>  (42) 
-10.130000000000001

>  <m_primary>  (42) 
energy

$$$$
42:0
     RDKit          3D

 32 33  0  0  0  0  0  0  0  0999 V2000
   -1.9390   24.9270  -28.2510 C   0  0  0  0  0  0  0  0  0  0  0  0
   -2.7570   25.2950  -29.3560 O   0  0  0  0  0  0  0  0  0  0  0  0
   -3.9310   24.6250  -29.7290 C   0  0  0  0  0  0  0  0  0  0  0  0
   -4.1910   23.2910  -29.3590 C   0  0  0  0  0  0  0  0  0  0  0  0
   -5.3760   22.6660  -29.7570 C   0  0  0  0  0  0  0  0  0  0  0  0
   -6.3250   23.3650  -30.5210 C   0  0  0  0  0  0  0  0  0  0  0  0
   -7.5820   22.6800  -30.9820 C   0  0  0  0  0  0  0  0  0  0  0  0
   -7.2420   21.4390  -31.7610 C   0  0  0  0  0  0  0  0  0  0  0  0
   -8.0110   20.2740  -31.6090 C   0  0  0  0  0  0  0  0  0  0  0  0
   -7.6750   19.1100  -32.3060 C   0  0  0  0  0  0  0  0  0  0  0  0
   -6.5470   19.0830  -33.1440 C   0  0  0  0  0  0  0  0  0  0  0  0
   -6.2120   17.8410  -33.9330 C   0  0  0  0  0  0  0  0  0  0  0  0
   -7.2130   16.8940  -33.7990 F   0  0  0  0  0  0  0  0  0  0  0  0
   -6.0740   18.1380  -35.2770 F   0  0  0  0  0  0  0  0  0  0  0  0
   -5.0250   17.3100  -33.4630 F   0  0  0  0  0  0  0  0  0  0  0  0
   -5.7870   20.2540  -33.3050 C   0  0  0  0  0  0  0  0  0  0  0  0
   -6.1250   21.4180  -32.6080 C   0  0  0  0  0  0  0  0  0  0  0  0
   -6.0590   24.6910  -30.8990 C   0  0  0  0  0  0  0  0  0  0  0  0
   -4.8740   25.3140  -30.5010 C   0  0  0  0  0  0  0  0  0  0  0  0
   -2.4626   25.1625  -27.3127 H   0  0  0  0  0  0  0  0  0  0  0  0
   -1.7296   23.8479  -28.2931 H   0  0  0  0  0  0  0  0  0  0  0  0
   -0.9926   25.4861  -28.2931 H   0  0  0  0  0  0  0  0  0  0  0  0
   -3.4575   22.7383  -28.7536 H   0  0  0  0  0  0  0  0  0  0  0  0
   -5.5665   21.6212  -29.4704 H   0  0  0  0  0  0  0  0  0  0  0  0
   -8.1878   22.4045  -30.1061 H   0  0  0  0  0  0  0  0  0  0  0  0
   -8.1477   23.3662  -31.6294 H   0  0  0  0  0  0  0  0  0  0  0  0
   -8.8825   20.2774  -30.9378 H   0  0  0  0  0  0  0  0  0  0  0  0
   -8.2973   18.2094  -32.1980 H   0  0  0  0  0  0  0  0  0  0  0  0
   -4.9211   20.2549  -33.9834 H   0  0  0  0  0  0  0  0  0  0  0  0
   -5.5107   22.3229  -32.7249 H   0  0  0  0  0  0  0  0  0  0  0  0
   -6.7877   25.2419  -31.5118 H   0  0  0  0  0  0  0  0  0  0  0  0
   -4.6799   26.3555  -30.7968 H   0  0  0  0  0  0  0  0  0  0  0  0
  1  2  1  0
  2  3  1  0
  3  4  2  0
  4  5  1  0
  5  6  2  0
  6  7  1  0
  7  8  1  0
  8  9  2  0
  9 10  1  0
 10 11  2  0
 11 12  1  0
 12 13  1  0
 12 14  1  0
 12 15  1  0
 11 16  1  0
 16 17  2  0
  6 18  1  0
 18 19  2  0
 19  3  1  0
 17  8  1  0
  1 20  1  0
  1 21  1  0
  1 22  1  0
  4 23  1  0
  5 24  1  0
  7 25  1  0
  7 26  1  0
  9 27  1  0
 10 28  1  0
 16 29  1  0
 17 30  1  0
 18 31  1  0
 19 32  1  0
M  END
>  <UniqueID>  (43) 
39

>  <SMILES>  (43) 
COc1ccc(Cc2ccc(C(F)(F)F)cc2)cc1

>  <Energy>  (43) 
30.731385696718522

>  <Genealogy>  (43) 
COc1ccc(Cc2ccc(C(F)(F)F)cc2)cc1 (3D coordinates assigned)
COc1ccc(Cc2ccc(C(F)(F)F)cc2)cc1 (optimized conformer: 30.731385696718522 kcal/mol)

>  <smiles>  (43) 
COc1ccc(Cc2ccc(C(F)(F)F)cc2)cc1

>  <score_type>  (43) 
oracle

>  <origin>  (43) 
adgpu

>  <m_score__min__energy>  (43) 
-7.21

>  <m_primary>  (43) 
energy

$$$$
43:0
     RDKit          3D

 58 61  0  0  0  0  0  0  0  0999 V2000
   -4.2430   25.4040  -30.4790 O   0  0  0  0  0  0  0  0  0  0  0  0
   -3.8880   24.1970  -30.4790 C   0  0  0  0  0  0  0  0  0  0  0  0
   -4.0190   23.4130  -31.6700 N   0  0  0  0  0  0  0  0  0  0  0  0
   -4.9900   22.3720  -31.8770 C   0  0  0  0  0  0  0  0  0  0  0  0
   -6.3610   22.6070  -31.6670 C   0  0  0  0  0  0  0  0  0  0  0  0
   -7.3080   21.5980  -31.9060 C   0  0  0  0  0  0  0  0  0  0  0  0
   -8.7740   21.8850  -31.7000 C   0  0  0  0  0  0  0  0  0  0  0  0
   -9.0880   23.1360  -32.2000 F   0  0  0  0  0  0  0  0  0  0  0  0
   -9.5230   20.9320  -32.3640 F   0  0  0  0  0  0  0  0  0  0  0  0
   -9.1050   21.8580  -30.3540 F   0  0  0  0  0  0  0  0  0  0  0  0
   -6.8760   20.3630  -32.4140 C   0  0  0  0  0  0  0  0  0  0  0  0
   -5.5180   20.1250  -32.6350 C   0  0  0  0  0  0  0  0  0  0  0  0
   -4.5680   21.1230  -32.3690 C   0  0  0  0  0  0  0  0  0  0  0  0
   -3.1690   20.8540  -32.5680 N   0  0  0  0  0  0  0  0  0  0  0  0
   -2.7080   20.2870  -33.8490 C   0  0  0  0  0  0  0  0  0  0  0  0
   -1.2520   20.7170  -34.1670 C   0  0  0  0  0  0  0  0  0  0  0  0
   -0.6460   21.4870  -33.1340 O   0  0  0  0  0  0  0  0  0  0  0  0
   -0.8010   20.8300  -31.8900 C   0  0  0  0  0  0  0  0  0  0  0  0
   -2.2530   20.9510  -31.4210 C   0  0  0  0  0  0  0  0  0  0  0  0
   -3.3050   23.5930  -29.2570 C   0  0  0  0  0  0  0  0  0  0  0  0
   -3.7290   22.3250  -28.8150 C   0  0  0  0  0  0  0  0  0  0  0  0
   -3.0930   21.7010  -27.7360 C   0  0  0  0  0  0  0  0  0  0  0  0
   -2.0230   22.3250  -27.0930 C   0  0  0  0  0  0  0  0  0  0  0  0
   -1.5980   23.5960  -27.5110 C   0  0  0  0  0  0  0  0  0  0  0  0
   -0.1950   24.3570  -26.7620 S   0  0  0  0  0  0  0  0  0  0  0  0
    0.6200   23.3100  -26.0490 O   0  0  0  0  0  0  0  0  0  0  0  0
    0.6630   24.9740  -27.8340 O   0  0  0  0  0  0  0  0  0  0  0  0
   -0.7150   25.5930  -25.6400 N   0  0  0  0  0  0  0  0  0  0  0  0
   -0.2730   26.9200  -26.1100 C   0  0  0  0  0  0  0  0  0  0  0  0
   -0.4810   28.0020  -25.0300 C   0  0  0  0  0  0  0  0  0  0  0  0
   -1.2260   27.5040  -23.9390 O   0  0  0  0  0  0  0  0  0  0  0  0
   -0.5030   26.4650  -23.3120 C   0  0  0  0  0  0  0  0  0  0  0  0
   -0.1970   25.3080  -24.2880 C   0  0  0  0  0  0  0  0  0  0  0  0
   -2.2520   24.2330  -28.5790 C   0  0  0  0  0  0  0  0  0  0  0  0
   -6.6952   23.5928  -31.3114 H   0  0  0  0  0  0  0  0  0  0  0  0
   -7.6121   19.5774  -32.6395 H   0  0  0  0  0  0  0  0  0  0  0  0
   -5.1905   19.1482  -33.0204 H   0  0  0  0  0  0  0  0  0  0  0  0
   -2.7525   19.1894  -33.7912 H   0  0  0  0  0  0  0  0  0  0  0  0
   -3.3625   20.6626  -34.6493 H   0  0  0  0  0  0  0  0  0  0  0  0
   -0.6485   19.8110  -34.3248 H   0  0  0  0  0  0  0  0  0  0  0  0
   -1.2925   21.3544  -35.0626 H   0  0  0  0  0  0  0  0  0  0  0  0
   -0.5403   19.7673  -32.0026 H   0  0  0  0  0  0  0  0  0  0  0  0
   -0.1376   21.2959  -31.1464 H   0  0  0  0  0  0  0  0  0  0  0  0
   -2.4737   20.1407  -30.7106 H   0  0  0  0  0  0  0  0  0  0  0  0
   -2.3917   21.9273  -30.9335 H   0  0  0  0  0  0  0  0  0  0  0  0
   -4.5658   21.8216  -29.3213 H   0  0  0  0  0  0  0  0  0  0  0  0
   -3.4379   20.7144  -27.3931 H   0  0  0  0  0  0  0  0  0  0  0  0
   -1.5128   21.8211  -26.2589 H   0  0  0  0  0  0  0  0  0  0  0  0
   -1.7620   25.5740  -25.6150 H   0  0  0  0  0  0  0  0  0  0  0  0
    0.7959   26.8708  -26.3651 H   0  0  0  0  0  0  0  0  0  0  0  0
   -0.8742   27.1916  -26.9902 H   0  0  0  0  0  0  0  0  0  0  0  0
    0.5012   28.3401  -24.6682 H   0  0  0  0  0  0  0  0  0  0  0  0
   -1.0398   28.8364  -25.4789 H   0  0  0  0  0  0  0  0  0  0  0  0
    0.4463   26.8708  -22.9324 H   0  0  0  0  0  0  0  0  0  0  0  0
   -1.1191   26.0666  -22.4924 H   0  0  0  0  0  0  0  0  0  0  0  0
    0.8923   25.1662  -24.3446 H   0  0  0  0  0  0  0  0  0  0  0  0
   -0.6900   24.3990  -23.9128 H   0  0  0  0  0  0  0  0  0  0  0  0
   -1.9377   25.2410  -28.8875 H   0  0  0  0  0  0  0  0  0  0  0  0
  1  2  2  0
  2  3  1  0
  3  4  1  0
  4  5  2  0
  5  6  1  0
  6  7  1  0
  7  8  1  0
  7  9  1  0
  7 10  1  0
  6 11  2  0
 11 12  1  0
 12 13  2  0
 13 14  1  0
 14 15  1  0
 15 16  1  0
 16 17  1  0
 17 18  1  0
 18 19  1  0
  2 20  1  0
 20 21  2  0
 21 22  1  0
 22 23  2  0
 23 24  1  0
 24 25  1  0
 25 26  2  0
 25 27  2  0
 25 28  1  0
 28 29  1  0
 29 30  1  0
 30 31  1  0
 31 32  1  0
 32 33  1  0
 24 34  2  0
 13  4  1  0
 19 14  1  0
 34 20  1  0
 33 28  1  0
  5 35  1  0
 11 36  1  0
 12 37  1  0
 15 38  1  0
 15 39  1  0
 16 40  1  0
 16 41  1  0
 18 42  1  0
 18 43  1  0
 19 44  1  0
 19 45  1  0
 21 46  1  0
 22 47  1  0
 23 48  1  0
 28 49  1  0
 29 50  1  0
 29 51  1  0
 30 52  1  0
 30 53  1  0
 32 54  1  0
 32 55  1  0
 33 56  1  0
 33 57  1  0
 34 58  1  0
M  CHG  2   3  -1  28   1
M  END
>  <UniqueID>  (44) 
40

>  <SMILES>  (44) 
O=C([N-]c1cc(C(F)(F)F)ccc1N1CCOCC1)c1cccc(S(=O)(=O)[NH+]2CCOCC2)c1

>  <Energy>  (44) 
85.44982560730666

>  <Genealogy>  (44) 
O=C([N-]c1cc(C(F)(F)F)ccc1N1CCOCC1)c1cccc(S(=O)(=O)[NH+]2CCOCC2)c1 (protonated)
O=C([N-]c1cc(C(F)(F)F)ccc1N1CCOCC1)c1cccc(S(=O)(=O)[NH+]2CCOCC2)c1 (3D coordinates assigned)
O=C([N-]c1cc(C(F)(F)F)ccc1N1CCOCC1)c1cccc(S(=O)(=O)[NH+]2CCOCC2)c1 (nonaromatic ring conformer: 85.44982560730666 kcal/mol)

>  <smiles>  (44) 
O=C(Nc1cc(C(F)(F)F)ccc1N1CCOCC1)c1cccc(S(=O)(=O)N2CCOCC2)c1

>  <score_type>  (44) 
oracle

>  <origin>  (44) 
adgpu

>  <m_score__min__energy>  (44) 
-10.08

>  <m_primary>  (44) 
energy

$$$$
44:0
     RDKit          3D

 47 49  0  0  0  0  0  0  0  0999 V2000
   -0.1049   26.1804  -28.8855 H   0  0  0  0  0  0  0  0  0  0  0  0
   -0.9360   25.6620  -28.3850 C   0  0  0  0  0  0  0  0  0  0  0  0
   -2.0660   25.2920  -29.0440 N   0  0  0  0  0  0  0  0  0  0  0  0
   -2.9370   24.6730  -28.2150 C   0  0  0  0  0  0  0  0  0  0  0  0
   -4.0900   24.2120  -28.5880 N   0  0  0  0  0  0  0  0  0  0  0  0
   -4.6700   24.3210  -30.2190 S   0  0  0  0  0  0  0  0  0  0  0  0
   -4.1690   25.5990  -30.8340 O   0  0  0  0  0  0  0  0  0  0  0  0
   -6.1730   24.3380  -30.2110 O   0  0  0  0  0  0  0  0  0  0  0  0
   -4.1180   22.9260  -31.1430 C   0  0  0  0  0  0  0  0  0  0  0  0
   -4.6280   22.6710  -32.4220 C   0  0  0  0  0  0  0  0  0  0  0  0
   -5.3867   23.3403  -32.8537 H   0  0  0  0  0  0  0  0  0  0  0  0
   -4.1760   21.5700  -33.1500 C   0  0  0  0  0  0  0  0  0  0  0  0
   -4.5810   21.3745  -34.1539 H   0  0  0  0  0  0  0  0  0  0  0  0
   -3.2080   20.7110  -32.6090 C   0  0  0  0  0  0  0  0  0  0  0  0
   -2.7830   19.5700  -33.3640 N   0  0  0  0  0  0  0  0  0  0  0  0
   -1.4890   19.5870  -34.0370 C   0  0  0  0  0  0  0  0  0  0  0  0
   -0.6853   19.5976  -33.2861 H   0  0  0  0  0  0  0  0  0  0  0  0
   -1.3912   18.6901  -34.6662 H   0  0  0  0  0  0  0  0  0  0  0  0
   -1.4147   20.4862  -34.6662 H   0  0  0  0  0  0  0  0  0  0  0  0
   -3.8780   18.2480  -33.6110 S   0  0  0  0  0  0  0  0  0  0  0  0
   -3.8750   17.8640  -35.0660 O   0  0  0  0  0  0  0  0  0  0  0  0
   -3.4430   17.0560  -32.8020 O   0  0  0  0  0  0  0  0  0  0  0  0
   -5.4880   18.7340  -33.0940 C   0  0  0  0  0  0  0  0  0  0  0  0
   -6.2160   19.6460  -33.8670 C   0  0  0  0  0  0  0  0  0  0  0  0
   -5.7698   20.0692  -34.7790 H   0  0  0  0  0  0  0  0  0  0  0  0
   -7.5090   20.0220  -33.4850 C   0  0  0  0  0  0  0  0  0  0  0  0
   -8.0738   20.7415  -34.0959 H   0  0  0  0  0  0  0  0  0  0  0  0
   -8.0890   19.4820  -32.3210 C   0  0  0  0  0  0  0  0  0  0  0  0
   -9.3820   19.8260  -31.8940 O   0  0  0  0  0  0  0  0  0  0  0  0
   -9.8590   21.1610  -31.7730 C   0  0  0  0  0  0  0  0  0  0  0  0
   -9.9522   21.4220  -30.7085 H   0  0  0  0  0  0  0  0  0  0  0  0
   -9.1510   21.8488  -32.2585 H   0  0  0  0  0  0  0  0  0  0  0  0
  -10.8425   21.2444  -32.2585 H   0  0  0  0  0  0  0  0  0  0  0  0
   -7.3550   18.5670  -31.5540 C   0  0  0  0  0  0  0  0  0  0  0  0
   -7.7985   18.1395  -30.6427 H   0  0  0  0  0  0  0  0  0  0  0  0
   -6.0630   18.1930  -31.9380 C   0  0  0  0  0  0  0  0  0  0  0  0
   -5.4972   17.4718  -31.3299 H   0  0  0  0  0  0  0  0  0  0  0  0
   -2.6790   20.9690  -31.3260 C   0  0  0  0  0  0  0  0  0  0  0  0
   -1.6530   20.0550  -30.7110 C   0  0  0  0  0  0  0  0  0  0  0  0
   -1.7195   20.1142  -29.6146 H   0  0  0  0  0  0  0  0  0  0  0  0
   -1.8424   19.0208  -31.0345 H   0  0  0  0  0  0  0  0  0  0  0  0
   -0.6475   20.3621  -31.0345 H   0  0  0  0  0  0  0  0  0  0  0  0
   -3.1520   22.0700  -30.5960 C   0  0  0  0  0  0  0  0  0  0  0  0
   -2.7615   22.2631  -29.5859 H   0  0  0  0  0  0  0  0  0  0  0  0
   -2.3500   24.5640  -26.6460 S   0  0  0  0  0  0  0  0  0  0  0  0
   -0.9060   25.3380  -27.0320 C   0  0  0  0  0  0  0  0  0  0  0  0
   -0.0816   25.5508  -26.3355 H   0  0  0  0  0  0  0  0  0  0  0  0
  1  2  1  0
  2  3  1  0
  3  4  1  0
  4  5  2  0
  5  6  1  0
  6  7  2  0
  6  8  2  0
  6  9  1  0
  9 10  2  0
 10 11  1  0
 10 12  1  0
 12 13  1  0
 12 14  2  0
 14 15  1  0
 15 16  1  0
 16 17  1  0
 16 18  1  0
 16 19  1  0
 15 20  1  0
 20 21  2  0
 20 22  2  0
 20 23  1  0
 23 24  2  0
 24 25  1  0
 24 26  1  0
 26 27  1  0
 26 28  2  0
 28 29  1  0
 29 30  1  0
 30 31  1  0
 30 32  1  0
 30 33  1  0
 28 34  1  0
 34 35  1  0
 34 36  2  0
 36 37  1  0
 14 38  1  0
 38 39  1  0
 39 40  1  0
 39 41  1  0
 39 42  1  0
 38 43  2  0
 43 44  1  0
  4 45  1  0
 45 46  1  0
 46 47  1  0
 46  2  2  0
 43  9  1  0
 36 23  1  0
M  CHG  1   3  -1
M  END
>  <UniqueID>  (45) 
41

>  <SMILES>  (45) 
COc1ccc(S(=O)(=O)N(C)c2ccc(S(=O)(=O)/N=c3\[n-]ccs3)cc2C)cc1

>  <Energy>  (45) 
86.11035537368677

>  <Genealogy>  (45) 
COc1ccc(S(=O)(=O)N(C)c2ccc(S(=O)(=O)N=c3[n-]ccs3)cc2C)cc1 (protonated)
COc1ccc(S(=O)(=O)N(C)c2ccc(S(=O)(=O)/N=c3\[n-]ccs3)cc2C)cc1 (cis-trans isomerization)
COc1ccc(S(=O)(=O)N(C)c2ccc(S(=O)(=O)/N=c3\[n-]ccs3)cc2C)cc1 (3D coordinates assigned)
COc1ccc(S(=O)(=O)N(C)c2ccc(S(=O)(=O)/N=c3\[n-]ccs3)cc2C)cc1 (optimized conformer: 86.11035537368677 kcal/mol)

>  <smiles>  (45) 
COc1ccc(S(=O)(=O)N(C)c2ccc(S(=O)(=O)N=c3[nH]ccs3)cc2C)cc1

>  <score_type>  (45) 
oracle

>  <origin>  (45) 
adgpu

>  <m_score__min__energy>  (45) 
-10.380000000000001

>  <m_primary>  (45) 
energy

$$$$
45:0
     RDKit          3D

 42 44  0  0  0  0  0  0  0  0999 V2000
   -2.2880   20.6280  -30.4220 H   0  0  0  0  0  0  0  0  0  0  0  0
   -1.2860   20.3530  -30.5220 N   0  0  0  0  0  0  0  0  0  0  0  0
   -0.5890   19.9410  -29.5120 C   0  0  0  0  0  0  0  0  0  0  0  0
    0.6990   19.5680  -29.5880 N   0  0  0  0  0  0  0  0  0  0  0  0
    1.0050   19.1830  -28.3540 N   0  0  0  0  0  0  0  0  0  0  0  0
   -0.0480   19.3080  -27.5560 N   0  0  0  0  0  0  0  0  0  0  0  0
   -1.0480   19.8090  -28.2610 N   0  0  0  0  0  0  0  0  0  0  0  0
   -2.3880   19.9040  -27.8390 N   0  0  0  0  0  0  0  0  0  0  0  0
   -3.0550   21.0140  -27.7120 C   0  0  0  0  0  0  0  0  0  0  0  0
   -4.0497   20.9703  -27.2444 H   0  0  0  0  0  0  0  0  0  0  0  0
   -2.5540   22.3280  -28.1590 C   0  0  0  0  0  0  0  0  0  0  0  0
   -1.3840   22.8490  -27.5950 C   0  0  0  0  0  0  0  0  0  0  0  0
   -0.8358   22.2696  -26.8375 H   0  0  0  0  0  0  0  0  0  0  0  0
   -0.9100   24.1010  -27.9900 C   0  0  0  0  0  0  0  0  0  0  0  0
    0.0234   24.4942  -27.5610 H   0  0  0  0  0  0  0  0  0  0  0  0
   -1.6200   24.8590  -28.9320 C   0  0  0  0  0  0  0  0  0  0  0  0
   -1.1450   26.1090  -29.3270 O   0  0  0  0  0  0  0  0  0  0  0  0
   -1.2380   26.4340  -30.2810 H   0  0  0  0  0  0  0  0  0  0  0  0
   -2.8150   24.3670  -29.4770 C   0  0  0  0  0  0  0  0  0  0  0  0
   -3.5110   25.1750  -30.3910 O   0  0  0  0  0  0  0  0  0  0  0  0
   -4.9300   25.3160  -30.4580 C   0  0  0  0  0  0  0  0  0  0  0  0
   -5.1791   26.1048  -31.1831 H   0  0  0  0  0  0  0  0  0  0  0  0
   -5.3032   25.5799  -29.4575 H   0  0  0  0  0  0  0  0  0  0  0  0
   -5.5810   24.0290  -30.8880 C   0  0  0  0  0  0  0  0  0  0  0  0
   -4.9290   23.1800  -31.7960 C   0  0  0  0  0  0  0  0  0  0  0  0
   -3.9198   23.4327  -32.1534 H   0  0  0  0  0  0  0  0  0  0  0  0
   -5.5550   22.0160  -32.2480 C   0  0  0  0  0  0  0  0  0  0  0  0
   -5.0345   21.3548  -32.9565 H   0  0  0  0  0  0  0  0  0  0  0  0
   -6.8420   21.6860  -31.8040 C   0  0  0  0  0  0  0  0  0  0  0  0
   -7.6300   20.2320  -32.4100 S   0  0  0  0  0  0  0  0  0  0  0  0
   -7.2020   19.0550  -31.5780 O   0  0  0  0  0  0  0  0  0  0  0  0
   -7.2410   19.9860  -33.8410 O   0  0  0  0  0  0  0  0  0  0  0  0
   -9.3990   20.4110  -32.3250 C   0  0  0  0  0  0  0  0  0  0  0  0
   -9.7141   20.4429  -31.2716 H   0  0  0  0  0  0  0  0  0  0  0  0
   -9.6976   21.3439  -32.8254 H   0  0  0  0  0  0  0  0  0  0  0  0
   -9.8784   19.5568  -32.8254 H   0  0  0  0  0  0  0  0  0  0  0  0
   -7.4990   22.5360  -30.9010 C   0  0  0  0  0  0  0  0  0  0  0  0
   -8.5110   22.2854  -30.5501 H   0  0  0  0  0  0  0  0  0  0  0  0
   -6.8730   23.6990  -30.4460 C   0  0  0  0  0  0  0  0  0  0  0  0
   -7.3945   24.3598  -29.7379 H   0  0  0  0  0  0  0  0  0  0  0  0
   -3.2790   23.0960  -29.0850 C   0  0  0  0  0  0  0  0  0  0  0  0
   -4.2155   22.7023  -29.5069 H   0  0  0  0  0  0  0  0  0  0  0  0
  1  2  1  0
  2  3  2  3
  3  4  1  0
  4  5  2  0
  5  6  1  0
  6  7  1  0
  7  8  1  0
  8  9  2  0
  9 10  1  0
  9 11  1  0
 11 12  2  0
 12 13  1  0
 12 14  1  0
 14 15  1  0
 14 16  2  0
 16 17  1  0
 17 18  1  0
 16 19  1  0
 19 20  1  0
 20 21  1  0
 21 22  1  0
 21 23  1  0
 21 24  1  0
 24 25  2  0
 25 26  1  0
 25 27  1  0
 27 28  1  0
 27 29  2  0
 29 30  1  0
 30 31  2  0
 30 32  2  0
 30 33  1  0
 33 34  1  0
 33 35  1  0
 33 36  1  0
 29 37  1  0
 37 38  1  0
 37 39  2  0
 39 40  1  0
 19 41  2  0
 41 42  1  0
  7  3  1  0
 41 11  1  0
 39 24  1  0
M  CHG  1   6  -1
M  END
>  <UniqueID>  (46) 
42

>  <SMILES>  (46) 
CS(=O)(=O)c1ccc(COc2cc(/C=N\n3[n-]nnc3=N)ccc2O)cc1

>  <Energy>  (46) 
89.87824726468195

>  <Genealogy>  (46) 
CS(=O)(=O)c1ccc(COc2cc(C=Nn3[n-]nnc3=N)ccc2O)cc1 (protonated)
CS(=O)(=O)c1ccc(COc2cc(/C=N\n3[n-]nnc3=N)ccc2O)cc1 (cis-trans isomerization)
CS(=O)(=O)c1ccc(COc2cc(/C=N\n3[n-]nnc3=N)ccc2O)cc1 (3D coordinates assigned)
CS(=O)(=O)c1ccc(COc2cc(/C=N\n3[n-]nnc3=N)ccc2O)cc1 (optimized conformer: 89.87824726468195 kcal/mol)

>  <smiles>  (46) 
CS(=O)(=O)c1ccc(COc2cc(C=Nn3[nH]nnc3=N)ccc2O)cc1

>  <score_type>  (46) 
oracle

>  <origin>  (46) 
adgpu

>  <m_score__min__energy>  (46) 
-9.9499999999999993

>  <m_primary>  (46) 
energy

$$$$
46:0
     RDKit          3D

 50 52  0  0  0  0  0  0  0  0999 V2000
   -6.4320   25.5810  -29.5480 C   0  0  0  0  0  0  0  0  0  0  0  0
   -5.3050   25.1130  -30.4640 C   0  0  0  0  0  0  0  0  0  0  0  0
   -5.5780   23.7620  -30.9730 N   0  0  0  0  0  0  0  0  0  0  0  0
   -6.8490   23.4570  -31.5910 C   0  0  0  0  0  0  0  0  0  0  0  0
   -7.0510   23.7790  -32.7940 O   0  0  0  0  0  0  0  0  0  0  0  0
   -7.9560   22.7560  -30.8460 C   0  0  0  0  0  0  0  0  0  0  0  0
   -8.1250   21.3520  -31.3570 C   0  0  0  0  0  0  0  0  0  0  0  0
   -7.0830   20.4150  -31.2250 C   0  0  0  0  0  0  0  0  0  0  0  0
   -7.2360   19.1170  -31.7220 C   0  0  0  0  0  0  0  0  0  0  0  0
   -8.4240   18.7470  -32.3620 C   0  0  0  0  0  0  0  0  0  0  0  0
   -9.4580   19.6760  -32.5090 C   0  0  0  0  0  0  0  0  0  0  0  0
   -9.3090   20.9770  -32.0130 C   0  0  0  0  0  0  0  0  0  0  0  0
   -4.5410   22.7680  -30.8730 C   0  0  0  0  0  0  0  0  0  0  0  0
   -3.9930   22.1550  -32.0200 C   0  0  0  0  0  0  0  0  0  0  0  0
   -4.4570   22.5610  -33.3230 N   0  0  0  0  0  0  0  0  0  0  0  0
   -3.0240   21.1810  -31.8770 N   0  0  0  0  0  0  0  0  0  0  0  0
   -2.4580   20.4930  -33.0590 C   0  0  0  0  0  0  0  0  0  0  0  0
   -3.3500   19.3670  -33.5290 C   0  0  0  0  0  0  0  0  0  0  0  0
   -2.8100   18.0880  -33.7510 C   0  0  0  0  0  0  0  0  0  0  0  0
   -3.6180   17.0530  -34.2330 C   0  0  0  0  0  0  0  0  0  0  0  0
   -4.9680   17.2900  -34.5100 C   0  0  0  0  0  0  0  0  0  0  0  0
   -5.5080   18.5630  -34.3160 C   0  0  0  0  0  0  0  0  0  0  0  0
   -4.7030   19.6000  -33.8340 C   0  0  0  0  0  0  0  0  0  0  0  0
   -2.5810   20.8420  -30.6190 C   0  0  0  0  0  0  0  0  0  0  0  0
   -1.6800   19.9710  -30.4650 O   0  0  0  0  0  0  0  0  0  0  0  0
   -3.1040   21.4380  -29.5170 N   0  0  0  0  0  0  0  0  0  0  0  0
   -4.0730   22.3790  -29.6160 C   0  0  0  0  0  0  0  0  0  0  0  0
   -4.5540   22.8950  -28.5700 O   0  0  0  0  0  0  0  0  0  0  0  0
   -6.1278   25.4547  -28.4985 H   0  0  0  0  0  0  0  0  0  0  0  0
   -6.6459   26.6423  -29.7426 H   0  0  0  0  0  0  0  0  0  0  0  0
   -7.3348   24.9834  -29.7426 H   0  0  0  0  0  0  0  0  0  0  0  0
   -5.2168   25.8077  -31.3123 H   0  0  0  0  0  0  0  0  0  0  0  0
   -4.3672   25.0921  -29.8894 H   0  0  0  0  0  0  0  0  0  0  0  0
   -7.7084   22.7244  -29.7747 H   0  0  0  0  0  0  0  0  0  0  0  0
   -8.8951   23.3074  -31.0010 H   0  0  0  0  0  0  0  0  0  0  0  0
   -6.1449   20.7049  -30.7291 H   0  0  0  0  0  0  0  0  0  0  0  0
   -6.4217   18.3861  -31.6097 H   0  0  0  0  0  0  0  0  0  0  0  0
   -8.5443   17.7246  -32.7496 H   0  0  0  0  0  0  0  0  0  0  0  0
  -10.3902   19.3846  -33.0151 H   0  0  0  0  0  0  0  0  0  0  0  0
  -10.1218   21.7076  -32.1375 H   0  0  0  0  0  0  0  0  0  0  0  0
   -5.0270   23.4230  -33.4540 H   0  0  0  0  0  0  0  0  0  0  0  0
   -4.2330   22.0410  -34.1960 H   0  0  0  0  0  0  0  0  0  0  0  0
   -2.3434   21.2217  -33.8750 H   0  0  0  0  0  0  0  0  0  0  0  0
   -1.4855   20.0649  -32.7743 H   0  0  0  0  0  0  0  0  0  0  0  0
   -1.7460   17.9002  -33.5444 H   0  0  0  0  0  0  0  0  0  0  0  0
   -3.1912   16.0521  -34.3943 H   0  0  0  0  0  0  0  0  0  0  0  0
   -5.6048   16.4733  -34.8808 H   0  0  0  0  0  0  0  0  0  0  0  0
   -6.5680   18.7504  -34.5426 H   0  0  0  0  0  0  0  0  0  0  0  0
   -5.1305   20.6036  -33.6926 H   0  0  0  0  0  0  0  0  0  0  0  0
   -2.7570   21.1620  -28.5710 H   0  0  0  0  0  0  0  0  0  0  0  0
  1  2  1  0
  2  3  1  0
  3  4  1  0
  4  5  2  0
  4  6  1  0
  6  7  1  0
  7  8  2  0
  8  9  1  0
  9 10  2  0
 10 11  1  0
 11 12  2  0
  3 13  1  0
 13 14  2  0
 14 15  1  0
 14 16  1  0
 16 17  1  0
 17 18  1  0
 18 19  2  0
 19 20  1  0
 20 21  2  0
 21 22  1  0
 22 23  2  0
 16 24  1  0
 24 25  2  0
 24 26  1  0
 26 27  1  0
 27 28  2  0
 12  7  1  0
 27 13  1  0
 23 18  1  0
  1 29  1  0
  1 30  1  0
  1 31  1  0
  2 32  1  0
  2 33  1  0
  6 34  1  0
  6 35  1  0
  8 36  1  0
  9 37  1  0
 10 38  1  0
 11 39  1  0
 12 40  1  0
 15 41  1  0
 15 42  1  0
 17 43  1  0
 17 44  1  0
 19 45  1  0
 20 46  1  0
 21 47  1  0
 22 48  1  0
 23 49  1  0
 26 50  1  0
M  END
>  <UniqueID>  (47) 
43

>  <SMILES>  (47) 
CCN(C(=O)Cc1ccccc1)c1c(N)n(Cc2ccccc2)c(=O)[nH]c1=O

>  <Energy>  (47) 
61.49073502990209

>  <Genealogy>  (47) 
CCN(C(=O)Cc1ccccc1)c1c(N)n(Cc2ccccc2)c(=O)[nH]c1=O (3D coordinates assigned)
CCN(C(=O)Cc1ccccc1)c1c(N)n(Cc2ccccc2)c(=O)[nH]c1=O (optimized conformer: 61.49073502990209 kcal/mol)

>  <smiles>  (47) 
CCN(C(=O)Cc1ccccc1)c1c(N)n(Cc2ccccc2)c(=O)[nH]c1=O

>  <score_type>  (47) 
oracle

>  <origin>  (47) 
adgpu

>  <m_score__min__energy>  (47) 
-8.2599999999999998

>  <m_primary>  (47) 
energy

$$$$
47:0
     RDKit          3D

 33 34  0  0  0  0  0  0  0  0999 V2000
   -2.8720   21.6310  -32.3990 C   0  0  0  0  0  0  0  0  0  0  0  0
   -2.6650   22.4020  -30.7630 S   0  0  0  0  0  0  0  0  0  0  0  0
   -4.3330   23.0730  -30.7300 C   0  0  0  0  0  0  0  0  0  0  0  0
   -5.3430   22.4080  -31.4380 C   0  0  0  0  0  0  0  0  0  0  0  0
   -6.6520   22.8920  -31.4200 C   0  0  0  0  0  0  0  0  0  0  0  0
   -6.9620   24.0430  -30.6950 C   0  0  0  0  0  0  0  0  0  0  0  0
   -5.9650   24.7090  -29.9770 C   0  0  0  0  0  0  0  0  0  0  0  0
   -4.6440   24.2220  -29.9730 C   0  0  0  0  0  0  0  0  0  0  0  0
   -3.6140   24.9160  -29.2490 N   0  0  0  0  0  0  0  0  0  0  0  0
   -3.2150   24.5700  -27.9110 C   0  0  0  0  0  0  0  0  0  0  0  0
   -3.7980   23.6350  -27.2960 O   0  0  0  0  0  0  0  0  0  0  0  0
   -2.1260   25.3060  -27.2320 C   0  0  0  0  0  0  0  0  0  0  0  0
   -1.9990   25.2100  -25.8350 C   0  0  0  0  0  0  0  0  0  0  0  0
   -0.9880   25.9090  -25.1590 C   0  0  0  0  0  0  0  0  0  0  0  0
   -0.8460   25.7780  -23.6710 C   0  0  0  0  0  0  0  0  0  0  0  0
   -0.0730   26.6780  -25.8910 C   0  0  0  0  0  0  0  0  0  0  0  0
   -0.1800   26.7640  -27.2800 C   0  0  0  0  0  0  0  0  0  0  0  0
   -1.1930   26.0760  -27.9560 C   0  0  0  0  0  0  0  0  0  0  0  0
   -1.2380   26.1410  -29.3440 O   0  0  0  0  0  0  0  0  0  0  0  0
   -3.1554   20.5755  -32.2737 H   0  0  0  0  0  0  0  0  0  0  0  0
   -3.6603   22.1587  -32.9559 H   0  0  0  0  0  0  0  0  0  0  0  0
   -1.9254   21.6929  -32.9559 H   0  0  0  0  0  0  0  0  0  0  0  0
   -5.1030   21.5001  -32.0108 H   0  0  0  0  0  0  0  0  0  0  0  0
   -7.4402   22.3654  -31.9781 H   0  0  0  0  0  0  0  0  0  0  0  0
   -7.9928   24.4269  -30.6885 H   0  0  0  0  0  0  0  0  0  0  0  0
   -6.2138   25.6192  -29.4116 H   0  0  0  0  0  0  0  0  0  0  0  0
   -3.1180   25.6950  -29.7340 H   0  0  0  0  0  0  0  0  0  0  0  0
   -2.6994   24.5805  -25.2665 H   0  0  0  0  0  0  0  0  0  0  0  0
   -1.5672   26.4434  -23.1739 H   0  0  0  0  0  0  0  0  0  0  0  0
   -1.0423   24.7372  -23.3741 H   0  0  0  0  0  0  0  0  0  0  0  0
    0.1757   26.0574  -23.3741 H   0  0  0  0  0  0  0  0  0  0  0  0
    0.7323   27.2156  -25.3690 H   0  0  0  0  0  0  0  0  0  0  0  0
    0.5367   27.3766  -27.8465 H   0  0  0  0  0  0  0  0  0  0  0  0
  1  2  1  0
  2  3  1  0
  3  4  2  0
  4  5  1  0
  5  6  2  0
  6  7  1  0
  7  8  2  0
  8  9  1  0
  9 10  1  0
 10 11  2  0
 10 12  1  0
 12 13  2  0
 13 14  1  0
 14 15  1  0
 14 16  2  0
 16 17  1  0
 17 18  2  0
 18 19  1  0
  8  3  1  0
 18 12  1  0
  1 20  1  0
  1 21  1  0
  1 22  1  0
  4 23  1  0
  5 24  1  0
  6 25  1  0
  7 26  1  0
  9 27  1  0
 13 28  1  0
 15 29  1  0
 15 30  1  0
 15 31  1  0
 16 32  1  0
 17 33  1  0
M  CHG  1  19  -1
M  END
>  <UniqueID>  (48) 
44

>  <SMILES>  (48) 
CSc1ccccc1NC(=O)c1cc(C)ccc1[O-]

>  <Energy>  (48) 
38.11532215755816

>  <Genealogy>  (48) 
CSc1ccccc1NC(=O)c1cc(C)ccc1[O-] (protonated)
CSc1ccccc1NC(=O)c1cc(C)ccc1[O-] (3D coordinates assigned)
CSc1ccccc1NC(=O)c1cc(C)ccc1[O-] (optimized conformer: 38.11532215755816 kcal/mol)

>  <smiles>  (48) 
CSc1ccccc1NC(=O)c1cc(C)ccc1O

>  <score_type>  (48) 
oracle

>  <origin>  (48) 
adgpu

>  <m_score__min__energy>  (48) 
-9.9900000000000002

>  <m_primary>  (48) 
energy

$$$$
48:0
     RDKit          3D

 48 50  0  0  0  0  0  0  0  0999 V2000
   -4.8450   14.6960  -33.2470 C   0  0  0  0  0  0  0  0  0  0  0  0
   -6.1060   14.2080  -33.8260 N   0  0  0  0  0  0  0  0  0  0  0  0
   -5.8700   13.0540  -34.7080 C   0  0  0  0  0  0  0  0  0  0  0  0
   -6.8850   15.2810  -34.4880 C   0  0  0  0  0  0  0  0  0  0  0  0
   -6.6520   16.6590  -33.9020 C   0  0  0  0  0  0  0  0  0  0  0  0
   -7.2710   17.0340  -32.6990 C   0  0  0  0  0  0  0  0  0  0  0  0
   -7.0530   18.3010  -32.1560 C   0  0  0  0  0  0  0  0  0  0  0  0
   -6.2130   19.2230  -32.8070 C   0  0  0  0  0  0  0  0  0  0  0  0
   -5.9780   20.5700  -32.2280 C   0  0  0  0  0  0  0  0  0  0  0  0
   -6.9910   21.2250  -31.5030 C   0  0  0  0  0  0  0  0  0  0  0  0
   -6.7670   22.4900  -30.9560 C   0  0  0  0  0  0  0  0  0  0  0  0
   -5.5270   23.1200  -31.1190 C   0  0  0  0  0  0  0  0  0  0  0  0
   -5.2490   24.7060  -30.4040 S   0  0  0  0  0  0  0  0  0  0  0  0
   -5.8110   25.7910  -31.2790 O   0  0  0  0  0  0  0  0  0  0  0  0
   -5.9280   24.7560  -29.0650 O   0  0  0  0  0  0  0  0  0  0  0  0
   -3.5470   24.9720  -30.1940 N   0  0  0  0  0  0  0  0  0  0  0  0
   -2.7580   24.3370  -29.1690 C   0  0  0  0  0  0  0  0  0  0  0  0
   -3.1260   23.0920  -28.6230 C   0  0  0  0  0  0  0  0  0  0  0  0
   -2.3490   22.4970  -27.6250 C   0  0  0  0  0  0  0  0  0  0  0  0
   -1.1940   23.1310  -27.1650 C   0  0  0  0  0  0  0  0  0  0  0  0
   -0.8120   24.3610  -27.7030 C   0  0  0  0  0  0  0  0  0  0  0  0
   -1.5850   24.9650  -28.7010 C   0  0  0  0  0  0  0  0  0  0  0  0
   -1.1850   26.1930  -29.2160 O   0  0  0  0  0  0  0  0  0  0  0  0
   -4.5150   22.4790  -31.8440 C   0  0  0  0  0  0  0  0  0  0  0  0
   -4.7380   21.2130  -32.3940 C   0  0  0  0  0  0  0  0  0  0  0  0
   -5.6000   18.8470  -34.0160 C   0  0  0  0  0  0  0  0  0  0  0  0
   -5.8200   17.5790  -34.5590 C   0  0  0  0  0  0  0  0  0  0  0  0
   -4.9114   14.6703  -32.1493 H   0  0  0  0  0  0  0  0  0  0  0  0
   -4.0161   14.0537  -33.5793 H   0  0  0  0  0  0  0  0  0  0  0  0
   -4.6644   15.7289  -33.5793 H   0  0  0  0  0  0  0  0  0  0  0  0
   -5.6866   12.1574  -34.0976 H   0  0  0  0  0  0  0  0  0  0  0  0
   -6.7534   12.8910  -35.3429 H   0  0  0  0  0  0  0  0  0  0  0  0
   -4.9935   13.2509  -35.3429 H   0  0  0  0  0  0  0  0  0  0  0  0
   -6.6065   15.3053  -35.5519 H   0  0  0  0  0  0  0  0  0  0  0  0
   -7.9484   15.0445  -34.3354 H   0  0  0  0  0  0  0  0  0  0  0  0
   -7.9325   16.3242  -32.1808 H   0  0  0  0  0  0  0  0  0  0  0  0
   -7.5419   18.5811  -31.2113 H   0  0  0  0  0  0  0  0  0  0  0  0
   -7.9670   20.7364  -31.3662 H   0  0  0  0  0  0  0  0  0  0  0  0
   -7.5678   22.9937  -30.3948 H   0  0  0  0  0  0  0  0  0  0  0  0
   -3.1110   25.7000  -30.8020 H   0  0  0  0  0  0  0  0  0  0  0  0
   -4.0320   22.5839  -28.9848 H   0  0  0  0  0  0  0  0  0  0  0  0
   -2.6485   21.5271  -27.2013 H   0  0  0  0  0  0  0  0  0  0  0  0
   -0.5848   22.6615  -26.3786 H   0  0  0  0  0  0  0  0  0  0  0  0
    0.1004   24.8576  -27.3410 H   0  0  0  0  0  0  0  0  0  0  0  0
   -3.5417   22.9729  -31.9812 H   0  0  0  0  0  0  0  0  0  0  0  0
   -3.9373   20.7158  -32.9611 H   0  0  0  0  0  0  0  0  0  0  0  0
   -4.9420   19.5573  -34.5380 H   0  0  0  0  0  0  0  0  0  0  0  0
   -5.3382   17.2996  -35.5076 H   0  0  0  0  0  0  0  0  0  0  0  0
  1  2  1  0
  2  3  1  0
  2  4  1  0
  4  5  1  0
  5  6  2  0
  6  7  1  0
  7  8  2  0
  8  9  1  0
  9 10  2  0
 10 11  1  0
 11 12  2  0
 12 13  1  0
 13 14  2  0
 13 15  2  0
 13 16  1  0
 16 17  1  0
 17 18  2  0
 18 19  1  0
 19 20  2  0
 20 21  1  0
 21 22  2  0
 22 23  1  0
 12 24  1  0
 24 25  2  0
  8 26  1  0
 26 27  2  0
 27  5  1  0
 25  9  1  0
 22 17  1  0
  1 28  1  0
  1 29  1  0
  1 30  1  0
  3 31  1  0
  3 32  1  0
  3 33  1  0
  4 34  1  0
  4 35  1  0
  6 36  1  0
  7 37  1  0
 10 38  1  0
 11 39  1  0
 16 40  1  0
 18 41  1  0
 19 42  1  0
 20 43  1  0
 21 44  1  0
 24 45  1  0
 25 46  1  0
 26 47  1  0
 27 48  1  0
M  CHG  1  23  -1
M  END
>  <UniqueID>  (49) 
45

>  <SMILES>  (49) 
CN(C)Cc1ccc(-c2ccc(S(=O)(=O)Nc3ccccc3[O-])cc2)cc1

>  <Energy>  (49) 
60.92387437705252

>  <Genealogy>  (49) 
CN(C)Cc1ccc(-c2ccc(S(=O)(=O)Nc3ccccc3[O-])cc2)cc1 (protonated)
CN(C)Cc1ccc(-c2ccc(S(=O)(=O)Nc3ccccc3[O-])cc2)cc1 (3D coordinates assigned)
CN(C)Cc1ccc(-c2ccc(S(=O)(=O)Nc3ccccc3[O-])cc2)cc1 (optimized conformer: 60.92387437705252 kcal/mol)

>  <smiles>  (49) 
CN(C)Cc1ccc(-c2ccc(S(=O)(=O)Nc3ccccc3O)cc2)cc1

>  <score_type>  (49) 
oracle

>  <origin>  (49) 
adgpu

>  <m_score__min__energy>  (49) 
-12.81

>  <m_primary>  (49) 
energy

$$$$
49:0
     RDKit          3D

 54 56  0  0  0  0  0  0  0  0999 V2000
    0.5490   21.8510  -36.0500 C   0  0  0  0  0  0  0  0  0  0  0  0
    0.6330   22.0080  -34.6040 N   0  0  0  0  0  0  0  0  0  0  0  0
    0.2840   20.9970  -33.6490 C   0  0  0  0  0  0  0  0  0  0  0  0
    1.2070   20.4000  -33.0350 O   0  0  0  0  0  0  0  0  0  0  0  0
   -1.1170   20.6100  -33.3880 C   0  0  0  0  0  0  0  0  0  0  0  0
   -1.4260   19.2770  -33.0770 C   0  0  0  0  0  0  0  0  0  0  0  0
   -2.7480   18.9020  -32.8240 C   0  0  0  0  0  0  0  0  0  0  0  0
   -3.7670   19.8560  -32.8560 C   0  0  0  0  0  0  0  0  0  0  0  0
   -3.4660   21.2030  -33.1220 C   0  0  0  0  0  0  0  0  0  0  0  0
   -4.4580   22.1920  -33.1640 O   0  0  0  0  0  0  0  0  0  0  0  0
   -5.6980   22.1330  -32.5110 C   0  0  0  0  0  0  0  0  0  0  0  0
   -6.4940   20.9730  -32.5720 C   0  0  0  0  0  0  0  0  0  0  0  0
   -7.6870   20.8850  -31.8400 C   0  0  0  0  0  0  0  0  0  0  0  0
   -8.5480   19.6610  -31.9400 C   0  0  0  0  0  0  0  0  0  0  0  0
   -8.0890   21.9670  -31.0470 C   0  0  0  0  0  0  0  0  0  0  0  0
   -7.2990   23.1160  -30.9700 C   0  0  0  0  0  0  0  0  0  0  0  0
   -6.1170   23.2170  -31.7130 C   0  0  0  0  0  0  0  0  0  0  0  0
   -5.3360   24.4130  -31.5950 N   0  0  0  0  0  0  0  0  0  0  0  0
   -4.9380   25.0230  -30.3600 C   0  0  0  0  0  0  0  0  0  0  0  0
   -5.7910   25.2480  -29.4610 O   0  0  0  0  0  0  0  0  0  0  0  0
   -3.5570   25.2900  -30.0940 N   0  0  0  0  0  0  0  0  0  0  0  0
   -2.5770   24.3160  -29.7070 C   0  0  0  0  0  0  0  0  0  0  0  0
   -2.7860   22.9480  -29.9410 C   0  0  0  0  0  0  0  0  0  0  0  0
   -1.8170   22.0170  -29.5780 C   0  0  0  0  0  0  0  0  0  0  0  0
   -0.6250   22.4380  -28.9950 C   0  0  0  0  0  0  0  0  0  0  0  0
   -0.3760   23.8070  -28.7730 C   0  0  0  0  0  0  0  0  0  0  0  0
    0.8290   24.2340  -28.1950 O   0  0  0  0  0  0  0  0  0  0  0  0
    1.1660   24.1040  -26.8170 C   0  0  0  0  0  0  0  0  0  0  0  0
   -1.3650   24.7590  -29.1430 C   0  0  0  0  0  0  0  0  0  0  0  0
   -1.2140   26.1490  -28.9710 O   0  0  0  0  0  0  0  0  0  0  0  0
   -0.8470   26.8210  -27.7720 C   0  0  0  0  0  0  0  0  0  0  0  0
   -2.1420   21.5700  -33.3950 C   0  0  0  0  0  0  0  0  0  0  0  0
    0.0423   20.9039  -36.2872 H   0  0  0  0  0  0  0  0  0  0  0  0
   -0.0213   22.6890  -36.4773 H   0  0  0  0  0  0  0  0  0  0  0  0
    1.5626   21.8416  -36.4773 H   0  0  0  0  0  0  0  0  0  0  0  0
   -0.6247   18.5247  -33.0322 H   0  0  0  0  0  0  0  0  0  0  0  0
   -2.9867   17.8521  -32.5989 H   0  0  0  0  0  0  0  0  0  0  0  0
   -4.8083   19.5526  -32.6725 H   0  0  0  0  0  0  0  0  0  0  0  0
   -6.1769   20.1274  -33.2001 H   0  0  0  0  0  0  0  0  0  0  0  0
   -8.7983   19.3052  -30.9297 H   0  0  0  0  0  0  0  0  0  0  0  0
   -9.4732   19.9068  -32.4818 H   0  0  0  0  0  0  0  0  0  0  0  0
   -8.0040   18.8733  -32.4818 H   0  0  0  0  0  0  0  0  0  0  0  0
   -9.0313   21.9116  -30.4822 H   0  0  0  0  0  0  0  0  0  0  0  0
   -7.6080   23.9482  -30.3204 H   0  0  0  0  0  0  0  0  0  0  0  0
   -3.7200   22.6100  -30.4135 H   0  0  0  0  0  0  0  0  0  0  0  0
   -1.9936   20.9454  -29.7523 H   0  0  0  0  0  0  0  0  0  0  0  0
    0.1309   21.6936  -28.7044 H   0  0  0  0  0  0  0  0  0  0  0  0
    0.3168   24.4316  -26.1994 H   0  0  0  0  0  0  0  0  0  0  0  0
    1.3975   23.0521  -26.5938 H   0  0  0  0  0  0  0  0  0  0  0  0
    2.0440   24.7280  -26.5938 H   0  0  0  0  0  0  0  0  0  0  0  0
   -1.1714   26.2271  -26.9048 H   0  0  0  0  0  0  0  0  0  0  0  0
    0.2453   26.9473  -27.7421 H   0  0  0  0  0  0  0  0  0  0  0  0
   -1.3312   27.8083  -27.7421 H   0  0  0  0  0  0  0  0  0  0  0  0
   -1.9028   22.6205  -33.6170 H   0  0  0  0  0  0  0  0  0  0  0  0
  1  2  1  0
  2  3  1  0
  3  4  2  0
  3  5  1  0
  5  6  2  0
  6  7  1  0
  7  8  2  0
  8  9  1  0
  9 10  1  0
 10 11  1  0
 11 12  2  0
 12 13  1  0
 13 14  1  0
 13 15  2  0
 15 16  1  0
 16 17  2  0
 17 18  1  0
 18 19  1  0
 19 20  2  0
 19 21  1  0
 21 22  1  0
 22 23  2  0
 23 24  1  0
 24 25  2  0
 25 26  1  0
 26 27  1  0
 27 28  1  0
 26 29  2  0
 29 30  1  0
 30 31  1  0
  9 32  2  0
 32  5  1  0
 17 11  1  0
 29 22  1  0
  1 33  1  0
  1 34  1  0
  1 35  1  0
  6 36  1  0
  7 37  1  0
  8 38  1  0
 12 39  1  0
 14 40  1  0
 14 41  1  0
 14 42  1  0
 15 43  1  0
 16 44  1  0
 23 45  1  0
 24 46  1  0
 25 47  1  0
 28 48  1  0
 28 49  1  0
 28 50  1  0
 31 51  1  0
 31 52  1  0
 31 53  1  0
 32 54  1  0
M  CHG  3   2  -1  18  -1  21  -1
M  END
>  <UniqueID>  (50) 
46

>  <SMILES>  (50) 
C[N-]C(=O)c1cccc(Oc2cc(C)ccc2[N-]C(=O)[N-]c2cccc(OC)c2OC)c1

>  <Energy>  (50) 
75.50985279976791

>  <Genealogy>  (50) 
C[N-]C(=O)c1cccc(Oc2cc(C)ccc2[N-]C(=O)[N-]c2cccc(OC)c2OC)c1 (protonated)
C[N-]C(=O)c1cccc(Oc2cc(C)ccc2[N-]C(=O)[N-]c2cccc(OC)c2OC)c1 (3D coordinates assigned)
C[N-]C(=O)c1cccc(Oc2cc(C)ccc2[N-]C(=O)[N-]c2cccc(OC)c2OC)c1 (optimized conformer: 75.50985279976791 kcal/mol)

>  <smiles>  (50) 
CNC(=O)c1cccc(Oc2cc(C)ccc2NC(=O)Nc2cccc(OC)c2OC)c1

>  <score_type>  (50) 
oracle

>  <origin>  (50) 
adgpu

>  <m_score__min__energy>  (50) 
-12.67

>  <m_primary>  (50) 
energy

$$$$
