0:0
     RDKit          3D

 61 64  0  0  0  0  0  0  0  0999 V2000
   -5.8180   18.9780  -34.3830 N   0  0  0  0  0  0  0  0  0  0  0  0
   -6.2540   19.8490  -33.3330 C   0  0  0  0  0  0  0  0  0  0  0  0
   -7.6190   19.8850  -33.0120 C   0  0  0  0  0  0  0  0  0  0  0  0
   -8.0950   20.7400  -32.0210 C   0  0  0  0  0  0  0  0  0  0  0  0
   -7.2100   21.5670  -31.3280 C   0  0  0  0  0  0  0  0  0  0  0  0
   -7.8240   22.6760  -30.0550 S   0  0  0  0  0  0  0  0  0  0  0  0
   -7.1440   24.1910  -30.8200 C   0  0  0  0  0  0  0  0  0  0  0  0
   -5.7320   24.4200  -30.3790 C   0  0  0  0  0  0  0  0  0  0  0  0
   -4.9140   24.9370  -31.1880 O   0  0  0  0  0  0  0  0  0  0  0  0
   -5.3530   24.1530  -29.0210 N   0  0  0  0  0  0  0  0  0  0  0  0
   -4.0110   24.2430  -28.5110 C   0  0  0  0  0  0  0  0  0  0  0  0
   -3.7540   24.4790  -27.1470 C   0  0  0  0  0  0  0  0  0  0  0  0
   -2.4390   24.5650  -26.6830 C   0  0  0  0  0  0  0  0  0  0  0  0
   -1.3620   24.4480  -27.5720 C   0  0  0  0  0  0  0  0  0  0  0  0
    0.2970   24.5540  -26.9730 S   0  0  0  0  0  0  0  0  0  0  0  0
    1.2420   24.6260  -28.1400 O   0  0  0  0  0  0  0  0  0  0  0  0
    0.6230   23.3150  -26.1870 O   0  0  0  0  0  0  0  0  0  0  0  0
    0.5280   25.9660  -25.9680 N   0  0  0  0  0  0  0  0  0  0  0  0
    0.3060   25.6660  -24.5350 C   0  0  0  0  0  0  0  0  0  0  0  0
   -0.9210   26.3980  -23.9650 C   0  0  0  0  0  0  0  0  0  0  0  0
   -0.8480   27.8040  -24.1330 O   0  0  0  0  0  0  0  0  0  0  0  0
   -0.3540   28.2020  -25.4100 C   0  0  0  0  0  0  0  0  0  0  0  0
   -0.2980   27.0840  -26.4590 C   0  0  0  0  0  0  0  0  0  0  0  0
   -1.6130   24.2510  -28.9380 C   0  0  0  0  0  0  0  0  0  0  0  0
   -2.9290   24.1490  -29.4030 C   0  0  0  0  0  0  0  0  0  0  0  0
   -5.8460   21.5380  -31.6320 C   0  0  0  0  0  0  0  0  0  0  0  0
   -5.3530   20.6820  -32.6280 C   0  0  0  0  0  0  0  0  0  0  0  0
   -3.6190   20.7090  -32.9840 S   0  0  0  0  0  0  0  0  0  0  0  0
   -3.2180   19.4780  -33.7490 O   0  0  0  0  0  0  0  0  0  0  0  0
   -3.3050   21.9110  -33.8310 O   0  0  0  0  0  0  0  0  0  0  0  0
   -2.7170   20.7480  -31.4730 C   0  0  0  0  0  0  0  0  0  0  0  0
   -3.4070   20.7310  -30.2500 C   0  0  0  0  0  0  0  0  0  0  0  0
   -2.7000   20.7730  -29.0430 C   0  0  0  0  0  0  0  0  0  0  0  0
   -1.3010   20.8350  -29.0530 C   0  0  0  0  0  0  0  0  0  0  0  0
   -0.6100   20.8510  -30.2690 C   0  0  0  0  0  0  0  0  0  0  0  0
   -1.3150   20.8050  -31.4770 C   0  0  0  0  0  0  0  0  0  0  0  0
   -4.8390   18.6300  -34.4570 H   0  0  0  0  0  0  0  0  0  0  0  0
   -6.4740   18.7100  -35.1470 H   0  0  0  0  0  0  0  0  0  0  0  0
   -8.3214   19.2306  -33.5490 H   0  0  0  0  0  0  0  0  0  0  0  0
   -9.1690   20.7634  -31.7844 H   0  0  0  0  0  0  0  0  0  0  0  0
   -7.1674   24.0843  -31.9146 H   0  0  0  0  0  0  0  0  0  0  0  0
   -7.7555   25.0499  -30.5065 H   0  0  0  0  0  0  0  0  0  0  0  0
   -6.1220   23.9920  -28.3310 H   0  0  0  0  0  0  0  0  0  0  0  0
   -4.5918   24.5961  -26.4439 H   0  0  0  0  0  0  0  0  0  0  0  0
   -2.2476   24.7258  -25.6118 H   0  0  0  0  0  0  0  0  0  0  0  0
    0.1555   24.5824  -24.4203 H   0  0  0  0  0  0  0  0  0  0  0  0
    1.1903   26.0116  -23.9795 H   0  0  0  0  0  0  0  0  0  0  0  0
   -1.8208   26.0287  -24.4788 H   0  0  0  0  0  0  0  0  0  0  0  0
   -0.9562   26.1945  -22.8846 H   0  0  0  0  0  0  0  0  0  0  0  0
   -1.0065   28.9994  -25.7952 H   0  0  0  0  0  0  0  0  0  0  0  0
    0.6846   28.5274  -25.2508 H   0  0  0  0  0  0  0  0  0  0  0  0
   -1.3173   26.7221  -26.6591 H   0  0  0  0  0  0  0  0  0  0  0  0
    0.1478   27.4808  -27.3830 H   0  0  0  0  0  0  0  0  0  0  0  0
   -0.7737   24.1765  -29.6451 H   0  0  0  0  0  0  0  0  0  0  0  0
   -3.1181   23.9940  -30.4755 H   0  0  0  0  0  0  0  0  0  0  0  0
   -5.1522   22.1930  -31.0847 H   0  0  0  0  0  0  0  0  0  0  0  0
   -4.5060   20.6846  -30.2407 H   0  0  0  0  0  0  0  0  0  0  0  0
   -3.2431   20.7573  -28.0865 H   0  0  0  0  0  0  0  0  0  0  0  0
   -0.7454   20.8711  -28.1043 H   0  0  0  0  0  0  0  0  0  0  0  0
    0.4889   20.8998  -30.2758 H   0  0  0  0  0  0  0  0  0  0  0  0
   -0.7688   20.8135  -32.4318 H   0  0  0  0  0  0  0  0  0  0  0  0
  1  2  1  0
  2  3  2  0
  3  4  1  0
  4  5  2  0
  5  6  1  0
  6  7  1  0
  7  8  1  0
  8  9  2  0
  8 10  1  0
 10 11  1  0
 11 12  2  0
 12 13  1  0
 13 14  2  0
 14 15  1  0
 15 16  2  0
 15 17  2  0
 15 18  1  0
 18 19  1  0
 19 20  1  0
 20 21  1  0
 21 22  1  0
 22 23  1  0
 14 24  1  0
 24 25  2  0
  5 26  1  0
 26 27  2  0
 27 28  1  0
 28 29  2  0
 28 30  2  0
 28 31  1  0
 31 32  2  0
 32 33  1  0
 33 34  2  0
 34 35  1  0
 35 36  2  0
 27  2  1  0
 36 31  1  0
 25 11  1  0
 23 18  1  0
  1 37  1  0
  1 38  1  0
  3 39  1  0
  4 40  1  0
  7 41  1  0
  7 42  1  0
 10 43  1  0
 12 44  1  0
 13 45  1  0
 19 46  1  0
 19 47  1  0
 20 48  1  0
 20 49  1  0
 22 50  1  0
 22 51  1  0
 23 52  1  0
 23 53  1  0
 24 54  1  0
 25 55  1  0
 26 56  1  0
 32 57  1  0
 33 58  1  0
 34 59  1  0
 35 60  1  0
 36 61  1  0
M  END
>  <UniqueID>  (1) 
1

>  <SMILES>  (1) 
Nc1ccc(SCC(=O)Nc2ccc(S(=O)(=O)N3CCOCC3)cc2)cc1S(=O)(=O)c1ccccc1

>  <Energy>  (1) 
76.56880456617664

>  <Genealogy>  (1) 
Nc1ccc(SCC(=O)Nc2ccc(S(=O)(=O)N3CCOCC3)cc2)cc1S(=O)(=O)c1ccccc1 (3D coordinates assigned)
Nc1ccc(SCC(=O)Nc2ccc(S(=O)(=O)N3CCOCC3)cc2)cc1S(=O)(=O)c1ccccc1 (nonaromatic ring conformer: 76.56880456617664 kcal/mol)

>  <smiles>  (1) 
Nc1ccc(SCC(=O)Nc2ccc(S(=O)(=O)N3CCOCC3)cc2)cc1S(=O)(=O)c1ccccc1

>  <score_type>  (1) 
oracle

>  <origin>  (1) 
adgpu

>  <m_score__min__energy>  (1) 
-11.539999999999999

>  <m_primary>  (1) 
energy

$$$$
1:0
     RDKit          3D

 43 45  0  0  0  0  0  0  0  0999 V2000
    0.7000   16.8260  -27.4650 C   0  0  0  0  0  0  0  0  0  0  0  0
   -0.1370   18.0520  -27.6770 C   0  0  0  0  0  0  0  0  0  0  0  0
    0.1360   18.9190  -28.7460 C   0  0  0  0  0  0  0  0  0  0  0  0
   -0.6670   20.0420  -28.9650 C   0  0  0  0  0  0  0  0  0  0  0  0
   -1.7690   20.3030  -28.1380 C   0  0  0  0  0  0  0  0  0  0  0  0
   -2.5630   21.4800  -28.3700 N   0  0  0  0  0  0  0  0  0  0  0  0
   -2.1170   22.6060  -29.1380 C   0  0  0  0  0  0  0  0  0  0  0  0
   -0.8850   22.8570  -29.2320 O   0  0  0  0  0  0  0  0  0  0  0  0
   -3.0900   23.5210  -29.7640 C   0  0  0  0  0  0  0  0  0  0  0  0
   -3.0210   24.9100  -29.8000 C   0  0  0  0  0  0  0  0  0  0  0  0
   -2.0080   25.6690  -29.2280 O   0  0  0  0  0  0  0  0  0  0  0  0
   -4.0680   25.4610  -30.4560 N   0  0  0  0  0  0  0  0  0  0  0  0
   -4.8040   24.4050  -30.8460 C   0  0  0  0  0  0  0  0  0  0  0  0
   -5.9810   24.4490  -31.5890 C   0  0  0  0  0  0  0  0  0  0  0  0
   -6.5890   23.2320  -31.9440 C   0  0  0  0  0  0  0  0  0  0  0  0
   -6.0090   22.0000  -31.5590 C   0  0  0  0  0  0  0  0  0  0  0  0
   -6.7630   20.4790  -32.0410 S   0  0  0  0  0  0  0  0  0  0  0  0
   -5.8970   19.3340  -31.5930 O   0  0  0  0  0  0  0  0  0  0  0  0
   -6.8570   20.4300  -33.5410 O   0  0  0  0  0  0  0  0  0  0  0  0
   -8.3580   20.3050  -31.3510 N   0  0  0  0  0  0  0  0  0  0  0  0
   -9.2640   21.3010  -31.9360 C   0  0  0  0  0  0  0  0  0  0  0  0
   -8.8640   18.9490  -31.6010 C   0  0  0  0  0  0  0  0  0  0  0  0
   -4.8160   21.9870  -30.8090 C   0  0  0  0  0  0  0  0  0  0  0  0
   -4.2470   23.2110  -30.4520 C   0  0  0  0  0  0  0  0  0  0  0  0
   -2.0390   19.4340  -27.0650 C   0  0  0  0  0  0  0  0  0  0  0  0
   -1.2370   18.3100  -26.8460 C   0  0  0  0  0  0  0  0  0  0  0  0
    0.8220   16.6473  -26.3865 H   0  0  0  0  0  0  0  0  0  0  0  0
    0.2042   15.9593  -27.9265 H   0  0  0  0  0  0  0  0  0  0  0  0
    1.6878   16.9721  -27.9265 H   0  0  0  0  0  0  0  0  0  0  0  0
    0.9853   18.7141  -29.4143 H   0  0  0  0  0  0  0  0  0  0  0  0
   -0.4325   20.7269  -29.7932 H   0  0  0  0  0  0  0  0  0  0  0  0
   -3.4790   21.5620  -27.8740 H   0  0  0  0  0  0  0  0  0  0  0  0
   -6.4232   25.4102  -31.8901 H   0  0  0  0  0  0  0  0  0  0  0  0
   -7.5227   23.2376  -32.5255 H   0  0  0  0  0  0  0  0  0  0  0  0
   -9.7684   21.8555  -31.1309 H   0  0  0  0  0  0  0  0  0  0  0  0
   -8.6869   22.0013  -32.5577 H   0  0  0  0  0  0  0  0  0  0  0  0
  -10.0156   20.7926  -32.5577 H   0  0  0  0  0  0  0  0  0  0  0  0
   -9.0520   18.4451  -30.6415 H   0  0  0  0  0  0  0  0  0  0  0  0
   -9.8009   19.0072  -32.1744 H   0  0  0  0  0  0  0  0  0  0  0  0
   -8.1180   18.3792  -32.1744 H   0  0  0  0  0  0  0  0  0  0  0  0
   -4.3456   21.0378  -30.5127 H   0  0  0  0  0  0  0  0  0  0  0  0
   -2.8862   19.6402  -26.3944 H   0  0  0  0  0  0  0  0  0  0  0  0
   -1.4699   17.6245  -26.0178 H   0  0  0  0  0  0  0  0  0  0  0  0
  1  2  1  0
  2  3  2  0
  3  4  1  0
  4  5  2  0
  5  6  1  0
  6  7  1  0
  7  8  2  0
  7  9  1  0
  9 10  2  0
 10 11  1  0
 10 12  1  0
 12 13  1  0
 13 14  2  0
 14 15  1  0
 15 16  2  0
 16 17  1  0
 17 18  2  0
 17 19  2  0
 17 20  1  0
 20 21  1  0
 20 22  1  0
 16 23  1  0
 23 24  2  0
  5 25  1  0
 25 26  2  0
 26  2  1  0
 24  9  1  0
 24 13  1  0
  1 27  1  0
  1 28  1  0
  1 29  1  0
  3 30  1  0
  4 31  1  0
  6 32  1  0
 14 33  1  0
 15 34  1  0
 21 35  1  0
 21 36  1  0
 21 37  1  0
 22 38  1  0
 22 39  1  0
 22 40  1  0
 23 41  1  0
 25 42  1  0
 26 43  1  0
M  CHG  2  11  -1  12  -1
M  END
>  <UniqueID>  (2) 
2

>  <SMILES>  (2) 
Cc1ccc(NC(=O)c2c([O-])[n-]c3ccc(S(=O)(=O)N(C)C)cc23)cc1

>  <Energy>  (2) 
79.97155476659927

>  <Genealogy>  (2) 
Cc1ccc(NC(=O)c2c([O-])[n-]c3ccc(S(=O)(=O)N(C)C)cc23)cc1 (protonated)
Cc1ccc(NC(=O)c2c([O-])[n-]c3ccc(S(=O)(=O)N(C)C)cc23)cc1 (3D coordinates assigned)
Cc1ccc(NC(=O)c2c([O-])[n-]c3ccc(S(=O)(=O)N(C)C)cc23)cc1 (optimized conformer: 79.97155476659927 kcal/mol)

>  <smiles>  (2) 
Cc1ccc(NC(=O)c2c(O)[nH]c3ccc(S(=O)(=O)N(C)C)cc23)cc1

>  <score_type>  (2) 
oracle

>  <origin>  (2) 
adgpu

>  <m_score__min__energy>  (2) 
-13.44

>  <m_primary>  (2) 
energy

$$$$
2:0
     RDKit          3D

 64 67  0  0  0  0  0  0  0  0999 V2000
   -2.1620   17.3980  -34.8520 C   0  0  0  0  0  0  0  0  0  0  0  0
   -2.9540   18.2030  -33.8580 C   0  0  0  0  0  0  0  0  0  0  0  0
   -4.3410   18.0040  -33.7390 C   0  0  0  0  0  0  0  0  0  0  0  0
   -5.0930   18.7600  -32.8270 C   0  0  0  0  0  0  0  0  0  0  0  0
   -6.8330   18.5170  -32.6730 S   0  0  0  0  0  0  0  0  0  0  0  0
   -7.2460   17.2840  -33.4290 O   0  0  0  0  0  0  0  0  0  0  0  0
   -7.1520   18.3090  -31.2190 O   0  0  0  0  0  0  0  0  0  0  0  0
   -7.7030   19.9190  -33.2660 N   0  0  0  0  0  0  0  0  0  0  0  0
   -6.9320   21.1690  -33.0560 C   0  0  0  0  0  0  0  0  0  0  0  0
   -7.4080   21.9620  -31.8240 C   0  0  0  0  0  0  0  0  0  0  0  0
   -7.8410   21.0790  -30.8140 O   0  0  0  0  0  0  0  0  0  0  0  0
   -9.0400   20.4320  -31.2040 C   0  0  0  0  0  0  0  0  0  0  0  0
   -9.0600   20.0010  -32.6900 C   0  0  0  0  0  0  0  0  0  0  0  0
   -4.4590   19.7320  -32.0460 C   0  0  0  0  0  0  0  0  0  0  0  0
   -3.0850   19.9460  -32.1680 C   0  0  0  0  0  0  0  0  0  0  0  0
   -2.3290   19.1960  -33.0770 C   0  0  0  0  0  0  0  0  0  0  0  0
   -0.9220   19.4330  -33.1830 N   0  0  0  0  0  0  0  0  0  0  0  0
   -0.1150   19.9260  -32.1060 C   0  0  0  0  0  0  0  0  0  0  0  0
    0.5710   20.9670  -32.2830 O   0  0  0  0  0  0  0  0  0  0  0  0
   -0.0450   19.2200  -30.7860 C   0  0  0  0  0  0  0  0  0  0  0  0
    0.5040   20.3840  -29.4940 S   0  0  0  0  0  0  0  0  0  0  0  0
   -0.8920   20.0280  -28.4150 C   0  0  0  0  0  0  0  0  0  0  0  0
   -0.8160   18.9010  -27.5860 C   0  0  0  0  0  0  0  0  0  0  0  0
   -1.8780   18.5670  -26.7430 C   0  0  0  0  0  0  0  0  0  0  0  0
   -3.0250   19.3620  -26.7190 C   0  0  0  0  0  0  0  0  0  0  0  0
   -3.1050   20.5000  -27.5290 C   0  0  0  0  0  0  0  0  0  0  0  0
   -2.0420   20.8470  -28.3800 C   0  0  0  0  0  0  0  0  0  0  0  0
   -2.1400   22.3390  -29.3290 S   0  0  0  0  0  0  0  0  0  0  0  0
   -1.5110   22.1280  -30.6820 O   0  0  0  0  0  0  0  0  0  0  0  0
   -1.3970   23.4340  -28.6190 O   0  0  0  0  0  0  0  0  0  0  0  0
   -3.8160   22.7910  -29.5150 N   0  0  0  0  0  0  0  0  0  0  0  0
   -4.1080   23.1920  -30.8910 C   0  0  0  0  0  0  0  0  0  0  0  0
   -5.2570   24.1850  -30.8260 C   0  0  0  0  0  0  0  0  0  0  0  0
   -5.3160   24.6440  -29.3760 C   0  0  0  0  0  0  0  0  0  0  0  0
   -4.1510   23.9510  -28.6890 C   0  0  0  0  0  0  0  0  0  0  0  0
   -1.4884   16.7134  -34.3158 H   0  0  0  0  0  0  0  0  0  0  0  0
   -2.8495   16.8161  -35.4835 H   0  0  0  0  0  0  0  0  0  0  0  0
   -1.5690   18.0759  -35.4835 H   0  0  0  0  0  0  0  0  0  0  0  0
   -4.8401   17.2501  -34.3655 H   0  0  0  0  0  0  0  0  0  0  0  0
   -7.8100   19.7750  -34.2980 H   0  0  0  0  0  0  0  0  0  0  0  0
   -5.8718   20.9096  -32.9193 H   0  0  0  0  0  0  0  0  0  0  0  0
   -7.0847   21.8057  -33.9399 H   0  0  0  0  0  0  0  0  0  0  0  0
   -6.5766   22.5722  -31.4412 H   0  0  0  0  0  0  0  0  0  0  0  0
   -8.2464   22.6110  -32.1169 H   0  0  0  0  0  0  0  0  0  0  0  0
   -9.1690   19.5349  -30.5806 H   0  0  0  0  0  0  0  0  0  0  0  0
   -9.8553   21.1580  -31.0692 H   0  0  0  0  0  0  0  0  0  0  0  0
   -9.5371   19.0128  -32.7657 H   0  0  0  0  0  0  0  0  0  0  0  0
   -9.6206   20.7609  -33.2542 H   0  0  0  0  0  0  0  0  0  0  0  0
   -5.0454   20.3300  -31.3330 H   0  0  0  0  0  0  0  0  0  0  0  0
   -2.5932   20.7085  -31.5462 H   0  0  0  0  0  0  0  0  0  0  0  0
   -1.0402   18.8294  -30.5271 H   0  0  0  0  0  0  0  0  0  0  0  0
    0.6719   18.3886  -30.8554 H   0  0  0  0  0  0  0  0  0  0  0  0
    0.0878   18.2741  -27.5993 H   0  0  0  0  0  0  0  0  0  0  0  0
   -1.8107   17.6782  -26.0984 H   0  0  0  0  0  0  0  0  0  0  0  0
   -3.8663   19.0937  -26.0631 H   0  0  0  0  0  0  0  0  0  0  0  0
   -4.0075   21.1282  -27.4994 H   0  0  0  0  0  0  0  0  0  0  0  0
   -3.2239   23.6653  -31.3430 H   0  0  0  0  0  0  0  0  0  0  0  0
   -4.3744   22.3207  -31.5074 H   0  0  0  0  0  0  0  0  0  0  0  0
   -5.0652   25.0391  -31.4921 H   0  0  0  0  0  0  0  0  0  0  0  0
   -6.2060   23.7329  -31.1499 H   0  0  0  0  0  0  0  0  0  0  0  0
   -5.2060   25.7367  -29.3128 H   0  0  0  0  0  0  0  0  0  0  0  0
   -6.2780   24.3935  -28.9051 H   0  0  0  0  0  0  0  0  0  0  0  0
   -3.2895   24.6316  -28.6215 H   0  0  0  0  0  0  0  0  0  0  0  0
   -4.4143   23.6488  -27.6646 H   0  0  0  0  0  0  0  0  0  0  0  0
  1  2  1  0
  2  3  2  0
  3  4  1  0
  4  5  1  0
  5  6  2  0
  5  7  2  0
  5  8  1  0
  8  9  1  0
  9 10  1  0
 10 11  1  0
 11 12  1  0
 12 13  1  0
  4 14  2  0
 14 15  1  0
 15 16  2  0
 16 17  1  0
 17 18  1  0
 18 19  2  0
 18 20  1  0
 20 21  1  0
 21 22  1  0
 22 23  2  0
 23 24  1  0
 24 25  2  0
 25 26  1  0
 26 27  2  0
 27 28  1  0
 28 29  2  0
 28 30  2  0
 28 31  1  0
 31 32  1  0
 32 33  1  0
 33 34  1  0
 34 35  1  0
 16  2  1  0
 27 22  1  0
 35 31  1  0
 13  8  1  0
  1 36  1  0
  1 37  1  0
  1 38  1  0
  3 39  1  0
  8 40  1  0
  9 41  1  0
  9 42  1  0
 10 43  1  0
 10 44  1  0
 12 45  1  0
 12 46  1  0
 13 47  1  0
 13 48  1  0
 14 49  1  0
 15 50  1  0
 20 51  1  0
 20 52  1  0
 23 53  1  0
 24 54  1  0
 25 55  1  0
 26 56  1  0
 32 57  1  0
 32 58  1  0
 33 59  1  0
 33 60  1  0
 34 61  1  0
 34 62  1  0
 35 63  1  0
 35 64  1  0
M  CHG  2   8   1  17  -1
M  END
>  <UniqueID>  (3) 
3

>  <SMILES>  (3) 
Cc1cc(S(=O)(=O)[NH+]2CCOCC2)ccc1[N-]C(=O)CSc1ccccc1S(=O)(=O)N1CCCC1

>  <Energy>  (3) 
77.47593051038531

>  <Genealogy>  (3) 
Cc1cc(S(=O)(=O)[NH+]2CCOCC2)ccc1[N-]C(=O)CSc1ccccc1S(=O)(=O)N1CCCC1 (protonated)
Cc1cc(S(=O)(=O)[NH+]2CCOCC2)ccc1[N-]C(=O)CSc1ccccc1S(=O)(=O)N1CCCC1 (3D coordinates assigned)
Cc1cc(S(=O)(=O)[NH+]2CCOCC2)ccc1[N-]C(=O)CSc1ccccc1S(=O)(=O)N1CCCC1 (nonaromatic ring conformer: 77.47593051038531 kcal/mol)

>  <smiles>  (3) 
Cc1cc(S(=O)(=O)N2CCOCC2)ccc1NC(=O)CSc1ccccc1S(=O)(=O)N1CCCC1

>  <score_type>  (3) 
oracle

>  <origin>  (3) 
adgpu

>  <m_score__min__energy>  (3) 
-12.9

>  <m_primary>  (3) 
energy

$$$$
3:0
     RDKit          3D

 51 54  0  0  0  0  0  0  0  0999 V2000
   -5.0250   24.1250  -29.1480 O   0  0  0  0  0  0  0  0  0  0  0  0
   -3.9500   24.2100  -30.1950 S   0  0  0  0  0  0  0  0  0  0  0  0
   -3.9030   25.6140  -30.7280 O   0  0  0  0  0  0  0  0  0  0  0  0
   -4.3070   23.1380  -31.5100 N   0  0  0  0  0  0  0  0  0  0  0  0
   -5.5920   22.5390  -31.6830 C   0  0  0  0  0  0  0  0  0  0  0  0
   -5.6640   21.1950  -32.0610 C   0  0  0  0  0  0  0  0  0  0  0  0
   -6.9020   20.5510  -32.1830 C   0  0  0  0  0  0  0  0  0  0  0  0
   -8.0900   21.2810  -31.9780 C   0  0  0  0  0  0  0  0  0  0  0  0
   -8.0170   22.6350  -31.6190 C   0  0  0  0  0  0  0  0  0  0  0  0
   -6.7800   23.2750  -31.4900 C   0  0  0  0  0  0  0  0  0  0  0  0
   -6.7590   24.6380  -31.1960 O   0  0  0  0  0  0  0  0  0  0  0  0
   -9.4370   20.6010  -32.0520 C   0  0  0  0  0  0  0  0  0  0  0  0
   -9.3940   19.3590  -32.8380 N   0  0  0  0  0  0  0  0  0  0  0  0
   -8.3210   18.4780  -32.3610 C   0  0  0  0  0  0  0  0  0  0  0  0
   -6.9450   19.1070  -32.6110 C   0  0  0  0  0  0  0  0  0  0  0  0
   -2.4090   23.7390  -29.4730 C   0  0  0  0  0  0  0  0  0  0  0  0
   -2.0860   22.3760  -29.4170 C   0  0  0  0  0  0  0  0  0  0  0  0
   -0.8680   21.9510  -28.8700 C   0  0  0  0  0  0  0  0  0  0  0  0
   -0.4710   20.2290  -28.8180 S   0  0  0  0  0  0  0  0  0  0  0  0
    0.8090   20.0460  -28.0510 O   0  0  0  0  0  0  0  0  0  0  0  0
   -0.2480   19.7350  -30.2200 O   0  0  0  0  0  0  0  0  0  0  0  0
   -1.7230   19.2680  -28.0680 N   0  0  0  0  0  0  0  0  0  0  0  0
   -2.8380   20.0870  -27.5970 C   0  0  0  0  0  0  0  0  0  0  0  0
   -3.4940   19.3100  -26.4660 C   0  0  0  0  0  0  0  0  0  0  0  0
   -2.4530   18.2940  -26.0160 C   0  0  0  0  0  0  0  0  0  0  0  0
   -1.2370   18.5560  -26.8890 C   0  0  0  0  0  0  0  0  0  0  0  0
    0.0210   22.8990  -28.3470 C   0  0  0  0  0  0  0  0  0  0  0  0
   -0.3010   24.2580  -28.3830 C   0  0  0  0  0  0  0  0  0  0  0  0
   -1.5110   24.6840  -28.9410 C   0  0  0  0  0  0  0  0  0  0  0  0
   -1.8050   26.0420  -28.9540 O   0  0  0  0  0  0  0  0  0  0  0  0
   -4.7382   20.6370  -32.2649 H   0  0  0  0  0  0  0  0  0  0  0  0
   -8.9431   23.1999  -31.4368 H   0  0  0  0  0  0  0  0  0  0  0  0
   -5.9360   25.1050  -30.8400 H   0  0  0  0  0  0  0  0  0  0  0  0
   -9.7688   20.3618  -31.0309 H   0  0  0  0  0  0  0  0  0  0  0  0
  -10.1344   21.2902  -32.5506 H   0  0  0  0  0  0  0  0  0  0  0  0
   -9.2200   19.5990  -33.8430 H   0  0  0  0  0  0  0  0  0  0  0  0
   -8.4482   18.3072  -31.2818 H   0  0  0  0  0  0  0  0  0  0  0  0
   -8.3774   17.5264  -32.9098 H   0  0  0  0  0  0  0  0  0  0  0  0
   -6.1886   18.5451  -32.0435 H   0  0  0  0  0  0  0  0  0  0  0  0
   -6.7418   19.0651  -33.6913 H   0  0  0  0  0  0  0  0  0  0  0  0
   -2.7964   21.6321  -29.8067 H   0  0  0  0  0  0  0  0  0  0  0  0
   -2.4695   21.0560  -27.2291 H   0  0  0  0  0  0  0  0  0  0  0  0
   -3.5530   20.2912  -28.4076 H   0  0  0  0  0  0  0  0  0  0  0  0
   -3.7567   19.9844  -25.6376 H   0  0  0  0  0  0  0  0  0  0  0  0
   -4.4261   18.8242  -26.7904 H   0  0  0  0  0  0  0  0  0  0  0  0
   -2.2046   18.4406  -24.9545 H   0  0  0  0  0  0  0  0  0  0  0  0
   -2.8166   17.2607  -26.1169 H   0  0  0  0  0  0  0  0  0  0  0  0
   -0.5049   19.1726  -26.3469 H   0  0  0  0  0  0  0  0  0  0  0  0
   -0.7359   17.6173  -27.1678 H   0  0  0  0  0  0  0  0  0  0  0  0
    0.9748   22.5726  -27.9069 H   0  0  0  0  0  0  0  0  0  0  0  0
    0.4011   24.9974  -27.9701 H   0  0  0  0  0  0  0  0  0  0  0  0
  1  2  2  0
  2  3  2  0
  2  4  1  0
  4  5  1  0
  5  6  2  0
  6  7  1  0
  7  8  2  0
  8  9  1  0
  9 10  2  0
 10 11  1  0
  8 12  1  0
 12 13  1  0
 13 14  1  0
 14 15  1  0
  2 16  1  0
 16 17  2  0
 17 18  1  0
 18 19  1  0
 19 20  2  0
 19 21  2  0
 19 22  1  0
 22 23  1  0
 23 24  1  0
 24 25  1  0
 25 26  1  0
 18 27  2  0
 27 28  1  0
 28 29  2  0
 29 30  1  0
 10  5  1  0
 29 16  1  0
 15  7  1  0
 26 22  1  0
  6 31  1  0
  9 32  1  0
 11 33  1  0
 12 34  1  0
 12 35  1  0
 13 36  1  0
 14 37  1  0
 14 38  1  0
 15 39  1  0
 15 40  1  0
 17 41  1  0
 23 42  1  0
 23 43  1  0
 24 44  1  0
 24 45  1  0
 25 46  1  0
 25 47  1  0
 26 48  1  0
 26 49  1  0
 27 50  1  0
 28 51  1  0
M  CHG  2   4  -1  30  -1
M  END
>  <UniqueID>  (4) 
4

>  <SMILES>  (4) 
O=S(=O)([N-]c1cc2c(cc1O)CNCC2)c1cc(S(=O)(=O)N2CCCC2)ccc1[O-]

>  <Energy>  (4) 
66.00880871965182

>  <Genealogy>  (4) 
O=S(=O)([N-]c1cc2c(cc1O)CNCC2)c1cc(S(=O)(=O)N2CCCC2)ccc1[O-] (protonated)
O=S(=O)([N-]c1cc2c(cc1O)CNCC2)c1cc(S(=O)(=O)N2CCCC2)ccc1[O-] (3D coordinates assigned)
O=S(=O)([N-]c1cc2c(cc1O)CNCC2)c1cc(S(=O)(=O)N2CCCC2)ccc1[O-] (nonaromatic ring conformer: 66.00880871965182 kcal/mol)

>  <smiles>  (4) 
O=S(=O)(Nc1cc2c(cc1O)CNCC2)c1cc(S(=O)(=O)N2CCCC2)ccc1O

>  <score_type>  (4) 
oracle

>  <origin>  (4) 
adgpu

>  <m_score__min__energy>  (4) 
-14.199999999999999

>  <m_primary>  (4) 
energy

$$$$
4:0
     RDKit          3D

 46 49  0  0  0  0  0  0  0  0999 V2000
   -3.7870   25.4070  -30.5340 O   0  0  0  0  0  0  0  0  0  0  0  0
   -3.6250   24.0300  -30.4030 C   0  0  0  0  0  0  0  0  0  0  0  0
   -4.7000   23.1590  -30.6290 C   0  0  0  0  0  0  0  0  0  0  0  0
   -4.5240   21.7790  -30.4940 C   0  0  0  0  0  0  0  0  0  0  0  0
   -3.2760   21.2630  -30.1340 C   0  0  0  0  0  0  0  0  0  0  0  0
   -2.1920   22.1270  -29.9050 C   0  0  0  0  0  0  0  0  0  0  0  0
   -0.8470   21.5750  -29.5040 C   0  0  0  0  0  0  0  0  0  0  0  0
   -0.5480   20.2150  -30.1660 C   0  0  0  0  0  0  0  0  0  0  0  0
    0.7780   20.1600  -30.8140 N   0  0  0  0  0  0  0  0  0  0  0  0
    0.7140   20.0230  -32.2770 C   0  0  0  0  0  0  0  0  0  0  0  0
   -0.6970   20.0220  -32.7820 C   0  0  0  0  0  0  0  0  0  0  0  0
   -1.3810   21.1180  -33.2960 C   0  0  0  0  0  0  0  0  0  0  0  0
   -2.6400   20.8480  -33.7310 N   0  0  0  0  0  0  0  0  0  0  0  0
   -2.9600   19.5460  -33.5580 C   0  0  0  0  0  0  0  0  0  0  0  0
   -4.1770   18.9730  -33.9440 O   0  0  0  0  0  0  0  0  0  0  0  0
   -5.4360   19.3460  -33.4520 C   0  0  0  0  0  0  0  0  0  0  0  0
   -6.3850   18.3420  -33.2200 C   0  0  0  0  0  0  0  0  0  0  0  0
   -7.6530   18.6590  -32.7240 C   0  0  0  0  0  0  0  0  0  0  0  0
   -7.9810   19.9910  -32.4410 C   0  0  0  0  0  0  0  0  0  0  0  0
   -9.2420   20.3410  -31.9420 C   0  0  0  0  0  0  0  0  0  0  0  0
   -9.5310   21.6780  -31.6600 C   0  0  0  0  0  0  0  0  0  0  0  0
   -8.5550   22.6530  -31.8800 C   0  0  0  0  0  0  0  0  0  0  0  0
   -7.3340   22.3020  -32.3660 N   0  0  0  0  0  0  0  0  0  0  0  0
   -7.0240   21.0080  -32.6520 C   0  0  0  0  0  0  0  0  0  0  0  0
   -5.7570   20.6830  -33.1500 C   0  0  0  0  0  0  0  0  0  0  0  0
   -1.6970   18.6700  -32.8770 S   0  0  0  0  0  0  0  0  0  0  0  0
   -2.3750   23.5130  -30.0420 C   0  0  0  0  0  0  0  0  0  0  0  0
   -3.4870   26.0470  -29.8080 H   0  0  0  0  0  0  0  0  0  0  0  0
   -5.6833   23.5622  -30.9129 H   0  0  0  0  0  0  0  0  0  0  0  0
   -5.3693   21.0978  -30.6714 H   0  0  0  0  0  0  0  0  0  0  0  0
   -3.1419   20.1762  -30.0295 H   0  0  0  0  0  0  0  0  0  0  0  0
   -0.0679   22.2919  -29.8024 H   0  0  0  0  0  0  0  0  0  0  0  0
   -0.8587   21.4221  -28.4147 H   0  0  0  0  0  0  0  0  0  0  0  0
   -0.5917   19.4334  -29.3933 H   0  0  0  0  0  0  0  0  0  0  0  0
   -1.3017   20.0627  -30.9526 H   0  0  0  0  0  0  0  0  0  0  0  0
    1.3880   19.4140  -30.4070 H   0  0  0  0  0  0  0  0  0  0  0  0
    1.2544   20.8640  -32.7360 H   0  0  0  0  0  0  0  0  0  0  0  0
    1.1712   19.0597  -32.5473 H   0  0  0  0  0  0  0  0  0  0  0  0
   -0.9383   22.1237  -33.3466 H   0  0  0  0  0  0  0  0  0  0  0  0
   -6.1297   17.2929  -33.4304 H   0  0  0  0  0  0  0  0  0  0  0  0
   -8.3929   17.8626  -32.5560 H   0  0  0  0  0  0  0  0  0  0  0  0
  -10.0028   19.5648  -31.7726 H   0  0  0  0  0  0  0  0  0  0  0  0
  -10.5190   21.9610  -31.2679 H   0  0  0  0  0  0  0  0  0  0  0  0
   -8.7746   23.7081  -31.6595 H   0  0  0  0  0  0  0  0  0  0  0  0
   -5.0096   21.4749  -33.3059 H   0  0  0  0  0  0  0  0  0  0  0  0
   -1.5313   24.1961  -29.8646 H   0  0  0  0  0  0  0  0  0  0  0  0
  1  2  1  0
  2  3  2  0
  3  4  1  0
  4  5  2  0
  5  6  1  0
  6  7  1  0
  7  8  1  0
  8  9  1  0
  9 10  1  0
 10 11  1  0
 11 12  2  0
 12 13  1  0
 13 14  2  0
 14 15  1  0
 15 16  1  0
 16 17  2  0
 17 18  1  0
 18 19  2  0
 19 20  1  0
 20 21  2  0
 21 22  1  0
 22 23  2  0
 23 24  1  0
 24 25  2  0
 14 26  1  0
  6 27  2  0
 27  2  1  0
 26 11  1  0
 25 16  1  0
 24 19  1  0
  1 28  1  0
  3 29  1  0
  4 30  1  0
  5 31  1  0
  7 32  1  0
  7 33  1  0
  8 34  1  0
  8 35  1  0
  9 36  1  0
 10 37  1  0
 10 38  1  0
 12 39  1  0
 17 40  1  0
 18 41  1  0
 20 42  1  0
 21 43  1  0
 22 44  1  0
 25 45  1  0
 27 46  1  0
M  END
>  <UniqueID>  (5) 
5

>  <SMILES>  (5) 
Oc1cccc(CCNCc2cnc(Oc3ccc4cccnc4c3)s2)c1

>  <Energy>  (5) 
86.8704221731996

>  <Genealogy>  (5) 
Oc1cccc(CCNCc2cnc(Oc3ccc4cccnc4c3)s2)c1 (3D coordinates assigned)
Oc1cccc(CCNCc2cnc(Oc3ccc4cccnc4c3)s2)c1 (optimized conformer: 86.8704221731996 kcal/mol)

>  <smiles>  (5) 
Oc1cccc(CCNCc2cnc(Oc3ccc4cccnc4c3)s2)c1

>  <score_type>  (5) 
oracle

>  <origin>  (5) 
adgpu

>  <m_score__min__energy>  (5) 
-9.4299999999999997

>  <m_primary>  (5) 
energy

$$$$
5:0
     RDKit          3D

 44 46  0  0  0  0  0  0  0  0999 V2000
   -4.1740   18.5810  -34.1320 C   0  0  0  0  0  0  0  0  0  0  0  0
   -5.3860   18.7100  -33.2560 C   0  0  0  0  0  0  0  0  0  0  0  0
   -5.7360   17.6850  -32.3670 C   0  0  0  0  0  0  0  0  0  0  0  0
   -6.8820   17.8010  -31.5790 C   0  0  0  0  0  0  0  0  0  0  0  0
   -7.7050   18.9270  -31.6830 C   0  0  0  0  0  0  0  0  0  0  0  0
   -8.8470   19.0000  -30.8840 O   0  0  0  0  0  0  0  0  0  0  0  0
   -7.3780   19.9550  -32.5900 C   0  0  0  0  0  0  0  0  0  0  0  0
   -8.2480   21.0920  -32.7040 N   0  0  0  0  0  0  0  0  0  0  0  0
   -8.5220   22.2740  -31.4660 S   0  0  0  0  0  0  0  0  0  0  0  0
   -9.5580   23.2550  -31.9370 O   0  0  0  0  0  0  0  0  0  0  0  0
   -9.0320   21.5890  -30.2270 O   0  0  0  0  0  0  0  0  0  0  0  0
   -7.0250   23.1420  -31.1370 C   0  0  0  0  0  0  0  0  0  0  0  0
   -7.0740   24.5030  -30.8120 C   0  0  0  0  0  0  0  0  0  0  0  0
   -5.8920   25.2150  -30.5910 C   0  0  0  0  0  0  0  0  0  0  0  0
   -4.6530   24.5750  -30.7040 C   0  0  0  0  0  0  0  0  0  0  0  0
   -3.4890   25.2960  -30.4640 O   0  0  0  0  0  0  0  0  0  0  0  0
   -4.5940   23.2120  -31.0430 C   0  0  0  0  0  0  0  0  0  0  0  0
   -3.3260   22.5530  -31.2040 N   0  0  0  0  0  0  0  0  0  0  0  0
   -2.2770   22.7890  -30.2050 C   0  0  0  0  0  0  0  0  0  0  0  0
   -0.9810   22.0780  -30.6010 C   0  0  0  0  0  0  0  0  0  0  0  0
   -1.2720   20.7220  -31.0790 N   0  0  0  0  0  0  0  0  0  0  0  0
   -2.0740   20.7170  -32.3190 C   0  0  0  0  0  0  0  0  0  0  0  0
   -2.9770   21.9580  -32.4970 C   0  0  0  0  0  0  0  0  0  0  0  0
   -5.7850   22.4980  -31.2450 C   0  0  0  0  0  0  0  0  0  0  0  0
   -6.2100   19.8390  -33.3670 C   0  0  0  0  0  0  0  0  0  0  0  0
   -3.2761   18.4854  -33.5038 H   0  0  0  0  0  0  0  0  0  0  0  0
   -4.2739   17.6884  -34.7671 H   0  0  0  0  0  0  0  0  0  0  0  0
   -4.0838   19.4746  -34.7671 H   0  0  0  0  0  0  0  0  0  0  0  0
   -5.1059   16.7866  -32.2900 H   0  0  0  0  0  0  0  0  0  0  0  0
   -7.1401   17.0003  -30.8703 H   0  0  0  0  0  0  0  0  0  0  0  0
   -9.3920   19.8470  -30.7900 H   0  0  0  0  0  0  0  0  0  0  0  0
   -8.0452   25.0130  -30.7304 H   0  0  0  0  0  0  0  0  0  0  0  0
   -5.9359   26.2820  -30.3274 H   0  0  0  0  0  0  0  0  0  0  0  0
   -2.0871   23.8699  -30.1297 H   0  0  0  0  0  0  0  0  0  0  0  0
   -2.6158   22.3919  -29.2368 H   0  0  0  0  0  0  0  0  0  0  0  0
   -0.4847   22.6465  -31.4013 H   0  0  0  0  0  0  0  0  0  0  0  0
   -0.3234   22.0148  -29.7215 H   0  0  0  0  0  0  0  0  0  0  0  0
   -1.8000   20.2120  -30.3320 H   0  0  0  0  0  0  0  0  0  0  0  0
   -1.3848   20.6668  -33.1749 H   0  0  0  0  0  0  0  0  0  0  0  0
   -2.7435   19.8464  -32.2577 H   0  0  0  0  0  0  0  0  0  0  0  0
   -2.4436   22.7052  -33.1029 H   0  0  0  0  0  0  0  0  0  0  0  0
   -3.9054   21.6429  -32.9959 H   0  0  0  0  0  0  0  0  0  0  0  0
   -5.7451   21.4263  -31.4896 H   0  0  0  0  0  0  0  0  0  0  0  0
   -5.9409   20.6424  -34.0685 H   0  0  0  0  0  0  0  0  0  0  0  0
  1  2  1  0
  2  3  2  0
  3  4  1  0
  4  5  2  0
  5  6  1  0
  5  7  1  0
  7  8  1  0
  8  9  1  0
  9 10  2  0
  9 11  2  0
  9 12  1  0
 12 13  2  0
 13 14  1  0
 14 15  2  0
 15 16  1  0
 15 17  1  0
 17 18  1  0
 18 19  1  0
 19 20  1  0
 20 21  1  0
 21 22  1  0
 22 23  1  0
 17 24  2  0
  7 25  2  0
 25  2  1  0
 24 12  1  0
 23 18  1  0
  1 26  1  0
  1 27  1  0
  1 28  1  0
  3 29  1  0
  4 30  1  0
  6 31  1  0
 13 32  1  0
 14 33  1  0
 19 34  1  0
 19 35  1  0
 20 36  1  0
 20 37  1  0
 21 38  1  0
 22 39  1  0
 22 40  1  0
 23 41  1  0
 23 42  1  0
 24 43  1  0
 25 44  1  0
M  CHG  2   8  -1  16  -1
M  END
>  <UniqueID>  (6) 
6

>  <SMILES>  (6) 
Cc1ccc(O)c([N-]S(=O)(=O)c2ccc([O-])c(N3CCNCC3)c2)c1

>  <Energy>  (6) 
56.74820894454503

>  <Genealogy>  (6) 
Cc1ccc(O)c([N-]S(=O)(=O)c2ccc([O-])c(N3CCNCC3)c2)c1 (protonated)
Cc1ccc(O)c([N-]S(=O)(=O)c2ccc([O-])c(N3CCNCC3)c2)c1 (3D coordinates assigned)
Cc1ccc(O)c([N-]S(=O)(=O)c2ccc([O-])c(N3CCNCC3)c2)c1 (nonaromatic ring conformer: 56.74820894454503 kcal/mol)

>  <smiles>  (6) 
Cc1ccc(O)c(NS(=O)(=O)c2ccc(O)c(N3CCNCC3)c2)c1

>  <score_type>  (6) 
oracle

>  <origin>  (6) 
adgpu

>  <m_score__min__energy>  (6) 
-10.85

>  <m_primary>  (6) 
energy

$$$$
6:0
     RDKit          3D

 45 48  0  0  0  0  0  0  0  0999 V2000
   -0.2200   17.6850  -27.1320 C   0  0  0  0  0  0  0  0  0  0  0  0
   -0.9340   18.9430  -27.5070 C   0  0  0  0  0  0  0  0  0  0  0  0
   -2.2570   19.1590  -27.0950 C   0  0  0  0  0  0  0  0  0  0  0  0
   -2.8960   20.3550  -27.4290 C   0  0  0  0  0  0  0  0  0  0  0  0
   -2.2110   21.3310  -28.1640 C   0  0  0  0  0  0  0  0  0  0  0  0
   -2.8250   22.5400  -28.5180 C   0  0  0  0  0  0  0  0  0  0  0  0
   -2.1190   23.4980  -29.2690 C   0  0  0  0  0  0  0  0  0  0  0  0
   -2.7110   24.7490  -29.6470 N   0  0  0  0  0  0  0  0  0  0  0  0
   -3.8940   24.9090  -30.4360 C   0  0  0  0  0  0  0  0  0  0  0  0
   -4.4530   26.0370  -30.4730 O   0  0  0  0  0  0  0  0  0  0  0  0
   -4.3680   23.8350  -31.2600 N   0  0  0  0  0  0  0  0  0  0  0  0
   -5.5970   23.1080  -31.1130 C   0  0  0  0  0  0  0  0  0  0  0  0
   -6.5020   23.3950  -30.0790 C   0  0  0  0  0  0  0  0  0  0  0  0
   -7.6840   22.6700  -29.9600 C   0  0  0  0  0  0  0  0  0  0  0  0
   -7.9680   21.6290  -30.8440 C   0  0  0  0  0  0  0  0  0  0  0  0
   -9.1710   20.9460  -30.6970 O   0  0  0  0  0  0  0  0  0  0  0  0
   -7.0510   21.2840  -31.8590 C   0  0  0  0  0  0  0  0  0  0  0  0
   -7.3880   19.9140  -32.9390 S   0  0  0  0  0  0  0  0  0  0  0  0
   -6.5130   19.9690  -34.1610 O   0  0  0  0  0  0  0  0  0  0  0  0
   -8.8180   19.9740  -33.4000 O   0  0  0  0  0  0  0  0  0  0  0  0
   -7.1120   18.3890  -32.0370 C   0  0  0  0  0  0  0  0  0  0  0  0
   -6.8100   17.1700  -32.8920 C   0  0  0  0  0  0  0  0  0  0  0  0
   -5.6910   17.8570  -32.1230 C   0  0  0  0  0  0  0  0  0  0  0  0
   -5.8660   22.0530  -32.0010 C   0  0  0  0  0  0  0  0  0  0  0  0
   -4.9380   21.8110  -33.0190 O   0  0  0  0  0  0  0  0  0  0  0  0
   -0.7820   23.2550  -29.6130 C   0  0  0  0  0  0  0  0  0  0  0  0
   -0.1650   22.0510  -29.2610 C   0  0  0  0  0  0  0  0  0  0  0  0
   -0.8750   21.0830  -28.5440 C   0  0  0  0  0  0  0  0  0  0  0  0
   -0.2770   19.9100  -28.2050 N   0  0  0  0  0  0  0  0  0  0  0  0
   -0.1733   17.6027  -26.0361 H   0  0  0  0  0  0  0  0  0  0  0  0
   -0.7617   16.8198  -27.5419 H   0  0  0  0  0  0  0  0  0  0  0  0
    0.8005   17.7065  -27.5419 H   0  0  0  0  0  0  0  0  0  0  0  0
   -2.7879   18.3915  -26.5126 H   0  0  0  0  0  0  0  0  0  0  0  0
   -3.9357   20.5303  -27.1154 H   0  0  0  0  0  0  0  0  0  0  0  0
   -3.8612   22.7406  -28.2081 H   0  0  0  0  0  0  0  0  0  0  0  0
   -6.2760   24.1962  -29.3599 H   0  0  0  0  0  0  0  0  0  0  0  0
   -8.3997   22.9198  -29.1628 H   0  0  0  0  0  0  0  0  0  0  0  0
   -7.8210   18.6075  -31.2249 H   0  0  0  0  0  0  0  0  0  0  0  0
   -7.1638   16.1768  -32.5784 H   0  0  0  0  0  0  0  0  0  0  0  0
   -6.9772   16.8971  -33.9444 H   0  0  0  0  0  0  0  0  0  0  0  0
   -5.2358   17.3606  -31.2533 H   0  0  0  0  0  0  0  0  0  0  0  0
   -4.7139   18.2867  -32.3888 H   0  0  0  0  0  0  0  0  0  0  0  0
   -5.1860   21.6550  -33.9850 H   0  0  0  0  0  0  0  0  0  0  0  0
   -0.2135   24.0182  -30.1646 H   0  0  0  0  0  0  0  0  0  0  0  0
    0.8803   21.8649  -29.5484 H   0  0  0  0  0  0  0  0  0  0  0  0
  1  2  1  0
  2  3  2  0
  3  4  1  0
  4  5  2  0
  5  6  1  0
  6  7  2  0
  7  8  1  0
  8  9  1  0
  9 10  2  0
  9 11  1  0
 11 12  1  0
 12 13  2  0
 13 14  1  0
 14 15  2  0
 15 16  1  0
 15 17  1  0
 17 18  1  0
 18 19  2  0
 18 20  2  0
 18 21  1  0
 21 22  1  0
 22 23  1  0
 17 24  2  0
 24 25  1  0
  7 26  1  0
 26 27  2  0
 27 28  1  0
 28 29  2  0
 29  2  1  0
 28  5  1  0
 24 12  1  0
 23 21  1  0
  1 30  1  0
  1 31  1  0
  1 32  1  0
  3 33  1  0
  4 34  1  0
  6 35  1  0
 13 36  1  0
 14 37  1  0
 21 38  1  0
 22 39  1  0
 22 40  1  0
 23 41  1  0
 23 42  1  0
 25 43  1  0
 26 44  1  0
 27 45  1  0
M  CHG  3   8  -1  11  -1  16  -1
M  END
>  <UniqueID>  (7) 
7

>  <SMILES>  (7) 
Cc1ccc2cc([N-]C(=O)[N-]c3ccc([O-])c(S(=O)(=O)C4CC4)c3O)ccc2n1

>  <Energy>  (7) 
324.10808644259146

>  <Genealogy>  (7) 
Cc1ccc2cc([N-]C(=O)[N-]c3ccc([O-])c(S(=O)(=O)C4CC4)c3O)ccc2n1 (protonated)
Cc1ccc2cc([N-]C(=O)[N-]c3ccc([O-])c(S(=O)(=O)C4CC4)c3O)ccc2n1 (3D coordinates assigned)
Cc1ccc2cc([N-]C(=O)[N-]c3ccc([O-])c(S(=O)(=O)C4CC4)c3O)ccc2n1 (nonaromatic ring conformer: 324.10808644259146 kcal/mol)

>  <smiles>  (7) 
Cc1ccc2cc(NC(=O)Nc3ccc(O)c(S(=O)(=O)C4CC4)c3O)ccc2n1

>  <score_type>  (7) 
oracle

>  <origin>  (7) 
adgpu

>  <m_score__min__energy>  (7) 
-13.300000000000001

>  <m_primary>  (7) 
energy

$$$$
7:0
     RDKit          3D

 37 39  0  0  0  0  0  0  0  0999 V2000
   -2.7140   20.0550  -27.1760 C   0  0  0  0  0  0  0  0  0  0  0  0
   -2.6340   21.4210  -27.7890 C   0  0  0  0  0  0  0  0  0  0  0  0
   -1.3900   21.9810  -28.1100 C   0  0  0  0  0  0  0  0  0  0  0  0
   -1.3160   23.2680  -28.6480 C   0  0  0  0  0  0  0  0  0  0  0  0
   -2.4790   24.0150  -28.8520 C   0  0  0  0  0  0  0  0  0  0  0  0
   -2.3760   25.2960  -29.3830 O   0  0  0  0  0  0  0  0  0  0  0  0
   -3.7360   23.4800  -28.5110 C   0  0  0  0  0  0  0  0  0  0  0  0
   -4.9260   24.2670  -28.7060 N   0  0  0  0  0  0  0  0  0  0  0  0
   -5.6190   24.5810  -30.2660 S   0  0  0  0  0  0  0  0  0  0  0  0
   -6.8030   25.4940  -30.1120 O   0  0  0  0  0  0  0  0  0  0  0  0
   -4.5940   25.2540  -31.1350 O   0  0  0  0  0  0  0  0  0  0  0  0
   -6.1620   23.0700  -30.9900 C   0  0  0  0  0  0  0  0  0  0  0  0
   -5.2130   22.1670  -31.5100 C   0  0  0  0  0  0  0  0  0  0  0  0
   -5.6320   20.9760  -32.1220 C   0  0  0  0  0  0  0  0  0  0  0  0
   -6.9990   20.7060  -32.2030 C   0  0  0  0  0  0  0  0  0  0  0  0
   -7.9250   21.5800  -31.6950 C   0  0  0  0  0  0  0  0  0  0  0  0
   -7.5340   22.7720  -31.0810 C   0  0  0  0  0  0  0  0  0  0  0  0
   -9.3120   21.1030  -31.8960 C   0  0  0  0  0  0  0  0  0  0  0  0
   -9.1420   19.7550  -32.6230 C   0  0  0  0  0  0  0  0  0  0  0  0
   -7.6320   19.5160  -32.8150 C   0  0  0  0  0  0  0  0  0  0  0  0
   -3.8010   22.1750  -27.9840 C   0  0  0  0  0  0  0  0  0  0  0  0
   -2.7088   20.1442  -26.0796 H   0  0  0  0  0  0  0  0  0  0  0  0
   -3.6426   19.5618  -27.4993 H   0  0  0  0  0  0  0  0  0  0  0  0
   -1.8493   19.4568  -27.4993 H   0  0  0  0  0  0  0  0  0  0  0  0
   -0.4688   21.4051  -27.9377 H   0  0  0  0  0  0  0  0  0  0  0  0
   -0.3375   23.6954  -28.9123 H   0  0  0  0  0  0  0  0  0  0  0  0
   -5.4810   24.5760  -27.8770 H   0  0  0  0  0  0  0  0  0  0  0  0
   -4.1398   22.3968  -31.4358 H   0  0  0  0  0  0  0  0  0  0  0  0
   -4.8963   20.2677  -32.5307 H   0  0  0  0  0  0  0  0  0  0  0  0
   -8.2855   23.4656  -30.6757 H   0  0  0  0  0  0  0  0  0  0  0  0
   -9.8216   20.9651  -30.9310 H   0  0  0  0  0  0  0  0  0  0  0  0
   -9.9262   21.8161  -32.4654 H   0  0  0  0  0  0  0  0  0  0  0  0
   -9.5759   18.9453  -32.0180 H   0  0  0  0  0  0  0  0  0  0  0  0
   -9.6568   19.7728  -33.5949 H   0  0  0  0  0  0  0  0  0  0  0  0
   -7.3135   18.5966  -32.3019 H   0  0  0  0  0  0  0  0  0  0  0  0
   -7.3554   19.3864  -33.8717 H   0  0  0  0  0  0  0  0  0  0  0  0
   -4.7779   21.7423  -27.7224 H   0  0  0  0  0  0  0  0  0  0  0  0
  1  2  1  0
  2  3  2  0
  3  4  1  0
  4  5  2  0
  5  6  1  0
  5  7  1  0
  7  8  1  0
  8  9  1  0
  9 10  2  0
  9 11  2  0
  9 12  1  0
 12 13  2  0
 13 14  1  0
 14 15  2  0
 15 16  1  0
 16 17  2  0
 16 18  1  0
 18 19  1  0
 19 20  1  0
  7 21  2  0
 21  2  1  0
 17 12  1  0
 20 15  1  0
  1 22  1  0
  1 23  1  0
  1 24  1  0
  3 25  1  0
  4 26  1  0
  8 27  1  0
 13 28  1  0
 14 29  1  0
 17 30  1  0
 18 31  1  0
 18 32  1  0
 19 33  1  0
 19 34  1  0
 20 35  1  0
 20 36  1  0
 21 37  1  0
M  CHG  1   6  -1
M  END
>  <UniqueID>  (8) 
8

>  <SMILES>  (8) 
Cc1ccc([O-])c(NS(=O)(=O)c2ccc3c(c2)CCC3)c1

>  <Energy>  (8) 
47.98410022914084

>  <Genealogy>  (8) 
Cc1ccc([O-])c(NS(=O)(=O)c2ccc3c(c2)CCC3)c1 (protonated)
Cc1ccc([O-])c(NS(=O)(=O)c2ccc3c(c2)CCC3)c1 (3D coordinates assigned)
Cc1ccc([O-])c(NS(=O)(=O)c2ccc3c(c2)CCC3)c1 (nonaromatic ring conformer: 47.98410022914084 kcal/mol)

>  <smiles>  (8) 
Cc1ccc(O)c(NS(=O)(=O)c2ccc3c(c2)CCC3)c1

>  <score_type>  (8) 
oracle

>  <origin>  (8) 
adgpu

>  <m_score__min__energy>  (8) 
-12.890000000000001

>  <m_primary>  (8) 
energy

$$$$
8:0
     RDKit          3D

 53 56  0  0  0  0  0  0  0  0999 V2000
   -1.8890   24.8490  -28.2830 C   0  0  0  0  0  0  0  0  0  0  0  0
   -2.7360   25.2990  -29.3360 O   0  0  0  0  0  0  0  0  0  0  0  0
   -3.8190   24.5700  -29.8500 C   0  0  0  0  0  0  0  0  0  0  0  0
   -4.6620   25.1930  -30.7810 C   0  0  0  0  0  0  0  0  0  0  0  0
   -5.7510   24.5050  -31.3230 C   0  0  0  0  0  0  0  0  0  0  0  0
   -5.9980   23.1710  -30.9660 C   0  0  0  0  0  0  0  0  0  0  0  0
   -7.1570   22.4320  -31.5790 C   0  0  0  0  0  0  0  0  0  0  0  0
   -6.7340   21.1330  -32.1200 N   0  0  0  0  0  0  0  0  0  0  0  0
   -7.4480   19.9890  -32.2110 C   0  0  0  0  0  0  0  0  0  0  0  0
   -8.8060   19.7650  -31.6250 C   0  0  0  0  0  0  0  0  0  0  0  0
   -6.7850   19.0450  -32.9080 N   0  0  0  0  0  0  0  0  0  0  0  0
   -5.6330   19.5800  -33.2840 N   0  0  0  0  0  0  0  0  0  0  0  0
   -5.6040   20.8360  -32.7980 C   0  0  0  0  0  0  0  0  0  0  0  0
   -4.2300   21.9640  -33.0760 S   0  0  0  0  0  0  0  0  0  0  0  0
   -2.9140   20.7400  -32.7160 C   0  0  0  0  0  0  0  0  0  0  0  0
   -2.0440   21.1760  -31.5730 C   0  0  0  0  0  0  0  0  0  0  0  0
   -1.9630   22.4090  -31.3150 O   0  0  0  0  0  0  0  0  0  0  0  0
   -1.2810   20.2240  -30.7950 N   0  0  0  0  0  0  0  0  0  0  0  0
   -0.2160   19.4380  -31.4360 C   0  0  0  0  0  0  0  0  0  0  0  0
    1.0390   19.4370  -30.5660 C   0  0  0  0  0  0  0  0  0  0  0  0
    0.7430   18.8770  -29.1750 C   0  0  0  0  0  0  0  0  0  0  0  0
   -0.5070   19.4630  -28.5660 C   0  0  0  0  0  0  0  0  0  0  0  0
   -0.7190   19.3200  -27.1850 C   0  0  0  0  0  0  0  0  0  0  0  0
   -1.9150   19.7460  -26.6020 C   0  0  0  0  0  0  0  0  0  0  0  0
   -2.9230   20.2870  -27.3980 C   0  0  0  0  0  0  0  0  0  0  0  0
   -2.7330   20.4240  -28.7750 C   0  0  0  0  0  0  0  0  0  0  0  0
   -1.5130   20.0450  -29.3750 C   0  0  0  0  0  0  0  0  0  0  0  0
   -5.1660   22.5480  -30.0210 C   0  0  0  0  0  0  0  0  0  0  0  0
   -4.0870   23.2420  -29.4620 C   0  0  0  0  0  0  0  0  0  0  0  0
   -2.3480   25.0929  -27.3136 H   0  0  0  0  0  0  0  0  0  0  0  0
   -1.7538   23.7601  -28.3611 H   0  0  0  0  0  0  0  0  0  0  0  0
   -0.9110   25.3464  -28.3611 H   0  0  0  0  0  0  0  0  0  0  0  0
   -4.4648   26.2310  -31.0871 H   0  0  0  0  0  0  0  0  0  0  0  0
   -6.4189   25.0129  -32.0343 H   0  0  0  0  0  0  0  0  0  0  0  0
   -7.9247   22.2668  -30.8087 H   0  0  0  0  0  0  0  0  0  0  0  0
   -7.5588   23.0383  -32.4042 H   0  0  0  0  0  0  0  0  0  0  0  0
   -8.7380   19.7762  -30.5272 H   0  0  0  0  0  0  0  0  0  0  0  0
   -9.4855   20.5632  -31.9585 H   0  0  0  0  0  0  0  0  0  0  0  0
   -9.1931   18.7909  -31.9585 H   0  0  0  0  0  0  0  0  0  0  0  0
   -3.3827   19.7784  -32.4599 H   0  0  0  0  0  0  0  0  0  0  0  0
   -2.2810   20.6458  -33.6107 H   0  0  0  0  0  0  0  0  0  0  0  0
   -0.5622   18.4031  -31.5747 H   0  0  0  0  0  0  0  0  0  0  0  0
    0.0244   19.8888  -32.4102 H   0  0  0  0  0  0  0  0  0  0  0  0
    1.8092   18.8161  -31.0469 H   0  0  0  0  0  0  0  0  0  0  0  0
    1.3904   20.4737  -30.4580 H   0  0  0  0  0  0  0  0  0  0  0  0
    0.6187   17.7869  -29.2535 H   0  0  0  0  0  0  0  0  0  0  0  0
    1.5874   19.1438  -28.5225 H   0  0  0  0  0  0  0  0  0  0  0  0
    0.0633   18.8687  -26.5571 H   0  0  0  0  0  0  0  0  0  0  0  0
   -2.0610   19.6545  -25.5156 H   0  0  0  0  0  0  0  0  0  0  0  0
   -3.8708   20.6070  -26.9406 H   0  0  0  0  0  0  0  0  0  0  0  0
   -3.5426   20.8315  -29.3983 H   0  0  0  0  0  0  0  0  0  0  0  0
   -5.3637   21.5090  -29.7188 H   0  0  0  0  0  0  0  0  0  0  0  0
   -3.4455   22.7490  -28.7168 H   0  0  0  0  0  0  0  0  0  0  0  0
  1  2  1  0
  2  3  1  0
  3  4  2  0
  4  5  1  0
  5  6  2  0
  6  7  1  0
  7  8  1  0
  8  9  1  0
  9 10  1  0
  9 11  2  0
 11 12  1  0
 12 13  2  0
 13 14  1  0
 14 15  1  0
 15 16  1  0
 16 17  2  0
 16 18  1  0
 18 19  1  0
 19 20  1  0
 20 21  1  0
 21 22  1  0
 22 23  2  0
 23 24  1  0
 24 25  2  0
 25 26  1  0
 26 27  2  0
  6 28  1  0
 28 29  2  0
 29  3  1  0
 13  8  1  0
 27 18  1  0
 27 22  1  0
  1 30  1  0
  1 31  1  0
  1 32  1  0
  4 33  1  0
  5 34  1  0
  7 35  1  0
  7 36  1  0
 10 37  1  0
 10 38  1  0
 10 39  1  0
 15 40  1  0
 15 41  1  0
 19 42  1  0
 19 43  1  0
 20 44  1  0
 20 45  1  0
 21 46  1  0
 21 47  1  0
 23 48  1  0
 24 49  1  0
 25 50  1  0
 26 51  1  0
 28 52  1  0
 29 53  1  0
M  END
>  <UniqueID>  (9) 
9

>  <SMILES>  (9) 
COc1ccc(Cn2c(C)nnc2SCC(=O)N2CCCc3ccccc32)cc1

>  <Energy>  (9) 
88.97532862080367

>  <Genealogy>  (9) 
COc1ccc(Cn2c(C)nnc2SCC(=O)N2CCCc3ccccc32)cc1 (3D coordinates assigned)
COc1ccc(Cn2c(C)nnc2SCC(=O)N2CCCc3ccccc32)cc1 (nonaromatic ring conformer: 88.97532862080367 kcal/mol)

>  <smiles>  (9) 
COc1ccc(Cn2c(C)nnc2SCC(=O)N2CCCc3ccccc32)cc1

>  <score_type>  (9) 
oracle

>  <origin>  (9) 
adgpu

>  <m_score__min__energy>  (9) 
-9.7899999999999991

>  <m_primary>  (9) 
energy

$$$$
9:0
     RDKit          3D

 72 76  0  0  0  0  0  0  0  0999 V2000
   -0.4400   20.7901  -28.7808 H   0  0  0  0  0  0  0  0  0  0  0  0
   -0.8770   20.6040  -29.7730 C   0  0  0  0  0  0  0  0  0  0  0  0
   -0.7880   19.4530  -30.4660 N   0  0  0  0  0  0  0  0  0  0  0  0
   -1.4450   19.6000  -31.6100 N   0  0  0  0  0  0  0  0  0  0  0  0
   -1.5850   18.5430  -32.5870 C   0  0  0  0  0  0  0  0  0  0  0  0
   -0.4600   17.7850  -32.9630 C   0  0  0  0  0  0  0  0  0  0  0  0
    0.5208   18.0083  -32.5178 H   0  0  0  0  0  0  0  0  0  0  0  0
   -0.5770   16.7520  -33.8960 C   0  0  0  0  0  0  0  0  0  0  0  0
    0.3115   16.1728  -34.1878 H   0  0  0  0  0  0  0  0  0  0  0  0
   -1.8190   16.4530  -34.4590 C   0  0  0  0  0  0  0  0  0  0  0  0
   -1.9075   15.6351  -35.1892 H   0  0  0  0  0  0  0  0  0  0  0  0
   -2.9520   17.1910  -34.0970 C   0  0  0  0  0  0  0  0  0  0  0  0
   -4.5280   16.7940  -34.7900 S   0  0  0  0  0  0  0  0  0  0  0  0
   -4.6270   15.3060  -34.9800 O   0  0  0  0  0  0  0  0  0  0  0  0
   -4.6520   17.4440  -36.1410 O   0  0  0  0  0  0  0  0  0  0  0  0
   -5.8390   17.3340  -33.7650 N   0  0  0  0  0  0  0  0  0  0  0  0
   -5.5730   16.9750  -32.3590 C   0  0  0  0  0  0  0  0  0  0  0  0
   -5.8283   15.9167  -32.2013 H   0  0  0  0  0  0  0  0  0  0  0  0
   -4.5075   17.1448  -32.1446 H   0  0  0  0  0  0  0  0  0  0  0  0
   -6.4150   17.8450  -31.4110 C   0  0  0  0  0  0  0  0  0  0  0  0
   -7.4779   17.6668  -31.6313 H   0  0  0  0  0  0  0  0  0  0  0  0
   -6.1390   17.5557  -30.3862 H   0  0  0  0  0  0  0  0  0  0  0  0
   -6.1630   19.2410  -31.5250 O   0  0  0  0  0  0  0  0  0  0  0  0
   -5.6100   19.6230  -32.7780 C   0  0  0  0  0  0  0  0  0  0  0  0
   -5.8687   20.6751  -32.9680 H   0  0  0  0  0  0  0  0  0  0  0  0
   -4.5226   19.4693  -32.7156 H   0  0  0  0  0  0  0  0  0  0  0  0
   -6.1250   18.7730  -33.9530 C   0  0  0  0  0  0  0  0  0  0  0  0
   -7.2129   18.9101  -34.0401 H   0  0  0  0  0  0  0  0  0  0  0  0
   -5.6070   19.1054  -34.8647 H   0  0  0  0  0  0  0  0  0  0  0  0
   -2.8300   18.2400  -33.1750 C   0  0  0  0  0  0  0  0  0  0  0  0
   -3.7163   18.8338  -32.9071 H   0  0  0  0  0  0  0  0  0  0  0  0
   -1.9710   20.8450  -31.6660 C   0  0  0  0  0  0  0  0  0  0  0  0
   -2.5808   21.2552  -32.4844 H   0  0  0  0  0  0  0  0  0  0  0  0
   -1.6050   21.5090  -30.5110 C   0  0  0  0  0  0  0  0  0  0  0  0
   -1.9840   22.8220  -30.0700 N   0  0  0  0  0  0  0  0  0  0  0  0
   -1.3210   23.6020  -29.2640 C   0  0  0  0  0  0  0  0  0  0  0  0
   -0.1670   23.1840  -28.6750 N   0  0  0  0  0  0  0  0  0  0  0  0
    0.5350   23.9640  -27.8150 C   0  0  0  0  0  0  0  0  0  0  0  0
    1.4664   23.5872  -27.3671 H   0  0  0  0  0  0  0  0  0  0  0  0
    0.0760   25.2470  -27.4970 C   0  0  0  0  0  0  0  0  0  0  0  0
    0.8480   26.1350  -26.5460 C   0  0  0  0  0  0  0  0  0  0  0  0
    1.9235   25.9423  -26.6734 H   0  0  0  0  0  0  0  0  0  0  0  0
    0.6020   27.1811  -26.7808 H   0  0  0  0  0  0  0  0  0  0  0  0
    0.4790   25.8820  -25.1280 N   0  0  0  0  0  0  0  0  0  0  0  0
    1.1520   25.1790  -24.7370 H   0  0  0  0  0  0  0  0  0  0  0  0
    0.6300   27.1030  -24.3080 C   0  0  0  0  0  0  0  0  0  0  0  0
    0.5335   26.8325  -23.2462 H   0  0  0  0  0  0  0  0  0  0  0  0
    1.6194   27.5350  -24.5187 H   0  0  0  0  0  0  0  0  0  0  0  0
   -0.4410   28.1660  -24.6530 C   0  0  0  0  0  0  0  0  0  0  0  0
   -0.8106   28.6061  -23.7151 H   0  0  0  0  0  0  0  0  0  0  0  0
    0.0395   28.9136  -25.3012 H   0  0  0  0  0  0  0  0  0  0  0  0
   -1.5450   27.6390  -25.3680 O   0  0  0  0  0  0  0  0  0  0  0  0
   -1.9620   26.4210  -24.7890 C   0  0  0  0  0  0  0  0  0  0  0  0
   -2.1292   26.5722  -23.7123 H   0  0  0  0  0  0  0  0  0  0  0  0
   -2.8921   26.0978  -25.2794 H   0  0  0  0  0  0  0  0  0  0  0  0
   -0.8930   25.3260  -24.9860 C   0  0  0  0  0  0  0  0  0  0  0  0
   -0.9122   24.6547  -24.1148 H   0  0  0  0  0  0  0  0  0  0  0  0
   -1.1328   24.7914  -25.9170 H   0  0  0  0  0  0  0  0  0  0  0  0
   -1.1140   25.7010  -28.0810 C   0  0  0  0  0  0  0  0  0  0  0  0
   -1.4940   26.7044  -27.8384 H   0  0  0  0  0  0  0  0  0  0  0  0
   -1.8260   24.8810  -28.9760 C   0  0  0  0  0  0  0  0  0  0  0  0
   -3.0250   25.2900  -29.5870 O   0  0  0  0  0  0  0  0  0  0  0  0
   -4.2380   24.5340  -29.6430 C   0  0  0  0  0  0  0  0  0  0  0  0
   -4.1123   23.6810  -30.3261 H   0  0  0  0  0  0  0  0  0  0  0  0
   -5.3570   25.4430  -30.1490 C   0  0  0  0  0  0  0  0  0  0  0  0
   -5.8921   25.8777  -29.2919 H   0  0  0  0  0  0  0  0  0  0  0  0
   -4.9260   26.2500  -30.7597 H   0  0  0  0  0  0  0  0  0  0  0  0
   -6.0585   24.8557  -30.7597 H   0  0  0  0  0  0  0  0  0  0  0  0
   -4.5880   23.9870  -28.2560 C   0  0  0  0  0  0  0  0  0  0  0  0
   -4.1656   24.6472  -27.4842 H   0  0  0  0  0  0  0  0  0  0  0  0
   -5.6814   23.9445  -28.1438 H   0  0  0  0  0  0  0  0  0  0  0  0
   -4.1684   22.9764  -28.1438 H   0  0  0  0  0  0  0  0  0  0  0  0
  1  2  1  0
  2  3  2  0
  3  4  1  0
  4  5  1  0
  5  6  2  0
  6  7  1  0
  6  8  1  0
  8  9  1  0
  8 10  2  0
 10 11  1  0
 10 12  1  0
 12 13  1  0
 13 14  2  0
 13 15  2  0
 13 16  1  0
 16 17  1  0
 17 18  1  0
 17 19  1  0
 17 20  1  0
 20 21  1  0
 20 22  1  0
 20 23  1  0
 23 24  1  0
 24 25  1  0
 24 26  1  0
 24 27  1  0
 27 28  1  0
 27 29  1  0
 12 30  2  0
 30 31  1  0
  4 32  1  0
 32 33  1  0
 32 34  2  0
 34 35  1  0
 35 36  2  0
 36 37  1  0
 37 38  1  0
 38 39  1  0
 38 40  2  0
 40 41  1  0
 41 42  1  0
 41 43  1  0
 41 44  1  0
 44 45  1  0
 44 46  1  0
 46 47  1  0
 46 48  1  0
 46 49  1  0
 49 50  1  0
 49 51  1  0
 49 52  1  0
 52 53  1  0
 53 54  1  0
 53 55  1  0
 53 56  1  0
 56 57  1  0
 56 58  1  0
 40 59  1  0
 59 60  1  0
 59 61  2  0
 61 62  1  0
 62 63  1  0
 63 64  1  0
 63 65  1  0
 65 66  1  0
 65 67  1  0
 65 68  1  0
 63 69  1  0
 69 70  1  0
 69 71  1  0
 69 72  1  0
 34  2  1  0
 61 36  1  0
 30  5  1  0
 56 44  1  0
 27 16  1  0
M  CHG  2  37  -1  44   1
M  END
>  <UniqueID>  (10) 
10

>  <SMILES>  (10) 
CC(C)Oc1cc(C[NH+]2CCOCC2)c[n-]/c1=N\c1cnn(-c2cccc(S(=O)(=O)N3CCOCC3)c2)c1

>  <Energy>  (10) 
134.75174970183

>  <Genealogy>  (10) 
CC(C)Oc1cc(C[NH+]2CCOCC2)c[n-]c1=Nc1cnn(-c2cccc(S(=O)(=O)N3CCOCC3)c2)c1 (protonated)
CC(C)Oc1cc(C[NH+]2CCOCC2)c[n-]/c1=N\c1cnn(-c2cccc(S(=O)(=O)N3CCOCC3)c2)c1 (cis-trans isomerization)
CC(C)Oc1cc(C[NH+]2CCOCC2)c[n-]/c1=N\c1cnn(-c2cccc(S(=O)(=O)N3CCOCC3)c2)c1 (3D coordinates assigned)
CC(C)Oc1cc(C[NH+]2CCOCC2)c[n-]/c1=N\c1cnn(-c2cccc(S(=O)(=O)N3CCOCC3)c2)c1 (nonaromatic ring conformer: 134.75174970183 kcal/mol)

>  <smiles>  (10) 
CC(C)Oc1cc(CN2CCOCC2)c[nH]c1=Nc1cnn(-c2cccc(S(=O)(=O)N3CCOCC3)c2)c1

>  <score_type>  (10) 
oracle

>  <origin>  (10) 
adgpu

>  <m_score__min__energy>  (10) 
-11.220000000000001

>  <m_primary>  (10) 
energy

$$$$
10:0
     RDKit          3D

 54 57  0  0  0  0  0  0  0  0999 V2000
   -0.4700   22.8630  -25.5220 C   0  0  0  0  0  0  0  0  0  0  0  0
   -0.6190   22.4330  -26.9400 C   0  0  0  0  0  0  0  0  0  0  0  0
   -0.3990   21.1620  -27.3570 N   0  0  0  0  0  0  0  0  0  0  0  0
   -0.6670   21.0340  -28.6820 C   0  0  0  0  0  0  0  0  0  0  0  0
   -0.5250   19.8480  -29.4020 C   0  0  0  0  0  0  0  0  0  0  0  0
   -0.8380   19.8480  -30.7710 C   0  0  0  0  0  0  0  0  0  0  0  0
   -1.2920   21.0260  -31.4060 C   0  0  0  0  0  0  0  0  0  0  0  0
   -1.6710   20.9990  -33.1240 S   0  0  0  0  0  0  0  0  0  0  0  0
   -2.8180   21.9250  -33.4240 O   0  0  0  0  0  0  0  0  0  0  0  0
   -0.4680   21.4560  -33.9010 O   0  0  0  0  0  0  0  0  0  0  0  0
   -2.0890   19.3870  -33.6120 N   0  0  0  0  0  0  0  0  0  0  0  0
   -3.4430   18.9750  -33.8550 C   0  0  0  0  0  0  0  0  0  0  0  0
   -4.4920   19.7850  -33.3950 C   0  0  0  0  0  0  0  0  0  0  0  0
   -5.8340   19.4220  -33.6070 C   0  0  0  0  0  0  0  0  0  0  0  0
   -6.9300   20.2750  -33.0890 C   0  0  0  0  0  0  0  0  0  0  0  0
   -8.1150   20.0590  -33.4620 O   0  0  0  0  0  0  0  0  0  0  0  0
   -6.6650   21.3570  -32.1800 N   0  0  0  0  0  0  0  0  0  0  0  0
   -7.4500   22.5900  -32.2860 C   0  0  0  0  0  0  0  0  0  0  0  0
   -6.6230   23.7770  -31.7840 C   0  0  0  0  0  0  0  0  0  0  0  0
   -6.1000   23.5040  -30.4320 N   0  0  0  0  0  0  0  0  0  0  0  0
   -5.1980   24.8860  -29.8640 S   0  0  0  0  0  0  0  0  0  0  0  0
   -4.4520   24.5340  -28.2850 C   0  0  0  0  0  0  0  0  0  0  0  0
   -6.1020   26.0810  -29.7280 O   0  0  0  0  0  0  0  0  0  0  0  0
   -4.1010   25.2090  -30.8410 O   0  0  0  0  0  0  0  0  0  0  0  0
   -5.2170   22.3240  -30.4550 C   0  0  0  0  0  0  0  0  0  0  0  0
   -5.9970   21.0880  -30.9020 C   0  0  0  0  0  0  0  0  0  0  0  0
   -6.1150   18.2240  -34.2840 C   0  0  0  0  0  0  0  0  0  0  0  0
   -5.0770   17.4260  -34.7700 C   0  0  0  0  0  0  0  0  0  0  0  0
   -3.7450   17.7990  -34.5710 C   0  0  0  0  0  0  0  0  0  0  0  0
   -2.7380   17.0050  -35.1050 O   0  0  0  0  0  0  0  0  0  0  0  0
   -1.4270   22.2150  -30.6650 C   0  0  0  0  0  0  0  0  0  0  0  0
   -1.1100   22.1860  -29.3090 C   0  0  0  0  0  0  0  0  0  0  0  0
   -1.1810   23.4320  -28.1880 S   0  0  0  0  0  0  0  0  0  0  0  0
   -0.7566   22.0358  -24.8560 H   0  0  0  0  0  0  0  0  0  0  0  0
    0.5770   23.1413  -25.3313 H   0  0  0  0  0  0  0  0  0  0  0  0
   -1.1203   23.7295  -25.3313 H   0  0  0  0  0  0  0  0  0  0  0  0
   -0.1746   18.9303  -28.9071 H   0  0  0  0  0  0  0  0  0  0  0  0
   -0.7287   18.9221  -31.3547 H   0  0  0  0  0  0  0  0  0  0  0  0
   -1.3130   18.7990  -33.9910 H   0  0  0  0  0  0  0  0  0  0  0  0
   -4.2613   20.7182  -32.8604 H   0  0  0  0  0  0  0  0  0  0  0  0
   -7.7274   22.7569  -33.3373 H   0  0  0  0  0  0  0  0  0  0  0  0
   -8.3585   22.4956  -31.6731 H   0  0  0  0  0  0  0  0  0  0  0  0
   -5.7809   23.9483  -32.4707 H   0  0  0  0  0  0  0  0  0  0  0  0
   -7.2659   24.6687  -31.7446 H   0  0  0  0  0  0  0  0  0  0  0  0
   -5.1298   24.8538  -27.4798 H   0  0  0  0  0  0  0  0  0  0  0  0
   -4.2661   23.4532  -28.2001 H   0  0  0  0  0  0  0  0  0  0  0  0
   -3.4995   25.0777  -28.2001 H   0  0  0  0  0  0  0  0  0  0  0  0
   -4.3888   22.5039  -31.1562 H   0  0  0  0  0  0  0  0  0  0  0  0
   -4.8224   22.1520  -29.4427 H   0  0  0  0  0  0  0  0  0  0  0  0
   -5.3036   20.2427  -31.0233 H   0  0  0  0  0  0  0  0  0  0  0  0
   -6.7530   20.8413  -30.1420 H   0  0  0  0  0  0  0  0  0  0  0  0
   -7.1594   17.9122  -34.4324 H   0  0  0  0  0  0  0  0  0  0  0  0
   -5.3094   16.4980  -35.3129 H   0  0  0  0  0  0  0  0  0  0  0  0
   -1.7737   23.1425  -31.1441 H   0  0  0  0  0  0  0  0  0  0  0  0
  1  2  1  0
  2  3  2  0
  3  4  1  0
  4  5  2  0
  5  6  1  0
  6  7  2  0
  7  8  1  0
  8  9  2  0
  8 10  2  0
  8 11  1  0
 11 12  1  0
 12 13  2  0
 13 14  1  0
 14 15  1  0
 15 16  2  0
 15 17  1  0
 17 18  1  0
 18 19  1  0
 19 20  1  0
 20 21  1  0
 21 22  1  0
 21 23  2  0
 21 24  2  0
 20 25  1  0
 25 26  1  0
 14 27  2  0
 27 28  1  0
 28 29  2  0
 29 30  1  0
  7 31  1  0
 31 32  2  0
 32 33  1  0
 33  2  1  0
 32  4  1  0
 29 12  1  0
 26 17  1  0
  1 34  1  0
  1 35  1  0
  1 36  1  0
  5 37  1  0
  6 38  1  0
 11 39  1  0
 13 40  1  0
 18 41  1  0
 18 42  1  0
 19 43  1  0
 19 44  1  0
 22 45  1  0
 22 46  1  0
 22 47  1  0
 25 48  1  0
 25 49  1  0
 26 50  1  0
 26 51  1  0
 27 52  1  0
 28 53  1  0
 31 54  1  0
M  CHG  1  30  -1
M  END
>  <UniqueID>  (11) 
11

>  <SMILES>  (11) 
Cc1nc2ccc(S(=O)(=O)Nc3cc(C(=O)N4CCN(S(C)(=O)=O)CC4)ccc3[O-])cc2s1

>  <Energy>  (11) 
93.88045194102965

>  <Genealogy>  (11) 
Cc1nc2ccc(S(=O)(=O)Nc3cc(C(=O)N4CCN(S(C)(=O)=O)CC4)ccc3[O-])cc2s1 (protonated)
Cc1nc2ccc(S(=O)(=O)Nc3cc(C(=O)N4CCN(S(C)(=O)=O)CC4)ccc3[O-])cc2s1 (3D coordinates assigned)
Cc1nc2ccc(S(=O)(=O)Nc3cc(C(=O)N4CCN(S(C)(=O)=O)CC4)ccc3[O-])cc2s1 (nonaromatic ring conformer: 93.88045194102965 kcal/mol)

>  <smiles>  (11) 
Cc1nc2ccc(S(=O)(=O)Nc3cc(C(=O)N4CCN(S(C)(=O)=O)CC4)ccc3O)cc2s1

>  <score_type>  (11) 
oracle

>  <origin>  (11) 
adgpu

>  <m_score__min__energy>  (11) 
-14.140000000000001

>  <m_primary>  (11) 
energy

$$$$
11:0
     RDKit          3D

 42 44  0  0  0  0  0  0  0  0999 V2000
   -0.6760   20.6810  -28.7420 O   0  0  0  0  0  0  0  0  0  0  0  0
   -0.7920   21.4740  -30.0150 S   0  0  0  0  0  0  0  0  0  0  0  0
    0.3010   21.0520  -30.9550 O   0  0  0  0  0  0  0  0  0  0  0  0
   -0.6150   23.1620  -29.6500 N   0  0  0  0  0  0  0  0  0  0  0  0
   -0.8340   23.7220  -28.3410 C   0  0  0  0  0  0  0  0  0  0  0  0
   -0.4200   23.0470  -27.1740 C   0  0  0  0  0  0  0  0  0  0  0  0
   -0.6530   23.6020  -25.9120 C   0  0  0  0  0  0  0  0  0  0  0  0
   -0.1420   22.7440  -24.4700 Cl  0  0  0  0  0  0  0  0  0  0  0  0
   -1.2900   24.8400  -25.7990 C   0  0  0  0  0  0  0  0  0  0  0  0
   -1.6920   25.5240  -26.9470 C   0  0  0  0  0  0  0  0  0  0  0  0
   -1.4680   24.9740  -28.2130 C   0  0  0  0  0  0  0  0  0  0  0  0
   -1.8850   25.6740  -29.3400 O   0  0  0  0  0  0  0  0  0  0  0  0
   -2.3470   21.1870  -30.7900 C   0  0  0  0  0  0  0  0  0  0  0  0
   -2.4480   20.3200  -31.8860 C   0  0  0  0  0  0  0  0  0  0  0  0
   -3.6900   20.0810  -32.4820 C   0  0  0  0  0  0  0  0  0  0  0  0
   -4.8400   20.7120  -31.9890 C   0  0  0  0  0  0  0  0  0  0  0  0
   -6.4000   20.4000  -32.7450 S   0  0  0  0  0  0  0  0  0  0  0  0
   -6.2040   20.0210  -34.1880 O   0  0  0  0  0  0  0  0  0  0  0  0
   -7.2220   21.6580  -32.6740 O   0  0  0  0  0  0  0  0  0  0  0  0
   -7.2220   19.1080  -31.8960 N   0  0  0  0  0  0  0  0  0  0  0  0
   -6.2510   18.2310  -31.2300 C   0  0  0  0  0  0  0  0  0  0  0  0
   -5.9440   17.0680  -32.1610 C   0  0  0  0  0  0  0  0  0  0  0  0
   -7.0310   17.0900  -33.2190 C   0  0  0  0  0  0  0  0  0  0  0  0
   -7.9420   18.2480  -32.8410 C   0  0  0  0  0  0  0  0  0  0  0  0
   -4.7390   21.5800  -30.8940 C   0  0  0  0  0  0  0  0  0  0  0  0
   -3.4970   21.8190  -30.2990 C   0  0  0  0  0  0  0  0  0  0  0  0
   -0.4330   23.7970  -30.4580 H   0  0  0  0  0  0  0  0  0  0  0  0
    0.0903   22.0761  -27.2573 H   0  0  0  0  0  0  0  0  0  0  0  0
   -1.4746   25.2754  -24.8059 H   0  0  0  0  0  0  0  0  0  0  0  0
   -2.1880   26.5016  -26.8555 H   0  0  0  0  0  0  0  0  0  0  0  0
   -1.5472   19.8257  -32.2788 H   0  0  0  0  0  0  0  0  0  0  0  0
   -3.7646   19.3962  -33.3396 H   0  0  0  0  0  0  0  0  0  0  0  0
   -5.3285   18.7909  -31.0169 H   0  0  0  0  0  0  0  0  0  0  0  0
   -6.6638   17.8589  -30.2807 H   0  0  0  0  0  0  0  0  0  0  0  0
   -4.9551   17.1988  -32.6246 H   0  0  0  0  0  0  0  0  0  0  0  0
   -5.9234   16.1102  -31.6205 H   0  0  0  0  0  0  0  0  0  0  0  0
   -6.5945   17.2535  -34.2154 H   0  0  0  0  0  0  0  0  0  0  0  0
   -7.5785   16.1369  -33.2617 H   0  0  0  0  0  0  0  0  0  0  0  0
   -8.2062   18.8229  -33.7408 H   0  0  0  0  0  0  0  0  0  0  0  0
   -8.8669   17.8694  -32.3814 H   0  0  0  0  0  0  0  0  0  0  0  0
   -5.6396   22.0748  -30.5014 H   0  0  0  0  0  0  0  0  0  0  0  0
   -3.4222   22.5054  -29.4427 H   0  0  0  0  0  0  0  0  0  0  0  0
  1  2  2  0
  2  3  2  0
  2  4  1  0
  4  5  1  0
  5  6  2  0
  6  7  1  0
  7  8  1  0
  7  9  2  0
  9 10  1  0
 10 11  2  0
 11 12  1  0
  2 13  1  0
 13 14  2  0
 14 15  1  0
 15 16  2  0
 16 17  1  0
 17 18  2  0
 17 19  2  0
 17 20  1  0
 20 21  1  0
 21 22  1  0
 22 23  1  0
 23 24  1  0
 16 25  1  0
 25 26  2  0
 11  5  1  0
 26 13  1  0
 24 20  1  0
  4 27  1  0
  6 28  1  0
  9 29  1  0
 10 30  1  0
 14 31  1  0
 15 32  1  0
 21 33  1  0
 21 34  1  0
 22 35  1  0
 22 36  1  0
 23 37  1  0
 23 38  1  0
 24 39  1  0
 24 40  1  0
 25 41  1  0
 26 42  1  0
M  CHG  1  12  -1
M  END
>  <UniqueID>  (12) 
12

>  <SMILES>  (12) 
O=S(=O)(Nc1cc(Cl)ccc1[O-])c1ccc(S(=O)(=O)N2CCCC2)cc1

>  <Energy>  (12) 
47.39714525284487

>  <Genealogy>  (12) 
O=S(=O)(Nc1cc(Cl)ccc1[O-])c1ccc(S(=O)(=O)N2CCCC2)cc1 (protonated)
O=S(=O)(Nc1cc(Cl)ccc1[O-])c1ccc(S(=O)(=O)N2CCCC2)cc1 (3D coordinates assigned)
O=S(=O)(Nc1cc(Cl)ccc1[O-])c1ccc(S(=O)(=O)N2CCCC2)cc1 (nonaromatic ring conformer: 47.39714525284487 kcal/mol)

>  <smiles>  (12) 
O=S(=O)(Nc1cc(Cl)ccc1O)c1ccc(S(=O)(=O)N2CCCC2)cc1

>  <score_type>  (12) 
oracle

>  <origin>  (12) 
adgpu

>  <m_score__min__energy>  (12) 
-13.69

>  <m_primary>  (12) 
energy

$$$$
12:0
     RDKit          3D

 56 59  0  0  0  0  0  0  0  0999 V2000
   -3.9760   25.3450  -30.8430 N   0  0  0  0  0  0  0  0  0  0  0  0
   -4.9480   24.3480  -30.5330 C   0  0  0  0  0  0  0  0  0  0  0  0
   -5.7970   24.5630  -29.6270 O   0  0  0  0  0  0  0  0  0  0  0  0
   -4.9930   23.0890  -31.3050 C   0  0  0  0  0  0  0  0  0  0  0  0
   -3.7810   22.4450  -31.6380 C   0  0  0  0  0  0  0  0  0  0  0  0
   -2.5350   23.0290  -31.2170 N   0  0  0  0  0  0  0  0  0  0  0  0
   -1.6290   22.5620  -29.8140 S   0  0  0  0  0  0  0  0  0  0  0  0
   -1.9550   21.1440  -29.4400 O   0  0  0  0  0  0  0  0  0  0  0  0
   -0.1580   22.6800  -30.1030 O   0  0  0  0  0  0  0  0  0  0  0  0
   -2.0710   23.6190  -28.4770 C   0  0  0  0  0  0  0  0  0  0  0  0
   -3.2620   23.3870  -27.7820 C   0  0  0  0  0  0  0  0  0  0  0  0
   -3.6190   24.2050  -26.7100 C   0  0  0  0  0  0  0  0  0  0  0  0
   -2.7960   25.2670  -26.3190 C   0  0  0  0  0  0  0  0  0  0  0  0
   -3.1980   26.0400  -25.2280 O   0  0  0  0  0  0  0  0  0  0  0  0
   -1.5990   25.5200  -27.0260 C   0  0  0  0  0  0  0  0  0  0  0  0
   -0.5260   26.8530  -26.5790 S   0  0  0  0  0  0  0  0  0  0  0  0
    0.1390   27.4140  -27.8060 O   0  0  0  0  0  0  0  0  0  0  0  0
   -1.3500   27.9400  -25.9450 O   0  0  0  0  0  0  0  0  0  0  0  0
    0.6780   26.2570  -25.4540 N   0  0  0  0  0  0  0  0  0  0  0  0
    1.0180   27.2680  -24.4280 C   0  0  0  0  0  0  0  0  0  0  0  0
    0.2890   27.0280  -23.0920 C   0  0  0  0  0  0  0  0  0  0  0  0
   -0.9790   26.4580  -23.3220 O   0  0  0  0  0  0  0  0  0  0  0  0
   -0.8430   25.1330  -23.8080 C   0  0  0  0  0  0  0  0  0  0  0  0
    0.2810   24.9710  -24.8590 C   0  0  0  0  0  0  0  0  0  0  0  0
   -1.2460   24.6860  -28.1010 C   0  0  0  0  0  0  0  0  0  0  0  0
   -3.8090   21.2410  -32.3620 C   0  0  0  0  0  0  0  0  0  0  0  0
   -5.0220   20.6770  -32.7480 C   0  0  0  0  0  0  0  0  0  0  0  0
   -6.2280   21.2990  -32.4160 C   0  0  0  0  0  0  0  0  0  0  0  0
   -6.2260   22.5130  -31.7050 C   0  0  0  0  0  0  0  0  0  0  0  0
   -7.5660   23.1920  -31.5160 C   0  0  0  0  0  0  0  0  0  0  0  0
   -8.6200   22.1870  -31.0250 C   0  0  0  0  0  0  0  0  0  0  0  0
   -8.6030   20.8280  -31.7720 C   0  0  0  0  0  0  0  0  0  0  0  0
   -7.5420   20.7280  -32.8800 C   0  0  0  0  0  0  0  0  0  0  0  0
   -2.9550   25.1520  -30.7300 H   0  0  0  0  0  0  0  0  0  0  0  0
   -3.9191   22.5572  -28.0814 H   0  0  0  0  0  0  0  0  0  0  0  0
   -4.5562   24.0134  -26.1669 H   0  0  0  0  0  0  0  0  0  0  0  0
   -2.5880   26.6900  -24.7520 H   0  0  0  0  0  0  0  0  0  0  0  0
    2.1027   27.2355  -24.2478 H   0  0  0  0  0  0  0  0  0  0  0  0
    0.6981   28.2489  -24.8094 H   0  0  0  0  0  0  0  0  0  0  0  0
    0.8865   26.3450  -22.4703 H   0  0  0  0  0  0  0  0  0  0  0  0
    0.1600   27.9913  -22.5768 H   0  0  0  0  0  0  0  0  0  0  0  0
   -0.6217   24.4716  -22.9574 H   0  0  0  0  0  0  0  0  0  0  0  0
   -1.7893   24.8730  -24.3050 H   0  0  0  0  0  0  0  0  0  0  0  0
    1.1585   24.5205  -24.3721 H   0  0  0  0  0  0  0  0  0  0  0  0
   -0.1029   24.3305  -25.6667 H   0  0  0  0  0  0  0  0  0  0  0  0
   -0.3127   24.8734  -28.6522 H   0  0  0  0  0  0  0  0  0  0  0  0
   -2.8657   20.7404  -32.6257 H   0  0  0  0  0  0  0  0  0  0  0  0
   -5.0308   19.7361  -33.3177 H   0  0  0  0  0  0  0  0  0  0  0  0
   -7.4613   23.9970  -30.7737 H   0  0  0  0  0  0  0  0  0  0  0  0
   -7.8931   23.6038  -32.4822 H   0  0  0  0  0  0  0  0  0  0  0  0
   -8.4416   21.9951  -29.9567 H   0  0  0  0  0  0  0  0  0  0  0  0
   -9.6028   22.6411  -31.2196 H   0  0  0  0  0  0  0  0  0  0  0  0
   -8.4091   20.0332  -31.0367 H   0  0  0  0  0  0  0  0  0  0  0  0
   -9.5819   20.7265  -32.2634 H   0  0  0  0  0  0  0  0  0  0  0  0
   -7.4007   19.6709  -33.1495 H   0  0  0  0  0  0  0  0  0  0  0  0
   -7.8877   21.3028  -33.7518 H   0  0  0  0  0  0  0  0  0  0  0  0
  1  2  1  0
  2  3  2  0
  2  4  1  0
  4  5  2  0
  5  6  1  0
  6  7  1  0
  7  8  2  0
  7  9  2  0
  7 10  1  0
 10 11  2  0
 11 12  1  0
 12 13  2  0
 13 14  1  0
 13 15  1  0
 15 16  1  0
 16 17  2  0
 16 18  2  0
 16 19  1  0
 19 20  1  0
 20 21  1  0
 21 22  1  0
 22 23  1  0
 23 24  1  0
 15 25  2  0
  5 26  1  0
 26 27  2  0
 27 28  1  0
 28 29  2  0
 29 30  1  0
 30 31  1  0
 31 32  1  0
 32 33  1  0
 29  4  1  0
 25 10  1  0
 33 28  1  0
 24 19  1  0
  1 34  1  0
 11 35  1  0
 12 36  1  0
 14 37  1  0
 20 38  1  0
 20 39  1  0
 21 40  1  0
 21 41  1  0
 23 42  1  0
 23 43  1  0
 24 44  1  0
 24 45  1  0
 25 46  1  0
 26 47  1  0
 27 48  1  0
 30 49  1  0
 30 50  1  0
 31 51  1  0
 31 52  1  0
 32 53  1  0
 32 54  1  0
 33 55  1  0
 33 56  1  0
M  CHG  2   1  -1   6  -1
M  END
>  <UniqueID>  (13) 
13

>  <SMILES>  (13) 
[NH-]C(=O)c1c([N-]S(=O)(=O)c2ccc(O)c(S(=O)(=O)N3CCOCC3)c2)ccc2c1CCCC2

>  <Energy>  (13) 
87.98231864497409

>  <Genealogy>  (13) 
[NH-]C(=O)c1c([N-]S(=O)(=O)c2ccc(O)c(S(=O)(=O)N3CCOCC3)c2)ccc2c1CCCC2 (protonated)
[NH-]C(=O)c1c([N-]S(=O)(=O)c2ccc(O)c(S(=O)(=O)N3CCOCC3)c2)ccc2c1CCCC2 (3D coordinates assigned)
[NH-]C(=O)c1c([N-]S(=O)(=O)c2ccc(O)c(S(=O)(=O)N3CCOCC3)c2)ccc2c1CCCC2 (nonaromatic ring conformer: 87.98231864497409 kcal/mol)

>  <smiles>  (13) 
NC(=O)c1c(NS(=O)(=O)c2ccc(O)c(S(=O)(=O)N3CCOCC3)c2)ccc2c1CCCC2

>  <score_type>  (13) 
oracle

>  <origin>  (13) 
adgpu

>  <m_score__min__energy>  (13) 
-13.67

>  <m_primary>  (13) 
energy

$$$$
13:0
     RDKit          3D

 53 56  0  0  0  0  0  0  0  0999 V2000
   -1.5600   18.3630  -34.1790 C   0  0  0  0  0  0  0  0  0  0  0  0
   -1.6180   16.9870  -33.5180 C   0  0  0  0  0  0  0  0  0  0  0  0
   -1.7680   15.8430  -34.5320 C   0  0  0  0  0  0  0  0  0  0  0  0
   -3.4470   15.6450  -35.1260 S   0  0  0  0  0  0  0  0  0  0  0  0
   -3.4900   15.9000  -36.6060 O   0  0  0  0  0  0  0  0  0  0  0  0
   -3.8930   14.2320  -34.8770 O   0  0  0  0  0  0  0  0  0  0  0  0
   -4.5380   16.7430  -34.2870 C   0  0  0  0  0  0  0  0  0  0  0  0
   -5.0070   17.9040  -34.9080 C   0  0  0  0  0  0  0  0  0  0  0  0
   -5.8320   18.7500  -34.2380 N   0  0  0  0  0  0  0  0  0  0  0  0
   -6.2280   18.5150  -32.9570 C   0  0  0  0  0  0  0  0  0  0  0  0
   -7.1080   19.4560  -32.3200 N   0  0  0  0  0  0  0  0  0  0  0  0
   -8.5440   19.1620  -32.2160 C   0  0  0  0  0  0  0  0  0  0  0  0
   -9.3600   20.3950  -32.6140 C   0  0  0  0  0  0  0  0  0  0  0  0
   -8.9140   21.5410  -31.8890 O   0  0  0  0  0  0  0  0  0  0  0  0
   -7.5550   21.7680  -31.6400 C   0  0  0  0  0  0  0  0  0  0  0  0
   -7.1300   23.0090  -31.1570 C   0  0  0  0  0  0  0  0  0  0  0  0
   -5.7710   23.2410  -30.9110 C   0  0  0  0  0  0  0  0  0  0  0  0
   -5.2510   24.8190  -30.3280 S   0  0  0  0  0  0  0  0  0  0  0  0
   -5.7860   25.8790  -31.2470 O   0  0  0  0  0  0  0  0  0  0  0  0
   -5.7700   25.0750  -28.9400 O   0  0  0  0  0  0  0  0  0  0  0  0
   -3.5180   24.8980  -30.3120 N   0  0  0  0  0  0  0  0  0  0  0  0
   -2.7820   24.6020  -29.2840 C   0  0  0  0  0  0  0  0  0  0  0  0
   -1.4350   24.6740  -29.3190 N   0  0  0  0  0  0  0  0  0  0  0  0
   -0.8830   24.3160  -28.1290 C   0  0  0  0  0  0  0  0  0  0  0  0
   -1.7920   23.9570  -27.1390 C   0  0  0  0  0  0  0  0  0  0  0  0
   -3.3420   24.0930  -27.7780 S   0  0  0  0  0  0  0  0  0  0  0  0
   -4.8390   22.2190  -31.1400 C   0  0  0  0  0  0  0  0  0  0  0  0
   -5.2610   20.9740  -31.6140 C   0  0  0  0  0  0  0  0  0  0  0  0
   -6.6250   20.7390  -31.8680 C   0  0  0  0  0  0  0  0  0  0  0  0
   -5.7540   17.3700  -32.2790 C   0  0  0  0  0  0  0  0  0  0  0  0
   -6.1320   17.0840  -30.8530 C   0  0  0  0  0  0  0  0  0  0  0  0
   -4.9170   16.4800  -32.9680 C   0  0  0  0  0  0  0  0  0  0  0  0
   -1.5272   19.1416  -33.4027 H   0  0  0  0  0  0  0  0  0  0  0  0
   -0.6582   18.4313  -34.8051 H   0  0  0  0  0  0  0  0  0  0  0  0
   -2.4529   18.5069  -34.8051 H   0  0  0  0  0  0  0  0  0  0  0  0
   -0.6899   16.8318  -32.9484 H   0  0  0  0  0  0  0  0  0  0  0  0
   -2.5049   16.9702  -32.8676 H   0  0  0  0  0  0  0  0  0  0  0  0
   -1.1145   16.0499  -35.3923 H   0  0  0  0  0  0  0  0  0  0  0  0
   -1.4901   14.9110  -34.0181 H   0  0  0  0  0  0  0  0  0  0  0  0
   -4.7075   18.1331  -35.9413 H   0  0  0  0  0  0  0  0  0  0  0  0
   -8.7946   18.3270  -32.8868 H   0  0  0  0  0  0  0  0  0  0  0  0
   -8.7831   18.8901  -31.1773 H   0  0  0  0  0  0  0  0  0  0  0  0
   -9.2384   20.5779  -33.6919 H   0  0  0  0  0  0  0  0  0  0  0  0
  -10.4192   20.2135  -32.3790 H   0  0  0  0  0  0  0  0  0  0  0  0
   -7.8651   23.8056  -30.9696 H   0  0  0  0  0  0  0  0  0  0  0  0
    0.2041   24.3106  -27.9612 H   0  0  0  0  0  0  0  0  0  0  0  0
   -1.5408   23.6394  -26.1162 H   0  0  0  0  0  0  0  0  0  0  0  0
   -3.7712   22.3979  -30.9458 H   0  0  0  0  0  0  0  0  0  0  0  0
   -4.5250   20.1755  -31.7890 H   0  0  0  0  0  0  0  0  0  0  0  0
   -5.4394   17.6080  -30.1779 H   0  0  0  0  0  0  0  0  0  0  0  0
   -7.1586   17.4335  -30.6686 H   0  0  0  0  0  0  0  0  0  0  0  0
   -6.0747   16.0011  -30.6686 H   0  0  0  0  0  0  0  0  0  0  0  0
   -4.5567   15.5694  -32.4669 H   0  0  0  0  0  0  0  0  0  0  0  0
  1  2  1  0
  2  3  1  0
  3  4  1  0
  4  5  2  0
  4  6  2  0
  4  7  1  0
  7  8  2  0
  8  9  1  0
  9 10  2  0
 10 11  1  0
 11 12  1  0
 12 13  1  0
 13 14  1  0
 14 15  1  0
 15 16  2  0
 16 17  1  0
 17 18  1  0
 18 19  2  0
 18 20  2  0
 18 21  1  0
 21 22  2  3
 22 23  1  0
 23 24  1  0
 24 25  2  0
 25 26  1  0
 17 27  2  0
 27 28  1  0
 28 29  2  0
 10 30  1  0
 30 31  1  0
 30 32  2  0
 32  7  1  0
 29 11  1  0
 29 15  1  0
 26 22  1  0
  1 33  1  0
  1 34  1  0
  1 35  1  0
  2 36  1  0
  2 37  1  0
  3 38  1  0
  3 39  1  0
  8 40  1  0
 12 41  1  0
 12 42  1  0
 13 43  1  0
 13 44  1  0
 16 45  1  0
 24 46  1  0
 25 47  1  0
 27 48  1  0
 28 49  1  0
 31 50  1  0
 31 51  1  0
 31 52  1  0
 32 53  1  0
M  CHG  1  23  -1
M  END
>  <UniqueID>  (14) 
14

>  <SMILES>  (14) 
CCCS(=O)(=O)c1cnc(N2CCOc3cc(S(=O)(=O)N=c4[n-]ccs4)ccc32)c(C)c1

>  <Energy>  (14) 
91.48443249342039

>  <Genealogy>  (14) 
CCCS(=O)(=O)c1cnc(N2CCOc3cc(S(=O)(=O)N=c4[n-]ccs4)ccc32)c(C)c1 (protonated)
CCCS(=O)(=O)c1cnc(N2CCOc3cc(S(=O)(=O)N=c4[n-]ccs4)ccc32)c(C)c1 (3D coordinates assigned)
CCCS(=O)(=O)c1cnc(N2CCOc3cc(S(=O)(=O)N=c4[n-]ccs4)ccc32)c(C)c1 (nonaromatic ring conformer: 91.48443249342039 kcal/mol)

>  <smiles>  (14) 
CCCS(=O)(=O)c1cnc(N2CCOc3cc(S(=O)(=O)N=c4[nH]ccs4)ccc32)c(C)c1

>  <score_type>  (14) 
oracle

>  <origin>  (14) 
adgpu

>  <m_score__min__energy>  (14) 
-10.75

>  <m_primary>  (14) 
energy

$$$$
14:0
     RDKit          3D

 52 55  0  0  0  0  0  0  0  0999 V2000
   -3.6660   20.6510  -30.1170 O   0  0  0  0  0  0  0  0  0  0  0  0
   -2.8430   21.3090  -30.8120 C   0  0  0  0  0  0  0  0  0  0  0  0
   -3.2350   22.5750  -31.3700 N   0  0  0  0  0  0  0  0  0  0  0  0
   -4.5130   23.1790  -31.1160 C   0  0  0  0  0  0  0  0  0  0  0  0
   -5.6790   22.4480  -31.3840 C   0  0  0  0  0  0  0  0  0  0  0  0
   -6.9420   23.0140  -31.1570 C   0  0  0  0  0  0  0  0  0  0  0  0
   -8.4050   22.0820  -31.4600 S   0  0  0  0  0  0  0  0  0  0  0  0
   -9.3440   22.8740  -32.3320 O   0  0  0  0  0  0  0  0  0  0  0  0
   -9.0900   21.8040  -30.1510 O   0  0  0  0  0  0  0  0  0  0  0  0
   -7.9800   20.5730  -32.2290 N   0  0  0  0  0  0  0  0  0  0  0  0
   -7.3240   19.6530  -31.2920 C   0  0  0  0  0  0  0  0  0  0  0  0
   -6.2650   18.8820  -32.0750 C   0  0  0  0  0  0  0  0  0  0  0  0
   -6.2620   19.4890  -33.4650 C   0  0  0  0  0  0  0  0  0  0  0  0
   -7.0250   20.7880  -33.3150 C   0  0  0  0  0  0  0  0  0  0  0  0
   -7.0370   24.3210  -30.6620 C   0  0  0  0  0  0  0  0  0  0  0  0
   -5.8800   25.0660  -30.4210 C   0  0  0  0  0  0  0  0  0  0  0  0
   -4.6190   24.5070  -30.6590 C   0  0  0  0  0  0  0  0  0  0  0  0
   -3.4840   25.2870  -30.4650 O   0  0  0  0  0  0  0  0  0  0  0  0
   -1.4870   20.7550  -31.0340 C   0  0  0  0  0  0  0  0  0  0  0  0
   -0.6180   20.4930  -29.9600 C   0  0  0  0  0  0  0  0  0  0  0  0
    0.6580   19.9740  -30.1940 C   0  0  0  0  0  0  0  0  0  0  0  0
    1.0840   19.7160  -31.4970 C   0  0  0  0  0  0  0  0  0  0  0  0
    0.2370   19.9820  -32.5770 C   0  0  0  0  0  0  0  0  0  0  0  0
    0.7690   19.6200  -34.2170 S   0  0  0  0  0  0  0  0  0  0  0  0
    1.9630   18.7070  -34.1810 O   0  0  0  0  0  0  0  0  0  0  0  0
   -0.3310   18.9310  -34.9730 O   0  0  0  0  0  0  0  0  0  0  0  0
    1.2040   21.1180  -35.0250 C   0  0  0  0  0  0  0  0  0  0  0  0
    2.4270   21.2370  -35.6890 C   0  0  0  0  0  0  0  0  0  0  0  0
    2.7310   22.4280  -36.3450 C   0  0  0  0  0  0  0  0  0  0  0  0
    1.8020   23.4700  -36.3250 C   0  0  0  0  0  0  0  0  0  0  0  0
    2.0480   24.5530  -36.9160 O   0  0  0  0  0  0  0  0  0  0  0  0
    0.6240   23.3050  -35.6660 N   0  0  0  0  0  0  0  0  0  0  0  0
    0.3340   22.1630  -35.0370 N   0  0  0  0  0  0  0  0  0  0  0  0
   -1.0460   20.4990  -32.3440 C   0  0  0  0  0  0  0  0  0  0  0  0
   -2.6110   23.0560  -32.0540 H   0  0  0  0  0  0  0  0  0  0  0  0
   -5.6026   21.4228  -31.7753 H   0  0  0  0  0  0  0  0  0  0  0  0
   -6.8503   20.2206  -30.4775 H   0  0  0  0  0  0  0  0  0  0  0  0
   -8.0569   18.9635  -30.8476 H   0  0  0  0  0  0  0  0  0  0  0  0
   -5.2782   18.9985  -31.6032 H   0  0  0  0  0  0  0  0  0  0  0  0
   -6.4836   17.8043  -32.1023 H   0  0  0  0  0  0  0  0  0  0  0  0
   -5.2329   19.6798  -33.8034 H   0  0  0  0  0  0  0  0  0  0  0  0
   -6.7159   18.8221  -34.2128 H   0  0  0  0  0  0  0  0  0  0  0  0
   -6.3370   21.6081  -33.0618 H   0  0  0  0  0  0  0  0  0  0  0  0
   -7.5344   21.0656  -34.2496 H   0  0  0  0  0  0  0  0  0  0  0  0
   -8.0249   24.7618  -30.4626 H   0  0  0  0  0  0  0  0  0  0  0  0
   -5.9603   26.0958  -30.0428 H   0  0  0  0  0  0  0  0  0  0  0  0
   -0.9446   20.6978  -28.9298 H   0  0  0  0  0  0  0  0  0  0  0  0
    1.3293   19.7680  -29.3473 H   0  0  0  0  0  0  0  0  0  0  0  0
    2.0877   19.3027  -31.6750 H   0  0  0  0  0  0  0  0  0  0  0  0
    3.1415   20.4006  -35.6940 H   0  0  0  0  0  0  0  0  0  0  0  0
    3.6897   22.5457  -36.8714 H   0  0  0  0  0  0  0  0  0  0  0  0
   -1.7129   20.7059  -33.1939 H   0  0  0  0  0  0  0  0  0  0  0  0
  1  2  2  0
  2  3  1  0
  3  4  1  0
  4  5  2  0
  5  6  1  0
  6  7  1  0
  7  8  2  0
  7  9  2  0
  7 10  1  0
 10 11  1  0
 11 12  1  0
 12 13  1  0
 13 14  1  0
  6 15  2  0
 15 16  1  0
 16 17  2  0
 17 18  1  0
  2 19  1  0
 19 20  2  0
 20 21  1  0
 21 22  2  0
 22 23  1  0
 23 24  1  0
 24 25  2  0
 24 26  2  0
 24 27  1  0
 27 28  1  0
 28 29  2  0
 29 30  1  0
 30 31  2  0
 30 32  1  0
 32 33  1  0
 23 34  2  0
 17  4  1  0
 34 19  1  0
 14 10  1  0
 33 27  2  0
  3 35  1  0
  5 36  1  0
 11 37  1  0
 11 38  1  0
 12 39  1  0
 12 40  1  0
 13 41  1  0
 13 42  1  0
 14 43  1  0
 14 44  1  0
 15 45  1  0
 16 46  1  0
 20 47  1  0
 21 48  1  0
 22 49  1  0
 28 50  1  0
 29 51  1  0
 34 52  1  0
M  CHG  2  18  -1  32  -1
M  END
>  <UniqueID>  (15) 
15

>  <SMILES>  (15) 
O=C(Nc1cc(S(=O)(=O)N2CCCC2)ccc1[O-])c1cccc(S(=O)(=O)c2ccc(=O)[n-]n2)c1

>  <Energy>  (15) 
68.01529284188267

>  <Genealogy>  (15) 
O=C(Nc1cc(S(=O)(=O)N2CCCC2)ccc1[O-])c1cccc(S(=O)(=O)c2ccc(=O)[n-]n2)c1 (protonated)
O=C(Nc1cc(S(=O)(=O)N2CCCC2)ccc1[O-])c1cccc(S(=O)(=O)c2ccc(=O)[n-]n2)c1 (3D coordinates assigned)
O=C(Nc1cc(S(=O)(=O)N2CCCC2)ccc1[O-])c1cccc(S(=O)(=O)c2ccc(=O)[n-]n2)c1 (nonaromatic ring conformer: 68.01529284188267 kcal/mol)

>  <smiles>  (15) 
O=C(Nc1cc(S(=O)(=O)N2CCCC2)ccc1O)c1cccc(S(=O)(=O)c2ccc(=O)[nH]n2)c1

>  <score_type>  (15) 
oracle

>  <origin>  (15) 
adgpu

>  <m_score__min__energy>  (15) 
-14.85

>  <m_primary>  (15) 
energy

$$$$
15:0
     RDKit          3D

 47 49  0  0  0  0  0  0  0  0999 V2000
   -6.0990   17.1920  -31.8440 C   0  0  0  0  0  0  0  0  0  0  0  0
   -6.2480   17.5050  -33.3310 C   0  0  0  0  0  0  0  0  0  0  0  0
   -6.5310   18.9640  -33.5530 C   0  0  0  0  0  0  0  0  0  0  0  0
   -6.0560   19.5300  -34.5740 O   0  0  0  0  0  0  0  0  0  0  0  0
   -7.3300   19.7210  -32.6200 N   0  0  0  0  0  0  0  0  0  0  0  0
   -8.7050   19.2910  -32.3340 C   0  0  0  0  0  0  0  0  0  0  0  0
   -9.6400   20.4970  -32.3450 C   0  0  0  0  0  0  0  0  0  0  0  0
   -9.2010   21.5250  -31.3000 C   0  0  0  0  0  0  0  0  0  0  0  0
   -7.7270   21.8340  -31.3870 C   0  0  0  0  0  0  0  0  0  0  0  0
   -7.2410   22.9990  -30.7750 C   0  0  0  0  0  0  0  0  0  0  0  0
   -5.8700   23.2770  -30.7600 C   0  0  0  0  0  0  0  0  0  0  0  0
   -5.2910   24.7650  -30.0130 S   0  0  0  0  0  0  0  0  0  0  0  0
   -4.2420   25.3700  -30.9020 O   0  0  0  0  0  0  0  0  0  0  0  0
   -6.4180   25.7500  -29.8690 O   0  0  0  0  0  0  0  0  0  0  0  0
   -4.5950   24.4540  -28.4480 N   0  0  0  0  0  0  0  0  0  0  0  0
   -4.0940   23.0800  -28.3410 C   0  0  0  0  0  0  0  0  0  0  0  0
   -2.5950   23.0510  -28.1770 C   0  0  0  0  0  0  0  0  0  0  0  0
   -1.9710   21.9150  -27.6350 C   0  0  0  0  0  0  0  0  0  0  0  0
   -0.5840   21.8840  -27.4620 C   0  0  0  0  0  0  0  0  0  0  0  0
    0.1910   22.9850  -27.8320 C   0  0  0  0  0  0  0  0  0  0  0  0
   -0.4170   24.1180  -28.3770 C   0  0  0  0  0  0  0  0  0  0  0  0
   -1.8080   24.1580  -28.5520 C   0  0  0  0  0  0  0  0  0  0  0  0
   -2.4110   25.2930  -29.0970 O   0  0  0  0  0  0  0  0  0  0  0  0
   -4.9750   22.3710  -31.3380 C   0  0  0  0  0  0  0  0  0  0  0  0
   -5.4440   21.2020  -31.9390 C   0  0  0  0  0  0  0  0  0  0  0  0
   -6.8260   20.9240  -31.9890 C   0  0  0  0  0  0  0  0  0  0  0  0
   -6.4973   18.0288  -31.2515 H   0  0  0  0  0  0  0  0  0  0  0  0
   -6.6571   16.2748  -31.6046 H   0  0  0  0  0  0  0  0  0  0  0  0
   -5.0352   17.0469  -31.6046 H   0  0  0  0  0  0  0  0  0  0  0  0
   -5.3154   17.2374  -33.8493 H   0  0  0  0  0  0  0  0  0  0  0  0
   -7.0925   16.9220  -33.7270 H   0  0  0  0  0  0  0  0  0  0  0  0
   -9.0289   18.5715  -33.1005 H   0  0  0  0  0  0  0  0  0  0  0  0
   -8.7370   18.8174  -31.3417 H   0  0  0  0  0  0  0  0  0  0  0  0
   -9.6190   20.9622  -33.3416 H   0  0  0  0  0  0  0  0  0  0  0  0
  -10.6591   20.1592  -32.1056 H   0  0  0  0  0  0  0  0  0  0  0  0
   -9.7675   22.4546  -31.4581 H   0  0  0  0  0  0  0  0  0  0  0  0
   -9.3981   21.0996  -30.3049 H   0  0  0  0  0  0  0  0  0  0  0  0
   -7.9444   23.7004  -30.3025 H   0  0  0  0  0  0  0  0  0  0  0  0
   -4.5587   22.5967  -27.4689 H   0  0  0  0  0  0  0  0  0  0  0  0
   -4.3509   22.5452  -29.2673 H   0  0  0  0  0  0  0  0  0  0  0  0
   -2.5775   21.0444  -27.3449 H   0  0  0  0  0  0  0  0  0  0  0  0
   -0.1031   20.9919  -27.0343 H   0  0  0  0  0  0  0  0  0  0  0  0
    1.2820   22.9599  -27.6940 H   0  0  0  0  0  0  0  0  0  0  0  0
    0.1973   24.9822  -28.6701 H   0  0  0  0  0  0  0  0  0  0  0  0
   -3.3860   25.5080  -28.9290 H   0  0  0  0  0  0  0  0  0  0  0  0
   -3.8954   22.5810  -31.3188 H   0  0  0  0  0  0  0  0  0  0  0  0
   -4.7290   20.4905  -32.3779 H   0  0  0  0  0  0  0  0  0  0  0  0
  1  2  1  0
  2  3  1  0
  3  4  2  0
  3  5  1  0
  5  6  1  0
  6  7  1  0
  7  8  1  0
  8  9  1  0
  9 10  2  0
 10 11  1  0
 11 12  1  0
 12 13  2  0
 12 14  2  0
 12 15  1  0
 15 16  1  0
 16 17  1  0
 17 18  2  0
 18 19  1  0
 19 20  2  0
 20 21  1  0
 21 22  2  0
 22 23  1  0
 11 24  2  0
 24 25  1  0
 25 26  2  0
 26  5  1  0
 26  9  1  0
 22 17  1  0
  1 27  1  0
  1 28  1  0
  1 29  1  0
  2 30  1  0
  2 31  1  0
  6 32  1  0
  6 33  1  0
  7 34  1  0
  7 35  1  0
  8 36  1  0
  8 37  1  0
 10 38  1  0
 16 39  1  0
 16 40  1  0
 18 41  1  0
 19 42  1  0
 20 43  1  0
 21 44  1  0
 23 45  1  0
 24 46  1  0
 25 47  1  0
M  CHG  1  15  -1
M  END
>  <UniqueID>  (16) 
16

>  <SMILES>  (16) 
CCC(=O)N1CCCc2cc(S(=O)(=O)[N-]Cc3ccccc3O)ccc21

>  <Energy>  (16) 
49.093008701953934

>  <Genealogy>  (16) 
CCC(=O)N1CCCc2cc(S(=O)(=O)[N-]Cc3ccccc3O)ccc21 (protonated)
CCC(=O)N1CCCc2cc(S(=O)(=O)[N-]Cc3ccccc3O)ccc21 (3D coordinates assigned)
CCC(=O)N1CCCc2cc(S(=O)(=O)[N-]Cc3ccccc3O)ccc21 (nonaromatic ring conformer: 49.093008701953934 kcal/mol)

>  <smiles>  (16) 
CCC(=O)N1CCCc2cc(S(=O)(=O)NCc3ccccc3O)ccc21

>  <score_type>  (16) 
oracle

>  <origin>  (16) 
adgpu

>  <m_score__min__energy>  (16) 
-12.06

>  <m_primary>  (16) 
energy

$$$$
16:0
     RDKit          3D

 55 58  0  0  0  0  0  0  0  0999 V2000
   -0.5200   29.3970  -25.4060 C   0  0  0  0  0  0  0  0  0  0  0  0
   -0.6270   27.9000  -25.4060 C   0  0  0  0  0  0  0  0  0  0  0  0
   -0.4110   27.1700  -24.2260 C   0  0  0  0  0  0  0  0  0  0  0  0
   -0.4780   25.7720  -24.2370 C   0  0  0  0  0  0  0  0  0  0  0  0
   -0.7480   25.0910  -25.4320 C   0  0  0  0  0  0  0  0  0  0  0  0
   -0.8230   23.6940  -25.4720 C   0  0  0  0  0  0  0  0  0  0  0  0
   -1.0860   23.0340  -26.6830 C   0  0  0  0  0  0  0  0  0  0  0  0
   -1.1840   21.5330  -26.7140 C   0  0  0  0  0  0  0  0  0  0  0  0
   -1.2760   23.8060  -27.8470 C   0  0  0  0  0  0  0  0  0  0  0  0
   -1.6190   23.0440  -29.4380 S   0  0  0  0  0  0  0  0  0  0  0  0
   -3.4190   23.2960  -29.3060 C   0  0  0  0  0  0  0  0  0  0  0  0
   -3.9080   24.0160  -30.5180 C   0  0  0  0  0  0  0  0  0  0  0  0
   -3.8610   25.2760  -30.5570 O   0  0  0  0  0  0  0  0  0  0  0  0
   -4.4980   23.2680  -31.5890 N   0  0  0  0  0  0  0  0  0  0  0  0
   -5.8610   22.8290  -31.6710 C   0  0  0  0  0  0  0  0  0  0  0  0
   -6.8810   23.7760  -31.5050 C   0  0  0  0  0  0  0  0  0  0  0  0
   -8.2220   23.3890  -31.5700 C   0  0  0  0  0  0  0  0  0  0  0  0
   -8.5560   22.0500  -31.7870 C   0  0  0  0  0  0  0  0  0  0  0  0
   -7.5470   21.0880  -31.9310 C   0  0  0  0  0  0  0  0  0  0  0  0
   -7.9670   19.3920  -32.1520 S   0  0  0  0  0  0  0  0  0  0  0  0
   -9.0990   19.2870  -33.1370 O   0  0  0  0  0  0  0  0  0  0  0  0
   -8.4200   18.8090  -30.8420 O   0  0  0  0  0  0  0  0  0  0  0  0
   -6.5810   18.5270  -32.7670 N   0  0  0  0  0  0  0  0  0  0  0  0
   -6.9130   17.1330  -33.0710 C   0  0  0  0  0  0  0  0  0  0  0  0
   -5.9790   16.6940  -34.1900 C   0  0  0  0  0  0  0  0  0  0  0  0
   -5.4150   17.9800  -34.7770 C   0  0  0  0  0  0  0  0  0  0  0  0
   -6.1170   19.1000  -34.0280 C   0  0  0  0  0  0  0  0  0  0  0  0
   -6.2020   21.4780  -31.8580 C   0  0  0  0  0  0  0  0  0  0  0  0
   -1.2070   25.1640  -27.7830 N   0  0  0  0  0  0  0  0  0  0  0  0
   -0.9510   25.8210  -26.6210 C   0  0  0  0  0  0  0  0  0  0  0  0
   -0.8850   27.2180  -26.6060 C   0  0  0  0  0  0  0  0  0  0  0  0
   -0.4939   29.7627  -24.3689 H   0  0  0  0  0  0  0  0  0  0  0  0
    0.4020   29.6987  -25.9245 H   0  0  0  0  0  0  0  0  0  0  0  0
   -1.3897   29.8268  -25.9245 H   0  0  0  0  0  0  0  0  0  0  0  0
   -0.1880   27.6997  -23.2881 H   0  0  0  0  0  0  0  0  0  0  0  0
   -0.3186   25.2071  -23.3067 H   0  0  0  0  0  0  0  0  0  0  0  0
   -0.6753   23.1108  -24.5511 H   0  0  0  0  0  0  0  0  0  0  0  0
   -1.2093   21.1459  -25.6847 H   0  0  0  0  0  0  0  0  0  0  0  0
   -2.1034   21.2364  -27.2400 H   0  0  0  0  0  0  0  0  0  0  0  0
   -0.3110   21.1193  -27.2400 H   0  0  0  0  0  0  0  0  0  0  0  0
   -3.9217   22.3205  -29.2306 H   0  0  0  0  0  0  0  0  0  0  0  0
   -3.6421   23.8923  -28.4090 H   0  0  0  0  0  0  0  0  0  0  0  0
   -6.6242   24.8299  -31.3225 H   0  0  0  0  0  0  0  0  0  0  0  0
   -9.0165   24.1403  -31.4500 H   0  0  0  0  0  0  0  0  0  0  0  0
   -9.6128   21.7502  -31.8450 H   0  0  0  0  0  0  0  0  0  0  0  0
   -6.7602   16.5044  -32.1813 H   0  0  0  0  0  0  0  0  0  0  0  0
   -7.9660   17.0343  -33.3734 H   0  0  0  0  0  0  0  0  0  0  0  0
   -5.1690   16.0661  -33.7905 H   0  0  0  0  0  0  0  0  0  0  0  0
   -6.5043   16.0951  -34.9486 H   0  0  0  0  0  0  0  0  0  0  0  0
   -4.3277   18.0321  -34.6187 H   0  0  0  0  0  0  0  0  0  0  0  0
   -5.5804   18.0441  -35.8626 H   0  0  0  0  0  0  0  0  0  0  0  0
   -5.4165   19.9260  -33.8354 H   0  0  0  0  0  0  0  0  0  0  0  0
   -6.9552   19.5062  -34.6132 H   0  0  0  0  0  0  0  0  0  0  0  0
   -5.4083   20.7217  -31.9477 H   0  0  0  0  0  0  0  0  0  0  0  0
   -1.0357   27.7841  -27.5370 H   0  0  0  0  0  0  0  0  0  0  0  0
  1  2  1  0
  2  3  2  0
  3  4  1  0
  4  5  2  0
  5  6  1  0
  6  7  2  0
  7  8  1  0
  7  9  1  0
  9 10  1  0
 10 11  1  0
 11 12  1  0
 12 13  2  0
 12 14  1  0
 14 15  1  0
 15 16  2  0
 16 17  1  0
 17 18  2  0
 18 19  1  0
 19 20  1  0
 20 21  2  0
 20 22  2  0
 20 23  1  0
 23 24  1  0
 24 25  1  0
 25 26  1  0
 26 27  1  0
 19 28  2  0
  9 29  2  0
 29 30  1  0
 30 31  2  0
 31  2  1  0
 30  5  1  0
 28 15  1  0
 27 23  1  0
  1 32  1  0
  1 33  1  0
  1 34  1  0
  3 35  1  0
  4 36  1  0
  6 37  1  0
  8 38  1  0
  8 39  1  0
  8 40  1  0
 11 41  1  0
 11 42  1  0
 16 43  1  0
 17 44  1  0
 18 45  1  0
 24 46  1  0
 24 47  1  0
 25 48  1  0
 25 49  1  0
 26 50  1  0
 26 51  1  0
 27 52  1  0
 27 53  1  0
 28 54  1  0
 31 55  1  0
M  CHG  1  14  -1
M  END
>  <UniqueID>  (17) 
17

>  <SMILES>  (17) 
Cc1ccc2cc(C)c(SCC(=O)[N-]c3cccc(S(=O)(=O)N4CCCC4)c3)nc2c1

>  <Energy>  (17) 
59.019177455468245

>  <Genealogy>  (17) 
Cc1ccc2cc(C)c(SCC(=O)[N-]c3cccc(S(=O)(=O)N4CCCC4)c3)nc2c1 (protonated)
Cc1ccc2cc(C)c(SCC(=O)[N-]c3cccc(S(=O)(=O)N4CCCC4)c3)nc2c1 (3D coordinates assigned)
Cc1ccc2cc(C)c(SCC(=O)[N-]c3cccc(S(=O)(=O)N4CCCC4)c3)nc2c1 (nonaromatic ring conformer: 59.019177455468245 kcal/mol)

>  <smiles>  (17) 
Cc1ccc2cc(C)c(SCC(=O)Nc3cccc(S(=O)(=O)N4CCCC4)c3)nc2c1

>  <score_type>  (17) 
oracle

>  <origin>  (17) 
adgpu

>  <m_score__min__energy>  (17) 
-13.109999999999999

>  <m_primary>  (17) 
energy

$$$$
17:0
     RDKit          3D

 53 55  0  0  0  0  0  0  0  0999 V2000
   -4.7670   24.0530  -31.4110 H   0  0  0  0  0  0  0  0  0  0  0  0
   -4.2290   24.6370  -30.7350 N   0  0  0  0  0  0  0  0  0  0  0  0
   -3.1130   24.2820  -30.1730 C   0  0  0  0  0  0  0  0  0  0  0  0
   -2.5470   25.1340  -29.2780 N   0  0  0  0  0  0  0  0  0  0  0  0
   -1.4140   24.8280  -28.6000 C   0  0  0  0  0  0  0  0  0  0  0  0
   -0.9898   25.5490  -27.8857 H   0  0  0  0  0  0  0  0  0  0  0  0
   -0.7870   23.6040  -28.8060 C   0  0  0  0  0  0  0  0  0  0  0  0
    0.1185   23.3454  -28.2375 H   0  0  0  0  0  0  0  0  0  0  0  0
   -1.3110   22.7030  -29.7380 C   0  0  0  0  0  0  0  0  0  0  0  0
   -0.4220   21.1590  -30.0160 S   0  0  0  0  0  0  0  0  0  0  0  0
   -1.2180   20.3100  -28.6460 C   0  0  0  0  0  0  0  0  0  0  0  0
   -2.4690   20.7590  -28.1990 C   0  0  0  0  0  0  0  0  0  0  0  0
   -2.9514   21.6157  -28.6923 H   0  0  0  0  0  0  0  0  0  0  0  0
   -3.1050   20.1240  -27.1310 C   0  0  0  0  0  0  0  0  0  0  0  0
   -4.0819   20.4867  -26.7786 H   0  0  0  0  0  0  0  0  0  0  0  0
   -2.5020   19.0290  -26.5100 C   0  0  0  0  0  0  0  0  0  0  0  0
   -3.0001   18.5354  -25.6625 H   0  0  0  0  0  0  0  0  0  0  0  0
   -1.2670   18.5590  -26.9630 C   0  0  0  0  0  0  0  0  0  0  0  0
   -0.7995   17.6915  -26.4743 H   0  0  0  0  0  0  0  0  0  0  0  0
   -0.6160   19.1900  -28.0430 C   0  0  0  0  0  0  0  0  0  0  0  0
    0.6100   18.7250  -28.5440 O   0  0  0  0  0  0  0  0  0  0  0  0
    0.7460   17.8870  -29.6880 C   0  0  0  0  0  0  0  0  0  0  0  0
    0.9144   16.8493  -29.3644 H   0  0  0  0  0  0  0  0  0  0  0  0
   -0.1722   17.9385  -30.2915 H   0  0  0  0  0  0  0  0  0  0  0  0
    1.6008   18.2262  -30.2915 H   0  0  0  0  0  0  0  0  0  0  0  0
   -2.4990   23.0280  -30.4330 C   0  0  0  0  0  0  0  0  0  0  0  0
   -3.0910   22.0650  -31.3850 C   0  0  0  0  0  0  0  0  0  0  0  0
   -4.0940   21.3800  -31.0460 O   0  0  0  0  0  0  0  0  0  0  0  0
   -2.5200   21.9130  -32.6890 N   0  0  0  0  0  0  0  0  0  0  0  0
   -1.8000   20.7230  -33.1270 C   0  0  0  0  0  0  0  0  0  0  0  0
   -1.3013   20.9353  -34.0842 H   0  0  0  0  0  0  0  0  0  0  0  0
   -1.0585   20.4574  -32.3591 H   0  0  0  0  0  0  0  0  0  0  0  0
   -2.7560   19.5470  -33.3110 C   0  0  0  0  0  0  0  0  0  0  0  0
   -2.3312   18.8411  -34.0399 H   0  0  0  0  0  0  0  0  0  0  0  0
   -2.8993   19.0397  -32.3456 H   0  0  0  0  0  0  0  0  0  0  0  0
   -4.0140   20.0200  -33.7870 O   0  0  0  0  0  0  0  0  0  0  0  0
   -5.2570   19.6310  -33.2650 C   0  0  0  0  0  0  0  0  0  0  0  0
   -5.6150   18.2830  -33.0960 C   0  0  0  0  0  0  0  0  0  0  0  0
   -4.9072   17.4893  -33.3770 H   0  0  0  0  0  0  0  0  0  0  0  0
   -6.8650   17.9460  -32.5730 C   0  0  0  0  0  0  0  0  0  0  0  0
   -7.1348   16.8872  -32.4457 H   0  0  0  0  0  0  0  0  0  0  0  0
   -7.7810   18.9460  -32.2080 C   0  0  0  0  0  0  0  0  0  0  0  0
   -9.1240   18.5490  -31.6520 C   0  0  0  0  0  0  0  0  0  0  0  0
   -9.0838   18.5609  -30.5528 H   0  0  0  0  0  0  0  0  0  0  0  0
   -9.8889   19.2595  -31.9987 H   0  0  0  0  0  0  0  0  0  0  0  0
   -9.3797   17.5368  -31.9987 H   0  0  0  0  0  0  0  0  0  0  0  0
   -7.4300   20.3060  -32.3820 C   0  0  0  0  0  0  0  0  0  0  0  0
   -8.3800   21.4120  -32.0060 C   0  0  0  0  0  0  0  0  0  0  0  0
   -8.4426   21.4849  -30.9102 H   0  0  0  0  0  0  0  0  0  0  0  0
   -8.0144   22.3648  -32.4166 H   0  0  0  0  0  0  0  0  0  0  0  0
   -9.3770   21.1943  -32.4166 H   0  0  0  0  0  0  0  0  0  0  0  0
   -6.1660   20.6300  -32.9050 C   0  0  0  0  0  0  0  0  0  0  0  0
   -5.8878   21.6865  -33.0330 H   0  0  0  0  0  0  0  0  0  0  0  0
  1  2  1  0
  2  3  2  0
  3  4  1  0
  4  5  1  0
  5  6  1  0
  5  7  2  0
  7  8  1  0
  7  9  1  0
  9 10  1  0
 10 11  1  0
 11 12  2  0
 12 13  1  0
 12 14  1  0
 14 15  1  0
 14 16  2  0
 16 17  1  0
 16 18  1  0
 18 19  1  0
 18 20  2  0
 20 21  1  0
 21 22  1  0
 22 23  1  0
 22 24  1  0
 22 25  1  0
  9 26  2  0
 26 27  1  0
 27 28  2  0
 27 29  1  0
 29 30  1  0
 30 31  1  0
 30 32  1  0
 30 33  1  0
 33 34  1  0
 33 35  1  0
 33 36  1  0
 36 37  1  0
 37 38  2  0
 38 39  1  0
 38 40  1  0
 40 41  1  0
 40 42  2  0
 42 43  1  0
 43 44  1  0
 43 45  1  0
 43 46  1  0
 42 47  1  0
 47 48  1  0
 48 49  1  0
 48 50  1  0
 48 51  1  0
 47 52  2  0
 52 53  1  0
 26  3  1  0
 52 37  1  0
 20 11  1  0
M  CHG  2   4  -1  29  -1
M  END
>  <UniqueID>  (18) 
18

>  <SMILES>  (18) 
[H]/N=c1/[n-]ccc(Sc2ccccc2OC)c1C(=O)[N-]CCOc1ccc(C)c(C)c1

>  <Energy>  (18) 
55.16604463421851

>  <Genealogy>  (18) 
COc1ccccc1Sc1cc[n-]c(=N)c1C(=O)[N-]CCOc1ccc(C)c(C)c1 (protonated)
[H]/N=c1/[n-]ccc(Sc2ccccc2OC)c1C(=O)[N-]CCOc1ccc(C)c(C)c1 (cis-trans isomerization)
[H]/N=c1/[n-]ccc(Sc2ccccc2OC)c1C(=O)[N-]CCOc1ccc(C)c(C)c1 (3D coordinates assigned)
[H]/N=c1/[n-]ccc(Sc2ccccc2OC)c1C(=O)[N-]CCOc1ccc(C)c(C)c1 (optimized conformer: 55.16604463421851 kcal/mol)

>  <smiles>  (18) 
COc1ccccc1Sc1cc[nH]c(=N)c1C(=O)NCCOc1ccc(C)c(C)c1

>  <score_type>  (18) 
oracle

>  <origin>  (18) 
adgpu

>  <m_score__min__energy>  (18) 
-12.140000000000001

>  <m_primary>  (18) 
energy

$$$$
18:0
     RDKit          3D

 43 46  0  0  0  0  0  0  0  0999 V2000
   -6.8060   18.7840  -33.4810 C   0  0  0  0  0  0  0  0  0  0  0  0
   -7.4820   19.9870  -33.0080 N   0  0  0  0  0  0  0  0  0  0  0  0
   -8.8630   20.0630  -32.6460 C   0  0  0  0  0  0  0  0  0  0  0  0
   -9.7410   19.2340  -33.0140 O   0  0  0  0  0  0  0  0  0  0  0  0
   -9.0950   21.2140  -31.7890 C   0  0  0  0  0  0  0  0  0  0  0  0
  -10.1940   21.5900  -31.3020 O   0  0  0  0  0  0  0  0  0  0  0  0
   -7.7920   21.8340  -31.6100 C   0  0  0  0  0  0  0  0  0  0  0  0
   -7.4220   22.9570  -30.8750 C   0  0  0  0  0  0  0  0  0  0  0  0
   -6.0670   23.3420  -30.8870 C   0  0  0  0  0  0  0  0  0  0  0  0
   -5.5360   24.7740  -30.0130 S   0  0  0  0  0  0  0  0  0  0  0  0
   -6.7350   25.6230  -29.7010 O   0  0  0  0  0  0  0  0  0  0  0  0
   -4.5830   25.5900  -30.8430 O   0  0  0  0  0  0  0  0  0  0  0  0
   -4.7760   24.3040  -28.5260 N   0  0  0  0  0  0  0  0  0  0  0  0
   -3.6330   23.4430  -28.3990 C   0  0  0  0  0  0  0  0  0  0  0  0
   -3.7300   22.1520  -27.8500 C   0  0  0  0  0  0  0  0  0  0  0  0
   -2.5970   21.3320  -27.7430 C   0  0  0  0  0  0  0  0  0  0  0  0
   -1.3410   21.8200  -28.1600 C   0  0  0  0  0  0  0  0  0  0  0  0
   -1.2480   23.0980  -28.7340 C   0  0  0  0  0  0  0  0  0  0  0  0
   -2.3840   23.9100  -28.8450 C   0  0  0  0  0  0  0  0  0  0  0  0
   -2.2800   25.1890  -29.3930 O   0  0  0  0  0  0  0  0  0  0  0  0
   -0.1130   20.9420  -28.0930 C   0  0  0  0  0  0  0  0  0  0  0  0
   -0.2590   19.8410  -27.1280 N   0  0  0  0  0  0  0  0  0  0  0  0
   -1.5010   19.0980  -27.3720 C   0  0  0  0  0  0  0  0  0  0  0  0
   -2.7260   19.9770  -27.0950 C   0  0  0  0  0  0  0  0  0  0  0  0
   -5.1240   22.5840  -31.6180 C   0  0  0  0  0  0  0  0  0  0  0  0
   -5.5210   21.4440  -32.3370 C   0  0  0  0  0  0  0  0  0  0  0  0
   -6.8700   21.0880  -32.3230 C   0  0  0  0  0  0  0  0  0  0  0  0
   -6.4713   18.1885  -32.6188 H   0  0  0  0  0  0  0  0  0  0  0  0
   -7.5014   18.1882  -34.0904 H   0  0  0  0  0  0  0  0  0  0  0  0
   -5.9355   19.0682  -34.0904 H   0  0  0  0  0  0  0  0  0  0  0  0
   -8.1669   23.5277  -30.3010 H   0  0  0  0  0  0  0  0  0  0  0  0
   -4.7049   21.7812  -27.5007 H   0  0  0  0  0  0  0  0  0  0  0  0
   -0.2769   23.4639  -29.0988 H   0  0  0  0  0  0  0  0  0  0  0  0
   -3.0940   25.6950  -29.7170 H   0  0  0  0  0  0  0  0  0  0  0  0
    0.0701   20.5151  -29.0901 H   0  0  0  0  0  0  0  0  0  0  0  0
    0.7278   21.5684  -27.7604 H   0  0  0  0  0  0  0  0  0  0  0  0
   -0.2840   20.2390  -26.1580 H   0  0  0  0  0  0  0  0  0  0  0  0
   -1.5237   18.7685  -28.4213 H   0  0  0  0  0  0  0  0  0  0  0  0
   -1.5305   18.2301  -26.6968 H   0  0  0  0  0  0  0  0  0  0  0  0
   -3.6215   19.4759  -27.4914 H   0  0  0  0  0  0  0  0  0  0  0  0
   -2.8051   20.1227  -26.0076 H   0  0  0  0  0  0  0  0  0  0  0  0
   -4.0675   22.8901  -31.6240 H   0  0  0  0  0  0  0  0  0  0  0  0
   -4.7864   20.8469  -32.8971 H   0  0  0  0  0  0  0  0  0  0  0  0
  1  2  1  0
  2  3  1  0
  3  4  2  0
  3  5  1  0
  5  6  2  0
  5  7  1  0
  7  8  2  0
  8  9  1  0
  9 10  1  0
 10 11  2  0
 10 12  2  0
 10 13  1  0
 13 14  1  0
 14 15  2  0
 15 16  1  0
 16 17  2  0
 17 18  1  0
 18 19  2  0
 19 20  1  0
 17 21  1  0
 21 22  1  0
 22 23  1  0
 23 24  1  0
  9 25  2  0
 25 26  1  0
 26 27  2  0
 27  2  1  0
 27  7  1  0
 19 14  1  0
 24 16  1  0
  1 28  1  0
  1 29  1  0
  1 30  1  0
  8 31  1  0
 15 32  1  0
 18 33  1  0
 20 34  1  0
 21 35  1  0
 21 36  1  0
 22 37  1  0
 23 38  1  0
 23 39  1  0
 24 40  1  0
 24 41  1  0
 25 42  1  0
 26 43  1  0
M  CHG  1  13  -1
M  END
>  <UniqueID>  (19) 
19

>  <SMILES>  (19) 
CN1C(=O)C(=O)c2cc(S(=O)(=O)[N-]c3cc4c(cc3O)CNCC4)ccc21

>  <Energy>  (19) 
82.96054463294698

>  <Genealogy>  (19) 
CN1C(=O)C(=O)c2cc(S(=O)(=O)[N-]c3cc4c(cc3O)CNCC4)ccc21 (protonated)
CN1C(=O)C(=O)c2cc(S(=O)(=O)[N-]c3cc4c(cc3O)CNCC4)ccc21 (3D coordinates assigned)
CN1C(=O)C(=O)c2cc(S(=O)(=O)[N-]c3cc4c(cc3O)CNCC4)ccc21 (nonaromatic ring conformer: 82.96054463294698 kcal/mol)

>  <smiles>  (19) 
CN1C(=O)C(=O)c2cc(S(=O)(=O)Nc3cc4c(cc3O)CNCC4)ccc21

>  <score_type>  (19) 
oracle

>  <origin>  (19) 
adgpu

>  <m_score__min__energy>  (19) 
-12.550000000000001

>  <m_primary>  (19) 
energy

$$$$
19:0
     RDKit          3D

 61 64  0  0  0  0  0  0  0  0999 V2000
   -0.6660   20.9210  -27.7320 C   0  0  0  0  0  0  0  0  0  0  0  0
   -1.3140   20.8040  -29.0840 C   0  0  0  0  0  0  0  0  0  0  0  0
   -0.7030   19.9950  -30.0560 C   0  0  0  0  0  0  0  0  0  0  0  0
   -1.2500   19.8830  -31.3360 C   0  0  0  0  0  0  0  0  0  0  0  0
   -2.4120   20.5860  -31.6690 C   0  0  0  0  0  0  0  0  0  0  0  0
   -3.0950   20.4470  -33.2880 S   0  0  0  0  0  0  0  0  0  0  0  0
   -4.1710   21.4840  -33.4420 O   0  0  0  0  0  0  0  0  0  0  0  0
   -2.0170   20.6970  -34.3080 O   0  0  0  0  0  0  0  0  0  0  0  0
   -3.7740   18.8560  -33.5320 N   0  0  0  0  0  0  0  0  0  0  0  0
   -2.7630   17.9520  -34.1000 C   0  0  0  0  0  0  0  0  0  0  0  0
   -3.3680   16.5470  -34.3060 C   0  0  0  0  0  0  0  0  0  0  0  0
   -4.7750   16.5320  -34.1330 O   0  0  0  0  0  0  0  0  0  0  0  0
   -5.3670   17.5460  -34.9210 C   0  0  0  0  0  0  0  0  0  0  0  0
   -4.9400   18.9440  -34.4300 C   0  0  0  0  0  0  0  0  0  0  0  0
   -3.0260   21.4000  -30.7100 C   0  0  0  0  0  0  0  0  0  0  0  0
   -2.5190   21.4750  -29.4060 C   0  0  0  0  0  0  0  0  0  0  0  0
   -3.2630   22.2210  -28.4340 N   0  0  0  0  0  0  0  0  0  0  0  0
   -3.9200   23.4780  -28.6640 C   0  0  0  0  0  0  0  0  0  0  0  0
   -3.5820   24.4670  -27.9630 O   0  0  0  0  0  0  0  0  0  0  0  0
   -4.9540   23.6510  -29.7180 C   0  0  0  0  0  0  0  0  0  0  0  0
   -6.0080   22.7270  -29.8340 C   0  0  0  0  0  0  0  0  0  0  0  0
   -7.0140   22.9020  -30.7910 C   0  0  0  0  0  0  0  0  0  0  0  0
   -8.3590   21.7640  -30.8760 S   0  0  0  0  0  0  0  0  0  0  0  0
   -9.1810   22.0680  -32.0970 O   0  0  0  0  0  0  0  0  0  0  0  0
   -9.2320   21.9390  -29.6630 O   0  0  0  0  0  0  0  0  0  0  0  0
   -7.7670   20.1250  -30.9690 N   0  0  0  0  0  0  0  0  0  0  0  0
   -8.6560   19.3090  -31.8170 C   0  0  0  0  0  0  0  0  0  0  0  0
   -7.9820   17.9810  -32.2130 C   0  0  0  0  0  0  0  0  0  0  0  0
   -6.8810   17.7070  -31.3710 O   0  0  0  0  0  0  0  0  0  0  0  0
   -5.8640   18.6740  -31.5780 C   0  0  0  0  0  0  0  0  0  0  0  0
   -6.4000   20.1200  -31.5110 C   0  0  0  0  0  0  0  0  0  0  0  0
   -6.9440   23.9800  -31.6790 C   0  0  0  0  0  0  0  0  0  0  0  0
   -5.8870   24.8870  -31.5970 C   0  0  0  0  0  0  0  0  0  0  0  0
   -4.8950   24.7360  -30.6180 C   0  0  0  0  0  0  0  0  0  0  0  0
   -3.8630   25.6700  -30.5300 O   0  0  0  0  0  0  0  0  0  0  0  0
   -1.4256   20.7839  -26.9482 H   0  0  0  0  0  0  0  0  0  0  0  0
    0.1104   20.1485  -27.6294 H   0  0  0  0  0  0  0  0  0  0  0  0
   -0.2088   21.9162  -27.6294 H   0  0  0  0  0  0  0  0  0  0  0  0
    0.2158   19.4440  -29.8065 H   0  0  0  0  0  0  0  0  0  0  0  0
   -0.7651   19.2395  -32.0849 H   0  0  0  0  0  0  0  0  0  0  0  0
   -2.4231   18.3479  -35.0684 H   0  0  0  0  0  0  0  0  0  0  0  0
   -1.9118   17.8808  -33.4069 H   0  0  0  0  0  0  0  0  0  0  0  0
   -3.1342   16.2082  -35.3261 H   0  0  0  0  0  0  0  0  0  0  0  0
   -2.9306   15.8800  -33.5485 H   0  0  0  0  0  0  0  0  0  0  0  0
   -5.0512   17.4197  -35.9671 H   0  0  0  0  0  0  0  0  0  0  0  0
   -6.4606   17.4629  -34.8372 H   0  0  0  0  0  0  0  0  0  0  0  0
   -4.6786   19.5659  -35.2988 H   0  0  0  0  0  0  0  0  0  0  0  0
   -5.7774   19.3907  -33.8738 H   0  0  0  0  0  0  0  0  0  0  0  0
   -3.9155   21.9867  -30.9829 H   0  0  0  0  0  0  0  0  0  0  0  0
   -6.0421   21.8554  -29.1638 H   0  0  0  0  0  0  0  0  0  0  0  0
   -9.5805   19.0909  -31.2623 H   0  0  0  0  0  0  0  0  0  0  0  0
   -8.8787   19.8742  -32.7341 H   0  0  0  0  0  0  0  0  0  0  0  0
   -8.7144   17.1649  -32.1262 H   0  0  0  0  0  0  0  0  0  0  0  0
   -7.6218   18.0634  -33.2491 H   0  0  0  0  0  0  0  0  0  0  0  0
   -5.0937   18.5471  -30.8030 H   0  0  0  0  0  0  0  0  0  0  0  0
   -5.4535   18.5164  -32.5863 H   0  0  0  0  0  0  0  0  0  0  0  0
   -5.7478   20.7205  -30.8598 H   0  0  0  0  0  0  0  0  0  0  0  0
   -6.4117   20.5481  -32.5242 H   0  0  0  0  0  0  0  0  0  0  0  0
   -7.7236   24.1131  -32.4435 H   0  0  0  0  0  0  0  0  0  0  0  0
   -5.8316   25.7266  -32.3056 H   0  0  0  0  0  0  0  0  0  0  0  0
   -3.1920   25.6510  -29.7700 H   0  0  0  0  0  0  0  0  0  0  0  0
  1  2  1  0
  2  3  2  0
  3  4  1  0
  4  5  2  0
  5  6  1  0
  6  7  2  0
  6  8  2  0
  6  9  1  0
  9 10  1  0
 10 11  1  0
 11 12  1  0
 12 13  1  0
 13 14  1  0
  5 15  1  0
 15 16  2  0
 16 17  1  0
 17 18  1  0
 18 19  2  0
 18 20  1  0
 20 21  2  0
 21 22  1  0
 22 23  1  0
 23 24  2  0
 23 25  2  0
 23 26  1  0
 26 27  1  0
 27 28  1  0
 28 29  1  0
 29 30  1  0
 30 31  1  0
 22 32  2  0
 32 33  1  0
 33 34  2  0
 34 35  1  0
 16  2  1  0
 34 20  1  0
 14  9  1  0
 31 26  1  0
  1 36  1  0
  1 37  1  0
  1 38  1  0
  3 39  1  0
  4 40  1  0
 10 41  1  0
 10 42  1  0
 11 43  1  0
 11 44  1  0
 13 45  1  0
 13 46  1  0
 14 47  1  0
 14 48  1  0
 15 49  1  0
 21 50  1  0
 27 51  1  0
 27 52  1  0
 28 53  1  0
 28 54  1  0
 30 55  1  0
 30 56  1  0
 31 57  1  0
 31 58  1  0
 32 59  1  0
 33 60  1  0
 35 61  1  0
M  CHG  1  17  -1
M  END
>  <UniqueID>  (20) 
20

>  <SMILES>  (20) 
Cc1ccc(S(=O)(=O)N2CCOCC2)cc1[N-]C(=O)c1cc(S(=O)(=O)N2CCOCC2)ccc1O

>  <Energy>  (20) 
83.35195513574823

>  <Genealogy>  (20) 
Cc1ccc(S(=O)(=O)N2CCOCC2)cc1[N-]C(=O)c1cc(S(=O)(=O)N2CCOCC2)ccc1O (protonated)
Cc1ccc(S(=O)(=O)N2CCOCC2)cc1[N-]C(=O)c1cc(S(=O)(=O)N2CCOCC2)ccc1O (3D coordinates assigned)
Cc1ccc(S(=O)(=O)N2CCOCC2)cc1[N-]C(=O)c1cc(S(=O)(=O)N2CCOCC2)ccc1O (nonaromatic ring conformer: 83.35195513574823 kcal/mol)

>  <smiles>  (20) 
Cc1ccc(S(=O)(=O)N2CCOCC2)cc1NC(=O)c1cc(S(=O)(=O)N2CCOCC2)ccc1O

>  <score_type>  (20) 
oracle

>  <origin>  (20) 
adgpu

>  <m_score__min__energy>  (20) 
-12.720000000000001

>  <m_primary>  (20) 
energy

$$$$
20:0
     RDKit          3D

 50 53  0  0  0  0  0  0  0  0999 V2000
    0.2970   17.4210  -27.6030 C   0  0  0  0  0  0  0  0  0  0  0  0
   -0.8900   18.0850  -27.1880 O   0  0  0  0  0  0  0  0  0  0  0  0
   -1.2690   19.3670  -27.6110 C   0  0  0  0  0  0  0  0  0  0  0  0
   -0.5250   19.9800  -28.6260 C   0  0  0  0  0  0  0  0  0  0  0  0
   -0.8870   21.2390  -29.1120 C   0  0  0  0  0  0  0  0  0  0  0  0
   -2.0050   21.9050  -28.5890 C   0  0  0  0  0  0  0  0  0  0  0  0
   -2.4480   23.2290  -29.1540 C   0  0  0  0  0  0  0  0  0  0  0  0
   -3.8100   23.5750  -28.6930 N   0  0  0  0  0  0  0  0  0  0  0  0
   -3.7500   24.5280  -27.5670 C   0  0  0  0  0  0  0  0  0  0  0  0
   -2.3670   25.0870  -27.4420 C   0  0  0  0  0  0  0  0  0  0  0  0
   -1.5430   24.9710  -26.3400 C   0  0  0  0  0  0  0  0  0  0  0  0
   -0.3860   25.6400  -26.6720 C   0  0  0  0  0  0  0  0  0  0  0  0
   -0.5770   26.1280  -27.9490 C   0  0  0  0  0  0  0  0  0  0  0  0
   -1.7690   25.7840  -28.3800 O   0  0  0  0  0  0  0  0  0  0  0  0
   -4.7590   24.2550  -30.0060 S   0  0  0  0  0  0  0  0  0  0  0  0
   -5.9420   25.0120  -29.4720 O   0  0  0  0  0  0  0  0  0  0  0  0
   -3.9140   25.1980  -30.8180 O   0  0  0  0  0  0  0  0  0  0  0  0
   -5.3700   22.9560  -31.0260 C   0  0  0  0  0  0  0  0  0  0  0  0
   -4.4790   22.1510  -31.7830 C   0  0  0  0  0  0  0  0  0  0  0  0
   -4.9590   21.0560  -32.5250 C   0  0  0  0  0  0  0  0  0  0  0  0
   -6.3310   20.8100  -32.4980 C   0  0  0  0  0  0  0  0  0  0  0  0
   -7.1910   21.5930  -31.7810 C   0  0  0  0  0  0  0  0  0  0  0  0
   -6.7530   22.6840  -31.0380 C   0  0  0  0  0  0  0  0  0  0  0  0
   -8.4100   21.1240  -31.9040 O   0  0  0  0  0  0  0  0  0  0  0  0
   -8.3020   20.0600  -32.6820 C   0  0  0  0  0  0  0  0  0  0  0  0
   -9.2820   19.3390  -33.0050 O   0  0  0  0  0  0  0  0  0  0  0  0
   -7.0300   19.8270  -33.0890 N   0  0  0  0  0  0  0  0  0  0  0  0
   -6.5230   18.6870  -33.8460 C   0  0  0  0  0  0  0  0  0  0  0  0
   -2.7310   21.3120  -27.5430 C   0  0  0  0  0  0  0  0  0  0  0  0
   -2.3720   20.0500  -27.0610 C   0  0  0  0  0  0  0  0  0  0  0  0
    0.8672   17.1020  -26.7181 H   0  0  0  0  0  0  0  0  0  0  0  0
    0.0325   16.5398  -28.2060 H   0  0  0  0  0  0  0  0  0  0  0  0
    0.9095   18.1075  -28.2060 H   0  0  0  0  0  0  0  0  0  0  0  0
    0.3526   19.4658  -29.0448 H   0  0  0  0  0  0  0  0  0  0  0  0
   -0.2923   21.7100  -29.9086 H   0  0  0  0  0  0  0  0  0  0  0  0
   -1.7480   24.0118  -28.8264 H   0  0  0  0  0  0  0  0  0  0  0  0
   -2.4586   23.1549  -30.2514 H   0  0  0  0  0  0  0  0  0  0  0  0
   -4.4598   25.3490  -27.7465 H   0  0  0  0  0  0  0  0  0  0  0  0
   -4.0129   24.0040  -26.6363 H   0  0  0  0  0  0  0  0  0  0  0  0
   -1.7643   24.4529  -25.3952 H   0  0  0  0  0  0  0  0  0  0  0  0
    0.5101   25.7611  -26.0456 H   0  0  0  0  0  0  0  0  0  0  0  0
    0.1576   26.7157  -28.5191 H   0  0  0  0  0  0  0  0  0  0  0  0
   -3.4042   22.3852  -31.7896 H   0  0  0  0  0  0  0  0  0  0  0  0
   -4.2766   20.4174  -33.1052 H   0  0  0  0  0  0  0  0  0  0  0  0
   -7.4614   23.3130  -30.4790 H   0  0  0  0  0  0  0  0  0  0  0  0
   -6.1770   17.9090  -33.1495 H   0  0  0  0  0  0  0  0  0  0  0  0
   -7.3256   18.2814  -34.4795 H   0  0  0  0  0  0  0  0  0  0  0  0
   -5.6843   19.0113  -34.4795 H   0  0  0  0  0  0  0  0  0  0  0  0
   -3.5866   21.8435  -27.1008 H   0  0  0  0  0  0  0  0  0  0  0  0
   -2.9529   19.5882  -26.2490 H   0  0  0  0  0  0  0  0  0  0  0  0
  1  2  1  0
  2  3  1  0
  3  4  2  0
  4  5  1  0
  5  6  2  0
  6  7  1  0
  7  8  1  0
  8  9  1  0
  9 10  1  0
 10 11  2  0
 11 12  1  0
 12 13  2  0
 13 14  1  0
  8 15  1  0
 15 16  2  0
 15 17  2  0
 15 18  1  0
 18 19  2  0
 19 20  1  0
 20 21  2  0
 21 22  1  0
 22 23  2  0
 22 24  1  0
 24 25  1  0
 25 26  2  0
 25 27  1  0
 27 28  1  0
  6 29  1  0
 29 30  2  0
 30  3  1  0
 14 10  1  0
 23 18  1  0
 27 21  1  0
  1 31  1  0
  1 32  1  0
  1 33  1  0
  4 34  1  0
  5 35  1  0
  7 36  1  0
  7 37  1  0
  9 38  1  0
  9 39  1  0
 11 40  1  0
 12 41  1  0
 13 42  1  0
 19 43  1  0
 20 44  1  0
 23 45  1  0
 28 46  1  0
 28 47  1  0
 28 48  1  0
 29 49  1  0
 30 50  1  0
M  END
>  <UniqueID>  (21) 
21

>  <SMILES>  (21) 
COc1ccc(CN(Cc2ccco2)S(=O)(=O)c2ccc3c(c2)oc(=O)n3C)cc1

>  <Energy>  (21) 
114.31415654613093

>  <Genealogy>  (21) 
COc1ccc(CN(Cc2ccco2)S(=O)(=O)c2ccc3c(c2)oc(=O)n3C)cc1 (3D coordinates assigned)
COc1ccc(CN(Cc2ccco2)S(=O)(=O)c2ccc3c(c2)oc(=O)n3C)cc1 (optimized conformer: 114.31415654613093 kcal/mol)

>  <smiles>  (21) 
COc1ccc(CN(Cc2ccco2)S(=O)(=O)c2ccc3c(c2)oc(=O)n3C)cc1

>  <score_type>  (21) 
oracle

>  <origin>  (21) 
adgpu

>  <m_score__min__energy>  (21) 
-9.5199999999999996

>  <m_primary>  (21) 
energy

$$$$
21:0
     RDKit          3D

 44 47  0  0  0  0  0  0  0  0999 V2000
    0.5360   19.8720  -28.4240 C   0  0  0  0  0  0  0  0  0  0  0  0
   -0.2030   20.3630  -27.2490 N   0  0  0  0  0  0  0  0  0  0  0  0
   -1.6160   19.9350  -27.2410 C   0  0  0  0  0  0  0  0  0  0  0  0
   -2.4210   20.5510  -28.3950 C   0  0  0  0  0  0  0  0  0  0  0  0
   -2.1280   22.0160  -28.5790 C   0  0  0  0  0  0  0  0  0  0  0  0
   -2.9740   22.7830  -29.3960 C   0  0  0  0  0  0  0  0  0  0  0  0
   -2.6960   24.1410  -29.6410 C   0  0  0  0  0  0  0  0  0  0  0  0
   -3.5470   24.9530  -30.4640 N   0  0  0  0  0  0  0  0  0  0  0  0
   -5.2790   24.8870  -30.4840 S   0  0  0  0  0  0  0  0  0  0  0  0
   -5.7980   24.9320  -29.0740 O   0  0  0  0  0  0  0  0  0  0  0  0
   -5.8090   26.0760  -31.2320 O   0  0  0  0  0  0  0  0  0  0  0  0
   -5.8060   23.4170  -31.3000 C   0  0  0  0  0  0  0  0  0  0  0  0
   -7.1530   23.0220  -31.2690 C   0  0  0  0  0  0  0  0  0  0  0  0
   -7.5560   21.8440  -31.9080 C   0  0  0  0  0  0  0  0  0  0  0  0
   -6.6170   21.0630  -32.5850 C   0  0  0  0  0  0  0  0  0  0  0  0
   -5.2680   21.4400  -32.5990 C   0  0  0  0  0  0  0  0  0  0  0  0
   -4.8640   22.6210  -31.9660 C   0  0  0  0  0  0  0  0  0  0  0  0
   -4.3380   20.6240  -33.2510 O   0  0  0  0  0  0  0  0  0  0  0  0
   -4.6790   19.3010  -33.6690 C   0  0  0  0  0  0  0  0  0  0  0  0
   -6.1240   19.2590  -34.1870 C   0  0  0  0  0  0  0  0  0  0  0  0
   -7.0030   19.8970  -33.2570 O   0  0  0  0  0  0  0  0  0  0  0  0
   -1.5490   24.7180  -29.0770 C   0  0  0  0  0  0  0  0  0  0  0  0
   -1.2480   26.0570  -29.3190 O   0  0  0  0  0  0  0  0  0  0  0  0
   -0.7000   23.9570  -28.2710 C   0  0  0  0  0  0  0  0  0  0  0  0
   -0.9730   22.6030  -28.0250 C   0  0  0  0  0  0  0  0  0  0  0  0
   -0.0780   21.8250  -27.0880 C   0  0  0  0  0  0  0  0  0  0  0  0
    1.4094   19.2917  -28.0917 H   0  0  0  0  0  0  0  0  0  0  0  0
   -0.1217   19.2307  -29.0291 H   0  0  0  0  0  0  0  0  0  0  0  0
    0.8724   20.7268  -29.0291 H   0  0  0  0  0  0  0  0  0  0  0  0
   -1.6537   18.8392  -27.3295 H   0  0  0  0  0  0  0  0  0  0  0  0
   -2.0652   20.2789  -26.2977 H   0  0  0  0  0  0  0  0  0  0  0  0
   -2.1685   20.0204  -29.3249 H   0  0  0  0  0  0  0  0  0  0  0  0
   -3.4889   20.4498  -28.1514 H   0  0  0  0  0  0  0  0  0  0  0  0
   -3.8623   22.3184  -29.8488 H   0  0  0  0  0  0  0  0  0  0  0  0
   -7.8937   23.6403  -30.7408 H   0  0  0  0  0  0  0  0  0  0  0  0
   -8.6109   21.5337  -31.8770 H   0  0  0  0  0  0  0  0  0  0  0  0
   -3.8070   22.9246  -31.9912 H   0  0  0  0  0  0  0  0  0  0  0  0
   -3.9966   18.9877  -34.4728 H   0  0  0  0  0  0  0  0  0  0  0  0
   -4.5882   18.6207  -32.8094 H   0  0  0  0  0  0  0  0  0  0  0  0
   -6.1782   19.7805  -35.1540 H   0  0  0  0  0  0  0  0  0  0  0  0
   -6.4308   18.2095  -34.3073 H   0  0  0  0  0  0  0  0  0  0  0  0
    0.1909   24.4232  -27.8249 H   0  0  0  0  0  0  0  0  0  0  0  0
    0.9661   22.1108  -27.2833 H   0  0  0  0  0  0  0  0  0  0  0  0
   -0.3866   22.0696  -26.0609 H   0  0  0  0  0  0  0  0  0  0  0  0
  1  2  1  0
  2  3  1  0
  3  4  1  0
  4  5  1  0
  5  6  2  0
  6  7  1  0
  7  8  1  0
  8  9  1  0
  9 10  2  0
  9 11  2  0
  9 12  1  0
 12 13  2  0
 13 14  1  0
 14 15  2  0
 15 16  1  0
 16 17  2  0
 16 18  1  0
 18 19  1  0
 19 20  1  0
 20 21  1  0
  7 22  2  0
 22 23  1  0
 22 24  1  0
 24 25  2  0
 25 26  1  0
 26  2  1  0
 25  5  1  0
 17 12  1  0
 21 15  1  0
  1 27  1  0
  1 28  1  0
  1 29  1  0
  3 30  1  0
  3 31  1  0
  4 32  1  0
  4 33  1  0
  6 34  1  0
 13 35  1  0
 14 36  1  0
 17 37  1  0
 19 38  1  0
 19 39  1  0
 20 40  1  0
 20 41  1  0
 24 42  1  0
 26 43  1  0
 26 44  1  0
M  CHG  2   8  -1  23  -1
M  END
>  <UniqueID>  (22) 
22

>  <SMILES>  (22) 
CN1CCc2cc([N-]S(=O)(=O)c3ccc4c(c3)OCCO4)c([O-])cc2C1

>  <Energy>  (22) 
56.21582915543306

>  <Genealogy>  (22) 
CN1CCc2cc([N-]S(=O)(=O)c3ccc4c(c3)OCCO4)c([O-])cc2C1 (protonated)
CN1CCc2cc([N-]S(=O)(=O)c3ccc4c(c3)OCCO4)c([O-])cc2C1 (3D coordinates assigned)
CN1CCc2cc([N-]S(=O)(=O)c3ccc4c(c3)OCCO4)c([O-])cc2C1 (nonaromatic ring conformer: 56.21582915543306 kcal/mol)

>  <smiles>  (22) 
CN1CCc2cc(NS(=O)(=O)c3ccc4c(c3)OCCO4)c(O)cc2C1

>  <score_type>  (22) 
oracle

>  <origin>  (22) 
adgpu

>  <m_score__min__energy>  (22) 
-13.6

>  <m_primary>  (22) 
energy

$$$$
22:0
     RDKit          3D

 48 50  0  0  0  0  0  0  0  0999 V2000
   -5.9580   23.8010  -31.9260 C   0  0  0  0  0  0  0  0  0  0  0  0
   -5.0160   24.6640  -31.1920 N   0  0  0  0  0  0  0  0  0  0  0  0
   -5.7290   25.6450  -30.3590 C   0  0  0  0  0  0  0  0  0  0  0  0
   -3.9850   23.9000  -30.4510 C   0  0  0  0  0  0  0  0  0  0  0  0
   -3.5180   24.5470  -29.1330 C   0  0  0  0  0  0  0  0  0  0  0  0
   -2.2720   25.2760  -29.3400 N   0  0  0  0  0  0  0  0  0  0  0  0
   -1.0480   25.0840  -28.6210 C   0  0  0  0  0  0  0  0  0  0  0  0
   -0.4590   26.0990  -28.1640 O   0  0  0  0  0  0  0  0  0  0  0  0
   -0.4800   23.7530  -28.3260 C   0  0  0  0  0  0  0  0  0  0  0  0
    0.5930   23.4940  -27.4740 C   0  0  0  0  0  0  0  0  0  0  0  0
    0.9190   22.1800  -27.5170 N   0  0  0  0  0  0  0  0  0  0  0  0
    0.0930   21.6130  -28.3780 N   0  0  0  0  0  0  0  0  0  0  0  0
    0.0930   20.3180  -28.7700 C   0  0  0  0  0  0  0  0  0  0  0  0
   -0.8250   19.9300  -29.7540 C   0  0  0  0  0  0  0  0  0  0  0  0
   -1.7010   20.9000  -30.3000 C   0  0  0  0  0  0  0  0  0  0  0  0
   -2.6530   20.5420  -31.3200 N   0  0  0  0  0  0  0  0  0  0  0  0
   -2.2100   19.8020  -32.5070 C   0  0  0  0  0  0  0  0  0  0  0  0
   -3.1140   20.1300  -33.7070 C   0  0  0  0  0  0  0  0  0  0  0  0
   -4.5680   19.9860  -33.4260 N   0  0  0  0  0  0  0  0  0  0  0  0
   -5.1600   18.8840  -34.2020 C   0  0  0  0  0  0  0  0  0  0  0  0
   -4.9130   19.8430  -31.9940 C   0  0  0  0  0  0  0  0  0  0  0  0
   -4.0860   20.7910  -31.1230 C   0  0  0  0  0  0  0  0  0  0  0  0
   -1.6400   22.1930  -29.8520 N   0  0  0  0  0  0  0  0  0  0  0  0
   -0.7490   22.5200  -28.8830 C   0  0  0  0  0  0  0  0  0  0  0  0
   -6.5734   23.2372  -31.2094 H   0  0  0  0  0  0  0  0  0  0  0  0
   -6.6087   24.4230  -32.5583 H   0  0  0  0  0  0  0  0  0  0  0  0
   -5.3952   23.0985  -32.5583 H   0  0  0  0  0  0  0  0  0  0  0  0
   -5.5615   25.4145  -29.2965 H   0  0  0  0  0  0  0  0  0  0  0  0
   -5.3528   26.6550  -30.5788 H   0  0  0  0  0  0  0  0  0  0  0  0
   -6.8058   25.5989  -30.5788 H   0  0  0  0  0  0  0  0  0  0  0  0
   -4.3981   22.9078  -30.2166 H   0  0  0  0  0  0  0  0  0  0  0  0
   -3.1013   23.8614  -31.1049 H   0  0  0  0  0  0  0  0  0  0  0  0
   -4.2911   25.2438  -28.7771 H   0  0  0  0  0  0  0  0  0  0  0  0
   -3.3501   23.7567  -28.3866 H   0  0  0  0  0  0  0  0  0  0  0  0
    1.1016   24.2484  -26.8558 H   0  0  0  0  0  0  0  0  0  0  0  0
    0.7924   19.5923  -28.3294 H   0  0  0  0  0  0  0  0  0  0  0  0
   -0.8652   18.8860  -30.0982 H   0  0  0  0  0  0  0  0  0  0  0  0
   -1.1738   20.0843  -32.7451 H   0  0  0  0  0  0  0  0  0  0  0  0
   -2.2678   18.7234  -32.2991 H   0  0  0  0  0  0  0  0  0  0  0  0
   -2.9217   21.1695  -34.0111 H   0  0  0  0  0  0  0  0  0  0  0  0
   -2.8692   19.4054  -34.4976 H   0  0  0  0  0  0  0  0  0  0  0  0
   -5.5662   18.1279  -33.5140 H   0  0  0  0  0  0  0  0  0  0  0  0
   -5.9693   19.2754  -34.8359 H   0  0  0  0  0  0  0  0  0  0  0  0
   -4.3869   18.4253  -34.8359 H   0  0  0  0  0  0  0  0  0  0  0  0
   -5.9803   20.0719  -31.8584 H   0  0  0  0  0  0  0  0  0  0  0  0
   -4.6932   18.8100  -31.6865 H   0  0  0  0  0  0  0  0  0  0  0  0
   -4.3152   21.8308  -31.3992 H   0  0  0  0  0  0  0  0  0  0  0  0
   -4.3378   20.6182  -30.0662 H   0  0  0  0  0  0  0  0  0  0  0  0
  1  2  1  0
  2  3  1  0
  2  4  1  0
  4  5  1  0
  5  6  1  0
  6  7  1  0
  7  8  2  0
  7  9  1  0
  9 10  1  0
 10 11  2  0
 11 12  1  0
 12 13  1  0
 13 14  2  0
 14 15  1  0
 15 16  1  0
 16 17  1  0
 17 18  1  0
 18 19  1  0
 19 20  1  0
 19 21  1  0
 21 22  1  0
 15 23  2  0
 23 24  1  0
 24  9  2  0
 24 12  1  0
 22 16  1  0
  1 25  1  0
  1 26  1  0
  1 27  1  0
  3 28  1  0
  3 29  1  0
  3 30  1  0
  4 31  1  0
  4 32  1  0
  5 33  1  0
  5 34  1  0
 10 35  1  0
 13 36  1  0
 14 37  1  0
 17 38  1  0
 17 39  1  0
 18 40  1  0
 18 41  1  0
 20 42  1  0
 20 43  1  0
 20 44  1  0
 21 45  1  0
 21 46  1  0
 22 47  1  0
 22 48  1  0
M  CHG  1   6  -1
M  END
>  <UniqueID>  (23) 
23

>  <SMILES>  (23) 
CN(C)CC[N-]C(=O)c1cnn2ccc(N3CCN(C)CC3)nc12

>  <Energy>  (23) 
99.5767873015922

>  <Genealogy>  (23) 
CN(C)CC[N-]C(=O)c1cnn2ccc(N3CCN(C)CC3)nc12 (protonated)
CN(C)CC[N-]C(=O)c1cnn2ccc(N3CCN(C)CC3)nc12 (3D coordinates assigned)
CN(C)CC[N-]C(=O)c1cnn2ccc(N3CCN(C)CC3)nc12 (nonaromatic ring conformer: 99.5767873015922 kcal/mol)

>  <smiles>  (23) 
CN(C)CCNC(=O)c1cnn2ccc(N3CCN(C)CC3)nc12

>  <score_type>  (23) 
oracle

>  <origin>  (23) 
adgpu

>  <m_score__min__energy>  (23) 
-9.2400000000000002

>  <m_primary>  (23) 
energy

$$$$
23:0
     RDKit          3D

 39 41  0  0  0  0  0  0  0  0999 V2000
   -3.9760   23.7620  -27.7670 O   0  0  0  0  0  0  0  0  0  0  0  0
   -2.8890   24.1830  -28.2490 C   0  0  0  0  0  0  0  0  0  0  0  0
   -2.5680   23.9180  -29.6240 N   0  0  0  0  0  0  0  0  0  0  0  0
   -3.1460   22.8470  -30.3900 C   0  0  0  0  0  0  0  0  0  0  0  0
   -2.3090   21.8700  -30.9500 C   0  0  0  0  0  0  0  0  0  0  0  0
   -2.8490   20.8080  -31.6820 C   0  0  0  0  0  0  0  0  0  0  0  0
   -4.2350   20.6980  -31.8450 C   0  0  0  0  0  0  0  0  0  0  0  0
   -4.9130   19.3760  -32.7860 S   0  0  0  0  0  0  0  0  0  0  0  0
   -4.6110   19.5780  -34.2450 O   0  0  0  0  0  0  0  0  0  0  0  0
   -4.2950   18.0730  -32.3590 O   0  0  0  0  0  0  0  0  0  0  0  0
   -6.6520   19.3250  -32.5350 C   0  0  0  0  0  0  0  0  0  0  0  0
   -7.4540   20.4070  -32.9290 C   0  0  0  0  0  0  0  0  0  0  0  0
   -8.8350   20.3740  -32.7110 C   0  0  0  0  0  0  0  0  0  0  0  0
   -9.4190   19.2650  -32.0910 C   0  0  0  0  0  0  0  0  0  0  0  0
   -8.6240   18.1900  -31.6880 C   0  0  0  0  0  0  0  0  0  0  0  0
   -7.2430   18.2190  -31.9060 C   0  0  0  0  0  0  0  0  0  0  0  0
   -5.0770   21.6630  -31.2770 C   0  0  0  0  0  0  0  0  0  0  0  0
   -4.5380   22.7250  -30.5460 C   0  0  0  0  0  0  0  0  0  0  0  0
   -1.9930   25.0090  -27.4060 C   0  0  0  0  0  0  0  0  0  0  0  0
   -1.8970   24.7400  -26.0280 C   0  0  0  0  0  0  0  0  0  0  0  0
   -1.0660   25.5110  -25.2100 C   0  0  0  0  0  0  0  0  0  0  0  0
   -0.3150   26.5520  -25.7580 C   0  0  0  0  0  0  0  0  0  0  0  0
   -0.3870   26.8200  -27.1260 C   0  0  0  0  0  0  0  0  0  0  0  0
   -1.2130   26.0510  -27.9550 C   0  0  0  0  0  0  0  0  0  0  0  0
   -1.2260   26.3170  -29.3200 O   0  0  0  0  0  0  0  0  0  0  0  0
   -1.9630   24.6090  -30.1240 H   0  0  0  0  0  0  0  0  0  0  0  0
   -1.2199   21.9400  -30.8122 H   0  0  0  0  0  0  0  0  0  0  0  0
   -2.1827   20.0568  -32.1311 H   0  0  0  0  0  0  0  0  0  0  0  0
   -6.9953   21.2832  -33.4105 H   0  0  0  0  0  0  0  0  0  0  0  0
   -9.4620   21.2206  -33.0273 H   0  0  0  0  0  0  0  0  0  0  0  0
  -10.5054   19.2394  -31.9206 H   0  0  0  0  0  0  0  0  0  0  0  0
   -9.0847   17.3193  -31.1984 H   0  0  0  0  0  0  0  0  0  0  0  0
   -6.6187   17.3727  -31.5836 H   0  0  0  0  0  0  0  0  0  0  0  0
   -6.1665   21.5844  -31.4069 H   0  0  0  0  0  0  0  0  0  0  0  0
   -5.2067   23.4699  -30.0899 H   0  0  0  0  0  0  0  0  0  0  0  0
   -2.4806   23.9163  -25.5910 H   0  0  0  0  0  0  0  0  0  0  0  0
   -1.0039   25.2969  -24.1328 H   0  0  0  0  0  0  0  0  0  0  0  0
    0.3338   27.1614  -25.1117 H   0  0  0  0  0  0  0  0  0  0  0  0
    0.2082   27.6395  -27.5551 H   0  0  0  0  0  0  0  0  0  0  0  0
  1  2  2  0
  2  3  1  0
  3  4  1  0
  4  5  2  0
  5  6  1  0
  6  7  2  0
  7  8  1  0
  8  9  2  0
  8 10  2  0
  8 11  1  0
 11 12  2  0
 12 13  1  0
 13 14  2  0
 14 15  1  0
 15 16  2  0
  7 17  1  0
 17 18  2  0
  2 19  1  0
 19 20  2  0
 20 21  1  0
 21 22  2  0
 22 23  1  0
 23 24  2  0
 24 25  1  0
 18  4  1  0
 24 19  1  0
 16 11  1  0
  3 26  1  0
  5 27  1  0
  6 28  1  0
 12 29  1  0
 13 30  1  0
 14 31  1  0
 15 32  1  0
 16 33  1  0
 17 34  1  0
 18 35  1  0
 20 36  1  0
 21 37  1  0
 22 38  1  0
 23 39  1  0
M  CHG  1  25  -1
M  END
>  <UniqueID>  (24) 
24

>  <SMILES>  (24) 
O=C(Nc1ccc(S(=O)(=O)c2ccccc2)cc1)c1ccccc1[O-]

>  <Energy>  (24) 
51.41083967856682

>  <Genealogy>  (24) 
O=C(Nc1ccc(S(=O)(=O)c2ccccc2)cc1)c1ccccc1[O-] (protonated)
O=C(Nc1ccc(S(=O)(=O)c2ccccc2)cc1)c1ccccc1[O-] (3D coordinates assigned)
O=C(Nc1ccc(S(=O)(=O)c2ccccc2)cc1)c1ccccc1[O-] (optimized conformer: 51.41083967856682 kcal/mol)

>  <smiles>  (24) 
O=C(Nc1ccc(S(=O)(=O)c2ccccc2)cc1)c1ccccc1O

>  <score_type>  (24) 
oracle

>  <origin>  (24) 
adgpu

>  <m_score__min__energy>  (24) 
-11.82

>  <m_primary>  (24) 
energy

$$$$
24:0
     RDKit          3D

 52 55  0  0  0  0  0  0  0  0999 V2000
   -4.2630   25.5120  -31.1190 O   0  0  0  0  0  0  0  0  0  0  0  0
   -5.3040   25.0740  -30.1270 S   0  0  0  0  0  0  0  0  0  0  0  0
   -6.2980   26.1850  -29.9390 O   0  0  0  0  0  0  0  0  0  0  0  0
   -4.5420   24.7230  -28.6060 N   0  0  0  0  0  0  0  0  0  0  0  0
   -3.3870   23.8750  -28.4820 C   0  0  0  0  0  0  0  0  0  0  0  0
   -3.4970   22.5650  -27.9830 C   0  0  0  0  0  0  0  0  0  0  0  0
   -2.3800   21.7200  -27.9250 C   0  0  0  0  0  0  0  0  0  0  0  0
   -1.1260   22.1930  -28.3560 C   0  0  0  0  0  0  0  0  0  0  0  0
   -1.0010   23.5180  -28.7980 C   0  0  0  0  0  0  0  0  0  0  0  0
   -2.1210   24.3500  -28.8720 C   0  0  0  0  0  0  0  0  0  0  0  0
   -1.9680   25.6490  -29.3420 O   0  0  0  0  0  0  0  0  0  0  0  0
    0.1000   21.3200  -28.2460 C   0  0  0  0  0  0  0  0  0  0  0  0
   -0.2370   19.8920  -28.2430 N   0  0  0  0  0  0  0  0  0  0  0  0
   -1.2300   19.5930  -27.2040 C   0  0  0  0  0  0  0  0  0  0  0  0
   -2.5650   20.2870  -27.5030 C   0  0  0  0  0  0  0  0  0  0  0  0
   -6.0960   23.6250  -30.7430 C   0  0  0  0  0  0  0  0  0  0  0  0
   -7.2580   23.1310  -30.1340 C   0  0  0  0  0  0  0  0  0  0  0  0
   -7.8210   21.9300  -30.5710 C   0  0  0  0  0  0  0  0  0  0  0  0
   -7.2260   21.2100  -31.6190 C   0  0  0  0  0  0  0  0  0  0  0  0
   -7.9140   19.6700  -32.1410 S   0  0  0  0  0  0  0  0  0  0  0  0
   -9.0130   19.9300  -33.1340 O   0  0  0  0  0  0  0  0  0  0  0  0
   -8.5160   18.9700  -30.9540 O   0  0  0  0  0  0  0  0  0  0  0  0
   -6.7100   18.6370  -32.8730 N   0  0  0  0  0  0  0  0  0  0  0  0
   -6.2580   19.1950  -34.1590 C   0  0  0  0  0  0  0  0  0  0  0  0
   -5.4260   18.1600  -34.9430 C   0  0  0  0  0  0  0  0  0  0  0  0
   -5.0070   17.1080  -34.0980 O   0  0  0  0  0  0  0  0  0  0  0  0
   -6.1320   16.3720  -33.6470 C   0  0  0  0  0  0  0  0  0  0  0  0
   -7.2370   17.2790  -33.0650 C   0  0  0  0  0  0  0  0  0  0  0  0
   -6.0770   21.7160  -32.2410 C   0  0  0  0  0  0  0  0  0  0  0  0
   -5.5160   22.9190  -31.8040 C   0  0  0  0  0  0  0  0  0  0  0  0
   -4.8600   25.2830  -27.7810 H   0  0  0  0  0  0  0  0  0  0  0  0
   -4.4733   22.1981  -27.6332 H   0  0  0  0  0  0  0  0  0  0  0  0
   -0.0134   23.9053  -29.0887 H   0  0  0  0  0  0  0  0  0  0  0  0
    0.7603   21.5267  -29.1011 H   0  0  0  0  0  0  0  0  0  0  0  0
    0.5966   21.5526  -27.2924 H   0  0  0  0  0  0  0  0  0  0  0  0
   -0.6270   19.6310  -29.1770 H   0  0  0  0  0  0  0  0  0  0  0  0
   -1.3912   18.5057  -27.1628 H   0  0  0  0  0  0  0  0  0  0  0  0
   -0.8508   19.9633  -26.2401 H   0  0  0  0  0  0  0  0  0  0  0  0
   -3.0737   19.7425  -28.3121 H   0  0  0  0  0  0  0  0  0  0  0  0
   -3.1621   20.2819  -26.5792 H   0  0  0  0  0  0  0  0  0  0  0  0
   -7.7269   23.6901  -29.3109 H   0  0  0  0  0  0  0  0  0  0  0  0
   -8.7342   21.5467  -30.0922 H   0  0  0  0  0  0  0  0  0  0  0  0
   -7.1362   19.4795  -34.7572 H   0  0  0  0  0  0  0  0  0  0  0  0
   -5.6289   20.0751  -33.9598 H   0  0  0  0  0  0  0  0  0  0  0  0
   -6.0396   17.7461  -35.7568 H   0  0  0  0  0  0  0  0  0  0  0  0
   -4.5353   18.6602  -35.3509 H   0  0  0  0  0  0  0  0  0  0  0  0
   -6.5483   15.8088  -34.4953 H   0  0  0  0  0  0  0  0  0  0  0  0
   -5.7926   15.7013  -32.8439 H   0  0  0  0  0  0  0  0  0  0  0  0
   -8.0881   17.3117  -33.7611 H   0  0  0  0  0  0  0  0  0  0  0  0
   -7.5683   16.8756  -32.0968 H   0  0  0  0  0  0  0  0  0  0  0  0
   -5.6159   21.1656  -33.0744 H   0  0  0  0  0  0  0  0  0  0  0  0
   -4.6145   23.3132  -32.2959 H   0  0  0  0  0  0  0  0  0  0  0  0
  1  2  2  0
  2  3  2  0
  2  4  1  0
  4  5  1  0
  5  6  2  0
  6  7  1  0
  7  8  2  0
  8  9  1  0
  9 10  2  0
 10 11  1  0
  8 12  1  0
 12 13  1  0
 13 14  1  0
 14 15  1  0
  2 16  1  0
 16 17  2  0
 17 18  1  0
 18 19  2  0
 19 20  1  0
 20 21  2  0
 20 22  2  0
 20 23  1  0
 23 24  1  0
 24 25  1  0
 25 26  1  0
 26 27  1  0
 27 28  1  0
 19 29  1  0
 29 30  2  0
 10  5  1  0
 30 16  1  0
 15  7  1  0
 28 23  1  0
  4 31  1  0
  6 32  1  0
  9 33  1  0
 12 34  1  0
 12 35  1  0
 13 36  1  0
 14 37  1  0
 14 38  1  0
 15 39  1  0
 15 40  1  0
 17 41  1  0
 18 42  1  0
 24 43  1  0
 24 44  1  0
 25 45  1  0
 25 46  1  0
 27 47  1  0
 27 48  1  0
 28 49  1  0
 28 50  1  0
 29 51  1  0
 30 52  1  0
M  CHG  1  11  -1
M  END
>  <UniqueID>  (25) 
25

>  <SMILES>  (25) 
O=S(=O)(Nc1cc2c(cc1[O-])CNCC2)c1ccc(S(=O)(=O)N2CCOCC2)cc1

>  <Energy>  (25) 
64.00342726338734

>  <Genealogy>  (25) 
O=S(=O)(Nc1cc2c(cc1[O-])CNCC2)c1ccc(S(=O)(=O)N2CCOCC2)cc1 (protonated)
O=S(=O)(Nc1cc2c(cc1[O-])CNCC2)c1ccc(S(=O)(=O)N2CCOCC2)cc1 (3D coordinates assigned)
O=S(=O)(Nc1cc2c(cc1[O-])CNCC2)c1ccc(S(=O)(=O)N2CCOCC2)cc1 (nonaromatic ring conformer: 64.00342726338734 kcal/mol)

>  <smiles>  (25) 
O=S(=O)(Nc1cc2c(cc1O)CNCC2)c1ccc(S(=O)(=O)N2CCOCC2)cc1

>  <score_type>  (25) 
oracle

>  <origin>  (25) 
adgpu

>  <m_score__min__energy>  (25) 
-14.869999999999999

>  <m_primary>  (25) 
energy

$$$$
25:0
     RDKit          3D

 56 59  0  0  0  0  0  0  0  0999 V2000
   -2.1250   21.1390  -30.2750 O   0  0  0  0  0  0  0  0  0  0  0  0
   -2.8100   21.3810  -31.3050 C   0  0  0  0  0  0  0  0  0  0  0  0
   -3.2140   22.7320  -31.5610 N   0  0  0  0  0  0  0  0  0  0  0  0
   -4.5130   23.2820  -31.2940 C   0  0  0  0  0  0  0  0  0  0  0  0
   -5.6860   22.5390  -31.5300 C   0  0  0  0  0  0  0  0  0  0  0  0
   -6.9420   23.0840  -31.2310 C   0  0  0  0  0  0  0  0  0  0  0  0
   -8.4140   22.1480  -31.4770 S   0  0  0  0  0  0  0  0  0  0  0  0
   -9.4450   22.9740  -32.1960 O   0  0  0  0  0  0  0  0  0  0  0  0
   -8.9600   21.7460  -30.1350 O   0  0  0  0  0  0  0  0  0  0  0  0
   -8.0460   20.7190  -32.4160 N   0  0  0  0  0  0  0  0  0  0  0  0
   -9.2710   19.9610  -32.7080 C   0  0  0  0  0  0  0  0  0  0  0  0
   -9.2850   18.7430  -31.8100 C   0  0  0  0  0  0  0  0  0  0  0  0
   -7.8270   18.4630  -31.5510 C   0  0  0  0  0  0  0  0  0  0  0  0
   -7.1500   19.8190  -31.6700 C   0  0  0  0  0  0  0  0  0  0  0  0
   -7.0280   24.3730  -30.6900 C   0  0  0  0  0  0  0  0  0  0  0  0
   -5.8670   25.1080  -30.4400 C   0  0  0  0  0  0  0  0  0  0  0  0
   -4.6140   24.5620  -30.7310 C   0  0  0  0  0  0  0  0  0  0  0  0
   -3.4660   25.2990  -30.4640 O   0  0  0  0  0  0  0  0  0  0  0  0
   -3.1310   20.2780  -32.2400 C   0  0  0  0  0  0  0  0  0  0  0  0
   -2.2440   19.2000  -32.3930 C   0  0  0  0  0  0  0  0  0  0  0  0
   -2.5430   18.1580  -33.2750 C   0  0  0  0  0  0  0  0  0  0  0  0
   -3.7290   18.1820  -34.0210 C   0  0  0  0  0  0  0  0  0  0  0  0
   -4.1170   16.8520  -35.1140 S   0  0  0  0  0  0  0  0  0  0  0  0
   -4.6030   17.4140  -36.4210 O   0  0  0  0  0  0  0  0  0  0  0  0
   -2.8620   16.0720  -35.3900 O   0  0  0  0  0  0  0  0  0  0  0  0
   -5.3280   15.7700  -34.4570 N   0  0  0  0  0  0  0  0  0  0  0  0
   -6.1100   16.3840  -33.3670 C   0  0  0  0  0  0  0  0  0  0  0  0
   -5.3980   16.3190  -31.9970 C   0  0  0  0  0  0  0  0  0  0  0  0
   -4.2140   15.5490  -32.0240 O   0  0  0  0  0  0  0  0  0  0  0  0
   -4.4810   14.2940  -32.6050 C   0  0  0  0  0  0  0  0  0  0  0  0
   -4.7780   14.4430  -34.1070 C   0  0  0  0  0  0  0  0  0  0  0  0
   -4.6060   19.2660  -33.8890 C   0  0  0  0  0  0  0  0  0  0  0  0
   -4.3110   20.3060  -33.0040 C   0  0  0  0  0  0  0  0  0  0  0  0
   -5.6159   21.5253  -31.9513 H   0  0  0  0  0  0  0  0  0  0  0  0
  -10.1543   20.5849  -32.5065 H   0  0  0  0  0  0  0  0  0  0  0  0
   -9.2940   19.6595  -33.7656 H   0  0  0  0  0  0  0  0  0  0  0  0
   -9.8150   18.9565  -30.8700 H   0  0  0  0  0  0  0  0  0  0  0  0
   -9.8056   17.8877  -32.2654 H   0  0  0  0  0  0  0  0  0  0  0  0
   -7.6847   18.0448  -30.5436 H   0  0  0  0  0  0  0  0  0  0  0  0
   -7.4120   17.7260  -32.2543 H   0  0  0  0  0  0  0  0  0  0  0  0
   -6.9609   20.2297  -30.6672 H   0  0  0  0  0  0  0  0  0  0  0  0
   -6.1895   19.7183  -32.1966 H   0  0  0  0  0  0  0  0  0  0  0  0
   -8.0123   24.8075  -30.4614 H   0  0  0  0  0  0  0  0  0  0  0  0
   -5.9391   26.1192  -30.0130 H   0  0  0  0  0  0  0  0  0  0  0  0
   -1.3083   19.1757  -31.8152 H   0  0  0  0  0  0  0  0  0  0  0  0
   -1.8444   17.3154  -33.3841 H   0  0  0  0  0  0  0  0  0  0  0  0
   -6.2904   17.4397  -33.6177 H   0  0  0  0  0  0  0  0  0  0  0  0
   -7.0473   15.8154  -33.2761 H   0  0  0  0  0  0  0  0  0  0  0  0
   -5.1428   17.3428  -31.6861 H   0  0  0  0  0  0  0  0  0  0  0  0
   -6.0885   15.8344  -31.2911 H   0  0  0  0  0  0  0  0  0  0  0  0
   -3.6055   13.6412  -32.4729 H   0  0  0  0  0  0  0  0  0  0  0  0
   -5.3613   13.8558  -32.1119 H   0  0  0  0  0  0  0  0  0  0  0  0
   -3.8428   14.2923  -34.6661 H   0  0  0  0  0  0  0  0  0  0  0  0
   -5.5377   13.6918  -34.3688 H   0  0  0  0  0  0  0  0  0  0  0  0
   -5.5304   19.2986  -34.4843 H   0  0  0  0  0  0  0  0  0  0  0  0
   -5.0065   21.1524  -32.9043 H   0  0  0  0  0  0  0  0  0  0  0  0
  1  2  2  0
  2  3  1  0
  3  4  1  0
  4  5  2  0
  5  6  1  0
  6  7  1  0
  7  8  2  0
  7  9  2  0
  7 10  1  0
 10 11  1  0
 11 12  1  0
 12 13  1  0
 13 14  1  0
  6 15  2  0
 15 16  1  0
 16 17  2  0
 17 18  1  0
  2 19  1  0
 19 20  2  0
 20 21  1  0
 21 22  2  0
 22 23  1  0
 23 24  2  0
 23 25  2  0
 23 26  1  0
 26 27  1  0
 27 28  1  0
 28 29  1  0
 29 30  1  0
 30 31  1  0
 22 32  1  0
 32 33  2  0
 17  4  1  0
 33 19  1  0
 14 10  1  0
 31 26  1  0
  5 34  1  0
 11 35  1  0
 11 36  1  0
 12 37  1  0
 12 38  1  0
 13 39  1  0
 13 40  1  0
 14 41  1  0
 14 42  1  0
 15 43  1  0
 16 44  1  0
 20 45  1  0
 21 46  1  0
 27 47  1  0
 27 48  1  0
 28 49  1  0
 28 50  1  0
 30 51  1  0
 30 52  1  0
 31 53  1  0
 31 54  1  0
 32 55  1  0
 33 56  1  0
M  CHG  2   3  -1  18  -1
M  END
>  <UniqueID>  (26) 
26

>  <SMILES>  (26) 
O=C([N-]c1cc(S(=O)(=O)N2CCCC2)ccc1[O-])c1ccc(S(=O)(=O)N2CCOCC2)cc1

>  <Energy>  (26) 
74.29865628663455

>  <Genealogy>  (26) 
O=C([N-]c1cc(S(=O)(=O)N2CCCC2)ccc1[O-])c1ccc(S(=O)(=O)N2CCOCC2)cc1 (protonated)
O=C([N-]c1cc(S(=O)(=O)N2CCCC2)ccc1[O-])c1ccc(S(=O)(=O)N2CCOCC2)cc1 (3D coordinates assigned)
O=C([N-]c1cc(S(=O)(=O)N2CCCC2)ccc1[O-])c1ccc(S(=O)(=O)N2CCOCC2)cc1 (nonaromatic ring conformer: 74.29865628663455 kcal/mol)

>  <smiles>  (26) 
O=C(Nc1cc(S(=O)(=O)N2CCCC2)ccc1O)c1ccc(S(=O)(=O)N2CCOCC2)cc1

>  <score_type>  (26) 
oracle

>  <origin>  (26) 
adgpu

>  <m_score__min__energy>  (26) 
-15.23

>  <m_primary>  (26) 
energy

$$$$
26:0
     RDKit          3D

 48 52  0  0  0  0  0  0  0  0999 V2000
   -1.5980   26.0470  -28.9600 O   0  0  0  0  0  0  0  0  0  0  0  0
   -1.3910   24.8560  -28.6070 C   0  0  0  0  0  0  0  0  0  0  0  0
   -1.5380   23.7840  -29.5470 N   0  0  0  0  0  0  0  0  0  0  0  0
   -2.7680   23.2270  -30.0260 C   0  0  0  0  0  0  0  0  0  0  0  0
   -2.9490   21.9130  -30.4070 C   0  0  0  0  0  0  0  0  0  0  0  0
   -4.2180   21.7550  -30.8320 N   0  0  0  0  0  0  0  0  0  0  0  0
   -4.8240   22.9280  -30.7250 N   0  0  0  0  0  0  0  0  0  0  0  0
   -6.4660   23.2120  -31.1920 S   0  0  0  0  0  0  0  0  0  0  0  0
   -7.2090   23.8110  -30.0310 O   0  0  0  0  0  0  0  0  0  0  0  0
   -6.4960   24.1720  -32.3470 O   0  0  0  0  0  0  0  0  0  0  0  0
   -7.2270   21.7010  -31.6550 C   0  0  0  0  0  0  0  0  0  0  0  0
   -8.4610   21.2430  -31.2190 C   0  0  0  0  0  0  0  0  0  0  0  0
   -8.7990   19.9950  -31.7580 C   0  0  0  0  0  0  0  0  0  0  0  0
   -7.8330   19.4770  -32.6140 C   0  0  0  0  0  0  0  0  0  0  0  0
   -6.5570   20.5700  -32.7000 S   0  0  0  0  0  0  0  0  0  0  0  0
   -3.9780   23.8560  -30.2440 C   0  0  0  0  0  0  0  0  0  0  0  0
   -1.0430   24.5340  -27.2050 C   0  0  0  0  0  0  0  0  0  0  0  0
   -1.2050   25.5100  -26.2700 N   0  0  0  0  0  0  0  0  0  0  0  0
   -0.8890   25.3480  -24.9570 C   0  0  0  0  0  0  0  0  0  0  0  0
   -1.1260   26.5270  -24.0350 C   0  0  0  0  0  0  0  0  0  0  0  0
    0.0940   27.1510  -23.3710 C   0  0  0  0  0  0  0  0  0  0  0  0
   -0.6230   27.8890  -24.4960 C   0  0  0  0  0  0  0  0  0  0  0  0
   -0.3670   24.1120  -24.5340 C   0  0  0  0  0  0  0  0  0  0  0  0
   -0.1970   23.0850  -25.4600 C   0  0  0  0  0  0  0  0  0  0  0  0
   -0.5270   23.2790  -26.8080 C   0  0  0  0  0  0  0  0  0  0  0  0
   -0.4350   22.1780  -27.7290 N   0  0  0  0  0  0  0  0  0  0  0  0
   -0.8200   20.8320  -27.4070 C   0  0  0  0  0  0  0  0  0  0  0  0
   -2.0030   20.5900  -26.6990 C   0  0  0  0  0  0  0  0  0  0  0  0
   -2.3780   19.3180  -26.4080 N   0  0  0  0  0  0  0  0  0  0  0  0
   -1.6230   18.2600  -26.8050 C   0  0  0  0  0  0  0  0  0  0  0  0
   -0.4830   18.4660  -27.5120 N   0  0  0  0  0  0  0  0  0  0  0  0
   -0.0690   19.7220  -27.8230 C   0  0  0  0  0  0  0  0  0  0  0  0
   -2.1832   21.1242  -30.3699 H   0  0  0  0  0  0  0  0  0  0  0  0
   -9.1060   21.8004  -30.5238 H   0  0  0  0  0  0  0  0  0  0  0  0
   -9.7396   19.4739  -31.5261 H   0  0  0  0  0  0  0  0  0  0  0  0
   -7.8931   18.5155  -33.1449 H   0  0  0  0  0  0  0  0  0  0  0  0
   -4.2066   24.9160  -30.0591 H   0  0  0  0  0  0  0  0  0  0  0  0
   -2.0897   26.1335  -23.6795 H   0  0  0  0  0  0  0  0  0  0  0  0
    0.0276   27.5243  -22.3384 H   0  0  0  0  0  0  0  0  0  0  0  0
    1.1299   26.8293  -23.1880 H   0  0  0  0  0  0  0  0  0  0  0  0
   -1.2069   28.7947  -24.2753 H   0  0  0  0  0  0  0  0  0  0  0  0
   -0.3191   28.3204  -25.4612 H   0  0  0  0  0  0  0  0  0  0  0  0
   -0.0949   23.9575  -23.4794 H   0  0  0  0  0  0  0  0  0  0  0  0
    0.1997   22.1135  -25.1301 H   0  0  0  0  0  0  0  0  0  0  0  0
   -0.1340   22.3870  -28.7090 H   0  0  0  0  0  0  0  0  0  0  0  0
   -2.6312   21.4336  -26.3772 H   0  0  0  0  0  0  0  0  0  0  0  0
   -1.9361   17.2360  -26.5531 H   0  0  0  0  0  0  0  0  0  0  0  0
    0.8552   19.8689  -28.4011 H   0  0  0  0  0  0  0  0  0  0  0  0
  1  2  2  0
  2  3  1  0
  3  4  1  0
  4  5  1  0
  5  6  2  0
  6  7  1  0
  7  8  1  0
  8  9  2  0
  8 10  2  0
  8 11  1  0
 11 12  2  0
 12 13  1  0
 13 14  2  0
 14 15  1  0
  7 16  1  0
  2 17  1  0
 17 18  2  0
 18 19  1  0
 19 20  1  0
 20 21  1  0
 21 22  1  0
 19 23  2  0
 23 24  1  0
 24 25  2  0
 25 26  1  0
 26 27  1  0
 27 28  2  0
 28 29  1  0
 29 30  2  0
 30 31  1  0
 31 32  2  0
 16  4  2  0
 25 17  1  0
 32 27  1  0
 15 11  1  0
 22 20  1  0
  5 33  1  0
 12 34  1  0
 13 35  1  0
 14 36  1  0
 16 37  1  0
 20 38  1  0
 21 39  1  0
 21 40  1  0
 22 41  1  0
 22 42  1  0
 23 43  1  0
 24 44  1  0
 26 45  1  0
 28 46  1  0
 30 47  1  0
 32 48  1  0
M  CHG  1   3  -1
M  END
>  <UniqueID>  (27) 
27

>  <SMILES>  (27) 
O=C([N-]c1cnn(S(=O)(=O)c2cccs2)c1)c1nc(C2CC2)ccc1Nc1cncnc1

>  <Energy>  (27) 
391.56487836605123

>  <Genealogy>  (27) 
O=C([N-]c1cnn(S(=O)(=O)c2cccs2)c1)c1nc(C2CC2)ccc1Nc1cncnc1 (protonated)
O=C([N-]c1cnn(S(=O)(=O)c2cccs2)c1)c1nc(C2CC2)ccc1Nc1cncnc1 (3D coordinates assigned)
O=C([N-]c1cnn(S(=O)(=O)c2cccs2)c1)c1nc(C2CC2)ccc1Nc1cncnc1 (nonaromatic ring conformer: 391.56487836605123 kcal/mol)

>  <smiles>  (27) 
O=C(Nc1cnn(S(=O)(=O)c2cccs2)c1)c1nc(C2CC2)ccc1Nc1cncnc1

>  <score_type>  (27) 
oracle

>  <origin>  (27) 
adgpu

>  <m_score__min__energy>  (27) 
-10.76

>  <m_primary>  (27) 
energy

$$$$
27:0
     RDKit          3D

 64 67  0  0  0  0  0  0  0  0999 V2000
   -3.5440   18.8230  -34.2090 C   0  0  0  0  0  0  0  0  0  0  0  0
   -4.9160   19.2230  -33.6490 C   0  0  1  0  0  0  0  0  0  0  0  0
   -6.0300   18.2570  -34.1200 C   0  0  0  0  0  0  0  0  0  0  0  0
   -6.5860   17.3420  -33.0130 C   0  0  1  0  0  0  0  0  0  0  0  0
   -5.6530   16.1520  -32.7280 C   0  0  0  0  0  0  0  0  0  0  0  0
   -6.9640   18.1240  -31.7250 C   0  0  0  0  0  0  0  0  0  0  0  0
   -6.1730   19.3540  -31.4760 N   0  0  0  0  0  0  0  0  0  0  0  0
   -7.0940   20.8180  -31.7650 S   0  0  0  0  0  0  0  0  0  0  0  0
   -8.2810   20.8430  -30.8430 O   0  0  0  0  0  0  0  0  0  0  0  0
   -7.6000   20.8550  -33.1810 O   0  0  0  0  0  0  0  0  0  0  0  0
   -6.1140   22.2500  -31.4490 C   0  0  0  0  0  0  0  0  0  0  0  0
   -6.7150   23.5100  -31.4020 C   0  0  0  0  0  0  0  0  0  0  0  0
   -5.9550   24.6390  -31.0960 C   0  0  0  0  0  0  0  0  0  0  0  0
   -4.5900   24.5200  -30.8140 C   0  0  0  0  0  0  0  0  0  0  0  0
   -3.8700   25.6710  -30.5060 O   0  0  0  0  0  0  0  0  0  0  0  0
   -3.9660   23.2510  -30.8460 C   0  0  0  0  0  0  0  0  0  0  0  0
   -2.5320   23.0690  -30.5030 C   0  0  0  0  0  0  0  0  0  0  0  0
   -2.0460   23.6030  -29.4690 O   0  0  0  0  0  0  0  0  0  0  0  0
   -1.6870   22.2960  -31.3660 N   0  0  0  0  0  0  0  0  0  0  0  0
   -1.1230   21.0090  -31.0750 C   0  0  0  0  0  0  0  0  0  0  0  0
   -1.1200   20.0340  -32.0800 C   0  0  0  0  0  0  0  0  0  0  0  0
   -0.6360   18.7510  -31.8170 C   0  0  0  0  0  0  0  0  0  0  0  0
   -0.1750   18.4240  -30.5400 C   0  0  0  0  0  0  0  0  0  0  0  0
   -0.1990   19.3800  -29.5160 C   0  0  0  0  0  0  0  0  0  0  0  0
    0.3090   18.9480  -27.8820 S   0  0  0  0  0  0  0  0  0  0  0  0
    1.6080   19.6410  -27.5690 O   0  0  0  0  0  0  0  0  0  0  0  0
    0.5500   17.4650  -27.8160 O   0  0  0  0  0  0  0  0  0  0  0  0
   -0.8910   19.3860  -26.6850 N   0  0  0  0  0  0  0  0  0  0  0  0
   -2.2230   18.9180  -27.0760 C   0  0  0  0  0  0  0  0  0  0  0  0
   -2.9630   20.0750  -27.7300 C   0  0  0  0  0  0  0  0  0  0  0  0
   -2.1990   21.3240  -27.3410 C   0  0  0  0  0  0  0  0  0  0  0  0
   -0.9940   20.8430  -26.5420 C   0  0  0  0  0  0  0  0  0  0  0  0
   -0.6620   20.6760  -29.7880 C   0  0  0  0  0  0  0  0  0  0  0  0
   -4.7450   22.1250  -31.1770 C   0  0  0  0  0  0  0  0  0  0  0  0
   -4.8470   19.3670  -32.1130 C   0  0  0  0  0  0  0  0  0  0  0  0
   -2.8530   18.6215  -33.3772 H   0  0  0  0  0  0  0  0  0  0  0  0
   -3.6493   17.9182  -34.8256 H   0  0  0  0  0  0  0  0  0  0  0  0
   -3.1465   19.6426  -34.8256 H   0  0  0  0  0  0  0  0  0  0  0  0
   -5.1885   20.2086  -34.0544 H   0  0  0  0  0  0  0  0  0  0  0  0
   -5.6197   17.6213  -34.9185 H   0  0  0  0  0  0  0  0  0  0  0  0
   -6.8673   18.8841  -34.4601 H   0  0  0  0  0  0  0  0  0  0  0  0
   -7.5268   16.9208  -33.3970 H   0  0  0  0  0  0  0  0  0  0  0  0
   -5.5492   16.0196  -31.6409 H   0  0  0  0  0  0  0  0  0  0  0  0
   -6.0782   15.2387  -33.1697 H   0  0  0  0  0  0  0  0  0  0  0  0
   -4.6646   16.3470  -33.1697 H   0  0  0  0  0  0  0  0  0  0  0  0
   -6.8258   17.4511  -30.8658 H   0  0  0  0  0  0  0  0  0  0  0  0
   -8.0043   18.4537  -31.8632 H   0  0  0  0  0  0  0  0  0  0  0  0
   -7.7909   23.6123  -31.6069 H   0  0  0  0  0  0  0  0  0  0  0  0
   -6.4324   25.6298  -31.0763 H   0  0  0  0  0  0  0  0  0  0  0  0
   -1.5010   20.2802  -33.0821 H   0  0  0  0  0  0  0  0  0  0  0  0
   -0.6178   17.9964  -32.6172 H   0  0  0  0  0  0  0  0  0  0  0  0
    0.2081   17.4129  -30.3375 H   0  0  0  0  0  0  0  0  0  0  0  0
   -2.1303   18.0854  -27.7888 H   0  0  0  0  0  0  0  0  0  0  0  0
   -2.7755   18.5659  -26.1923 H   0  0  0  0  0  0  0  0  0  0  0  0
   -2.9712   19.9556  -28.8235 H   0  0  0  0  0  0  0  0  0  0  0  0
   -4.0119   20.1226  -27.4021 H   0  0  0  0  0  0  0  0  0  0  0  0
   -1.8706   21.8673  -28.2393 H   0  0  0  0  0  0  0  0  0  0  0  0
   -2.8237   22.0140  -26.7547 H   0  0  0  0  0  0  0  0  0  0  0  0
   -0.0799   21.3190  -26.9266 H   0  0  0  0  0  0  0  0  0  0  0  0
   -1.1144   21.1097  -25.4816 H   0  0  0  0  0  0  0  0  0  0  0  0
   -0.6647   21.4350  -28.9918 H   0  0  0  0  0  0  0  0  0  0  0  0
   -4.2718   21.1330  -31.2226 H   0  0  0  0  0  0  0  0  0  0  0  0
   -4.2553   18.5325  -31.7086 H   0  0  0  0  0  0  0  0  0  0  0  0
   -4.3852   20.3409  -31.8935 H   0  0  0  0  0  0  0  0  0  0  0  0
  1  2  1  0
  2  3  1  0
  3  4  1  0
  4  5  1  0
  4  6  1  0
  6  7  1  0
  7  8  1  0
  8  9  2  0
  8 10  2  0
  8 11  1  0
 11 12  2  0
 12 13  1  0
 13 14  2  0
 14 15  1  0
 14 16  1  0
 16 17  1  0
 17 18  2  0
 17 19  1  0
 19 20  1  0
 20 21  2  0
 21 22  1  0
 22 23  2  0
 23 24  1  0
 24 25  1  0
 25 26  2  0
 25 27  2  0
 25 28  1  0
 28 29  1  0
 29 30  1  0
 30 31  1  0
 31 32  1  0
 24 33  2  0
 16 34  2  0
  7 35  1  0
 35  2  1  0
 34 11  1  0
 33 20  1  0
 32 28  1  0
  1 36  1  0
  1 37  1  0
  1 38  1  0
  2 39  1  6
  3 40  1  0
  3 41  1  0
  4 42  1  6
  5 43  1  0
  5 44  1  0
  5 45  1  0
  6 46  1  0
  6 47  1  0
 12 48  1  0
 13 49  1  0
 21 50  1  0
 22 51  1  0
 23 52  1  0
 29 53  1  0
 29 54  1  0
 30 55  1  0
 30 56  1  0
 31 57  1  0
 31 58  1  0
 32 59  1  0
 32 60  1  0
 33 61  1  0
 34 62  1  0
 35 63  1  0
 35 64  1  0
M  CHG  2  15  -1  19  -1
M  END
>  <UniqueID>  (28) 
28

>  <SMILES>  (28) 
C[C@@H]1C[C@H](C)CN(S(=O)(=O)c2ccc([O-])c(C(=O)[N-]c3cccc(S(=O)(=O)N4CCCC4)c3)c2)C1

>  <Energy>  (28) 
78.76231712828259

>  <Genealogy>  (28) 
CC1CC(C)CN(S(=O)(=O)c2ccc([O-])c(C(=O)[N-]c3cccc(S(=O)(=O)N4CCCC4)c3)c2)C1 (protonated)
C[C@@H]1C[C@H](C)CN(S(=O)(=O)c2ccc([O-])c(C(=O)[N-]c3cccc(S(=O)(=O)N4CCCC4)c3)c2)C1 (chirality)
C[C@@H]1C[C@H](C)CN(S(=O)(=O)c2ccc([O-])c(C(=O)[N-]c3cccc(S(=O)(=O)N4CCCC4)c3)c2)C1 (3D coordinates assigned)
C[C@@H]1C[C@H](C)CN(S(=O)(=O)c2ccc([O-])c(C(=O)[N-]c3cccc(S(=O)(=O)N4CCCC4)c3)c2)C1 (nonaromatic ring conformer: 78.76231712828259 kcal/mol)

>  <smiles>  (28) 
CC1CC(C)CN(S(=O)(=O)c2ccc(O)c(C(=O)Nc3cccc(S(=O)(=O)N4CCCC4)c3)c2)C1

>  <score_type>  (28) 
oracle

>  <origin>  (28) 
adgpu

>  <m_score__min__energy>  (28) 
-15.109999999999999

>  <m_primary>  (28) 
energy

$$$$
28:0
     RDKit          3D

 69 75  0  0  0  0  0  0  0  0999 V2000
   -0.4220   29.8630  -37.2650 C   0  0  0  0  0  0  0  0  0  0  0  0
    0.0830   28.4500  -37.3810 C   0  0  0  0  0  0  0  0  0  0  0  0
    0.8400   28.0760  -38.5220 C   0  0  0  0  0  0  0  0  0  0  0  0
    1.3420   26.7710  -38.6560 C   0  0  0  0  0  0  0  0  0  0  0  0
    1.0680   25.8650  -37.6380 C   0  0  0  0  0  0  0  0  0  0  0  0
    1.4430   24.5810  -37.5700 N   0  0  0  0  0  0  0  0  0  0  0  0
    0.9090   24.1760  -36.3870 C   0  0  0  0  0  0  0  0  0  0  0  0
    1.0500   22.7970  -35.8730 C   0  0  0  0  0  0  0  0  0  0  0  0
    2.3210   22.1610  -35.8650 C   0  0  0  0  0  0  0  0  0  0  0  0
    2.4710   20.8570  -35.3560 C   0  0  0  0  0  0  0  0  0  0  0  0
    1.3380   20.2180  -34.8700 C   0  0  0  0  0  0  0  0  0  0  0  0
    1.2450   18.9770  -34.3690 N   0  0  0  0  0  0  0  0  0  0  0  0
   -0.0840   18.8650  -34.1110 C   0  0  0  0  0  0  0  0  0  0  0  0
   -0.6970   17.6210  -33.6210 C   0  0  0  0  0  0  0  0  0  0  0  0
   -2.0340   17.3440  -33.9360 C   0  0  0  0  0  0  0  0  0  0  0  0
   -2.6470   16.1610  -33.4980 C   0  0  0  0  0  0  0  0  0  0  0  0
   -4.0400   15.8620  -33.8960 C   0  0  0  0  0  0  0  0  0  0  0  0
   -4.3390   14.6740  -34.1900 O   0  0  0  0  0  0  0  0  0  0  0  0
   -5.0580   16.8850  -33.9200 N   0  0  0  0  0  0  0  0  0  0  0  0
   -4.7290   18.2610  -34.3250 C   0  0  0  0  0  0  0  0  0  0  0  0
   -5.9790   19.1390  -34.4250 C   0  0  0  0  0  0  0  0  0  0  0  0
   -6.8290   18.9520  -33.2450 N   0  0  0  0  0  0  0  0  0  0  0  0
   -7.4970   20.0830  -32.6540 C   0  0  0  0  0  0  0  0  0  0  0  0
   -6.7610   21.2320  -32.3100 C   0  0  0  0  0  0  0  0  0  0  0  0
   -7.4060   22.3520  -31.7710 C   0  0  0  0  0  0  0  0  0  0  0  0
   -8.7860   22.3320  -31.5670 C   0  0  0  0  0  0  0  0  0  0  0  0
   -9.5250   21.1910  -31.8950 C   0  0  0  0  0  0  0  0  0  0  0  0
   -8.8880   20.0660  -32.4310 C   0  0  0  0  0  0  0  0  0  0  0  0
   -9.6420   18.9320  -32.7200 O   0  0  0  0  0  0  0  0  0  0  0  0
   -7.0840   17.6030  -32.7230 C   0  0  0  0  0  0  0  0  0  0  0  0
   -6.4490   16.5270  -33.6120 C   0  0  0  0  0  0  0  0  0  0  0  0
   -1.8950   15.2330  -32.7430 C   0  0  0  0  0  0  0  0  0  0  0  0
   -2.4460   14.0350  -32.2870 O   0  0  0  0  0  0  0  0  0  0  0  0
   -0.5580   15.5110  -32.4350 C   0  0  0  0  0  0  0  0  0  0  0  0
    0.0430   16.6940  -32.8720 C   0  0  0  0  0  0  0  0  0  0  0  0
    1.3730   16.9450  -32.5500 O   0  0  0  0  0  0  0  0  0  0  0  0
   -0.8150   19.9640  -34.4320 N   0  0  0  0  0  0  0  0  0  0  0  0
    0.1130   20.8070  -34.9000 C   0  0  0  0  0  0  0  0  0  0  0  0
   -0.0780   22.0990  -35.3840 C   0  0  0  0  0  0  0  0  0  0  0  0
    0.2300   25.1470  -35.7230 N   0  0  0  0  0  0  0  0  0  0  0  0
    0.3490   26.2070  -36.5370 C   0  0  0  0  0  0  0  0  0  0  0  0
   -0.1570   27.4980  -36.3480 C   0  0  0  0  0  0  0  0  0  0  0  0
   -0.9310   27.8490  -35.1050 C   0  0  0  0  0  0  0  0  0  0  0  0
   -0.5181   30.1320  -36.2027 H   0  0  0  0  0  0  0  0  0  0  0  0
    0.2873   30.5472  -37.7537 H   0  0  0  0  0  0  0  0  0  0  0  0
   -1.4042   29.9426  -37.7537 H   0  0  0  0  0  0  0  0  0  0  0  0
    1.0359   28.8172  -39.3109 H   0  0  0  0  0  0  0  0  0  0  0  0
    1.9318   26.4761  -39.5364 H   0  0  0  0  0  0  0  0  0  0  0  0
    3.1979   22.6940  -36.2612 H   0  0  0  0  0  0  0  0  0  0  0  0
    3.4527   20.3610  -35.3437 H   0  0  0  0  0  0  0  0  0  0  0  0
   -2.6107   18.0642  -34.5350 H   0  0  0  0  0  0  0  0  0  0  0  0
   -4.0461   18.6973  -33.5812 H   0  0  0  0  0  0  0  0  0  0  0  0
   -4.2588   18.2215  -35.3187 H   0  0  0  0  0  0  0  0  0  0  0  0
   -5.6765   20.1946  -34.4905 H   0  0  0  0  0  0  0  0  0  0  0  0
   -6.5461   18.8526  -35.3230 H   0  0  0  0  0  0  0  0  0  0  0  0
   -5.6722   21.2505  -32.4655 H   0  0  0  0  0  0  0  0  0  0  0  0
   -6.8244   23.2479  -31.5083 H   0  0  0  0  0  0  0  0  0  0  0  0
   -9.2928   23.2138  -31.1481 H   0  0  0  0  0  0  0  0  0  0  0  0
  -10.6126   21.1776  -31.7309 H   0  0  0  0  0  0  0  0  0  0  0  0
   -6.6609   17.5256  -31.7106 H   0  0  0  0  0  0  0  0  0  0  0  0
   -8.1716   17.4393  -32.7065 H   0  0  0  0  0  0  0  0  0  0  0  0
   -6.4684   15.5615  -33.0853 H   0  0  0  0  0  0  0  0  0  0  0  0
   -7.0184   16.4522  -34.5502 H   0  0  0  0  0  0  0  0  0  0  0  0
   -3.2660   13.6130  -32.7010 H   0  0  0  0  0  0  0  0  0  0  0  0
    0.0253   14.7906  -31.8428 H   0  0  0  0  0  0  0  0  0  0  0  0
   -1.0758   22.5620  -35.3857 H   0  0  0  0  0  0  0  0  0  0  0  0
   -0.3398   27.5809  -34.2170 H   0  0  0  0  0  0  0  0  0  0  0  0
   -1.1384   28.9292  -35.0950 H   0  0  0  0  0  0  0  0  0  0  0  0
   -1.8803   27.2933  -35.0950 H   0  0  0  0  0  0  0  0  0  0  0  0
  1  2  1  0
  2  3  2  0
  3  4  1  0
  4  5  2  0
  5  6  1  0
  6  7  1  0
  7  8  1  0
  8  9  2  0
  9 10  1  0
 10 11  2  0
 11 12  1  0
 12 13  1  0
 13 14  1  0
 14 15  2  0
 15 16  1  0
 16 17  1  0
 17 18  2  0
 17 19  1  0
 19 20  1  0
 20 21  1  0
 21 22  1  0
 22 23  1  0
 23 24  2  0
 24 25  1  0
 25 26  2  0
 26 27  1  0
 27 28  2  0
 28 29  1  0
 22 30  1  0
 30 31  1  0
 16 32  2  0
 32 33  1  0
 32 34  1  0
 34 35  2  0
 35 36  1  0
 13 37  2  0
 37 38  1  0
 38 39  2  0
  7 40  2  0
 40 41  1  0
 41 42  2  0
 42 43  1  0
 42  2  1  0
 41  5  1  0
 39  8  1  0
 38 11  1  0
 35 14  1  0
 31 19  1  0
 28 23  1  0
  1 44  1  0
  1 45  1  0
  1 46  1  0
  3 47  1  0
  4 48  1  0
  9 49  1  0
 10 50  1  0
 15 51  1  0
 20 52  1  0
 20 53  1  0
 21 54  1  0
 21 55  1  0
 24 56  1  0
 25 57  1  0
 26 58  1  0
 27 59  1  0
 30 60  1  0
 30 61  1  0
 31 62  1  0
 31 63  1  0
 33 64  1  0
 34 65  1  0
 39 66  1  0
 43 67  1  0
 43 68  1  0
 43 69  1  0
M  CHG  4   6  -1  12  -1  29  -1  36  -1
M  END
>  <UniqueID>  (29) 
29

>  <SMILES>  (29) 
Cc1ccc2[n-]c(-c3ccc4[n-]c(-c5cc(C(=O)N6CCN(c7ccccc7[O-])CC6)c(O)cc5[O-])nc4c3)nc2c1C

>  <Energy>  (29) 
169.30327369660407

>  <Genealogy>  (29) 
Cc1ccc2[n-]c(-c3ccc4[n-]c(-c5cc(C(=O)N6CCN(c7ccccc7[O-])CC6)c(O)cc5[O-])nc4c3)nc2c1C (protonated)
Cc1ccc2[n-]c(-c3ccc4[n-]c(-c5cc(C(=O)N6CCN(c7ccccc7[O-])CC6)c(O)cc5[O-])nc4c3)nc2c1C (3D coordinates assigned)
Cc1ccc2[n-]c(-c3ccc4[n-]c(-c5cc(C(=O)N6CCN(c7ccccc7[O-])CC6)c(O)cc5[O-])nc4c3)nc2c1C (nonaromatic ring conformer: 169.30327369660407 kcal/mol)

>  <smiles>  (29) 
Cc1ccc2[nH]c(-c3ccc4[nH]c(-c5cc(C(=O)N6CCN(c7ccccc7O)CC6)c(O)cc5O)nc4c3)nc2c1C

>  <score_type>  (29) 
oracle

>  <origin>  (29) 
adgpu

>  <m_score__min__energy>  (29) 
-12.199999999999999

>  <m_primary>  (29) 
energy

$$$$
29:0
     RDKit          3D

 74 78  0  0  0  0  0  0  0  0999 V2000
   -8.8460   20.0550  -33.2600 N   0  0  0  0  0  0  0  0  0  0  0  0
   -8.7880   20.4400  -31.8860 C   0  0  0  0  0  0  0  0  0  0  0  0
   -9.4730   19.8060  -31.0410 O   0  0  0  0  0  0  0  0  0  0  0  0
   -7.8960   21.5420  -31.4510 C   0  0  0  0  0  0  0  0  0  0  0  0
   -7.9920   22.0600  -30.1490 C   0  0  0  0  0  0  0  0  0  0  0  0
   -7.1330   23.0790  -29.7270 C   0  0  0  0  0  0  0  0  0  0  0  0
   -6.1660   23.5950  -30.5970 C   0  0  0  0  0  0  0  0  0  0  0  0
   -5.0910   24.8730  -30.0370 S   0  0  0  0  0  0  0  0  0  0  0  0
   -5.1400   24.9120  -28.5360 O   0  0  0  0  0  0  0  0  0  0  0  0
   -5.5190   26.2100  -30.5720 O   0  0  0  0  0  0  0  0  0  0  0  0
   -3.4730   24.5220  -30.5410 N   0  0  0  0  0  0  0  0  0  0  0  0
   -2.4530   24.1190  -29.6260 C   0  0  0  0  0  0  0  0  0  0  0  0
   -2.4250   24.6900  -28.3470 C   0  0  0  0  0  0  0  0  0  0  0  0
   -1.4300   24.3270  -27.4280 C   0  0  0  0  0  0  0  0  0  0  0  0
   -1.4850   24.9230  -25.7660 S   0  0  0  0  0  0  0  0  0  0  0  0
   -1.2380   23.7770  -24.8240 O   0  0  0  0  0  0  0  0  0  0  0  0
   -2.8580   25.4700  -25.4810 O   0  0  0  0  0  0  0  0  0  0  0  0
   -0.2700   26.1550  -25.4780 N   0  0  0  0  0  0  0  0  0  0  0  0
   -0.7130   27.1070  -24.4310 C   0  0  0  0  0  0  0  0  0  0  0  0
   -0.0270   28.4690  -24.5620 C   0  0  0  0  0  0  0  0  0  0  0  0
   -0.3910   29.1250  -25.9020 C   0  0  0  0  0  0  0  0  0  0  0  0
   -0.4770   28.1140  -27.0610 C   0  0  0  0  0  0  0  0  0  0  0  0
    0.2090   26.7740  -26.7380 C   0  0  0  0  0  0  0  0  0  0  0  0
   -0.4130   23.4490  -27.8270 C   0  0  0  0  0  0  0  0  0  0  0  0
   -0.4520   22.8570  -29.0890 C   0  0  0  0  0  0  0  0  0  0  0  0
   -1.4910   23.1580  -29.9850 C   0  0  0  0  0  0  0  0  0  0  0  0
   -1.5360   22.5540  -31.2470 O   0  0  0  0  0  0  0  0  0  0  0  0
   -2.5530   21.6810  -31.6680 C   0  0  0  0  0  0  0  0  0  0  0  0
   -2.7710   21.5120  -33.0380 C   0  0  0  0  0  0  0  0  0  0  0  0
   -3.7770   20.6540  -33.4940 C   0  0  0  0  0  0  0  0  0  0  0  0
   -4.5910   19.9700  -32.5810 C   0  0  0  0  0  0  0  0  0  0  0  0
   -5.8020   18.8330  -33.1680 S   0  0  0  0  0  0  0  0  0  0  0  0
   -6.4870   19.4300  -34.3680 O   0  0  0  0  0  0  0  0  0  0  0  0
   -6.8300   18.5790  -32.1010 O   0  0  0  0  0  0  0  0  0  0  0  0
   -5.0190   17.3370  -33.6150 N   0  0  0  0  0  0  0  0  0  0  0  0
   -3.6430   17.5760  -34.1110 C   0  0  0  0  0  0  0  0  0  0  0  0
   -2.5720   17.1220  -33.1030 C   0  0  0  0  0  0  0  0  0  0  0  0
   -2.6720   15.7430  -32.7810 O   0  0  0  0  0  0  0  0  0  0  0  0
   -4.0130   15.2770  -32.6660 C   0  0  0  0  0  0  0  0  0  0  0  0
   -5.0650   16.3870  -32.4840 C   0  0  0  0  0  0  0  0  0  0  0  0
   -4.4000   20.1610  -31.2070 C   0  0  0  0  0  0  0  0  0  0  0  0
   -3.3820   21.0060  -30.7510 C   0  0  0  0  0  0  0  0  0  0  0  0
   -6.0540   23.0750  -31.8940 C   0  0  0  0  0  0  0  0  0  0  0  0
   -6.9120   22.0570  -32.3180 C   0  0  0  0  0  0  0  0  0  0  0  0
   -8.2740   19.2540  -33.6130 H   0  0  0  0  0  0  0  0  0  0  0  0
   -8.7481   21.6612  -29.4567 H   0  0  0  0  0  0  0  0  0  0  0  0
   -7.2177   23.4775  -28.7052 H   0  0  0  0  0  0  0  0  0  0  0  0
   -3.1889   25.4283  -28.0617 H   0  0  0  0  0  0  0  0  0  0  0  0
   -1.8005   27.2481  -24.5174 H   0  0  0  0  0  0  0  0  0  0  0  0
   -0.4413   26.6842  -23.4526 H   0  0  0  0  0  0  0  0  0  0  0  0
   -0.3547   29.1206  -23.7386 H   0  0  0  0  0  0  0  0  0  0  0  0
    1.0627   28.3252  -24.5194 H   0  0  0  0  0  0  0  0  0  0  0  0
   -1.3670   29.6213  -25.7961 H   0  0  0  0  0  0  0  0  0  0  0  0
    0.4079   29.8405  -26.1469 H   0  0  0  0  0  0  0  0  0  0  0  0
   -1.5374   27.9216  -27.2812 H   0  0  0  0  0  0  0  0  0  0  0  0
    0.0462   28.5539  -27.9228 H   0  0  0  0  0  0  0  0  0  0  0  0
    0.0157   26.0751  -27.5652 H   0  0  0  0  0  0  0  0  0  0  0  0
    1.2818   26.9811  -26.6104 H   0  0  0  0  0  0  0  0  0  0  0  0
    0.4187   23.2262  -27.1424 H   0  0  0  0  0  0  0  0  0  0  0  0
    0.3365   22.1493  -29.3849 H   0  0  0  0  0  0  0  0  0  0  0  0
   -2.1476   22.0571  -33.7621 H   0  0  0  0  0  0  0  0  0  0  0  0
   -3.9300   20.5154  -34.5745 H   0  0  0  0  0  0  0  0  0  0  0  0
   -3.5037   17.0198  -35.0498 H   0  0  0  0  0  0  0  0  0  0  0  0
   -3.5237   18.6587  -34.2642 H   0  0  0  0  0  0  0  0  0  0  0  0
   -1.5786   17.3111  -33.5360 H   0  0  0  0  0  0  0  0  0  0  0  0
   -2.7265   17.6919  -32.1749 H   0  0  0  0  0  0  0  0  0  0  0  0
   -4.2607   14.7162  -33.5793 H   0  0  0  0  0  0  0  0  0  0  0  0
   -4.0512   14.6597  -31.7564 H   0  0  0  0  0  0  0  0  0  0  0  0
   -6.0654   15.9324  -32.4341 H   0  0  0  0  0  0  0  0  0  0  0  0
   -4.8482   16.9322  -31.5536 H   0  0  0  0  0  0  0  0  0  0  0  0
   -5.0510   19.6461  -30.4851 H   0  0  0  0  0  0  0  0  0  0  0  0
   -3.2284   21.1438  -29.6705 H   0  0  0  0  0  0  0  0  0  0  0  0
   -5.2891   23.4692  -32.5793 H   0  0  0  0  0  0  0  0  0  0  0  0
   -6.8185   21.6542  -33.3373 H   0  0  0  0  0  0  0  0  0  0  0  0
  1  2  1  0
  2  3  2  0
  2  4  1  0
  4  5  2  0
  5  6  1  0
  6  7  2  0
  7  8  1  0
  8  9  2  0
  8 10  2  0
  8 11  1  0
 11 12  1  0
 12 13  2  0
 13 14  1  0
 14 15  1  0
 15 16  2  0
 15 17  2  0
 15 18  1  0
 18 19  1  0
 19 20  1  0
 20 21  1  0
 21 22  1  0
 22 23  1  0
 14 24  2  0
 24 25  1  0
 25 26  2  0
 26 27  1  0
 27 28  1  0
 28 29  2  0
 29 30  1  0
 30 31  2  0
 31 32  1  0
 32 33  2  0
 32 34  2  0
 32 35  1  0
 35 36  1  0
 36 37  1  0
 37 38  1  0
 38 39  1  0
 39 40  1  0
 31 41  1  0
 41 42  2  0
  7 43  1  0
 43 44  2  0
 44  4  1  0
 26 12  1  0
 42 28  1  0
 23 18  1  0
 40 35  1  0
  1 45  1  0
  5 46  1  0
  6 47  1  0
 13 48  1  0
 19 49  1  0
 19 50  1  0
 20 51  1  0
 20 52  1  0
 21 53  1  0
 21 54  1  0
 22 55  1  0
 22 56  1  0
 23 57  1  0
 23 58  1  0
 24 59  1  0
 25 60  1  0
 29 61  1  0
 30 62  1  0
 36 63  1  0
 36 64  1  0
 37 65  1  0
 37 66  1  0
 39 67  1  0
 39 68  1  0
 40 69  1  0
 40 70  1  0
 41 71  1  0
 42 72  1  0
 43 73  1  0
 44 74  1  0
M  CHG  2   1  -1  11  -1
M  END
>  <UniqueID>  (30) 
30

>  <SMILES>  (30) 
[NH-]C(=O)c1ccc(S(=O)(=O)[N-]c2cc(S(=O)(=O)N3CCCCC3)ccc2Oc2ccc(S(=O)(=O)N3CCOCC3)cc2)cc1

>  <Energy>  (30) 
106.89168063257942

>  <Genealogy>  (30) 
[NH-]C(=O)c1ccc(S(=O)(=O)[N-]c2cc(S(=O)(=O)N3CCCCC3)ccc2Oc2ccc(S(=O)(=O)N3CCOCC3)cc2)cc1 (protonated)
[NH-]C(=O)c1ccc(S(=O)(=O)[N-]c2cc(S(=O)(=O)N3CCCCC3)ccc2Oc2ccc(S(=O)(=O)N3CCOCC3)cc2)cc1 (3D coordinates assigned)
[NH-]C(=O)c1ccc(S(=O)(=O)[N-]c2cc(S(=O)(=O)N3CCCCC3)ccc2Oc2ccc(S(=O)(=O)N3CCOCC3)cc2)cc1 (nonaromatic ring conformer: 106.89168063257942 kcal/mol)

>  <smiles>  (30) 
NC(=O)c1ccc(S(=O)(=O)Nc2cc(S(=O)(=O)N3CCCCC3)ccc2Oc2ccc(S(=O)(=O)N3CCOCC3)cc2)cc1

>  <score_type>  (30) 
oracle

>  <origin>  (30) 
adgpu

>  <m_score__min__energy>  (30) 
-12.84

>  <m_primary>  (30) 
energy

$$$$
30:0
     RDKit          3D

 54 57  0  0  0  0  0  0  0  0999 V2000
   -8.8660   23.4190  -32.1710 C   0  0  0  0  0  0  0  0  0  0  0  0
   -7.5220   23.8440  -32.3690 O   0  0  0  0  0  0  0  0  0  0  0  0
   -6.4600   23.5620  -31.4940 C   0  0  0  0  0  0  0  0  0  0  0  0
   -5.5190   24.5430  -31.1250 C   0  0  0  0  0  0  0  0  0  0  0  0
   -4.4540   24.2180  -30.2800 C   0  0  0  0  0  0  0  0  0  0  0  0
   -3.5070   25.1480  -29.9880 N   0  0  0  0  0  0  0  0  0  0  0  0
   -2.4420   24.8700  -29.1900 C   0  0  0  0  0  0  0  0  0  0  0  0
   -1.5840   25.7660  -28.9760 O   0  0  0  0  0  0  0  0  0  0  0  0
   -2.3050   23.5880  -28.6180 C   0  0  0  0  0  0  0  0  0  0  0  0
   -1.1140   23.2250  -27.7710 C   0  0  0  0  0  0  0  0  0  0  0  0
   -3.2680   22.6120  -28.9120 C   0  0  0  0  0  0  0  0  0  0  0  0
   -4.3490   22.9190  -29.7470 C   0  0  0  0  0  0  0  0  0  0  0  0
   -5.3010   21.9510  -30.0840 C   0  0  0  0  0  0  0  0  0  0  0  0
   -6.3260   22.2530  -30.9990 C   0  0  0  0  0  0  0  0  0  0  0  0
   -7.2130   21.2360  -31.4870 N   0  0  0  0  0  0  0  0  0  0  0  0
   -6.7480   19.9480  -32.5550 S   0  0  0  0  0  0  0  0  0  0  0  0
   -6.9820   18.6310  -31.8610 O   0  0  0  0  0  0  0  0  0  0  0  0
   -7.5870   20.0100  -33.8000 O   0  0  0  0  0  0  0  0  0  0  0  0
   -5.0510   20.1160  -33.0100 C   0  0  0  0  0  0  0  0  0  0  0  0
   -4.2250   18.9870  -33.1000 C   0  0  0  0  0  0  0  0  0  0  0  0
   -2.8520   19.1350  -33.3100 C   0  0  0  0  0  0  0  0  0  0  0  0
   -2.2910   20.4140  -33.4290 C   0  0  0  0  0  0  0  0  0  0  0  0
   -0.5450   20.6020  -33.5840 S   0  0  0  0  0  0  0  0  0  0  0  0
    0.0050   19.5060  -34.4560 O   0  0  0  0  0  0  0  0  0  0  0  0
   -0.2420   21.9240  -34.2340 O   0  0  0  0  0  0  0  0  0  0  0  0
    0.1890   20.5540  -32.0000 N   0  0  0  0  0  0  0  0  0  0  0  0
   -0.5610   21.3440  -31.0130 C   0  0  0  0  0  0  0  0  0  0  0  0
   -0.4570   20.6210  -29.6730 C   0  0  0  0  0  0  0  0  0  0  0  0
    0.2690   19.3170  -29.9630 C   0  0  0  0  0  0  0  0  0  0  0  0
    0.2360   19.1890  -31.4730 C   0  0  0  0  0  0  0  0  0  0  0  0
   -3.1200   21.5430  -33.3710 C   0  0  0  0  0  0  0  0  0  0  0  0
   -4.4960   21.3940  -33.1750 C   0  0  0  0  0  0  0  0  0  0  0  0
   -9.0747   23.3530  -31.0930 H   0  0  0  0  0  0  0  0  0  0  0  0
   -9.5518   24.1441  -32.6335 H   0  0  0  0  0  0  0  0  0  0  0  0
   -9.0102   22.4314  -32.6335 H   0  0  0  0  0  0  0  0  0  0  0  0
   -5.6228   25.5705  -31.5039 H   0  0  0  0  0  0  0  0  0  0  0  0
   -1.3820   23.3067  -26.7073 H   0  0  0  0  0  0  0  0  0  0  0  0
   -0.8069   22.1925  -27.9935 H   0  0  0  0  0  0  0  0  0  0  0  0
   -0.2832   23.9107  -27.9935 H   0  0  0  0  0  0  0  0  0  0  0  0
   -3.1738   21.6025  -28.4854 H   0  0  0  0  0  0  0  0  0  0  0  0
   -5.2479   20.9497  -29.6317 H   0  0  0  0  0  0  0  0  0  0  0  0
   -4.6596   17.9810  -33.0049 H   0  0  0  0  0  0  0  0  0  0  0  0
   -2.2092   18.2453  -33.3822 H   0  0  0  0  0  0  0  0  0  0  0  0
    1.1660   20.9270  -32.0740 H   0  0  0  0  0  0  0  0  0  0  0  0
   -0.1277   22.3517  -30.9308 H   0  0  0  0  0  0  0  0  0  0  0  0
   -1.6130   21.4469  -31.3174 H   0  0  0  0  0  0  0  0  0  0  0  0
    0.1147   21.2264  -28.9542 H   0  0  0  0  0  0  0  0  0  0  0  0
   -1.4481   20.4435  -29.2300 H   0  0  0  0  0  0  0  0  0  0  0  0
    1.3063   19.3608  -29.5995 H   0  0  0  0  0  0  0  0  0  0  0  0
   -0.1999   18.4578  -29.4610 H   0  0  0  0  0  0  0  0  0  0  0  0
    1.1391   18.6732  -31.8314 H   0  0  0  0  0  0  0  0  0  0  0  0
   -0.6327   18.6018  -31.8056 H   0  0  0  0  0  0  0  0  0  0  0  0
   -2.6868   22.5482  -33.4799 H   0  0  0  0  0  0  0  0  0  0  0  0
   -5.1456   22.2813  -33.1501 H   0  0  0  0  0  0  0  0  0  0  0  0
  1  2  1  0
  2  3  1  0
  3  4  2  0
  4  5  1  0
  5  6  1  0
  6  7  1  0
  7  8  2  0
  7  9  1  0
  9 10  1  0
  9 11  2  0
 11 12  1  0
 12 13  1  0
 13 14  2  0
 14 15  1  0
 15 16  1  0
 16 17  2  0
 16 18  2  0
 16 19  1  0
 19 20  2  0
 20 21  1  0
 21 22  2  0
 22 23  1  0
 23 24  2  0
 23 25  2  0
 23 26  1  0
 26 27  1  0
 27 28  1  0
 28 29  1  0
 29 30  1  0
 22 31  1  0
 31 32  2  0
 14  3  1  0
 32 19  1  0
 12  5  2  0
 30 26  1  0
  1 33  1  0
  1 34  1  0
  1 35  1  0
  4 36  1  0
 10 37  1  0
 10 38  1  0
 10 39  1  0
 11 40  1  0
 13 41  1  0
 20 42  1  0
 21 43  1  0
 26 44  1  0
 27 45  1  0
 27 46  1  0
 28 47  1  0
 28 48  1  0
 29 49  1  0
 29 50  1  0
 30 51  1  0
 30 52  1  0
 31 53  1  0
 32 54  1  0
M  CHG  3   6  -1  15  -1  26   1
M  END
>  <UniqueID>  (31) 
31

>  <SMILES>  (31) 
COc1cc2[n-]c(=O)c(C)cc2cc1[N-]S(=O)(=O)c1ccc(S(=O)(=O)[NH+]2CCCC2)cc1

>  <Energy>  (31) 
62.85644430533055

>  <Genealogy>  (31) 
COc1cc2[n-]c(=O)c(C)cc2cc1[N-]S(=O)(=O)c1ccc(S(=O)(=O)[NH+]2CCCC2)cc1 (protonated)
COc1cc2[n-]c(=O)c(C)cc2cc1[N-]S(=O)(=O)c1ccc(S(=O)(=O)[NH+]2CCCC2)cc1 (3D coordinates assigned)
COc1cc2[n-]c(=O)c(C)cc2cc1[N-]S(=O)(=O)c1ccc(S(=O)(=O)[NH+]2CCCC2)cc1 (nonaromatic ring conformer: 62.85644430533055 kcal/mol)

>  <smiles>  (31) 
COc1cc2[nH]c(=O)c(C)cc2cc1NS(=O)(=O)c1ccc(S(=O)(=O)N2CCCC2)cc1

>  <score_type>  (31) 
oracle

>  <origin>  (31) 
adgpu

>  <m_score__min__energy>  (31) 
-12.720000000000001

>  <m_primary>  (31) 
energy

$$$$
31:0
     RDKit          3D

 45 46  0  0  0  0  0  0  0  0999 V2000
   -3.1300   17.1730  -34.2930 C   0  0  0  0  0  0  0  0  0  0  0  0
   -4.3960   17.5410  -33.5780 C   0  0  0  0  0  0  0  0  0  0  0  0
   -4.9640   16.6620  -32.6500 C   0  0  0  0  0  0  0  0  0  0  0  0
   -6.1610   16.9840  -32.0140 C   0  0  0  0  0  0  0  0  0  0  0  0
   -6.8220   18.1930  -32.2970 C   0  0  0  0  0  0  0  0  0  0  0  0
   -8.1210   18.4880  -31.5940 C   0  0  0  0  0  0  0  0  0  0  0  0
   -6.2690   19.0800  -33.2560 C   0  0  0  0  0  0  0  0  0  0  0  0
   -6.9540   20.3730  -33.6550 C   0  0  0  0  0  0  0  0  0  0  0  0
   -6.8760   21.3750  -32.5730 N   0  0  0  0  0  0  0  0  0  0  0  0
   -8.0340   21.7420  -31.9430 C   0  0  0  0  0  0  0  0  0  0  0  0
   -8.0210   22.6760  -30.9090 C   0  0  0  0  0  0  0  0  0  0  0  0
   -6.8170   23.2530  -30.5230 C   0  0  0  0  0  0  0  0  0  0  0  0
   -5.6330   22.9060  -31.1770 C   0  0  0  0  0  0  0  0  0  0  0  0
   -4.1170   23.6310  -30.6260 S   0  0  0  0  0  0  0  0  0  0  0  0
   -4.2040   25.1200  -30.8000 O   0  0  0  0  0  0  0  0  0  0  0  0
   -2.9520   23.1310  -31.4360 O   0  0  0  0  0  0  0  0  0  0  0  0
   -3.8520   23.2770  -28.9440 N   0  0  0  0  0  0  0  0  0  0  0  0
   -2.6130   22.5230  -28.7370 C   0  0  0  0  0  0  0  0  0  0  0  0
   -1.5800   23.3470  -27.9550 C   0  0  0  0  0  0  0  0  0  0  0  0
   -1.8390   24.8580  -28.0290 C   0  0  0  0  0  0  0  0  0  0  0  0
   -1.9510   25.2870  -29.3600 O   0  0  0  0  0  0  0  0  0  0  0  0
   -5.6800   21.9570  -32.2190 C   0  0  0  0  0  0  0  0  0  0  0  0
   -4.6170   21.6410  -32.8190 O   0  0  0  0  0  0  0  0  0  0  0  0
   -5.0600   18.7360  -33.8890 C   0  0  0  0  0  0  0  0  0  0  0  0
   -2.3457   16.9450  -33.5561 H   0  0  0  0  0  0  0  0  0  0  0  0
   -3.3086   16.2896  -34.9236 H   0  0  0  0  0  0  0  0  0  0  0  0
   -2.8072   18.0145  -34.9236 H   0  0  0  0  0  0  0  0  0  0  0  0
   -4.4623   15.7103  -32.4209 H   0  0  0  0  0  0  0  0  0  0  0  0
   -6.5938   16.2854  -31.2828 H   0  0  0  0  0  0  0  0  0  0  0  0
   -7.9652   18.4526  -30.5057 H   0  0  0  0  0  0  0  0  0  0  0  0
   -8.4743   19.4893  -31.8815 H   0  0  0  0  0  0  0  0  0  0  0  0
   -8.8721   17.7376  -31.8815 H   0  0  0  0  0  0  0  0  0  0  0  0
   -6.4638   20.7762  -34.5534 H   0  0  0  0  0  0  0  0  0  0  0  0
   -8.0141   20.1581  -33.8548 H   0  0  0  0  0  0  0  0  0  0  0  0
   -8.9881   21.2936  -32.2571 H   0  0  0  0  0  0  0  0  0  0  0  0
   -8.9566   22.9545  -30.4021 H   0  0  0  0  0  0  0  0  0  0  0  0
   -6.7967   23.9840  -29.7013 H   0  0  0  0  0  0  0  0  0  0  0  0
   -2.8415   21.6069  -28.1726 H   0  0  0  0  0  0  0  0  0  0  0  0
   -2.1876   22.2789  -29.7216 H   0  0  0  0  0  0  0  0  0  0  0  0
   -1.6104   23.0373  -26.8999 H   0  0  0  0  0  0  0  0  0  0  0  0
   -0.5962   23.1588  -28.4096 H   0  0  0  0  0  0  0  0  0  0  0  0
   -2.7740   25.0886  -27.4974 H   0  0  0  0  0  0  0  0  0  0  0  0
   -0.9904   25.3810  -27.5638 H   0  0  0  0  0  0  0  0  0  0  0  0
   -2.3210   24.5220  -29.8750 H   0  0  0  0  0  0  0  0  0  0  0  0
   -4.6293   19.4153  -34.6394 H   0  0  0  0  0  0  0  0  0  0  0  0
  1  2  1  0
  2  3  2  0
  3  4  1  0
  4  5  2  0
  5  6  1  0
  5  7  1  0
  7  8  1  0
  8  9  1  0
  9 10  1  0
 10 11  2  0
 11 12  1  0
 12 13  2  0
 13 14  1  0
 14 15  2  0
 14 16  2  0
 14 17  1  0
 17 18  1  0
 18 19  1  0
 19 20  1  0
 20 21  1  0
 13 22  1  0
 22 23  2  0
  7 24  2  0
 24  2  1  0
 22  9  1  0
  1 25  1  0
  1 26  1  0
  1 27  1  0
  3 28  1  0
  4 29  1  0
  6 30  1  0
  6 31  1  0
  6 32  1  0
  8 33  1  0
  8 34  1  0
 10 35  1  0
 11 36  1  0
 12 37  1  0
 18 38  1  0
 18 39  1  0
 19 40  1  0
 19 41  1  0
 20 42  1  0
 20 43  1  0
 21 44  1  0
 24 45  1  0
M  CHG  1  17  -1
M  END
>  <UniqueID>  (32) 
32

>  <SMILES>  (32) 
Cc1ccc(C)c(Cn2cccc(S(=O)(=O)[N-]CCCO)c2=O)c1

>  <Energy>  (32) 
43.6633914456966

>  <Genealogy>  (32) 
Cc1ccc(C)c(Cn2cccc(S(=O)(=O)[N-]CCCO)c2=O)c1 (protonated)
Cc1ccc(C)c(Cn2cccc(S(=O)(=O)[N-]CCCO)c2=O)c1 (3D coordinates assigned)
Cc1ccc(C)c(Cn2cccc(S(=O)(=O)[N-]CCCO)c2=O)c1 (optimized conformer: 43.6633914456966 kcal/mol)

>  <smiles>  (32) 
Cc1ccc(C)c(Cn2cccc(S(=O)(=O)NCCCO)c2=O)c1

>  <score_type>  (32) 
oracle

>  <origin>  (32) 
adgpu

>  <m_score__min__energy>  (32) 
-9.9000000000000004

>  <m_primary>  (32) 
energy

$$$$
32:0
     RDKit          3D

 45 46  0  0  0  0  0  0  0  0999 V2000
   -1.6120   27.0730  -24.5480 N   0  0  0  0  0  0  0  0  0  0  0  0
   -0.5400   26.4090  -23.8610 C   0  0  0  0  0  0  0  0  0  0  0  0
    0.1490   27.1210  -22.8270 N   0  0  0  0  0  0  0  0  0  0  0  0
   -0.1730   25.1860  -24.1480 N   0  0  0  0  0  0  0  0  0  0  0  0
   -0.7760   24.3150  -25.1630 C   0  0  0  0  0  0  0  0  0  0  0  0
    0.2990   23.6380  -26.0230 C   0  0  0  0  0  0  0  0  0  0  0  0
    0.3100   24.1490  -27.4670 C   0  0  0  0  0  0  0  0  0  0  0  0
   -1.0250   23.9280  -28.1100 C   0  0  0  0  0  0  0  0  0  0  0  0
   -1.7830   22.8250  -27.9210 N   0  0  0  0  0  0  0  0  0  0  0  0
   -2.8990   23.0790  -28.6410 C   0  0  0  0  0  0  0  0  0  0  0  0
   -3.8530   22.2620  -28.7320 O   0  0  0  0  0  0  0  0  0  0  0  0
   -2.8890   24.2850  -29.2500 N   0  0  0  0  0  0  0  0  0  0  0  0
   -3.8930   24.8480  -30.1510 C   0  0  0  0  0  0  0  0  0  0  0  0
   -5.3070   24.4620  -29.6660 C   0  0  0  0  0  0  0  0  0  0  0  0
   -5.7790   23.1300  -30.1260 N   0  0  0  0  0  0  0  0  0  0  0  0
   -5.4090   22.8300  -31.5240 C   0  0  0  0  0  0  0  0  0  0  0  0
   -6.6880   22.7270  -32.3490 C   0  0  0  0  0  0  0  0  0  0  0  0
   -7.8200   23.0950  -31.4090 C   0  0  0  0  0  0  0  0  0  0  0  0
   -7.2370   22.9500  -30.0170 C   0  0  0  0  0  0  0  0  0  0  0  0
   -1.7020   24.8150  -28.9180 C   0  0  0  0  0  0  0  0  0  0  0  0
   -1.2470   26.0620  -29.3340 O   0  0  0  0  0  0  0  0  0  0  0  0
   -1.8980   28.0310  -24.2500 H   0  0  0  0  0  0  0  0  0  0  0  0
   -2.1020   26.6760  -25.3770 H   0  0  0  0  0  0  0  0  0  0  0  0
    0.9370   26.6830  -22.3020 H   0  0  0  0  0  0  0  0  0  0  0  0
   -0.1250   28.0990  -22.5860 H   0  0  0  0  0  0  0  0  0  0  0  0
    0.6330   24.7760  -23.6240 H   0  0  0  0  0  0  0  0  0  0  0  0
   -1.3744   23.5403  -24.6613 H   0  0  0  0  0  0  0  0  0  0  0  0
   -1.4094   24.9308  -25.8184 H   0  0  0  0  0  0  0  0  0  0  0  0
    1.2837   23.8331  -25.5733 H   0  0  0  0  0  0  0  0  0  0  0  0
    0.0712   22.5623  -26.0532 H   0  0  0  0  0  0  0  0  0  0  0  0
    0.5395   25.2248  -27.4689 H   0  0  0  0  0  0  0  0  0  0  0  0
    1.0746   23.5981  -28.0344 H   0  0  0  0  0  0  0  0  0  0  0  0
   -3.7981   25.9438  -30.1643 H   0  0  0  0  0  0  0  0  0  0  0  0
   -3.7355   24.4497  -31.1642 H   0  0  0  0  0  0  0  0  0  0  0  0
   -5.3043   24.4635  -28.5660 H   0  0  0  0  0  0  0  0  0  0  0  0
   -5.9965   25.2022  -30.0980 H   0  0  0  0  0  0  0  0  0  0  0  0
   -5.3190   22.4200  -29.5060 H   0  0  0  0  0  0  0  0  0  0  0  0
   -4.7744   23.6358  -31.9215 H   0  0  0  0  0  0  0  0  0  0  0  0
   -4.8507   21.8834  -31.5724 H   0  0  0  0  0  0  0  0  0  0  0  0
   -6.6531   23.4258  -33.1978 H   0  0  0  0  0  0  0  0  0  0  0  0
   -6.8203   21.7171  -32.7645 H   0  0  0  0  0  0  0  0  0  0  0  0
   -8.1476   24.1302  -31.5850 H   0  0  0  0  0  0  0  0  0  0  0  0
   -8.7032   22.4559  -31.5557 H   0  0  0  0  0  0  0  0  0  0  0  0
   -7.6611   23.7156  -29.3507 H   0  0  0  0  0  0  0  0  0  0  0  0
   -7.4748   21.9608  -29.5987 H   0  0  0  0  0  0  0  0  0  0  0  0
  1  2  1  0
  2  3  1  0
  2  4  2  3
  4  5  1  0
  5  6  1  0
  6  7  1  0
  7  8  1  0
  8  9  1  0
  9 10  1  0
 10 11  2  0
 10 12  1  0
 12 13  1  0
 13 14  1  0
 14 15  1  0
 15 16  1  0
 16 17  1  0
 17 18  1  0
 18 19  1  0
 12 20  1  0
 20 21  1  0
 20  8  2  0
 19 15  1  0
  1 22  1  0
  1 23  1  0
  3 24  1  0
  3 25  1  0
  4 26  1  0
  5 27  1  0
  5 28  1  0
  6 29  1  0
  6 30  1  0
  7 31  1  0
  7 32  1  0
 13 33  1  0
 13 34  1  0
 14 35  1  0
 14 36  1  0
 15 37  1  0
 16 38  1  0
 16 39  1  0
 17 40  1  0
 17 41  1  0
 18 42  1  0
 18 43  1  0
 19 44  1  0
 19 45  1  0
M  CHG  4   4   1   9  -1  15   1  21  -1
M  END
>  <UniqueID>  (33) 
33

>  <SMILES>  (33) 
NC(N)=[NH+]CCCc1[n-]c(=O)n(CC[NH+]2CCCC2)c1[O-]

>  <Energy>  (33) 
75.00254588486506

>  <Genealogy>  (33) 
NC(N)=[NH+]CCCc1[n-]c(=O)n(CC[NH+]2CCCC2)c1[O-] (protonated)
NC(N)=[NH+]CCCc1[n-]c(=O)n(CC[NH+]2CCCC2)c1[O-] (3D coordinates assigned)
NC(N)=[NH+]CCCc1[n-]c(=O)n(CC[NH+]2CCCC2)c1[O-] (nonaromatic ring conformer: 75.00254588486506 kcal/mol)

>  <smiles>  (33) 
NC(N)=NCCCc1[nH]c(=O)n(CCN2CCCC2)c1O

>  <score_type>  (33) 
oracle

>  <origin>  (33) 
adgpu

>  <m_score__min__energy>  (33) 
-10.17

>  <m_primary>  (33) 
energy

$$$$
33:0
     RDKit          3D

 44 46  0  0  0  0  0  0  0  0999 V2000
   -6.4950   17.5710  -33.6290 C   0  0  0  0  0  0  0  0  0  0  0  0
   -6.5400   19.0710  -33.6080 C   0  0  0  0  0  0  0  0  0  0  0  0
   -6.0390   19.6870  -34.5890 O   0  0  0  0  0  0  0  0  0  0  0  0
   -7.2010   19.8130  -32.5500 N   0  0  0  0  0  0  0  0  0  0  0  0
   -6.4900   20.8630  -31.8610 C   0  0  0  0  0  0  0  0  0  0  0  0
   -5.1890   20.6790  -31.3660 C   0  0  0  0  0  0  0  0  0  0  0  0
   -4.5330   21.7280  -30.7160 C   0  0  0  0  0  0  0  0  0  0  0  0
   -5.1690   22.9650  -30.5480 C   0  0  0  0  0  0  0  0  0  0  0  0
   -4.3160   24.2780  -29.7420 S   0  0  0  0  0  0  0  0  0  0  0  0
   -3.8720   25.3040  -30.7520 O   0  0  0  0  0  0  0  0  0  0  0  0
   -5.2570   24.9290  -28.7670 O   0  0  0  0  0  0  0  0  0  0  0  0
   -2.9270   23.6370  -28.8890 N   0  0  0  0  0  0  0  0  0  0  0  0
   -1.7790   24.5420  -29.0180 C   0  0  0  0  0  0  0  0  0  0  0  0
   -1.7660   25.4690  -27.8110 C   0  0  0  0  0  0  0  0  0  0  0  0
   -2.7040   24.8380  -26.8000 C   0  0  0  0  0  0  0  0  0  0  0  0
   -3.2020   23.5560  -27.4510 C   0  0  0  0  0  0  0  0  0  0  0  0
   -6.4780   23.1430  -31.0220 C   0  0  0  0  0  0  0  0  0  0  0  0
   -7.1400   22.0870  -31.6630 C   0  0  0  0  0  0  0  0  0  0  0  0
   -8.5430   22.2220  -32.1730 C   0  0  0  0  0  0  0  0  0  0  0  0
   -9.3320   20.9640  -31.7930 C   0  0  0  0  0  0  0  0  0  0  0  0
   -8.6490   19.6440  -32.2740 C   0  0  2  0  0  0  0  0  0  0  0  0
   -8.8510   18.5420  -31.2270 C   0  0  0  0  0  0  0  0  0  0  0  0
   -6.4836   17.1900  -32.5971 H   0  0  0  0  0  0  0  0  0  0  0  0
   -7.3820   17.1849  -34.1526 H   0  0  0  0  0  0  0  0  0  0  0  0
   -5.5865   17.2387  -34.1526 H   0  0  0  0  0  0  0  0  0  0  0  0
   -4.6858   19.7087  -31.4899 H   0  0  0  0  0  0  0  0  0  0  0  0
   -3.5118   21.5816  -30.3342 H   0  0  0  0  0  0  0  0  0  0  0  0
   -0.8469   23.9588  -29.0496 H   0  0  0  0  0  0  0  0  0  0  0  0
   -1.8592   25.1275  -29.9458 H   0  0  0  0  0  0  0  0  0  0  0  0
   -0.7499   25.5450  -27.3965 H   0  0  0  0  0  0  0  0  0  0  0  0
   -2.0823   26.4882  -28.0779 H   0  0  0  0  0  0  0  0  0  0  0  0
   -2.1673   24.6118  -25.8668 H   0  0  0  0  0  0  0  0  0  0  0  0
   -3.5336   25.5111  -26.5379 H   0  0  0  0  0  0  0  0  0  0  0  0
   -2.6773   22.6908  -27.0195 H   0  0  0  0  0  0  0  0  0  0  0  0
   -4.2813   23.4349  -27.2763 H   0  0  0  0  0  0  0  0  0  0  0  0
   -6.9841   24.1108  -30.8905 H   0  0  0  0  0  0  0  0  0  0  0  0
   -9.0169   23.1058  -31.7210 H   0  0  0  0  0  0  0  0  0  0  0  0
   -8.5326   22.3395  -33.2667 H   0  0  0  0  0  0  0  0  0  0  0  0
   -9.4291   20.9291  -30.6978 H   0  0  0  0  0  0  0  0  0  0  0  0
  -10.3106   21.0275  -32.2913 H   0  0  0  0  0  0  0  0  0  0  0  0
   -9.1287   19.3608  -33.2225 H   0  0  0  0  0  0  0  0  0  0  0  0
   -8.7716   18.9750  -30.2189 H   0  0  0  0  0  0  0  0  0  0  0  0
   -9.8466   18.0922  -31.3555 H   0  0  0  0  0  0  0  0  0  0  0  0
   -8.0797   17.7683  -31.3555 H   0  0  0  0  0  0  0  0  0  0  0  0
  1  2  1  0
  2  3  2  0
  2  4  1  0
  4  5  1  0
  5  6  2  0
  6  7  1  0
  7  8  2  0
  8  9  1  0
  9 10  2  0
  9 11  2  0
  9 12  1  0
 12 13  1  0
 13 14  1  0
 14 15  1  0
 15 16  1  0
  8 17  1  0
 17 18  2  0
 18 19  1  0
 19 20  1  0
 20 21  1  0
 21 22  1  0
 21  4  1  0
 18  5  1  0
 16 12  1  0
  1 23  1  0
  1 24  1  0
  1 25  1  0
  6 26  1  0
  7 27  1  0
 13 28  1  0
 13 29  1  0
 14 30  1  0
 14 31  1  0
 15 32  1  0
 15 33  1  0
 16 34  1  0
 16 35  1  0
 17 36  1  0
 19 37  1  0
 19 38  1  0
 20 39  1  0
 20 40  1  0
 21 41  1  6
 22 42  1  0
 22 43  1  0
 22 44  1  0
M  END
>  <UniqueID>  (34) 
34

>  <SMILES>  (34) 
CC(=O)N1c2ccc(S(=O)(=O)N3CCCC3)cc2CC[C@@H]1C

>  <Energy>  (34) 
52.43069432818307

>  <Genealogy>  (34) 
CC(=O)N1c2ccc(S(=O)(=O)N3CCCC3)cc2CC[C@@H]1C (chirality)
CC(=O)N1c2ccc(S(=O)(=O)N3CCCC3)cc2CC[C@@H]1C (3D coordinates assigned)
CC(=O)N1c2ccc(S(=O)(=O)N3CCCC3)cc2CC[C@@H]1C (nonaromatic ring conformer: 52.43069432818307 kcal/mol)

>  <smiles>  (34) 
CC(=O)N1c2ccc(S(=O)(=O)N3CCCC3)cc2CCC1C

>  <score_type>  (34) 
oracle

>  <origin>  (34) 
adgpu

>  <m_score__min__energy>  (34) 
-9.1500000000000004

>  <m_primary>  (34) 
energy

$$$$
34:0
     RDKit          3D

 62 65  0  0  0  0  0  0  0  0999 V2000
   -3.0180   22.0050  -32.2580 O   0  0  0  0  0  0  0  0  0  0  0  0
   -3.2090   22.9100  -31.3980 C   0  0  0  0  0  0  0  0  0  0  0  0
   -2.0940   23.4340  -30.6660 N   0  0  0  0  0  0  0  0  0  0  0  0
   -1.9150   23.3480  -29.2450 C   0  0  0  0  0  0  0  0  0  0  0  0
   -1.8910   22.0800  -28.6510 C   0  0  0  0  0  0  0  0  0  0  0  0
   -1.7200   21.9440  -27.2680 C   0  0  0  0  0  0  0  0  0  0  0  0
   -1.6400   20.3380  -26.5390 S   0  0  0  0  0  0  0  0  0  0  0  0
   -1.4880   20.4730  -25.0490 O   0  0  0  0  0  0  0  0  0  0  0  0
   -2.9280   19.6090  -26.8060 O   0  0  0  0  0  0  0  0  0  0  0  0
   -0.2900   19.4250  -27.1810 N   0  0  0  0  0  0  0  0  0  0  0  0
   -0.7910   18.2390  -27.9060 C   0  0  0  0  0  0  0  0  0  0  0  0
    0.3370   17.3150  -28.3890 C   0  0  0  0  0  0  0  0  0  0  0  0
    1.5740   17.2360  -27.4740 C   0  0  0  0  0  0  0  0  0  0  0  0
    2.4770   18.4810  -27.5170 C   0  0  0  0  0  0  0  0  0  0  0  0
    1.9590   19.6550  -28.3950 C   0  0  0  0  0  0  0  0  0  0  0  0
    0.6350   20.3100  -27.9350 C   0  0  0  0  0  0  0  0  0  0  0  0
   -1.5910   23.0880  -26.4710 C   0  0  0  0  0  0  0  0  0  0  0  0
   -1.6480   24.3580  -27.0510 C   0  0  0  0  0  0  0  0  0  0  0  0
   -1.8240   24.4950  -28.4310 C   0  0  0  0  0  0  0  0  0  0  0  0
   -1.9430   25.7700  -28.9730 O   0  0  0  0  0  0  0  0  0  0  0  0
   -4.5900   23.3930  -31.1320 C   0  0  0  0  0  0  0  0  0  0  0  0
   -5.6650   22.4850  -31.2050 C   0  0  0  0  0  0  0  0  0  0  0  0
   -6.9810   22.9080  -30.9730 C   0  0  0  0  0  0  0  0  0  0  0  0
   -8.3280   21.7770  -31.0920 S   0  0  0  0  0  0  0  0  0  0  0  0
   -9.1260   22.1070  -32.3230 O   0  0  0  0  0  0  0  0  0  0  0  0
   -9.2220   21.9040  -29.8890 O   0  0  0  0  0  0  0  0  0  0  0  0
   -7.7050   20.1480  -31.2030 N   0  0  0  0  0  0  0  0  0  0  0  0
   -8.7890   19.1490  -31.0610 C   0  0  0  0  0  0  0  0  0  0  0  0
   -9.1170   18.4500  -32.3920 C   0  0  0  0  0  0  0  0  0  0  0  0
   -7.9940   17.7940  -32.9640 O   0  0  0  0  0  0  0  0  0  0  0  0
   -6.7700   18.5030  -32.7980 C   0  0  0  0  0  0  0  0  0  0  0  0
   -6.9360   19.9920  -32.4510 C   0  0  0  0  0  0  0  0  0  0  0  0
   -7.2350   24.2480  -30.6700 C   0  0  0  0  0  0  0  0  0  0  0  0
   -6.1820   25.1580  -30.5880 C   0  0  0  0  0  0  0  0  0  0  0  0
   -4.8650   24.7440  -30.8140 C   0  0  0  0  0  0  0  0  0  0  0  0
   -3.8460   25.6850  -30.7090 O   0  0  0  0  0  0  0  0  0  0  0  0
   -2.0075   21.1828  -29.2766 H   0  0  0  0  0  0  0  0  0  0  0  0
   -1.4489   17.6685  -27.2340 H   0  0  0  0  0  0  0  0  0  0  0  0
   -1.3284   18.5980  -28.7961 H   0  0  0  0  0  0  0  0  0  0  0  0
   -0.0761   16.3002  -28.4872 H   0  0  0  0  0  0  0  0  0  0  0  0
    0.6922   17.7457  -29.3368 H   0  0  0  0  0  0  0  0  0  0  0  0
    1.2281   17.0975  -26.4390 H   0  0  0  0  0  0  0  0  0  0  0  0
    2.1815   16.3949  -27.8393 H   0  0  0  0  0  0  0  0  0  0  0  0
    2.5910   18.8524  -26.4879 H   0  0  0  0  0  0  0  0  0  0  0  0
    3.4205   18.1533  -27.9779 H   0  0  0  0  0  0  0  0  0  0  0  0
    2.7346   20.4349  -28.4065 H   0  0  0  0  0  0  0  0  0  0  0  0
    1.7475   19.2177  -29.3819 H   0  0  0  0  0  0  0  0  0  0  0  0
    0.8864   21.1650  -27.2902 H   0  0  0  0  0  0  0  0  0  0  0  0
    0.1014   20.5894  -28.8554 H   0  0  0  0  0  0  0  0  0  0  0  0
   -1.4444   22.9867  -25.3855 H   0  0  0  0  0  0  0  0  0  0  0  0
   -1.5540   25.2535  -26.4192 H   0  0  0  0  0  0  0  0  0  0  0  0
   -5.4688   21.4301  -31.4473 H   0  0  0  0  0  0  0  0  0  0  0  0
   -8.4760   18.3889  -30.3300 H   0  0  0  0  0  0  0  0  0  0  0  0
   -9.6934   19.6789  -30.7274 H   0  0  0  0  0  0  0  0  0  0  0  0
   -9.9049   17.7039  -32.2116 H   0  0  0  0  0  0  0  0  0  0  0  0
   -9.4421   19.2259  -33.1007 H   0  0  0  0  0  0  0  0  0  0  0  0
   -6.2023   18.0228  -31.9874 H   0  0  0  0  0  0  0  0  0  0  0  0
   -6.2526   18.4642  -33.7680 H   0  0  0  0  0  0  0  0  0  0  0  0
   -5.9427   20.4470  -32.3236 H   0  0  0  0  0  0  0  0  0  0  0  0
   -7.4787   20.4897  -33.2682 H   0  0  0  0  0  0  0  0  0  0  0  0
   -8.2674   24.5855  -30.4959 H   0  0  0  0  0  0  0  0  0  0  0  0
   -6.3885   26.2104  -30.3435 H   0  0  0  0  0  0  0  0  0  0  0  0
  1  2  2  0
  2  3  1  0
  3  4  1  0
  4  5  2  0
  5  6  1  0
  6  7  1  0
  7  8  2  0
  7  9  2  0
  7 10  1  0
 10 11  1  0
 11 12  1  0
 12 13  1  0
 13 14  1  0
 14 15  1  0
 15 16  1  0
  6 17  2  0
 17 18  1  0
 18 19  2  0
 19 20  1  0
  2 21  1  0
 21 22  2  0
 22 23  1  0
 23 24  1  0
 24 25  2  0
 24 26  2  0
 24 27  1  0
 27 28  1  0
 28 29  1  0
 29 30  1  0
 30 31  1  0
 31 32  1  0
 23 33  2  0
 33 34  1  0
 34 35  2  0
 35 36  1  0
 19  4  1  0
 35 21  1  0
 16 10  1  0
 32 27  1  0
  5 37  1  0
 11 38  1  0
 11 39  1  0
 12 40  1  0
 12 41  1  0
 13 42  1  0
 13 43  1  0
 14 44  1  0
 14 45  1  0
 15 46  1  0
 15 47  1  0
 16 48  1  0
 16 49  1  0
 17 50  1  0
 18 51  1  0
 22 52  1  0
 28 53  1  0
 28 54  1  0
 29 55  1  0
 29 56  1  0
 31 57  1  0
 31 58  1  0
 32 59  1  0
 32 60  1  0
 33 61  1  0
 34 62  1  0
M  CHG  3   3  -1  20  -1  36  -1
M  END
>  <UniqueID>  (35) 
35

>  <SMILES>  (35) 
O=C([N-]c1cc(S(=O)(=O)N2CCCCCC2)ccc1[O-])c1cc(S(=O)(=O)N2CCOCC2)ccc1[O-]

>  <Energy>  (35) 
96.74826764916881

>  <Genealogy>  (35) 
O=C([N-]c1cc(S(=O)(=O)N2CCCCCC2)ccc1[O-])c1cc(S(=O)(=O)N2CCOCC2)ccc1[O-] (protonated)
O=C([N-]c1cc(S(=O)(=O)N2CCCCCC2)ccc1[O-])c1cc(S(=O)(=O)N2CCOCC2)ccc1[O-] (3D coordinates assigned)
O=C([N-]c1cc(S(=O)(=O)N2CCCCCC2)ccc1[O-])c1cc(S(=O)(=O)N2CCOCC2)ccc1[O-] (nonaromatic ring conformer: 96.74826764916881 kcal/mol)

>  <smiles>  (35) 
O=C(Nc1cc(S(=O)(=O)N2CCCCCC2)ccc1O)c1cc(S(=O)(=O)N2CCOCC2)ccc1O

>  <score_type>  (35) 
oracle

>  <origin>  (35) 
adgpu

>  <m_score__min__energy>  (35) 
-14.18

>  <m_primary>  (35) 
energy

$$$$
35:0
     RDKit          3D

 59 62  0  0  0  0  0  0  0  0999 V2000
   -3.2620   21.5570  -29.7740 O   0  0  0  0  0  0  0  0  0  0  0  0
   -3.6010   22.7580  -29.5900 C   0  0  0  0  0  0  0  0  0  0  0  0
   -2.8230   23.6130  -28.7330 N   0  0  0  0  0  0  0  0  0  0  0  0
   -1.6330   23.1960  -28.0420 C   0  0  0  0  0  0  0  0  0  0  0  0
   -0.7600   22.2950  -28.6680 C   0  0  0  0  0  0  0  0  0  0  0  0
    0.4120   21.8840  -28.0270 C   0  0  0  0  0  0  0  0  0  0  0  0
    0.7300   22.3830  -26.7610 C   0  0  0  0  0  0  0  0  0  0  0  0
   -0.1180   23.3060  -26.1360 C   0  0  0  0  0  0  0  0  0  0  0  0
    0.2650   23.9450  -24.5390 S   0  0  0  0  0  0  0  0  0  0  0  0
    1.3980   23.1400  -23.9650 O   0  0  0  0  0  0  0  0  0  0  0  0
   -0.9260   23.8160  -23.6310 O   0  0  0  0  0  0  0  0  0  0  0  0
    0.7430   25.6220  -24.6780 N   0  0  0  0  0  0  0  0  0  0  0  0
    0.4220   26.1410  -26.0120 C   0  0  0  0  0  0  0  0  0  0  0  0
   -0.9530   26.7900  -25.9490 C   0  0  0  0  0  0  0  0  0  0  0  0
   -1.2360   27.0010  -24.4740 C   0  0  0  0  0  0  0  0  0  0  0  0
   -0.0200   26.4530  -23.7410 C   0  0  0  0  0  0  0  0  0  0  0  0
   -1.2930   23.7160  -26.7800 C   0  0  0  0  0  0  0  0  0  0  0  0
   -4.8150   23.2670  -30.2640 C   0  0  0  0  0  0  0  0  0  0  0  0
   -5.8720   22.3820  -30.5340 C   0  0  0  0  0  0  0  0  0  0  0  0
   -7.0380   22.8330  -31.1680 C   0  0  0  0  0  0  0  0  0  0  0  0
   -8.3620   21.7100  -31.4930 S   0  0  0  0  0  0  0  0  0  0  0  0
   -9.0100   21.3250  -30.1920 O   0  0  0  0  0  0  0  0  0  0  0  0
   -9.3970   22.3940  -32.3430 O   0  0  0  0  0  0  0  0  0  0  0  0
   -7.8000   20.2710  -32.3070 N   0  0  0  0  0  0  0  0  0  0  0  0
   -6.5870   20.5720  -33.0970 C   0  0  0  0  0  0  0  0  0  0  0  0
   -5.8850   19.2930  -33.6070 C   0  0  0  0  0  0  0  0  0  0  0  0
   -6.7960   18.0660  -33.5040 C   0  0  0  0  0  0  0  0  0  0  0  0
   -7.2870   17.8640  -32.0610 C   0  0  0  0  0  0  0  0  0  0  0  0
   -7.5410   19.1980  -31.3330 C   0  0  0  0  0  0  0  0  0  0  0  0
   -7.1450   24.1780  -31.5420 C   0  0  0  0  0  0  0  0  0  0  0  0
   -6.0920   25.0610  -31.2970 C   0  0  0  0  0  0  0  0  0  0  0  0
   -4.9250   24.6130  -30.6700 C   0  0  0  0  0  0  0  0  0  0  0  0
   -3.8740   25.5050  -30.4870 O   0  0  0  0  0  0  0  0  0  0  0  0
   -3.0980   24.6170  -28.6460 H   0  0  0  0  0  0  0  0  0  0  0  0
   -0.9990   21.9091  -29.6700 H   0  0  0  0  0  0  0  0  0  0  0  0
    1.0850   21.1668  -28.5197 H   0  0  0  0  0  0  0  0  0  0  0  0
    1.6480   22.0503  -26.2544 H   0  0  0  0  0  0  0  0  0  0  0  0
    1.1728   26.8867  -26.3125 H   0  0  0  0  0  0  0  0  0  0  0  0
    0.4244   25.3245  -26.7491 H   0  0  0  0  0  0  0  0  0  0  0  0
   -0.9481   27.7529  -26.4808 H   0  0  0  0  0  0  0  0  0  0  0  0
   -1.7214   26.1637  -26.4258 H   0  0  0  0  0  0  0  0  0  0  0  0
   -1.3647   28.0717  -24.2571 H   0  0  0  0  0  0  0  0  0  0  0  0
   -2.1616   26.4957  -24.1610 H   0  0  0  0  0  0  0  0  0  0  0  0
    0.6064   27.2843  -23.3852 H   0  0  0  0  0  0  0  0  0  0  0  0
   -0.3364   25.8553  -22.8734 H   0  0  0  0  0  0  0  0  0  0  0  0
   -1.9541   24.4495  -26.2953 H   0  0  0  0  0  0  0  0  0  0  0  0
   -5.7838   21.3243  -30.2450 H   0  0  0  0  0  0  0  0  0  0  0  0
   -6.8727   21.1875  -33.9627 H   0  0  0  0  0  0  0  0  0  0  0  0
   -5.8819   21.1031  -32.4407 H   0  0  0  0  0  0  0  0  0  0  0  0
   -5.6007   19.4383  -34.6596 H   0  0  0  0  0  0  0  0  0  0  0  0
   -4.9991   19.1153  -32.9797 H   0  0  0  0  0  0  0  0  0  0  0  0
   -7.6652   18.2069  -34.1633 H   0  0  0  0  0  0  0  0  0  0  0  0
   -6.2227   17.1774  -33.8068 H   0  0  0  0  0  0  0  0  0  0  0  0
   -8.2254   17.2905  -32.0845 H   0  0  0  0  0  0  0  0  0  0  0  0
   -6.4994   17.3276  -31.5115 H   0  0  0  0  0  0  0  0  0  0  0  0
   -8.4134   19.0900  -30.6717 H   0  0  0  0  0  0  0  0  0  0  0  0
   -6.6502   19.4584  -30.7426 H   0  0  0  0  0  0  0  0  0  0  0  0
   -8.0617   24.5400  -32.0304 H   0  0  0  0  0  0  0  0  0  0  0  0
   -6.1806   26.1151  -31.5988 H   0  0  0  0  0  0  0  0  0  0  0  0
  1  2  2  0
  2  3  1  0
  3  4  1  0
  4  5  2  0
  5  6  1  0
  6  7  2  0
  7  8  1  0
  8  9  1  0
  9 10  2  0
  9 11  2  0
  9 12  1  0
 12 13  1  0
 13 14  1  0
 14 15  1  0
 15 16  1  0
  8 17  2  0
  2 18  1  0
 18 19  2  0
 19 20  1  0
 20 21  1  0
 21 22  2  0
 21 23  2  0
 21 24  1  0
 24 25  1  0
 25 26  1  0
 26 27  1  0
 27 28  1  0
 28 29  1  0
 20 30  2  0
 30 31  1  0
 31 32  2  0
 32 33  1  0
 17  4  1  0
 32 18  1  0
 16 12  1  0
 29 24  1  0
  3 34  1  0
  5 35  1  0
  6 36  1  0
  7 37  1  0
 13 38  1  0
 13 39  1  0
 14 40  1  0
 14 41  1  0
 15 42  1  0
 15 43  1  0
 16 44  1  0
 16 45  1  0
 17 46  1  0
 19 47  1  0
 25 48  1  0
 25 49  1  0
 26 50  1  0
 26 51  1  0
 27 52  1  0
 27 53  1  0
 28 54  1  0
 28 55  1  0
 29 56  1  0
 29 57  1  0
 30 58  1  0
 31 59  1  0
M  CHG  1  33  -1
M  END
>  <UniqueID>  (36) 
36

>  <SMILES>  (36) 
O=C(Nc1cccc(S(=O)(=O)N2CCCC2)c1)c1cc(S(=O)(=O)N2CCCCC2)ccc1[O-]

>  <Energy>  (36) 
73.01925873764732

>  <Genealogy>  (36) 
O=C(Nc1cccc(S(=O)(=O)N2CCCC2)c1)c1cc(S(=O)(=O)N2CCCCC2)ccc1[O-] (protonated)
O=C(Nc1cccc(S(=O)(=O)N2CCCC2)c1)c1cc(S(=O)(=O)N2CCCCC2)ccc1[O-] (3D coordinates assigned)
O=C(Nc1cccc(S(=O)(=O)N2CCCC2)c1)c1cc(S(=O)(=O)N2CCCCC2)ccc1[O-] (nonaromatic ring conformer: 73.01925873764732 kcal/mol)

>  <smiles>  (36) 
O=C(Nc1cccc(S(=O)(=O)N2CCCC2)c1)c1cc(S(=O)(=O)N2CCCCC2)ccc1O

>  <score_type>  (36) 
oracle

>  <origin>  (36) 
adgpu

>  <m_score__min__energy>  (36) 
-13.460000000000001

>  <m_primary>  (36) 
energy

$$$$
36:0
     RDKit          3D

 43 45  0  0  0  0  0  0  0  0999 V2000
   -3.8750   25.6230  -30.8130 O   0  0  0  0  0  0  0  0  0  0  0  0
   -5.0730   25.2620  -30.6650 C   0  0  0  0  0  0  0  0  0  0  0  0
   -5.9540   26.1060  -29.9990 O   0  0  0  0  0  0  0  0  0  0  0  0
   -5.5360   23.9580  -31.1910 C   0  0  0  0  0  0  0  0  0  0  0  0
   -6.7840   23.8440  -31.8280 C   0  0  0  0  0  0  0  0  0  0  0  0
   -7.2160   22.6100  -32.3230 C   0  0  0  0  0  0  0  0  0  0  0  0
   -6.4070   21.4790  -32.1890 C   0  0  0  0  0  0  0  0  0  0  0  0
   -5.1610   21.5800  -31.5620 C   0  0  0  0  0  0  0  0  0  0  0  0
   -4.1170   20.1300  -31.4000 S   0  0  0  0  0  0  0  0  0  0  0  0
   -2.9140   20.9920  -30.3750 C   0  0  0  0  0  0  0  0  0  0  0  0
   -3.1270   21.0120  -28.9910 C   0  0  0  0  0  0  0  0  0  0  0  0
   -2.2710   21.7270  -28.1520 C   0  0  0  0  0  0  0  0  0  0  0  0
   -1.1920   22.4360  -28.6880 C   0  0  0  0  0  0  0  0  0  0  0  0
   -0.0970   23.3350  -27.6410 S   0  0  0  0  0  0  0  0  0  0  0  0
    0.3950   24.5700  -28.3480 O   0  0  0  0  0  0  0  0  0  0  0  0
    1.0850   22.4610  -27.3260 O   0  0  0  0  0  0  0  0  0  0  0  0
   -0.9190   23.7750  -26.1610 N   0  0  0  0  0  0  0  0  0  0  0  0
   -2.0620   24.6570  -26.4300 C   0  0  0  0  0  0  0  0  0  0  0  0
   -1.5780   26.0940  -26.2930 C   0  0  0  0  0  0  0  0  0  0  0  0
   -0.2620   26.0140  -25.5390 C   0  0  0  0  0  0  0  0  0  0  0  0
   -0.0320   24.5330  -25.2700 C   0  0  0  0  0  0  0  0  0  0  0  0
   -0.9640   22.4100  -30.0700 C   0  0  0  0  0  0  0  0  0  0  0  0
   -1.8090   21.6820  -30.9270 C   0  0  0  0  0  0  0  0  0  0  0  0
   -1.5310   21.6580  -32.3380 N   0  0  0  0  0  0  0  0  0  0  0  0
   -2.4350   21.9150  -33.1590 O   0  0  0  0  0  0  0  0  0  0  0  0
   -0.2410   21.5190  -32.7970 O   0  0  0  0  0  0  0  0  0  0  0  0
   -4.7290   22.8130  -31.0590 C   0  0  0  0  0  0  0  0  0  0  0  0
   -7.4247   24.7314  -31.9376 H   0  0  0  0  0  0  0  0  0  0  0  0
   -8.1946   22.5295  -32.8188 H   0  0  0  0  0  0  0  0  0  0  0  0
   -6.7502   20.5085  -32.5768 H   0  0  0  0  0  0  0  0  0  0  0  0
   -3.9759   20.4597  -28.5617 H   0  0  0  0  0  0  0  0  0  0  0  0
   -2.4459   21.7326  -27.0660 H   0  0  0  0  0  0  0  0  0  0  0  0
   -1.2420   22.8980  -25.6890 H   0  0  0  0  0  0  0  0  0  0  0  0
   -2.4378   24.4835  -27.4492 H   0  0  0  0  0  0  0  0  0  0  0  0
   -2.8796   24.4560  -25.7221 H   0  0  0  0  0  0  0  0  0  0  0  0
   -1.4249   26.5434  -27.2853 H   0  0  0  0  0  0  0  0  0  0  0  0
   -2.3113   26.7209  -25.7646 H   0  0  0  0  0  0  0  0  0  0  0  0
    0.5557   26.4246  -26.1496 H   0  0  0  0  0  0  0  0  0  0  0  0
   -0.2918   26.5967  -24.6065 H   0  0  0  0  0  0  0  0  0  0  0  0
    1.0169   24.2732  -25.4758 H   0  0  0  0  0  0  0  0  0  0  0  0
   -0.2469   24.2944  -24.2179 H   0  0  0  0  0  0  0  0  0  0  0  0
   -0.1131   22.9661  -30.4904 H   0  0  0  0  0  0  0  0  0  0  0  0
   -3.7528   22.8871  -30.5575 H   0  0  0  0  0  0  0  0  0  0  0  0
  1  2  2  0
  2  3  1  0
  2  4  1  0
  4  5  2  0
  5  6  1  0
  6  7  2  0
  7  8  1  0
  8  9  1  0
  9 10  1  0
 10 11  2  0
 11 12  1  0
 12 13  2  0
 13 14  1  0
 14 15  2  0
 14 16  2  0
 14 17  1  0
 17 18  1  0
 18 19  1  0
 19 20  1  0
 20 21  1  0
 13 22  1  0
 22 23  2  0
 23 24  1  0
 24 25  2  0
 24 26  1  0
  8 27  2  0
 27  4  1  0
 23 10  1  0
 21 17  1  0
  5 28  1  0
  6 29  1  0
  7 30  1  0
 11 31  1  0
 12 32  1  0
 17 33  1  0
 18 34  1  0
 18 35  1  0
 19 36  1  0
 19 37  1  0
 20 38  1  0
 20 39  1  0
 21 40  1  0
 21 41  1  0
 22 42  1  0
 27 43  1  0
M  CHG  4   3  -1  17   1  24   1  26  -1
M  END
>  <UniqueID>  (37) 
37

>  <SMILES>  (37) 
O=C([O-])c1cccc(Sc2ccc(S(=O)(=O)[NH+]3CCCC3)cc2[N+](=O)[O-])c1

>  <Energy>  (37) 
46.34547008178484

>  <Genealogy>  (37) 
O=C([O-])c1cccc(Sc2ccc(S(=O)(=O)[NH+]3CCCC3)cc2[N+](=O)[O-])c1 (protonated)
O=C([O-])c1cccc(Sc2ccc(S(=O)(=O)[NH+]3CCCC3)cc2[N+](=O)[O-])c1 (3D coordinates assigned)
O=C([O-])c1cccc(Sc2ccc(S(=O)(=O)[NH+]3CCCC3)cc2[N+](=O)[O-])c1 (nonaromatic ring conformer: 46.34547008178484 kcal/mol)

>  <smiles>  (37) 
O=C(O)c1cccc(Sc2ccc(S(=O)(=O)N3CCCC3)cc2[N+](=O)[O-])c1

>  <score_type>  (37) 
oracle

>  <origin>  (37) 
adgpu

>  <m_score__min__energy>  (37) 
-10.6

>  <m_primary>  (37) 
energy

$$$$
37:0
     RDKit          3D

 63 67  0  0  0  0  0  0  0  0999 V2000
   -3.5760   18.6350  -26.3580 C   0  0  0  0  0  0  0  0  0  0  0  0
   -2.3710   19.3090  -26.9490 C   0  0  0  0  0  0  0  0  0  0  0  0
   -1.3120   18.5420  -27.4610 C   0  0  0  0  0  0  0  0  0  0  0  0
   -0.1980   19.1690  -28.0270 C   0  0  0  0  0  0  0  0  0  0  0  0
   -0.1360   20.5640  -28.0940 C   0  0  0  0  0  0  0  0  0  0  0  0
   -1.1920   21.3410  -27.5950 C   0  0  0  0  0  0  0  0  0  0  0  0
   -1.1240   22.7790  -27.6430 N   0  0  0  0  0  0  0  0  0  0  0  0
   -1.3470   23.4520  -28.8230 C   0  0  0  0  0  0  0  0  0  0  0  0
   -1.6300   22.7310  -30.1190 C   0  0  0  0  0  0  0  0  0  0  0  0
   -2.9830   22.1700  -30.1420 N   0  0  0  0  0  0  0  0  0  0  0  0
   -4.1980   23.4160  -30.0770 S   0  0  0  0  0  0  0  0  0  0  0  0
   -3.6720   24.6480  -30.7590 O   0  0  0  0  0  0  0  0  0  0  0  0
   -4.4910   23.7590  -28.6420 O   0  0  0  0  0  0  0  0  0  0  0  0
   -5.6710   22.9010  -30.8960 C   0  0  0  0  0  0  0  0  0  0  0  0
   -6.6710   23.8270  -31.2280 C   0  0  0  0  0  0  0  0  0  0  0  0
   -7.8430   23.3960  -31.8540 C   0  0  0  0  0  0  0  0  0  0  0  0
   -8.0250   22.0420  -32.1510 C   0  0  0  0  0  0  0  0  0  0  0  0
   -7.0360   21.1080  -31.8120 C   0  0  0  0  0  0  0  0  0  0  0  0
   -7.2610   19.3930  -32.1750 S   0  0  0  0  0  0  0  0  0  0  0  0
   -8.7320   19.1040  -32.2930 O   0  0  0  0  0  0  0  0  0  0  0  0
   -6.7180   18.5770  -31.0360 O   0  0  0  0  0  0  0  0  0  0  0  0
   -6.4700   18.9100  -33.6590 N   0  0  0  0  0  0  0  0  0  0  0  0
   -6.4690   17.4580  -33.8420 C   0  0  0  0  0  0  0  0  0  0  0  0
   -5.3040   17.1460  -34.7690 C   0  0  0  0  0  0  0  0  0  0  0  0
   -4.3420   18.3180  -34.6100 C   0  0  0  0  0  0  0  0  0  0  0  0
   -5.0620   19.3240  -33.7160 C   0  0  0  0  0  0  0  0  0  0  0  0
   -5.8580   21.5450  -31.1890 C   0  0  0  0  0  0  0  0  0  0  0  0
   -1.2510   24.8060  -28.8590 N   0  0  0  0  0  0  0  0  0  0  0  0
   -0.9350   25.5300  -27.7580 C   0  0  0  0  0  0  0  0  0  0  0  0
   -0.8320   26.9240  -27.8420 C   0  0  0  0  0  0  0  0  0  0  0  0
   -0.4900   27.6700  -26.7110 C   0  0  0  0  0  0  0  0  0  0  0  0
   -0.2500   27.0280  -25.4930 C   0  0  0  0  0  0  0  0  0  0  0  0
   -0.3540   25.6380  -25.4000 C   0  0  0  0  0  0  0  0  0  0  0  0
   -0.6950   24.8760  -26.5360 C   0  0  0  0  0  0  0  0  0  0  0  0
   -0.8000   23.4740  -26.5030 C   0  0  0  0  0  0  0  0  0  0  0  0
   -0.5960   22.8550  -25.4190 O   0  0  0  0  0  0  0  0  0  0  0  0
   -2.3170   20.7090  -27.0400 C   0  0  0  0  0  0  0  0  0  0  0  0
   -3.5140   18.6697  -25.2603 H   0  0  0  0  0  0  0  0  0  0  0  0
   -4.4867   19.1547  -26.6904 H   0  0  0  0  0  0  0  0  0  0  0  0
   -3.6098   17.5870  -26.6904 H   0  0  0  0  0  0  0  0  0  0  0  0
   -1.3591   17.4439  -27.4166 H   0  0  0  0  0  0  0  0  0  0  0  0
    0.6316   18.5633  -28.4205 H   0  0  0  0  0  0  0  0  0  0  0  0
    0.7428   21.0535  -28.5390 H   0  0  0  0  0  0  0  0  0  0  0  0
   -1.5241   23.4410  -30.9525 H   0  0  0  0  0  0  0  0  0  0  0  0
   -0.9132   21.9021  -30.2142 H   0  0  0  0  0  0  0  0  0  0  0  0
   -6.5322   24.8931  -30.9953 H   0  0  0  0  0  0  0  0  0  0  0  0
   -8.6253   24.1243  -32.1141 H   0  0  0  0  0  0  0  0  0  0  0  0
   -8.9461   21.7089  -32.6517 H   0  0  0  0  0  0  0  0  0  0  0  0
   -6.9840   19.3520  -34.4580 H   0  0  0  0  0  0  0  0  0  0  0  0
   -6.3323   16.9522  -32.8748 H   0  0  0  0  0  0  0  0  0  0  0  0
   -7.4219   17.1074  -34.2651 H   0  0  0  0  0  0  0  0  0  0  0  0
   -4.8174   16.2047  -34.4737 H   0  0  0  0  0  0  0  0  0  0  0  0
   -5.6305   17.0206  -35.8119 H   0  0  0  0  0  0  0  0  0  0  0  0
   -3.4065   17.9850  -34.1368 H   0  0  0  0  0  0  0  0  0  0  0  0
   -4.0731   18.7576  -35.5818 H   0  0  0  0  0  0  0  0  0  0  0  0
   -4.6237   19.3156  -32.7071 H   0  0  0  0  0  0  0  0  0  0  0  0
   -4.9667   20.3449  -34.1144 H   0  0  0  0  0  0  0  0  0  0  0  0
   -5.0754   20.8171  -30.9287 H   0  0  0  0  0  0  0  0  0  0  0  0
   -1.0205   27.4322  -28.7992 H   0  0  0  0  0  0  0  0  0  0  0  0
   -0.4095   28.7649  -26.7795 H   0  0  0  0  0  0  0  0  0  0  0  0
    0.0214   27.6186  -24.6055 H   0  0  0  0  0  0  0  0  0  0  0  0
   -0.1694   25.1370  -24.4383 H   0  0  0  0  0  0  0  0  0  0  0  0
   -3.1600   21.3140  -26.6748 H   0  0  0  0  0  0  0  0  0  0  0  0
  1  2  1  0
  2  3  2  0
  3  4  1  0
  4  5  2  0
  5  6  1  0
  6  7  1  0
  7  8  1  0
  8  9  1  0
  9 10  1  0
 10 11  1  0
 11 12  2  0
 11 13  2  0
 11 14  1  0
 14 15  2  0
 15 16  1  0
 16 17  2  0
 17 18  1  0
 18 19  1  0
 19 20  2  0
 19 21  2  0
 19 22  1  0
 22 23  1  0
 23 24  1  0
 24 25  1  0
 25 26  1  0
 18 27  2  0
  8 28  2  0
 28 29  1  0
 29 30  2  0
 30 31  1  0
 31 32  2  0
 32 33  1  0
 33 34  2  0
 34 35  1  0
 35 36  2  0
  6 37  2  0
 37  2  1  0
 35  7  1  0
 27 14  1  0
 34 29  1  0
 26 22  1  0
  1 38  1  0
  1 39  1  0
  1 40  1  0
  3 41  1  0
  4 42  1  0
  5 43  1  0
  9 44  1  0
  9 45  1  0
 15 46  1  0
 16 47  1  0
 17 48  1  0
 22 49  1  0
 23 50  1  0
 23 51  1  0
 24 52  1  0
 24 53  1  0
 25 54  1  0
 25 55  1  0
 26 56  1  0
 26 57  1  0
 27 58  1  0
 30 59  1  0
 31 60  1  0
 32 61  1  0
 33 62  1  0
 37 63  1  0
M  CHG  2  10  -1  22   1
M  END
>  <UniqueID>  (38) 
38

>  <SMILES>  (38) 
Cc1cccc(-n2c(C[N-]S(=O)(=O)c3cccc(S(=O)(=O)[NH+]4CCCC4)c3)nc3ccccc3c2=O)c1

>  <Energy>  (38) 
79.81286867821879

>  <Genealogy>  (38) 
Cc1cccc(-n2c(C[N-]S(=O)(=O)c3cccc(S(=O)(=O)[NH+]4CCCC4)c3)nc3ccccc3c2=O)c1 (protonated)
Cc1cccc(-n2c(C[N-]S(=O)(=O)c3cccc(S(=O)(=O)[NH+]4CCCC4)c3)nc3ccccc3c2=O)c1 (3D coordinates assigned)
Cc1cccc(-n2c(C[N-]S(=O)(=O)c3cccc(S(=O)(=O)[NH+]4CCCC4)c3)nc3ccccc3c2=O)c1 (nonaromatic ring conformer: 79.81286867821879 kcal/mol)

>  <smiles>  (38) 
Cc1cccc(-n2c(CNS(=O)(=O)c3cccc(S(=O)(=O)N4CCCC4)c3)nc3ccccc3c2=O)c1

>  <score_type>  (38) 
oracle

>  <origin>  (38) 
adgpu

>  <m_score__min__energy>  (38) 
-12.81

>  <m_primary>  (38) 
energy

$$$$
38:0
     RDKit          3D

 53 57  0  0  0  0  0  0  0  0999 V2000
   -5.7650   25.2970  -28.9900 O   0  0  0  0  0  0  0  0  0  0  0  0
   -5.2740   25.0720  -30.3920 S   0  0  0  0  0  0  0  0  0  0  0  0
   -5.7440   26.2240  -31.2350 O   0  0  0  0  0  0  0  0  0  0  0  0
   -3.5410   24.9910  -30.3550 N   0  0  0  0  0  0  0  0  0  0  0  0
   -2.7400   24.2970  -29.3860 C   0  0  0  0  0  0  0  0  0  0  0  0
   -3.0680   23.0130  -28.9270 C   0  0  0  0  0  0  0  0  0  0  0  0
   -2.2640   22.3610  -27.9800 C   0  0  0  0  0  0  0  0  0  0  0  0
   -1.1320   23.0160  -27.4560 C   0  0  0  0  0  0  0  0  0  0  0  0
   -0.7910   24.2870  -27.9350 C   0  0  0  0  0  0  0  0  0  0  0  0
   -1.5850   24.9230  -28.8950 C   0  0  0  0  0  0  0  0  0  0  0  0
   -1.2320   26.1950  -29.3430 O   0  0  0  0  0  0  0  0  0  0  0  0
   -0.2300   22.3250  -26.4570 C   0  0  0  0  0  0  0  0  0  0  0  0
   -0.8930   21.1970  -25.7810 N   0  0  0  0  0  0  0  0  0  0  0  0
   -1.5150   20.2950  -26.7560 C   0  0  0  0  0  0  0  0  0  0  0  0
   -2.6650   20.9980  -27.4830 C   0  0  0  0  0  0  0  0  0  0  0  0
   -5.9270   23.5500  -30.9970 C   0  0  0  0  0  0  0  0  0  0  0  0
   -5.0650   22.5440  -31.4550 C   0  0  0  0  0  0  0  0  0  0  0  0
   -5.5770   21.3530  -31.9760 C   0  0  0  0  0  0  0  0  0  0  0  0
   -6.9670   21.1560  -32.0630 C   0  0  0  0  0  0  0  0  0  0  0  0
   -7.5320   19.9790  -32.6070 C   0  0  0  0  0  0  0  0  0  0  0  0
   -6.7130   18.9140  -33.1100 N   0  0  0  0  0  0  0  0  0  0  0  0
   -6.6710   17.6300  -32.4060 C   0  0  0  0  0  0  0  0  0  0  0  0
   -6.5080   16.5020  -33.4250 C   0  0  0  0  0  0  0  0  0  0  0  0
   -5.4100   16.7540  -34.2880 O   0  0  0  0  0  0  0  0  0  0  0  0
   -5.6770   17.8980  -35.0830 C   0  0  0  0  0  0  0  0  0  0  0  0
   -5.7770   19.1550  -34.2090 C   0  0  0  0  0  0  0  0  0  0  0  0
   -8.9240   19.8440  -32.6620 C   0  0  0  0  0  0  0  0  0  0  0  0
   -9.7410   20.8700  -32.1830 C   0  0  0  0  0  0  0  0  0  0  0  0
   -9.1850   21.9980  -31.6640 N   0  0  0  0  0  0  0  0  0  0  0  0
   -7.8360   22.1690  -31.5930 C   0  0  0  0  0  0  0  0  0  0  0  0
   -7.3120   23.3500  -31.0560 C   0  0  0  0  0  0  0  0  0  0  0  0
   -3.9668   22.5109  -29.3143 H   0  0  0  0  0  0  0  0  0  0  0  0
    0.1096   24.7898  -27.5528 H   0  0  0  0  0  0  0  0  0  0  0  0
    0.6570   21.9465  -26.9861 H   0  0  0  0  0  0  0  0  0  0  0  0
    0.0409   23.0623  -25.6869 H   0  0  0  0  0  0  0  0  0  0  0  0
   -1.6330   21.5700  -25.1390 H   0  0  0  0  0  0  0  0  0  0  0  0
   -0.7598   19.9817  -27.4919 H   0  0  0  0  0  0  0  0  0  0  0  0
   -1.9143   19.4188  -26.2243 H   0  0  0  0  0  0  0  0  0  0  0  0
   -2.9724   20.3826  -28.3413 H   0  0  0  0  0  0  0  0  0  0  0  0
   -3.4928   21.1248  -26.7698 H   0  0  0  0  0  0  0  0  0  0  0  0
   -3.9764   22.6935  -31.4038 H   0  0  0  0  0  0  0  0  0  0  0  0
   -4.8899   20.5658  -32.3197 H   0  0  0  0  0  0  0  0  0  0  0  0
   -5.8207   17.6209  -31.7082 H   0  0  0  0  0  0  0  0  0  0  0  0
   -7.6052   17.4869  -31.8431 H   0  0  0  0  0  0  0  0  0  0  0  0
   -6.3364   15.5560  -32.8906 H   0  0  0  0  0  0  0  0  0  0  0  0
   -7.4242   16.4404  -34.0307 H   0  0  0  0  0  0  0  0  0  0  0  0
   -4.8637   18.0289  -35.8119 H   0  0  0  0  0  0  0  0  0  0  0  0
   -6.6355   17.7515  -35.6025 H   0  0  0  0  0  0  0  0  0  0  0  0
   -4.7851   19.3961  -33.7992 H   0  0  0  0  0  0  0  0  0  0  0  0
   -6.1373   19.9968  -34.8186 H   0  0  0  0  0  0  0  0  0  0  0  0
   -9.3733   18.9318  -33.0816 H   0  0  0  0  0  0  0  0  0  0  0  0
  -10.8353   20.7662  -32.2253 H   0  0  0  0  0  0  0  0  0  0  0  0
   -7.9926   24.1269  -30.6775 H   0  0  0  0  0  0  0  0  0  0  0  0
  1  2  2  0
  2  3  2  0
  2  4  1  0
  4  5  1  0
  5  6  2  0
  6  7  1  0
  7  8  2  0
  8  9  1  0
  9 10  2  0
 10 11  1  0
  8 12  1  0
 12 13  1  0
 13 14  1  0
 14 15  1  0
  2 16  1  0
 16 17  2  0
 17 18  1  0
 18 19  2  0
 19 20  1  0
 20 21  1  0
 21 22  1  0
 22 23  1  0
 23 24  1  0
 24 25  1  0
 25 26  1  0
 20 27  2  0
 27 28  1  0
 28 29  2  0
 29 30  1  0
 30 31  2  0
 10  5  1  0
 31 16  1  0
 15  7  1  0
 30 19  1  0
 26 21  1  0
  6 32  1  0
  9 33  1  0
 12 34  1  0
 12 35  1  0
 13 36  1  0
 14 37  1  0
 14 38  1  0
 15 39  1  0
 15 40  1  0
 17 41  1  0
 18 42  1  0
 22 43  1  0
 22 44  1  0
 23 45  1  0
 23 46  1  0
 25 47  1  0
 25 48  1  0
 26 49  1  0
 26 50  1  0
 27 51  1  0
 28 52  1  0
 31 53  1  0
M  CHG  2   4  -1  11  -1
M  END
>  <UniqueID>  (39) 
39

>  <SMILES>  (39) 
O=S(=O)([N-]c1cc2c(cc1[O-])CNCC2)c1ccc2c(N3CCOCC3)ccnc2c1

>  <Energy>  (39) 
76.52036954250526

>  <Genealogy>  (39) 
O=S(=O)([N-]c1cc2c(cc1[O-])CNCC2)c1ccc2c(N3CCOCC3)ccnc2c1 (protonated)
O=S(=O)([N-]c1cc2c(cc1[O-])CNCC2)c1ccc2c(N3CCOCC3)ccnc2c1 (3D coordinates assigned)
O=S(=O)([N-]c1cc2c(cc1[O-])CNCC2)c1ccc2c(N3CCOCC3)ccnc2c1 (nonaromatic ring conformer: 76.52036954250526 kcal/mol)

>  <smiles>  (39) 
O=S(=O)(Nc1cc2c(cc1O)CNCC2)c1ccc2c(N3CCOCC3)ccnc2c1

>  <score_type>  (39) 
oracle

>  <origin>  (39) 
adgpu

>  <m_score__min__energy>  (39) 
-16

>  <m_primary>  (39) 
energy

$$$$
39:0
     RDKit          3D

 52 54  0  0  0  0  0  0  0  0999 V2000
  -10.2297   20.7603  -31.7742 H   0  0  0  0  0  0  0  0  0  0  0  0
   -9.1330   20.8270  -31.8270 C   0  0  0  0  0  0  0  0  0  0  0  0
   -8.3700   19.6670  -31.9860 C   0  0  0  0  0  0  0  0  0  0  0  0
   -8.8665   18.6882  -32.0600 H   0  0  0  0  0  0  0  0  0  0  0  0
   -6.9760   19.7500  -32.0510 C   0  0  0  0  0  0  0  0  0  0  0  0
   -6.3778   18.8357  -32.1786 H   0  0  0  0  0  0  0  0  0  0  0  0
   -6.3370   20.9960  -31.9540 C   0  0  0  0  0  0  0  0  0  0  0  0
   -4.5790   21.0880  -31.9820 S   0  0  0  0  0  0  0  0  0  0  0  0
   -4.1410   22.1140  -32.9920 O   0  0  0  0  0  0  0  0  0  0  0  0
   -4.0050   19.7600  -32.3880 O   0  0  0  0  0  0  0  0  0  0  0  0
   -3.9860   21.5210  -30.4040 N   0  0  0  0  0  0  0  0  0  0  0  0
   -2.8640   20.8210  -29.8390 C   0  0  0  0  0  0  0  0  0  0  0  0
   -2.8650   20.4510  -28.4860 C   0  0  0  0  0  0  0  0  0  0  0  0
   -3.7338   20.6877  -27.8543 H   0  0  0  0  0  0  0  0  0  0  0  0
   -1.7670   19.7830  -27.9370 C   0  0  0  0  0  0  0  0  0  0  0  0
   -1.7800   19.4955  -26.8753 H   0  0  0  0  0  0  0  0  0  0  0  0
   -0.6510   19.4760  -28.7240 C   0  0  0  0  0  0  0  0  0  0  0  0
    0.4220   18.8020  -28.1170 O   0  0  0  0  0  0  0  0  0  0  0  0
    0.6400   17.3900  -28.1350 C   0  0  0  0  0  0  0  0  0  0  0  0
   -0.1710   16.8826  -27.5920 H   0  0  0  0  0  0  0  0  0  0  0  0
    1.9650   17.0480  -27.4450 C   0  0  0  0  0  0  0  0  0  0  0  0
    1.8299   17.0829  -26.3539 H   0  0  0  0  0  0  0  0  0  0  0  0
    2.2836   16.0382  -27.7429 H   0  0  0  0  0  0  0  0  0  0  0  0
    2.7325   17.7775  -27.7429 H   0  0  0  0  0  0  0  0  0  0  0  0
    0.6660   16.9180  -29.5880 C   0  0  0  0  0  0  0  0  0  0  0  0
    0.7265   15.8200  -29.6158 H   0  0  0  0  0  0  0  0  0  0  0  0
   -0.2517   17.2477  -30.0971 H   0  0  0  0  0  0  0  0  0  0  0  0
    1.5419   17.3465  -30.0971 H   0  0  0  0  0  0  0  0  0  0  0  0
   -0.6440   19.8600  -30.0800 C   0  0  0  0  0  0  0  0  0  0  0  0
    0.2295   19.6339  -30.7092 H   0  0  0  0  0  0  0  0  0  0  0  0
   -1.7430   20.5270  -30.6280 C   0  0  0  0  0  0  0  0  0  0  0  0
   -1.7284   20.8238  -31.6871 H   0  0  0  0  0  0  0  0  0  0  0  0
   -4.5890   22.6510  -29.6920 C   0  0  0  0  0  0  0  0  0  0  0  0
   -4.1286   22.7413  -28.6971 H   0  0  0  0  0  0  0  0  0  0  0  0
   -5.6702   22.4762  -29.5902 H   0  0  0  0  0  0  0  0  0  0  0  0
   -4.3680   23.9200  -30.4570 C   0  0  0  0  0  0  0  0  0  0  0  0
   -4.9730   24.0980  -31.5480 O   0  0  0  0  0  0  0  0  0  0  0  0
   -3.4420   24.8900  -29.9410 N   0  0  0  0  0  0  0  0  0  0  0  0
   -2.3120   24.6820  -29.3310 C   0  0  0  0  0  0  0  0  0  0  0  0
   -1.5430   25.6940  -28.8870 N   0  0  0  0  0  0  0  0  0  0  0  0
   -0.4930   25.1520  -28.3400 O   0  0  0  0  0  0  0  0  0  0  0  0
   -0.5430   23.8410  -28.4170 C   0  0  0  0  0  0  0  0  0  0  0  0
    0.4940   22.9210  -27.8610 C   0  0  0  0  0  0  0  0  0  0  0  0
    0.4598   22.9514  -26.7620 H   0  0  0  0  0  0  0  0  0  0  0  0
    0.2969   21.8952  -28.2058 H   0  0  0  0  0  0  0  0  0  0  0  0
    1.4890   23.2389  -28.2058 H   0  0  0  0  0  0  0  0  0  0  0  0
   -1.7090   23.4660  -29.0500 C   0  0  0  0  0  0  0  0  0  0  0  0
   -2.0712   22.4523  -29.2761 H   0  0  0  0  0  0  0  0  0  0  0  0
   -7.1090   22.1580  -31.7990 C   0  0  0  0  0  0  0  0  0  0  0  0
   -6.6160   23.1387  -31.7277 H   0  0  0  0  0  0  0  0  0  0  0  0
   -8.5040   22.0720  -31.7350 C   0  0  0  0  0  0  0  0  0  0  0  0
   -9.1060   22.9844  -31.6122 H   0  0  0  0  0  0  0  0  0  0  0  0
  1  2  1  0
  2  3  2  0
  3  4  1  0
  3  5  1  0
  5  6  1  0
  5  7  2  0
  7  8  1  0
  8  9  2  0
  8 10  2  0
  8 11  1  0
 11 12  1  0
 12 13  2  0
 13 14  1  0
 13 15  1  0
 15 16  1  0
 15 17  2  0
 17 18  1  0
 18 19  1  0
 19 20  1  0
 19 21  1  0
 21 22  1  0
 21 23  1  0
 21 24  1  0
 19 25  1  0
 25 26  1  0
 25 27  1  0
 25 28  1  0
 17 29  1  0
 29 30  1  0
 29 31  2  0
 31 32  1  0
 11 33  1  0
 33 34  1  0
 33 35  1  0
 33 36  1  0
 36 37  2  0
 36 38  1  0
 38 39  2  0
 39 40  1  0
 40 41  1  0
 41 42  1  0
 42 43  1  0
 43 44  1  0
 43 45  1  0
 43 46  1  0
 42 47  2  0
 47 48  1  0
  7 49  1  0
 49 50  1  0
 49 51  2  0
 51 52  1  0
 51  2  1  0
 31 12  1  0
 47 39  1  0
M  CHG  1  40  -1
M  END
>  <UniqueID>  (40) 
40

>  <SMILES>  (40) 
Cc1c/c(=N\C(=O)CN(c2ccc(OC(C)C)cc2)S(=O)(=O)c2ccccc2)[n-]o1

>  <Energy>  (40) 
85.14446802331311

>  <Genealogy>  (40) 
Cc1cc(=NC(=O)CN(c2ccc(OC(C)C)cc2)S(=O)(=O)c2ccccc2)[n-]o1 (protonated)
Cc1c/c(=N\C(=O)CN(c2ccc(OC(C)C)cc2)S(=O)(=O)c2ccccc2)[n-]o1 (cis-trans isomerization)
Cc1c/c(=N\C(=O)CN(c2ccc(OC(C)C)cc2)S(=O)(=O)c2ccccc2)[n-]o1 (3D coordinates assigned)
Cc1c/c(=N\C(=O)CN(c2ccc(OC(C)C)cc2)S(=O)(=O)c2ccccc2)[n-]o1 (optimized conformer: 85.14446802331311 kcal/mol)

>  <smiles>  (40) 
Cc1cc(=NC(=O)CN(c2ccc(OC(C)C)cc2)S(=O)(=O)c2ccccc2)[nH]o1

>  <score_type>  (40) 
oracle

>  <origin>  (40) 
adgpu

>  <m_score__min__energy>  (40) 
-11.19

>  <m_primary>  (40) 
energy

$$$$
40:0
     RDKit          3D

 54 57  0  0  0  0  0  0  0  0999 V2000
   -6.7760   15.8090  -34.5690 C   0  0  0  0  0  0  0  0  0  0  0  0
   -5.9180   16.9070  -34.0150 C   0  0  0  0  0  0  0  0  0  0  0  0
   -4.6960   16.9200  -34.3140 O   0  0  0  0  0  0  0  0  0  0  0  0
   -6.4580   17.9450  -33.1670 N   0  0  0  0  0  0  0  0  0  0  0  0
   -7.9090   18.1780  -33.0850 C   0  0  0  0  0  0  0  0  0  0  0  0
   -8.2140   19.6680  -32.8720 C   0  0  0  0  0  0  0  0  0  0  0  0
   -7.3650   20.2570  -31.8310 N   0  0  0  0  0  0  0  0  0  0  0  0
   -7.7180   21.5420  -31.2900 C   0  0  0  0  0  0  0  0  0  0  0  0
   -8.9150   21.7530  -30.9440 O   0  0  0  0  0  0  0  0  0  0  0  0
   -6.7220   22.6360  -31.1720 C   0  0  0  0  0  0  0  0  0  0  0  0
   -7.1100   23.9270  -30.7740 C   0  0  0  0  0  0  0  0  0  0  0  0
   -6.1570   24.9400  -30.6300 C   0  0  0  0  0  0  0  0  0  0  0  0
   -4.8010   24.6670  -30.8300 C   0  0  0  0  0  0  0  0  0  0  0  0
   -3.8650   25.6800  -30.6460 O   0  0  0  0  0  0  0  0  0  0  0  0
   -4.3900   23.3730  -31.1840 C   0  0  0  0  0  0  0  0  0  0  0  0
   -2.9910   23.0650  -31.2840 N   0  0  0  0  0  0  0  0  0  0  0  0
   -2.3160   21.6290  -30.5630 S   0  0  0  0  0  0  0  0  0  0  0  0
   -1.0780   21.2260  -31.3210 O   0  0  0  0  0  0  0  0  0  0  0  0
   -3.3250   20.5150  -30.6410 O   0  0  0  0  0  0  0  0  0  0  0  0
   -1.8680   21.9370  -28.8860 C   0  0  0  0  0  0  0  0  0  0  0  0
   -1.3140   20.9050  -28.1210 C   0  0  0  0  0  0  0  0  0  0  0  0
   -0.8210   21.1580  -26.8400 C   0  0  0  0  0  0  0  0  0  0  0  0
   -0.8800   22.4530  -26.3060 C   0  0  0  0  0  0  0  0  0  0  0  0
   -0.3620   22.7260  -25.0320 C   0  0  0  0  0  0  0  0  0  0  0  0
   -0.4210   24.0230  -24.5140 C   0  0  0  0  0  0  0  0  0  0  0  0
   -0.9980   25.0550  -25.2620 C   0  0  0  0  0  0  0  0  0  0  0  0
   -1.0790   26.6790  -24.6010 Cl  0  0  0  0  0  0  0  0  0  0  0  0
   -1.5140   24.7960  -26.5350 C   0  0  0  0  0  0  0  0  0  0  0  0
   -1.4580   23.4980  -27.0670 C   0  0  0  0  0  0  0  0  0  0  0  0
   -1.9530   23.2310  -28.3510 C   0  0  0  0  0  0  0  0  0  0  0  0
   -5.3570   22.3770  -31.3940 C   0  0  0  0  0  0  0  0  0  0  0  0
   -6.3080   19.4590  -31.2000 C   0  0  0  0  0  0  0  0  0  0  0  0
   -5.5440   18.6650  -32.2640 C   0  0  0  0  0  0  0  0  0  0  0  0
   -7.2217   15.2386  -33.7407 H   0  0  0  0  0  0  0  0  0  0  0  0
   -7.5755   16.2445  -35.1863 H   0  0  0  0  0  0  0  0  0  0  0  0
   -6.1601   15.1385  -35.1863 H   0  0  0  0  0  0  0  0  0  0  0  0
   -8.3808   17.8441  -34.0209 H   0  0  0  0  0  0  0  0  0  0  0  0
   -8.3079   17.6121  -32.2302 H   0  0  0  0  0  0  0  0  0  0  0  0
   -8.0423   20.2047  -33.8167 H   0  0  0  0  0  0  0  0  0  0  0  0
   -9.2616   19.7586  -32.5490 H   0  0  0  0  0  0  0  0  0  0  0  0
   -8.1702   24.1418  -30.5745 H   0  0  0  0  0  0  0  0  0  0  0  0
   -6.4762   25.9569  -30.3579 H   0  0  0  0  0  0  0  0  0  0  0  0
   -2.3180   23.8210  -31.5610 H   0  0  0  0  0  0  0  0  0  0  0  0
   -1.2666   19.8859  -28.5324 H   0  0  0  0  0  0  0  0  0  0  0  0
   -0.3852   20.3396  -26.2481 H   0  0  0  0  0  0  0  0  0  0  0  0
    0.0916   21.9181  -24.4391 H   0  0  0  0  0  0  0  0  0  0  0  0
   -0.0123   24.2330  -23.5146 H   0  0  0  0  0  0  0  0  0  0  0  0
   -1.9647   25.6106  -27.1209 H   0  0  0  0  0  0  0  0  0  0  0  0
   -2.4098   24.0391  -28.9412 H   0  0  0  0  0  0  0  0  0  0  0  0
   -5.0430   21.3801  -31.7369 H   0  0  0  0  0  0  0  0  0  0  0  0
   -5.6108   20.1284  -30.6747 H   0  0  0  0  0  0  0  0  0  0  0  0
   -6.7634   18.7582  -30.4847 H   0  0  0  0  0  0  0  0  0  0  0  0
   -4.9318   19.3606  -32.8568 H   0  0  0  0  0  0  0  0  0  0  0  0
   -4.9134   17.9235  -31.7516 H   0  0  0  0  0  0  0  0  0  0  0  0
  1  2  1  0
  2  3  2  0
  2  4  1  0
  4  5  1  0
  5  6  1  0
  6  7  1  0
  7  8  1  0
  8  9  2  0
  8 10  1  0
 10 11  2  0
 11 12  1  0
 12 13  2  0
 13 14  1  0
 13 15  1  0
 15 16  1  0
 16 17  1  0
 17 18  2  0
 17 19  2  0
 17 20  1  0
 20 21  2  0
 21 22  1  0
 22 23  2  0
 23 24  1  0
 24 25  2  0
 25 26  1  0
 26 27  1  0
 26 28  2  0
 28 29  1  0
 29 30  2  0
 15 31  2  0
  7 32  1  0
 32 33  1  0
 33  4  1  0
 31 10  1  0
 30 20  1  0
 29 23  1  0
  1 34  1  0
  1 35  1  0
  1 36  1  0
  5 37  1  0
  5 38  1  0
  6 39  1  0
  6 40  1  0
 11 41  1  0
 12 42  1  0
 16 43  1  0
 21 44  1  0
 22 45  1  0
 24 46  1  0
 25 47  1  0
 28 48  1  0
 30 49  1  0
 31 50  1  0
 32 51  1  0
 32 52  1  0
 33 53  1  0
 33 54  1  0
M  CHG  1  14  -1
M  END
>  <UniqueID>  (41) 
41

>  <SMILES>  (41) 
CC(=O)N1CCN(C(=O)c2ccc([O-])c(NS(=O)(=O)c3ccc4ccc(Cl)cc4c3)c2)CC1

>  <Energy>  (41) 
68.77740586429822

>  <Genealogy>  (41) 
CC(=O)N1CCN(C(=O)c2ccc([O-])c(NS(=O)(=O)c3ccc4ccc(Cl)cc4c3)c2)CC1 (protonated)
CC(=O)N1CCN(C(=O)c2ccc([O-])c(NS(=O)(=O)c3ccc4ccc(Cl)cc4c3)c2)CC1 (3D coordinates assigned)
CC(=O)N1CCN(C(=O)c2ccc([O-])c(NS(=O)(=O)c3ccc4ccc(Cl)cc4c3)c2)CC1 (nonaromatic ring conformer: 68.77740586429822 kcal/mol)

>  <smiles>  (41) 
CC(=O)N1CCN(C(=O)c2ccc(O)c(NS(=O)(=O)c3ccc4ccc(Cl)cc4c3)c2)CC1

>  <score_type>  (41) 
oracle

>  <origin>  (41) 
adgpu

>  <m_score__min__energy>  (41) 
-14.49

>  <m_primary>  (41) 
energy

$$$$
41:0
     RDKit          3D

 57 60  0  0  0  0  0  0  0  0999 V2000
   -6.9730   15.5000  -34.1250 C   0  0  0  0  0  0  0  0  0  0  0  0
   -5.9860   16.5730  -33.7800 C   0  0  0  0  0  0  0  0  0  0  0  0
   -6.2380   17.3420  -32.8160 O   0  0  0  0  0  0  0  0  0  0  0  0
   -4.7860   16.7820  -34.5380 N   0  0  0  0  0  0  0  0  0  0  0  0
   -3.7780   17.7760  -34.3080 C   0  0  0  0  0  0  0  0  0  0  0  0
   -2.4470   17.4710  -34.6190 C   0  0  0  0  0  0  0  0  0  0  0  0
   -1.4410   18.4260  -34.4440 C   0  0  0  0  0  0  0  0  0  0  0  0
   -1.7590   19.7060  -33.9700 C   0  0  0  0  0  0  0  0  0  0  0  0
   -0.4840   20.9060  -33.7660 S   0  0  0  0  0  0  0  0  0  0  0  0
   -0.8900   21.9220  -32.7370 O   0  0  0  0  0  0  0  0  0  0  0  0
   -0.2960   21.6190  -35.0760 O   0  0  0  0  0  0  0  0  0  0  0  0
    1.0420   20.1380  -33.2810 C   0  0  0  0  0  0  0  0  0  0  0  0
    2.1560   20.3190  -34.1200 C   0  0  0  0  0  0  0  0  0  0  0  0
    3.3860   19.7390  -33.8140 C   0  0  0  0  0  0  0  0  0  0  0  0
    3.5250   18.9650  -32.6650 C   0  0  0  0  0  0  0  0  0  0  0  0
    2.4310   18.7640  -31.8230 C   0  0  0  0  0  0  0  0  0  0  0  0
    1.1790   19.3310  -32.1170 C   0  0  0  0  0  0  0  0  0  0  0  0
   -0.1460   19.0290  -30.9720 S   0  0  0  0  0  0  0  0  0  0  0  0
   -1.1650   18.1190  -31.5960 O   0  0  0  0  0  0  0  0  0  0  0  0
    0.3950   18.3480  -29.7450 O   0  0  0  0  0  0  0  0  0  0  0  0
   -0.9110   20.5350  -30.4710 C   0  0  0  0  0  0  0  0  0  0  0  0
   -0.1290   21.5640  -29.9300 C   0  0  0  0  0  0  0  0  0  0  0  0
   -0.7180   22.7730  -29.5520 C   0  0  0  0  0  0  0  0  0  0  0  0
   -2.0970   22.9720  -29.7180 C   0  0  0  0  0  0  0  0  0  0  0  0
   -2.7250   24.2470  -29.3260 C   0  0  0  0  0  0  0  0  0  0  0  0
   -2.0170   25.2850  -29.2620 O   0  0  0  0  0  0  0  0  0  0  0  0
   -4.1190   24.3410  -29.0090 N   0  0  0  0  0  0  0  0  0  0  0  0
   -5.3510   24.8240  -30.1330 S   0  0  0  0  0  0  0  0  0  0  0  0
   -6.4200   25.5920  -29.4080 O   0  0  0  0  0  0  0  0  0  0  0  0
   -4.7590   25.6750  -31.2210 O   0  0  0  0  0  0  0  0  0  0  0  0
   -6.0500   23.3910  -30.8620 C   0  0  0  0  0  0  0  0  0  0  0  0
   -5.5750   22.7460  -31.9930 C   0  0  0  0  0  0  0  0  0  0  0  0
   -6.3430   21.6290  -32.3470 C   0  0  0  0  0  0  0  0  0  0  0  0
   -7.4180   21.4010  -31.4960 C   0  0  0  0  0  0  0  0  0  0  0  0
   -7.4150   22.5880  -30.3030 S   0  0  0  0  0  0  0  0  0  0  0  0
   -2.8840   21.9310  -30.2370 C   0  0  0  0  0  0  0  0  0  0  0  0
   -2.2920   20.7250  -30.6220 C   0  0  0  0  0  0  0  0  0  0  0  0
   -3.0920   20.0210  -33.6730 C   0  0  0  0  0  0  0  0  0  0  0  0
   -4.0980   19.0680  -33.8560 C   0  0  0  0  0  0  0  0  0  0  0  0
   -7.3762   15.0616  -33.2002 H   0  0  0  0  0  0  0  0  0  0  0  0
   -7.7947   15.9333  -34.7140 H   0  0  0  0  0  0  0  0  0  0  0  0
   -6.4727   14.7172  -34.7140 H   0  0  0  0  0  0  0  0  0  0  0  0
   -2.1912   16.4727  -35.0038 H   0  0  0  0  0  0  0  0  0  0  0  0
   -0.3969   18.1720  -34.6790 H   0  0  0  0  0  0  0  0  0  0  0  0
    2.0552   20.9272  -35.0310 H   0  0  0  0  0  0  0  0  0  0  0  0
    4.2473   19.8929  -34.4807 H   0  0  0  0  0  0  0  0  0  0  0  0
    4.4973   18.5121  -32.4212 H   0  0  0  0  0  0  0  0  0  0  0  0
    2.5500   18.1530  -30.9160 H   0  0  0  0  0  0  0  0  0  0  0  0
    0.9539   21.4192  -29.8023 H   0  0  0  0  0  0  0  0  0  0  0  0
   -0.0975   23.5731  -29.1220 H   0  0  0  0  0  0  0  0  0  0  0  0
   -4.6882   23.0764  -32.5538 H   0  0  0  0  0  0  0  0  0  0  0  0
   -6.1168   20.9931  -33.2156 H   0  0  0  0  0  0  0  0  0  0  0  0
   -8.1476   20.5828  -31.5869 H   0  0  0  0  0  0  0  0  0  0  0  0
   -3.9708   22.0654  -30.3409 H   0  0  0  0  0  0  0  0  0  0  0  0
   -2.9122   19.9212  -31.0454 H   0  0  0  0  0  0  0  0  0  0  0  0
   -3.3474   21.0218  -33.2945 H   0  0  0  0  0  0  0  0  0  0  0  0
   -5.1453   19.3303  -33.6453 H   0  0  0  0  0  0  0  0  0  0  0  0
  1  2  1  0
  2  3  2  0
  2  4  1  0
  4  5  1  0
  5  6  2  0
  6  7  1  0
  7  8  2  0
  8  9  1  0
  9 10  2  0
  9 11  2  0
  9 12  1  0
 12 13  2  0
 13 14  1  0
 14 15  2  0
 15 16  1  0
 16 17  2  0
 17 18  1  0
 18 19  2  0
 18 20  2  0
 18 21  1  0
 21 22  2  0
 22 23  1  0
 23 24  2  0
 24 25  1  0
 25 26  2  0
 25 27  1  0
 27 28  1  0
 28 29  2  0
 28 30  2  0
 28 31  1  0
 31 32  2  0
 32 33  1  0
 33 34  2  0
 34 35  1  0
 24 36  1  0
 36 37  2  0
  8 38  1  0
 38 39  2  0
 39  5  1  0
 17 12  1  0
 37 21  1  0
 35 31  1  0
  1 40  1  0
  1 41  1  0
  1 42  1  0
  6 43  1  0
  7 44  1  0
 13 45  1  0
 14 46  1  0
 15 47  1  0
 16 48  1  0
 22 49  1  0
 23 50  1  0
 32 51  1  0
 33 52  1  0
 34 53  1  0
 36 54  1  0
 37 55  1  0
 38 56  1  0
 39 57  1  0
M  CHG  2   4  -1  27  -1
M  END
>  <UniqueID>  (42) 
42

>  <SMILES>  (42) 
CC(=O)[N-]c1ccc(S(=O)(=O)c2ccccc2S(=O)(=O)c2ccc(C(=O)[N-]S(=O)(=O)c3cccs3)cc2)cc1

>  <Energy>  (42) 
106.9230436699879

>  <Genealogy>  (42) 
CC(=O)[N-]c1ccc(S(=O)(=O)c2ccccc2S(=O)(=O)c2ccc(C(=O)[N-]S(=O)(=O)c3cccs3)cc2)cc1 (protonated)
CC(=O)[N-]c1ccc(S(=O)(=O)c2ccccc2S(=O)(=O)c2ccc(C(=O)[N-]S(=O)(=O)c3cccs3)cc2)cc1 (3D coordinates assigned)
CC(=O)[N-]c1ccc(S(=O)(=O)c2ccccc2S(=O)(=O)c2ccc(C(=O)[N-]S(=O)(=O)c3cccs3)cc2)cc1 (optimized conformer: 106.9230436699879 kcal/mol)

>  <smiles>  (42) 
CC(=O)Nc1ccc(S(=O)(=O)c2ccccc2S(=O)(=O)c2ccc(C(=O)NS(=O)(=O)c3cccs3)cc2)cc1

>  <score_type>  (42) 
oracle

>  <origin>  (42) 
adgpu

>  <m_score__min__energy>  (42) 
-10.94

>  <m_primary>  (42) 
energy

$$$$
42:0
     RDKit          3D

 35 38  0  0  0  0  0  0  0  0999 V2000
   -1.9030   23.9990  -29.7590 O   0  0  0  0  0  0  0  0  0  0  0  0
   -2.6030   23.0070  -30.1010 C   0  0  0  0  0  0  0  0  0  0  0  0
   -4.0360   23.2050  -30.4740 C   0  0  0  0  0  0  0  0  0  0  0  0
   -4.8530   22.0730  -30.6720 C   0  0  0  0  0  0  0  0  0  0  0  0
   -6.2000   22.2120  -31.0220 C   0  0  0  0  0  0  0  0  0  0  0  0
   -7.1960   20.7880  -31.2620 Cl  0  0  0  0  0  0  0  0  0  0  0  0
   -6.7520   23.4840  -31.1810 C   0  0  0  0  0  0  0  0  0  0  0  0
   -5.9610   24.6150  -30.9900 C   0  0  0  0  0  0  0  0  0  0  0  0
   -4.6120   24.4890  -30.6400 C   0  0  0  0  0  0  0  0  0  0  0  0
   -3.8690   25.6500  -30.4610 O   0  0  0  0  0  0  0  0  0  0  0  0
   -1.9810   21.7120  -30.1190 N   0  0  0  0  0  0  0  0  0  0  0  0
   -1.3280   21.2340  -31.3190 C   0  0  0  0  0  0  0  0  0  0  0  0
   -1.8220   21.5600  -32.5970 C   0  0  0  0  0  0  0  0  0  0  0  0
   -1.2930   20.9500  -33.7380 C   0  0  0  0  0  0  0  0  0  0  0  0
   -0.2670   20.0100  -33.6190 C   0  0  0  0  0  0  0  0  0  0  0  0
    0.2540   19.7010  -32.3610 C   0  0  0  0  0  0  0  0  0  0  0  0
   -0.2570   20.3250  -31.2170 C   0  0  0  0  0  0  0  0  0  0  0  0
    0.5690   20.0950  -29.6440 S   0  0  0  0  0  0  0  0  0  0  0  0
   -0.9570   19.9540  -28.7170 C   0  0  0  0  0  0  0  0  0  0  0  0
   -1.0540   19.0080  -27.6910 C   0  0  0  0  0  0  0  0  0  0  0  0
   -2.1650   19.0070  -26.8430 C   0  0  0  0  0  0  0  0  0  0  0  0
   -3.1750   19.9550  -27.0140 C   0  0  0  0  0  0  0  0  0  0  0  0
   -3.0950   20.8870  -28.0530 C   0  0  0  0  0  0  0  0  0  0  0  0
   -1.9960   20.8810  -28.9340 C   0  0  0  0  0  0  0  0  0  0  0  0
   -4.4252   21.0670  -30.5496 H   0  0  0  0  0  0  0  0  0  0  0  0
   -7.8112   23.5936  -31.4570 H   0  0  0  0  0  0  0  0  0  0  0  0
   -6.4007   25.6155  -31.1154 H   0  0  0  0  0  0  0  0  0  0  0  0
   -2.6298   22.2998  -32.6979 H   0  0  0  0  0  0  0  0  0  0  0  0
   -1.6857   21.2109  -34.7318 H   0  0  0  0  0  0  0  0  0  0  0  0
    0.1306   19.5131  -34.5162 H   0  0  0  0  0  0  0  0  0  0  0  0
    1.0673   18.9661  -32.2688 H   0  0  0  0  0  0  0  0  0  0  0  0
   -0.2554   18.2645  -27.5516 H   0  0  0  0  0  0  0  0  0  0  0  0
   -2.2434   18.2588  -26.0405 H   0  0  0  0  0  0  0  0  0  0  0  0
   -4.0360   19.9689  -26.3296 H   0  0  0  0  0  0  0  0  0  0  0  0
   -3.8957   21.6299  -28.1833 H   0  0  0  0  0  0  0  0  0  0  0  0
  1  2  2  0
  2  3  1  0
  3  4  2  0
  4  5  1  0
  5  6  1  0
  5  7  2  0
  7  8  1  0
  8  9  2  0
  9 10  1  0
  2 11  1  0
 11 12  1  0
 12 13  2  0
 13 14  1  0
 14 15  2  0
 15 16  1  0
 16 17  2  0
 17 18  1  0
 18 19  1  0
 19 20  2  0
 20 21  1  0
 21 22  2  0
 22 23  1  0
 23 24  2  0
  9  3  1  0
 24 11  1  0
 17 12  1  0
 24 19  1  0
  4 25  1  0
  7 26  1  0
  8 27  1  0
 13 28  1  0
 14 29  1  0
 15 30  1  0
 16 31  1  0
 20 32  1  0
 21 33  1  0
 22 34  1  0
 23 35  1  0
M  CHG  1  10  -1
M  END
>  <UniqueID>  (43) 
43

>  <SMILES>  (43) 
O=C(c1cc(Cl)ccc1[O-])N1c2ccccc2Sc2ccccc21

>  <Energy>  (43) 
68.0645344675336

>  <Genealogy>  (43) 
O=C(c1cc(Cl)ccc1[O-])N1c2ccccc2Sc2ccccc21 (protonated)
O=C(c1cc(Cl)ccc1[O-])N1c2ccccc2Sc2ccccc21 (3D coordinates assigned)
O=C(c1cc(Cl)ccc1[O-])N1c2ccccc2Sc2ccccc21 (nonaromatic ring conformer: 68.0645344675336 kcal/mol)

>  <smiles>  (43) 
O=C(c1cc(Cl)ccc1O)N1c2ccccc2Sc2ccccc21

>  <score_type>  (43) 
oracle

>  <origin>  (43) 
adgpu

>  <m_score__min__energy>  (43) 
-11.42

>  <m_primary>  (43) 
energy

$$$$
43:0
     RDKit          3D

 54 57  0  0  0  0  0  0  0  0999 V2000
   -9.9697   21.0102  -31.7166 H   0  0  0  0  0  0  0  0  0  0  0  0
   -8.8970   21.0720  -31.9520 C   0  0  0  0  0  0  0  0  0  0  0  0
   -7.9130   22.4100  -31.7160 S   0  0  0  0  0  0  0  0  0  0  0  0
   -6.4890   21.7230  -32.2970 C   0  0  0  0  0  0  0  0  0  0  0  0
   -5.2060   22.4480  -32.3700 C   0  0  0  0  0  0  0  0  0  0  0  0
   -4.4540   22.3250  -33.3730 O   0  0  0  0  0  0  0  0  0  0  0  0
   -4.8000   23.2680  -31.2680 N   0  0  0  0  0  0  0  0  0  0  0  0
   -3.7430   22.9550  -30.3480 C   0  0  0  0  0  0  0  0  0  0  0  0
   -3.5450   21.6220  -29.9840 C   0  0  0  0  0  0  0  0  0  0  0  0
   -4.3500   20.6240  -30.5220 O   0  0  0  0  0  0  0  0  0  0  0  0
   -2.5310   21.2800  -29.0940 C   0  0  0  0  0  0  0  0  0  0  0  0
   -2.3734   20.2231  -28.8330 H   0  0  0  0  0  0  0  0  0  0  0  0
   -1.7060   22.2630  -28.5240 C   0  0  0  0  0  0  0  0  0  0  0  0
   -0.5890   21.8070  -27.6200 C   0  0  0  0  0  0  0  0  0  0  0  0
   -0.8931   21.9311  -26.5702 H   0  0  0  0  0  0  0  0  0  0  0  0
   -0.3689   20.7470  -27.8151 H   0  0  0  0  0  0  0  0  0  0  0  0
    0.3100   22.4101  -27.8151 H   0  0  0  0  0  0  0  0  0  0  0  0
   -1.9180   23.6310  -28.8560 C   0  0  0  0  0  0  0  0  0  0  0  0
   -0.9380   24.9440  -28.1450 S   0  0  0  0  0  0  0  0  0  0  0  0
   -1.1500   26.2050  -28.9360 O   0  0  0  0  0  0  0  0  0  0  0  0
    0.5260   24.6160  -28.2260 O   0  0  0  0  0  0  0  0  0  0  0  0
   -1.3580   25.2760  -26.4270 C   0  0  0  0  0  0  0  0  0  0  0  0
   -2.4024   24.9353  -26.3709 H   0  0  0  0  0  0  0  0  0  0  0  0
   -0.4660   24.5430  -25.4390 C   0  0  0  0  0  0  0  0  0  0  0  0
   -0.8149   23.5096  -25.2963 H   0  0  0  0  0  0  0  0  0  0  0  0
    0.5742   24.4788  -25.7908 H   0  0  0  0  0  0  0  0  0  0  0  0
   -0.5830   25.3320  -24.1400 C   0  0  0  0  0  0  0  0  0  0  0  0
   -1.3079   24.8505  -23.4672 H   0  0  0  0  0  0  0  0  0  0  0  0
    0.3816   25.3752  -23.6131 H   0  0  0  0  0  0  0  0  0  0  0  0
   -1.0670   26.7330  -24.5230 C   0  0  0  0  0  0  0  0  0  0  0  0
   -2.0315   26.9467  -24.0392 H   0  0  0  0  0  0  0  0  0  0  0  0
   -0.3524   27.5026  -24.1958 H   0  0  0  0  0  0  0  0  0  0  0  0
   -1.2260   26.7400  -26.0380 C   0  0  0  0  0  0  0  0  0  0  0  0
   -2.1267   27.3002  -26.3296 H   0  0  0  0  0  0  0  0  0  0  0  0
   -0.3764   27.2258  -26.5402 H   0  0  0  0  0  0  0  0  0  0  0  0
   -2.9500   23.9620  -29.7650 C   0  0  0  0  0  0  0  0  0  0  0  0
   -3.2090   25.2940  -30.0690 O   0  0  0  0  0  0  0  0  0  0  0  0
   -6.7760   20.4080  -32.6880 C   0  0  0  0  0  0  0  0  0  0  0  0
   -5.6060   19.2750  -33.3670 S   0  0  0  0  0  0  0  0  0  0  0  0
   -5.7440   17.9470  -32.6800 O   0  0  0  0  0  0  0  0  0  0  0  0
   -5.8490   19.0990  -34.8410 O   0  0  0  0  0  0  0  0  0  0  0  0
   -3.9890   19.8520  -33.1280 N   0  0  0  0  0  0  0  0  0  0  0  0
   -2.9540   19.2600  -33.6360 C   0  0  0  0  0  0  0  0  0  0  0  0
   -2.9960   18.1800  -34.3800 O   0  0  0  0  0  0  0  0  0  0  0  0
   -1.7960   17.8300  -34.7460 N   0  0  0  0  0  0  0  0  0  0  0  0
   -0.9430   18.7310  -34.2130 C   0  0  0  0  0  0  0  0  0  0  0  0
    0.5390   18.6800  -34.3790 C   0  0  0  0  0  0  0  0  0  0  0  0
    1.0185   18.6635  -33.3891 H   0  0  0  0  0  0  0  0  0  0  0  0
    0.8146   17.7718  -34.9351 H   0  0  0  0  0  0  0  0  0  0  0  0
    0.8764   19.5671  -34.9351 H   0  0  0  0  0  0  0  0  0  0  0  0
   -1.6510   19.6680  -33.4870 C   0  0  0  0  0  0  0  0  0  0  0  0
   -0.9840   21.1690  -32.5100 Br  0  0  0  0  0  0  0  0  0  0  0  0
   -8.1240   20.0580  -32.4950 C   0  0  0  0  0  0  0  0  0  0  0  0
   -8.5288   19.0680  -32.7520 H   0  0  0  0  0  0  0  0  0  0  0  0
  1  2  1  0
  2  3  1  0
  3  4  1  0
  4  5  1  0
  5  6  2  0
  5  7  1  0
  7  8  1  0
  8  9  2  0
  9 10  1  0
  9 11  1  0
 11 12  1  0
 11 13  2  0
 13 14  1  0
 14 15  1  0
 14 16  1  0
 14 17  1  0
 13 18  1  0
 18 19  1  0
 19 20  2  0
 19 21  2  0
 19 22  1  0
 22 23  1  0
 22 24  1  0
 24 25  1  0
 24 26  1  0
 24 27  1  0
 27 28  1  0
 27 29  1  0
 27 30  1  0
 30 31  1  0
 30 32  1  0
 30 33  1  0
 33 34  1  0
 33 35  1  0
 18 36  2  0
 36 37  1  0
  4 38  2  0
 38 39  1  0
 39 40  2  0
 39 41  2  0
 39 42  1  0
 42 43  2  0
 43 44  1  0
 44 45  1  0
 45 46  1  0
 46 47  1  0
 47 48  1  0
 47 49  1  0
 47 50  1  0
 46 51  2  0
 51 52  1  0
 38 53  1  0
 53 54  1  0
 53  2  2  0
 36  8  1  0
 51 43  1  0
 33 22  1  0
M  CHG  4   7  -1  10  -1  37  -1  45  -1
M  END
>  <UniqueID>  (44) 
44

>  <SMILES>  (44) 
Cc1cc([O-])c([N-]C(=O)c2sccc2S(=O)(=O)/N=c2\o[n-]c(C)c2Br)c([O-])c1S(=O)(=O)C1CCCC1

>  <Energy>  (44) 
125.71417068966808

>  <Genealogy>  (44) 
Cc1cc([O-])c([N-]C(=O)c2sccc2S(=O)(=O)N=c2o[n-]c(C)c2Br)c([O-])c1S(=O)(=O)C1CCCC1 (protonated)
Cc1cc([O-])c([N-]C(=O)c2sccc2S(=O)(=O)/N=c2\o[n-]c(C)c2Br)c([O-])c1S(=O)(=O)C1CCCC1 (cis-trans isomerization)
Cc1cc([O-])c([N-]C(=O)c2sccc2S(=O)(=O)/N=c2\o[n-]c(C)c2Br)c([O-])c1S(=O)(=O)C1CCCC1 (3D coordinates assigned)
Cc1cc([O-])c([N-]C(=O)c2sccc2S(=O)(=O)/N=c2\o[n-]c(C)c2Br)c([O-])c1S(=O)(=O)C1CCCC1 (nonaromatic ring conformer: 125.71417068966808 kcal/mol)

>  <smiles>  (44) 
Cc1cc(O)c(NC(=O)c2sccc2S(=O)(=O)N=c2o[nH]c(C)c2Br)c(O)c1S(=O)(=O)C1CCCC1

>  <score_type>  (44) 
oracle

>  <origin>  (44) 
adgpu

>  <m_score__min__energy>  (44) 
-14.949999999999999

>  <m_primary>  (44) 
energy

$$$$
44:0
     RDKit          3D

 49 51  0  0  0  0  0  0  0  0999 V2000
   -0.7370   26.8750  -23.6000 C   0  0  0  0  0  0  0  0  0  0  0  0
   -1.0400   26.1710  -24.8900 C   0  0  0  0  0  0  0  0  0  0  0  0
   -0.0000   25.7190  -25.7040 C   0  0  0  0  0  0  0  0  0  0  0  0
   -0.2620   25.0250  -26.8970 C   0  0  0  0  0  0  0  0  0  0  0  0
    0.9210   24.5650  -27.7080 C   0  0  0  0  0  0  0  0  0  0  0  0
   -1.6090   24.7930  -27.2970 C   0  0  0  0  0  0  0  0  0  0  0  0
   -1.9960   23.9350  -28.8190 S   0  0  0  0  0  0  0  0  0  0  0  0
   -2.6080   22.5830  -28.5780 O   0  0  0  0  0  0  0  0  0  0  0  0
   -0.7430   23.7160  -29.6180 O   0  0  0  0  0  0  0  0  0  0  0  0
   -3.0920   24.9050  -29.7410 N   0  0  0  0  0  0  0  0  0  0  0  0
   -4.1220   24.2910  -30.5130 C   0  0  0  0  0  0  0  0  0  0  0  0
   -5.4730   24.5920  -30.4700 C   0  0  0  0  0  0  0  0  0  0  0  0
   -6.1000   25.7280  -29.7180 C   0  0  0  0  0  0  0  0  0  0  0  0
   -6.1540   23.6000  -31.0960 N   0  0  0  0  0  0  0  0  0  0  0  0
   -7.6110   23.5020  -31.2120 C   0  0  0  0  0  0  0  0  0  0  0  0
   -5.2850   22.6760  -31.5050 N   0  0  0  0  0  0  0  0  0  0  0  0
   -5.6150   21.4100  -32.1010 C   0  0  0  0  0  0  0  0  0  0  0  0
   -4.8500   20.9040  -33.1640 C   0  0  0  0  0  0  0  0  0  0  0  0
   -5.1870   19.6810  -33.7520 C   0  0  0  0  0  0  0  0  0  0  0  0
   -6.2930   18.9620  -33.2900 C   0  0  0  0  0  0  0  0  0  0  0  0
   -7.0660   19.4680  -32.2410 C   0  0  0  0  0  0  0  0  0  0  0  0
   -6.7320   20.6900  -31.6500 C   0  0  0  0  0  0  0  0  0  0  0  0
   -4.0470   23.0760  -31.1540 C   0  0  0  0  0  0  0  0  0  0  0  0
   -2.9990   22.3980  -31.3270 O   0  0  0  0  0  0  0  0  0  0  0  0
   -2.6600   25.1930  -26.4240 C   0  0  0  0  0  0  0  0  0  0  0  0
   -4.1120   24.9160  -26.7260 C   0  0  0  0  0  0  0  0  0  0  0  0
   -2.3600   25.8890  -25.2440 C   0  0  0  0  0  0  0  0  0  0  0  0
   -1.0154   26.2281  -22.7550 H   0  0  0  0  0  0  0  0  0  0  0  0
    0.3383   27.1014  -23.5496 H   0  0  0  0  0  0  0  0  0  0  0  0
   -1.3117   27.8116  -23.5496 H   0  0  0  0  0  0  0  0  0  0  0  0
    1.0417   25.9093  -25.4065 H   0  0  0  0  0  0  0  0  0  0  0  0
    1.7294   24.2507  -27.0315 H   0  0  0  0  0  0  0  0  0  0  0  0
    0.6233   23.7171  -28.3424 H   0  0  0  0  0  0  0  0  0  0  0  0
    1.2743   25.3913  -28.3424 H   0  0  0  0  0  0  0  0  0  0  0  0
   -6.0020   25.5505  -28.6369 H   0  0  0  0  0  0  0  0  0  0  0  0
   -5.5926   26.6674  -29.9828 H   0  0  0  0  0  0  0  0  0  0  0  0
   -7.1653   25.7994  -29.9828 H   0  0  0  0  0  0  0  0  0  0  0  0
   -8.0576   23.4720  -30.2072 H   0  0  0  0  0  0  0  0  0  0  0  0
   -7.9950   24.3763  -31.7580 H   0  0  0  0  0  0  0  0  0  0  0  0
   -7.8745   22.5841  -31.7580 H   0  0  0  0  0  0  0  0  0  0  0  0
   -3.9835   21.4710  -33.5351 H   0  0  0  0  0  0  0  0  0  0  0  0
   -4.5807   19.2840  -34.5795 H   0  0  0  0  0  0  0  0  0  0  0  0
   -6.5550   17.9985  -33.7516 H   0  0  0  0  0  0  0  0  0  0  0  0
   -7.9385   18.9037  -31.8800 H   0  0  0  0  0  0  0  0  0  0  0  0
   -7.3464   21.0884  -30.8291 H   0  0  0  0  0  0  0  0  0  0  0  0
   -4.6688   24.8098  -25.7833 H   0  0  0  0  0  0  0  0  0  0  0  0
   -4.5312   25.7504  -27.3074 H   0  0  0  0  0  0  0  0  0  0  0  0
   -4.1946   23.9859  -27.3074 H   0  0  0  0  0  0  0  0  0  0  0  0
   -3.1785   26.2179  -24.5869 H   0  0  0  0  0  0  0  0  0  0  0  0
  1  2  1  0
  2  3  2  0
  3  4  1  0
  4  5  1  0
  4  6  2  0
  6  7  1  0
  7  8  2  0
  7  9  2  0
  7 10  1  0
 10 11  1  0
 11 12  2  0
 12 13  1  0
 12 14  1  0
 14 15  1  0
 14 16  1  0
 16 17  1  0
 17 18  2  0
 18 19  1  0
 19 20  2  0
 20 21  1  0
 21 22  2  0
 16 23  1  0
 23 24  2  0
  6 25  1  0
 25 26  1  0
 25 27  2  0
 27  2  1  0
 23 11  1  0
 22 17  1  0
  1 28  1  0
  1 29  1  0
  1 30  1  0
  3 31  1  0
  5 32  1  0
  5 33  1  0
  5 34  1  0
 13 35  1  0
 13 36  1  0
 13 37  1  0
 15 38  1  0
 15 39  1  0
 15 40  1  0
 18 41  1  0
 19 42  1  0
 20 43  1  0
 21 44  1  0
 22 45  1  0
 26 46  1  0
 26 47  1  0
 26 48  1  0
 27 49  1  0
M  CHG  1  10  -1
M  END
>  <UniqueID>  (45) 
45

>  <SMILES>  (45) 
Cc1cc(C)c(S(=O)(=O)[N-]c2c(C)n(C)n(-c3ccccc3)c2=O)c(C)c1

>  <Energy>  (45) 
103.63847061286314

>  <Genealogy>  (45) 
Cc1cc(C)c(S(=O)(=O)[N-]c2c(C)n(C)n(-c3ccccc3)c2=O)c(C)c1 (protonated)
Cc1cc(C)c(S(=O)(=O)[N-]c2c(C)n(C)n(-c3ccccc3)c2=O)c(C)c1 (3D coordinates assigned)
Cc1cc(C)c(S(=O)(=O)[N-]c2c(C)n(C)n(-c3ccccc3)c2=O)c(C)c1 (optimized conformer: 103.63847061286314 kcal/mol)

>  <smiles>  (45) 
Cc1cc(C)c(S(=O)(=O)Nc2c(C)n(C)n(-c3ccccc3)c2=O)c(C)c1

>  <score_type>  (45) 
oracle

>  <origin>  (45) 
adgpu

>  <m_score__min__energy>  (45) 
-10.35

>  <m_primary>  (45) 
energy

$$$$
45:0
     RDKit          3D

 85 89  0  0  0  0  0  0  0  0999 V2000
   -8.0420   19.0620  -32.3760 C   0  0  0  0  0  0  0  0  0  0  0  0
   -7.5620   20.3230  -33.0900 C   0  0  0  0  0  0  0  0  0  0  0  0
   -7.8130   21.5240  -32.2740 N   0  0  0  0  0  0  0  0  0  0  0  0
   -9.2150   21.8660  -31.9780 C   0  0  0  0  0  0  0  0  0  0  0  0
   -9.5700   21.5390  -30.5280 C   0  0  0  0  0  0  0  0  0  0  0  0
   -6.7120   22.3410  -31.7800 C   0  0  0  0  0  0  0  0  0  0  0  0
   -5.3750   22.0110  -32.0720 C   0  0  0  0  0  0  0  0  0  0  0  0
   -4.3230   22.8110  -31.6200 C   0  0  0  0  0  0  0  0  0  0  0  0
   -4.5720   23.9410  -30.8310 C   0  0  0  0  0  0  0  0  0  0  0  0
   -3.4970   24.7690  -30.3640 N   0  0  0  0  0  0  0  0  0  0  0  0
   -2.2230   24.2470  -29.2990 S   0  0  0  0  0  0  0  0  0  0  0  0
   -2.7590   24.1720  -27.8960 O   0  0  0  0  0  0  0  0  0  0  0  0
   -1.1120   25.2630  -29.3380 O   0  0  0  0  0  0  0  0  0  0  0  0
   -1.5950   22.6590  -29.7400 C   0  0  0  0  0  0  0  0  0  0  0  0
   -1.2850   21.7340  -28.7440 C   0  0  0  0  0  0  0  0  0  0  0  0
   -0.8520   20.4550  -29.0880 C   0  0  0  0  0  0  0  0  0  0  0  0
   -0.7180   20.0720  -30.4350 C   0  0  0  0  0  0  0  0  0  0  0  0
   -0.1910   18.4050  -30.7590 S   0  0  0  0  0  0  0  0  0  0  0  0
   -0.0850   17.6310  -29.4760 O   0  0  0  0  0  0  0  0  0  0  0  0
   -1.2040   17.7110  -31.6250 O   0  0  0  0  0  0  0  0  0  0  0  0
    1.3420   18.4000  -31.6220 C   0  0  0  0  0  0  0  0  0  0  0  0
    2.4390   19.0860  -31.0880 C   0  0  0  0  0  0  0  0  0  0  0  0
    3.6550   19.1010  -31.7710 C   0  0  0  0  0  0  0  0  0  0  0  0
    3.7960   18.4100  -32.9790 C   0  0  0  0  0  0  0  0  0  0  0  0
    5.0260   18.4120  -33.6240 O   0  0  0  0  0  0  0  0  0  0  0  0
    2.7020   17.7130  -33.5210 C   0  0  0  0  0  0  0  0  0  0  0  0
    2.8920   16.7790  -35.0060 S   0  0  0  0  0  0  0  0  0  0  0  0
    4.0280   15.8010  -34.8600 O   0  0  0  0  0  0  0  0  0  0  0  0
    1.6230   16.0170  -35.2610 O   0  0  0  0  0  0  0  0  0  0  0  0
    3.2040   17.8900  -36.3240 N   0  0  0  0  0  0  0  0  0  0  0  0
    2.7180   17.3640  -37.6180 C   0  0  0  0  0  0  0  0  0  0  0  0
    1.3640   17.9660  -38.0360 C   0  0  0  0  0  0  0  0  0  0  0  0
    0.5890   18.2620  -36.8940 O   0  0  0  0  0  0  0  0  0  0  0  0
    1.1630   19.3490  -36.1880 C   0  0  0  0  0  0  0  0  0  0  0  0
    2.7000   19.2450  -36.0350 C   0  0  0  0  0  0  0  0  0  0  0  0
    1.4720   17.7250  -32.8460 C   0  0  0  0  0  0  0  0  0  0  0  0
   -1.0410   21.0120  -31.4550 C   0  0  0  0  0  0  0  0  0  0  0  0
   -0.9640   20.6520  -33.1950 S   0  0  0  0  0  0  0  0  0  0  0  0
   -1.1650   21.9190  -33.9770 O   0  0  0  0  0  0  0  0  0  0  0  0
    0.3900   20.1030  -33.5480 O   0  0  0  0  0  0  0  0  0  0  0  0
   -2.1610   19.4430  -33.6510 C   0  0  0  0  0  0  0  0  0  0  0  0
   -3.5130   19.6250  -33.3200 C   0  0  0  0  0  0  0  0  0  0  0  0
   -4.4570   18.6520  -33.6680 C   0  0  0  0  0  0  0  0  0  0  0  0
   -4.0570   17.4990  -34.3550 C   0  0  0  0  0  0  0  0  0  0  0  0
   -2.7120   17.3220  -34.6960 C   0  0  0  0  0  0  0  0  0  0  0  0
   -1.7650   18.2900  -34.3450 C   0  0  0  0  0  0  0  0  0  0  0  0
   -1.4590   22.3010  -31.0840 C   0  0  0  0  0  0  0  0  0  0  0  0
   -5.9010   24.3040  -30.5480 C   0  0  0  0  0  0  0  0  0  0  0  0
   -6.1910   25.5240  -29.7100 C   0  0  0  0  0  0  0  0  0  0  0  0
   -6.9560   23.5010  -31.0140 C   0  0  0  0  0  0  0  0  0  0  0  0
   -7.9847   19.2125  -31.2878 H   0  0  0  0  0  0  0  0  0  0  0  0
   -9.0830   18.8520  -32.6628 H   0  0  0  0  0  0  0  0  0  0  0  0
   -7.4042   18.2129  -32.6628 H   0  0  0  0  0  0  0  0  0  0  0  0
   -6.4821   20.2382  -33.2814 H   0  0  0  0  0  0  0  0  0  0  0  0
   -8.1162   20.4212  -34.0351 H   0  0  0  0  0  0  0  0  0  0  0  0
   -9.3658   22.9419  -32.1503 H   0  0  0  0  0  0  0  0  0  0  0  0
   -9.8648   21.2724  -32.6378 H   0  0  0  0  0  0  0  0  0  0  0  0
   -8.9314   22.1272  -29.8526 H   0  0  0  0  0  0  0  0  0  0  0  0
  -10.6256   21.7878  -30.3439 H   0  0  0  0  0  0  0  0  0  0  0  0
   -9.4086   20.4666  -30.3439 H   0  0  0  0  0  0  0  0  0  0  0  0
   -5.1557   21.1105  -32.6644 H   0  0  0  0  0  0  0  0  0  0  0  0
   -3.2880   22.5507  -31.8866 H   0  0  0  0  0  0  0  0  0  0  0  0
   -1.3824   22.0143  -27.6848 H   0  0  0  0  0  0  0  0  0  0  0  0
   -0.6111   19.7333  -28.2936 H   0  0  0  0  0  0  0  0  0  0  0  0
    2.3419   19.6142  -30.1280 H   0  0  0  0  0  0  0  0  0  0  0  0
    4.5078   19.6593  -31.3574 H   0  0  0  0  0  0  0  0  0  0  0  0
    3.4614   17.5983  -38.3942 H   0  0  0  0  0  0  0  0  0  0  0  0
    2.5767   16.2792  -37.5025 H   0  0  0  0  0  0  0  0  0  0  0  0
    1.5379   18.8902  -38.6067 H   0  0  0  0  0  0  0  0  0  0  0  0
    0.8235   17.2370  -38.6576 H   0  0  0  0  0  0  0  0  0  0  0  0
    0.9293   20.2777  -36.7292 H   0  0  0  0  0  0  0  0  0  0  0  0
    0.7360   19.3373  -35.1743 H   0  0  0  0  0  0  0  0  0  0  0  0
    3.1729   19.9535  -36.7310 H   0  0  0  0  0  0  0  0  0  0  0  0
    2.9492   19.4792  -34.9895 H   0  0  0  0  0  0  0  0  0  0  0  0
    0.6054   17.2030  -33.2780 H   0  0  0  0  0  0  0  0  0  0  0  0
   -3.8308   20.5331  -32.7867 H   0  0  0  0  0  0  0  0  0  0  0  0
   -5.5148   18.7931  -33.4015 H   0  0  0  0  0  0  0  0  0  0  0  0
   -4.7993   16.7338  -34.6260 H   0  0  0  0  0  0  0  0  0  0  0  0
   -2.3983   16.4197  -35.2413 H   0  0  0  0  0  0  0  0  0  0  0  0
   -0.7080   18.1468  -34.6137 H   0  0  0  0  0  0  0  0  0  0  0  0
   -1.6833   23.0418  -31.8656 H   0  0  0  0  0  0  0  0  0  0  0  0
   -6.1282   25.2600  -28.6440 H   0  0  0  0  0  0  0  0  0  0  0  0
   -5.4543   26.3086  -29.9374 H   0  0  0  0  0  0  0  0  0  0  0  0
   -7.2019   25.8932  -29.9374 H   0  0  0  0  0  0  0  0  0  0  0  0
   -7.9927   23.7822  -30.7770 H   0  0  0  0  0  0  0  0  0  0  0  0
  1  2  1  0
  2  3  1  0
  3  4  1  0
  4  5  1  0
  3  6  1  0
  6  7  2  0
  7  8  1  0
  8  9  2  0
  9 10  1  0
 10 11  1  0
 11 12  2  0
 11 13  2  0
 11 14  1  0
 14 15  2  0
 15 16  1  0
 16 17  2  0
 17 18  1  0
 18 19  2  0
 18 20  2  0
 18 21  1  0
 21 22  2  0
 22 23  1  0
 23 24  2  0
 24 25  1  0
 24 26  1  0
 26 27  1  0
 27 28  2  0
 27 29  2  0
 27 30  1  0
 30 31  1  0
 31 32  1  0
 32 33  1  0
 33 34  1  0
 34 35  1  0
 26 36  2  0
 17 37  1  0
 37 38  1  0
 38 39  2  0
 38 40  2  0
 38 41  1  0
 41 42  2  0
 42 43  1  0
 43 44  2  0
 44 45  1  0
 45 46  2  0
 37 47  2  0
  9 48  1  0
 48 49  1  0
 48 50  2  0
 50  6  1  0
 47 14  1  0
 36 21  1  0
 46 41  1  0
 35 30  1  0
  1 51  1  0
  1 52  1  0
  1 53  1  0
  2 54  1  0
  2 55  1  0
  4 56  1  0
  4 57  1  0
  5 58  1  0
  5 59  1  0
  5 60  1  0
  7 61  1  0
  8 62  1  0
 15 63  1  0
 16 64  1  0
 22 65  1  0
 23 66  1  0
 31 67  1  0
 31 68  1  0
 32 69  1  0
 32 70  1  0
 34 71  1  0
 34 72  1  0
 35 73  1  0
 35 74  1  0
 36 75  1  0
 42 76  1  0
 43 77  1  0
 44 78  1  0
 45 79  1  0
 46 80  1  0
 47 81  1  0
 49 82  1  0
 49 83  1  0
 49 84  1  0
 50 85  1  0
M  CHG  2  10  -1  25  -1
M  END
>  <UniqueID>  (46) 
46

>  <SMILES>  (46) 
CCN(CC)c1ccc([N-]S(=O)(=O)c2ccc(S(=O)(=O)c3ccc([O-])c(S(=O)(=O)N4CCOCC4)c3)c(S(=O)(=O)c3ccccc3)c2)c(C)c1

>  <Energy>  (46) 
111.92870069174111

>  <Genealogy>  (46) 
CCN(CC)c1ccc([N-]S(=O)(=O)c2ccc(S(=O)(=O)c3ccc([O-])c(S(=O)(=O)N4CCOCC4)c3)c(S(=O)(=O)c3ccccc3)c2)c(C)c1 (protonated)
CCN(CC)c1ccc([N-]S(=O)(=O)c2ccc(S(=O)(=O)c3ccc([O-])c(S(=O)(=O)N4CCOCC4)c3)c(S(=O)(=O)c3ccccc3)c2)c(C)c1 (3D coordinates assigned)
CCN(CC)c1ccc([N-]S(=O)(=O)c2ccc(S(=O)(=O)c3ccc([O-])c(S(=O)(=O)N4CCOCC4)c3)c(S(=O)(=O)c3ccccc3)c2)c(C)c1 (nonaromatic ring conformer: 111.92870069174111 kcal/mol)

>  <smiles>  (46) 
CCN(CC)c1ccc(NS(=O)(=O)c2ccc(S(=O)(=O)c3ccc(O)c(S(=O)(=O)N4CCOCC4)c3)c(S(=O)(=O)c3ccccc3)c2)c(C)c1

>  <score_type>  (46) 
oracle

>  <origin>  (46) 
adgpu

>  <m_score__min__energy>  (46) 
-13.58

>  <m_primary>  (46) 
energy

$$$$
46:0
     RDKit          3D

 56 59  0  0  0  0  0  0  0  0999 V2000
    1.8400   19.5840  -33.1950 C   0  0  0  0  0  0  0  0  0  0  0  0
    0.8320   20.4610  -33.6890 O   0  0  0  0  0  0  0  0  0  0  0  0
   -0.2620   20.9110  -32.9360 C   0  0  0  0  0  0  0  0  0  0  0  0
   -0.1720   21.1780  -31.5560 C   0  0  0  0  0  0  0  0  0  0  0  0
   -1.2940   21.6230  -30.8510 C   0  0  0  0  0  0  0  0  0  0  0  0
   -2.5210   21.7950  -31.5000 C   0  0  0  0  0  0  0  0  0  0  0  0
   -3.6170   22.2500  -30.7530 O   0  0  0  0  0  0  0  0  0  0  0  0
   -4.8880   22.5330  -31.2720 C   0  0  0  0  0  0  0  0  0  0  0  0
   -5.5200   21.6340  -32.0800 N   0  0  0  0  0  0  0  0  0  0  0  0
   -6.7530   21.8680  -32.5960 C   0  0  0  0  0  0  0  0  0  0  0  0
   -7.4210   23.0540  -32.2970 C   0  0  0  0  0  0  0  0  0  0  0  0
   -6.8110   23.9890  -31.4630 C   0  0  0  0  0  0  0  0  0  0  0  0
   -5.5320   23.7420  -30.9370 C   0  0  0  0  0  0  0  0  0  0  0  0
   -4.8890   24.7350  -30.0420 C   0  0  0  0  0  0  0  0  0  0  0  0
   -5.6080   25.4680  -29.3120 O   0  0  0  0  0  0  0  0  0  0  0  0
   -3.4700   24.9340  -30.0290 N   0  0  0  0  0  0  0  0  0  0  0  0
   -2.5820   24.6150  -28.9470 C   0  0  0  0  0  0  0  0  0  0  0  0
   -2.7130   23.4220  -28.2120 C   0  0  0  0  0  0  0  0  0  0  0  0
   -1.8410   23.1470  -27.1560 C   0  0  0  0  0  0  0  0  0  0  0  0
   -0.8370   24.0640  -26.8140 C   0  0  0  0  0  0  0  0  0  0  0  0
    0.2570   23.7400  -25.4710 S   0  0  0  0  0  0  0  0  0  0  0  0
   -0.1940   22.5100  -24.7300 O   0  0  0  0  0  0  0  0  0  0  0  0
    1.6340   23.4890  -26.0190 O   0  0  0  0  0  0  0  0  0  0  0  0
    0.2900   25.1110  -24.3920 N   0  0  0  0  0  0  0  0  0  0  0  0
    1.3790   26.0300  -24.7670 C   0  0  0  0  0  0  0  0  0  0  0  0
    1.3670   27.2930  -23.8770 C   0  0  0  0  0  0  0  0  0  0  0  0
    0.2770   27.3000  -22.9720 O   0  0  0  0  0  0  0  0  0  0  0  0
   -0.9350   27.1660  -23.6880 C   0  0  0  0  0  0  0  0  0  0  0  0
   -1.0120   25.8050  -24.4120 C   0  0  0  0  0  0  0  0  0  0  0  0
   -0.7250   25.2650  -27.5260 C   0  0  0  0  0  0  0  0  0  0  0  0
   -1.5990   25.5400  -28.5820 C   0  0  0  0  0  0  0  0  0  0  0  0
   -2.6060   21.5500  -32.8810 C   0  0  0  0  0  0  0  0  0  0  0  0
   -1.4850   21.1070  -33.5890 C   0  0  0  0  0  0  0  0  0  0  0  0
    1.8281   19.5943  -32.0951 H   0  0  0  0  0  0  0  0  0  0  0  0
    1.6456   18.5626  -33.5542 H   0  0  0  0  0  0  0  0  0  0  0  0
    2.8247   19.9178  -33.5542 H   0  0  0  0  0  0  0  0  0  0  0  0
    0.7843   21.0359  -31.0313 H   0  0  0  0  0  0  0  0  0  0  0  0
   -1.2112   21.8399  -29.7758 H   0  0  0  0  0  0  0  0  0  0  0  0
   -7.2256   21.1210  -33.2508 H   0  0  0  0  0  0  0  0  0  0  0  0
   -8.4194   23.2500  -32.7150 H   0  0  0  0  0  0  0  0  0  0  0  0
   -7.3334   24.9248  -31.2154 H   0  0  0  0  0  0  0  0  0  0  0  0
   -3.5049   22.7035  -28.4700 H   0  0  0  0  0  0  0  0  0  0  0  0
   -1.9423   22.2085  -26.5912 H   0  0  0  0  0  0  0  0  0  0  0  0
    0.4690   24.7460  -23.4260 H   0  0  0  0  0  0  0  0  0  0  0  0
    2.3430   25.5140  -24.6466 H   0  0  0  0  0  0  0  0  0  0  0  0
    1.2348   26.3366  -25.8135 H   0  0  0  0  0  0  0  0  0  0  0  0
    2.3044   27.3305  -23.3027 H   0  0  0  0  0  0  0  0  0  0  0  0
    1.2651   28.1686  -24.5350 H   0  0  0  0  0  0  0  0  0  0  0  0
   -1.7771   27.2458  -22.9848 H   0  0  0  0  0  0  0  0  0  0  0  0
   -0.9815   27.9640  -24.4437 H   0  0  0  0  0  0  0  0  0  0  0  0
   -1.7614   25.1747  -23.9108 H   0  0  0  0  0  0  0  0  0  0  0  0
   -1.2924   25.9855  -25.4602 H   0  0  0  0  0  0  0  0  0  0  0  0
    0.0527   25.9937  -27.2536 H   0  0  0  0  0  0  0  0  0  0  0  0
   -1.5128   26.4903  -29.1293 H   0  0  0  0  0  0  0  0  0  0  0  0
   -3.5590   21.7075  -33.4074 H   0  0  0  0  0  0  0  0  0  0  0  0
   -1.5644   20.9107  -34.6684 H   0  0  0  0  0  0  0  0  0  0  0  0
  1  2  1  0
  2  3  1  0
  3  4  2  0
  4  5  1  0
  5  6  2  0
  6  7  1  0
  7  8  1  0
  8  9  2  0
  9 10  1  0
 10 11  2  0
 11 12  1  0
 12 13  2  0
 13 14  1  0
 14 15  2  0
 14 16  1  0
 16 17  1  0
 17 18  2  0
 18 19  1  0
 19 20  2  0
 20 21  1  0
 21 22  2  0
 21 23  2  0
 21 24  1  0
 24 25  1  0
 25 26  1  0
 26 27  1  0
 27 28  1  0
 28 29  1  0
 20 30  1  0
 30 31  2  0
  6 32  1  0
 32 33  2  0
 33  3  1  0
 13  8  1  0
 31 17  1  0
 29 24  1  0
  1 34  1  0
  1 35  1  0
  1 36  1  0
  4 37  1  0
  5 38  1  0
 10 39  1  0
 11 40  1  0
 12 41  1  0
 18 42  1  0
 19 43  1  0
 24 44  1  0
 25 45  1  0
 25 46  1  0
 26 47  1  0
 26 48  1  0
 28 49  1  0
 28 50  1  0
 29 51  1  0
 29 52  1  0
 30 53  1  0
 31 54  1  0
 32 55  1  0
 33 56  1  0
M  CHG  2  16  -1  24   1
M  END
>  <UniqueID>  (47) 
47

>  <SMILES>  (47) 
COc1ccc(Oc2ncccc2C(=O)[N-]c2ccc(S(=O)(=O)[NH+]3CCOCC3)cc2)cc1

>  <Energy>  (47) 
79.20021283325632

>  <Genealogy>  (47) 
COc1ccc(Oc2ncccc2C(=O)[N-]c2ccc(S(=O)(=O)[NH+]3CCOCC3)cc2)cc1 (protonated)
COc1ccc(Oc2ncccc2C(=O)[N-]c2ccc(S(=O)(=O)[NH+]3CCOCC3)cc2)cc1 (3D coordinates assigned)
COc1ccc(Oc2ncccc2C(=O)[N-]c2ccc(S(=O)(=O)[NH+]3CCOCC3)cc2)cc1 (nonaromatic ring conformer: 79.20021283325632 kcal/mol)

>  <smiles>  (47) 
COc1ccc(Oc2ncccc2C(=O)Nc2ccc(S(=O)(=O)N3CCOCC3)cc2)cc1

>  <score_type>  (47) 
oracle

>  <origin>  (47) 
adgpu

>  <m_score__min__energy>  (47) 
-10.35

>  <m_primary>  (47) 
energy

$$$$
47:0
     RDKit          3D

 62 65  0  0  0  0  0  0  0  0999 V2000
    1.9320   12.8480  -38.9450 C   0  0  0  0  0  0  0  0  0  0  0  0
    0.7420   12.4020  -38.3010 O   0  0  0  0  0  0  0  0  0  0  0  0
   -0.2220   13.2530  -37.7410 C   0  0  0  0  0  0  0  0  0  0  0  0
    0.2140   14.3740  -37.0270 C   0  0  0  0  0  0  0  0  0  0  0  0
   -0.7080   15.2520  -36.4490 C   0  0  0  0  0  0  0  0  0  0  0  0
   -2.0880   15.0100  -36.5640 C   0  0  0  0  0  0  0  0  0  0  0  0
   -3.0580   15.9080  -36.0000 N   0  0  0  0  0  0  0  0  0  0  0  0
   -3.1460   16.2170  -34.5970 C   0  0  0  0  0  0  0  0  0  0  0  0
   -2.5170   15.5220  -33.7540 O   0  0  0  0  0  0  0  0  0  0  0  0
   -4.0340   17.3360  -34.1060 C   0  0  0  0  0  0  0  0  0  0  0  0
   -5.0200   17.7820  -35.2030 C   0  0  0  0  0  0  0  0  0  0  0  0
   -6.1420   18.6130  -34.5760 C   0  0  0  0  0  0  0  0  0  0  0  0
   -6.9690   17.8100  -33.6460 N   0  0  0  0  0  0  0  0  0  0  0  0
   -7.7650   18.8530  -32.4910 S   0  0  0  0  0  0  0  0  0  0  0  0
   -8.1510   18.0680  -31.2680 O   0  0  0  0  0  0  0  0  0  0  0  0
   -9.0090   19.4320  -33.1030 O   0  0  0  0  0  0  0  0  0  0  0  0
   -6.6880   20.1750  -32.0420 C   0  0  0  0  0  0  0  0  0  0  0  0
   -7.1220   21.5030  -32.1160 C   0  0  0  0  0  0  0  0  0  0  0  0
   -6.2740   22.5430  -31.7280 C   0  0  0  0  0  0  0  0  0  0  0  0
   -4.9810   22.2710  -31.2390 C   0  0  0  0  0  0  0  0  0  0  0  0
   -4.5300   20.9340  -31.2170 C   0  0  0  0  0  0  0  0  0  0  0  0
   -5.3950   19.8940  -31.5900 C   0  0  0  0  0  0  0  0  0  0  0  0
   -3.1330   20.6210  -30.7600 C   0  0  0  0  0  0  0  0  0  0  0  0
   -2.1890   21.7600  -31.1430 C   0  0  0  0  0  0  0  0  0  0  0  0
   -2.6720   23.0790  -30.5330 C   0  0  0  0  0  0  0  0  0  0  0  0
   -4.0930   23.3400  -30.8200 N   0  0  0  0  0  0  0  0  0  0  0  0
   -4.5980   24.6330  -30.4410 C   0  0  0  0  0  0  0  0  0  0  0  0
   -5.7880   24.7690  -29.5420 C   0  0  0  0  0  0  0  0  0  0  0  0
   -4.0000   25.6740  -30.8270 O   0  0  0  0  0  0  0  0  0  0  0  0
   -6.2510   16.7060  -32.9650 C   0  0  0  0  0  0  0  0  0  0  0  0
   -4.7470   16.9750  -32.7790 C   0  0  0  0  0  0  0  0  0  0  0  0
   -2.5260   13.8980  -37.2990 C   0  0  0  0  0  0  0  0  0  0  0  0
   -1.6030   13.0210  -37.8770 C   0  0  0  0  0  0  0  0  0  0  0  0
    2.6772   13.1273  -38.1857 H   0  0  0  0  0  0  0  0  0  0  0  0
    2.3340   12.0395  -39.5733 H   0  0  0  0  0  0  0  0  0  0  0  0
    1.7036   13.7215  -39.5733 H   0  0  0  0  0  0  0  0  0  0  0  0
    1.2917   14.5665  -36.9193 H   0  0  0  0  0  0  0  0  0  0  0  0
   -0.3516   16.1369  -35.9013 H   0  0  0  0  0  0  0  0  0  0  0  0
   -3.7940   16.2870  -36.6340 H   0  0  0  0  0  0  0  0  0  0  0  0
   -3.3890   18.1977  -33.8790 H   0  0  0  0  0  0  0  0  0  0  0  0
   -4.4873   18.3896  -35.9493 H   0  0  0  0  0  0  0  0  0  0  0  0
   -5.4504   16.8949  -35.6907 H   0  0  0  0  0  0  0  0  0  0  0  0
   -5.6962   19.4521  -34.0217 H   0  0  0  0  0  0  0  0  0  0  0  0
   -6.7925   18.9745  -35.3860 H   0  0  0  0  0  0  0  0  0  0  0  0
   -8.1347   21.7290  -32.4811 H   0  0  0  0  0  0  0  0  0  0  0  0
   -6.6191   23.5846  -31.8050 H   0  0  0  0  0  0  0  0  0  0  0  0
   -5.0535   18.8503  -31.5264 H   0  0  0  0  0  0  0  0  0  0  0  0
   -3.1271   20.4951  -29.6672 H   0  0  0  0  0  0  0  0  0  0  0  0
   -2.7943   19.6935  -31.2448 H   0  0  0  0  0  0  0  0  0  0  0  0
   -1.1792   21.5356  -30.7690 H   0  0  0  0  0  0  0  0  0  0  0  0
   -2.1722   21.8576  -32.2385 H   0  0  0  0  0  0  0  0  0  0  0  0
   -2.5333   23.0363  -29.4426 H   0  0  0  0  0  0  0  0  0  0  0  0
   -2.0830   23.8928  -30.9811 H   0  0  0  0  0  0  0  0  0  0  0  0
   -5.4608   24.7316  -28.4925 H   0  0  0  0  0  0  0  0  0  0  0  0
   -6.2866   25.7300  -29.7366 H   0  0  0  0  0  0  0  0  0  0  0  0
   -6.4906   23.9453  -29.7366 H   0  0  0  0  0  0  0  0  0  0  0  0
   -6.7032   16.5558  -31.9735 H   0  0  0  0  0  0  0  0  0  0  0  0
   -6.3440   15.8161  -33.6048 H   0  0  0  0  0  0  0  0  0  0  0  0
   -4.6238   17.8111  -32.0749 H   0  0  0  0  0  0  0  0  0  0  0  0
   -4.2895   16.0502  -32.3977 H   0  0  0  0  0  0  0  0  0  0  0  0
   -3.6037   13.7147  -37.4215 H   0  0  0  0  0  0  0  0  0  0  0  0
   -1.9582   12.1457  -38.4406 H   0  0  0  0  0  0  0  0  0  0  0  0
  1  2  1  0
  2  3  1  0
  3  4  2  0
  4  5  1  0
  5  6  2  0
  6  7  1  0
  7  8  1  0
  8  9  2  0
  8 10  1  0
 10 11  1  0
 11 12  1  0
 12 13  1  0
 13 14  1  0
 14 15  2  0
 14 16  2  0
 14 17  1  0
 17 18  2  0
 18 19  1  0
 19 20  2  0
 20 21  1  0
 21 22  2  0
 21 23  1  0
 23 24  1  0
 24 25  1  0
 25 26  1  0
 26 27  1  0
 27 28  1  0
 27 29  2  0
 13 30  1  0
 30 31  1  0
  6 32  1  0
 32 33  2  0
 33  3  1  0
 31 10  1  0
 22 17  1  0
 26 20  1  0
  1 34  1  0
  1 35  1  0
  1 36  1  0
  4 37  1  0
  5 38  1  0
  7 39  1  0
 10 40  1  0
 11 41  1  0
 11 42  1  0
 12 43  1  0
 12 44  1  0
 18 45  1  0
 19 46  1  0
 22 47  1  0
 23 48  1  0
 23 49  1  0
 24 50  1  0
 24 51  1  0
 25 52  1  0
 25 53  1  0
 28 54  1  0
 28 55  1  0
 28 56  1  0
 30 57  1  0
 30 58  1  0
 31 59  1  0
 31 60  1  0
 32 61  1  0
 33 62  1  0
M  END
>  <UniqueID>  (48) 
48

>  <SMILES>  (48) 
COc1ccc(NC(=O)C2CCN(S(=O)(=O)c3ccc4c(c3)CCCN4C(C)=O)CC2)cc1

>  <Energy>  (48) 
78.91780668502248

>  <Genealogy>  (48) 
COc1ccc(NC(=O)C2CCN(S(=O)(=O)c3ccc4c(c3)CCCN4C(C)=O)CC2)cc1 (3D coordinates assigned)
COc1ccc(NC(=O)C2CCN(S(=O)(=O)c3ccc4c(c3)CCCN4C(C)=O)CC2)cc1 (nonaromatic ring conformer: 78.91780668502248 kcal/mol)

>  <smiles>  (48) 
COc1ccc(NC(=O)C2CCN(S(=O)(=O)c3ccc4c(c3)CCCN4C(C)=O)CC2)cc1

>  <score_type>  (48) 
oracle

>  <origin>  (48) 
adgpu

>  <m_score__min__energy>  (48) 
-9.7100000000000009

>  <m_primary>  (48) 
energy

$$$$
48:0
     RDKit          3D

 62 66  0  0  0  0  0  0  0  0999 V2000
    3.0570   22.2930  -35.5270 C   0  0  0  0  0  0  0  0  0  0  0  0
    1.7930   23.0740  -35.8470 C   0  0  0  0  0  0  0  0  0  0  0  0
    0.6120   22.2440  -35.6240 N   0  0  0  0  0  0  0  0  0  0  0  0
    0.6330   20.9190  -35.0770 C   0  0  0  0  0  0  0  0  0  0  0  0
    0.8100   19.9440  -35.8500 O   0  0  0  0  0  0  0  0  0  0  0  0
    0.4530   20.6630  -33.6360 C   0  0  0  0  0  0  0  0  0  0  0  0
   -0.3490   21.5380  -32.8890 C   0  0  0  0  0  0  0  0  0  0  0  0
   -0.4900   21.3660  -31.5040 C   0  0  0  0  0  0  0  0  0  0  0  0
   -1.2840   22.2200  -30.7250 O   0  0  0  0  0  0  0  0  0  0  0  0
   -2.6770   22.3780  -30.8230 C   0  0  0  0  0  0  0  0  0  0  0  0
   -3.4980   21.3990  -31.4090 C   0  0  0  0  0  0  0  0  0  0  0  0
   -4.8890   21.5860  -31.4930 C   0  0  0  0  0  0  0  0  0  0  0  0
   -5.4570   22.7980  -31.0440 C   0  0  0  0  0  0  0  0  0  0  0  0
   -4.6230   23.7950  -30.5130 C   0  0  0  0  0  0  0  0  0  0  0  0
   -3.2490   23.5680  -30.3540 C   0  0  0  0  0  0  0  0  0  0  0  0
   -2.4050   24.5360  -29.7180 N   0  0  0  0  0  0  0  0  0  0  0  0
   -1.4570   24.2430  -28.2900 S   0  0  0  0  0  0  0  0  0  0  0  0
   -0.0370   24.6500  -28.5610 O   0  0  0  0  0  0  0  0  0  0  0  0
   -1.9910   25.0790  -27.1610 O   0  0  0  0  0  0  0  0  0  0  0  0
   -1.4590   22.5420  -27.8340 C   0  0  0  0  0  0  0  0  0  0  0  0
   -2.6650   21.8720  -27.5830 C   0  0  0  0  0  0  0  0  0  0  0  0
   -2.6620   20.5070  -27.2870 C   0  0  0  0  0  0  0  0  0  0  0  0
   -1.4540   19.8050  -27.2370 C   0  0  0  0  0  0  0  0  0  0  0  0
   -1.4530   18.4790  -26.9560 F   0  0  0  0  0  0  0  0  0  0  0  0
   -0.2490   20.4710  -27.4810 C   0  0  0  0  0  0  0  0  0  0  0  0
   -0.2510   21.8370  -27.7780 C   0  0  0  0  0  0  0  0  0  0  0  0
   -6.9210   23.0070  -31.1220 C   0  0  0  0  0  0  0  0  0  0  0  0
   -7.4280   24.0880  -30.7110 O   0  0  0  0  0  0  0  0  0  0  0  0
   -7.7940   21.9420  -31.6680 C   0  0  0  0  0  0  0  0  0  0  0  0
   -9.1870   22.1230  -31.7340 C   0  0  0  0  0  0  0  0  0  0  0  0
  -10.0080   21.1160  -32.2460 C   0  0  0  0  0  0  0  0  0  0  0  0
   -9.4500   19.9220  -32.7020 C   0  0  0  0  0  0  0  0  0  0  0  0
   -8.0700   19.7270  -32.6400 C   0  0  0  0  0  0  0  0  0  0  0  0
   -7.2280   20.7310  -32.1260 C   0  0  0  0  0  0  0  0  0  0  0  0
   -5.7610   20.5270  -32.0540 C   0  0  0  0  0  0  0  0  0  0  0  0
   -5.2520   19.4450  -32.4630 O   0  0  0  0  0  0  0  0  0  0  0  0
    0.1360   20.2890  -30.8790 C   0  0  0  0  0  0  0  0  0  0  0  0
    0.9370   19.3990  -31.6100 C   0  0  0  0  0  0  0  0  0  0  0  0
    1.6170   18.2560  -30.9140 C   0  0  0  0  0  0  0  0  0  0  0  0
    1.1080   19.5880  -32.9920 C   0  0  0  0  0  0  0  0  0  0  0  0
    1.9110   18.6880  -33.7000 O   0  0  0  0  0  0  0  0  0  0  0  0
    3.1762   22.2194  -34.4360 H   0  0  0  0  0  0  0  0  0  0  0  0
    2.9827   21.2831  -35.9567 H   0  0  0  0  0  0  0  0  0  0  0  0
    3.9269   22.8113  -35.9567 H   0  0  0  0  0  0  0  0  0  0  0  0
    1.7407   23.9607  -35.1982 H   0  0  0  0  0  0  0  0  0  0  0  0
    1.8201   23.3799  -36.9033 H   0  0  0  0  0  0  0  0  0  0  0  0
   -0.8711   22.3649  -33.3927 H   0  0  0  0  0  0  0  0  0  0  0  0
   -3.0477   20.4772  -31.8059 H   0  0  0  0  0  0  0  0  0  0  0  0
   -5.0523   24.7641  -30.2188 H   0  0  0  0  0  0  0  0  0  0  0  0
   -3.6163   22.4231  -27.6193 H   0  0  0  0  0  0  0  0  0  0  0  0
   -3.6102   19.9842  -27.0932 H   0  0  0  0  0  0  0  0  0  0  0  0
    0.7018   19.9193  -27.4392 H   0  0  0  0  0  0  0  0  0  0  0  0
    0.6985   22.3589  -27.9681 H   0  0  0  0  0  0  0  0  0  0  0  0
   -9.6330   23.0641  -31.3799 H   0  0  0  0  0  0  0  0  0  0  0  0
  -11.0970   21.2649  -32.2897 H   0  0  0  0  0  0  0  0  0  0  0  0
  -10.0986   19.1333  -33.1109 H   0  0  0  0  0  0  0  0  0  0  0  0
   -7.6363   18.7808  -32.9958 H   0  0  0  0  0  0  0  0  0  0  0  0
    0.0002   20.1348  -29.7984 H   0  0  0  0  0  0  0  0  0  0  0  0
    1.5372   18.3901  -29.8251 H   0  0  0  0  0  0  0  0  0  0  0  0
    1.1342   17.3110  -31.2034 H   0  0  0  0  0  0  0  0  0  0  0  0
    2.6779   18.2294  -31.2034 H   0  0  0  0  0  0  0  0  0  0  0  0
    1.9190   18.6300  -34.7100 H   0  0  0  0  0  0  0  0  0  0  0  0
  1  2  1  0
  2  3  1  0
  3  4  1  0
  4  5  2  0
  4  6  1  0
  6  7  2  0
  7  8  1  0
  8  9  1  0
  9 10  1  0
 10 11  2  0
 11 12  1  0
 12 13  2  0
 13 14  1  0
 14 15  2  0
 15 16  1  0
 16 17  1  0
 17 18  2  0
 17 19  2  0
 17 20  1  0
 20 21  2  0
 21 22  1  0
 22 23  2  0
 23 24  1  0
 23 25  1  0
 25 26  2  0
 13 27  1  0
 27 28  2  0
 27 29  1  0
 29 30  2  0
 30 31  1  0
 31 32  2  0
 32 33  1  0
 33 34  2  0
 34 35  1  0
 35 36  2  0
  8 37  2  0
 37 38  1  0
 38 39  1  0
 38 40  2  0
 40 41  1  0
 40  6  1  0
 15 10  1  0
 26 20  1  0
 34 29  1  0
 35 12  1  0
  1 42  1  0
  1 43  1  0
  1 44  1  0
  2 45  1  0
  2 46  1  0
  7 47  1  0
 11 48  1  0
 14 49  1  0
 21 50  1  0
 22 51  1  0
 25 52  1  0
 26 53  1  0
 30 54  1  0
 31 55  1  0
 32 56  1  0
 33 57  1  0
 37 58  1  0
 39 59  1  0
 39 60  1  0
 39 61  1  0
 41 62  1  0
M  CHG  2   3  -1  16  -1
M  END
>  <UniqueID>  (49) 
49

>  <SMILES>  (49) 
CC[N-]C(=O)c1cc(Oc2cc3c(cc2[N-]S(=O)(=O)c2ccc(F)cc2)C(=O)c2ccccc2C3=O)cc(C)c1O

>  <Energy>  (49) 
88.93625321793873

>  <Genealogy>  (49) 
CC[N-]C(=O)c1cc(Oc2cc3c(cc2[N-]S(=O)(=O)c2ccc(F)cc2)C(=O)c2ccccc2C3=O)cc(C)c1O (protonated)
CC[N-]C(=O)c1cc(Oc2cc3c(cc2[N-]S(=O)(=O)c2ccc(F)cc2)C(=O)c2ccccc2C3=O)cc(C)c1O (3D coordinates assigned)
CC[N-]C(=O)c1cc(Oc2cc3c(cc2[N-]S(=O)(=O)c2ccc(F)cc2)C(=O)c2ccccc2C3=O)cc(C)c1O (nonaromatic ring conformer: 88.93625321793873 kcal/mol)

>  <smiles>  (49) 
CCNC(=O)c1cc(Oc2cc3c(cc2NS(=O)(=O)c2ccc(F)cc2)C(=O)c2ccccc2C3=O)cc(C)c1O

>  <score_type>  (49) 
oracle

>  <origin>  (49) 
adgpu

>  <m_score__min__energy>  (49) 
-12.76

>  <m_primary>  (49) 
energy

$$$$
49:0
     RDKit          3D

 49 51  0  0  0  0  0  0  0  0999 V2000
   -6.4770   25.5310  -29.5650 C   0  0  0  0  0  0  0  0  0  0  0  0
   -5.3660   24.5300  -29.5240 C   0  0  0  0  0  0  0  0  0  0  0  0
   -4.3620   24.5650  -28.6270 N   0  0  0  0  0  0  0  0  0  0  0  0
   -3.5150   23.5660  -28.9400 C   0  0  0  0  0  0  0  0  0  0  0  0
   -3.9790   22.8840  -30.0470 C   0  0  0  0  0  0  0  0  0  0  0  0
   -3.0930   21.6330  -30.9190 S   0  0  0  0  0  0  0  0  0  0  0  0
   -1.7360   22.1650  -31.2930 O   0  0  0  0  0  0  0  0  0  0  0  0
   -2.9090   20.4380  -30.0270 O   0  0  0  0  0  0  0  0  0  0  0  0
   -3.9530   21.1660  -32.3680 N   0  0  1  0  0  0  0  0  0  0  0  0
   -3.0050   20.8650  -33.4780 C   0  0  0  0  0  0  0  0  0  0  0  0
   -2.7800   19.3600  -33.6790 C   0  0  0  0  0  0  0  0  0  0  0  0
   -4.1010   18.6330  -33.9890 C   0  0  0  0  0  0  0  0  0  0  0  0
   -5.3240   19.3100  -33.3250 C   0  0  1  0  0  0  0  0  0  0  0  0
   -6.4230   18.2870  -33.0150 C   0  0  0  0  0  0  0  0  0  0  0  0
   -4.8970   20.0650  -32.0530 C   0  0  0  0  0  0  0  0  0  0  0  0
   -5.1610   23.4990  -30.4260 C   0  0  0  0  0  0  0  0  0  0  0  0
   -5.9920   23.1780  -31.5940 C   0  0  0  0  0  0  0  0  0  0  0  0
   -5.6890   23.6620  -32.7190 O   0  0  0  0  0  0  0  0  0  0  0  0
   -7.1360   22.3240  -31.4640 N   0  0  0  0  0  0  0  0  0  0  0  0
   -7.6630   21.5320  -32.5590 C   0  0  0  0  0  0  0  0  0  0  0  0
   -8.8210   20.7430  -31.9620 C   0  0  0  0  0  0  0  0  0  0  0  0
   -9.2040   21.4740  -30.6760 C   0  0  0  0  0  0  0  0  0  0  0  0
   -7.9830   22.2990  -30.2850 C   0  0  0  0  0  0  0  0  0  0  0  0
   -6.7704   25.7954  -28.5383 H   0  0  0  0  0  0  0  0  0  0  0  0
   -6.1376   26.4341  -30.0934 H   0  0  0  0  0  0  0  0  0  0  0  0
   -7.3399   25.0996  -30.0934 H   0  0  0  0  0  0  0  0  0  0  0  0
   -4.2420   25.2550  -27.8510 H   0  0  0  0  0  0  0  0  0  0  0  0
   -2.5900   23.3284  -28.3942 H   0  0  0  0  0  0  0  0  0  0  0  0
   -4.5240   21.9920  -32.6590 H   0  0  0  0  0  0  0  0  0  0  0  0
   -3.4099   21.2870  -34.4097 H   0  0  0  0  0  0  0  0  0  0  0  0
   -2.0350   21.3117  -33.2143 H   0  0  0  0  0  0  0  0  0  0  0  0
   -2.0836   19.2107  -34.5173 H   0  0  0  0  0  0  0  0  0  0  0  0
   -2.3649   18.9440  -32.7492 H   0  0  0  0  0  0  0  0  0  0  0  0
   -4.2513   18.6252  -35.0786 H   0  0  0  0  0  0  0  0  0  0  0  0
   -4.0233   17.6139  -33.5824 H   0  0  0  0  0  0  0  0  0  0  0  0
   -5.7402   20.0388  -34.0360 H   0  0  0  0  0  0  0  0  0  0  0  0
   -6.5323   18.1852  -31.9252 H   0  0  0  0  0  0  0  0  0  0  0  0
   -7.3745   18.6283  -33.4487 H   0  0  0  0  0  0  0  0  0  0  0  0
   -6.1506   17.3135  -33.4487 H   0  0  0  0  0  0  0  0  0  0  0  0
   -5.7908   20.4870  -31.5703 H   0  0  0  0  0  0  0  0  0  0  0  0
   -4.3898   19.3552  -31.3829 H   0  0  0  0  0  0  0  0  0  0  0  0
   -8.0186   22.1842  -33.3702 H   0  0  0  0  0  0  0  0  0  0  0  0
   -6.8978   20.8723  -32.9939 H   0  0  0  0  0  0  0  0  0  0  0  0
   -9.6714   20.7239  -32.6595 H   0  0  0  0  0  0  0  0  0  0  0  0
   -8.5398   19.6979  -31.7651 H   0  0  0  0  0  0  0  0  0  0  0  0
  -10.0689   22.1304  -30.8521 H   0  0  0  0  0  0  0  0  0  0  0  0
   -9.4873   20.7696  -29.8800 H   0  0  0  0  0  0  0  0  0  0  0  0
   -8.2826   23.3198  -30.0055 H   0  0  0  0  0  0  0  0  0  0  0  0
   -7.4612   21.8686  -29.4176 H   0  0  0  0  0  0  0  0  0  0  0  0
  1  2  1  0
  2  3  1  0
  3  4  1  0
  4  5  2  0
  5  6  1  0
  6  7  2  0
  6  8  2  0
  6  9  1  0
  9 10  1  0
 10 11  1  0
 11 12  1  0
 12 13  1  0
 13 14  1  0
 13 15  1  0
  5 16  1  0
 16 17  1  0
 17 18  2  0
 17 19  1  0
 19 20  1  0
 20 21  1  0
 21 22  1  0
 22 23  1  0
 16  2  2  0
 23 19  1  0
 15  9  1  0
  1 24  1  0
  1 25  1  0
  1 26  1  0
  3 27  1  0
  4 28  1  0
  9 29  1  6
 10 30  1  0
 10 31  1  0
 11 32  1  0
 11 33  1  0
 12 34  1  0
 12 35  1  0
 13 36  1  6
 14 37  1  0
 14 38  1  0
 14 39  1  0
 15 40  1  0
 15 41  1  0
 20 42  1  0
 20 43  1  0
 21 44  1  0
 21 45  1  0
 22 46  1  0
 22 47  1  0
 23 48  1  0
 23 49  1  0
M  CHG  1   9   1
M  END
>  <UniqueID>  (50) 
50

>  <SMILES>  (50) 
Cc1[nH]cc(S(=O)(=O)[N@H+]2CCC[C@@H](C)C2)c1C(=O)N1CCCC1

>  <Energy>  (50) 
80.91347138288218

>  <Genealogy>  (50) 
Cc1[nH]cc(S(=O)(=O)[NH+]2CCCC(C)C2)c1C(=O)N1CCCC1 (protonated)
Cc1[nH]cc(S(=O)(=O)[N@H+]2CCC[C@@H](C)C2)c1C(=O)N1CCCC1 (chirality)
Cc1[nH]cc(S(=O)(=O)[N@H+]2CCC[C@@H](C)C2)c1C(=O)N1CCCC1 (3D coordinates assigned)
Cc1[nH]cc(S(=O)(=O)[N@H+]2CCC[C@@H](C)C2)c1C(=O)N1CCCC1 (nonaromatic ring conformer: 80.91347138288218 kcal/mol)

>  <smiles>  (50) 
Cc1[nH]cc(S(=O)(=O)N2CCCC(C)C2)c1C(=O)N1CCCC1

>  <score_type>  (50) 
oracle

>  <origin>  (50) 
adgpu

>  <m_score__min__energy>  (50) 
-7.6100000000000003

>  <m_primary>  (50) 
energy

$$$$
