0:0
     RDKit          3D

 51 53  0  0  0  0  0  0  0  0999 V2000
   -6.1950   17.8790  -31.5260 C   0  0  0  0  0  0  0  0  0  0  0  0
   -6.2510   18.5550  -32.8530 C   0  0  0  0  0  0  0  0  0  0  0  0
   -6.8600   17.9980  -33.8050 O   0  0  0  0  0  0  0  0  0  0  0  0
   -5.6950   19.8690  -33.0040 N   0  0  0  0  0  0  0  0  0  0  0  0
   -6.2120   21.0860  -32.4420 C   0  0  0  0  0  0  0  0  0  0  0  0
   -5.3690   22.0100  -31.7970 C   0  0  0  0  0  0  0  0  0  0  0  0
   -5.8960   23.1730  -31.2210 C   0  0  0  0  0  0  0  0  0  0  0  0
   -4.8130   24.3070  -30.4190 S   0  0  0  0  0  0  0  0  0  0  0  0
   -4.8920   25.6720  -31.0470 O   0  0  0  0  0  0  0  0  0  0  0  0
   -5.2130   24.4220  -28.9750 O   0  0  0  0  0  0  0  0  0  0  0  0
   -3.1820   23.7220  -30.5110 N   0  0  0  0  0  0  0  0  0  0  0  0
   -2.3500   23.4030  -29.3870 C   0  0  0  0  0  0  0  0  0  0  0  0
   -2.2920   22.1040  -28.8480 C   0  0  0  0  0  0  0  0  0  0  0  0
   -1.4720   21.8260  -27.7480 C   0  0  0  0  0  0  0  0  0  0  0  0
   -1.4140   20.1910  -27.0990 S   0  0  0  0  0  0  0  0  0  0  0  0
   -1.6580   20.2220  -25.6160 O   0  0  0  0  0  0  0  0  0  0  0  0
   -2.5040   19.3830  -27.7460 O   0  0  0  0  0  0  0  0  0  0  0  0
    0.1530   19.4950  -27.4510 N   0  0  0  0  0  0  0  0  0  0  0  0
    0.0800   18.0310  -27.6780 C   0  0  0  0  0  0  0  0  0  0  0  0
    0.4270   17.5970  -29.1140 C   0  0  0  0  0  0  0  0  0  0  0  0
   -0.1760   18.5530  -30.1420 C   0  0  0  0  0  0  0  0  0  0  0  0
    0.2690   20.0080  -29.9080 C   0  0  0  0  0  0  0  0  0  0  0  0
    0.8660   20.2420  -28.5080 C   0  0  0  0  0  0  0  0  0  0  0  0
   -0.6900   22.8450  -27.1910 C   0  0  0  0  0  0  0  0  0  0  0  0
   -0.7360   24.1350  -27.7250 C   0  0  0  0  0  0  0  0  0  0  0  0
   -1.5670   24.4160  -28.8150 C   0  0  0  0  0  0  0  0  0  0  0  0
   -1.6120   25.7080  -29.3270 O   0  0  0  0  0  0  0  0  0  0  0  0
   -7.2740   23.4170  -31.2800 C   0  0  0  0  0  0  0  0  0  0  0  0
   -8.1210   22.4970  -31.9010 C   0  0  0  0  0  0  0  0  0  0  0  0
   -7.6000   21.3290  -32.4750 C   0  0  0  0  0  0  0  0  0  0  0  0
   -8.4790   20.4290  -33.0790 O   0  0  0  0  0  0  0  0  0  0  0  0
   -6.2575   18.6330  -30.7275 H   0  0  0  0  0  0  0  0  0  0  0  0
   -7.0382   17.1784  -31.4355 H   0  0  0  0  0  0  0  0  0  0  0  0
   -5.2480   17.3267  -31.4355 H   0  0  0  0  0  0  0  0  0  0  0  0
   -4.2873   21.8173  -31.7447 H   0  0  0  0  0  0  0  0  0  0  0  0
   -2.8960   21.3006  -29.2949 H   0  0  0  0  0  0  0  0  0  0  0  0
    0.7834   17.5397  -26.9896 H   0  0  0  0  0  0  0  0  0  0  0  0
   -0.9649   17.7355  -27.5022 H   0  0  0  0  0  0  0  0  0  0  0  0
    1.5207   17.5874  -29.2314 H   0  0  0  0  0  0  0  0  0  0  0  0
    0.0094   16.5938  -29.2848 H   0  0  0  0  0  0  0  0  0  0  0  0
    0.1439   18.2412  -31.1472 H   0  0  0  0  0  0  0  0  0  0  0  0
   -1.2707   18.5126  -30.0420 H   0  0  0  0  0  0  0  0  0  0  0  0
    1.0292   20.2663  -30.6599 H   0  0  0  0  0  0  0  0  0  0  0  0
   -0.6266   20.6412  -29.9915 H   0  0  0  0  0  0  0  0  0  0  0  0
    1.9183   19.9217  -28.5163 H   0  0  0  0  0  0  0  0  0  0  0  0
    0.7683   21.3138  -28.2804 H   0  0  0  0  0  0  0  0  0  0  0  0
   -0.0383   22.6294  -26.3315 H   0  0  0  0  0  0  0  0  0  0  0  0
   -0.1171   24.9321  -27.2873 H   0  0  0  0  0  0  0  0  0  0  0  0
   -7.6892   24.3341  -30.8368 H   0  0  0  0  0  0  0  0  0  0  0  0
   -9.2033   22.6898  -31.9401 H   0  0  0  0  0  0  0  0  0  0  0  0
   -8.1650   19.7140  -33.7250 H   0  0  0  0  0  0  0  0  0  0  0  0
  1  2  1  0
  2  3  2  0
  2  4  1  0
  4  5  1  0
  5  6  2  0
  6  7  1  0
  7  8  1  0
  8  9  2  0
  8 10  2  0
  8 11  1  0
 11 12  1  0
 12 13  2  0
 13 14  1  0
 14 15  1  0
 15 16  2  0
 15 17  2  0
 15 18  1  0
 18 19  1  0
 19 20  1  0
 20 21  1  0
 21 22  1  0
 22 23  1  0
 14 24  2  0
 24 25  1  0
 25 26  2  0
 26 27  1  0
  7 28  2  0
 28 29  1  0
 29 30  2  0
 30 31  1  0
 30  5  1  0
 26 12  1  0
 23 18  1  0
  1 32  1  0
  1 33  1  0
  1 34  1  0
  6 35  1  0
 13 36  1  0
 19 37  1  0
 19 38  1  0
 20 39  1  0
 20 40  1  0
 21 41  1  0
 21 42  1  0
 22 43  1  0
 22 44  1  0
 23 45  1  0
 23 46  1  0
 24 47  1  0
 25 48  1  0
 28 49  1  0
 29 50  1  0
 31 51  1  0
M  CHG  3   4  -1  11  -1  27  -1
M  END
>  <UniqueID>  (1) 
1

>  <SMILES>  (1) 
CC(=O)[N-]c1cc(S(=O)(=O)[N-]c2cc(S(=O)(=O)N3CCCCC3)ccc2[O-])ccc1O

>  <Energy>  (1) 
64.0755224234387

>  <Genealogy>  (1) 
CC(=O)[N-]c1cc(S(=O)(=O)[N-]c2cc(S(=O)(=O)N3CCCCC3)ccc2[O-])ccc1O (protonated)
CC(=O)[N-]c1cc(S(=O)(=O)[N-]c2cc(S(=O)(=O)N3CCCCC3)ccc2[O-])ccc1O (3D coordinates assigned)
CC(=O)[N-]c1cc(S(=O)(=O)[N-]c2cc(S(=O)(=O)N3CCCCC3)ccc2[O-])ccc1O (nonaromatic ring conformer: 64.0755224234387 kcal/mol)

>  <smiles>  (1) 
CC(=O)Nc1cc(S(=O)(=O)Nc2cc(S(=O)(=O)N3CCCCC3)ccc2O)ccc1O

>  <score_type>  (1) 
oracle

>  <origin>  (1) 
adgpu

>  <m_score__min__energy>  (1) 
-13.06

>  <m_primary>  (1) 
energy

$$$$
1:0
     RDKit          3D

 54 57  0  0  0  0  0  0  0  0999 V2000
   -0.8990   21.3880  -34.1900 O   0  0  0  0  0  0  0  0  0  0  0  0
   -0.9310   20.4060  -33.4030 C   0  0  0  0  0  0  0  0  0  0  0  0
    0.0660   20.2470  -32.3870 N   0  0  0  0  0  0  0  0  0  0  0  0
   -0.1130   19.6560  -31.0920 C   0  0  0  0  0  0  0  0  0  0  0  0
    0.4020   18.3790  -30.8020 C   0  0  0  0  0  0  0  0  0  0  0  0
    0.2740   17.8380  -29.5210 C   0  0  0  0  0  0  0  0  0  0  0  0
   -0.3670   18.5650  -28.5190 C   0  0  0  0  0  0  0  0  0  0  0  0
   -0.9080   19.8220  -28.8000 C   0  0  0  0  0  0  0  0  0  0  0  0
   -0.8060   20.3740  -30.0890 C   0  0  0  0  0  0  0  0  0  0  0  0
   -1.3970   21.7070  -30.3570 C   0  0  0  0  0  0  0  0  0  0  0  0
   -1.0510   22.3530  -31.3860 O   0  0  0  0  0  0  0  0  0  0  0  0
   -2.3610   22.2500  -29.4380 N   0  0  0  0  0  0  0  0  0  0  0  0
   -2.1690   23.2020  -28.5700 C   0  0  0  0  0  0  0  0  0  0  0  0
   -3.2290   23.5960  -27.7470 C   0  0  0  0  0  0  0  0  0  0  0  0
   -3.0360   24.6250  -26.8240 C   0  0  0  0  0  0  0  0  0  0  0  0
   -1.7930   25.2520  -26.7330 C   0  0  0  0  0  0  0  0  0  0  0  0
   -1.5460   26.5620  -25.5950 Cl  0  0  0  0  0  0  0  0  0  0  0  0
   -0.7540   24.8310  -27.5660 C   0  0  0  0  0  0  0  0  0  0  0  0
   -0.9630   23.8280  -28.4570 N   0  0  0  0  0  0  0  0  0  0  0  0
   -2.0390   19.4340  -33.4650 C   0  0  0  0  0  0  0  0  0  0  0  0
   -1.7310   18.1030  -33.7970 C   0  0  0  0  0  0  0  0  0  0  0  0
   -2.7250   17.1250  -33.8180 C   0  0  0  0  0  0  0  0  0  0  0  0
   -4.0390   17.4580  -33.4960 C   0  0  0  0  0  0  0  0  0  0  0  0
   -4.3630   18.7690  -33.1490 C   0  0  0  0  0  0  0  0  0  0  0  0
   -3.3770   19.7760  -33.1270 C   0  0  0  0  0  0  0  0  0  0  0  0
   -3.7800   21.1640  -32.6610 C   0  0  0  0  0  0  0  0  0  0  0  0
   -5.2490   21.2590  -32.2130 C   0  0  0  0  0  0  0  0  0  0  0  0
   -5.5350   22.5060  -31.4150 C   0  0  0  0  0  0  0  0  0  0  0  0
   -6.7860   22.6830  -30.8030 C   0  0  0  0  0  0  0  0  0  0  0  0
   -7.0570   23.8460  -30.0770 C   0  0  0  0  0  0  0  0  0  0  0  0
   -6.0880   24.8460  -29.9580 C   0  0  0  0  0  0  0  0  0  0  0  0
   -6.3820   25.9930  -29.2220 O   0  0  0  0  0  0  0  0  0  0  0  0
   -4.8380   24.6790  -30.5760 C   0  0  0  0  0  0  0  0  0  0  0  0
   -3.8630   25.6630  -30.4720 O   0  0  0  0  0  0  0  0  0  0  0  0
   -4.5650   23.5140  -31.3010 C   0  0  0  0  0  0  0  0  0  0  0  0
    0.9090   17.8028  -31.5900 H   0  0  0  0  0  0  0  0  0  0  0  0
    0.6787   16.8387  -29.3027 H   0  0  0  0  0  0  0  0  0  0  0  0
   -0.4470   18.1478  -27.5043 H   0  0  0  0  0  0  0  0  0  0  0  0
   -1.4187   20.3853  -28.0051 H   0  0  0  0  0  0  0  0  0  0  0  0
   -4.2070   23.0988  -27.8265 H   0  0  0  0  0  0  0  0  0  0  0  0
   -3.8620   24.9409  -26.1698 H   0  0  0  0  0  0  0  0  0  0  0  0
    0.2332   25.3118  -27.5003 H   0  0  0  0  0  0  0  0  0  0  0  0
   -0.6942   17.8299  -34.0430 H   0  0  0  0  0  0  0  0  0  0  0  0
   -2.4713   16.0896  -34.0891 H   0  0  0  0  0  0  0  0  0  0  0  0
   -4.8219   16.6856  -33.5156 H   0  0  0  0  0  0  0  0  0  0  0  0
   -5.4018   19.0207  -32.8890 H   0  0  0  0  0  0  0  0  0  0  0  0
   -3.1386   21.4465  -31.8132 H   0  0  0  0  0  0  0  0  0  0  0  0
   -3.6593   21.8411  -33.5195 H   0  0  0  0  0  0  0  0  0  0  0  0
   -5.8901   21.2585  -33.1068 H   0  0  0  0  0  0  0  0  0  0  0  0
   -5.4548   20.3950  -31.5640 H   0  0  0  0  0  0  0  0  0  0  0  0
   -7.5561   21.9030  -30.8953 H   0  0  0  0  0  0  0  0  0  0  0  0
   -8.0382   23.9750  -29.5967 H   0  0  0  0  0  0  0  0  0  0  0  0
   -5.6650   26.6580  -28.9570 H   0  0  0  0  0  0  0  0  0  0  0  0
   -3.5850   23.3874  -31.7842 H   0  0  0  0  0  0  0  0  0  0  0  0
  1  2  2  0
  2  3  1  0
  3  4  1  0
  4  5  2  0
  5  6  1  0
  6  7  2  0
  7  8  1  0
  8  9  2  0
  9 10  1  0
 10 11  2  0
 10 12  1  0
 12 13  2  3
 13 14  1  0
 14 15  2  0
 15 16  1  0
 16 17  1  0
 16 18  2  0
 18 19  1  0
  2 20  1  0
 20 21  2  0
 21 22  1  0
 22 23  2  0
 23 24  1  0
 24 25  2  0
 25 26  1  0
 26 27  1  0
 27 28  1  0
 28 29  2  0
 29 30  1  0
 30 31  2  0
 31 32  1  0
 31 33  1  0
 33 34  1  0
 33 35  2  0
  9  4  1  0
 19 13  1  0
 25 20  1  0
 35 28  1  0
  5 36  1  0
  6 37  1  0
  7 38  1  0
  8 39  1  0
 14 40  1  0
 15 41  1  0
 18 42  1  0
 21 43  1  0
 22 44  1  0
 23 45  1  0
 24 46  1  0
 26 47  1  0
 26 48  1  0
 27 49  1  0
 27 50  1  0
 29 51  1  0
 30 52  1  0
 32 53  1  0
 35 54  1  0
M  CHG  3   3  -1  19  -1  34  -1
M  END
>  <UniqueID>  (2) 
2

>  <SMILES>  (2) 
O=C([N-]c1ccccc1C(=O)N=c1ccc(Cl)c[n-]1)c1ccccc1CCc1ccc(O)c([O-])c1

>  <Energy>  (2) 
71.41342371506211

>  <Genealogy>  (2) 
O=C([N-]c1ccccc1C(=O)N=c1ccc(Cl)c[n-]1)c1ccccc1CCc1ccc(O)c([O-])c1 (protonated)
O=C([N-]c1ccccc1C(=O)N=c1ccc(Cl)c[n-]1)c1ccccc1CCc1ccc(O)c([O-])c1 (3D coordinates assigned)
O=C([N-]c1ccccc1C(=O)N=c1ccc(Cl)c[n-]1)c1ccccc1CCc1ccc(O)c([O-])c1 (optimized conformer: 71.41342371506211 kcal/mol)

>  <smiles>  (2) 
O=C(Nc1ccccc1C(=O)N=c1ccc(Cl)c[nH]1)c1ccccc1CCc1ccc(O)c(O)c1

>  <score_type>  (2) 
oracle

>  <origin>  (2) 
adgpu

>  <m_score__min__energy>  (2) 
-13.029999999999999

>  <m_primary>  (2) 
energy

$$$$
2:0
     RDKit          3D

 29 30  0  0  0  0  0  0  0  0999 V2000
   -7.9558   24.3956  -31.2954 H   0  0  0  0  0  0  0  0  0  0  0  0
   -7.0490   23.8570  -30.9830 C   0  0  0  0  0  0  0  0  0  0  0  0
   -6.3160   24.3900  -30.0460 N   0  0  0  0  0  0  0  0  0  0  0  0
   -5.0370   23.9300  -29.5860 C   0  0  0  0  0  0  0  0  0  0  0  0
   -4.9850   22.8610  -28.6830 C   0  0  0  0  0  0  0  0  0  0  0  0
   -5.9180   22.3957  -28.3322 H   0  0  0  0  0  0  0  0  0  0  0  0
   -3.7550   22.3820  -28.2250 C   0  0  0  0  0  0  0  0  0  0  0  0
   -3.7214   21.5305  -27.5294 H   0  0  0  0  0  0  0  0  0  0  0  0
   -2.5670   22.9840  -28.6500 C   0  0  0  0  0  0  0  0  0  0  0  0
   -1.5986   22.5996  -28.2972 H   0  0  0  0  0  0  0  0  0  0  0  0
   -2.6100   24.0740  -29.5230 C   0  0  0  0  0  0  0  0  0  0  0  0
   -1.6748   24.5516  -29.8506 H   0  0  0  0  0  0  0  0  0  0  0  0
   -3.8400   24.5600  -29.9820 C   0  0  0  0  0  0  0  0  0  0  0  0
   -3.8640   25.6750  -30.8120 O   0  0  0  0  0  0  0  0  0  0  0  0
   -6.7400   22.5720  -31.6550 C   0  0  0  0  0  0  0  0  0  0  0  0
   -7.6990   21.5500  -31.6390 C   0  0  0  0  0  0  0  0  0  0  0  0
   -8.6640   21.7134  -31.1369 H   0  0  0  0  0  0  0  0  0  0  0  0
   -7.4360   20.3230  -32.2580 C   0  0  0  0  0  0  0  0  0  0  0  0
   -8.7760   18.9590  -32.2400 Br  0  0  0  0  0  0  0  0  0  0  0  0
   -6.2030   20.1060  -32.8870 C   0  0  0  0  0  0  0  0  0  0  0  0
   -5.9470   18.8890  -33.5120 O   0  0  0  0  0  0  0  0  0  0  0  0
   -5.2230   21.1070  -32.8880 C   0  0  0  0  0  0  0  0  0  0  0  0
   -4.0010   20.8490  -33.5290 O   0  0  0  0  0  0  0  0  0  0  0  0
   -3.1220   19.7830  -33.1870 C   0  0  0  0  0  0  0  0  0  0  0  0
   -3.0541   19.7007  -32.0922 H   0  0  0  0  0  0  0  0  0  0  0  0
   -3.5092   18.8409  -33.6023 H   0  0  0  0  0  0  0  0  0  0  0  0
   -2.1233   19.9837  -33.6023 H   0  0  0  0  0  0  0  0  0  0  0  0
   -5.4910   22.3330  -32.2510 C   0  0  0  0  0  0  0  0  0  0  0  0
   -4.7146   23.1116  -32.2196 H   0  0  0  0  0  0  0  0  0  0  0  0
  1  2  1  0
  2  3  2  0
  3  4  1  0
  4  5  2  0
  5  6  1  0
  5  7  1  0
  7  8  1  0
  7  9  2  0
  9 10  1  0
  9 11  1  0
 11 12  1  0
 11 13  2  0
 13 14  1  0
  2 15  1  0
 15 16  2  0
 16 17  1  0
 16 18  1  0
 18 19  1  0
 18 20  2  0
 20 21  1  0
 20 22  1  0
 22 23  1  0
 23 24  1  0
 24 25  1  0
 24 26  1  0
 24 27  1  0
 22 28  2  0
 28 29  1  0
 13  4  1  0
 28 15  1  0
M  CHG  2  14  -1  21  -1
M  END
>  <UniqueID>  (3) 
3

>  <SMILES>  (3) 
COc1cc(/C=N\c2ccccc2[O-])cc(Br)c1[O-]

>  <Energy>  (3) 
41.51273833255177

>  <Genealogy>  (3) 
COc1cc(C=Nc2ccccc2[O-])cc(Br)c1[O-] (protonated)
COc1cc(/C=N\c2ccccc2[O-])cc(Br)c1[O-] (cis-trans isomerization)
COc1cc(/C=N\c2ccccc2[O-])cc(Br)c1[O-] (3D coordinates assigned)
COc1cc(/C=N\c2ccccc2[O-])cc(Br)c1[O-] (optimized conformer: 41.51273833255177 kcal/mol)

>  <smiles>  (3) 
COc1cc(C=Nc2ccccc2O)cc(Br)c1O

>  <score_type>  (3) 
oracle

>  <origin>  (3) 
adgpu

>  <m_score__min__energy>  (3) 
-10.1

>  <m_primary>  (3) 
energy

$$$$
3:0
     RDKit          3D

 65 68  0  0  0  0  0  0  0  0999 V2000
    4.1430   20.3310  -28.2150 C   0  0  0  0  0  0  0  0  0  0  0  0
    2.7320   20.2210  -28.0610 O   0  0  0  0  0  0  0  0  0  0  0  0
    2.0430   19.0140  -27.8520 C   0  0  0  0  0  0  0  0  0  0  0  0
    2.7090   17.8250  -27.4880 C   0  0  0  0  0  0  0  0  0  0  0  0
    1.9920   16.6380  -27.3100 C   0  0  0  0  0  0  0  0  0  0  0  0
    0.6100   16.6210  -27.4950 C   0  0  0  0  0  0  0  0  0  0  0  0
   -0.0610   17.7930  -27.8530 C   0  0  0  0  0  0  0  0  0  0  0  0
    0.6450   18.9960  -28.0250 C   0  0  0  0  0  0  0  0  0  0  0  0
   -0.0600   20.2070  -28.3570 N   0  0  0  0  0  0  0  0  0  0  0  0
   -0.4320   21.1610  -27.3100 C   0  0  0  0  0  0  0  0  0  0  0  0
   -1.7530   21.8490  -27.6810 C   0  0  0  0  0  0  0  0  0  0  0  0
   -1.6900   22.4360  -29.0460 N   0  0  0  0  0  0  0  0  0  0  0  0
   -2.9740   23.0820  -29.4070 C   0  0  0  0  0  0  0  0  0  0  0  0
   -2.8450   24.5510  -29.7080 C   0  0  0  0  0  0  0  0  0  0  0  0
   -1.9010   25.2030  -29.1900 O   0  0  0  0  0  0  0  0  0  0  0  0
   -3.8480   25.2270  -30.4760 N   0  0  0  0  0  0  0  0  0  0  0  0
   -5.2350   24.7730  -30.6500 C   0  0  0  0  0  0  0  0  0  0  0  0
   -5.7930   24.0760  -29.3850 C   0  0  0  0  0  0  0  0  0  0  0  0
   -6.9790   23.1680  -29.7600 C   0  0  0  0  0  0  0  0  0  0  0  0
   -6.5780   22.0630  -30.6770 N   0  0  0  0  0  0  0  0  0  0  0  0
   -7.7340   21.5570  -31.4520 C   0  0  0  0  0  0  0  0  0  0  0  0
   -7.4170   20.2330  -32.1020 C   0  0  0  0  0  0  0  0  0  0  0  0
   -6.6020   20.1910  -33.2450 C   0  0  0  0  0  0  0  0  0  0  0  0
   -6.2930   18.9640  -33.8470 C   0  0  0  0  0  0  0  0  0  0  0  0
   -6.7870   17.7750  -33.3060 C   0  0  0  0  0  0  0  0  0  0  0  0
   -7.5850   17.8080  -32.1580 C   0  0  0  0  0  0  0  0  0  0  0  0
   -7.9010   19.0330  -31.5560 C   0  0  0  0  0  0  0  0  0  0  0  0
   -5.4320   22.4000  -31.5670 C   0  0  0  0  0  0  0  0  0  0  0  0
   -5.3730   23.8950  -31.9210 C   0  0  0  0  0  0  0  0  0  0  0  0
   -1.3830   21.3860  -30.0500 C   0  0  0  0  0  0  0  0  0  0  0  0
   -0.0540   20.6930  -29.7400 C   0  0  0  0  0  0  0  0  0  0  0  0
    4.6183   20.3680  -27.2237 H   0  0  0  0  0  0  0  0  0  0  0  0
    4.5203   19.4595  -28.7702 H   0  0  0  0  0  0  0  0  0  0  0  0
    4.3807   21.2504  -28.7702 H   0  0  0  0  0  0  0  0  0  0  0  0
    3.7994   17.8317  -27.3433 H   0  0  0  0  0  0  0  0  0  0  0  0
    2.5190   15.7159  -27.0235 H   0  0  0  0  0  0  0  0  0  0  0  0
    0.0482   15.6851  -27.3591 H   0  0  0  0  0  0  0  0  0  0  0  0
   -1.1508   17.7740  -28.0015 H   0  0  0  0  0  0  0  0  0  0  0  0
   -0.5533   20.6274  -26.3558 H   0  0  0  0  0  0  0  0  0  0  0  0
    0.3583   21.9198  -27.2117 H   0  0  0  0  0  0  0  0  0  0  0  0
   -2.5653   21.1081  -27.6464 H   0  0  0  0  0  0  0  0  0  0  0  0
   -1.9366   22.6605  -26.9615 H   0  0  0  0  0  0  0  0  0  0  0  0
   -0.9280   23.1560  -29.0840 H   0  0  0  0  0  0  0  0  0  0  0  0
   -3.3784   22.5786  -30.2975 H   0  0  0  0  0  0  0  0  0  0  0  0
   -3.6388   22.9881  -28.5357 H   0  0  0  0  0  0  0  0  0  0  0  0
   -5.8595   25.6666  -30.7964 H   0  0  0  0  0  0  0  0  0  0  0  0
   -5.0002   23.4675  -28.9254 H   0  0  0  0  0  0  0  0  0  0  0  0
   -6.1369   24.8419  -28.6743 H   0  0  0  0  0  0  0  0  0  0  0  0
   -7.3946   22.7310  -28.8401 H   0  0  0  0  0  0  0  0  0  0  0  0
   -7.7235   23.7860  -30.2833 H   0  0  0  0  0  0  0  0  0  0  0  0
   -8.5913   21.4283  -30.7749 H   0  0  0  0  0  0  0  0  0  0  0  0
   -7.9698   22.2854  -32.2418 H   0  0  0  0  0  0  0  0  0  0  0  0
   -6.2047   21.1249  -33.6693 H   0  0  0  0  0  0  0  0  0  0  0  0
   -5.6606   18.9372  -34.7467 H   0  0  0  0  0  0  0  0  0  0  0  0
   -6.5485   16.8128  -33.7827 H   0  0  0  0  0  0  0  0  0  0  0  0
   -7.9654   16.8702  -31.7268 H   0  0  0  0  0  0  0  0  0  0  0  0
   -8.5296   19.0549  -30.6536 H   0  0  0  0  0  0  0  0  0  0  0  0
   -4.4976   22.1222  -31.0574 H   0  0  0  0  0  0  0  0  0  0  0  0
   -5.5660   21.8422  -32.5055 H   0  0  0  0  0  0  0  0  0  0  0  0
   -4.5070   24.0739  -32.5752 H   0  0  0  0  0  0  0  0  0  0  0  0
   -6.3096   24.1673  -32.4296 H   0  0  0  0  0  0  0  0  0  0  0  0
   -2.1883   20.6367  -30.0428 H   0  0  0  0  0  0  0  0  0  0  0  0
   -1.3043   21.8625  -31.0383 H   0  0  0  0  0  0  0  0  0  0  0  0
    0.0839   19.8436  -30.4253 H   0  0  0  0  0  0  0  0  0  0  0  0
    0.7696   21.4105  -29.8700 H   0  0  0  0  0  0  0  0  0  0  0  0
  1  2  1  0
  2  3  1  0
  3  4  2  0
  4  5  1  0
  5  6  2  0
  6  7  1  0
  7  8  2  0
  8  9  1  0
  9 10  1  0
 10 11  1  0
 11 12  1  0
 12 13  1  0
 13 14  1  0
 14 15  2  0
 14 16  1  0
 16 17  1  0
 17 18  1  0
 18 19  1  0
 19 20  1  0
 20 21  1  0
 21 22  1  0
 22 23  2  0
 23 24  1  0
 24 25  2  0
 25 26  1  0
 26 27  2  0
 20 28  1  0
 28 29  1  0
 12 30  1  0
 30 31  1  0
  8  3  1  0
 31  9  1  0
 29 17  1  0
 27 22  1  0
  1 32  1  0
  1 33  1  0
  1 34  1  0
  4 35  1  0
  5 36  1  0
  6 37  1  0
  7 38  1  0
 10 39  1  0
 10 40  1  0
 11 41  1  0
 11 42  1  0
 12 43  1  0
 13 44  1  0
 13 45  1  0
 17 46  1  0
 18 47  1  0
 18 48  1  0
 19 49  1  0
 19 50  1  0
 21 51  1  0
 21 52  1  0
 23 53  1  0
 24 54  1  0
 25 55  1  0
 26 56  1  0
 27 57  1  0
 28 58  1  0
 28 59  1  0
 29 60  1  0
 29 61  1  0
 30 62  1  0
 30 63  1  0
 31 64  1  0
 31 65  1  0
M  CHG  2  12   1  16  -1
M  END
>  <UniqueID>  (4) 
4

>  <SMILES>  (4) 
COc1ccccc1N1CC[NH+](CC(=O)[N-]C2CCN(Cc3ccccc3)CC2)CC1

>  <Energy>  (4) 
85.80036164268795

>  <Genealogy>  (4) 
COc1ccccc1N1CC[NH+](CC(=O)[N-]C2CCN(Cc3ccccc3)CC2)CC1 (protonated)
COc1ccccc1N1CC[NH+](CC(=O)[N-]C2CCN(Cc3ccccc3)CC2)CC1 (3D coordinates assigned)
COc1ccccc1N1CC[NH+](CC(=O)[N-]C2CCN(Cc3ccccc3)CC2)CC1 (nonaromatic ring conformer: 85.80036164268795 kcal/mol)

>  <smiles>  (4) 
COc1ccccc1N1CCN(CC(=O)NC2CCN(Cc3ccccc3)CC2)CC1

>  <score_type>  (4) 
oracle

>  <origin>  (4) 
adgpu

>  <m_score__min__energy>  (4) 
-10.15

>  <m_primary>  (4) 
energy

$$$$
4:0
     RDKit          3D

 52 54  0  0  0  0  0  0  0  0999 V2000
   -1.5690   21.5890  -26.7530 C   0  0  0  0  0  0  0  0  0  0  0  0
   -2.1260   22.5940  -27.7290 C   0  0  0  0  0  0  0  0  0  0  0  0
   -3.3090   22.2780  -28.4130 C   0  0  0  0  0  0  0  0  0  0  0  0
   -3.8630   23.1690  -29.3280 C   0  0  0  0  0  0  0  0  0  0  0  0
   -3.2440   24.3900  -29.5920 C   0  0  0  0  0  0  0  0  0  0  0  0
   -3.8630   25.2800  -30.5300 N   0  0  0  0  0  0  0  0  0  0  0  0
   -5.2620   25.3260  -30.8280 C   0  0  0  0  0  0  0  0  0  0  0  0
   -6.0490   25.9840  -30.0940 O   0  0  0  0  0  0  0  0  0  0  0  0
   -5.7520   24.6080  -31.9660 N   0  0  0  0  0  0  0  0  0  0  0  0
   -5.9870   23.1950  -32.0500 C   0  0  0  0  0  0  0  0  0  0  0  0
   -7.2690   22.7090  -31.7630 C   0  0  0  0  0  0  0  0  0  0  0  0
   -7.5370   21.3390  -31.8130 C   0  0  0  0  0  0  0  0  0  0  0  0
   -6.5190   20.4340  -32.1400 C   0  0  0  0  0  0  0  0  0  0  0  0
   -6.8640   18.7060  -32.1740 S   0  0  0  0  0  0  0  0  0  0  0  0
   -6.1130   18.0450  -31.0530 O   0  0  0  0  0  0  0  0  0  0  0  0
   -8.3360   18.4720  -31.9670 O   0  0  0  0  0  0  0  0  0  0  0  0
   -6.3580   18.0310  -33.7030 N   0  0  0  0  0  0  0  0  0  0  0  0
   -6.8000   16.6340  -33.7930 C   0  0  0  0  0  0  0  0  0  0  0  0
   -4.8960   18.1030  -33.8050 C   0  0  0  0  0  0  0  0  0  0  0  0
   -5.2270   20.9100  -32.3980 C   0  0  0  0  0  0  0  0  0  0  0  0
   -4.9600   22.2820  -32.3500 C   0  0  0  0  0  0  0  0  0  0  0  0
   -2.0760   24.7440  -28.8880 C   0  0  0  0  0  0  0  0  0  0  0  0
   -1.5340   26.0130  -29.0630 O   0  0  0  0  0  0  0  0  0  0  0  0
   -1.4850   23.8360  -27.9800 C   0  0  0  0  0  0  0  0  0  0  0  0
    0.0160   24.2730  -27.1260 S   0  0  0  0  0  0  0  0  0  0  0  0
    1.0090   24.9270  -28.0450 O   0  0  0  0  0  0  0  0  0  0  0  0
    0.6490   23.0290  -26.5720 O   0  0  0  0  0  0  0  0  0  0  0  0
   -0.3500   25.3640  -25.8330 N   0  0  0  0  0  0  0  0  0  0  0  0
    0.6220   26.1730  -25.1160 C   0  0  0  0  0  0  0  0  0  0  0  0
   -0.2120   27.0590  -24.1600 C   0  0  0  0  0  0  0  0  0  0  0  0
   -1.6170   26.7650  -24.4330 N   0  0  0  0  0  0  0  0  0  0  0  0
   -1.6370   25.7610  -25.4240 C   0  0  0  0  0  0  0  0  0  0  0  0
   -2.7010   25.2820  -25.8970 O   0  0  0  0  0  0  0  0  0  0  0  0
   -1.7590   21.9318  -25.7252 H   0  0  0  0  0  0  0  0  0  0  0  0
   -2.0564   20.6156  -26.9108 H   0  0  0  0  0  0  0  0  0  0  0  0
   -0.4852   21.4863  -26.9108 H   0  0  0  0  0  0  0  0  0  0  0  0
   -3.8050   21.3145  -28.2242 H   0  0  0  0  0  0  0  0  0  0  0  0
   -4.7969   22.9075  -29.8470 H   0  0  0  0  0  0  0  0  0  0  0  0
   -8.0716   23.4122  -31.4960 H   0  0  0  0  0  0  0  0  0  0  0  0
   -8.5500   20.9699  -31.5950 H   0  0  0  0  0  0  0  0  0  0  0  0
   -6.9296   16.2245  -32.7803 H   0  0  0  0  0  0  0  0  0  0  0  0
   -7.7571   16.5863  -34.3330 H   0  0  0  0  0  0  0  0  0  0  0  0
   -6.0445   16.0445  -34.3330 H   0  0  0  0  0  0  0  0  0  0  0  0
   -4.4587   18.1245  -32.7959 H   0  0  0  0  0  0  0  0  0  0  0  0
   -4.5225   17.2222  -34.3478 H   0  0  0  0  0  0  0  0  0  0  0  0
   -4.6108   19.0163  -34.3478 H   0  0  0  0  0  0  0  0  0  0  0  0
   -4.4200   20.2025  -32.6391 H   0  0  0  0  0  0  0  0  0  0  0  0
   -3.9420   22.6488  -32.5478 H   0  0  0  0  0  0  0  0  0  0  0  0
    1.3108   25.5326  -24.5456 H   0  0  0  0  0  0  0  0  0  0  0  0
    1.2396   26.7744  -25.7993 H   0  0  0  0  0  0  0  0  0  0  0  0
    0.0291   26.8192  -23.1139 H   0  0  0  0  0  0  0  0  0  0  0  0
    0.0067   28.1255  -24.3174 H   0  0  0  0  0  0  0  0  0  0  0  0
  1  2  1  0
  2  3  2  0
  3  4  1  0
  4  5  2  0
  5  6  1  0
  6  7  1  0
  7  8  2  0
  7  9  1  0
  9 10  1  0
 10 11  2  0
 11 12  1  0
 12 13  2  0
 13 14  1  0
 14 15  2  0
 14 16  2  0
 14 17  1  0
 17 18  1  0
 17 19  1  0
 13 20  1  0
 20 21  2  0
  5 22  1  0
 22 23  1  0
 22 24  2  0
 24 25  1  0
 25 26  2  0
 25 27  2  0
 25 28  1  0
 28 29  1  0
 29 30  1  0
 30 31  1  0
 31 32  1  0
 32 33  2  0
 24  2  1  0
 32 28  1  0
 21 10  1  0
  1 34  1  0
  1 35  1  0
  1 36  1  0
  3 37  1  0
  4 38  1  0
 11 39  1  0
 12 40  1  0
 18 41  1  0
 18 42  1  0
 18 43  1  0
 19 44  1  0
 19 45  1  0
 19 46  1  0
 20 47  1  0
 21 48  1  0
 29 49  1  0
 29 50  1  0
 30 51  1  0
 30 52  1  0
M  CHG  4   6  -1   9  -1  23  -1  31  -1
M  END
>  <UniqueID>  (5) 
5

>  <SMILES>  (5) 
Cc1ccc([N-]C(=O)[N-]c2ccc(S(=O)(=O)N(C)C)cc2)c([O-])c1S(=O)(=O)N1CC[N-]C1=O

>  <Energy>  (5) 
78.49621856508034

>  <Genealogy>  (5) 
Cc1ccc([N-]C(=O)[N-]c2ccc(S(=O)(=O)N(C)C)cc2)c([O-])c1S(=O)(=O)N1CC[N-]C1=O (protonated)
Cc1ccc([N-]C(=O)[N-]c2ccc(S(=O)(=O)N(C)C)cc2)c([O-])c1S(=O)(=O)N1CC[N-]C1=O (3D coordinates assigned)
Cc1ccc([N-]C(=O)[N-]c2ccc(S(=O)(=O)N(C)C)cc2)c([O-])c1S(=O)(=O)N1CC[N-]C1=O (nonaromatic ring conformer: 78.49621856508034 kcal/mol)

>  <smiles>  (5) 
Cc1ccc(NC(=O)Nc2ccc(S(=O)(=O)N(C)C)cc2)c(O)c1S(=O)(=O)N1CCNC1=O

>  <score_type>  (5) 
oracle

>  <origin>  (5) 
adgpu

>  <m_score__min__energy>  (5) 
-16.050000000000001

>  <m_primary>  (5) 
energy

$$$$
5:0
     RDKit          3D

 57 60  0  0  0  0  0  0  0  0999 V2000
   -2.6320   22.9440  -28.2880 O   0  0  0  0  0  0  0  0  0  0  0  0
   -3.2160   22.4630  -29.2950 C   0  0  0  0  0  0  0  0  0  0  0  0
   -2.7150   21.2480  -29.8650 N   0  0  0  0  0  0  0  0  0  0  0  0
   -1.9350   21.1610  -31.0650 C   0  0  0  0  0  0  0  0  0  0  0  0
   -0.5300   21.1550  -31.0270 C   0  0  0  0  0  0  0  0  0  0  0  0
    0.2060   21.1620  -32.2150 C   0  0  0  0  0  0  0  0  0  0  0  0
   -0.4500   21.1580  -33.4530 C   0  0  0  0  0  0  0  0  0  0  0  0
    0.4800   21.1980  -34.9520 S   0  0  0  0  0  0  0  0  0  0  0  0
    1.2930   22.4620  -34.9820 O   0  0  0  0  0  0  0  0  0  0  0  0
   -0.4640   21.2340  -36.1200 O   0  0  0  0  0  0  0  0  0  0  0  0
    1.5410   19.8150  -35.1250 N   0  0  0  0  0  0  0  0  0  0  0  0
    0.8370   18.6350  -35.6610 C   0  0  0  0  0  0  0  0  0  0  0  0
    0.0820   17.8330  -34.5720 C   0  0  0  0  0  0  0  0  0  0  0  0
    0.4250   18.2100  -33.2520 O   0  0  0  0  0  0  0  0  0  0  0  0
    1.8250   18.3130  -33.1340 C   0  0  0  0  0  0  0  0  0  0  0  0
    2.3330   19.5350  -33.9080 C   0  0  0  0  0  0  0  0  0  0  0  0
   -1.8520   21.1580  -33.4900 C   0  0  0  0  0  0  0  0  0  0  0  0
   -2.5880   21.1710  -32.3020 C   0  0  0  0  0  0  0  0  0  0  0  0
   -4.3440   23.1980  -29.9120 C   0  0  0  0  0  0  0  0  0  0  0  0
   -5.5110   22.5020  -30.2770 C   0  0  0  0  0  0  0  0  0  0  0  0
   -6.5470   23.1560  -30.9590 C   0  0  0  0  0  0  0  0  0  0  0  0
   -7.9540   22.2480  -31.5140 S   0  0  0  0  0  0  0  0  0  0  0  0
   -8.5220   21.4640  -30.3630 O   0  0  0  0  0  0  0  0  0  0  0  0
   -9.0010   23.2280  -31.9710 O   0  0  0  0  0  0  0  0  0  0  0  0
   -7.5410   21.1870  -32.8460 N   0  0  0  0  0  0  0  0  0  0  0  0
   -6.1530   20.7000  -32.7530 C   0  0  0  0  0  0  0  0  0  0  0  0
   -5.9770   19.6280  -31.6520 C   0  0  0  0  0  0  0  0  0  0  0  0
   -7.1950   19.0310  -31.2400 O   0  0  0  0  0  0  0  0  0  0  0  0
   -8.0090   18.7630  -32.3590 C   0  0  0  0  0  0  0  0  0  0  0  0
   -8.5130   20.0780  -32.9820 C   0  0  0  0  0  0  0  0  0  0  0  0
   -6.4320   24.5220  -31.2460 C   0  0  0  0  0  0  0  0  0  0  0  0
   -5.2900   25.2270  -30.8610 C   0  0  0  0  0  0  0  0  0  0  0  0
   -4.2430   24.5730  -30.2060 C   0  0  0  0  0  0  0  0  0  0  0  0
   -3.1130   25.2970  -29.8410 O   0  0  0  0  0  0  0  0  0  0  0  0
   -0.0079   21.1448  -30.0588 H   0  0  0  0  0  0  0  0  0  0  0  0
    1.3053   21.1707  -32.1779 H   0  0  0  0  0  0  0  0  0  0  0  0
    0.1102   18.9729  -36.4143 H   0  0  0  0  0  0  0  0  0  0  0  0
    1.5968   17.9673  -36.0933 H   0  0  0  0  0  0  0  0  0  0  0  0
   -0.9979   17.9910  -34.7095 H   0  0  0  0  0  0  0  0  0  0  0  0
    0.3685   16.7777  -34.6912 H   0  0  0  0  0  0  0  0  0  0  0  0
    2.0934   18.4179  -32.0724 H   0  0  0  0  0  0  0  0  0  0  0  0
    2.2880   17.4063  -33.5506 H   0  0  0  0  0  0  0  0  0  0  0  0
    2.2847   20.4136  -33.2479 H   0  0  0  0  0  0  0  0  0  0  0  0
    3.3633   19.3189  -34.2270 H   0  0  0  0  0  0  0  0  0  0  0  0
   -2.3744   21.1477  -34.4580 H   0  0  0  0  0  0  0  0  0  0  0  0
   -3.6872   21.1892  -32.3399 H   0  0  0  0  0  0  0  0  0  0  0  0
   -5.6115   21.4359  -30.0253 H   0  0  0  0  0  0  0  0  0  0  0  0
   -5.8664   20.2628  -33.7208 H   0  0  0  0  0  0  0  0  0  0  0  0
   -5.5137   21.5564  -32.4926 H   0  0  0  0  0  0  0  0  0  0  0  0
   -5.3160   18.8382  -32.0384 H   0  0  0  0  0  0  0  0  0  0  0  0
   -5.5535   20.1357  -30.7728 H   0  0  0  0  0  0  0  0  0  0  0  0
   -7.4250   18.2075  -33.1076 H   0  0  0  0  0  0  0  0  0  0  0  0
   -8.8745   18.1657  -32.0364 H   0  0  0  0  0  0  0  0  0  0  0  0
   -8.7059   19.9089  -34.0517 H   0  0  0  0  0  0  0  0  0  0  0  0
   -9.4267   20.3706  -32.4439 H   0  0  0  0  0  0  0  0  0  0  0  0
   -7.2439   25.0411  -31.7764 H   0  0  0  0  0  0  0  0  0  0  0  0
   -5.2140   26.3034  -31.0745 H   0  0  0  0  0  0  0  0  0  0  0  0
  1  2  2  0
  2  3  1  0
  3  4  1  0
  4  5  2  0
  5  6  1  0
  6  7  2  0
  7  8  1  0
  8  9  2  0
  8 10  2  0
  8 11  1  0
 11 12  1  0
 12 13  1  0
 13 14  1  0
 14 15  1  0
 15 16  1  0
  7 17  1  0
 17 18  2  0
  2 19  1  0
 19 20  2  0
 20 21  1  0
 21 22  1  0
 22 23  2  0
 22 24  2  0
 22 25  1  0
 25 26  1  0
 26 27  1  0
 27 28  1  0
 28 29  1  0
 29 30  1  0
 21 31  2  0
 31 32  1  0
 32 33  2  0
 33 34  1  0
 18  4  1  0
 33 19  1  0
 16 11  1  0
 30 25  1  0
  5 35  1  0
  6 36  1  0
 12 37  1  0
 12 38  1  0
 13 39  1  0
 13 40  1  0
 15 41  1  0
 15 42  1  0
 16 43  1  0
 16 44  1  0
 17 45  1  0
 18 46  1  0
 20 47  1  0
 26 48  1  0
 26 49  1  0
 27 50  1  0
 27 51  1  0
 29 52  1  0
 29 53  1  0
 30 54  1  0
 30 55  1  0
 31 56  1  0
 32 57  1  0
M  CHG  2   3  -1  34  -1
M  END
>  <UniqueID>  (6) 
6

>  <SMILES>  (6) 
O=C([N-]c1ccc(S(=O)(=O)N2CCOCC2)cc1)c1cc(S(=O)(=O)N2CCOCC2)ccc1[O-]

>  <Energy>  (6) 
86.47938490658595

>  <Genealogy>  (6) 
O=C([N-]c1ccc(S(=O)(=O)N2CCOCC2)cc1)c1cc(S(=O)(=O)N2CCOCC2)ccc1[O-] (protonated)
O=C([N-]c1ccc(S(=O)(=O)N2CCOCC2)cc1)c1cc(S(=O)(=O)N2CCOCC2)ccc1[O-] (3D coordinates assigned)
O=C([N-]c1ccc(S(=O)(=O)N2CCOCC2)cc1)c1cc(S(=O)(=O)N2CCOCC2)ccc1[O-] (nonaromatic ring conformer: 86.47938490658595 kcal/mol)

>  <smiles>  (6) 
O=C(Nc1ccc(S(=O)(=O)N2CCOCC2)cc1)c1cc(S(=O)(=O)N2CCOCC2)ccc1O

>  <score_type>  (6) 
oracle

>  <origin>  (6) 
adgpu

>  <m_score__min__energy>  (6) 
-13.66

>  <m_primary>  (6) 
energy

$$$$
6:0
     RDKit          3D

 44 46  0  0  0  0  0  0  0  0999 V2000
   -9.4240   20.1890  -32.3730 C   0  0  0  0  0  0  0  0  0  0  0  0
   -7.9640   19.8490  -32.3850 C   0  0  0  0  0  0  0  0  0  0  0  0
   -7.5480   18.5530  -32.7220 C   0  0  0  0  0  0  0  0  0  0  0  0
   -6.1870   18.2110  -32.6940 C   0  0  0  0  0  0  0  0  0  0  0  0
   -5.7460   16.8360  -33.1030 C   0  0  0  0  0  0  0  0  0  0  0  0
   -5.2380   19.1830  -32.3430 C   0  0  0  0  0  0  0  0  0  0  0  0
   -5.6460   20.4780  -31.9930 C   0  0  0  0  0  0  0  0  0  0  0  0
   -4.4410   21.6820  -31.5400 S   0  0  0  0  0  0  0  0  0  0  0  0
   -4.8630   23.0520  -31.9920 O   0  0  0  0  0  0  0  0  0  0  0  0
   -4.3230   21.7000  -30.0420 O   0  0  0  0  0  0  0  0  0  0  0  0
   -2.8760   21.2850  -32.2730 C   0  0  0  0  0  0  0  0  0  0  0  0
   -2.8740   20.7480  -33.5720 C   0  0  0  0  0  0  0  0  0  0  0  0
   -1.6820   20.3580  -34.1820 C   0  0  0  0  0  0  0  0  0  0  0  0
   -0.4730   20.4950  -33.5040 C   0  0  0  0  0  0  0  0  0  0  0  0
   -0.4500   21.0360  -32.2190 C   0  0  0  0  0  0  0  0  0  0  0  0
   -1.6380   21.4530  -31.5900 C   0  0  0  0  0  0  0  0  0  0  0  0
   -1.5350   22.0530  -30.2400 C   0  0  0  0  0  0  0  0  0  0  0  0
   -1.3550   21.3260  -29.2260 O   0  0  0  0  0  0  0  0  0  0  0  0
   -1.6890   23.4660  -30.0810 N   0  0  0  0  0  0  0  0  0  0  0  0
   -2.4180   24.0620  -28.9700 C   0  0  0  0  0  0  0  0  0  0  0  0
   -3.7290   24.5780  -29.4600 C   0  0  0  0  0  0  0  0  0  0  0  0
   -4.9680   24.2780  -28.9290 C   0  0  0  0  0  0  0  0  0  0  0  0
   -5.8800   24.9500  -29.7150 C   0  0  0  0  0  0  0  0  0  0  0  0
   -5.1420   25.6110  -30.6770 C   0  0  0  0  0  0  0  0  0  0  0  0
   -3.8630   25.3680  -30.5010 O   0  0  0  0  0  0  0  0  0  0  0  0
   -7.0080   20.8030  -32.0010 C   0  0  0  0  0  0  0  0  0  0  0  0
   -9.7730   20.2703  -31.3330 H   0  0  0  0  0  0  0  0  0  0  0  0
   -9.5814   21.1478  -32.8886 H   0  0  0  0  0  0  0  0  0  0  0  0
   -9.9888   19.3984  -32.8886 H   0  0  0  0  0  0  0  0  0  0  0  0
   -8.2943   17.7982  -33.0107 H   0  0  0  0  0  0  0  0  0  0  0  0
   -5.5519   16.2309  -32.2051 H   0  0  0  0  0  0  0  0  0  0  0  0
   -6.5366   16.3603  -33.7018 H   0  0  0  0  0  0  0  0  0  0  0  0
   -4.8262   16.9089  -33.7018 H   0  0  0  0  0  0  0  0  0  0  0  0
   -4.1680   18.9277  -32.3424 H   0  0  0  0  0  0  0  0  0  0  0  0
   -3.8243   20.6340  -34.1141 H   0  0  0  0  0  0  0  0  0  0  0  0
   -1.6966   19.9416  -35.2000 H   0  0  0  0  0  0  0  0  0  0  0  0
    0.4646   20.1761  -33.9827 H   0  0  0  0  0  0  0  0  0  0  0  0
    0.5091   21.1382  -31.6901 H   0  0  0  0  0  0  0  0  0  0  0  0
   -2.5894   23.3021  -28.1933 H   0  0  0  0  0  0  0  0  0  0  0  0
   -1.8312   24.8905  -28.5467 H   0  0  0  0  0  0  0  0  0  0  0  0
   -5.1824   23.6373  -28.0610 H   0  0  0  0  0  0  0  0  0  0  0  0
   -6.9739   24.9580  -29.5992 H   0  0  0  0  0  0  0  0  0  0  0  0
   -5.5620   26.2456  -31.4713 H   0  0  0  0  0  0  0  0  0  0  0  0
   -7.3310   21.8119  -31.7046 H   0  0  0  0  0  0  0  0  0  0  0  0
  1  2  1  0
  2  3  2  0
  3  4  1  0
  4  5  1  0
  4  6  2  0
  6  7  1  0
  7  8  1  0
  8  9  2  0
  8 10  2  0
  8 11  1  0
 11 12  2  0
 12 13  1  0
 13 14  2  0
 14 15  1  0
 15 16  2  0
 16 17  1  0
 17 18  2  0
 17 19  1  0
 19 20  1  0
 20 21  1  0
 21 22  2  0
 22 23  1  0
 23 24  2  0
 24 25  1  0
  7 26  2  0
 26  2  1  0
 16 11  1  0
 25 21  1  0
  1 27  1  0
  1 28  1  0
  1 29  1  0
  3 30  1  0
  5 31  1  0
  5 32  1  0
  5 33  1  0
  6 34  1  0
 12 35  1  0
 13 36  1  0
 14 37  1  0
 15 38  1  0
 20 39  1  0
 20 40  1  0
 22 41  1  0
 23 42  1  0
 24 43  1  0
 26 44  1  0
M  CHG  1  19  -1
M  END
>  <UniqueID>  (7) 
7

>  <SMILES>  (7) 
Cc1cc(C)cc(S(=O)(=O)c2ccccc2C(=O)[N-]Cc2ccco2)c1

>  <Energy>  (7) 
75.01901303361079

>  <Genealogy>  (7) 
Cc1cc(C)cc(S(=O)(=O)c2ccccc2C(=O)[N-]Cc2ccco2)c1 (protonated)
Cc1cc(C)cc(S(=O)(=O)c2ccccc2C(=O)[N-]Cc2ccco2)c1 (3D coordinates assigned)
Cc1cc(C)cc(S(=O)(=O)c2ccccc2C(=O)[N-]Cc2ccco2)c1 (optimized conformer: 75.01901303361079 kcal/mol)

>  <smiles>  (7) 
Cc1cc(C)cc(S(=O)(=O)c2ccccc2C(=O)NCc2ccco2)c1

>  <score_type>  (7) 
oracle

>  <origin>  (7) 
adgpu

>  <m_score__min__energy>  (7) 
-10.75

>  <m_primary>  (7) 
energy

$$$$
7:0
     RDKit          3D

 52 55  0  0  0  0  0  0  0  0999 V2000
    0.0710   24.2580  -25.0080 C   0  0  0  0  0  0  0  0  0  0  0  0
   -0.7510   24.0080  -26.2450 C   0  0  0  0  0  0  0  0  0  0  0  0
   -1.2640   22.7190  -26.4540 C   0  0  0  0  0  0  0  0  0  0  0  0
   -2.0220   22.4270  -27.5850 C   0  0  0  0  0  0  0  0  0  0  0  0
   -2.3000   23.4200  -28.5270 C   0  0  0  0  0  0  0  0  0  0  0  0
   -3.0620   23.0770  -29.6950 N   0  0  0  0  0  0  0  0  0  0  0  0
   -4.0500   23.9420  -30.2720 C   0  0  0  0  0  0  0  0  0  0  0  0
   -4.5440   24.8800  -29.5910 O   0  0  0  0  0  0  0  0  0  0  0  0
   -4.5550   23.7020  -31.5910 N   0  0  0  0  0  0  0  0  0  0  0  0
   -4.6310   22.4240  -32.2360 C   0  0  0  0  0  0  0  0  0  0  0  0
   -3.4630   21.8630  -32.7610 C   0  0  0  0  0  0  0  0  0  0  0  0
   -3.4970   20.6130  -33.3840 C   0  0  0  0  0  0  0  0  0  0  0  0
   -4.7030   19.9010  -33.4830 C   0  0  0  0  0  0  0  0  0  0  0  0
   -5.8740   20.4350  -32.9090 C   0  0  0  0  0  0  0  0  0  0  0  0
   -5.8330   21.6980  -32.2970 C   0  0  0  0  0  0  0  0  0  0  0  0
   -7.1970   19.7140  -33.0260 C   0  0  0  0  0  0  0  0  0  0  0  0
   -7.0460   18.2680  -33.2830 N   0  0  0  0  0  0  0  0  0  0  0  0
   -6.6870   17.5260  -32.0630 C   0  0  0  0  0  0  0  0  0  0  0  0
   -6.1120   18.0140  -34.3980 C   0  0  0  0  0  0  0  0  0  0  0  0
   -4.6950   18.5320  -34.1090 C   0  0  0  0  0  0  0  0  0  0  0  0
   -1.7760   24.7140  -28.3460 C   0  0  0  0  0  0  0  0  0  0  0  0
   -1.9700   25.6690  -29.3400 O   0  0  0  0  0  0  0  0  0  0  0  0
   -1.0310   25.0310  -27.1890 C   0  0  0  0  0  0  0  0  0  0  0  0
   -0.4050   26.6870  -26.9660 S   0  0  0  0  0  0  0  0  0  0  0  0
   -0.6130   27.4730  -28.2300 O   0  0  0  0  0  0  0  0  0  0  0  0
    1.0740   26.6540  -26.7000 O   0  0  0  0  0  0  0  0  0  0  0  0
   -1.2030   27.5610  -25.6150 C   0  0  0  0  0  0  0  0  0  0  0  0
   -0.2870   28.5410  -24.8970 C   0  0  0  0  0  0  0  0  0  0  0  0
   -0.7120   27.2570  -24.2050 C   0  0  0  0  0  0  0  0  0  0  0  0
   -0.5438   24.0710  -24.1152 H   0  0  0  0  0  0  0  0  0  0  0  0
    0.9399   23.5835  -25.0027 H   0  0  0  0  0  0  0  0  0  0  0  0
    0.4172   25.3021  -25.0027 H   0  0  0  0  0  0  0  0  0  0  0  0
   -1.0649   21.9289  -25.7150 H   0  0  0  0  0  0  0  0  0  0  0  0
   -2.4046   21.4070  -27.7376 H   0  0  0  0  0  0  0  0  0  0  0  0
   -2.9960   22.0980  -30.0580 H   0  0  0  0  0  0  0  0  0  0  0  0
   -2.5114   22.4092  -32.6831 H   0  0  0  0  0  0  0  0  0  0  0  0
   -2.5732   20.1840  -33.7995 H   0  0  0  0  0  0  0  0  0  0  0  0
   -6.7494   22.1229  -31.8616 H   0  0  0  0  0  0  0  0  0  0  0  0
   -7.7527   19.8467  -32.0860 H   0  0  0  0  0  0  0  0  0  0  0  0
   -7.7322   20.1463  -33.8843 H   0  0  0  0  0  0  0  0  0  0  0  0
   -6.9719   18.1148  -31.1786 H   0  0  0  0  0  0  0  0  0  0  0  0
   -7.2190   16.5633  -32.0495 H   0  0  0  0  0  0  0  0  0  0  0  0
   -5.6020   17.3456  -32.0495 H   0  0  0  0  0  0  0  0  0  0  0  0
   -6.0616   16.9296  -34.5757 H   0  0  0  0  0  0  0  0  0  0  0  0
   -6.4907   18.5516  -35.2798 H   0  0  0  0  0  0  0  0  0  0  0  0
   -4.1958   17.8322  -33.4226 H   0  0  0  0  0  0  0  0  0  0  0  0
   -4.1613   18.6040  -35.0681 H   0  0  0  0  0  0  0  0  0  0  0  0
   -2.1976   27.5916  -26.0838 H   0  0  0  0  0  0  0  0  0  0  0  0
    0.7534   28.6668  -25.2313 H   0  0  0  0  0  0  0  0  0  0  0  0
   -0.3368   29.6112  -24.6477 H   0  0  0  0  0  0  0  0  0  0  0  0
    0.0204   26.4533  -24.0390 H   0  0  0  0  0  0  0  0  0  0  0  0
   -1.1968   27.0128  -23.2483 H   0  0  0  0  0  0  0  0  0  0  0  0
  1  2  1  0
  2  3  2  0
  3  4  1  0
  4  5  2  0
  5  6  1  0
  6  7  1  0
  7  8  2  0
  7  9  1  0
  9 10  1  0
 10 11  2  0
 11 12  1  0
 12 13  2  0
 13 14  1  0
 14 15  2  0
 14 16  1  0
 16 17  1  0
 17 18  1  0
 17 19  1  0
 19 20  1  0
  5 21  1  0
 21 22  1  0
 21 23  2  0
 23 24  1  0
 24 25  2  0
 24 26  2  0
 24 27  1  0
 27 28  1  0
 28 29  1  0
 23  2  1  0
 29 27  1  0
 15 10  1  0
 20 13  1  0
  1 30  1  0
  1 31  1  0
  1 32  1  0
  3 33  1  0
  4 34  1  0
  6 35  1  0
 11 36  1  0
 12 37  1  0
 15 38  1  0
 16 39  1  0
 16 40  1  0
 18 41  1  0
 18 42  1  0
 18 43  1  0
 19 44  1  0
 19 45  1  0
 20 46  1  0
 20 47  1  0
 27 48  1  0
 28 49  1  0
 28 50  1  0
 29 51  1  0
 29 52  1  0
M  CHG  2   9  -1  22  -1
M  END
>  <UniqueID>  (8) 
8

>  <SMILES>  (8) 
Cc1ccc(NC(=O)[N-]c2ccc3c(c2)CN(C)CC3)c([O-])c1S(=O)(=O)C1CC1

>  <Energy>  (8) 
334.0732960599963

>  <Genealogy>  (8) 
Cc1ccc(NC(=O)[N-]c2ccc3c(c2)CN(C)CC3)c([O-])c1S(=O)(=O)C1CC1 (protonated)
Cc1ccc(NC(=O)[N-]c2ccc3c(c2)CN(C)CC3)c([O-])c1S(=O)(=O)C1CC1 (3D coordinates assigned)
Cc1ccc(NC(=O)[N-]c2ccc3c(c2)CN(C)CC3)c([O-])c1S(=O)(=O)C1CC1 (nonaromatic ring conformer: 334.0732960599963 kcal/mol)

>  <smiles>  (8) 
Cc1ccc(NC(=O)Nc2ccc3c(c2)CN(C)CC3)c(O)c1S(=O)(=O)C1CC1

>  <score_type>  (8) 
oracle

>  <origin>  (8) 
adgpu

>  <m_score__min__energy>  (8) 
-14.02

>  <m_primary>  (8) 
energy

$$$$
8:0
     RDKit          3D

 53 55  0  0  0  0  0  0  0  0999 V2000
   -0.3500   19.3400  -27.8540 C   0  0  0  0  0  0  0  0  0  0  0  0
    0.8900   19.7230  -29.1280 S   0  0  0  0  0  0  0  0  0  0  0  0
   -0.3390   20.0190  -30.3940 C   0  0  0  0  0  0  0  0  0  0  0  0
   -0.8960   21.2480  -30.5210 N   0  0  0  0  0  0  0  0  0  0  0  0
   -1.8320   21.5000  -31.4690 C   0  0  0  0  0  0  0  0  0  0  0  0
   -2.3190   22.6590  -31.5550 O   0  0  0  0  0  0  0  0  0  0  0  0
   -2.2510   20.4760  -32.3420 C   0  0  0  0  0  0  0  0  0  0  0  0
   -3.3460   20.7330  -33.3610 C   0  0  0  0  0  0  0  0  0  0  0  0
   -4.6430   21.2370  -32.7100 C   0  0  0  0  0  0  0  0  0  0  0  0
   -4.7530   22.6890  -32.8130 N   0  0  0  0  0  0  0  0  0  0  0  0
   -5.3160   23.5220  -31.7920 C   0  0  0  0  0  0  0  0  0  0  0  0
   -4.8510   24.3850  -30.8040 C   0  0  0  0  0  0  0  0  0  0  0  0
   -3.5660   24.8410  -30.3650 N   0  0  0  0  0  0  0  0  0  0  0  0
   -2.8650   24.2670  -29.2490 C   0  0  0  0  0  0  0  0  0  0  0  0
   -3.2740   23.0410  -28.6970 C   0  0  0  0  0  0  0  0  0  0  0  0
   -2.5700   22.4750  -27.6340 C   0  0  0  0  0  0  0  0  0  0  0  0
   -1.4480   23.1210  -27.1130 C   0  0  0  0  0  0  0  0  0  0  0  0
   -1.0200   24.3430  -27.6510 C   0  0  0  0  0  0  0  0  0  0  0  0
    0.1790   25.0030  -27.0950 C   0  0  0  0  0  0  0  0  0  0  0  0
    1.2650   24.9320  -27.7340 O   0  0  0  0  0  0  0  0  0  0  0  0
    0.1350   25.7110  -25.8410 N   0  0  0  0  0  0  0  0  0  0  0  0
   -0.7630   25.2610  -24.7730 C   0  0  0  0  0  0  0  0  0  0  0  0
    1.0910   26.7930  -25.5990 C   0  0  0  0  0  0  0  0  0  0  0  0
   -1.7140   24.8990  -28.7430 C   0  0  0  0  0  0  0  0  0  0  0  0
   -1.2520   26.0700  -29.3370 O   0  0  0  0  0  0  0  0  0  0  0  0
   -6.1590   24.6660  -30.4480 C   0  0  0  0  0  0  0  0  0  0  0  0
   -6.7140   25.4210  -29.6080 O   0  0  0  0  0  0  0  0  0  0  0  0
   -6.6150   23.7820  -31.4020 C   0  0  0  0  0  0  0  0  0  0  0  0
   -7.7490   23.3890  -31.7780 O   0  0  0  0  0  0  0  0  0  0  0  0
   -1.6440   19.2050  -32.1970 C   0  0  0  0  0  0  0  0  0  0  0  0
   -1.9720   18.0510  -33.0980 C   0  0  0  0  0  0  0  0  0  0  0  0
   -0.7080   19.0170  -31.2290 N   0  0  0  0  0  0  0  0  0  0  0  0
    0.0942   19.4772  -26.8571 H   0  0  0  0  0  0  0  0  0  0  0  0
   -1.2121   20.0137  -27.9672 H   0  0  0  0  0  0  0  0  0  0  0  0
   -0.6820   18.2974  -27.9672 H   0  0  0  0  0  0  0  0  0  0  0  0
   -2.9924   21.4898  -34.0767 H   0  0  0  0  0  0  0  0  0  0  0  0
   -3.5698   19.7794  -33.8616 H   0  0  0  0  0  0  0  0  0  0  0  0
   -5.5027   20.7747  -33.2172 H   0  0  0  0  0  0  0  0  0  0  0  0
   -4.6289   20.9624  -31.6449 H   0  0  0  0  0  0  0  0  0  0  0  0
   -4.2680   23.1600  -33.6100 H   0  0  0  0  0  0  0  0  0  0  0  0
   -3.1660   25.6920  -30.8090 H   0  0  0  0  0  0  0  0  0  0  0  0
   -4.1549   22.5244  -29.1058 H   0  0  0  0  0  0  0  0  0  0  0  0
   -2.9000   21.5172  -27.2054 H   0  0  0  0  0  0  0  0  0  0  0  0
   -0.8963   22.6689  -26.2756 H   0  0  0  0  0  0  0  0  0  0  0  0
   -0.3122   25.4869  -23.7954 H   0  0  0  0  0  0  0  0  0  0  0  0
   -1.7277   25.7822  -24.8612 H   0  0  0  0  0  0  0  0  0  0  0  0
   -0.9229   24.1763  -24.8612 H   0  0  0  0  0  0  0  0  0  0  0  0
    1.2169   26.9355  -24.5156 H   0  0  0  0  0  0  0  0  0  0  0  0
    2.0603   26.5335  -26.0498 H   0  0  0  0  0  0  0  0  0  0  0  0
    0.7141   27.7229  -26.0498 H   0  0  0  0  0  0  0  0  0  0  0  0
   -2.2224   17.1699  -32.4889 H   0  0  0  0  0  0  0  0  0  0  0  0
   -2.8309   18.3141  -33.7328 H   0  0  0  0  0  0  0  0  0  0  0  0
   -1.1031   17.8230  -33.7328 H   0  0  0  0  0  0  0  0  0  0  0  0
  1  2  1  0
  2  3  1  0
  3  4  2  0
  4  5  1  0
  5  6  2  0
  5  7  1  0
  7  8  1  0
  8  9  1  0
  9 10  1  0
 10 11  1  0
 11 12  2  0
 12 13  1  0
 13 14  1  0
 14 15  2  0
 15 16  1  0
 16 17  2  0
 17 18  1  0
 18 19  1  0
 19 20  2  0
 19 21  1  0
 21 22  1  0
 21 23  1  0
 18 24  2  0
 24 25  1  0
 12 26  1  0
 26 27  2  0
 26 28  1  0
 28 29  2  0
  7 30  2  0
 30 31  1  0
 30 32  1  0
 32  3  1  0
 28 11  1  0
 24 14  1  0
  1 33  1  0
  1 34  1  0
  1 35  1  0
  8 36  1  0
  8 37  1  0
  9 38  1  0
  9 39  1  0
 10 40  1  0
 13 41  1  0
 15 42  1  0
 16 43  1  0
 17 44  1  0
 22 45  1  0
 22 46  1  0
 22 47  1  0
 23 48  1  0
 23 49  1  0
 23 50  1  0
 31 51  1  0
 31 52  1  0
 31 53  1  0
M  CHG  2  25  -1  32  -1
M  END
>  <UniqueID>  (9) 
9

>  <SMILES>  (9) 
CSc1nc(=O)c(CCNc2c(Nc3cccc(C(=O)N(C)C)c3[O-])c(=O)c2=O)c(C)[n-]1

>  <Energy>  (9) 
44.075863999898814

>  <Genealogy>  (9) 
CSc1nc(=O)c(CCNc2c(Nc3cccc(C(=O)N(C)C)c3[O-])c(=O)c2=O)c(C)[n-]1 (protonated)
CSc1nc(=O)c(CCNc2c(Nc3cccc(C(=O)N(C)C)c3[O-])c(=O)c2=O)c(C)[n-]1 (3D coordinates assigned)
CSc1nc(=O)c(CCNc2c(Nc3cccc(C(=O)N(C)C)c3[O-])c(=O)c2=O)c(C)[n-]1 (optimized conformer: 44.075863999898814 kcal/mol)

>  <smiles>  (9) 
CSc1nc(=O)c(CCNc2c(Nc3cccc(C(=O)N(C)C)c3O)c(=O)c2=O)c(C)[nH]1

>  <score_type>  (9) 
oracle

>  <origin>  (9) 
adgpu

>  <m_score__min__energy>  (9) 
-12.710000000000001

>  <m_primary>  (9) 
energy

$$$$
9:0
     RDKit          3D

 56 58  0  0  0  0  0  0  0  0999 V2000
   -0.7590   20.4380  -35.0470 N   0  0  0  0  0  0  0  0  0  0  0  0
   -1.0300   20.6760  -33.6540 C   0  0  0  0  0  0  0  0  0  0  0  0
   -2.2850   21.1910  -33.2940 C   0  0  0  0  0  0  0  0  0  0  0  0
   -2.5960   21.4530  -31.9590 C   0  0  0  0  0  0  0  0  0  0  0  0
   -1.6540   21.2040  -30.9540 C   0  0  0  0  0  0  0  0  0  0  0  0
   -2.0370   21.5170  -29.2610 S   0  0  0  0  0  0  0  0  0  0  0  0
   -0.9650   22.3730  -28.6430 O   0  0  0  0  0  0  0  0  0  0  0  0
   -2.1130   20.2080  -28.5240 O   0  0  0  0  0  0  0  0  0  0  0  0
   -3.5730   22.3370  -29.1800 N   0  0  0  0  0  0  0  0  0  0  0  0
   -3.4110   23.7990  -29.2210 C   0  0  0  0  0  0  0  0  0  0  0  0
   -3.9950   24.4250  -30.4600 C   0  0  0  0  0  0  0  0  0  0  0  0
   -4.2100   25.6690  -30.4750 O   0  0  0  0  0  0  0  0  0  0  0  0
   -4.4230   23.5960  -31.5520 N   0  0  0  0  0  0  0  0  0  0  0  0
   -5.6940   22.9440  -31.6920 C   0  0  0  0  0  0  0  0  0  0  0  0
   -6.8580   23.7060  -31.5200 C   0  0  0  0  0  0  0  0  0  0  0  0
   -8.1150   23.1100  -31.6250 C   0  0  0  0  0  0  0  0  0  0  0  0
   -8.2230   21.7390  -31.8860 C   0  0  0  0  0  0  0  0  0  0  0  0
   -7.0680   20.9580  -32.0410 C   0  0  0  0  0  0  0  0  0  0  0  0
   -7.2150   19.2240  -32.3350 S   0  0  0  0  0  0  0  0  0  0  0  0
   -6.6040   18.4630  -31.1920 O   0  0  0  0  0  0  0  0  0  0  0  0
   -8.6770   18.8760  -32.4350 O   0  0  0  0  0  0  0  0  0  0  0  0
   -6.3940   18.8200  -33.8300 N   0  0  0  0  0  0  0  0  0  0  0  0
   -5.0060   19.3590  -33.8740 C   0  0  0  0  0  0  0  0  0  0  0  0
   -3.9140   18.2730  -33.9760 C   0  0  0  0  0  0  0  0  0  0  0  0
   -4.2140   17.1180  -33.0190 C   0  0  0  0  0  0  0  0  0  0  0  0
   -5.5970   16.4880  -33.2880 C   0  0  0  0  0  0  0  0  0  0  0  0
   -6.5100   17.3790  -34.1550 C   0  0  0  0  0  0  0  0  0  0  0  0
   -5.8060   21.5590  -31.9370 C   0  0  0  0  0  0  0  0  0  0  0  0
   -0.3980   20.6920  -31.2970 C   0  0  0  0  0  0  0  0  0  0  0  0
   -0.0680   20.4120  -32.6420 C   0  0  0  0  0  0  0  0  0  0  0  0
    1.2930   19.8430  -32.9840 C   0  0  0  0  0  0  0  0  0  0  0  0
    1.9680   20.7160  -33.8190 F   0  0  0  0  0  0  0  0  0  0  0  0
    2.0240   19.6580  -31.8200 F   0  0  0  0  0  0  0  0  0  0  0  0
    1.1950   18.6270  -33.6330 F   0  0  0  0  0  0  0  0  0  0  0  0
   -0.0400   19.7640  -35.3750 H   0  0  0  0  0  0  0  0  0  0  0  0
   -1.2620   20.9830  -35.7820 H   0  0  0  0  0  0  0  0  0  0  0  0
   -3.0337   21.3908  -34.0747 H   0  0  0  0  0  0  0  0  0  0  0  0
   -3.5848   21.8566  -31.6956 H   0  0  0  0  0  0  0  0  0  0  0  0
   -4.1710   22.0090  -29.9730 H   0  0  0  0  0  0  0  0  0  0  0  0
   -3.9111   24.2312  -28.3417 H   0  0  0  0  0  0  0  0  0  0  0  0
   -2.3312   24.0087  -29.2261 H   0  0  0  0  0  0  0  0  0  0  0  0
   -6.7797   24.7811  -31.3008 H   0  0  0  0  0  0  0  0  0  0  0  0
   -9.0230   23.7186  -31.5024 H   0  0  0  0  0  0  0  0  0  0  0  0
   -9.2159   21.2729  -31.9698 H   0  0  0  0  0  0  0  0  0  0  0  0
   -4.9192   20.0201  -34.7489 H   0  0  0  0  0  0  0  0  0  0  0  0
   -4.8401   19.8891  -32.9245 H   0  0  0  0  0  0  0  0  0  0  0  0
   -3.8803   17.8895  -35.0064 H   0  0  0  0  0  0  0  0  0  0  0  0
   -2.9450   18.7170  -33.7040 H   0  0  0  0  0  0  0  0  0  0  0  0
   -3.4415   16.3447  -33.1426 H   0  0  0  0  0  0  0  0  0  0  0  0
   -4.2166   17.5180  -31.9943 H   0  0  0  0  0  0  0  0  0  0  0  0
   -5.4499   15.5288  -33.8060 H   0  0  0  0  0  0  0  0  0  0  0  0
   -6.0933   16.3590  -32.3148 H   0  0  0  0  0  0  0  0  0  0  0  0
   -6.2386   17.2354  -35.2113 H   0  0  0  0  0  0  0  0  0  0  0  0
   -7.5489   17.0796  -33.9524 H   0  0  0  0  0  0  0  0  0  0  0  0
   -4.8982   20.9477  -32.0470 H   0  0  0  0  0  0  0  0  0  0  0  0
    0.3443   20.5045  -30.5071 H   0  0  0  0  0  0  0  0  0  0  0  0
  1  2  1  0
  2  3  2  0
  3  4  1  0
  4  5  2  0
  5  6  1  0
  6  7  2  0
  6  8  2  0
  6  9  1  0
  9 10  1  0
 10 11  1  0
 11 12  2  0
 11 13  1  0
 13 14  1  0
 14 15  2  0
 15 16  1  0
 16 17  2  0
 17 18  1  0
 18 19  1  0
 19 20  2  0
 19 21  2  0
 19 22  1  0
 22 23  1  0
 23 24  1  0
 24 25  1  0
 25 26  1  0
 26 27  1  0
 18 28  2  0
  5 29  1  0
 29 30  2  0
 30 31  1  0
 31 32  1  0
 31 33  1  0
 31 34  1  0
 30  2  1  0
 28 14  1  0
 27 22  1  0
  1 35  1  0
  1 36  1  0
  3 37  1  0
  4 38  1  0
  9 39  1  0
 10 40  1  0
 10 41  1  0
 15 42  1  0
 16 43  1  0
 17 44  1  0
 23 45  1  0
 23 46  1  0
 24 47  1  0
 24 48  1  0
 25 49  1  0
 25 50  1  0
 26 51  1  0
 26 52  1  0
 27 53  1  0
 27 54  1  0
 28 55  1  0
 29 56  1  0
M  CHG  1  13  -1
M  END
>  <UniqueID>  (10) 
10

>  <SMILES>  (10) 
Nc1ccc(S(=O)(=O)NCC(=O)[N-]c2cccc(S(=O)(=O)N3CCCCC3)c2)cc1C(F)(F)F

>  <Energy>  (10) 
69.29874034664724

>  <Genealogy>  (10) 
Nc1ccc(S(=O)(=O)NCC(=O)[N-]c2cccc(S(=O)(=O)N3CCCCC3)c2)cc1C(F)(F)F (protonated)
Nc1ccc(S(=O)(=O)NCC(=O)[N-]c2cccc(S(=O)(=O)N3CCCCC3)c2)cc1C(F)(F)F (3D coordinates assigned)
Nc1ccc(S(=O)(=O)NCC(=O)[N-]c2cccc(S(=O)(=O)N3CCCCC3)c2)cc1C(F)(F)F (nonaromatic ring conformer: 69.29874034664724 kcal/mol)

>  <smiles>  (10) 
Nc1ccc(S(=O)(=O)NCC(=O)Nc2cccc(S(=O)(=O)N3CCCCC3)c2)cc1C(F)(F)F

>  <score_type>  (10) 
oracle

>  <origin>  (10) 
adgpu

>  <m_score__min__energy>  (10) 
-11.630000000000001

>  <m_primary>  (10) 
energy

$$$$
10:0
     RDKit          3D

 40 43  0  0  0  0  0  0  0  0999 V2000
   -9.1050   18.2050  -31.6510 C   0  0  0  0  0  0  0  0  0  0  0  0
   -7.9340   18.9340  -32.2580 C   0  0  0  0  0  0  0  0  0  0  0  0
   -7.0600   18.2410  -33.1080 C   0  0  0  0  0  0  0  0  0  0  0  0
   -5.9760   18.9150  -33.6740 C   0  0  0  0  0  0  0  0  0  0  0  0
   -5.1850   18.3020  -34.4380 O   0  0  0  0  0  0  0  0  0  0  0  0
   -5.7690   20.2010  -33.4110 O   0  0  0  0  0  0  0  0  0  0  0  0
   -6.5640   20.9060  -32.6130 C   0  0  0  0  0  0  0  0  0  0  0  0
   -6.2810   22.2570  -32.3850 C   0  0  0  0  0  0  0  0  0  0  0  0
   -7.0970   23.0270  -31.5490 C   0  0  0  0  0  0  0  0  0  0  0  0
   -6.7600   24.3770  -31.3540 O   0  0  0  0  0  0  0  0  0  0  0  0
   -6.4700   24.9800  -30.0920 C   0  0  0  0  0  0  0  0  0  0  0  0
   -5.0540   24.7140  -29.6900 C   0  0  0  0  0  0  0  0  0  0  0  0
   -4.6220   24.1680  -28.5020 C   0  0  0  0  0  0  0  0  0  0  0  0
   -3.2800   24.0770  -28.5940 N   0  0  0  0  0  0  0  0  0  0  0  0
   -2.3520   23.5740  -27.6090 C   0  0  0  0  0  0  0  0  0  0  0  0
   -2.0800   22.1950  -27.4930 C   0  0  0  0  0  0  0  0  0  0  0  0
   -1.1770   21.7300  -26.5300 C   0  0  0  0  0  0  0  0  0  0  0  0
   -0.5390   22.6280  -25.6740 C   0  0  0  0  0  0  0  0  0  0  0  0
   -0.8040   23.9960  -25.7730 C   0  0  0  0  0  0  0  0  0  0  0  0
   -1.7050   24.4680  -26.7340 C   0  0  0  0  0  0  0  0  0  0  0  0
   -2.9210   24.5360  -29.7850 N   0  0  0  0  0  0  0  0  0  0  0  0
   -3.9820   24.9260  -30.4760 N   0  0  0  0  0  0  0  0  0  0  0  0
   -8.2160   22.4290  -30.9400 C   0  0  0  0  0  0  0  0  0  0  0  0
   -8.5060   21.0800  -31.1610 C   0  0  0  0  0  0  0  0  0  0  0  0
   -7.6860   20.3010  -31.9990 C   0  0  0  0  0  0  0  0  0  0  0  0
   -9.0353   18.2484  -30.5541 H   0  0  0  0  0  0  0  0  0  0  0  0
  -10.0419   18.6797  -31.9779 H   0  0  0  0  0  0  0  0  0  0  0  0
   -9.0925   17.1548  -31.9779 H   0  0  0  0  0  0  0  0  0  0  0  0
   -7.2269   17.1760  -33.3269 H   0  0  0  0  0  0  0  0  0  0  0  0
   -5.4074   22.7189  -32.8682 H   0  0  0  0  0  0  0  0  0  0  0  0
   -6.6258   26.0663  -30.1669 H   0  0  0  0  0  0  0  0  0  0  0  0
   -7.1393   24.5491  -29.3328 H   0  0  0  0  0  0  0  0  0  0  0  0
   -5.2469   23.8664  -27.6485 H   0  0  0  0  0  0  0  0  0  0  0  0
   -2.5805   21.4807  -28.1633 H   0  0  0  0  0  0  0  0  0  0  0  0
   -0.9697   20.6528  -26.4478 H   0  0  0  0  0  0  0  0  0  0  0  0
    0.1728   22.2588  -24.9210 H   0  0  0  0  0  0  0  0  0  0  0  0
   -0.3038   24.7030  -25.0948 H   0  0  0  0  0  0  0  0  0  0  0  0
   -1.9096   25.5464  -26.8066 H   0  0  0  0  0  0  0  0  0  0  0  0
   -8.8668   23.0276  -30.2856 H   0  0  0  0  0  0  0  0  0  0  0  0
   -9.3816   20.6234  -30.6765 H   0  0  0  0  0  0  0  0  0  0  0  0
  1  2  1  0
  2  3  2  0
  3  4  1  0
  4  5  2  0
  4  6  1  0
  6  7  1  0
  7  8  2  0
  8  9  1  0
  9 10  1  0
 10 11  1  0
 11 12  1  0
 12 13  2  0
 13 14  1  0
 14 15  1  0
 15 16  2  0
 16 17  1  0
 17 18  2  0
 18 19  1  0
 19 20  2  0
 14 21  1  0
 21 22  2  0
  9 23  2  0
 23 24  1  0
 24 25  2  0
 25  2  1  0
 25  7  1  0
 22 12  1  0
 20 15  1  0
  1 26  1  0
  1 27  1  0
  1 28  1  0
  3 29  1  0
  8 30  1  0
 11 31  1  0
 11 32  1  0
 13 33  1  0
 16 34  1  0
 17 35  1  0
 18 36  1  0
 19 37  1  0
 20 38  1  0
 23 39  1  0
 24 40  1  0
M  END
>  <UniqueID>  (11) 
11

>  <SMILES>  (11) 
Cc1cc(=O)oc2cc(OCc3cn(-c4ccccc4)nn3)ccc12

>  <Energy>  (11) 
86.48023352804165

>  <Genealogy>  (11) 
Cc1cc(=O)oc2cc(OCc3cn(-c4ccccc4)nn3)ccc12 (3D coordinates assigned)
Cc1cc(=O)oc2cc(OCc3cn(-c4ccccc4)nn3)ccc12 (optimized conformer: 86.48023352804165 kcal/mol)

>  <smiles>  (11) 
Cc1cc(=O)oc2cc(OCc3cn(-c4ccccc4)nn3)ccc12

>  <score_type>  (11) 
oracle

>  <origin>  (11) 
adgpu

>  <m_score__min__energy>  (11) 
-9.1199999999999992

>  <m_primary>  (11) 
energy

$$$$
11:0
     RDKit          3D

 50 52  0  0  0  0  0  0  0  0999 V2000
   -1.4150   23.6290  -27.7730 C   0  0  0  0  0  0  0  0  0  0  0  0
   -1.1930   22.6340  -28.8730 C   0  0  0  0  0  0  0  0  0  0  0  0
   -1.7810   22.8300  -30.1310 C   0  0  0  0  0  0  0  0  0  0  0  0
   -1.5500   21.9210  -31.1680 C   0  0  0  0  0  0  0  0  0  0  0  0
   -0.7150   20.8120  -30.9650 C   0  0  0  0  0  0  0  0  0  0  0  0
   -0.4940   19.8050  -32.0610 C   0  0  0  0  0  0  0  0  0  0  0  0
   -1.7330   19.0830  -32.3390 N   0  0  0  0  0  0  0  0  0  0  0  0
   -2.7580   19.6200  -33.1890 C   0  0  0  0  0  0  0  0  0  0  0  0
   -2.5650   20.7090  -33.7960 O   0  0  0  0  0  0  0  0  0  0  0  0
   -4.0460   18.9100  -33.3570 C   0  0  0  0  0  0  0  0  0  0  0  0
   -4.0640   17.5040  -33.3590 C   0  0  0  0  0  0  0  0  0  0  0  0
   -5.2600   16.8110  -33.5570 C   0  0  0  0  0  0  0  0  0  0  0  0
   -6.4510   17.5090  -33.7490 C   0  0  0  0  0  0  0  0  0  0  0  0
   -6.4510   18.9050  -33.7430 C   0  0  0  0  0  0  0  0  0  0  0  0
   -5.2540   19.6200  -33.5590 C   0  0  0  0  0  0  0  0  0  0  0  0
   -5.2830   21.0550  -33.4680 N   0  0  0  0  0  0  0  0  0  0  0  0
   -5.9570   21.7840  -32.4250 C   0  0  0  0  0  0  0  0  0  0  0  0
   -7.2960   21.5120  -32.0880 C   0  0  0  0  0  0  0  0  0  0  0  0
   -7.9370   22.2560  -31.0950 C   0  0  0  0  0  0  0  0  0  0  0  0
   -7.2550   23.2820  -30.4360 C   0  0  0  0  0  0  0  0  0  0  0  0
   -5.9260   23.5700  -30.7700 C   0  0  0  0  0  0  0  0  0  0  0  0
   -5.0710   24.8820  -29.9650 S   0  0  0  0  0  0  0  0  0  0  0  0
   -4.5440   24.3400  -28.3540 C   0  0  0  0  0  0  0  0  0  0  0  0
   -5.9820   26.0690  -29.8240 O   0  0  0  0  0  0  0  0  0  0  0  0
   -3.8710   25.2860  -30.7750 O   0  0  0  0  0  0  0  0  0  0  0  0
   -5.2850   22.8280  -31.7710 C   0  0  0  0  0  0  0  0  0  0  0  0
   -0.1150   20.6240  -29.7100 C   0  0  0  0  0  0  0  0  0  0  0  0
   -0.3470   21.5340  -28.6730 C   0  0  0  0  0  0  0  0  0  0  0  0
   -1.3036   23.1299  -26.7991 H   0  0  0  0  0  0  0  0  0  0  0  0
   -0.6755   24.4390  -27.8565 H   0  0  0  0  0  0  0  0  0  0  0  0
   -2.4287   24.0479  -27.8565 H   0  0  0  0  0  0  0  0  0  0  0  0
   -2.4273   23.7034  -30.3028 H   0  0  0  0  0  0  0  0  0  0  0  0
   -2.0253   22.0762  -32.1478 H   0  0  0  0  0  0  0  0  0  0  0  0
   -0.1645   20.3258  -32.9721 H   0  0  0  0  0  0  0  0  0  0  0  0
    0.2755   19.0876  -31.7399 H   0  0  0  0  0  0  0  0  0  0  0  0
   -1.8980   18.1790  -31.8400 H   0  0  0  0  0  0  0  0  0  0  0  0
   -3.1290   16.9459  -33.2034 H   0  0  0  0  0  0  0  0  0  0  0  0
   -5.2622   15.7110  -33.5615 H   0  0  0  0  0  0  0  0  0  0  0  0
   -7.3912   16.9598  -33.9053 H   0  0  0  0  0  0  0  0  0  0  0  0
   -7.3957   19.4507  -33.8835 H   0  0  0  0  0  0  0  0  0  0  0  0
   -4.7640   21.6010  -34.1920 H   0  0  0  0  0  0  0  0  0  0  0  0
   -7.8399   20.7102  -32.6088 H   0  0  0  0  0  0  0  0  0  0  0  0
   -8.9815   22.0337  -30.8310 H   0  0  0  0  0  0  0  0  0  0  0  0
   -7.7630   23.8646  -29.6534 H   0  0  0  0  0  0  0  0  0  0  0  0
   -5.0899   24.9014  -27.5815 H   0  0  0  0  0  0  0  0  0  0  0  0
   -4.7521   23.2657  -28.2423 H   0  0  0  0  0  0  0  0  0  0  0  0
   -3.4642   24.5179  -28.2423 H   0  0  0  0  0  0  0  0  0  0  0  0
   -4.2469   23.0657  -32.0463 H   0  0  0  0  0  0  0  0  0  0  0  0
    0.5407   19.7571  -29.5411 H   0  0  0  0  0  0  0  0  0  0  0  0
    0.1366   21.3858  -27.6962 H   0  0  0  0  0  0  0  0  0  0  0  0
  1  2  1  0
  2  3  2  0
  3  4  1  0
  4  5  2  0
  5  6  1  0
  6  7  1  0
  7  8  1  0
  8  9  2  0
  8 10  1  0
 10 11  2  0
 11 12  1  0
 12 13  2  0
 13 14  1  0
 14 15  2  0
 15 16  1  0
 16 17  1  0
 17 18  2  0
 18 19  1  0
 19 20  2  0
 20 21  1  0
 21 22  1  0
 22 23  1  0
 22 24  2  0
 22 25  2  0
 21 26  2  0
  5 27  1  0
 27 28  2  0
 28  2  1  0
 15 10  1  0
 26 17  1  0
  1 29  1  0
  1 30  1  0
  1 31  1  0
  3 32  1  0
  4 33  1  0
  6 34  1  0
  6 35  1  0
  7 36  1  0
 11 37  1  0
 12 38  1  0
 13 39  1  0
 14 40  1  0
 16 41  1  0
 18 42  1  0
 19 43  1  0
 20 44  1  0
 23 45  1  0
 23 46  1  0
 23 47  1  0
 26 48  1  0
 27 49  1  0
 28 50  1  0
M  END
>  <UniqueID>  (12) 
12

>  <SMILES>  (12) 
Cc1ccc(CNC(=O)c2ccccc2Nc2cccc(S(C)(=O)=O)c2)cc1

>  <Energy>  (12) 
55.909498743344734

>  <Genealogy>  (12) 
Cc1ccc(CNC(=O)c2ccccc2Nc2cccc(S(C)(=O)=O)c2)cc1 (3D coordinates assigned)
Cc1ccc(CNC(=O)c2ccccc2Nc2cccc(S(C)(=O)=O)c2)cc1 (optimized conformer: 55.909498743344734 kcal/mol)

>  <smiles>  (12) 
Cc1ccc(CNC(=O)c2ccccc2Nc2cccc(S(C)(=O)=O)c2)cc1

>  <score_type>  (12) 
oracle

>  <origin>  (12) 
adgpu

>  <m_score__min__energy>  (12) 
-10.220000000000001

>  <m_primary>  (12) 
energy

$$$$
12:0
     RDKit          3D

 62 65  0  0  0  0  0  0  0  0999 V2000
    0.1960   19.9500  -30.5790 C   0  0  0  0  0  0  0  0  0  0  0  0
   -0.2600   20.6160  -29.4070 O   0  0  0  0  0  0  0  0  0  0  0  0
   -1.0410   20.0180  -28.4030 C   0  0  0  0  0  0  0  0  0  0  0  0
   -0.6120   18.8720  -27.7030 C   0  0  0  0  0  0  0  0  0  0  0  0
   -1.4290   18.2960  -26.7270 C   0  0  0  0  0  0  0  0  0  0  0  0
   -2.6800   18.8480  -26.4430 C   0  0  0  0  0  0  0  0  0  0  0  0
   -3.1140   19.9820  -27.1290 C   0  0  0  0  0  0  0  0  0  0  0  0
   -2.2960   20.5760  -28.1020 C   0  0  0  0  0  0  0  0  0  0  0  0
   -2.7490   21.7450  -28.7960 N   0  0  0  0  0  0  0  0  0  0  0  0
   -3.0660   22.9670  -28.0520 C   0  0  0  0  0  0  0  0  0  0  0  0
   -4.3430   23.6360  -28.6090 C   0  0  0  0  0  0  0  0  0  0  0  0
   -4.7110   23.1630  -29.9710 N   0  0  0  0  0  0  0  0  0  0  0  0
   -5.7240   24.0210  -30.6620 C   0  0  2  0  0  0  0  0  0  0  0  0
   -7.1750   23.8980  -30.1000 C   0  0  0  0  0  0  0  0  0  0  0  0
   -7.9470   22.6610  -30.6270 C   0  0  0  0  0  0  0  0  0  0  0  0
   -7.0490   21.6500  -31.2270 N   0  0  1  0  0  0  0  0  0  0  0  0
   -7.7540   20.3860  -31.5640 C   0  0  0  0  0  0  0  0  0  0  0  0
   -6.9010   19.3570  -32.2810 C   0  0  0  0  0  0  0  0  0  0  0  0
   -6.6050   19.5010  -33.6470 C   0  0  0  0  0  0  0  0  0  0  0  0
   -5.8290   18.5460  -34.3090 C   0  0  0  0  0  0  0  0  0  0  0  0
   -5.3370   17.4300  -33.6150 C   0  0  0  0  0  0  0  0  0  0  0  0
   -4.5360   16.3860  -34.3340 C   0  0  0  0  0  0  0  0  0  0  0  0
   -5.6640   17.2620  -32.2620 C   0  0  0  0  0  0  0  0  0  0  0  0
   -6.4400   18.2180  -31.5990 C   0  0  0  0  0  0  0  0  0  0  0  0
   -6.2820   22.1960  -32.3780 C   0  0  0  0  0  0  0  0  0  0  0  0
   -5.8140   23.6530  -32.1600 C   0  0  0  0  0  0  0  0  0  0  0  0
   -3.4870   22.9920  -30.7820 C   0  0  0  0  0  0  0  0  0  0  0  0
   -2.7240   21.7740  -30.2620 C   0  0  0  0  0  0  0  0  0  0  0  0
    0.7960   19.0736  -30.2927 H   0  0  0  0  0  0  0  0  0  0  0  0
   -0.6689   19.6234  -31.1751 H   0  0  0  0  0  0  0  0  0  0  0  0
    0.8133   20.6382  -31.1751 H   0  0  0  0  0  0  0  0  0  0  0  0
    0.3700   18.4295  -27.9262 H   0  0  0  0  0  0  0  0  0  0  0  0
   -1.0859   17.4051  -26.1806 H   0  0  0  0  0  0  0  0  0  0  0  0
   -3.3231   18.3883  -25.6781 H   0  0  0  0  0  0  0  0  0  0  0  0
   -4.1015   20.4125  -26.9064 H   0  0  0  0  0  0  0  0  0  0  0  0
   -3.2247   22.7133  -26.9935 H   0  0  0  0  0  0  0  0  0  0  0  0
   -2.2265   23.6701  -28.1568 H   0  0  0  0  0  0  0  0  0  0  0  0
   -5.1775   23.4173  -27.9265 H   0  0  0  0  0  0  0  0  0  0  0  0
   -4.1390   24.7144  -28.6835 H   0  0  0  0  0  0  0  0  0  0  0  0
   -5.3656   25.0470  -30.4918 H   0  0  0  0  0  0  0  0  0  0  0  0
   -7.1177   23.8299  -29.0036 H   0  0  0  0  0  0  0  0  0  0  0  0
   -7.7262   24.7878  -30.4382 H   0  0  0  0  0  0  0  0  0  0  0  0
   -8.4889   22.1991  -29.7886 H   0  0  0  0  0  0  0  0  0  0  0  0
   -8.6368   23.0051  -31.4117 H   0  0  0  0  0  0  0  0  0  0  0  0
   -6.3590   21.3730  -30.4890 H   0  0  0  0  0  0  0  0  0  0  0  0
   -8.1187   19.9370  -30.6284 H   0  0  0  0  0  0  0  0  0  0  0  0
   -8.5634   20.6569  -32.2579 H   0  0  0  0  0  0  0  0  0  0  0  0
   -6.9871   20.3721  -34.1994 H   0  0  0  0  0  0  0  0  0  0  0  0
   -5.6029   18.6695  -35.3784 H   0  0  0  0  0  0  0  0  0  0  0  0
   -4.0374   15.7362  -33.5997 H   0  0  0  0  0  0  0  0  0  0  0  0
   -5.2041   15.7813  -34.9649 H   0  0  0  0  0  0  0  0  0  0  0  0
   -3.7789   16.8747  -34.9649 H   0  0  0  0  0  0  0  0  0  0  0  0
   -5.3084   16.3738  -31.7193 H   0  0  0  0  0  0  0  0  0  0  0  0
   -6.6911   18.0776  -30.5373 H   0  0  0  0  0  0  0  0  0  0  0  0
   -5.3960   21.5644  -32.5392 H   0  0  0  0  0  0  0  0  0  0  0  0
   -6.9536   22.1947  -33.2492 H   0  0  0  0  0  0  0  0  0  0  0  0
   -4.8204   23.7775  -32.6153 H   0  0  0  0  0  0  0  0  0  0  0  0
   -6.5554   24.3184  -32.6265 H   0  0  0  0  0  0  0  0  0  0  0  0
   -3.7597   22.8362  -31.8362 H   0  0  0  0  0  0  0  0  0  0  0  0
   -2.8572   23.8906  -30.7061 H   0  0  0  0  0  0  0  0  0  0  0  0
   -3.1936   20.8585  -30.6510 H   0  0  0  0  0  0  0  0  0  0  0  0
   -1.6792   21.8351  -30.6007 H   0  0  0  0  0  0  0  0  0  0  0  0
  1  2  1  0
  2  3  1  0
  3  4  2  0
  4  5  1  0
  5  6  2  0
  6  7  1  0
  7  8  2  0
  8  9  1  0
  9 10  1  0
 10 11  1  0
 11 12  1  0
 12 13  1  0
 13 14  1  0
 14 15  1  0
 15 16  1  0
 16 17  1  0
 17 18  1  0
 18 19  2  0
 19 20  1  0
 20 21  2  0
 21 22  1  0
 21 23  1  0
 23 24  2  0
 16 25  1  0
 25 26  1  0
 12 27  1  0
 27 28  1  0
  8  3  1  0
 28  9  1  0
 26 13  1  0
 24 18  1  0
  1 29  1  0
  1 30  1  0
  1 31  1  0
  4 32  1  0
  5 33  1  0
  6 34  1  0
  7 35  1  0
 10 36  1  0
 10 37  1  0
 11 38  1  0
 11 39  1  0
 13 40  1  6
 14 41  1  0
 14 42  1  0
 15 43  1  0
 15 44  1  0
 16 45  1  1
 17 46  1  0
 17 47  1  0
 19 48  1  0
 20 49  1  0
 22 50  1  0
 22 51  1  0
 22 52  1  0
 23 53  1  0
 24 54  1  0
 25 55  1  0
 25 56  1  0
 26 57  1  0
 26 58  1  0
 27 59  1  0
 27 60  1  0
 28 61  1  0
 28 62  1  0
M  CHG  1  16   1
M  END
>  <UniqueID>  (13) 
13

>  <SMILES>  (13) 
COc1ccccc1N1CCN(C2CC[NH+](Cc3ccc(C)cc3)CC2)CC1

>  <Energy>  (13) 
90.68947226366666

>  <Genealogy>  (13) 
COc1ccccc1N1CCN(C2CC[NH+](Cc3ccc(C)cc3)CC2)CC1 (protonated)
COc1ccccc1N1CCN(C2CC[NH+](Cc3ccc(C)cc3)CC2)CC1 (3D coordinates assigned)
COc1ccccc1N1CCN(C2CC[NH+](Cc3ccc(C)cc3)CC2)CC1 (nonaromatic ring conformer: 90.68947226366666 kcal/mol)

>  <smiles>  (13) 
COc1ccccc1N1CCN(C2CCN(Cc3ccc(C)cc3)CC2)CC1

>  <score_type>  (13) 
oracle

>  <origin>  (13) 
adgpu

>  <m_score__min__energy>  (13) 
-8.5099999999999998

>  <m_primary>  (13) 
energy

$$$$
13:0
     RDKit          3D

 52 55  0  0  0  0  0  0  0  0999 V2000
   -4.2060   23.6590  -28.2980 C   0  0  0  0  0  0  0  0  0  0  0  0
   -5.1180   23.7600  -29.4880 C   0  0  0  0  0  0  0  0  0  0  0  0
   -6.2180   22.8950  -29.5870 C   0  0  0  0  0  0  0  0  0  0  0  0
   -7.0680   22.9470  -30.7030 C   0  0  0  0  0  0  0  0  0  0  0  0
   -8.3840   21.7870  -30.8880 S   0  0  0  0  0  0  0  0  0  0  0  0
   -9.1480   22.0650  -32.1530 O   0  0  0  0  0  0  0  0  0  0  0  0
   -9.3120   21.9210  -29.7130 O   0  0  0  0  0  0  0  0  0  0  0  0
   -7.7780   20.1580  -30.9400 N   0  0  0  0  0  0  0  0  0  0  0  0
   -6.9870   19.6550  -31.8420 C   0  0  0  0  0  0  0  0  0  0  0  0
   -6.5440   20.3910  -32.9590 C   0  0  0  0  0  0  0  0  0  0  0  0
   -5.5940   19.8350  -33.8140 C   0  0  0  0  0  0  0  0  0  0  0  0
   -5.0790   18.5610  -33.5610 C   0  0  0  0  0  0  0  0  0  0  0  0
   -3.9910   17.9810  -34.3720 C   0  0  0  0  0  0  0  0  0  0  0  0
   -4.2860   17.3160  -35.3990 O   0  0  0  0  0  0  0  0  0  0  0  0
   -2.6280   17.9940  -33.9200 N   0  0  0  0  0  0  0  0  0  0  0  0
   -1.6920   19.0620  -34.1140 C   0  0  0  0  0  0  0  0  0  0  0  0
   -0.5770   18.8750  -34.9460 C   0  0  0  0  0  0  0  0  0  0  0  0
    0.3670   19.8910  -35.1060 C   0  0  0  0  0  0  0  0  0  0  0  0
    0.2350   21.0850  -34.3970 C   0  0  0  0  0  0  0  0  0  0  0  0
   -0.8340   21.2570  -33.5140 C   0  0  0  0  0  0  0  0  0  0  0  0
   -1.7990   20.2510  -33.3650 C   0  0  0  0  0  0  0  0  0  0  0  0
   -3.1300   20.4940  -32.1800 S   0  0  0  0  0  0  0  0  0  0  0  0
   -2.0230   21.0300  -30.8740 C   0  0  0  0  0  0  0  0  0  0  0  0
   -1.9470   22.3850  -30.5250 C   0  0  0  0  0  0  0  0  0  0  0  0
   -1.0940   22.7950  -29.4940 C   0  0  0  0  0  0  0  0  0  0  0  0
   -0.3110   21.8550  -28.8170 C   0  0  0  0  0  0  0  0  0  0  0  0
   -0.3690   20.5070  -29.1820 C   0  0  0  0  0  0  0  0  0  0  0  0
   -1.2190   20.0960  -30.2140 C   0  0  0  0  0  0  0  0  0  0  0  0
   -5.6270   17.8170  -32.5080 C   0  0  0  0  0  0  0  0  0  0  0  0
   -6.5410   18.3820  -31.6750 N   0  0  0  0  0  0  0  0  0  0  0  0
   -6.8460   23.9100  -31.6950 C   0  0  0  0  0  0  0  0  0  0  0  0
   -5.7790   24.8040  -31.5800 C   0  0  0  0  0  0  0  0  0  0  0  0
   -4.9140   24.7350  -30.4830 C   0  0  0  0  0  0  0  0  0  0  0  0
   -3.8580   25.6350  -30.3920 O   0  0  0  0  0  0  0  0  0  0  0  0
   -4.7998   23.7248  -27.3744 H   0  0  0  0  0  0  0  0  0  0  0  0
   -3.6742   22.6965  -28.3243 H   0  0  0  0  0  0  0  0  0  0  0  0
   -3.4765   24.4818  -28.3243 H   0  0  0  0  0  0  0  0  0  0  0  0
   -6.4161   22.1701  -28.7837 H   0  0  0  0  0  0  0  0  0  0  0  0
   -6.9448   21.3965  -33.1547 H   0  0  0  0  0  0  0  0  0  0  0  0
   -5.2483   20.4014  -34.6914 H   0  0  0  0  0  0  0  0  0  0  0  0
   -0.4460   17.9202  -35.4762 H   0  0  0  0  0  0  0  0  0  0  0  0
    1.2155   19.7499  -35.7917 H   0  0  0  0  0  0  0  0  0  0  0  0
    0.9718   21.8904  -34.5330 H   0  0  0  0  0  0  0  0  0  0  0  0
   -0.9189   22.1869  -32.9325 H   0  0  0  0  0  0  0  0  0  0  0  0
   -2.5577   23.1263  -31.0613 H   0  0  0  0  0  0  0  0  0  0  0  0
   -1.0395   23.8579  -29.2160 H   0  0  0  0  0  0  0  0  0  0  0  0
    0.3498   22.1759  -27.9982 H   0  0  0  0  0  0  0  0  0  0  0  0
    0.2546   19.7684  -28.6570 H   0  0  0  0  0  0  0  0  0  0  0  0
   -1.2549   19.0363  -30.5067 H   0  0  0  0  0  0  0  0  0  0  0  0
   -5.3169   16.7728  -32.3547 H   0  0  0  0  0  0  0  0  0  0  0  0
   -7.5139   23.9626  -32.5674 H   0  0  0  0  0  0  0  0  0  0  0  0
   -5.6181   25.5665  -32.3564 H   0  0  0  0  0  0  0  0  0  0  0  0
  1  2  1  0
  2  3  2  0
  3  4  1  0
  4  5  1  0
  5  6  2  0
  5  7  2  0
  5  8  1  0
  8  9  2  3
  9 10  1  0
 10 11  2  0
 11 12  1  0
 12 13  1  0
 13 14  2  0
 13 15  1  0
 15 16  1  0
 16 17  2  0
 17 18  1  0
 18 19  2  0
 19 20  1  0
 20 21  2  0
 21 22  1  0
 22 23  1  0
 23 24  2  0
 24 25  1  0
 25 26  2  0
 26 27  1  0
 27 28  2  0
 12 29  2  0
 29 30  1  0
  4 31  2  0
 31 32  1  0
 32 33  2  0
 33 34  1  0
 33  2  1  0
 30  9  1  0
 21 16  1  0
 28 23  1  0
  1 35  1  0
  1 36  1  0
  1 37  1  0
  3 38  1  0
 10 39  1  0
 11 40  1  0
 17 41  1  0
 18 42  1  0
 19 43  1  0
 20 44  1  0
 24 45  1  0
 25 46  1  0
 26 47  1  0
 27 48  1  0
 28 49  1  0
 29 50  1  0
 31 51  1  0
 32 52  1  0
M  CHG  3  15  -1  30  -1  34  -1
M  END
>  <UniqueID>  (14) 
14

>  <SMILES>  (14) 
Cc1cc(S(=O)(=O)N=c2ccc(C(=O)[N-]c3ccccc3Sc3ccccc3)c[n-]2)ccc1[O-]

>  <Energy>  (14) 
68.84260126141764

>  <Genealogy>  (14) 
Cc1cc(S(=O)(=O)N=c2ccc(C(=O)[N-]c3ccccc3Sc3ccccc3)c[n-]2)ccc1[O-] (protonated)
Cc1cc(S(=O)(=O)N=c2ccc(C(=O)[N-]c3ccccc3Sc3ccccc3)c[n-]2)ccc1[O-] (3D coordinates assigned)
Cc1cc(S(=O)(=O)N=c2ccc(C(=O)[N-]c3ccccc3Sc3ccccc3)c[n-]2)ccc1[O-] (optimized conformer: 68.84260126141764 kcal/mol)

>  <smiles>  (14) 
Cc1cc(S(=O)(=O)N=c2ccc(C(=O)Nc3ccccc3Sc3ccccc3)c[nH]2)ccc1O

>  <score_type>  (14) 
oracle

>  <origin>  (14) 
adgpu

>  <m_score__min__energy>  (14) 
-12.33

>  <m_primary>  (14) 
energy

$$$$
14:0
     RDKit          3D

 52 54  0  0  0  0  0  0  0  0999 V2000
   -2.1720   25.2880  -29.2570 N   0  0  0  0  0  0  0  0  0  0  0  0
   -3.4810   24.4020  -29.9530 S   0  0  0  0  0  0  0  0  0  0  0  0
   -4.2710   25.3060  -30.8590 O   0  0  0  0  0  0  0  0  0  0  0  0
   -4.3880   23.9010  -28.8640 O   0  0  0  0  0  0  0  0  0  0  0  0
   -2.8460   23.0410  -30.8730 C   0  0  0  0  0  0  0  0  0  0  0  0
   -1.6280   22.4530  -30.5070 C   0  0  0  0  0  0  0  0  0  0  0  0
   -1.1170   21.3790  -31.2420 C   0  0  0  0  0  0  0  0  0  0  0  0
   -1.8120   20.8900  -32.3600 C   0  0  0  0  0  0  0  0  0  0  0  0
   -1.2820   19.7090  -33.1270 C   0  0  0  0  0  0  0  0  0  0  0  0
   -2.4270   18.9480  -33.7990 C   0  0  0  0  0  0  0  0  0  0  0  0
   -2.0080   17.5750  -34.0930 N   0  0  0  0  0  0  0  0  0  0  0  0
   -3.4080   16.5670  -34.3030 S   0  0  0  0  0  0  0  0  0  0  0  0
   -3.1910   15.2500  -33.6100 O   0  0  0  0  0  0  0  0  0  0  0  0
   -3.6120   16.3030  -35.7680 O   0  0  0  0  0  0  0  0  0  0  0  0
   -4.8410   17.3620  -33.6550 C   0  0  0  0  0  0  0  0  0  0  0  0
   -5.3700   16.9740  -32.4150 C   0  0  0  0  0  0  0  0  0  0  0  0
   -6.4920   17.6270  -31.8960 C   0  0  0  0  0  0  0  0  0  0  0  0
   -7.0890   18.6770  -32.6050 C   0  0  0  0  0  0  0  0  0  0  0  0
   -8.5160   19.4870  -31.9660 S   0  0  0  0  0  0  0  0  0  0  0  0
   -9.5460   19.6360  -33.0530 O   0  0  0  0  0  0  0  0  0  0  0  0
   -9.1040   18.6530  -30.8620 O   0  0  0  0  0  0  0  0  0  0  0  0
   -8.0580   21.0490  -31.3360 N   0  0  0  0  0  0  0  0  0  0  0  0
   -6.6800   21.3830  -31.6930 C   0  0  0  0  0  0  0  0  0  0  0  0
   -6.5970   22.9000  -31.7270 C   0  0  0  0  0  0  0  0  0  0  0  0
   -8.0340   23.3790  -31.8740 C   0  0  0  0  0  0  0  0  0  0  0  0
   -8.8780   22.1150  -31.9090 C   0  0  0  0  0  0  0  0  0  0  0  0
   -6.5610   19.0630  -33.8450 C   0  0  0  0  0  0  0  0  0  0  0  0
   -5.4380   18.4110  -34.3640 C   0  0  0  0  0  0  0  0  0  0  0  0
   -3.0360   21.4780  -32.7200 C   0  0  0  0  0  0  0  0  0  0  0  0
   -3.5460   22.5520  -31.9850 C   0  0  0  0  0  0  0  0  0  0  0  0
   -1.5980   25.6550  -30.0480 H   0  0  0  0  0  0  0  0  0  0  0  0
   -1.0723   22.8374  -29.6390 H   0  0  0  0  0  0  0  0  0  0  0  0
   -0.1657   20.9147  -30.9430 H   0  0  0  0  0  0  0  0  0  0  0  0
   -0.5813   20.0629  -33.8976 H   0  0  0  0  0  0  0  0  0  0  0  0
   -0.7678   19.0329  -32.4281 H   0  0  0  0  0  0  0  0  0  0  0  0
   -3.2964   18.9278  -33.1254 H   0  0  0  0  0  0  0  0  0  0  0  0
   -2.6961   19.4536  -34.7381 H   0  0  0  0  0  0  0  0  0  0  0  0
   -1.4990   17.5790  -35.0080 H   0  0  0  0  0  0  0  0  0  0  0  0
   -4.9013   16.1547  -31.8501 H   0  0  0  0  0  0  0  0  0  0  0  0
   -6.9077   17.3148  -30.9266 H   0  0  0  0  0  0  0  0  0  0  0  0
   -5.9849   20.9814  -30.9409 H   0  0  0  0  0  0  0  0  0  0  0  0
   -6.4052   20.9483  -32.6654 H   0  0  0  0  0  0  0  0  0  0  0  0
   -6.1571   23.2826  -30.7942 H   0  0  0  0  0  0  0  0  0  0  0  0
   -5.9601   23.2570  -32.5498 H   0  0  0  0  0  0  0  0  0  0  0  0
   -8.3193   24.0090  -31.0186 H   0  0  0  0  0  0  0  0  0  0  0  0
   -8.1719   23.9888  -32.7791 H   0  0  0  0  0  0  0  0  0  0  0  0
   -9.7923   22.2525  -31.3130 H   0  0  0  0  0  0  0  0  0  0  0  0
   -9.1841   21.8709  -32.9370 H   0  0  0  0  0  0  0  0  0  0  0  0
   -7.0312   19.8806  -34.4110 H   0  0  0  0  0  0  0  0  0  0  0  0
   -5.0222   18.7237  -35.3332 H   0  0  0  0  0  0  0  0  0  0  0  0
   -3.5957   21.0914  -33.5844 H   0  0  0  0  0  0  0  0  0  0  0  0
   -4.4993   23.0149  -32.2799 H   0  0  0  0  0  0  0  0  0  0  0  0
  1  2  1  0
  2  3  2  0
  2  4  2  0
  2  5  1  0
  5  6  2  0
  6  7  1  0
  7  8  2  0
  8  9  1  0
  9 10  1  0
 10 11  1  0
 11 12  1  0
 12 13  2  0
 12 14  2  0
 12 15  1  0
 15 16  2  0
 16 17  1  0
 17 18  2  0
 18 19  1  0
 19 20  2  0
 19 21  2  0
 19 22  1  0
 22 23  1  0
 23 24  1  0
 24 25  1  0
 25 26  1  0
 18 27  1  0
 27 28  2  0
  8 29  1  0
 29 30  2  0
 30  5  1  0
 28 15  1  0
 26 22  1  0
  1 31  1  0
  6 32  1  0
  7 33  1  0
  9 34  1  0
  9 35  1  0
 10 36  1  0
 10 37  1  0
 11 38  1  0
 16 39  1  0
 17 40  1  0
 23 41  1  0
 23 42  1  0
 24 43  1  0
 24 44  1  0
 25 45  1  0
 25 46  1  0
 26 47  1  0
 26 48  1  0
 27 49  1  0
 28 50  1  0
 29 51  1  0
 30 52  1  0
M  CHG  1   1  -1
M  END
>  <UniqueID>  (15) 
15

>  <SMILES>  (15) 
[NH-]S(=O)(=O)c1ccc(CCNS(=O)(=O)c2ccc(S(=O)(=O)N3CCCC3)cc2)cc1

>  <Energy>  (15) 
47.52772994781906

>  <Genealogy>  (15) 
[NH-]S(=O)(=O)c1ccc(CCNS(=O)(=O)c2ccc(S(=O)(=O)N3CCCC3)cc2)cc1 (protonated)
[NH-]S(=O)(=O)c1ccc(CCNS(=O)(=O)c2ccc(S(=O)(=O)N3CCCC3)cc2)cc1 (3D coordinates assigned)
[NH-]S(=O)(=O)c1ccc(CCNS(=O)(=O)c2ccc(S(=O)(=O)N3CCCC3)cc2)cc1 (nonaromatic ring conformer: 47.52772994781906 kcal/mol)

>  <smiles>  (15) 
NS(=O)(=O)c1ccc(CCNS(=O)(=O)c2ccc(S(=O)(=O)N3CCCC3)cc2)cc1

>  <score_type>  (15) 
oracle

>  <origin>  (15) 
adgpu

>  <m_score__min__energy>  (15) 
-12.69

>  <m_primary>  (15) 
energy

$$$$
15:0
     RDKit          3D

 45 49  0  0  0  0  0  0  0  0999 V2000
   -9.5110   18.2110  -31.2280 O   0  0  0  0  0  0  0  0  0  0  0  0
   -8.5690   18.7220  -31.8920 C   0  0  0  0  0  0  0  0  0  0  0  0
   -7.7570   17.9150  -32.6980 C   0  0  0  0  0  0  0  0  0  0  0  0
   -6.7220   18.5150  -33.4430 C   0  0  0  0  0  0  0  0  0  0  0  0
   -5.8960   17.6990  -34.3960 C   0  0  0  0  0  0  0  0  0  0  0  0
   -4.6050   16.7480  -33.5130 S   0  0  0  0  0  0  0  0  0  0  0  0
   -3.5680   18.1700  -33.1750 C   0  0  0  0  0  0  0  0  0  0  0  0
   -2.3330   18.3280  -33.6920 N   0  0  0  0  0  0  0  0  0  0  0  0
   -1.9560   19.5550  -33.2720 C   0  0  0  0  0  0  0  0  0  0  0  0
   -0.6930   20.1890  -33.7010 C   0  0  0  0  0  0  0  0  0  0  0  0
   -0.7250   21.2550  -34.6160 C   0  0  0  0  0  0  0  0  0  0  0  0
    0.4620   21.8770  -35.0160 C   0  0  0  0  0  0  0  0  0  0  0  0
    1.6870   21.4490  -34.4970 C   0  0  0  0  0  0  0  0  0  0  0  0
    1.7260   20.4060  -33.5690 C   0  0  0  0  0  0  0  0  0  0  0  0
    0.5410   19.7810  -33.1660 C   0  0  0  0  0  0  0  0  0  0  0  0
   -2.9740   20.1090  -32.5020 C   0  0  0  0  0  0  0  0  0  0  0  0
   -2.9970   21.4120  -31.8040 C   0  0  0  0  0  0  0  0  0  0  0  0
   -1.9000   21.8390  -31.0350 C   0  0  0  0  0  0  0  0  0  0  0  0
   -1.9390   23.0700  -30.3740 C   0  0  0  0  0  0  0  0  0  0  0  0
   -3.0760   23.8780  -30.4630 C   0  0  0  0  0  0  0  0  0  0  0  0
   -3.1130   25.1020  -29.8050 O   0  0  0  0  0  0  0  0  0  0  0  0
   -4.1780   23.4530  -31.2100 C   0  0  0  0  0  0  0  0  0  0  0  0
   -4.1430   22.2230  -31.8730 C   0  0  0  0  0  0  0  0  0  0  0  0
   -3.9830   19.2250  -32.4520 N   0  0  0  0  0  0  0  0  0  0  0  0
   -6.5210   19.8610  -33.3640 N   0  0  0  0  0  0  0  0  0  0  0  0
   -7.3220   20.6090  -32.5660 C   0  0  0  0  0  0  0  0  0  0  0  0
   -7.2340   22.2710  -32.3650 S   0  0  0  0  0  0  0  0  0  0  0  0
   -8.5500   22.2970  -31.2990 C   0  0  0  0  0  0  0  0  0  0  0  0
   -9.0190   20.9920  -31.1370 C   0  0  0  0  0  0  0  0  0  0  0  0
   -8.3260   20.0620  -31.8490 N   0  0  0  0  0  0  0  0  0  0  0  0
   -7.9243   16.8290  -32.7490 H   0  0  0  0  0  0  0  0  0  0  0  0
   -6.5540   16.9984  -34.9309 H   0  0  0  0  0  0  0  0  0  0  0  0
   -5.4013   18.3840  -35.1003 H   0  0  0  0  0  0  0  0  0  0  0  0
   -1.6878   21.6017  -35.0194 H   0  0  0  0  0  0  0  0  0  0  0  0
    0.4314   22.7044  -35.7402 H   0  0  0  0  0  0  0  0  0  0  0  0
    2.6204   21.9336  -34.8194 H   0  0  0  0  0  0  0  0  0  0  0  0
    2.6898   20.0755  -33.1544 H   0  0  0  0  0  0  0  0  0  0  0  0
    0.5752   18.9667  -32.4272 H   0  0  0  0  0  0  0  0  0  0  0  0
   -1.0073   21.2016  -30.9532 H   0  0  0  0  0  0  0  0  0  0  0  0
   -1.0734   23.4034  -29.7828 H   0  0  0  0  0  0  0  0  0  0  0  0
   -5.0742   24.0874  -31.2763 H   0  0  0  0  0  0  0  0  0  0  0  0
   -5.0165   21.8880  -32.4516 H   0  0  0  0  0  0  0  0  0  0  0  0
   -4.9000   19.3300  -31.9620 H   0  0  0  0  0  0  0  0  0  0  0  0
   -8.9659   23.1929  -30.8149 H   0  0  0  0  0  0  0  0  0  0  0  0
   -9.8726   20.7381  -30.4914 H   0  0  0  0  0  0  0  0  0  0  0  0
  1  2  2  0
  2  3  1  0
  3  4  2  0
  4  5  1  0
  5  6  1  0
  6  7  1  0
  7  8  2  0
  8  9  1  0
  9 10  1  0
 10 11  2  0
 11 12  1  0
 12 13  2  0
 13 14  1  0
 14 15  2  0
  9 16  2  0
 16 17  1  0
 17 18  2  0
 18 19  1  0
 19 20  2  0
 20 21  1  0
 20 22  1  0
 22 23  2  0
 16 24  1  0
  4 25  1  0
 25 26  2  0
 26 27  1  0
 27 28  1  0
 28 29  2  0
 29 30  1  0
 30  2  1  0
 24  7  1  0
 30 26  1  0
 15 10  1  0
 23 17  1  0
  3 31  1  0
  5 32  1  0
  5 33  1  0
 11 34  1  0
 12 35  1  0
 13 36  1  0
 14 37  1  0
 15 38  1  0
 18 39  1  0
 19 40  1  0
 22 41  1  0
 23 42  1  0
 24 43  1  0
 28 44  1  0
 29 45  1  0
M  CHG  1  21  -1
M  END
>  <UniqueID>  (16) 
16

>  <SMILES>  (16) 
O=c1cc(CSc2nc(-c3ccccc3)c(-c3ccc([O-])cc3)[nH]2)nc2sccn12

>  <Energy>  (16) 
116.67560127148582

>  <Genealogy>  (16) 
O=c1cc(CSc2nc(-c3ccccc3)c(-c3ccc([O-])cc3)[nH]2)nc2sccn12 (protonated)
O=c1cc(CSc2nc(-c3ccccc3)c(-c3ccc([O-])cc3)[nH]2)nc2sccn12 (3D coordinates assigned)
O=c1cc(CSc2nc(-c3ccccc3)c(-c3ccc([O-])cc3)[nH]2)nc2sccn12 (optimized conformer: 116.67560127148582 kcal/mol)

>  <smiles>  (16) 
O=c1cc(CSc2nc(-c3ccccc3)c(-c3ccc(O)cc3)[nH]2)nc2sccn12

>  <score_type>  (16) 
oracle

>  <origin>  (16) 
adgpu

>  <m_score__min__energy>  (16) 
-11

>  <m_primary>  (16) 
energy

$$$$
16:0
     RDKit          3D

 36 38  0  0  0  0  0  0  0  0999 V2000
   -2.8260   23.0980  -27.1320 O   0  0  0  0  0  0  0  0  0  0  0  0
   -2.8980   22.7670  -28.3460 C   0  0  0  0  0  0  0  0  0  0  0  0
   -2.2920   21.5530  -28.8100 N   0  0  0  0  0  0  0  0  0  0  0  0
   -2.0240   21.1970  -30.1740 C   0  0  0  0  0  0  0  0  0  0  0  0
   -0.8380   21.5760  -30.8280 C   0  0  0  0  0  0  0  0  0  0  0  0
   -0.6080   21.1870  -32.1510 C   0  0  0  0  0  0  0  0  0  0  0  0
   -1.5410   20.3960  -32.8320 C   0  0  0  0  0  0  0  0  0  0  0  0
   -1.2800   20.0420  -34.1630 O   0  0  0  0  0  0  0  0  0  0  0  0
   -0.1720   20.4610  -34.9140 C   0  0  0  0  0  0  0  0  0  0  0  0
    0.6060   19.4950  -35.5590 C   0  0  0  0  0  0  0  0  0  0  0  0
    1.7090   19.8730  -36.3270 C   0  0  0  0  0  0  0  0  0  0  0  0
    2.0370   21.2230  -36.4680 C   0  0  0  0  0  0  0  0  0  0  0  0
    1.2570   22.2140  -35.8460 C   0  0  0  0  0  0  0  0  0  0  0  0
    1.5880   23.6060  -36.0050 N   0  0  0  0  0  0  0  0  0  0  0  0
    2.0570   24.2610  -35.0520 O   0  0  0  0  0  0  0  0  0  0  0  0
    1.3990   24.2360  -37.2130 O   0  0  0  0  0  0  0  0  0  0  0  0
    0.1460   21.8220  -35.0750 C   0  0  0  0  0  0  0  0  0  0  0  0
   -2.7260   20.0160  -32.1780 C   0  0  0  0  0  0  0  0  0  0  0  0
   -2.9560   20.4030  -30.8540 C   0  0  0  0  0  0  0  0  0  0  0  0
   -3.5640   23.6590  -29.3080 C   0  0  0  0  0  0  0  0  0  0  0  0
   -4.7540   23.4140  -29.9620 C   0  0  0  0  0  0  0  0  0  0  0  0
   -4.9760   24.5260  -30.7520 C   0  0  0  0  0  0  0  0  0  0  0  0
   -6.0740   24.7010  -31.5870 O   0  0  0  0  0  0  0  0  0  0  0  0
   -3.9970   25.4440  -30.6250 N   0  0  0  0  0  0  0  0  0  0  0  0
   -3.1400   24.9020  -29.7390 C   0  0  0  0  0  0  0  0  0  0  0  0
   -1.9760   25.5380  -29.3250 O   0  0  0  0  0  0  0  0  0  0  0  0
   -0.0885   22.1808  -30.2965 H   0  0  0  0  0  0  0  0  0  0  0  0
    0.3134   21.5050  -32.6609 H   0  0  0  0  0  0  0  0  0  0  0  0
    0.3475   18.4303  -35.4608 H   0  0  0  0  0  0  0  0  0  0  0  0
    2.3214   19.1052  -36.8224 H   0  0  0  0  0  0  0  0  0  0  0  0
    2.9111   21.5131  -37.0695 H   0  0  0  0  0  0  0  0  0  0  0  0
   -0.4799   22.5878  -34.5935 H   0  0  0  0  0  0  0  0  0  0  0  0
   -3.4755   19.4117  -32.7100 H   0  0  0  0  0  0  0  0  0  0  0  0
   -3.8755   20.0815  -30.3430 H   0  0  0  0  0  0  0  0  0  0  0  0
   -5.3914   22.5219  -29.8733 H   0  0  0  0  0  0  0  0  0  0  0  0
   -6.9520   24.2320  -31.3980 H   0  0  0  0  0  0  0  0  0  0  0  0
  1  2  2  0
  2  3  1  0
  3  4  1  0
  4  5  2  0
  5  6  1  0
  6  7  2  0
  7  8  1  0
  8  9  1  0
  9 10  2  0
 10 11  1  0
 11 12  2  0
 12 13  1  0
 13 14  1  0
 14 15  2  0
 14 16  1  0
 13 17  2  0
  7 18  1  0
 18 19  2  0
  2 20  1  0
 20 21  1  0
 21 22  2  0
 22 23  1  0
 22 24  1  0
 24 25  1  0
 25 26  1  0
 19  4  1  0
 25 20  2  0
 17  9  1  0
  5 27  1  0
  6 28  1  0
 10 29  1  0
 11 30  1  0
 12 31  1  0
 17 32  1  0
 18 33  1  0
 19 34  1  0
 21 35  1  0
 23 36  1  0
M  CHG  5   3  -1  14   1  16  -1  24  -1  26  -1
M  END
>  <UniqueID>  (17) 
17

>  <SMILES>  (17) 
O=C([N-]c1ccc(Oc2cccc([N+](=O)[O-])c2)cc1)c1cc(O)[n-]c1[O-]

>  <Energy>  (17) 
75.43218622654702

>  <Genealogy>  (17) 
O=C([N-]c1ccc(Oc2cccc([N+](=O)[O-])c2)cc1)c1cc(O)[n-]c1[O-] (protonated)
O=C([N-]c1ccc(Oc2cccc([N+](=O)[O-])c2)cc1)c1cc(O)[n-]c1[O-] (3D coordinates assigned)
O=C([N-]c1ccc(Oc2cccc([N+](=O)[O-])c2)cc1)c1cc(O)[n-]c1[O-] (optimized conformer: 75.43218622654702 kcal/mol)

>  <smiles>  (17) 
O=C(Nc1ccc(Oc2cccc([N+](=O)[O-])c2)cc1)c1cc(O)[nH]c1O

>  <score_type>  (17) 
oracle

>  <origin>  (17) 
adgpu

>  <m_score__min__energy>  (17) 
-12.289999999999999

>  <m_primary>  (17) 
energy

$$$$
17:0
     RDKit          3D

 70 74  0  0  1  0  0  0  0  0999 V2000
   -3.9930   17.0370  -34.8260 C   0  0  0  0  0  0  0  0  0  0  0  0
   -4.3380   18.3020  -34.1840 C   0  0  0  0  0  0  0  0  0  0  0  0
   -5.6330   18.7920  -34.3410 C   0  0  0  0  0  0  0  0  0  0  0  0
   -6.0420   19.9530  -33.7660 C   0  0  0  0  0  0  0  0  0  0  0  0
   -5.1340   20.6590  -33.0070 C   0  0  0  0  0  0  0  0  0  0  0  0
   -5.4970   21.9240  -32.3500 C   0  0  0  0  0  0  0  0  0  0  0  0
   -4.8410   22.5270  -31.3030 C   0  0  0  0  0  0  0  0  0  0  0  0
   -5.5300   23.6820  -31.0190 C   0  0  0  0  0  0  0  0  0  0  0  0
   -5.3050   24.5730  -30.1310 N   0  0  0  0  0  0  0  0  0  0  0  0
   -4.1770   24.4180  -29.2540 C   0  0  0  0  0  0  0  0  0  0  0  0
   -4.2770   23.7880  -28.0320 C   0  0  0  0  0  0  0  0  0  0  0  0
   -3.1600   23.6660  -27.2250 C   0  0  0  0  0  0  0  0  0  0  0  0
   -1.9800   24.2000  -27.7140 C   0  0  0  0  0  0  0  0  0  0  0  0
   -0.7210   24.1350  -26.9500 C   0  0  0  0  0  0  0  0  0  0  0  0
   -0.0220   23.0890  -26.9160 O   0  0  0  0  0  0  0  0  0  0  0  0
   -0.3420   25.3310  -26.2450 N   0  0  0  0  0  0  0  0  0  0  0  0
   -1.1180   26.5350  -26.2640 C   0  0  0  0  0  0  0  0  0  0  0  0
   -1.0510   27.3620  -25.0360 C   0  0  0  0  0  0  0  0  0  0  0  0
   -0.0710   27.0410  -24.0870 N   0  0  0  0  0  0  0  0  0  0  0  0
    0.6480   28.1020  -23.4730 C   0  0  0  0  0  0  0  0  0  0  0  0
    0.5090   25.7580  -24.0760 C   0  0  0  0  0  0  0  0  0  0  0  0
    0.8910   25.3320  -25.4720 C   0  0  0  0  0  0  0  0  0  0  0  0
   -1.9180   24.8220  -28.9410 C   0  0  0  0  0  0  0  0  0  0  0  0
   -3.0150   24.9290  -29.7080 N   0  0  0  0  0  0  0  0  0  0  0  0
   -6.5850   23.7750  -31.8800 N   0  0  0  0  0  0  0  0  0  0  0  0
   -6.5530   22.7230  -32.6670 N   0  0  0  0  0  0  0  0  0  0  0  0
   -3.8530   20.1800  -32.8490 C   0  0  0  0  0  0  0  0  0  0  0  0
   -3.4290   18.9810  -33.4420 C   0  0  0  0  0  0  0  0  0  0  0  0
   -2.0930   18.6100  -33.1840 N   0  0  0  0  0  0  0  0  0  0  0  0
   -1.1640   17.9330  -34.0740 C   0  0  0  0  0  0  0  0  0  0  0  0
   -1.2850   17.8980  -35.3360 O   0  0  0  0  0  0  0  0  0  0  0  0
   -0.1660   17.3600  -33.2830 O   0  0  0  0  0  0  0  0  0  0  0  0
   -0.7270   17.3040  -31.9700 C   0  0  0  0  0  0  0  0  0  0  0  0
   -1.2980   18.7510  -31.9610 C   0  0  1  0  0  0  0  0  0  0  0  0
   -0.0870   19.5930  -32.0810 C   0  0  0  0  0  0  0  0  0  0  0  0
    0.2840   20.0230  -30.6460 C   0  0  0  0  0  0  0  0  0  0  0  0
   -0.1800   20.8420  -32.8700 C   0  0  0  0  0  0  0  0  0  0  0  0
   -3.7864   16.2793  -34.0558 H   0  0  0  0  0  0  0  0  0  0  0  0
   -4.8328   16.7030  -35.4530 H   0  0  0  0  0  0  0  0  0  0  0  0
   -3.0999   17.1756  -35.4530 H   0  0  0  0  0  0  0  0  0  0  0  0
   -6.3478   18.2198  -34.9507 H   0  0  0  0  0  0  0  0  0  0  0  0
   -7.0701   20.3195  -33.9026 H   0  0  0  0  0  0  0  0  0  0  0  0
   -3.9399   22.1571  -30.7919 H   0  0  0  0  0  0  0  0  0  0  0  0
   -5.2439   23.3827  -27.6989 H   0  0  0  0  0  0  0  0  0  0  0  0
   -3.2070   23.1698  -26.2444 H   0  0  0  0  0  0  0  0  0  0  0  0
   -0.7667   27.1503  -27.1054 H   0  0  0  0  0  0  0  0  0  0  0  0
   -2.1665   26.2146  -26.3530 H   0  0  0  0  0  0  0  0  0  0  0  0
   -0.8767   28.4019  -25.3494 H   0  0  0  0  0  0  0  0  0  0  0  0
   -2.0061   27.1759  -24.5231 H   0  0  0  0  0  0  0  0  0  0  0  0
    0.5821   28.0048  -22.3793 H   0  0  0  0  0  0  0  0  0  0  0  0
    1.7027   28.0574  -23.7822 H   0  0  0  0  0  0  0  0  0  0  0  0
    0.2157   29.0651  -23.7822 H   0  0  0  0  0  0  0  0  0  0  0  0
    1.4096   25.7745  -23.4446 H   0  0  0  0  0  0  0  0  0  0  0  0
   -0.2247   25.0423  -23.6768 H   0  0  0  0  0  0  0  0  0  0  0  0
    1.6119   26.0418  -25.9040 H   0  0  0  0  0  0  0  0  0  0  0  0
    1.3672   24.3404  -25.4735 H   0  0  0  0  0  0  0  0  0  0  0  0
   -0.9620   25.2346  -29.2957 H   0  0  0  0  0  0  0  0  0  0  0  0
   -7.2910   24.5480  -31.9070 H   0  0  0  0  0  0  0  0  0  0  0  0
   -7.2720   22.5700  -33.4210 H   0  0  0  0  0  0  0  0  0  0  0  0
   -3.1402   20.7547  -32.2394 H   0  0  0  0  0  0  0  0  0  0  0  0
   -1.5120   16.5390  -31.8777 H   0  0  0  0  0  0  0  0  0  0  0  0
   -0.0462   17.0330  -31.1496 H   0  0  0  0  0  0  0  0  0  0  0  0
   -1.8810   19.1658  -31.1255 H   0  0  0  0  0  0  0  0  0  0  0  0
    0.6380   18.9669  -32.6217 H   0  0  0  0  0  0  0  0  0  0  0  0
   -0.2578   19.3950  -29.9234 H   0  0  0  0  0  0  0  0  0  0  0  0
    1.3671   19.9035  -30.4959 H   0  0  0  0  0  0  0  0  0  0  0  0
    0.0071   21.0769  -30.4959 H   0  0  0  0  0  0  0  0  0  0  0  0
   -0.2441   21.7026  -32.1879 H   0  0  0  0  0  0  0  0  0  0  0  0
    0.7132   20.9424  -33.5042 H   0  0  0  0  0  0  0  0  0  0  0  0
   -1.0782   20.8091  -33.5042 H   0  0  0  0  0  0  0  0  0  0  0  0
  1  2  1  0
  2  3  2  0
  3  4  1  0
  4  5  2  0
  5  6  1  0
  6  7  2  0
  7  8  1  0
  8  9  2  0
  9 10  1  0
 10 11  2  0
 11 12  1  0
 12 13  2  0
 13 14  1  0
 14 15  2  0
 14 16  1  0
 16 17  1  0
 17 18  1  0
 18 19  1  0
 19 20  1  0
 19 21  1  0
 21 22  1  0
 13 23  1  0
 23 24  2  0
  8 25  1  0
 25 26  1  0
  5 27  1  0
 27 28  2  0
 28 29  1  0
 29 30  1  0
 30 31  2  0
 30 32  1  0
 32 33  1  0
 33 34  1  0
 34 35  1  0
 35 36  1  0
 35 37  1  0
 28  2  1  0
 34 29  1  0
 26  6  1  0
 24 10  1  0
 22 16  1  0
  1 38  1  0
  1 39  1  0
  1 40  1  0
  3 41  1  0
  4 42  1  0
  7 43  1  0
 11 44  1  0
 12 45  1  0
 17 46  1  0
 17 47  1  0
 18 48  1  0
 18 49  1  0
 20 50  1  0
 20 51  1  0
 20 52  1  0
 21 53  1  0
 21 54  1  0
 22 55  1  0
 22 56  1  0
 23 57  1  0
 25 58  1  0
 26 59  1  0
 27 60  1  0
 33 61  1  0
 33 62  1  0
 34 63  1  1
 35 64  1  0
 36 65  1  0
 36 66  1  0
 36 67  1  0
 37 68  1  0
 37 69  1  0
 37 70  1  0
M  END
>  <smiles>  (18) 
Cc1ccc(-c2cc(=Nc3ccc(C(=O)N4CCN(C)CC4)cn3)[nH][nH]2)cc1N1C(=O)OCC1C(C)C

>  <score_type>  (18) 
oracle

>  <origin>  (18) 
adgpu

>  <m_score__min__energy>  (18) 
-10.800000000000001

>  <m_primary>  (18) 
energy

$$$$
18:0
     RDKit          3D

 32 34  0  0  0  0  0  0  0  0999 V2000
   -9.6390   22.1850  -32.3670 O   0  0  0  0  0  0  0  0  0  0  0  0
   -8.7690   21.6070  -31.6640 C   0  0  0  0  0  0  0  0  0  0  0  0
   -8.2380   22.2980  -30.5250 N   0  0  0  0  0  0  0  0  0  0  0  0
   -7.0300   23.0710  -30.4910 C   0  0  0  0  0  0  0  0  0  0  0  0
   -7.0360   24.4330  -30.1480 C   0  0  0  0  0  0  0  0  0  0  0  0
   -5.8440   25.1590  -30.1370 C   0  0  0  0  0  0  0  0  0  0  0  0
   -4.6380   24.5430  -30.4810 C   0  0  0  0  0  0  0  0  0  0  0  0
   -3.4730   25.3030  -30.4950 O   0  0  0  0  0  0  0  0  0  0  0  0
   -4.6160   23.1780  -30.8370 C   0  0  0  0  0  0  0  0  0  0  0  0
   -3.3860   22.5180  -31.1880 N   0  0  0  0  0  0  0  0  0  0  0  0
   -2.2570   22.4430  -30.4580 C   0  0  0  0  0  0  0  0  0  0  0  0
   -1.3470   21.6840  -31.1570 C   0  0  0  0  0  0  0  0  0  0  0  0
   -1.8960   21.2770  -32.3210 N   0  0  0  0  0  0  0  0  0  0  0  0
   -3.1390   21.8010  -32.3040 C   0  0  0  0  0  0  0  0  0  0  0  0
   -5.8260   22.4590  -30.8540 C   0  0  0  0  0  0  0  0  0  0  0  0
   -8.2850   20.2640  -32.0660 C   0  0  0  0  0  0  0  0  0  0  0  0
   -8.9050   19.1100  -31.5590 C   0  0  0  0  0  0  0  0  0  0  0  0
   -8.4540   17.8410  -31.9320 C   0  0  0  0  0  0  0  0  0  0  0  0
   -7.3860   17.7100  -32.8250 C   0  0  0  0  0  0  0  0  0  0  0  0
   -6.9450   16.4420  -33.1870 O   0  0  0  0  0  0  0  0  0  0  0  0
   -6.7700   18.8530  -33.3500 C   0  0  0  0  0  0  0  0  0  0  0  0
   -5.4330   18.7080  -34.4800 Cl  0  0  0  0  0  0  0  0  0  0  0  0
   -7.2230   20.1240  -32.9780 C   0  0  0  0  0  0  0  0  0  0  0  0
   -7.9827   24.9288  -29.8873 H   0  0  0  0  0  0  0  0  0  0  0  0
   -5.8541   26.2224  -29.8558 H   0  0  0  0  0  0  0  0  0  0  0  0
   -2.0913   22.9074  -29.4747 H   0  0  0  0  0  0  0  0  0  0  0  0
   -0.3278   21.4453  -30.8190 H   0  0  0  0  0  0  0  0  0  0  0  0
   -3.8716   21.6591  -33.1122 H   0  0  0  0  0  0  0  0  0  0  0  0
   -5.8246   21.4015  -31.1569 H   0  0  0  0  0  0  0  0  0  0  0  0
   -9.7517   19.2059  -30.8633 H   0  0  0  0  0  0  0  0  0  0  0  0
   -8.9402   16.9433  -31.5223 H   0  0  0  0  0  0  0  0  0  0  0  0
   -6.7453   21.0197  -33.4017 H   0  0  0  0  0  0  0  0  0  0  0  0
  1  2  2  0
  2  3  1  0
  3  4  1  0
  4  5  2  0
  5  6  1  0
  6  7  2  0
  7  8  1  0
  7  9  1  0
  9 10  1  0
 10 11  1  0
 11 12  2  0
 12 13  1  0
 13 14  2  0
  9 15  2  0
  2 16  1  0
 16 17  2  0
 17 18  1  0
 18 19  2  0
 19 20  1  0
 19 21  1  0
 21 22  1  0
 21 23  2  0
 15  4  1  0
 23 16  1  0
 14 10  1  0
  5 24  1  0
  6 25  1  0
 11 26  1  0
 12 27  1  0
 14 28  1  0
 15 29  1  0
 17 30  1  0
 18 31  1  0
 23 32  1  0
M  CHG  3   3  -1   8  -1  20  -1
M  END
>  <UniqueID>  (19) 
18

>  <SMILES>  (19) 
O=C([N-]c1ccc([O-])c(-n2ccnc2)c1)c1ccc([O-])c(Cl)c1

>  <Energy>  (19) 
76.44658745720534

>  <Genealogy>  (19) 
O=C([N-]c1ccc([O-])c(-n2ccnc2)c1)c1ccc([O-])c(Cl)c1 (protonated)
O=C([N-]c1ccc([O-])c(-n2ccnc2)c1)c1ccc([O-])c(Cl)c1 (3D coordinates assigned)
O=C([N-]c1ccc([O-])c(-n2ccnc2)c1)c1ccc([O-])c(Cl)c1 (optimized conformer: 76.44658745720534 kcal/mol)

>  <smiles>  (19) 
O=C(Nc1ccc(O)c(-n2ccnc2)c1)c1ccc(O)c(Cl)c1

>  <score_type>  (19) 
oracle

>  <origin>  (19) 
adgpu

>  <m_score__min__energy>  (19) 
-11.08

>  <m_primary>  (19) 
energy

$$$$
19:0
     RDKit          3D

 42 44  0  0  0  0  0  0  0  0999 V2000
   -0.4960   22.1460  -28.0140 C   0  0  0  0  0  0  0  0  0  0  0  0
   -1.3850   23.1280  -28.7780 C   0  0  1  0  0  0  0  0  0  0  0  0
   -0.5690   24.2750  -29.1900 N   0  0  0  0  0  0  0  0  0  0  0  0
   -0.6860   25.5710  -28.0330 S   0  0  0  0  0  0  0  0  0  0  0  0
   -1.7780   25.0730  -26.7220 C   0  0  0  0  0  0  0  0  0  0  0  0
    0.6660   25.8820  -27.4550 O   0  0  0  0  0  0  0  0  0  0  0  0
   -1.2430   26.7980  -28.6980 O   0  0  0  0  0  0  0  0  0  0  0  0
   -1.9820   22.4370  -29.9840 C   0  0  0  0  0  0  0  0  0  0  0  0
   -1.4130   21.3200  -30.5990 C   0  0  0  0  0  0  0  0  0  0  0  0
   -2.2720   20.9820  -31.6160 C   0  0  0  0  0  0  0  0  0  0  0  0
   -2.1980   19.9500  -32.5490 C   0  0  0  0  0  0  0  0  0  0  0  0
   -3.2420   19.8330  -33.4830 C   0  0  0  0  0  0  0  0  0  0  0  0
   -4.3230   20.7410  -33.4610 C   0  0  0  0  0  0  0  0  0  0  0  0
   -4.3700   21.7700  -32.5050 C   0  0  0  0  0  0  0  0  0  0  0  0
   -3.3200   21.8640  -31.5860 C   0  0  0  0  0  0  0  0  0  0  0  0
   -3.1650   22.7550  -30.5830 N   0  0  0  0  0  0  0  0  0  0  0  0
   -4.3290   23.9840  -30.1520 S   0  0  0  0  0  0  0  0  0  0  0  0
   -3.9480   25.2660  -30.8370 O   0  0  0  0  0  0  0  0  0  0  0  0
   -4.3780   24.2220  -28.6710 O   0  0  0  0  0  0  0  0  0  0  0  0
   -5.9300   23.4680  -30.6700 C   0  0  0  0  0  0  0  0  0  0  0  0
   -6.7070   22.6560  -29.8310 C   0  0  0  0  0  0  0  0  0  0  0  0
   -7.9760   22.2350  -30.2390 C   0  0  0  0  0  0  0  0  0  0  0  0
   -8.4770   22.6270  -31.4830 C   0  0  0  0  0  0  0  0  0  0  0  0
   -7.7090   23.4410  -32.3220 C   0  0  0  0  0  0  0  0  0  0  0  0
   -6.4380   23.8630  -31.9150 C   0  0  0  0  0  0  0  0  0  0  0  0
   -0.6306   22.2947  -26.9324 H   0  0  0  0  0  0  0  0  0  0  0  0
   -0.7748   21.1157  -28.2800 H   0  0  0  0  0  0  0  0  0  0  0  0
    0.5569   22.3212  -28.2800 H   0  0  0  0  0  0  0  0  0  0  0  0
   -2.2076   23.4789  -28.1375 H   0  0  0  0  0  0  0  0  0  0  0  0
   -1.3073   25.2877  -25.7513 H   0  0  0  0  0  0  0  0  0  0  0  0
   -2.7239   25.6287  -26.8017 H   0  0  0  0  0  0  0  0  0  0  0  0
   -1.9786   23.9944  -26.8017 H   0  0  0  0  0  0  0  0  0  0  0  0
   -0.4739   20.8164  -30.3262 H   0  0  0  0  0  0  0  0  0  0  0  0
   -1.3500   19.2494  -32.5546 H   0  0  0  0  0  0  0  0  0  0  0  0
   -3.2167   19.0302  -34.2346 H   0  0  0  0  0  0  0  0  0  0  0  0
   -5.1342   20.6423  -34.1974 H   0  0  0  0  0  0  0  0  0  0  0  0
   -5.2088   22.4812  -32.4802 H   0  0  0  0  0  0  0  0  0  0  0  0
   -6.3168   22.3496  -28.8492 H   0  0  0  0  0  0  0  0  0  0  0  0
   -8.5807   21.5945  -29.5801 H   0  0  0  0  0  0  0  0  0  0  0  0
   -9.4759   22.2953  -31.8027 H   0  0  0  0  0  0  0  0  0  0  0  0
   -8.1037   23.7494  -33.3013 H   0  0  0  0  0  0  0  0  0  0  0  0
   -5.8364   24.5063  -32.5740 H   0  0  0  0  0  0  0  0  0  0  0  0
  1  2  1  0
  2  3  1  0
  3  4  1  0
  4  5  1  0
  4  6  2  0
  4  7  2  0
  2  8  1  0
  8  9  2  0
  9 10  1  0
 10 11  2  0
 11 12  1  0
 12 13  2  0
 13 14  1  0
 14 15  2  0
 15 16  1  0
 16 17  1  0
 17 18  2  0
 17 19  2  0
 17 20  1  0
 20 21  2  0
 21 22  1  0
 22 23  2  0
 23 24  1  0
 24 25  2  0
 16  8  1  0
 25 20  1  0
 15 10  1  0
  1 26  1  0
  1 27  1  0
  1 28  1  0
  2 29  1  1
  5 30  1  0
  5 31  1  0
  5 32  1  0
  9 33  1  0
 11 34  1  0
 12 35  1  0
 13 36  1  0
 14 37  1  0
 21 38  1  0
 22 39  1  0
 23 40  1  0
 24 41  1  0
 25 42  1  0
M  CHG  1   3  -1
M  END
>  <UniqueID>  (20) 
19

>  <SMILES>  (20) 
C[C@@H]([N-]S(C)(=O)=O)c1cc2ccccc2n1S(=O)(=O)c1ccccc1

>  <Energy>  (20) 
73.01960029064104

>  <Genealogy>  (20) 
CC([N-]S(C)(=O)=O)c1cc2ccccc2n1S(=O)(=O)c1ccccc1 (protonated)
C[C@@H]([N-]S(C)(=O)=O)c1cc2ccccc2n1S(=O)(=O)c1ccccc1 (chirality)
C[C@@H]([N-]S(C)(=O)=O)c1cc2ccccc2n1S(=O)(=O)c1ccccc1 (3D coordinates assigned)
C[C@@H]([N-]S(C)(=O)=O)c1cc2ccccc2n1S(=O)(=O)c1ccccc1 (optimized conformer: 73.01960029064104 kcal/mol)

>  <smiles>  (20) 
CC(NS(C)(=O)=O)c1cc2ccccc2n1S(=O)(=O)c1ccccc1

>  <score_type>  (20) 
oracle

>  <origin>  (20) 
adgpu

>  <m_score__min__energy>  (20) 
-10.460000000000001

>  <m_primary>  (20) 
energy

$$$$
20:0
     RDKit          3D

 45 47  0  0  0  0  0  0  0  0999 V2000
   -4.3110   25.5290  -30.8080 O   0  0  0  0  0  0  0  0  0  0  0  0
   -3.6510   24.5360  -30.4050 C   0  0  0  0  0  0  0  0  0  0  0  0
   -3.0390   24.5730  -29.0330 C   0  0  0  0  0  0  0  0  0  0  0  0
   -1.9890   25.5840  -28.9640 N   0  0  0  0  0  0  0  0  0  0  0  0
   -0.8610   25.5400  -28.0790 C   0  0  0  0  0  0  0  0  0  0  0  0
    0.1470   24.8620  -28.4100 O   0  0  0  0  0  0  0  0  0  0  0  0
   -0.8210   26.3130  -26.8250 C   0  0  0  0  0  0  0  0  0  0  0  0
   -1.2360   25.7260  -25.6220 C   0  0  0  0  0  0  0  0  0  0  0  0
   -1.2010   26.4620  -24.4370 C   0  0  0  0  0  0  0  0  0  0  0  0
   -0.7690   27.7890  -24.4710 C   0  0  0  0  0  0  0  0  0  0  0  0
   -0.3850   28.3520  -25.6470 N   0  0  0  0  0  0  0  0  0  0  0  0
   -0.4040   27.6510  -26.8130 C   0  0  0  0  0  0  0  0  0  0  0  0
   -3.4790   23.4180  -31.2860 N   0  0  0  0  0  0  0  0  0  0  0  0
   -4.4750   22.4400  -31.6140 C   0  0  0  0  0  0  0  0  0  0  0  0
   -4.2210   21.0930  -31.3350 C   0  0  0  0  0  0  0  0  0  0  0  0
   -5.1830   20.1190  -31.6260 C   0  0  0  0  0  0  0  0  0  0  0  0
   -6.4020   20.4850  -32.2120 C   0  0  0  0  0  0  0  0  0  0  0  0
   -7.6490   19.2700  -32.5050 S   0  0  0  0  0  0  0  0  0  0  0  0
   -8.8810   19.9440  -33.0400 O   0  0  0  0  0  0  0  0  0  0  0  0
   -8.0110   18.6100  -31.2030 O   0  0  0  0  0  0  0  0  0  0  0  0
   -7.1090   18.0450  -33.6350 N   0  0  0  0  0  0  0  0  0  0  0  0
   -6.0960   18.5760  -34.5540 C   0  0  0  0  0  0  0  0  0  0  0  0
   -4.7210   18.1510  -34.0560 C   0  0  0  0  0  0  0  0  0  0  0  0
   -4.9720   17.1280  -32.9670 C   0  0  0  0  0  0  0  0  0  0  0  0
   -6.4780   16.9230  -32.9340 C   0  0  0  0  0  0  0  0  0  0  0  0
   -6.6360   21.8260  -32.5400 C   0  0  0  0  0  0  0  0  0  0  0  0
   -5.6740   22.7990  -32.2510 C   0  0  0  0  0  0  0  0  0  0  0  0
   -3.8195   24.8121  -28.2957 H   0  0  0  0  0  0  0  0  0  0  0  0
   -2.5976   23.5891  -28.8159 H   0  0  0  0  0  0  0  0  0  0  0  0
   -1.5895   24.6844  -25.6119 H   0  0  0  0  0  0  0  0  0  0  0  0
   -1.5103   26.0018  -23.4870 H   0  0  0  0  0  0  0  0  0  0  0  0
   -0.7393   28.3804  -23.5440 H   0  0  0  0  0  0  0  0  0  0  0  0
   -0.0910   28.1360  -27.7494 H   0  0  0  0  0  0  0  0  0  0  0  0
   -3.2615   20.7982  -30.8852 H   0  0  0  0  0  0  0  0  0  0  0  0
   -4.9815   19.0628  -31.3939 H   0  0  0  0  0  0  0  0  0  0  0  0
   -6.2650   18.1749  -35.5643 H   0  0  0  0  0  0  0  0  0  0  0  0
   -6.1602   19.6735  -34.5922 H   0  0  0  0  0  0  0  0  0  0  0  0
   -4.1390   17.7031  -34.8750 H   0  0  0  0  0  0  0  0  0  0  0  0
   -4.1448   19.0090  -33.6793 H   0  0  0  0  0  0  0  0  0  0  0  0
   -4.4614   16.1829  -33.2037 H   0  0  0  0  0  0  0  0  0  0  0  0
   -4.5872   17.4680  -31.9942 H   0  0  0  0  0  0  0  0  0  0  0  0
   -6.7362   15.9784  -33.4351 H   0  0  0  0  0  0  0  0  0  0  0  0
   -6.8323   16.8777  -31.8936 H   0  0  0  0  0  0  0  0  0  0  0  0
   -7.5793   22.1150  -33.0264 H   0  0  0  0  0  0  0  0  0  0  0  0
   -5.8570   23.8489  -32.5235 H   0  0  0  0  0  0  0  0  0  0  0  0
  1  2  2  0
  2  3  1  0
  3  4  1  0
  4  5  1  0
  5  6  2  0
  5  7  1  0
  7  8  2  0
  8  9  1  0
  9 10  2  0
 10 11  1  0
 11 12  2  0
  2 13  1  0
 13 14  1  0
 14 15  2  0
 15 16  1  0
 16 17  2  0
 17 18  1  0
 18 19  2  0
 18 20  2  0
 18 21  1  0
 21 22  1  0
 22 23  1  0
 23 24  1  0
 24 25  1  0
 17 26  1  0
 26 27  2  0
 12  7  1  0
 27 14  1  0
 25 21  1  0
  3 28  1  0
  3 29  1  0
  8 30  1  0
  9 31  1  0
 10 32  1  0
 12 33  1  0
 15 34  1  0
 16 35  1  0
 22 36  1  0
 22 37  1  0
 23 38  1  0
 23 39  1  0
 24 40  1  0
 24 41  1  0
 25 42  1  0
 25 43  1  0
 26 44  1  0
 27 45  1  0
M  CHG  2   4  -1  13  -1
M  END
>  <UniqueID>  (21) 
20

>  <SMILES>  (21) 
O=C(C[N-]C(=O)c1cccnc1)[N-]c1ccc(S(=O)(=O)N2CCCC2)cc1

>  <Energy>  (21) 
52.96144419087603

>  <Genealogy>  (21) 
O=C(C[N-]C(=O)c1cccnc1)[N-]c1ccc(S(=O)(=O)N2CCCC2)cc1 (protonated)
O=C(C[N-]C(=O)c1cccnc1)[N-]c1ccc(S(=O)(=O)N2CCCC2)cc1 (3D coordinates assigned)
O=C(C[N-]C(=O)c1cccnc1)[N-]c1ccc(S(=O)(=O)N2CCCC2)cc1 (nonaromatic ring conformer: 52.96144419087603 kcal/mol)

>  <smiles>  (21) 
O=C(CNC(=O)c1cccnc1)Nc1ccc(S(=O)(=O)N2CCCC2)cc1

>  <score_type>  (21) 
oracle

>  <origin>  (21) 
adgpu

>  <m_score__min__energy>  (21) 
-12

>  <m_primary>  (21) 
energy

$$$$
21:0
     RDKit          3D

 51 54  0  0  0  0  0  0  0  0999 V2000
   -5.5140   26.1290  -30.7130 O   0  0  0  0  0  0  0  0  0  0  0  0
   -4.9010   25.0270  -30.7400 C   0  0  0  0  0  0  0  0  0  0  0  0
   -3.4920   24.9830  -30.4730 N   0  0  0  0  0  0  0  0  0  0  0  0
   -2.8400   24.2690  -29.4100 C   0  0  0  0  0  0  0  0  0  0  0  0
   -3.1980   24.5620  -28.0900 C   0  0  0  0  0  0  0  0  0  0  0  0
   -2.5820   23.8990  -27.0270 C   0  0  0  0  0  0  0  0  0  0  0  0
   -1.5820   22.9550  -27.2730 C   0  0  0  0  0  0  0  0  0  0  0  0
   -1.1760   22.6840  -28.5920 C   0  0  0  0  0  0  0  0  0  0  0  0
   -0.1570   21.7200  -28.8910 N   0  0  0  0  0  0  0  0  0  0  0  0
   -0.1630   20.3310  -28.5340 C   0  0  0  0  0  0  0  0  0  0  0  0
    0.7700   19.5680  -28.9020 O   0  0  0  0  0  0  0  0  0  0  0  0
   -1.2930   19.7760  -27.7810 C   0  0  0  0  0  0  0  0  0  0  0  0
   -2.6300   20.0370  -28.0110 C   0  0  0  0  0  0  0  0  0  0  0  0
   -3.3170   19.3050  -27.0670 C   0  0  0  0  0  0  0  0  0  0  0  0
   -2.3610   18.6450  -26.3220 C   0  0  0  0  0  0  0  0  0  0  0  0
   -1.1640   18.9470  -26.7700 O   0  0  0  0  0  0  0  0  0  0  0  0
   -1.8160   23.3350  -29.6550 C   0  0  0  0  0  0  0  0  0  0  0  0
   -5.6270   23.7850  -31.0930 C   0  0  0  0  0  0  0  0  0  0  0  0
   -6.9900   23.6420  -30.7840 C   0  0  0  0  0  0  0  0  0  0  0  0
   -7.6740   22.4770  -31.1310 C   0  0  0  0  0  0  0  0  0  0  0  0
   -7.0180   21.4310  -31.7880 C   0  0  0  0  0  0  0  0  0  0  0  0
   -7.9770   20.0170  -32.2090 Cl  0  0  0  0  0  0  0  0  0  0  0  0
   -5.6430   21.5530  -32.0990 C   0  0  0  0  0  0  0  0  0  0  0  0
   -4.7230   20.2970  -32.9470 S   0  0  0  0  0  0  0  0  0  0  0  0
   -4.5570   19.1320  -32.0090 O   0  0  0  0  0  0  0  0  0  0  0  0
   -5.4570   19.8060  -34.1630 O   0  0  0  0  0  0  0  0  0  0  0  0
   -3.1450   20.9230  -33.3820 N   0  0  0  0  0  0  0  0  0  0  0  0
   -2.3800   19.9840  -34.2310 C   0  0  0  0  0  0  0  0  0  0  0  0
   -1.3700   19.1420  -33.4290 C   0  0  0  0  0  0  0  0  0  0  0  0
   -1.8350   18.9320  -32.1160 O   0  0  0  0  0  0  0  0  0  0  0  0
   -1.8210   20.1510  -31.3940 C   0  0  0  0  0  0  0  0  0  0  0  0
   -2.3810   21.3500  -32.1960 C   0  0  0  0  0  0  0  0  0  0  0  0
   -4.9670   22.7340  -31.7530 C   0  0  0  0  0  0  0  0  0  0  0  0
   -3.9697   25.3195  -27.8882 H   0  0  0  0  0  0  0  0  0  0  0  0
   -2.8848   24.1205  -25.9930 H   0  0  0  0  0  0  0  0  0  0  0  0
   -1.1112   22.4226  -26.4334 H   0  0  0  0  0  0  0  0  0  0  0  0
   -3.0566   20.6917  -28.7852 H   0  0  0  0  0  0  0  0  0  0  0  0
   -4.4079   19.2565  -26.9340 H   0  0  0  0  0  0  0  0  0  0  0  0
   -2.5700   17.9684  -25.4803 H   0  0  0  0  0  0  0  0  0  0  0  0
   -1.5155   23.1142  -30.6899 H   0  0  0  0  0  0  0  0  0  0  0  0
   -7.5210   24.4537  -30.2652 H   0  0  0  0  0  0  0  0  0  0  0  0
   -8.7417   22.3798  -30.8851 H   0  0  0  0  0  0  0  0  0  0  0  0
   -3.0872   19.3044  -34.7289 H   0  0  0  0  0  0  0  0  0  0  0  0
   -1.8099   20.5827  -34.9567 H   0  0  0  0  0  0  0  0  0  0  0  0
   -1.2349   18.1695  -33.9250 H   0  0  0  0  0  0  0  0  0  0  0  0
   -0.4125   19.6817  -33.3852 H   0  0  0  0  0  0  0  0  0  0  0  0
   -2.4292   20.0249  -30.4861 H   0  0  0  0  0  0  0  0  0  0  0  0
   -0.7697   20.3785  -31.1637 H   0  0  0  0  0  0  0  0  0  0  0  0
   -3.0430   21.9353  -31.5409 H   0  0  0  0  0  0  0  0  0  0  0  0
   -1.5271   21.9496  -32.5443 H   0  0  0  0  0  0  0  0  0  0  0  0
   -3.9009   22.8387  -32.0031 H   0  0  0  0  0  0  0  0  0  0  0  0
  1  2  2  0
  2  3  1  0
  3  4  1  0
  4  5  2  0
  5  6  1  0
  6  7  2  0
  7  8  1  0
  8  9  1  0
  9 10  1  0
 10 11  2  0
 10 12  1  0
 12 13  2  0
 13 14  1  0
 14 15  2  0
 15 16  1  0
  8 17  2  0
  2 18  1  0
 18 19  2  0
 19 20  1  0
 20 21  2  0
 21 22  1  0
 21 23  1  0
 23 24  1  0
 24 25  2  0
 24 26  2  0
 24 27  1  0
 27 28  1  0
 28 29  1  0
 29 30  1  0
 30 31  1  0
 31 32  1  0
 23 33  2  0
 17  4  1  0
 33 18  1  0
 16 12  1  0
 32 27  1  0
  5 34  1  0
  6 35  1  0
  7 36  1  0
 13 37  1  0
 14 38  1  0
 15 39  1  0
 17 40  1  0
 19 41  1  0
 20 42  1  0
 28 43  1  0
 28 44  1  0
 29 45  1  0
 29 46  1  0
 31 47  1  0
 31 48  1  0
 32 49  1  0
 32 50  1  0
 33 51  1  0
M  CHG  2   3  -1   9  -1
M  END
>  <UniqueID>  (22) 
21

>  <SMILES>  (22) 
O=C([N-]c1cccc([N-]C(=O)c2ccco2)c1)c1ccc(Cl)c(S(=O)(=O)N2CCOCC2)c1

>  <Energy>  (22) 
101.35571442674824

>  <Genealogy>  (22) 
O=C([N-]c1cccc([N-]C(=O)c2ccco2)c1)c1ccc(Cl)c(S(=O)(=O)N2CCOCC2)c1 (protonated)
O=C([N-]c1cccc([N-]C(=O)c2ccco2)c1)c1ccc(Cl)c(S(=O)(=O)N2CCOCC2)c1 (3D coordinates assigned)
O=C([N-]c1cccc([N-]C(=O)c2ccco2)c1)c1ccc(Cl)c(S(=O)(=O)N2CCOCC2)c1 (nonaromatic ring conformer: 101.35571442674824 kcal/mol)

>  <smiles>  (22) 
O=C(Nc1cccc(NC(=O)c2ccco2)c1)c1ccc(Cl)c(S(=O)(=O)N2CCOCC2)c1

>  <score_type>  (22) 
oracle

>  <origin>  (22) 
adgpu

>  <m_score__min__energy>  (22) 
-12.33

>  <m_primary>  (22) 
energy

$$$$
22:0
     RDKit          3D

 55 58  0  0  0  0  0  0  0  0999 V2000
   -7.2190   19.9200  -33.4070 C   0  0  0  0  0  0  0  0  0  0  0  0
   -6.7100   21.1160  -32.6470 C   0  0  0  0  0  0  0  0  0  0  0  0
   -7.6400   22.0430  -32.1450 C   0  0  0  0  0  0  0  0  0  0  0  0
   -7.2120   23.1800  -31.4590 C   0  0  0  0  0  0  0  0  0  0  0  0
   -5.8490   23.4110  -31.2620 C   0  0  0  0  0  0  0  0  0  0  0  0
   -5.3090   24.9010  -30.4920 S   0  0  0  0  0  0  0  0  0  0  0  0
   -5.8710   26.0770  -31.2400 O   0  0  0  0  0  0  0  0  0  0  0  0
   -5.8280   24.9420  -29.0810 O   0  0  0  0  0  0  0  0  0  0  0  0
   -3.5780   25.0210  -30.4580 N   0  0  0  0  0  0  0  0  0  0  0  0
   -2.7380   24.1950  -29.6450 C   0  0  0  0  0  0  0  0  0  0  0  0
   -3.0890   22.8690  -29.3580 C   0  0  0  0  0  0  0  0  0  0  0  0
   -2.2460   22.0700  -28.5740 C   0  0  0  0  0  0  0  0  0  0  0  0
   -1.0580   22.6050  -28.0540 C   0  0  0  0  0  0  0  0  0  0  0  0
   -0.7220   23.9380  -28.3130 C   0  0  0  0  0  0  0  0  0  0  0  0
   -1.5650   24.7340  -29.0980 C   0  0  0  0  0  0  0  0  0  0  0  0
   -1.2260   26.0570  -29.3440 O   0  0  0  0  0  0  0  0  0  0  0  0
   -0.1420   21.7020  -27.2720 C   0  0  0  0  0  0  0  0  0  0  0  0
   -0.9380   20.8280  -26.2850 C   0  0  0  0  0  0  0  0  0  0  0  0
   -2.2700   20.2600  -26.8450 C   0  0  0  0  0  0  0  0  0  0  0  0
   -2.5560   20.6230  -28.3150 C   0  0  0  0  0  0  0  0  0  0  0  0
   -4.9130   22.4840  -31.7350 C   0  0  0  0  0  0  0  0  0  0  0  0
   -5.3270   21.3220  -32.4070 C   0  0  0  0  0  0  0  0  0  0  0  0
   -4.0890   20.1990  -32.9960 S   0  0  0  0  0  0  0  0  0  0  0  0
   -3.7980   19.1630  -31.9480 O   0  0  0  0  0  0  0  0  0  0  0  0
   -4.6300   19.5210  -34.2260 O   0  0  0  0  0  0  0  0  0  0  0  0
   -2.6240   21.0750  -33.3990 N   0  0  0  0  0  0  0  0  0  0  0  0
   -1.9590   21.6440  -32.2100 C   0  0  0  0  0  0  0  0  0  0  0  0
   -1.0460   20.6310  -31.4960 C   0  0  0  0  0  0  0  0  0  0  0  0
   -0.1370   20.0330  -32.3980 O   0  0  0  0  0  0  0  0  0  0  0  0
   -0.8510   19.3240  -33.3860 C   0  0  0  0  0  0  0  0  0  0  0  0
   -1.6990   20.2850  -34.2290 C   0  0  0  0  0  0  0  0  0  0  0  0
   -7.5479   19.1471  -32.6968 H   0  0  0  0  0  0  0  0  0  0  0  0
   -8.0669   20.2213  -34.0397 H   0  0  0  0  0  0  0  0  0  0  0  0
   -6.4140   19.5179  -34.0397 H   0  0  0  0  0  0  0  0  0  0  0  0
   -8.7160   21.8702  -32.2946 H   0  0  0  0  0  0  0  0  0  0  0  0
   -7.9509   23.8971  -31.0719 H   0  0  0  0  0  0  0  0  0  0  0  0
   -4.0295   22.4539  -29.7495 H   0  0  0  0  0  0  0  0  0  0  0  0
    0.2053   24.3612  -27.8996 H   0  0  0  0  0  0  0  0  0  0  0  0
    0.4029   21.0502  -27.9707 H   0  0  0  0  0  0  0  0  0  0  0  0
    0.5599   22.3261  -26.6995 H   0  0  0  0  0  0  0  0  0  0  0  0
   -0.3023   19.9804  -25.9892 H   0  0  0  0  0  0  0  0  0  0  0  0
   -1.2102   21.4816  -25.4431 H   0  0  0  0  0  0  0  0  0  0  0  0
   -2.2366   19.1636  -26.7629 H   0  0  0  0  0  0  0  0  0  0  0  0
   -3.0763   20.7136  -26.2499 H   0  0  0  0  0  0  0  0  0  0  0  0
   -1.9318   19.9971  -28.9696 H   0  0  0  0  0  0  0  0  0  0  0  0
   -3.6219   20.4468  -28.5221 H   0  0  0  0  0  0  0  0  0  0  0  0
   -3.8398   22.6677  -31.5785 H   0  0  0  0  0  0  0  0  0  0  0  0
   -1.3505   22.5043  -32.5255 H   0  0  0  0  0  0  0  0  0  0  0  0
   -2.7455   21.9394  -31.4999 H   0  0  0  0  0  0  0  0  0  0  0  0
   -0.4800   21.1514  -30.7093 H   0  0  0  0  0  0  0  0  0  0  0  0
   -1.6767   19.8401  -31.0638 H   0  0  0  0  0  0  0  0  0  0  0  0
   -0.1394   18.7996  -34.0407 H   0  0  0  0  0  0  0  0  0  0  0  0
   -1.5170   18.6003  -32.8934 H   0  0  0  0  0  0  0  0  0  0  0  0
   -1.0290   20.9719  -34.7667 H   0  0  0  0  0  0  0  0  0  0  0  0
   -2.2982   19.6851  -34.9298 H   0  0  0  0  0  0  0  0  0  0  0  0
  1  2  1  0
  2  3  2  0
  3  4  1  0
  4  5  2  0
  5  6  1  0
  6  7  2  0
  6  8  2  0
  6  9  1  0
  9 10  1  0
 10 11  2  0
 11 12  1  0
 12 13  2  0
 13 14  1  0
 14 15  2  0
 15 16  1  0
 13 17  1  0
 17 18  1  0
 18 19  1  0
 19 20  1  0
  5 21  1  0
 21 22  2  0
 22 23  1  0
 23 24  2  0
 23 25  2  0
 23 26  1  0
 26 27  1  0
 27 28  1  0
 28 29  1  0
 29 30  1  0
 30 31  1  0
 22  2  1  0
 31 26  1  0
 15 10  1  0
 20 12  1  0
  1 32  1  0
  1 33  1  0
  1 34  1  0
  3 35  1  0
  4 36  1  0
 11 37  1  0
 14 38  1  0
 17 39  1  0
 17 40  1  0
 18 41  1  0
 18 42  1  0
 19 43  1  0
 19 44  1  0
 20 45  1  0
 20 46  1  0
 21 47  1  0
 27 48  1  0
 27 49  1  0
 28 50  1  0
 28 51  1  0
 30 52  1  0
 30 53  1  0
 31 54  1  0
 31 55  1  0
M  CHG  2   9  -1  16  -1
M  END
>  <UniqueID>  (23) 
22

>  <SMILES>  (23) 
Cc1ccc(S(=O)(=O)[N-]c2cc3c(cc2[O-])CCCC3)cc1S(=O)(=O)N1CCOCC1

>  <Energy>  (23) 
76.24952503471047

>  <Genealogy>  (23) 
Cc1ccc(S(=O)(=O)[N-]c2cc3c(cc2[O-])CCCC3)cc1S(=O)(=O)N1CCOCC1 (protonated)
Cc1ccc(S(=O)(=O)[N-]c2cc3c(cc2[O-])CCCC3)cc1S(=O)(=O)N1CCOCC1 (3D coordinates assigned)
Cc1ccc(S(=O)(=O)[N-]c2cc3c(cc2[O-])CCCC3)cc1S(=O)(=O)N1CCOCC1 (nonaromatic ring conformer: 76.24952503471047 kcal/mol)

>  <smiles>  (23) 
Cc1ccc(S(=O)(=O)Nc2cc3c(cc2O)CCCC3)cc1S(=O)(=O)N1CCOCC1

>  <score_type>  (23) 
oracle

>  <origin>  (23) 
adgpu

>  <m_score__min__energy>  (23) 
-15.44

>  <m_primary>  (23) 
energy

$$$$
23:0
     RDKit          3D

 61 64  0  0  0  0  0  0  0  0999 V2000
   -9.1600   21.3440  -31.1470 C   0  0  0  0  0  0  0  0  0  0  0  0
   -7.9830   20.6280  -31.7480 C   0  0  0  0  0  0  0  0  0  0  0  0
   -8.1850   19.4970  -32.5530 C   0  0  0  0  0  0  0  0  0  0  0  0
   -7.0990   18.8210  -33.1130 C   0  0  0  0  0  0  0  0  0  0  0  0
   -5.7940   19.2880  -32.9060 C   0  0  0  0  0  0  0  0  0  0  0  0
   -4.4210   18.4520  -33.6480 S   0  0  0  0  0  0  0  0  0  0  0  0
   -4.2450   17.1120  -32.9850 O   0  0  0  0  0  0  0  0  0  0  0  0
   -4.7200   18.2150  -35.1050 O   0  0  0  0  0  0  0  0  0  0  0  0
   -2.9240   19.3470  -33.5010 N   0  0  0  0  0  0  0  0  0  0  0  0
   -3.0910   20.7820  -33.7690 C   0  0  0  0  0  0  0  0  0  0  0  0
   -2.2530   21.5490  -32.7490 C   0  0  0  0  0  0  0  0  0  0  0  0
   -1.5270   20.4890  -31.9440 C   0  0  0  0  0  0  0  0  0  0  0  0
   -2.3460   19.2310  -32.1600 C   0  0  0  0  0  0  0  0  0  0  0  0
   -5.5890   20.4330  -32.1250 C   0  0  0  0  0  0  0  0  0  0  0  0
   -6.6710   21.0860  -31.5100 C   0  0  0  0  0  0  0  0  0  0  0  0
   -6.4610   22.2400  -30.6810 N   0  0  0  0  0  0  0  0  0  0  0  0
   -5.4480   23.2340  -30.8850 C   0  0  0  0  0  0  0  0  0  0  0  0
   -5.5290   24.0100  -31.8770 O   0  0  0  0  0  0  0  0  0  0  0  0
   -4.2790   23.3320  -29.9690 C   0  0  0  0  0  0  0  0  0  0  0  0
   -3.8860   22.1990  -29.2300 C   0  0  0  0  0  0  0  0  0  0  0  0
   -2.7640   22.2380  -28.3930 C   0  0  0  0  0  0  0  0  0  0  0  0
   -2.2800   20.7990  -27.4920 S   0  0  0  0  0  0  0  0  0  0  0  0
   -3.5100   20.0190  -27.1120 O   0  0  0  0  0  0  0  0  0  0  0  0
   -1.5850   21.2140  -26.2260 O   0  0  0  0  0  0  0  0  0  0  0  0
   -1.2120   19.7820  -28.4290 N   0  0  0  0  0  0  0  0  0  0  0  0
   -0.0440   20.5390  -28.9490 C   0  0  0  0  0  0  0  0  0  0  0  0
    1.2490   20.2510  -28.1760 C   0  0  0  0  0  0  0  0  0  0  0  0
    1.5980   18.7540  -28.2220 C   0  0  0  0  0  0  0  0  0  0  0  0
    0.3490   17.8540  -28.2710 C   0  0  0  0  0  0  0  0  0  0  0  0
   -0.8690   18.5610  -27.6690 C   0  0  0  0  0  0  0  0  0  0  0  0
   -2.0320   23.4240  -28.2750 C   0  0  0  0  0  0  0  0  0  0  0  0
   -2.4130   24.5580  -28.9930 C   0  0  0  0  0  0  0  0  0  0  0  0
   -3.5260   24.5210  -29.8370 C   0  0  0  0  0  0  0  0  0  0  0  0
   -3.8630   25.6700  -30.5420 O   0  0  0  0  0  0  0  0  0  0  0  0
   -9.0928   21.3031  -30.0498 H   0  0  0  0  0  0  0  0  0  0  0  0
   -9.1575   22.3937  -31.4757 H   0  0  0  0  0  0  0  0  0  0  0  0
  -10.0910   20.8591  -31.4757 H   0  0  0  0  0  0  0  0  0  0  0  0
   -9.2075   19.1396  -32.7447 H   0  0  0  0  0  0  0  0  0  0  0  0
   -7.2685   17.9186  -33.7188 H   0  0  0  0  0  0  0  0  0  0  0  0
   -2.7462   21.0149  -34.7873 H   0  0  0  0  0  0  0  0  0  0  0  0
   -4.1503   21.0669  -33.6874 H   0  0  0  0  0  0  0  0  0  0  0  0
   -1.5325   22.2055  -33.2588 H   0  0  0  0  0  0  0  0  0  0  0  0
   -2.8755   22.1925  -32.1099 H   0  0  0  0  0  0  0  0  0  0  0  0
   -0.4998   20.3539  -32.3137 H   0  0  0  0  0  0  0  0  0  0  0  0
   -1.4374   20.7557  -30.8806 H   0  0  0  0  0  0  0  0  0  0  0  0
   -1.7024   18.3412  -32.0975 H   0  0  0  0  0  0  0  0  0  0  0  0
   -3.1278   19.1243  -31.3936 H   0  0  0  0  0  0  0  0  0  0  0  0
   -4.5700   20.8252  -31.9917 H   0  0  0  0  0  0  0  0  0  0  0  0
   -4.4691   21.2698  -29.3116 H   0  0  0  0  0  0  0  0  0  0  0  0
    0.1097   20.2657  -30.0034 H   0  0  0  0  0  0  0  0  0  0  0  0
   -0.2666   21.6097  -28.8306 H   0  0  0  0  0  0  0  0  0  0  0  0
    2.0721   20.8260  -28.6252 H   0  0  0  0  0  0  0  0  0  0  0  0
    1.1017   20.5440  -27.1260 H   0  0  0  0  0  0  0  0  0  0  0  0
    2.2058   18.5617  -29.1184 H   0  0  0  0  0  0  0  0  0  0  0  0
    2.1461   18.5120  -27.2995 H   0  0  0  0  0  0  0  0  0  0  0  0
    0.1330   17.5972  -29.3186 H   0  0  0  0  0  0  0  0  0  0  0  0
    0.5507   16.9470  -27.6822 H   0  0  0  0  0  0  0  0  0  0  0  0
   -1.7278   17.8739  -27.6883 H   0  0  0  0  0  0  0  0  0  0  0  0
   -0.6261   18.8518  -26.6363 H   0  0  0  0  0  0  0  0  0  0  0  0
   -1.1534   23.4628  -27.6142 H   0  0  0  0  0  0  0  0  0  0  0  0
   -1.8332   25.4875  -28.8940 H   0  0  0  0  0  0  0  0  0  0  0  0
  1  2  1  0
  2  3  2  0
  3  4  1  0
  4  5  2  0
  5  6  1  0
  6  7  2  0
  6  8  2  0
  6  9  1  0
  9 10  1  0
 10 11  1  0
 11 12  1  0
 12 13  1  0
  5 14  1  0
 14 15  2  0
 15 16  1  0
 16 17  1  0
 17 18  2  0
 17 19  1  0
 19 20  2  0
 20 21  1  0
 21 22  1  0
 22 23  2  0
 22 24  2  0
 22 25  1  0
 25 26  1  0
 26 27  1  0
 27 28  1  0
 28 29  1  0
 29 30  1  0
 21 31  2  0
 31 32  1  0
 32 33  2  0
 33 34  1  0
 15  2  1  0
 33 19  1  0
 13  9  1  0
 30 25  1  0
  1 35  1  0
  1 36  1  0
  1 37  1  0
  3 38  1  0
  4 39  1  0
 10 40  1  0
 10 41  1  0
 11 42  1  0
 11 43  1  0
 12 44  1  0
 12 45  1  0
 13 46  1  0
 13 47  1  0
 14 48  1  0
 20 49  1  0
 26 50  1  0
 26 51  1  0
 27 52  1  0
 27 53  1  0
 28 54  1  0
 28 55  1  0
 29 56  1  0
 29 57  1  0
 30 58  1  0
 30 59  1  0
 31 60  1  0
 32 61  1  0
M  CHG  2  16  -1  34  -1
M  END
>  <UniqueID>  (24) 
23

>  <SMILES>  (24) 
Cc1ccc(S(=O)(=O)N2CCCC2)cc1[N-]C(=O)c1cc(S(=O)(=O)N2CCCCC2)ccc1[O-]

>  <Energy>  (24) 
74.9903322643008

>  <Genealogy>  (24) 
Cc1ccc(S(=O)(=O)N2CCCC2)cc1[N-]C(=O)c1cc(S(=O)(=O)N2CCCCC2)ccc1[O-] (protonated)
Cc1ccc(S(=O)(=O)N2CCCC2)cc1[N-]C(=O)c1cc(S(=O)(=O)N2CCCCC2)ccc1[O-] (3D coordinates assigned)
Cc1ccc(S(=O)(=O)N2CCCC2)cc1[N-]C(=O)c1cc(S(=O)(=O)N2CCCCC2)ccc1[O-] (nonaromatic ring conformer: 74.9903322643008 kcal/mol)

>  <smiles>  (24) 
Cc1ccc(S(=O)(=O)N2CCCC2)cc1NC(=O)c1cc(S(=O)(=O)N2CCCCC2)ccc1O

>  <score_type>  (24) 
oracle

>  <origin>  (24) 
adgpu

>  <m_score__min__energy>  (24) 
-15.19

>  <m_primary>  (24) 
energy

$$$$
24:0
     RDKit          3D

 50 52  0  0  0  0  0  0  0  0999 V2000
   -3.0270   13.5010  -32.1700 H   0  0  0  0  0  0  0  0  0  0  0  0
   -3.7990   13.6350  -31.5600 O   0  0  0  0  0  0  0  0  0  0  0  0
   -4.9520   13.3480  -32.3040 C   0  0  0  0  0  0  0  0  0  0  0  0
   -5.8206   13.8230  -31.8246 H   0  0  0  0  0  0  0  0  0  0  0  0
   -5.0912   12.2575  -32.3412 H   0  0  0  0  0  0  0  0  0  0  0  0
   -4.8100   13.8800  -33.7310 C   0  0  0  0  0  0  0  0  0  0  0  0
   -5.8003   13.9049  -34.2092 H   0  0  0  0  0  0  0  0  0  0  0  0
   -4.1360   13.2178  -34.2942 H   0  0  0  0  0  0  0  0  0  0  0  0
   -4.2420   15.2430  -33.7160 N   0  0  0  0  0  0  0  0  0  0  0  0
   -2.8900   15.4270  -33.6430 C   0  0  0  0  0  0  0  0  0  0  0  0
   -2.1050   14.4390  -33.6440 O   0  0  0  0  0  0  0  0  0  0  0  0
   -2.3780   16.6760  -33.5340 N   0  0  0  0  0  0  0  0  0  0  0  0
   -1.3470   16.7930  -33.3990 H   0  0  0  0  0  0  0  0  0  0  0  0
   -3.1920   17.7610  -33.4760 C   0  0  0  0  0  0  0  0  0  0  0  0
   -2.6560   18.8900  -33.0830 N   0  0  0  0  0  0  0  0  0  0  0  0
   -3.2810   20.0740  -32.5650 C   0  0  0  0  0  0  0  0  0  0  0  0
   -3.5230   20.2270  -31.1890 C   0  0  0  0  0  0  0  0  0  0  0  0
   -3.2598   19.4170  -30.4928 H   0  0  0  0  0  0  0  0  0  0  0  0
   -4.0970   21.4050  -30.7020 C   0  0  0  0  0  0  0  0  0  0  0  0
   -4.3027   21.5108  -29.6266 H   0  0  0  0  0  0  0  0  0  0  0  0
   -4.4110   22.4510  -31.5790 C   0  0  0  0  0  0  0  0  0  0  0  0
   -5.1230   23.9350  -30.9490 S   0  0  0  0  0  0  0  0  0  0  0  0
   -6.0610   24.5330  -31.9600 O   0  0  0  0  0  0  0  0  0  0  0  0
   -5.9040   23.6120  -29.7080 O   0  0  0  0  0  0  0  0  0  0  0  0
   -3.8770   25.0790  -30.5600 N   0  0  0  0  0  0  0  0  0  0  0  0
   -3.0320   24.5430  -29.4980 C   0  0  0  0  0  0  0  0  0  0  0  0
   -3.4571   24.8126  -28.5199 H   0  0  0  0  0  0  0  0  0  0  0  0
   -2.9821   23.4477  -29.5867 H   0  0  0  0  0  0  0  0  0  0  0  0
   -2.0199   24.9646  -29.5867 H   0  0  0  0  0  0  0  0  0  0  0  0
   -4.1280   22.3170  -32.9460 C   0  0  0  0  0  0  0  0  0  0  0  0
   -4.3574   23.1415  -33.6370 H   0  0  0  0  0  0  0  0  0  0  0  0
   -3.5550   21.1380  -33.4330 C   0  0  0  0  0  0  0  0  0  0  0  0
   -3.3183   21.0460  -34.5033 H   0  0  0  0  0  0  0  0  0  0  0  0
   -4.5340   17.6090  -33.7590 N   0  0  0  0  0  0  0  0  0  0  0  0
   -5.3770   18.7160  -34.2790 C   0  0  0  0  0  0  0  0  0  0  0  0
   -4.7298   19.5638  -34.5478 H   0  0  0  0  0  0  0  0  0  0  0  0
   -5.9253   18.3514  -35.1601 H   0  0  0  0  0  0  0  0  0  0  0  0
   -6.3810   19.1710  -33.2460 C   0  0  0  0  0  0  0  0  0  0  0  0
   -6.9220   20.4680  -33.2940 C   0  0  0  0  0  0  0  0  0  0  0  0
   -6.6201   21.1589  -34.0949 H   0  0  0  0  0  0  0  0  0  0  0  0
   -7.8430   20.8820  -32.3260 C   0  0  0  0  0  0  0  0  0  0  0  0
   -8.2565   21.9007  -32.3617 H   0  0  0  0  0  0  0  0  0  0  0  0
   -8.2390   20.0030  -31.3130 C   0  0  0  0  0  0  0  0  0  0  0  0
   -8.9632   20.3309  -30.5528 H   0  0  0  0  0  0  0  0  0  0  0  0
   -7.7150   18.7080  -31.2660 C   0  0  0  0  0  0  0  0  0  0  0  0
   -8.0303   18.0162  -30.4710 H   0  0  0  0  0  0  0  0  0  0  0  0
   -6.7900   18.2910  -32.2290 C   0  0  0  0  0  0  0  0  0  0  0  0
   -6.3811   17.2706  -32.1903 H   0  0  0  0  0  0  0  0  0  0  0  0
   -5.0610   16.3410  -33.7520 C   0  0  0  0  0  0  0  0  0  0  0  0
   -6.3150   16.1840  -33.8060 O   0  0  0  0  0  0  0  0  0  0  0  0
  1  2  1  0
  2  3  1  0
  3  4  1  0
  3  5  1  0
  3  6  1  0
  6  7  1  0
  6  8  1  0
  6  9  1  0
  9 10  1  0
 10 11  2  0
 10 12  1  0
 12 13  1  0
 12 14  1  0
 14 15  2  0
 15 16  1  0
 16 17  2  0
 17 18  1  0
 17 19  1  0
 19 20  1  0
 19 21  2  0
 21 22  1  0
 22 23  2  0
 22 24  2  0
 22 25  1  0
 25 26  1  0
 26 27  1  0
 26 28  1  0
 26 29  1  0
 21 30  1  0
 30 31  1  0
 30 32  2  0
 32 33  1  0
 14 34  1  0
 34 35  1  0
 35 36  1  0
 35 37  1  0
 35 38  1  0
 38 39  2  0
 39 40  1  0
 39 41  1  0
 41 42  1  0
 41 43  2  0
 43 44  1  0
 43 45  1  0
 45 46  1  0
 45 47  2  0
 47 48  1  0
 34 49  1  0
 49 50  2  0
 49  9  1  0
 32 16  1  0
 47 38  1  0
M  CHG  1  25  -1
M  END
>  <UniqueID>  (25) 
24

>  <SMILES>  (25) 
C[N-]S(=O)(=O)c1ccc(/N=c2/[nH]c(=O)n(CCO)c(=O)n2Cc2ccccc2)cc1

>  <Energy>  (25) 
76.70231517447117

>  <Genealogy>  (25) 
C[N-]S(=O)(=O)c1ccc(N=c2[nH]c(=O)n(CCO)c(=O)n2Cc2ccccc2)cc1 (protonated)
C[N-]S(=O)(=O)c1ccc(/N=c2/[nH]c(=O)n(CCO)c(=O)n2Cc2ccccc2)cc1 (cis-trans isomerization)
C[N-]S(=O)(=O)c1ccc(/N=c2/[nH]c(=O)n(CCO)c(=O)n2Cc2ccccc2)cc1 (3D coordinates assigned)
C[N-]S(=O)(=O)c1ccc(/N=c2/[nH]c(=O)n(CCO)c(=O)n2Cc2ccccc2)cc1 (optimized conformer: 76.70231517447117 kcal/mol)

>  <smiles>  (25) 
CNS(=O)(=O)c1ccc(N=c2[nH]c(=O)n(CCO)c(=O)n2Cc2ccccc2)cc1

>  <score_type>  (25) 
oracle

>  <origin>  (25) 
adgpu

>  <m_score__min__energy>  (25) 
-8.9700000000000006

>  <m_primary>  (25) 
energy

$$$$
25:0
     RDKit          3D

 63 67  0  0  0  0  0  0  0  0999 V2000
   -2.7970   19.2800  -33.2000 O   0  0  0  0  0  0  0  0  0  0  0  0
   -2.9100   20.5310  -33.2760 C   0  0  0  0  0  0  0  0  0  0  0  0
   -1.8370   21.3050  -33.8350 N   0  0  0  0  0  0  0  0  0  0  0  0
   -0.6110   20.6940  -34.2560 C   0  0  0  0  0  0  0  0  0  0  0  0
   -0.2090   20.8070  -35.5970 C   0  0  0  0  0  0  0  0  0  0  0  0
    0.9670   20.1960  -36.0370 C   0  0  0  0  0  0  0  0  0  0  0  0
    1.7530   19.4670  -35.1430 C   0  0  0  0  0  0  0  0  0  0  0  0
    1.3600   19.3430  -33.8070 C   0  0  0  0  0  0  0  0  0  0  0  0
    0.1810   19.9510  -33.3490 C   0  0  0  0  0  0  0  0  0  0  0  0
   -0.1740   19.8360  -31.9570 N   0  0  0  0  0  0  0  0  0  0  0  0
   -0.4590   18.5310  -31.3630 C   0  0  0  0  0  0  0  0  0  0  0  0
    0.1280   18.4900  -29.9440 C   0  0  0  0  0  0  0  0  0  0  0  0
   -0.3410   19.5810  -29.1720 O   0  0  0  0  0  0  0  0  0  0  0  0
    0.1310   20.8000  -29.7270 C   0  0  0  0  0  0  0  0  0  0  0  0
   -0.4400   21.0210  -31.1320 C   0  0  0  0  0  0  0  0  0  0  0  0
   -4.1720   21.1740  -32.8400 C   0  0  0  0  0  0  0  0  0  0  0  0
   -5.4050   20.5920  -33.1750 C   0  0  0  0  0  0  0  0  0  0  0  0
   -6.6000   21.1920  -32.7830 C   0  0  0  0  0  0  0  0  0  0  0  0
   -6.5890   22.3800  -32.0470 C   0  0  0  0  0  0  0  0  0  0  0  0
   -8.1330   23.0960  -31.5960 Cl  0  0  0  0  0  0  0  0  0  0  0  0
   -5.3620   22.9730  -31.6910 C   0  0  0  0  0  0  0  0  0  0  0  0
   -5.3160   24.4870  -30.7810 S   0  0  0  0  0  0  0  0  0  0  0  0
   -6.0780   24.3330  -29.4940 O   0  0  0  0  0  0  0  0  0  0  0  0
   -5.9600   25.5610  -31.6120 O   0  0  0  0  0  0  0  0  0  0  0  0
   -3.6740   24.9180  -30.4070 N   0  0  0  0  0  0  0  0  0  0  0  0
   -2.8830   24.2390  -29.4270 C   0  0  0  0  0  0  0  0  0  0  0  0
   -3.3350   23.0150  -28.9250 C   0  0  0  0  0  0  0  0  0  0  0  0
   -2.5630   22.2840  -28.0130 C   0  0  0  0  0  0  0  0  0  0  0  0
   -1.3370   22.8180  -27.5540 C   0  0  0  0  0  0  0  0  0  0  0  0
   -0.9180   24.0730  -28.0160 C   0  0  0  0  0  0  0  0  0  0  0  0
   -1.6900   24.7880  -28.9340 C   0  0  0  0  0  0  0  0  0  0  0  0
   -1.2750   26.0480  -29.3280 O   0  0  0  0  0  0  0  0  0  0  0  0
   -0.4040   22.0180  -26.6730 C   0  0  0  0  0  0  0  0  0  0  0  0
   -1.0950   20.8440  -25.9750 C   0  0  0  0  0  0  0  0  0  0  0  0
   -1.9880   20.0770  -26.9530 C   0  0  0  0  0  0  0  0  0  0  0  0
   -3.1040   20.9870  -27.4650 C   0  0  0  0  0  0  0  0  0  0  0  0
   -4.1620   22.3610  -32.0870 C   0  0  0  0  0  0  0  0  0  0  0  0
   -2.0070   22.3000  -34.1000 H   0  0  0  0  0  0  0  0  0  0  0  0
   -0.8247   21.3807  -36.3054 H   0  0  0  0  0  0  0  0  0  0  0  0
    1.2743   20.2893  -37.0891 H   0  0  0  0  0  0  0  0  0  0  0  0
    2.6816   18.9901  -35.4896 H   0  0  0  0  0  0  0  0  0  0  0  0
    1.9809   18.7633  -33.1081 H   0  0  0  0  0  0  0  0  0  0  0  0
   -1.5471   18.3762  -31.3169 H   0  0  0  0  0  0  0  0  0  0  0  0
   -0.0077   17.7366  -31.9756 H   0  0  0  0  0  0  0  0  0  0  0  0
   -0.1707   17.5497  -29.4576 H   0  0  0  0  0  0  0  0  0  0  0  0
    1.2238   18.5544  -30.0147 H   0  0  0  0  0  0  0  0  0  0  0  0
   -0.1766   21.6335  -29.0784 H   0  0  0  0  0  0  0  0  0  0  0  0
    1.2276   20.7515  -29.7979 H   0  0  0  0  0  0  0  0  0  0  0  0
   -1.5255   21.1860  -31.0655 H   0  0  0  0  0  0  0  0  0  0  0  0
    0.0359   21.9015  -31.5883 H   0  0  0  0  0  0  0  0  0  0  0  0
   -5.4278   19.6553  -33.7513 H   0  0  0  0  0  0  0  0  0  0  0  0
   -7.5592   20.7271  -33.0549 H   0  0  0  0  0  0  0  0  0  0  0  0
   -4.3091   22.6210  -29.2503 H   0  0  0  0  0  0  0  0  0  0  0  0
    0.0285   24.4991  -27.6518 H   0  0  0  0  0  0  0  0  0  0  0  0
    0.4126   21.6235  -27.2955 H   0  0  0  0  0  0  0  0  0  0  0  0
   -0.0344   22.6942  -25.8881 H   0  0  0  0  0  0  0  0  0  0  0  0
   -0.3303   20.1621  -25.5747 H   0  0  0  0  0  0  0  0  0  0  0  0
   -1.7217   21.2380  -25.1614 H   0  0  0  0  0  0  0  0  0  0  0  0
   -1.3827   19.7292  -27.8031 H   0  0  0  0  0  0  0  0  0  0  0  0
   -2.4338   19.2149  -26.4352 H   0  0  0  0  0  0  0  0  0  0  0  0
   -3.6515   20.4642  -28.2631 H   0  0  0  0  0  0  0  0  0  0  0  0
   -3.7669   21.2234  -26.6196 H   0  0  0  0  0  0  0  0  0  0  0  0
   -3.2014   22.8164  -31.8043 H   0  0  0  0  0  0  0  0  0  0  0  0
  1  2  2  0
  2  3  1  0
  3  4  1  0
  4  5  2  0
  5  6  1  0
  6  7  2  0
  7  8  1  0
  8  9  2  0
  9 10  1  0
 10 11  1  0
 11 12  1  0
 12 13  1  0
 13 14  1  0
 14 15  1  0
  2 16  1  0
 16 17  2  0
 17 18  1  0
 18 19  2  0
 19 20  1  0
 19 21  1  0
 21 22  1  0
 22 23  2  0
 22 24  2  0
 22 25  1  0
 25 26  1  0
 26 27  2  0
 27 28  1  0
 28 29  2  0
 29 30  1  0
 30 31  2  0
 31 32  1  0
 29 33  1  0
 33 34  1  0
 34 35  1  0
 35 36  1  0
 21 37  2  0
  9  4  1  0
 15 10  1  0
 37 16  1  0
 31 26  1  0
 36 28  1  0
  3 38  1  0
  5 39  1  0
  6 40  1  0
  7 41  1  0
  8 42  1  0
 11 43  1  0
 11 44  1  0
 12 45  1  0
 12 46  1  0
 14 47  1  0
 14 48  1  0
 15 49  1  0
 15 50  1  0
 17 51  1  0
 18 52  1  0
 27 53  1  0
 30 54  1  0
 33 55  1  0
 33 56  1  0
 34 57  1  0
 34 58  1  0
 35 59  1  0
 35 60  1  0
 36 61  1  0
 36 62  1  0
 37 63  1  0
M  CHG  2  25  -1  32  -1
M  END
>  <UniqueID>  (26) 
25

>  <SMILES>  (26) 
O=C(Nc1ccccc1N1CCOCC1)c1ccc(Cl)c(S(=O)(=O)[N-]c2cc3c(cc2[O-])CCCC3)c1

>  <Energy>  (26) 
89.4920652446072

>  <Genealogy>  (26) 
O=C(Nc1ccccc1N1CCOCC1)c1ccc(Cl)c(S(=O)(=O)[N-]c2cc3c(cc2[O-])CCCC3)c1 (protonated)
O=C(Nc1ccccc1N1CCOCC1)c1ccc(Cl)c(S(=O)(=O)[N-]c2cc3c(cc2[O-])CCCC3)c1 (3D coordinates assigned)
O=C(Nc1ccccc1N1CCOCC1)c1ccc(Cl)c(S(=O)(=O)[N-]c2cc3c(cc2[O-])CCCC3)c1 (nonaromatic ring conformer: 89.4920652446072 kcal/mol)

>  <smiles>  (26) 
O=C(Nc1ccccc1N1CCOCC1)c1ccc(Cl)c(S(=O)(=O)Nc2cc3c(cc2O)CCCC3)c1

>  <score_type>  (26) 
oracle

>  <origin>  (26) 
adgpu

>  <m_score__min__energy>  (26) 
-15.27

>  <m_primary>  (26) 
energy

$$$$
26:0
     RDKit          3D

 55 58  0  0  0  0  0  0  0  0999 V2000
   -7.8970   18.5590  -32.9180 O   0  0  0  0  0  0  0  0  0  0  0  0
   -6.5820   19.2480  -33.1680 S   0  0  0  0  0  0  0  0  0  0  0  0
   -6.4340   19.5090  -34.6460 O   0  0  0  0  0  0  0  0  0  0  0  0
   -6.5700   20.7700  -32.2760 C   0  0  0  0  0  0  0  0  0  0  0  0
   -7.7660   21.4320  -31.9700 C   0  0  0  0  0  0  0  0  0  0  0  0
   -7.7360   22.6410  -31.2720 C   0  0  0  0  0  0  0  0  0  0  0  0
   -6.5140   23.2000  -30.8780 C   0  0  0  0  0  0  0  0  0  0  0  0
   -5.3020   22.5490  -31.1880 C   0  0  0  0  0  0  0  0  0  0  0  0
   -4.0150   23.1000  -30.8370 N   0  0  0  0  0  0  0  0  0  0  0  0
   -3.7750   24.1220  -29.8130 C   0  0  2  0  0  0  0  0  0  0  0  0
   -3.8740   25.4010  -30.3920 O   0  0  0  0  0  0  0  0  0  0  0  0
   -2.4350   23.9150  -29.1590 C   0  0  0  0  0  0  0  0  0  0  0  0
   -1.4920   24.9000  -28.9140 C   0  0  0  0  0  0  0  0  0  0  0  0
   -0.4170   24.2500  -28.3390 C   0  0  0  0  0  0  0  0  0  0  0  0
    0.7590   24.8620  -27.9160 O   0  0  0  0  0  0  0  0  0  0  0  0
   -0.6530   22.9270  -28.2410 N   0  0  0  0  0  0  0  0  0  0  0  0
    0.2390   21.9110  -27.6800 C   0  0  0  0  0  0  0  0  0  0  0  0
   -0.5400   20.6630  -27.3590 C   0  0  0  0  0  0  0  0  0  0  0  0
   -1.6020   20.7090  -26.4390 C   0  0  0  0  0  0  0  0  0  0  0  0
   -2.3040   19.5420  -26.1140 C   0  0  0  0  0  0  0  0  0  0  0  0
   -1.9450   18.3210  -26.6990 C   0  0  0  0  0  0  0  0  0  0  0  0
   -0.8780   18.2660  -27.6030 C   0  0  0  0  0  0  0  0  0  0  0  0
   -0.1730   19.4320  -27.9290 C   0  0  0  0  0  0  0  0  0  0  0  0
   -1.8860   22.7120  -28.7420 C   0  0  0  0  0  0  0  0  0  0  0  0
   -5.3480   21.3260  -31.8780 C   0  0  0  0  0  0  0  0  0  0  0  0
   -5.2680   18.2360  -32.6080 N   0  0  0  0  0  0  0  0  0  0  0  0
   -4.4090   17.8370  -33.7310 C   0  0  0  0  0  0  0  0  0  0  0  0
   -4.8670   16.4680  -34.2160 C   0  0  0  0  0  0  0  0  0  0  0  0
   -5.7570   15.9180  -33.1150 C   0  0  0  0  0  0  0  0  0  0  0  0
   -5.7810   16.9870  -32.0310 C   0  0  0  0  0  0  0  0  0  0  0  0
   -8.7288   20.9994  -32.2796 H   0  0  0  0  0  0  0  0  0  0  0  0
   -8.6770   23.1569  -31.0304 H   0  0  0  0  0  0  0  0  0  0  0  0
   -6.4994   24.1505  -30.3246 H   0  0  0  0  0  0  0  0  0  0  0  0
   -3.1850   22.7880  -31.3890 H   0  0  0  0  0  0  0  0  0  0  0  0
   -4.5392   24.0354  -29.0266 H   0  0  0  0  0  0  0  0  0  0  0  0
   -3.4830   26.0430  -29.7400 H   0  0  0  0  0  0  0  0  0  0  0  0
   -1.5806   25.9746  -29.1317 H   0  0  0  0  0  0  0  0  0  0  0  0
    0.8070   25.3240  -27.0150 H   0  0  0  0  0  0  0  0  0  0  0  0
    1.0248   21.6719  -28.4117 H   0  0  0  0  0  0  0  0  0  0  0  0
    0.6945   22.2999  -26.7574 H   0  0  0  0  0  0  0  0  0  0  0  0
   -1.8824   21.6651  -25.9729 H   0  0  0  0  0  0  0  0  0  0  0  0
   -3.1384   19.5841  -25.3984 H   0  0  0  0  0  0  0  0  0  0  0  0
   -2.5014   17.4059  -26.4480 H   0  0  0  0  0  0  0  0  0  0  0  0
   -0.5925   17.3061  -28.0581 H   0  0  0  0  0  0  0  0  0  0  0  0
    0.6705   19.3838  -28.6334 H   0  0  0  0  0  0  0  0  0  0  0  0
   -2.3809   21.7319  -28.8096 H   0  0  0  0  0  0  0  0  0  0  0  0
   -4.4111   20.7979  -32.1088 H   0  0  0  0  0  0  0  0  0  0  0  0
   -4.4975   18.5699  -34.5465 H   0  0  0  0  0  0  0  0  0  0  0  0
   -3.3579   17.7946  -33.4095 H   0  0  0  0  0  0  0  0  0  0  0  0
   -5.4326   16.5632  -35.1546 H   0  0  0  0  0  0  0  0  0  0  0  0
   -4.0144   15.8032  -34.4187 H   0  0  0  0  0  0  0  0  0  0  0  0
   -6.7724   15.7368  -33.4974 H   0  0  0  0  0  0  0  0  0  0  0  0
   -5.3807   14.9586  -32.7304 H   0  0  0  0  0  0  0  0  0  0  0  0
   -6.8119   17.1359  -31.6774 H   0  0  0  0  0  0  0  0  0  0  0  0
   -5.1584   16.6781  -31.1784 H   0  0  0  0  0  0  0  0  0  0  0  0
  1  2  2  0
  2  3  2  0
  2  4  1  0
  4  5  2  0
  5  6  1  0
  6  7  2  0
  7  8  1  0
  8  9  1  0
  9 10  1  0
 10 11  1  0
 10 12  1  0
 12 13  1  0
 13 14  2  0
 14 15  1  0
 14 16  1  0
 16 17  1  0
 17 18  1  0
 18 19  2  0
 19 20  1  0
 20 21  2  0
 21 22  1  0
 22 23  2  0
 16 24  1  0
  8 25  2  0
  2 26  1  0
 26 27  1  0
 27 28  1  0
 28 29  1  0
 29 30  1  0
 25  4  1  0
 30 26  1  0
 24 12  2  0
 23 18  1  0
  5 31  1  0
  6 32  1  0
  7 33  1  0
  9 34  1  0
 10 35  1  1
 11 36  1  0
 13 37  1  0
 15 38  1  0
 17 39  1  0
 17 40  1  0
 19 41  1  0
 20 42  1  0
 21 43  1  0
 22 44  1  0
 23 45  1  0
 24 46  1  0
 25 47  1  0
 27 48  1  0
 27 49  1  0
 28 50  1  0
 28 51  1  0
 29 52  1  0
 29 53  1  0
 30 54  1  0
 30 55  1  0
M  END
>  <UniqueID>  (27) 
26

>  <SMILES>  (27) 
O=S(=O)(c1cccc(N[C@H](O)c2cc(O)n(Cc3ccccc3)c2)c1)N1CCCC1

>  <Energy>  (27) 
83.54560307520455

>  <Genealogy>  (27) 
O=S(=O)(c1cccc(N[C@H](O)c2cc(O)n(Cc3ccccc3)c2)c1)N1CCCC1 (chirality)
O=S(=O)(c1cccc(N[C@H](O)c2cc(O)n(Cc3ccccc3)c2)c1)N1CCCC1 (3D coordinates assigned)
O=S(=O)(c1cccc(N[C@H](O)c2cc(O)n(Cc3ccccc3)c2)c1)N1CCCC1 (nonaromatic ring conformer: 83.54560307520455 kcal/mol)

>  <smiles>  (27) 
O=S(=O)(c1cccc(NC(O)c2cc(O)n(Cc3ccccc3)c2)c1)N1CCCC1

>  <score_type>  (27) 
oracle

>  <origin>  (27) 
adgpu

>  <m_score__min__energy>  (27) 
-9.6400000000000006

>  <m_primary>  (27) 
energy

$$$$
27:0
     RDKit          3D

 45 47  0  0  0  0  0  0  0  0999 V2000
   -3.5850   17.8980  -34.2950 C   0  0  0  0  0  0  0  0  0  0  0  0
   -3.6160   19.3110  -34.1180 O   0  0  0  0  0  0  0  0  0  0  0  0
   -2.5720   20.0650  -33.5630 C   0  0  0  0  0  0  0  0  0  0  0  0
   -1.3290   20.0520  -34.2070 C   0  0  0  0  0  0  0  0  0  0  0  0
   -0.2520   20.7740  -33.6870 C   0  0  0  0  0  0  0  0  0  0  0  0
    0.9810   20.7430  -34.3280 O   0  0  0  0  0  0  0  0  0  0  0  0
   -0.4120   21.5260  -32.5210 C   0  0  0  0  0  0  0  0  0  0  0  0
   -1.6520   21.5740  -31.8720 C   0  0  0  0  0  0  0  0  0  0  0  0
   -1.7600   22.3390  -30.6620 N   0  0  0  0  0  0  0  0  0  0  0  0
   -2.8720   22.3730  -29.7570 C   0  0  0  0  0  0  0  0  0  0  0  0
   -2.8070   21.7520  -28.6600 O   0  0  0  0  0  0  0  0  0  0  0  0
   -4.1210   23.0990  -30.1160 C   0  0  0  0  0  0  0  0  0  0  0  0
   -5.2720   22.3620  -30.4600 C   0  0  0  0  0  0  0  0  0  0  0  0
   -6.4710   23.0120  -30.7870 C   0  0  0  0  0  0  0  0  0  0  0  0
   -7.9100   22.0660  -31.1840 S   0  0  0  0  0  0  0  0  0  0  0  0
   -8.8030   21.9970  -29.9760 O   0  0  0  0  0  0  0  0  0  0  0  0
   -8.6670   22.7590  -32.2830 O   0  0  0  0  0  0  0  0  0  0  0  0
   -7.5020   20.4490  -31.7010 N   0  0  0  0  0  0  0  0  0  0  0  0
   -8.7160   19.6360  -31.8570 C   0  0  0  0  0  0  0  0  0  0  0  0
   -8.3400   18.2070  -32.3060 C   0  0  0  0  0  0  0  0  0  0  0  0
   -6.9590   18.0820  -32.5960 O   0  0  0  0  0  0  0  0  0  0  0  0
   -6.5770   19.0650  -33.5410 C   0  0  0  0  0  0  0  0  0  0  0  0
   -6.7510   20.4870  -32.9680 C   0  0  0  0  0  0  0  0  0  0  0  0
   -6.5260   24.4090  -30.7790 C   0  0  0  0  0  0  0  0  0  0  0  0
   -5.3940   25.1530  -30.4470 C   0  0  0  0  0  0  0  0  0  0  0  0
   -4.1950   24.5120  -30.1160 C   0  0  0  0  0  0  0  0  0  0  0  0
   -3.0920   25.2970  -29.7990 O   0  0  0  0  0  0  0  0  0  0  0  0
   -2.7280   20.8240  -32.3850 C   0  0  0  0  0  0  0  0  0  0  0  0
   -3.5742   17.4054  -33.3115 H   0  0  0  0  0  0  0  0  0  0  0  0
   -4.4764   17.5790  -34.8551 H   0  0  0  0  0  0  0  0  0  0  0  0
   -2.6805   17.6184  -34.8551 H   0  0  0  0  0  0  0  0  0  0  0  0
   -1.1993   19.4683  -35.1303 H   0  0  0  0  0  0  0  0  0  0  0  0
    0.4418   22.0844  -32.1096 H   0  0  0  0  0  0  0  0  0  0  0  0
   -5.2294   21.2629  -30.4722 H   0  0  0  0  0  0  0  0  0  0  0  0
   -9.2482   19.5876  -30.8955 H   0  0  0  0  0  0  0  0  0  0  0  0
   -9.3631   20.0955  -32.6186 H   0  0  0  0  0  0  0  0  0  0  0  0
   -8.5977   17.5035  -31.5006 H   0  0  0  0  0  0  0  0  0  0  0  0
   -8.8994   17.9847  -33.2267 H   0  0  0  0  0  0  0  0  0  0  0  0
   -5.5212   18.9132  -33.8099 H   0  0  0  0  0  0  0  0  0  0  0  0
   -7.2210   18.9653  -34.4272 H   0  0  0  0  0  0  0  0  0  0  0  0
   -5.7594   20.9273  -32.7870 H   0  0  0  0  0  0  0  0  0  0  0  0
   -7.3115   21.0948  -33.6935 H   0  0  0  0  0  0  0  0  0  0  0  0
   -7.4644   24.9226  -31.0352 H   0  0  0  0  0  0  0  0  0  0  0  0
   -5.4441   26.2519  -30.4453 H   0  0  0  0  0  0  0  0  0  0  0  0
   -3.6964   20.8304  -31.8633 H   0  0  0  0  0  0  0  0  0  0  0  0
  1  2  1  0
  2  3  1  0
  3  4  2  0
  4  5  1  0
  5  6  1  0
  5  7  2  0
  7  8  1  0
  8  9  1  0
  9 10  1  0
 10 11  2  0
 10 12  1  0
 12 13  2  0
 13 14  1  0
 14 15  1  0
 15 16  2  0
 15 17  2  0
 15 18  1  0
 18 19  1  0
 19 20  1  0
 20 21  1  0
 21 22  1  0
 22 23  1  0
 14 24  2  0
 24 25  1  0
 25 26  2  0
 26 27  1  0
  8 28  2  0
 28  3  1  0
 26 12  1  0
 23 18  1  0
  1 29  1  0
  1 30  1  0
  1 31  1  0
  4 32  1  0
  7 33  1  0
 13 34  1  0
 19 35  1  0
 19 36  1  0
 20 37  1  0
 20 38  1  0
 22 39  1  0
 22 40  1  0
 23 41  1  0
 23 42  1  0
 24 43  1  0
 25 44  1  0
 28 45  1  0
M  CHG  3   6  -1   9  -1  27  -1
M  END
>  <UniqueID>  (28) 
27

>  <SMILES>  (28) 
COc1cc([O-])cc([N-]C(=O)c2cc(S(=O)(=O)N3CCOCC3)ccc2[O-])c1

>  <Energy>  (28) 
59.515582802158214

>  <Genealogy>  (28) 
COc1cc([O-])cc([N-]C(=O)c2cc(S(=O)(=O)N3CCOCC3)ccc2[O-])c1 (protonated)
COc1cc([O-])cc([N-]C(=O)c2cc(S(=O)(=O)N3CCOCC3)ccc2[O-])c1 (3D coordinates assigned)
COc1cc([O-])cc([N-]C(=O)c2cc(S(=O)(=O)N3CCOCC3)ccc2[O-])c1 (nonaromatic ring conformer: 59.515582802158214 kcal/mol)

>  <smiles>  (28) 
COc1cc(O)cc(NC(=O)c2cc(S(=O)(=O)N3CCOCC3)ccc2O)c1

>  <score_type>  (28) 
oracle

>  <origin>  (28) 
adgpu

>  <m_score__min__energy>  (28) 
-13.4

>  <m_primary>  (28) 
energy

$$$$
28:0
     RDKit          3D

 60 64  0  0  1  0  0  0  0  0999 V2000
   -5.9490   24.8420  -30.4110 C   0  0  0  0  0  0  0  0  0  0  0  0
   -4.8200   24.2690  -31.0140 O   0  0  0  0  0  0  0  0  0  0  0  0
   -4.7010   22.9260  -31.3420 C   0  0  0  0  0  0  0  0  0  0  0  0
   -5.7990   22.2050  -31.7640 C   0  0  0  0  0  0  0  0  0  0  0  0
   -5.7090   20.8500  -32.1010 C   0  0  0  0  0  0  0  0  0  0  0  0
   -6.8420   20.1140  -32.5430 N   0  0  0  0  0  0  0  0  0  0  0  0
   -8.1670   20.6830  -32.6890 C   0  0  0  0  0  0  0  0  0  0  0  0
   -9.0980   19.7550  -31.8950 C   0  0  0  0  0  0  0  0  0  0  0  0
   -9.1330   18.5800  -32.6650 O   0  0  0  0  0  0  0  0  0  0  0  0
   -7.9500   17.8980  -32.6160 C   0  0  0  0  0  0  0  0  0  0  0  0
   -6.7110   18.6970  -32.8750 C   0  0  0  0  0  0  0  0  0  0  0  0
   -4.4550   20.2920  -31.9810 C   0  0  0  0  0  0  0  0  0  0  0  0
   -3.3470   21.0180  -31.5550 C   0  0  0  0  0  0  0  0  0  0  0  0
   -3.4530   22.3520  -31.2280 C   0  0  0  0  0  0  0  0  0  0  0  0
   -2.3370   23.0880  -30.7980 N   0  0  0  0  0  0  0  0  0  0  0  0
   -2.2980   23.7340  -29.6780 C   0  0  0  0  0  0  0  0  0  0  0  0
   -1.1830   24.4150  -29.3460 N   0  0  0  0  0  0  0  0  0  0  0  0
   -1.1140   25.0900  -28.1980 C   0  0  0  0  0  0  0  0  0  0  0  0
   -0.0650   25.7200  -27.9070 N   0  0  0  0  0  0  0  0  0  0  0  0
    0.2350   26.4880  -26.7740 C   0  0  0  0  0  0  0  0  0  0  0  0
   -0.1140   27.8450  -26.8230 C   0  0  0  0  0  0  0  0  0  0  0  0
    0.1890   28.6900  -25.7660 C   0  0  0  0  0  0  0  0  0  0  0  0
    0.8460   28.1760  -24.6550 C   0  0  0  0  0  0  0  0  0  0  0  0
    1.1710   26.8390  -24.6480 C   0  0  0  0  0  0  0  0  0  0  0  0
    0.8990   25.9630  -25.6550 C   0  0  0  0  0  0  0  0  0  0  0  0
    1.3220   24.2710  -25.6220 S   0  0  0  0  0  0  0  0  0  0  0  0
    0.7580   23.6520  -24.1040 N   0  0  0  0  0  0  0  0  0  0  0  0
    0.6710   23.4750  -26.6960 O   0  0  0  0  0  0  0  0  0  0  0  0
    2.8040   24.1580  -25.7310 O   0  0  0  0  0  0  0  0  0  0  0  0
   -2.1710   25.1040  -27.3350 C   0  0  0  0  0  0  0  0  0  0  0  0
   -2.4030   25.6810  -26.1220 C   0  0  0  0  0  0  0  0  0  0  0  0
   -3.6980   25.2970  -25.7800 C   0  0  0  0  0  0  0  0  0  0  0  0
   -4.2300   24.5230  -26.7370 N   0  0  0  0  0  0  0  0  0  0  0  0
   -3.2980   24.4000  -27.6960 C   0  0  0  0  0  0  0  0  0  0  0  0
   -3.3780   23.7080  -28.8680 N   0  0  0  0  0  0  0  0  0  0  0  0
   -5.8465   24.7900  -29.3170 H   0  0  0  0  0  0  0  0  0  0  0  0
   -6.0365   25.8936  -30.7215 H   0  0  0  0  0  0  0  0  0  0  0  0
   -6.8495   24.2918  -30.7215 H   0  0  0  0  0  0  0  0  0  0  0  0
   -6.7734   22.7101  -31.8376 H   0  0  0  0  0  0  0  0  0  0  0  0
   -8.1959   21.7023  -32.2763 H   0  0  0  0  0  0  0  0  0  0  0  0
   -8.4665   20.7577  -33.7448 H   0  0  0  0  0  0  0  0  0  0  0  0
   -8.6911   19.5552  -30.8927 H   0  0  0  0  0  0  0  0  0  0  0  0
  -10.0959   20.1888  -31.7336 H   0  0  0  0  0  0  0  0  0  0  0  0
   -7.8597   17.4558  -31.6128 H   0  0  0  0  0  0  0  0  0  0  0  0
   -8.0012   17.1641  -33.4338 H   0  0  0  0  0  0  0  0  0  0  0  0
   -5.8935   18.2740  -32.2727 H   0  0  0  0  0  0  0  0  0  0  0  0
   -6.5124   18.6385  -33.9553 H   0  0  0  0  0  0  0  0  0  0  0  0
   -4.3244   19.2291  -32.2322 H   0  0  0  0  0  0  0  0  0  0  0  0
   -2.3701   20.5183  -31.4781 H   0  0  0  0  0  0  0  0  0  0  0  0
   -0.3610   24.4250  -29.9810 H   0  0  0  0  0  0  0  0  0  0  0  0
   -0.6327   28.2429  -27.7076 H   0  0  0  0  0  0  0  0  0  0  0  0
   -0.0874   29.7539  -25.8067 H   0  0  0  0  0  0  0  0  0  0  0  0
    1.1002   28.8221  -23.8018 H   0  0  0  0  0  0  0  0  0  0  0  0
    1.6904   26.4474  -23.7609 H   0  0  0  0  0  0  0  0  0  0  0  0
    0.0710   24.2630  -23.6530 H   0  0  0  0  0  0  0  0  0  0  0  0
    1.5890   23.4200  -23.5310 H   0  0  0  0  0  0  0  0  0  0  0  0
   -1.7165   26.3129  -25.5393 H   0  0  0  0  0  0  0  0  0  0  0  0
   -4.2129   25.5886  -24.8527 H   0  0  0  0  0  0  0  0  0  0  0  0
   -5.1970   24.1000  -26.7270 H   0  0  0  0  0  0  0  0  0  0  0  0
   -4.2440   23.1740  -29.1350 H   0  0  0  0  0  0  0  0  0  0  0  0
  1  2  1  0
  2  3  1  0
  3  4  2  0
  4  5  1  0
  5  6  1  0
  6  7  1  0
  7  8  1  0
  8  9  1  0
  9 10  1  0
 10 11  1  0
  5 12  2  0
 12 13  1  0
 13 14  2  0
 14 15  1  0
 15 16  2  0
 16 17  1  0
 17 18  1  0
 18 19  2  0
 19 20  1  0
 20 21  2  0
 21 22  1  0
 22 23  2  0
 23 24  1  0
 24 25  2  0
 25 26  1  0
 26 27  1  0
 26 28  2  0
 26 29  2  0
 18 30  1  0
 30 31  1  0
 31 32  2  0
 32 33  1  0
 33 34  1  0
 34 35  1  0
 14  3  1  0
 35 16  1  0
 11  6  1  0
 25 20  1  0
 34 30  2  0
  1 36  1  0
  1 37  1  0
  1 38  1  0
  4 39  1  0
  7 40  1  0
  7 41  1  0
  8 42  1  0
  8 43  1  0
 10 44  1  0
 10 45  1  0
 11 46  1  0
 11 47  1  0
 12 48  1  0
 13 49  1  0
 17 50  1  0
 21 51  1  0
 22 52  1  0
 23 53  1  0
 24 54  1  0
 27 55  1  0
 27 56  1  0
 31 57  1  0
 32 58  1  0
 33 59  1  0
 35 60  1  0
M  END
>  <smiles>  (29) 
COc1cc(N2CCOCC2)ccc1N=c1[nH]c(=Nc2ccccc2S(N)(=O)=O)c2cc[nH]c2[nH]1

>  <score_type>  (29) 
oracle

>  <origin>  (29) 
adgpu

>  <m_score__min__energy>  (29) 
-10.4

>  <m_primary>  (29) 
energy

$$$$
29:0
     RDKit          3D

 52 54  0  0  0  0  0  0  0  0999 V2000
   -6.1140   26.0560  -29.5780 C   0  0  0  0  0  0  0  0  0  0  0  0
   -5.8290   24.6990  -30.1590 C   0  0  0  0  0  0  0  0  0  0  0  0
   -6.8700   23.7730  -30.3270 C   0  0  0  0  0  0  0  0  0  0  0  0
   -6.6130   22.5220  -30.8880 C   0  0  0  0  0  0  0  0  0  0  0  0
   -5.3180   22.1800  -31.2800 C   0  0  0  0  0  0  0  0  0  0  0  0
   -4.2580   23.0870  -31.1110 C   0  0  0  0  0  0  0  0  0  0  0  0
   -2.8550   22.6850  -31.5360 C   0  0  0  0  0  0  0  0  0  0  0  0
   -2.1540   21.8240  -30.5540 N   0  0  0  0  0  0  0  0  0  0  0  0
   -1.9520   20.4530  -31.0560 C   0  0  0  0  0  0  0  0  0  0  0  0
   -2.8020   21.8340  -29.2270 C   0  0  0  0  0  0  0  0  0  0  0  0
   -2.3170   22.9990  -28.4040 C   0  0  0  0  0  0  0  0  0  0  0  0
   -1.0350   23.5320  -28.6070 C   0  0  0  0  0  0  0  0  0  0  0  0
   -0.6000   24.6270  -27.8540 C   0  0  0  0  0  0  0  0  0  0  0  0
   -1.4410   25.1990  -26.8900 C   0  0  0  0  0  0  0  0  0  0  0  0
   -0.8890   26.5770  -25.9330 S   0  0  0  0  0  0  0  0  0  0  0  0
   -0.8680   27.8060  -26.8010 O   0  0  0  0  0  0  0  0  0  0  0  0
   -1.8610   26.8180  -24.8110 O   0  0  0  0  0  0  0  0  0  0  0  0
    0.7030   26.3110  -25.2680 N   0  0  0  0  0  0  0  0  0  0  0  0
    0.9130   27.1480  -24.0790 C   0  0  0  0  0  0  0  0  0  0  0  0
    2.3330   26.9180  -23.5180 C   0  0  0  0  0  0  0  0  0  0  0  0
    3.0000   25.8490  -24.1670 O   0  0  0  0  0  0  0  0  0  0  0  0
    2.1940   24.6870  -24.1290 C   0  0  0  0  0  0  0  0  0  0  0  0
    0.8900   24.8900  -24.9280 C   0  0  0  0  0  0  0  0  0  0  0  0
   -2.7240   24.6730  -26.6920 C   0  0  0  0  0  0  0  0  0  0  0  0
   -3.1610   23.5790  -27.4460 C   0  0  0  0  0  0  0  0  0  0  0  0
   -4.5250   24.3600  -30.5650 C   0  0  0  0  0  0  0  0  0  0  0  0
   -3.5000   25.2950  -30.4330 O   0  0  0  0  0  0  0  0  0  0  0  0
   -6.1011   25.9947  -28.4798 H   0  0  0  0  0  0  0  0  0  0  0  0
   -5.3457   26.7677  -29.9146 H   0  0  0  0  0  0  0  0  0  0  0  0
   -7.1037   26.3985  -29.9146 H   0  0  0  0  0  0  0  0  0  0  0  0
   -7.8920   24.0345  -30.0153 H   0  0  0  0  0  0  0  0  0  0  0  0
   -7.4341   21.8024  -31.0219 H   0  0  0  0  0  0  0  0  0  0  0  0
   -5.1255   21.1926  -31.7248 H   0  0  0  0  0  0  0  0  0  0  0  0
   -2.9246   22.1387  -32.4882 H   0  0  0  0  0  0  0  0  0  0  0  0
   -2.2696   23.6122  -31.6232 H   0  0  0  0  0  0  0  0  0  0  0  0
   -1.8503   19.7625  -30.2058 H   0  0  0  0  0  0  0  0  0  0  0  0
   -2.8160   20.1557  -31.6684 H   0  0  0  0  0  0  0  0  0  0  0  0
   -1.0389   20.4176  -31.6684 H   0  0  0  0  0  0  0  0  0  0  0  0
   -3.8913   21.9136  -29.3581 H   0  0  0  0  0  0  0  0  0  0  0  0
   -2.5468   20.9012  -28.7028 H   0  0  0  0  0  0  0  0  0  0  0  0
   -0.3696   23.0868  -29.3614 H   0  0  0  0  0  0  0  0  0  0  0  0
    0.4058   25.0408  -28.0189 H   0  0  0  0  0  0  0  0  0  0  0  0
    0.7963   28.2069  -24.3532 H   0  0  0  0  0  0  0  0  0  0  0  0
    0.1725   26.8787  -23.3114 H   0  0  0  0  0  0  0  0  0  0  0  0
    2.9210   27.8375  -23.6552 H   0  0  0  0  0  0  0  0  0  0  0  0
    2.2368   26.6585  -22.4534 H   0  0  0  0  0  0  0  0  0  0  0  0
    2.7547   23.8464  -24.5637 H   0  0  0  0  0  0  0  0  0  0  0  0
    1.9330   24.4766  -23.0813 H   0  0  0  0  0  0  0  0  0  0  0  0
    0.9393   24.3004  -25.8553 H   0  0  0  0  0  0  0  0  0  0  0  0
    0.0419   24.5598  -24.3102 H   0  0  0  0  0  0  0  0  0  0  0  0
   -3.3904   25.1220  -25.9407 H   0  0  0  0  0  0  0  0  0  0  0  0
   -4.1705   23.1721  -27.2869 H   0  0  0  0  0  0  0  0  0  0  0  0
  1  2  1  0
  2  3  2  0
  3  4  1  0
  4  5  2  0
  5  6  1  0
  6  7  1  0
  7  8  1  0
  8  9  1  0
  8 10  1  0
 10 11  1  0
 11 12  2  0
 12 13  1  0
 13 14  2  0
 14 15  1  0
 15 16  2  0
 15 17  2  0
 15 18  1  0
 18 19  1  0
 19 20  1  0
 20 21  1  0
 21 22  1  0
 22 23  1  0
 14 24  1  0
 24 25  2  0
  6 26  2  0
 26 27  1  0
 26  2  1  0
 25 11  1  0
 23 18  1  0
  1 28  1  0
  1 29  1  0
  1 30  1  0
  3 31  1  0
  4 32  1  0
  5 33  1  0
  7 34  1  0
  7 35  1  0
  9 36  1  0
  9 37  1  0
  9 38  1  0
 10 39  1  0
 10 40  1  0
 12 41  1  0
 13 42  1  0
 19 43  1  0
 19 44  1  0
 20 45  1  0
 20 46  1  0
 22 47  1  0
 22 48  1  0
 23 49  1  0
 23 50  1  0
 24 51  1  0
 25 52  1  0
M  CHG  1  27  -1
M  END
>  <UniqueID>  (30) 
28

>  <SMILES>  (30) 
Cc1cccc(CN(C)Cc2ccc(S(=O)(=O)N3CCOCC3)cc2)c1[O-]

>  <Energy>  (30) 
63.59171505003901

>  <Genealogy>  (30) 
Cc1cccc(CN(C)Cc2ccc(S(=O)(=O)N3CCOCC3)cc2)c1[O-] (protonated)
Cc1cccc(CN(C)Cc2ccc(S(=O)(=O)N3CCOCC3)cc2)c1[O-] (3D coordinates assigned)
Cc1cccc(CN(C)Cc2ccc(S(=O)(=O)N3CCOCC3)cc2)c1[O-] (nonaromatic ring conformer: 63.59171505003901 kcal/mol)

>  <smiles>  (30) 
Cc1cccc(CN(C)Cc2ccc(S(=O)(=O)N3CCOCC3)cc2)c1O

>  <score_type>  (30) 
oracle

>  <origin>  (30) 
adgpu

>  <m_score__min__energy>  (30) 
-12.27

>  <m_primary>  (30) 
energy

$$$$
30:0
     RDKit          3D

 45 46  0  0  0  0  0  0  0  0999 V2000
   -1.0850   26.3040  -26.2870 C   0  0  0  0  0  0  0  0  0  0  0  0
   -0.8620   26.8160  -27.6770 C   0  0  0  0  0  0  0  0  0  0  0  0
   -0.4220   27.9860  -27.8300 O   0  0  0  0  0  0  0  0  0  0  0  0
   -1.1480   26.0290  -28.8410 N   0  0  0  0  0  0  0  0  0  0  0  0
   -1.1810   24.5990  -28.9480 C   0  0  0  0  0  0  0  0  0  0  0  0
    0.1440   23.5610  -28.9210 S   0  0  0  0  0  0  0  0  0  0  0  0
   -0.7290   22.1560  -29.2280 C   0  0  0  0  0  0  0  0  0  0  0  0
   -0.1360   20.7860  -29.2840 C   0  0  0  0  0  0  0  0  0  0  0  0
   -2.0820   22.4800  -29.3610 C   0  0  0  0  0  0  0  0  0  0  0  0
   -3.1450   21.4400  -29.5870 C   0  0  0  0  0  0  0  0  0  0  0  0
   -2.3280   23.8640  -29.2320 C   0  0  0  0  0  0  0  0  0  0  0  0
   -3.6560   24.4920  -29.3580 C   0  0  0  0  0  0  0  0  0  0  0  0
   -4.4890   24.3610  -28.4230 O   0  0  0  0  0  0  0  0  0  0  0  0
   -4.0120   25.2710  -30.5050 N   0  0  0  0  0  0  0  0  0  0  0  0
   -5.3730   25.3980  -31.0100 C   0  0  0  0  0  0  0  0  0  0  0  0
   -5.8960   24.0400  -31.3750 C   0  0  0  0  0  0  0  0  0  0  0  0
   -7.2530   23.7350  -31.2030 C   0  0  0  0  0  0  0  0  0  0  0  0
   -7.7500   22.4840  -31.5740 C   0  0  0  0  0  0  0  0  0  0  0  0
   -6.9010   21.5070  -32.1380 C   0  0  0  0  0  0  0  0  0  0  0  0
   -7.4160   20.2060  -32.5250 N   0  0  0  0  0  0  0  0  0  0  0  0
   -8.7520   19.7740  -32.0960 C   0  0  0  0  0  0  0  0  0  0  0  0
   -6.6100   19.3000  -33.3550 C   0  0  0  0  0  0  0  0  0  0  0  0
   -5.5400   21.8320  -32.3220 C   0  0  0  0  0  0  0  0  0  0  0  0
   -5.0470   23.0850  -31.9500 C   0  0  0  0  0  0  0  0  0  0  0  0
   -0.7553   27.0610  -25.5601 H   0  0  0  0  0  0  0  0  0  0  0  0
   -2.1552   26.0962  -26.1401 H   0  0  0  0  0  0  0  0  0  0  0  0
   -0.5083   25.3789  -26.1401 H   0  0  0  0  0  0  0  0  0  0  0  0
    0.0250   20.4141  -28.2614 H   0  0  0  0  0  0  0  0  0  0  0  0
   -0.8224   20.1108  -29.8159 H   0  0  0  0  0  0  0  0  0  0  0  0
    0.8261   20.8243  -29.8159 H   0  0  0  0  0  0  0  0  0  0  0  0
   -3.5155   21.0775  -28.6168 H   0  0  0  0  0  0  0  0  0  0  0  0
   -3.9765   21.8830  -30.1547 H   0  0  0  0  0  0  0  0  0  0  0  0
   -2.7203   20.5990  -30.1547 H   0  0  0  0  0  0  0  0  0  0  0  0
   -6.0131   25.8415  -30.2331 H   0  0  0  0  0  0  0  0  0  0  0  0
   -5.3768   26.0452  -31.8994 H   0  0  0  0  0  0  0  0  0  0  0  0
   -7.9314   24.4864  -30.7727 H   0  0  0  0  0  0  0  0  0  0  0  0
   -8.8159   22.2569  -31.4250 H   0  0  0  0  0  0  0  0  0  0  0  0
   -8.7973   19.7593  -30.9970 H   0  0  0  0  0  0  0  0  0  0  0  0
   -9.5062   20.4741  -32.4848 H   0  0  0  0  0  0  0  0  0  0  0  0
   -8.9535   18.7649  -32.4848 H   0  0  0  0  0  0  0  0  0  0  0  0
   -6.0195   18.6363  -32.7063 H   0  0  0  0  0  0  0  0  0  0  0  0
   -7.2746   18.6958  -33.9900 H   0  0  0  0  0  0  0  0  0  0  0  0
   -5.9325   19.8897  -33.9900 H   0  0  0  0  0  0  0  0  0  0  0  0
   -4.8591   21.0896  -32.7637 H   0  0  0  0  0  0  0  0  0  0  0  0
   -3.9851   23.3236  -32.1095 H   0  0  0  0  0  0  0  0  0  0  0  0
  1  2  1  0
  2  3  2  0
  2  4  1  0
  4  5  1  0
  5  6  1  0
  6  7  1  0
  7  8  1  0
  7  9  2  0
  9 10  1  0
  9 11  1  0
 11 12  1  0
 12 13  2  0
 12 14  1  0
 14 15  1  0
 15 16  1  0
 16 17  2  0
 17 18  1  0
 18 19  2  0
 19 20  1  0
 20 21  1  0
 20 22  1  0
 19 23  1  0
 23 24  2  0
 11  5  2  0
 24 16  1  0
  1 25  1  0
  1 26  1  0
  1 27  1  0
  8 28  1  0
  8 29  1  0
  8 30  1  0
 10 31  1  0
 10 32  1  0
 10 33  1  0
 15 34  1  0
 15 35  1  0
 17 36  1  0
 18 37  1  0
 21 38  1  0
 21 39  1  0
 21 40  1  0
 22 41  1  0
 22 42  1  0
 22 43  1  0
 23 44  1  0
 24 45  1  0
M  CHG  2   4  -1  14  -1
M  END
>  <UniqueID>  (31) 
29

>  <SMILES>  (31) 
CC(=O)[N-]c1sc(C)c(C)c1C(=O)[N-]Cc1ccc(N(C)C)cc1

>  <Energy>  (31) 
76.37953891897808

>  <Genealogy>  (31) 
CC(=O)[N-]c1sc(C)c(C)c1C(=O)[N-]Cc1ccc(N(C)C)cc1 (protonated)
CC(=O)[N-]c1sc(C)c(C)c1C(=O)[N-]Cc1ccc(N(C)C)cc1 (3D coordinates assigned)
CC(=O)[N-]c1sc(C)c(C)c1C(=O)[N-]Cc1ccc(N(C)C)cc1 (optimized conformer: 76.37953891897808 kcal/mol)

>  <smiles>  (31) 
CC(=O)Nc1sc(C)c(C)c1C(=O)NCc1ccc(N(C)C)cc1

>  <score_type>  (31) 
oracle

>  <origin>  (31) 
adgpu

>  <m_score__min__energy>  (31) 
-10.49

>  <m_primary>  (31) 
energy

$$$$
31:0
     RDKit          3D

 54 57  0  0  0  0  0  0  0  0999 V2000
   -5.9960   26.0770  -29.7620 O   0  0  0  0  0  0  0  0  0  0  0  0
   -5.3300   25.4820  -30.6500 C   0  0  0  0  0  0  0  0  0  0  0  0
   -3.9210   25.2870  -30.4810 N   0  0  0  0  0  0  0  0  0  0  0  0
   -3.3170   24.3920  -29.5380 C   0  0  0  0  0  0  0  0  0  0  0  0
   -3.9490   23.1770  -29.2760 C   0  0  0  0  0  0  0  0  0  0  0  0
   -3.3810   22.2620  -28.3920 C   0  0  0  0  0  0  0  0  0  0  0  0
   -2.1590   22.5360  -27.7710 C   0  0  0  0  0  0  0  0  0  0  0  0
   -1.5200   21.3020  -26.6890 Cl  0  0  0  0  0  0  0  0  0  0  0  0
   -1.4840   23.7510  -28.0440 C   0  0  0  0  0  0  0  0  0  0  0  0
    0.1000   24.1300  -27.3130 S   0  0  0  0  0  0  0  0  0  0  0  0
    1.0930   24.5120  -28.3740 O   0  0  0  0  0  0  0  0  0  0  0  0
    0.6360   22.9000  -26.6320 O   0  0  0  0  0  0  0  0  0  0  0  0
   -0.0130   25.4220  -26.1410 N   0  0  0  0  0  0  0  0  0  0  0  0
   -1.4220   25.7730  -25.8900 C   0  0  0  0  0  0  0  0  0  0  0  0
   -1.5500   26.7870  -24.7330 C   0  0  0  0  0  0  0  0  0  0  0  0
   -0.2350   27.3190  -24.3560 N   0  0  0  0  0  0  0  0  0  0  0  0
    0.6530   26.2370  -23.9030 C   0  0  0  0  0  0  0  0  0  0  0  0
    0.6500   25.0460  -24.8830 C   0  0  0  0  0  0  0  0  0  0  0  0
   -2.0690   24.6700  -28.9450 C   0  0  0  0  0  0  0  0  0  0  0  0
   -1.3940   25.8380  -29.2850 O   0  0  0  0  0  0  0  0  0  0  0  0
   -6.0170   24.9180  -31.7730 N   0  0  0  0  0  0  0  0  0  0  0  0
   -6.5820   23.5990  -31.8530 C   0  0  0  0  0  0  0  0  0  0  0  0
   -7.9610   23.3870  -31.7350 C   0  0  0  0  0  0  0  0  0  0  0  0
   -8.4840   22.1020  -31.8210 C   0  0  0  0  0  0  0  0  0  0  0  0
   -7.6410   20.9970  -31.9700 C   0  0  0  0  0  0  0  0  0  0  0  0
   -8.4250   19.4250  -32.1050 Cl  0  0  0  0  0  0  0  0  0  0  0  0
   -6.2350   21.1760  -32.0190 C   0  0  0  0  0  0  0  0  0  0  0  0
   -5.1230   19.7770  -32.0470 S   0  0  0  0  0  0  0  0  0  0  0  0
   -5.6630   18.6520  -31.2110 O   0  0  0  0  0  0  0  0  0  0  0  0
   -3.8130   20.1810  -31.4310 O   0  0  0  0  0  0  0  0  0  0  0  0
   -4.8060   19.1360  -33.6950 C   0  0  0  0  0  0  0  0  0  0  0  0
   -6.0150   18.8060  -34.5560 C   0  0  0  0  0  0  0  0  0  0  0  0
   -5.2290   17.6900  -33.8880 C   0  0  0  0  0  0  0  0  0  0  0  0
   -5.7170   22.5010  -32.0000 C   0  0  0  0  0  0  0  0  0  0  0  0
   -4.3530   22.7700  -32.1490 O   0  0  0  0  0  0  0  0  0  0  0  0
   -4.9024   22.9393  -29.7705 H   0  0  0  0  0  0  0  0  0  0  0  0
   -3.8991   21.3149  -28.1808 H   0  0  0  0  0  0  0  0  0  0  0  0
   -1.8493   26.2146  -26.8024 H   0  0  0  0  0  0  0  0  0  0  0  0
   -1.9634   24.8572  -25.6105 H   0  0  0  0  0  0  0  0  0  0  0  0
   -2.1968   27.6177  -25.0518 H   0  0  0  0  0  0  0  0  0  0  0  0
   -1.9849   26.2743  -23.8624 H   0  0  0  0  0  0  0  0  0  0  0  0
   -0.3700   27.9830  -23.5570 H   0  0  0  0  0  0  0  0  0  0  0  0
    1.6778   26.6282  -23.8210 H   0  0  0  0  0  0  0  0  0  0  0  0
    0.2874   25.8795  -22.9291 H   0  0  0  0  0  0  0  0  0  0  0  0
    1.6874   24.7475  -25.0946 H   0  0  0  0  0  0  0  0  0  0  0  0
    0.1026   24.2082  -24.4264 H   0  0  0  0  0  0  0  0  0  0  0  0
   -8.6341   24.2419  -31.5734 H   0  0  0  0  0  0  0  0  0  0  0  0
   -9.5727   21.9531  -31.7713 H   0  0  0  0  0  0  0  0  0  0  0  0
   -3.8938   19.7287  -33.8585 H   0  0  0  0  0  0  0  0  0  0  0  0
   -7.0265   19.0544  -34.2023 H   0  0  0  0  0  0  0  0  0  0  0  0
   -6.3204   19.0327  -35.5882 H   0  0  0  0  0  0  0  0  0  0  0  0
   -5.6719   17.1303  -33.0510 H   0  0  0  0  0  0  0  0  0  0  0  0
   -4.7300   16.7739  -34.2369 H   0  0  0  0  0  0  0  0  0  0  0  0
   -3.9330   23.6690  -31.9640 H   0  0  0  0  0  0  0  0  0  0  0  0
  1  2  2  0
  2  3  1  0
  3  4  1  0
  4  5  2  0
  5  6  1  0
  6  7  2  0
  7  8  1  0
  7  9  1  0
  9 10  1  0
 10 11  2  0
 10 12  2  0
 10 13  1  0
 13 14  1  0
 14 15  1  0
 15 16  1  0
 16 17  1  0
 17 18  1  0
  9 19  2  0
 19 20  1  0
  2 21  1  0
 21 22  1  0
 22 23  2  0
 23 24  1  0
 24 25  2  0
 25 26  1  0
 25 27  1  0
 27 28  1  0
 28 29  2  0
 28 30  2  0
 28 31  1  0
 31 32  1  0
 32 33  1  0
 27 34  2  0
 34 35  1  0
 19  4  1  0
 34 22  1  0
 18 13  1  0
 33 31  1  0
  5 36  1  0
  6 37  1  0
 14 38  1  0
 14 39  1  0
 15 40  1  0
 15 41  1  0
 16 42  1  0
 17 43  1  0
 17 44  1  0
 18 45  1  0
 18 46  1  0
 23 47  1  0
 24 48  1  0
 31 49  1  0
 32 50  1  0
 32 51  1  0
 33 52  1  0
 33 53  1  0
 35 54  1  0
M  CHG  3   3  -1  20  -1  21  -1
M  END
>  <UniqueID>  (32) 
30

>  <SMILES>  (32) 
O=C([N-]c1ccc(Cl)c(S(=O)(=O)N2CCNCC2)c1[O-])[N-]c1ccc(Cl)c(S(=O)(=O)C2CC2)c1O

>  <Energy>  (32) 
344.1215577448544

>  <Genealogy>  (32) 
O=C([N-]c1ccc(Cl)c(S(=O)(=O)N2CCNCC2)c1[O-])[N-]c1ccc(Cl)c(S(=O)(=O)C2CC2)c1O (protonated)
O=C([N-]c1ccc(Cl)c(S(=O)(=O)N2CCNCC2)c1[O-])[N-]c1ccc(Cl)c(S(=O)(=O)C2CC2)c1O (3D coordinates assigned)
O=C([N-]c1ccc(Cl)c(S(=O)(=O)N2CCNCC2)c1[O-])[N-]c1ccc(Cl)c(S(=O)(=O)C2CC2)c1O (nonaromatic ring conformer: 344.1215577448544 kcal/mol)

>  <smiles>  (32) 
O=C(Nc1ccc(Cl)c(S(=O)(=O)C2CC2)c1O)Nc1ccc(Cl)c(S(=O)(=O)N2CCNCC2)c1O

>  <score_type>  (32) 
oracle

>  <origin>  (32) 
adgpu

>  <m_score__min__energy>  (32) 
-17.780000000000001

>  <m_primary>  (32) 
energy

$$$$
32:0
     RDKit          3D

 44 46  0  0  0  0  0  0  0  0999 V2000
   -5.3810   25.7850  -30.4650 C   0  0  0  0  0  0  0  0  0  0  0  0
   -4.1090   25.1520  -30.5640 O   0  0  0  0  0  0  0  0  0  0  0  0
   -3.7170   24.0290  -29.8180 C   0  0  0  0  0  0  0  0  0  0  0  0
   -3.1470   24.1540  -28.5340 C   0  0  0  0  0  0  0  0  0  0  0  0
   -2.7750   23.0170  -27.8120 C   0  0  0  0  0  0  0  0  0  0  0  0
   -2.9710   21.7470  -28.3550 C   0  0  0  0  0  0  0  0  0  0  0  0
   -2.5070   20.3210  -27.4440 Cl  0  0  0  0  0  0  0  0  0  0  0  0
   -3.5360   21.6090  -29.6250 C   0  0  0  0  0  0  0  0  0  0  0  0
   -3.9000   22.7440  -30.3670 C   0  0  0  0  0  0  0  0  0  0  0  0
   -4.6030   22.5430  -31.9740 S   0  0  0  0  0  0  0  0  0  0  0  0
   -5.3470   23.7960  -32.3440 O   0  0  0  0  0  0  0  0  0  0  0  0
   -3.5250   22.2930  -32.9910 O   0  0  0  0  0  0  0  0  0  0  0  0
   -5.6960   21.1950  -31.9830 N   0  0  0  0  0  0  0  0  0  0  0  0
   -5.3480   19.8930  -32.0860 C   0  0  0  0  0  0  0  0  0  0  0  0
   -6.4890   19.0990  -32.1250 C   0  0  0  0  0  0  0  0  0  0  0  0
   -6.5390   17.6110  -32.3090 C   0  0  0  0  0  0  0  0  0  0  0  0
   -5.9100   17.2270  -33.5900 N   0  0  0  0  0  0  0  0  0  0  0  0
   -4.4740   16.9730  -33.3890 C   0  0  0  0  0  0  0  0  0  0  0  0
   -6.0880   18.2840  -34.6010 C   0  0  0  0  0  0  0  0  0  0  0  0
   -7.5610   19.9690  -32.0520 C   0  0  0  0  0  0  0  0  0  0  0  0
   -8.9340   19.7350  -32.0920 C   0  0  0  0  0  0  0  0  0  0  0  0
   -9.7910   20.8490  -32.0350 C   0  0  0  0  0  0  0  0  0  0  0  0
   -9.2610   22.1550  -31.9480 C   0  0  0  0  0  0  0  0  0  0  0  0
   -7.8710   22.3610  -31.9160 C   0  0  0  0  0  0  0  0  0  0  0  0
   -7.0430   21.2370  -31.9660 C   0  0  0  0  0  0  0  0  0  0  0  0
   -5.6439   25.9158  -29.4049 H   0  0  0  0  0  0  0  0  0  0  0  0
   -5.3406   26.7681  -30.9568 H   0  0  0  0  0  0  0  0  0  0  0  0
   -6.1409   25.1599  -30.9568 H   0  0  0  0  0  0  0  0  0  0  0  0
   -2.9944   25.1525  -28.0984 H   0  0  0  0  0  0  0  0  0  0  0  0
   -2.3266   23.1236  -26.8132 H   0  0  0  0  0  0  0  0  0  0  0  0
   -3.6966   20.6056  -30.0461 H   0  0  0  0  0  0  0  0  0  0  0  0
   -4.3152   19.5171  -32.1321 H   0  0  0  0  0  0  0  0  0  0  0  0
   -6.0009   17.1255  -31.4815 H   0  0  0  0  0  0  0  0  0  0  0  0
   -7.5906   17.2885  -32.3180 H   0  0  0  0  0  0  0  0  0  0  0  0
   -4.2558   16.9344  -32.3116 H   0  0  0  0  0  0  0  0  0  0  0  0
   -4.2030   16.0130  -33.8526 H   0  0  0  0  0  0  0  0  0  0  0  0
   -3.8902   17.7818  -33.8526 H   0  0  0  0  0  0  0  0  0  0  0  0
   -6.2505   19.2487  -34.0981 H   0  0  0  0  0  0  0  0  0  0  0  0
   -5.1875   18.3453  -35.2298 H   0  0  0  0  0  0  0  0  0  0  0  0
   -6.9589   18.0470  -35.2298 H   0  0  0  0  0  0  0  0  0  0  0  0
   -9.3344   18.7131  -32.1657 H   0  0  0  0  0  0  0  0  0  0  0  0
  -10.8809   20.7019  -32.0583 H   0  0  0  0  0  0  0  0  0  0  0  0
   -9.9415   23.0181  -31.9049 H   0  0  0  0  0  0  0  0  0  0  0  0
   -7.4487   23.3748  -31.8536 H   0  0  0  0  0  0  0  0  0  0  0  0
  1  2  1  0
  2  3  1  0
  3  4  2  0
  4  5  1  0
  5  6  2  0
  6  7  1  0
  6  8  1  0
  8  9  2  0
  9 10  1  0
 10 11  2  0
 10 12  2  0
 10 13  1  0
 13 14  1  0
 14 15  2  0
 15 16  1  0
 16 17  1  0
 17 18  1  0
 17 19  1  0
 15 20  1  0
 20 21  2  0
 21 22  1  0
 22 23  2  0
 23 24  1  0
 24 25  2  0
  9  3  1  0
 25 13  1  0
 25 20  1  0
  1 26  1  0
  1 27  1  0
  1 28  1  0
  4 29  1  0
  5 30  1  0
  8 31  1  0
 14 32  1  0
 16 33  1  0
 16 34  1  0
 18 35  1  0
 18 36  1  0
 18 37  1  0
 19 38  1  0
 19 39  1  0
 19 40  1  0
 21 41  1  0
 22 42  1  0
 23 43  1  0
 24 44  1  0
M  END
>  <UniqueID>  (33) 
31

>  <SMILES>  (33) 
COc1ccc(Cl)cc1S(=O)(=O)n1cc(CN(C)C)c2ccccc21

>  <Energy>  (33) 
79.75334122797209

>  <Genealogy>  (33) 
COc1ccc(Cl)cc1S(=O)(=O)n1cc(CN(C)C)c2ccccc21 (3D coordinates assigned)
COc1ccc(Cl)cc1S(=O)(=O)n1cc(CN(C)C)c2ccccc21 (optimized conformer: 79.75334122797209 kcal/mol)

>  <smiles>  (33) 
COc1ccc(Cl)cc1S(=O)(=O)n1cc(CN(C)C)c2ccccc21

>  <score_type>  (33) 
oracle

>  <origin>  (33) 
adgpu

>  <m_score__min__energy>  (33) 
-9.7699999999999996

>  <m_primary>  (33) 
energy

$$$$
33:0
     RDKit          3D

 59 63  0  0  1  0  0  0  0  0999 V2000
   -3.2120   24.0720  -27.2410 O   0  0  0  0  0  0  0  0  0  0  0  0
   -2.4720   24.9260  -27.7970 C   0  0  0  0  0  0  0  0  0  0  0  0
   -2.5550   25.0530  -29.2020 N   0  0  0  0  0  0  0  0  0  0  0  0
   -3.4800   24.2130  -29.8890 C   0  0  0  0  0  0  0  0  0  0  0  0
   -4.7110   24.6530  -30.2220 C   0  0  0  0  0  0  0  0  0  0  0  0
   -5.6780   23.9170  -30.8810 C   0  0  0  0  0  0  0  0  0  0  0  0
   -5.3140   22.6260  -31.2070 C   0  0  0  0  0  0  0  0  0  0  0  0
   -6.2310   21.8800  -31.8400 N   0  0  0  0  0  0  0  0  0  0  0  0
   -5.9590   20.6080  -32.1830 C   0  0  0  0  0  0  0  0  0  0  0  0
   -6.8880   19.7820  -32.8710 N   0  0  0  0  0  0  0  0  0  0  0  0
   -8.3250   20.0580  -32.8520 C   0  0  0  0  0  0  0  0  0  0  0  0
   -9.0950   18.8620  -32.3920 C   0  0  0  0  0  0  0  0  0  0  0  0
   -8.1670   17.8260  -31.9970 N   0  0  0  0  0  0  0  0  0  0  0  0
   -7.2470   17.4340  -33.0330 C   0  0  0  0  0  0  0  0  0  0  0  0
   -6.4840   18.6010  -33.6280 C   0  0  0  0  0  0  0  0  0  0  0  0
   -4.7350   20.1500  -31.8580 N   0  0  0  0  0  0  0  0  0  0  0  0
   -3.8000   20.8540  -31.2350 C   0  0  0  0  0  0  0  0  0  0  0  0
   -2.6880   20.3450  -30.9820 N   0  0  0  0  0  0  0  0  0  0  0  0
   -1.5410   20.8640  -30.3460 C   0  0  0  0  0  0  0  0  0  0  0  0
   -1.6520   20.1590  -28.9930 C   0  0  0  0  0  0  0  0  0  0  0  0
   -0.6740   19.2440  -28.6150 C   0  0  0  0  0  0  0  0  0  0  0  0
   -0.7590   18.5890  -27.4060 C   0  0  0  0  0  0  0  0  0  0  0  0
   -1.8560   18.9040  -26.6260 C   0  0  0  0  0  0  0  0  0  0  0  0
   -2.8190   19.7880  -26.9660 C   0  0  0  0  0  0  0  0  0  0  0  0
   -2.7410   20.4410  -28.1630 C   0  0  0  0  0  0  0  0  0  0  0  0
   -4.0490   22.1550  -30.8700 C   0  0  0  0  0  0  0  0  0  0  0  0
   -3.1040   22.8780  -30.2260 C   0  0  0  0  0  0  0  0  0  0  0  0
   -1.5970   25.7130  -26.9750 C   0  0  0  0  0  0  0  0  0  0  0  0
   -0.5800   26.4110  -27.5900 C   0  0  0  0  0  0  0  0  0  0  0  0
    0.2800   27.1590  -26.7890 C   0  0  0  0  0  0  0  0  0  0  0  0
    0.1440   27.2200  -25.4170 C   0  0  0  0  0  0  0  0  0  0  0  0
   -0.8870   26.5100  -24.8070 C   0  0  0  0  0  0  0  0  0  0  0  0
   -1.7490   25.7650  -25.5820 C   0  0  0  0  0  0  0  0  0  0  0  0
   -1.9680   25.7280  -29.7180 H   0  0  0  0  0  0  0  0  0  0  0  0
   -4.9674   25.6863  -29.9454 H   0  0  0  0  0  0  0  0  0  0  0  0
   -6.6669   24.3306  -31.1280 H   0  0  0  0  0  0  0  0  0  0  0  0
   -8.5210   20.8968  -32.1679 H   0  0  0  0  0  0  0  0  0  0  0  0
   -8.6467   20.3099  -33.8733 H   0  0  0  0  0  0  0  0  0  0  0  0
   -9.7263   19.1377  -31.5344 H   0  0  0  0  0  0  0  0  0  0  0  0
   -9.7341   18.4957  -33.2089 H   0  0  0  0  0  0  0  0  0  0  0  0
   -7.6560   18.0700  -31.1290 H   0  0  0  0  0  0  0  0  0  0  0  0
   -6.5230   16.7238  -32.6070 H   0  0  0  0  0  0  0  0  0  0  0  0
   -7.8398   16.9843  -33.8432 H   0  0  0  0  0  0  0  0  0  0  0  0
   -5.4006   18.4377  -33.5299 H   0  0  0  0  0  0  0  0  0  0  0  0
   -6.7034   18.7180  -34.6995 H   0  0  0  0  0  0  0  0  0  0  0  0
   -4.5280   19.1640  -32.1250 H   0  0  0  0  0  0  0  0  0  0  0  0
   -0.6183   20.5872  -30.8770 H   0  0  0  0  0  0  0  0  0  0  0  0
   -1.4933   21.9618  -30.2961 H   0  0  0  0  0  0  0  0  0  0  0  0
    0.1734   19.0422  -29.2867 H   0  0  0  0  0  0  0  0  0  0  0  0
   -0.0012   17.8607  -27.0815 H   0  0  0  0  0  0  0  0  0  0  0  0
   -1.9519   18.3963  -25.6549 H   0  0  0  0  0  0  0  0  0  0  0  0
   -3.6601   19.9806  -26.2837 H   0  0  0  0  0  0  0  0  0  0  0  0
   -3.5111   21.1663  -28.4646 H   0  0  0  0  0  0  0  0  0  0  0  0
   -2.1145   22.4656  -29.9792 H   0  0  0  0  0  0  0  0  0  0  0  0
   -0.4511   26.3784  -28.6819 H   0  0  0  0  0  0  0  0  0  0  0  0
    1.0961   27.7207  -27.2669 H   0  0  0  0  0  0  0  0  0  0  0  0
    0.8403   27.8211  -24.8137 H   0  0  0  0  0  0  0  0  0  0  0  0
   -1.0123   26.5436  -23.7147 H   0  0  0  0  0  0  0  0  0  0  0  0
   -2.5654   25.2049  -25.1026 H   0  0  0  0  0  0  0  0  0  0  0  0
  1  2  2  0
  2  3  1  0
  3  4  1  0
  4  5  2  0
  5  6  1  0
  6  7  2  0
  7  8  1  0
  8  9  2  0
  9 10  1  0
 10 11  1  0
 11 12  1  0
 12 13  1  0
 13 14  1  0
 14 15  1  0
  9 16  1  0
 16 17  1  0
 17 18  2  0
 18 19  1  0
 19 20  1  0
 20 21  2  0
 21 22  1  0
 22 23  2  0
 23 24  1  0
 24 25  2  0
 17 26  1  0
 26 27  2  0
  2 28  1  0
 28 29  2  0
 29 30  1  0
 30 31  2  0
 31 32  1  0
 32 33  2  0
 27  4  1  0
 33 28  1  0
 26  7  1  0
 15 10  1  0
 25 20  1  0
  3 34  1  0
  5 35  1  0
  6 36  1  0
 11 37  1  0
 11 38  1  0
 12 39  1  0
 12 40  1  0
 13 41  1  0
 14 42  1  0
 14 43  1  0
 15 44  1  0
 15 45  1  0
 16 46  1  0
 19 47  1  0
 19 48  1  0
 21 49  1  0
 22 50  1  0
 23 51  1  0
 24 52  1  0
 25 53  1  0
 27 54  1  0
 29 55  1  0
 30 56  1  0
 31 57  1  0
 32 58  1  0
 33 59  1  0
M  END
>  <smiles>  (34) 
O=C(Nc1ccc2nc(N3CCNCC3)[nH]c(=NCc3ccccc3)c2c1)c1ccccc1

>  <score_type>  (34) 
oracle

>  <origin>  (34) 
adgpu

>  <m_score__min__energy>  (34) 
-10.06

>  <m_primary>  (34) 
energy

$$$$
34:0
     RDKit          3D

 28 29  0  0  0  0  0  0  0  0999 V2000
   -8.2020   17.9760  -32.5510 N   0  0  0  0  0  0  0  0  0  0  0  0
   -6.8670   17.4230  -32.3440 C   0  0  0  0  0  0  0  0  0  0  0  0
   -5.8010   18.4990  -32.5410 C   0  0  0  0  0  0  0  0  0  0  0  0
   -6.2940   19.6580  -33.8630 S   0  0  0  0  0  0  0  0  0  0  0  0
   -6.7950   20.9450  -32.7110 C   0  0  0  0  0  0  0  0  0  0  0  0
   -5.8070   21.7590  -32.1430 C   0  0  0  0  0  0  0  0  0  0  0  0
   -6.1450   22.7790  -31.2370 C   0  0  0  0  0  0  0  0  0  0  0  0
   -5.0820   23.6330  -30.6520 C   0  0  0  0  0  0  0  0  0  0  0  0
   -4.3810   23.4100  -29.4800 C   0  0  0  0  0  0  0  0  0  0  0  0
   -3.5220   24.4820  -29.3880 C   0  0  0  0  0  0  0  0  0  0  0  0
   -3.7020   25.2940  -30.4440 N   0  0  0  0  0  0  0  0  0  0  0  0
   -4.6500   24.7800  -31.2120 N   0  0  0  0  0  0  0  0  0  0  0  0
   -7.4990   22.9680  -30.9040 C   0  0  0  0  0  0  0  0  0  0  0  0
   -8.4860   22.1550  -31.4660 C   0  0  0  0  0  0  0  0  0  0  0  0
   -8.1470   21.1420  -32.3660 C   0  0  0  0  0  0  0  0  0  0  0  0
   -9.1680   20.3550  -32.9020 O   0  0  0  0  0  0  0  0  0  0  0  0
   -8.3660   18.6970  -31.8120 H   0  0  0  0  0  0  0  0  0  0  0  0
   -8.2090   18.4830  -33.4670 H   0  0  0  0  0  0  0  0  0  0  0  0
   -6.7950   17.0264  -31.3205 H   0  0  0  0  0  0  0  0  0  0  0  0
   -6.6990   16.6201  -33.0769 H   0  0  0  0  0  0  0  0  0  0  0  0
   -5.6719   19.0562  -31.6014 H   0  0  0  0  0  0  0  0  0  0  0  0
   -4.8566   18.0140  -32.8288 H   0  0  0  0  0  0  0  0  0  0  0  0
   -4.7520   21.5979  -32.4096 H   0  0  0  0  0  0  0  0  0  0  0  0
   -4.4862   22.5675  -28.7806 H   0  0  0  0  0  0  0  0  0  0  0  0
   -2.7995   24.6484  -28.5754 H   0  0  0  0  0  0  0  0  0  0  0  0
   -7.7821   23.7612  -30.1964 H   0  0  0  0  0  0  0  0  0  0  0  0
   -9.5407   22.3141  -31.1972 H   0  0  0  0  0  0  0  0  0  0  0  0
   -9.0100   19.6690  -33.6280 H   0  0  0  0  0  0  0  0  0  0  0  0
  1  2  1  0
  2  3  1  0
  3  4  1  0
  4  5  1  0
  5  6  2  0
  6  7  1  0
  7  8  1  0
  8  9  1  0
  9 10  2  0
 10 11  1  0
 11 12  1  0
  7 13  2  0
 13 14  1  0
 14 15  2  0
 15 16  1  0
 15  5  1  0
 12  8  2  0
  1 17  1  0
  1 18  1  0
  2 19  1  0
  2 20  1  0
  3 21  1  0
  3 22  1  0
  6 23  1  0
  9 24  1  0
 10 25  1  0
 13 26  1  0
 14 27  1  0
 16 28  1  0
M  CHG  1  11  -1
M  END
>  <UniqueID>  (35) 
32

>  <SMILES>  (35) 
NCCSc1cc(-c2cc[n-]n2)ccc1O

>  <Energy>  (35) 
52.047251644695955

>  <Genealogy>  (35) 
NCCSc1cc(-c2cc[n-]n2)ccc1O (protonated)
NCCSc1cc(-c2cc[n-]n2)ccc1O (3D coordinates assigned)
NCCSc1cc(-c2cc[n-]n2)ccc1O (optimized conformer: 52.047251644695955 kcal/mol)

>  <smiles>  (35) 
NCCSc1cc(-c2cc[nH]n2)ccc1O

>  <score_type>  (35) 
oracle

>  <origin>  (35) 
adgpu

>  <m_score__min__energy>  (35) 
-8.3499999999999996

>  <m_primary>  (35) 
energy

$$$$
35:0
     RDKit          3D

 45 47  0  0  0  0  0  0  0  0999 V2000
   -9.4800   18.9010  -32.3050 C   0  0  0  0  0  0  0  0  0  0  0  0
   -8.8640   19.9840  -32.9950 O   0  0  0  0  0  0  0  0  0  0  0  0
   -7.9310   20.8650  -32.4260 C   0  0  0  0  0  0  0  0  0  0  0  0
   -8.3310   22.0400  -31.7620 C   0  0  0  0  0  0  0  0  0  0  0  0
   -7.3820   22.9070  -31.2200 C   0  0  0  0  0  0  0  0  0  0  0  0
   -6.0130   22.6250  -31.3330 C   0  0  0  0  0  0  0  0  0  0  0  0
   -5.0070   23.5490  -30.7650 C   0  0  0  0  0  0  0  0  0  0  0  0
   -4.8070   24.8080  -31.2090 N   0  0  0  0  0  0  0  0  0  0  0  0
   -3.8530   25.2780  -30.4650 O   0  0  0  0  0  0  0  0  0  0  0  0
   -3.4810   24.3680  -29.6010 C   0  0  0  0  0  0  0  0  0  0  0  0
   -2.3880   24.5540  -28.6040 C   0  0  0  0  0  0  0  0  0  0  0  0
   -4.1820   23.2280  -29.7440 N   0  0  0  0  0  0  0  0  0  0  0  0
   -5.6100   21.4540  -31.9940 C   0  0  0  0  0  0  0  0  0  0  0  0
   -6.5580   20.5680  -32.5270 C   0  0  0  0  0  0  0  0  0  0  0  0
   -6.0110   19.1020  -33.3510 S   0  0  0  0  0  0  0  0  0  0  0  0
   -6.8470   17.9290  -32.9160 O   0  0  0  0  0  0  0  0  0  0  0  0
   -6.1670   19.3020  -34.8320 O   0  0  0  0  0  0  0  0  0  0  0  0
   -4.3350   18.7830  -32.9710 N   0  0  0  0  0  0  0  0  0  0  0  0
   -4.0240   17.3370  -33.0780 C   0  0  0  0  0  0  0  0  0  0  0  0
   -3.2860   16.9830  -34.3810 C   0  0  0  0  0  0  0  0  0  0  0  0
   -2.0200   17.7490  -34.5410 N   0  0  0  0  0  0  0  0  0  0  0  0
   -0.8620   16.9590  -34.0860 C   0  0  0  0  0  0  0  0  0  0  0  0
   -2.0390   19.0700  -33.8590 C   0  0  0  0  0  0  0  0  0  0  0  0
   -3.4590   19.6430  -33.7950 C   0  0  0  0  0  0  0  0  0  0  0  0
   -9.3902   19.0589  -31.2201 H   0  0  0  0  0  0  0  0  0  0  0  0
  -10.5435   18.8479  -32.5810 H   0  0  0  0  0  0  0  0  0  0  0  0
   -8.9821   17.9598  -32.5810 H   0  0  0  0  0  0  0  0  0  0  0  0
   -9.4013   22.2766  -31.6697 H   0  0  0  0  0  0  0  0  0  0  0  0
   -7.7101   23.8190  -30.6999 H   0  0  0  0  0  0  0  0  0  0  0  0
   -2.8028   24.4834  -27.5877 H   0  0  0  0  0  0  0  0  0  0  0  0
   -1.6267   23.7725  -28.7444 H   0  0  0  0  0  0  0  0  0  0  0  0
   -1.9281   25.5433  -28.7444 H   0  0  0  0  0  0  0  0  0  0  0  0
   -4.5381   21.2285  -32.0952 H   0  0  0  0  0  0  0  0  0  0  0  0
   -3.3909   17.0492  -32.2257 H   0  0  0  0  0  0  0  0  0  0  0  0
   -4.9789   16.7910  -33.0782 H   0  0  0  0  0  0  0  0  0  0  0  0
   -3.0504   15.9086  -34.3730 H   0  0  0  0  0  0  0  0  0  0  0  0
   -3.9452   17.2444  -35.2219 H   0  0  0  0  0  0  0  0  0  0  0  0
   -1.8850   17.9220  -35.5660 H   0  0  0  0  0  0  0  0  0  0  0  0
   -0.8384   16.9429  -32.9864 H   0  0  0  0  0  0  0  0  0  0  0  0
   -0.9478   15.9303  -34.4660 H   0  0  0  0  0  0  0  0  0  0  0  0
    0.0645   17.4142  -34.4660 H   0  0  0  0  0  0  0  0  0  0  0  0
   -1.6543   18.9504  -32.8354 H   0  0  0  0  0  0  0  0  0  0  0  0
   -1.4092   19.7660  -34.4325 H   0  0  0  0  0  0  0  0  0  0  0  0
   -3.4222   20.6495  -33.3527 H   0  0  0  0  0  0  0  0  0  0  0  0
   -3.8676   19.6881  -34.8153 H   0  0  0  0  0  0  0  0  0  0  0  0
  1  2  1  0
  2  3  1  0
  3  4  2  0
  4  5  1  0
  5  6  2  0
  6  7  1  0
  7  8  2  0
  8  9  1  0
  9 10  1  0
 10 11  1  0
 10 12  2  0
  6 13  1  0
 13 14  2  0
 14 15  1  0
 15 16  2  0
 15 17  2  0
 15 18  1  0
 18 19  1  0
 19 20  1  0
 20 21  1  0
 21 22  1  0
 21 23  1  0
 23 24  1  0
 14  3  1  0
 24 18  1  0
 12  7  1  0
  1 25  1  0
  1 26  1  0
  1 27  1  0
  4 28  1  0
  5 29  1  0
 11 30  1  0
 11 31  1  0
 11 32  1  0
 13 33  1  0
 19 34  1  0
 19 35  1  0
 20 36  1  0
 20 37  1  0
 21 38  1  0
 22 39  1  0
 22 40  1  0
 22 41  1  0
 23 42  1  0
 23 43  1  0
 24 44  1  0
 24 45  1  0
M  CHG  1  21   1
M  END
>  <UniqueID>  (36) 
33

>  <SMILES>  (36) 
COc1ccc(-c2noc(C)n2)cc1S(=O)(=O)N1CC[NH+](C)CC1

>  <Energy>  (36) 
88.43312387373332

>  <Genealogy>  (36) 
COc1ccc(-c2noc(C)n2)cc1S(=O)(=O)N1CC[NH+](C)CC1 (protonated)
COc1ccc(-c2noc(C)n2)cc1S(=O)(=O)N1CC[NH+](C)CC1 (3D coordinates assigned)
COc1ccc(-c2noc(C)n2)cc1S(=O)(=O)N1CC[NH+](C)CC1 (nonaromatic ring conformer: 88.43312387373332 kcal/mol)

>  <smiles>  (36) 
COc1ccc(-c2noc(C)n2)cc1S(=O)(=O)N1CCN(C)CC1

>  <score_type>  (36) 
oracle

>  <origin>  (36) 
adgpu

>  <m_score__min__energy>  (36) 
-8.1099999999999994

>  <m_primary>  (36) 
energy

$$$$
36:0
     RDKit          3D

 66 69  0  0  0  0  0  0  0  0999 V2000
   -3.9200   23.6720  -27.5080 C   0  0  0  0  0  0  0  0  0  0  0  0
   -3.4860   22.6290  -28.3700 O   0  0  0  0  0  0  0  0  0  0  0  0
   -2.6820   21.5470  -27.9790 C   0  0  0  0  0  0  0  0  0  0  0  0
   -3.1510   20.5370  -27.1130 C   0  0  0  0  0  0  0  0  0  0  0  0
   -2.3120   19.4800  -26.7420 C   0  0  0  0  0  0  0  0  0  0  0  0
   -1.0050   19.4170  -27.2310 C   0  0  0  0  0  0  0  0  0  0  0  0
   -0.5290   20.4140  -28.0870 C   0  0  0  0  0  0  0  0  0  0  0  0
   -1.3620   21.4770  -28.4640 C   0  0  0  0  0  0  0  0  0  0  0  0
   -0.8530   22.5100  -29.3160 N   0  0  0  0  0  0  0  0  0  0  0  0
   -0.9970   22.4040  -30.7680 C   0  0  0  0  0  0  0  0  0  0  0  0
   -2.4280   22.1770  -31.1380 C   0  0  0  0  0  0  0  0  0  0  0  0
   -2.9390   21.0360  -30.9670 O   0  0  0  0  0  0  0  0  0  0  0  0
   -3.2360   23.2820  -31.5610 N   0  0  0  0  0  0  0  0  0  0  0  0
   -4.5900   23.5500  -31.1680 C   0  0  0  0  0  0  0  0  0  0  0  0
   -5.6330   22.6500  -31.4510 C   0  0  0  0  0  0  0  0  0  0  0  0
   -6.9470   22.9370  -31.0550 C   0  0  0  0  0  0  0  0  0  0  0  0
   -8.2340   21.7650  -31.3550 S   0  0  0  0  0  0  0  0  0  0  0  0
   -9.1550   22.3080  -32.4150 O   0  0  0  0  0  0  0  0  0  0  0  0
   -9.0370   21.5660  -30.0990 O   0  0  0  0  0  0  0  0  0  0  0  0
   -7.5880   20.2270  -31.8750 N   0  0  0  0  0  0  0  0  0  0  0  0
   -8.6700   19.2480  -32.0570 C   0  0  0  0  0  0  0  0  0  0  0  0
   -8.0860   17.8370  -32.2660 C   0  0  0  0  0  0  0  0  0  0  0  0
   -6.6530   17.8680  -32.8230 C   0  0  0  0  0  0  0  0  0  0  0  0
   -6.4670   19.0400  -33.7890 C   0  0  0  0  0  0  0  0  0  0  0  0
   -6.8090   20.3930  -33.1210 C   0  0  0  0  0  0  0  0  0  0  0  0
   -7.2260   24.1450  -30.4030 C   0  0  0  0  0  0  0  0  0  0  0  0
   -6.2020   25.0630  -30.1570 C   0  0  0  0  0  0  0  0  0  0  0  0
   -4.8850   24.7710  -30.5400 C   0  0  0  0  0  0  0  0  0  0  0  0
   -3.8640   25.6860  -30.2930 O   0  0  0  0  0  0  0  0  0  0  0  0
   -0.2700   23.9770  -28.5970 S   0  0  0  0  0  0  0  0  0  0  0  0
    1.1790   24.1740  -28.9450 O   0  0  0  0  0  0  0  0  0  0  0  0
   -1.0430   25.1520  -29.1310 O   0  0  0  0  0  0  0  0  0  0  0  0
   -0.4570   23.8700  -26.8510 C   0  0  0  0  0  0  0  0  0  0  0  0
    0.0490   22.7620  -26.1540 C   0  0  0  0  0  0  0  0  0  0  0  0
   -0.0580   22.7020  -24.7610 C   0  0  0  0  0  0  0  0  0  0  0  0
   -0.6610   23.7500  -24.0600 C   0  0  0  0  0  0  0  0  0  0  0  0
   -1.1610   24.8570  -24.7480 C   0  0  0  0  0  0  0  0  0  0  0  0
   -1.0590   24.9190  -26.1420 C   0  0  0  0  0  0  0  0  0  0  0  0
   -3.7903   23.3603  -26.4611 H   0  0  0  0  0  0  0  0  0  0  0  0
   -3.3236   24.5766  -27.6978 H   0  0  0  0  0  0  0  0  0  0  0  0
   -4.9821   23.8865  -27.6978 H   0  0  0  0  0  0  0  0  0  0  0  0
   -4.1804   20.5804  -26.7277 H   0  0  0  0  0  0  0  0  0  0  0  0
   -2.6826   18.6972  -26.0639 H   0  0  0  0  0  0  0  0  0  0  0  0
   -0.3498   18.5819  -26.9421 H   0  0  0  0  0  0  0  0  0  0  0  0
    0.5024   20.3646  -28.4662 H   0  0  0  0  0  0  0  0  0  0  0  0
   -0.6458   23.3358  -31.2354 H   0  0  0  0  0  0  0  0  0  0  0  0
   -0.3986   21.5521  -31.1232 H   0  0  0  0  0  0  0  0  0  0  0  0
   -5.4163   21.7141  -31.9869 H   0  0  0  0  0  0  0  0  0  0  0  0
   -9.3118   19.2463  -31.1636 H   0  0  0  0  0  0  0  0  0  0  0  0
   -9.2586   19.5263  -32.9436 H   0  0  0  0  0  0  0  0  0  0  0  0
   -8.0772   17.3124  -31.2992 H   0  0  0  0  0  0  0  0  0  0  0  0
   -8.7190   17.3195  -33.0019 H   0  0  0  0  0  0  0  0  0  0  0  0
   -5.9445   17.9736  -31.9882 H   0  0  0  0  0  0  0  0  0  0  0  0
   -6.4679   16.9308  -33.3683 H   0  0  0  0  0  0  0  0  0  0  0  0
   -5.4195   19.0628  -34.1242 H   0  0  0  0  0  0  0  0  0  0  0  0
   -7.1502   18.8952  -34.6389 H   0  0  0  0  0  0  0  0  0  0  0  0
   -5.8712   20.9167  -32.8839 H   0  0  0  0  0  0  0  0  0  0  0  0
   -7.4255   20.9687  -33.8271 H   0  0  0  0  0  0  0  0  0  0  0  0
   -8.2540   24.3714  -30.0839 H   0  0  0  0  0  0  0  0  0  0  0  0
   -6.4296   26.0182  -29.6612 H   0  0  0  0  0  0  0  0  0  0  0  0
   -2.9970   25.6700  -30.8240 H   0  0  0  0  0  0  0  0  0  0  0  0
    0.5303   21.9399  -26.7040 H   0  0  0  0  0  0  0  0  0  0  0  0
    0.3326   21.8296  -24.2167 H   0  0  0  0  0  0  0  0  0  0  0  0
   -0.7418   23.7025  -22.9640 H   0  0  0  0  0  0  0  0  0  0  0  0
   -1.6352   25.6806  -24.1941 H   0  0  0  0  0  0  0  0  0  0  0  0
   -1.4519   25.7926  -26.6828 H   0  0  0  0  0  0  0  0  0  0  0  0
  1  2  1  0
  2  3  1  0
  3  4  2  0
  4  5  1  0
  5  6  2  0
  6  7  1  0
  7  8  2  0
  8  9  1  0
  9 10  1  0
 10 11  1  0
 11 12  2  0
 11 13  1  0
 13 14  1  0
 14 15  2  0
 15 16  1  0
 16 17  1  0
 17 18  2  0
 17 19  2  0
 17 20  1  0
 20 21  1  0
 21 22  1  0
 22 23  1  0
 23 24  1  0
 24 25  1  0
 16 26  2  0
 26 27  1  0
 27 28  2  0
 28 29  1  0
  9 30  1  0
 30 31  2  0
 30 32  2  0
 30 33  1  0
 33 34  2  0
 34 35  1  0
 35 36  2  0
 36 37  1  0
 37 38  2  0
  8  3  1  0
 28 14  1  0
 38 33  1  0
 25 20  1  0
  1 39  1  0
  1 40  1  0
  1 41  1  0
  4 42  1  0
  5 43  1  0
  6 44  1  0
  7 45  1  0
 10 46  1  0
 10 47  1  0
 15 48  1  0
 21 49  1  0
 21 50  1  0
 22 51  1  0
 22 52  1  0
 23 53  1  0
 23 54  1  0
 24 55  1  0
 24 56  1  0
 25 57  1  0
 25 58  1  0
 26 59  1  0
 27 60  1  0
 29 61  1  0
 34 62  1  0
 35 63  1  0
 36 64  1  0
 37 65  1  0
 38 66  1  0
M  CHG  1  13  -1
M  END
>  <UniqueID>  (37) 
34

>  <SMILES>  (37) 
COc1ccccc1N(CC(=O)[N-]c1cc(S(=O)(=O)N2CCCCC2)ccc1O)S(=O)(=O)c1ccccc1

>  <Energy>  (37) 
76.8817172330944

>  <Genealogy>  (37) 
COc1ccccc1N(CC(=O)[N-]c1cc(S(=O)(=O)N2CCCCC2)ccc1O)S(=O)(=O)c1ccccc1 (protonated)
COc1ccccc1N(CC(=O)[N-]c1cc(S(=O)(=O)N2CCCCC2)ccc1O)S(=O)(=O)c1ccccc1 (3D coordinates assigned)
COc1ccccc1N(CC(=O)[N-]c1cc(S(=O)(=O)N2CCCCC2)ccc1O)S(=O)(=O)c1ccccc1 (nonaromatic ring conformer: 76.8817172330944 kcal/mol)

>  <smiles>  (37) 
COc1ccccc1N(CC(=O)Nc1cc(S(=O)(=O)N2CCCCC2)ccc1O)S(=O)(=O)c1ccccc1

>  <score_type>  (37) 
oracle

>  <origin>  (37) 
adgpu

>  <m_score__min__energy>  (37) 
-13.220000000000001

>  <m_primary>  (37) 
energy

$$$$
37:0
     RDKit          3D

 56 59  0  0  0  0  0  0  0  0999 V2000
   -2.2140   24.7610  -28.5590 C   0  0  0  0  0  0  0  0  0  0  0  0
   -2.9760   24.9960  -29.7390 O   0  0  0  0  0  0  0  0  0  0  0  0
   -4.1540   24.3120  -30.0850 C   0  0  0  0  0  0  0  0  0  0  0  0
   -5.4220   24.8490  -29.7840 C   0  0  0  0  0  0  0  0  0  0  0  0
   -6.5860   24.1640  -30.1340 C   0  0  0  0  0  0  0  0  0  0  0  0
   -6.5070   22.9330  -30.7900 C   0  0  0  0  0  0  0  0  0  0  0  0
   -7.9660   22.0490  -31.2330 S   0  0  0  0  0  0  0  0  0  0  0  0
   -8.8860   21.9310  -30.0470 O   0  0  0  0  0  0  0  0  0  0  0  0
   -8.6710   22.8080  -32.3240 O   0  0  0  0  0  0  0  0  0  0  0  0
   -7.5240   20.4580  -31.8010 N   0  0  0  0  0  0  0  0  0  0  0  0
   -8.7330   19.6390  -31.9970 C   0  0  0  0  0  0  0  0  0  0  0  0
   -8.3500   18.1740  -32.2870 C   0  0  0  0  0  0  0  0  0  0  0  0
   -6.9240   18.0410  -32.8460 C   0  0  0  0  0  0  0  0  0  0  0  0
   -6.5880   19.2130  -33.7730 C   0  0  0  0  0  0  0  0  0  0  0  0
   -6.7570   20.5740  -33.0600 C   0  0  0  0  0  0  0  0  0  0  0  0
   -5.2560   22.3880  -31.0930 C   0  0  0  0  0  0  0  0  0  0  0  0
   -4.0690   23.0640  -30.7480 C   0  0  0  0  0  0  0  0  0  0  0  0
   -2.7620   22.4450  -31.0960 C   0  0  0  0  0  0  0  0  0  0  0  0
   -2.4550   22.0260  -32.3460 N   0  0  0  0  0  0  0  0  0  0  0  0
   -1.2090   21.5440  -32.2220 C   0  0  0  0  0  0  0  0  0  0  0  0
   -0.2870   20.8510  -33.5420 S   0  0  0  0  0  0  0  0  0  0  0  0
    1.0290   20.3580  -33.0080 O   0  0  0  0  0  0  0  0  0  0  0  0
   -0.0360   21.9080  -34.5820 O   0  0  0  0  0  0  0  0  0  0  0  0
   -1.1800   19.5260  -34.2490 N   0  0  0  0  0  0  0  0  0  0  0  0
   -0.6500   18.2200  -33.7970 C   0  0  0  0  0  0  0  0  0  0  0  0
   -1.5650   17.5460  -32.7580 C   0  0  0  0  0  0  0  0  0  0  0  0
   -2.8870   17.3310  -33.2330 O   0  0  0  0  0  0  0  0  0  0  0  0
   -3.3530   18.3460  -34.1160 C   0  0  0  0  0  0  0  0  0  0  0  0
   -2.6200   19.6900  -33.9730 C   0  0  0  0  0  0  0  0  0  0  0  0
   -0.7830   21.6720  -30.9250 C   0  0  0  0  0  0  0  0  0  0  0  0
   -1.7640   22.2430  -30.2050 N   0  0  0  0  0  0  0  0  0  0  0  0
   -2.8389   24.9537  -27.6745 H   0  0  0  0  0  0  0  0  0  0  0  0
   -1.8719   23.7156  -28.5455 H   0  0  0  0  0  0  0  0  0  0  0  0
   -1.3426   25.4321  -28.5455 H   0  0  0  0  0  0  0  0  0  0  0  0
   -5.4946   25.8178  -29.2680 H   0  0  0  0  0  0  0  0  0  0  0  0
   -7.5691   24.5945  -29.8927 H   0  0  0  0  0  0  0  0  0  0  0  0
   -9.3491   19.6789  -31.0866 H   0  0  0  0  0  0  0  0  0  0  0  0
   -9.2973   20.0360  -32.8537 H   0  0  0  0  0  0  0  0  0  0  0  0
   -8.4178   17.5993  -31.3515 H   0  0  0  0  0  0  0  0  0  0  0  0
   -9.0457   17.7896  -33.0474 H   0  0  0  0  0  0  0  0  0  0  0  0
   -6.2094   18.0270  -32.0099 H   0  0  0  0  0  0  0  0  0  0  0  0
   -6.8589   17.1069  -33.4232 H   0  0  0  0  0  0  0  0  0  0  0  0
   -5.5453   19.1139  -34.1090 H   0  0  0  0  0  0  0  0  0  0  0  0
   -7.2820   19.1848  -34.6260 H   0  0  0  0  0  0  0  0  0  0  0  0
   -5.7604   20.9791  -32.8307 H   0  0  0  0  0  0  0  0  0  0  0  0
   -7.3164   21.2392  -33.7341 H   0  0  0  0  0  0  0  0  0  0  0  0
   -5.1975   21.4178  -31.6080 H   0  0  0  0  0  0  0  0  0  0  0  0
   -0.5553   17.5558  -34.6687 H   0  0  0  0  0  0  0  0  0  0  0  0
    0.3252   18.3992  -33.3207 H   0  0  0  0  0  0  0  0  0  0  0  0
   -1.1286   16.5736  -32.4862 H   0  0  0  0  0  0  0  0  0  0  0  0
   -1.6338   18.2236  -31.8942 H   0  0  0  0  0  0  0  0  0  0  0  0
   -3.2239   17.9907  -35.1490 H   0  0  0  0  0  0  0  0  0  0  0  0
   -4.4062   18.5309  -33.8578 H   0  0  0  0  0  0  0  0  0  0  0  0
   -3.0452   20.4117  -34.6860 H   0  0  0  0  0  0  0  0  0  0  0  0
   -2.7451   20.0553  -32.9430 H   0  0  0  0  0  0  0  0  0  0  0  0
    0.1981   21.3595  -30.5381 H   0  0  0  0  0  0  0  0  0  0  0  0
  1  2  1  0
  2  3  1  0
  3  4  2  0
  4  5  1  0
  5  6  2  0
  6  7  1  0
  7  8  2  0
  7  9  2  0
  7 10  1  0
 10 11  1  0
 11 12  1  0
 12 13  1  0
 13 14  1  0
 14 15  1  0
  6 16  1  0
 16 17  2  0
 17 18  1  0
 18 19  2  0
 19 20  1  0
 20 21  1  0
 21 22  2  0
 21 23  2  0
 21 24  1  0
 24 25  1  0
 25 26  1  0
 26 27  1  0
 27 28  1  0
 28 29  1  0
 20 30  2  0
 30 31  1  0
 17  3  1  0
 31 18  1  0
 15 10  1  0
 29 24  1  0
  1 32  1  0
  1 33  1  0
  1 34  1  0
  4 35  1  0
  5 36  1  0
 11 37  1  0
 11 38  1  0
 12 39  1  0
 12 40  1  0
 13 41  1  0
 13 42  1  0
 14 43  1  0
 14 44  1  0
 15 45  1  0
 15 46  1  0
 16 47  1  0
 25 48  1  0
 25 49  1  0
 26 50  1  0
 26 51  1  0
 28 52  1  0
 28 53  1  0
 29 54  1  0
 29 55  1  0
 30 56  1  0
M  CHG  1  31  -1
M  END
>  <UniqueID>  (38) 
35

>  <SMILES>  (38) 
COc1ccc(S(=O)(=O)N2CCCCC2)cc1-c1nc(S(=O)(=O)N2CCOCC2)c[n-]1

>  <Energy>  (38) 
101.67078853067369

>  <Genealogy>  (38) 
COc1ccc(S(=O)(=O)N2CCCCC2)cc1-c1nc(S(=O)(=O)N2CCOCC2)c[n-]1 (protonated)
COc1ccc(S(=O)(=O)N2CCCCC2)cc1-c1nc(S(=O)(=O)N2CCOCC2)c[n-]1 (3D coordinates assigned)
COc1ccc(S(=O)(=O)N2CCCCC2)cc1-c1nc(S(=O)(=O)N2CCOCC2)c[n-]1 (nonaromatic ring conformer: 101.67078853067369 kcal/mol)

>  <smiles>  (38) 
COc1ccc(S(=O)(=O)N2CCCCC2)cc1-c1nc(S(=O)(=O)N2CCOCC2)c[nH]1

>  <score_type>  (38) 
oracle

>  <origin>  (38) 
adgpu

>  <m_score__min__energy>  (38) 
-11.09

>  <m_primary>  (38) 
energy

$$$$
38:0
     RDKit          3D

 65 68  0  0  0  0  0  0  0  0999 V2000
   -2.9761   28.7530  -35.3926 H   0  0  0  0  0  0  0  0  0  0  0  0
   -1.9960   28.3540  -35.6930 C   0  0  0  0  0  0  0  0  0  0  0  0
   -0.9670   28.2510  -34.7530 C   0  0  0  0  0  0  0  0  0  0  0  0
   -1.1368   28.5709  -33.7143 H   0  0  0  0  0  0  0  0  0  0  0  0
    0.2790   27.7410  -35.1330 C   0  0  0  0  0  0  0  0  0  0  0  0
    1.0899   27.6684  -34.3933 H   0  0  0  0  0  0  0  0  0  0  0  0
    0.4990   27.3210  -36.4560 C   0  0  0  0  0  0  0  0  0  0  0  0
    1.8540   26.8080  -36.8760 C   0  0  0  0  0  0  0  0  0  0  0  0
    2.4768   26.6810  -35.9782 H   0  0  0  0  0  0  0  0  0  0  0  0
    2.2890   27.5426  -37.5697 H   0  0  0  0  0  0  0  0  0  0  0  0
    1.7730   25.4840  -37.6010 C   0  0  0  0  0  0  0  0  0  0  0  0
    1.0660   25.3870  -38.6410 O   0  0  0  0  0  0  0  0  0  0  0  0
    2.4770   24.3110  -37.1550 N   0  0  0  0  0  0  0  0  0  0  0  0
    2.0720   23.3840  -36.3370 C   0  0  0  0  0  0  0  0  0  0  0  0
    0.8630   23.3600  -35.7300 N   0  0  0  0  0  0  0  0  0  0  0  0
    0.6980   22.2990  -34.9410 N   0  0  0  0  0  0  0  0  0  0  0  0
    1.7710   21.4750  -34.9250 C   0  0  0  0  0  0  0  0  0  0  0  0
    1.8470   20.2290  -34.0970 C   0  0  0  0  0  0  0  0  0  0  0  0
    2.4078   19.4652  -34.6557 H   0  0  0  0  0  0  0  0  0  0  0  0
    2.3497   20.4802  -33.1514 H   0  0  0  0  0  0  0  0  0  0  0  0
    0.4560   19.6750  -33.7610 C   0  0  0  0  0  0  0  0  0  0  0  0
   -0.2792   20.4888  -33.8465 H   0  0  0  0  0  0  0  0  0  0  0  0
    0.2377   18.8611  -34.4680 H   0  0  0  0  0  0  0  0  0  0  0  0
    0.3880   19.0940  -32.3380 C   0  0  0  0  0  0  0  0  0  0  0  0
   -0.5530   18.5351  -32.2282 H   0  0  0  0  0  0  0  0  0  0  0  0
    1.2611   18.4396  -32.1985 H   0  0  0  0  0  0  0  0  0  0  0  0
    0.4420   20.1880  -31.2610 C   0  0  0  0  0  0  0  0  0  0  0  0
    0.7387   19.7316  -30.3051 H   0  0  0  0  0  0  0  0  0  0  0  0
    1.1714   20.9463  -31.5817 H   0  0  0  0  0  0  0  0  0  0  0  0
   -0.8930   20.8690  -31.0830 C   0  0  0  0  0  0  0  0  0  0  0  0
   -1.0910   21.7620  -30.0200 C   0  0  0  0  0  0  0  0  0  0  0  0
   -0.2650   21.9796  -29.3269 H   0  0  0  0  0  0  0  0  0  0  0  0
   -2.3330   22.3770  -29.8370 C   0  0  0  0  0  0  0  0  0  0  0  0
   -2.4737   23.0879  -29.0095 H   0  0  0  0  0  0  0  0  0  0  0  0
   -3.4010   22.0940  -30.7010 C   0  0  0  0  0  0  0  0  0  0  0  0
   -4.6630   22.7530  -30.4990 N   0  0  0  0  0  0  0  0  0  0  0  0
   -5.5260   22.1650  -30.4750 H   0  0  0  0  0  0  0  0  0  0  0  0
   -4.8300   24.1790  -30.4660 C   0  0  0  0  0  0  0  0  0  0  0  0
   -3.8960   24.9450  -30.8280 O   0  0  0  0  0  0  0  0  0  0  0  0
   -6.1420   24.7680  -30.0400 C   0  0  0  0  0  0  0  0  0  0  0  0
   -6.2308   24.7021  -28.9456 H   0  0  0  0  0  0  0  0  0  0  0  0
   -6.1818   25.8199  -30.3593 H   0  0  0  0  0  0  0  0  0  0  0  0
   -7.2610   24.0350  -30.6640 N   0  0  0  0  0  0  0  0  0  0  0  0
   -7.5380   22.7860  -29.9220 C   0  0  0  0  0  0  0  0  0  0  0  0
   -6.5857   22.3374  -29.6029 H   0  0  0  0  0  0  0  0  0  0  0  0
   -8.1604   23.0263  -29.0474 H   0  0  0  0  0  0  0  0  0  0  0  0
   -8.2970   21.7820  -30.8060 C   0  0  0  0  0  0  0  0  0  0  0  0
   -8.5059   20.8827  -30.2080 H   0  0  0  0  0  0  0  0  0  0  0  0
   -9.2142   22.2851  -31.1460 H   0  0  0  0  0  0  0  0  0  0  0  0
   -7.5850   21.3890  -31.9720 O   0  0  0  0  0  0  0  0  0  0  0  0
   -6.6300   22.3470  -32.4100 C   0  0  0  0  0  0  0  0  0  0  0  0
   -5.6751   22.1442  -31.9030 H   0  0  0  0  0  0  0  0  0  0  0  0
   -6.5501   22.2491  -33.5027 H   0  0  0  0  0  0  0  0  0  0  0  0
   -7.0410   23.8020  -32.1130 C   0  0  0  0  0  0  0  0  0  0  0  0
   -6.2440   24.4743  -32.4634 H   0  0  0  0  0  0  0  0  0  0  0  0
   -7.9884   23.9999  -32.6357 H   0  0  0  0  0  0  0  0  0  0  0  0
   -3.1950   21.2140  -31.7790 C   0  0  0  0  0  0  0  0  0  0  0  0
   -4.0159   21.0081  -32.4817 H   0  0  0  0  0  0  0  0  0  0  0  0
   -1.9530   20.6000  -31.9620 C   0  0  0  0  0  0  0  0  0  0  0  0
   -1.8057   19.9022  -32.7995 H   0  0  0  0  0  0  0  0  0  0  0  0
    3.0100   22.0570  -35.9090 S   0  0  0  0  0  0  0  0  0  0  0  0
   -0.5370   27.4400  -37.3970 C   0  0  0  0  0  0  0  0  0  0  0  0
   -0.3689   27.1303  -38.4390 H   0  0  0  0  0  0  0  0  0  0  0  0
   -1.7820   27.9510  -37.0140 C   0  0  0  0  0  0  0  0  0  0  0  0
   -2.5925   28.0356  -37.7528 H   0  0  0  0  0  0  0  0  0  0  0  0
  1  2  1  0
  2  3  2  0
  3  4  1  0
  3  5  1  0
  5  6  1  0
  5  7  2  0
  7  8  1  0
  8  9  1  0
  8 10  1  0
  8 11  1  0
 11 12  2  0
 11 13  1  0
 13 14  2  0
 14 15  1  0
 15 16  1  0
 16 17  2  0
 17 18  1  0
 18 19  1  0
 18 20  1  0
 18 21  1  0
 21 22  1  0
 21 23  1  0
 21 24  1  0
 24 25  1  0
 24 26  1  0
 24 27  1  0
 27 28  1  0
 27 29  1  0
 27 30  1  0
 30 31  2  0
 31 32  1  0
 31 33  1  0
 33 34  1  0
 33 35  2  0
 35 36  1  0
 36 37  1  0
 36 38  1  0
 38 39  2  0
 38 40  1  0
 40 41  1  0
 40 42  1  0
 40 43  1  0
 43 44  1  0
 44 45  1  0
 44 46  1  0
 44 47  1  0
 47 48  1  0
 47 49  1  0
 47 50  1  0
 50 51  1  0
 51 52  1  0
 51 53  1  0
 51 54  1  0
 54 55  1  0
 54 56  1  0
 35 57  1  0
 57 58  1  0
 57 59  2  0
 59 60  1  0
 17 61  1  0
  7 62  1  0
 62 63  1  0
 62 64  2  0
 64 65  1  0
 64  2  1  0
 61 14  1  0
 59 30  1  0
 54 43  1  0
M  CHG  1  15  -1
M  END
>  <UniqueID>  (39) 
36

>  <SMILES>  (39) 
O=C(Cc1ccccc1)/N=c1\[n-]nc(CCCCc2ccc(NC(=O)CN3CCOCC3)cc2)s1

>  <Energy>  (39) 
114.9308214572551

>  <Genealogy>  (39) 
O=C(Cc1ccccc1)N=c1[n-]nc(CCCCc2ccc(NC(=O)CN3CCOCC3)cc2)s1 (protonated)
O=C(Cc1ccccc1)/N=c1\[n-]nc(CCCCc2ccc(NC(=O)CN3CCOCC3)cc2)s1 (cis-trans isomerization)
O=C(Cc1ccccc1)/N=c1\[n-]nc(CCCCc2ccc(NC(=O)CN3CCOCC3)cc2)s1 (3D coordinates assigned)
O=C(Cc1ccccc1)/N=c1\[n-]nc(CCCCc2ccc(NC(=O)CN3CCOCC3)cc2)s1 (nonaromatic ring conformer: 114.9308214572551 kcal/mol)

>  <smiles>  (39) 
O=C(Cc1ccccc1)N=c1[nH]nc(CCCCc2ccc(NC(=O)CN3CCOCC3)cc2)s1

>  <score_type>  (39) 
oracle

>  <origin>  (39) 
adgpu

>  <m_score__min__energy>  (39) 
-12.02

>  <m_primary>  (39) 
energy

$$$$
39:0
     RDKit          3D

 63 66  0  0  0  0  0  0  0  0999 V2000
    0.3670   17.8400  -29.4660 C   0  0  0  0  0  0  0  0  0  0  0  0
    0.1950   18.8250  -28.2920 C   0  0  0  0  0  0  0  0  0  0  0  0
   -0.4990   18.1110  -27.1150 C   0  0  0  0  0  0  0  0  0  0  0  0
    1.5910   19.3060  -27.8420 C   0  0  0  0  0  0  0  0  0  0  0  0
   -0.6560   20.0070  -28.7220 C   0  0  0  0  0  0  0  0  0  0  0  0
   -1.3430   20.8690  -27.8820 C   0  0  0  0  0  0  0  0  0  0  0  0
   -1.8650   21.8300  -28.7230 C   0  0  0  0  0  0  0  0  0  0  0  0
   -2.6760   22.9800  -28.2820 C   0  0  0  0  0  0  0  0  0  0  0  0
   -2.0880   23.9930  -27.8230 O   0  0  0  0  0  0  0  0  0  0  0  0
   -4.1100   22.9790  -28.3400 N   0  0  0  0  0  0  0  0  0  0  0  0
   -4.9350   23.3920  -29.4410 C   0  0  0  0  0  0  0  0  0  0  0  0
   -6.0520   22.6430  -29.8530 C   0  0  0  0  0  0  0  0  0  0  0  0
   -6.8470   23.0700  -30.9240 C   0  0  0  0  0  0  0  0  0  0  0  0
   -8.2880   22.1500  -31.3860 S   0  0  0  0  0  0  0  0  0  0  0  0
   -9.1870   23.0230  -32.2160 O   0  0  0  0  0  0  0  0  0  0  0  0
   -9.0340   21.7700  -30.1370 O   0  0  0  0  0  0  0  0  0  0  0  0
   -7.9140   20.7110  -32.3140 N   0  0  0  0  0  0  0  0  0  0  0  0
   -9.1180   19.9560  -32.6920 C   0  0  0  0  0  0  0  0  0  0  0  0
   -9.0570   18.6050  -32.0050 C   0  0  0  0  0  0  0  0  0  0  0  0
   -7.5870   18.3920  -31.7310 C   0  0  0  0  0  0  0  0  0  0  0  0
   -7.0270   19.7960  -31.5790 C   0  0  0  0  0  0  0  0  0  0  0  0
   -6.5110   24.2500  -31.5990 C   0  0  0  0  0  0  0  0  0  0  0  0
   -5.3900   24.9880  -31.2130 C   0  0  0  0  0  0  0  0  0  0  0  0
   -4.5990   24.5610  -30.1390 C   0  0  0  0  0  0  0  0  0  0  0  0
   -3.4790   25.2980  -29.7560 O   0  0  0  0  0  0  0  0  0  0  0  0
   -1.5080   21.5360  -29.9940 N   0  0  0  0  0  0  0  0  0  0  0  0
   -1.9040   22.2230  -31.2260 C   0  0  0  0  0  0  0  0  0  0  0  0
   -2.8250   21.3640  -32.0520 C   0  0  0  0  0  0  0  0  0  0  0  0
   -2.4880   20.0300  -32.3400 C   0  0  0  0  0  0  0  0  0  0  0  0
   -3.3370   19.2440  -33.1250 C   0  0  0  0  0  0  0  0  0  0  0  0
   -4.5300   19.7780  -33.6200 C   0  0  0  0  0  0  0  0  0  0  0  0
   -4.8800   21.0990  -33.3240 C   0  0  0  0  0  0  0  0  0  0  0  0
   -4.0350   21.8880  -32.5380 C   0  0  0  0  0  0  0  0  0  0  0  0
   -0.7670   20.4390  -29.9960 N   0  0  0  0  0  0  0  0  0  0  0  0
    0.5437   16.8280  -29.0727 H   0  0  0  0  0  0  0  0  0  0  0  0
   -0.5448   17.8402  -30.0814 H   0  0  0  0  0  0  0  0  0  0  0  0
    1.2247   18.1492  -30.0814 H   0  0  0  0  0  0  0  0  0  0  0  0
   -0.1122   18.5090  -26.1653 H   0  0  0  0  0  0  0  0  0  0  0  0
   -1.5840   18.2833  -27.1700 H   0  0  0  0  0  0  0  0  0  0  0  0
   -0.2959   17.0313  -27.1700 H   0  0  0  0  0  0  0  0  0  0  0  0
    1.6368   19.3218  -26.7431 H   0  0  0  0  0  0  0  0  0  0  0  0
    2.3581   18.6203  -28.2311 H   0  0  0  0  0  0  0  0  0  0  0  0
    1.7730   20.3187  -28.2311 H   0  0  0  0  0  0  0  0  0  0  0  0
   -1.4485   20.8020  -26.7891 H   0  0  0  0  0  0  0  0  0  0  0  0
   -6.3043   21.7102  -29.3274 H   0  0  0  0  0  0  0  0  0  0  0  0
  -10.0173   20.4999  -32.3674 H   0  0  0  0  0  0  0  0  0  0  0  0
   -9.1630   19.8287  -33.7837 H   0  0  0  0  0  0  0  0  0  0  0  0
   -9.6304   18.6189  -31.0664 H   0  0  0  0  0  0  0  0  0  0  0  0
   -9.4910   17.8016  -32.6183 H   0  0  0  0  0  0  0  0  0  0  0  0
   -7.4426   17.8126  -30.8072 H   0  0  0  0  0  0  0  0  0  0  0  0
   -7.0881   17.8245  -32.5304 H   0  0  0  0  0  0  0  0  0  0  0  0
   -6.9983   20.0752  -30.5154 H   0  0  0  0  0  0  0  0  0  0  0  0
   -6.0028   19.8484  -31.9768 H   0  0  0  0  0  0  0  0  0  0  0  0
   -7.1330   24.5973  -32.4372 H   0  0  0  0  0  0  0  0  0  0  0  0
   -5.1272   25.9085  -31.7548 H   0  0  0  0  0  0  0  0  0  0  0  0
   -3.1530   25.3070  -28.7960 H   0  0  0  0  0  0  0  0  0  0  0  0
   -2.4216   23.1581  -30.9658 H   0  0  0  0  0  0  0  0  0  0  0  0
   -0.9995   22.4338  -31.8155 H   0  0  0  0  0  0  0  0  0  0  0  0
   -1.5536   19.6033  -31.9466 H   0  0  0  0  0  0  0  0  0  0  0  0
   -3.0654   18.2029  -33.3536 H   0  0  0  0  0  0  0  0  0  0  0  0
   -5.1934   19.1593  -34.2422 H   0  0  0  0  0  0  0  0  0  0  0  0
   -5.8211   21.5178  -33.7100 H   0  0  0  0  0  0  0  0  0  0  0  0
   -4.3185   22.9236  -32.2989 H   0  0  0  0  0  0  0  0  0  0  0  0
  1  2  1  0
  2  3  1  0
  2  4  1  0
  2  5  1  0
  5  6  1  0
  6  7  2  0
  7  8  1  0
  8  9  2  0
  8 10  1  0
 10 11  1  0
 11 12  2  0
 12 13  1  0
 13 14  1  0
 14 15  2  0
 14 16  2  0
 14 17  1  0
 17 18  1  0
 18 19  1  0
 19 20  1  0
 20 21  1  0
 13 22  2  0
 22 23  1  0
 23 24  2  0
 24 25  1  0
  7 26  1  0
 26 27  1  0
 27 28  1  0
 28 29  2  0
 29 30  1  0
 30 31  2  0
 31 32  1  0
 32 33  2  0
 26 34  1  0
 34  5  2  0
 24 11  1  0
 33 28  1  0
 21 17  1  0
  1 35  1  0
  1 36  1  0
  1 37  1  0
  3 38  1  0
  3 39  1  0
  3 40  1  0
  4 41  1  0
  4 42  1  0
  4 43  1  0
  6 44  1  0
 12 45  1  0
 18 46  1  0
 18 47  1  0
 19 48  1  0
 19 49  1  0
 20 50  1  0
 20 51  1  0
 21 52  1  0
 21 53  1  0
 22 54  1  0
 23 55  1  0
 25 56  1  0
 27 57  1  0
 27 58  1  0
 29 59  1  0
 30 60  1  0
 31 61  1  0
 32 62  1  0
 33 63  1  0
M  CHG  1  10  -1
M  END
>  <UniqueID>  (40) 
37

>  <SMILES>  (40) 
CC(C)(C)c1cc(C(=O)[N-]c2cc(S(=O)(=O)N3CCCC3)ccc2O)n(Cc2ccccc2)n1

>  <Energy>  (40) 
96.79714647291476

>  <Genealogy>  (40) 
CC(C)(C)c1cc(C(=O)[N-]c2cc(S(=O)(=O)N3CCCC3)ccc2O)n(Cc2ccccc2)n1 (protonated)
CC(C)(C)c1cc(C(=O)[N-]c2cc(S(=O)(=O)N3CCCC3)ccc2O)n(Cc2ccccc2)n1 (3D coordinates assigned)
CC(C)(C)c1cc(C(=O)[N-]c2cc(S(=O)(=O)N3CCCC3)ccc2O)n(Cc2ccccc2)n1 (nonaromatic ring conformer: 96.79714647291476 kcal/mol)

>  <smiles>  (40) 
CC(C)(C)c1cc(C(=O)Nc2cc(S(=O)(=O)N3CCCC3)ccc2O)n(Cc2ccccc2)n1

>  <score_type>  (40) 
oracle

>  <origin>  (40) 
adgpu

>  <m_score__min__energy>  (40) 
-12.369999999999999

>  <m_primary>  (40) 
energy

$$$$
40:0
     RDKit          3D

 59 62  0  0  0  0  0  0  0  0999 V2000
   -2.1960   20.7040  -34.2400 N   0  0  0  0  0  0  0  0  0  0  0  0
   -1.8290   20.7600  -32.8560 C   0  0  0  0  0  0  0  0  0  0  0  0
   -0.6460   21.4200  -32.4930 C   0  0  0  0  0  0  0  0  0  0  0  0
   -0.2000   21.4020  -31.1700 C   0  0  0  0  0  0  0  0  0  0  0  0
   -0.9260   20.7150  -30.1910 C   0  0  0  0  0  0  0  0  0  0  0  0
   -0.3460   20.6700  -28.5290 S   0  0  0  0  0  0  0  0  0  0  0  0
   -1.5170   20.5860  -27.5880 O   0  0  0  0  0  0  0  0  0  0  0  0
    0.4230   21.9310  -28.2480 O   0  0  0  0  0  0  0  0  0  0  0  0
    0.6970   19.2870  -28.2940 N   0  0  0  0  0  0  0  0  0  0  0  0
    1.1010   18.6870  -29.5730 C   0  0  0  0  0  0  0  0  0  0  0  0
    1.0420   17.1690  -29.4170 C   0  0  0  0  0  0  0  0  0  0  0  0
    0.6360   16.9280  -27.9770 C   0  0  0  0  0  0  0  0  0  0  0  0
    0.0130   18.2370  -27.5410 C   0  0  0  0  0  0  0  0  0  0  0  0
   -2.1110   20.0560  -30.5440 C   0  0  0  0  0  0  0  0  0  0  0  0
   -2.5940   20.1090  -31.8580 C   0  0  0  0  0  0  0  0  0  0  0  0
   -3.8600   19.4910  -32.1390 N   0  0  0  0  0  0  0  0  0  0  0  0
   -4.9400   20.0890  -32.8700 C   0  0  0  0  0  0  0  0  0  0  0  0
   -5.1860   19.6740  -34.0350 O   0  0  0  0  0  0  0  0  0  0  0  0
   -5.7560   21.1900  -32.3110 C   0  0  0  0  0  0  0  0  0  0  0  0
   -5.1300   22.1740  -31.5270 C   0  0  0  0  0  0  0  0  0  0  0  0
   -5.8800   23.2020  -30.9410 C   0  0  0  0  0  0  0  0  0  0  0  0
   -5.0800   24.4000  -29.9280 S   0  0  0  0  0  0  0  0  0  0  0  0
   -4.1350   25.1940  -30.7890 O   0  0  0  0  0  0  0  0  0  0  0  0
   -6.1160   25.3220  -29.3440 O   0  0  0  0  0  0  0  0  0  0  0  0
   -4.1970   23.5990  -28.6410 N   0  0  0  0  0  0  0  0  0  0  0  0
   -3.8320   24.5380  -27.5570 C   0  0  0  0  0  0  0  0  0  0  0  0
   -2.3770   25.0320  -27.6590 C   0  0  0  0  0  0  0  0  0  0  0  0
   -1.9800   25.1080  -29.0100 O   0  0  0  0  0  0  0  0  0  0  0  0
   -1.8700   23.8070  -29.5620 C   0  0  0  0  0  0  0  0  0  0  0  0
   -3.0290   22.8630  -29.1580 C   0  0  0  0  0  0  0  0  0  0  0  0
   -7.2640   23.2500  -31.1410 C   0  0  0  0  0  0  0  0  0  0  0  0
   -7.8900   22.2970  -31.9470 C   0  0  0  0  0  0  0  0  0  0  0  0
   -7.1430   21.2740  -32.5470 C   0  0  0  0  0  0  0  0  0  0  0  0
   -7.7730   20.3600  -33.3910 O   0  0  0  0  0  0  0  0  0  0  0  0
   -3.0970   20.2650  -34.5330 H   0  0  0  0  0  0  0  0  0  0  0  0
   -1.6280   21.1750  -34.9780 H   0  0  0  0  0  0  0  0  0  0  0  0
   -0.0644   21.9565  -33.2572 H   0  0  0  0  0  0  0  0  0  0  0  0
    0.7255   21.9299  -30.8964 H   0  0  0  0  0  0  0  0  0  0  0  0
    0.4144   19.0080  -30.3702 H   0  0  0  0  0  0  0  0  0  0  0  0
    2.1188   19.0059  -29.8420 H   0  0  0  0  0  0  0  0  0  0  0  0
    0.2974   16.7402  -30.1037 H   0  0  0  0  0  0  0  0  0  0  0  0
    2.0059   16.6955  -29.6550 H   0  0  0  0  0  0  0  0  0  0  0  0
   -0.0936   16.1075  -27.9098 H   0  0  0  0  0  0  0  0  0  0  0  0
    1.4863   16.6352  -27.3436 H   0  0  0  0  0  0  0  0  0  0  0  0
   -1.0627   18.2423  -27.7710 H   0  0  0  0  0  0  0  0  0  0  0  0
    0.1185   18.3888  -26.4566 H   0  0  0  0  0  0  0  0  0  0  0  0
   -2.6677   19.4913  -29.7817 H   0  0  0  0  0  0  0  0  0  0  0  0
   -4.0416   22.1368  -31.3721 H   0  0  0  0  0  0  0  0  0  0  0  0
   -4.5028   25.4085  -27.6056 H   0  0  0  0  0  0  0  0  0  0  0  0
   -3.9320   23.9980  -26.6039 H   0  0  0  0  0  0  0  0  0  0  0  0
   -2.2993   26.0292  -27.2012 H   0  0  0  0  0  0  0  0  0  0  0  0
   -1.7207   24.3236  -27.1323 H   0  0  0  0  0  0  0  0  0  0  0  0
   -1.8584   23.8941  -30.6585 H   0  0  0  0  0  0  0  0  0  0  0  0
   -0.9423   23.3664  -29.1679 H   0  0  0  0  0  0  0  0  0  0  0  0
   -3.3381   22.2846  -30.0411 H   0  0  0  0  0  0  0  0  0  0  0  0
   -2.6632   22.2063  -28.3549 H   0  0  0  0  0  0  0  0  0  0  0  0
   -7.8604   24.0405  -30.6621 H   0  0  0  0  0  0  0  0  0  0  0  0
   -8.9763   22.3494  -32.1121 H   0  0  0  0  0  0  0  0  0  0  0  0
   -7.3110   19.9940  -34.2160 H   0  0  0  0  0  0  0  0  0  0  0  0
  1  2  1  0
  2  3  2  0
  3  4  1  0
  4  5  2  0
  5  6  1  0
  6  7  2  0
  6  8  2  0
  6  9  1  0
  9 10  1  0
 10 11  1  0
 11 12  1  0
 12 13  1  0
  5 14  1  0
 14 15  2  0
 15 16  1  0
 16 17  1  0
 17 18  2  0
 17 19  1  0
 19 20  2  0
 20 21  1  0
 21 22  1  0
 22 23  2  0
 22 24  2  0
 22 25  1  0
 25 26  1  0
 26 27  1  0
 27 28  1  0
 28 29  1  0
 29 30  1  0
 21 31  2  0
 31 32  1  0
 32 33  2  0
 33 34  1  0
 15  2  1  0
 33 19  1  0
 13  9  1  0
 30 25  1  0
  1 35  1  0
  1 36  1  0
  3 37  1  0
  4 38  1  0
 10 39  1  0
 10 40  1  0
 11 41  1  0
 11 42  1  0
 12 43  1  0
 12 44  1  0
 13 45  1  0
 13 46  1  0
 14 47  1  0
 20 48  1  0
 26 49  1  0
 26 50  1  0
 27 51  1  0
 27 52  1  0
 29 53  1  0
 29 54  1  0
 30 55  1  0
 30 56  1  0
 31 57  1  0
 32 58  1  0
 34 59  1  0
M  CHG  1  16  -1
M  END
>  <UniqueID>  (41) 
38

>  <SMILES>  (41) 
Nc1ccc(S(=O)(=O)N2CCCC2)cc1[N-]C(=O)c1cc(S(=O)(=O)N2CCOCC2)ccc1O

>  <Energy>  (41) 
82.49464575634168

>  <Genealogy>  (41) 
Nc1ccc(S(=O)(=O)N2CCCC2)cc1[N-]C(=O)c1cc(S(=O)(=O)N2CCOCC2)ccc1O (protonated)
Nc1ccc(S(=O)(=O)N2CCCC2)cc1[N-]C(=O)c1cc(S(=O)(=O)N2CCOCC2)ccc1O (3D coordinates assigned)
Nc1ccc(S(=O)(=O)N2CCCC2)cc1[N-]C(=O)c1cc(S(=O)(=O)N2CCOCC2)ccc1O (nonaromatic ring conformer: 82.49464575634168 kcal/mol)

>  <smiles>  (41) 
Nc1ccc(S(=O)(=O)N2CCCC2)cc1NC(=O)c1cc(S(=O)(=O)N2CCOCC2)ccc1O

>  <score_type>  (41) 
oracle

>  <origin>  (41) 
adgpu

>  <m_score__min__energy>  (41) 
-11.470000000000001

>  <m_primary>  (41) 
energy

$$$$
41:0
     RDKit          3D

 40 42  0  0  0  0  0  0  0  0999 V2000
   -6.1450   26.3620  -31.6510 H   0  0  0  0  0  0  0  0  0  0  0  0
   -5.4080   25.9720  -31.0210 N   0  0  0  0  0  0  0  0  0  0  0  0
   -5.2060   24.6970  -30.9360 C   0  0  0  0  0  0  0  0  0  0  0  0
   -5.9130   23.7880  -31.6390 N   0  0  0  0  0  0  0  0  0  0  0  0
   -5.3760   22.6010  -31.2690 C   0  0  0  0  0  0  0  0  0  0  0  0
   -5.8290   21.2930  -31.8080 C   0  0  0  0  0  0  0  0  0  0  0  0
   -4.9360   20.4200  -32.4490 C   0  0  0  0  0  0  0  0  0  0  0  0
   -3.8785   20.7032  -32.5564 H   0  0  0  0  0  0  0  0  0  0  0  0
   -5.3790   19.1960  -32.9510 C   0  0  0  0  0  0  0  0  0  0  0  0
   -4.6659   18.5225  -33.4490 H   0  0  0  0  0  0  0  0  0  0  0  0
   -6.7240   18.8140  -32.8280 C   0  0  0  0  0  0  0  0  0  0  0  0
   -7.1660   17.4840  -33.3780 C   0  0  0  0  0  0  0  0  0  0  0  0
   -7.3931   16.8006  -32.5465 H   0  0  0  0  0  0  0  0  0  0  0  0
   -8.0662   17.6231  -33.9947 H   0  0  0  0  0  0  0  0  0  0  0  0
   -6.3616   17.0566  -33.9947 H   0  0  0  0  0  0  0  0  0  0  0  0
   -7.6310   19.6770  -32.1720 C   0  0  0  0  0  0  0  0  0  0  0  0
   -9.0840   19.3090  -32.0140 C   0  0  0  0  0  0  0  0  0  0  0  0
   -9.3321   19.2462  -30.9442 H   0  0  0  0  0  0  0  0  0  0  0  0
   -9.7107   20.0768  -32.4912 H   0  0  0  0  0  0  0  0  0  0  0  0
   -9.2697   18.3355  -32.4912 H   0  0  0  0  0  0  0  0  0  0  0  0
   -7.1750   20.9110  -31.6740 C   0  0  0  0  0  0  0  0  0  0  0  0
   -7.8826   21.5873  -31.1721 H   0  0  0  0  0  0  0  0  0  0  0  0
   -4.3550   22.8170  -30.3530 C   0  0  0  0  0  0  0  0  0  0  0  0
   -3.7285   22.0439  -29.8841 H   0  0  0  0  0  0  0  0  0  0  0  0
   -4.2710   24.1430  -30.1430 N   0  0  0  0  0  0  0  0  0  0  0  0
   -3.3280   24.8330  -29.3560 N   0  0  0  0  0  0  0  0  0  0  0  0
   -2.8560   25.6730  -29.7560 H   0  0  0  0  0  0  0  0  0  0  0  0
   -3.0690   24.4970  -27.9830 C   0  0  0  0  0  0  0  0  0  0  0  0
   -3.9340   23.8630  -27.3200 O   0  0  0  0  0  0  0  0  0  0  0  0
   -1.8280   24.9500  -27.3120 C   0  0  0  0  0  0  0  0  0  0  0  0
   -1.4790   24.4080  -26.0610 C   0  0  0  0  0  0  0  0  0  0  0  0
   -2.1262   23.6498  -25.5960 H   0  0  0  0  0  0  0  0  0  0  0  0
   -0.3180   24.8240  -25.4040 C   0  0  0  0  0  0  0  0  0  0  0  0
   -0.0583   24.3975  -24.4239 H   0  0  0  0  0  0  0  0  0  0  0  0
    0.5130   25.7810  -25.9910 C   0  0  0  0  0  0  0  0  0  0  0  0
    1.4232   26.1126  -25.4698 H   0  0  0  0  0  0  0  0  0  0  0  0
    0.1890   26.3170  -27.2390 C   0  0  0  0  0  0  0  0  0  0  0  0
    0.8468   27.0689  -27.6994 H   0  0  0  0  0  0  0  0  0  0  0  0
   -0.9690   25.9020  -27.9070 C   0  0  0  0  0  0  0  0  0  0  0  0
   -1.2370   26.4210  -29.1690 O   0  0  0  0  0  0  0  0  0  0  0  0
  1  2  1  0
  2  3  2  0
  3  4  1  0
  4  5  1  0
  5  6  1  0
  6  7  2  0
  7  8  1  0
  7  9  1  0
  9 10  1  0
  9 11  2  0
 11 12  1  0
 12 13  1  0
 12 14  1  0
 12 15  1  0
 11 16  1  0
 16 17  1  0
 17 18  1  0
 17 19  1  0
 17 20  1  0
 16 21  2  0
 21 22  1  0
  5 23  2  0
 23 24  1  0
 23 25  1  0
 25 26  1  0
 26 27  1  0
 26 28  1  0
 28 29  2  0
 28 30  1  0
 30 31  2  0
 31 32  1  0
 31 33  1  0
 33 34  1  0
 33 35  2  0
 35 36  1  0
 35 37  1  0
 37 38  1  0
 37 39  2  0
 39 40  1  0
 25  3  1  0
 39 30  1  0
 21  6  1  0
M  CHG  2   4  -1  40  -1
M  END
>  <UniqueID>  (42) 
39

>  <SMILES>  (42) 
[H]/N=c1\[n-]c(-c2ccc(C)c(C)c2)cn1NC(=O)c1ccccc1[O-]

>  <Energy>  (42) 
81.82436293984824

>  <Genealogy>  (42) 
Cc1ccc(-c2cn(NC(=O)c3ccccc3[O-])c(=N)[n-]2)cc1C (protonated)
[H]/N=c1\[n-]c(-c2ccc(C)c(C)c2)cn1NC(=O)c1ccccc1[O-] (cis-trans isomerization)
[H]/N=c1\[n-]c(-c2ccc(C)c(C)c2)cn1NC(=O)c1ccccc1[O-] (3D coordinates assigned)
[H]/N=c1\[n-]c(-c2ccc(C)c(C)c2)cn1NC(=O)c1ccccc1[O-] (optimized conformer: 81.82436293984824 kcal/mol)

>  <smiles>  (42) 
Cc1ccc(-c2cn(NC(=O)c3ccccc3O)c(=N)[nH]2)cc1C

>  <score_type>  (42) 
oracle

>  <origin>  (42) 
adgpu

>  <m_score__min__energy>  (42) 
-13.07

>  <m_primary>  (42) 
energy

$$$$
42:0
     RDKit          3D

 46 48  0  0  0  0  0  0  0  0999 V2000
   -4.9570   22.5020  -32.3360 C   0  0  0  0  0  0  0  0  0  0  0  0
   -5.3970   21.1160  -32.7160 C   0  0  0  0  0  0  0  0  0  0  0  0
   -6.6930   20.6930  -32.3800 C   0  0  0  0  0  0  0  0  0  0  0  0
   -7.1270   19.4070  -32.7140 C   0  0  0  0  0  0  0  0  0  0  0  0
   -8.4580   18.9830  -32.3630 C   0  0  0  0  0  0  0  0  0  0  0  0
   -9.5270   18.6420  -32.0810 N   0  0  0  0  0  0  0  0  0  0  0  0
   -6.2700   18.5320  -33.3880 C   0  0  0  0  0  0  0  0  0  0  0  0
   -4.9740   18.9390  -33.7390 C   0  0  0  0  0  0  0  0  0  0  0  0
   -4.0730   18.0070  -34.5000 C   0  0  0  0  0  0  0  0  0  0  0  0
   -4.5450   20.2440  -33.4320 C   0  0  0  0  0  0  0  0  0  0  0  0
   -3.2650   20.6540  -33.8300 O   0  0  0  0  0  0  0  0  0  0  0  0
   -2.1410   20.6570  -32.9920 C   0  0  0  0  0  0  0  0  0  0  0  0
   -2.2450   20.4600  -31.6040 C   0  0  0  0  0  0  0  0  0  0  0  0
   -1.0760   20.4740  -30.8230 C   0  0  0  0  0  0  0  0  0  0  0  0
   -1.1120   20.2680  -29.3890 N   0  0  0  0  0  0  0  0  0  0  0  0
   -0.1150   19.4200  -28.7220 C   0  0  0  0  0  0  0  0  0  0  0  0
   -2.1650   20.9090  -28.5840 C   0  0  0  0  0  0  0  0  0  0  0  0
   -2.0290   22.4070  -28.6460 C   0  0  0  0  0  0  0  0  0  0  0  0
   -1.1270   23.0660  -27.7940 C   0  0  0  0  0  0  0  0  0  0  0  0
   -1.0110   24.4580  -27.8320 C   0  0  0  0  0  0  0  0  0  0  0  0
   -1.7950   25.2030  -28.7160 C   0  0  0  0  0  0  0  0  0  0  0  0
   -2.6980   24.5550  -29.5670 C   0  0  0  0  0  0  0  0  0  0  0  0
   -3.4790   25.2970  -30.4440 O   0  0  0  0  0  0  0  0  0  0  0  0
   -2.8160   23.1620  -29.5320 C   0  0  0  0  0  0  0  0  0  0  0  0
    0.1180   20.6930  -31.4410 N   0  0  0  0  0  0  0  0  0  0  0  0
    0.2020   20.8950  -32.7810 C   0  0  0  0  0  0  0  0  0  0  0  0
   -0.9210   20.8780  -33.5420 N   0  0  0  0  0  0  0  0  0  0  0  0
   -4.9290   22.5902  -31.2399 H   0  0  0  0  0  0  0  0  0  0  0  0
   -3.9539   22.6933  -32.7450 H   0  0  0  0  0  0  0  0  0  0  0  0
   -5.6660   23.2368  -32.7450 H   0  0  0  0  0  0  0  0  0  0  0  0
   -7.3713   21.3782  -31.8504 H   0  0  0  0  0  0  0  0  0  0  0  0
   -6.6136   17.5190  -33.6445 H   0  0  0  0  0  0  0  0  0  0  0  0
   -3.4883   17.4022  -33.7913 H   0  0  0  0  0  0  0  0  0  0  0  0
   -4.6814   17.3441  -35.1328 H   0  0  0  0  0  0  0  0  0  0  0  0
   -3.3900   18.5927  -35.1328 H   0  0  0  0  0  0  0  0  0  0  0  0
   -3.2269   20.2972  -31.1357 H   0  0  0  0  0  0  0  0  0  0  0  0
   -0.2248   19.5134  -27.6315 H   0  0  0  0  0  0  0  0  0  0  0  0
   -0.2687   18.3716  -29.0175 H   0  0  0  0  0  0  0  0  0  0  0  0
    0.8951   19.7399  -29.0175 H   0  0  0  0  0  0  0  0  0  0  0  0
   -3.1503   20.6173  -28.9764 H   0  0  0  0  0  0  0  0  0  0  0  0
   -2.0651   20.5830  -27.5382 H   0  0  0  0  0  0  0  0  0  0  0  0
   -0.5096   22.4838  -27.0941 H   0  0  0  0  0  0  0  0  0  0  0  0
   -0.3009   24.9681  -27.1645 H   0  0  0  0  0  0  0  0  0  0  0  0
   -1.7028   26.2988  -28.7434 H   0  0  0  0  0  0  0  0  0  0  0  0
   -3.5276   22.6554  -30.2006 H   0  0  0  0  0  0  0  0  0  0  0  0
    1.1811   21.0725  -33.2498 H   0  0  0  0  0  0  0  0  0  0  0  0
  1  2  1  0
  2  3  2  0
  3  4  1  0
  4  5  1  0
  5  6  3  0
  4  7  2  0
  7  8  1  0
  8  9  1  0
  8 10  2  0
 10 11  1  0
 11 12  1  0
 12 13  2  0
 13 14  1  0
 14 15  1  0
 15 16  1  0
 15 17  1  0
 17 18  1  0
 18 19  2  0
 19 20  1  0
 20 21  2  0
 21 22  1  0
 22 23  1  0
 22 24  2  0
 14 25  2  0
 25 26  1  0
 26 27  2  0
 10  2  1  0
 27 12  1  0
 24 18  1  0
  1 28  1  0
  1 29  1  0
  1 30  1  0
  3 31  1  0
  7 32  1  0
  9 33  1  0
  9 34  1  0
  9 35  1  0
 13 36  1  0
 16 37  1  0
 16 38  1  0
 16 39  1  0
 17 40  1  0
 17 41  1  0
 19 42  1  0
 20 43  1  0
 21 44  1  0
 24 45  1  0
 26 46  1  0
M  CHG  1  23  -1
M  END
>  <UniqueID>  (43) 
40

>  <SMILES>  (43) 
Cc1cc(C#N)cc(C)c1Oc1cc(N(C)Cc2cccc([O-])c2)ncn1

>  <Energy>  (43) 
55.0334530865112

>  <Genealogy>  (43) 
Cc1cc(C#N)cc(C)c1Oc1cc(N(C)Cc2cccc([O-])c2)ncn1 (protonated)
Cc1cc(C#N)cc(C)c1Oc1cc(N(C)Cc2cccc([O-])c2)ncn1 (3D coordinates assigned)
Cc1cc(C#N)cc(C)c1Oc1cc(N(C)Cc2cccc([O-])c2)ncn1 (optimized conformer: 55.0334530865112 kcal/mol)

>  <smiles>  (43) 
Cc1cc(C#N)cc(C)c1Oc1cc(N(C)Cc2cccc(O)c2)ncn1

>  <score_type>  (43) 
oracle

>  <origin>  (43) 
adgpu

>  <m_score__min__energy>  (43) 
-11.130000000000001

>  <m_primary>  (43) 
energy

$$$$
43:0
     RDKit          3D

 28 29  0  0  0  0  0  0  0  0999 V2000
   -4.9796   21.2913  -30.0926 H   0  0  0  0  0  0  0  0  0  0  0  0
   -4.3060   22.1330  -29.8740 C   0  0  0  0  0  0  0  0  0  0  0  0
   -4.5090   23.3680  -30.4950 C   0  0  0  0  0  0  0  0  0  0  0  0
   -5.3365   23.4959  -31.2083 H   0  0  0  0  0  0  0  0  0  0  0  0
   -3.6590   24.4420  -30.2090 C   0  0  0  0  0  0  0  0  0  0  0  0
   -3.8700   25.6740  -30.8160 O   0  0  0  0  0  0  0  0  0  0  0  0
   -2.5990   24.2760  -29.3120 C   0  0  0  0  0  0  0  0  0  0  0  0
   -1.9428   25.1268  -29.0764 H   0  0  0  0  0  0  0  0  0  0  0  0
   -2.3690   23.0310  -28.7120 C   0  0  0  0  0  0  0  0  0  0  0  0
   -1.3110   22.9020  -27.7500 N   0  0  0  0  0  0  0  0  0  0  0  0
   -0.9840   23.7530  -26.8180 C   0  0  0  0  0  0  0  0  0  0  0  0
    0.1190   23.5000  -26.0680 N   0  0  0  0  0  0  0  0  0  0  0  0
    0.5160   24.3370  -25.0770 C   0  0  0  0  0  0  0  0  0  0  0  0
    1.5390   24.0450  -24.3990 O   0  0  0  0  0  0  0  0  0  0  0  0
   -0.2230   25.4990  -24.8040 C   0  0  0  0  0  0  0  0  0  0  0  0
    0.1810   26.4550  -23.7420 C   0  0  0  0  0  0  0  0  0  0  0  0
    1.5330   26.4700  -23.2680 N   0  0  0  0  0  0  0  0  0  0  0  0
    2.2670   25.8870  -23.7270 H   0  0  0  0  0  0  0  0  0  0  0  0
    1.8210   27.1060  -22.4930 H   0  0  0  0  0  0  0  0  0  0  0  0
   -0.6820   27.2910  -23.2450 N   0  0  0  0  0  0  0  0  0  0  0  0
   -1.6800   27.2940  -23.5520 H   0  0  0  0  0  0  0  0  0  0  0  0
   -0.4010   27.9720  -22.5040 H   0  0  0  0  0  0  0  0  0  0  0  0
   -1.3730   25.7310  -25.5690 C   0  0  0  0  0  0  0  0  0  0  0  0
   -1.9861   26.6235  -25.3750 H   0  0  0  0  0  0  0  0  0  0  0  0
   -1.7380   24.8630  -26.5490 N   0  0  0  0  0  0  0  0  0  0  0  0
   -2.6250   25.0600  -27.0610 H   0  0  0  0  0  0  0  0  0  0  0  0
   -3.2480   21.9650  -28.9750 C   0  0  0  0  0  0  0  0  0  0  0  0
   -3.1030   20.9972  -28.4726 H   0  0  0  0  0  0  0  0  0  0  0  0
  1  2  1  0
  2  3  2  0
  3  4  1  0
  3  5  1  0
  5  6  1  0
  5  7  2  0
  7  8  1  0
  7  9  1  0
  9 10  1  0
 10 11  2  0
 11 12  1  0
 12 13  1  0
 13 14  2  0
 13 15  1  0
 15 16  1  0
 16 17  1  0
 17 18  1  0
 17 19  1  0
 16 20  2  0
 20 21  1  0
 20 22  1  0
 15 23  2  0
 23 24  1  0
 23 25  1  0
 25 26  1  0
  9 27  2  0
 27 28  1  0
 27  2  1  0
 25 11  1  0
M  CHG  3   6  -1  12  -1  20   1
M  END
>  <UniqueID>  (44) 
41

>  <SMILES>  (44) 
NC(=[NH2+])c1c[nH]/c(=N\c2cccc([O-])c2)[n-]c1=O

>  <Energy>  (44) 
41.96337975696109

>  <Genealogy>  (44) 
NC(=[NH2+])c1c[nH]c(=Nc2cccc([O-])c2)[n-]c1=O (protonated)
NC(=[NH2+])c1c[nH]/c(=N\c2cccc([O-])c2)[n-]c1=O (cis-trans isomerization)
NC(=[NH2+])c1c[nH]/c(=N\c2cccc([O-])c2)[n-]c1=O (3D coordinates assigned)
NC(=[NH2+])c1c[nH]/c(=N\c2cccc([O-])c2)[n-]c1=O (optimized conformer: 41.96337975696109 kcal/mol)

>  <smiles>  (44) 
N=C(N)c1c[nH]c(=Nc2cccc(O)c2)[nH]c1=O

>  <score_type>  (44) 
oracle

>  <origin>  (44) 
adgpu

>  <m_score__min__energy>  (44) 
-9.8100000000000005

>  <m_primary>  (44) 
energy

$$$$
44:0
     RDKit          3D

 63 67  0  0  1  0  0  0  0  0999 V2000
    0.2580   21.3560  -28.5760 O   0  0  0  0  0  0  0  0  0  0  0  0
   -0.4050   21.8120  -29.5240 C   0  0  0  0  0  0  0  0  0  0  0  0
   -0.7820   23.1700  -29.5380 N   0  0  0  0  0  0  0  0  0  0  0  0
   -0.5190   24.1530  -28.5760 C   0  0  0  0  0  0  0  0  0  0  0  0
    0.5400   24.2090  -27.7100 C   0  0  0  0  0  0  0  0  0  0  0  0
    0.7300   25.2570  -26.8040 C   0  0  0  0  0  0  0  0  0  0  0  0
    1.8530   25.2950  -25.8800 C   0  0  0  0  0  0  0  0  0  0  0  0
    2.9610   26.0880  -26.0460 C   0  0  0  0  0  0  0  0  0  0  0  0
    3.9810   26.0440  -25.1010 C   0  0  0  0  0  0  0  0  0  0  0  0
    3.8900   25.2080  -23.9970 C   0  0  0  0  0  0  0  0  0  0  0  0
    2.7870   24.4130  -23.8230 C   0  0  0  0  0  0  0  0  0  0  0  0
    1.7790   24.4600  -24.7600 C   0  0  0  0  0  0  0  0  0  0  0  0
   -0.1650   26.3000  -26.7480 C   0  0  0  0  0  0  0  0  0  0  0  0
   -1.2410   26.2700  -27.6060 C   0  0  0  0  0  0  0  0  0  0  0  0
   -1.4130   25.2300  -28.4930 C   0  0  0  0  0  0  0  0  0  0  0  0
   -2.5430   25.2990  -29.3170 O   0  0  0  0  0  0  0  0  0  0  0  0
   -0.8310   20.9990  -30.6880 C   0  0  0  0  0  0  0  0  0  0  0  0
   -0.7950   19.6230  -30.6090 C   0  0  0  0  0  0  0  0  0  0  0  0
   -1.2810   18.8290  -31.6300 C   0  0  0  0  0  0  0  0  0  0  0  0
   -1.8350   19.3970  -32.7980 C   0  0  0  0  0  0  0  0  0  0  0  0
   -2.3570   18.4830  -33.7060 N   0  0  0  0  0  0  0  0  0  0  0  0
   -3.5600   18.3940  -34.0470 C   0  0  0  0  0  0  0  0  0  0  0  0
   -4.5790   19.1960  -33.5790 C   0  0  0  0  0  0  0  0  0  0  0  0
   -5.8450   18.9230  -34.0160 C   0  0  0  0  0  0  0  0  0  0  0  0
   -6.9900   19.6470  -33.5840 N   0  0  0  0  0  0  0  0  0  0  0  0
   -7.1530   19.9670  -32.1470 C   0  0  0  0  0  0  0  0  0  0  0  0
   -6.4730   21.2520  -31.8300 C   0  0  0  0  0  0  0  0  0  0  0  0
   -7.0470   22.4860  -32.0410 C   0  0  0  0  0  0  0  0  0  0  0  0
   -6.4130   23.6830  -31.7470 C   0  0  0  0  0  0  0  0  0  0  0  0
   -5.1210   23.6300  -31.2070 C   0  0  0  0  0  0  0  0  0  0  0  0
   -4.4480   24.8270  -30.9000 O   0  0  0  0  0  0  0  0  0  0  0  0
   -4.5040   22.3990  -30.9760 C   0  0  0  0  0  0  0  0  0  0  0  0
   -5.1800   21.2460  -31.2870 C   0  0  0  0  0  0  0  0  0  0  0  0
   -6.0670   17.9100  -34.8740 N   0  0  0  0  0  0  0  0  0  0  0  0
   -5.0930   17.1210  -35.3450 C   0  0  0  0  0  0  0  0  0  0  0  0
   -3.8460   17.3730  -34.9240 N   0  0  0  0  0  0  0  0  0  0  0  0
   -1.8680   20.7650  -32.8780 C   0  0  0  0  0  0  0  0  0  0  0  0
   -1.3660   21.5490  -31.8250 C   0  0  0  0  0  0  0  0  0  0  0  0
   -1.3300   23.4880  -30.3940 H   0  0  0  0  0  0  0  0  0  0  0  0
    1.2757   23.3914  -27.7278 H   0  0  0  0  0  0  0  0  0  0  0  0
    3.0417   26.7526  -26.9188 H   0  0  0  0  0  0  0  0  0  0  0  0
    4.8698   26.6791  -25.2303 H   0  0  0  0  0  0  0  0  0  0  0  0
    4.7056   25.1833  -23.2593 H   0  0  0  0  0  0  0  0  0  0  0  0
    2.7084   23.7488  -22.9497 H   0  0  0  0  0  0  0  0  0  0  0  0
    0.8919   23.8240  -24.6242 H   0  0  0  0  0  0  0  0  0  0  0  0
   -0.0255   27.1309  -26.0407 H   0  0  0  0  0  0  0  0  0  0  0  0
   -1.9749   27.0891  -27.5831 H   0  0  0  0  0  0  0  0  0  0  0  0
   -3.4550   25.1690  -28.8700 H   0  0  0  0  0  0  0  0  0  0  0  0
   -0.3699   19.1467  -29.7132 H   0  0  0  0  0  0  0  0  0  0  0  0
   -1.2355   17.7344  -31.5311 H   0  0  0  0  0  0  0  0  0  0  0  0
   -4.3810   20.0231  -32.8813 H   0  0  0  0  0  0  0  0  0  0  0  0
   -7.7130   19.9700  -34.2630 H   0  0  0  0  0  0  0  0  0  0  0  0
   -8.2242   20.0546  -31.9128 H   0  0  0  0  0  0  0  0  0  0  0  0
   -6.7034   19.1633  -31.5455 H   0  0  0  0  0  0  0  0  0  0  0  0
   -8.0613   22.5236  -32.4649 H   0  0  0  0  0  0  0  0  0  0  0  0
   -6.9097   24.6468  -31.9322 H   0  0  0  0  0  0  0  0  0  0  0  0
   -3.4940   24.8930  -31.2250 H   0  0  0  0  0  0  0  0  0  0  0  0
   -3.4905   22.3540  -30.5508 H   0  0  0  0  0  0  0  0  0  0  0  0
   -4.6885   20.2792  -31.1032 H   0  0  0  0  0  0  0  0  0  0  0  0
   -5.3072   16.3016  -36.0470 H   0  0  0  0  0  0  0  0  0  0  0  0
   -3.0950   16.7530  -35.3000 H   0  0  0  0  0  0  0  0  0  0  0  0
   -2.2892   21.2514  -33.7702 H   0  0  0  0  0  0  0  0  0  0  0  0
   -1.4036   22.6446  -31.9161 H   0  0  0  0  0  0  0  0  0  0  0  0
  1  2  2  0
  2  3  1  0
  3  4  1  0
  4  5  2  0
  5  6  1  0
  6  7  1  0
  7  8  2  0
  8  9  1  0
  9 10  2  0
 10 11  1  0
 11 12  2  0
  6 13  2  0
 13 14  1  0
 14 15  2  0
 15 16  1  0
  2 17  1  0
 17 18  2  0
 18 19  1  0
 19 20  2  0
 20 21  1  0
 21 22  2  0
 22 23  1  0
 23 24  2  0
 24 25  1  0
 25 26  1  0
 26 27  1  0
 27 28  2  0
 28 29  1  0
 29 30  2  0
 30 31  1  0
 30 32  1  0
 32 33  2  0
 24 34  1  0
 34 35  2  0
 35 36  1  0
 20 37  1  0
 37 38  2  0
 15  4  1  0
 38 17  1  0
 12  7  1  0
 36 22  1  0
 33 27  1  0
  3 39  1  0
  5 40  1  0
  8 41  1  0
  9 42  1  0
 10 43  1  0
 11 44  1  0
 12 45  1  0
 13 46  1  0
 14 47  1  0
 16 48  1  0
 18 49  1  0
 19 50  1  0
 23 51  1  0
 25 52  1  0
 26 53  1  0
 26 54  1  0
 28 55  1  0
 29 56  1  0
 31 57  1  0
 32 58  1  0
 33 59  1  0
 35 60  1  0
 36 61  1  0
 37 62  1  0
 38 63  1  0
M  END
>  <smiles>  (45) 
O=C(Nc1cc(-c2ccccc2)ccc1O)c1ccc(N=c2cc(NCc3ccc(O)cc3)nc[nH]2)cc1

>  <score_type>  (45) 
oracle

>  <origin>  (45) 
adgpu

>  <m_score__min__energy>  (45) 
-12.09

>  <m_primary>  (45) 
energy

$$$$
45:0
     RDKit          3D

 44 46  0  0  0  0  0  0  0  0999 V2000
   -1.2480   21.1160  -34.6270 N   0  0  0  0  0  0  0  0  0  0  0  0
   -0.4580   20.2510  -33.8020 C   0  0  0  0  0  0  0  0  0  0  0  0
    0.9170   20.1260  -34.0620 C   0  0  0  0  0  0  0  0  0  0  0  0
    1.7280   19.3560  -33.2260 C   0  0  0  0  0  0  0  0  0  0  0  0
    1.1780   18.7090  -32.1190 C   0  0  0  0  0  0  0  0  0  0  0  0
   -0.1890   18.8160  -31.8530 C   0  0  0  0  0  0  0  0  0  0  0  0
   -1.0210   19.5640  -32.7000 C   0  0  0  0  0  0  0  0  0  0  0  0
   -2.4270   19.6190  -32.4150 N   0  0  0  0  0  0  0  0  0  0  0  0
   -3.4230   19.3510  -33.4160 C   0  0  0  0  0  0  0  0  0  0  0  0
   -3.0710   18.8780  -34.5330 O   0  0  0  0  0  0  0  0  0  0  0  0
   -4.8600   19.6000  -33.1500 C   0  0  0  0  0  0  0  0  0  0  0  0
   -5.8180   18.5900  -33.3540 C   0  0  0  0  0  0  0  0  0  0  0  0
   -7.1680   18.8320  -33.0840 C   0  0  0  0  0  0  0  0  0  0  0  0
   -7.5770   20.0780  -32.6070 C   0  0  0  0  0  0  0  0  0  0  0  0
   -6.6380   21.0930  -32.3980 C   0  0  0  0  0  0  0  0  0  0  0  0
   -7.1590   22.6530  -31.7630 S   0  0  0  0  0  0  0  0  0  0  0  0
   -7.2910   23.6440  -32.8870 O   0  0  0  0  0  0  0  0  0  0  0  0
   -8.5040   22.4860  -31.1130 O   0  0  0  0  0  0  0  0  0  0  0  0
   -6.0060   23.2320  -30.5860 N   0  0  0  0  0  0  0  0  0  0  0  0
   -4.6350   23.0950  -31.1130 C   0  0  0  0  0  0  0  0  0  0  0  0
   -3.6700   24.0310  -30.3670 C   0  0  0  0  0  0  0  0  0  0  0  0
   -4.0050   25.4110  -30.4630 O   0  0  0  0  0  0  0  0  0  0  0  0
   -5.3690   25.6480  -30.7830 C   0  0  0  0  0  0  0  0  0  0  0  0
   -6.3250   24.6140  -30.1620 C   0  0  0  0  0  0  0  0  0  0  0  0
   -5.2810   20.8500  -32.6620 C   0  0  0  0  0  0  0  0  0  0  0  0
   -0.8860   22.0330  -34.9670 H   0  0  0  0  0  0  0  0  0  0  0  0
   -2.1840   20.8080  -34.9750 H   0  0  0  0  0  0  0  0  0  0  0  0
    1.3576   20.6382  -34.9300 H   0  0  0  0  0  0  0  0  0  0  0  0
    2.8025   19.2593  -33.4406 H   0  0  0  0  0  0  0  0  0  0  0  0
    1.8218   18.1138  -31.4548 H   0  0  0  0  0  0  0  0  0  0  0  0
   -0.6160   18.3108  -30.9741 H   0  0  0  0  0  0  0  0  0  0  0  0
   -2.7170   19.6100  -31.4120 H   0  0  0  0  0  0  0  0  0  0  0  0
   -5.5030   17.6047  -33.7280 H   0  0  0  0  0  0  0  0  0  0  0  0
   -7.9107   18.0373  -33.2481 H   0  0  0  0  0  0  0  0  0  0  0  0
   -8.6405   20.2622  -32.3949 H   0  0  0  0  0  0  0  0  0  0  0  0
   -4.3009   22.0549  -30.9843 H   0  0  0  0  0  0  0  0  0  0  0  0
   -4.6372   23.3660  -32.1791 H   0  0  0  0  0  0  0  0  0  0  0  0
   -3.6692   23.7493  -29.3037 H   0  0  0  0  0  0  0  0  0  0  0  0
   -2.6843   23.9113  -30.8403 H   0  0  0  0  0  0  0  0  0  0  0  0
   -5.6464   26.6465  -30.4143 H   0  0  0  0  0  0  0  0  0  0  0  0
   -5.4672   25.5696  -31.8758 H   0  0  0  0  0  0  0  0  0  0  0  0
   -6.2493   24.6748  -29.0663 H   0  0  0  0  0  0  0  0  0  0  0  0
   -7.3435   24.8463  -30.5064 H   0  0  0  0  0  0  0  0  0  0  0  0
   -4.5405   21.6441  -32.4857 H   0  0  0  0  0  0  0  0  0  0  0  0
  1  2  1  0
  2  3  2  0
  3  4  1  0
  4  5  2  0
  5  6  1  0
  6  7  2  0
  7  8  1  0
  8  9  1  0
  9 10  2  0
  9 11  1  0
 11 12  2  0
 12 13  1  0
 13 14  2  0
 14 15  1  0
 15 16  1  0
 16 17  2  0
 16 18  2  0
 16 19  1  0
 19 20  1  0
 20 21  1  0
 21 22  1  0
 22 23  1  0
 23 24  1  0
 15 25  2  0
  7  2  1  0
 25 11  1  0
 24 19  1  0
  1 26  1  0
  1 27  1  0
  3 28  1  0
  4 29  1  0
  5 30  1  0
  6 31  1  0
  8 32  1  0
 12 33  1  0
 13 34  1  0
 14 35  1  0
 20 36  1  0
 20 37  1  0
 21 38  1  0
 21 39  1  0
 23 40  1  0
 23 41  1  0
 24 42  1  0
 24 43  1  0
 25 44  1  0
M  END
>  <UniqueID>  (46) 
42

>  <SMILES>  (46) 
Nc1ccccc1NC(=O)c1cccc(S(=O)(=O)N2CCOCC2)c1

>  <Energy>  (46) 
65.18731259730335

>  <Genealogy>  (46) 
Nc1ccccc1NC(=O)c1cccc(S(=O)(=O)N2CCOCC2)c1 (3D coordinates assigned)
Nc1ccccc1NC(=O)c1cccc(S(=O)(=O)N2CCOCC2)c1 (nonaromatic ring conformer: 65.18731259730335 kcal/mol)

>  <smiles>  (46) 
Nc1ccccc1NC(=O)c1cccc(S(=O)(=O)N2CCOCC2)c1

>  <score_type>  (46) 
oracle

>  <origin>  (46) 
adgpu

>  <m_score__min__energy>  (46) 
-8.8300000000000001

>  <m_primary>  (46) 
energy

$$$$
46:0
     RDKit          3D

 44 46  0  0  0  0  0  0  0  0999 V2000
   -5.5010   18.4440  -35.2800 O   0  0  0  0  0  0  0  0  0  0  0  0
   -5.3600   18.5390  -34.0290 C   0  0  0  0  0  0  0  0  0  0  0  0
   -4.0730   18.2880  -33.4390 N   0  0  0  0  0  0  0  0  0  0  0  0
   -2.8880   18.0010  -34.2430 C   0  0  0  0  0  0  0  0  0  0  0  0
   -1.8960   19.1250  -34.1260 C   0  0  0  0  0  0  0  0  0  0  0  0
   -2.2590   20.3270  -33.5000 C   0  0  0  0  0  0  0  0  0  0  0  0
   -1.3280   21.3600  -33.3770 C   0  0  0  0  0  0  0  0  0  0  0  0
   -0.0380   21.1810  -33.8800 C   0  0  0  0  0  0  0  0  0  0  0  0
    0.3020   20.0080  -34.4800 N   0  0  0  0  0  0  0  0  0  0  0  0
   -0.5860   18.9880  -34.6120 C   0  0  0  0  0  0  0  0  0  0  0  0
   -6.5320   18.8860  -33.1930 C   0  0  0  0  0  0  0  0  0  0  0  0
   -7.4240   17.8790  -32.7810 C   0  0  0  0  0  0  0  0  0  0  0  0
   -8.5290   18.1950  -31.9860 C   0  0  0  0  0  0  0  0  0  0  0  0
   -8.7600   19.5150  -31.5960 C   0  0  0  0  0  0  0  0  0  0  0  0
   -7.8870   20.5320  -32.0030 C   0  0  0  0  0  0  0  0  0  0  0  0
   -8.1710   22.2010  -31.5000 S   0  0  0  0  0  0  0  0  0  0  0  0
   -9.4760   22.2790  -30.7560 O   0  0  0  0  0  0  0  0  0  0  0  0
   -8.2770   23.0760  -32.7170 O   0  0  0  0  0  0  0  0  0  0  0  0
   -6.8870   22.7900  -30.4690 N   0  0  0  0  0  0  0  0  0  0  0  0
   -6.8560   24.2640  -30.4730 C   0  0  0  0  0  0  0  0  0  0  0  0
   -5.4800   24.7780  -30.0200 C   0  0  0  0  0  0  0  0  0  0  0  0
   -4.4020   24.3530  -30.8460 O   0  0  0  0  0  0  0  0  0  0  0  0
   -4.6720   23.1630  -31.5740 C   0  0  0  0  0  0  0  0  0  0  0  0
   -5.5840   22.1810  -30.8180 C   0  0  0  0  0  0  0  0  0  0  0  0
   -6.7840   20.2180  -32.8100 C   0  0  0  0  0  0  0  0  0  0  0  0
   -3.9780   18.2290  -32.4010 H   0  0  0  0  0  0  0  0  0  0  0  0
   -2.4246   17.0690  -33.8872 H   0  0  0  0  0  0  0  0  0  0  0  0
   -3.1864   17.8940  -35.2963 H   0  0  0  0  0  0  0  0  0  0  0  0
   -3.2779   20.4556  -33.1058 H   0  0  0  0  0  0  0  0  0  0  0  0
   -1.6079   22.3052  -32.8888 H   0  0  0  0  0  0  0  0  0  0  0  0
    0.7037   21.9884  -33.7913 H   0  0  0  0  0  0  0  0  0  0  0  0
   -0.2776   18.0522  -35.1011 H   0  0  0  0  0  0  0  0  0  0  0  0
   -7.2506   16.8366  -33.0865 H   0  0  0  0  0  0  0  0  0  0  0  0
   -9.2193   17.4004  -31.6664 H   0  0  0  0  0  0  0  0  0  0  0  0
   -9.6297   19.7573  -30.9675 H   0  0  0  0  0  0  0  0  0  0  0  0
   -7.0602   24.6270  -31.4911 H   0  0  0  0  0  0  0  0  0  0  0  0
   -7.6207   24.6364  -29.7754 H   0  0  0  0  0  0  0  0  0  0  0  0
   -5.5040   25.8777  -30.0216 H   0  0  0  0  0  0  0  0  0  0  0  0
   -5.2979   24.3593  -29.0192 H   0  0  0  0  0  0  0  0  0  0  0  0
   -5.1615   23.4361  -32.5205 H   0  0  0  0  0  0  0  0  0  0  0  0
   -3.7100   22.6550  -31.7366 H   0  0  0  0  0  0  0  0  0  0  0  0
   -5.7623   21.3010  -31.4535 H   0  0  0  0  0  0  0  0  0  0  0  0
   -5.0788   21.9005  -29.8820 H   0  0  0  0  0  0  0  0  0  0  0  0
   -6.1095   21.0190  -33.1470 H   0  0  0  0  0  0  0  0  0  0  0  0
  1  2  2  0
  2  3  1  0
  3  4  1  0
  4  5  1  0
  5  6  2  0
  6  7  1  0
  7  8  2  0
  8  9  1  0
  9 10  2  0
  2 11  1  0
 11 12  2  0
 12 13  1  0
 13 14  2  0
 14 15  1  0
 15 16  1  0
 16 17  2  0
 16 18  2  0
 16 19  1  0
 19 20  1  0
 20 21  1  0
 21 22  1  0
 22 23  1  0
 23 24  1  0
 15 25  2  0
 10  5  1  0
 25 11  1  0
 24 19  1  0
  3 26  1  0
  4 27  1  0
  4 28  1  0
  6 29  1  0
  7 30  1  0
  8 31  1  0
 10 32  1  0
 12 33  1  0
 13 34  1  0
 14 35  1  0
 20 36  1  0
 20 37  1  0
 21 38  1  0
 21 39  1  0
 23 40  1  0
 23 41  1  0
 24 42  1  0
 24 43  1  0
 25 44  1  0
M  END
>  <UniqueID>  (47) 
43

>  <SMILES>  (47) 
O=C(NCc1cccnc1)c1cccc(S(=O)(=O)N2CCOCC2)c1

>  <Energy>  (47) 
57.839013792523474

>  <Genealogy>  (47) 
O=C(NCc1cccnc1)c1cccc(S(=O)(=O)N2CCOCC2)c1 (3D coordinates assigned)
O=C(NCc1cccnc1)c1cccc(S(=O)(=O)N2CCOCC2)c1 (nonaromatic ring conformer: 57.839013792523474 kcal/mol)

>  <smiles>  (47) 
O=C(NCc1cccnc1)c1cccc(S(=O)(=O)N2CCOCC2)c1

>  <score_type>  (47) 
oracle

>  <origin>  (47) 
adgpu

>  <m_score__min__energy>  (47) 
-8.6799999999999997

>  <m_primary>  (47) 
energy

$$$$
47:0
     RDKit          3D

 41 43  0  0  0  0  0  0  0  0999 V2000
    0.6760   20.0920  -27.5560 O   0  0  0  0  0  0  0  0  0  0  0  0
    0.1610   20.8890  -28.3850 C   0  0  0  0  0  0  0  0  0  0  0  0
   -0.2020   22.2030  -27.9380 N   0  0  0  0  0  0  0  0  0  0  0  0
   -1.1720   23.0680  -28.5500 C   0  0  0  0  0  0  0  0  0  0  0  0
   -2.3970   22.5770  -29.0340 C   0  0  0  0  0  0  0  0  0  0  0  0
   -3.3070   23.4460  -29.6370 C   0  0  0  0  0  0  0  0  0  0  0  0
   -2.9800   24.7960  -29.7690 C   0  0  0  0  0  0  0  0  0  0  0  0
   -3.8740   25.6750  -30.3670 O   0  0  0  0  0  0  0  0  0  0  0  0
   -1.7820   25.2530  -29.3170 N   0  0  0  0  0  0  0  0  0  0  0  0
   -0.8780   24.4300  -28.7220 C   0  0  0  0  0  0  0  0  0  0  0  0
    0.2210   24.8980  -28.3230 O   0  0  0  0  0  0  0  0  0  0  0  0
   -0.1000   20.4290  -29.7690 C   0  0  0  0  0  0  0  0  0  0  0  0
   -0.1070   21.3380  -30.8420 C   0  0  0  0  0  0  0  0  0  0  0  0
   -0.3580   20.8940  -32.1430 C   0  0  0  0  0  0  0  0  0  0  0  0
   -0.6150   19.5400  -32.3900 C   0  0  0  0  0  0  0  0  0  0  0  0
   -0.9940   18.9950  -34.0210 S   0  0  0  0  0  0  0  0  0  0  0  0
    0.0030   17.9550  -34.4500 O   0  0  0  0  0  0  0  0  0  0  0  0
   -0.9120   20.1550  -34.9740 O   0  0  0  0  0  0  0  0  0  0  0  0
   -2.6370   18.2960  -34.0660 C   0  0  0  0  0  0  0  0  0  0  0  0
   -3.6600   19.3350  -33.6910 C   0  0  0  0  0  0  0  0  0  0  0  0
   -3.2360   20.5600  -33.1480 C   0  0  0  0  0  0  0  0  0  0  0  0
   -4.1700   21.5120  -32.7380 C   0  0  0  0  0  0  0  0  0  0  0  0
   -5.5350   21.2510  -32.8570 C   0  0  0  0  0  0  0  0  0  0  0  0
   -5.9780   20.0350  -33.3860 C   0  0  0  0  0  0  0  0  0  0  0  0
   -7.3490   19.7970  -33.4830 O   0  0  0  0  0  0  0  0  0  0  0  0
   -5.0410   19.0720  -33.8050 C   0  0  0  0  0  0  0  0  0  0  0  0
   -5.4840   17.8580  -34.3220 O   0  0  0  0  0  0  0  0  0  0  0  0
   -0.6320   18.6340  -31.3230 C   0  0  0  0  0  0  0  0  0  0  0  0
   -0.3790   19.0750  -30.0210 C   0  0  0  0  0  0  0  0  0  0  0  0
   -2.6381   21.5081  -28.9374 H   0  0  0  0  0  0  0  0  0  0  0  0
   -4.2732   23.0703  -30.0049 H   0  0  0  0  0  0  0  0  0  0  0  0
    0.0862   22.4048  -30.6561 H   0  0  0  0  0  0  0  0  0  0  0  0
   -0.3537   21.6115  -32.9768 H   0  0  0  0  0  0  0  0  0  0  0  0
   -2.8475   17.9302  -35.0818 H   0  0  0  0  0  0  0  0  0  0  0  0
   -2.6913   17.4658  -33.3464 H   0  0  0  0  0  0  0  0  0  0  0  0
   -2.1610   20.7696  -33.0456 H   0  0  0  0  0  0  0  0  0  0  0  0
   -3.8291   22.4706  -32.3199 H   0  0  0  0  0  0  0  0  0  0  0  0
   -6.2667   22.0057  -32.5330 H   0  0  0  0  0  0  0  0  0  0  0  0
   -7.7230   19.0000  -33.9830 H   0  0  0  0  0  0  0  0  0  0  0  0
   -0.8452   17.5712  -31.5099 H   0  0  0  0  0  0  0  0  0  0  0  0
   -0.3984   18.3571  -29.1878 H   0  0  0  0  0  0  0  0  0  0  0  0
  1  2  2  0
  2  3  1  0
  3  4  1  0
  4  5  2  0
  5  6  1  0
  6  7  2  0
  7  8  1  0
  7  9  1  0
  9 10  1  0
 10 11  2  0
  2 12  1  0
 12 13  2  0
 13 14  1  0
 14 15  2  0
 15 16  1  0
 16 17  2  0
 16 18  2  0
 16 19  1  0
 19 20  1  0
 20 21  2  0
 21 22  1  0
 22 23  2  0
 23 24  1  0
 24 25  1  0
 24 26  2  0
 26 27  1  0
 15 28  1  0
 28 29  2  0
 10  4  1  0
 29 12  1  0
 26 20  1  0
  5 30  1  0
  6 31  1  0
 13 32  1  0
 14 33  1  0
 19 34  1  0
 19 35  1  0
 21 36  1  0
 22 37  1  0
 23 38  1  0
 25 39  1  0
 28 40  1  0
 29 41  1  0
M  CHG  4   3  -1   8  -1   9  -1  27  -1
M  END
>  <UniqueID>  (48) 
44

>  <SMILES>  (48) 
O=C([N-]c1ccc([O-])[n-]c1=O)c1ccc(S(=O)(=O)Cc2cccc(O)c2[O-])cc1

>  <Energy>  (48) 
48.08931387749456

>  <Genealogy>  (48) 
O=C([N-]c1ccc([O-])[n-]c1=O)c1ccc(S(=O)(=O)Cc2cccc(O)c2[O-])cc1 (protonated)
O=C([N-]c1ccc([O-])[n-]c1=O)c1ccc(S(=O)(=O)Cc2cccc(O)c2[O-])cc1 (3D coordinates assigned)
O=C([N-]c1ccc([O-])[n-]c1=O)c1ccc(S(=O)(=O)Cc2cccc(O)c2[O-])cc1 (optimized conformer: 48.08931387749456 kcal/mol)

>  <smiles>  (48) 
O=C(Nc1ccc(O)[nH]c1=O)c1ccc(S(=O)(=O)Cc2cccc(O)c2O)cc1

>  <score_type>  (48) 
oracle

>  <origin>  (48) 
adgpu

>  <m_score__min__energy>  (48) 
-14.41

>  <m_primary>  (48) 
energy

$$$$
48:0
     RDKit          3D

 59 62  0  0  0  0  0  0  0  0999 V2000
    0.5770   17.9130  -31.2460 C   0  0  0  0  0  0  0  0  0  0  0  0
    0.1070   18.4280  -29.9120 C   0  0  0  0  0  0  0  0  0  0  0  0
    0.3820   17.6750  -28.7600 C   0  0  0  0  0  0  0  0  0  0  0  0
   -0.0400   18.1120  -27.5100 C   0  0  0  0  0  0  0  0  0  0  0  0
   -0.7220   19.3200  -27.3860 C   0  0  0  0  0  0  0  0  0  0  0  0
   -1.0120   20.0910  -28.5200 C   0  0  0  0  0  0  0  0  0  0  0  0
   -1.6850   21.3470  -28.3420 N   0  0  0  0  0  0  0  0  0  0  0  0
   -1.0050   22.5980  -28.6990 C   0  0  0  0  0  0  0  0  0  0  0  0
   -1.8120   23.3450  -29.7670 C   0  0  0  0  0  0  0  0  0  0  0  0
   -3.2520   23.3210  -29.4730 N   0  0  0  0  0  0  0  0  0  0  0  0
   -4.1410   24.0930  -30.2980 C   0  0  0  0  0  0  0  0  0  0  0  0
   -3.8600   25.2980  -30.5410 O   0  0  0  0  0  0  0  0  0  0  0  0
   -5.3900   23.5070  -30.8440 C   0  0  0  0  0  0  0  0  0  0  0  0
   -6.5730   24.2690  -30.9030 C   0  0  0  0  0  0  0  0  0  0  0  0
   -7.7360   23.7280  -31.4550 C   0  0  0  0  0  0  0  0  0  0  0  0
   -7.7350   22.4250  -31.9520 C   0  0  0  0  0  0  0  0  0  0  0  0
   -6.5720   21.6400  -31.8790 C   0  0  0  0  0  0  0  0  0  0  0  0
   -6.5740   19.9860  -32.5150 S   0  0  0  0  0  0  0  0  0  0  0  0
   -7.9480   19.6640  -33.0350 O   0  0  0  0  0  0  0  0  0  0  0  0
   -6.2620   19.0240  -31.4010 O   0  0  0  0  0  0  0  0  0  0  0  0
   -5.4350   19.7690  -33.8270 N   0  0  0  0  0  0  0  0  0  0  0  0
   -4.0480   19.7200  -33.3410 C   0  0  0  0  0  0  0  0  0  0  0  0
   -3.3720   18.5260  -33.9900 C   0  0  0  0  0  0  0  0  0  0  0  0
   -4.5070   17.6050  -34.3610 C   0  0  0  0  0  0  0  0  0  0  0  0
   -5.6830   18.5360  -34.5870 C   0  0  0  0  0  0  0  0  0  0  0  0
   -5.4110   22.1770  -31.3040 C   0  0  0  0  0  0  0  0  0  0  0  0
   -3.7430   22.7290  -28.2200 C   0  0  0  0  0  0  0  0  0  0  0  0
   -3.1150   21.3460  -28.0060 C   0  0  0  0  0  0  0  0  0  0  0  0
   -0.6350   19.6330  -29.8030 C   0  0  0  0  0  0  0  0  0  0  0  0
   -0.9960   20.4330  -31.0330 C   0  0  0  0  0  0  0  0  0  0  0  0
    1.3111   17.1086  -31.0906 H   0  0  0  0  0  0  0  0  0  0  0  0
   -0.2817   17.5216  -31.8112 H   0  0  0  0  0  0  0  0  0  0  0  0
    1.0451   18.7324  -31.8112 H   0  0  0  0  0  0  0  0  0  0  0  0
    0.9372   16.7294  -28.8473 H   0  0  0  0  0  0  0  0  0  0  0  0
    0.1649   17.5029  -26.6173 H   0  0  0  0  0  0  0  0  0  0  0  0
   -1.0351   19.6712  -26.3917 H   0  0  0  0  0  0  0  0  0  0  0  0
   -0.9116   23.2305  -27.8039 H   0  0  0  0  0  0  0  0  0  0  0  0
   -0.0060   22.3660  -29.0968 H   0  0  0  0  0  0  0  0  0  0  0  0
   -1.4727   24.3907  -29.8042 H   0  0  0  0  0  0  0  0  0  0  0  0
   -1.6499   22.8445  -30.7331 H   0  0  0  0  0  0  0  0  0  0  0  0
   -6.5809   25.2970  -30.5117 H   0  0  0  0  0  0  0  0  0  0  0  0
   -8.6550   24.3310  -31.4979 H   0  0  0  0  0  0  0  0  0  0  0  0
   -8.6485   22.0101  -32.4030 H   0  0  0  0  0  0  0  0  0  0  0  0
   -3.5212   20.6450  -33.6184 H   0  0  0  0  0  0  0  0  0  0  0  0
   -4.0275   19.6251  -32.2453 H   0  0  0  0  0  0  0  0  0  0  0  0
   -2.8133   18.8350  -34.8858 H   0  0  0  0  0  0  0  0  0  0  0  0
   -2.6433   18.0437  -33.3219 H   0  0  0  0  0  0  0  0  0  0  0  0
   -4.2711   17.0448  -35.2778 H   0  0  0  0  0  0  0  0  0  0  0  0
   -4.7090   16.8517  -33.5853 H   0  0  0  0  0  0  0  0  0  0  0  0
   -5.7747   18.7691  -35.6581 H   0  0  0  0  0  0  0  0  0  0  0  0
   -6.6174   18.0613  -34.2531 H   0  0  0  0  0  0  0  0  0  0  0  0
   -4.5094   21.5536  -31.2118 H   0  0  0  0  0  0  0  0  0  0  0  0
   -3.4740   23.3844  -27.3785 H   0  0  0  0  0  0  0  0  0  0  0  0
   -4.8362   22.6218  -28.2778 H   0  0  0  0  0  0  0  0  0  0  0  0
   -3.2342   21.0586  -26.9509 H   0  0  0  0  0  0  0  0  0  0  0  0
   -3.6246   20.6292  -28.6668 H   0  0  0  0  0  0  0  0  0  0  0  0
   -1.4308   21.3966  -30.7291 H   0  0  0  0  0  0  0  0  0  0  0  0
   -0.0913   20.6118  -31.6327 H   0  0  0  0  0  0  0  0  0  0  0  0
   -1.7286   19.8730  -31.6327 H   0  0  0  0  0  0  0  0  0  0  0  0
  1  2  1  0
  2  3  2  0
  3  4  1  0
  4  5  2  0
  5  6  1  0
  6  7  1  0
  7  8  1  0
  8  9  1  0
  9 10  1  0
 10 11  1  0
 11 12  2  0
 11 13  1  0
 13 14  2  0
 14 15  1  0
 15 16  2  0
 16 17  1  0
 17 18  1  0
 18 19  2  0
 18 20  2  0
 18 21  1  0
 21 22  1  0
 22 23  1  0
 23 24  1  0
 24 25  1  0
 17 26  2  0
 10 27  1  0
 27 28  1  0
  6 29  2  0
 29 30  1  0
 29  2  1  0
 28  7  1  0
 26 13  1  0
 25 21  1  0
  1 31  1  0
  1 32  1  0
  1 33  1  0
  3 34  1  0
  4 35  1  0
  5 36  1  0
  8 37  1  0
  8 38  1  0
  9 39  1  0
  9 40  1  0
 14 41  1  0
 15 42  1  0
 16 43  1  0
 22 44  1  0
 22 45  1  0
 23 46  1  0
 23 47  1  0
 24 48  1  0
 24 49  1  0
 25 50  1  0
 25 51  1  0
 26 52  1  0
 27 53  1  0
 27 54  1  0
 28 55  1  0
 28 56  1  0
 30 57  1  0
 30 58  1  0
 30 59  1  0
M  END
>  <UniqueID>  (49) 
45

>  <SMILES>  (49) 
Cc1cccc(N2CCN(C(=O)c3cccc(S(=O)(=O)N4CCCC4)c3)CC2)c1C

>  <Energy>  (49) 
74.76405766362512

>  <Genealogy>  (49) 
Cc1cccc(N2CCN(C(=O)c3cccc(S(=O)(=O)N4CCCC4)c3)CC2)c1C (3D coordinates assigned)
Cc1cccc(N2CCN(C(=O)c3cccc(S(=O)(=O)N4CCCC4)c3)CC2)c1C (nonaromatic ring conformer: 74.76405766362512 kcal/mol)

>  <smiles>  (49) 
Cc1cccc(N2CCN(C(=O)c3cccc(S(=O)(=O)N4CCCC4)c3)CC2)c1C

>  <score_type>  (49) 
oracle

>  <origin>  (49) 
adgpu

>  <m_score__min__energy>  (49) 
-10.76

>  <m_primary>  (49) 
energy

$$$$
