0:0
     RDKit          3D

 41 43  0  0  0  0  0  0  0  0999 V2000
   -2.8070   24.9180  -29.7230 O   0  0  0  0  0  0  0  0  0  0  0  0
   -3.4840   24.1490  -30.4580 C   0  0  0  0  0  0  0  0  0  0  0  0
   -4.7270   24.5930  -31.0170 N   0  0  0  0  0  0  0  0  0  0  0  0
   -5.9470   23.8410  -31.0920 C   0  0  0  0  0  0  0  0  0  0  0  0
   -6.4030   23.1850  -29.9410 C   0  0  0  0  0  0  0  0  0  0  0  0
   -7.5980   22.4590  -29.9660 C   0  0  0  0  0  0  0  0  0  0  0  0
   -8.3550   22.3980  -31.1400 C   0  0  0  0  0  0  0  0  0  0  0  0
   -9.5160   21.6980  -31.1640 F   0  0  0  0  0  0  0  0  0  0  0  0
   -7.9200   23.0700  -32.2860 C   0  0  0  0  0  0  0  0  0  0  0  0
   -6.7240   23.7950  -32.2640 C   0  0  0  0  0  0  0  0  0  0  0  0
   -2.9310   22.8330  -30.8380 C   0  0  0  0  0  0  0  0  0  0  0  0
   -3.7620   21.9230  -31.5180 C   0  0  0  0  0  0  0  0  0  0  0  0
   -3.3060   20.6370  -31.8350 C   0  0  0  0  0  0  0  0  0  0  0  0
   -4.3520   19.5120  -32.6980 S   0  0  0  0  0  0  0  0  0  0  0  0
   -3.8150   18.1140  -32.5620 O   0  0  0  0  0  0  0  0  0  0  0  0
   -4.3710   19.8750  -34.1580 O   0  0  0  0  0  0  0  0  0  0  0  0
   -5.9700   19.6160  -32.0530 N   0  0  0  0  0  0  0  0  0  0  0  0
   -6.4260   18.3200  -31.5530 C   0  0  0  0  0  0  0  0  0  0  0  0
   -7.9430   18.3260  -31.6560 C   0  0  0  0  0  0  0  0  0  0  0  0
   -8.2730   19.4150  -32.6660 C   0  0  0  0  0  0  0  0  0  0  0  0
   -6.9320   19.9950  -33.0880 C   0  0  0  0  0  0  0  0  0  0  0  0
   -2.0080   20.2570  -31.4850 C   0  0  0  0  0  0  0  0  0  0  0  0
   -1.1660   21.1550  -30.8280 C   0  0  0  0  0  0  0  0  0  0  0  0
   -1.6060   22.4470  -30.5170 C   0  0  0  0  0  0  0  0  0  0  0  0
   -0.6910   23.3250  -29.9310 O   0  0  0  0  0  0  0  0  0  0  0  0
   -5.8172   23.2414  -29.0116 H   0  0  0  0  0  0  0  0  0  0  0  0
   -7.9425   21.9358  -29.0618 H   0  0  0  0  0  0  0  0  0  0  0  0
   -8.5197   23.0285  -33.2072 H   0  0  0  0  0  0  0  0  0  0  0  0
   -6.3902   24.3304  -33.1651 H   0  0  0  0  0  0  0  0  0  0  0  0
   -4.7805   22.2249  -31.8036 H   0  0  0  0  0  0  0  0  0  0  0  0
   -6.0069   17.5078  -32.1652 H   0  0  0  0  0  0  0  0  0  0  0  0
   -6.0987   18.1567  -30.5156 H   0  0  0  0  0  0  0  0  0  0  0  0
   -8.3091   17.3503  -32.0081 H   0  0  0  0  0  0  0  0  0  0  0  0
   -8.4192   18.5122  -30.6821 H   0  0  0  0  0  0  0  0  0  0  0  0
   -8.7980   18.9888  -33.5336 H   0  0  0  0  0  0  0  0  0  0  0  0
   -8.9341   20.1829  -32.2379 H   0  0  0  0  0  0  0  0  0  0  0  0
   -6.6275   19.5796  -34.0600 H   0  0  0  0  0  0  0  0  0  0  0  0
   -6.9885   21.0881  -33.1968 H   0  0  0  0  0  0  0  0  0  0  0  0
   -1.6485   19.2463  -31.7282 H   0  0  0  0  0  0  0  0  0  0  0  0
   -0.1474   20.8449  -30.5520 H   0  0  0  0  0  0  0  0  0  0  0  0
   -0.7400   24.3290  -30.0370 H   0  0  0  0  0  0  0  0  0  0  0  0
  1  2  2  0
  2  3  1  0
  3  4  1  0
  4  5  2  0
  5  6  1  0
  6  7  2  0
  7  8  1  0
  7  9  1  0
  9 10  2  0
  2 11  1  0
 11 12  2  0
 12 13  1  0
 13 14  1  0
 14 15  2  0
 14 16  2  0
 14 17  1  0
 17 18  1  0
 18 19  1  0
 19 20  1  0
 20 21  1  0
 13 22  2  0
 22 23  1  0
 23 24  2  0
 24 25  1  0
 10  4  1  0
 24 11  1  0
 21 17  1  0
  5 26  1  0
  6 27  1  0
  9 28  1  0
 10 29  1  0
 12 30  1  0
 18 31  1  0
 18 32  1  0
 19 33  1  0
 19 34  1  0
 20 35  1  0
 20 36  1  0
 21 37  1  0
 21 38  1  0
 22 39  1  0
 23 40  1  0
 25 41  1  0
M  CHG  1   3  -1
M  END
>  <UniqueID>  (1) 
1

>  <SMILES>  (1) 
O=C([N-]c1ccc(F)cc1)c1cc(S(=O)(=O)N2CCCC2)ccc1O

>  <Energy>  (1) 
52.04680085484381

>  <Genealogy>  (1) 
O=C([N-]c1ccc(F)cc1)c1cc(S(=O)(=O)N2CCCC2)ccc1O (protonated)
O=C([N-]c1ccc(F)cc1)c1cc(S(=O)(=O)N2CCCC2)ccc1O (3D coordinates assigned)
O=C([N-]c1ccc(F)cc1)c1cc(S(=O)(=O)N2CCCC2)ccc1O (nonaromatic ring conformer: 52.04680085484381 kcal/mol)

>  <smiles>  (1) 
O=C(Nc1ccc(F)cc1)c1cc(S(=O)(=O)N2CCCC2)ccc1O

>  <score_type>  (1) 
oracle

>  <origin>  (1) 
adgpu

>  <m_score__min__energy>  (1) 
-10.130000000000001

>  <m_primary>  (1) 
energy

$$$$
1:0
     RDKit          3D

 60 65  0  0  0  0  0  0  0  0999 V2000
    0.0103   24.4566  -37.3682 H   0  0  0  0  0  0  0  0  0  0  0  0
    0.4480   25.0610  -36.5600 C   0  0  0  0  0  0  0  0  0  0  0  0
    1.4820   24.5470  -35.8810 C   0  0  0  0  0  0  0  0  0  0  0  0
    1.9295   25.1405  -35.0701 H   0  0  0  0  0  0  0  0  0  0  0  0
    2.0430   23.2180  -36.1780 C   0  0  0  0  0  0  0  0  0  0  0  0
    3.2870   23.0410  -36.6800 N   0  0  0  0  0  0  0  0  0  0  0  0
    3.5070   21.7430  -36.8620 N   0  0  0  0  0  0  0  0  0  0  0  0
    2.3950   21.0910  -36.4820 C   0  0  0  0  0  0  0  0  0  0  0  0
    2.1560   19.7220  -36.5400 C   0  0  0  0  0  0  0  0  0  0  0  0
    2.9329   19.0263  -36.8899 H   0  0  0  0  0  0  0  0  0  0  0  0
    0.8850   19.2500  -36.1360 C   0  0  0  0  0  0  0  0  0  0  0  0
    0.5600   17.8500  -36.1940 N   0  0  0  0  0  0  0  0  0  0  0  0
    1.0320   17.2710  -36.9260 H   0  0  0  0  0  0  0  0  0  0  0  0
   -0.3660   17.1950  -35.3110 C   0  0  0  0  0  0  0  0  0  0  0  0
   -0.2080   15.8310  -35.0410 C   0  0  0  0  0  0  0  0  0  0  0  0
    0.6245   15.2762  -35.4984 H   0  0  0  0  0  0  0  0  0  0  0  0
   -1.1000   15.1700  -34.1950 C   0  0  0  0  0  0  0  0  0  0  0  0
   -0.9514   14.1028  -33.9735 H   0  0  0  0  0  0  0  0  0  0  0  0
   -2.1850   15.8540  -33.6240 C   0  0  0  0  0  0  0  0  0  0  0  0
   -3.1280   15.1160  -32.7130 C   0  0  0  0  0  0  0  0  0  0  0  0
   -2.8633   15.3232  -31.6656 H   0  0  0  0  0  0  0  0  0  0  0  0
   -4.1586   15.4499  -32.9037 H   0  0  0  0  0  0  0  0  0  0  0  0
   -3.0515   14.0354  -32.9037 H   0  0  0  0  0  0  0  0  0  0  0  0
   -2.3720   17.2260  -33.9140 C   0  0  0  0  0  0  0  0  0  0  0  0
   -3.4570   17.9590  -33.3160 N   0  0  0  0  0  0  0  0  0  0  0  0
   -3.4050   18.1760  -32.2970 H   0  0  0  0  0  0  0  0  0  0  0  0
   -4.6480   18.3240  -34.0330 C   0  0  0  0  0  0  0  0  0  0  0  0
   -4.9160   17.7750  -35.1360 O   0  0  0  0  0  0  0  0  0  0  0  0
   -5.5930   19.3110  -33.4840 C   0  0  0  0  0  0  0  0  0  0  0  0
   -5.2540   20.5600  -33.2140 O   0  0  0  0  0  0  0  0  0  0  0  0
   -6.3160   21.1630  -32.7380 C   0  0  0  0  0  0  0  0  0  0  0  0
   -6.4300   22.4860  -32.3170 C   0  0  0  0  0  0  0  0  0  0  0  0
   -5.5714   23.1722  -32.3600 H   0  0  0  0  0  0  0  0  0  0  0  0
   -7.6800   22.9150  -31.8350 C   0  0  0  0  0  0  0  0  0  0  0  0
   -7.8068   23.9533  -31.4945 H   0  0  0  0  0  0  0  0  0  0  0  0
   -8.7740   22.0220  -31.7850 C   0  0  0  0  0  0  0  0  0  0  0  0
   -9.7463   22.3693  -31.4056 H   0  0  0  0  0  0  0  0  0  0  0  0
   -8.6270   20.6900  -32.2180 C   0  0  0  0  0  0  0  0  0  0  0  0
   -9.4701   19.9842  -32.1854 H   0  0  0  0  0  0  0  0  0  0  0  0
   -7.3760   20.2980  -32.6890 C   0  0  0  0  0  0  0  0  0  0  0  0
   -6.9330   19.0880  -33.1680 C   0  0  0  0  0  0  0  0  0  0  0  0
   -7.5057   18.1552  -33.2773 H   0  0  0  0  0  0  0  0  0  0  0  0
   -1.4580   17.8820  -34.7580 C   0  0  0  0  0  0  0  0  0  0  0  0
   -1.6009   18.9482  -34.9879 H   0  0  0  0  0  0  0  0  0  0  0  0
   -0.1110   20.1780  -35.7420 C   0  0  0  0  0  0  0  0  0  0  0  0
   -1.1111   19.8143  -35.4635 H   0  0  0  0  0  0  0  0  0  0  0  0
    0.1610   21.5570  -35.7020 C   0  0  0  0  0  0  0  0  0  0  0  0
   -0.6112   22.2807  -35.4019 H   0  0  0  0  0  0  0  0  0  0  0  0
    1.4440   21.9760  -36.0560 C   0  0  0  0  0  0  0  0  0  0  0  0
   -0.1440   26.3950  -36.2900 C   0  0  0  0  0  0  0  0  0  0  0  0
   -1.0410   27.0280  -37.1760 C   0  0  0  0  0  0  0  0  0  0  0  0
   -1.3323   26.5261  -38.1105 H   0  0  0  0  0  0  0  0  0  0  0  0
   -1.5620   28.2900  -36.8730 C   0  0  0  0  0  0  0  0  0  0  0  0
   -2.2669   28.7727  -37.5660 H   0  0  0  0  0  0  0  0  0  0  0  0
   -1.1910   28.9390  -35.6950 C   0  0  0  0  0  0  0  0  0  0  0  0
   -1.6068   29.9295  -35.4581 H   0  0  0  0  0  0  0  0  0  0  0  0
   -0.2920   28.3310  -34.8170 C   0  0  0  0  0  0  0  0  0  0  0  0
    0.0039   28.8450  -33.8905 H   0  0  0  0  0  0  0  0  0  0  0  0
    0.2330   27.0690  -35.1140 C   0  0  0  0  0  0  0  0  0  0  0  0
    0.9472   26.5992  -34.4217 H   0  0  0  0  0  0  0  0  0  0  0  0
  1  2  1  0
  2  3  2  0
  3  4  1  0
  3  5  1  0
  5  6  1  0
  6  7  1  0
  7  8  2  0
  8  9  1  0
  9 10  1  0
  9 11  2  0
 11 12  1  0
 12 13  1  0
 12 14  1  0
 14 15  2  0
 15 16  1  0
 15 17  1  0
 17 18  1  0
 17 19  2  0
 19 20  1  0
 20 21  1  0
 20 22  1  0
 20 23  1  0
 19 24  1  0
 24 25  1  0
 25 26  1  0
 25 27  1  0
 27 28  2  0
 27 29  1  0
 29 30  1  0
 30 31  1  0
 31 32  2  0
 32 33  1  0
 32 34  1  0
 34 35  1  0
 34 36  2  0
 36 37  1  0
 36 38  1  0
 38 39  1  0
 38 40  2  0
 40 41  1  0
 41 42  1  0
 24 43  2  0
 43 44  1  0
 11 45  1  0
 45 46  1  0
 45 47  2  0
 47 48  1  0
 47 49  1  0
  2 50  1  0
 50 51  2  0
 51 52  1  0
 51 53  1  0
 53 54  1  0
 53 55  2  0
 55 56  1  0
 55 57  1  0
 57 58  1  0
 57 59  2  0
 59 60  1  0
 49  5  2  0
 59 50  1  0
 49  8  1  0
 43 14  1  0
 41 29  2  0
 40 31  1  0
M  CHG  1   6  -1
M  END
>  <UniqueID>  (2) 
2

>  <SMILES>  (2) 
Cc1ccc(Nc2ccc3c(/C=C/c4ccccc4)[n-]nc3c2)cc1NC(=O)c1cc2ccccc2o1

>  <Energy>  (2) 
154.73372442054406

>  <Genealogy>  (2) 
Cc1ccc(Nc2ccc3c(C=Cc4ccccc4)[n-]nc3c2)cc1NC(=O)c1cc2ccccc2o1 (protonated)
Cc1ccc(Nc2ccc3c(/C=C/c4ccccc4)[n-]nc3c2)cc1NC(=O)c1cc2ccccc2o1 (cis-trans isomerization)
Cc1ccc(Nc2ccc3c(/C=C/c4ccccc4)[n-]nc3c2)cc1NC(=O)c1cc2ccccc2o1 (3D coordinates assigned)
Cc1ccc(Nc2ccc3c(/C=C/c4ccccc4)[n-]nc3c2)cc1NC(=O)c1cc2ccccc2o1 (optimized conformer: 154.73372442054406 kcal/mol)

>  <smiles>  (2) 
Cc1ccc(Nc2ccc3c(C=Cc4ccccc4)[nH]nc3c2)cc1NC(=O)c1cc2ccccc2o1

>  <score_type>  (2) 
oracle

>  <origin>  (2) 
adgpu

>  <m_score__min__energy>  (2) 
-11.48

>  <m_primary>  (2) 
energy

$$$$
2:0
     RDKit          3D

 40 42  0  0  0  0  0  0  0  0999 V2000
   -7.3060   20.8370  -33.4310 O   0  0  0  0  0  0  0  0  0  0  0  0
   -6.2330   20.4350  -32.4580 S   0  0  0  0  0  0  0  0  0  0  0  0
   -6.8680   19.6880  -31.3180 O   0  0  0  0  0  0  0  0  0  0  0  0
   -5.0970   19.3660  -33.2810 C   0  0  0  0  0  0  0  0  0  0  0  0
   -5.5380   18.1560  -33.8300 C   0  0  0  0  0  0  0  0  0  0  0  0
   -4.6330   17.3000  -34.4620 C   0  0  0  0  0  0  0  0  0  0  0  0
   -3.2760   17.6420  -34.5440 C   0  0  0  0  0  0  0  0  0  0  0  0
   -2.3800   16.7970  -35.1950 O   0  0  0  0  0  0  0  0  0  0  0  0
   -2.8230   18.8470  -33.9780 C   0  0  0  0  0  0  0  0  0  0  0  0
   -1.4320   19.2040  -34.0430 N   0  0  0  0  0  0  0  0  0  0  0  0
   -0.4110   18.2300  -33.6390 C   0  0  0  0  0  0  0  0  0  0  0  0
    0.9650   18.8940  -33.5610 C   0  0  0  0  0  0  0  0  0  0  0  0
    0.8250   20.2220  -32.9580 N   0  0  0  0  0  0  0  0  0  0  0  0
    0.0980   21.1520  -33.8430 C   0  0  0  0  0  0  0  0  0  0  0  0
   -1.0240   20.4720  -34.6580 C   0  0  0  0  0  0  0  0  0  0  0  0
   -3.7410   19.7070  -33.3540 C   0  0  0  0  0  0  0  0  0  0  0  0
   -5.4310   21.8840  -31.8330 C   0  0  0  0  0  0  0  0  0  0  0  0
   -4.0570   21.8550  -31.5410 C   0  0  0  0  0  0  0  0  0  0  0  0
   -3.4130   22.9940  -31.0490 C   0  0  0  0  0  0  0  0  0  0  0  0
   -4.1330   24.1720  -30.8420 C   0  0  0  0  0  0  0  0  0  0  0  0
   -3.4900   25.3020  -30.3520 O   0  0  0  0  0  0  0  0  0  0  0  0
   -5.4990   24.2130  -31.1270 C   0  0  0  0  0  0  0  0  0  0  0  0
   -6.1550   23.0790  -31.6210 C   0  0  0  0  0  0  0  0  0  0  0  0
   -7.8790   23.1960  -31.9590 Cl  0  0  0  0  0  0  0  0  0  0  0  0
   -6.6004   17.8785  -33.7635 H   0  0  0  0  0  0  0  0  0  0  0  0
   -4.9866   16.3536  -34.8972 H   0  0  0  0  0  0  0  0  0  0  0  0
   -2.5220   16.5110  -36.1570 H   0  0  0  0  0  0  0  0  0  0  0  0
   -0.6718   17.8213  -32.6516 H   0  0  0  0  0  0  0  0  0  0  0  0
   -0.3741   17.4239  -34.3866 H   0  0  0  0  0  0  0  0  0  0  0  0
    1.6362   18.2785  -32.9440 H   0  0  0  0  0  0  0  0  0  0  0  0
    1.3873   18.9897  -34.5722 H   0  0  0  0  0  0  0  0  0  0  0  0
    1.7830   20.6090  -32.7930 H   0  0  0  0  0  0  0  0  0  0  0  0
   -0.3508   21.9431  -33.2243 H   0  0  0  0  0  0  0  0  0  0  0  0
    0.8268   21.5512  -34.5638 H   0  0  0  0  0  0  0  0  0  0  0  0
   -1.8930   21.1449  -34.7033 H   0  0  0  0  0  0  0  0  0  0  0  0
   -0.6429   20.2626  -35.6684 H   0  0  0  0  0  0  0  0  0  0  0  0
   -3.3923   20.6554  -32.9194 H   0  0  0  0  0  0  0  0  0  0  0  0
   -3.4841   20.9296  -31.7006 H   0  0  0  0  0  0  0  0  0  0  0  0
   -2.3366   22.9620  -30.8245 H   0  0  0  0  0  0  0  0  0  0  0  0
   -6.0638   25.1425  -30.9624 H   0  0  0  0  0  0  0  0  0  0  0  0
  1  2  2  0
  2  3  2  0
  2  4  1  0
  4  5  2  0
  5  6  1  0
  6  7  2  0
  7  8  1  0
  7  9  1  0
  9 10  1  0
 10 11  1  0
 11 12  1  0
 12 13  1  0
 13 14  1  0
 14 15  1  0
  9 16  2  0
  2 17  1  0
 17 18  2  0
 18 19  1  0
 19 20  2  0
 20 21  1  0
 20 22  1  0
 22 23  2  0
 23 24  1  0
 16  4  1  0
 23 17  1  0
 15 10  1  0
  5 25  1  0
  6 26  1  0
  8 27  1  0
 11 28  1  0
 11 29  1  0
 12 30  1  0
 12 31  1  0
 13 32  1  0
 14 33  1  0
 14 34  1  0
 15 35  1  0
 15 36  1  0
 16 37  1  0
 18 38  1  0
 19 39  1  0
 22 40  1  0
M  CHG  1  21  -1
M  END
>  <UniqueID>  (3) 
3

>  <SMILES>  (3) 
O=S(=O)(c1ccc(O)c(N2CCNCC2)c1)c1ccc([O-])cc1Cl

>  <Energy>  (3) 
53.75570661539974

>  <Genealogy>  (3) 
O=S(=O)(c1ccc(O)c(N2CCNCC2)c1)c1ccc([O-])cc1Cl (protonated)
O=S(=O)(c1ccc(O)c(N2CCNCC2)c1)c1ccc([O-])cc1Cl (3D coordinates assigned)
O=S(=O)(c1ccc(O)c(N2CCNCC2)c1)c1ccc([O-])cc1Cl (nonaromatic ring conformer: 53.75570661539974 kcal/mol)

>  <smiles>  (3) 
O=S(=O)(c1ccc(O)c(N2CCNCC2)c1)c1ccc(O)cc1Cl

>  <score_type>  (3) 
oracle

>  <origin>  (3) 
adgpu

>  <m_score__min__energy>  (3) 
-10.279999999999999

>  <m_primary>  (3) 
energy

$$$$
3:0
     RDKit          3D

 43 45  0  0  0  0  0  0  0  0999 V2000
   -6.0400   15.2320  -34.1640 C   0  0  0  0  0  0  0  0  0  0  0  0
   -6.0000   16.6680  -33.6400 C   0  0  2  0  0  0  0  0  0  0  0  0
   -7.3430   17.0570  -32.9970 C   0  0  0  0  0  0  0  0  0  0  0  0
   -7.4090   18.5330  -32.7010 C   0  0  0  0  0  0  0  0  0  0  0  0
   -8.4110   19.0210  -31.8500 C   0  0  0  0  0  0  0  0  0  0  0  0
   -8.5250   20.3910  -31.6040 C   0  0  0  0  0  0  0  0  0  0  0  0
   -7.6410   21.2910  -32.2080 C   0  0  0  0  0  0  0  0  0  0  0  0
   -7.8050   23.0180  -31.8930 S   0  0  0  0  0  0  0  0  0  0  0  0
   -7.0940   23.7740  -32.9820 O   0  0  0  0  0  0  0  0  0  0  0  0
   -9.2580   23.4090  -31.9080 O   0  0  0  0  0  0  0  0  0  0  0  0
   -7.1000   23.4060  -30.3410 N   0  0  0  0  0  0  0  0  0  0  0  0
   -5.8990   22.5640  -30.1180 C   0  0  0  0  0  0  0  0  0  0  0  0
   -4.9820   23.1610  -29.0450 C   0  0  0  0  0  0  0  0  0  0  0  0
   -4.4540   24.5420  -29.4740 C   0  0  0  0  0  0  0  0  0  0  0  0
   -5.3870   25.2520  -30.4680 C   0  0  0  0  0  0  0  0  0  0  0  0
   -6.8540   24.8700  -30.2190 C   0  0  0  0  0  0  0  0  0  0  0  0
   -6.6460   20.8130  -33.0720 C   0  0  0  0  0  0  0  0  0  0  0  0
   -6.5350   19.4400  -33.3380 C   0  0  0  0  0  0  0  0  0  0  0  0
   -5.4170   18.9430  -34.2260 C   0  0  0  0  0  0  0  0  0  0  0  0
   -5.6700   17.5890  -34.7390 N   0  0  0  0  0  0  0  0  0  0  0  0
   -6.0595   14.5324  -33.3153 H   0  0  0  0  0  0  0  0  0  0  0  0
   -6.9424   15.0903  -34.7768 H   0  0  0  0  0  0  0  0  0  0  0  0
   -5.1468   15.0403  -34.7768 H   0  0  0  0  0  0  0  0  0  0  0  0
   -5.2222   16.7376  -32.8653 H   0  0  0  0  0  0  0  0  0  0  0  0
   -8.1585   16.7944  -33.6869 H   0  0  0  0  0  0  0  0  0  0  0  0
   -7.4409   16.5108  -32.0472 H   0  0  0  0  0  0  0  0  0  0  0  0
   -9.1119   18.3201  -31.3730 H   0  0  0  0  0  0  0  0  0  0  0  0
   -9.3128   20.7636  -30.9328 H   0  0  0  0  0  0  0  0  0  0  0  0
   -7.8120   23.1420  -29.6190 H   0  0  0  0  0  0  0  0  0  0  0  0
   -6.2202   21.5624  -29.7960 H   0  0  0  0  0  0  0  0  0  0  0  0
   -5.3357   22.5119  -31.0614 H   0  0  0  0  0  0  0  0  0  0  0  0
   -5.5477   23.2678  -28.1077 H   0  0  0  0  0  0  0  0  0  0  0  0
   -4.1241   22.4871  -28.9038 H   0  0  0  0  0  0  0  0  0  0  0  0
   -4.3489   25.1722  -28.5785 H   0  0  0  0  0  0  0  0  0  0  0  0
   -3.4887   24.3864  -29.9779 H   0  0  0  0  0  0  0  0  0  0  0  0
   -5.2744   26.3401  -30.3520 H   0  0  0  0  0  0  0  0  0  0  0  0
   -5.1132   24.9414  -31.4871 H   0  0  0  0  0  0  0  0  0  0  0  0
   -7.1325   25.1894  -29.2039 H   0  0  0  0  0  0  0  0  0  0  0  0
   -7.4609   25.3720  -30.9868 H   0  0  0  0  0  0  0  0  0  0  0  0
   -5.9475   21.5192  -33.5446 H   0  0  0  0  0  0  0  0  0  0  0  0
   -5.3109   19.6299  -35.0786 H   0  0  0  0  0  0  0  0  0  0  0  0
   -4.4987   18.9069  -33.6214 H   0  0  0  0  0  0  0  0  0  0  0  0
   -6.4740   17.6320  -35.4110 H   0  0  0  0  0  0  0  0  0  0  0  0
  1  2  1  0
  2  3  1  0
  3  4  1  0
  4  5  2  0
  5  6  1  0
  6  7  2  0
  7  8  1  0
  8  9  2  0
  8 10  2  0
  8 11  1  0
 11 12  1  0
 12 13  1  0
 13 14  1  0
 14 15  1  0
 15 16  1  0
  7 17  1  0
 17 18  2  0
 18 19  1  0
 19 20  1  0
 20  2  1  0
 18  4  1  0
 16 11  1  0
  1 21  1  0
  1 22  1  0
  1 23  1  0
  2 24  1  1
  3 25  1  0
  3 26  1  0
  5 27  1  0
  6 28  1  0
 11 29  1  0
 12 30  1  0
 12 31  1  0
 13 32  1  0
 13 33  1  0
 14 34  1  0
 14 35  1  0
 15 36  1  0
 15 37  1  0
 16 38  1  0
 16 39  1  0
 17 40  1  0
 19 41  1  0
 19 42  1  0
 20 43  1  0
M  CHG  1  11   1
M  END
>  <UniqueID>  (4) 
4

>  <SMILES>  (4) 
C[C@@H]1Cc2ccc(S(=O)(=O)[NH+]3CCCCC3)cc2CN1

>  <Energy>  (4) 
47.9965594435349

>  <Genealogy>  (4) 
CC1Cc2ccc(S(=O)(=O)[NH+]3CCCCC3)cc2CN1 (protonated)
C[C@@H]1Cc2ccc(S(=O)(=O)[NH+]3CCCCC3)cc2CN1 (chirality)
C[C@@H]1Cc2ccc(S(=O)(=O)[NH+]3CCCCC3)cc2CN1 (3D coordinates assigned)
C[C@@H]1Cc2ccc(S(=O)(=O)[NH+]3CCCCC3)cc2CN1 (nonaromatic ring conformer: 47.9965594435349 kcal/mol)

>  <smiles>  (4) 
CC1Cc2ccc(S(=O)(=O)N3CCCCC3)cc2CN1

>  <score_type>  (4) 
oracle

>  <origin>  (4) 
adgpu

>  <m_score__min__energy>  (4) 
-8.0399999999999991

>  <m_primary>  (4) 
energy

$$$$
4:0
     RDKit          3D

 74 77  0  0  0  0  0  0  0  0999 V2000
   -0.9320   26.2580  -28.1250 C   0  0  0  0  0  0  0  0  0  0  0  0
   -1.5810   25.6710  -29.2880 N   0  0  0  0  0  0  0  0  0  0  0  0
   -2.0110   24.3060  -29.3250 C   0  0  0  0  0  0  0  0  0  0  0  0
   -1.2850   23.4090  -28.8170 O   0  0  0  0  0  0  0  0  0  0  0  0
   -3.2910   23.9660  -29.9790 C   0  0  0  0  0  0  0  0  0  0  0  0
   -4.4260   24.5760  -29.5350 N   0  0  0  0  0  0  0  0  0  0  0  0
   -5.6440   24.3430  -30.0930 C   0  0  0  0  0  0  0  0  0  0  0  0
   -5.7630   23.4620  -31.1670 C   0  0  0  0  0  0  0  0  0  0  0  0
   -4.6260   22.8120  -31.6440 C   0  0  0  0  0  0  0  0  0  0  0  0
   -3.3830   23.0370  -31.0430 C   0  0  0  0  0  0  0  0  0  0  0  0
   -2.2730   22.3350  -31.5180 O   0  0  0  0  0  0  0  0  0  0  0  0
   -1.5810   21.3210  -30.8280 C   0  0  0  0  0  0  0  0  0  0  0  0
   -2.1420   20.8830  -29.6270 C   0  0  0  0  0  0  0  0  0  0  0  0
   -1.5110   19.9190  -28.8450 C   0  0  0  0  0  0  0  0  0  0  0  0
   -0.3060   19.3220  -29.2590 C   0  0  0  0  0  0  0  0  0  0  0  0
    0.3620   18.2570  -28.3620 C   0  0  0  0  0  0  0  0  0  0  0  0
   -0.4920   17.8730  -27.1310 C   0  0  0  0  0  0  0  0  0  0  0  0
    0.6000   16.9730  -29.1870 C   0  0  0  0  0  0  0  0  0  0  0  0
    1.7150   18.7910  -27.8410 C   0  0  0  0  0  0  0  0  0  0  0  0
    0.2470   19.7440  -30.4870 C   0  0  0  0  0  0  0  0  0  0  0  0
   -0.3560   20.7550  -31.2600 C   0  0  0  0  0  0  0  0  0  0  0  0
    0.2660   21.1820  -32.4820 N   0  0  0  0  0  0  0  0  0  0  0  0
   -0.2870   20.9950  -33.7920 C   0  0  0  0  0  0  0  0  0  0  0  0
   -0.3770   21.9780  -34.5730 O   0  0  0  0  0  0  0  0  0  0  0  0
   -0.7300   19.7050  -34.2300 N   0  0  0  0  0  0  0  0  0  0  0  0
   -2.0310   19.1930  -33.9290 C   0  0  0  0  0  0  0  0  0  0  0  0
   -2.9420   19.9850  -33.2240 C   0  0  0  0  0  0  0  0  0  0  0  0
   -4.1820   19.4620  -32.8440 C   0  0  0  0  0  0  0  0  0  0  0  0
   -4.5400   18.1530  -33.2060 C   0  0  0  0  0  0  0  0  0  0  0  0
   -6.1070   17.4890  -32.7250 S   0  0  0  0  0  0  0  0  0  0  0  0
   -6.0570   17.1690  -31.2560 O   0  0  0  0  0  0  0  0  0  0  0  0
   -6.3460   16.2090  -33.4750 O   0  0  0  0  0  0  0  0  0  0  0  0
   -7.4510   18.5600  -33.0680 N   0  0  0  0  0  0  0  0  0  0  0  0
   -8.4390   18.5570  -31.9750 C   0  0  0  0  0  0  0  0  0  0  0  0
   -9.4700   19.6700  -32.1850 C   0  0  0  0  0  0  0  0  0  0  0  0
   -8.8520   21.0190  -32.2030 N   0  0  0  0  0  0  0  0  0  0  0  0
   -9.0990   21.7370  -30.9420 C   0  0  0  0  0  0  0  0  0  0  0  0
   -7.4040   21.0150  -32.5090 C   0  0  0  0  0  0  0  0  0  0  0  0
   -7.0290   19.9090  -33.5110 C   0  0  0  0  0  0  0  0  0  0  0  0
   -3.6550   17.3920  -33.9820 C   0  0  0  0  0  0  0  0  0  0  0  0
   -2.3980   17.8970  -34.3180 C   0  0  0  0  0  0  0  0  0  0  0  0
   -1.3831   25.8500  -27.2085 H   0  0  0  0  0  0  0  0  0  0  0  0
    0.1413   26.0177  -28.1438 H   0  0  0  0  0  0  0  0  0  0  0  0
   -1.0637   27.3499  -28.1438 H   0  0  0  0  0  0  0  0  0  0  0  0
   -6.5361   24.8500  -29.6967 H   0  0  0  0  0  0  0  0  0  0  0  0
   -6.7432   23.2819  -31.6327 H   0  0  0  0  0  0  0  0  0  0  0  0
   -4.7063   22.1202  -32.4954 H   0  0  0  0  0  0  0  0  0  0  0  0
   -3.1001   21.3072  -29.2923 H   0  0  0  0  0  0  0  0  0  0  0  0
   -1.9621   19.6192  -27.8876 H   0  0  0  0  0  0  0  0  0  0  0  0
    0.0584   18.1205  -26.2113 H   0  0  0  0  0  0  0  0  0  0  0  0
   -1.4392   18.4319  -27.1531 H   0  0  0  0  0  0  0  0  0  0  0  0
   -0.7025   16.7936  -27.1531 H   0  0  0  0  0  0  0  0  0  0  0  0
    0.7574   16.1236  -28.5061 H   0  0  0  0  0  0  0  0  0  0  0  0
   -0.2771   16.7768  -29.8212 H   0  0  0  0  0  0  0  0  0  0  0  0
    1.4891   17.1042  -29.8212 H   0  0  0  0  0  0  0  0  0  0  0  0
    1.7108   18.7893  -26.7410 H   0  0  0  0  0  0  0  0  0  0  0  0
    2.5285   18.1465  -28.2055 H   0  0  0  0  0  0  0  0  0  0  0  0
    1.8690   19.8174  -28.2055 H   0  0  0  0  0  0  0  0  0  0  0  0
    1.1719   19.2715  -30.8493 H   0  0  0  0  0  0  0  0  0  0  0  0
   -2.6827   21.0227  -32.9674 H   0  0  0  0  0  0  0  0  0  0  0  0
   -4.8802   20.0786  -32.2589 H   0  0  0  0  0  0  0  0  0  0  0  0
   -8.9538   17.5851  -31.9543 H   0  0  0  0  0  0  0  0  0  0  0  0
   -7.9175   18.7286  -31.0218 H   0  0  0  0  0  0  0  0  0  0  0  0
   -9.9798   19.5024  -33.1452 H   0  0  0  0  0  0  0  0  0  0  0  0
  -10.1758   19.6362  -31.3419 H   0  0  0  0  0  0  0  0  0  0  0  0
   -8.8715   21.0757  -30.0929 H   0  0  0  0  0  0  0  0  0  0  0  0
   -8.4557   22.6281  -30.8954 H   0  0  0  0  0  0  0  0  0  0  0  0
  -10.1543   22.0438  -30.8954 H   0  0  0  0  0  0  0  0  0  0  0  0
   -7.1289   21.9902  -32.9372 H   0  0  0  0  0  0  0  0  0  0  0  0
   -6.8596   20.8235  -31.5725 H   0  0  0  0  0  0  0  0  0  0  0  0
   -7.5132   20.1293  -34.4738 H   0  0  0  0  0  0  0  0  0  0  0  0
   -5.9323   19.8996  -33.5958 H   0  0  0  0  0  0  0  0  0  0  0  0
   -3.9528   16.3912  -34.3281 H   0  0  0  0  0  0  0  0  0  0  0  0
   -1.6928   17.2760  -34.8900 H   0  0  0  0  0  0  0  0  0  0  0  0
  1  2  1  0
  2  3  1  0
  3  4  2  0
  3  5  1  0
  5  6  2  0
  6  7  1  0
  7  8  2  0
  8  9  1  0
  9 10  2  0
 10 11  1  0
 11 12  1  0
 12 13  2  0
 13 14  1  0
 14 15  2  0
 15 16  1  0
 16 17  1  0
 16 18  1  0
 16 19  1  0
 15 20  1  0
 20 21  2  0
 21 22  1  0
 22 23  1  0
 23 24  2  0
 23 25  1  0
 25 26  1  0
 26 27  2  0
 27 28  1  0
 28 29  2  0
 29 30  1  0
 30 31  2  0
 30 32  2  0
 30 33  1  0
 33 34  1  0
 34 35  1  0
 35 36  1  0
 36 37  1  0
 36 38  1  0
 38 39  1  0
 29 40  1  0
 40 41  2  0
 10  5  1  0
 21 12  1  0
 41 26  1  0
 39 33  1  0
  1 42  1  0
  1 43  1  0
  1 44  1  0
  7 45  1  0
  8 46  1  0
  9 47  1  0
 13 48  1  0
 14 49  1  0
 17 50  1  0
 17 51  1  0
 17 52  1  0
 18 53  1  0
 18 54  1  0
 18 55  1  0
 19 56  1  0
 19 57  1  0
 19 58  1  0
 20 59  1  0
 27 60  1  0
 28 61  1  0
 34 62  1  0
 34 63  1  0
 35 64  1  0
 35 65  1  0
 37 66  1  0
 37 67  1  0
 37 68  1  0
 38 69  1  0
 38 70  1  0
 39 71  1  0
 39 72  1  0
 40 73  1  0
 41 74  1  0
M  CHG  3   2  -1  22  -1  25  -1
M  END
>  <UniqueID>  (5) 
5

>  <SMILES>  (5) 
C[N-]C(=O)c1ncccc1Oc1ccc(C(C)(C)C)cc1[N-]C(=O)[N-]c1ccc(S(=O)(=O)N2CCN(C)CC2)cc1

>  <Energy>  (5) 
102.56759090982972

>  <Genealogy>  (5) 
C[N-]C(=O)c1ncccc1Oc1ccc(C(C)(C)C)cc1[N-]C(=O)[N-]c1ccc(S(=O)(=O)N2CCN(C)CC2)cc1 (protonated)
C[N-]C(=O)c1ncccc1Oc1ccc(C(C)(C)C)cc1[N-]C(=O)[N-]c1ccc(S(=O)(=O)N2CCN(C)CC2)cc1 (3D coordinates assigned)
C[N-]C(=O)c1ncccc1Oc1ccc(C(C)(C)C)cc1[N-]C(=O)[N-]c1ccc(S(=O)(=O)N2CCN(C)CC2)cc1 (nonaromatic ring conformer: 102.56759090982972 kcal/mol)

>  <smiles>  (5) 
CNC(=O)c1ncccc1Oc1ccc(C(C)(C)C)cc1NC(=O)Nc1ccc(S(=O)(=O)N2CCN(C)CC2)cc1

>  <score_type>  (5) 
oracle

>  <origin>  (5) 
adgpu

>  <m_score__min__energy>  (5) 
-13.699999999999999

>  <m_primary>  (5) 
energy

$$$$
5:0
     RDKit          3D

 74 79  0  0  0  0  0  0  0  0999 V2000
   -7.1980   24.1890  -30.7900 O   0  0  0  0  0  0  0  0  0  0  0  0
   -7.4690   23.0210  -31.1710 C   0  0  0  0  0  0  0  0  0  0  0  0
   -6.4740   22.0490  -31.2130 C   0  0  0  0  0  0  0  0  0  0  0  0
   -6.8120   20.7720  -31.6530 C   0  0  0  0  0  0  0  0  0  0  0  0
   -8.0890   20.4840  -32.0440 N   0  0  0  0  0  0  0  0  0  0  0  0
   -8.4130   19.1320  -32.5180 C   0  0  0  0  0  0  0  0  0  0  0  0
   -7.2070   18.4630  -33.1310 C   0  0  0  0  0  0  0  0  0  0  0  0
   -6.7860   17.2010  -32.6840 C   0  0  0  0  0  0  0  0  0  0  0  0
   -5.6270   16.6150  -33.2030 C   0  0  0  0  0  0  0  0  0  0  0  0
   -4.8690   17.2840  -34.1640 C   0  0  0  0  0  0  0  0  0  0  0  0
   -3.7000   16.6790  -34.6450 O   0  0  0  0  0  0  0  0  0  0  0  0
   -2.4740   16.6560  -33.9700 C   0  0  0  0  0  0  0  0  0  0  0  0
   -2.2590   15.6840  -32.9820 C   0  0  0  0  0  0  0  0  0  0  0  0
   -1.0510   15.6410  -32.2810 C   0  0  0  0  0  0  0  0  0  0  0  0
   -0.0380   16.5720  -32.5600 C   0  0  0  0  0  0  0  0  0  0  0  0
    1.4350   16.5650  -31.5900 S   0  0  0  0  0  0  0  0  0  0  0  0
    1.4740   15.2930  -30.7910 O   0  0  0  0  0  0  0  0  0  0  0  0
    2.6430   16.6150  -32.4800 O   0  0  0  0  0  0  0  0  0  0  0  0
    1.4410   17.9390  -30.5060 N   0  0  2  0  0  0  0  0  0  0  0  0
    2.7970   18.1490  -29.9540 C   0  0  0  0  0  0  0  0  0  0  0  0
    2.8650   19.3460  -28.9750 C   0  0  0  0  0  0  0  0  0  0  0  0
    1.5370   19.7450  -28.3730 C   0  0  0  0  0  0  0  0  0  0  0  0
    1.4500   20.9330  -27.6340 C   0  0  0  0  0  0  0  0  0  0  0  0
    0.2320   21.3340  -27.0710 C   0  0  0  0  0  0  0  0  0  0  0  0
    0.1270   22.8950  -26.2710 S   0  0  0  0  0  0  0  0  0  0  0  0
    1.3030   23.0430  -25.3480 O   0  0  0  0  0  0  0  0  0  0  0  0
   -1.1420   22.9890  -25.4710 O   0  0  0  0  0  0  0  0  0  0  0  0
    0.1530   24.1470  -27.4870 N   0  0  0  0  0  0  0  0  0  0  0  0
   -0.3380   23.6330  -28.7900 C   0  0  0  0  0  0  0  0  0  0  0  0
   -1.6850   24.2570  -29.1950 C   0  0  0  0  0  0  0  0  0  0  0  0
   -1.6170   25.6700  -29.2730 O   0  0  0  0  0  0  0  0  0  0  0  0
   -0.9110   26.2710  -28.1910 C   0  0  0  0  0  0  0  0  0  0  0  0
   -0.5920   25.3270  -27.0140 C   0  0  0  0  0  0  0  0  0  0  0  0
   -0.8970   20.5210  -27.2130 C   0  0  0  0  0  0  0  0  0  0  0  0
   -0.8210   19.3370  -27.9520 C   0  0  0  0  0  0  0  0  0  0  0  0
    0.3830   18.9610  -28.5620 C   0  0  0  0  0  0  0  0  0  0  0  0
    0.4640   17.7300  -29.4210 C   0  0  0  0  0  0  0  0  0  0  0  0
   -0.2680   17.5800  -33.5140 C   0  0  0  0  0  0  0  0  0  0  0  0
   -1.4720   17.6150  -34.2240 C   0  0  0  0  0  0  0  0  0  0  0  0
   -5.3170   18.5250  -34.6590 C   0  0  0  0  0  0  0  0  0  0  0  0
   -6.4710   19.1130  -34.1340 C   0  0  0  0  0  0  0  0  0  0  0  0
   -9.0520   21.4550  -31.9770 C   0  0  0  0  0  0  0  0  0  0  0  0
  -10.2430   21.2060  -32.3110 O   0  0  0  0  0  0  0  0  0  0  0  0
   -8.7330   22.7060  -31.5470 N   0  0  0  0  0  0  0  0  0  0  0  0
   -5.4443   22.2841  -30.9057 H   0  0  0  0  0  0  0  0  0  0  0  0
   -6.0426   19.9866  -31.6862 H   0  0  0  0  0  0  0  0  0  0  0  0
   -8.7642   18.5287  -31.6679 H   0  0  0  0  0  0  0  0  0  0  0  0
   -9.1949   19.2116  -33.2876 H   0  0  0  0  0  0  0  0  0  0  0  0
   -7.3718   16.6689  -31.9200 H   0  0  0  0  0  0  0  0  0  0  0  0
   -5.3116   15.6215  -32.8516 H   0  0  0  0  0  0  0  0  0  0  0  0
   -3.0471   14.9502  -32.7573 H   0  0  0  0  0  0  0  0  0  0  0  0
   -0.8932   14.8748  -31.5077 H   0  0  0  0  0  0  0  0  0  0  0  0
    1.1540   18.7760  -31.0640 H   0  0  0  0  0  0  0  0  0  0  0  0
    3.1037   17.2385  -29.4184 H   0  0  0  0  0  0  0  0  0  0  0  0
    3.4680   18.3708  -30.7969 H   0  0  0  0  0  0  0  0  0  0  0  0
    3.5471   19.0792  -28.1543 H   0  0  0  0  0  0  0  0  0  0  0  0
    3.2120   20.2089  -29.5624 H   0  0  0  0  0  0  0  0  0  0  0  0
    2.3461   21.5556  -27.4951 H   0  0  0  0  0  0  0  0  0  0  0  0
    0.4068   23.8658  -29.5653 H   0  0  0  0  0  0  0  0  0  0  0  0
   -0.4873   22.5479  -28.6885 H   0  0  0  0  0  0  0  0  0  0  0  0
   -1.9774   23.8613  -30.1788 H   0  0  0  0  0  0  0  0  0  0  0  0
   -2.4243   23.9960  -28.4234 H   0  0  0  0  0  0  0  0  0  0  0  0
    0.0399   26.6635  -28.5806 H   0  0  0  0  0  0  0  0  0  0  0  0
   -1.5740   27.0506  -27.7877 H   0  0  0  0  0  0  0  0  0  0  0  0
    0.0160   25.8657  -26.2723 H   0  0  0  0  0  0  0  0  0  0  0  0
   -1.5364   24.9931  -26.5593 H   0  0  0  0  0  0  0  0  0  0  0  0
   -1.8470   20.8139  -26.7421 H   0  0  0  0  0  0  0  0  0  0  0  0
   -1.7102   18.6977  -28.0551 H   0  0  0  0  0  0  0  0  0  0  0  0
    0.7803   16.8754  -28.8049 H   0  0  0  0  0  0  0  0  0  0  0  0
   -0.5249   17.5273  -29.8579 H   0  0  0  0  0  0  0  0  0  0  0  0
    0.5018   18.3430  -33.7020 H   0  0  0  0  0  0  0  0  0  0  0  0
   -1.6381   18.3933  -34.9833 H   0  0  0  0  0  0  0  0  0  0  0  0
   -4.7578   19.0314  -35.4595 H   0  0  0  0  0  0  0  0  0  0  0  0
   -6.8047   20.0917  -34.5093 H   0  0  0  0  0  0  0  0  0  0  0  0
  1  2  2  0
  2  3  1  0
  3  4  2  0
  4  5  1  0
  5  6  1  0
  6  7  1  0
  7  8  2  0
  8  9  1  0
  9 10  2  0
 10 11  1  0
 11 12  1  0
 12 13  2  0
 13 14  1  0
 14 15  2  0
 15 16  1  0
 16 17  2  0
 16 18  2  0
 16 19  1  0
 19 20  1  0
 20 21  1  0
 21 22  1  0
 22 23  2  0
 23 24  1  0
 24 25  1  0
 25 26  2  0
 25 27  2  0
 25 28  1  0
 28 29  1  0
 29 30  1  0
 30 31  1  0
 31 32  1  0
 32 33  1  0
 24 34  2  0
 34 35  1  0
 35 36  2  0
 36 37  1  0
 15 38  1  0
 38 39  2  0
 10 40  1  0
 40 41  2  0
  5 42  1  0
 42 43  2  0
 42 44  1  0
 44  2  1  0
 41  7  1  0
 39 12  1  0
 37 19  1  0
 36 22  1  0
 33 28  1  0
  3 45  1  0
  4 46  1  0
  6 47  1  0
  6 48  1  0
  8 49  1  0
  9 50  1  0
 13 51  1  0
 14 52  1  0
 19 53  1  6
 20 54  1  0
 20 55  1  0
 21 56  1  0
 21 57  1  0
 23 58  1  0
 29 59  1  0
 29 60  1  0
 30 61  1  0
 30 62  1  0
 32 63  1  0
 32 64  1  0
 33 65  1  0
 33 66  1  0
 34 67  1  0
 35 68  1  0
 37 69  1  0
 37 70  1  0
 38 71  1  0
 39 72  1  0
 40 73  1  0
 41 74  1  0
M  CHG  2  19   1  44  -1
M  END
>  <UniqueID>  (6) 
6

>  <SMILES>  (6) 
O=c1ccn(Cc2ccc(Oc3ccc(S(=O)(=O)[N@@H+]4CCc5cc(S(=O)(=O)N6CCOCC6)ccc5C4)cc3)cc2)c(=O)[n-]1

>  <Energy>  (6) 
106.81132160571671

>  <Genealogy>  (6) 
O=c1ccn(Cc2ccc(Oc3ccc(S(=O)(=O)[NH+]4CCc5cc(S(=O)(=O)N6CCOCC6)ccc5C4)cc3)cc2)c(=O)[n-]1 (protonated)
O=c1ccn(Cc2ccc(Oc3ccc(S(=O)(=O)[N@@H+]4CCc5cc(S(=O)(=O)N6CCOCC6)ccc5C4)cc3)cc2)c(=O)[n-]1 (chirality)
O=c1ccn(Cc2ccc(Oc3ccc(S(=O)(=O)[N@@H+]4CCc5cc(S(=O)(=O)N6CCOCC6)ccc5C4)cc3)cc2)c(=O)[n-]1 (3D coordinates assigned)
O=c1ccn(Cc2ccc(Oc3ccc(S(=O)(=O)[N@@H+]4CCc5cc(S(=O)(=O)N6CCOCC6)ccc5C4)cc3)cc2)c(=O)[n-]1 (nonaromatic ring conformer: 106.81132160571671 kcal/mol)

>  <smiles>  (6) 
O=c1ccn(Cc2ccc(Oc3ccc(S(=O)(=O)N4CCc5cc(S(=O)(=O)N6CCOCC6)ccc5C4)cc3)cc2)c(=O)[nH]1

>  <score_type>  (6) 
oracle

>  <origin>  (6) 
adgpu

>  <m_score__min__energy>  (6) 
-11.48

>  <m_primary>  (6) 
energy

$$$$
6:0
     RDKit          3D

 60 63  0  0  0  0  0  0  0  0999 V2000
   -5.6290   25.5220  -29.6080 O   0  0  0  0  0  0  0  0  0  0  0  0
   -4.8740   24.7170  -30.2140 C   0  0  0  0  0  0  0  0  0  0  0  0
   -3.4680   24.9770  -30.2700 N   0  0  0  0  0  0  0  0  0  0  0  0
   -2.5310   24.3720  -29.3710 C   0  0  0  0  0  0  0  0  0  0  0  0
   -2.7290   23.0590  -28.9180 C   0  0  0  0  0  0  0  0  0  0  0  0
   -1.8550   22.4900  -27.9800 C   0  0  0  0  0  0  0  0  0  0  0  0
   -2.1880   20.8890  -27.3150 S   0  0  0  0  0  0  0  0  0  0  0  0
   -1.5340   20.7820  -25.9650 O   0  0  0  0  0  0  0  0  0  0  0  0
   -3.6700   20.7390  -27.1140 O   0  0  0  0  0  0  0  0  0  0  0  0
   -1.6200   19.5880  -28.3410 N   0  0  0  0  0  0  0  0  0  0  0  0
   -0.8880   18.5430  -27.5930 C   0  0  0  0  0  0  0  0  0  0  0  0
    0.6290   18.6120  -27.8090 C   0  0  0  0  0  0  0  0  0  0  0  0
    1.0310   19.9490  -27.9810 O   0  0  0  0  0  0  0  0  0  0  0  0
    0.5790   20.4300  -29.2310 C   0  0  0  0  0  0  0  0  0  0  0  0
   -0.9000   20.0860  -29.5260 C   0  0  0  0  0  0  0  0  0  0  0  0
   -0.7570   23.2320  -27.5240 C   0  0  0  0  0  0  0  0  0  0  0  0
   -0.5480   24.5360  -27.9840 C   0  0  0  0  0  0  0  0  0  0  0  0
   -1.4420   25.1130  -28.8920 C   0  0  0  0  0  0  0  0  0  0  0  0
   -1.2370   26.4190  -29.3230 O   0  0  0  0  0  0  0  0  0  0  0  0
   -5.4510   23.5800  -30.9600 C   0  0  0  0  0  0  0  0  0  0  0  0
   -4.5860   22.5580  -31.3810 C   0  0  0  0  0  0  0  0  0  0  0  0
   -5.0630   21.4710  -32.1180 C   0  0  0  0  0  0  0  0  0  0  0  0
   -3.9390   20.2260  -32.6700 S   0  0  0  0  0  0  0  0  0  0  0  0
   -2.8880   20.0160  -31.6150 O   0  0  0  0  0  0  0  0  0  0  0  0
   -3.2500   20.6970  -33.9200 O   0  0  0  0  0  0  0  0  0  0  0  0
   -4.7460   18.7080  -32.9800 N   0  0  0  0  0  0  0  0  0  0  0  0
   -5.4360   18.7580  -34.2800 C   0  0  0  0  0  0  0  0  0  0  0  0
   -6.1190   17.4110  -34.6090 C   0  0  0  0  0  0  0  0  0  0  0  0
   -6.0250   16.4030  -33.4550 C   0  0  0  0  0  0  0  0  0  0  0  0
   -6.4010   17.0500  -32.1160 C   0  0  0  0  0  0  0  0  0  0  0  0
   -5.7030   18.4100  -31.8990 C   0  0  0  0  0  0  0  0  0  0  0  0
   -6.4250   21.3950  -32.4320 C   0  0  0  0  0  0  0  0  0  0  0  0
   -7.2980   22.4050  -32.0170 C   0  0  0  0  0  0  0  0  0  0  0  0
   -6.8260   23.4960  -31.2760 C   0  0  0  0  0  0  0  0  0  0  0  0
   -7.7450   24.4550  -30.8480 O   0  0  0  0  0  0  0  0  0  0  0  0
   -3.5761   22.4713  -29.3014 H   0  0  0  0  0  0  0  0  0  0  0  0
   -1.0965   18.6671  -26.5201 H   0  0  0  0  0  0  0  0  0  0  0  0
   -1.2320   17.5664  -27.9645 H   0  0  0  0  0  0  0  0  0  0  0  0
    1.1412   18.1876  -26.9329 H   0  0  0  0  0  0  0  0  0  0  0  0
    0.8916   18.0377  -28.7097 H   0  0  0  0  0  0  0  0  0  0  0  0
    0.6914   21.5242  -29.2444 H   0  0  0  0  0  0  0  0  0  0  0  0
    1.1863   19.9389  -30.0056 H   0  0  0  0  0  0  0  0  0  0  0  0
   -1.4058   20.9931  -29.8885 H   0  0  0  0  0  0  0  0  0  0  0  0
   -0.9086   19.2840  -30.2788 H   0  0  0  0  0  0  0  0  0  0  0  0
   -0.0570   22.7870  -26.8016 H   0  0  0  0  0  0  0  0  0  0  0  0
    0.3217   25.1095  -27.6308 H   0  0  0  0  0  0  0  0  0  0  0  0
   -3.5172   22.6136  -31.1271 H   0  0  0  0  0  0  0  0  0  0  0  0
   -6.2003   19.5485  -34.2492 H   0  0  0  0  0  0  0  0  0  0  0  0
   -4.6892   18.9668  -35.0602 H   0  0  0  0  0  0  0  0  0  0  0  0
   -7.1807   17.5986  -34.8271 H   0  0  0  0  0  0  0  0  0  0  0  0
   -5.5973   16.9759  -35.4742 H   0  0  0  0  0  0  0  0  0  0  0  0
   -6.7110   15.5664  -33.6536 H   0  0  0  0  0  0  0  0  0  0  0  0
   -4.9860   16.0479  -33.3887 H   0  0  0  0  0  0  0  0  0  0  0  0
   -7.4898   17.2047  -32.0926 H   0  0  0  0  0  0  0  0  0  0  0  0
   -6.0709   16.3735  -31.3139 H   0  0  0  0  0  0  0  0  0  0  0  0
   -6.4659   19.2019  -31.8694 H   0  0  0  0  0  0  0  0  0  0  0  0
   -5.1472   18.3638  -30.9508 H   0  0  0  0  0  0  0  0  0  0  0  0
   -6.8091   20.5391  -33.0063 H   0  0  0  0  0  0  0  0  0  0  0  0
   -8.3655   22.3424  -32.2748 H   0  0  0  0  0  0  0  0  0  0  0  0
   -7.5170   25.1750  -30.1750 H   0  0  0  0  0  0  0  0  0  0  0  0
  1  2  2  0
  2  3  1  0
  3  4  1  0
  4  5  2  0
  5  6  1  0
  6  7  1  0
  7  8  2  0
  7  9  2  0
  7 10  1  0
 10 11  1  0
 11 12  1  0
 12 13  1  0
 13 14  1  0
 14 15  1  0
  6 16  2  0
 16 17  1  0
 17 18  2  0
 18 19  1  0
  2 20  1  0
 20 21  2  0
 21 22  1  0
 22 23  1  0
 23 24  2  0
 23 25  2  0
 23 26  1  0
 26 27  1  0
 27 28  1  0
 28 29  1  0
 29 30  1  0
 30 31  1  0
 22 32  2  0
 32 33  1  0
 33 34  2  0
 34 35  1  0
 18  4  1  0
 34 20  1  0
 15 10  1  0
 31 26  1  0
  5 36  1  0
 11 37  1  0
 11 38  1  0
 12 39  1  0
 12 40  1  0
 14 41  1  0
 14 42  1  0
 15 43  1  0
 15 44  1  0
 16 45  1  0
 17 46  1  0
 21 47  1  0
 27 48  1  0
 27 49  1  0
 28 50  1  0
 28 51  1  0
 29 52  1  0
 29 53  1  0
 30 54  1  0
 30 55  1  0
 31 56  1  0
 31 57  1  0
 32 58  1  0
 33 59  1  0
 35 60  1  0
M  CHG  2   3  -1  19  -1
M  END
>  <UniqueID>  (7) 
7

>  <SMILES>  (7) 
O=C([N-]c1cc(S(=O)(=O)N2CCOCC2)ccc1[O-])c1cc(S(=O)(=O)N2CCCCC2)ccc1O

>  <Energy>  (7) 
78.99560895192803

>  <Genealogy>  (7) 
O=C([N-]c1cc(S(=O)(=O)N2CCOCC2)ccc1[O-])c1cc(S(=O)(=O)N2CCCCC2)ccc1O (protonated)
O=C([N-]c1cc(S(=O)(=O)N2CCOCC2)ccc1[O-])c1cc(S(=O)(=O)N2CCCCC2)ccc1O (3D coordinates assigned)
O=C([N-]c1cc(S(=O)(=O)N2CCOCC2)ccc1[O-])c1cc(S(=O)(=O)N2CCCCC2)ccc1O (nonaromatic ring conformer: 78.99560895192803 kcal/mol)

>  <smiles>  (7) 
O=C(Nc1cc(S(=O)(=O)N2CCOCC2)ccc1O)c1cc(S(=O)(=O)N2CCCCC2)ccc1O

>  <score_type>  (7) 
oracle

>  <origin>  (7) 
adgpu

>  <m_score__min__energy>  (7) 
-14.140000000000001

>  <m_primary>  (7) 
energy

$$$$
7:0
     RDKit          3D

 43 45  0  0  0  0  0  0  0  0999 V2000
   -3.0760   21.7100  -32.2780 C   0  0  0  0  0  0  0  0  0  0  0  0
   -4.5530   21.9290  -32.3590 C   0  0  0  0  0  0  0  0  0  0  0  0
   -5.3680   21.1860  -33.1330 N   0  0  0  0  0  0  0  0  0  0  0  0
   -6.5750   21.6400  -32.9670 O   0  0  0  0  0  0  0  0  0  0  0  0
   -6.5940   22.6460  -32.1230 C   0  0  0  0  0  0  0  0  0  0  0  0
   -7.8360   23.3770  -31.7300 C   0  0  0  0  0  0  0  0  0  0  0  0
   -5.3000   22.8870  -31.6900 C   0  0  0  0  0  0  0  0  0  0  0  0
   -4.8370   23.9160  -30.7350 C   0  0  0  0  0  0  0  0  0  0  0  0
   -4.5760   25.0800  -31.1410 O   0  0  0  0  0  0  0  0  0  0  0  0
   -4.6590   23.5880  -29.3530 N   0  0  0  0  0  0  0  0  0  0  0  0
   -3.4170   23.1650  -28.7770 C   0  0  0  0  0  0  0  0  0  0  0  0
   -3.3680   21.9190  -28.1400 C   0  0  0  0  0  0  0  0  0  0  0  0
   -2.1660   21.4420  -27.5990 C   0  0  0  0  0  0  0  0  0  0  0  0
   -2.0940   19.8630  -26.8220 S   0  0  0  0  0  0  0  0  0  0  0  0
   -1.3150   19.9870  -25.5420 O   0  0  0  0  0  0  0  0  0  0  0  0
   -3.4850   19.3820  -26.5070 O   0  0  0  0  0  0  0  0  0  0  0  0
   -1.2970   18.7290  -27.8840 N   0  0  0  0  0  0  0  0  0  0  0  0
   -0.3980   19.4120  -28.8120 C   0  0  0  0  0  0  0  0  0  0  0  0
    0.6880   18.4130  -29.1770 C   0  0  0  0  0  0  0  0  0  0  0  0
    0.6630   17.3680  -28.0730 C   0  0  0  0  0  0  0  0  0  0  0  0
   -0.4520   17.8000  -27.1330 C   0  0  0  0  0  0  0  0  0  0  0  0
   -1.0110   22.2280  -27.6800 C   0  0  0  0  0  0  0  0  0  0  0  0
   -1.0590   23.4860  -28.2850 C   0  0  0  0  0  0  0  0  0  0  0  0
   -2.2590   23.9740  -28.8150 C   0  0  0  0  0  0  0  0  0  0  0  0
   -2.2750   25.2690  -29.3360 O   0  0  0  0  0  0  0  0  0  0  0  0
   -2.7694   21.6645  -31.2226 H   0  0  0  0  0  0  0  0  0  0  0  0
   -2.8178   20.7637  -32.7759 H   0  0  0  0  0  0  0  0  0  0  0  0
   -2.5543   22.5406  -32.7759 H   0  0  0  0  0  0  0  0  0  0  0  0
   -7.9057   23.4180  -30.6330 H   0  0  0  0  0  0  0  0  0  0  0  0
   -7.8029   24.3997  -32.1338 H   0  0  0  0  0  0  0  0  0  0  0  0
   -8.7140   22.8516  -32.1338 H   0  0  0  0  0  0  0  0  0  0  0  0
   -4.2804   21.3094  -28.0635 H   0  0  0  0  0  0  0  0  0  0  0  0
   -0.9469   19.7225  -29.7133 H   0  0  0  0  0  0  0  0  0  0  0  0
    0.0312   20.3164  -28.3562 H   0  0  0  0  0  0  0  0  0  0  0  0
    0.4727   17.9492  -30.1509 H   0  0  0  0  0  0  0  0  0  0  0  0
    1.6737   18.8936  -29.2631 H   0  0  0  0  0  0  0  0  0  0  0  0
    0.4507   16.3725  -28.4901 H   0  0  0  0  0  0  0  0  0  0  0  0
    1.6306   17.2974  -27.5546 H   0  0  0  0  0  0  0  0  0  0  0  0
   -1.0392   16.9262  -26.8141 H   0  0  0  0  0  0  0  0  0  0  0  0
   -0.0455   18.2766  -26.2288 H   0  0  0  0  0  0  0  0  0  0  0  0
   -0.0629   21.8541  -27.2661 H   0  0  0  0  0  0  0  0  0  0  0  0
   -0.1468   24.0978  -28.3454 H   0  0  0  0  0  0  0  0  0  0  0  0
   -3.0990   25.6810  -29.7540 H   0  0  0  0  0  0  0  0  0  0  0  0
  1  2  1  0
  2  3  2  0
  3  4  1  0
  4  5  1  0
  5  6  1  0
  5  7  2  0
  7  8  1  0
  8  9  2  0
  8 10  1  0
 10 11  1  0
 11 12  2  0
 12 13  1  0
 13 14  1  0
 14 15  2  0
 14 16  2  0
 14 17  1  0
 17 18  1  0
 18 19  1  0
 19 20  1  0
 20 21  1  0
 13 22  2  0
 22 23  1  0
 23 24  2  0
 24 25  1  0
  7  2  1  0
 24 11  1  0
 21 17  1  0
  1 26  1  0
  1 27  1  0
  1 28  1  0
  6 29  1  0
  6 30  1  0
  6 31  1  0
 12 32  1  0
 18 33  1  0
 18 34  1  0
 19 35  1  0
 19 36  1  0
 20 37  1  0
 20 38  1  0
 21 39  1  0
 21 40  1  0
 22 41  1  0
 23 42  1  0
 25 43  1  0
M  CHG  1  10  -1
M  END
>  <UniqueID>  (8) 
8

>  <SMILES>  (8) 
Cc1noc(C)c1C(=O)[N-]c1cc(S(=O)(=O)N2CCCC2)ccc1O

>  <Energy>  (8) 
80.44512303882904

>  <Genealogy>  (8) 
Cc1noc(C)c1C(=O)[N-]c1cc(S(=O)(=O)N2CCCC2)ccc1O (protonated)
Cc1noc(C)c1C(=O)[N-]c1cc(S(=O)(=O)N2CCCC2)ccc1O (3D coordinates assigned)
Cc1noc(C)c1C(=O)[N-]c1cc(S(=O)(=O)N2CCCC2)ccc1O (nonaromatic ring conformer: 80.44512303882904 kcal/mol)

>  <smiles>  (8) 
Cc1noc(C)c1C(=O)Nc1cc(S(=O)(=O)N2CCCC2)ccc1O

>  <score_type>  (8) 
oracle

>  <origin>  (8) 
adgpu

>  <m_score__min__energy>  (8) 
-10.539999999999999

>  <m_primary>  (8) 
energy

$$$$
8:0
     RDKit          3D

 65 70  0  0  0  0  0  0  0  0999 V2000
   -1.9300   23.9420  -29.6860 O   0  0  0  0  0  0  0  0  0  0  0  0
   -2.3170   23.9640  -28.4870 C   0  0  0  0  0  0  0  0  0  0  0  0
   -1.2950   24.0900  -27.3910 C   0  0  0  0  0  0  0  0  0  0  0  0
   -1.0760   22.8020  -26.7000 N   0  0  0  0  0  0  0  0  0  0  0  0
   -2.1090   21.7970  -27.0670 C   0  0  0  0  0  0  0  0  0  0  0  0
   -1.6660   20.3750  -26.7090 C   0  0  0  0  0  0  0  0  0  0  0  0
   -0.4070   19.9730  -27.5000 C   0  0  0  0  0  0  0  0  0  0  0  0
   -0.7760   19.2730  -28.6380 F   0  0  0  0  0  0  0  0  0  0  0  0
    0.4440   21.1910  -27.9080 C   0  0  0  0  0  0  0  0  0  0  0  0
    0.3230   22.3250  -26.8780 C   0  0  0  0  0  0  0  0  0  0  0  0
   -3.7180   23.9320  -28.1650 N   0  0  0  0  0  0  0  0  0  0  0  0
   -4.7750   23.8380  -29.1370 C   0  0  0  0  0  0  0  0  0  0  0  0
   -5.0040   22.6130  -29.7800 C   0  0  0  0  0  0  0  0  0  0  0  0
   -6.0210   22.4910  -30.7310 C   0  0  0  0  0  0  0  0  0  0  0  0
   -6.8110   23.5950  -31.0620 C   0  0  0  0  0  0  0  0  0  0  0  0
   -8.1250   23.4260  -32.2690 S   0  0  0  0  0  0  0  0  0  0  0  0
   -8.1440   21.6420  -32.1390 C   0  0  0  0  0  0  0  0  0  0  0  0
   -9.1170   20.9900  -31.3530 C   0  0  0  0  0  0  0  0  0  0  0  0
   -9.1160   19.5900  -31.2610 C   0  0  0  0  0  0  0  0  0  0  0  0
   -8.1350   18.9060  -31.9710 C   0  0  0  0  0  0  0  0  0  0  0  0
   -7.9740   17.5670  -32.0380 N   0  0  0  0  0  0  0  0  0  0  0  0
   -6.9090   17.4200  -32.8690 C   0  0  0  0  0  0  0  0  0  0  0  0
   -6.4460   18.6640  -33.2740 C   0  0  0  0  0  0  0  0  0  0  0  0
   -5.3600   18.9460  -34.2660 C   0  0  0  0  0  0  0  0  0  0  0  0
   -4.2570   19.7270  -33.6070 C   0  0  0  0  0  0  0  0  0  0  0  0
   -4.4190   21.1020  -33.3610 C   0  0  0  0  0  0  0  0  0  0  0  0
   -3.4310   21.8220  -32.6820 C   0  0  0  0  0  0  0  0  0  0  0  0
   -2.2730   21.1760  -32.2390 C   0  0  0  0  0  0  0  0  0  0  0  0
   -1.3200   21.8700  -31.5600 N   0  0  0  0  0  0  0  0  0  0  0  0
   -0.1890   21.2690  -31.1010 C   0  0  0  0  0  0  0  0  0  0  0  0
    0.0220   19.9060  -31.3240 C   0  0  0  0  0  0  0  0  0  0  0  0
   -0.9370   19.1660  -32.0190 C   0  0  0  0  0  0  0  0  0  0  0  0
   -2.1010   19.7940  -32.4820 C   0  0  0  0  0  0  0  0  0  0  0  0
   -3.0940   19.0770  -33.1630 C   0  0  0  0  0  0  0  0  0  0  0  0
   -7.2380   19.5780  -32.7000 N   0  0  0  0  0  0  0  0  0  0  0  0
   -7.2120   20.9050  -32.8110 N   0  0  0  0  0  0  0  0  0  0  0  0
   -6.5730   24.8300  -30.4460 C   0  0  0  0  0  0  0  0  0  0  0  0
   -5.5550   24.9550  -29.4950 C   0  0  0  0  0  0  0  0  0  0  0  0
   -0.3433   24.4272  -27.8275 H   0  0  0  0  0  0  0  0  0  0  0  0
   -1.6687   24.8163  -26.6542 H   0  0  0  0  0  0  0  0  0  0  0  0
   -3.0390   22.0276  -26.5267 H   0  0  0  0  0  0  0  0  0  0  0  0
   -2.2639   21.8450  -28.1550 H   0  0  0  0  0  0  0  0  0  0  0  0
   -1.4448   20.3275  -25.6325 H   0  0  0  0  0  0  0  0  0  0  0  0
   -2.4785   19.6797  -26.9667 H   0  0  0  0  0  0  0  0  0  0  0  0
    0.2062   19.3423  -26.8395 H   0  0  0  0  0  0  0  0  0  0  0  0
    1.4977   20.8839  -27.9811 H   0  0  0  0  0  0  0  0  0  0  0  0
    0.0791   21.5612  -28.8774 H   0  0  0  0  0  0  0  0  0  0  0  0
    0.6948   21.9599  -25.9093 H   0  0  0  0  0  0  0  0  0  0  0  0
    0.9150   23.1735  -27.2516 H   0  0  0  0  0  0  0  0  0  0  0  0
   -3.9870   24.1220  -27.1740 H   0  0  0  0  0  0  0  0  0  0  0  0
   -4.3788   21.7419  -29.5342 H   0  0  0  0  0  0  0  0  0  0  0  0
   -6.2001   21.5224  -31.2206 H   0  0  0  0  0  0  0  0  0  0  0  0
   -9.8745   21.5776  -30.8136 H   0  0  0  0  0  0  0  0  0  0  0  0
   -9.8603   19.0555  -30.6525 H   0  0  0  0  0  0  0  0  0  0  0  0
   -6.4770   16.4560  -33.1758 H   0  0  0  0  0  0  0  0  0  0  0  0
   -4.9574   17.9956  -34.6464 H   0  0  0  0  0  0  0  0  0  0  0  0
   -5.7732   19.5339  -35.0988 H   0  0  0  0  0  0  0  0  0  0  0  0
   -5.3293   21.6148  -33.7051 H   0  0  0  0  0  0  0  0  0  0  0  0
   -3.5651   22.8979  -32.4962 H   0  0  0  0  0  0  0  0  0  0  0  0
    0.5613   21.8578  -30.5529 H   0  0  0  0  0  0  0  0  0  0  0  0
    0.9368   19.4193  -30.9548 H   0  0  0  0  0  0  0  0  0  0  0  0
   -0.7791   18.0930  -32.2025 H   0  0  0  0  0  0  0  0  0  0  0  0
   -2.9620   18.0012  -33.3504 H   0  0  0  0  0  0  0  0  0  0  0  0
   -7.1876   25.7031  -30.7105 H   0  0  0  0  0  0  0  0  0  0  0  0
   -5.3625   25.9304  -29.0243 H   0  0  0  0  0  0  0  0  0  0  0  0
  1  2  2  0
  2  3  1  0
  3  4  1  0
  4  5  1  0
  5  6  1  0
  6  7  1  0
  7  8  1  0
  7  9  1  0
  9 10  1  0
  2 11  1  0
 11 12  1  0
 12 13  2  0
 13 14  1  0
 14 15  2  0
 15 16  1  0
 16 17  1  0
 17 18  1  0
 18 19  2  0
 19 20  1  0
 20 21  2  0
 21 22  1  0
 22 23  2  0
 23 24  1  0
 24 25  1  0
 25 26  2  0
 26 27  1  0
 27 28  2  0
 28 29  1  0
 29 30  2  0
 30 31  1  0
 31 32  2  0
 32 33  1  0
 33 34  2  0
 23 35  1  0
 35 36  1  0
 15 37  1  0
 37 38  2  0
 10  4  1  0
 38 12  1  0
 36 17  2  0
 35 20  1  0
 34 25  1  0
 33 28  1  0
  3 39  1  0
  3 40  1  0
  5 41  1  0
  5 42  1  0
  6 43  1  0
  6 44  1  0
  7 45  1  0
  9 46  1  0
  9 47  1  0
 10 48  1  0
 10 49  1  0
 11 50  1  0
 13 51  1  0
 14 52  1  0
 18 53  1  0
 19 54  1  0
 22 55  1  0
 24 56  1  0
 24 57  1  0
 26 58  1  0
 27 59  1  0
 30 60  1  0
 31 61  1  0
 32 62  1  0
 34 63  1  0
 37 64  1  0
 38 65  1  0
M  END
>  <UniqueID>  (9) 
9

>  <SMILES>  (9) 
O=C(CN1CCC(F)CC1)Nc1ccc(Sc2ccc3ncc(Cc4ccc5ncccc5c4)n3n2)cc1

>  <Energy>  (9) 
115.97982660347472

>  <Genealogy>  (9) 
O=C(CN1CCC(F)CC1)Nc1ccc(Sc2ccc3ncc(Cc4ccc5ncccc5c4)n3n2)cc1 (3D coordinates assigned)
O=C(CN1CCC(F)CC1)Nc1ccc(Sc2ccc3ncc(Cc4ccc5ncccc5c4)n3n2)cc1 (nonaromatic ring conformer: 115.97982660347472 kcal/mol)

>  <smiles>  (9) 
O=C(CN1CCC(F)CC1)Nc1ccc(Sc2ccc3ncc(Cc4ccc5ncccc5c4)n3n2)cc1

>  <score_type>  (9) 
oracle

>  <origin>  (9) 
adgpu

>  <m_score__min__energy>  (9) 
-10.75

>  <m_primary>  (9) 
energy

$$$$
9:0
     RDKit          3D

 56 59  0  0  0  0  0  0  0  0999 V2000
   -2.3890   19.8330  -26.9950 C   0  0  0  0  0  0  0  0  0  0  0  0
   -2.6080   20.9860  -27.8000 O   0  0  0  0  0  0  0  0  0  0  0  0
   -2.1230   21.1510  -29.1050 C   0  0  0  0  0  0  0  0  0  0  0  0
   -1.9200   20.0550  -29.9580 C   0  0  0  0  0  0  0  0  0  0  0  0
   -1.4680   20.2490  -31.2730 C   0  0  0  0  0  0  0  0  0  0  0  0
   -1.3340   19.1590  -32.1970 N   0  0  0  0  0  0  0  0  0  0  0  0
   -1.9810   19.1290  -33.8070 S   0  0  0  0  0  0  0  0  0  0  0  0
   -1.1180   18.2290  -34.6430 O   0  0  0  0  0  0  0  0  0  0  0  0
   -1.9330   20.5080  -34.3980 O   0  0  0  0  0  0  0  0  0  0  0  0
   -3.6570   18.5450  -33.8120 C   0  0  0  0  0  0  0  0  0  0  0  0
   -3.9030   17.1880  -34.1240 C   0  0  0  0  0  0  0  0  0  0  0  0
   -5.1970   16.6410  -34.0230 C   0  0  0  0  0  0  0  0  0  0  0  0
   -6.2750   17.4360  -33.6130 C   0  0  0  0  0  0  0  0  0  0  0  0
   -6.0260   18.7770  -33.3300 C   0  0  0  0  0  0  0  0  0  0  0  0
   -4.7670   19.3310  -33.4290 C   0  0  0  0  0  0  0  0  0  0  0  0
   -4.9620   20.6690  -33.0780 C   0  0  0  0  0  0  0  0  0  0  0  0
   -3.9700   21.7860  -33.0510 C   0  0  0  0  0  0  0  0  0  0  0  0
   -6.2680   20.8660  -32.7810 N   0  0  0  0  0  0  0  0  0  0  0  0
   -6.9080   19.7140  -32.9370 N   0  0  0  0  0  0  0  0  0  0  0  0
   -8.3370   19.5370  -32.7040 C   0  0  0  0  0  0  0  0  0  0  0  0
   -1.1380   21.5380  -31.7000 C   0  0  0  0  0  0  0  0  0  0  0  0
   -1.3020   22.6290  -30.8460 C   0  0  0  0  0  0  0  0  0  0  0  0
   -1.8300   22.4450  -29.5690 C   0  0  0  0  0  0  0  0  0  0  0  0
   -2.1000   23.5930  -28.7590 N   0  0  0  0  0  0  0  0  0  0  0  0
   -2.2370   24.9070  -29.3090 C   0  0  0  0  0  0  0  0  0  0  0  0
   -1.2730   25.7110  -29.2340 O   0  0  0  0  0  0  0  0  0  0  0  0
   -3.4730   25.2990  -29.9220 N   0  0  0  0  0  0  0  0  0  0  0  0
   -4.6370   24.4870  -30.1250 C   0  0  0  0  0  0  0  0  0  0  0  0
   -4.9820   23.5580  -29.1320 C   0  0  0  0  0  0  0  0  0  0  0  0
   -6.0790   22.7080  -29.3120 C   0  0  0  0  0  0  0  0  0  0  0  0
   -6.8290   22.7700  -30.4910 C   0  0  0  0  0  0  0  0  0  0  0  0
   -6.4780   23.6750  -31.5070 C   0  0  0  0  0  0  0  0  0  0  0  0
   -7.2990   23.7600  -32.7580 C   0  0  0  0  0  0  0  0  0  0  0  0
   -5.3850   24.5370  -31.3190 C   0  0  0  0  0  0  0  0  0  0  0  0
   -2.4420   20.1123  -25.9324 H   0  0  0  0  0  0  0  0  0  0  0  0
   -3.1602   19.0802  -27.2152 H   0  0  0  0  0  0  0  0  0  0  0  0
   -1.3955   19.4154  -27.2152 H   0  0  0  0  0  0  0  0  0  0  0  0
   -2.1166   19.0360  -29.5933 H   0  0  0  0  0  0  0  0  0  0  0  0
   -3.0697   16.5487  -34.4511 H   0  0  0  0  0  0  0  0  0  0  0  0
   -5.3623   15.5814  -34.2679 H   0  0  0  0  0  0  0  0  0  0  0  0
   -7.2865   17.0145  -33.5175 H   0  0  0  0  0  0  0  0  0  0  0  0
   -3.7390   22.0461  -32.0075 H   0  0  0  0  0  0  0  0  0  0  0  0
   -3.0488   21.4707  -33.5628 H   0  0  0  0  0  0  0  0  0  0  0  0
   -4.3919   22.6635  -33.5628 H   0  0  0  0  0  0  0  0  0  0  0  0
   -8.5318   19.5129  -31.6217 H   0  0  0  0  0  0  0  0  0  0  0  0
   -8.8888   20.3737  -33.1573 H   0  0  0  0  0  0  0  0  0  0  0  0
   -8.6680   18.5910  -33.1573 H   0  0  0  0  0  0  0  0  0  0  0  0
   -0.7464   21.6935  -32.7161 H   0  0  0  0  0  0  0  0  0  0  0  0
   -1.0141   23.6364  -31.1810 H   0  0  0  0  0  0  0  0  0  0  0  0
   -4.3879   23.4975  -28.2082 H   0  0  0  0  0  0  0  0  0  0  0  0
   -6.3520   21.9898  -28.5248 H   0  0  0  0  0  0  0  0  0  0  0  0
   -7.6972   22.1076  -30.6234 H   0  0  0  0  0  0  0  0  0  0  0  0
   -8.3609   23.8699  -32.4929 H   0  0  0  0  0  0  0  0  0  0  0  0
   -6.9768   24.6296  -33.3496 H   0  0  0  0  0  0  0  0  0  0  0  0
   -7.1618   22.8429  -33.3496 H   0  0  0  0  0  0  0  0  0  0  0  0
   -5.1115   25.2542  -32.1069 H   0  0  0  0  0  0  0  0  0  0  0  0
  1  2  1  0
  2  3  1  0
  3  4  2  0
  4  5  1  0
  5  6  1  0
  6  7  1  0
  7  8  2  0
  7  9  2  0
  7 10  1  0
 10 11  2  0
 11 12  1  0
 12 13  2  0
 13 14  1  0
 14 15  2  0
 15 16  1  0
 16 17  1  0
 16 18  2  0
 18 19  1  0
 19 20  1  0
  5 21  2  0
 21 22  1  0
 22 23  2  0
 23 24  1  0
 24 25  1  0
 25 26  2  0
 25 27  1  0
 27 28  1  0
 28 29  2  0
 29 30  1  0
 30 31  2  0
 31 32  1  0
 32 33  1  0
 32 34  2  0
 23  3  1  0
 34 28  1  0
 15 10  1  0
 19 14  1  0
  1 35  1  0
  1 36  1  0
  1 37  1  0
  4 38  1  0
 11 39  1  0
 12 40  1  0
 13 41  1  0
 17 42  1  0
 17 43  1  0
 17 44  1  0
 20 45  1  0
 20 46  1  0
 20 47  1  0
 21 48  1  0
 22 49  1  0
 29 50  1  0
 30 51  1  0
 31 52  1  0
 33 53  1  0
 33 54  1  0
 33 55  1  0
 34 56  1  0
M  CHG  3   6  -1  24  -1  27  -1
M  END
>  <UniqueID>  (10) 
10

>  <SMILES>  (10) 
COc1cc([N-]S(=O)(=O)c2cccc3c2c(C)nn3C)ccc1[N-]C(=O)[N-]c1cccc(C)c1

>  <Energy>  (10) 
108.93382972226499

>  <Genealogy>  (10) 
COc1cc([N-]S(=O)(=O)c2cccc3c2c(C)nn3C)ccc1[N-]C(=O)[N-]c1cccc(C)c1 (protonated)
COc1cc([N-]S(=O)(=O)c2cccc3c2c(C)nn3C)ccc1[N-]C(=O)[N-]c1cccc(C)c1 (3D coordinates assigned)
COc1cc([N-]S(=O)(=O)c2cccc3c2c(C)nn3C)ccc1[N-]C(=O)[N-]c1cccc(C)c1 (optimized conformer: 108.93382972226499 kcal/mol)

>  <smiles>  (10) 
COc1cc(NS(=O)(=O)c2cccc3c2c(C)nn3C)ccc1NC(=O)Nc1cccc(C)c1

>  <score_type>  (10) 
oracle

>  <origin>  (10) 
adgpu

>  <m_score__min__energy>  (10) 
-13.050000000000001

>  <m_primary>  (10) 
energy

$$$$
10:0
     RDKit          3D

 53 56  0  0  0  0  0  0  0  0999 V2000
   -1.4963   20.7724  -30.0137 H   0  0  0  0  0  0  0  0  0  0  0  0
   -2.1390   21.6290  -30.2650 C   0  0  0  0  0  0  0  0  0  0  0  0
   -2.0730   22.7650  -29.5160 N   0  0  0  0  0  0  0  0  0  0  0  0
   -2.8550   23.8450  -29.7790 C   0  0  0  0  0  0  0  0  0  0  0  0
   -2.7850   24.9190  -29.0450 N   0  0  0  0  0  0  0  0  0  0  0  0
   -1.9060   25.2070  -27.9480 C   0  0  0  0  0  0  0  0  0  0  0  0
   -0.5300   25.0980  -28.1800 C   0  0  0  0  0  0  0  0  0  0  0  0
   -0.1577   24.9956  -29.2100 H   0  0  0  0  0  0  0  0  0  0  0  0
    0.3750   25.1180  -27.1160 C   0  0  0  0  0  0  0  0  0  0  0  0
    1.4575   25.1037  -27.3111 H   0  0  0  0  0  0  0  0  0  0  0  0
   -0.0980   25.1560  -25.8110 C   0  0  0  0  0  0  0  0  0  0  0  0
    0.8050   24.7880  -24.7030 C   0  0  0  0  0  0  0  0  0  0  0  0
    1.0920   23.5630  -24.5620 O   0  0  0  0  0  0  0  0  0  0  0  0
    1.3600   25.8020  -23.8060 N   0  0  0  0  0  0  0  0  0  0  0  0
    1.7640   25.3040  -22.9660 H   0  0  0  0  0  0  0  0  0  0  0  0
    2.4420   26.5280  -24.5210 C   0  0  0  0  0  0  0  0  0  0  0  0
    3.3724   25.9448  -24.4553 H   0  0  0  0  0  0  0  0  0  0  0  0
    2.1453   26.6575  -25.5723 H   0  0  0  0  0  0  0  0  0  0  0  0
    2.6710   27.9140  -23.8990 C   0  0  0  0  0  0  0  0  0  0  0  0
    2.8308   27.8044  -22.8162 H   0  0  0  0  0  0  0  0  0  0  0  0
    3.5549   28.3747  -24.3643 H   0  0  0  0  0  0  0  0  0  0  0  0
    1.4910   28.7830  -24.1350 N   0  0  0  0  0  0  0  0  0  0  0  0
    1.6220   29.5140  -25.4020 C   0  0  0  0  0  0  0  0  0  0  0  0
    1.8125   30.5772  -25.1939 H   0  0  0  0  0  0  0  0  0  0  0  0
    2.4599   29.0977  -25.9806 H   0  0  0  0  0  0  0  0  0  0  0  0
    0.6917   29.4146  -25.9806 H   0  0  0  0  0  0  0  0  0  0  0  0
    0.2020   28.0580  -24.0910 C   0  0  0  0  0  0  0  0  0  0  0  0
   -0.5418   28.6967  -23.5921 H   0  0  0  0  0  0  0  0  0  0  0  0
   -0.0807   27.8293  -25.1292 H   0  0  0  0  0  0  0  0  0  0  0  0
    0.2860   26.7140  -23.3300 C   0  0  0  0  0  0  0  0  0  0  0  0
    0.4663   26.9318  -22.2669 H   0  0  0  0  0  0  0  0  0  0  0  0
   -0.6671   26.1942  -23.5069 H   0  0  0  0  0  0  0  0  0  0  0  0
   -1.4670   25.3260  -25.5610 C   0  0  0  0  0  0  0  0  0  0  0  0
   -1.8256   25.4867  -24.5336 H   0  0  0  0  0  0  0  0  0  0  0  0
   -2.3780   25.2900  -26.6290 C   0  0  0  0  0  0  0  0  0  0  0  0
   -3.4596   25.3268  -26.4321 H   0  0  0  0  0  0  0  0  0  0  0  0
   -3.7820   23.8000  -30.8340 C   0  0  0  0  0  0  0  0  0  0  0  0
   -4.6080   24.9140  -31.0660 O   0  0  0  0  0  0  0  0  0  0  0  0
   -5.7240   25.2780  -30.2470 C   0  0  0  0  0  0  0  0  0  0  0  0
   -5.4457   25.1872  -29.1867 H   0  0  0  0  0  0  0  0  0  0  0  0
   -6.0135   26.3171  -30.4625 H   0  0  0  0  0  0  0  0  0  0  0  0
   -6.5705   24.6094  -30.4625 H   0  0  0  0  0  0  0  0  0  0  0  0
   -3.8590   22.6340  -31.6170 C   0  0  0  0  0  0  0  0  0  0  0  0
   -4.5832   22.5767  -32.4430 H   0  0  0  0  0  0  0  0  0  0  0  0
   -3.0160   21.5420  -31.3500 C   0  0  0  0  0  0  0  0  0  0  0  0
   -3.0640   20.3210  -32.1970 C   0  0  0  0  0  0  0  0  0  0  0  0
   -4.1850   19.7570  -32.7820 C   0  0  0  0  0  0  0  0  0  0  0  0
   -5.2048   20.1656  -32.7276 H   0  0  0  0  0  0  0  0  0  0  0  0
   -3.8370   18.6490  -33.4170 O   0  0  0  0  0  0  0  0  0  0  0  0
   -2.5400   18.4570  -33.2720 C   0  0  0  0  0  0  0  0  0  0  0  0
   -1.9727   17.6120  -33.6894 H   0  0  0  0  0  0  0  0  0  0  0  0
   -2.0040   19.4810  -32.5150 C   0  0  0  0  0  0  0  0  0  0  0  0
   -0.9508   19.6060  -32.2231 H   0  0  0  0  0  0  0  0  0  0  0  0
  1  2  1  0
  2  3  1  0
  3  4  1  0
  4  5  2  0
  5  6  1  0
  6  7  2  0
  7  8  1  0
  7  9  1  0
  9 10  1  0
  9 11  2  0
 11 12  1  0
 12 13  2  0
 12 14  1  0
 14 15  1  0
 14 16  1  0
 16 17  1  0
 16 18  1  0
 16 19  1  0
 19 20  1  0
 19 21  1  0
 19 22  1  0
 22 23  1  0
 23 24  1  0
 23 25  1  0
 23 26  1  0
 22 27  1  0
 27 28  1  0
 27 29  1  0
 27 30  1  0
 30 31  1  0
 30 32  1  0
 11 33  1  0
 33 34  1  0
 33 35  2  0
 35 36  1  0
  4 37  1  0
 37 38  1  0
 38 39  1  0
 39 40  1  0
 39 41  1  0
 39 42  1  0
 37 43  2  0
 43 44  1  0
 43 45  1  0
 45 46  1  0
 46 47  2  0
 47 48  1  0
 47 49  1  0
 49 50  1  0
 50 51  1  0
 50 52  2  0
 52 53  1  0
 45  2  2  0
 52 46  1  0
 35  6  1  0
 30 14  1  0
M  CHG  2   3  -1  14   1
M  END
>  <UniqueID>  (11) 
11

>  <SMILES>  (11) 
COc1cc(-c2ccoc2)c[n-]/c1=N\c1ccc(C(=O)[NH+]2CCN(C)CC2)cc1

>  <Energy>  (11) 
118.62257168741678

>  <Genealogy>  (11) 
COc1cc(-c2ccoc2)c[n-]c1=Nc1ccc(C(=O)[NH+]2CCN(C)CC2)cc1 (protonated)
COc1cc(-c2ccoc2)c[n-]/c1=N\c1ccc(C(=O)[NH+]2CCN(C)CC2)cc1 (cis-trans isomerization)
COc1cc(-c2ccoc2)c[n-]/c1=N\c1ccc(C(=O)[NH+]2CCN(C)CC2)cc1 (3D coordinates assigned)
COc1cc(-c2ccoc2)c[n-]/c1=N\c1ccc(C(=O)[NH+]2CCN(C)CC2)cc1 (nonaromatic ring conformer: 118.62257168741678 kcal/mol)

>  <smiles>  (11) 
COc1cc(-c2ccoc2)c[nH]c1=Nc1ccc(C(=O)N2CCN(C)CC2)cc1

>  <score_type>  (11) 
oracle

>  <origin>  (11) 
adgpu

>  <m_score__min__energy>  (11) 
-9.7400000000000002

>  <m_primary>  (11) 
energy

$$$$
11:0
     RDKit          3D

 60 63  0  0  0  0  0  0  0  0999 V2000
   -1.3440   16.6640  -32.7080 C   0  0  0  0  0  0  0  0  0  0  0  0
   -2.0550   15.6250  -33.5900 C   0  0  0  0  0  0  0  0  0  0  0  0
   -3.3120   15.0660  -32.8930 C   0  0  0  0  0  0  0  0  0  0  0  0
   -4.4540   16.1060  -32.8000 C   0  0  0  0  0  0  0  0  0  0  0  0
   -4.3000   17.2100  -33.7700 N   0  0  0  0  0  0  0  0  0  0  0  0
   -5.7990   18.0920  -33.9270 S   0  0  0  0  0  0  0  0  0  0  0  0
   -6.9140   17.2950  -33.3060 O   0  0  0  0  0  0  0  0  0  0  0  0
   -6.1170   18.2790  -35.3840 O   0  0  0  0  0  0  0  0  0  0  0  0
   -5.7100   19.6680  -33.1380 C   0  0  0  0  0  0  0  0  0  0  0  0
   -4.5470   20.0490  -32.4550 C   0  0  0  0  0  0  0  0  0  0  0  0
   -4.4750   21.2940  -31.8250 C   0  0  0  0  0  0  0  0  0  0  0  0
   -5.5700   22.1700  -31.8690 C   0  0  0  0  0  0  0  0  0  0  0  0
   -5.5260   23.7090  -31.0140 S   0  0  0  0  0  0  0  0  0  0  0  0
   -6.1700   24.7950  -31.8310 O   0  0  0  0  0  0  0  0  0  0  0  0
   -6.2720   23.5640  -29.7180 O   0  0  0  0  0  0  0  0  0  0  0  0
   -3.8780   24.1440  -30.6860 N   0  0  0  0  0  0  0  0  0  0  0  0
   -3.1210   23.5730  -29.6030 C   0  0  0  0  0  0  0  0  0  0  0  0
   -3.3390   22.2480  -29.1860 C   0  0  0  0  0  0  0  0  0  0  0  0
   -2.6230   21.7050  -28.1090 C   0  0  0  0  0  0  0  0  0  0  0  0
   -1.6820   22.5010  -27.4260 C   0  0  0  0  0  0  0  0  0  0  0  0
   -1.4350   23.8080  -27.8680 C   0  0  0  0  0  0  0  0  0  0  0  0
   -2.1490   24.3440  -28.9440 C   0  0  0  0  0  0  0  0  0  0  0  0
   -1.8930   25.6510  -29.3440 O   0  0  0  0  0  0  0  0  0  0  0  0
   -0.8650   21.9420  -26.2910 C   0  0  0  0  0  0  0  0  0  0  0  0
   -1.4490   20.6320  -25.7380 C   0  0  0  0  0  0  0  0  0  0  0  0
   -1.8840   19.7120  -26.8070 N   0  0  0  0  0  0  0  0  0  0  0  0
   -0.7620   19.2250  -27.6290 C   0  0  0  0  0  0  0  0  0  0  0  0
   -2.9540   20.3090  -27.6310 C   0  0  0  0  0  0  0  0  0  0  0  0
   -6.7310   21.7920  -32.5540 C   0  0  0  0  0  0  0  0  0  0  0  0
   -6.8010   20.5480  -33.1870 C   0  0  0  0  0  0  0  0  0  0  0  0
   -3.8540   16.7130  -35.0800 C   0  0  0  0  0  0  0  0  0  0  0  0
   -2.4060   16.2010  -34.9870 C   0  0  0  0  0  0  0  0  0  0  0  0
   -1.5105   16.4207  -31.6482 H   0  0  0  0  0  0  0  0  0  0  0  0
   -0.2652   16.6502  -32.9223 H   0  0  0  0  0  0  0  0  0  0  0  0
   -1.7476   17.6646  -32.9223 H   0  0  0  0  0  0  0  0  0  0  0  0
   -1.3517   14.7930  -33.7421 H   0  0  0  0  0  0  0  0  0  0  0  0
   -3.6729   14.1966  -33.4621 H   0  0  0  0  0  0  0  0  0  0  0  0
   -3.0285   14.7903  -31.8665 H   0  0  0  0  0  0  0  0  0  0  0  0
   -5.4098   15.5975  -32.9944 H   0  0  0  0  0  0  0  0  0  0  0  0
   -4.4238   16.5434  -31.7911 H   0  0  0  0  0  0  0  0  0  0  0  0
   -3.6868   19.3646  -32.4147 H   0  0  0  0  0  0  0  0  0  0  0  0
   -3.5579   21.5880  -31.2934 H   0  0  0  0  0  0  0  0  0  0  0  0
   -3.4940   24.9630  -31.2080 H   0  0  0  0  0  0  0  0  0  0  0  0
   -4.0810   21.6289  -29.7115 H   0  0  0  0  0  0  0  0  0  0  0  0
   -0.6716   24.4183  -27.3632 H   0  0  0  0  0  0  0  0  0  0  0  0
    0.1559   21.7489  -26.6523 H   0  0  0  0  0  0  0  0  0  0  0  0
   -0.8714   22.6819  -25.4771 H   0  0  0  0  0  0  0  0  0  0  0  0
   -0.6797   20.1306  -25.1324 H   0  0  0  0  0  0  0  0  0  0  0  0
   -2.3337   20.8879  -25.1365 H   0  0  0  0  0  0  0  0  0  0  0  0
    0.0478   18.8735  -26.9728 H   0  0  0  0  0  0  0  0  0  0  0  0
   -1.1058   18.3951  -28.2639 H   0  0  0  0  0  0  0  0  0  0  0  0
   -0.3906   20.0429  -28.2639 H   0  0  0  0  0  0  0  0  0  0  0  0
   -3.1190   19.6677  -28.5094 H   0  0  0  0  0  0  0  0  0  0  0  0
   -3.8526   20.3816  -27.0008 H   0  0  0  0  0  0  0  0  0  0  0  0
   -7.5911   22.4765  -32.5941 H   0  0  0  0  0  0  0  0  0  0  0  0
   -7.7152   20.2580  -33.7257 H   0  0  0  0  0  0  0  0  0  0  0  0
   -4.5107   15.8906  -35.3998 H   0  0  0  0  0  0  0  0  0  0  0  0
   -3.8990   17.5341  -35.8106 H   0  0  0  0  0  0  0  0  0  0  0  0
   -2.2652   15.4096  -35.7379 H   0  0  0  0  0  0  0  0  0  0  0  0
   -1.7415   17.0593  -35.1653 H   0  0  0  0  0  0  0  0  0  0  0  0
  1  2  1  0
  2  3  1  0
  3  4  1  0
  4  5  1  0
  5  6  1  0
  6  7  2  0
  6  8  2  0
  6  9  1  0
  9 10  2  0
 10 11  1  0
 11 12  2  0
 12 13  1  0
 13 14  2  0
 13 15  2  0
 13 16  1  0
 16 17  1  0
 17 18  2  0
 18 19  1  0
 19 20  2  0
 20 21  1  0
 21 22  2  0
 22 23  1  0
 20 24  1  0
 24 25  1  0
 25 26  1  0
 26 27  1  0
 26 28  1  0
 12 29  1  0
 29 30  2  0
  5 31  1  0
 31 32  1  0
 32  2  1  0
 30  9  1  0
 22 17  1  0
 28 19  1  0
  1 33  1  0
  1 34  1  0
  1 35  1  0
  2 36  1  0
  3 37  1  0
  3 38  1  0
  4 39  1  0
  4 40  1  0
 10 41  1  0
 11 42  1  0
 16 43  1  0
 18 44  1  0
 21 45  1  0
 24 46  1  0
 24 47  1  0
 25 48  1  0
 25 49  1  0
 27 50  1  0
 27 51  1  0
 27 52  1  0
 28 53  1  0
 28 54  1  0
 29 55  1  0
 30 56  1  0
 31 57  1  0
 31 58  1  0
 32 59  1  0
 32 60  1  0
M  CHG  1  23  -1
M  END
>  <UniqueID>  (12) 
12

>  <SMILES>  (12) 
CC1CCN(S(=O)(=O)c2ccc(S(=O)(=O)Nc3cc4c(cc3[O-])CCN(C)C4)cc2)CC1

>  <Energy>  (12) 
72.59206567484726

>  <Genealogy>  (12) 
CC1CCN(S(=O)(=O)c2ccc(S(=O)(=O)Nc3cc4c(cc3[O-])CCN(C)C4)cc2)CC1 (protonated)
CC1CCN(S(=O)(=O)c2ccc(S(=O)(=O)Nc3cc4c(cc3[O-])CCN(C)C4)cc2)CC1 (3D coordinates assigned)
CC1CCN(S(=O)(=O)c2ccc(S(=O)(=O)Nc3cc4c(cc3[O-])CCN(C)C4)cc2)CC1 (nonaromatic ring conformer: 72.59206567484726 kcal/mol)

>  <smiles>  (12) 
CC1CCN(S(=O)(=O)c2ccc(S(=O)(=O)Nc3cc4c(cc3O)CCN(C)C4)cc2)CC1

>  <score_type>  (12) 
oracle

>  <origin>  (12) 
adgpu

>  <m_score__min__energy>  (12) 
-15.199999999999999

>  <m_primary>  (12) 
energy

$$$$
12:0
     RDKit          3D

 59 62  0  0  0  0  0  0  0  0999 V2000
   -1.9400   25.8870  -28.8900 O   0  0  0  0  0  0  0  0  0  0  0  0
   -2.5710   24.8980  -29.3550 C   0  0  0  0  0  0  0  0  0  0  0  0
   -3.5230   25.0880  -30.4120 N   0  0  0  0  0  0  0  0  0  0  0  0
   -4.7200   24.3260  -30.6200 C   0  0  0  0  0  0  0  0  0  0  0  0
   -4.6150   23.0940  -31.2770 C   0  0  0  0  0  0  0  0  0  0  0  0
   -5.7570   22.3400  -31.5660 C   0  0  0  0  0  0  0  0  0  0  0  0
   -7.0230   22.8150  -31.2120 C   0  0  0  0  0  0  0  0  0  0  0  0
   -8.4610   21.8930  -31.6450 S   0  0  0  0  0  0  0  0  0  0  0  0
   -9.4280   22.8250  -32.3170 O   0  0  0  0  0  0  0  0  0  0  0  0
   -9.1040   21.3260  -30.4090 O   0  0  0  0  0  0  0  0  0  0  0  0
   -8.0310   20.5920  -32.7360 N   0  0  0  0  0  0  0  0  0  0  0  0
   -6.9940   19.7430  -32.1370 C   0  0  0  0  0  0  0  0  0  0  0  0
   -7.6650   18.5200  -31.5230 C   0  0  0  0  0  0  0  0  0  0  0  0
   -9.1170   18.5830  -31.9540 C   0  0  0  0  0  0  0  0  0  0  0  0
   -9.1820   19.7140  -32.9640 C   0  0  0  0  0  0  0  0  0  0  0  0
   -7.1390   24.0560  -30.5630 C   0  0  0  0  0  0  0  0  0  0  0  0
   -5.9980   24.8250  -30.2850 C   0  0  0  0  0  0  0  0  0  0  0  0
   -6.1440   26.0870  -29.7070 O   0  0  0  0  0  0  0  0  0  0  0  0
   -2.3470   23.5450  -28.7950 C   0  0  0  0  0  0  0  0  0  0  0  0
   -3.4340   22.7480  -28.3970 C   0  0  0  0  0  0  0  0  0  0  0  0
   -3.2200   21.4950  -27.8110 C   0  0  0  0  0  0  0  0  0  0  0  0
   -1.9190   21.0210  -27.6170 C   0  0  0  0  0  0  0  0  0  0  0  0
   -1.6460   19.4720  -26.8160 S   0  0  0  0  0  0  0  0  0  0  0  0
   -2.7840   18.5390  -27.1320 O   0  0  0  0  0  0  0  0  0  0  0  0
   -1.6270   19.6890  -25.3280 O   0  0  0  0  0  0  0  0  0  0  0  0
   -0.1410   18.7340  -27.3090 N   0  0  0  0  0  0  0  0  0  0  0  0
    0.1420   19.0350  -28.7220 C   0  0  0  0  0  0  0  0  0  0  0  0
    1.5710   18.5920  -29.0900 C   0  0  0  0  0  0  0  0  0  0  0  0
    2.1400   17.5670  -28.0970 C   0  0  0  0  0  0  0  0  0  0  0  0
    1.0610   16.5700  -27.6630 C   0  0  0  0  0  0  0  0  0  0  0  0
   -0.1820   17.2780  -27.0860 C   0  0  0  0  0  0  0  0  0  0  0  0
   -0.8330   21.8010  -28.0310 C   0  0  0  0  0  0  0  0  0  0  0  0
   -1.0440   23.0520  -28.6150 C   0  0  0  0  0  0  0  0  0  0  0  0
   -3.6243   22.7153  -31.5688 H   0  0  0  0  0  0  0  0  0  0  0  0
   -5.6584   21.3693  -32.0739 H   0  0  0  0  0  0  0  0  0  0  0  0
   -6.2813   19.4251  -32.9122 H   0  0  0  0  0  0  0  0  0  0  0  0
   -6.4497   20.3029  -31.3622 H   0  0  0  0  0  0  0  0  0  0  0  0
   -7.1948   17.5980  -31.8957 H   0  0  0  0  0  0  0  0  0  0  0  0
   -7.5687   18.5138  -30.4272 H   0  0  0  0  0  0  0  0  0  0  0  0
   -9.4237   17.6336  -32.4173 H   0  0  0  0  0  0  0  0  0  0  0  0
   -9.7923   18.7522  -31.1023 H   0  0  0  0  0  0  0  0  0  0  0  0
   -9.1435   19.3056  -33.9846 H   0  0  0  0  0  0  0  0  0  0  0  0
  -10.1203   20.2763  -32.8479 H   0  0  0  0  0  0  0  0  0  0  0  0
   -8.1320   24.4279  -30.2704 H   0  0  0  0  0  0  0  0  0  0  0  0
   -5.3550   26.5930  -29.3190 H   0  0  0  0  0  0  0  0  0  0  0  0
   -4.4612   23.1118  -28.5472 H   0  0  0  0  0  0  0  0  0  0  0  0
   -4.0787   20.8809  -27.5019 H   0  0  0  0  0  0  0  0  0  0  0  0
   -0.5784   18.4997  -29.3579 H   0  0  0  0  0  0  0  0  0  0  0  0
    0.0530   20.1199  -28.8804 H   0  0  0  0  0  0  0  0  0  0  0  0
    1.5537   18.1404  -30.0929 H   0  0  0  0  0  0  0  0  0  0  0  0
    2.2165   19.4822  -29.0601 H   0  0  0  0  0  0  0  0  0  0  0  0
    2.9643   17.0194  -28.5772 H   0  0  0  0  0  0  0  0  0  0  0  0
    2.5021   18.1029  -27.2072 H   0  0  0  0  0  0  0  0  0  0  0  0
    0.7568   15.9737  -28.5359 H   0  0  0  0  0  0  0  0  0  0  0  0
    1.4856   15.9323  -26.8737 H   0  0  0  0  0  0  0  0  0  0  0  0
   -1.0807   16.8695  -27.5713 H   0  0  0  0  0  0  0  0  0  0  0  0
   -0.2007   17.1008  -26.0005 H   0  0  0  0  0  0  0  0  0  0  0  0
    0.1924   21.4266  -27.8956 H   0  0  0  0  0  0  0  0  0  0  0  0
   -0.1829   23.6561  -28.9366 H   0  0  0  0  0  0  0  0  0  0  0  0
  1  2  2  0
  2  3  1  0
  3  4  1  0
  4  5  2  0
  5  6  1  0
  6  7  2  0
  7  8  1  0
  8  9  2  0
  8 10  2  0
  8 11  1  0
 11 12  1  0
 12 13  1  0
 13 14  1  0
 14 15  1  0
  7 16  1  0
 16 17  2  0
 17 18  1  0
  2 19  1  0
 19 20  2  0
 20 21  1  0
 21 22  2  0
 22 23  1  0
 23 24  2  0
 23 25  2  0
 23 26  1  0
 26 27  1  0
 27 28  1  0
 28 29  1  0
 29 30  1  0
 30 31  1  0
 22 32  1  0
 32 33  2  0
 17  4  1  0
 33 19  1  0
 15 11  1  0
 31 26  1  0
  5 34  1  0
  6 35  1  0
 12 36  1  0
 12 37  1  0
 13 38  1  0
 13 39  1  0
 14 40  1  0
 14 41  1  0
 15 42  1  0
 15 43  1  0
 16 44  1  0
 18 45  1  0
 20 46  1  0
 21 47  1  0
 27 48  1  0
 27 49  1  0
 28 50  1  0
 28 51  1  0
 29 52  1  0
 29 53  1  0
 30 54  1  0
 30 55  1  0
 31 56  1  0
 31 57  1  0
 32 58  1  0
 33 59  1  0
M  CHG  1   3  -1
M  END
>  <UniqueID>  (13) 
13

>  <SMILES>  (13) 
O=C([N-]c1ccc(S(=O)(=O)N2CCCC2)cc1O)c1ccc(S(=O)(=O)N2CCCCC2)cc1

>  <Energy>  (13) 
71.43249475957877

>  <Genealogy>  (13) 
O=C([N-]c1ccc(S(=O)(=O)N2CCCC2)cc1O)c1ccc(S(=O)(=O)N2CCCCC2)cc1 (protonated)
O=C([N-]c1ccc(S(=O)(=O)N2CCCC2)cc1O)c1ccc(S(=O)(=O)N2CCCCC2)cc1 (3D coordinates assigned)
O=C([N-]c1ccc(S(=O)(=O)N2CCCC2)cc1O)c1ccc(S(=O)(=O)N2CCCCC2)cc1 (nonaromatic ring conformer: 71.43249475957877 kcal/mol)

>  <smiles>  (13) 
O=C(Nc1ccc(S(=O)(=O)N2CCCC2)cc1O)c1ccc(S(=O)(=O)N2CCCCC2)cc1

>  <score_type>  (13) 
oracle

>  <origin>  (13) 
adgpu

>  <m_score__min__energy>  (13) 
-14.42

>  <m_primary>  (13) 
energy

$$$$
13:0
     RDKit          3D

 60 63  0  0  0  0  0  0  0  0999 V2000
    1.6490   24.7880  -35.4070 C   0  0  0  0  0  0  0  0  0  0  0  0
    1.6080   23.3180  -35.3390 N   0  0  0  0  0  0  0  0  0  0  0  0
    2.7010   22.7350  -36.1340 C   0  0  0  0  0  0  0  0  0  0  0  0
    2.8460   21.2610  -35.7710 C   0  0  0  0  0  0  0  0  0  0  0  0
    1.5020   20.4980  -35.8450 C   0  0  0  0  0  0  0  0  0  0  0  0
    1.2260   19.7570  -34.6110 N   0  0  0  0  0  0  0  0  0  0  0  0
    0.0130   19.7600  -33.8490 C   0  0  0  0  0  0  0  0  0  0  0  0
   -1.0900   19.5350  -34.4140 O   0  0  0  0  0  0  0  0  0  0  0  0
    0.0540   20.0620  -32.3970 C   0  0  0  0  0  0  0  0  0  0  0  0
    0.5900   19.1320  -31.4860 C   0  0  0  0  0  0  0  0  0  0  0  0
    0.5920   19.4050  -30.1140 C   0  0  0  0  0  0  0  0  0  0  0  0
    0.0620   20.6040  -29.6370 C   0  0  0  0  0  0  0  0  0  0  0  0
   -0.0120   20.9200  -27.8710 S   0  0  0  0  0  0  0  0  0  0  0  0
   -1.4500   21.9990  -27.9980 C   0  0  0  0  0  0  0  0  0  0  0  0
   -2.7250   21.4220  -28.0070 C   0  0  0  0  0  0  0  0  0  0  0  0
   -3.8620   22.2210  -28.1420 C   0  0  0  0  0  0  0  0  0  0  0  0
   -3.7350   23.6150  -28.2660 C   0  0  0  0  0  0  0  0  0  0  0  0
   -4.8900   24.4490  -28.4350 N   0  0  0  0  0  0  0  0  0  0  0  0
   -5.3420   25.0590  -29.9930 S   0  0  0  0  0  0  0  0  0  0  0  0
   -4.1030   25.3070  -30.8070 O   0  0  0  0  0  0  0  0  0  0  0  0
   -6.0950   26.3530  -29.8540 O   0  0  0  0  0  0  0  0  0  0  0  0
   -6.3350   23.8700  -30.8150 C   0  0  0  0  0  0  0  0  0  0  0  0
   -7.2800   23.0650  -30.2210 C   0  0  0  0  0  0  0  0  0  0  0  0
   -7.8770   22.3580  -31.1950 N   0  0  0  0  0  0  0  0  0  0  0  0
   -8.9750   21.4190  -31.0310 C   0  0  0  0  0  0  0  0  0  0  0  0
   -7.2990   22.7520  -32.3490 C   0  0  0  0  0  0  0  0  0  0  0  0
   -6.3430   23.6860  -32.1530 N   0  0  0  0  0  0  0  0  0  0  0  0
   -2.4600   24.1930  -28.2630 C   0  0  0  0  0  0  0  0  0  0  0  0
   -1.3170   23.3960  -28.1330 C   0  0  0  0  0  0  0  0  0  0  0  0
   -0.0200   24.0340  -28.1240 C   0  0  0  0  0  0  0  0  0  0  0  0
    1.0190   24.5480  -28.1110 N   0  0  0  0  0  0  0  0  0  0  0  0
   -0.4650   21.5380  -30.5350 C   0  0  0  0  0  0  0  0  0  0  0  0
   -0.4630   21.2750  -31.9060 C   0  0  0  0  0  0  0  0  0  0  0  0
    0.2920   21.3580  -36.2820 C   0  0  0  0  0  0  0  0  0  0  0  0
    0.2790   22.8160  -35.7590 C   0  0  0  0  0  0  0  0  0  0  0  0
    1.6605   25.2020  -34.3880 H   0  0  0  0  0  0  0  0  0  0  0  0
    2.5563   25.1052  -35.9419 H   0  0  0  0  0  0  0  0  0  0  0  0
    0.7607   25.1552  -35.9419 H   0  0  0  0  0  0  0  0  0  0  0  0
    2.4696   22.8302  -37.2052 H   0  0  0  0  0  0  0  0  0  0  0  0
    3.6407   23.2651  -35.9197 H   0  0  0  0  0  0  0  0  0  0  0  0
    3.5559   20.7938  -36.4694 H   0  0  0  0  0  0  0  0  0  0  0  0
    3.2050   21.2060  -34.7327 H   0  0  0  0  0  0  0  0  0  0  0  0
    1.6381   19.7703  -36.6586 H   0  0  0  0  0  0  0  0  0  0  0  0
    1.0099   18.1848  -31.8554 H   0  0  0  0  0  0  0  0  0  0  0  0
    1.0126   18.6724  -29.4095 H   0  0  0  0  0  0  0  0  0  0  0  0
   -2.8321   20.3318  -27.9071 H   0  0  0  0  0  0  0  0  0  0  0  0
   -4.8598   21.7581  -28.1513 H   0  0  0  0  0  0  0  0  0  0  0  0
   -5.2820   24.9410  -27.6040 H   0  0  0  0  0  0  0  0  0  0  0  0
   -7.5053   23.0104  -29.1457 H   0  0  0  0  0  0  0  0  0  0  0  0
   -9.1630   21.2582  -29.9592 H   0  0  0  0  0  0  0  0  0  0  0  0
   -9.8801   21.8268  -31.5049 H   0  0  0  0  0  0  0  0  0  0  0  0
   -8.7126   20.4616  -31.5049 H   0  0  0  0  0  0  0  0  0  0  0  0
   -7.5752   22.3571  -33.3378 H   0  0  0  0  0  0  0  0  0  0  0  0
   -2.3556   25.2834  -28.3637 H   0  0  0  0  0  0  0  0  0  0  0  0
   -0.8828   22.4837  -30.1593 H   0  0  0  0  0  0  0  0  0  0  0  0
   -0.8679   22.0203  -32.6064 H   0  0  0  0  0  0  0  0  0  0  0  0
    0.2823   21.3934  -37.3814 H   0  0  0  0  0  0  0  0  0  0  0  0
   -0.5931   20.8745  -35.8428 H   0  0  0  0  0  0  0  0  0  0  0  0
   -0.0992   23.4675  -36.5605 H   0  0  0  0  0  0  0  0  0  0  0  0
   -0.3622   22.8275  -34.8653 H   0  0  0  0  0  0  0  0  0  0  0  0
  1  2  1  0
  2  3  1  0
  3  4  1  0
  4  5  1  0
  5  6  1  0
  6  7  1  0
  7  8  2  0
  7  9  1  0
  9 10  2  0
 10 11  1  0
 11 12  2  0
 12 13  1  0
 13 14  1  0
 14 15  2  0
 15 16  1  0
 16 17  2  0
 17 18  1  0
 18 19  1  0
 19 20  2  0
 19 21  2  0
 19 22  1  0
 22 23  2  0
 23 24  1  0
 24 25  1  0
 24 26  1  0
 26 27  2  0
 17 28  1  0
 28 29  2  0
 29 30  1  0
 30 31  3  0
 12 32  1  0
 32 33  2  0
  5 34  1  0
 34 35  1  0
 35  2  1  0
 33  9  1  0
 29 14  1  0
 27 22  1  0
  1 36  1  0
  1 37  1  0
  1 38  1  0
  3 39  1  0
  3 40  1  0
  4 41  1  0
  4 42  1  0
  5 43  1  0
 10 44  1  0
 11 45  1  0
 15 46  1  0
 16 47  1  0
 18 48  1  0
 23 49  1  0
 25 50  1  0
 25 51  1  0
 25 52  1  0
 26 53  1  0
 28 54  1  0
 32 55  1  0
 33 56  1  0
 34 57  1  0
 34 58  1  0
 35 59  1  0
 35 60  1  0
M  CHG  1   6  -1
M  END
>  <UniqueID>  (14) 
14

>  <SMILES>  (14) 
CN1CCC([N-]C(=O)c2ccc(Sc3ccc(NS(=O)(=O)c4cn(C)cn4)cc3C#N)cc2)CC1

>  <Energy>  (14) 
101.0620348786628

>  <Genealogy>  (14) 
CN1CCC([N-]C(=O)c2ccc(Sc3ccc(NS(=O)(=O)c4cn(C)cn4)cc3C#N)cc2)CC1 (protonated)
CN1CCC([N-]C(=O)c2ccc(Sc3ccc(NS(=O)(=O)c4cn(C)cn4)cc3C#N)cc2)CC1 (3D coordinates assigned)
CN1CCC([N-]C(=O)c2ccc(Sc3ccc(NS(=O)(=O)c4cn(C)cn4)cc3C#N)cc2)CC1 (nonaromatic ring conformer: 101.0620348786628 kcal/mol)

>  <smiles>  (14) 
CN1CCC(NC(=O)c2ccc(Sc3ccc(NS(=O)(=O)c4cn(C)cn4)cc3C#N)cc2)CC1

>  <score_type>  (14) 
oracle

>  <origin>  (14) 
adgpu

>  <m_score__min__energy>  (14) 
-10.960000000000001

>  <m_primary>  (14) 
energy

$$$$
14:0
     RDKit          3D

 72 76  0  0  0  0  0  0  0  0999 V2000
   -3.4280   23.4650  -27.4670 C   0  0  0  0  0  0  0  0  0  0  0  0
   -2.7130   24.7180  -27.9870 C   0  0  0  0  0  0  0  0  0  0  0  0
   -1.2290   24.6750  -27.6270 C   0  0  0  0  0  0  0  0  0  0  0  0
   -2.8370   24.8010  -29.4090 O   0  0  0  0  0  0  0  0  0  0  0  0
   -3.9820   24.4740  -30.1620 C   0  0  0  0  0  0  0  0  0  0  0  0
   -5.1270   25.2990  -30.1720 C   0  0  0  0  0  0  0  0  0  0  0  0
   -6.2680   24.9170  -30.8830 C   0  0  0  0  0  0  0  0  0  0  0  0
   -6.3020   23.7000  -31.5620 C   0  0  0  0  0  0  0  0  0  0  0  0
   -7.5160   23.2910  -32.1970 N   0  0  0  0  0  0  0  0  0  0  0  0
   -8.4840   21.9820  -31.5980 S   0  0  0  0  0  0  0  0  0  0  0  0
   -9.8700   22.1070  -32.1680 O   0  0  0  0  0  0  0  0  0  0  0  0
   -8.5820   22.0890  -30.1010 O   0  0  0  0  0  0  0  0  0  0  0  0
   -7.8050   20.4240  -32.0580 C   0  0  0  0  0  0  0  0  0  0  0  0
   -8.4080   19.2410  -31.6200 C   0  0  0  0  0  0  0  0  0  0  0  0
   -7.8230   18.0080  -31.9130 C   0  0  0  0  0  0  0  0  0  0  0  0
   -6.6200   17.9620  -32.6480 C   0  0  0  0  0  0  0  0  0  0  0  0
   -5.9300   16.7130  -32.9050 N   0  0  0  0  0  0  0  0  0  0  0  0
   -5.9580   16.1570  -34.2710 C   0  0  0  0  0  0  0  0  0  0  0  0
   -4.7610   15.2150  -34.5670 C   0  0  0  0  0  0  0  0  0  0  0  0
   -3.8910   15.0360  -33.4680 O   0  0  0  0  0  0  0  0  0  0  0  0
   -4.6340   14.6950  -32.3240 C   0  0  0  0  0  0  0  0  0  0  0  0
   -5.3210   15.9510  -31.8020 C   0  0  0  0  0  0  0  0  0  0  0  0
   -6.0750   19.1340  -33.0830 N   0  0  0  0  0  0  0  0  0  0  0  0
   -6.6310   20.3450  -32.8180 C   0  0  0  0  0  0  0  0  0  0  0  0
   -5.1570   22.8950  -31.5970 C   0  0  0  0  0  0  0  0  0  0  0  0
   -3.9860   23.2770  -30.9190 C   0  0  0  0  0  0  0  0  0  0  0  0
   -2.7840   22.4050  -30.9930 C   0  0  0  0  0  0  0  0  0  0  0  0
   -1.6340   22.7000  -30.2430 C   0  0  0  0  0  0  0  0  0  0  0  0
   -0.5120   21.8800  -30.3470 C   0  0  0  0  0  0  0  0  0  0  0  0
   -0.5260   20.8120  -31.1870 N   0  0  0  0  0  0  0  0  0  0  0  0
   -1.6120   20.4890  -31.9490 C   0  0  0  0  0  0  0  0  0  0  0  0
   -1.5570   19.3370  -32.8310 N   0  0  0  0  0  0  0  0  0  0  0  0
   -2.6510   19.0620  -33.7770 C   0  0  0  0  0  0  0  0  0  0  0  0
   -2.4270   17.7400  -34.5170 C   0  0  0  0  0  0  0  0  0  0  0  0
   -1.9810   16.7170  -33.5660 N   0  0  0  0  0  0  0  0  0  0  0  0
   -0.6430   17.0140  -33.0140 C   0  0  0  0  0  0  0  0  0  0  0  0
   -0.3290   18.5240  -32.9160 C   0  0  0  0  0  0  0  0  0  0  0  0
   -2.7660   21.2910  -31.8520 C   0  0  0  0  0  0  0  0  0  0  0  0
   -3.4247   23.4708  -26.3670 H   0  0  0  0  0  0  0  0  0  0  0  0
   -4.4662   23.4578  -27.8305 H   0  0  0  0  0  0  0  0  0  0  0  0
   -2.9060   22.5675  -27.8305 H   0  0  0  0  0  0  0  0  0  0  0  0
   -3.1801   25.5967  -27.5184 H   0  0  0  0  0  0  0  0  0  0  0  0
   -1.1171   24.6718  -26.5327 H   0  0  0  0  0  0  0  0  0  0  0  0
   -0.7767   23.7634  -28.0445 H   0  0  0  0  0  0  0  0  0  0  0  0
   -0.7246   25.5589  -28.0445 H   0  0  0  0  0  0  0  0  0  0  0  0
   -5.1214   26.2486  -29.6168 H   0  0  0  0  0  0  0  0  0  0  0  0
   -7.1448   25.5809  -30.9070 H   0  0  0  0  0  0  0  0  0  0  0  0
   -9.3442   19.2820  -31.0440 H   0  0  0  0  0  0  0  0  0  0  0  0
   -8.2981   17.0763  -31.5722 H   0  0  0  0  0  0  0  0  0  0  0  0
   -6.8912   15.5888  -34.3991 H   0  0  0  0  0  0  0  0  0  0  0  0
   -5.8924   17.0024  -34.9717 H   0  0  0  0  0  0  0  0  0  0  0  0
   -5.1576   14.2315  -34.8592 H   0  0  0  0  0  0  0  0  0  0  0  0
   -4.1727   15.6864  -35.3680 H   0  0  0  0  0  0  0  0  0  0  0  0
   -5.3899   13.9394  -32.5840 H   0  0  0  0  0  0  0  0  0  0  0  0
   -3.9689   14.2806  -31.5521 H   0  0  0  0  0  0  0  0  0  0  0  0
   -6.1058   15.6619  -31.0875 H   0  0  0  0  0  0  0  0  0  0  0  0
   -4.5685   16.5848  -31.3100 H   0  0  0  0  0  0  0  0  0  0  0  0
   -6.1597   21.2626  -33.1999 H   0  0  0  0  0  0  0  0  0  0  0  0
   -5.1738   21.9515  -32.1622 H   0  0  0  0  0  0  0  0  0  0  0  0
   -1.6189   23.5747  -29.5762 H   0  0  0  0  0  0  0  0  0  0  0  0
    0.3852   22.0974  -29.7489 H   0  0  0  0  0  0  0  0  0  0  0  0
   -3.5991   19.0059  -33.2220 H   0  0  0  0  0  0  0  0  0  0  0  0
   -2.6817   19.8742  -34.5183 H   0  0  0  0  0  0  0  0  0  0  0  0
   -3.3684   17.4186  -34.9866 H   0  0  0  0  0  0  0  0  0  0  0  0
   -1.6593   17.8794  -35.2924 H   0  0  0  0  0  0  0  0  0  0  0  0
   -2.6730   16.6480  -32.7790 H   0  0  0  0  0  0  0  0  0  0  0  0
   -1.9580   15.7880  -34.0430 H   0  0  0  0  0  0  0  0  0  0  0  0
   -0.5803   16.5807  -32.0049 H   0  0  0  0  0  0  0  0  0  0  0  0
    0.0927   16.5784  -33.7061 H   0  0  0  0  0  0  0  0  0  0  0  0
    0.2790   18.7032  -32.0170 H   0  0  0  0  0  0  0  0  0  0  0  0
    0.2129   18.8192  -33.8266 H   0  0  0  0  0  0  0  0  0  0  0  0
   -3.6561   21.0454  -32.4499 H   0  0  0  0  0  0  0  0  0  0  0  0
  1  2  1  0
  2  3  1  0
  2  4  1  0
  4  5  1  0
  5  6  2  0
  6  7  1  0
  7  8  2  0
  8  9  1  0
  9 10  1  0
 10 11  2  0
 10 12  2  0
 10 13  1  0
 13 14  2  0
 14 15  1  0
 15 16  2  0
 16 17  1  0
 17 18  1  0
 18 19  1  0
 19 20  1  0
 20 21  1  0
 21 22  1  0
 16 23  1  0
 23 24  2  0
  8 25  1  0
 25 26  2  0
 26 27  1  0
 27 28  2  0
 28 29  1  0
 29 30  2  0
 30 31  1  0
 31 32  1  0
 32 33  1  0
 33 34  1  0
 34 35  1  0
 35 36  1  0
 36 37  1  0
 31 38  2  0
 26  5  1  0
 38 27  1  0
 24 13  1  0
 37 32  1  0
 22 17  1  0
  1 39  1  0
  1 40  1  0
  1 41  1  0
  2 42  1  0
  3 43  1  0
  3 44  1  0
  3 45  1  0
  6 46  1  0
  7 47  1  0
 14 48  1  0
 15 49  1  0
 18 50  1  0
 18 51  1  0
 19 52  1  0
 19 53  1  0
 21 54  1  0
 21 55  1  0
 22 56  1  0
 22 57  1  0
 24 58  1  0
 25 59  1  0
 28 60  1  0
 29 61  1  0
 33 62  1  0
 33 63  1  0
 34 64  1  0
 34 65  1  0
 35 66  1  0
 35 67  1  0
 36 68  1  0
 36 69  1  0
 37 70  1  0
 37 71  1  0
 38 72  1  0
M  CHG  2   9  -1  35   1
M  END
>  <UniqueID>  (15) 
15

>  <SMILES>  (15) 
CC(C)Oc1ccc([N-]S(=O)(=O)c2ccc(N3CCOCC3)nc2)cc1-c1ccnc(N2CC[NH2+]CC2)c1

>  <Energy>  (15) 
99.23114401003971

>  <Genealogy>  (15) 
CC(C)Oc1ccc([N-]S(=O)(=O)c2ccc(N3CCOCC3)nc2)cc1-c1ccnc(N2CC[NH2+]CC2)c1 (protonated)
CC(C)Oc1ccc([N-]S(=O)(=O)c2ccc(N3CCOCC3)nc2)cc1-c1ccnc(N2CC[NH2+]CC2)c1 (3D coordinates assigned)
CC(C)Oc1ccc([N-]S(=O)(=O)c2ccc(N3CCOCC3)nc2)cc1-c1ccnc(N2CC[NH2+]CC2)c1 (nonaromatic ring conformer: 99.23114401003971 kcal/mol)

>  <smiles>  (15) 
CC(C)Oc1ccc(NS(=O)(=O)c2ccc(N3CCOCC3)nc2)cc1-c1ccnc(N2CCNCC2)c1

>  <score_type>  (15) 
oracle

>  <origin>  (15) 
adgpu

>  <m_score__min__energy>  (15) 
-11.33

>  <m_primary>  (15) 
energy

$$$$
15:0
     RDKit          3D

 50 53  0  0  0  0  0  0  0  0999 V2000
   -8.5190   18.8900  -31.6040 C   0  0  0  0  0  0  0  0  0  0  0  0
   -8.2490   20.3520  -31.8400 C   0  0  0  0  0  0  0  0  0  0  0  0
   -9.1560   21.3090  -31.3590 C   0  0  0  0  0  0  0  0  0  0  0  0
   -8.9390   22.6660  -31.5960 C   0  0  0  0  0  0  0  0  0  0  0  0
   -7.8130   23.0620  -32.3160 C   0  0  0  0  0  0  0  0  0  0  0  0
   -6.9250   22.1330  -32.7540 N   0  0  0  0  0  0  0  0  0  0  0  0
   -7.0930   20.8020  -32.5210 C   0  0  0  0  0  0  0  0  0  0  0  0
   -6.0360   19.8710  -32.9690 C   0  0  0  0  0  0  0  0  0  0  0  0
   -6.3850   18.5420  -33.2530 C   0  0  0  0  0  0  0  0  0  0  0  0
   -5.4060   17.6070  -33.6260 C   0  0  0  0  0  0  0  0  0  0  0  0
   -5.7810   16.1660  -33.8690 C   0  0  0  0  0  0  0  0  0  0  0  0
   -5.6420   15.4550  -32.6930 F   0  0  0  0  0  0  0  0  0  0  0  0
   -4.9660   15.6040  -34.8360 F   0  0  0  0  0  0  0  0  0  0  0  0
   -7.0940   16.0710  -34.3020 F   0  0  0  0  0  0  0  0  0  0  0  0
   -4.0600   18.0070  -33.6670 C   0  0  0  0  0  0  0  0  0  0  0  0
   -3.7090   19.3330  -33.4060 C   0  0  0  0  0  0  0  0  0  0  0  0
   -4.6870   20.2800  -33.0900 C   0  0  0  0  0  0  0  0  0  0  0  0
   -4.2830   21.6070  -32.8750 O   0  0  0  0  0  0  0  0  0  0  0  0
   -3.4750   22.0320  -31.8090 C   0  0  0  0  0  0  0  0  0  0  0  0
   -4.0360   22.5890  -30.6460 C   0  0  0  0  0  0  0  0  0  0  0  0
   -3.2210   22.9690  -29.5780 C   0  0  0  0  0  0  0  0  0  0  0  0
   -1.8320   22.8200  -29.6670 C   0  0  0  0  0  0  0  0  0  0  0  0
   -0.8100   23.2870  -28.3110 S   0  0  0  0  0  0  0  0  0  0  0  0
    0.3050   24.1850  -28.7730 O   0  0  0  0  0  0  0  0  0  0  0  0
   -0.2200   22.0500  -27.6980 O   0  0  0  0  0  0  0  0  0  0  0  0
   -1.7490   24.1220  -27.1140 N   0  0  0  0  0  0  0  0  0  0  0  0
   -1.4030   25.2410  -26.5530 C   0  0  0  0  0  0  0  0  0  0  0  0
   -0.2610   25.9200  -26.8140 N   0  0  0  0  0  0  0  0  0  0  0  0
   -0.1700   27.0620  -26.0830 C   0  0  0  0  0  0  0  0  0  0  0  0
   -1.2450   27.2990  -25.2340 C   0  0  0  0  0  0  0  0  0  0  0  0
   -2.3420   26.0310  -25.4090 S   0  0  0  0  0  0  0  0  0  0  0  0
   -1.2620   22.2950  -30.8340 C   0  0  0  0  0  0  0  0  0  0  0  0
   -2.0780   21.9110  -31.9070 C   0  0  0  0  0  0  0  0  0  0  0  0
   -1.4730   21.3670  -33.0960 C   0  0  0  0  0  0  0  0  0  0  0  0
   -0.9870   20.9290  -34.0510 N   0  0  0  0  0  0  0  0  0  0  0  0
   -8.5552   18.6938  -30.5222 H   0  0  0  0  0  0  0  0  0  0  0  0
   -9.4827   18.6171  -32.0586 H   0  0  0  0  0  0  0  0  0  0  0  0
   -7.7163   18.2908  -32.0586 H   0  0  0  0  0  0  0  0  0  0  0  0
  -10.0422   20.9871  -30.7924 H   0  0  0  0  0  0  0  0  0  0  0  0
   -9.6493   23.4164  -31.2186 H   0  0  0  0  0  0  0  0  0  0  0  0
   -7.6438   24.1277  -32.5294 H   0  0  0  0  0  0  0  0  0  0  0  0
   -7.4372   18.2291  -33.1827 H   0  0  0  0  0  0  0  0  0  0  0  0
   -3.2780   17.2713  -33.9061 H   0  0  0  0  0  0  0  0  0  0  0  0
   -2.6522   19.6353  -33.4495 H   0  0  0  0  0  0  0  0  0  0  0  0
   -5.1252   22.7263  -30.5772 H   0  0  0  0  0  0  0  0  0  0  0  0
   -3.6711   23.3862  -28.6651 H   0  0  0  0  0  0  0  0  0  0  0  0
    0.4790   25.6240  -27.4880 H   0  0  0  0  0  0  0  0  0  0  0  0
    0.6882   27.7461  -26.1574 H   0  0  0  0  0  0  0  0  0  0  0  0
   -1.3599   28.1639  -24.5642 H   0  0  0  0  0  0  0  0  0  0  0  0
   -0.1702   22.1837  -30.9086 H   0  0  0  0  0  0  0  0  0  0  0  0
  1  2  1  0
  2  3  2  0
  3  4  1  0
  4  5  2  0
  5  6  1  0
  6  7  2  0
  7  8  1  0
  8  9  2  0
  9 10  1  0
 10 11  1  0
 11 12  1  0
 11 13  1  0
 11 14  1  0
 10 15  2  0
 15 16  1  0
 16 17  2  0
 17 18  1  0
 18 19  1  0
 19 20  2  0
 20 21  1  0
 21 22  2  0
 22 23  1  0
 23 24  2  0
 23 25  2  0
 23 26  1  0
 26 27  2  3
 27 28  1  0
 28 29  1  0
 29 30  2  0
 30 31  1  0
 22 32  1  0
 32 33  2  0
 33 34  1  0
 34 35  3  0
  7  2  1  0
 17  8  1  0
 33 19  1  0
 31 27  1  0
  1 36  1  0
  1 37  1  0
  1 38  1  0
  3 39  1  0
  4 40  1  0
  5 41  1  0
  9 42  1  0
 15 43  1  0
 16 44  1  0
 20 45  1  0
 21 46  1  0
 28 47  1  0
 29 48  1  0
 30 49  1  0
 32 50  1  0
M  END
>  <UniqueID>  (16) 
16

>  <SMILES>  (16) 
Cc1cccnc1-c1cc(C(F)(F)F)ccc1Oc1ccc(S(=O)(=O)N=c2[nH]ccs2)cc1C#N

>  <Energy>  (16) 
100.82882846275845

>  <Genealogy>  (16) 
Cc1cccnc1-c1cc(C(F)(F)F)ccc1Oc1ccc(S(=O)(=O)N=c2[nH]ccs2)cc1C#N (3D coordinates assigned)
Cc1cccnc1-c1cc(C(F)(F)F)ccc1Oc1ccc(S(=O)(=O)N=c2[nH]ccs2)cc1C#N (optimized conformer: 100.82882846275845 kcal/mol)

>  <smiles>  (16) 
Cc1cccnc1-c1cc(C(F)(F)F)ccc1Oc1ccc(S(=O)(=O)N=c2[nH]ccs2)cc1C#N

>  <score_type>  (16) 
oracle

>  <origin>  (16) 
adgpu

>  <m_score__min__energy>  (16) 
-10.08

>  <m_primary>  (16) 
energy

$$$$
16:0
     RDKit          3D

 41 43  0  0  0  0  0  0  0  0999 V2000
   -9.2670   19.4960  -32.7160 C   0  0  0  0  0  0  0  0  0  0  0  0
   -7.5020   19.4020  -32.5250 S   0  0  0  0  0  0  0  0  0  0  0  0
   -6.8640   19.1280  -33.8580 O   0  0  0  0  0  0  0  0  0  0  0  0
   -7.1600   18.2780  -31.5870 O   0  0  0  0  0  0  0  0  0  0  0  0
   -6.9020   20.9260  -31.8820 C   0  0  0  0  0  0  0  0  0  0  0  0
   -5.6720   21.4430  -32.3140 C   0  0  0  0  0  0  0  0  0  0  0  0
   -5.1950   22.6490  -31.7950 C   0  0  0  0  0  0  0  0  0  0  0  0
   -5.9400   23.3480  -30.8360 C   0  0  0  0  0  0  0  0  0  0  0  0
   -5.3420   24.8810  -30.2100 S   0  0  0  0  0  0  0  0  0  0  0  0
   -6.5130   25.7790  -29.9260 O   0  0  0  0  0  0  0  0  0  0  0  0
   -4.4410   25.5510  -31.2080 O   0  0  0  0  0  0  0  0  0  0  0  0
   -4.4600   24.6130  -28.7400 N   0  0  0  0  0  0  0  0  0  0  0  0
   -3.2960   23.7850  -28.6130 C   0  0  0  0  0  0  0  0  0  0  0  0
   -3.3780   22.4440  -28.1980 C   0  0  0  0  0  0  0  0  0  0  0  0
   -2.2210   21.6610  -28.0760 C   0  0  0  0  0  0  0  0  0  0  0  0
   -0.9610   22.2300  -28.3470 C   0  0  0  0  0  0  0  0  0  0  0  0
   -0.8830   23.5600  -28.7840 C   0  0  0  0  0  0  0  0  0  0  0  0
   -2.0410   24.3320  -28.9120 C   0  0  0  0  0  0  0  0  0  0  0  0
   -1.9380   25.6530  -29.3370 O   0  0  0  0  0  0  0  0  0  0  0  0
    0.2970   21.3960  -28.2710 C   0  0  0  0  0  0  0  0  0  0  0  0
    0.1300   20.2080  -27.4220 N   0  0  0  0  0  0  0  0  0  0  0  0
   -1.0560   19.4440  -27.8250 C   0  0  0  0  0  0  0  0  0  0  0  0
   -2.3380   20.2460  -27.5690 C   0  0  0  0  0  0  0  0  0  0  0  0
   -7.1630   22.8260  -30.3950 C   0  0  0  0  0  0  0  0  0  0  0  0
   -7.6410   21.6200  -30.9140 C   0  0  0  0  0  0  0  0  0  0  0  0
   -9.7423   19.5213  -31.7243 H   0  0  0  0  0  0  0  0  0  0  0  0
   -9.5276   20.4093  -33.2709 H   0  0  0  0  0  0  0  0  0  0  0  0
   -9.6232   18.6156  -33.2709 H   0  0  0  0  0  0  0  0  0  0  0  0
   -5.0809   20.8970  -33.0640 H   0  0  0  0  0  0  0  0  0  0  0  0
   -4.2312   23.0513  -32.1404 H   0  0  0  0  0  0  0  0  0  0  0  0
   -4.3596   22.0047  -27.9667 H   0  0  0  0  0  0  0  0  0  0  0  0
    0.0959   23.9986  -29.0277 H   0  0  0  0  0  0  0  0  0  0  0  0
    0.5667   21.0698  -29.2863 H   0  0  0  0  0  0  0  0  0  0  0  0
    1.0865   22.0190  -27.8254 H   0  0  0  0  0  0  0  0  0  0  0  0
    0.0190   20.5160  -26.4260 H   0  0  0  0  0  0  0  0  0  0  0  0
   -0.9860   19.2099  -28.8975 H   0  0  0  0  0  0  0  0  0  0  0  0
   -1.0962   18.5190  -27.2311 H   0  0  0  0  0  0  0  0  0  0  0  0
   -3.1762   19.7517  -28.0819 H   0  0  0  0  0  0  0  0  0  0  0  0
   -2.5077   20.2838  -26.4828 H   0  0  0  0  0  0  0  0  0  0  0  0
   -7.7489   23.3674  -29.6376 H   0  0  0  0  0  0  0  0  0  0  0  0
   -8.6006   21.2138  -30.5617 H   0  0  0  0  0  0  0  0  0  0  0  0
  1  2  1  0
  2  3  2  0
  2  4  2  0
  2  5  1  0
  5  6  2  0
  6  7  1  0
  7  8  2  0
  8  9  1  0
  9 10  2  0
  9 11  2  0
  9 12  1  0
 12 13  1  0
 13 14  2  0
 14 15  1  0
 15 16  2  0
 16 17  1  0
 17 18  2  0
 18 19  1  0
 16 20  1  0
 20 21  1  0
 21 22  1  0
 22 23  1  0
  8 24  1  0
 24 25  2  0
 25  5  1  0
 18 13  1  0
 23 15  1  0
  1 26  1  0
  1 27  1  0
  1 28  1  0
  6 29  1  0
  7 30  1  0
 14 31  1  0
 17 32  1  0
 20 33  1  0
 20 34  1  0
 21 35  1  0
 22 36  1  0
 22 37  1  0
 23 38  1  0
 23 39  1  0
 24 40  1  0
 25 41  1  0
M  CHG  2  12  -1  19  -1
M  END
>  <UniqueID>  (17) 
17

>  <SMILES>  (17) 
CS(=O)(=O)c1ccc(S(=O)(=O)[N-]c2cc3c(cc2[O-])CNCC3)cc1

>  <Energy>  (17) 
44.78193129971907

>  <Genealogy>  (17) 
CS(=O)(=O)c1ccc(S(=O)(=O)[N-]c2cc3c(cc2[O-])CNCC3)cc1 (protonated)
CS(=O)(=O)c1ccc(S(=O)(=O)[N-]c2cc3c(cc2[O-])CNCC3)cc1 (3D coordinates assigned)
CS(=O)(=O)c1ccc(S(=O)(=O)[N-]c2cc3c(cc2[O-])CNCC3)cc1 (nonaromatic ring conformer: 44.78193129971907 kcal/mol)

>  <smiles>  (17) 
CS(=O)(=O)c1ccc(S(=O)(=O)Nc2cc3c(cc2O)CNCC3)cc1

>  <score_type>  (17) 
oracle

>  <origin>  (17) 
adgpu

>  <m_score__min__energy>  (17) 
-14.19

>  <m_primary>  (17) 
energy

$$$$
17:0
     RDKit          3D

 64 68  0  0  0  0  0  0  0  0999 V2000
    2.5430   27.9980  -35.0110 C   0  0  0  0  0  0  0  0  0  0  0  0
    1.5830   26.9430  -35.5690 C   0  0  1  0  0  0  0  0  0  0  0  0
    0.0940   27.3190  -35.3100 C   0  0  0  0  0  0  0  0  0  0  0  0
   -0.4910   27.3520  -36.6780 C   0  0  0  0  0  0  0  0  0  0  0  0
   -1.8210   27.5820  -37.0360 C   0  0  0  0  0  0  0  0  0  0  0  0
   -2.1670   27.5300  -38.3960 C   0  0  0  0  0  0  0  0  0  0  0  0
   -1.1820   27.2690  -39.3670 C   0  0  0  0  0  0  0  0  0  0  0  0
    0.1510   27.0490  -38.9830 C   0  0  0  0  0  0  0  0  0  0  0  0
    0.4660   27.0840  -37.6200 C   0  0  0  0  0  0  0  0  0  0  0  0
    1.7300   26.8350  -37.0270 N   0  0  0  0  0  0  0  0  0  0  0  0
    2.9720   25.8830  -37.7840 S   0  0  0  0  0  0  0  0  0  0  0  0
    2.5330   25.5050  -39.1700 O   0  0  0  0  0  0  0  0  0  0  0  0
    4.2380   26.6870  -37.8970 O   0  0  0  0  0  0  0  0  0  0  0  0
    3.2900   24.4590  -36.7880 C   0  0  0  0  0  0  0  0  0  0  0  0
    4.5960   24.2510  -36.3230 C   0  0  0  0  0  0  0  0  0  0  0  0
    4.8840   23.1740  -35.4810 C   0  0  0  0  0  0  0  0  0  0  0  0
    3.8640   22.3190  -35.0650 C   0  0  0  0  0  0  0  0  0  0  0  0
    2.5430   22.5290  -35.4880 C   0  0  0  0  0  0  0  0  0  0  0  0
    1.5060   21.6680  -34.9880 N   0  0  0  0  0  0  0  0  0  0  0  0
    1.7560   20.3280  -34.5290 C   0  0  0  0  0  0  0  0  0  0  0  0
    2.8910   19.8070  -34.6890 O   0  0  0  0  0  0  0  0  0  0  0  0
    0.7080   19.5220  -33.9770 N   0  0  0  0  0  0  0  0  0  0  0  0
   -0.6140   19.9430  -33.6160 C   0  0  0  0  0  0  0  0  0  0  0  0
   -1.7610   19.2320  -34.0110 C   0  0  0  0  0  0  0  0  0  0  0  0
   -3.0330   19.6970  -33.6680 C   0  0  0  0  0  0  0  0  0  0  0  0
   -3.1780   20.8880  -32.9360 C   0  0  0  0  0  0  0  0  0  0  0  0
   -4.5200   21.3990  -32.5900 C   0  0  0  0  0  0  0  0  0  0  0  0
   -4.6620   22.6400  -32.3930 O   0  0  0  0  0  0  0  0  0  0  0  0
   -5.6600   20.5150  -32.4840 N   0  0  0  0  0  0  0  0  0  0  0  0
   -5.4970   19.2100  -31.8330 C   0  0  0  0  0  0  0  0  0  0  0  0
   -6.6750   18.2940  -32.1760 C   0  0  0  0  0  0  0  0  0  0  0  0
   -7.9060   18.9370  -31.9070 O   0  0  0  0  0  0  0  0  0  0  0  0
   -8.0650   20.0380  -32.7830 C   0  0  0  0  0  0  0  0  0  0  0  0
   -7.0040   21.1100  -32.5130 C   0  0  0  0  0  0  0  0  0  0  0  0
   -2.0340   21.6170  -32.5770 C   0  0  0  0  0  0  0  0  0  0  0  0
   -0.7620   21.1430  -32.9070 C   0  0  0  0  0  0  0  0  0  0  0  0
    2.2670   23.5690  -36.4020 C   0  0  0  0  0  0  0  0  0  0  0  0
    0.9870   23.7010  -36.9320 O   0  0  0  0  0  0  0  0  0  0  0  0
    2.5185   27.9711  -33.9116 H   0  0  0  0  0  0  0  0  0  0  0  0
    3.5642   27.7858  -35.3603 H   0  0  0  0  0  0  0  0  0  0  0  0
    2.2357   28.9948  -35.3603 H   0  0  0  0  0  0  0  0  0  0  0  0
    1.8352   26.0004  -35.0611 H   0  0  0  0  0  0  0  0  0  0  0  0
   -0.4019   26.5600  -34.6871 H   0  0  0  0  0  0  0  0  0  0  0  0
   -0.0231   28.2688  -34.7676 H   0  0  0  0  0  0  0  0  0  0  0  0
   -2.5803   27.7989  -36.2702 H   0  0  0  0  0  0  0  0  0  0  0  0
   -3.2105   27.6937  -38.7033 H   0  0  0  0  0  0  0  0  0  0  0  0
   -1.4575   27.2372  -40.4315 H   0  0  0  0  0  0  0  0  0  0  0  0
    0.9289   26.8538  -39.7358 H   0  0  0  0  0  0  0  0  0  0  0  0
    5.3992   24.9402  -36.6230 H   0  0  0  0  0  0  0  0  0  0  0  0
    5.9171   23.0002  -35.1456 H   0  0  0  0  0  0  0  0  0  0  0  0
    4.0968   21.4739  -34.4005 H   0  0  0  0  0  0  0  0  0  0  0  0
    0.5180   21.9350  -35.1880 H   0  0  0  0  0  0  0  0  0  0  0  0
   -1.6562   18.3046  -34.5932 H   0  0  0  0  0  0  0  0  0  0  0  0
   -3.9245   19.1288  -33.9720 H   0  0  0  0  0  0  0  0  0  0  0  0
   -4.5627   18.7452  -32.1808 H   0  0  0  0  0  0  0  0  0  0  0  0
   -5.4626   19.3557  -30.7432 H   0  0  0  0  0  0  0  0  0  0  0  0
   -6.6301   18.0332  -33.2437 H   0  0  0  0  0  0  0  0  0  0  0  0
   -6.6083   17.3870  -31.5572 H   0  0  0  0  0  0  0  0  0  0  0  0
   -7.9678   19.6887  -33.8215 H   0  0  0  0  0  0  0  0  0  0  0  0
   -9.0593   20.4783  -32.6169 H   0  0  0  0  0  0  0  0  0  0  0  0
   -7.0461   21.8683  -33.3088 H   0  0  0  0  0  0  0  0  0  0  0  0
   -7.2079   21.5711  -31.5353 H   0  0  0  0  0  0  0  0  0  0  0  0
   -2.1394   22.5670  -32.0327 H   0  0  0  0  0  0  0  0  0  0  0  0
    0.1289   21.7150  -32.6086 H   0  0  0  0  0  0  0  0  0  0  0  0
  1  2  1  0
  2  3  1  0
  3  4  1  0
  4  5  2  0
  5  6  1  0
  6  7  2  0
  7  8  1  0
  8  9  2  0
  9 10  1  0
 10 11  1  0
 11 12  2  0
 11 13  2  0
 11 14  1  0
 14 15  2  0
 15 16  1  0
 16 17  2  0
 17 18  1  0
 18 19  1  0
 19 20  1  0
 20 21  2  0
 20 22  1  0
 22 23  1  0
 23 24  2  0
 24 25  1  0
 25 26  2  0
 26 27  1  0
 27 28  2  0
 27 29  1  0
 29 30  1  0
 30 31  1  0
 31 32  1  0
 32 33  1  0
 33 34  1  0
 26 35  1  0
 35 36  2  0
 18 37  2  0
 37 38  1  0
 10  2  1  0
 37 14  1  0
  9  4  1  0
 36 23  1  0
 34 29  1  0
  1 39  1  0
  1 40  1  0
  1 41  1  0
  2 42  1  1
  3 43  1  0
  3 44  1  0
  5 45  1  0
  6 46  1  0
  7 47  1  0
  8 48  1  0
 15 49  1  0
 16 50  1  0
 17 51  1  0
 19 52  1  0
 24 53  1  0
 25 54  1  0
 30 55  1  0
 30 56  1  0
 31 57  1  0
 31 58  1  0
 33 59  1  0
 33 60  1  0
 34 61  1  0
 34 62  1  0
 35 63  1  0
 36 64  1  0
M  CHG  2  22  -1  38  -1
M  END
>  <UniqueID>  (18) 
18

>  <SMILES>  (18) 
C[C@H]1Cc2ccccc2N1S(=O)(=O)c1cccc(NC(=O)[N-]c2ccc(C(=O)N3CCOCC3)cc2)c1[O-]

>  <Energy>  (18) 
99.80656010294672

>  <Genealogy>  (18) 
CC1Cc2ccccc2N1S(=O)(=O)c1cccc(NC(=O)[N-]c2ccc(C(=O)N3CCOCC3)cc2)c1[O-] (protonated)
C[C@H]1Cc2ccccc2N1S(=O)(=O)c1cccc(NC(=O)[N-]c2ccc(C(=O)N3CCOCC3)cc2)c1[O-] (chirality)
C[C@H]1Cc2ccccc2N1S(=O)(=O)c1cccc(NC(=O)[N-]c2ccc(C(=O)N3CCOCC3)cc2)c1[O-] (3D coordinates assigned)
C[C@H]1Cc2ccccc2N1S(=O)(=O)c1cccc(NC(=O)[N-]c2ccc(C(=O)N3CCOCC3)cc2)c1[O-] (nonaromatic ring conformer: 99.80656010294672 kcal/mol)

>  <smiles>  (18) 
CC1Cc2ccccc2N1S(=O)(=O)c1cccc(NC(=O)Nc2ccc(C(=O)N3CCOCC3)cc2)c1O

>  <score_type>  (18) 
oracle

>  <origin>  (18) 
adgpu

>  <m_score__min__energy>  (18) 
-13.6

>  <m_primary>  (18) 
energy

$$$$
18:0
     RDKit          3D

 48 50  0  0  0  0  0  0  0  0999 V2000
   -1.9620   22.6750  -30.8380 C   0  0  0  0  0  0  0  0  0  0  0  0
   -1.8440   23.2810  -29.4670 C   0  0  0  0  0  0  0  0  0  0  0  0
   -0.5820   23.3030  -28.8500 C   0  0  0  0  0  0  0  0  0  0  0  0
   -0.4260   23.8390  -27.5720 C   0  0  0  0  0  0  0  0  0  0  0  0
   -1.5290   24.3460  -26.8860 C   0  0  0  0  0  0  0  0  0  0  0  0
   -2.7990   24.3430  -27.4820 C   0  0  0  0  0  0  0  0  0  0  0  0
   -3.9720   24.9140  -26.7310 C   0  0  0  0  0  0  0  0  0  0  0  0
   -2.9580   23.8450  -28.7940 C   0  0  0  0  0  0  0  0  0  0  0  0
   -4.2630   23.8710  -29.3930 N   0  0  0  0  0  0  0  0  0  0  0  0
   -4.6850   24.8350  -30.3630 C   0  0  0  0  0  0  0  0  0  0  0  0
   -3.8630   25.6640  -30.8380 O   0  0  0  0  0  0  0  0  0  0  0  0
   -6.1330   24.9630  -30.7090 C   0  0  0  0  0  0  0  0  0  0  0  0
   -7.1400   23.6150  -29.9930 S   0  0  0  0  0  0  0  0  0  0  0  0
   -6.6510   22.3960  -31.2120 C   0  0  0  0  0  0  0  0  0  0  0  0
   -7.5510   21.4670  -31.6240 N   0  0  0  0  0  0  0  0  0  0  0  0
   -7.2240   20.5360  -32.5580 C   0  0  0  0  0  0  0  0  0  0  0  0
   -8.2750   19.5840  -33.0460 C   0  0  0  0  0  0  0  0  0  0  0  0
   -8.2720   18.0630  -32.0360 S   0  0  0  0  0  0  0  0  0  0  0  0
   -6.7530   17.4070  -32.7410 C   0  0  0  0  0  0  0  0  0  0  0  0
   -6.4810   17.5740  -34.1060 C   0  0  0  0  0  0  0  0  0  0  0  0
   -5.2900   17.0800  -34.6480 C   0  0  0  0  0  0  0  0  0  0  0  0
   -4.3710   16.4140  -33.8310 C   0  0  0  0  0  0  0  0  0  0  0  0
   -4.6450   16.2390  -32.4700 C   0  0  0  0  0  0  0  0  0  0  0  0
   -5.8350   16.7310  -31.9270 C   0  0  0  0  0  0  0  0  0  0  0  0
   -5.9340   20.5290  -33.1020 C   0  0  0  0  0  0  0  0  0  0  0  0
   -5.0170   21.4820  -32.6580 C   0  0  0  0  0  0  0  0  0  0  0  0
   -3.8460   21.4950  -33.1260 O   0  0  0  0  0  0  0  0  0  0  0  0
   -5.3880   22.3980  -31.7220 N   0  0  0  0  0  0  0  0  0  0  0  0
   -2.1715   21.5990  -30.7465 H   0  0  0  0  0  0  0  0  0  0  0  0
   -2.7820   23.1630  -31.3852 H   0  0  0  0  0  0  0  0  0  0  0  0
   -1.0188   22.8197  -31.3852 H   0  0  0  0  0  0  0  0  0  0  0  0
    0.2909   22.8938  -29.3797 H   0  0  0  0  0  0  0  0  0  0  0  0
    0.5693   23.8619  -27.1042 H   0  0  0  0  0  0  0  0  0  0  0  0
   -1.4025   24.7509  -25.8711 H   0  0  0  0  0  0  0  0  0  0  0  0
   -3.7925   24.8266  -25.6493 H   0  0  0  0  0  0  0  0  0  0  0  0
   -4.0972   25.9739  -26.9975 H   0  0  0  0  0  0  0  0  0  0  0  0
   -4.8834   24.3588  -26.9975 H   0  0  0  0  0  0  0  0  0  0  0  0
   -6.5047   25.9244  -30.3250 H   0  0  0  0  0  0  0  0  0  0  0  0
   -6.2236   24.9054  -31.8038 H   0  0  0  0  0  0  0  0  0  0  0  0
   -9.2616   20.0651  -32.9743 H   0  0  0  0  0  0  0  0  0  0  0  0
   -8.0595   19.3191  -34.0917 H   0  0  0  0  0  0  0  0  0  0  0  0
   -7.2046   18.0938  -34.7512 H   0  0  0  0  0  0  0  0  0  0  0  0
   -5.0759   17.2156  -35.7184 H   0  0  0  0  0  0  0  0  0  0  0  0
   -3.4336   16.0280  -34.2579 H   0  0  0  0  0  0  0  0  0  0  0  0
   -3.9233   15.7138  -31.8271 H   0  0  0  0  0  0  0  0  0  0  0  0
   -6.0513   16.5871  -30.8581 H   0  0  0  0  0  0  0  0  0  0  0  0
   -5.6495   19.7878  -33.8634 H   0  0  0  0  0  0  0  0  0  0  0  0
   -4.6940   23.1020  -31.3810 H   0  0  0  0  0  0  0  0  0  0  0  0
  1  2  1  0
  2  3  2  0
  3  4  1  0
  4  5  2  0
  5  6  1  0
  6  7  1  0
  6  8  2  0
  8  9  1  0
  9 10  1  0
 10 11  2  0
 10 12  1  0
 12 13  1  0
 13 14  1  0
 14 15  2  0
 15 16  1  0
 16 17  1  0
 17 18  1  0
 18 19  1  0
 19 20  2  0
 20 21  1  0
 21 22  2  0
 22 23  1  0
 23 24  2  0
 16 25  2  0
 25 26  1  0
 26 27  2  0
 26 28  1  0
  8  2  1  0
 28 14  1  0
 24 19  1  0
  1 29  1  0
  1 30  1  0
  1 31  1  0
  3 32  1  0
  4 33  1  0
  5 34  1  0
  7 35  1  0
  7 36  1  0
  7 37  1  0
 12 38  1  0
 12 39  1  0
 17 40  1  0
 17 41  1  0
 20 42  1  0
 21 43  1  0
 22 44  1  0
 23 45  1  0
 24 46  1  0
 25 47  1  0
 28 48  1  0
M  CHG  1   9  -1
M  END
>  <UniqueID>  (19) 
19

>  <SMILES>  (19) 
Cc1cccc(C)c1[N-]C(=O)CSc1nc(CSc2ccccc2)cc(=O)[nH]1

>  <Energy>  (19) 
47.14924258537197

>  <Genealogy>  (19) 
Cc1cccc(C)c1[N-]C(=O)CSc1nc(CSc2ccccc2)cc(=O)[nH]1 (protonated)
Cc1cccc(C)c1[N-]C(=O)CSc1nc(CSc2ccccc2)cc(=O)[nH]1 (3D coordinates assigned)
Cc1cccc(C)c1[N-]C(=O)CSc1nc(CSc2ccccc2)cc(=O)[nH]1 (optimized conformer: 47.14924258537197 kcal/mol)

>  <smiles>  (19) 
Cc1cccc(C)c1NC(=O)CSc1nc(CSc2ccccc2)cc(=O)[nH]1

>  <score_type>  (19) 
oracle

>  <origin>  (19) 
adgpu

>  <m_score__min__energy>  (19) 
-10.609999999999999

>  <m_primary>  (19) 
energy

$$$$
19:0
     RDKit          3D

 54 56  0  0  0  0  0  0  0  0999 V2000
   -1.8420   21.1480  -31.5140 C   0  0  0  0  0  0  0  0  0  0  0  0
   -2.4550   20.9250  -32.8600 C   0  0  0  0  0  0  0  0  0  0  0  0
   -2.9920   21.8990  -33.4490 O   0  0  0  0  0  0  0  0  0  0  0  0
   -2.4660   19.5890  -33.4950 C   0  0  0  0  0  0  0  0  0  0  0  0
   -1.3750   18.8890  -34.0010 C   0  0  0  0  0  0  0  0  0  0  0  0
    0.0630   19.3170  -33.9670 C   0  0  0  0  0  0  0  0  0  0  0  0
   -1.7870   17.7360  -34.5700 N   0  0  0  0  0  0  0  0  0  0  0  0
   -3.1260   17.6720  -34.4270 C   0  0  0  0  0  0  0  0  0  0  0  0
   -3.9590   16.5670  -35.0100 C   0  0  0  0  0  0  0  0  0  0  0  0
   -3.5880   18.7990  -33.7560 C   0  0  0  0  0  0  0  0  0  0  0  0
   -5.2770   19.2390  -33.4540 S   0  0  0  0  0  0  0  0  0  0  0  0
   -5.7760   18.6600  -32.1600 O   0  0  0  0  0  0  0  0  0  0  0  0
   -6.1150   18.6850  -34.5740 O   0  0  0  0  0  0  0  0  0  0  0  0
   -5.4650   20.9650  -33.4040 N   0  0  0  0  0  0  0  0  0  0  0  0
   -6.1290   21.6760  -32.3430 C   0  0  0  0  0  0  0  0  0  0  0  0
   -7.4390   21.3570  -31.9430 C   0  0  0  0  0  0  0  0  0  0  0  0
   -8.0600   22.0750  -30.9170 C   0  0  0  0  0  0  0  0  0  0  0  0
   -7.3830   23.1190  -30.2810 C   0  0  0  0  0  0  0  0  0  0  0  0
   -6.0760   23.4520  -30.6680 C   0  0  0  0  0  0  0  0  0  0  0  0
   -5.1890   24.7300  -29.8430 S   0  0  0  0  0  0  0  0  0  0  0  0
   -4.5500   25.6180  -30.8760 O   0  0  0  0  0  0  0  0  0  0  0  0
   -6.1270   25.5580  -29.0080 O   0  0  0  0  0  0  0  0  0  0  0  0
   -3.9600   24.0200  -28.8280 N   0  0  0  0  0  0  0  0  0  0  0  0
   -2.6870   23.9430  -29.5620 C   0  0  0  0  0  0  0  0  0  0  0  0
   -1.5440   23.5270  -28.6150 C   0  0  0  0  0  0  0  0  0  0  0  0
   -2.0410   22.6710  -27.4380 C   0  0  0  0  0  0  0  0  0  0  0  0
   -3.2380   21.8100  -27.8520 C   0  0  0  0  0  0  0  0  0  0  0  0
   -4.4030   22.6830  -28.3740 C   0  0  0  0  0  0  0  0  0  0  0  0
   -5.4570   22.7310  -31.6990 C   0  0  0  0  0  0  0  0  0  0  0  0
   -2.5688   20.8836  -30.7318 H   0  0  0  0  0  0  0  0  0  0  0  0
   -0.9462   20.5182  -31.4102 H   0  0  0  0  0  0  0  0  0  0  0  0
   -1.5603   22.2062  -31.4102 H   0  0  0  0  0  0  0  0  0  0  0  0
    0.3918   19.4149  -32.9219 H   0  0  0  0  0  0  0  0  0  0  0  0
    0.6818   18.5641  -34.4771 H   0  0  0  0  0  0  0  0  0  0  0  0
    0.1694   20.2857  -34.4771 H   0  0  0  0  0  0  0  0  0  0  0  0
   -1.1790   17.0340  -35.0500 H   0  0  0  0  0  0  0  0  0  0  0  0
   -4.4048   15.9757  -34.1966 H   0  0  0  0  0  0  0  0  0  0  0  0
   -4.7584   16.9986  -35.6302 H   0  0  0  0  0  0  0  0  0  0  0  0
   -3.3240   15.9173  -35.6302 H   0  0  0  0  0  0  0  0  0  0  0  0
   -4.9960   21.5120  -34.1620 H   0  0  0  0  0  0  0  0  0  0  0  0
   -7.9782   20.5375  -32.4406 H   0  0  0  0  0  0  0  0  0  0  0  0
   -9.0843   21.8176  -30.6094 H   0  0  0  0  0  0  0  0  0  0  0  0
   -7.8762   23.6815  -29.4745 H   0  0  0  0  0  0  0  0  0  0  0  0
   -2.7780   23.2002  -30.3682 H   0  0  0  0  0  0  0  0  0  0  0  0
   -2.4582   24.9329  -29.9836 H   0  0  0  0  0  0  0  0  0  0  0  0
   -0.8049   22.9466  -29.1868 H   0  0  0  0  0  0  0  0  0  0  0  0
   -1.1016   24.4444  -28.1996 H   0  0  0  0  0  0  0  0  0  0  0  0
   -1.2252   22.0145  -27.1010 H   0  0  0  0  0  0  0  0  0  0  0  0
   -2.3565   23.3420  -26.6255 H   0  0  0  0  0  0  0  0  0  0  0  0
   -2.9240   21.1182  -28.6475 H   0  0  0  0  0  0  0  0  0  0  0  0
   -3.5883   21.2543  -26.9697 H   0  0  0  0  0  0  0  0  0  0  0  0
   -4.8789   22.1647  -29.2195 H   0  0  0  0  0  0  0  0  0  0  0  0
   -5.1041   22.8324  -27.5396 H   0  0  0  0  0  0  0  0  0  0  0  0
   -4.4343   22.9932  -32.0078 H   0  0  0  0  0  0  0  0  0  0  0  0
  1  2  1  0
  2  3  2  0
  2  4  1  0
  4  5  2  0
  5  6  1  0
  5  7  1  0
  7  8  1  0
  8  9  1  0
  8 10  2  0
 10 11  1  0
 11 12  2  0
 11 13  2  0
 11 14  1  0
 14 15  1  0
 15 16  2  0
 16 17  1  0
 17 18  2  0
 18 19  1  0
 19 20  1  0
 20 21  2  0
 20 22  2  0
 20 23  1  0
 23 24  1  0
 24 25  1  0
 25 26  1  0
 26 27  1  0
 27 28  1  0
 19 29  2  0
 10  4  1  0
 29 15  1  0
 28 23  1  0
  1 30  1  0
  1 31  1  0
  1 32  1  0
  6 33  1  0
  6 34  1  0
  6 35  1  0
  7 36  1  0
  9 37  1  0
  9 38  1  0
  9 39  1  0
 14 40  1  0
 16 41  1  0
 17 42  1  0
 18 43  1  0
 24 44  1  0
 24 45  1  0
 25 46  1  0
 25 47  1  0
 26 48  1  0
 26 49  1  0
 27 50  1  0
 27 51  1  0
 28 52  1  0
 28 53  1  0
 29 54  1  0
M  END
>  <UniqueID>  (20) 
20

>  <SMILES>  (20) 
CC(=O)c1c(C)[nH]c(C)c1S(=O)(=O)Nc1cccc(S(=O)(=O)N2CCCCC2)c1

>  <Energy>  (20) 
86.84110136085377

>  <Genealogy>  (20) 
CC(=O)c1c(C)[nH]c(C)c1S(=O)(=O)Nc1cccc(S(=O)(=O)N2CCCCC2)c1 (3D coordinates assigned)
CC(=O)c1c(C)[nH]c(C)c1S(=O)(=O)Nc1cccc(S(=O)(=O)N2CCCCC2)c1 (nonaromatic ring conformer: 86.84110136085377 kcal/mol)

>  <smiles>  (20) 
CC(=O)c1c(C)[nH]c(C)c1S(=O)(=O)Nc1cccc(S(=O)(=O)N2CCCCC2)c1

>  <score_type>  (20) 
oracle

>  <origin>  (20) 
adgpu

>  <m_score__min__energy>  (20) 
-10.93

>  <m_primary>  (20) 
energy

$$$$
20:0
     RDKit          3D

 63 67  0  0  1  0  0  0  0  0999 V2000
   -4.5690   12.9680  -31.9250 C   0  0  0  0  0  0  0  0  0  0  0  0
   -5.2000   13.3610  -33.1100 O   0  0  0  0  0  0  0  0  0  0  0  0
   -5.3290   14.7040  -33.4240 C   0  0  0  0  0  0  0  0  0  0  0  0
   -4.2310   15.5060  -33.2070 C   0  0  0  0  0  0  0  0  0  0  0  0
   -4.2920   16.8500  -33.4980 C   0  0  0  0  0  0  0  0  0  0  0  0
   -5.4130   17.4810  -34.0100 C   0  0  0  0  0  0  0  0  0  0  0  0
   -5.4670   18.9370  -34.3270 C   0  0  0  0  0  0  0  0  0  0  0  0
   -4.8090   19.7910  -33.4640 N   0  0  0  0  0  0  0  0  0  0  0  0
   -5.1550   20.5460  -32.5510 C   0  0  0  0  0  0  0  0  0  0  0  0
   -4.2310   21.2600  -31.8840 N   0  0  0  0  0  0  0  0  0  0  0  0
   -4.5100   22.0760  -30.8560 C   0  0  0  0  0  0  0  0  0  0  0  0
   -3.5210   22.8520  -30.1270 C   0  0  0  0  0  0  0  0  0  0  0  0
   -3.9110   23.7650  -29.1420 C   0  0  0  0  0  0  0  0  0  0  0  0
   -3.0010   24.5130  -28.4340 C   0  0  0  0  0  0  0  0  0  0  0  0
   -1.6520   24.3900  -28.6720 C   0  0  0  0  0  0  0  0  0  0  0  0
   -0.5500   25.3600  -27.7480 S   0  0  0  0  0  0  0  0  0  0  0  0
    0.8630   24.8620  -27.8480 O   0  0  0  0  0  0  0  0  0  0  0  0
   -0.6240   26.7680  -28.2590 O   0  0  0  0  0  0  0  0  0  0  0  0
   -1.0330   25.3230  -26.0970 N   0  0  0  0  0  0  0  0  0  0  0  0
   -1.5330   26.5860  -25.6310 C   0  0  0  0  0  0  0  0  0  0  0  0
   -1.2090   26.6520  -24.1510 C   0  0  0  0  0  0  0  0  0  0  0  0
   -0.4590   25.3630  -23.8770 C   0  0  0  0  0  0  0  0  0  0  0  0
    0.1080   25.0370  -25.2390 C   0  0  0  0  0  0  0  0  0  0  0  0
   -1.2330   23.5010  -29.6320 C   0  0  0  0  0  0  0  0  0  0  0  0
   -2.1610   22.7560  -30.3370 C   0  0  0  0  0  0  0  0  0  0  0  0
   -5.7980   22.1720  -30.4860 N   0  0  0  0  0  0  0  0  0  0  0  0
   -6.7490   21.4740  -31.1300 C   0  0  0  0  0  0  0  0  0  0  0  0
   -8.0370   21.6170  -30.7100 C   0  0  0  0  0  0  0  0  0  0  0  0
   -8.9970   20.8970  -31.3900 C   0  0  0  0  0  0  0  0  0  0  0  0
   -8.7420   20.0670  -32.4350 C   0  0  0  0  0  0  0  0  0  0  0  0
   -9.8600   19.3440  -33.0900 C   0  0  0  0  0  0  0  0  0  0  0  0
   -7.4060   19.9160  -32.8740 C   0  0  0  0  0  0  0  0  0  0  0  0
   -6.4770   20.6300  -32.1920 C   0  0  0  0  0  0  0  0  0  0  0  0
   -6.5090   16.6320  -34.2180 C   0  0  0  0  0  0  0  0  0  0  0  0
   -6.4530   15.2840  -33.9270 C   0  0  0  0  0  0  0  0  0  0  0  0
   -5.1493   13.3294  -31.0633 H   0  0  0  0  0  0  0  0  0  0  0  0
   -4.5056   11.8704  -31.8900 H   0  0  0  0  0  0  0  0  0  0  0  0
   -3.5559   13.3951  -31.8900 H   0  0  0  0  0  0  0  0  0  0  0  0
   -3.3050   15.0727  -32.8011 H   0  0  0  0  0  0  0  0  0  0  0  0
   -3.3955   17.4599  -33.3125 H   0  0  0  0  0  0  0  0  0  0  0  0
   -5.0310   19.0753  -35.3274 H   0  0  0  0  0  0  0  0  0  0  0  0
   -6.5296   19.2086  -34.2429 H   0  0  0  0  0  0  0  0  0  0  0  0
   -3.2270   21.1940  -32.1620 H   0  0  0  0  0  0  0  0  0  0  0  0
   -4.9826   23.8886  -28.9266 H   0  0  0  0  0  0  0  0  0  0  0  0
   -3.3557   25.2183  -27.6680 H   0  0  0  0  0  0  0  0  0  0  0  0
   -1.0405   27.4114  -26.1659 H   0  0  0  0  0  0  0  0  0  0  0  0
   -2.6148   26.6777  -25.8080 H   0  0  0  0  0  0  0  0  0  0  0  0
   -0.5784   27.5253  -23.9282 H   0  0  0  0  0  0  0  0  0  0  0  0
   -2.1087   26.7570  -23.5268 H   0  0  0  0  0  0  0  0  0  0  0  0
    0.3403   25.5148  -23.1367 H   0  0  0  0  0  0  0  0  0  0  0  0
   -1.0867   24.5648  -23.4541 H   0  0  0  0  0  0  0  0  0  0  0  0
    0.9666   25.6801  -25.4825 H   0  0  0  0  0  0  0  0  0  0  0  0
    0.4970   24.0123  -25.3323 H   0  0  0  0  0  0  0  0  0  0  0  0
   -0.1595   23.3817  -29.8400 H   0  0  0  0  0  0  0  0  0  0  0  0
   -1.7972   22.0536  -31.1014 H   0  0  0  0  0  0  0  0  0  0  0  0
   -8.2989   22.2754  -29.8686 H   0  0  0  0  0  0  0  0  0  0  0  0
  -10.0421   21.0021  -31.0634 H   0  0  0  0  0  0  0  0  0  0  0  0
  -10.5207   18.9167  -32.3213 H   0  0  0  0  0  0  0  0  0  0  0  0
  -10.4318   20.0438  -33.7171 H   0  0  0  0  0  0  0  0  0  0  0  0
   -9.4563   18.5355  -33.7171 H   0  0  0  0  0  0  0  0  0  0  0  0
   -7.1376   19.2606  -33.7157 H   0  0  0  0  0  0  0  0  0  0  0  0
   -7.4405   17.0523  -34.6249 H   0  0  0  0  0  0  0  0  0  0  0  0
   -7.3416   14.6609  -34.1066 H   0  0  0  0  0  0  0  0  0  0  0  0
  1  2  1  0
  2  3  1  0
  3  4  2  0
  4  5  1  0
  5  6  2  0
  6  7  1  0
  7  8  1  0
  8  9  2  0
  9 10  1  0
 10 11  1  0
 11 12  1  0
 12 13  2  0
 13 14  1  0
 14 15  2  0
 15 16  1  0
 16 17  2  0
 16 18  2  0
 16 19  1  0
 19 20  1  0
 20 21  1  0
 21 22  1  0
 22 23  1  0
 15 24  1  0
 24 25  2  0
 11 26  2  0
 26 27  1  0
 27 28  2  0
 28 29  1  0
 29 30  2  0
 30 31  1  0
 30 32  1  0
 32 33  2  0
  6 34  1  0
 34 35  2  0
 35  3  1  0
 33  9  1  0
 25 12  1  0
 33 27  1  0
 23 19  1  0
  1 36  1  0
  1 37  1  0
  1 38  1  0
  4 39  1  0
  5 40  1  0
  7 41  1  0
  7 42  1  0
 10 43  1  0
 13 44  1  0
 14 45  1  0
 20 46  1  0
 20 47  1  0
 21 48  1  0
 21 49  1  0
 22 50  1  0
 22 51  1  0
 23 52  1  0
 23 53  1  0
 24 54  1  0
 25 55  1  0
 28 56  1  0
 29 57  1  0
 31 58  1  0
 31 59  1  0
 31 60  1  0
 32 61  1  0
 34 62  1  0
 35 63  1  0
M  END
>  <smiles>  (21) 
COc1ccc(CN=c2[nH]c(-c3ccc(S(=O)(=O)N4CCCC4)cc3)nc3ccc(C)cc23)cc1

>  <score_type>  (21) 
oracle

>  <origin>  (21) 
adgpu

>  <m_score__min__energy>  (21) 
-10.220000000000001

>  <m_primary>  (21) 
energy

$$$$
21:0
     RDKit          3D

 97103  0  0  1  0  0  0  0  0999 V2000
   -8.9670   21.8570  -31.6260 C   0  0  0  0  0  0  0  0  0  0  0  0
   -7.7850   22.5440  -31.9970 O   0  0  0  0  0  0  0  0  0  0  0  0
   -6.7120   21.7620  -32.3980 C   0  0  0  0  0  0  0  0  0  0  0  0
   -6.8420   20.5330  -32.9260 N   0  0  0  0  0  0  0  0  0  0  0  0
   -5.7970   19.8020  -33.3010 C   0  0  0  0  0  0  0  0  0  0  0  0
   -5.9720   18.4910  -33.8610 N   0  0  0  0  0  0  0  0  0  0  0  0
   -7.0950   17.6690  -33.4650 C   0  0  0  0  0  0  0  0  0  0  0  0
   -6.7940   16.1930  -33.4960 C   0  0  0  0  0  0  0  0  0  0  0  0
   -5.9430   15.8410  -34.5280 O   0  0  0  0  0  0  0  0  0  0  0  0
   -4.7370   16.5220  -34.4280 C   0  0  0  0  0  0  0  0  0  0  0  0
   -5.0250   17.9690  -34.8310 C   0  0  0  0  0  0  0  0  0  0  0  0
   -4.5530   20.2770  -33.1630 N   0  0  0  0  0  0  0  0  0  0  0  0
   -4.3350   21.4870  -32.6490 C   0  0  0  0  0  0  0  0  0  0  0  0
   -2.9600   21.9770  -32.5100 C   0  0  0  0  0  0  0  0  0  0  0  0
   -5.4350   22.2570  -32.2520 C   0  0  0  0  0  0  0  0  0  0  0  0
   -5.0650   23.8600  -31.5730 S   0  0  0  0  0  0  0  0  0  0  0  0
   -3.9160   23.7630  -30.2110 C   0  0  0  0  0  0  0  0  0  0  0  0
   -3.9230   22.6240  -29.4840 N   0  0  0  0  0  0  0  0  0  0  0  0
   -3.1090   22.4730  -28.4340 C   0  0  0  0  0  0  0  0  0  0  0  0
   -3.1690   21.2530  -27.7110 N   0  0  0  0  0  0  0  0  0  0  0  0
   -2.1470   20.2700  -27.7180 C   0  0  0  0  0  0  0  0  0  0  0  0
   -1.9640   19.4090  -26.6590 C   0  0  0  0  0  0  0  0  0  0  0  0
   -0.9530   18.4840  -26.7560 C   0  0  0  0  0  0  0  0  0  0  0  0
   -0.1200   18.3930  -27.8800 C   0  0  0  0  0  0  0  0  0  0  0  0
    0.8600   17.3770  -27.8340 N   0  0  0  0  0  0  0  0  0  0  0  0
    0.6520   15.9790  -28.0620 C   0  0  0  0  0  0  0  0  0  0  0  0
    1.9670   15.4730  -28.6730 C   0  0  0  0  0  0  0  0  0  0  0  0
    2.8930   15.4470  -27.6640 O   0  0  0  0  0  0  0  0  0  0  0  0
    3.0820   16.6620  -27.0820 C   0  0  0  0  0  0  0  0  0  0  0  0
    2.2220   17.7900  -27.5250 C   0  0  0  0  0  0  0  0  0  0  0  0
   -0.3030   19.2550  -28.9390 C   0  0  0  0  0  0  0  0  0  0  0  0
    0.6880   19.2330  -30.3570 S   0  0  0  0  0  0  0  0  0  0  0  0
    0.8880   17.7640  -30.7470 O   0  0  0  0  0  0  0  0  0  0  0  0
    2.0650   19.7620  -30.1520 O   0  0  0  0  0  0  0  0  0  0  0  0
   -0.1160   19.9670  -31.7260 N   0  0  0  0  0  0  0  0  0  0  0  0
   -1.0980   19.0460  -32.2280 C   0  0  0  0  0  0  0  0  0  0  0  0
   -1.5800   19.3320  -33.6110 C   0  0  0  0  0  0  0  0  0  0  0  0
   -0.5360   19.8270  -34.4830 N   0  0  0  0  0  0  0  0  0  0  0  0
   -0.7650   21.2010  -34.8510 C   0  0  0  0  0  0  0  0  0  0  0  0
    0.7620   19.5820  -33.9440 C   0  0  0  0  0  0  0  0  0  0  0  0
    0.9050   20.3350  -32.6490 C   0  0  0  0  0  0  0  0  0  0  0  0
   -1.3270   20.1750  -28.8150 C   0  0  0  0  0  0  0  0  0  0  0  0
   -2.2490   23.4980  -28.0950 C   0  0  0  0  0  0  0  0  0  0  0  0
   -2.2570   24.6460  -28.8480 C   0  0  0  0  0  0  0  0  0  0  0  0
   -1.4720   25.6250  -28.5820 N   0  0  0  0  0  0  0  0  0  0  0  0
   -0.5550   25.5670  -27.4930 C   0  0  0  0  0  0  0  0  0  0  0  0
    0.5570   24.7640  -27.6600 C   0  0  0  0  0  0  0  0  0  0  0  0
    1.4790   24.6810  -26.6260 C   0  0  0  0  0  0  0  0  0  0  0  0
    1.3190   25.3760  -25.4360 C   0  0  0  0  0  0  0  0  0  0  0  0
    2.2850   25.2860  -24.3620 C   0  0  0  0  0  0  0  0  0  0  0  0
    3.0600   25.2310  -23.5040 N   0  0  0  0  0  0  0  0  0  0  0  0
    0.1840   26.1830  -25.2930 C   0  0  0  0  0  0  0  0  0  0  0  0
   -0.7530   26.2790  -26.3230 C   0  0  0  0  0  0  0  0  0  0  0  0
   -3.0840   24.7820  -29.9020 N   0  0  0  0  0  0  0  0  0  0  0  0
   -9.0381   21.8157  -30.5291 H   0  0  0  0  0  0  0  0  0  0  0  0
   -9.8417   22.3874  -32.0304 H   0  0  0  0  0  0  0  0  0  0  0  0
   -8.9390   20.8344  -32.0304 H   0  0  0  0  0  0  0  0  0  0  0  0
   -7.3852   17.9446  -32.4404 H   0  0  0  0  0  0  0  0  0  0  0  0
   -7.9033   17.8517  -34.1883 H   0  0  0  0  0  0  0  0  0  0  0  0
   -6.3254   15.9098  -32.5420 H   0  0  0  0  0  0  0  0  0  0  0  0
   -7.7452   15.6643  -33.6563 H   0  0  0  0  0  0  0  0  0  0  0  0
   -4.3618   16.4821  -33.3947 H   0  0  0  0  0  0  0  0  0  0  0  0
   -3.9697   16.0724  -35.0753 H   0  0  0  0  0  0  0  0  0  0  0  0
   -4.0974   18.5599  -34.8114 H   0  0  0  0  0  0  0  0  0  0  0  0
   -5.4331   18.0223  -35.8511 H   0  0  0  0  0  0  0  0  0  0  0  0
   -2.7088   22.0665  -31.4428 H   0  0  0  0  0  0  0  0  0  0  0  0
   -2.2684   21.2700  -32.9915 H   0  0  0  0  0  0  0  0  0  0  0  0
   -2.8714   22.9621  -32.9915 H   0  0  0  0  0  0  0  0  0  0  0  0
   -4.0440   21.1020  -27.1440 H   0  0  0  0  0  0  0  0  0  0  0  0
   -2.6050   19.4601  -25.7665 H   0  0  0  0  0  0  0  0  0  0  0  0
   -0.7908   17.7880  -25.9197 H   0  0  0  0  0  0  0  0  0  0  0  0
    0.4415   15.4604  -27.1150 H   0  0  0  0  0  0  0  0  0  0  0  0
   -0.2078   15.7927  -28.7224 H   0  0  0  0  0  0  0  0  0  0  0  0
    1.8282   14.4624  -29.0846 H   0  0  0  0  0  0  0  0  0  0  0  0
    2.2972   16.1285  -29.4923 H   0  0  0  0  0  0  0  0  0  0  0  0
    2.9233   16.5349  -26.0010 H   0  0  0  0  0  0  0  0  0  0  0  0
    4.0978   16.9562  -27.3847 H   0  0  0  0  0  0  0  0  0  0  0  0
    2.1874   18.5412  -26.7222 H   0  0  0  0  0  0  0  0  0  0  0  0
    2.6609   18.1970  -28.4479 H   0  0  0  0  0  0  0  0  0  0  0  0
   -0.6561   18.0387  -32.2218 H   0  0  0  0  0  0  0  0  0  0  0  0
   -1.9746   19.1416  -31.5704 H   0  0  0  0  0  0  0  0  0  0  0  0
   -1.9843   18.4034  -34.0403 H   0  0  0  0  0  0  0  0  0  0  0  0
   -2.3463   20.1177  -33.5364 H   0  0  0  0  0  0  0  0  0  0  0  0
   -0.8668   21.8120  -33.9420 H   0  0  0  0  0  0  0  0  0  0  0  0
    0.0844   21.5677  -35.4460 H   0  0  0  0  0  0  0  0  0  0  0  0
   -1.6874   21.2724  -35.4460 H   0  0  0  0  0  0  0  0  0  0  0  0
    0.8876   18.5048  -33.7600 H   0  0  0  0  0  0  0  0  0  0  0  0
    1.5297   19.9186  -34.6563 H   0  0  0  0  0  0  0  0  0  0  0  0
    1.8868   20.1079  -32.2080 H   0  0  0  0  0  0  0  0  0  0  0  0
    0.8148   21.4110  -32.8589 H   0  0  0  0  0  0  0  0  0  0  0  0
   -1.4954   20.8746  -29.6470 H   0  0  0  0  0  0  0  0  0  0  0  0
   -1.5689   23.3968  -27.2363 H   0  0  0  0  0  0  0  0  0  0  0  0
    0.7084   24.2020  -28.5934 H   0  0  0  0  0  0  0  0  0  0  0  0
    2.3659   24.0431  -26.7542 H   0  0  0  0  0  0  0  0  0  0  0  0
    0.0293   26.7463  -24.3609 H   0  0  0  0  0  0  0  0  0  0  0  0
   -1.6422   26.9158  -26.2056 H   0  0  0  0  0  0  0  0  0  0  0  0
   -3.0860   25.6610  -30.4740 H   0  0  0  0  0  0  0  0  0  0  0  0
  1  2  1  0
  2  3  1  0
  3  4  2  0
  4  5  1  0
  5  6  1  0
  6  7  1  0
  7  8  1  0
  8  9  1  0
  9 10  1  0
 10 11  1  0
  5 12  2  0
 12 13  1  0
 13 14  1  0
 13 15  2  0
 15 16  1  0
 16 17  1  0
 17 18  2  0
 18 19  1  0
 19 20  1  0
 20 21  1  0
 21 22  2  0
 22 23  1  0
 23 24  2  0
 24 25  1  0
 25 26  1  0
 26 27  1  0
 27 28  1  0
 28 29  1  0
 29 30  1  0
 24 31  1  0
 31 32  1  0
 32 33  2  0
 32 34  2  0
 32 35  1  0
 35 36  1  0
 36 37  1  0
 37 38  1  0
 38 39  1  0
 38 40  1  0
 40 41  1  0
 31 42  2  0
 19 43  2  0
 43 44  1  0
 44 45  2  0
 45 46  1  0
 46 47  2  0
 47 48  1  0
 48 49  2  0
 49 50  1  0
 50 51  3  0
 49 52  1  0
 52 53  2  0
 44 54  1  0
 15  3  1  0
 54 17  1  0
 11  6  1  0
 42 21  1  0
 53 46  1  0
 30 25  1  0
 41 35  1  0
  1 55  1  0
  1 56  1  0
  1 57  1  0
  7 58  1  0
  7 59  1  0
  8 60  1  0
  8 61  1  0
 10 62  1  0
 10 63  1  0
 11 64  1  0
 11 65  1  0
 14 66  1  0
 14 67  1  0
 14 68  1  0
 20 69  1  0
 22 70  1  0
 23 71  1  0
 26 72  1  0
 26 73  1  0
 27 74  1  0
 27 75  1  0
 29 76  1  0
 29 77  1  0
 30 78  1  0
 30 79  1  0
 36 80  1  0
 36 81  1  0
 37 82  1  0
 37 83  1  0
 39 84  1  0
 39 85  1  0
 39 86  1  0
 40 87  1  0
 40 88  1  0
 41 89  1  0
 41 90  1  0
 42 91  1  0
 43 92  1  0
 47 93  1  0
 48 94  1  0
 52 95  1  0
 53 96  1  0
 54 97  1  0
M  END
>  <smiles>  (22) 
COc1nc(N2CCOCC2)nc(C)c1Sc1nc(Nc2ccc(N3CCOCC3)c(S(=O)(=O)N3CCN(C)CC3)c2)cc(=Nc2ccc(C#N)cc2)[nH]1

>  <score_type>  (22) 
oracle

>  <origin>  (22) 
adgpu

>  <m_score__min__energy>  (22) 
-10.800000000000001

>  <m_primary>  (22) 
energy

$$$$
22:0
     RDKit          3D

 50 53  0  0  0  0  0  0  0  0999 V2000
   -2.3860   25.2500  -29.3490 N   0  0  0  0  0  0  0  0  0  0  0  0
   -1.3350   24.2860  -29.3230 C   0  0  0  0  0  0  0  0  0  0  0  0
   -0.1680   24.6420  -29.0110 O   0  0  0  0  0  0  0  0  0  0  0  0
   -1.6230   22.8650  -29.6120 C   0  0  0  0  0  0  0  0  0  0  0  0
   -2.6310   22.5530  -30.5490 C   0  0  0  0  0  0  0  0  0  0  0  0
   -3.3300   23.6130  -31.2160 N   0  0  0  0  0  0  0  0  0  0  0  0
   -4.8280   24.2690  -30.6360 S   0  0  0  0  0  0  0  0  0  0  0  0
   -4.8100   24.2950  -29.1300 O   0  0  0  0  0  0  0  0  0  0  0  0
   -4.9980   25.6680  -31.1580 O   0  0  0  0  0  0  0  0  0  0  0  0
   -6.1540   23.2760  -31.2340 C   0  0  0  0  0  0  0  0  0  0  0  0
   -7.4560   23.7880  -31.3120 C   0  0  0  0  0  0  0  0  0  0  0  0
   -8.5090   22.9630  -31.7120 C   0  0  0  0  0  0  0  0  0  0  0  0
   -8.2700   21.6240  -32.0380 C   0  0  0  0  0  0  0  0  0  0  0  0
   -6.9680   21.1060  -31.9800 C   0  0  0  0  0  0  0  0  0  0  0  0
   -6.6610   19.4100  -32.3740 S   0  0  0  0  0  0  0  0  0  0  0  0
   -7.9660   18.7380  -32.6980 O   0  0  0  0  0  0  0  0  0  0  0  0
   -6.0720   18.7270  -31.1710 O   0  0  0  0  0  0  0  0  0  0  0  0
   -5.5690   19.2200  -33.7260 N   0  0  0  0  0  0  0  0  0  0  0  0
   -5.7260   17.9210  -34.3710 C   0  0  0  0  0  0  0  0  0  0  0  0
   -4.4050   17.6270  -35.0510 C   0  0  0  0  0  0  0  0  0  0  0  0
   -3.3690   18.3780  -34.2320 C   0  0  0  0  0  0  0  0  0  0  0  0
   -4.1630   19.3020  -33.3170 C   0  0  0  0  0  0  0  0  0  0  0  0
   -5.9140   21.9350  -31.5720 C   0  0  0  0  0  0  0  0  0  0  0  0
   -2.8910   21.2150  -30.8810 C   0  0  0  0  0  0  0  0  0  0  0  0
   -2.1560   20.1840  -30.3050 C   0  0  0  0  0  0  0  0  0  0  0  0
   -1.1420   20.4700  -29.3860 C   0  0  0  0  0  0  0  0  0  0  0  0
   -0.3990   19.4210  -28.8240 C   0  0  0  0  0  0  0  0  0  0  0  0
    0.6370   19.6950  -27.9320 C   0  0  0  0  0  0  0  0  0  0  0  0
    0.9270   21.0110  -27.5800 C   0  0  0  0  0  0  0  0  0  0  0  0
    0.1810   22.0660  -28.1130 C   0  0  0  0  0  0  0  0  0  0  0  0
   -0.8550   21.8170  -29.0360 C   0  0  0  0  0  0  0  0  0  0  0  0
   -3.0520   25.2900  -30.1460 H   0  0  0  0  0  0  0  0  0  0  0  0
   -7.6487   24.8408  -31.0579 H   0  0  0  0  0  0  0  0  0  0  0  0
   -9.5302   23.3675  -31.7710 H   0  0  0  0  0  0  0  0  0  0  0  0
   -9.1054   20.9755  -32.3407 H   0  0  0  0  0  0  0  0  0  0  0  0
   -5.9501   17.1474  -33.6218 H   0  0  0  0  0  0  0  0  0  0  0  0
   -6.5563   17.9284  -35.0924 H   0  0  0  0  0  0  0  0  0  0  0  0
   -4.1969   16.5469  -35.0420 H   0  0  0  0  0  0  0  0  0  0  0  0
   -4.4039   17.9378  -36.1062 H   0  0  0  0  0  0  0  0  0  0  0  0
   -2.7655   17.6754  -33.6385 H   0  0  0  0  0  0  0  0  0  0  0  0
   -2.6720   18.9388  -34.8721 H   0  0  0  0  0  0  0  0  0  0  0  0
   -4.0560   18.9786  -32.2711 H   0  0  0  0  0  0  0  0  0  0  0  0
   -3.7952   20.3358  -33.3942 H   0  0  0  0  0  0  0  0  0  0  0  0
   -4.8920   21.5320  -31.5163 H   0  0  0  0  0  0  0  0  0  0  0  0
   -3.6849   20.9786  -31.6048 H   0  0  0  0  0  0  0  0  0  0  0  0
   -2.3734   19.1397  -30.5736 H   0  0  0  0  0  0  0  0  0  0  0  0
   -0.6345   18.3794  -29.0878 H   0  0  0  0  0  0  0  0  0  0  0  0
    1.2265   18.8701  -27.5054 H   0  0  0  0  0  0  0  0  0  0  0  0
    1.7478   21.2213  -26.8785 H   0  0  0  0  0  0  0  0  0  0  0  0
    0.4042   23.0995  -27.8096 H   0  0  0  0  0  0  0  0  0  0  0  0
  1  2  1  0
  2  3  2  0
  2  4  1  0
  4  5  2  0
  5  6  1  0
  6  7  1  0
  7  8  2  0
  7  9  2  0
  7 10  1  0
 10 11  2  0
 11 12  1  0
 12 13  2  0
 13 14  1  0
 14 15  1  0
 15 16  2  0
 15 17  2  0
 15 18  1  0
 18 19  1  0
 19 20  1  0
 20 21  1  0
 21 22  1  0
 14 23  2  0
  5 24  1  0
 24 25  2  0
 25 26  1  0
 26 27  2  0
 27 28  1  0
 28 29  2  0
 29 30  1  0
 30 31  2  0
 31  4  1  0
 23 10  1  0
 31 26  1  0
 22 18  1  0
  1 32  1  0
 11 33  1  0
 12 34  1  0
 13 35  1  0
 19 36  1  0
 19 37  1  0
 20 38  1  0
 20 39  1  0
 21 40  1  0
 21 41  1  0
 22 42  1  0
 22 43  1  0
 23 44  1  0
 24 45  1  0
 25 46  1  0
 27 47  1  0
 28 48  1  0
 29 49  1  0
 30 50  1  0
M  CHG  2   1  -1   6  -1
M  END
>  <UniqueID>  (23) 
21

>  <SMILES>  (23) 
[NH-]C(=O)c1c([N-]S(=O)(=O)c2cccc(S(=O)(=O)N3CCCC3)c2)ccc2ccccc12

>  <Energy>  (23) 
70.03264365576017

>  <Genealogy>  (23) 
[NH-]C(=O)c1c([N-]S(=O)(=O)c2cccc(S(=O)(=O)N3CCCC3)c2)ccc2ccccc12 (protonated)
[NH-]C(=O)c1c([N-]S(=O)(=O)c2cccc(S(=O)(=O)N3CCCC3)c2)ccc2ccccc12 (3D coordinates assigned)
[NH-]C(=O)c1c([N-]S(=O)(=O)c2cccc(S(=O)(=O)N3CCCC3)c2)ccc2ccccc12 (nonaromatic ring conformer: 70.03264365576017 kcal/mol)

>  <smiles>  (23) 
NC(=O)c1c(NS(=O)(=O)c2cccc(S(=O)(=O)N3CCCC3)c2)ccc2ccccc12

>  <score_type>  (23) 
oracle

>  <origin>  (23) 
adgpu

>  <m_score__min__energy>  (23) 
-13.640000000000001

>  <m_primary>  (23) 
energy

$$$$
23:0
     RDKit          3D

 27 27  0  0  0  0  0  0  0  0999 V2000
   -4.2440   25.6740  -30.5860 N   0  0  0  0  0  0  0  0  0  0  0  0
   -4.7330   24.0200  -30.7080 S   0  0  0  0  0  0  0  0  0  0  0  0
   -5.6520   23.6810  -29.5690 O   0  0  0  0  0  0  0  0  0  0  0  0
   -5.4680   23.8250  -32.0040 O   0  0  0  0  0  0  0  0  0  0  0  0
   -3.3070   22.9770  -30.6420 C   0  0  0  0  0  0  0  0  0  0  0  0
   -3.3700   21.6790  -31.1770 C   0  0  0  0  0  0  0  0  0  0  0  0
   -2.2520   20.8450  -31.1360 C   0  0  0  0  0  0  0  0  0  0  0  0
   -2.3200   19.5940  -31.6550 F   0  0  0  0  0  0  0  0  0  0  0  0
   -1.0640   21.2970  -30.5640 C   0  0  0  0  0  0  0  0  0  0  0  0
   -0.9880   22.5840  -30.0270 C   0  0  0  0  0  0  0  0  0  0  0  0
   -2.1070   23.4380  -30.0620 C   0  0  0  0  0  0  0  0  0  0  0  0
   -2.0570   24.7660  -29.5180 N   0  0  0  0  0  0  0  0  0  0  0  0
   -1.1370   25.2730  -28.1400 S   0  0  0  0  0  0  0  0  0  0  0  0
    0.2300   24.6560  -28.2260 O   0  0  0  0  0  0  0  0  0  0  0  0
   -0.9910   26.7700  -28.1470 O   0  0  0  0  0  0  0  0  0  0  0  0
   -1.9380   24.7170  -26.6400 C   0  0  0  0  0  0  0  0  0  0  0  0
   -3.4480   24.9400  -26.6890 C   0  0  0  0  0  0  0  0  0  0  0  0
   -3.9900   24.3210  -27.8230 O   0  0  0  0  0  0  0  0  0  0  0  0
   -3.8700   25.8100  -29.6200 H   0  0  0  0  0  0  0  0  0  0  0  0
   -4.3052   21.3187  -31.6303 H   0  0  0  0  0  0  0  0  0  0  0  0
   -0.1837   20.6381  -30.5355 H   0  0  0  0  0  0  0  0  0  0  0  0
   -0.0482   22.9327  -29.5739 H   0  0  0  0  0  0  0  0  0  0  0  0
   -1.7405   23.6430  -26.5077 H   0  0  0  0  0  0  0  0  0  0  0  0
   -1.5329   25.2993  -25.7993 H   0  0  0  0  0  0  0  0  0  0  0  0
   -3.9083   24.5123  -25.7861 H   0  0  0  0  0  0  0  0  0  0  0  0
   -3.6508   26.0201  -26.7371 H   0  0  0  0  0  0  0  0  0  0  0  0
   -3.9790   25.0050  -28.5410 H   0  0  0  0  0  0  0  0  0  0  0  0
  1  2  1  0
  2  3  2  0
  2  4  2  0
  2  5  1  0
  5  6  2  0
  6  7  1  0
  7  8  1  0
  7  9  2  0
  9 10  1  0
 10 11  2  0
 11 12  1  0
 12 13  1  0
 13 14  2  0
 13 15  2  0
 13 16  1  0
 16 17  1  0
 17 18  1  0
 11  5  1  0
  1 19  1  0
  6 20  1  0
  9 21  1  0
 10 22  1  0
 16 23  1  0
 16 24  1  0
 17 25  1  0
 17 26  1  0
 18 27  1  0
M  CHG  2   1  -1  12  -1
M  END
>  <UniqueID>  (24) 
22

>  <SMILES>  (24) 
[NH-]S(=O)(=O)c1cc(F)ccc1[N-]S(=O)(=O)CCO

>  <Energy>  (24) 
22.741965726462

>  <Genealogy>  (24) 
[NH-]S(=O)(=O)c1cc(F)ccc1[N-]S(=O)(=O)CCO (protonated)
[NH-]S(=O)(=O)c1cc(F)ccc1[N-]S(=O)(=O)CCO (3D coordinates assigned)
[NH-]S(=O)(=O)c1cc(F)ccc1[N-]S(=O)(=O)CCO (optimized conformer: 22.741965726462 kcal/mol)

>  <smiles>  (24) 
NS(=O)(=O)c1cc(F)ccc1NS(=O)(=O)CCO

>  <score_type>  (24) 
oracle

>  <origin>  (24) 
adgpu

>  <m_score__min__energy>  (24) 
-8.9299999999999997

>  <m_primary>  (24) 
energy

$$$$
24:0
     RDKit          3D

 48 51  0  0  0  0  0  0  0  0999 V2000
   -5.6480   25.5750  -31.1260 N   0  0  0  0  0  0  0  0  0  0  0  0
   -4.7280   24.7090  -30.8520 C   0  0  0  0  0  0  0  0  0  0  0  0
   -4.6100   23.5750  -31.5900 N   0  0  0  0  0  0  0  0  0  0  0  0
   -3.6530   22.6450  -31.3210 C   0  0  0  0  0  0  0  0  0  0  0  0
   -3.5760   21.4170  -32.1530 C   0  0  0  0  0  0  0  0  0  0  0  0
   -2.3280   20.8370  -32.4280 C   0  0  0  0  0  0  0  0  0  0  0  0
   -2.2390   19.6750  -33.1960 C   0  0  0  0  0  0  0  0  0  0  0  0
   -3.3910   19.0640  -33.6990 C   0  0  0  0  0  0  0  0  0  0  0  0
   -3.2400   17.8940  -34.4460 O   0  0  0  0  0  0  0  0  0  0  0  0
   -4.6560   19.6320  -33.4330 C   0  0  0  0  0  0  0  0  0  0  0  0
   -6.1480   18.8900  -34.0290 S   0  0  0  0  0  0  0  0  0  0  0  0
   -5.8680   18.2670  -35.3690 O   0  0  0  0  0  0  0  0  0  0  0  0
   -7.2090   19.9410  -34.2160 O   0  0  0  0  0  0  0  0  0  0  0  0
   -6.7090   17.6570  -32.9170 N   0  0  0  0  0  0  0  0  0  0  0  0
   -7.1930   16.4580  -33.6250 C   0  0  0  0  0  0  0  0  0  0  0  0
   -6.0360   15.6160  -34.2110 C   0  0  0  0  0  0  0  0  0  0  0  0
   -4.7760   15.8940  -33.6230 O   0  0  0  0  0  0  0  0  0  0  0  0
   -4.9080   16.0430  -32.2280 C   0  0  0  0  0  0  0  0  0  0  0  0
   -5.6870   17.3300  -31.8990 C   0  0  0  0  0  0  0  0  0  0  0  0
   -4.7370   20.7990  -32.6530 C   0  0  0  0  0  0  0  0  0  0  0  0
   -2.7770   22.8650  -30.2460 C   0  0  0  0  0  0  0  0  0  0  0  0
   -2.8950   24.0480  -29.5030 C   0  0  0  0  0  0  0  0  0  0  0  0
   -2.0060   24.3290  -28.3510 C   0  0  0  0  0  0  0  0  0  0  0  0
   -1.9890   23.4360  -27.2640 C   0  0  0  0  0  0  0  0  0  0  0  0
   -1.1570   23.6710  -26.1660 C   0  0  0  0  0  0  0  0  0  0  0  0
   -0.3400   24.8020  -26.1360 C   0  0  0  0  0  0  0  0  0  0  0  0
   -0.3600   25.7070  -27.1980 C   0  0  0  0  0  0  0  0  0  0  0  0
   -1.1940   25.4840  -28.3000 C   0  0  0  0  0  0  0  0  0  0  0  0
   -1.2260   26.4290  -29.3210 O   0  0  0  0  0  0  0  0  0  0  0  0
   -3.8760   24.9360  -29.8200 N   0  0  0  0  0  0  0  0  0  0  0  0
   -6.3170   25.4280  -31.9150 H   0  0  0  0  0  0  0  0  0  0  0  0
   -1.4120   21.3022  -32.0349 H   0  0  0  0  0  0  0  0  0  0  0  0
   -1.2528   19.2359  -33.4074 H   0  0  0  0  0  0  0  0  0  0  0  0
   -4.0160   17.3220  -34.7490 H   0  0  0  0  0  0  0  0  0  0  0  0
   -7.7613   15.8352  -32.9185 H   0  0  0  0  0  0  0  0  0  0  0  0
   -7.8233   16.7927  -34.4620 H   0  0  0  0  0  0  0  0  0  0  0  0
   -6.2660   14.5519  -34.0533 H   0  0  0  0  0  0  0  0  0  0  0  0
   -5.9578   15.8741  -35.2774 H   0  0  0  0  0  0  0  0  0  0  0  0
   -5.4497   15.1768  -31.8202 H   0  0  0  0  0  0  0  0  0  0  0  0
   -3.9060   16.1067  -31.7787 H   0  0  0  0  0  0  0  0  0  0  0  0
   -6.1872   17.1997  -30.9280 H   0  0  0  0  0  0  0  0  0  0  0  0
   -4.9639   18.1586  -31.8773 H   0  0  0  0  0  0  0  0  0  0  0  0
   -5.7220   21.2351  -32.4305 H   0  0  0  0  0  0  0  0  0  0  0  0
   -2.0092   22.1199  -29.9905 H   0  0  0  0  0  0  0  0  0  0  0  0
   -2.6355   22.5461  -27.2785 H   0  0  0  0  0  0  0  0  0  0  0  0
   -1.1461   22.9633  -25.3240 H   0  0  0  0  0  0  0  0  0  0  0  0
    0.3203   24.9802  -25.2745 H   0  0  0  0  0  0  0  0  0  0  0  0
    0.2824   26.5995  -27.1691 H   0  0  0  0  0  0  0  0  0  0  0  0
  1  2  2  3
  2  3  1  0
  3  4  2  0
  4  5  1  0
  5  6  2  0
  6  7  1  0
  7  8  2  0
  8  9  1  0
  8 10  1  0
 10 11  1  0
 11 12  2  0
 11 13  2  0
 11 14  1  0
 14 15  1  0
 15 16  1  0
 16 17  1  0
 17 18  1  0
 18 19  1  0
 10 20  2  0
  4 21  1  0
 21 22  2  0
 22 23  1  0
 23 24  2  0
 24 25  1  0
 25 26  2  0
 26 27  1  0
 27 28  2  0
 28 29  1  0
 22 30  1  0
 30  2  1  0
 20  5  1  0
 28 23  1  0
 19 14  1  0
  1 31  1  0
  6 32  1  0
  7 33  1  0
  9 34  1  0
 15 35  1  0
 15 36  1  0
 16 37  1  0
 16 38  1  0
 18 39  1  0
 18 40  1  0
 19 41  1  0
 19 42  1  0
 20 43  1  0
 21 44  1  0
 24 45  1  0
 25 46  1  0
 26 47  1  0
 27 48  1  0
M  CHG  2  29  -1  30  -1
M  END
>  <UniqueID>  (25) 
23

>  <SMILES>  (25) 
N=c1nc(-c2ccc(O)c(S(=O)(=O)N3CCOCC3)c2)cc(-c2ccccc2[O-])[n-]1

>  <Energy>  (25) 
74.18653999421676

>  <Genealogy>  (25) 
N=c1nc(-c2ccc(O)c(S(=O)(=O)N3CCOCC3)c2)cc(-c2ccccc2[O-])[n-]1 (protonated)
N=c1nc(-c2ccc(O)c(S(=O)(=O)N3CCOCC3)c2)cc(-c2ccccc2[O-])[n-]1 (3D coordinates assigned)
N=c1nc(-c2ccc(O)c(S(=O)(=O)N3CCOCC3)c2)cc(-c2ccccc2[O-])[n-]1 (nonaromatic ring conformer: 74.18653999421676 kcal/mol)

>  <smiles>  (25) 
N=c1nc(-c2ccc(O)c(S(=O)(=O)N3CCOCC3)c2)cc(-c2ccccc2O)[nH]1

>  <score_type>  (25) 
oracle

>  <origin>  (25) 
adgpu

>  <m_score__min__energy>  (25) 
-13.1

>  <m_primary>  (25) 
energy

$$$$
25:0
     RDKit          3D

 46 48  0  0  0  0  0  0  0  0999 V2000
   -0.8690   26.6690  -27.9180 C   0  0  0  0  0  0  0  0  0  0  0  0
   -1.5620   25.9800  -28.9540 O   0  0  0  0  0  0  0  0  0  0  0  0
   -1.7650   24.5900  -28.9820 C   0  0  0  0  0  0  0  0  0  0  0  0
   -0.9180   23.6990  -28.2950 C   0  0  0  0  0  0  0  0  0  0  0  0
   -1.1810   22.3270  -28.3030 C   0  0  0  0  0  0  0  0  0  0  0  0
   -2.2920   21.8300  -28.9870 C   0  0  0  0  0  0  0  0  0  0  0  0
   -3.1350   22.7030  -29.6770 C   0  0  0  0  0  0  0  0  0  0  0  0
   -2.8620   24.0760  -29.7040 C   0  0  0  0  0  0  0  0  0  0  0  0
   -3.7530   24.9450  -30.4130 N   0  0  0  0  0  0  0  0  0  0  0  0
   -5.0210   24.5560  -30.9540 C   0  0  0  0  0  0  0  0  0  0  0  0
   -6.0130   25.3110  -30.7740 O   0  0  0  0  0  0  0  0  0  0  0  0
   -5.1810   23.3110  -31.6550 N   0  0  0  0  0  0  0  0  0  0  0  0
   -6.4600   22.6810  -31.8480 C   0  0  0  0  0  0  0  0  0  0  0  0
   -7.6320   23.3640  -31.4750 C   0  0  0  0  0  0  0  0  0  0  0  0
   -8.8790   22.7510  -31.5900 C   0  0  0  0  0  0  0  0  0  0  0  0
   -8.9710   21.4470  -32.0680 C   0  0  0  0  0  0  0  0  0  0  0  0
   -7.8190   20.7510  -32.4350 C   0  0  0  0  0  0  0  0  0  0  0  0
   -6.5510   21.3530  -32.3380 C   0  0  0  0  0  0  0  0  0  0  0  0
   -5.0790   20.4890  -32.8520 S   0  0  0  0  0  0  0  0  0  0  0  0
   -4.4250   19.9030  -31.6310 O   0  0  0  0  0  0  0  0  0  0  0  0
   -4.1470   21.4950  -33.4620 O   0  0  0  0  0  0  0  0  0  0  0  0
   -5.2940   19.2060  -34.0220 N   0  0  0  0  0  0  0  0  0  0  0  0
   -4.0790   18.4200  -34.2560 C   0  0  0  0  0  0  0  0  0  0  0  0
   -4.4780   16.9480  -34.3000 C   0  0  0  0  0  0  0  0  0  0  0  0
   -5.9920   16.9280  -34.2170 C   0  0  0  0  0  0  0  0  0  0  0  0
   -6.3790   18.2880  -33.6710 C   0  0  0  0  0  0  0  0  0  0  0  0
   -1.2256   26.3145  -26.9397 H   0  0  0  0  0  0  0  0  0  0  0  0
    0.2102   26.4754  -28.0071 H   0  0  0  0  0  0  0  0  0  0  0  0
   -1.0563   27.7493  -28.0071 H   0  0  0  0  0  0  0  0  0  0  0  0
   -0.0447   24.0854  -27.7492 H   0  0  0  0  0  0  0  0  0  0  0  0
   -0.5112   21.6367  -27.7692 H   0  0  0  0  0  0  0  0  0  0  0  0
   -2.5031   20.7505  -28.9822 H   0  0  0  0  0  0  0  0  0  0  0  0
   -4.0182   22.3102  -30.2021 H   0  0  0  0  0  0  0  0  0  0  0  0
   -4.3310   22.8060  -31.9850 H   0  0  0  0  0  0  0  0  0  0  0  0
   -7.5639   24.3917  -31.0888 H   0  0  0  0  0  0  0  0  0  0  0  0
   -9.7895   23.2976  -31.3032 H   0  0  0  0  0  0  0  0  0  0  0  0
   -9.9552   20.9637  -32.1567 H   0  0  0  0  0  0  0  0  0  0  0  0
   -7.9031   19.7185  -32.8049 H   0  0  0  0  0  0  0  0  0  0  0  0
   -3.6222   18.7128  -35.2129 H   0  0  0  0  0  0  0  0  0  0  0  0
   -3.3467   18.5961  -33.4543 H   0  0  0  0  0  0  0  0  0  0  0  0
   -4.1397   16.4873  -35.2399 H   0  0  0  0  0  0  0  0  0  0  0  0
   -4.0198   16.3794  -33.4774 H   0  0  0  0  0  0  0  0  0  0  0  0
   -6.4308   16.7736  -35.2138 H   0  0  0  0  0  0  0  0  0  0  0  0
   -6.3576   16.1100  -33.5789 H   0  0  0  0  0  0  0  0  0  0  0  0
   -7.3225   18.6246  -34.1255 H   0  0  0  0  0  0  0  0  0  0  0  0
   -6.5282   18.2495  -32.5818 H   0  0  0  0  0  0  0  0  0  0  0  0
  1  2  1  0
  2  3  1  0
  3  4  2  0
  4  5  1  0
  5  6  2  0
  6  7  1  0
  7  8  2  0
  8  9  1  0
  9 10  1  0
 10 11  2  0
 10 12  1  0
 12 13  1  0
 13 14  2  0
 14 15  1  0
 15 16  2  0
 16 17  1  0
 17 18  2  0
 18 19  1  0
 19 20  2  0
 19 21  2  0
 19 22  1  0
 22 23  1  0
 23 24  1  0
 24 25  1  0
 25 26  1  0
  8  3  1  0
 18 13  1  0
 26 22  1  0
  1 27  1  0
  1 28  1  0
  1 29  1  0
  4 30  1  0
  5 31  1  0
  6 32  1  0
  7 33  1  0
 12 34  1  0
 14 35  1  0
 15 36  1  0
 16 37  1  0
 17 38  1  0
 23 39  1  0
 23 40  1  0
 24 41  1  0
 24 42  1  0
 25 43  1  0
 25 44  1  0
 26 45  1  0
 26 46  1  0
M  CHG  1   9  -1
M  END
>  <UniqueID>  (26) 
24

>  <SMILES>  (26) 
COc1ccccc1[N-]C(=O)Nc1ccccc1S(=O)(=O)N1CCCC1

>  <Energy>  (26) 
62.25523317203347

>  <Genealogy>  (26) 
COc1ccccc1[N-]C(=O)Nc1ccccc1S(=O)(=O)N1CCCC1 (protonated)
COc1ccccc1[N-]C(=O)Nc1ccccc1S(=O)(=O)N1CCCC1 (3D coordinates assigned)
COc1ccccc1[N-]C(=O)Nc1ccccc1S(=O)(=O)N1CCCC1 (nonaromatic ring conformer: 62.25523317203347 kcal/mol)

>  <smiles>  (26) 
COc1ccccc1NC(=O)Nc1ccccc1S(=O)(=O)N1CCCC1

>  <score_type>  (26) 
oracle

>  <origin>  (26) 
adgpu

>  <m_score__min__energy>  (26) 
-10.74

>  <m_primary>  (26) 
energy

$$$$
26:0
     RDKit          3D

 56 60  0  0  0  0  0  0  0  0999 V2000
    2.1870   19.4810  -28.5910 O   0  0  0  0  0  0  0  0  0  0  0  0
    1.2320   18.6900  -28.8070 C   0  0  0  0  0  0  0  0  0  0  0  0
    0.8700   17.7840  -27.8170 O   0  0  0  0  0  0  0  0  0  0  0  0
    0.5050   18.7240  -30.0930 C   0  0  0  0  0  0  0  0  0  0  0  0
    0.1910   19.9520  -30.6970 C   0  0  0  0  0  0  0  0  0  0  0  0
   -0.4740   19.9890  -31.9250 C   0  0  0  0  0  0  0  0  0  0  0  0
   -0.8750   18.8000  -32.5590 C   0  0  0  0  0  0  0  0  0  0  0  0
   -1.5530   18.8350  -33.9180 C   0  0  0  0  0  0  0  0  0  0  0  0
   -2.8030   19.6280  -33.9770 N   0  0  0  0  0  0  0  0  0  0  0  0
   -3.9320   19.1150  -33.1660 C   0  0  0  0  0  0  0  0  0  0  0  0
   -4.4940   20.3050  -32.4930 C   0  0  0  0  0  0  0  0  0  0  0  0
   -5.5930   20.3700  -31.6360 C   0  0  0  0  0  0  0  0  0  0  0  0
   -5.9310   21.6120  -31.0730 C   0  0  0  0  0  0  0  0  0  0  0  0
   -5.1610   22.7590  -31.3660 C   0  0  0  0  0  0  0  0  0  0  0  0
   -5.5150   24.2850  -30.5590 S   0  0  0  0  0  0  0  0  0  0  0  0
   -6.8130   24.1550  -29.8110 O   0  0  0  0  0  0  0  0  0  0  0  0
   -5.6630   25.3660  -31.5940 O   0  0  0  0  0  0  0  0  0  0  0  0
   -4.2600   24.7420  -29.4460 N   0  0  0  0  0  0  0  0  0  0  0  0
   -3.2120   23.8690  -29.0100 C   0  0  0  0  0  0  0  0  0  0  0  0
   -3.4720   22.5310  -28.6760 C   0  0  0  0  0  0  0  0  0  0  0  0
   -2.4440   21.6980  -28.2130 C   0  0  0  0  0  0  0  0  0  0  0  0
   -1.1330   22.2060  -28.1060 C   0  0  0  0  0  0  0  0  0  0  0  0
   -0.8630   23.5200  -28.5160 C   0  0  0  0  0  0  0  0  0  0  0  0
   -1.8970   24.3490  -28.9610 C   0  0  0  0  0  0  0  0  0  0  0  0
   -1.6140   25.6570  -29.3420 O   0  0  0  0  0  0  0  0  0  0  0  0
   -0.0020   21.3130  -27.6630 C   0  0  0  0  0  0  0  0  0  0  0  0
   -0.4920   20.1990  -26.8390 N   0  0  0  0  0  0  0  0  0  0  0  0
   -1.5230   19.4450  -27.5640 C   0  0  0  0  0  0  0  0  0  0  0  0
   -2.7780   20.3050  -27.7410 C   0  0  0  0  0  0  0  0  0  0  0  0
   -4.0650   22.6590  -32.2430 C   0  0  0  0  0  0  0  0  0  0  0  0
   -3.7600   21.4140  -32.7930 C   0  0  0  0  0  0  0  0  0  0  0  0
   -2.6490   21.0740  -33.7020 C   0  0  0  0  0  0  0  0  0  0  0  0
   -0.5390   17.5720  -31.9650 C   0  0  0  0  0  0  0  0  0  0  0  0
    0.1390   17.5340  -30.7450 C   0  0  0  0  0  0  0  0  0  0  0  0
    0.4708   20.8923  -30.1994 H   0  0  0  0  0  0  0  0  0  0  0  0
   -0.6860   20.9580  -32.4006 H   0  0  0  0  0  0  0  0  0  0  0  0
   -0.8436   19.2629  -34.6417 H   0  0  0  0  0  0  0  0  0  0  0  0
   -1.8380   17.7970  -34.1447 H   0  0  0  0  0  0  0  0  0  0  0  0
   -4.6878   18.6430  -33.8110 H   0  0  0  0  0  0  0  0  0  0  0  0
   -3.6080   18.3488  -32.4463 H   0  0  0  0  0  0  0  0  0  0  0  0
   -6.1814   19.4694  -31.4064 H   0  0  0  0  0  0  0  0  0  0  0  0
   -6.7986   21.6913  -30.4015 H   0  0  0  0  0  0  0  0  0  0  0  0
   -4.4920   22.1322  -28.7785 H   0  0  0  0  0  0  0  0  0  0  0  0
    0.1687   23.9005  -28.4872 H   0  0  0  0  0  0  0  0  0  0  0  0
    0.5025   20.9063  -28.5518 H   0  0  0  0  0  0  0  0  0  0  0  0
    0.6959   21.9109  -27.0586 H   0  0  0  0  0  0  0  0  0  0  0  0
    0.3120   19.5530  -26.6680 H   0  0  0  0  0  0  0  0  0  0  0  0
   -1.1360   19.1583  -28.5530 H   0  0  0  0  0  0  0  0  0  0  0  0
   -1.7822   18.5445  -26.9878 H   0  0  0  0  0  0  0  0  0  0  0  0
   -3.4352   19.8266  -28.4821 H   0  0  0  0  0  0  0  0  0  0  0  0
   -3.2756   20.3867  -26.7634 H   0  0  0  0  0  0  0  0  0  0  0  0
   -3.4611   23.5447  -32.4898 H   0  0  0  0  0  0  0  0  0  0  0  0
   -2.7215   21.6540  -34.6339 H   0  0  0  0  0  0  0  0  0  0  0  0
   -1.6692   21.3068  -33.2596 H   0  0  0  0  0  0  0  0  0  0  0  0
   -0.8126   16.6316  -32.4658 H   0  0  0  0  0  0  0  0  0  0  0  0
    0.3889   16.5641  -30.2902 H   0  0  0  0  0  0  0  0  0  0  0  0
  1  2  2  0
  2  3  1  0
  2  4  1  0
  4  5  2  0
  5  6  1  0
  6  7  2  0
  7  8  1  0
  8  9  1  0
  9 10  1  0
 10 11  1  0
 11 12  2  0
 12 13  1  0
 13 14  2  0
 14 15  1  0
 15 16  2  0
 15 17  2  0
 15 18  1  0
 18 19  1  0
 19 20  2  0
 20 21  1  0
 21 22  2  0
 22 23  1  0
 23 24  2  0
 24 25  1  0
 22 26  1  0
 26 27  1  0
 27 28  1  0
 28 29  1  0
 14 30  1  0
 30 31  2  0
 31 32  1  0
  7 33  1  0
 33 34  2  0
 34  4  1  0
 32  9  1  0
 31 11  1  0
 24 19  1  0
 29 21  1  0
  5 35  1  0
  6 36  1  0
  8 37  1  0
  8 38  1  0
 10 39  1  0
 10 40  1  0
 12 41  1  0
 13 42  1  0
 20 43  1  0
 23 44  1  0
 26 45  1  0
 26 46  1  0
 27 47  1  0
 28 48  1  0
 28 49  1  0
 29 50  1  0
 29 51  1  0
 30 52  1  0
 32 53  1  0
 32 54  1  0
 33 55  1  0
 34 56  1  0
M  CHG  3   3  -1  18  -1  25  -1
M  END
>  <UniqueID>  (27) 
25

>  <SMILES>  (27) 
O=C([O-])c1ccc(CN2Cc3ccc(S(=O)(=O)[N-]c4cc5c(cc4[O-])CNCC5)cc3C2)cc1

>  <Energy>  (27) 
84.55828164539568

>  <Genealogy>  (27) 
O=C([O-])c1ccc(CN2Cc3ccc(S(=O)(=O)[N-]c4cc5c(cc4[O-])CNCC5)cc3C2)cc1 (protonated)
O=C([O-])c1ccc(CN2Cc3ccc(S(=O)(=O)[N-]c4cc5c(cc4[O-])CNCC5)cc3C2)cc1 (3D coordinates assigned)
O=C([O-])c1ccc(CN2Cc3ccc(S(=O)(=O)[N-]c4cc5c(cc4[O-])CNCC5)cc3C2)cc1 (nonaromatic ring conformer: 84.55828164539568 kcal/mol)

>  <smiles>  (27) 
O=C(O)c1ccc(CN2Cc3ccc(S(=O)(=O)Nc4cc5c(cc4O)CNCC5)cc3C2)cc1

>  <score_type>  (27) 
oracle

>  <origin>  (27) 
adgpu

>  <m_score__min__energy>  (27) 
-15.130000000000001

>  <m_primary>  (27) 
energy

$$$$
27:0
     RDKit          3D

 54 57  0  0  0  0  0  0  0  0999 V2000
   -0.6530   19.5230  -27.6310 C   0  0  0  0  0  0  0  0  0  0  0  0
   -1.7380   19.9960  -26.7480 N   0  0  0  0  0  0  0  0  0  0  0  0
   -1.2420   20.8660  -25.6600 C   0  0  0  0  0  0  0  0  0  0  0  0
   -0.6430   22.1830  -26.1840 C   0  0  0  0  0  0  0  0  0  0  0  0
   -1.4810   22.8010  -27.2750 C   0  0  0  0  0  0  0  0  0  0  0  0
   -1.1850   24.1020  -27.7100 C   0  0  0  0  0  0  0  0  0  0  0  0
   -1.9080   24.6800  -28.7560 C   0  0  0  0  0  0  0  0  0  0  0  0
   -1.6030   25.9740  -29.1660 O   0  0  0  0  0  0  0  0  0  0  0  0
   -2.9450   23.9710  -29.3770 C   0  0  0  0  0  0  0  0  0  0  0  0
   -3.6880   24.6000  -30.4300 N   0  0  0  0  0  0  0  0  0  0  0  0
   -5.3930   24.9120  -30.3790 S   0  0  0  0  0  0  0  0  0  0  0  0
   -5.7430   26.0560  -31.2860 O   0  0  0  0  0  0  0  0  0  0  0  0
   -5.7820   25.2850  -28.9780 O   0  0  0  0  0  0  0  0  0  0  0  0
   -6.2530   23.4450  -30.8330 C   0  0  0  0  0  0  0  0  0  0  0  0
   -7.6370   23.4620  -31.0670 C   0  0  0  0  0  0  0  0  0  0  0  0
   -8.2930   22.3000  -31.4870 C   0  0  0  0  0  0  0  0  0  0  0  0
   -7.5700   21.1130  -31.6820 C   0  0  0  0  0  0  0  0  0  0  0  0
   -8.3940   19.6370  -32.1850 S   0  0  0  0  0  0  0  0  0  0  0  0
   -8.9530   18.9290  -30.9810 O   0  0  0  0  0  0  0  0  0  0  0  0
   -9.5330   20.0030  -33.0980 O   0  0  0  0  0  0  0  0  0  0  0  0
   -7.2760   18.5980  -33.0310 N   0  0  0  0  0  0  0  0  0  0  0  0
   -6.4440   19.3940  -33.9520 C   0  0  0  0  0  0  0  0  0  0  0  0
   -5.2660   18.5580  -34.4920 C   0  0  0  0  0  0  0  0  0  0  0  0
   -5.4530   17.1820  -34.2160 O   0  0  0  0  0  0  0  0  0  0  0  0
   -5.4330   16.9670  -32.8150 C   0  0  0  0  0  0  0  0  0  0  0  0
   -6.4270   17.8790  -32.0660 C   0  0  0  0  0  0  0  0  0  0  0  0
   -6.1900   21.0950  -31.4380 C   0  0  0  0  0  0  0  0  0  0  0  0
   -5.5340   22.2570  -31.0220 C   0  0  0  0  0  0  0  0  0  0  0  0
   -3.2300   22.6620  -28.9560 C   0  0  0  0  0  0  0  0  0  0  0  0
   -2.4850   22.0600  -27.9320 C   0  0  0  0  0  0  0  0  0  0  0  0
   -2.8250   20.6490  -27.5030 C   0  0  0  0  0  0  0  0  0  0  0  0
    0.1849   19.1577  -27.0190 H   0  0  0  0  0  0  0  0  0  0  0  0
   -1.0267   18.7062  -28.2659 H   0  0  0  0  0  0  0  0  0  0  0  0
   -0.3089   20.3528  -28.2659 H   0  0  0  0  0  0  0  0  0  0  0  0
   -2.0801   21.1026  -24.9879 H   0  0  0  0  0  0  0  0  0  0  0  0
   -0.4433   20.3215  -25.1351 H   0  0  0  0  0  0  0  0  0  0  0  0
   -0.5696   22.8949  -25.3486 H   0  0  0  0  0  0  0  0  0  0  0  0
    0.3463   21.9565  -26.6082 H   0  0  0  0  0  0  0  0  0  0  0  0
   -0.3783   24.6703  -27.2240 H   0  0  0  0  0  0  0  0  0  0  0  0
   -8.2070   24.3912  -30.9198 H   0  0  0  0  0  0  0  0  0  0  0  0
   -9.3784   22.3167  -31.6649 H   0  0  0  0  0  0  0  0  0  0  0  0
   -7.0632   19.7312  -34.7964 H   0  0  0  0  0  0  0  0  0  0  0  0
   -6.0396   20.2572  -33.4030 H   0  0  0  0  0  0  0  0  0  0  0  0
   -5.1929   18.7001  -35.5803 H   0  0  0  0  0  0  0  0  0  0  0  0
   -4.3423   18.8927  -33.9973 H   0  0  0  0  0  0  0  0  0  0  0  0
   -5.6962   15.9179  -32.6148 H   0  0  0  0  0  0  0  0  0  0  0  0
   -4.4217   17.2047  -32.4535 H   0  0  0  0  0  0  0  0  0  0  0  0
   -7.0611   17.2651  -31.4095 H   0  0  0  0  0  0  0  0  0  0  0  0
   -5.8650   18.6092  -31.4652 H   0  0  0  0  0  0  0  0  0  0  0  0
   -5.6213   20.1633  -31.5743 H   0  0  0  0  0  0  0  0  0  0  0  0
   -4.4489   22.2389  -30.8422 H   0  0  0  0  0  0  0  0  0  0  0  0
   -4.0470   22.1025  -29.4350 H   0  0  0  0  0  0  0  0  0  0  0  0
   -3.7218   20.6829  -26.8669 H   0  0  0  0  0  0  0  0  0  0  0  0
   -2.9903   20.0591  -28.4166 H   0  0  0  0  0  0  0  0  0  0  0  0
  1  2  1  0
  2  3  1  0
  3  4  1  0
  4  5  1  0
  5  6  2  0
  6  7  1  0
  7  8  1  0
  7  9  2  0
  9 10  1  0
 10 11  1  0
 11 12  2  0
 11 13  2  0
 11 14  1  0
 14 15  2  0
 15 16  1  0
 16 17  2  0
 17 18  1  0
 18 19  2  0
 18 20  2  0
 18 21  1  0
 21 22  1  0
 22 23  1  0
 23 24  1  0
 24 25  1  0
 25 26  1  0
 17 27  1  0
 27 28  2  0
  9 29  1  0
 29 30  2  0
 30 31  1  0
 31  2  1  0
 30  5  1  0
 28 14  1  0
 26 21  1  0
  1 32  1  0
  1 33  1  0
  1 34  1  0
  3 35  1  0
  3 36  1  0
  4 37  1  0
  4 38  1  0
  6 39  1  0
 15 40  1  0
 16 41  1  0
 22 42  1  0
 22 43  1  0
 23 44  1  0
 23 45  1  0
 25 46  1  0
 25 47  1  0
 26 48  1  0
 26 49  1  0
 27 50  1  0
 28 51  1  0
 29 52  1  0
 31 53  1  0
 31 54  1  0
M  CHG  2   8  -1  10  -1
M  END
>  <UniqueID>  (28) 
26

>  <SMILES>  (28) 
CN1CCc2cc([O-])c([N-]S(=O)(=O)c3ccc(S(=O)(=O)N4CCOCC4)cc3)cc2C1

>  <Energy>  (28) 
73.55290781538945

>  <Genealogy>  (28) 
CN1CCc2cc([O-])c([N-]S(=O)(=O)c3ccc(S(=O)(=O)N4CCOCC4)cc3)cc2C1 (protonated)
CN1CCc2cc([O-])c([N-]S(=O)(=O)c3ccc(S(=O)(=O)N4CCOCC4)cc3)cc2C1 (3D coordinates assigned)
CN1CCc2cc([O-])c([N-]S(=O)(=O)c3ccc(S(=O)(=O)N4CCOCC4)cc3)cc2C1 (nonaromatic ring conformer: 73.55290781538945 kcal/mol)

>  <smiles>  (28) 
CN1CCc2cc(O)c(NS(=O)(=O)c3ccc(S(=O)(=O)N4CCOCC4)cc3)cc2C1

>  <score_type>  (28) 
oracle

>  <origin>  (28) 
adgpu

>  <m_score__min__energy>  (28) 
-15.56

>  <m_primary>  (28) 
energy

$$$$
28:0
     RDKit          3D

 60 63  0  0  0  0  0  0  0  0999 V2000
   -5.6090   26.6630  -28.9920 H   0  0  0  0  0  0  0  0  0  0  0  0
   -6.3570   26.0310  -29.2620 O   0  0  0  0  0  0  0  0  0  0  0  0
   -6.1100   24.8830  -30.0160 C   0  0  0  0  0  0  0  0  0  0  0  0
   -7.1070   23.9140  -30.1830 C   0  0  0  0  0  0  0  0  0  0  0  0
   -8.0862   24.0455  -29.6993 H   0  0  0  0  0  0  0  0  0  0  0  0
   -6.8610   22.7780  -30.9640 C   0  0  0  0  0  0  0  0  0  0  0  0
   -7.6512   22.0241  -31.0954 H   0  0  0  0  0  0  0  0  0  0  0  0
   -5.6100   22.5940  -31.5820 C   0  0  0  0  0  0  0  0  0  0  0  0
   -5.3650   21.4300  -32.4710 C   0  0  0  0  0  0  0  0  0  0  0  0
   -4.2850   21.3700  -33.1240 O   0  0  0  0  0  0  0  0  0  0  0  0
   -6.3380   20.3740  -32.5670 N   0  0  0  0  0  0  0  0  0  0  0  0
   -6.0870   19.1120  -32.7730 C   0  0  0  0  0  0  0  0  0  0  0  0
   -4.8160   18.6640  -32.9470 N   0  0  0  0  0  0  0  0  0  0  0  0
   -4.5030   17.3620  -33.2030 C   0  0  0  0  0  0  0  0  0  0  0  0
   -3.1530   17.0140  -33.3630 O   0  0  0  0  0  0  0  0  0  0  0  0
   -2.4910   16.7320  -34.5910 C   0  0  0  0  0  0  0  0  0  0  0  0
   -3.0800   17.1438  -35.4237 H   0  0  0  0  0  0  0  0  0  0  0  0
   -2.3921   15.6421  -34.7023 H   0  0  0  0  0  0  0  0  0  0  0  0
   -1.1160   17.3530  -34.5990 C   0  0  0  0  0  0  0  0  0  0  0  0
   -0.4340   17.2930  -35.6560 O   0  0  0  0  0  0  0  0  0  0  0  0
   -0.5200   17.9300  -33.4260 N   0  0  0  0  0  0  0  0  0  0  0  0
   -0.8620   19.1730  -32.7970 C   0  0  0  0  0  0  0  0  0  0  0  0
   -1.1800   20.3210  -33.5480 C   0  0  0  0  0  0  0  0  0  0  0  0
   -1.1934   20.2710  -34.6468 H   0  0  0  0  0  0  0  0  0  0  0  0
   -1.4790   21.5250  -32.9010 C   0  0  0  0  0  0  0  0  0  0  0  0
   -1.7649   22.4080  -33.4915 H   0  0  0  0  0  0  0  0  0  0  0  0
   -1.4160   21.6100  -31.5110 C   0  0  0  0  0  0  0  0  0  0  0  0
   -1.6700   22.5539  -31.0065 H   0  0  0  0  0  0  0  0  0  0  0  0
   -1.0290   20.4930  -30.7540 C   0  0  0  0  0  0  0  0  0  0  0  0
   -0.8340   20.6280  -29.0020 S   0  0  0  0  0  0  0  0  0  0  0  0
    0.6180   20.8810  -28.7050 O   0  0  0  0  0  0  0  0  0  0  0  0
   -1.2040   19.3220  -28.3530 O   0  0  0  0  0  0  0  0  0  0  0  0
   -1.8110   21.9060  -28.3040 N   0  0  0  0  0  0  0  0  0  0  0  0
   -1.5110   23.2030  -28.9270 C   0  0  0  0  0  0  0  0  0  0  0  0
   -0.4207   23.3386  -28.9796 H   0  0  0  0  0  0  0  0  0  0  0  0
   -1.9383   23.2249  -29.9404 H   0  0  0  0  0  0  0  0  0  0  0  0
   -2.1280   24.3430  -28.0920 C   0  0  0  0  0  0  0  0  0  0  0  0
   -1.3793   24.6918  -27.3655 H   0  0  0  0  0  0  0  0  0  0  0  0
   -2.4231   25.1419  -28.7881 H   0  0  0  0  0  0  0  0  0  0  0  0
   -3.3940   23.9030  -27.3240 C   0  0  0  0  0  0  0  0  0  0  0  0
   -3.0979   23.5077  -26.3411 H   0  0  0  0  0  0  0  0  0  0  0  0
   -4.0524   24.7767  -27.2089 H   0  0  0  0  0  0  0  0  0  0  0  0
   -4.1560   22.8210  -28.0870 C   0  0  0  0  0  0  0  0  0  0  0  0
   -5.0247   22.5061  -27.4901 H   0  0  0  0  0  0  0  0  0  0  0  0
   -4.4776   23.2385  -29.0525 H   0  0  0  0  0  0  0  0  0  0  0  0
   -3.2600   21.5890  -28.3620 C   0  0  0  0  0  0  0  0  0  0  0  0
   -3.4814   20.8185  -27.6089 H   0  0  0  0  0  0  0  0  0  0  0  0
   -3.4817   21.2397  -29.3812 H   0  0  0  0  0  0  0  0  0  0  0  0
   -0.7630   19.2770  -31.4050 C   0  0  0  0  0  0  0  0  0  0  0  0
   -0.4734   18.3959  -30.8135 H   0  0  0  0  0  0  0  0  0  0  0  0
   -5.5580   16.4310  -33.3190 C   0  0  0  0  0  0  0  0  0  0  0  0
   -5.3421   15.3751  -33.5389 H   0  0  0  0  0  0  0  0  0  0  0  0
   -6.8770   16.8580  -33.1530 C   0  0  0  0  0  0  0  0  0  0  0  0
   -7.7028   16.1367  -33.2411 H   0  0  0  0  0  0  0  0  0  0  0  0
   -7.1500   18.2010  -32.8750 C   0  0  0  0  0  0  0  0  0  0  0  0
   -8.1874   18.5401  -32.7376 H   0  0  0  0  0  0  0  0  0  0  0  0
   -4.6070   23.5630  -31.3870 C   0  0  0  0  0  0  0  0  0  0  0  0
   -3.6166   23.4224  -31.8445 H   0  0  0  0  0  0  0  0  0  0  0  0
   -4.8600   24.7050  -30.6150 C   0  0  0  0  0  0  0  0  0  0  0  0
   -3.8660   25.6670  -30.4580 O   0  0  0  0  0  0  0  0  0  0  0  0
  1  2  1  0
  2  3  1  0
  3  4  2  0
  4  5  1  0
  4  6  1  0
  6  7  1  0
  6  8  2  0
  8  9  1  0
  9 10  2  0
  9 11  1  0
 11 12  2  0
 12 13  1  0
 13 14  1  0
 14 15  1  0
 15 16  1  0
 16 17  1  0
 16 18  1  0
 16 19  1  0
 19 20  2  0
 19 21  1  0
 21 22  1  0
 22 23  2  0
 23 24  1  0
 23 25  1  0
 25 26  1  0
 25 27  2  0
 27 28  1  0
 27 29  1  0
 29 30  1  0
 30 31  2  0
 30 32  2  0
 30 33  1  0
 33 34  1  0
 34 35  1  0
 34 36  1  0
 34 37  1  0
 37 38  1  0
 37 39  1  0
 37 40  1  0
 40 41  1  0
 40 42  1  0
 40 43  1  0
 43 44  1  0
 43 45  1  0
 43 46  1  0
 46 47  1  0
 46 48  1  0
 29 49  2  0
 49 50  1  0
 14 51  2  0
 51 52  1  0
 51 53  1  0
 53 54  1  0
 53 55  2  0
 55 56  1  0
  8 57  1  0
 57 58  1  0
 57 59  2  0
 59 60  1  0
 59  3  1  0
 55 12  1  0
 49 22  1  0
 46 33  1  0
M  CHG  3  13  -1  21  -1  60  -1
M  END
>  <UniqueID>  (29) 
27

>  <SMILES>  (29) 
O=C(COc1ccc/c(=N/C(=O)c2ccc(O)c([O-])c2)[n-]1)[N-]c1cccc(S(=O)(=O)N2CCCCC2)c1

>  <Energy>  (29) 
80.55791590500873

>  <Genealogy>  (29) 
O=C(COc1cccc(=NC(=O)c2ccc(O)c([O-])c2)[n-]1)[N-]c1cccc(S(=O)(=O)N2CCCCC2)c1 (protonated)
O=C(COc1ccc/c(=N/C(=O)c2ccc(O)c([O-])c2)[n-]1)[N-]c1cccc(S(=O)(=O)N2CCCCC2)c1 (cis-trans isomerization)
O=C(COc1ccc/c(=N/C(=O)c2ccc(O)c([O-])c2)[n-]1)[N-]c1cccc(S(=O)(=O)N2CCCCC2)c1 (3D coordinates assigned)
O=C(COc1ccc/c(=N/C(=O)c2ccc(O)c([O-])c2)[n-]1)[N-]c1cccc(S(=O)(=O)N2CCCCC2)c1 (nonaromatic ring conformer: 80.55791590500873 kcal/mol)

>  <smiles>  (29) 
O=C(COc1cccc(=NC(=O)c2ccc(O)c(O)c2)[nH]1)Nc1cccc(S(=O)(=O)N2CCCCC2)c1

>  <score_type>  (29) 
oracle

>  <origin>  (29) 
adgpu

>  <m_score__min__energy>  (29) 
-15.1

>  <m_primary>  (29) 
energy

$$$$
29:0
     RDKit          3D

 50 52  0  0  0  0  0  0  0  0999 V2000
   -0.8530   22.2430  -25.5240 C   0  0  0  0  0  0  0  0  0  0  0  0
   -1.0800   21.8020  -26.9320 C   0  0  0  0  0  0  0  0  0  0  0  0
   -1.3530   20.5320  -27.2880 N   0  0  0  0  0  0  0  0  0  0  0  0
   -1.4990   20.5210  -28.5830 O   0  0  0  0  0  0  0  0  0  0  0  0
   -1.3380   21.7220  -29.0910 C   0  0  0  0  0  0  0  0  0  0  0  0
   -1.4350   22.0360  -30.5470 C   0  0  0  0  0  0  0  0  0  0  0  0
   -1.0760   22.6000  -28.0580 C   0  0  0  0  0  0  0  0  0  0  0  0
   -0.7530   24.3270  -28.1400 S   0  0  0  0  0  0  0  0  0  0  0  0
   -0.9760   24.9620  -26.7950 O   0  0  0  0  0  0  0  0  0  0  0  0
    0.6760   24.5420  -28.5490 O   0  0  0  0  0  0  0  0  0  0  0  0
   -1.8150   25.0320  -29.3150 N   0  0  0  0  0  0  0  0  0  0  0  0
   -3.1640   24.4990  -29.1570 C   0  0  0  0  0  0  0  0  0  0  0  0
   -3.8810   24.5850  -30.4710 C   0  0  0  0  0  0  0  0  0  0  0  0
   -4.3820   25.6820  -30.8320 O   0  0  0  0  0  0  0  0  0  0  0  0
   -4.0920   23.4250  -31.2850 N   0  0  0  0  0  0  0  0  0  0  0  0
   -5.3690   22.8420  -31.5770 C   0  0  0  0  0  0  0  0  0  0  0  0
   -6.5570   23.5360  -31.3140 C   0  0  0  0  0  0  0  0  0  0  0  0
   -7.7930   22.9340  -31.5600 C   0  0  0  0  0  0  0  0  0  0  0  0
   -7.8590   21.6230  -32.0450 C   0  0  0  0  0  0  0  0  0  0  0  0
   -9.1140   21.0410  -32.2210 O   0  0  0  0  0  0  0  0  0  0  0  0
   -6.6660   20.9160  -32.3130 C   0  0  0  0  0  0  0  0  0  0  0  0
   -6.6970   19.5860  -32.8590 N   0  0  0  0  0  0  0  0  0  0  0  0
   -7.1860   18.4760  -32.0290 C   0  0  0  0  0  0  0  0  0  0  0  0
   -7.2040   17.1600  -32.8150 C   0  0  0  0  0  0  0  0  0  0  0  0
   -5.8410   16.8800  -33.4720 C   0  0  0  0  0  0  0  0  0  0  0  0
   -5.1900   18.1250  -34.1220 C   0  0  0  0  0  0  0  0  0  0  0  0
   -6.1400   19.3240  -34.1910 C   0  0  0  0  0  0  0  0  0  0  0  0
   -5.4280   21.5290  -32.0580 C   0  0  0  0  0  0  0  0  0  0  0  0
   -1.2449   21.4816  -24.8336 H   0  0  0  0  0  0  0  0  0  0  0  0
    0.2252   22.3751  -25.3505 H   0  0  0  0  0  0  0  0  0  0  0  0
   -1.3720   23.1972  -25.3505 H   0  0  0  0  0  0  0  0  0  0  0  0
   -1.7574   23.0797  -30.6763 H   0  0  0  0  0  0  0  0  0  0  0  0
   -0.4514   21.8949  -31.0188 H   0  0  0  0  0  0  0  0  0  0  0  0
   -2.1677   21.3648  -31.0188 H   0  0  0  0  0  0  0  0  0  0  0  0
   -3.1099   23.4487  -28.8346 H   0  0  0  0  0  0  0  0  0  0  0  0
   -3.7072   25.0823  -28.3989 H   0  0  0  0  0  0  0  0  0  0  0  0
   -6.5163   24.5592  -30.9121 H   0  0  0  0  0  0  0  0  0  0  0  0
   -8.7207   23.4941  -31.3713 H   0  0  0  0  0  0  0  0  0  0  0  0
   -9.2640   20.2390  -32.8190 H   0  0  0  0  0  0  0  0  0  0  0  0
   -6.5261   18.3633  -31.1562 H   0  0  0  0  0  0  0  0  0  0  0  0
   -8.2140   18.7056  -31.7120 H   0  0  0  0  0  0  0  0  0  0  0  0
   -7.4461   16.3359  -32.1278 H   0  0  0  0  0  0  0  0  0  0  0  0
   -7.9610   17.2412  -33.6090 H   0  0  0  0  0  0  0  0  0  0  0  0
   -5.1576   16.4946  -32.7010 H   0  0  0  0  0  0  0  0  0  0  0  0
   -6.0190   16.1547  -34.2796 H   0  0  0  0  0  0  0  0  0  0  0  0
   -4.3075   18.4095  -33.5301 H   0  0  0  0  0  0  0  0  0  0  0  0
   -4.9201   17.8567  -35.1541 H   0  0  0  0  0  0  0  0  0  0  0  0
   -5.5875   20.2097  -34.5378 H   0  0  0  0  0  0  0  0  0  0  0  0
   -6.9578   19.1031  -34.8927 H   0  0  0  0  0  0  0  0  0  0  0  0
   -4.4966   20.9721  -32.2380 H   0  0  0  0  0  0  0  0  0  0  0  0
  1  2  1  0
  2  3  2  0
  3  4  1  0
  4  5  1  0
  5  6  1  0
  5  7  2  0
  7  8  1  0
  8  9  2  0
  8 10  2  0
  8 11  1  0
 11 12  1  0
 12 13  1  0
 13 14  2  0
 13 15  1  0
 15 16  1  0
 16 17  2  0
 17 18  1  0
 18 19  2  0
 19 20  1  0
 19 21  1  0
 21 22  1  0
 22 23  1  0
 23 24  1  0
 24 25  1  0
 25 26  1  0
 26 27  1  0
 21 28  2  0
  7  2  1  0
 28 16  1  0
 27 22  1  0
  1 29  1  0
  1 30  1  0
  1 31  1  0
  6 32  1  0
  6 33  1  0
  6 34  1  0
 12 35  1  0
 12 36  1  0
 17 37  1  0
 18 38  1  0
 20 39  1  0
 23 40  1  0
 23 41  1  0
 24 42  1  0
 24 43  1  0
 25 44  1  0
 25 45  1  0
 26 46  1  0
 26 47  1  0
 27 48  1  0
 27 49  1  0
 28 50  1  0
M  CHG  2  11  -1  15  -1
M  END
>  <UniqueID>  (30) 
28

>  <SMILES>  (30) 
Cc1noc(C)c1S(=O)(=O)[N-]CC(=O)[N-]c1ccc(O)c(N2CCCCC2)c1

>  <Energy>  (30) 
86.75253682152896

>  <Genealogy>  (30) 
Cc1noc(C)c1S(=O)(=O)[N-]CC(=O)[N-]c1ccc(O)c(N2CCCCC2)c1 (protonated)
Cc1noc(C)c1S(=O)(=O)[N-]CC(=O)[N-]c1ccc(O)c(N2CCCCC2)c1 (3D coordinates assigned)
Cc1noc(C)c1S(=O)(=O)[N-]CC(=O)[N-]c1ccc(O)c(N2CCCCC2)c1 (nonaromatic ring conformer: 86.75253682152896 kcal/mol)

>  <smiles>  (30) 
Cc1noc(C)c1S(=O)(=O)NCC(=O)Nc1ccc(O)c(N2CCCCC2)c1

>  <score_type>  (30) 
oracle

>  <origin>  (30) 
adgpu

>  <m_score__min__energy>  (30) 
-11.48

>  <m_primary>  (30) 
energy

$$$$
30:0
     RDKit          3D

 31 32  0  0  0  0  0  0  0  0999 V2000
   -0.5690   20.2215  -25.8615 H   0  0  0  0  0  0  0  0  0  0  0  0
   -0.8780   20.7900  -26.7510 C   0  0  0  0  0  0  0  0  0  0  0  0
   -0.8560   20.0800  -28.0460 C   0  0  0  0  0  0  0  0  0  0  0  0
   -1.2700   18.8910  -28.0920 O   0  0  0  0  0  0  0  0  0  0  0  0
   -0.2840   20.6830  -29.2130 N   0  0  0  0  0  0  0  0  0  0  0  0
   -0.7830   20.5310  -30.5490 C   0  0  0  0  0  0  0  0  0  0  0  0
   -1.4240   21.6270  -31.1400 C   0  0  0  0  0  0  0  0  0  0  0  0
   -1.5561   22.5562  -30.5662 H   0  0  0  0  0  0  0  0  0  0  0  0
   -1.8970   21.5500  -32.4520 C   0  0  0  0  0  0  0  0  0  0  0  0
   -2.3894   22.4199  -32.9111 H   0  0  0  0  0  0  0  0  0  0  0  0
   -1.7450   20.3700  -33.1800 C   0  0  0  0  0  0  0  0  0  0  0  0
   -2.1030   20.3154  -34.2187 H   0  0  0  0  0  0  0  0  0  0  0  0
   -1.1390   19.2580  -32.5920 C   0  0  0  0  0  0  0  0  0  0  0  0
   -1.0265   18.3286  -33.1695 H   0  0  0  0  0  0  0  0  0  0  0  0
   -0.6720   19.3170  -31.2690 C   0  0  0  0  0  0  0  0  0  0  0  0
   -0.1540   18.1260  -30.6640 N   0  0  0  0  0  0  0  0  0  0  0  0
    0.2750   17.3620  -31.2290 H   0  0  0  0  0  0  0  0  0  0  0  0
   -0.1060   18.0380  -29.6240 H   0  0  0  0  0  0  0  0  0  0  0  0
   -1.2420   22.0680  -26.5650 C   0  0  0  0  0  0  0  0  0  0  0  0
   -1.0668   22.5050  -25.5708 H   0  0  0  0  0  0  0  0  0  0  0  0
   -1.8590   22.9340  -27.5890 C   0  0  0  0  0  0  0  0  0  0  0  0
   -3.0270   22.5140  -28.2400 C   0  0  0  0  0  0  0  0  0  0  0  0
   -3.4873   21.5517  -27.9715 H   0  0  0  0  0  0  0  0  0  0  0  0
   -3.6100   23.3120  -29.2290 C   0  0  0  0  0  0  0  0  0  0  0  0
   -4.5360   22.9847  -29.7244 H   0  0  0  0  0  0  0  0  0  0  0  0
   -3.0160   24.5270  -29.5890 C   0  0  0  0  0  0  0  0  0  0  0  0
   -3.6040   25.3180  -30.5700 O   0  0  0  0  0  0  0  0  0  0  0  0
   -1.8320   24.9380  -28.9670 C   0  0  0  0  0  0  0  0  0  0  0  0
   -1.2310   26.1380  -29.3300 O   0  0  0  0  0  0  0  0  0  0  0  0
   -1.2470   24.1380  -27.9790 C   0  0  0  0  0  0  0  0  0  0  0  0
   -0.3050   24.4524  -27.5059 H   0  0  0  0  0  0  0  0  0  0  0  0
  1  2  1  0
  2  3  1  0
  3  4  2  0
  3  5  1  0
  5  6  1  0
  6  7  2  0
  7  8  1  0
  7  9  1  0
  9 10  1  0
  9 11  2  0
 11 12  1  0
 11 13  1  0
 13 14  1  0
 13 15  2  0
 15 16  1  0
 16 17  1  0
 16 18  1  0
  2 19  2  0
 19 20  1  0
 19 21  1  0
 21 22  2  0
 22 23  1  0
 22 24  1  0
 24 25  1  0
 24 26  2  0
 26 27  1  0
 26 28  1  0
 28 29  1  0
 28 30  2  0
 30 31  1  0
 15  6  1  0
 30 21  1  0
M  CHG  3   5  -1  27  -1  29  -1
M  END
>  <UniqueID>  (31) 
29

>  <SMILES>  (31) 
Nc1ccccc1[N-]C(=O)/C=C\c1ccc([O-])c([O-])c1

>  <Energy>  (31) 
45.28550541659894

>  <Genealogy>  (31) 
Nc1ccccc1[N-]C(=O)C=Cc1ccc([O-])c([O-])c1 (protonated)
Nc1ccccc1[N-]C(=O)/C=C\c1ccc([O-])c([O-])c1 (cis-trans isomerization)
Nc1ccccc1[N-]C(=O)/C=C\c1ccc([O-])c([O-])c1 (3D coordinates assigned)
Nc1ccccc1[N-]C(=O)/C=C\c1ccc([O-])c([O-])c1 (optimized conformer: 45.28550541659894 kcal/mol)

>  <smiles>  (31) 
Nc1ccccc1NC(=O)C=Cc1ccc(O)c(O)c1

>  <score_type>  (31) 
oracle

>  <origin>  (31) 
adgpu

>  <m_score__min__energy>  (31) 
-12.890000000000001

>  <m_primary>  (31) 
energy

$$$$
31:0
     RDKit          3D

 53 55  0  0  0  0  0  0  0  0999 V2000
   -0.1720   21.4070  -29.5460 C   0  0  0  0  0  0  0  0  0  0  0  0
   -1.0270   20.9780  -30.7030 C   0  0  0  0  0  0  0  0  0  0  0  0
   -0.4870   20.9130  -31.9960 C   0  0  0  0  0  0  0  0  0  0  0  0
   -1.2750   20.4860  -33.0700 C   0  0  0  0  0  0  0  0  0  0  0  0
   -2.6130   20.1110  -32.8610 C   0  0  0  0  0  0  0  0  0  0  0  0
   -3.4730   19.6680  -34.0140 C   0  0  0  0  0  0  0  0  0  0  0  0
   -3.2480   17.8810  -34.3440 S   0  0  0  0  0  0  0  0  0  0  0  0
   -4.8970   17.3330  -33.7730 C   0  0  0  0  0  0  0  0  0  0  0  0
   -5.6580   18.4890  -33.1340 C   0  0  0  0  0  0  0  0  0  0  0  0
   -7.0790   18.3670  -33.4530 N   0  0  0  0  0  0  0  0  0  0  0  0
   -8.0320   18.7210  -32.0440 S   0  0  0  0  0  0  0  0  0  0  0  0
   -9.4110   18.1470  -32.2210 O   0  0  0  0  0  0  0  0  0  0  0  0
   -7.3940   18.0850  -30.8420 O   0  0  0  0  0  0  0  0  0  0  0  0
   -8.1170   20.4640  -31.7910 C   0  0  0  0  0  0  0  0  0  0  0  0
   -9.2210   21.1780  -32.2710 C   0  0  0  0  0  0  0  0  0  0  0  0
   -9.3130   22.5540  -32.0580 C   0  0  0  0  0  0  0  0  0  0  0  0
   -8.3060   23.2260  -31.3590 C   0  0  0  0  0  0  0  0  0  0  0  0
   -7.1930   22.5230  -30.8620 C   0  0  0  0  0  0  0  0  0  0  0  0
   -6.1200   23.2260  -30.1190 C   0  0  0  0  0  0  0  0  0  0  0  0
   -6.3950   24.2760  -29.4790 O   0  0  0  0  0  0  0  0  0  0  0  0
   -4.7650   22.7490  -30.1590 N   0  0  0  0  0  0  0  0  0  0  0  0
   -3.7490   23.2090  -29.2530 C   0  0  0  0  0  0  0  0  0  0  0  0
   -3.4110   22.4180  -28.1430 C   0  0  0  0  0  0  0  0  0  0  0  0
   -2.4320   22.8450  -27.2420 C   0  0  0  0  0  0  0  0  0  0  0  0
   -1.7910   24.0710  -27.4340 C   0  0  0  0  0  0  0  0  0  0  0  0
   -2.1360   24.8770  -28.5210 C   0  0  0  0  0  0  0  0  0  0  0  0
   -3.1190   24.4580  -29.4260 C   0  0  0  0  0  0  0  0  0  0  0  0
   -3.4820   25.3010  -30.4700 O   0  0  0  0  0  0  0  0  0  0  0  0
   -7.1040   21.1370  -31.0920 C   0  0  0  0  0  0  0  0  0  0  0  0
   -3.1460   20.1570  -31.5640 C   0  0  0  0  0  0  0  0  0  0  0  0
   -2.3560   20.5800  -30.4900 C   0  0  0  0  0  0  0  0  0  0  0  0
   -0.6776   21.1533  -28.6026 H   0  0  0  0  0  0  0  0  0  0  0  0
    0.7968   20.8882  -29.5938 H   0  0  0  0  0  0  0  0  0  0  0  0
   -0.0088   22.4938  -29.5938 H   0  0  0  0  0  0  0  0  0  0  0  0
    0.5614   21.1992  -32.1662 H   0  0  0  0  0  0  0  0  0  0  0  0
   -0.8457   20.4436  -34.0819 H   0  0  0  0  0  0  0  0  0  0  0  0
   -4.5286   19.8598  -33.7711 H   0  0  0  0  0  0  0  0  0  0  0  0
   -3.1779   20.2321  -34.9111 H   0  0  0  0  0  0  0  0  0  0  0  0
   -5.4697   16.9553  -34.6329 H   0  0  0  0  0  0  0  0  0  0  0  0
   -4.7656   16.5389  -33.0232 H   0  0  0  0  0  0  0  0  0  0  0  0
   -5.5226   18.4595  -32.0428 H   0  0  0  0  0  0  0  0  0  0  0  0
   -5.2736   19.4432  -33.5235 H   0  0  0  0  0  0  0  0  0  0  0  0
  -10.0183   20.6530  -32.8176 H   0  0  0  0  0  0  0  0  0  0  0  0
  -10.1804   23.1115  -32.4412 H   0  0  0  0  0  0  0  0  0  0  0  0
   -8.3842   24.3111  -31.1965 H   0  0  0  0  0  0  0  0  0  0  0  0
   -4.4620   22.2040  -30.9960 H   0  0  0  0  0  0  0  0  0  0  0  0
   -3.9201   21.4563  -27.9818 H   0  0  0  0  0  0  0  0  0  0  0  0
   -2.1658   22.2149  -26.3805 H   0  0  0  0  0  0  0  0  0  0  0  0
   -1.0142   24.4018  -26.7288 H   0  0  0  0  0  0  0  0  0  0  0  0
   -1.6337   25.8447  -28.6668 H   0  0  0  0  0  0  0  0  0  0  0  0
   -6.2330   20.5772  -30.7206 H   0  0  0  0  0  0  0  0  0  0  0  0
   -4.1906   19.8589  -31.3908 H   0  0  0  0  0  0  0  0  0  0  0  0
   -2.7780   20.6008  -29.4744 H   0  0  0  0  0  0  0  0  0  0  0  0
  1  2  1  0
  2  3  2  0
  3  4  1  0
  4  5  2  0
  5  6  1  0
  6  7  1  0
  7  8  1  0
  8  9  1  0
  9 10  1  0
 10 11  1  0
 11 12  2  0
 11 13  2  0
 11 14  1  0
 14 15  2  0
 15 16  1  0
 16 17  2  0
 17 18  1  0
 18 19  1  0
 19 20  2  0
 19 21  1  0
 21 22  1  0
 22 23  2  0
 23 24  1  0
 24 25  2  0
 25 26  1  0
 26 27  2  0
 27 28  1  0
 18 29  2  0
  5 30  1  0
 30 31  2  0
 31  2  1  0
 29 14  1  0
 27 22  1  0
  1 32  1  0
  1 33  1  0
  1 34  1  0
  3 35  1  0
  4 36  1  0
  6 37  1  0
  6 38  1  0
  8 39  1  0
  8 40  1  0
  9 41  1  0
  9 42  1  0
 15 43  1  0
 16 44  1  0
 17 45  1  0
 21 46  1  0
 23 47  1  0
 24 48  1  0
 25 49  1  0
 26 50  1  0
 29 51  1  0
 30 52  1  0
 31 53  1  0
M  CHG  2  10  -1  28  -1
M  END
>  <UniqueID>  (32) 
30

>  <SMILES>  (32) 
Cc1ccc(CSCC[N-]S(=O)(=O)c2cccc(C(=O)Nc3ccccc3[O-])c2)cc1

>  <Energy>  (32) 
54.2703329096521

>  <Genealogy>  (32) 
Cc1ccc(CSCC[N-]S(=O)(=O)c2cccc(C(=O)Nc3ccccc3[O-])c2)cc1 (protonated)
Cc1ccc(CSCC[N-]S(=O)(=O)c2cccc(C(=O)Nc3ccccc3[O-])c2)cc1 (3D coordinates assigned)
Cc1ccc(CSCC[N-]S(=O)(=O)c2cccc(C(=O)Nc3ccccc3[O-])c2)cc1 (optimized conformer: 54.2703329096521 kcal/mol)

>  <smiles>  (32) 
Cc1ccc(CSCCNS(=O)(=O)c2cccc(C(=O)Nc3ccccc3O)c2)cc1

>  <score_type>  (32) 
oracle

>  <origin>  (32) 
adgpu

>  <m_score__min__energy>  (32) 
-12.09

>  <m_primary>  (32) 
energy

$$$$
32:0
     RDKit          3D

 40 43  0  0  0  0  0  0  0  0999 V2000
   -7.0170   14.5990  -34.2620 O   0  0  0  0  0  0  0  0  0  0  0  0
   -6.2050   15.7170  -34.1130 C   0  0  0  0  0  0  0  0  0  0  0  0
   -6.7720   16.9620  -33.8430 C   0  0  0  0  0  0  0  0  0  0  0  0
   -5.9580   18.0870  -33.6920 C   0  0  0  0  0  0  0  0  0  0  0  0
   -4.5530   17.9900  -33.8090 C   0  0  0  0  0  0  0  0  0  0  0  0
   -3.7150   19.2220  -33.6410 C   0  0  0  0  0  0  0  0  0  0  0  0
   -2.4170   19.3530  -34.1750 C   0  0  0  0  0  0  0  0  0  0  0  0
   -1.6990   20.5480  -33.9690 C   0  0  0  0  0  0  0  0  0  0  0  0
   -0.3150   20.7770  -34.4980 C   0  0  0  0  0  0  0  0  0  0  0  0
    0.7960   19.9950  -34.1020 C   0  0  0  0  0  0  0  0  0  0  0  0
    2.0690   20.2450  -34.6250 C   0  0  0  0  0  0  0  0  0  0  0  0
    2.2630   21.2740  -35.5450 C   0  0  0  0  0  0  0  0  0  0  0  0
    1.1830   22.0580  -35.9490 C   0  0  0  0  0  0  0  0  0  0  0  0
    1.3750   23.0840  -36.8660 O   0  0  0  0  0  0  0  0  0  0  0  0
   -0.0950   21.8140  -35.4320 C   0  0  0  0  0  0  0  0  0  0  0  0
   -2.2930   21.5420  -33.2530 N   0  0  0  0  0  0  0  0  0  0  0  0
   -3.5410   21.4180  -32.7380 C   0  0  0  0  0  0  0  0  0  0  0  0
   -4.1470   22.5300  -31.9640 C   0  0  0  0  0  0  0  0  0  0  0  0
   -5.5400   22.7370  -31.9750 C   0  0  0  0  0  0  0  0  0  0  0  0
   -6.1080   23.7850  -31.2450 C   0  0  0  0  0  0  0  0  0  0  0  0
   -5.2950   24.6390  -30.4960 C   0  0  0  0  0  0  0  0  0  0  0  0
   -3.9130   24.4470  -30.4750 C   0  0  0  0  0  0  0  0  0  0  0  0
   -3.1050   25.2980  -29.7310 O   0  0  0  0  0  0  0  0  0  0  0  0
   -3.3390   23.4000  -31.2050 C   0  0  0  0  0  0  0  0  0  0  0  0
   -4.2310   20.2670  -32.9380 N   0  0  0  0  0  0  0  0  0  0  0  0
   -3.9980   16.7170  -34.0840 C   0  0  0  0  0  0  0  0  0  0  0  0
   -4.8210   15.5960  -34.2340 C   0  0  0  0  0  0  0  0  0  0  0  0
   -7.8637   17.0585  -33.7486 H   0  0  0  0  0  0  0  0  0  0  0  0
   -6.4176   19.0634  -33.4788 H   0  0  0  0  0  0  0  0  0  0  0  0
   -1.9679   18.5286  -34.7482 H   0  0  0  0  0  0  0  0  0  0  0  0
    0.6569   19.1815  -33.3748 H   0  0  0  0  0  0  0  0  0  0  0  0
    2.9216   19.6262  -34.3085 H   0  0  0  0  0  0  0  0  0  0  0  0
    3.2666   21.4673  -35.9517 H   0  0  0  0  0  0  0  0  0  0  0  0
   -0.9399   22.4386  -35.7576 H   0  0  0  0  0  0  0  0  0  0  0  0
   -6.1863   22.0685  -32.5628 H   0  0  0  0  0  0  0  0  0  0  0  0
   -7.1973   23.9375  -31.2604 H   0  0  0  0  0  0  0  0  0  0  0  0
   -5.7444   25.4631  -29.9225 H   0  0  0  0  0  0  0  0  0  0  0  0
   -2.2488   23.2551  -31.1862 H   0  0  0  0  0  0  0  0  0  0  0  0
   -2.9077   16.6083  -34.1808 H   0  0  0  0  0  0  0  0  0  0  0  0
   -4.3743   14.6140  -34.4485 H   0  0  0  0  0  0  0  0  0  0  0  0
  1  2  1  0
  2  3  2  0
  3  4  1  0
  4  5  2  0
  5  6  1  0
  6  7  2  0
  7  8  1  0
  8  9  1  0
  9 10  2  0
 10 11  1  0
 11 12  2  0
 12 13  1  0
 13 14  1  0
 13 15  2  0
  8 16  2  0
 16 17  1  0
 17 18  1  0
 18 19  2  0
 19 20  1  0
 20 21  2  0
 21 22  1  0
 22 23  1  0
 22 24  2  0
 17 25  2  0
  5 26  1  0
 26 27  2  0
 27  2  1  0
 25  6  1  0
 15  9  1  0
 24 18  1  0
  3 28  1  0
  4 29  1  0
  7 30  1  0
 10 31  1  0
 11 32  1  0
 12 33  1  0
 15 34  1  0
 19 35  1  0
 20 36  1  0
 21 37  1  0
 24 38  1  0
 26 39  1  0
 27 40  1  0
M  CHG  3   1  -1  14  -1  23  -1
M  END
>  <UniqueID>  (33) 
31

>  <SMILES>  (33) 
[O-]c1ccc(-c2cc(-c3cccc([O-])c3)nc(-c3cccc([O-])c3)n2)cc1

>  <Energy>  (33) 
57.16195174640332

>  <Genealogy>  (33) 
[O-]c1ccc(-c2cc(-c3cccc([O-])c3)nc(-c3cccc([O-])c3)n2)cc1 (protonated)
[O-]c1ccc(-c2cc(-c3cccc([O-])c3)nc(-c3cccc([O-])c3)n2)cc1 (3D coordinates assigned)
[O-]c1ccc(-c2cc(-c3cccc([O-])c3)nc(-c3cccc([O-])c3)n2)cc1 (optimized conformer: 57.16195174640332 kcal/mol)

>  <smiles>  (33) 
Oc1ccc(-c2cc(-c3cccc(O)c3)nc(-c3cccc(O)c3)n2)cc1

>  <score_type>  (33) 
oracle

>  <origin>  (33) 
adgpu

>  <m_score__min__energy>  (33) 
-12.32

>  <m_primary>  (33) 
energy

$$$$
33:0
     RDKit          3D

 97102  0  0  0  0  0  0  0  0999 V2000
   -5.8567   25.5128  -29.2423 H   0  0  0  0  0  0  0  0  0  0  0  0
   -5.7130   24.6640  -29.9270 C   0  0  0  0  0  0  0  0  0  0  0  0
   -6.8310   24.0130  -30.4840 C   0  0  0  0  0  0  0  0  0  0  0  0
   -7.8471   24.3724  -30.2638 H   0  0  0  0  0  0  0  0  0  0  0  0
   -6.6410   22.9040  -31.3210 C   0  0  0  0  0  0  0  0  0  0  0  0
   -7.7590   22.2210  -31.9740 C   0  0  0  0  0  0  0  0  0  0  0  0
   -8.8880   22.7810  -32.0110 O   0  0  0  0  0  0  0  0  0  0  0  0
   -7.6100   20.8570  -32.3980 N   0  0  0  0  0  0  0  0  0  0  0  0
   -7.2310   19.8000  -31.4600 C   0  0  0  0  0  0  0  0  0  0  0  0
   -7.4426   20.1288  -30.4318 H   0  0  0  0  0  0  0  0  0  0  0  0
   -5.7120   19.5210  -31.5410 C   0  0  0  0  0  0  0  0  0  0  0  0
   -5.2325   20.3559  -32.0730 H   0  0  0  0  0  0  0  0  0  0  0  0
   -5.3462   19.4191  -30.5086 H   0  0  0  0  0  0  0  0  0  0  0  0
   -5.3640   18.2040  -32.2800 C   0  0  0  0  0  0  0  0  0  0  0  0
   -4.3270   18.2645  -32.6420 H   0  0  0  0  0  0  0  0  0  0  0  0
   -5.4928   17.3744  -31.5692 H   0  0  0  0  0  0  0  0  0  0  0  0
   -6.2570   17.9560  -33.4330 N   0  0  0  0  0  0  0  0  0  0  0  0
   -6.0010   18.8900  -34.5510 C   0  0  0  0  0  0  0  0  0  0  0  0
   -5.7303   19.8775  -34.1491 H   0  0  0  0  0  0  0  0  0  0  0  0
   -5.1749   18.5061  -35.1677 H   0  0  0  0  0  0  0  0  0  0  0  0
   -6.9073   18.9809  -35.1677 H   0  0  0  0  0  0  0  0  0  0  0  0
   -7.7020   17.8700  -33.0700 C   0  0  0  0  0  0  0  0  0  0  0  0
   -8.2870   18.3512  -33.8676 H   0  0  0  0  0  0  0  0  0  0  0  0
   -7.9354   16.8012  -32.9550 H   0  0  0  0  0  0  0  0  0  0  0  0
   -8.0610   18.5490  -31.7290 C   0  0  0  0  0  0  0  0  0  0  0  0
   -9.1242   18.8304  -31.7509 H   0  0  0  0  0  0  0  0  0  0  0  0
   -7.8463   17.8295  -30.9251 H   0  0  0  0  0  0  0  0  0  0  0  0
   -5.3560   22.4800  -31.6310 C   0  0  0  0  0  0  0  0  0  0  0  0
   -5.2150   21.6095  -32.2886 H   0  0  0  0  0  0  0  0  0  0  0  0
   -4.2350   23.1480  -31.1160 C   0  0  0  0  0  0  0  0  0  0  0  0
   -2.9380   22.7610  -31.4780 O   0  0  0  0  0  0  0  0  0  0  0  0
   -2.2460   21.6550  -30.9140 C   0  0  0  0  0  0  0  0  0  0  0  0
   -2.2858   21.7186  -29.8166 H   0  0  0  0  0  0  0  0  0  0  0  0
   -2.7197   20.7189  -31.2445 H   0  0  0  0  0  0  0  0  0  0  0  0
   -1.1969   21.6716  -31.2445 H   0  0  0  0  0  0  0  0  0  0  0  0
   -4.4080   24.2290  -30.2460 C   0  0  0  0  0  0  0  0  0  0  0  0
   -3.1960   24.8930  -29.8240 N   0  0  0  0  0  0  0  0  0  0  0  0
   -2.2740   24.5980  -28.9630 C   0  0  0  0  0  0  0  0  0  0  0  0
   -2.2850   23.4550  -28.2270 N   0  0  0  0  0  0  0  0  0  0  0  0
   -1.3530   23.2310  -27.2550 C   0  0  0  0  0  0  0  0  0  0  0  0
   -1.3170   22.0250  -26.5500 O   0  0  0  0  0  0  0  0  0  0  0  0
   -0.8570   20.8270  -27.1070 C   0  0  0  0  0  0  0  0  0  0  0  0
    0.4680   20.7610  -27.5730 C   0  0  0  0  0  0  0  0  0  0  0  0
    1.3680   21.9610  -27.4790 C   0  0  0  0  0  0  0  0  0  0  0  0
    1.5486   22.2019  -26.4210 H   0  0  0  0  0  0  0  0  0  0  0  0
    2.3255   21.7408  -27.9736 H   0  0  0  0  0  0  0  0  0  0  0  0
    0.8885   22.8186  -27.9736 H   0  0  0  0  0  0  0  0  0  0  0  0
    0.9320   19.5700  -28.1620 C   0  0  0  0  0  0  0  0  0  0  0  0
    1.9729   19.5023  -28.5113 H   0  0  0  0  0  0  0  0  0  0  0  0
    0.0770   18.4710  -28.3060 C   0  0  0  0  0  0  0  0  0  0  0  0
    0.5380   17.2760  -28.9610 C   0  0  0  0  0  0  0  0  0  0  0  0
    0.9090   16.3150  -29.4940 N   0  0  0  0  0  0  0  0  0  0  0  0
   -1.2460   18.5520  -27.8530 C   0  0  0  0  0  0  0  0  0  0  0  0
   -1.9180   17.6899  -27.9764 H   0  0  0  0  0  0  0  0  0  0  0  0
   -1.7230   19.7250  -27.2420 C   0  0  0  0  0  0  0  0  0  0  0  0
   -3.1650   19.8140  -26.8010 C   0  0  0  0  0  0  0  0  0  0  0  0
   -3.2128   19.8170  -25.7020 H   0  0  0  0  0  0  0  0  0  0  0  0
   -3.6108   20.7414  -27.1899 H   0  0  0  0  0  0  0  0  0  0  0  0
   -3.7215   18.9485  -27.1899 H   0  0  0  0  0  0  0  0  0  0  0  0
   -0.4280   24.2410  -26.9390 C   0  0  0  0  0  0  0  0  0  0  0  0
    0.3890   24.1700  -25.8120 C   0  0  0  0  0  0  0  0  0  0  0  0
    0.4170   23.2505  -25.2090 H   0  0  0  0  0  0  0  0  0  0  0  0
    1.1690   25.2640  -25.4510 C   0  0  0  0  0  0  0  0  0  0  0  0
    1.6890   25.3080  -24.1470 O   0  0  0  0  0  0  0  0  0  0  0  0
    3.0750   25.4650  -23.8340 C   0  0  0  0  0  0  0  0  0  0  0  0
    3.2049   25.4797  -22.7418 H   0  0  0  0  0  0  0  0  0  0  0  0
    3.6444   24.6256  -24.2597 H   0  0  0  0  0  0  0  0  0  0  0  0
    3.4422   26.4105  -24.2597 H   0  0  0  0  0  0  0  0  0  0  0  0
    1.2890   26.3770  -26.3040 C   0  0  0  0  0  0  0  0  0  0  0  0
    2.1750   27.4140  -25.9370 O   0  0  0  0  0  0  0  0  0  0  0  0
    2.4920   28.5550  -26.7170 C   0  0  0  0  0  0  0  0  0  0  0  0
    3.5541   28.8028  -26.5735 H   0  0  0  0  0  0  0  0  0  0  0  0
    2.2846   28.3218  -27.7718 H   0  0  0  0  0  0  0  0  0  0  0  0
    1.6300   29.7760  -26.3090 C   0  0  0  0  0  0  0  0  0  0  0  0
    1.9882   30.6511  -26.8710 H   0  0  0  0  0  0  0  0  0  0  0  0
    0.5876   29.5103  -26.5387 H   0  0  0  0  0  0  0  0  0  0  0  0
    1.6700   30.1230  -24.7990 C   0  0  0  0  0  0  0  0  0  0  0  0
    2.5689   29.6695  -24.3560 H   0  0  0  0  0  0  0  0  0  0  0  0
    1.6845   31.2190  -24.7069 H   0  0  0  0  0  0  0  0  0  0  0  0
    0.4730   29.6220  -24.0700 N   0  0  0  0  0  0  0  0  0  0  0  0
    0.6560   28.2340  -23.5690 C   0  0  0  0  0  0  0  0  0  0  0  0
    1.4289   27.7354  -24.1723 H   0  0  0  0  0  0  0  0  0  0  0  0
    0.9564   28.2859  -22.5121 H   0  0  0  0  0  0  0  0  0  0  0  0
   -0.6470   27.4250  -23.6600 C   0  0  0  0  0  0  0  0  0  0  0  0
   -0.4634   26.4106  -23.2761 H   0  0  0  0  0  0  0  0  0  0  0  0
   -1.4121   27.9425  -23.0626 H   0  0  0  0  0  0  0  0  0  0  0  0
   -1.1190   27.3320  -24.9930 O   0  0  0  0  0  0  0  0  0  0  0  0
   -1.1340   28.5720  -25.6720 C   0  0  0  0  0  0  0  0  0  0  0  0
   -0.4072   28.5119  -26.4955 H   0  0  0  0  0  0  0  0  0  0  0  0
   -2.1756   28.7168  -25.9948 H   0  0  0  0  0  0  0  0  0  0  0  0
   -0.7880   29.8170  -24.8300 C   0  0  0  0  0  0  0  0  0  0  0  0
   -0.6723   30.6817  -25.5000 H   0  0  0  0  0  0  0  0  0  0  0  0
   -1.6033   29.9873  -24.1114 H   0  0  0  0  0  0  0  0  0  0  0  0
    0.4700   26.4440  -27.4470 C   0  0  0  0  0  0  0  0  0  0  0  0
    0.5327   27.3127  -28.1189 H   0  0  0  0  0  0  0  0  0  0  0  0
   -0.4280   25.4000  -27.7290 C   0  0  0  0  0  0  0  0  0  0  0  0
   -1.3230   25.5400  -28.7330 N   0  0  0  0  0  0  0  0  0  0  0  0
  1  2  1  0
  2  3  2  0
  3  4  1  0
  3  5  1  0
  5  6  1  0
  6  7  2  0
  6  8  1  0
  8  9  1  0
  9 10  1  0
  9 11  1  0
 11 12  1  0
 11 13  1  0
 11 14  1  0
 14 15  1  0
 14 16  1  0
 14 17  1  0
 17 18  1  0
 18 19  1  0
 18 20  1  0
 18 21  1  0
 17 22  1  0
 22 23  1  0
 22 24  1  0
 22 25  1  0
 25 26  1  0
 25 27  1  0
  5 28  2  0
 28 29  1  0
 28 30  1  0
 30 31  1  0
 31 32  1  0
 32 33  1  0
 32 34  1  0
 32 35  1  0
 30 36  2  0
 36 37  1  0
 37 38  2  0
 38 39  1  0
 39 40  2  0
 40 41  1  0
 41 42  1  0
 42 43  2  0
 43 44  1  0
 44 45  1  0
 44 46  1  0
 44 47  1  0
 43 48  1  0
 48 49  1  0
 48 50  2  0
 50 51  1  0
 51 52  3  0
 50 53  1  0
 53 54  1  0
 53 55  2  0
 55 56  1  0
 56 57  1  0
 56 58  1  0
 56 59  1  0
 40 60  1  0
 60 61  2  0
 61 62  1  0
 61 63  1  0
 63 64  1  0
 64 65  1  0
 65 66  1  0
 65 67  1  0
 65 68  1  0
 63 69  2  0
 69 70  1  0
 70 71  1  0
 71 72  1  0
 71 73  1  0
 71 74  1  0
 74 75  1  0
 74 76  1  0
 74 77  1  0
 77 78  1  0
 77 79  1  0
 77 80  1  0
 80 81  1  0
 81 82  1  0
 81 83  1  0
 81 84  1  0
 84 85  1  0
 84 86  1  0
 84 87  1  0
 87 88  1  0
 88 89  1  0
 88 90  1  0
 88 91  1  0
 91 92  1  0
 91 93  1  0
 69 94  1  0
 94 95  1  0
 94 96  2  0
 96 97  1  0
 36  2  1  0
 97 38  1  0
 25  9  1  0
 55 42  1  0
 96 60  1  0
 91 80  1  0
M  CHG  2   8  -1  97  -1
M  END
>  <UniqueID>  (34) 
32

>  <SMILES>  (34) 
COc1cc(C(=O)[N-]C2CCN(C)CC2)ccc1/N=c1\nc(Oc2c(C)cc(C#N)cc2C)c2cc(OC)c(OCCCN3CCOCC3)cc2[n-]1

>  <Energy>  (34) 
172.50032430089686

>  <Genealogy>  (34) 
COc1cc(C(=O)[N-]C2CCN(C)CC2)ccc1N=c1nc(Oc2c(C)cc(C#N)cc2C)c2cc(OC)c(OCCCN3CCOCC3)cc2[n-]1 (protonated)
COc1cc(C(=O)[N-]C2CCN(C)CC2)ccc1/N=c1\nc(Oc2c(C)cc(C#N)cc2C)c2cc(OC)c(OCCCN3CCOCC3)cc2[n-]1 (cis-trans isomerization)
COc1cc(C(=O)[N-]C2CCN(C)CC2)ccc1/N=c1\nc(Oc2c(C)cc(C#N)cc2C)c2cc(OC)c(OCCCN3CCOCC3)cc2[n-]1 (3D coordinates assigned)
COc1cc(C(=O)[N-]C2CCN(C)CC2)ccc1/N=c1\nc(Oc2c(C)cc(C#N)cc2C)c2cc(OC)c(OCCCN3CCOCC3)cc2[n-]1 (nonaromatic ring conformer: 172.50032430089686 kcal/mol)

>  <smiles>  (34) 
COc1cc(C(=O)NC2CCN(C)CC2)ccc1N=c1nc(Oc2c(C)cc(C#N)cc2C)c2cc(OC)c(OCCCN3CCOCC3)cc2[nH]1

>  <score_type>  (34) 
oracle

>  <origin>  (34) 
adgpu

>  <m_score__min__energy>  (34) 
-10.66

>  <m_primary>  (34) 
energy

$$$$
34:0
     RDKit          3D

 61 64  0  0  0  0  0  0  0  0999 V2000
   -8.6670   19.3030  -32.3060 C   0  0  0  0  0  0  0  0  0  0  0  0
   -7.2690   19.7280  -32.5260 N   0  0  0  0  0  0  0  0  0  0  0  0
   -6.4400   18.9590  -33.3020 C   0  0  0  0  0  0  0  0  0  0  0  0
   -6.8620   17.8950  -33.8380 O   0  0  0  0  0  0  0  0  0  0  0  0
   -5.1110   19.3380  -33.5130 C   0  0  0  0  0  0  0  0  0  0  0  0
   -4.3790   18.6030  -34.2350 O   0  0  0  0  0  0  0  0  0  0  0  0
   -4.6120   20.4830  -32.9460 N   0  0  0  0  0  0  0  0  0  0  0  0
   -3.2000   20.8560  -33.1740 C   0  0  0  0  0  0  0  0  0  0  0  0
   -5.4340   21.2760  -32.1740 C   0  0  0  0  0  0  0  0  0  0  0  0
   -4.9640   22.4750  -31.5850 C   0  0  0  0  0  0  0  0  0  0  0  0
   -5.8060   23.2850  -30.8200 C   0  0  0  0  0  0  0  0  0  0  0  0
   -5.1860   24.7820  -30.1320 S   0  0  0  0  0  0  0  0  0  0  0  0
   -6.3250   25.7410  -29.9250 O   0  0  0  0  0  0  0  0  0  0  0  0
   -4.1890   25.4130  -31.0640 O   0  0  0  0  0  0  0  0  0  0  0  0
   -4.3880   24.4280  -28.6320 N   0  0  0  0  0  0  0  0  0  0  0  0
   -3.1550   23.6980  -28.5860 C   0  0  0  0  0  0  0  0  0  0  0  0
   -3.1370   22.3510  -28.1940 C   0  0  0  0  0  0  0  0  0  0  0  0
   -1.9290   21.6360  -28.1530 C   0  0  0  0  0  0  0  0  0  0  0  0
   -1.9100   20.2150  -27.7460 C   0  0  0  0  0  0  0  0  0  0  0  0
   -2.8130   19.7890  -26.9740 O   0  0  0  0  0  0  0  0  0  0  0  0
   -0.8950   19.3090  -28.2190 N   0  0  0  0  0  0  0  0  0  0  0  0
   -0.5750   18.1100  -27.4360 C   0  0  0  0  0  0  0  0  0  0  0  0
    0.8550   17.6410  -27.7480 C   0  0  0  0  0  0  0  0  0  0  0  0
    1.1420   17.5060  -29.2010 N   0  0  0  0  0  0  0  0  0  0  0  0
    1.4640   15.8450  -29.6330 S   0  0  0  0  0  0  0  0  0  0  0  0
    1.7070   14.8730  -28.1610 C   0  0  0  0  0  0  0  0  0  0  0  0
    0.3100   15.2840  -30.4190 O   0  0  0  0  0  0  0  0  0  0  0  0
    2.7130   15.7670  -30.4650 O   0  0  0  0  0  0  0  0  0  0  0  0
    0.1010   18.0560  -30.0910 C   0  0  0  0  0  0  0  0  0  0  0  0
   -0.3890   19.4180  -29.5940 C   0  0  0  0  0  0  0  0  0  0  0  0
   -0.7390   22.2760  -28.5310 C   0  0  0  0  0  0  0  0  0  0  0  0
   -0.7480   23.6210  -28.9050 C   0  0  0  0  0  0  0  0  0  0  0  0
   -1.9490   24.3350  -28.9280 C   0  0  0  0  0  0  0  0  0  0  0  0
   -1.9410   25.6730  -29.3100 O   0  0  0  0  0  0  0  0  0  0  0  0
   -7.1280   22.8990  -30.6050 C   0  0  0  0  0  0  0  0  0  0  0  0
   -7.6160   21.7200  -31.1630 C   0  0  0  0  0  0  0  0  0  0  0  0
   -6.7890   20.8900  -31.9590 C   0  0  0  0  0  0  0  0  0  0  0  0
   -8.8662   19.2425  -31.2259 H   0  0  0  0  0  0  0  0  0  0  0  0
   -9.3490   20.0344  -32.7642 H   0  0  0  0  0  0  0  0  0  0  0  0
   -8.8265   18.3158  -32.7642 H   0  0  0  0  0  0  0  0  0  0  0  0
   -2.6951   20.9894  -32.2059 H   0  0  0  0  0  0  0  0  0  0  0  0
   -2.6977   20.0597  -33.7429 H   0  0  0  0  0  0  0  0  0  0  0  0
   -3.1565   21.7965  -33.7429 H   0  0  0  0  0  0  0  0  0  0  0  0
   -3.9158   22.7740  -31.7329 H   0  0  0  0  0  0  0  0  0  0  0  0
   -4.6430   25.0330  -27.8180 H   0  0  0  0  0  0  0  0  0  0  0  0
   -4.0767   21.8509  -27.9165 H   0  0  0  0  0  0  0  0  0  0  0  0
   -0.6555   18.3434  -26.3641 H   0  0  0  0  0  0  0  0  0  0  0  0
   -1.2818   17.3092  -27.6991 H   0  0  0  0  0  0  0  0  0  0  0  0
    1.5594   18.3708  -27.3223 H   0  0  0  0  0  0  0  0  0  0  0  0
    0.9658   16.6396  -27.3065 H   0  0  0  0  0  0  0  0  0  0  0  0
    1.5491   15.5046  -27.2743 H   0  0  0  0  0  0  0  0  0  0  0  0
    0.9897   14.0391  -28.1497 H   0  0  0  0  0  0  0  0  0  0  0  0
    2.7323   14.4748  -28.1497 H   0  0  0  0  0  0  0  0  0  0  0  0
    0.5181   18.1719  -31.1022 H   0  0  0  0  0  0  0  0  0  0  0  0
   -0.7518   17.3613  -30.1004 H   0  0  0  0  0  0  0  0  0  0  0  0
    0.4456   20.1342  -29.6175 H   0  0  0  0  0  0  0  0  0  0  0  0
   -1.2029   19.7649  -30.2476 H   0  0  0  0  0  0  0  0  0  0  0  0
    0.2069   21.7145  -28.5327 H   0  0  0  0  0  0  0  0  0  0  0  0
    0.1924   24.1198  -29.1822 H   0  0  0  0  0  0  0  0  0  0  0  0
   -7.7891   23.5287  -29.9915 H   0  0  0  0  0  0  0  0  0  0  0  0
   -8.6612   21.4284  -30.9826 H   0  0  0  0  0  0  0  0  0  0  0  0
  1  2  1  0
  2  3  1  0
  3  4  2  0
  3  5  1  0
  5  6  2  0
  5  7  1  0
  7  8  1  0
  7  9  1  0
  9 10  2  0
 10 11  1  0
 11 12  1  0
 12 13  2  0
 12 14  2  0
 12 15  1  0
 15 16  1  0
 16 17  2  0
 17 18  1  0
 18 19  1  0
 19 20  2  0
 19 21  1  0
 21 22  1  0
 22 23  1  0
 23 24  1  0
 24 25  1  0
 25 26  1  0
 25 27  2  0
 25 28  2  0
 24 29  1  0
 29 30  1  0
 18 31  2  0
 31 32  1  0
 32 33  2  0
 33 34  1  0
 11 35  2  0
 35 36  1  0
 36 37  2  0
 37  2  1  0
 37  9  1  0
 33 16  1  0
 30 21  1  0
  1 38  1  0
  1 39  1  0
  1 40  1  0
  8 41  1  0
  8 42  1  0
  8 43  1  0
 10 44  1  0
 15 45  1  0
 17 46  1  0
 22 47  1  0
 22 48  1  0
 23 49  1  0
 23 50  1  0
 26 51  1  0
 26 52  1  0
 26 53  1  0
 29 54  1  0
 29 55  1  0
 30 56  1  0
 30 57  1  0
 31 58  1  0
 32 59  1  0
 35 60  1  0
 36 61  1  0
M  CHG  1  34  -1
M  END
>  <UniqueID>  (35) 
33

>  <SMILES>  (35) 
Cn1c(=O)c(=O)n(C)c2cc(S(=O)(=O)Nc3cc(C(=O)N4CCN(S(C)(=O)=O)CC4)ccc3[O-])ccc21

>  <Energy>  (35) 
92.9153714946739

>  <Genealogy>  (35) 
Cn1c(=O)c(=O)n(C)c2cc(S(=O)(=O)Nc3cc(C(=O)N4CCN(S(C)(=O)=O)CC4)ccc3[O-])ccc21 (protonated)
Cn1c(=O)c(=O)n(C)c2cc(S(=O)(=O)Nc3cc(C(=O)N4CCN(S(C)(=O)=O)CC4)ccc3[O-])ccc21 (3D coordinates assigned)
Cn1c(=O)c(=O)n(C)c2cc(S(=O)(=O)Nc3cc(C(=O)N4CCN(S(C)(=O)=O)CC4)ccc3[O-])ccc21 (nonaromatic ring conformer: 92.9153714946739 kcal/mol)

>  <smiles>  (35) 
Cn1c(=O)c(=O)n(C)c2cc(S(=O)(=O)Nc3cc(C(=O)N4CCN(S(C)(=O)=O)CC4)ccc3O)ccc21

>  <score_type>  (35) 
oracle

>  <origin>  (35) 
adgpu

>  <m_score__min__energy>  (35) 
-14.76

>  <m_primary>  (35) 
energy

$$$$
35:0
     RDKit          3D

 55 58  0  0  0  0  0  0  0  0999 V2000
   -1.2870   26.3830  -26.1040 C   0  0  0  0  0  0  0  0  0  0  0  0
   -0.6840   27.1240  -27.2870 C   0  0  0  0  0  0  0  0  0  0  0  0
   -0.9960   26.4160  -28.5220 N   0  0  0  0  0  0  0  0  0  0  0  0
   -0.9520   24.9980  -28.7340 C   0  0  0  0  0  0  0  0  0  0  0  0
    0.1350   24.4040  -28.5060 O   0  0  0  0  0  0  0  0  0  0  0  0
   -2.1190   24.2080  -29.2080 C   0  0  0  0  0  0  0  0  0  0  0  0
   -1.9440   23.1640  -30.1360 C   0  0  0  0  0  0  0  0  0  0  0  0
   -3.0510   22.4110  -30.5650 C   0  0  0  0  0  0  0  0  0  0  0  0
   -2.8850   21.3130  -31.5510 C   0  0  0  0  0  0  0  0  0  0  0  0
   -2.3990   20.0570  -31.1480 C   0  0  0  0  0  0  0  0  0  0  0  0
   -2.2340   19.0280  -32.0780 C   0  0  0  0  0  0  0  0  0  0  0  0
   -2.5470   19.2280  -33.4310 C   0  0  0  0  0  0  0  0  0  0  0  0
   -2.3590   18.1450  -34.3600 N   0  0  0  0  0  0  0  0  0  0  0  0
   -3.4750   16.8310  -34.5630 S   0  0  0  0  0  0  0  0  0  0  0  0
   -2.8560   15.5660  -34.0370 O   0  0  0  0  0  0  0  0  0  0  0  0
   -3.7760   16.6540  -36.0240 O   0  0  0  0  0  0  0  0  0  0  0  0
   -4.9480   17.1610  -33.6720 C   0  0  0  0  0  0  0  0  0  0  0  0
   -5.2900   16.6020  -32.4480 C   0  0  0  0  0  0  0  0  0  0  0  0
   -6.5110   17.0750  -31.9550 C   0  0  0  0  0  0  0  0  0  0  0  0
   -7.1100   18.0150  -32.7860 C   0  0  0  0  0  0  0  0  0  0  0  0
   -8.4400   18.6620  -32.5590 C   0  0  0  0  0  0  0  0  0  0  0  0
   -8.2650   20.1370  -32.3240 C   0  0  0  0  0  0  0  0  0  0  0  0
   -9.3560   20.9250  -31.9190 C   0  0  0  0  0  0  0  0  0  0  0  0
   -9.1820   22.2900  -31.6700 C   0  0  0  0  0  0  0  0  0  0  0  0
   -7.9210   22.8740  -31.8150 C   0  0  0  0  0  0  0  0  0  0  0  0
   -6.8290   22.0940  -32.2050 C   0  0  0  0  0  0  0  0  0  0  0  0
   -6.9990   20.7290  -32.4570 C   0  0  0  0  0  0  0  0  0  0  0  0
   -6.1420   18.2430  -34.1460 S   0  0  0  0  0  0  0  0  0  0  0  0
   -3.0380   20.4830  -33.8350 C   0  0  0  0  0  0  0  0  0  0  0  0
   -3.2040   21.5130  -32.9050 C   0  0  0  0  0  0  0  0  0  0  0  0
   -4.3190   22.7160  -30.0460 C   0  0  0  0  0  0  0  0  0  0  0  0
   -4.4570   23.7550  -29.1270 C   0  0  0  0  0  0  0  0  0  0  0  0
   -3.3690   24.4670  -28.7350 N   0  0  0  0  0  0  0  0  0  0  0  0
   -0.9231   26.8301  -25.1672 H   0  0  0  0  0  0  0  0  0  0  0  0
   -2.3837   26.4583  -26.1445 H   0  0  0  0  0  0  0  0  0  0  0  0
   -0.9904   25.3245  -26.1445 H   0  0  0  0  0  0  0  0  0  0  0  0
   -1.1017   28.1406  -27.3330 H   0  0  0  0  0  0  0  0  0  0  0  0
    0.4078   27.1780  -27.1644 H   0  0  0  0  0  0  0  0  0  0  0  0
   -0.9406   22.9373  -30.5257 H   0  0  0  0  0  0  0  0  0  0  0  0
   -2.1466   19.8831  -30.0916 H   0  0  0  0  0  0  0  0  0  0  0  0
   -1.8546   18.0503  -31.7461 H   0  0  0  0  0  0  0  0  0  0  0  0
   -1.5150   18.1450  -34.9760 H   0  0  0  0  0  0  0  0  0  0  0  0
   -4.6665   15.8647  -31.9212 H   0  0  0  0  0  0  0  0  0  0  0  0
   -6.9524   16.7373  -31.0058 H   0  0  0  0  0  0  0  0  0  0  0  0
   -9.0752   18.5076  -33.4437 H   0  0  0  0  0  0  0  0  0  0  0  0
   -8.9131   18.2106  -31.6745 H   0  0  0  0  0  0  0  0  0  0  0  0
  -10.3488   20.4671  -31.7976 H   0  0  0  0  0  0  0  0  0  0  0  0
  -10.0394   22.9051  -31.3594 H   0  0  0  0  0  0  0  0  0  0  0  0
   -7.7877   23.9487  -31.6220 H   0  0  0  0  0  0  0  0  0  0  0  0
   -5.8356   22.5538  -32.3138 H   0  0  0  0  0  0  0  0  0  0  0  0
   -6.1372   20.1166  -32.7607 H   0  0  0  0  0  0  0  0  0  0  0  0
   -3.2932   20.6549  -34.8911 H   0  0  0  0  0  0  0  0  0  0  0  0
   -3.5879   22.4893  -33.2359 H   0  0  0  0  0  0  0  0  0  0  0  0
   -5.1996   22.1379  -30.3629 H   0  0  0  0  0  0  0  0  0  0  0  0
   -5.4489   23.9986  -28.7186 H   0  0  0  0  0  0  0  0  0  0  0  0
  1  2  1  0
  2  3  1  0
  3  4  1  0
  4  5  2  0
  4  6  1  0
  6  7  2  0
  7  8  1  0
  8  9  1  0
  9 10  2  0
 10 11  1  0
 11 12  2  0
 12 13  1  0
 13 14  1  0
 14 15  2  0
 14 16  2  0
 14 17  1  0
 17 18  2  0
 18 19  1  0
 19 20  2  0
 20 21  1  0
 21 22  1  0
 22 23  2  0
 23 24  1  0
 24 25  2  0
 25 26  1  0
 26 27  2  0
 20 28  1  0
 12 29  1  0
 29 30  2  0
  8 31  2  0
 31 32  1  0
 32 33  2  0
 33  6  1  0
 30  9  1  0
 28 17  1  0
 27 22  1  0
  1 34  1  0
  1 35  1  0
  1 36  1  0
  2 37  1  0
  2 38  1  0
  7 39  1  0
 10 40  1  0
 11 41  1  0
 13 42  1  0
 18 43  1  0
 19 44  1  0
 21 45  1  0
 21 46  1  0
 23 47  1  0
 24 48  1  0
 25 49  1  0
 26 50  1  0
 27 51  1  0
 29 52  1  0
 30 53  1  0
 31 54  1  0
 32 55  1  0
M  CHG  1   3  -1
M  END
>  <UniqueID>  (36) 
34

>  <SMILES>  (36) 
CC[N-]C(=O)c1cc(-c2ccc(NS(=O)(=O)c3ccc(Cc4ccccc4)s3)cc2)ccn1

>  <Energy>  (36) 
90.0920563924563

>  <Genealogy>  (36) 
CC[N-]C(=O)c1cc(-c2ccc(NS(=O)(=O)c3ccc(Cc4ccccc4)s3)cc2)ccn1 (protonated)
CC[N-]C(=O)c1cc(-c2ccc(NS(=O)(=O)c3ccc(Cc4ccccc4)s3)cc2)ccn1 (3D coordinates assigned)
CC[N-]C(=O)c1cc(-c2ccc(NS(=O)(=O)c3ccc(Cc4ccccc4)s3)cc2)ccn1 (optimized conformer: 90.0920563924563 kcal/mol)

>  <smiles>  (36) 
CCNC(=O)c1cc(-c2ccc(NS(=O)(=O)c3ccc(Cc4ccccc4)s3)cc2)ccn1

>  <score_type>  (36) 
oracle

>  <origin>  (36) 
adgpu

>  <m_score__min__energy>  (36) 
-11.41

>  <m_primary>  (36) 
energy

$$$$
36:0
     RDKit          3D

 40 43  0  0  0  0  0  0  0  0999 V2000
   -9.8080   18.2840  -32.3490 O   0  0  0  0  0  0  0  0  0  0  0  0
   -9.1310   19.3340  -32.1830 C   0  0  0  0  0  0  0  0  0  0  0  0
   -9.7050   20.5430  -31.9610 N   0  0  0  0  0  0  0  0  0  0  0  0
   -8.6370   21.3580  -31.8640 C   0  0  0  0  0  0  0  0  0  0  0  0
   -8.6410   22.7250  -31.6120 C   0  0  0  0  0  0  0  0  0  0  0  0
   -7.4000   23.3810  -31.5160 C   0  0  0  0  0  0  0  0  0  0  0  0
   -6.1820   22.6590  -31.6590 C   0  0  0  0  0  0  0  0  0  0  0  0
   -4.9000   23.3020  -31.5370 N   0  0  0  0  0  0  0  0  0  0  0  0
   -4.4750   24.3940  -30.2550 S   0  0  0  0  0  0  0  0  0  0  0  0
   -5.7150   24.7290  -29.4730 O   0  0  0  0  0  0  0  0  0  0  0  0
   -3.9170   25.6550  -30.8520 O   0  0  0  0  0  0  0  0  0  0  0  0
   -3.2490   23.6710  -29.2090 C   0  0  0  0  0  0  0  0  0  0  0  0
   -3.4260   22.3640  -28.7330 C   0  0  0  0  0  0  0  0  0  0  0  0
   -2.4710   21.7810  -27.8950 C   0  0  0  0  0  0  0  0  0  0  0  0
   -2.7100   20.1510  -27.2950 Cl  0  0  0  0  0  0  0  0  0  0  0  0
   -1.3270   22.4990  -27.5350 C   0  0  0  0  0  0  0  0  0  0  0  0
   -1.1320   23.7980  -28.0150 C   0  0  0  0  0  0  0  0  0  0  0  0
    0.3170   24.6780  -27.5590 Cl  0  0  0  0  0  0  0  0  0  0  0  0
   -2.0890   24.3860  -28.8560 C   0  0  0  0  0  0  0  0  0  0  0  0
   -1.8810   25.6740  -29.3400 O   0  0  0  0  0  0  0  0  0  0  0  0
   -6.2260   21.2700  -31.9150 C   0  0  0  0  0  0  0  0  0  0  0  0
   -7.4760   20.6570  -32.0260 C   0  0  0  0  0  0  0  0  0  0  0  0
   -7.7740   19.3620  -32.2320 N   0  0  0  0  0  0  0  0  0  0  0  0
   -6.8800   18.2590  -32.4610 C   0  0  0  0  0  0  0  0  0  0  0  0
   -6.4210   17.4780  -31.3870 C   0  0  0  0  0  0  0  0  0  0  0  0
   -5.5460   16.4130  -31.6130 C   0  0  0  0  0  0  0  0  0  0  0  0
   -5.1180   16.1210  -32.9120 C   0  0  0  0  0  0  0  0  0  0  0  0
   -5.5620   16.8990  -33.9850 C   0  0  0  0  0  0  0  0  0  0  0  0
   -6.4370   17.9660  -33.7620 C   0  0  0  0  0  0  0  0  0  0  0  0
   -9.5850   23.2767  -31.4914 H   0  0  0  0  0  0  0  0  0  0  0  0
   -7.3709   24.4645  -31.3282 H   0  0  0  0  0  0  0  0  0  0  0  0
   -4.1540   23.0800  -32.2340 H   0  0  0  0  0  0  0  0  0  0  0  0
   -4.3217   21.7940  -29.0207 H   0  0  0  0  0  0  0  0  0  0  0  0
   -0.5780   22.0410  -26.8723 H   0  0  0  0  0  0  0  0  0  0  0  0
   -5.2998   20.6867  -32.0240 H   0  0  0  0  0  0  0  0  0  0  0  0
   -6.7523   17.7064  -30.3633 H   0  0  0  0  0  0  0  0  0  0  0  0
   -5.1931   15.8032  -30.7682 H   0  0  0  0  0  0  0  0  0  0  0  0
   -4.4322   15.2794  -33.0892 H   0  0  0  0  0  0  0  0  0  0  0  0
   -5.2224   16.6713  -35.0062 H   0  0  0  0  0  0  0  0  0  0  0  0
   -6.7803   18.5789  -34.6085 H   0  0  0  0  0  0  0  0  0  0  0  0
  1  2  2  0
  2  3  1  0
  3  4  1  0
  4  5  2  0
  5  6  1  0
  6  7  2  0
  7  8  1  0
  8  9  1  0
  9 10  2  0
  9 11  2  0
  9 12  1  0
 12 13  2  0
 13 14  1  0
 14 15  1  0
 14 16  2  0
 16 17  1  0
 17 18  1  0
 17 19  2  0
 19 20  1  0
  7 21  1  0
 21 22  2  0
 22 23  1  0
 23 24  1  0
 24 25  2  0
 25 26  1  0
 26 27  2  0
 27 28  1  0
 28 29  2  0
 23  2  1  0
 29 24  1  0
 22  4  1  0
 19 12  1  0
  5 30  1  0
  6 31  1  0
  8 32  1  0
 13 33  1  0
 16 34  1  0
 21 35  1  0
 25 36  1  0
 26 37  1  0
 27 38  1  0
 28 39  1  0
 29 40  1  0
M  CHG  2   3  -1  20  -1
M  END
>  <UniqueID>  (37) 
35

>  <SMILES>  (37) 
O=c1[n-]c2ccc(NS(=O)(=O)c3cc(Cl)cc(Cl)c3[O-])cc2n1-c1ccccc1

>  <Energy>  (37) 
93.0833470342194

>  <Genealogy>  (37) 
O=c1[n-]c2ccc(NS(=O)(=O)c3cc(Cl)cc(Cl)c3[O-])cc2n1-c1ccccc1 (protonated)
O=c1[n-]c2ccc(NS(=O)(=O)c3cc(Cl)cc(Cl)c3[O-])cc2n1-c1ccccc1 (3D coordinates assigned)
O=c1[n-]c2ccc(NS(=O)(=O)c3cc(Cl)cc(Cl)c3[O-])cc2n1-c1ccccc1 (optimized conformer: 93.0833470342194 kcal/mol)

>  <smiles>  (37) 
O=c1[nH]c2ccc(NS(=O)(=O)c3cc(Cl)cc(Cl)c3O)cc2n1-c1ccccc1

>  <score_type>  (37) 
oracle

>  <origin>  (37) 
adgpu

>  <m_score__min__energy>  (37) 
-14.07

>  <m_primary>  (37) 
energy

$$$$
37:0
     RDKit          3D

 72 76  0  0  0  0  0  0  0  0999 V2000
   -5.8507   24.0551  -32.7097 H   0  0  0  0  0  0  0  0  0  0  0  0
   -6.1790   23.4170  -31.8760 C   0  0  0  0  0  0  0  0  0  0  0  0
   -5.3180   22.9960  -31.0010 N   0  0  0  0  0  0  0  0  0  0  0  0
   -3.9300   23.3470  -31.0030 C   0  0  0  0  0  0  0  0  0  0  0  0
   -3.5620   24.4700  -30.5650 O   0  0  0  0  0  0  0  0  0  0  0  0
   -2.9120   22.3960  -31.5000 C   0  0  0  0  0  0  0  0  0  0  0  0
   -3.1070   21.5440  -32.5760 C   0  0  0  0  0  0  0  0  0  0  0  0
   -4.0301   21.4132  -33.1598 H   0  0  0  0  0  0  0  0  0  0  0  0
   -1.9030   20.8930  -32.7640 C   0  0  0  0  0  0  0  0  0  0  0  0
   -1.5690   19.9980  -33.8310 N   0  0  0  0  0  0  0  0  0  0  0  0
   -1.9810   18.6310  -33.8800 C   0  0  0  0  0  0  0  0  0  0  0  0
   -3.0350   18.3380  -34.5030 O   0  0  0  0  0  0  0  0  0  0  0  0
   -1.1880   17.5510  -33.2570 C   0  0  0  0  0  0  0  0  0  0  0  0
   -0.6700   17.6090  -31.9760 C   0  0  0  0  0  0  0  0  0  0  0  0
   -0.6834   18.4722  -31.2943 H   0  0  0  0  0  0  0  0  0  0  0  0
   -0.1350   16.3670  -31.7290 C   0  0  0  0  0  0  0  0  0  0  0  0
    0.4680   15.9680  -30.4940 N   0  0  0  0  0  0  0  0  0  0  0  0
    1.6110   16.5790  -29.8800 C   0  0  0  0  0  0  0  0  0  0  0  0
    2.7280   16.0050  -29.9930 O   0  0  0  0  0  0  0  0  0  0  0  0
    1.5350   17.8790  -29.1580 C   0  0  0  0  0  0  0  0  0  0  0  0
    2.5970   18.7980  -29.1700 C   0  0  0  0  0  0  0  0  0  0  0  0
    3.5464   18.5348  -29.6592 H   0  0  0  0  0  0  0  0  0  0  0  0
    2.4520   20.0110  -28.5780 N   0  0  0  0  0  0  0  0  0  0  0  0
    1.3190   20.3610  -27.9110 C   0  0  0  0  0  0  0  0  0  0  0  0
    1.2300   21.3642  -27.4687 H   0  0  0  0  0  0  0  0  0  0  0  0
    0.2700   19.4500  -27.7870 C   0  0  0  0  0  0  0  0  0  0  0  0
   -0.8840   19.8060  -27.0190 N   0  0  0  0  0  0  0  0  0  0  0  0
   -2.3970   20.2950  -27.7090 S   0  0  0  0  0  0  0  0  0  0  0  0
   -2.3610   20.0460  -29.1900 O   0  0  0  0  0  0  0  0  0  0  0  0
   -3.5260   19.5070  -27.1110 O   0  0  0  0  0  0  0  0  0  0  0  0
   -2.6370   22.0120  -27.4280 C   0  0  0  0  0  0  0  0  0  0  0  0
   -3.7550   22.7520  -27.7690 C   0  0  0  0  0  0  0  0  0  0  0  0
   -4.6829   22.3782  -28.2264 H   0  0  0  0  0  0  0  0  0  0  0  0
   -3.4670   24.0580  -27.4170 C   0  0  0  0  0  0  0  0  0  0  0  0
   -4.1495   24.9117  -27.5412 H   0  0  0  0  0  0  0  0  0  0  0  0
   -2.2250   24.1280  -26.8990 N   0  0  0  0  0  0  0  0  0  0  0  0
   -1.5850   25.3230  -26.3600 C   0  0  0  0  0  0  0  0  0  0  0  0
   -1.6050   25.2856  -25.2608 H   0  0  0  0  0  0  0  0  0  0  0  0
   -0.5419   25.3682  -26.7064 H   0  0  0  0  0  0  0  0  0  0  0  0
   -2.1254   26.2163  -26.7064 H   0  0  0  0  0  0  0  0  0  0  0  0
   -1.7130   22.8830  -26.8910 C   0  0  0  0  0  0  0  0  0  0  0  0
   -0.7169   22.6051  -26.5161 H   0  0  0  0  0  0  0  0  0  0  0  0
    0.3760   18.2110  -28.4350 C   0  0  0  0  0  0  0  0  0  0  0  0
   -0.4550   17.4926  -28.3771 H   0  0  0  0  0  0  0  0  0  0  0  0
   -0.3140   15.5980  -32.8590 C   0  0  0  0  0  0  0  0  0  0  0  0
    0.0195   14.5569  -32.9810 H   0  0  0  0  0  0  0  0  0  0  0  0
   -0.9630   16.3250  -33.7910 N   0  0  0  0  0  0  0  0  0  0  0  0
   -1.4330   15.8100  -35.0750 C   0  0  0  0  0  0  0  0  0  0  0  0
   -2.1653   15.0076  -34.9023 H   0  0  0  0  0  0  0  0  0  0  0  0
   -1.9072   16.6228  -35.6447 H   0  0  0  0  0  0  0  0  0  0  0  0
   -0.5804   15.4119  -35.6447 H   0  0  0  0  0  0  0  0  0  0  0  0
   -1.0190   21.3540  -31.8170 C   0  0  0  0  0  0  0  0  0  0  0  0
    0.0268   21.0299  -31.7105 H   0  0  0  0  0  0  0  0  0  0  0  0
   -1.6380   22.2680  -31.0380 N   0  0  0  0  0  0  0  0  0  0  0  0
   -0.9900   23.0140  -29.9600 C   0  0  0  0  0  0  0  0  0  0  0  0
   -1.3289   22.6239  -28.9889 H   0  0  0  0  0  0  0  0  0  0  0  0
    0.1012   22.9006  -30.0401 H   0  0  0  0  0  0  0  0  0  0  0  0
   -1.2549   24.0786  -30.0401 H   0  0  0  0  0  0  0  0  0  0  0  0
   -7.6210   23.0320  -31.7480 C   0  0  0  0  0  0  0  0  0  0  0  0
   -7.9737   23.2782  -30.7356 H   0  0  0  0  0  0  0  0  0  0  0  0
   -8.2066   23.5858  -32.4966 H   0  0  0  0  0  0  0  0  0  0  0  0
   -7.7920   21.5540  -31.9880 C   0  0  0  0  0  0  0  0  0  0  0  0
   -9.0080   20.9180  -31.6820 C   0  0  0  0  0  0  0  0  0  0  0  0
   -9.8201   21.4892  -31.2085 H   0  0  0  0  0  0  0  0  0  0  0  0
   -9.1910   19.5600  -31.9770 C   0  0  0  0  0  0  0  0  0  0  0  0
  -10.1426   19.0670  -31.7291 H   0  0  0  0  0  0  0  0  0  0  0  0
   -8.1650   18.8320  -32.5860 C   0  0  0  0  0  0  0  0  0  0  0  0
   -8.3099   17.7672  -32.8212 H   0  0  0  0  0  0  0  0  0  0  0  0
   -6.9540   19.4590  -32.8960 C   0  0  0  0  0  0  0  0  0  0  0  0
   -6.1459   18.8852  -33.3732 H   0  0  0  0  0  0  0  0  0  0  0  0
   -6.7670   20.8140  -32.6010 C   0  0  0  0  0  0  0  0  0  0  0  0
   -5.8132   21.3020  -32.8502 H   0  0  0  0  0  0  0  0  0  0  0  0
  1  2  1  0
  2  3  2  0
  3  4  1  0
  4  5  2  0
  4  6  1  0
  6  7  2  0
  7  8  1  0
  7  9  1  0
  9 10  1  0
 10 11  1  0
 11 12  2  0
 11 13  1  0
 13 14  2  0
 14 15  1  0
 14 16  1  0
 16 17  1  0
 17 18  1  0
 18 19  2  0
 18 20  1  0
 20 21  2  0
 21 22  1  0
 21 23  1  0
 23 24  2  0
 24 25  1  0
 24 26  1  0
 26 27  1  0
 27 28  1  0
 28 29  2  0
 28 30  2  0
 28 31  1  0
 31 32  1  0
 32 33  1  0
 32 34  2  0
 34 35  1  0
 34 36  1  0
 36 37  1  0
 37 38  1  0
 37 39  1  0
 37 40  1  0
 36 41  1  0
 41 42  1  0
 26 43  2  0
 43 44  1  0
 16 45  2  0
 45 46  1  0
 45 47  1  0
 47 48  1  0
 48 49  1  0
 48 50  1  0
 48 51  1  0
  9 52  2  0
 52 53  1  0
 52 54  1  0
 54 55  1  0
 55 56  1  0
 55 57  1  0
 55 58  1  0
  2 59  1  0
 59 60  1  0
 59 61  1  0
 59 62  1  0
 62 63  2  0
 63 64  1  0
 63 65  1  0
 65 66  1  0
 65 67  2  0
 67 68  1  0
 67 69  1  0
 69 70  1  0
 69 71  2  0
 71 72  1  0
 54  6  1  0
 71 62  1  0
 47 13  1  0
 43 20  1  0
 41 31  2  0
M  CHG  3  10  -1  17  -1  27  -1
M  END
>  <UniqueID>  (38) 
36

>  <SMILES>  (38) 
Cn1ccc(S(=O)(=O)[N-]c2cncc(C(=O)[N-]c3cc(C(=O)[N-]c4cc(C(=O)/N=C/Cc5ccccc5)n(C)c4)n(C)c3)c2)c1

>  <Energy>  (38) 
174.93088237618102

>  <Genealogy>  (38) 
Cn1ccc(S(=O)(=O)[N-]c2cncc(C(=O)[N-]c3cc(C(=O)[N-]c4cc(C(=O)N=CCc5ccccc5)n(C)c4)n(C)c3)c2)c1 (protonated)
Cn1ccc(S(=O)(=O)[N-]c2cncc(C(=O)[N-]c3cc(C(=O)[N-]c4cc(C(=O)/N=C/Cc5ccccc5)n(C)c4)n(C)c3)c2)c1 (cis-trans isomerization)
Cn1ccc(S(=O)(=O)[N-]c2cncc(C(=O)[N-]c3cc(C(=O)[N-]c4cc(C(=O)/N=C/Cc5ccccc5)n(C)c4)n(C)c3)c2)c1 (3D coordinates assigned)
Cn1ccc(S(=O)(=O)[N-]c2cncc(C(=O)[N-]c3cc(C(=O)[N-]c4cc(C(=O)/N=C/Cc5ccccc5)n(C)c4)n(C)c3)c2)c1 (optimized conformer: 174.93088237618102 kcal/mol)

>  <smiles>  (38) 
Cn1ccc(S(=O)(=O)Nc2cncc(C(=O)Nc3cc(C(=O)Nc4cc(C(=O)N=CCc5ccccc5)n(C)c4)n(C)c3)c2)c1

>  <score_type>  (38) 
oracle

>  <origin>  (38) 
adgpu

>  <m_score__min__energy>  (38) 
-12.06

>  <m_primary>  (38) 
energy

$$$$
38:0
     RDKit          3D

 31 32  0  0  0  0  0  0  0  0999 V2000
   -9.6940   17.6920  -30.8050 H   0  0  0  0  0  0  0  0  0  0  0  0
   -9.5180   18.2660  -31.6200 O   0  0  0  0  0  0  0  0  0  0  0  0
   -8.2300   18.5670  -32.0670 C   0  0  0  0  0  0  0  0  0  0  0  0
   -7.3150   17.5670  -32.1360 N   0  0  0  0  0  0  0  0  0  0  0  0
   -6.0500   17.7960  -32.5720 C   0  0  0  0  0  0  0  0  0  0  0  0
   -4.9770   16.5690  -32.6440 S   0  0  0  0  0  0  0  0  0  0  0  0
   -5.6760   19.0460  -32.9460 N   0  0  0  0  0  0  0  0  0  0  0  0
   -6.5490   20.0850  -32.8940 C   0  0  0  0  0  0  0  0  0  0  0  0
   -6.1620   21.2350  -33.2320 O   0  0  0  0  0  0  0  0  0  0  0  0
   -7.8680   19.8700  -32.4580 C   0  0  0  0  0  0  0  0  0  0  0  0
   -8.8370   20.9840  -32.3910 C   0  0  0  0  0  0  0  0  0  0  0  0
   -9.5565   21.1039  -33.2143 H   0  0  0  0  0  0  0  0  0  0  0  0
   -8.8780   21.8300  -31.4020 N   0  0  0  0  0  0  0  0  0  0  0  0
   -8.0120   21.8160  -30.2200 C   0  0  0  0  0  0  0  0  0  0  0  0
   -7.5728   20.8137  -30.1079 H   0  0  0  0  0  0  0  0  0  0  0  0
   -8.6183   22.0723  -29.3387 H   0  0  0  0  0  0  0  0  0  0  0  0
   -6.9030   22.8280  -30.3500 C   0  0  0  0  0  0  0  0  0  0  0  0
   -7.1540   24.1830  -30.0880 C   0  0  0  0  0  0  0  0  0  0  0  0
   -8.1538   24.5017  -29.7579 H   0  0  0  0  0  0  0  0  0  0  0  0
   -6.1380   25.1290  -30.2450 C   0  0  0  0  0  0  0  0  0  0  0  0
   -6.3413   26.1907  -30.0413 H   0  0  0  0  0  0  0  0  0  0  0  0
   -4.8640   24.7310  -30.6600 C   0  0  0  0  0  0  0  0  0  0  0  0
   -3.8650   25.6850  -30.8160 O   0  0  0  0  0  0  0  0  0  0  0  0
   -4.5920   23.3800  -30.9170 C   0  0  0  0  0  0  0  0  0  0  0  0
   -3.2990   23.0240  -31.3320 O   0  0  0  0  0  0  0  0  0  0  0  0
   -2.9290   21.7280  -31.7890 C   0  0  0  0  0  0  0  0  0  0  0  0
   -2.7422   21.0739  -30.9246 H   0  0  0  0  0  0  0  0  0  0  0  0
   -3.7430   21.3076  -32.3978 H   0  0  0  0  0  0  0  0  0  0  0  0
   -2.0157   21.8008  -32.3978 H   0  0  0  0  0  0  0  0  0  0  0  0
   -5.6180   22.4290  -30.7550 C   0  0  0  0  0  0  0  0  0  0  0  0
   -5.4119   21.3657  -30.9470 H   0  0  0  0  0  0  0  0  0  0  0  0
  1  2  1  0
  2  3  1  0
  3  4  1  0
  4  5  1  0
  5  6  2  0
  5  7  1  0
  7  8  1  0
  8  9  2  0
  8 10  1  0
 10 11  1  0
 11 12  1  0
 11 13  2  0
 13 14  1  0
 14 15  1  0
 14 16  1  0
 14 17  1  0
 17 18  2  0
 18 19  1  0
 18 20  1  0
 20 21  1  0
 20 22  2  0
 22 23  1  0
 22 24  1  0
 24 25  1  0
 25 26  1  0
 26 27  1  0
 26 28  1  0
 26 29  1  0
 24 30  2  0
 30 31  1  0
 10  3  2  0
 30 17  1  0
M  CHG  3   4  -1   7  -1  23  -1
M  END
>  <UniqueID>  (39) 
37

>  <SMILES>  (39) 
COc1cc(C/N=C\c2c(O)[n-]c(=S)[n-]c2=O)ccc1[O-]

>  <Energy>  (39) 
37.408890752018344

>  <Genealogy>  (39) 
COc1cc(CN=Cc2c(O)[n-]c(=S)[n-]c2=O)ccc1[O-] (protonated)
COc1cc(C/N=C\c2c(O)[n-]c(=S)[n-]c2=O)ccc1[O-] (cis-trans isomerization)
COc1cc(C/N=C\c2c(O)[n-]c(=S)[n-]c2=O)ccc1[O-] (3D coordinates assigned)
COc1cc(C/N=C\c2c(O)[n-]c(=S)[n-]c2=O)ccc1[O-] (optimized conformer: 37.408890752018344 kcal/mol)

>  <smiles>  (39) 
COc1cc(CN=Cc2c(O)[nH]c(=S)[nH]c2=O)ccc1O

>  <score_type>  (39) 
oracle

>  <origin>  (39) 
adgpu

>  <m_score__min__energy>  (39) 
-9.6799999999999997

>  <m_primary>  (39) 
energy

$$$$
39:0
     RDKit          3D

 49 52  0  0  0  0  0  0  0  0999 V2000
   -2.8410   22.1180  -27.7180 C   0  0  0  0  0  0  0  0  0  0  0  0
   -1.7690   23.1710  -28.0230 C   0  0  0  0  0  0  0  0  0  0  0  0
   -0.6130   23.0730  -27.0200 C   0  0  0  0  0  0  0  0  0  0  0  0
   -2.3510   24.5970  -28.0670 C   0  0  0  0  0  0  0  0  0  0  0  0
   -2.7120   24.9840  -29.3940 O   0  0  0  0  0  0  0  0  0  0  0  0
   -3.6410   24.3060  -30.1900 C   0  0  0  0  0  0  0  0  0  0  0  0
   -4.9560   24.6310  -30.1930 N   0  0  0  0  0  0  0  0  0  0  0  0
   -5.6480   23.8260  -31.0360 C   0  0  0  0  0  0  0  0  0  0  0  0
   -6.9880   23.9070  -31.2220 N   0  0  0  0  0  0  0  0  0  0  0  0
   -7.6040   23.0400  -32.0790 C   0  0  0  0  0  0  0  0  0  0  0  0
   -9.0880   23.0860  -32.2490 C   0  0  0  0  0  0  0  0  0  0  0  0
   -9.7200   21.8610  -31.5780 C   0  0  0  0  0  0  0  0  0  0  0  0
   -9.3300   20.5150  -32.1690 C   0  0  0  0  0  0  0  0  0  0  0  0
   -8.7460   20.9570  -30.8370 C   0  0  0  0  0  0  0  0  0  0  0  0
   -6.8750   22.0790  -32.7270 N   0  0  0  0  0  0  0  0  0  0  0  0
   -5.5240   21.9760  -32.5680 C   0  0  0  0  0  0  0  0  0  0  0  0
   -4.7750   20.8640  -33.2430 C   0  0  0  0  0  0  0  0  0  0  0  0
   -5.3220   19.5320  -32.8070 C   0  0  0  0  0  0  0  0  0  0  0  0
   -6.1500   19.4350  -31.6760 C   0  0  0  0  0  0  0  0  0  0  0  0
   -6.6900   18.2020  -31.3010 C   0  0  0  0  0  0  0  0  0  0  0  0
   -6.4150   17.0570  -32.0530 C   0  0  0  0  0  0  0  0  0  0  0  0
   -5.5960   17.1430  -33.1870 C   0  0  0  0  0  0  0  0  0  0  0  0
   -5.3190   15.9660  -33.9670 C   0  0  0  0  0  0  0  0  0  0  0  0
   -5.0950   15.0190  -34.5940 N   0  0  0  0  0  0  0  0  0  0  0  0
   -5.0520   18.3780  -33.5640 C   0  0  0  0  0  0  0  0  0  0  0  0
   -4.9040   22.8710  -31.6990 C   0  0  0  0  0  0  0  0  0  0  0  0
   -3.2940   23.0140  -31.2390 S   0  0  0  0  0  0  0  0  0  0  0  0
   -2.9502   22.0108  -26.6287 H   0  0  0  0  0  0  0  0  0  0  0  0
   -3.8003   22.4346  -28.1532 H   0  0  0  0  0  0  0  0  0  0  0  0
   -2.5416   21.1532  -28.1532 H   0  0  0  0  0  0  0  0  0  0  0  0
   -1.3752   22.9579  -29.0278 H   0  0  0  0  0  0  0  0  0  0  0  0
   -1.0125   23.1069  -25.9957 H   0  0  0  0  0  0  0  0  0  0  0  0
   -0.0746   22.1260  -27.1725 H   0  0  0  0  0  0  0  0  0  0  0  0
    0.0772   23.9159  -27.1725 H   0  0  0  0  0  0  0  0  0  0  0  0
   -3.2464   24.6356  -27.4292 H   0  0  0  0  0  0  0  0  0  0  0  0
   -1.5780   25.2921  -27.7074 H   0  0  0  0  0  0  0  0  0  0  0  0
   -9.4816   24.0020  -31.7842 H   0  0  0  0  0  0  0  0  0  0  0  0
   -9.3334   23.0828  -33.3213 H   0  0  0  0  0  0  0  0  0  0  0  0
  -10.6712   22.3553  -31.3314 H   0  0  0  0  0  0  0  0  0  0  0  0
  -10.0636   19.6961  -32.2031 H   0  0  0  0  0  0  0  0  0  0  0  0
   -8.9105   20.1794  -33.1289 H   0  0  0  0  0  0  0  0  0  0  0  0
   -9.0572   20.4581  -29.9074 H   0  0  0  0  0  0  0  0  0  0  0  0
   -7.7292   21.0738  -30.4340 H   0  0  0  0  0  0  0  0  0  0  0  0
   -4.8829   20.9622  -34.3333 H   0  0  0  0  0  0  0  0  0  0  0  0
   -3.7126   20.9251  -32.9646 H   0  0  0  0  0  0  0  0  0  0  0  0
   -6.3742   20.3339  -31.0830 H   0  0  0  0  0  0  0  0  0  0  0  0
   -7.3333   18.1326  -30.4114 H   0  0  0  0  0  0  0  0  0  0  0  0
   -6.8414   16.0878  -31.7549 H   0  0  0  0  0  0  0  0  0  0  0  0
   -4.4112   18.4452  -34.4556 H   0  0  0  0  0  0  0  0  0  0  0  0
  1  2  1  0
  2  3  1  0
  2  4  1  0
  4  5  1  0
  5  6  1  0
  6  7  2  0
  7  8  1  0
  8  9  2  0
  9 10  1  0
 10 11  1  0
 11 12  1  0
 12 13  1  0
 13 14  1  0
 10 15  2  0
 15 16  1  0
 16 17  1  0
 17 18  1  0
 18 19  2  0
 19 20  1  0
 20 21  2  0
 21 22  1  0
 22 23  1  0
 23 24  3  0
 22 25  2  0
 16 26  2  0
 26 27  1  0
 27  6  1  0
 26  8  1  0
 14 12  1  0
 25 18  1  0
  1 28  1  0
  1 29  1  0
  1 30  1  0
  2 31  1  0
  3 32  1  0
  3 33  1  0
  3 34  1  0
  4 35  1  0
  4 36  1  0
 11 37  1  0
 11 38  1  0
 12 39  1  0
 13 40  1  0
 13 41  1  0
 14 42  1  0
 14 43  1  0
 17 44  1  0
 17 45  1  0
 19 46  1  0
 20 47  1  0
 21 48  1  0
 25 49  1  0
M  END
>  <UniqueID>  (40) 
38

>  <SMILES>  (40) 
CC(C)COc1nc2nc(CC3CC3)nc(Cc3cccc(C#N)c3)c2s1

>  <Energy>  (40) 
340.8556167168627

>  <Genealogy>  (40) 
CC(C)COc1nc2nc(CC3CC3)nc(Cc3cccc(C#N)c3)c2s1 (3D coordinates assigned)
CC(C)COc1nc2nc(CC3CC3)nc(Cc3cccc(C#N)c3)c2s1 (nonaromatic ring conformer: 340.8556167168627 kcal/mol)

>  <smiles>  (40) 
CC(C)COc1nc2nc(CC3CC3)nc(Cc3cccc(C#N)c3)c2s1

>  <score_type>  (40) 
oracle

>  <origin>  (40) 
adgpu

>  <m_score__min__energy>  (40) 
-9.4199999999999999

>  <m_primary>  (40) 
energy

$$$$
40:0
     RDKit          3D

 53 56  0  0  0  0  0  0  0  0999 V2000
   -9.1910   20.4380  -32.3200 C   0  0  0  0  0  0  0  0  0  0  0  0
   -8.6320   19.0620  -32.1460 C   0  0  0  0  0  0  0  0  0  0  0  0
   -9.3220   18.2010  -31.5370 O   0  0  0  0  0  0  0  0  0  0  0  0
   -7.3520   18.6880  -32.6820 N   0  0  0  0  0  0  0  0  0  0  0  0
   -7.0850   17.3670  -33.2560 C   0  0  0  0  0  0  0  0  0  0  0  0
   -5.6890   17.4580  -33.9150 C   0  0  0  0  0  0  0  0  0  0  0  0
   -5.2390   18.8360  -33.5790 C   0  0  0  0  0  0  0  0  0  0  0  0
   -3.9980   19.4140  -33.8440 C   0  0  0  0  0  0  0  0  0  0  0  0
   -3.7430   20.7080  -33.3670 C   0  0  0  0  0  0  0  0  0  0  0  0
   -4.7260   21.4050  -32.6250 C   0  0  0  0  0  0  0  0  0  0  0  0
   -4.4650   22.7100  -32.0790 N   0  0  0  0  0  0  0  0  0  0  0  0
   -3.5090   22.9740  -31.0430 C   0  0  0  0  0  0  0  0  0  0  0  0
   -2.6590   22.1000  -30.7180 O   0  0  0  0  0  0  0  0  0  0  0  0
   -3.4700   24.2740  -30.4430 N   0  0  0  0  0  0  0  0  0  0  0  0
   -3.3570   24.5350  -29.0380 C   0  0  0  0  0  0  0  0  0  0  0  0
   -4.3000   23.9660  -28.1750 C   0  0  0  0  0  0  0  0  0  0  0  0
   -4.2320   24.1990  -26.8020 C   0  0  0  0  0  0  0  0  0  0  0  0
   -3.2070   24.9840  -26.2730 C   0  0  0  0  0  0  0  0  0  0  0  0
   -2.2210   25.5210  -27.1130 C   0  0  0  0  0  0  0  0  0  0  0  0
   -0.9170   26.4900  -26.4170 S   0  0  0  0  0  0  0  0  0  0  0  0
   -1.4370   27.1510  -25.1710 O   0  0  0  0  0  0  0  0  0  0  0  0
   -0.4850   27.5470  -27.3960 O   0  0  0  0  0  0  0  0  0  0  0  0
    0.4500   25.4700  -26.0160 N   0  0  0  0  0  0  0  0  0  0  0  0
    0.3900   25.0600  -24.6080 C   0  0  0  0  0  0  0  0  0  0  0  0
   -0.2770   23.6930  -24.5350 C   0  0  0  0  0  0  0  0  0  0  0  0
   -0.3140   23.1770  -25.9590 C   0  0  0  0  0  0  0  0  0  0  0  0
    0.4100   24.2250  -26.7890 C   0  0  0  0  0  0  0  0  0  0  0  0
   -2.2930   25.2940  -28.5010 C   0  0  0  0  0  0  0  0  0  0  0  0
   -1.3020   25.7960  -29.3380 O   0  0  0  0  0  0  0  0  0  0  0  0
   -5.9590   20.7800  -32.3500 C   0  0  0  0  0  0  0  0  0  0  0  0
   -6.2040   19.5040  -32.8750 C   0  0  0  0  0  0  0  0  0  0  0  0
   -9.3735   20.8872  -31.3326 H   0  0  0  0  0  0  0  0  0  0  0  0
   -8.4733   21.0575  -32.8777 H   0  0  0  0  0  0  0  0  0  0  0  0
  -10.1375   20.3815  -32.8777 H   0  0  0  0  0  0  0  0  0  0  0  0
   -7.0850   16.6010  -32.4666 H   0  0  0  0  0  0  0  0  0  0  0  0
   -7.8563   17.0841  -33.9875 H   0  0  0  0  0  0  0  0  0  0  0  0
   -5.0049   16.7067  -33.4936 H   0  0  0  0  0  0  0  0  0  0  0  0
   -5.7115   17.2653  -34.9978 H   0  0  0  0  0  0  0  0  0  0  0  0
   -3.2344   18.8661  -34.4156 H   0  0  0  0  0  0  0  0  0  0  0  0
   -2.7726   21.1842  -33.5710 H   0  0  0  0  0  0  0  0  0  0  0  0
   -4.9430   23.5330  -32.5120 H   0  0  0  0  0  0  0  0  0  0  0  0
   -5.1002   23.3307  -28.5824 H   0  0  0  0  0  0  0  0  0  0  0  0
   -4.9889   23.7625  -26.1337 H   0  0  0  0  0  0  0  0  0  0  0  0
   -3.1722   25.1826  -25.1916 H   0  0  0  0  0  0  0  0  0  0  0  0
    1.4076   24.9997  -24.1947 H   0  0  0  0  0  0  0  0  0  0  0  0
   -0.1854   25.7936  -24.0243 H   0  0  0  0  0  0  0  0  0  0  0  0
    0.3080   23.0146  -23.8966 H   0  0  0  0  0  0  0  0  0  0  0  0
   -1.2855   23.7566  -24.1004 H   0  0  0  0  0  0  0  0  0  0  0  0
    0.2005   22.2074  -26.0301 H   0  0  0  0  0  0  0  0  0  0  0  0
   -1.3446   23.0190  -26.3095 H   0  0  0  0  0  0  0  0  0  0  0  0
    1.4343   23.8872  -27.0051 H   0  0  0  0  0  0  0  0  0  0  0  0
   -0.1145   24.3851  -27.7426 H   0  0  0  0  0  0  0  0  0  0  0  0
   -6.7167   21.2856  -31.7333 H   0  0  0  0  0  0  0  0  0  0  0  0
  1  2  1  0
  2  3  2  0
  2  4  1  0
  4  5  1  0
  5  6  1  0
  6  7  1  0
  7  8  2  0
  8  9  1  0
  9 10  2  0
 10 11  1  0
 11 12  1  0
 12 13  2  0
 12 14  1  0
 14 15  1  0
 15 16  2  0
 16 17  1  0
 17 18  2  0
 18 19  1  0
 19 20  1  0
 20 21  2  0
 20 22  2  0
 20 23  1  0
 23 24  1  0
 24 25  1  0
 25 26  1  0
 26 27  1  0
 19 28  2  0
 28 29  1  0
 10 30  1  0
 30 31  2  0
 31  4  1  0
 31  7  1  0
 28 15  1  0
 27 23  1  0
  1 32  1  0
  1 33  1  0
  1 34  1  0
  5 35  1  0
  5 36  1  0
  6 37  1  0
  6 38  1  0
  8 39  1  0
  9 40  1  0
 11 41  1  0
 16 42  1  0
 17 43  1  0
 18 44  1  0
 24 45  1  0
 24 46  1  0
 25 47  1  0
 25 48  1  0
 26 49  1  0
 26 50  1  0
 27 51  1  0
 27 52  1  0
 30 53  1  0
M  CHG  2  14  -1  29  -1
M  END
>  <UniqueID>  (41) 
39

>  <SMILES>  (41) 
CC(=O)N1CCc2ccc(NC(=O)[N-]c3cccc(S(=O)(=O)N4CCCC4)c3[O-])cc21

>  <Energy>  (41) 
83.11078549099257

>  <Genealogy>  (41) 
CC(=O)N1CCc2ccc(NC(=O)[N-]c3cccc(S(=O)(=O)N4CCCC4)c3[O-])cc21 (protonated)
CC(=O)N1CCc2ccc(NC(=O)[N-]c3cccc(S(=O)(=O)N4CCCC4)c3[O-])cc21 (3D coordinates assigned)
CC(=O)N1CCc2ccc(NC(=O)[N-]c3cccc(S(=O)(=O)N4CCCC4)c3[O-])cc21 (nonaromatic ring conformer: 83.11078549099257 kcal/mol)

>  <smiles>  (41) 
CC(=O)N1CCc2ccc(NC(=O)Nc3cccc(S(=O)(=O)N4CCCC4)c3O)cc21

>  <score_type>  (41) 
oracle

>  <origin>  (41) 
adgpu

>  <m_score__min__energy>  (41) 
-14.35

>  <m_primary>  (41) 
energy

$$$$
41:0
     RDKit          3D

 61 64  0  0  0  0  0  0  0  0999 V2000
   -3.8370   25.0570  -30.6630 O   0  0  0  0  0  0  0  0  0  0  0  0
   -3.3870   23.8790  -30.7010 C   0  0  0  0  0  0  0  0  0  0  0  0
   -4.0240   22.8970  -31.5320 N   0  0  0  0  0  0  0  0  0  0  0  0
   -5.4300   22.6280  -31.6300 C   0  0  0  0  0  0  0  0  0  0  0  0
   -6.4030   23.6120  -31.3730 C   0  0  0  0  0  0  0  0  0  0  0  0
   -7.7600   23.3050  -31.4970 C   0  0  0  0  0  0  0  0  0  0  0  0
   -8.1590   22.0240  -31.8830 C   0  0  0  0  0  0  0  0  0  0  0  0
   -7.1980   21.0480  -32.1750 C   0  0  0  0  0  0  0  0  0  0  0  0
   -7.6860   19.4210  -32.6510 S   0  0  0  0  0  0  0  0  0  0  0  0
   -7.5880   18.4870  -31.4790 O   0  0  0  0  0  0  0  0  0  0  0  0
   -9.1220   19.4690  -33.0920 O   0  0  0  0  0  0  0  0  0  0  0  0
   -6.7250   18.8090  -33.9680 N   0  0  0  0  0  0  0  0  0  0  0  0
   -5.8590   17.6910  -33.5700 C   0  0  0  0  0  0  0  0  0  0  0  0
   -4.4680   17.8950  -34.2140 C   0  0  0  0  0  0  0  0  0  0  0  0
   -3.6610   16.5900  -34.3860 C   0  0  0  0  0  0  0  0  0  0  0  0
   -4.1000   15.5090  -33.3950 C   0  0  0  0  0  0  0  0  0  0  0  0
   -5.5830   15.1480  -33.5890 C   0  0  0  0  0  0  0  0  0  0  0  0
   -6.4630   16.3440  -34.0110 C   0  0  0  0  0  0  0  0  0  0  0  0
   -5.8380   21.3550  -32.0450 C   0  0  0  0  0  0  0  0  0  0  0  0
   -2.2260   23.4890  -29.8550 C   0  0  0  0  0  0  0  0  0  0  0  0
   -1.7590   22.1590  -29.8880 C   0  0  0  0  0  0  0  0  0  0  0  0
   -0.6650   21.7600  -29.1120 C   0  0  0  0  0  0  0  0  0  0  0  0
   -0.1040   20.0910  -29.1980 S   0  0  0  0  0  0  0  0  0  0  0  0
    0.9670   19.8500  -28.1680 O   0  0  0  0  0  0  0  0  0  0  0  0
   -1.2670   19.1830  -28.9050 O   0  0  0  0  0  0  0  0  0  0  0  0
    0.5120   19.7670  -30.8050 N   0  0  0  0  0  0  0  0  0  0  0  0
   -0.0520   18.5190  -31.3320 C   0  0  0  0  0  0  0  0  0  0  0  0
   -1.2750   18.8680  -32.1680 C   0  0  0  0  0  0  0  0  0  0  0  0
   -1.1800   20.3580  -32.4310 C   0  0  0  0  0  0  0  0  0  0  0  0
    0.0940   20.8170  -31.7390 C   0  0  0  0  0  0  0  0  0  0  0  0
   -0.0150   22.6930  -28.2980 C   0  0  0  0  0  0  0  0  0  0  0  0
   -0.4620   24.0140  -28.2520 C   0  0  0  0  0  0  0  0  0  0  0  0
   -1.5630   24.4210  -29.0220 C   0  0  0  0  0  0  0  0  0  0  0  0
   -1.9870   25.7480  -28.9580 O   0  0  0  0  0  0  0  0  0  0  0  0
   -6.0942   24.6245  -31.0740 H   0  0  0  0  0  0  0  0  0  0  0  0
   -8.5172   24.0755  -31.2897 H   0  0  0  0  0  0  0  0  0  0  0  0
   -9.2292   21.7811  -31.9579 H   0  0  0  0  0  0  0  0  0  0  0  0
   -5.7667   17.6700  -32.4741 H   0  0  0  0  0  0  0  0  0  0  0  0
   -4.6088   18.3485  -35.2062 H   0  0  0  0  0  0  0  0  0  0  0  0
   -3.8922   18.5392  -33.5332 H   0  0  0  0  0  0  0  0  0  0  0  0
   -3.8076   16.2142  -35.4094 H   0  0  0  0  0  0  0  0  0  0  0  0
   -2.6022   16.8176  -34.1933 H   0  0  0  0  0  0  0  0  0  0  0  0
   -3.4878   14.6086  -33.5513 H   0  0  0  0  0  0  0  0  0  0  0  0
   -3.9656   15.8960  -32.3741 H   0  0  0  0  0  0  0  0  0  0  0  0
   -5.6530   14.3738  -34.3672 H   0  0  0  0  0  0  0  0  0  0  0  0
   -5.9590   14.8000  -32.6156 H   0  0  0  0  0  0  0  0  0  0  0  0
   -6.5632   16.3417  -35.1064 H   0  0  0  0  0  0  0  0  0  0  0  0
   -7.4417   16.2345  -33.5208 H   0  0  0  0  0  0  0  0  0  0  0  0
   -5.0827   20.5880  -32.2713 H   0  0  0  0  0  0  0  0  0  0  0  0
   -2.2622   21.4240  -30.5334 H   0  0  0  0  0  0  0  0  0  0  0  0
    0.6941   18.0080  -31.9583 H   0  0  0  0  0  0  0  0  0  0  0  0
   -0.3338   17.8497  -30.5058 H   0  0  0  0  0  0  0  0  0  0  0  0
   -1.2639   18.3097  -33.1157 H   0  0  0  0  0  0  0  0  0  0  0  0
   -2.2093   18.6057  -31.6501 H   0  0  0  0  0  0  0  0  0  0  0  0
   -1.1214   20.5538  -33.5118 H   0  0  0  0  0  0  0  0  0  0  0  0
   -2.0631   20.8943  -32.0535 H   0  0  0  0  0  0  0  0  0  0  0  0
    0.8833   20.9864  -32.4862 H   0  0  0  0  0  0  0  0  0  0  0  0
   -0.0855   21.7576  -31.1976 H   0  0  0  0  0  0  0  0  0  0  0  0
    0.8503   22.3849  -27.6928 H   0  0  0  0  0  0  0  0  0  0  0  0
    0.0523   24.7421  -27.6074 H   0  0  0  0  0  0  0  0  0  0  0  0
   -2.8760   26.0450  -29.3450 H   0  0  0  0  0  0  0  0  0  0  0  0
  1  2  2  0
  2  3  1  0
  3  4  1  0
  4  5  2  0
  5  6  1  0
  6  7  2  0
  7  8  1  0
  8  9  1  0
  9 10  2  0
  9 11  2  0
  9 12  1  0
 12 13  1  0
 13 14  1  0
 14 15  1  0
 15 16  1  0
 16 17  1  0
 17 18  1  0
  8 19  2  0
  2 20  1  0
 20 21  2  0
 21 22  1  0
 22 23  1  0
 23 24  2  0
 23 25  2  0
 23 26  1  0
 26 27  1  0
 27 28  1  0
 28 29  1  0
 29 30  1  0
 22 31  2  0
 31 32  1  0
 32 33  2  0
 33 34  1  0
 19  4  1  0
 33 20  1  0
 18 13  1  0
 30 26  1  0
  5 35  1  0
  6 36  1  0
  7 37  1  0
 13 38  1  0
 14 39  1  0
 14 40  1  0
 15 41  1  0
 15 42  1  0
 16 43  1  0
 16 44  1  0
 17 45  1  0
 17 46  1  0
 18 47  1  0
 18 48  1  0
 19 49  1  0
 21 50  1  0
 27 51  1  0
 27 52  1  0
 28 53  1  0
 28 54  1  0
 29 55  1  0
 29 56  1  0
 30 57  1  0
 30 58  1  0
 31 59  1  0
 32 60  1  0
 34 61  1  0
M  CHG  2   3  -1  12  -1
M  END
>  <UniqueID>  (42) 
40

>  <SMILES>  (42) 
O=C([N-]c1cccc(S(=O)(=O)[N-]C2CCCCC2)c1)c1cc(S(=O)(=O)N2CCCC2)ccc1O

>  <Energy>  (42) 
71.48133834515491

>  <Genealogy>  (42) 
O=C([N-]c1cccc(S(=O)(=O)[N-]C2CCCCC2)c1)c1cc(S(=O)(=O)N2CCCC2)ccc1O (protonated)
O=C([N-]c1cccc(S(=O)(=O)[N-]C2CCCCC2)c1)c1cc(S(=O)(=O)N2CCCC2)ccc1O (3D coordinates assigned)
O=C([N-]c1cccc(S(=O)(=O)[N-]C2CCCCC2)c1)c1cc(S(=O)(=O)N2CCCC2)ccc1O (nonaromatic ring conformer: 71.48133834515491 kcal/mol)

>  <smiles>  (42) 
O=C(Nc1cccc(S(=O)(=O)NC2CCCCC2)c1)c1cc(S(=O)(=O)N2CCCC2)ccc1O

>  <score_type>  (42) 
oracle

>  <origin>  (42) 
adgpu

>  <m_score__min__energy>  (42) 
-11.93

>  <m_primary>  (42) 
energy

$$$$
42:0
     RDKit          3D

 53 56  0  0  0  0  0  0  0  0999 V2000
   -0.8960   15.4590  -32.1470 O   0  0  0  0  0  0  0  0  0  0  0  0
   -1.2550   16.2910  -33.0250 C   0  0  0  0  0  0  0  0  0  0  0  0
   -2.6860   16.6350  -33.1670 C   0  0  0  0  0  0  0  0  0  0  0  0
   -3.6720   15.6390  -33.0710 C   0  0  0  0  0  0  0  0  0  0  0  0
   -5.0230   15.9710  -33.2050 C   0  0  0  0  0  0  0  0  0  0  0  0
   -5.4070   17.3020  -33.4230 C   0  0  0  0  0  0  0  0  0  0  0  0
   -6.7560   17.6350  -33.5320 O   0  0  0  0  0  0  0  0  0  0  0  0
   -4.4270   18.3010  -33.5180 C   0  0  0  0  0  0  0  0  0  0  0  0
   -4.7920   19.6660  -33.7120 N   0  0  0  0  0  0  0  0  0  0  0  0
   -5.9520   20.4400  -32.6890 S   0  0  0  0  0  0  0  0  0  0  0  0
   -7.1700   20.8210  -33.4830 O   0  0  0  0  0  0  0  0  0  0  0  0
   -6.3720   19.4810  -31.6090 O   0  0  0  0  0  0  0  0  0  0  0  0
   -5.2330   21.8720  -31.9620 C   0  0  0  0  0  0  0  0  0  0  0  0
   -3.8890   21.8610  -31.5650 C   0  0  0  0  0  0  0  0  0  0  0  0
   -3.3120   23.0040  -31.0050 C   0  0  0  0  0  0  0  0  0  0  0  0
   -4.0780   24.1620  -30.8270 C   0  0  0  0  0  0  0  0  0  0  0  0
   -3.5020   25.2980  -30.2720 O   0  0  0  0  0  0  0  0  0  0  0  0
   -5.4260   24.1700  -31.2020 C   0  0  0  0  0  0  0  0  0  0  0  0
   -6.0030   23.0280  -31.7650 C   0  0  0  0  0  0  0  0  0  0  0  0
   -3.0750   17.9680  -33.3780 C   0  0  0  0  0  0  0  0  0  0  0  0
   -0.2640   16.9080  -33.8610 N   0  0  0  0  0  0  0  0  0  0  0  0
    0.9370   17.4840  -33.2420 C   0  0  0  0  0  0  0  0  0  0  0  0
    1.8440   18.1340  -34.2930 C   0  0  0  0  0  0  0  0  0  0  0  0
    1.0260   18.8940  -35.2470 N   0  0  0  0  0  0  0  0  0  0  0  0
    1.2340   20.3070  -35.4480 C   0  0  0  0  0  0  0  0  0  0  0  0
    2.5350   20.8410  -35.4770 C   0  0  0  0  0  0  0  0  0  0  0  0
    2.7310   22.2160  -35.6370 C   0  0  0  0  0  0  0  0  0  0  0  0
    1.6330   23.0700  -35.7620 C   0  0  0  0  0  0  0  0  0  0  0  0
    0.3370   22.5510  -35.7260 C   0  0  0  0  0  0  0  0  0  0  0  0
    0.1360   21.1770  -35.5690 C   0  0  0  0  0  0  0  0  0  0  0  0
   -0.0890   18.2270  -35.9350 C   0  0  0  0  0  0  0  0  0  0  0  0
   -0.3960   16.8550  -35.3240 C   0  0  0  0  0  0  0  0  0  0  0  0
   -3.3798   14.5941  -32.8897 H   0  0  0  0  0  0  0  0  0  0  0  0
   -5.7890   15.1843  -33.1391 H   0  0  0  0  0  0  0  0  0  0  0  0
   -7.0690   18.5980  -33.4990 H   0  0  0  0  0  0  0  0  0  0  0  0
   -3.2864   20.9499  -31.6946 H   0  0  0  0  0  0  0  0  0  0  0  0
   -2.2541   22.9937  -30.7036 H   0  0  0  0  0  0  0  0  0  0  0  0
   -6.0323   25.0758  -31.0536 H   0  0  0  0  0  0  0  0  0  0  0  0
   -7.0642   23.0358  -32.0545 H   0  0  0  0  0  0  0  0  0  0  0  0
   -2.3105   18.7569  -33.4337 H   0  0  0  0  0  0  0  0  0  0  0  0
    0.6329   18.2462  -32.5095 H   0  0  0  0  0  0  0  0  0  0  0  0
    1.4975   16.6755  -32.7499 H   0  0  0  0  0  0  0  0  0  0  0  0
    2.5523   18.8130  -33.7958 H   0  0  0  0  0  0  0  0  0  0  0  0
    2.3997   17.3514  -34.8304 H   0  0  0  0  0  0  0  0  0  0  0  0
    3.4029   20.1731  -35.3732 H   0  0  0  0  0  0  0  0  0  0  0  0
    3.7514   22.6258  -35.6645 H   0  0  0  0  0  0  0  0  0  0  0  0
    1.7890   24.1515  -35.8888 H   0  0  0  0  0  0  0  0  0  0  0  0
   -0.5271   23.2249  -35.8214 H   0  0  0  0  0  0  0  0  0  0  0  0
   -0.8870   20.7738  -35.5399 H   0  0  0  0  0  0  0  0  0  0  0  0
   -0.9852   18.8600  -35.8571 H   0  0  0  0  0  0  0  0  0  0  0  0
    0.1987   18.0766  -36.9860 H   0  0  0  0  0  0  0  0  0  0  0  0
   -1.4238   16.5629  -35.5854 H   0  0  0  0  0  0  0  0  0  0  0  0
    0.3174   16.1181  -35.7216 H   0  0  0  0  0  0  0  0  0  0  0  0
  1  2  2  0
  2  3  1  0
  3  4  2  0
  4  5  1  0
  5  6  2  0
  6  7  1  0
  6  8  1  0
  8  9  1  0
  9 10  1  0
 10 11  2  0
 10 12  2  0
 10 13  1  0
 13 14  2  0
 14 15  1  0
 15 16  2  0
 16 17  1  0
 16 18  1  0
 18 19  2  0
  8 20  2  0
  2 21  1  0
 21 22  1  0
 22 23  1  0
 23 24  1  0
 24 25  1  0
 25 26  2  0
 26 27  1  0
 27 28  2  0
 28 29  1  0
 29 30  2  0
 24 31  1  0
 31 32  1  0
 20  3  1  0
 32 21  1  0
 19 13  1  0
 30 25  1  0
  4 33  1  0
  5 34  1  0
  7 35  1  0
 14 36  1  0
 15 37  1  0
 18 38  1  0
 19 39  1  0
 20 40  1  0
 22 41  1  0
 22 42  1  0
 23 43  1  0
 23 44  1  0
 26 45  1  0
 27 46  1  0
 28 47  1  0
 29 48  1  0
 30 49  1  0
 31 50  1  0
 31 51  1  0
 32 52  1  0
 32 53  1  0
M  CHG  2   9  -1  17  -1
M  END
>  <UniqueID>  (43) 
41

>  <SMILES>  (43) 
O=C(c1ccc(O)c([N-]S(=O)(=O)c2ccc([O-])cc2)c1)N1CCN(c2ccccc2)CC1

>  <Energy>  (43) 
70.94965010597343

>  <Genealogy>  (43) 
O=C(c1ccc(O)c([N-]S(=O)(=O)c2ccc([O-])cc2)c1)N1CCN(c2ccccc2)CC1 (protonated)
O=C(c1ccc(O)c([N-]S(=O)(=O)c2ccc([O-])cc2)c1)N1CCN(c2ccccc2)CC1 (3D coordinates assigned)
O=C(c1ccc(O)c([N-]S(=O)(=O)c2ccc([O-])cc2)c1)N1CCN(c2ccccc2)CC1 (nonaromatic ring conformer: 70.94965010597343 kcal/mol)

>  <smiles>  (43) 
O=C(c1ccc(O)c(NS(=O)(=O)c2ccc(O)cc2)c1)N1CCN(c2ccccc2)CC1

>  <score_type>  (43) 
oracle

>  <origin>  (43) 
adgpu

>  <m_score__min__energy>  (43) 
-12.140000000000001

>  <m_primary>  (43) 
energy

$$$$
43:0
     RDKit          3D

 27 28  0  0  0  0  0  0  0  0999 V2000
   -1.6440   25.6680  -28.9840 N   0  0  0  0  0  0  0  0  0  0  0  0
   -2.2600   24.3840  -28.9300 C   0  0  0  0  0  0  0  0  0  0  0  0
   -1.8460   23.5270  -28.1040 O   0  0  0  0  0  0  0  0  0  0  0  0
   -3.3720   24.0620  -29.8330 C   0  0  0  0  0  0  0  0  0  0  0  0
   -3.3310   23.1640  -30.8930 C   0  0  0  0  0  0  0  0  0  0  0  0
   -4.5560   23.0620  -31.5750 C   0  0  0  0  0  0  0  0  0  0  0  0
   -4.7870   22.2000  -32.6990 N   0  0  0  0  0  0  0  0  0  0  0  0
   -4.8400   20.4710  -32.5700 S   0  0  0  0  0  0  0  0  0  0  0  0
   -3.9760   20.0490  -31.4160 O   0  0  0  0  0  0  0  0  0  0  0  0
   -4.2950   19.8640  -33.8320 O   0  0  0  0  0  0  0  0  0  0  0  0
   -6.5100   19.9320  -32.3550 C   0  0  0  0  0  0  0  0  0  0  0  0
   -6.7780   18.5720  -32.1210 C   0  0  0  0  0  0  0  0  0  0  0  0
   -5.7680   17.6690  -32.0380 F   0  0  0  0  0  0  0  0  0  0  0  0
   -8.0960   18.1310  -31.9660 C   0  0  0  0  0  0  0  0  0  0  0  0
   -9.1520   19.0410  -32.0360 C   0  0  0  0  0  0  0  0  0  0  0  0
   -8.8950   20.3960  -32.2560 C   0  0  0  0  0  0  0  0  0  0  0  0
   -9.9250   21.2760  -32.3150 F   0  0  0  0  0  0  0  0  0  0  0  0
   -7.5790   20.8450  -32.4120 C   0  0  0  0  0  0  0  0  0  0  0  0
   -7.3550   22.1680  -32.6150 F   0  0  0  0  0  0  0  0  0  0  0  0
   -5.5550   23.8790  -31.0570 C   0  0  0  0  0  0  0  0  0  0  0  0
   -4.9180   24.7240  -29.7500 S   0  0  0  0  0  0  0  0  0  0  0  0
   -1.2250   26.0260  -29.8700 H   0  0  0  0  0  0  0  0  0  0  0  0
   -2.4329   22.5922  -31.1697 H   0  0  0  0  0  0  0  0  0  0  0  0
   -4.9750   22.6240  -33.6340 H   0  0  0  0  0  0  0  0  0  0  0  0
   -8.3009   17.0649  -31.7886 H   0  0  0  0  0  0  0  0  0  0  0  0
  -10.1879   18.6905  -31.9177 H   0  0  0  0  0  0  0  0  0  0  0  0
   -6.5843   23.9588  -31.4367 H   0  0  0  0  0  0  0  0  0  0  0  0
  1  2  1  0
  2  3  2  0
  2  4  1  0
  4  5  2  0
  5  6  1  0
  6  7  1  0
  7  8  1  0
  8  9  2  0
  8 10  2  0
  8 11  1  0
 11 12  2  0
 12 13  1  0
 12 14  1  0
 14 15  2  0
 15 16  1  0
 16 17  1  0
 16 18  2  0
 18 19  1  0
  6 20  2  0
 20 21  1  0
 21  4  1  0
 18 11  1  0
  1 22  1  0
  5 23  1  0
  7 24  1  0
 14 25  1  0
 15 26  1  0
 20 27  1  0
M  CHG  1   1  -1
M  END
>  <UniqueID>  (44) 
42

>  <SMILES>  (44) 
[NH-]C(=O)c1cc(NS(=O)(=O)c2c(F)ccc(F)c2F)cs1

>  <Energy>  (44) 
55.054158087374546

>  <Genealogy>  (44) 
[NH-]C(=O)c1cc(NS(=O)(=O)c2c(F)ccc(F)c2F)cs1 (protonated)
[NH-]C(=O)c1cc(NS(=O)(=O)c2c(F)ccc(F)c2F)cs1 (3D coordinates assigned)
[NH-]C(=O)c1cc(NS(=O)(=O)c2c(F)ccc(F)c2F)cs1 (optimized conformer: 55.054158087374546 kcal/mol)

>  <smiles>  (44) 
NC(=O)c1cc(NS(=O)(=O)c2c(F)ccc(F)c2F)cs1

>  <score_type>  (44) 
oracle

>  <origin>  (44) 
adgpu

>  <m_score__min__energy>  (44) 
-9.8499999999999996

>  <m_primary>  (44) 
energy

$$$$
44:0
     RDKit          3D

 33 34  0  0  0  0  0  0  0  0999 V2000
   -0.6770   26.0020  -23.6770 C   0  0  0  0  0  0  0  0  0  0  0  0
   -0.8650   26.0730  -25.1640 C   0  0  0  0  0  0  0  0  0  0  0  0
    0.0200   26.8200  -25.9510 C   0  0  0  0  0  0  0  0  0  0  0  0
   -0.1270   26.8500  -27.3390 C   0  0  0  0  0  0  0  0  0  0  0  0
   -1.1520   26.1270  -27.9570 C   0  0  0  0  0  0  0  0  0  0  0  0
   -1.2390   26.1340  -29.3460 O   0  0  0  0  0  0  0  0  0  0  0  0
   -2.0550   25.3760  -27.1780 C   0  0  0  0  0  0  0  0  0  0  0  0
   -3.1550   24.6020  -27.7930 C   0  0  0  0  0  0  0  0  0  0  0  0
   -3.6830   23.6650  -27.1350 O   0  0  0  0  0  0  0  0  0  0  0  0
   -3.6210   24.9130  -29.1190 N   0  0  0  0  0  0  0  0  0  0  0  0
   -4.7030   24.2290  -29.7720 C   0  0  0  0  0  0  0  0  0  0  0  0
   -5.9820   24.8070  -29.7690 C   0  0  0  0  0  0  0  0  0  0  0  0
   -7.0580   24.1510  -30.3750 C   0  0  0  0  0  0  0  0  0  0  0  0
   -6.8720   22.9030  -30.9820 C   0  0  0  0  0  0  0  0  0  0  0  0
   -8.2310   22.0720  -31.7300 S   0  0  0  0  0  0  0  0  0  0  0  0
   -7.6460   20.9670  -32.9230 N   0  0  0  0  0  0  0  0  0  0  0  0
   -9.0070   21.3200  -30.6840 O   0  0  0  0  0  0  0  0  0  0  0  0
   -9.1450   23.0730  -32.3810 O   0  0  0  0  0  0  0  0  0  0  0  0
   -5.6050   22.3060  -30.9590 C   0  0  0  0  0  0  0  0  0  0  0  0
   -4.5280   22.9610  -30.3550 C   0  0  0  0  0  0  0  0  0  0  0  0
   -1.8870   25.3360  -25.7830 C   0  0  0  0  0  0  0  0  0  0  0  0
   -1.5925   26.3478  -23.1747 H   0  0  0  0  0  0  0  0  0  0  0  0
   -0.4676   24.9629  -23.3831 H   0  0  0  0  0  0  0  0  0  0  0  0
    0.1670   26.6433  -23.3831 H   0  0  0  0  0  0  0  0  0  0  0  0
    0.8341   27.3853  -25.4739 H   0  0  0  0  0  0  0  0  0  0  0  0
    0.5673   27.4457  -27.9498 H   0  0  0  0  0  0  0  0  0  0  0  0
   -3.1180   25.6440  -29.6690 H   0  0  0  0  0  0  0  0  0  0  0  0
   -6.1391   25.7830  -29.2865 H   0  0  0  0  0  0  0  0  0  0  0  0
   -8.0543   24.6172  -30.3748 H   0  0  0  0  0  0  0  0  0  0  0  0
   -8.3440   20.1920  -32.9870 H   0  0  0  0  0  0  0  0  0  0  0  0
   -5.4570   21.3175  -31.4182 H   0  0  0  0  0  0  0  0  0  0  0  0
   -3.5379   22.4821  -30.3355 H   0  0  0  0  0  0  0  0  0  0  0  0
   -2.5629   24.7213  -25.1704 H   0  0  0  0  0  0  0  0  0  0  0  0
  1  2  1  0
  2  3  2  0
  3  4  1  0
  4  5  2  0
  5  6  1  0
  5  7  1  0
  7  8  1  0
  8  9  2  0
  8 10  1  0
 10 11  1  0
 11 12  2  0
 12 13  1  0
 13 14  2  0
 14 15  1  0
 15 16  1  0
 15 17  2  0
 15 18  2  0
 14 19  1  0
 19 20  2  0
  7 21  2  0
 21  2  1  0
 20 11  1  0
  1 22  1  0
  1 23  1  0
  1 24  1  0
  3 25  1  0
  4 26  1  0
 10 27  1  0
 12 28  1  0
 13 29  1  0
 16 30  1  0
 19 31  1  0
 20 32  1  0
 21 33  1  0
M  CHG  2   6  -1  16  -1
M  END
>  <UniqueID>  (45) 
43

>  <SMILES>  (45) 
Cc1ccc([O-])c(C(=O)Nc2ccc(S([NH-])(=O)=O)cc2)c1

>  <Energy>  (45) 
41.55451924325116

>  <Genealogy>  (45) 
Cc1ccc([O-])c(C(=O)Nc2ccc(S([NH-])(=O)=O)cc2)c1 (protonated)
Cc1ccc([O-])c(C(=O)Nc2ccc(S([NH-])(=O)=O)cc2)c1 (3D coordinates assigned)
Cc1ccc([O-])c(C(=O)Nc2ccc(S([NH-])(=O)=O)cc2)c1 (optimized conformer: 41.55451924325116 kcal/mol)

>  <smiles>  (45) 
Cc1ccc(O)c(C(=O)Nc2ccc(S(N)(=O)=O)cc2)c1

>  <score_type>  (45) 
oracle

>  <origin>  (45) 
adgpu

>  <m_score__min__energy>  (45) 
-10.06

>  <m_primary>  (45) 
energy

$$$$
45:0
     RDKit          3D

 58 61  0  0  0  0  0  0  0  0999 V2000
    1.0610   21.3130  -36.3860 N   0  0  0  0  0  0  0  0  0  0  0  0
    1.0360   20.1050  -35.6240 C   0  0  0  0  0  0  0  0  0  0  0  0
    1.4530   19.0420  -36.1570 O   0  0  0  0  0  0  0  0  0  0  0  0
    0.5230   20.1070  -34.2280 C   0  0  0  0  0  0  0  0  0  0  0  0
    0.7860   19.0060  -33.3900 C   0  0  0  0  0  0  0  0  0  0  0  0
    0.3230   18.9820  -32.0740 C   0  0  0  0  0  0  0  0  0  0  0  0
   -0.4190   20.0540  -31.5630 C   0  0  0  0  0  0  0  0  0  0  0  0
   -0.8730   20.0390  -30.1960 N   0  0  0  0  0  0  0  0  0  0  0  0
   -2.3020   20.2220  -29.9020 C   0  0  0  0  0  0  0  0  0  0  0  0
   -2.6940   21.6610  -30.0990 C   0  0  0  0  0  0  0  0  0  0  0  0
   -3.9070   21.9910  -30.7190 C   0  0  0  0  0  0  0  0  0  0  0  0
   -4.2950   23.3270  -30.8400 C   0  0  0  0  0  0  0  0  0  0  0  0
   -3.4760   24.3460  -30.3440 C   0  0  0  0  0  0  0  0  0  0  0  0
   -3.8810   25.6700  -30.4750 O   0  0  0  0  0  0  0  0  0  0  0  0
   -2.2530   24.0330  -29.7260 C   0  0  0  0  0  0  0  0  0  0  0  0
   -1.4360   25.0850  -29.1810 N   0  0  0  0  0  0  0  0  0  0  0  0
   -1.4800   25.5150  -27.8080 C   0  0  0  0  0  0  0  0  0  0  0  0
   -2.4400   25.0070  -26.9130 C   0  0  0  0  0  0  0  0  0  0  0  0
   -2.4490   25.4230  -25.5780 C   0  0  0  0  0  0  0  0  0  0  0  0
   -1.4930   26.3350  -25.1220 C   0  0  0  0  0  0  0  0  0  0  0  0
   -0.5230   26.8270  -25.9990 C   0  0  0  0  0  0  0  0  0  0  0  0
   -0.5110   26.4130  -27.3350 C   0  0  0  0  0  0  0  0  0  0  0  0
   -1.8800   22.6840  -29.5880 C   0  0  0  0  0  0  0  0  0  0  0  0
    0.0680   19.7460  -29.1030 C   0  0  0  0  0  0  0  0  0  0  0  0
   -0.1760   20.6660  -27.9300 C   0  0  0  0  0  0  0  0  0  0  0  0
    0.5660   21.8600  -27.8420 C   0  0  0  0  0  0  0  0  0  0  0  0
    0.4010   22.7230  -26.7570 C   0  0  0  0  0  0  0  0  0  0  0  0
   -0.5030   22.4080  -25.7450 C   0  0  0  0  0  0  0  0  0  0  0  0
   -1.2460   21.2280  -25.8130 C   0  0  0  0  0  0  0  0  0  0  0  0
   -1.0950   20.3480  -26.8960 C   0  0  0  0  0  0  0  0  0  0  0  0
   -1.8850   19.1500  -26.9230 N   0  0  0  0  0  0  0  0  0  0  0  0
   -0.6870   21.1550  -32.3870 C   0  0  0  0  0  0  0  0  0  0  0  0
   -0.2250   21.1910  -33.7100 C   0  0  0  0  0  0  0  0  0  0  0  0
   -0.5120   22.3040  -34.5030 O   0  0  0  0  0  0  0  0  0  0  0  0
    0.2000   21.8920  -36.5030 H   0  0  0  0  0  0  0  0  0  0  0  0
    1.3638   18.1542  -33.7779 H   0  0  0  0  0  0  0  0  0  0  0  0
    0.5424   18.1150  -31.4335 H   0  0  0  0  0  0  0  0  0  0  0  0
   -2.8957   19.5882  -30.5771 H   0  0  0  0  0  0  0  0  0  0  0  0
   -2.4919   19.9387  -28.8562 H   0  0  0  0  0  0  0  0  0  0  0  0
   -4.5559   21.1944  -31.1118 H   0  0  0  0  0  0  0  0  0  0  0  0
   -5.2485   23.5787  -31.3273 H   0  0  0  0  0  0  0  0  0  0  0  0
   -0.7830   25.5850  -29.8260 H   0  0  0  0  0  0  0  0  0  0  0  0
   -3.1864   24.2797  -27.2651 H   0  0  0  0  0  0  0  0  0  0  0  0
   -3.2093   25.0320  -24.8859 H   0  0  0  0  0  0  0  0  0  0  0  0
   -1.5043   26.6653  -24.0728 H   0  0  0  0  0  0  0  0  0  0  0  0
    0.2322   27.5408  -25.6383 H   0  0  0  0  0  0  0  0  0  0  0  0
    0.2623   26.7934  -28.0186 H   0  0  0  0  0  0  0  0  0  0  0  0
   -0.9414   22.4281  -29.0747 H   0  0  0  0  0  0  0  0  0  0  0  0
   -0.0675   18.7036  -28.7791 H   0  0  0  0  0  0  0  0  0  0  0  0
    1.0942   19.9010  -29.4676 H   0  0  0  0  0  0  0  0  0  0  0  0
    1.2829   22.1152  -28.6363 H   0  0  0  0  0  0  0  0  0  0  0  0
    0.9857   23.6531  -26.7012 H   0  0  0  0  0  0  0  0  0  0  0  0
   -0.6316   23.0898  -24.8914 H   0  0  0  0  0  0  0  0  0  0  0  0
   -1.9571   20.9854  -25.0096 H   0  0  0  0  0  0  0  0  0  0  0  0
   -1.9810   18.6010  -27.8060 H   0  0  0  0  0  0  0  0  0  0  0  0
   -2.3620   18.7720  -26.0790 H   0  0  0  0  0  0  0  0  0  0  0  0
   -1.2671   22.0016  -31.9909 H   0  0  0  0  0  0  0  0  0  0  0  0
   -0.5630   22.2390  -35.5130 H   0  0  0  0  0  0  0  0  0  0  0  0
  1  2  1  0
  2  3  2  0
  2  4  1  0
  4  5  2  0
  5  6  1  0
  6  7  2  0
  7  8  1  0
  8  9  1  0
  9 10  1  0
 10 11  2  0
 11 12  1  0
 12 13  2  0
 13 14  1  0
 13 15  1  0
 15 16  1  0
 16 17  1  0
 17 18  2  0
 18 19  1  0
 19 20  2  0
 20 21  1  0
 21 22  2  0
 15 23  2  0
  8 24  1  0
 24 25  1  0
 25 26  2  0
 26 27  1  0
 27 28  2  0
 28 29  1  0
 29 30  2  0
 30 31  1  0
  7 32  1  0
 32 33  2  0
 33 34  1  0
 33  4  1  0
 23 10  1  0
 30 25  1  0
 22 17  1  0
  1 35  1  0
  5 36  1  0
  6 37  1  0
  9 38  1  0
  9 39  1  0
 11 40  1  0
 12 41  1  0
 16 42  1  0
 18 43  1  0
 19 44  1  0
 20 45  1  0
 21 46  1  0
 22 47  1  0
 23 48  1  0
 24 49  1  0
 24 50  1  0
 26 51  1  0
 27 52  1  0
 28 53  1  0
 29 54  1  0
 31 55  1  0
 31 56  1  0
 32 57  1  0
 34 58  1  0
M  CHG  2   1  -1  14  -1
M  END
>  <UniqueID>  (46) 
44

>  <SMILES>  (46) 
[NH-]C(=O)c1ccc(N(Cc2ccc([O-])c(Nc3ccccc3)c2)Cc2ccccc2N)cc1O

>  <Energy>  (46) 
71.64319329739037

>  <Genealogy>  (46) 
[NH-]C(=O)c1ccc(N(Cc2ccc([O-])c(Nc3ccccc3)c2)Cc2ccccc2N)cc1O (protonated)
[NH-]C(=O)c1ccc(N(Cc2ccc([O-])c(Nc3ccccc3)c2)Cc2ccccc2N)cc1O (3D coordinates assigned)
[NH-]C(=O)c1ccc(N(Cc2ccc([O-])c(Nc3ccccc3)c2)Cc2ccccc2N)cc1O (optimized conformer: 71.64319329739037 kcal/mol)

>  <smiles>  (46) 
NC(=O)c1ccc(N(Cc2ccc(O)c(Nc3ccccc3)c2)Cc2ccccc2N)cc1O

>  <score_type>  (46) 
oracle

>  <origin>  (46) 
adgpu

>  <m_score__min__energy>  (46) 
-11.94

>  <m_primary>  (46) 
energy

$$$$
46:0
     RDKit          3D

 62 66  0  0  0  0  0  0  0  0999 V2000
   -1.0300   21.6530  -27.1890 H   0  0  0  0  0  0  0  0  0  0  0  0
   -1.9940   21.8000  -26.9170 O   0  0  0  0  0  0  0  0  0  0  0  0
   -2.9110   22.3440  -27.8120 C   0  0  0  0  0  0  0  0  0  0  0  0
   -3.4880   21.6290  -28.8080 N   0  0  0  0  0  0  0  0  0  0  0  0
   -4.2650   22.5240  -29.4460 C   0  0  0  0  0  0  0  0  0  0  0  0
   -5.0290   22.2840  -30.5860 C   0  0  0  0  0  0  0  0  0  0  0  0
   -5.1082   21.2725  -31.0109 H   0  0  0  0  0  0  0  0  0  0  0  0
   -5.6980   23.3740  -31.1800 C   0  0  0  0  0  0  0  0  0  0  0  0
   -6.6510   23.1260  -32.6860 S   0  0  0  0  0  0  0  0  0  0  0  0
   -7.2800   21.5240  -32.1600 C   0  0  0  0  0  0  0  0  0  0  0  0
   -8.5460   21.4870  -31.6600 N   0  0  0  0  0  0  0  0  0  0  0  0
   -9.1240   20.3370  -31.2250 C   0  0  0  0  0  0  0  0  0  0  0  0
  -10.1451   20.3544  -30.8163 H   0  0  0  0  0  0  0  0  0  0  0  0
   -8.4230   19.1370  -31.2970 C   0  0  0  0  0  0  0  0  0  0  0  0
   -8.8830   18.2021  -30.9442 H   0  0  0  0  0  0  0  0  0  0  0  0
   -7.1320   19.1330  -31.8210 C   0  0  0  0  0  0  0  0  0  0  0  0
   -6.5774   18.1859  -31.8944 H   0  0  0  0  0  0  0  0  0  0  0  0
   -6.5320   20.3240  -32.2560 C   0  0  0  0  0  0  0  0  0  0  0  0
   -4.9150   20.2290  -32.9770 S   0  0  0  0  0  0  0  0  0  0  0  0
   -3.8820   19.8740  -31.9500 O   0  0  0  0  0  0  0  0  0  0  0  0
   -4.5790   21.5630  -33.5830 O   0  0  0  0  0  0  0  0  0  0  0  0
   -4.9150   19.0090  -34.2120 N   0  0  0  0  0  0  0  0  0  0  0  0
   -4.4420   17.6660  -34.0200 C   0  0  0  0  0  0  0  0  0  0  0  0
   -3.0510   17.4180  -34.0480 C   0  0  0  0  0  0  0  0  0  0  0  0
   -2.0650   18.5440  -34.2020 C   0  0  0  0  0  0  0  0  0  0  0  0
   -1.7548   18.8983  -33.2079 H   0  0  0  0  0  0  0  0  0  0  0  0
   -1.1840   18.1868  -34.7554 H   0  0  0  0  0  0  0  0  0  0  0  0
   -2.5354   19.3702  -34.7554 H   0  0  0  0  0  0  0  0  0  0  0  0
   -2.5670   16.1140  -33.8510 C   0  0  0  0  0  0  0  0  0  0  0  0
   -1.4823   15.9326  -33.8278 H   0  0  0  0  0  0  0  0  0  0  0  0
   -3.4530   15.0440  -33.6840 C   0  0  0  0  0  0  0  0  0  0  0  0
   -2.9310   13.6530  -33.4660 C   0  0  0  0  0  0  0  0  0  0  0  0
   -2.8564   13.4543  -32.3867 H   0  0  0  0  0  0  0  0  0  0  0  0
   -3.6180   12.9273  -33.9258 H   0  0  0  0  0  0  0  0  0  0  0  0
   -1.9362   13.5584  -33.9258 H   0  0  0  0  0  0  0  0  0  0  0  0
   -4.8310   15.2820  -33.6800 C   0  0  0  0  0  0  0  0  0  0  0  0
   -5.5261   14.4442  -33.5221 H   0  0  0  0  0  0  0  0  0  0  0  0
   -5.3390   16.5770  -33.8750 C   0  0  0  0  0  0  0  0  0  0  0  0
   -6.8280   16.7620  -33.9490 C   0  0  0  0  0  0  0  0  0  0  0  0
   -7.2421   16.8135  -32.9312 H   0  0  0  0  0  0  0  0  0  0  0  0
   -7.0553   17.6953  -34.4850 H   0  0  0  0  0  0  0  0  0  0  0  0
   -7.2768   15.9127  -34.4850 H   0  0  0  0  0  0  0  0  0  0  0  0
   -5.6140   24.6580  -30.5950 C   0  0  0  0  0  0  0  0  0  0  0  0
   -6.1573   25.4997  -31.0491 H   0  0  0  0  0  0  0  0  0  0  0  0
   -4.8440   24.8700  -29.4400 C   0  0  0  0  0  0  0  0  0  0  0  0
   -4.7614   25.8705  -28.9903 H   0  0  0  0  0  0  0  0  0  0  0  0
   -4.1860   23.7730  -28.8790 C   0  0  0  0  0  0  0  0  0  0  0  0
   -3.3230   23.6700  -27.8050 C   0  0  0  0  0  0  0  0  0  0  0  0
   -2.8760   24.7100  -26.8610 C   0  0  0  0  0  0  0  0  0  0  0  0
   -3.5390   25.0003  -26.0327 H   0  0  0  0  0  0  0  0  0  0  0  0
   -1.6850   25.3120  -26.9830 C   0  0  0  0  0  0  0  0  0  0  0  0
   -1.0278   25.0020  -27.8089 H   0  0  0  0  0  0  0  0  0  0  0  0
   -1.2070   26.3680  -26.0700 C   0  0  0  0  0  0  0  0  0  0  0  0
   -0.7980   27.5500  -26.6090 N   0  0  0  0  0  0  0  0  0  0  0  0
   -0.3220   28.5680  -25.8450 C   0  0  0  0  0  0  0  0  0  0  0  0
   -0.0038   29.5086  -26.3182 H   0  0  0  0  0  0  0  0  0  0  0  0
   -0.2370   28.4200  -24.4610 C   0  0  0  0  0  0  0  0  0  0  0  0
    0.1419   29.2418  -23.8357 H   0  0  0  0  0  0  0  0  0  0  0  0
   -0.6380   27.2180  -23.8790 C   0  0  0  0  0  0  0  0  0  0  0  0
   -0.5741   27.0869  -22.7887 H   0  0  0  0  0  0  0  0  0  0  0  0
   -1.1210   26.1800  -24.6800 C   0  0  0  0  0  0  0  0  0  0  0  0
   -1.4305   25.2263  -24.2276 H   0  0  0  0  0  0  0  0  0  0  0  0
  1  2  1  0
  2  3  1  0
  3  4  1  0
  4  5  1  0
  5  6  2  0
  6  7  1  0
  6  8  1  0
  8  9  1  0
  9 10  1  0
 10 11  2  0
 11 12  1  0
 12 13  1  0
 12 14  2  0
 14 15  1  0
 14 16  1  0
 16 17  1  0
 16 18  2  0
 18 19  1  0
 19 20  2  0
 19 21  2  0
 19 22  1  0
 22 23  1  0
 23 24  2  0
 24 25  1  0
 25 26  1  0
 25 27  1  0
 25 28  1  0
 24 29  1  0
 29 30  1  0
 29 31  2  0
 31 32  1  0
 32 33  1  0
 32 34  1  0
 32 35  1  0
 31 36  1  0
 36 37  1  0
 36 38  2  0
 38 39  1  0
 39 40  1  0
 39 41  1  0
 39 42  1  0
  8 43  2  0
 43 44  1  0
 43 45  1  0
 45 46  1  0
 45 47  2  0
 47 48  1  0
 48 49  1  0
 49 50  1  0
 49 51  2  0
 51 52  1  0
 51 53  1  0
 53 54  2  0
 54 55  1  0
 55 56  1  0
 55 57  2  0
 57 58  1  0
 57 59  1  0
 59 60  1  0
 59 61  2  0
 61 62  1  0
 48  3  2  0
 61 53  1  0
 47  5  1  0
 18 10  1  0
 38 23  1  0
M  CHG  2   4  -1  22  -1
M  END
>  <UniqueID>  (47) 
45

>  <SMILES>  (47) 
Cc1cc(C)c([N-]S(=O)(=O)c2cccnc2Sc2ccc3c(/C=C/c4ccccn4)c(O)[n-]c3c2)c(C)c1

>  <Energy>  (47) 
116.05109090250959

>  <Genealogy>  (47) 
Cc1cc(C)c([N-]S(=O)(=O)c2cccnc2Sc2ccc3c(C=Cc4ccccn4)c(O)[n-]c3c2)c(C)c1 (protonated)
Cc1cc(C)c([N-]S(=O)(=O)c2cccnc2Sc2ccc3c(/C=C/c4ccccn4)c(O)[n-]c3c2)c(C)c1 (cis-trans isomerization)
Cc1cc(C)c([N-]S(=O)(=O)c2cccnc2Sc2ccc3c(/C=C/c4ccccn4)c(O)[n-]c3c2)c(C)c1 (3D coordinates assigned)
Cc1cc(C)c([N-]S(=O)(=O)c2cccnc2Sc2ccc3c(/C=C/c4ccccn4)c(O)[n-]c3c2)c(C)c1 (optimized conformer: 116.05109090250959 kcal/mol)

>  <smiles>  (47) 
Cc1cc(C)c(NS(=O)(=O)c2cccnc2Sc2ccc3c(C=Cc4ccccn4)c(O)[nH]c3c2)c(C)c1

>  <score_type>  (47) 
oracle

>  <origin>  (47) 
adgpu

>  <m_score__min__energy>  (47) 
-11.470000000000001

>  <m_primary>  (47) 
energy

$$$$
47:0
     RDKit          3D

 68 71  0  0  0  0  0  0  0  0999 V2000
    0.2640   21.4830  -32.2990 O   0  0  0  0  0  0  0  0  0  0  0  0
   -0.0890   20.5910  -31.4800 C   0  0  0  0  0  0  0  0  0  0  0  0
    0.2600   19.2210  -31.7270 N   0  0  0  0  0  0  0  0  0  0  0  0
    1.1540   18.8540  -32.8250 C   0  0  0  0  0  0  0  0  0  0  0  0
    0.4760   19.0690  -34.1810 C   0  0  0  0  0  0  0  0  0  0  0  0
   -0.9950   18.7600  -34.0910 C   0  0  0  0  0  0  0  0  0  0  0  0
   -1.4510   17.4440  -34.2640 C   0  0  0  0  0  0  0  0  0  0  0  0
   -2.8200   17.1620  -34.2390 C   0  0  0  0  0  0  0  0  0  0  0  0
   -3.7490   18.1940  -34.0450 C   0  0  0  0  0  0  0  0  0  0  0  0
   -5.4800   17.8450  -34.0540 S   0  0  0  0  0  0  0  0  0  0  0  0
   -5.6840   16.3580  -34.1530 O   0  0  0  0  0  0  0  0  0  0  0  0
   -6.1090   18.4810  -35.2620 O   0  0  0  0  0  0  0  0  0  0  0  0
   -6.2620   18.4440  -32.6080 N   0  0  0  0  0  0  0  0  0  0  0  0
   -6.2810   19.9280  -32.5700 C   0  0  0  0  0  0  0  0  0  0  0  0
   -7.6540   20.5190  -32.9180 C   0  0  0  0  0  0  0  0  0  0  0  0
   -8.7410   20.0040  -31.9580 C   0  0  0  0  0  0  0  0  0  0  0  0
   -8.4560   18.5820  -31.4460 C   0  0  0  0  0  0  0  0  0  0  0  0
   -7.5840   17.8030  -32.4350 C   0  0  0  0  0  0  0  0  0  0  0  0
   -3.2950   19.5070  -33.8630 C   0  0  0  0  0  0  0  0  0  0  0  0
   -1.9260   19.7910  -33.8970 C   0  0  0  0  0  0  0  0  0  0  0  0
   -0.8950   20.9720  -30.2970 C   0  0  0  0  0  0  0  0  0  0  0  0
   -1.4890   22.2470  -30.2540 C   0  0  0  0  0  0  0  0  0  0  0  0
   -2.2600   22.6400  -29.1510 C   0  0  0  0  0  0  0  0  0  0  0  0
   -2.9860   24.2490  -29.1050 S   0  0  0  0  0  0  0  0  0  0  0  0
   -3.6310   24.4640  -27.7630 O   0  0  0  0  0  0  0  0  0  0  0  0
   -1.9070   25.2840  -29.2730 O   0  0  0  0  0  0  0  0  0  0  0  0
   -4.1800   24.4510  -30.3660 N   0  0  0  0  0  0  0  0  0  0  0  0
   -4.3680   23.2010  -31.1460 C   0  0  0  0  0  0  0  0  0  0  0  0
   -5.6580   22.4530  -30.7790 C   0  0  0  0  0  0  0  0  0  0  0  0
   -6.8960   23.3410  -30.9970 C   0  0  0  0  0  0  0  0  0  0  0  0
   -6.6040   24.8350  -30.7670 C   0  0  0  0  0  0  0  0  0  0  0  0
   -5.4240   25.0250  -29.8090 C   0  0  0  0  0  0  0  0  0  0  0  0
   -2.4440   21.7520  -28.0860 C   0  0  0  0  0  0  0  0  0  0  0  0
   -1.8440   20.4920  -28.1090 C   0  0  0  0  0  0  0  0  0  0  0  0
   -1.0620   20.1020  -29.2000 C   0  0  0  0  0  0  0  0  0  0  0  0
   -0.4320   18.8610  -29.1650 O   0  0  0  0  0  0  0  0  0  0  0  0
   -0.1730   18.4700  -31.1430 H   0  0  0  0  0  0  0  0  0  0  0  0
    2.0604   19.4752  -32.7737 H   0  0  0  0  0  0  0  0  0  0  0  0
    1.4103   17.7888  -32.7267 H   0  0  0  0  0  0  0  0  0  0  0  0
    0.6074   20.1167  -34.4892 H   0  0  0  0  0  0  0  0  0  0  0  0
    0.9361   18.3956  -34.9191 H   0  0  0  0  0  0  0  0  0  0  0  0
   -0.7275   16.6303  -34.4201 H   0  0  0  0  0  0  0  0  0  0  0  0
   -3.1693   16.1275  -34.3719 H   0  0  0  0  0  0  0  0  0  0  0  0
   -6.0045   20.2563  -31.5572 H   0  0  0  0  0  0  0  0  0  0  0  0
   -5.5673   20.2858  -33.3267 H   0  0  0  0  0  0  0  0  0  0  0  0
   -7.6015   21.6154  -32.8456 H   0  0  0  0  0  0  0  0  0  0  0  0
   -7.9173   20.2100  -33.9403 H   0  0  0  0  0  0  0  0  0  0  0  0
   -8.7990   20.6836  -31.0950 H   0  0  0  0  0  0  0  0  0  0  0  0
   -9.6887   19.9725  -32.5156 H   0  0  0  0  0  0  0  0  0  0  0  0
   -7.9337   18.6462  -30.4801 H   0  0  0  0  0  0  0  0  0  0  0  0
   -9.4140   18.0531  -31.3338 H   0  0  0  0  0  0  0  0  0  0  0  0
   -7.4394   16.7803  -32.0566 H   0  0  0  0  0  0  0  0  0  0  0  0
   -8.0930   17.7893  -33.4100 H   0  0  0  0  0  0  0  0  0  0  0  0
   -4.0184   20.3179  -33.6926 H   0  0  0  0  0  0  0  0  0  0  0  0
   -1.5780   20.8269  -33.7711 H   0  0  0  0  0  0  0  0  0  0  0  0
   -1.3469   22.9424  -31.0944 H   0  0  0  0  0  0  0  0  0  0  0  0
   -4.4033   23.4570  -32.2152 H   0  0  0  0  0  0  0  0  0  0  0  0
   -3.5238   22.5362  -30.9106 H   0  0  0  0  0  0  0  0  0  0  0  0
   -5.7444   21.5556  -31.4093 H   0  0  0  0  0  0  0  0  0  0  0  0
   -5.6102   22.1761  -29.7155 H   0  0  0  0  0  0  0  0  0  0  0  0
   -7.2480   23.2063  -32.0304 H   0  0  0  0  0  0  0  0  0  0  0  0
   -7.6574   23.0349  -30.2645 H   0  0  0  0  0  0  0  0  0  0  0  0
   -6.3635   25.3067  -31.7312 H   0  0  0  0  0  0  0  0  0  0  0  0
   -7.4950   25.3005  -30.3205 H   0  0  0  0  0  0  0  0  0  0  0  0
   -5.2748   26.1006  -29.6336 H   0  0  0  0  0  0  0  0  0  0  0  0
   -5.6546   24.5047  -28.8677 H   0  0  0  0  0  0  0  0  0  0  0  0
   -3.0640   22.0479  -27.2269 H   0  0  0  0  0  0  0  0  0  0  0  0
   -1.9873   19.8023  -27.2642 H   0  0  0  0  0  0  0  0  0  0  0  0
  1  2  2  0
  2  3  1  0
  3  4  1  0
  4  5  1  0
  5  6  1  0
  6  7  2  0
  7  8  1  0
  8  9  2  0
  9 10  1  0
 10 11  2  0
 10 12  2  0
 10 13  1  0
 13 14  1  0
 14 15  1  0
 15 16  1  0
 16 17  1  0
 17 18  1  0
  9 19  1  0
 19 20  2  0
  2 21  1  0
 21 22  2  0
 22 23  1  0
 23 24  1  0
 24 25  2  0
 24 26  2  0
 24 27  1  0
 27 28  1  0
 28 29  1  0
 29 30  1  0
 30 31  1  0
 31 32  1  0
 23 33  2  0
 33 34  1  0
 34 35  2  0
 35 36  1  0
 20  6  1  0
 35 21  1  0
 18 13  1  0
 32 27  1  0
  3 37  1  0
  4 38  1  0
  4 39  1  0
  5 40  1  0
  5 41  1  0
  7 42  1  0
  8 43  1  0
 14 44  1  0
 14 45  1  0
 15 46  1  0
 15 47  1  0
 16 48  1  0
 16 49  1  0
 17 50  1  0
 17 51  1  0
 18 52  1  0
 18 53  1  0
 19 54  1  0
 20 55  1  0
 22 56  1  0
 28 57  1  0
 28 58  1  0
 29 59  1  0
 29 60  1  0
 30 61  1  0
 30 62  1  0
 31 63  1  0
 31 64  1  0
 32 65  1  0
 32 66  1  0
 33 67  1  0
 34 68  1  0
M  CHG  1  36  -1
M  END
>  <UniqueID>  (48) 
46

>  <SMILES>  (48) 
O=C(NCCc1ccc(S(=O)(=O)N2CCCCC2)cc1)c1cc(S(=O)(=O)N2CCCCC2)ccc1[O-]

>  <Energy>  (48) 
78.325103634087

>  <Genealogy>  (48) 
O=C(NCCc1ccc(S(=O)(=O)N2CCCCC2)cc1)c1cc(S(=O)(=O)N2CCCCC2)ccc1[O-] (protonated)
O=C(NCCc1ccc(S(=O)(=O)N2CCCCC2)cc1)c1cc(S(=O)(=O)N2CCCCC2)ccc1[O-] (3D coordinates assigned)
O=C(NCCc1ccc(S(=O)(=O)N2CCCCC2)cc1)c1cc(S(=O)(=O)N2CCCCC2)ccc1[O-] (nonaromatic ring conformer: 78.325103634087 kcal/mol)

>  <smiles>  (48) 
O=C(NCCc1ccc(S(=O)(=O)N2CCCCC2)cc1)c1cc(S(=O)(=O)N2CCCCC2)ccc1O

>  <score_type>  (48) 
oracle

>  <origin>  (48) 
adgpu

>  <m_score__min__energy>  (48) 
-16.100000000000001

>  <m_primary>  (48) 
energy

$$$$
48:0
     RDKit          3D

 56 59  0  0  0  0  0  0  0  0999 V2000
   -9.8590   21.6220  -31.2440 C   0  0  0  0  0  0  0  0  0  0  0  0
   -8.5940   21.2040  -31.8400 N   0  0  0  0  0  0  0  0  0  0  0  0
   -8.3380   19.9300  -32.4320 C   0  0  0  0  0  0  0  0  0  0  0  0
   -9.2550   19.1330  -32.7690 O   0  0  0  0  0  0  0  0  0  0  0  0
   -6.8670   19.6460  -32.5950 C   0  0  0  0  0  0  0  0  0  0  0  0
   -6.4580   18.3810  -31.8280 C   0  0  0  0  0  0  0  0  0  0  0  0
   -6.4880   19.5620  -34.0800 C   0  0  0  0  0  0  0  0  0  0  0  0
   -6.2980   20.8840  -31.9550 C   0  0  0  0  0  0  0  0  0  0  0  0
   -4.9560   21.2170  -31.7490 C   0  0  0  0  0  0  0  0  0  0  0  0
   -4.6520   22.4260  -31.1060 C   0  0  0  0  0  0  0  0  0  0  0  0
   -5.6850   23.2870  -30.6750 C   0  0  0  0  0  0  0  0  0  0  0  0
   -5.3110   24.8380  -29.9290 S   0  0  0  0  0  0  0  0  0  0  0  0
   -4.4090   25.6130  -30.8460 O   0  0  0  0  0  0  0  0  0  0  0  0
   -6.5600   25.6380  -29.6900 O   0  0  0  0  0  0  0  0  0  0  0  0
   -4.4990   24.5560  -28.4230 N   0  0  0  0  0  0  0  0  0  0  0  0
   -3.4520   23.5830  -28.2920 C   0  0  0  0  0  0  0  0  0  0  0  0
   -2.1330   23.9350  -28.6130 C   0  0  0  0  0  0  0  0  0  0  0  0
   -1.1070   22.9890  -28.5290 C   0  0  0  0  0  0  0  0  0  0  0  0
   -1.3860   21.6800  -28.1100 C   0  0  0  0  0  0  0  0  0  0  0  0
   -0.0910   20.4810  -28.0110 S   0  0  0  0  0  0  0  0  0  0  0  0
   -0.5170   19.3800  -27.0810 O   0  0  0  0  0  0  0  0  0  0  0  0
    1.1350   21.1290  -27.4320 O   0  0  0  0  0  0  0  0  0  0  0  0
    0.3160   19.7920  -29.5650 N   0  0  0  0  0  0  0  0  0  0  0  0
    0.0820   18.3520  -29.6020 C   0  0  0  0  0  0  0  0  0  0  0  0
   -0.0960   17.9940  -31.0660 C   0  0  0  0  0  0  0  0  0  0  0  0
   -0.5740   19.2770  -31.7290 C   0  0  0  0  0  0  0  0  0  0  0  0
   -0.4920   20.3490  -30.6500 C   0  0  0  0  0  0  0  0  0  0  0  0
   -2.6950   21.3360  -27.7530 C   0  0  0  0  0  0  0  0  0  0  0  0
   -3.7230   22.2770  -27.8470 C   0  0  0  0  0  0  0  0  0  0  0  0
   -7.0280   22.9350  -30.8920 C   0  0  0  0  0  0  0  0  0  0  0  0
   -7.3090   21.7270  -31.5370 C   0  0  0  0  0  0  0  0  0  0  0  0
   -9.7747   21.5941  -30.1476 H   0  0  0  0  0  0  0  0  0  0  0  0
  -10.0961   22.6462  -31.5676 H   0  0  0  0  0  0  0  0  0  0  0  0
  -10.6597   20.9407  -31.5676 H   0  0  0  0  0  0  0  0  0  0  0  0
   -6.5197   18.5719  -30.7465 H   0  0  0  0  0  0  0  0  0  0  0  0
   -7.1352   17.5559  -32.0939 H   0  0  0  0  0  0  0  0  0  0  0  0
   -5.4260   18.1085  -32.0939 H   0  0  0  0  0  0  0  0  0  0  0  0
   -5.4179   19.3248  -34.1724 H   0  0  0  0  0  0  0  0  0  0  0  0
   -7.0816   18.7736  -34.5659 H   0  0  0  0  0  0  0  0  0  0  0  0
   -6.6929   20.5274  -34.5659 H   0  0  0  0  0  0  0  0  0  0  0  0
   -4.1536   20.5437  -32.0848 H   0  0  0  0  0  0  0  0  0  0  0  0
   -3.6017   22.7054  -30.9363 H   0  0  0  0  0  0  0  0  0  0  0  0
   -4.6150   25.2770  -27.6770 H   0  0  0  0  0  0  0  0  0  0  0  0
   -1.9041   24.9622  -28.9330 H   0  0  0  0  0  0  0  0  0  0  0  0
   -0.0773   23.2724  -28.7925 H   0  0  0  0  0  0  0  0  0  0  0  0
    0.9432   17.8140  -29.1790 H   0  0  0  0  0  0  0  0  0  0  0  0
   -0.8011   18.0722  -29.0088 H   0  0  0  0  0  0  0  0  0  0  0  0
    0.8587   17.6655  -31.5026 H   0  0  0  0  0  0  0  0  0  0  0  0
   -0.8072   17.1666  -31.2058 H   0  0  0  0  0  0  0  0  0  0  0  0
    0.0757   19.5359  -32.5780 H   0  0  0  0  0  0  0  0  0  0  0  0
   -1.5950   19.1750  -32.1255 H   0  0  0  0  0  0  0  0  0  0  0  0
   -0.0149   21.2552  -31.0514 H   0  0  0  0  0  0  0  0  0  0  0  0
   -1.4942   20.6292  -30.2935 H   0  0  0  0  0  0  0  0  0  0  0  0
   -2.9154   20.3190  -27.3964 H   0  0  0  0  0  0  0  0  0  0  0  0
   -4.7499   21.9949  -27.5715 H   0  0  0  0  0  0  0  0  0  0  0  0
   -7.8419   23.5968  -30.5610 H   0  0  0  0  0  0  0  0  0  0  0  0
  1  2  1  0
  2  3  1  0
  3  4  2  0
  3  5  1  0
  5  6  1  0
  5  7  1  0
  5  8  1  0
  8  9  2  0
  9 10  1  0
 10 11  2  0
 11 12  1  0
 12 13  2  0
 12 14  2  0
 12 15  1  0
 15 16  1  0
 16 17  2  0
 17 18  1  0
 18 19  2  0
 19 20  1  0
 20 21  2  0
 20 22  2  0
 20 23  1  0
 23 24  1  0
 24 25  1  0
 25 26  1  0
 26 27  1  0
 19 28  1  0
 28 29  2  0
 11 30  1  0
 30 31  2  0
 31  2  1  0
 31  8  1  0
 29 16  1  0
 27 23  1  0
  1 32  1  0
  1 33  1  0
  1 34  1  0
  6 35  1  0
  6 36  1  0
  6 37  1  0
  7 38  1  0
  7 39  1  0
  7 40  1  0
  9 41  1  0
 10 42  1  0
 15 43  1  0
 17 44  1  0
 18 45  1  0
 24 46  1  0
 24 47  1  0
 25 48  1  0
 25 49  1  0
 26 50  1  0
 26 51  1  0
 27 52  1  0
 27 53  1  0
 28 54  1  0
 29 55  1  0
 30 56  1  0
M  END
>  <UniqueID>  (49) 
47

>  <SMILES>  (49) 
CN1C(=O)C(C)(C)c2ccc(S(=O)(=O)Nc3ccc(S(=O)(=O)N4CCCC4)cc3)cc21

>  <Energy>  (49) 
76.39816534093454

>  <Genealogy>  (49) 
CN1C(=O)C(C)(C)c2ccc(S(=O)(=O)Nc3ccc(S(=O)(=O)N4CCCC4)cc3)cc21 (3D coordinates assigned)
CN1C(=O)C(C)(C)c2ccc(S(=O)(=O)Nc3ccc(S(=O)(=O)N4CCCC4)cc3)cc21 (nonaromatic ring conformer: 76.39816534093454 kcal/mol)

>  <smiles>  (49) 
CN1C(=O)C(C)(C)c2ccc(S(=O)(=O)Nc3ccc(S(=O)(=O)N4CCCC4)cc3)cc21

>  <score_type>  (49) 
oracle

>  <origin>  (49) 
adgpu

>  <m_score__min__energy>  (49) 
-11.33

>  <m_primary>  (49) 
energy

$$$$
