0:0
     RDKit          3D

 48 51  0  0  0  0  0  0  0  0999 V2000
   -5.2430   13.9050  -34.2960 C   0  0  0  0  0  0  0  0  0  0  0  0
   -5.4180   15.3930  -34.2240 C   0  0  0  0  0  0  0  0  0  0  0  0
   -6.6380   15.9390  -33.7990 C   0  0  0  0  0  0  0  0  0  0  0  0
   -6.8200   17.3260  -33.7690 C   0  0  0  0  0  0  0  0  0  0  0  0
   -5.7870   18.1850  -34.1910 C   0  0  0  0  0  0  0  0  0  0  0  0
   -5.9160   19.6130  -34.1450 N   0  0  0  0  0  0  0  0  0  0  0  0
   -5.1100   20.5300  -33.3910 C   0  0  0  0  0  0  0  0  0  0  0  0
   -3.8540   20.5030  -33.4960 O   0  0  0  0  0  0  0  0  0  0  0  0
   -5.7510   21.4770  -32.4480 C   0  0  0  0  0  0  0  0  0  0  0  0
   -7.1510   21.5010  -32.2990 C   0  0  0  0  0  0  0  0  0  0  0  0
   -7.7530   22.3980  -31.4130 C   0  0  0  0  0  0  0  0  0  0  0  0
   -6.9700   23.2750  -30.6620 C   0  0  0  0  0  0  0  0  0  0  0  0
   -5.5750   23.2630  -30.7940 C   0  0  0  0  0  0  0  0  0  0  0  0
   -4.6030   24.4340  -29.9080 S   0  0  0  0  0  0  0  0  0  0  0  0
   -5.4840   25.2310  -28.9870 O   0  0  0  0  0  0  0  0  0  0  0  0
   -3.9270   25.3760  -30.8640 O   0  0  0  0  0  0  0  0  0  0  0  0
   -3.4160   23.5940  -28.9720 N   0  0  0  0  0  0  0  0  0  0  0  0
   -2.4220   24.3270  -28.2530 C   0  0  0  0  0  0  0  0  0  0  0  0
   -2.7450   24.9310  -27.0300 C   0  0  0  0  0  0  0  0  0  0  0  0
   -4.0620   24.8270  -26.5720 O   0  0  0  0  0  0  0  0  0  0  0  0
   -1.7280   25.6010  -26.3100 C   0  0  0  0  0  0  0  0  0  0  0  0
   -1.9480   26.2350  -25.0680 C   0  0  0  0  0  0  0  0  0  0  0  0
   -0.8960   26.8730  -24.4060 C   0  0  0  0  0  0  0  0  0  0  0  0
    0.3820   26.8930  -24.9660 C   0  0  0  0  0  0  0  0  0  0  0  0
    0.6160   26.2730  -26.1940 C   0  0  0  0  0  0  0  0  0  0  0  0
   -0.4250   25.6280  -26.8680 C   0  0  0  0  0  0  0  0  0  0  0  0
   -0.1770   25.0410  -28.0350 O   0  0  0  0  0  0  0  0  0  0  0  0
   -1.1090   24.4040  -28.7310 C   0  0  0  0  0  0  0  0  0  0  0  0
   -0.8010   23.8660  -29.8280 O   0  0  0  0  0  0  0  0  0  0  0  0
   -4.9700   22.3690  -31.6890 C   0  0  0  0  0  0  0  0  0  0  0  0
   -4.5700   17.6360  -34.6090 C   0  0  0  0  0  0  0  0  0  0  0  0
   -4.3890   16.2490  -34.6400 C   0  0  0  0  0  0  0  0  0  0  0  0
   -5.1944   13.4918  -33.2777 H   0  0  0  0  0  0  0  0  0  0  0  0
   -6.0951   13.4611  -34.8316 H   0  0  0  0  0  0  0  0  0  0  0  0
   -4.3111   13.6709  -34.8316 H   0  0  0  0  0  0  0  0  0  0  0  0
   -7.4563   15.2731  -33.4875 H   0  0  0  0  0  0  0  0  0  0  0  0
   -7.7727   17.7466  -33.4148 H   0  0  0  0  0  0  0  0  0  0  0  0
   -7.7747   20.8090  -32.8839 H   0  0  0  0  0  0  0  0  0  0  0  0
   -8.8478   22.4128  -31.3073 H   0  0  0  0  0  0  0  0  0  0  0  0
   -7.4490   23.9778  -29.9644 H   0  0  0  0  0  0  0  0  0  0  0  0
   -4.8420   24.5310  -27.1390 H   0  0  0  0  0  0  0  0  0  0  0  0
   -2.9523   26.2267  -24.6194 H   0  0  0  0  0  0  0  0  0  0  0  0
   -1.0762   27.3625  -23.4375 H   0  0  0  0  0  0  0  0  0  0  0  0
    1.2053   27.3977  -24.4392 H   0  0  0  0  0  0  0  0  0  0  0  0
    1.6242   26.2919  -26.6336 H   0  0  0  0  0  0  0  0  0  0  0  0
   -3.8755   22.3647  -31.7990 H   0  0  0  0  0  0  0  0  0  0  0  0
   -3.7487   18.3003  -34.9158 H   0  0  0  0  0  0  0  0  0  0  0  0
   -3.4354   15.8287  -34.9922 H   0  0  0  0  0  0  0  0  0  0  0  0
  1  2  1  0
  2  3  2  0
  3  4  1  0
  4  5  2  0
  5  6  1  0
  6  7  1  0
  7  8  2  0
  7  9  1  0
  9 10  2  0
 10 11  1  0
 11 12  2  0
 12 13  1  0
 13 14  1  0
 14 15  2  0
 14 16  2  0
 14 17  1  0
 17 18  1  0
 18 19  2  0
 19 20  1  0
 19 21  1  0
 21 22  2  0
 22 23  1  0
 23 24  2  0
 24 25  1  0
 25 26  2  0
 26 27  1  0
 27 28  1  0
 28 29  2  0
 13 30  2  0
  5 31  1  0
 31 32  2  0
 32  2  1  0
 30  9  1  0
 28 18  1  0
 26 21  1  0
  1 33  1  0
  1 34  1  0
  1 35  1  0
  3 36  1  0
  4 37  1  0
 10 38  1  0
 11 39  1  0
 12 40  1  0
 20 41  1  0
 22 42  1  0
 23 43  1  0
 24 44  1  0
 25 45  1  0
 30 46  1  0
 31 47  1  0
 32 48  1  0
M  CHG  2   6  -1  17  -1
M  END
>  <UniqueID>  (1) 
1

>  <SMILES>  (1) 
Cc1ccc([N-]C(=O)c2cccc(S(=O)(=O)[N-]c3c(O)c4ccccc4oc3=O)c2)cc1

>  <Energy>  (1) 
72.58144301932766

>  <Genealogy>  (1) 
Cc1ccc([N-]C(=O)c2cccc(S(=O)(=O)[N-]c3c(O)c4ccccc4oc3=O)c2)cc1 (protonated)
Cc1ccc([N-]C(=O)c2cccc(S(=O)(=O)[N-]c3c(O)c4ccccc4oc3=O)c2)cc1 (3D coordinates assigned)
Cc1ccc([N-]C(=O)c2cccc(S(=O)(=O)[N-]c3c(O)c4ccccc4oc3=O)c2)cc1 (optimized conformer: 72.58144301932766 kcal/mol)

>  <smiles>  (1) 
Cc1ccc(NC(=O)c2cccc(S(=O)(=O)Nc3c(O)c4ccccc4oc3=O)c2)cc1

>  <score_type>  (1) 
oracle

>  <origin>  (1) 
adgpu

>  <m_score__min__energy>  (1) 
-11.140000000000001

>  <m_primary>  (1) 
energy

$$$$
1:0
     RDKit          3D

 57 60  0  0  0  0  0  0  0  0999 V2000
   -2.5350   18.4460  -34.3710 O   0  0  0  0  0  0  0  0  0  0  0  0
   -3.3870   19.2240  -33.8650 C   0  0  0  0  0  0  0  0  0  0  0  0
   -3.0620   20.6180  -33.7530 N   0  0  0  0  0  0  0  0  0  0  0  0
   -2.9510   21.3760  -32.5370 C   0  0  0  0  0  0  0  0  0  0  0  0
   -3.9690   22.2600  -32.1350 C   0  0  0  0  0  0  0  0  0  0  0  0
   -3.8340   23.0150  -30.9630 C   0  0  0  0  0  0  0  0  0  0  0  0
   -5.1250   24.1070  -30.4580 S   0  0  0  0  0  0  0  0  0  0  0  0
   -4.9870   25.4080  -31.1990 O   0  0  0  0  0  0  0  0  0  0  0  0
   -4.9870   24.3950  -28.9880 O   0  0  0  0  0  0  0  0  0  0  0  0
   -6.7030   23.4290  -30.7750 N   0  0  0  0  0  0  0  0  0  0  0  0
   -7.1330   23.7520  -32.1450 C   0  0  0  0  0  0  0  0  0  0  0  0
   -8.6140   23.3790  -32.3430 C   0  0  0  0  0  0  0  0  0  0  0  0
   -9.0810   22.2870  -31.3650 C   0  0  0  0  0  0  0  0  0  0  0  0
   -7.9630   21.2780  -31.0890 C   0  0  0  0  0  0  0  0  0  0  0  0
   -6.6850   21.9670  -30.5580 C   0  0  0  0  0  0  0  0  0  0  0  0
   -2.6650   22.9090  -30.2020 C   0  0  0  0  0  0  0  0  0  0  0  0
   -1.6360   22.0590  -30.6100 C   0  0  0  0  0  0  0  0  0  0  0  0
   -1.7720   21.2890  -31.7730 C   0  0  0  0  0  0  0  0  0  0  0  0
   -0.6980   20.4230  -32.1660 N   0  0  0  0  0  0  0  0  0  0  0  0
    0.1750   20.7910  -33.2810 C   0  0  0  0  0  0  0  0  0  0  0  0
    0.7360   19.5220  -33.9310 C   0  0  0  0  0  0  0  0  0  0  0  0
    1.3280   18.6810  -32.9580 O   0  0  0  0  0  0  0  0  0  0  0  0
    0.3360   18.2050  -32.0670 C   0  0  0  0  0  0  0  0  0  0  0  0
   -0.2680   19.3580  -31.2580 C   0  0  0  0  0  0  0  0  0  0  0  0
   -4.6740   18.6710  -33.3840 C   0  0  0  0  0  0  0  0  0  0  0  0
   -4.7160   17.3520  -32.9020 C   0  0  0  0  0  0  0  0  0  0  0  0
   -5.9230   16.7940  -32.4700 C   0  0  0  0  0  0  0  0  0  0  0  0
   -7.0950   17.5490  -32.5060 C   0  0  0  0  0  0  0  0  0  0  0  0
   -7.0640   18.8680  -32.9620 C   0  0  0  0  0  0  0  0  0  0  0  0
   -5.8570   19.4400  -33.3910 C   0  0  0  0  0  0  0  0  0  0  0  0
   -5.8320   20.7720  -33.8040 O   0  0  0  0  0  0  0  0  0  0  0  0
   -4.8783   22.3590  -32.7460 H   0  0  0  0  0  0  0  0  0  0  0  0
   -7.0038   24.8301  -32.3211 H   0  0  0  0  0  0  0  0  0  0  0  0
   -6.5215   23.1777  -32.8564 H   0  0  0  0  0  0  0  0  0  0  0  0
   -9.2283   24.2782  -32.1877 H   0  0  0  0  0  0  0  0  0  0  0  0
   -8.7264   22.9846  -33.3637 H   0  0  0  0  0  0  0  0  0  0  0  0
   -9.3814   22.7582  -30.4175 H   0  0  0  0  0  0  0  0  0  0  0  0
   -9.9293   21.7527  -31.8177 H   0  0  0  0  0  0  0  0  0  0  0  0
   -8.3144   20.5536  -30.3395 H   0  0  0  0  0  0  0  0  0  0  0  0
   -7.7129   20.7777  -32.0362 H   0  0  0  0  0  0  0  0  0  0  0  0
   -6.5999   21.7708  -29.4790 H   0  0  0  0  0  0  0  0  0  0  0  0
   -5.8273   21.5559  -31.1106 H   0  0  0  0  0  0  0  0  0  0  0  0
   -2.5565   23.4975  -29.2790 H   0  0  0  0  0  0  0  0  0  0  0  0
   -0.7130   21.9931  -30.0153 H   0  0  0  0  0  0  0  0  0  0  0  0
   -0.4011   21.3602  -34.0253 H   0  0  0  0  0  0  0  0  0  0  0  0
    1.0048   21.4095  -32.9083 H   0  0  0  0  0  0  0  0  0  0  0  0
   -0.0815   18.9793  -34.4281 H   0  0  0  0  0  0  0  0  0  0  0  0
    1.5041   19.8100  -34.6639 H   0  0  0  0  0  0  0  0  0  0  0  0
   -0.4609   17.7132  -32.6441 H   0  0  0  0  0  0  0  0  0  0  0  0
    0.8009   17.4915  -31.3707 H   0  0  0  0  0  0  0  0  0  0  0  0
   -1.1343   18.9909  -30.6881 H   0  0  0  0  0  0  0  0  0  0  0  0
    0.4887   19.7530  -30.5642 H   0  0  0  0  0  0  0  0  0  0  0  0
   -3.7933   16.7544  -32.8642 H   0  0  0  0  0  0  0  0  0  0  0  0
   -5.9482   15.7580  -32.1012 H   0  0  0  0  0  0  0  0  0  0  0  0
   -8.0451   17.1046  -32.1746 H   0  0  0  0  0  0  0  0  0  0  0  0
   -7.9899   19.4614  -32.9851 H   0  0  0  0  0  0  0  0  0  0  0  0
   -5.0020   21.1880  -34.2090 H   0  0  0  0  0  0  0  0  0  0  0  0
  1  2  2  0
  2  3  1  0
  3  4  1  0
  4  5  2  0
  5  6  1  0
  6  7  1  0
  7  8  2  0
  7  9  2  0
  7 10  1  0
 10 11  1  0
 11 12  1  0
 12 13  1  0
 13 14  1  0
 14 15  1  0
  6 16  2  0
 16 17  1  0
 17 18  2  0
 18 19  1  0
 19 20  1  0
 20 21  1  0
 21 22  1  0
 22 23  1  0
 23 24  1  0
  2 25  1  0
 25 26  2  0
 26 27  1  0
 27 28  2  0
 28 29  1  0
 29 30  2  0
 30 31  1  0
 18  4  1  0
 24 19  1  0
 30 25  1  0
 15 10  1  0
  5 32  1  0
 11 33  1  0
 11 34  1  0
 12 35  1  0
 12 36  1  0
 13 37  1  0
 13 38  1  0
 14 39  1  0
 14 40  1  0
 15 41  1  0
 15 42  1  0
 16 43  1  0
 17 44  1  0
 20 45  1  0
 20 46  1  0
 21 47  1  0
 21 48  1  0
 23 49  1  0
 23 50  1  0
 24 51  1  0
 24 52  1  0
 26 53  1  0
 27 54  1  0
 28 55  1  0
 29 56  1  0
 31 57  1  0
M  CHG  1   3  -1
M  END
>  <UniqueID>  (2) 
2

>  <SMILES>  (2) 
O=C([N-]c1cc(S(=O)(=O)N2CCCCC2)ccc1N1CCOCC1)c1ccccc1O

>  <Energy>  (2) 
74.6757298785266

>  <Genealogy>  (2) 
O=C([N-]c1cc(S(=O)(=O)N2CCCCC2)ccc1N1CCOCC1)c1ccccc1O (protonated)
O=C([N-]c1cc(S(=O)(=O)N2CCCCC2)ccc1N1CCOCC1)c1ccccc1O (3D coordinates assigned)
O=C([N-]c1cc(S(=O)(=O)N2CCCCC2)ccc1N1CCOCC1)c1ccccc1O (nonaromatic ring conformer: 74.6757298785266 kcal/mol)

>  <smiles>  (2) 
O=C(Nc1cc(S(=O)(=O)N2CCCCC2)ccc1N1CCOCC1)c1ccccc1O

>  <score_type>  (2) 
oracle

>  <origin>  (2) 
adgpu

>  <m_score__min__energy>  (2) 
-10.970000000000001

>  <m_primary>  (2) 
energy

$$$$
2:0
     RDKit          3D

 58 62  0  0  0  0  0  0  0  0999 V2000
    1.4340   23.1980  -36.0250 C   0  0  0  0  0  0  0  0  0  0  0  0
    2.0200   21.8470  -35.9580 N   0  0  0  0  0  0  0  0  0  0  0  0
    1.1000   20.8230  -36.4980 C   0  0  0  0  0  0  0  0  0  0  0  0
   -0.1400   20.6390  -35.6060 C   0  0  0  0  0  0  0  0  0  0  0  0
    0.2220   20.7300  -34.1880 N   0  0  0  0  0  0  0  0  0  0  0  0
   -0.8180   20.8700  -33.2020 C   0  0  0  0  0  0  0  0  0  0  0  0
   -2.1720   20.8030  -33.5580 C   0  0  0  0  0  0  0  0  0  0  0  0
   -3.1430   20.9180  -32.5540 C   0  0  0  0  0  0  0  0  0  0  0  0
   -4.5450   20.8350  -32.8690 N   0  0  0  0  0  0  0  0  0  0  0  0
   -5.0860   19.7280  -33.6620 C   0  0  0  0  0  0  0  0  0  0  0  0
   -6.2790   19.1260  -32.9270 C   0  0  0  0  0  0  0  0  0  0  0  0
   -7.2580   20.1940  -32.5060 C   0  0  0  0  0  0  0  0  0  0  0  0
   -8.5890   19.8370  -32.2380 C   0  0  0  0  0  0  0  0  0  0  0  0
   -9.5070   20.7980  -31.8070 C   0  0  0  0  0  0  0  0  0  0  0  0
   -9.1040   22.1210  -31.6320 C   0  0  0  0  0  0  0  0  0  0  0  0
   -7.7800   22.4890  -31.8800 C   0  0  0  0  0  0  0  0  0  0  0  0
   -6.8430   21.5320  -32.3040 C   0  0  0  0  0  0  0  0  0  0  0  0
   -5.4250   21.9750  -32.5870 C   0  0  0  0  0  0  0  0  0  0  0  0
   -2.7470   21.0560  -31.2590 N   0  0  0  0  0  0  0  0  0  0  0  0
   -1.4320   21.0930  -30.9200 C   0  0  0  0  0  0  0  0  0  0  0  0
   -1.0570   21.2620  -29.5450 N   0  0  0  0  0  0  0  0  0  0  0  0
   -1.4460   20.3630  -28.4940 C   0  0  0  0  0  0  0  0  0  0  0  0
   -2.7040   20.5100  -27.8910 C   0  0  0  0  0  0  0  0  0  0  0  0
   -3.1110   19.6310  -26.8810 C   0  0  0  0  0  0  0  0  0  0  0  0
   -2.2690   18.5920  -26.4760 C   0  0  0  0  0  0  0  0  0  0  0  0
   -1.0230   18.4240  -27.0860 C   0  0  0  0  0  0  0  0  0  0  0  0
   -0.6150   19.2980  -28.0980 C   0  0  0  0  0  0  0  0  0  0  0  0
   -0.4850   21.0070  -31.8910 N   0  0  0  0  0  0  0  0  0  0  0  0
    1.6280   20.5490  -33.8110 C   0  0  0  0  0  0  0  0  0  0  0  0
    2.5210   21.5300  -34.5940 C   0  0  0  0  0  0  0  0  0  0  0  0
    1.2695   23.5773  -35.0056 H   0  0  0  0  0  0  0  0  0  0  0  0
    2.1216   23.8698  -36.5597 H   0  0  0  0  0  0  0  0  0  0  0  0
    0.4736   23.1550  -36.5597 H   0  0  0  0  0  0  0  0  0  0  0  0
    0.7734   21.1322  -37.5019 H   0  0  0  0  0  0  0  0  0  0  0  0
    1.6393   19.8650  -36.5343 H   0  0  0  0  0  0  0  0  0  0  0  0
   -0.8740   21.4235  -35.8421 H   0  0  0  0  0  0  0  0  0  0  0  0
   -0.5686   19.6443  -35.7979 H   0  0  0  0  0  0  0  0  0  0  0  0
   -2.4676   20.6625  -34.6082 H   0  0  0  0  0  0  0  0  0  0  0  0
   -5.4090   20.1019  -34.6448 H   0  0  0  0  0  0  0  0  0  0  0  0
   -4.3115   18.9600  -33.8042 H   0  0  0  0  0  0  0  0  0  0  0  0
   -6.7890   18.4148  -33.5934 H   0  0  0  0  0  0  0  0  0  0  0  0
   -5.9104   18.6169  -32.0242 H   0  0  0  0  0  0  0  0  0  0  0  0
   -8.9114   18.7934  -32.3682 H   0  0  0  0  0  0  0  0  0  0  0  0
  -10.5494   20.5102  -31.6054 H   0  0  0  0  0  0  0  0  0  0  0  0
   -9.8304   22.8765  -31.2979 H   0  0  0  0  0  0  0  0  0  0  0  0
   -7.4687   23.5350  -31.7425 H   0  0  0  0  0  0  0  0  0  0  0  0
   -5.4287   22.6463  -33.4584 H   0  0  0  0  0  0  0  0  0  0  0  0
   -5.0424   22.4900  -31.6935 H   0  0  0  0  0  0  0  0  0  0  0  0
   -0.3960   22.0370  -29.3140 H   0  0  0  0  0  0  0  0  0  0  0  0
   -3.3741   21.3205  -28.2137 H   0  0  0  0  0  0  0  0  0  0  0  0
   -4.0947   19.7581  -26.4055 H   0  0  0  0  0  0  0  0  0  0  0  0
   -2.5870   17.9062  -25.6769 H   0  0  0  0  0  0  0  0  0  0  0  0
   -0.3625   17.6032  -26.7696 H   0  0  0  0  0  0  0  0  0  0  0  0
    0.3596   19.1528  -28.5869 H   0  0  0  0  0  0  0  0  0  0  0  0
    1.7418   20.7358  -32.7330 H   0  0  0  0  0  0  0  0  0  0  0  0
    1.9329   19.5192  -34.0487 H   0  0  0  0  0  0  0  0  0  0  0  0
    2.5877   22.4680  -34.0233 H   0  0  0  0  0  0  0  0  0  0  0  0
    3.4980   21.0403  -34.7196 H   0  0  0  0  0  0  0  0  0  0  0  0
  1  2  1  0
  2  3  1  0
  3  4  1  0
  4  5  1  0
  5  6  1  0
  6  7  2  0
  7  8  1  0
  8  9  1  0
  9 10  1  0
 10 11  1  0
 11 12  1  0
 12 13  2  0
 13 14  1  0
 14 15  2  0
 15 16  1  0
 16 17  2  0
 17 18  1  0
  8 19  2  0
 19 20  1  0
 20 21  1  0
 21 22  1  0
 22 23  2  0
 23 24  1  0
 24 25  2  0
 25 26  1  0
 26 27  2  0
 20 28  2  0
  5 29  1  0
 29 30  1  0
 30  2  1  0
 28  6  1  0
 18  9  1  0
 27 22  1  0
 17 12  1  0
  1 31  1  0
  1 32  1  0
  1 33  1  0
  3 34  1  0
  3 35  1  0
  4 36  1  0
  4 37  1  0
  7 38  1  0
 10 39  1  0
 10 40  1  0
 11 41  1  0
 11 42  1  0
 13 43  1  0
 14 44  1  0
 15 45  1  0
 16 46  1  0
 18 47  1  0
 18 48  1  0
 21 49  1  0
 23 50  1  0
 24 51  1  0
 25 52  1  0
 26 53  1  0
 27 54  1  0
 29 55  1  0
 29 56  1  0
 30 57  1  0
 30 58  1  0
M  END
>  <UniqueID>  (3) 
3

>  <SMILES>  (3) 
CN1CCN(c2cc(N3CCc4ccccc4C3)nc(Nc3ccccc3)n2)CC1

>  <Energy>  (3) 
81.21609154030308

>  <Genealogy>  (3) 
CN1CCN(c2cc(N3CCc4ccccc4C3)nc(Nc3ccccc3)n2)CC1 (3D coordinates assigned)
CN1CCN(c2cc(N3CCc4ccccc4C3)nc(Nc3ccccc3)n2)CC1 (nonaromatic ring conformer: 81.21609154030308 kcal/mol)

>  <smiles>  (3) 
CN1CCN(c2cc(N3CCc4ccccc4C3)nc(Nc3ccccc3)n2)CC1

>  <score_type>  (3) 
oracle

>  <origin>  (3) 
adgpu

>  <m_score__min__energy>  (3) 
-9.7799999999999994

>  <m_primary>  (3) 
energy

$$$$
3:0
     RDKit          3D

 45 47  0  0  0  0  0  0  0  0999 V2000
   -4.1090   16.7560  -34.7480 C   0  0  0  0  0  0  0  0  0  0  0  0
   -3.5370   17.3380  -33.5820 O   0  0  0  0  0  0  0  0  0  0  0  0
   -3.2590   18.7070  -33.4320 C   0  0  0  0  0  0  0  0  0  0  0  0
   -1.9460   19.1870  -33.2500 C   0  0  0  0  0  0  0  0  0  0  0  0
   -1.7090   20.5550  -33.1060 C   0  0  0  0  0  0  0  0  0  0  0  0
   -2.7720   21.4560  -33.1430 C   0  0  0  0  0  0  0  0  0  0  0  0
   -4.0760   20.9940  -33.3200 C   0  0  0  0  0  0  0  0  0  0  0  0
   -4.3310   19.6160  -33.4620 C   0  0  0  0  0  0  0  0  0  0  0  0
   -5.6600   19.1080  -33.6450 N   0  0  0  0  0  0  0  0  0  0  0  0
   -6.9240   19.1420  -32.4580 S   0  0  0  0  0  0  0  0  0  0  0  0
   -8.1310   18.4170  -32.9820 O   0  0  0  0  0  0  0  0  0  0  0  0
   -6.4520   18.4410  -31.2160 O   0  0  0  0  0  0  0  0  0  0  0  0
   -7.3080   20.8140  -32.0580 C   0  0  0  0  0  0  0  0  0  0  0  0
   -8.5980   21.3030  -32.3030 C   0  0  0  0  0  0  0  0  0  0  0  0
   -8.9310   22.6130  -31.9460 C   0  0  0  0  0  0  0  0  0  0  0  0
   -7.9830   23.4340  -31.3320 C   0  0  0  0  0  0  0  0  0  0  0  0
   -6.6930   22.9500  -31.0770 C   0  0  0  0  0  0  0  0  0  0  0  0
   -5.5330   23.9680  -30.2300 S   0  0  0  0  0  0  0  0  0  0  0  0
   -6.2790   25.0110  -29.4490 O   0  0  0  0  0  0  0  0  0  0  0  0
   -4.6100   24.6510  -31.2010 O   0  0  0  0  0  0  0  0  0  0  0  0
   -4.5960   22.9990  -29.1400 N   0  0  0  0  0  0  0  0  0  0  0  0
   -3.1650   22.8890  -29.1500 C   0  0  0  0  0  0  0  0  0  0  0  0
   -2.5110   21.6450  -29.0470 C   0  0  0  0  0  0  0  0  0  0  0  0
   -1.1140   21.5840  -29.0390 C   0  0  0  0  0  0  0  0  0  0  0  0
   -0.3600   22.7550  -29.1380 C   0  0  0  0  0  0  0  0  0  0  0  0
   -0.9990   23.9910  -29.2480 C   0  0  0  0  0  0  0  0  0  0  0  0
   -2.4000   24.0620  -29.2540 C   0  0  0  0  0  0  0  0  0  0  0  0
   -3.0370   25.2980  -29.3590 O   0  0  0  0  0  0  0  0  0  0  0  0
   -6.3530   21.6450  -31.4550 C   0  0  0  0  0  0  0  0  0  0  0  0
   -4.8520   16.0001  -34.4538 H   0  0  0  0  0  0  0  0  0  0  0  0
   -4.5991   17.5386  -35.3457 H   0  0  0  0  0  0  0  0  0  0  0  0
   -3.3180   16.2795  -35.3457 H   0  0  0  0  0  0  0  0  0  0  0  0
   -1.1039   18.4798  -33.2213 H   0  0  0  0  0  0  0  0  0  0  0  0
   -0.6821   20.9225  -32.9631 H   0  0  0  0  0  0  0  0  0  0  0  0
   -2.5819   22.5338  -33.0324 H   0  0  0  0  0  0  0  0  0  0  0  0
   -4.9104   21.7101  -33.3489 H   0  0  0  0  0  0  0  0  0  0  0  0
   -9.3500   20.6551  -32.7770 H   0  0  0  0  0  0  0  0  0  0  0  0
   -9.9414   22.9976  -32.1491 H   0  0  0  0  0  0  0  0  0  0  0  0
   -8.2494   24.4628  -31.0479 H   0  0  0  0  0  0  0  0  0  0  0  0
   -3.1010   20.7196  -28.9727 H   0  0  0  0  0  0  0  0  0  0  0  0
   -0.6078   20.6110  -28.9545 H   0  0  0  0  0  0  0  0  0  0  0  0
    0.7388   22.7034  -29.1293 H   0  0  0  0  0  0  0  0  0  0  0  0
   -0.4026   24.9116  -29.3302 H   0  0  0  0  0  0  0  0  0  0  0  0
   -4.0420   25.3880  -29.2580 H   0  0  0  0  0  0  0  0  0  0  0  0
   -5.3338   21.2708  -31.2783 H   0  0  0  0  0  0  0  0  0  0  0  0
  1  2  1  0
  2  3  1  0
  3  4  2  0
  4  5  1  0
  5  6  2  0
  6  7  1  0
  7  8  2  0
  8  9  1  0
  9 10  1  0
 10 11  2  0
 10 12  2  0
 10 13  1  0
 13 14  2  0
 14 15  1  0
 15 16  2  0
 16 17  1  0
 17 18  1  0
 18 19  2  0
 18 20  2  0
 18 21  1  0
 21 22  1  0
 22 23  2  0
 23 24  1  0
 24 25  2  0
 25 26  1  0
 26 27  2  0
 27 28  1  0
 17 29  2  0
  8  3  1  0
 29 13  1  0
 27 22  1  0
  1 30  1  0
  1 31  1  0
  1 32  1  0
  4 33  1  0
  5 34  1  0
  6 35  1  0
  7 36  1  0
 14 37  1  0
 15 38  1  0
 16 39  1  0
 23 40  1  0
 24 41  1  0
 25 42  1  0
 26 43  1  0
 28 44  1  0
 29 45  1  0
M  CHG  2   9  -1  21  -1
M  END
>  <UniqueID>  (4) 
4

>  <SMILES>  (4) 
COc1ccccc1[N-]S(=O)(=O)c1cccc(S(=O)(=O)[N-]c2ccccc2O)c1

>  <Energy>  (4) 
51.841948529953065

>  <Genealogy>  (4) 
COc1ccccc1[N-]S(=O)(=O)c1cccc(S(=O)(=O)[N-]c2ccccc2O)c1 (protonated)
COc1ccccc1[N-]S(=O)(=O)c1cccc(S(=O)(=O)[N-]c2ccccc2O)c1 (3D coordinates assigned)
COc1ccccc1[N-]S(=O)(=O)c1cccc(S(=O)(=O)[N-]c2ccccc2O)c1 (optimized conformer: 51.841948529953065 kcal/mol)

>  <smiles>  (4) 
COc1ccccc1NS(=O)(=O)c1cccc(S(=O)(=O)Nc2ccccc2O)c1

>  <score_type>  (4) 
oracle

>  <origin>  (4) 
adgpu

>  <m_score__min__energy>  (4) 
-10.529999999999999

>  <m_primary>  (4) 
energy

$$$$
4:0
     RDKit          3D

 33 34  0  0  0  0  0  0  0  0999 V2000
   -0.8480   25.9950  -28.8950 N   0  0  0  0  0  0  0  0  0  0  0  0
   -0.5530   24.6000  -28.8380 C   0  0  0  0  0  0  0  0  0  0  0  0
    0.5740   24.2340  -28.4050 O   0  0  0  0  0  0  0  0  0  0  0  0
   -1.5510   23.5840  -29.2670 C   0  0  0  0  0  0  0  0  0  0  0  0
   -1.2520   22.2180  -29.1070 C   0  0  0  0  0  0  0  0  0  0  0  0
   -2.1630   21.2380  -29.4980 C   0  0  0  0  0  0  0  0  0  0  0  0
   -3.3880   21.6000  -30.0540 C   0  0  0  0  0  0  0  0  0  0  0  0
   -3.7160   22.9520  -30.2200 C   0  0  0  0  0  0  0  0  0  0  0  0
   -5.2720   23.3790  -30.9370 S   0  0  0  0  0  0  0  0  0  0  0  0
   -6.3840   23.2370  -29.9370 O   0  0  0  0  0  0  0  0  0  0  0  0
   -5.2160   24.8040  -31.4080 O   0  0  0  0  0  0  0  0  0  0  0  0
   -5.6090   22.3520  -32.2940 N   0  0  0  0  0  0  0  0  0  0  0  0
   -6.0220   20.9790  -32.2180 C   0  0  0  0  0  0  0  0  0  0  0  0
   -5.1100   19.9260  -32.4220 C   0  0  0  0  0  0  0  0  0  0  0  0
   -5.5350   18.5990  -32.3530 C   0  0  0  0  0  0  0  0  0  0  0  0
   -6.8720   18.3050  -32.0890 C   0  0  0  0  0  0  0  0  0  0  0  0
   -7.7900   19.3390  -31.8860 C   0  0  0  0  0  0  0  0  0  0  0  0
   -7.3740   20.6790  -31.9420 C   0  0  0  0  0  0  0  0  0  0  0  0
   -8.5550   21.9700  -31.6940 S   0  0  0  0  0  0  0  0  0  0  0  0
   -8.0110   23.4440  -32.4150 N   0  0  0  0  0  0  0  0  0  0  0  0
   -8.7500   22.1870  -30.2210 O   0  0  0  0  0  0  0  0  0  0  0  0
   -9.8660   21.5860  -32.3210 O   0  0  0  0  0  0  0  0  0  0  0  0
   -2.7940   23.9470  -29.8390 C   0  0  0  0  0  0  0  0  0  0  0  0
   -3.1130   25.2860  -30.0450 O   0  0  0  0  0  0  0  0  0  0  0  0
   -1.2370   26.4280  -29.7600 H   0  0  0  0  0  0  0  0  0  0  0  0
   -0.2882   21.9203  -28.6683 H   0  0  0  0  0  0  0  0  0  0  0  0
   -1.9136   20.1747  -29.3670 H   0  0  0  0  0  0  0  0  0  0  0  0
   -4.1005   20.8213  -30.3639 H   0  0  0  0  0  0  0  0  0  0  0  0
   -4.0550   20.1511  -32.6373 H   0  0  0  0  0  0  0  0  0  0  0  0
   -4.8137   17.7830  -32.5072 H   0  0  0  0  0  0  0  0  0  0  0  0
   -7.2048   17.2577  -32.0404 H   0  0  0  0  0  0  0  0  0  0  0  0
   -8.8444   19.1018  -31.6812 H   0  0  0  0  0  0  0  0  0  0  0  0
   -7.1840   23.7690  -31.8630 H   0  0  0  0  0  0  0  0  0  0  0  0
  1  2  1  0
  2  3  2  0
  2  4  1  0
  4  5  2  0
  5  6  1  0
  6  7  2  0
  7  8  1  0
  8  9  1  0
  9 10  2  0
  9 11  2  0
  9 12  1  0
 12 13  1  0
 13 14  2  0
 14 15  1  0
 15 16  2  0
 16 17  1  0
 17 18  2  0
 18 19  1  0
 19 20  1  0
 19 21  2  0
 19 22  2  0
  8 23  2  0
 23 24  1  0
 23  4  1  0
 18 13  1  0
  1 25  1  0
  5 26  1  0
  6 27  1  0
  7 28  1  0
 14 29  1  0
 15 30  1  0
 16 31  1  0
 17 32  1  0
 20 33  1  0
M  CHG  4   1  -1  12  -1  20  -1  24  -1
M  END
>  <UniqueID>  (5) 
5

>  <SMILES>  (5) 
[NH-]C(=O)c1cccc(S(=O)(=O)[N-]c2ccccc2S([NH-])(=O)=O)c1[O-]

>  <Energy>  (5) 
41.20006120577743

>  <Genealogy>  (5) 
[NH-]C(=O)c1cccc(S(=O)(=O)[N-]c2ccccc2S([NH-])(=O)=O)c1[O-] (protonated)
[NH-]C(=O)c1cccc(S(=O)(=O)[N-]c2ccccc2S([NH-])(=O)=O)c1[O-] (3D coordinates assigned)
[NH-]C(=O)c1cccc(S(=O)(=O)[N-]c2ccccc2S([NH-])(=O)=O)c1[O-] (optimized conformer: 41.20006120577743 kcal/mol)

>  <smiles>  (5) 
NC(=O)c1cccc(S(=O)(=O)Nc2ccccc2S(N)(=O)=O)c1O

>  <score_type>  (5) 
oracle

>  <origin>  (5) 
adgpu

>  <m_score__min__energy>  (5) 
-14.380000000000001

>  <m_primary>  (5) 
energy

$$$$
5:0
     RDKit          3D

 46 49  0  0  0  0  0  0  0  0999 V2000
   -1.4440   18.1000  -34.3780 C   0  0  0  0  0  0  0  0  0  0  0  0
   -2.6770   18.8300  -33.9360 C   0  0  0  0  0  0  0  0  0  0  0  0
   -3.9480   18.3430  -34.2810 C   0  0  0  0  0  0  0  0  0  0  0  0
   -5.1010   19.0010  -33.8390 C   0  0  0  0  0  0  0  0  0  0  0  0
   -4.9940   20.1430  -33.0390 C   0  0  0  0  0  0  0  0  0  0  0  0
   -6.1120   20.7850  -32.6150 N   0  0  0  0  0  0  0  0  0  0  0  0
   -6.0610   21.8990  -31.8350 C   0  0  0  0  0  0  0  0  0  0  0  0
   -7.2940   22.5250  -31.4490 N   0  0  0  0  0  0  0  0  0  0  0  0
   -8.1240   21.9080  -30.4140 C   0  0  0  0  0  0  0  0  0  0  0  0
   -9.4860   21.4730  -31.0020 C   0  0  0  0  0  0  0  0  0  0  0  0
   -9.7440   22.0010  -32.2960 O   0  0  0  0  0  0  0  0  0  0  0  0
   -9.4200   23.3760  -32.3410 C   0  0  0  0  0  0  0  0  0  0  0  0
   -7.8970   23.5470  -32.3130 C   0  0  0  0  0  0  0  0  0  0  0  0
   -4.8090   22.4090  -31.4250 C   0  0  0  0  0  0  0  0  0  0  0  0
   -4.6630   23.8170  -30.3630 S   0  0  0  0  0  0  0  0  0  0  0  0
   -5.9650   24.0530  -29.6510 O   0  0  0  0  0  0  0  0  0  0  0  0
   -4.3510   25.0290  -31.1960 O   0  0  0  0  0  0  0  0  0  0  0  0
   -3.3970   23.5630  -29.1640 C   0  0  0  0  0  0  0  0  0  0  0  0
   -3.3710   22.3790  -28.4110 C   0  0  0  0  0  0  0  0  0  0  0  0
   -2.3730   22.1790  -27.4520 C   0  0  0  0  0  0  0  0  0  0  0  0
   -1.3960   23.1550  -27.2430 C   0  0  0  0  0  0  0  0  0  0  0  0
   -1.4120   24.3330  -27.9960 C   0  0  0  0  0  0  0  0  0  0  0  0
   -2.4080   24.5360  -28.9560 C   0  0  0  0  0  0  0  0  0  0  0  0
   -3.6420   21.7650  -31.8610 C   0  0  0  0  0  0  0  0  0  0  0  0
   -3.7230   20.6290  -32.6730 C   0  0  0  0  0  0  0  0  0  0  0  0
   -2.5680   19.9660  -33.1180 C   0  0  0  0  0  0  0  0  0  0  0  0
   -0.8795   17.7658  -33.4951 H   0  0  0  0  0  0  0  0  0  0  0  0
   -1.7316   17.2265  -34.9816 H   0  0  0  0  0  0  0  0  0  0  0  0
   -0.8165   18.7722  -34.9816 H   0  0  0  0  0  0  0  0  0  0  0  0
   -4.0377   17.4395  -34.9020 H   0  0  0  0  0  0  0  0  0  0  0  0
   -6.0933   18.6194  -34.1213 H   0  0  0  0  0  0  0  0  0  0  0  0
   -7.6048   21.0257  -30.0115 H   0  0  0  0  0  0  0  0  0  0  0  0
   -8.2995   22.6418  -29.6136 H   0  0  0  0  0  0  0  0  0  0  0  0
   -9.5022   20.3749  -31.0653 H   0  0  0  0  0  0  0  0  0  0  0  0
  -10.2655   21.8662  -30.3329 H   0  0  0  0  0  0  0  0  0  0  0  0
   -9.8208   23.8164  -33.2659 H   0  0  0  0  0  0  0  0  0  0  0  0
   -9.8605   23.8836  -31.4702 H   0  0  0  0  0  0  0  0  0  0  0  0
   -7.4997   23.4423  -33.3334 H   0  0  0  0  0  0  0  0  0  0  0  0
   -7.6523   24.5442  -31.9185 H   0  0  0  0  0  0  0  0  0  0  0  0
   -4.1370   21.6069  -28.5754 H   0  0  0  0  0  0  0  0  0  0  0  0
   -2.3574   21.2513  -26.8612 H   0  0  0  0  0  0  0  0  0  0  0  0
   -0.6138   22.9969  -26.4859 H   0  0  0  0  0  0  0  0  0  0  0  0
   -0.6408   25.1003  -27.8331 H   0  0  0  0  0  0  0  0  0  0  0  0
   -2.4162   25.4617  -29.5502 H   0  0  0  0  0  0  0  0  0  0  0  0
   -2.6578   22.1553  -31.5628 H   0  0  0  0  0  0  0  0  0  0  0  0
   -1.5750   20.3376  -32.8250 H   0  0  0  0  0  0  0  0  0  0  0  0
  1  2  1  0
  2  3  2  0
  3  4  1  0
  4  5  2  0
  5  6  1  0
  6  7  2  0
  7  8  1  0
  8  9  1  0
  9 10  1  0
 10 11  1  0
 11 12  1  0
 12 13  1  0
  7 14  1  0
 14 15  1  0
 15 16  2  0
 15 17  2  0
 15 18  1  0
 18 19  2  0
 19 20  1  0
 20 21  2  0
 21 22  1  0
 22 23  2  0
 14 24  2  0
 24 25  1  0
 25 26  2  0
 26  2  1  0
 25  5  1  0
 13  8  1  0
 23 18  1  0
  1 27  1  0
  1 28  1  0
  1 29  1  0
  3 30  1  0
  4 31  1  0
  9 32  1  0
  9 33  1  0
 10 34  1  0
 10 35  1  0
 12 36  1  0
 12 37  1  0
 13 38  1  0
 13 39  1  0
 19 40  1  0
 20 41  1  0
 21 42  1  0
 22 43  1  0
 23 44  1  0
 24 45  1  0
 26 46  1  0
M  END
>  <UniqueID>  (6) 
6

>  <SMILES>  (6) 
Cc1ccc2nc(N3CCOCC3)c(S(=O)(=O)c3ccccc3)cc2c1

>  <Energy>  (6) 
66.41393271457747

>  <Genealogy>  (6) 
Cc1ccc2nc(N3CCOCC3)c(S(=O)(=O)c3ccccc3)cc2c1 (3D coordinates assigned)
Cc1ccc2nc(N3CCOCC3)c(S(=O)(=O)c3ccccc3)cc2c1 (nonaromatic ring conformer: 66.41393271457747 kcal/mol)

>  <smiles>  (6) 
Cc1ccc2nc(N3CCOCC3)c(S(=O)(=O)c3ccccc3)cc2c1

>  <score_type>  (6) 
oracle

>  <origin>  (6) 
adgpu

>  <m_score__min__energy>  (6) 
-8.4399999999999995

>  <m_primary>  (6) 
energy

$$$$
6:0
     RDKit          3D

 53 55  0  0  0  0  0  0  0  0999 V2000
   -2.3810   19.3940  -33.7990 C   0  0  0  0  0  0  0  0  0  0  0  0
   -2.1630   20.1180  -32.4920 C   0  0  0  0  0  0  0  0  0  0  0  0
   -1.2090   19.6340  -31.5560 C   0  0  0  0  0  0  0  0  0  0  0  0
   -0.1930   18.2170  -31.8850 S   0  0  0  0  0  0  0  0  0  0  0  0
    1.0110   18.6130  -33.0600 N   0  0  0  0  0  0  0  0  0  0  0  0
    0.5020   17.7710  -30.6290 O   0  0  0  0  0  0  0  0  0  0  0  0
   -1.0490   17.0890  -32.3900 O   0  0  0  0  0  0  0  0  0  0  0  0
   -1.0510   20.2900  -30.3300 C   0  0  0  0  0  0  0  0  0  0  0  0
   -1.8170   21.4040  -30.0160 C   0  0  0  0  0  0  0  0  0  0  0  0
   -2.7500   21.9040  -30.9220 C   0  0  0  0  0  0  0  0  0  0  0  0
   -3.5240   23.0430  -30.5280 N   0  0  0  0  0  0  0  0  0  0  0  0
   -3.1290   23.9880  -29.5290 C   0  0  0  0  0  0  0  0  0  0  0  0
   -3.3060   25.2210  -29.7210 O   0  0  0  0  0  0  0  0  0  0  0  0
   -2.6020   23.5100  -28.2840 N   0  0  0  0  0  0  0  0  0  0  0  0
   -2.0670   24.3560  -27.2530 C   0  0  0  0  0  0  0  0  0  0  0  0
   -0.6770   24.5130  -27.1470 C   0  0  0  0  0  0  0  0  0  0  0  0
   -0.1280   25.3380  -26.1630 C   0  0  0  0  0  0  0  0  0  0  0  0
   -0.9610   26.0410  -25.2770 C   0  0  0  0  0  0  0  0  0  0  0  0
   -0.3700   26.9100  -24.2270 C   0  0  0  0  0  0  0  0  0  0  0  0
    0.6030   26.3720  -23.3240 N   0  0  0  0  0  0  0  0  0  0  0  0
   -0.7180   28.1580  -24.1240 N   0  0  0  0  0  0  0  0  0  0  0  0
   -2.3560   25.9030  -25.3990 C   0  0  0  0  0  0  0  0  0  0  0  0
   -2.9040   25.0740  -26.3830 C   0  0  0  0  0  0  0  0  0  0  0  0
   -2.8780   21.3120  -32.2000 C   0  0  0  0  0  0  0  0  0  0  0  0
   -3.9030   22.1260  -33.4590 S   0  0  0  0  0  0  0  0  0  0  0  0
   -5.4590   21.7880  -32.6130 C   0  0  0  0  0  0  0  0  0  0  0  0
   -6.0430   20.5200  -32.7480 C   0  0  0  0  0  0  0  0  0  0  0  0
   -7.2140   20.2040  -32.0580 C   0  0  0  0  0  0  0  0  0  0  0  0
   -7.8150   21.1500  -31.2280 C   0  0  0  0  0  0  0  0  0  0  0  0
   -7.2650   22.4290  -31.1130 C   0  0  0  0  0  0  0  0  0  0  0  0
   -6.1030   22.7690  -31.8220 C   0  0  0  0  0  0  0  0  0  0  0  0
   -5.6220   24.1170  -31.7620 N   0  0  0  0  0  0  0  0  0  0  0  0
   -2.6928   18.3586  -33.5971 H   0  0  0  0  0  0  0  0  0  0  0  0
   -3.1645   19.9069  -34.3760 H   0  0  0  0  0  0  0  0  0  0  0  0
   -1.4445   19.3890  -34.3760 H   0  0  0  0  0  0  0  0  0  0  0  0
    1.3430   19.5800  -32.8440 H   0  0  0  0  0  0  0  0  0  0  0  0
   -0.3107   19.9182  -29.6063 H   0  0  0  0  0  0  0  0  0  0  0  0
   -1.6861   21.8974  -29.0416 H   0  0  0  0  0  0  0  0  0  0  0  0
   -2.7030   22.4890  -28.0810 H   0  0  0  0  0  0  0  0  0  0  0  0
   -0.0136   23.9815  -27.8452 H   0  0  0  0  0  0  0  0  0  0  0  0
    0.9644   25.4380  -26.0812 H   0  0  0  0  0  0  0  0  0  0  0  0
    0.8390   25.3550  -23.3290 H   0  0  0  0  0  0  0  0  0  0  0  0
    1.0580   26.9800  -22.6050 H   0  0  0  0  0  0  0  0  0  0  0  0
   -0.3030   28.7680  -23.3850 H   0  0  0  0  0  0  0  0  0  0  0  0
   -1.3960   28.5970  -24.7840 H   0  0  0  0  0  0  0  0  0  0  0  0
   -3.0206   26.4514  -24.7152 H   0  0  0  0  0  0  0  0  0  0  0  0
   -3.9963   24.9837  -26.4761 H   0  0  0  0  0  0  0  0  0  0  0  0
   -5.5749   19.7697  -33.4021 H   0  0  0  0  0  0  0  0  0  0  0  0
   -7.6641   19.2065  -32.1690 H   0  0  0  0  0  0  0  0  0  0  0  0
   -8.7224   20.8890  -30.6637 H   0  0  0  0  0  0  0  0  0  0  0  0
   -7.7460   23.1743  -30.4625 H   0  0  0  0  0  0  0  0  0  0  0  0
   -4.8140   24.3650  -31.1490 H   0  0  0  0  0  0  0  0  0  0  0  0
   -6.1070   24.8930  -32.2610 H   0  0  0  0  0  0  0  0  0  0  0  0
  1  2  1  0
  2  3  2  0
  3  4  1  0
  4  5  1  0
  4  6  2  0
  4  7  2  0
  3  8  1  0
  8  9  2  0
  9 10  1  0
 10 11  1  0
 11 12  1  0
 12 13  2  0
 12 14  1  0
 14 15  1  0
 15 16  2  0
 16 17  1  0
 17 18  2  0
 18 19  1  0
 19 20  1  0
 19 21  2  0
 18 22  1  0
 22 23  2  0
 10 24  2  0
 24 25  1  0
 25 26  1  0
 26 27  2  0
 27 28  1  0
 28 29  2  0
 29 30  1  0
 30 31  2  0
 31 32  1  0
 24  2  1  0
 31 26  1  0
 23 15  1  0
  1 33  1  0
  1 34  1  0
  1 35  1  0
  5 36  1  0
  8 37  1  0
  9 38  1  0
 14 39  1  0
 16 40  1  0
 17 41  1  0
 20 42  1  0
 20 43  1  0
 21 44  1  0
 21 45  1  0
 22 46  1  0
 23 47  1  0
 27 48  1  0
 28 49  1  0
 29 50  1  0
 30 51  1  0
 32 52  1  0
 32 53  1  0
M  CHG  3   5  -1  11  -1  21   1
M  END
>  <UniqueID>  (7) 
7

>  <SMILES>  (7) 
Cc1c(S([NH-])(=O)=O)ccc([N-]C(=O)Nc2ccc(C(N)=[NH2+])cc2)c1Sc1ccccc1N

>  <Energy>  (7) 
68.73712282571987

>  <Genealogy>  (7) 
Cc1c(S([NH-])(=O)=O)ccc([N-]C(=O)Nc2ccc(C(N)=[NH2+])cc2)c1Sc1ccccc1N (protonated)
Cc1c(S([NH-])(=O)=O)ccc([N-]C(=O)Nc2ccc(C(N)=[NH2+])cc2)c1Sc1ccccc1N (3D coordinates assigned)
Cc1c(S([NH-])(=O)=O)ccc([N-]C(=O)Nc2ccc(C(N)=[NH2+])cc2)c1Sc1ccccc1N (optimized conformer: 68.73712282571987 kcal/mol)

>  <smiles>  (7) 
Cc1c(S(N)(=O)=O)ccc(NC(=O)Nc2ccc(C(=N)N)cc2)c1Sc1ccccc1N

>  <score_type>  (7) 
oracle

>  <origin>  (7) 
adgpu

>  <m_score__min__energy>  (7) 
-12.109999999999999

>  <m_primary>  (7) 
energy

$$$$
7:0
     RDKit          3D

 28 29  0  0  0  0  0  0  0  0999 V2000
   -9.1200   18.5500  -31.5880 C   0  0  0  0  0  0  0  0  0  0  0  0
   -9.2950   19.7860  -32.4690 C   0  0  0  0  0  0  0  0  0  0  0  0
   -8.1390   20.7460  -32.3410 C   0  0  0  0  0  0  0  0  0  0  0  0
   -8.2120   22.0420  -31.8630 C   0  0  0  0  0  0  0  0  0  0  0  0
   -6.9190   22.5170  -31.9620 C   0  0  0  0  0  0  0  0  0  0  0  0
   -6.4490   23.8620  -31.5210 C   0  0  0  0  0  0  0  0  0  0  0  0
   -6.1070   21.5530  -32.4330 N   0  0  0  0  0  0  0  0  0  0  0  0
   -6.8470   20.4780  -32.6560 N   0  0  0  0  0  0  0  0  0  0  0  0
   -6.2920   19.2430  -33.1340 C   0  0  0  0  0  0  0  0  0  0  0  0
   -6.1140   19.0160  -34.5090 C   0  0  0  0  0  0  0  0  0  0  0  0
   -5.5990   17.7970  -34.9620 C   0  0  0  0  0  0  0  0  0  0  0  0
   -5.2730   16.7910  -34.0480 C   0  0  0  0  0  0  0  0  0  0  0  0
   -5.4700   17.0010  -32.6790 C   0  0  0  0  0  0  0  0  0  0  0  0
   -5.9840   18.2180  -32.2240 C   0  0  0  0  0  0  0  0  0  0  0  0
   -9.1618   18.8455  -30.5293 H   0  0  0  0  0  0  0  0  0  0  0  0
   -9.9254   17.8314  -31.8002 H   0  0  0  0  0  0  0  0  0  0  0  0
   -8.1468   18.0832  -31.8002 H   0  0  0  0  0  0  0  0  0  0  0  0
   -9.3740   19.4648  -33.5181 H   0  0  0  0  0  0  0  0  0  0  0  0
  -10.2054   20.3085  -32.1402 H   0  0  0  0  0  0  0  0  0  0  0  0
   -9.0991   22.5739  -31.4887 H   0  0  0  0  0  0  0  0  0  0  0  0
   -6.4346   23.9032  -30.4219 H   0  0  0  0  0  0  0  0  0  0  0  0
   -5.4350   24.0411  -31.9079 H   0  0  0  0  0  0  0  0  0  0  0  0
   -7.1307   24.6337  -31.9079 H   0  0  0  0  0  0  0  0  0  0  0  0
   -6.3808   19.8004  -35.2325 H   0  0  0  0  0  0  0  0  0  0  0  0
   -5.4503   17.6298  -36.0390 H   0  0  0  0  0  0  0  0  0  0  0  0
   -4.8619   15.8351  -34.4048 H   0  0  0  0  0  0  0  0  0  0  0  0
   -5.2199   16.2071  -31.9599 H   0  0  0  0  0  0  0  0  0  0  0  0
   -6.1483   18.3743  -31.1476 H   0  0  0  0  0  0  0  0  0  0  0  0
  1  2  1  0
  2  3  1  0
  3  4  2  0
  4  5  1  0
  5  6  1  0
  5  7  2  0
  7  8  1  0
  8  9  1  0
  9 10  2  0
 10 11  1  0
 11 12  2  0
 12 13  1  0
 13 14  2  0
  8  3  1  0
 14  9  1  0
  1 15  1  0
  1 16  1  0
  1 17  1  0
  2 18  1  0
  2 19  1  0
  4 20  1  0
  6 21  1  0
  6 22  1  0
  6 23  1  0
 10 24  1  0
 11 25  1  0
 12 26  1  0
 13 27  1  0
 14 28  1  0
M  END
>  <UniqueID>  (8) 
8

>  <SMILES>  (8) 
CCc1cc(C)nn1-c1ccccc1

>  <Energy>  (8) 
59.743356606586765

>  <Genealogy>  (8) 
CCc1cc(C)nn1-c1ccccc1 (3D coordinates assigned)
CCc1cc(C)nn1-c1ccccc1 (optimized conformer: 59.743356606586765 kcal/mol)

>  <smiles>  (8) 
CCc1cc(C)nn1-c1ccccc1

>  <score_type>  (8) 
oracle

>  <origin>  (8) 
adgpu

>  <m_score__min__energy>  (8) 
-6.0499999999999998

>  <m_primary>  (8) 
energy

$$$$
8:0
     RDKit          3D

 36 38  0  0  0  0  0  0  0  0999 V2000
   -3.3840   14.7810  -34.2610 C   0  0  0  0  0  0  0  0  0  0  0  0
   -4.0880   16.0950  -34.2170 C   0  0  0  0  0  0  0  0  0  0  0  0
   -3.7030   17.2370  -34.8910 C   0  0  0  0  0  0  0  0  0  0  0  0
   -4.6440   18.1940  -34.5750 C   0  0  0  0  0  0  0  0  0  0  0  0
   -5.5430   17.5680  -33.7300 C   0  0  0  0  0  0  0  0  0  0  0  0
   -6.7270   18.1860  -33.1260 C   0  0  0  0  0  0  0  0  0  0  0  0
   -7.5790   17.5190  -32.3140 N   0  0  0  0  0  0  0  0  0  0  0  0
   -8.4710   18.4830  -32.0160 C   0  0  0  0  0  0  0  0  0  0  0  0
   -9.4860   18.3030  -31.2320 N   0  0  0  0  0  0  0  0  0  0  0  0
   -8.1830   19.6510  -32.6160 N   0  0  0  0  0  0  0  0  0  0  0  0
   -8.8710   20.9310  -32.4720 C   0  0  0  0  0  0  0  0  0  0  0  0
   -7.9570   21.9320  -31.8220 C   0  0  0  0  0  0  0  0  0  0  0  0
   -7.7110   21.8690  -30.4420 C   0  0  0  0  0  0  0  0  0  0  0  0
   -6.8940   22.8230  -29.8280 C   0  0  0  0  0  0  0  0  0  0  0  0
   -6.3190   23.8520  -30.5850 C   0  0  0  0  0  0  0  0  0  0  0  0
   -5.3040   25.0640  -29.8090 S   0  0  0  0  0  0  0  0  0  0  0  0
   -3.8520   25.2720  -30.7220 N   0  0  0  0  0  0  0  0  0  0  0  0
   -6.0390   26.3730  -29.7360 O   0  0  0  0  0  0  0  0  0  0  0  0
   -4.9620   24.6240  -28.4130 O   0  0  0  0  0  0  0  0  0  0  0  0
   -6.5800   23.9280  -31.9600 C   0  0  0  0  0  0  0  0  0  0  0  0
   -7.3970   22.9750  -32.5760 C   0  0  0  0  0  0  0  0  0  0  0  0
   -7.0750   19.4780  -33.3120 N   0  0  0  0  0  0  0  0  0  0  0  0
   -5.1880   16.3200  -33.5360 O   0  0  0  0  0  0  0  0  0  0  0  0
   -3.1965   14.4310  -33.2352 H   0  0  0  0  0  0  0  0  0  0  0  0
   -4.0098   14.0473  -34.7901 H   0  0  0  0  0  0  0  0  0  0  0  0
   -2.4265   14.8956  -34.7901 H   0  0  0  0  0  0  0  0  0  0  0  0
   -2.8268   17.3582  -35.5448 H   0  0  0  0  0  0  0  0  0  0  0  0
   -4.6737   19.2373  -34.9222 H   0  0  0  0  0  0  0  0  0  0  0  0
   -9.6650   17.3760  -30.7850 H   0  0  0  0  0  0  0  0  0  0  0  0
   -9.1682   21.2992  -33.4650 H   0  0  0  0  0  0  0  0  0  0  0  0
   -9.7637   20.7941  -31.8441 H   0  0  0  0  0  0  0  0  0  0  0  0
   -8.1627   21.0660  -29.8410 H   0  0  0  0  0  0  0  0  0  0  0  0
   -6.7020   22.7654  -28.7464 H   0  0  0  0  0  0  0  0  0  0  0  0
   -3.9320   26.1890  -31.2170 H   0  0  0  0  0  0  0  0  0  0  0  0
   -6.1403   24.7406  -32.5569 H   0  0  0  0  0  0  0  0  0  0  0  0
   -7.6014   23.0429  -33.6547 H   0  0  0  0  0  0  0  0  0  0  0  0
  1  2  1  0
  2  3  2  0
  3  4  1  0
  4  5  2  0
  5  6  1  0
  6  7  2  0
  7  8  1  0
  8  9  2  3
  8 10  1  0
 10 11  1  0
 11 12  1  0
 12 13  2  0
 13 14  1  0
 14 15  2  0
 15 16  1  0
 16 17  1  0
 16 18  2  0
 16 19  2  0
 15 20  1  0
 20 21  2  0
 10 22  1  0
  5 23  1  0
 23  2  1  0
 22  6  1  0
 21 12  1  0
  1 24  1  0
  1 25  1  0
  1 26  1  0
  3 27  1  0
  4 28  1  0
  9 29  1  0
 11 30  1  0
 11 31  1  0
 13 32  1  0
 14 33  1  0
 17 34  1  0
 20 35  1  0
 21 36  1  0
M  CHG  2  17  -1  22  -1
M  END
>  <UniqueID>  (9) 
9

>  <SMILES>  (9) 
Cc1ccc(-c2nc(=N)n(Cc3ccc(S([NH-])(=O)=O)cc3)[n-]2)o1

>  <Energy>  (9) 
93.87462181245763

>  <Genealogy>  (9) 
Cc1ccc(-c2nc(=N)n(Cc3ccc(S([NH-])(=O)=O)cc3)[n-]2)o1 (protonated)
Cc1ccc(-c2nc(=N)n(Cc3ccc(S([NH-])(=O)=O)cc3)[n-]2)o1 (3D coordinates assigned)
Cc1ccc(-c2nc(=N)n(Cc3ccc(S([NH-])(=O)=O)cc3)[n-]2)o1 (optimized conformer: 93.87462181245763 kcal/mol)

>  <smiles>  (9) 
Cc1ccc(-c2nc(=N)n(Cc3ccc(S(N)(=O)=O)cc3)[nH]2)o1

>  <score_type>  (9) 
oracle

>  <origin>  (9) 
adgpu

>  <m_score__min__energy>  (9) 
-10.470000000000001

>  <m_primary>  (9) 
energy

$$$$
9:0
     RDKit          3D

 62 65  0  0  0  0  0  0  0  0999 V2000
   -1.7180   22.8440  -30.5100 O   0  0  0  0  0  0  0  0  0  0  0  0
   -2.7830   22.4130  -29.9890 C   0  0  0  0  0  0  0  0  0  0  0  0
   -2.7420   21.2750  -29.1120 N   0  0  0  0  0  0  0  0  0  0  0  0
   -1.6610   20.3280  -29.0770 C   0  0  0  0  0  0  0  0  0  0  0  0
   -1.1890   19.7970  -27.8630 C   0  0  0  0  0  0  0  0  0  0  0  0
   -0.1250   18.8920  -27.8570 C   0  0  0  0  0  0  0  0  0  0  0  0
    0.4860   18.5180  -29.0550 C   0  0  0  0  0  0  0  0  0  0  0  0
    0.0440   19.0590  -30.2690 C   0  0  0  0  0  0  0  0  0  0  0  0
    0.8060   18.5670  -31.7800 S   0  0  0  0  0  0  0  0  0  0  0  0
    1.1090   17.0960  -31.7120 O   0  0  0  0  0  0  0  0  0  0  0  0
    2.0990   19.3140  -31.9650 O   0  0  0  0  0  0  0  0  0  0  0  0
   -0.2640   18.8830  -33.1240 N   0  0  0  0  0  0  0  0  0  0  0  0
   -1.6380   18.4410  -32.7890 C   0  0  0  0  0  0  0  0  0  0  0  0
   -2.6780   19.0910  -33.7060 C   0  0  0  0  0  0  0  0  0  0  0  0
   -2.6750   20.6230  -33.5480 C   0  0  0  0  0  0  0  0  0  0  0  0
   -1.3230   21.1680  -33.0610 C   0  0  0  0  0  0  0  0  0  0  0  0
   -0.1620   20.2980  -33.5630 C   0  0  0  0  0  0  0  0  0  0  0  0
   -1.0260   19.9640  -30.2760 C   0  0  0  0  0  0  0  0  0  0  0  0
   -4.0520   23.1380  -30.2260 C   0  0  0  0  0  0  0  0  0  0  0  0
   -5.2120   22.4130  -30.5540 C   0  0  0  0  0  0  0  0  0  0  0  0
   -6.4250   23.0730  -30.7950 C   0  0  0  0  0  0  0  0  0  0  0  0
   -7.8740   22.1520  -31.2080 S   0  0  0  0  0  0  0  0  0  0  0  0
   -8.7780   22.0910  -30.0080 O   0  0  0  0  0  0  0  0  0  0  0  0
   -8.6130   22.8560  -32.3120 O   0  0  0  0  0  0  0  0  0  0  0  0
   -7.4780   20.5280  -31.7160 N   0  0  0  0  0  0  0  0  0  0  0  0
   -6.9380   20.5360  -33.0840 C   0  0  0  0  0  0  0  0  0  0  0  0
   -6.3610   19.1540  -33.4400 C   0  0  0  0  0  0  0  0  0  0  0  0
   -6.9840   18.0230  -32.6050 C   0  0  0  0  0  0  0  0  0  0  0  0
   -8.4650   18.2980  -32.3240 C   0  0  0  0  0  0  0  0  0  0  0  0
   -8.6710   19.6600  -31.6240 C   0  0  0  0  0  0  0  0  0  0  0  0
   -6.4830   24.4680  -30.7030 C   0  0  0  0  0  0  0  0  0  0  0  0
   -5.3440   25.1980  -30.3610 C   0  0  0  0  0  0  0  0  0  0  0  0
   -4.1320   24.5430  -30.1150 C   0  0  0  0  0  0  0  0  0  0  0  0
   -3.0270   25.2960  -29.7340 O   0  0  0  0  0  0  0  0  0  0  0  0
   -3.4830   21.2000  -28.3790 H   0  0  0  0  0  0  0  0  0  0  0  0
   -1.6596   20.0956  -26.9147 H   0  0  0  0  0  0  0  0  0  0  0  0
    0.2326   18.4727  -26.9050 H   0  0  0  0  0  0  0  0  0  0  0  0
    1.3165   17.7968  -29.0457 H   0  0  0  0  0  0  0  0  0  0  0  0
   -1.6983   17.3482  -32.8989 H   0  0  0  0  0  0  0  0  0  0  0  0
   -1.8544   18.7440  -31.7539 H   0  0  0  0  0  0  0  0  0  0  0  0
   -2.4449   18.8370  -34.7506 H   0  0  0  0  0  0  0  0  0  0  0  0
   -3.6732   18.7128  -33.4294 H   0  0  0  0  0  0  0  0  0  0  0  0
   -2.9069   21.0774  -34.5225 H   0  0  0  0  0  0  0  0  0  0  0  0
   -3.4287   20.8795  -32.7890 H   0  0  0  0  0  0  0  0  0  0  0  0
   -1.1924   22.1932  -33.4377 H   0  0  0  0  0  0  0  0  0  0  0  0
   -1.3177   21.1561  -31.9611 H   0  0  0  0  0  0  0  0  0  0  0  0
   -0.1547   20.3240  -34.6627 H   0  0  0  0  0  0  0  0  0  0  0  0
    0.7648   20.7086  -33.1359 H   0  0  0  0  0  0  0  0  0  0  0  0
   -1.3715   20.3929  -31.2282 H   0  0  0  0  0  0  0  0  0  0  0  0
   -5.1667   21.3160  -30.6221 H   0  0  0  0  0  0  0  0  0  0  0  0
   -7.7434   20.7856  -33.7904 H   0  0  0  0  0  0  0  0  0  0  0  0
   -6.1352   21.2854  -33.1469 H   0  0  0  0  0  0  0  0  0  0  0  0
   -6.5545   18.9544  -34.5043 H   0  0  0  0  0  0  0  0  0  0  0  0
   -5.2830   19.1756  -33.2220 H   0  0  0  0  0  0  0  0  0  0  0  0
   -6.8927   17.0761  -33.1574 H   0  0  0  0  0  0  0  0  0  0  0  0
   -6.4510   17.9626  -31.6447 H   0  0  0  0  0  0  0  0  0  0  0  0
   -9.0141   18.3005  -33.2771 H   0  0  0  0  0  0  0  0  0  0  0  0
   -8.8392   17.5089  -31.6552 H   0  0  0  0  0  0  0  0  0  0  0  0
   -9.5199   20.1753  -32.0971 H   0  0  0  0  0  0  0  0  0  0  0  0
   -8.8611   19.4637  -30.5585 H   0  0  0  0  0  0  0  0  0  0  0  0
   -7.4301   24.9912  -30.9010 H   0  0  0  0  0  0  0  0  0  0  0  0
   -5.3991   26.2939  -30.2844 H   0  0  0  0  0  0  0  0  0  0  0  0
  1  2  2  0
  2  3  1  0
  3  4  1  0
  4  5  2  0
  5  6  1  0
  6  7  2  0
  7  8  1  0
  8  9  1  0
  9 10  2  0
  9 11  2  0
  9 12  1  0
 12 13  1  0
 13 14  1  0
 14 15  1  0
 15 16  1  0
 16 17  1  0
  8 18  2  0
  2 19  1  0
 19 20  2  0
 20 21  1  0
 21 22  1  0
 22 23  2  0
 22 24  2  0
 22 25  1  0
 25 26  1  0
 26 27  1  0
 27 28  1  0
 28 29  1  0
 29 30  1  0
 21 31  2  0
 31 32  1  0
 32 33  2  0
 33 34  1  0
 18  4  1  0
 33 19  1  0
 17 12  1  0
 30 25  1  0
  3 35  1  0
  5 36  1  0
  6 37  1  0
  7 38  1  0
 13 39  1  0
 13 40  1  0
 14 41  1  0
 14 42  1  0
 15 43  1  0
 15 44  1  0
 16 45  1  0
 16 46  1  0
 17 47  1  0
 17 48  1  0
 18 49  1  0
 20 50  1  0
 26 51  1  0
 26 52  1  0
 27 53  1  0
 27 54  1  0
 28 55  1  0
 28 56  1  0
 29 57  1  0
 29 58  1  0
 30 59  1  0
 30 60  1  0
 31 61  1  0
 32 62  1  0
M  CHG  1  34  -1
M  END
>  <UniqueID>  (10) 
10

>  <SMILES>  (10) 
O=C(Nc1cccc(S(=O)(=O)N2CCCCC2)c1)c1cc(S(=O)(=O)N2CCCCC2)ccc1[O-]

>  <Energy>  (10) 
78.73289734249481

>  <Genealogy>  (10) 
O=C(Nc1cccc(S(=O)(=O)N2CCCCC2)c1)c1cc(S(=O)(=O)N2CCCCC2)ccc1[O-] (protonated)
O=C(Nc1cccc(S(=O)(=O)N2CCCCC2)c1)c1cc(S(=O)(=O)N2CCCCC2)ccc1[O-] (3D coordinates assigned)
O=C(Nc1cccc(S(=O)(=O)N2CCCCC2)c1)c1cc(S(=O)(=O)N2CCCCC2)ccc1[O-] (nonaromatic ring conformer: 78.73289734249481 kcal/mol)

>  <smiles>  (10) 
O=C(Nc1cccc(S(=O)(=O)N2CCCCC2)c1)c1cc(S(=O)(=O)N2CCCCC2)ccc1O

>  <score_type>  (10) 
oracle

>  <origin>  (10) 
adgpu

>  <m_score__min__energy>  (10) 
-14.359999999999999

>  <m_primary>  (10) 
energy

$$$$
10:0
     RDKit          3D

 35 37  0  0  0  0  0  0  0  0999 V2000
   -9.2910   19.7620  -33.4050 N   0  0  0  0  0  0  0  0  0  0  0  0
   -8.3380   19.0010  -32.1800 S   0  0  0  0  0  0  0  0  0  0  0  0
   -9.1070   17.8520  -31.5890 O   0  0  0  0  0  0  0  0  0  0  0  0
   -8.0390   19.9910  -31.0900 O   0  0  0  0  0  0  0  0  0  0  0  0
   -6.8330   18.4140  -32.8810 C   0  0  0  0  0  0  0  0  0  0  0  0
   -6.8260   17.2530  -33.6650 C   0  0  0  0  0  0  0  0  0  0  0  0
   -5.6310   16.7920  -34.2230 C   0  0  0  0  0  0  0  0  0  0  0  0
   -4.4410   17.4930  -34.0150 C   0  0  0  0  0  0  0  0  0  0  0  0
   -4.4400   18.6780  -33.2560 C   0  0  0  0  0  0  0  0  0  0  0  0
   -3.2280   19.4120  -33.0130 N   0  0  0  0  0  0  0  0  0  0  0  0
   -3.1840   20.6970  -32.3820 C   0  0  0  0  0  0  0  0  0  0  0  0
   -4.2780   21.4170  -32.0550 N   0  0  0  0  0  0  0  0  0  0  0  0
   -3.9560   22.5760  -31.4150 C   0  0  0  0  0  0  0  0  0  0  0  0
   -5.0050   23.5120  -30.9450 C   0  0  0  0  0  0  0  0  0  0  0  0
   -6.3520   23.1060  -30.9870 C   0  0  0  0  0  0  0  0  0  0  0  0
   -7.3660   23.9590  -30.5460 C   0  0  0  0  0  0  0  0  0  0  0  0
   -7.0510   25.2310  -30.0660 C   0  0  0  0  0  0  0  0  0  0  0  0
   -5.7220   25.6560  -30.0340 C   0  0  0  0  0  0  0  0  0  0  0  0
   -4.6980   24.8110  -30.4790 C   0  0  0  0  0  0  0  0  0  0  0  0
   -3.3920   25.2860  -30.4800 O   0  0  0  0  0  0  0  0  0  0  0  0
   -2.5860   22.7580  -31.2020 C   0  0  0  0  0  0  0  0  0  0  0  0
   -1.7730   21.4360  -31.8520 S   0  0  0  0  0  0  0  0  0  0  0  0
   -5.6390   19.1220  -32.6780 C   0  0  0  0  0  0  0  0  0  0  0  0
   -9.8660   19.0130  -33.8530 H   0  0  0  0  0  0  0  0  0  0  0  0
   -8.6290   20.1100  -34.1340 H   0  0  0  0  0  0  0  0  0  0  0  0
   -7.7625   16.7037  -33.8415 H   0  0  0  0  0  0  0  0  0  0  0  0
   -5.6273   15.8736  -34.8284 H   0  0  0  0  0  0  0  0  0  0  0  0
   -3.5012   17.1175  -34.4460 H   0  0  0  0  0  0  0  0  0  0  0  0
   -2.3150   18.9470  -33.2220 H   0  0  0  0  0  0  0  0  0  0  0  0
   -6.6084   22.1075  -31.3708 H   0  0  0  0  0  0  0  0  0  0  0  0
   -8.4145   23.6278  -30.5770 H   0  0  0  0  0  0  0  0  0  0  0  0
   -7.8505   25.8989  -29.7128 H   0  0  0  0  0  0  0  0  0  0  0  0
   -5.4777   26.6601  -29.6572 H   0  0  0  0  0  0  0  0  0  0  0  0
   -2.1203   23.6170  -30.6968 H   0  0  0  0  0  0  0  0  0  0  0  0
   -5.6428   20.0325  -32.0608 H   0  0  0  0  0  0  0  0  0  0  0  0
  1  2  1  0
  2  3  2  0
  2  4  2  0
  2  5  1  0
  5  6  2  0
  6  7  1  0
  7  8  2  0
  8  9  1  0
  9 10  1  0
 10 11  1  0
 11 12  2  0
 12 13  1  0
 13 14  1  0
 14 15  2  0
 15 16  1  0
 16 17  2  0
 17 18  1  0
 18 19  2  0
 19 20  1  0
 13 21  2  0
 21 22  1  0
  9 23  2  0
 23  5  1  0
 22 11  1  0
 19 14  1  0
  1 24  1  0
  1 25  1  0
  6 26  1  0
  7 27  1  0
  8 28  1  0
 10 29  1  0
 15 30  1  0
 16 31  1  0
 17 32  1  0
 18 33  1  0
 21 34  1  0
 23 35  1  0
M  CHG  1  20  -1
M  END
>  <UniqueID>  (11) 
11

>  <SMILES>  (11) 
NS(=O)(=O)c1cccc(Nc2nc(-c3ccccc3[O-])cs2)c1

>  <Energy>  (11) 
73.65220626731238

>  <Genealogy>  (11) 
NS(=O)(=O)c1cccc(Nc2nc(-c3ccccc3[O-])cs2)c1 (protonated)
NS(=O)(=O)c1cccc(Nc2nc(-c3ccccc3[O-])cs2)c1 (3D coordinates assigned)
NS(=O)(=O)c1cccc(Nc2nc(-c3ccccc3[O-])cs2)c1 (optimized conformer: 73.65220626731238 kcal/mol)

>  <smiles>  (11) 
NS(=O)(=O)c1cccc(Nc2nc(-c3ccccc3O)cs2)c1

>  <score_type>  (11) 
oracle

>  <origin>  (11) 
adgpu

>  <m_score__min__energy>  (11) 
-11.960000000000001

>  <m_primary>  (11) 
energy

$$$$
11:0
     RDKit          3D

 45 47  0  0  0  0  0  0  0  0999 V2000
   -0.5900   21.5550  -31.9360 C   0  0  0  0  0  0  0  0  0  0  0  0
   -1.8060   22.2740  -31.7770 O   0  0  0  0  0  0  0  0  0  0  0  0
   -2.3250   22.6080  -30.5230 C   0  0  0  0  0  0  0  0  0  0  0  0
   -1.6560   22.3880  -29.4760 O   0  0  0  0  0  0  0  0  0  0  0  0
   -3.6370   23.2850  -30.4370 C   0  0  0  0  0  0  0  0  0  0  0  0
   -3.6580   24.6290  -30.0260 C   0  0  0  0  0  0  0  0  0  0  0  0
   -2.4750   25.2960  -29.7200 O   0  0  0  0  0  0  0  0  0  0  0  0
   -4.8640   25.3110  -29.9010 C   0  0  0  0  0  0  0  0  0  0  0  0
   -6.0730   24.6770  -30.1800 C   0  0  0  0  0  0  0  0  0  0  0  0
   -7.2510   25.4120  -30.0240 O   0  0  0  0  0  0  0  0  0  0  0  0
   -6.0810   23.3360  -30.6090 C   0  0  0  0  0  0  0  0  0  0  0  0
   -7.6270   22.5590  -30.9740 Cl  0  0  0  0  0  0  0  0  0  0  0  0
   -4.8600   22.6260  -30.7520 C   0  0  0  0  0  0  0  0  0  0  0  0
   -4.8730   21.2240  -31.3490 C   0  0  0  0  0  0  0  0  0  0  0  0
   -4.4010   21.2120  -32.8110 C   0  0  0  0  0  0  0  0  0  0  0  0
   -3.7620   19.9070  -33.1930 C   0  0  0  0  0  0  0  0  0  0  0  0
   -2.5180   19.5670  -32.7910 N   0  0  0  0  0  0  0  0  0  0  0  0
   -2.3280   18.3340  -33.3020 C   0  0  0  0  0  0  0  0  0  0  0  0
   -3.4500   17.9420  -33.9940 C   0  0  0  0  0  0  0  0  0  0  0  0
   -4.3580   18.9300  -33.9140 N   0  0  0  0  0  0  0  0  0  0  0  0
   -5.6800   18.9340  -34.5460 C   0  0  0  0  0  0  0  0  0  0  0  0
   -6.7650   18.9540  -33.5010 C   0  0  0  0  0  0  0  0  0  0  0  0
   -6.8780   17.8980  -32.5830 C   0  0  0  0  0  0  0  0  0  0  0  0
   -7.8870   17.9100  -31.6140 C   0  0  0  0  0  0  0  0  0  0  0  0
   -8.7860   18.9780  -31.5540 C   0  0  0  0  0  0  0  0  0  0  0  0
   -8.6760   20.0370  -32.4590 C   0  0  0  0  0  0  0  0  0  0  0  0
   -7.6680   20.0280  -33.4280 C   0  0  0  0  0  0  0  0  0  0  0  0
   -0.1765   21.3105  -30.9464 H   0  0  0  0  0  0  0  0  0  0  0  0
   -0.7834   20.6260  -32.4923 H   0  0  0  0  0  0  0  0  0  0  0  0
    0.1308   22.1722  -32.4923 H   0  0  0  0  0  0  0  0  0  0  0  0
   -4.8632   26.3626  -29.5783 H   0  0  0  0  0  0  0  0  0  0  0  0
   -7.3240   26.2180  -29.4170 H   0  0  0  0  0  0  0  0  0  0  0  0
   -4.2066   20.5802  -30.7562 H   0  0  0  0  0  0  0  0  0  0  0  0
   -5.9095   20.8563  -31.3255 H   0  0  0  0  0  0  0  0  0  0  0  0
   -5.2688   21.3856  -33.4643 H   0  0  0  0  0  0  0  0  0  0  0  0
   -3.6459   22.0033  -32.9274 H   0  0  0  0  0  0  0  0  0  0  0  0
   -1.4144   17.7329  -33.1835 H   0  0  0  0  0  0  0  0  0  0  0  0
   -3.5816   16.9857  -34.5215 H   0  0  0  0  0  0  0  0  0  0  0  0
   -5.7741   19.8262  -35.1825 H   0  0  0  0  0  0  0  0  0  0  0  0
   -5.7870   18.0223  -35.1522 H   0  0  0  0  0  0  0  0  0  0  0  0
   -6.1700   17.0573  -32.6258 H   0  0  0  0  0  0  0  0  0  0  0  0
   -7.9727   17.0784  -30.8991 H   0  0  0  0  0  0  0  0  0  0  0  0
   -9.5810   18.9851  -30.7937 H   0  0  0  0  0  0  0  0  0  0  0  0
   -9.3829   20.8783  -32.4091 H   0  0  0  0  0  0  0  0  0  0  0  0
   -7.5816   20.8653  -34.1362 H   0  0  0  0  0  0  0  0  0  0  0  0
  1  2  1  0
  2  3  1  0
  3  4  2  0
  3  5  1  0
  5  6  2  0
  6  7  1  0
  6  8  1  0
  8  9  2  0
  9 10  1  0
  9 11  1  0
 11 12  1  0
 11 13  2  0
 13 14  1  0
 14 15  1  0
 15 16  1  0
 16 17  2  0
 17 18  1  0
 18 19  2  0
 19 20  1  0
 20 21  1  0
 21 22  1  0
 22 23  2  0
 23 24  1  0
 24 25  2  0
 25 26  1  0
 26 27  2  0
 13  5  1  0
 20 16  1  0
 27 22  1  0
  1 28  1  0
  1 29  1  0
  1 30  1  0
  8 31  1  0
 10 32  1  0
 14 33  1  0
 14 34  1  0
 15 35  1  0
 15 36  1  0
 18 37  1  0
 19 38  1  0
 21 39  1  0
 21 40  1  0
 23 41  1  0
 24 42  1  0
 25 43  1  0
 26 44  1  0
 27 45  1  0
M  CHG  1   7  -1
M  END
>  <UniqueID>  (12) 
12

>  <SMILES>  (12) 
COC(=O)c1c([O-])cc(O)c(Cl)c1CCc1nccn1Cc1ccccc1

>  <Energy>  (12) 
78.78040765116532

>  <Genealogy>  (12) 
COC(=O)c1c([O-])cc(O)c(Cl)c1CCc1nccn1Cc1ccccc1 (protonated)
COC(=O)c1c([O-])cc(O)c(Cl)c1CCc1nccn1Cc1ccccc1 (3D coordinates assigned)
COC(=O)c1c([O-])cc(O)c(Cl)c1CCc1nccn1Cc1ccccc1 (optimized conformer: 78.78040765116532 kcal/mol)

>  <smiles>  (12) 
COC(=O)c1c(O)cc(O)c(Cl)c1CCc1nccn1Cc1ccccc1

>  <score_type>  (12) 
oracle

>  <origin>  (12) 
adgpu

>  <m_score__min__energy>  (12) 
-10.76

>  <m_primary>  (12) 
energy

$$$$
12:0
     RDKit          3D

 56 59  0  0  0  0  0  0  0  0999 V2000
   -0.3160   20.0740  -32.1590 O   0  0  0  0  0  0  0  0  0  0  0  0
   -1.4870   19.7230  -31.8530 C   0  0  0  0  0  0  0  0  0  0  0  0
   -2.1420   20.3080  -30.7180 N   0  0  0  0  0  0  0  0  0  0  0  0
   -2.5690   21.6710  -30.5840 C   0  0  0  0  0  0  0  0  0  0  0  0
   -3.6970   22.0940  -31.3000 C   0  0  0  0  0  0  0  0  0  0  0  0
   -4.1340   23.4190  -31.2150 C   0  0  0  0  0  0  0  0  0  0  0  0
   -3.4370   24.3380  -30.4250 C   0  0  0  0  0  0  0  0  0  0  0  0
   -3.8690   25.6560  -30.3430 O   0  0  0  0  0  0  0  0  0  0  0  0
   -2.2970   23.9310  -29.7240 C   0  0  0  0  0  0  0  0  0  0  0  0
   -1.8570   22.6060  -29.8090 C   0  0  0  0  0  0  0  0  0  0  0  0
   -2.1880   18.6880  -32.6500 C   0  0  0  0  0  0  0  0  0  0  0  0
   -3.5620   18.8450  -32.9130 C   0  0  0  0  0  0  0  0  0  0  0  0
   -4.2520   17.9180  -33.7050 C   0  0  0  0  0  0  0  0  0  0  0  0
   -5.9640   18.1460  -34.0610 S   0  0  0  0  0  0  0  0  0  0  0  0
   -6.6660   16.8150  -34.0650 O   0  0  0  0  0  0  0  0  0  0  0  0
   -6.0950   18.7590  -35.4280 O   0  0  0  0  0  0  0  0  0  0  0  0
   -6.6820   19.2020  -32.8720 N   0  0  0  0  0  0  0  0  0  0  0  0
   -8.1090   18.8600  -32.6920 C   0  0  0  0  0  0  0  0  0  0  0  0
   -8.8900   19.9510  -31.9260 C   0  0  0  0  0  0  0  0  0  0  0  0
   -7.9480   20.9020  -31.1850 C   0  0  0  0  0  0  0  0  0  0  0  0
   -6.9490   21.5550  -32.1550 C   0  0  0  0  0  0  0  0  0  0  0  0
   -6.5250   20.6050  -33.2900 C   0  0  0  0  0  0  0  0  0  0  0  0
   -3.5700   16.8290  -34.2500 C   0  0  0  0  0  0  0  0  0  0  0  0
   -2.2110   16.6510  -33.9900 C   0  0  0  0  0  0  0  0  0  0  0  0
   -1.5130   17.5640  -33.1880 C   0  0  0  0  0  0  0  0  0  0  0  0
   -0.1350   17.2980  -32.8830 N   0  0  0  0  0  0  0  0  0  0  0  0
    0.2570   16.7820  -31.5720 C   0  0  0  0  0  0  0  0  0  0  0  0
    1.4000   17.6380  -31.0170 C   0  0  0  0  0  0  0  0  0  0  0  0
    2.4550   17.7400  -31.9590 O   0  0  0  0  0  0  0  0  0  0  0  0
    2.0110   18.4340  -33.1120 C   0  0  0  0  0  0  0  0  0  0  0  0
    0.9210   17.6400  -33.8370 C   0  0  0  0  0  0  0  0  0  0  0  0
   -4.2422   21.3785  -31.9331 H   0  0  0  0  0  0  0  0  0  0  0  0
   -5.0278   23.7391  -31.7706 H   0  0  0  0  0  0  0  0  0  0  0  0
   -1.7457   24.6541  -29.1049 H   0  0  0  0  0  0  0  0  0  0  0  0
   -0.9514   22.2935  -29.2684 H   0  0  0  0  0  0  0  0  0  0  0  0
   -4.1007   19.7064  -32.4913 H   0  0  0  0  0  0  0  0  0  0  0  0
   -8.5675   18.7290  -33.6833 H   0  0  0  0  0  0  0  0  0  0  0  0
   -8.1574   17.9361  -32.0969 H   0  0  0  0  0  0  0  0  0  0  0  0
   -9.4906   20.5301  -32.6429 H   0  0  0  0  0  0  0  0  0  0  0  0
   -9.5338   19.4565  -31.1837 H   0  0  0  0  0  0  0  0  0  0  0  0
   -8.5420   21.6887  -30.6968 H   0  0  0  0  0  0  0  0  0  0  0  0
   -7.3842   20.3248  -30.4373 H   0  0  0  0  0  0  0  0  0  0  0  0
   -7.4176   22.4465  -32.5973 H   0  0  0  0  0  0  0  0  0  0  0  0
   -6.0470   21.8156  -31.5818 H   0  0  0  0  0  0  0  0  0  0  0  0
   -7.1536   20.7924  -34.1731 H   0  0  0  0  0  0  0  0  0  0  0  0
   -5.4678   20.7885  -33.5321 H   0  0  0  0  0  0  0  0  0  0  0  0
   -4.1056   16.1091  -34.8863 H   0  0  0  0  0  0  0  0  0  0  0  0
   -1.6827   15.7864  -34.4183 H   0  0  0  0  0  0  0  0  0  0  0  0
   -0.6024   16.8262  -30.8868 H   0  0  0  0  0  0  0  0  0  0  0  0
    0.5897   15.7380  -31.6693 H   0  0  0  0  0  0  0  0  0  0  0  0
    1.0196   18.6451  -30.7909 H   0  0  0  0  0  0  0  0  0  0  0  0
    1.7868   17.1614  -30.1042 H   0  0  0  0  0  0  0  0  0  0  0  0
    1.6058   19.4114  -32.8111 H   0  0  0  0  0  0  0  0  0  0  0  0
    2.8636   18.5672  -33.7941 H   0  0  0  0  0  0  0  0  0  0  0  0
    0.5000   18.2496  -34.6501 H   0  0  0  0  0  0  0  0  0  0  0  0
    1.3510   16.7203  -34.2603 H   0  0  0  0  0  0  0  0  0  0  0  0
  1  2  2  0
  2  3  1  0
  3  4  1  0
  4  5  2  0
  5  6  1  0
  6  7  2  0
  7  8  1  0
  7  9  1  0
  9 10  2  0
  2 11  1  0
 11 12  2  0
 12 13  1  0
 13 14  1  0
 14 15  2  0
 14 16  2  0
 14 17  1  0
 17 18  1  0
 18 19  1  0
 19 20  1  0
 20 21  1  0
 21 22  1  0
 13 23  2  0
 23 24  1  0
 24 25  2  0
 25 26  1  0
 26 27  1  0
 27 28  1  0
 28 29  1  0
 29 30  1  0
 30 31  1  0
 10  4  1  0
 25 11  1  0
 31 26  1  0
 22 17  1  0
  5 32  1  0
  6 33  1  0
  9 34  1  0
 10 35  1  0
 12 36  1  0
 18 37  1  0
 18 38  1  0
 19 39  1  0
 19 40  1  0
 20 41  1  0
 20 42  1  0
 21 43  1  0
 21 44  1  0
 22 45  1  0
 22 46  1  0
 23 47  1  0
 24 48  1  0
 27 49  1  0
 27 50  1  0
 28 51  1  0
 28 52  1  0
 30 53  1  0
 30 54  1  0
 31 55  1  0
 31 56  1  0
M  CHG  2   3  -1   8  -1
M  END
>  <UniqueID>  (13) 
13

>  <SMILES>  (13) 
O=C([N-]c1ccc([O-])cc1)c1cc(S(=O)(=O)N2CCCCC2)ccc1N1CCOCC1

>  <Energy>  (13) 
74.55022755619694

>  <Genealogy>  (13) 
O=C([N-]c1ccc([O-])cc1)c1cc(S(=O)(=O)N2CCCCC2)ccc1N1CCOCC1 (protonated)
O=C([N-]c1ccc([O-])cc1)c1cc(S(=O)(=O)N2CCCCC2)ccc1N1CCOCC1 (3D coordinates assigned)
O=C([N-]c1ccc([O-])cc1)c1cc(S(=O)(=O)N2CCCCC2)ccc1N1CCOCC1 (nonaromatic ring conformer: 74.55022755619694 kcal/mol)

>  <smiles>  (13) 
O=C(Nc1ccc(O)cc1)c1cc(S(=O)(=O)N2CCCCC2)ccc1N1CCOCC1

>  <score_type>  (13) 
oracle

>  <origin>  (13) 
adgpu

>  <m_score__min__energy>  (13) 
-11.52

>  <m_primary>  (13) 
energy

$$$$
13:0
     RDKit          3D

 42 43  0  0  0  0  0  0  0  0999 V2000
   -8.4270   18.6790  -32.4090 C   0  0  0  0  0  0  0  0  0  0  0  0
   -7.1120   19.4110  -32.7470 C   0  0  0  0  0  0  0  0  0  0  0  0
   -6.1120   19.2840  -31.5800 C   0  0  0  0  0  0  0  0  0  0  0  0
   -6.4930   18.7330  -33.9820 C   0  0  0  0  0  0  0  0  0  0  0  0
   -7.3210   20.8290  -33.1090 N   0  0  0  0  0  0  0  0  0  0  0  0
   -7.8950   21.9060  -31.8580 S   0  0  0  0  0  0  0  0  0  0  0  0
   -8.7870   22.9330  -32.4960 O   0  0  0  0  0  0  0  0  0  0  0  0
   -8.7190   21.1440  -30.8580 O   0  0  0  0  0  0  0  0  0  0  0  0
   -6.5850   22.7640  -31.0520 C   0  0  0  0  0  0  0  0  0  0  0  0
   -5.2760   22.2640  -31.0780 C   0  0  0  0  0  0  0  0  0  0  0  0
   -4.2440   22.9630  -30.4460 C   0  0  0  0  0  0  0  0  0  0  0  0
   -4.5110   24.1650  -29.7650 C   0  0  0  0  0  0  0  0  0  0  0  0
   -3.4620   24.9160  -29.1310 N   0  0  0  0  0  0  0  0  0  0  0  0
   -3.1660   24.8510  -27.7270 C   0  0  0  0  0  0  0  0  0  0  0  0
   -4.0530   24.4640  -26.9160 O   0  0  0  0  0  0  0  0  0  0  0  0
   -1.8540   25.3020  -27.2060 C   0  0  0  0  0  0  0  0  0  0  0  0
   -1.4870   24.9830  -25.8850 C   0  0  0  0  0  0  0  0  0  0  0  0
   -0.2590   25.4030  -25.3670 C   0  0  0  0  0  0  0  0  0  0  0  0
    0.6200   26.1410  -26.1610 C   0  0  0  0  0  0  0  0  0  0  0  0
    0.2770   26.4520  -27.4790 C   0  0  0  0  0  0  0  0  0  0  0  0
   -0.9490   26.0310  -28.0080 C   0  0  0  0  0  0  0  0  0  0  0  0
   -1.2390   26.3190  -29.3380 O   0  0  0  0  0  0  0  0  0  0  0  0
   -5.8210   24.6660  -29.7560 C   0  0  0  0  0  0  0  0  0  0  0  0
   -6.8520   23.9670  -30.3860 C   0  0  0  0  0  0  0  0  0  0  0  0
   -8.5410   18.6155  -31.3168 H   0  0  0  0  0  0  0  0  0  0  0  0
   -9.2757   19.2345  -32.8346 H   0  0  0  0  0  0  0  0  0  0  0  0
   -8.4020   17.6650  -32.8346 H   0  0  0  0  0  0  0  0  0  0  0  0
   -6.6528   19.3527  -30.6246 H   0  0  0  0  0  0  0  0  0  0  0  0
   -5.5981   18.3134  -31.6415 H   0  0  0  0  0  0  0  0  0  0  0  0
   -5.3718   20.0954  -31.6415 H   0  0  0  0  0  0  0  0  0  0  0  0
   -5.7843   17.9568  -33.6575 H   0  0  0  0  0  0  0  0  0  0  0  0
   -7.2894   18.2732  -34.5856 H   0  0  0  0  0  0  0  0  0  0  0  0
   -5.9628   19.4844  -34.5856 H   0  0  0  0  0  0  0  0  0  0  0  0
   -5.0603   21.3186  -31.5974 H   0  0  0  0  0  0  0  0  0  0  0  0
   -3.2168   22.5711  -30.4811 H   0  0  0  0  0  0  0  0  0  0  0  0
   -2.9540   25.6300  -29.7030 H   0  0  0  0  0  0  0  0  0  0  0  0
   -2.1730   24.3979  -25.2549 H   0  0  0  0  0  0  0  0  0  0  0  0
    0.0153   25.1515  -24.3318 H   0  0  0  0  0  0  0  0  0  0  0  0
    1.5828   26.4777  -25.7491 H   0  0  0  0  0  0  0  0  0  0  0  0
    0.9733   27.0303  -28.1041 H   0  0  0  0  0  0  0  0  0  0  0  0
   -6.0377   25.6175  -29.2484 H   0  0  0  0  0  0  0  0  0  0  0  0
   -7.8781   24.3624  -30.3593 H   0  0  0  0  0  0  0  0  0  0  0  0
  1  2  1  0
  2  3  1  0
  2  4  1  0
  2  5  1  0
  5  6  1  0
  6  7  2  0
  6  8  2  0
  6  9  1  0
  9 10  2  0
 10 11  1  0
 11 12  2  0
 12 13  1  0
 13 14  1  0
 14 15  2  0
 14 16  1  0
 16 17  2  0
 17 18  1  0
 18 19  2  0
 19 20  1  0
 20 21  2  0
 21 22  1  0
 12 23  1  0
 23 24  2  0
 24  9  1  0
 21 16  1  0
  1 25  1  0
  1 26  1  0
  1 27  1  0
  3 28  1  0
  3 29  1  0
  3 30  1  0
  4 31  1  0
  4 32  1  0
  4 33  1  0
 10 34  1  0
 11 35  1  0
 13 36  1  0
 17 37  1  0
 18 38  1  0
 19 39  1  0
 20 40  1  0
 23 41  1  0
 24 42  1  0
M  CHG  2   5  -1  22  -1
M  END
>  <UniqueID>  (14) 
14

>  <SMILES>  (14) 
CC(C)(C)[N-]S(=O)(=O)c1ccc(NC(=O)c2ccccc2[O-])cc1

>  <Energy>  (14) 
50.649451905236916

>  <Genealogy>  (14) 
CC(C)(C)[N-]S(=O)(=O)c1ccc(NC(=O)c2ccccc2[O-])cc1 (protonated)
CC(C)(C)[N-]S(=O)(=O)c1ccc(NC(=O)c2ccccc2[O-])cc1 (3D coordinates assigned)
CC(C)(C)[N-]S(=O)(=O)c1ccc(NC(=O)c2ccccc2[O-])cc1 (optimized conformer: 50.649451905236916 kcal/mol)

>  <smiles>  (14) 
CC(C)(C)NS(=O)(=O)c1ccc(NC(=O)c2ccccc2O)cc1

>  <score_type>  (14) 
oracle

>  <origin>  (14) 
adgpu

>  <m_score__min__energy>  (14) 
-10.890000000000001

>  <m_primary>  (14) 
energy

$$$$
14:0
     RDKit          3D

 36 38  0  0  0  0  0  0  0  0999 V2000
   -3.8110   20.2160  -30.9430 C   0  0  0  0  0  0  0  0  0  0  0  0
   -3.5540   21.2770  -31.9310 N   0  0  0  0  0  0  0  0  0  0  0  0
   -3.4560   22.6110  -31.3100 C   0  0  0  0  0  0  0  0  0  0  0  0
   -4.8050   23.2150  -30.9960 C   0  0  0  0  0  0  0  0  0  0  0  0
   -4.8820   24.2590  -30.0590 C   0  0  0  0  0  0  0  0  0  0  0  0
   -6.0980   24.9100  -29.8160 C   0  0  0  0  0  0  0  0  0  0  0  0
   -6.1690   25.9660  -28.8540 N   0  0  0  0  0  0  0  0  0  0  0  0
   -7.2410   24.5290  -30.5270 C   0  0  0  0  0  0  0  0  0  0  0  0
   -7.1720   23.5040  -31.4720 C   0  0  0  0  0  0  0  0  0  0  0  0
   -5.9590   22.8330  -31.7110 C   0  0  0  0  0  0  0  0  0  0  0  0
   -5.9280   21.6950  -32.7130 C   0  0  2  0  0  0  0  0  0  0  0  0
   -6.7870   20.4980  -32.3110 C   0  0  0  0  0  0  0  0  0  0  0  0
   -8.0130   20.6330  -31.6230 C   0  0  0  0  0  0  0  0  0  0  0  0
   -8.7550   19.5030  -31.2660 C   0  0  0  0  0  0  0  0  0  0  0  0
   -8.2880   18.2260  -31.5870 C   0  0  0  0  0  0  0  0  0  0  0  0
   -7.0800   18.0770  -32.2680 C   0  0  0  0  0  0  0  0  0  0  0  0
   -6.3330   19.2040  -32.6280 C   0  0  0  0  0  0  0  0  0  0  0  0
   -4.4840   21.2660  -33.0760 C   0  0  0  0  0  0  0  0  0  0  0  0
   -3.7112   20.6281  -29.9280 H   0  0  0  0  0  0  0  0  0  0  0  0
   -4.8298   19.8250  -31.0814 H   0  0  0  0  0  0  0  0  0  0  0  0
   -3.0840   19.4022  -31.0814 H   0  0  0  0  0  0  0  0  0  0  0  0
   -2.8854   22.5211  -30.3739 H   0  0  0  0  0  0  0  0  0  0  0  0
   -2.9575   23.2748  -32.0317 H   0  0  0  0  0  0  0  0  0  0  0  0
   -3.9793   24.5678  -29.5114 H   0  0  0  0  0  0  0  0  0  0  0  0
   -6.8540   26.7470  -28.9660 H   0  0  0  0  0  0  0  0  0  0  0  0
   -5.5360   25.9760  -28.0230 H   0  0  0  0  0  0  0  0  0  0  0  0
   -8.1976   25.0390  -30.3407 H   0  0  0  0  0  0  0  0  0  0  0  0
   -8.0734   23.2187  -32.0343 H   0  0  0  0  0  0  0  0  0  0  0  0
   -6.3889   22.1048  -33.6238 H   0  0  0  0  0  0  0  0  0  0  0  0
   -8.3871   21.6350  -31.3660 H   0  0  0  0  0  0  0  0  0  0  0  0
   -9.7090   19.6197  -30.7310 H   0  0  0  0  0  0  0  0  0  0  0  0
   -8.8727   17.3386  -31.3028 H   0  0  0  0  0  0  0  0  0  0  0  0
   -6.7138   17.0715  -32.5226 H   0  0  0  0  0  0  0  0  0  0  0  0
   -5.3810   19.0774  -33.1643 H   0  0  0  0  0  0  0  0  0  0  0  0
   -4.5179   20.2456  -33.4854 H   0  0  0  0  0  0  0  0  0  0  0  0
   -4.1053   21.9991  -33.8034 H   0  0  0  0  0  0  0  0  0  0  0  0
  1  2  1  0
  2  3  1  0
  3  4  1  0
  4  5  2  0
  5  6  1  0
  6  7  1  0
  6  8  2  0
  8  9  1  0
  9 10  2  0
 10 11  1  0
 11 12  1  0
 12 13  2  0
 13 14  1  0
 14 15  2  0
 15 16  1  0
 16 17  2  0
 11 18  1  0
 18  2  1  0
 10  4  1  0
 17 12  1  0
  1 19  1  0
  1 20  1  0
  1 21  1  0
  3 22  1  0
  3 23  1  0
  5 24  1  0
  7 25  1  0
  7 26  1  0
  8 27  1  0
  9 28  1  0
 11 29  1  6
 13 30  1  0
 14 31  1  0
 15 32  1  0
 16 33  1  0
 17 34  1  0
 18 35  1  0
 18 36  1  0
M  END
>  <UniqueID>  (15) 
15

>  <SMILES>  (15) 
CN1Cc2cc(N)ccc2[C@H](c2ccccc2)C1

>  <Energy>  (15) 
47.151149736487326

>  <Genealogy>  (15) 
CN1Cc2cc(N)ccc2[C@H](c2ccccc2)C1 (chirality)
CN1Cc2cc(N)ccc2[C@H](c2ccccc2)C1 (3D coordinates assigned)
CN1Cc2cc(N)ccc2[C@H](c2ccccc2)C1 (nonaromatic ring conformer: 47.151149736487326 kcal/mol)

>  <smiles>  (15) 
CN1Cc2cc(N)ccc2C(c2ccccc2)C1

>  <score_type>  (15) 
oracle

>  <origin>  (15) 
adgpu

>  <m_score__min__energy>  (15) 
-7.5899999999999999

>  <m_primary>  (15) 
energy

$$$$
15:0
     RDKit          3D

 53 55  0  0  0  0  0  0  0  0999 V2000
   -1.3335   29.6724  -26.5304 H   0  0  0  0  0  0  0  0  0  0  0  0
   -0.4810   29.0030  -26.3430 C   0  0  0  0  0  0  0  0  0  0  0  0
    0.4286   29.0860  -26.9560 H   0  0  0  0  0  0  0  0  0  0  0  0
   -0.5500   28.0930  -25.3750 C   0  0  0  0  0  0  0  0  0  0  0  0
   -1.4624   28.0150  -24.7655 H   0  0  0  0  0  0  0  0  0  0  0  0
    0.5860   27.1860  -25.1100 C   0  0  0  0  0  0  0  0  0  0  0  0
    1.3792   27.5503  -24.4407 H   0  0  0  0  0  0  0  0  0  0  0  0
    0.7270   25.9530  -25.6210 C   0  0  0  0  0  0  0  0  0  0  0  0
    1.5635   25.3490  -25.2396 H   0  0  0  0  0  0  0  0  0  0  0  0
   -0.1350   25.3290  -26.6480 C   0  0  0  0  0  0  0  0  0  0  0  0
    0.2290   25.2760  -27.8550 O   0  0  0  0  0  0  0  0  0  0  0  0
   -1.3880   24.7520  -26.2480 N   0  0  0  0  0  0  0  0  0  0  0  0
   -1.7840   25.0390  -25.3250 H   0  0  0  0  0  0  0  0  0  0  0  0
   -2.1880   23.9080  -27.0930 C   0  0  0  0  0  0  0  0  0  0  0  0
   -2.0390   22.5150  -27.0130 C   0  0  0  0  0  0  0  0  0  0  0  0
   -1.3275   22.0811  -26.2950 H   0  0  0  0  0  0  0  0  0  0  0  0
   -2.7900   21.6760  -27.8410 C   0  0  0  0  0  0  0  0  0  0  0  0
   -2.6735   20.5847  -27.7671 H   0  0  0  0  0  0  0  0  0  0  0  0
   -3.6880   22.2200  -28.7620 C   0  0  0  0  0  0  0  0  0  0  0  0
   -4.2820   21.5560  -29.4072 H   0  0  0  0  0  0  0  0  0  0  0  0
   -3.8340   23.6090  -28.8660 C   0  0  0  0  0  0  0  0  0  0  0  0
   -4.9330   24.2810  -30.0650 S   0  0  0  0  0  0  0  0  0  0  0  0
   -6.1230   24.8730  -29.3610 O   0  0  0  0  0  0  0  0  0  0  0  0
   -4.2580   25.3700  -30.8510 O   0  0  0  0  0  0  0  0  0  0  0  0
   -5.4350   23.0010  -31.1640 C   0  0  0  0  0  0  0  0  0  0  0  0
   -6.7930   22.7110  -31.3520 C   0  0  0  0  0  0  0  0  0  0  0  0
   -7.5580   23.2943  -30.8186 H   0  0  0  0  0  0  0  0  0  0  0  0
   -7.1770   21.6820  -32.2160 C   0  0  0  0  0  0  0  0  0  0  0  0
   -8.2442   21.4536  -32.3538 H   0  0  0  0  0  0  0  0  0  0  0  0
   -6.2080   20.9370  -32.9100 C   0  0  0  0  0  0  0  0  0  0  0  0
   -6.5800   19.8520  -33.7760 N   0  0  0  0  0  0  0  0  0  0  0  0
   -7.4200   19.9740  -34.3850 H   0  0  0  0  0  0  0  0  0  0  0  0
   -5.8490   18.6220  -33.8780 C   0  0  0  0  0  0  0  0  0  0  0  0
   -5.7370   17.9030  -35.3500 S   0  0  0  0  0  0  0  0  0  0  0  0
   -5.2190   18.0530  -32.7130 N   0  0  0  0  0  0  0  0  0  0  0  0
   -5.1990   18.6150  -31.8340 H   0  0  0  0  0  0  0  0  0  0  0  0
   -4.5480   16.7830  -32.6800 C   0  0  0  0  0  0  0  0  0  0  0  0
   -5.1510   15.6580  -32.0900 C   0  0  0  0  0  0  0  0  0  0  0  0
   -6.1663   15.7350  -31.6737 H   0  0  0  0  0  0  0  0  0  0  0  0
   -4.4640   14.4420  -32.0310 C   0  0  0  0  0  0  0  0  0  0  0  0
   -4.9449   13.5608  -31.5812 H   0  0  0  0  0  0  0  0  0  0  0  0
   -3.1660   14.3440  -32.5430 C   0  0  0  0  0  0  0  0  0  0  0  0
   -2.6301   13.3842  -32.5034 H   0  0  0  0  0  0  0  0  0  0  0  0
   -2.5500   15.4660  -33.1050 C   0  0  0  0  0  0  0  0  0  0  0  0
   -0.9130   15.3490  -33.7300 Cl  0  0  0  0  0  0  0  0  0  0  0  0
   -3.2370   16.6840  -33.1650 C   0  0  0  0  0  0  0  0  0  0  0  0
   -2.7449   17.5687  -33.5954 H   0  0  0  0  0  0  0  0  0  0  0  0
   -4.8510   21.2130  -32.6940 C   0  0  0  0  0  0  0  0  0  0  0  0
   -4.0836   20.6138  -33.2059 H   0  0  0  0  0  0  0  0  0  0  0  0
   -4.4660   22.2440  -31.8330 C   0  0  0  0  0  0  0  0  0  0  0  0
   -3.3985   22.4614  -31.6805 H   0  0  0  0  0  0  0  0  0  0  0  0
   -3.0740   24.4510  -28.0410 C   0  0  0  0  0  0  0  0  0  0  0  0
   -3.1714   25.5426  -28.1359 H   0  0  0  0  0  0  0  0  0  0  0  0
  1  2  1  0
  2  3  1  0
  2  4  2  0
  4  5  1  0
  4  6  1  0
  6  7  1  0
  6  8  2  0
  8  9  1  0
  8 10  1  0
 10 11  2  0
 10 12  1  0
 12 13  1  0
 12 14  1  0
 14 15  2  0
 15 16  1  0
 15 17  1  0
 17 18  1  0
 17 19  2  0
 19 20  1  0
 19 21  1  0
 21 22  1  0
 22 23  2  0
 22 24  2  0
 22 25  1  0
 25 26  2  0
 26 27  1  0
 26 28  1  0
 28 29  1  0
 28 30  2  0
 30 31  1  0
 31 32  1  0
 31 33  1  0
 33 34  2  0
 33 35  1  0
 35 36  1  0
 35 37  1  0
 37 38  2  0
 38 39  1  0
 38 40  1  0
 40 41  1  0
 40 42  2  0
 42 43  1  0
 42 44  1  0
 44 45  1  0
 44 46  2  0
 46 47  1  0
 30 48  1  0
 48 49  1  0
 48 50  2  0
 50 51  1  0
 21 52  2  0
 52 53  1  0
 52 14  1  0
 50 25  1  0
 46 37  1  0
M  END
>  <UniqueID>  (16) 
16

>  <SMILES>  (16) 
C=C/C=C\C(=O)Nc1cccc(S(=O)(=O)c2ccc(NC(=S)Nc3cccc(Cl)c3)cc2)c1

>  <Energy>  (16) 
72.3988557093183

>  <Genealogy>  (16) 
C=C/C=C\C(=O)Nc1cccc(S(=O)(=O)c2ccc(NC(=S)Nc3cccc(Cl)c3)cc2)c1 (cis-trans isomerization)
C=C/C=C\C(=O)Nc1cccc(S(=O)(=O)c2ccc(NC(=S)Nc3cccc(Cl)c3)cc2)c1 (3D coordinates assigned)
C=C/C=C\C(=O)Nc1cccc(S(=O)(=O)c2ccc(NC(=S)Nc3cccc(Cl)c3)cc2)c1 (optimized conformer: 72.3988557093183 kcal/mol)

>  <smiles>  (16) 
C=CC=CC(=O)Nc1cccc(S(=O)(=O)c2ccc(NC(=S)Nc3cccc(Cl)c3)cc2)c1

>  <score_type>  (16) 
oracle

>  <origin>  (16) 
adgpu

>  <m_score__min__energy>  (16) 
-10.15

>  <m_primary>  (16) 
energy

$$$$
16:0
     RDKit          3D

 61 63  0  0  0  0  0  0  0  0999 V2000
   -1.6450   21.1900  -26.6710 C   0  0  0  0  0  0  0  0  0  0  0  0
   -2.1400   22.3180  -27.5330 C   0  0  0  0  0  0  0  0  0  0  0  0
   -3.4360   22.2180  -28.0720 C   0  0  0  0  0  0  0  0  0  0  0  0
   -3.9280   23.1980  -28.9320 C   0  0  0  0  0  0  0  0  0  0  0  0
   -3.1390   24.2940  -29.2780 C   0  0  0  0  0  0  0  0  0  0  0  0
   -3.6800   25.2960  -30.1520 N   0  0  0  0  0  0  0  0  0  0  0  0
   -5.0630   25.4600  -30.5000 C   0  0  0  0  0  0  0  0  0  0  0  0
   -5.8140   26.1050  -29.7230 O   0  0  0  0  0  0  0  0  0  0  0  0
   -5.6240   24.8780  -31.6870 N   0  0  0  0  0  0  0  0  0  0  0  0
   -5.7490   23.4730  -31.9440 C   0  0  0  0  0  0  0  0  0  0  0  0
   -7.0280   22.9480  -32.1160 C   0  0  0  0  0  0  0  0  0  0  0  0
   -7.2000   21.6200  -32.4880 C   0  0  0  0  0  0  0  0  0  0  0  0
   -6.0960   20.7760  -32.6710 C   0  0  0  0  0  0  0  0  0  0  0  0
   -6.3550   19.3670  -33.1310 C   0  0  0  0  0  0  0  0  0  0  0  0
   -4.7940   21.2630  -32.3840 C   0  0  0  0  0  0  0  0  0  0  0  0
   -3.3470   20.2250  -32.4250 S   0  0  0  0  0  0  0  0  0  0  0  0
   -3.6330   18.8800  -33.0300 O   0  0  0  0  0  0  0  0  0  0  0  0
   -2.8820   19.9910  -31.0140 O   0  0  0  0  0  0  0  0  0  0  0  0
   -2.0380   21.0340  -33.3470 C   0  0  0  0  0  0  0  0  0  0  0  0
   -1.6390   20.2180  -34.5870 C   0  0  0  0  0  0  0  0  0  0  0  0
   -0.3860   20.8100  -35.2760 C   0  0  0  0  0  0  0  0  0  0  0  0
    0.1550   21.9200  -34.5820 O   0  0  0  0  0  0  0  0  0  0  0  0
    0.4600   21.5460  -33.2520 C   0  0  0  0  0  0  0  0  0  0  0  0
   -0.8200   21.2810  -32.4380 C   0  0  0  0  0  0  0  0  0  0  0  0
   -4.6260   22.6210  -32.0320 C   0  0  0  0  0  0  0  0  0  0  0  0
   -3.3420   23.0930  -31.7490 O   0  0  0  0  0  0  0  0  0  0  0  0
   -1.8620   24.4290  -28.7110 C   0  0  0  0  0  0  0  0  0  0  0  0
   -1.3460   23.4590  -27.8330 C   0  0  0  0  0  0  0  0  0  0  0  0
    0.3150   23.7060  -27.2140 S   0  0  0  0  0  0  0  0  0  0  0  0
    1.1030   22.4260  -27.2170 O   0  0  0  0  0  0  0  0  0  0  0  0
    1.0100   24.6720  -28.1360 O   0  0  0  0  0  0  0  0  0  0  0  0
    0.3580   24.3100  -25.5640 N   0  0  0  0  0  0  0  0  0  0  0  0
    0.2310   23.2190  -24.5890 C   0  0  0  0  0  0  0  0  0  0  0  0
   -0.6580   25.3500  -25.3380 C   0  0  0  0  0  0  0  0  0  0  0  0
   -1.7632   21.4594  -25.6111 H   0  0  0  0  0  0  0  0  0  0  0  0
   -2.2273   20.2818  -26.8856 H   0  0  0  0  0  0  0  0  0  0  0  0
   -0.5824   21.0036  -26.8856 H   0  0  0  0  0  0  0  0  0  0  0  0
   -4.0681   21.3563  -27.8115 H   0  0  0  0  0  0  0  0  0  0  0  0
   -4.9453   23.1062  -29.3404 H   0  0  0  0  0  0  0  0  0  0  0  0
   -7.9076   23.5889  -31.9563 H   0  0  0  0  0  0  0  0  0  0  0  0
   -8.2157   21.2262  -32.6408 H   0  0  0  0  0  0  0  0  0  0  0  0
   -6.4754   18.7118  -32.2557 H   0  0  0  0  0  0  0  0  0  0  0  0
   -7.2728   19.3419  -33.7368 H   0  0  0  0  0  0  0  0  0  0  0  0
   -5.5061   19.0172  -33.7368 H   0  0  0  0  0  0  0  0  0  0  0  0
   -2.4173   22.0048  -33.6987 H   0  0  0  0  0  0  0  0  0  0  0  0
   -1.4233   19.1839  -34.2802 H   0  0  0  0  0  0  0  0  0  0  0  0
   -2.4734   20.2479  -35.3032 H   0  0  0  0  0  0  0  0  0  0  0  0
    0.3834   20.0262  -35.3376 H   0  0  0  0  0  0  0  0  0  0  0  0
   -0.6937   21.1626  -36.2715 H   0  0  0  0  0  0  0  0  0  0  0  0
    1.0703   20.6310  -33.2680 H   0  0  0  0  0  0  0  0  0  0  0  0
    1.0093   22.3718  -32.7763 H   0  0  0  0  0  0  0  0  0  0  0  0
   -0.6624   20.3945  -31.8061 H   0  0  0  0  0  0  0  0  0  0  0  0
   -1.0259   22.1722  -31.8270 H   0  0  0  0  0  0  0  0  0  0  0  0
   -3.1290   24.0680  -31.5890 H   0  0  0  0  0  0  0  0  0  0  0  0
   -1.2528   25.3109  -28.9583 H   0  0  0  0  0  0  0  0  0  0  0  0
    0.2789   23.6305  -23.5700 H   0  0  0  0  0  0  0  0  0  0  0  0
   -0.7326   22.7085  -24.7334 H   0  0  0  0  0  0  0  0  0  0  0  0
    1.0516   22.5008  -24.7334 H   0  0  0  0  0  0  0  0  0  0  0  0
   -0.7999   25.4952  -24.2569 H   0  0  0  0  0  0  0  0  0  0  0  0
   -0.3244   26.2938  -25.7941 H   0  0  0  0  0  0  0  0  0  0  0  0
   -1.6093   25.0385  -25.7941 H   0  0  0  0  0  0  0  0  0  0  0  0
  1  2  1  0
  2  3  2  0
  3  4  1  0
  4  5  2  0
  5  6  1  0
  6  7  1  0
  7  8  2  0
  7  9  1  0
  9 10  1  0
 10 11  2  0
 11 12  1  0
 12 13  2  0
 13 14  1  0
 13 15  1  0
 15 16  1  0
 16 17  2  0
 16 18  2  0
 16 19  1  0
 19 20  1  0
 20 21  1  0
 21 22  1  0
 22 23  1  0
 23 24  1  0
 15 25  2  0
 25 26  1  0
  5 27  1  0
 27 28  2  0
 28 29  1  0
 29 30  2  0
 29 31  2  0
 29 32  1  0
 32 33  1  0
 32 34  1  0
 28  2  1  0
 25 10  1  0
 24 19  1  0
  1 35  1  0
  1 36  1  0
  1 37  1  0
  3 38  1  0
  4 39  1  0
 11 40  1  0
 12 41  1  0
 14 42  1  0
 14 43  1  0
 14 44  1  0
 19 45  1  0
 20 46  1  0
 20 47  1  0
 21 48  1  0
 21 49  1  0
 23 50  1  0
 23 51  1  0
 24 52  1  0
 24 53  1  0
 26 54  1  0
 27 55  1  0
 33 56  1  0
 33 57  1  0
 33 58  1  0
 34 59  1  0
 34 60  1  0
 34 61  1  0
M  CHG  2   6  -1   9  -1
M  END
>  <UniqueID>  (17) 
17

>  <SMILES>  (17) 
Cc1ccc([N-]C(=O)[N-]c2ccc(C)c(S(=O)(=O)C3CCOCC3)c2O)cc1S(=O)(=O)N(C)C

>  <Energy>  (17) 
80.18406369172766

>  <Genealogy>  (17) 
Cc1ccc([N-]C(=O)[N-]c2ccc(C)c(S(=O)(=O)C3CCOCC3)c2O)cc1S(=O)(=O)N(C)C (protonated)
Cc1ccc([N-]C(=O)[N-]c2ccc(C)c(S(=O)(=O)C3CCOCC3)c2O)cc1S(=O)(=O)N(C)C (3D coordinates assigned)
Cc1ccc([N-]C(=O)[N-]c2ccc(C)c(S(=O)(=O)C3CCOCC3)c2O)cc1S(=O)(=O)N(C)C (nonaromatic ring conformer: 80.18406369172766 kcal/mol)

>  <smiles>  (17) 
Cc1ccc(NC(=O)Nc2ccc(C)c(S(=O)(=O)C3CCOCC3)c2O)cc1S(=O)(=O)N(C)C

>  <score_type>  (17) 
oracle

>  <origin>  (17) 
adgpu

>  <m_score__min__energy>  (17) 
-14.119999999999999

>  <m_primary>  (17) 
energy

$$$$
17:0
     RDKit          3D

 45 46  0  0  0  0  0  0  0  0999 V2000
   -8.8820   23.4130  -32.3130 C   0  0  0  0  0  0  0  0  0  0  0  0
   -7.3970   23.3680  -32.6470 C   0  0  0  0  0  0  0  0  0  0  0  0
   -6.7110   22.3500  -31.8430 N   0  0  0  0  0  0  0  0  0  0  0  0
   -7.4540   21.2190  -31.2700 C   0  0  0  0  0  0  0  0  0  0  0  0
   -7.2140   19.9680  -32.0720 C   0  0  0  0  0  0  0  0  0  0  0  0
   -6.5840   20.0410  -33.3230 C   0  0  0  0  0  0  0  0  0  0  0  0
   -6.2950   18.8760  -34.0390 C   0  0  0  0  0  0  0  0  0  0  0  0
   -6.6260   17.6160  -33.5120 C   0  0  0  0  0  0  0  0  0  0  0  0
   -6.3110   16.3840  -34.2670 C   0  0  0  0  0  0  0  0  0  0  0  0
   -7.2110   15.5360  -34.5130 O   0  0  0  0  0  0  0  0  0  0  0  0
   -5.0150   16.1420  -34.7150 O   0  0  0  0  0  0  0  0  0  0  0  0
   -7.2530   17.5470  -32.2540 C   0  0  0  0  0  0  0  0  0  0  0  0
   -7.5400   18.7120  -31.5380 C   0  0  0  0  0  0  0  0  0  0  0  0
   -5.3210   22.5290  -31.5120 C   0  0  0  0  0  0  0  0  0  0  0  0
   -4.4140   21.5160  -31.8430 C   0  0  0  0  0  0  0  0  0  0  0  0
   -3.0700   21.6330  -31.5020 C   0  0  0  0  0  0  0  0  0  0  0  0
   -2.6180   22.7550  -30.8100 C   0  0  0  0  0  0  0  0  0  0  0  0
   -3.5100   23.7820  -30.4550 C   0  0  0  0  0  0  0  0  0  0  0  0
   -3.0670   24.9290  -29.7090 N   0  0  0  0  0  0  0  0  0  0  0  0
   -1.6530   25.0230  -28.7100 S   0  0  0  0  0  0  0  0  0  0  0  0
   -2.0050   24.3730  -27.0900 C   0  0  0  0  0  0  0  0  0  0  0  0
   -0.5660   24.1940  -29.3360 O   0  0  0  0  0  0  0  0  0  0  0  0
   -1.1790   26.4460  -28.6130 O   0  0  0  0  0  0  0  0  0  0  0  0
   -4.8710   23.6820  -30.8270 C   0  0  0  0  0  0  0  0  0  0  0  0
   -5.8390   24.7690  -30.4290 C   0  0  0  0  0  0  0  0  0  0  0  0
   -9.0122   23.4169  -31.2207 H   0  0  0  0  0  0  0  0  0  0  0  0
   -9.3261   24.3250  -32.7385 H   0  0  0  0  0  0  0  0  0  0  0  0
   -9.3805   22.5295  -32.7385 H   0  0  0  0  0  0  0  0  0  0  0  0
   -7.2747   23.1276  -33.7134 H   0  0  0  0  0  0  0  0  0  0  0  0
   -6.9558   24.3502  -32.4220 H   0  0  0  0  0  0  0  0  0  0  0  0
   -7.1206   21.0545  -30.2347 H   0  0  0  0  0  0  0  0  0  0  0  0
   -8.5286   21.4532  -31.2905 H   0  0  0  0  0  0  0  0  0  0  0  0
   -6.3156   21.0215  -33.7433 H   0  0  0  0  0  0  0  0  0  0  0  0
   -5.8052   18.9458  -35.0215 H   0  0  0  0  0  0  0  0  0  0  0  0
   -7.5195   16.5673  -31.8307 H   0  0  0  0  0  0  0  0  0  0  0  0
   -8.0232   18.6443  -30.5522 H   0  0  0  0  0  0  0  0  0  0  0  0
   -4.7660   20.6208  -32.3766 H   0  0  0  0  0  0  0  0  0  0  0  0
   -2.3625   20.8377  -31.7794 H   0  0  0  0  0  0  0  0  0  0  0  0
   -1.5550   22.8377  -30.5394 H   0  0  0  0  0  0  0  0  0  0  0  0
   -1.6282   25.0688  -26.3259 H   0  0  0  0  0  0  0  0  0  0  0  0
   -3.0919   24.2520  -26.9717 H   0  0  0  0  0  0  0  0  0  0  0  0
   -1.5124   23.3966  -26.9717 H   0  0  0  0  0  0  0  0  0  0  0  0
   -5.8923   24.8288  -29.3319 H   0  0  0  0  0  0  0  0  0  0  0  0
   -5.4944   25.7326  -30.8325 H   0  0  0  0  0  0  0  0  0  0  0  0
   -6.8359   24.5380  -30.8325 H   0  0  0  0  0  0  0  0  0  0  0  0
  1  2  1  0
  2  3  1  0
  3  4  1  0
  4  5  1  0
  5  6  2  0
  6  7  1  0
  7  8  2  0
  8  9  1  0
  9 10  2  0
  9 11  1  0
  8 12  1  0
 12 13  2  0
  3 14  1  0
 14 15  2  0
 15 16  1  0
 16 17  2  0
 17 18  1  0
 18 19  1  0
 19 20  1  0
 20 21  1  0
 20 22  2  0
 20 23  2  0
 18 24  2  0
 24 25  1  0
 13  5  1  0
 24 14  1  0
  1 26  1  0
  1 27  1  0
  1 28  1  0
  2 29  1  0
  2 30  1  0
  4 31  1  0
  4 32  1  0
  6 33  1  0
  7 34  1  0
 12 35  1  0
 13 36  1  0
 15 37  1  0
 16 38  1  0
 17 39  1  0
 21 40  1  0
 21 41  1  0
 21 42  1  0
 25 43  1  0
 25 44  1  0
 25 45  1  0
M  CHG  2  11  -1  19  -1
M  END
>  <UniqueID>  (18) 
18

>  <SMILES>  (18) 
CCN(Cc1ccc(C(=O)[O-])cc1)c1cccc([N-]S(C)(=O)=O)c1C

>  <Energy>  (18) 
45.799431387231124

>  <Genealogy>  (18) 
CCN(Cc1ccc(C(=O)[O-])cc1)c1cccc([N-]S(C)(=O)=O)c1C (protonated)
CCN(Cc1ccc(C(=O)[O-])cc1)c1cccc([N-]S(C)(=O)=O)c1C (3D coordinates assigned)
CCN(Cc1ccc(C(=O)[O-])cc1)c1cccc([N-]S(C)(=O)=O)c1C (optimized conformer: 45.799431387231124 kcal/mol)

>  <smiles>  (18) 
CCN(Cc1ccc(C(=O)O)cc1)c1cccc(NS(C)(=O)=O)c1C

>  <score_type>  (18) 
oracle

>  <origin>  (18) 
adgpu

>  <m_score__min__energy>  (18) 
-10.140000000000001

>  <m_primary>  (18) 
energy

$$$$
18:0
     RDKit          3D

 47 49  0  0  0  0  0  0  0  0999 V2000
   -2.0360   25.3000  -29.1150 O   0  0  0  0  0  0  0  0  0  0  0  0
   -2.7760   24.4450  -29.6710 C   0  0  0  0  0  0  0  0  0  0  0  0
   -3.8470   24.9040  -30.5040 N   0  0  0  0  0  0  0  0  0  0  0  0
   -5.2640   24.8100  -30.1670 C   0  0  0  0  0  0  0  0  0  0  0  0
   -6.0330   24.1700  -31.3230 C   0  0  0  0  0  0  0  0  0  0  0  0
   -5.4610   22.8200  -31.6720 C   0  0  0  0  0  0  0  0  0  0  0  0
   -4.5430   22.6880  -32.7280 C   0  0  0  0  0  0  0  0  0  0  0  0
   -3.9760   21.4440  -33.0160 C   0  0  0  0  0  0  0  0  0  0  0  0
   -4.3210   20.3180  -32.2550 C   0  0  0  0  0  0  0  0  0  0  0  0
   -3.7560   19.0760  -32.5270 O   0  0  0  0  0  0  0  0  0  0  0  0
   -5.2370   20.4460  -31.2060 C   0  0  0  0  0  0  0  0  0  0  0  0
   -5.7970   21.6910  -30.9080 C   0  0  0  0  0  0  0  0  0  0  0  0
   -2.4820   23.0060  -29.4900 C   0  0  0  0  0  0  0  0  0  0  0  0
   -2.7660   22.3800  -28.2650 C   0  0  0  0  0  0  0  0  0  0  0  0
   -2.4480   21.0340  -28.0710 C   0  0  0  0  0  0  0  0  0  0  0  0
   -1.8280   20.3060  -29.0870 C   0  0  0  0  0  0  0  0  0  0  0  0
   -1.5160   20.9210  -30.3050 C   0  0  0  0  0  0  0  0  0  0  0  0
   -0.7100   20.0080  -31.5820 S   0  0  0  0  0  0  0  0  0  0  0  0
    0.7660   20.2920  -31.5340 O   0  0  0  0  0  0  0  0  0  0  0  0
   -0.9040   18.5370  -31.3370 O   0  0  0  0  0  0  0  0  0  0  0  0
   -1.3210   20.4200  -33.1690 N   0  0  0  0  0  0  0  0  0  0  0  0
   -0.6030   21.5620  -33.7400 C   0  0  0  0  0  0  0  0  0  0  0  0
    0.4490   21.0320  -34.6990 C   0  0  0  0  0  0  0  0  0  0  0  0
    0.0350   19.6080  -35.0090 C   0  0  0  0  0  0  0  0  0  0  0  0
   -1.1490   19.3060  -34.1080 C   0  0  0  0  0  0  0  0  0  0  0  0
   -1.8440   22.2700  -30.5040 C   0  0  0  0  0  0  0  0  0  0  0  0
   -5.3839   24.1937  -29.2638 H   0  0  0  0  0  0  0  0  0  0  0  0
   -5.6602   25.8197  -29.9838 H   0  0  0  0  0  0  0  0  0  0  0  0
   -7.0866   24.0494  -31.0308 H   0  0  0  0  0  0  0  0  0  0  0  0
   -5.9491   24.8239  -32.2036 H   0  0  0  0  0  0  0  0  0  0  0  0
   -4.2699   23.5673  -33.3299 H   0  0  0  0  0  0  0  0  0  0  0  0
   -3.2565   21.3476  -33.8425 H   0  0  0  0  0  0  0  0  0  0  0  0
   -2.7610   18.9120  -32.4250 H   0  0  0  0  0  0  0  0  0  0  0  0
   -5.5178   19.5630  -30.6131 H   0  0  0  0  0  0  0  0  0  0  0  0
   -6.5043   21.7870  -30.0710 H   0  0  0  0  0  0  0  0  0  0  0  0
   -3.2411   22.9526  -27.4548 H   0  0  0  0  0  0  0  0  0  0  0  0
   -2.6870   20.5464  -27.1144 H   0  0  0  0  0  0  0  0  0  0  0  0
   -1.5835   19.2450  -28.9303 H   0  0  0  0  0  0  0  0  0  0  0  0
   -1.3069   22.2110  -34.2815 H   0  0  0  0  0  0  0  0  0  0  0  0
   -0.1265   22.1485  -32.9407 H   0  0  0  0  0  0  0  0  0  0  0  0
    0.4693   21.6351  -35.6187 H   0  0  0  0  0  0  0  0  0  0  0  0
    1.4579   21.0775  -34.2631 H   0  0  0  0  0  0  0  0  0  0  0  0
   -0.2569   19.5171  -36.0657 H   0  0  0  0  0  0  0  0  0  0  0  0
    0.8614   18.9032  -34.8350 H   0  0  0  0  0  0  0  0  0  0  0  0
   -2.0579   19.1913  -34.7169 H   0  0  0  0  0  0  0  0  0  0  0  0
   -0.9702   18.3727  -33.5539 H   0  0  0  0  0  0  0  0  0  0  0  0
   -1.6003   22.7558  -31.4604 H   0  0  0  0  0  0  0  0  0  0  0  0
  1  2  2  0
  2  3  1  0
  3  4  1  0
  4  5  1  0
  5  6  1  0
  6  7  2  0
  7  8  1  0
  8  9  2  0
  9 10  1  0
  9 11  1  0
 11 12  2  0
  2 13  1  0
 13 14  2  0
 14 15  1  0
 15 16  2  0
 16 17  1  0
 17 18  1  0
 18 19  2  0
 18 20  2  0
 18 21  1  0
 21 22  1  0
 22 23  1  0
 23 24  1  0
 24 25  1  0
 17 26  2  0
 12  6  1  0
 26 13  1  0
 25 21  1  0
  4 27  1  0
  4 28  1  0
  5 29  1  0
  5 30  1  0
  7 31  1  0
  8 32  1  0
 10 33  1  0
 11 34  1  0
 12 35  1  0
 14 36  1  0
 15 37  1  0
 16 38  1  0
 22 39  1  0
 22 40  1  0
 23 41  1  0
 23 42  1  0
 24 43  1  0
 24 44  1  0
 25 45  1  0
 25 46  1  0
 26 47  1  0
M  CHG  1   3  -1
M  END
>  <UniqueID>  (19) 
19

>  <SMILES>  (19) 
O=C([N-]CCc1ccc(O)cc1)c1cccc(S(=O)(=O)N2CCCC2)c1

>  <Energy>  (19) 
46.83717892287348

>  <Genealogy>  (19) 
O=C([N-]CCc1ccc(O)cc1)c1cccc(S(=O)(=O)N2CCCC2)c1 (protonated)
O=C([N-]CCc1ccc(O)cc1)c1cccc(S(=O)(=O)N2CCCC2)c1 (3D coordinates assigned)
O=C([N-]CCc1ccc(O)cc1)c1cccc(S(=O)(=O)N2CCCC2)c1 (nonaromatic ring conformer: 46.83717892287348 kcal/mol)

>  <smiles>  (19) 
O=C(NCCc1ccc(O)cc1)c1cccc(S(=O)(=O)N2CCCC2)c1

>  <score_type>  (19) 
oracle

>  <origin>  (19) 
adgpu

>  <m_score__min__energy>  (19) 
-10.130000000000001

>  <m_primary>  (19) 
energy

$$$$
19:0
     RDKit          3D

 49 51  0  0  0  0  0  0  0  0999 V2000
   -0.2550   30.6000  -25.5880 C   0  0  0  0  0  0  0  0  0  0  0  0
   -0.0120   29.1750  -25.3240 N   0  0  0  0  0  0  0  0  0  0  0  0
   -0.9150   28.3120  -26.1280 C   0  0  0  0  0  0  0  0  0  0  0  0
   -0.2410   27.7600  -27.3940 C   0  0  0  0  0  0  0  0  0  0  0  0
    1.0250   26.9370  -27.0580 C   0  0  0  0  0  0  0  0  0  0  0  0
    0.6790   25.1740  -27.0460 S   0  0  0  0  0  0  0  0  0  0  0  0
    1.3610   24.5240  -28.2180 O   0  0  0  0  0  0  0  0  0  0  0  0
    1.2310   24.5570  -25.7910 O   0  0  0  0  0  0  0  0  0  0  0  0
   -1.0790   24.9170  -27.1120 C   0  0  0  0  0  0  0  0  0  0  0  0
   -1.8870   25.1930  -25.9850 C   0  0  0  0  0  0  0  0  0  0  0  0
   -1.2250   25.8150  -24.4760 Cl  0  0  0  0  0  0  0  0  0  0  0  0
   -3.2680   24.9860  -26.0470 C   0  0  0  0  0  0  0  0  0  0  0  0
   -3.8650   24.5370  -27.2230 C   0  0  0  0  0  0  0  0  0  0  0  0
   -3.0910   24.3080  -28.3640 C   0  0  0  0  0  0  0  0  0  0  0  0
   -3.7370   23.8620  -29.5640 N   0  0  0  0  0  0  0  0  0  0  0  0
   -4.3580   24.7650  -30.4960 C   0  0  0  0  0  0  0  0  0  0  0  0
   -4.2470   26.0100  -30.3440 O   0  0  0  0  0  0  0  0  0  0  0  0
   -5.0800   24.2690  -31.6290 N   0  0  0  0  0  0  0  0  0  0  0  0
   -5.9350   23.1190  -31.6410 C   0  0  0  0  0  0  0  0  0  0  0  0
   -5.4780   21.9410  -32.2460 C   0  0  0  0  0  0  0  0  0  0  0  0
   -6.2990   20.8100  -32.3040 C   0  0  0  0  0  0  0  0  0  0  0  0
   -7.5940   20.8550  -31.7700 C   0  0  0  0  0  0  0  0  0  0  0  0
   -8.4390   19.6920  -31.8290 C   0  0  0  0  0  0  0  0  0  0  0  0
   -9.1200   18.7580  -31.8770 N   0  0  0  0  0  0  0  0  0  0  0  0
   -8.0650   22.0380  -31.1870 C   0  0  0  0  0  0  0  0  0  0  0  0
   -7.2430   23.1690  -31.1310 C   0  0  0  0  0  0  0  0  0  0  0  0
   -1.6950   24.4740  -28.3040 C   0  0  0  0  0  0  0  0  0  0  0  0
   -0.9280   24.1800  -29.4260 O   0  0  0  0  0  0  0  0  0  0  0  0
    1.6620   27.3680  -25.7190 C   0  0  0  0  0  0  0  0  0  0  0  0
    1.4310   28.8610  -25.4710 C   0  0  0  0  0  0  0  0  0  0  0  0
   -0.3470   31.1392  -24.6337 H   0  0  0  0  0  0  0  0  0  0  0  0
    0.5854   31.0147  -26.1640 H   0  0  0  0  0  0  0  0  0  0  0  0
   -1.1853   30.7128  -26.1640 H   0  0  0  0  0  0  0  0  0  0  0  0
   -1.2388   27.4654  -25.5048 H   0  0  0  0  0  0  0  0  0  0  0  0
   -1.7654   28.9314  -26.4491 H   0  0  0  0  0  0  0  0  0  0  0  0
   -0.9554   27.1137  -27.9248 H   0  0  0  0  0  0  0  0  0  0  0  0
    0.0613   28.6125  -28.0200 H   0  0  0  0  0  0  0  0  0  0  0  0
    1.7528   27.1439  -27.8565 H   0  0  0  0  0  0  0  0  0  0  0  0
   -3.8887   25.1793  -25.1597 H   0  0  0  0  0  0  0  0  0  0  0  0
   -4.9505   24.3619  -27.2536 H   0  0  0  0  0  0  0  0  0  0  0  0
   -3.8580   22.8340  -29.6940 H   0  0  0  0  0  0  0  0  0  0  0  0
   -4.4671   21.9052  -32.6782 H   0  0  0  0  0  0  0  0  0  0  0  0
   -5.9280   19.8847  -32.7690 H   0  0  0  0  0  0  0  0  0  0  0  0
   -9.0830   22.0782  -30.7723 H   0  0  0  0  0  0  0  0  0  0  0  0
   -7.6224   24.1007  -30.6860 H   0  0  0  0  0  0  0  0  0  0  0  0
    1.2084   26.7906  -24.8999 H   0  0  0  0  0  0  0  0  0  0  0  0
    2.7446   27.1781  -25.7628 H   0  0  0  0  0  0  0  0  0  0  0  0
    1.9556   29.1550  -24.5499 H   0  0  0  0  0  0  0  0  0  0  0  0
    1.8168   29.4169  -26.3383 H   0  0  0  0  0  0  0  0  0  0  0  0
  1  2  1  0
  2  3  1  0
  3  4  1  0
  4  5  1  0
  5  6  1  0
  6  7  2  0
  6  8  2  0
  6  9  1  0
  9 10  2  0
 10 11  1  0
 10 12  1  0
 12 13  2  0
 13 14  1  0
 14 15  1  0
 15 16  1  0
 16 17  2  0
 16 18  1  0
 18 19  1  0
 19 20  2  0
 20 21  1  0
 21 22  2  0
 22 23  1  0
 23 24  3  0
 22 25  1  0
 25 26  2  0
 14 27  2  0
 27 28  1  0
  5 29  1  0
 29 30  1  0
 30  2  1  0
 27  9  1  0
 26 19  1  0
  1 31  1  0
  1 32  1  0
  1 33  1  0
  3 34  1  0
  3 35  1  0
  4 36  1  0
  4 37  1  0
  5 38  1  0
 12 39  1  0
 13 40  1  0
 15 41  1  0
 20 42  1  0
 21 43  1  0
 25 44  1  0
 26 45  1  0
 29 46  1  0
 29 47  1  0
 30 48  1  0
 30 49  1  0
M  CHG  2  18  -1  28  -1
M  END
>  <UniqueID>  (20) 
20

>  <SMILES>  (20) 
CN1CCC(S(=O)(=O)c2c(Cl)ccc(NC(=O)[N-]c3ccc(C#N)cc3)c2[O-])CC1

>  <Energy>  (20) 
67.34784991945972

>  <Genealogy>  (20) 
CN1CCC(S(=O)(=O)c2c(Cl)ccc(NC(=O)[N-]c3ccc(C#N)cc3)c2[O-])CC1 (protonated)
CN1CCC(S(=O)(=O)c2c(Cl)ccc(NC(=O)[N-]c3ccc(C#N)cc3)c2[O-])CC1 (3D coordinates assigned)
CN1CCC(S(=O)(=O)c2c(Cl)ccc(NC(=O)[N-]c3ccc(C#N)cc3)c2[O-])CC1 (nonaromatic ring conformer: 67.34784991945972 kcal/mol)

>  <smiles>  (20) 
CN1CCC(S(=O)(=O)c2c(Cl)ccc(NC(=O)Nc3ccc(C#N)cc3)c2O)CC1

>  <score_type>  (20) 
oracle

>  <origin>  (20) 
adgpu

>  <m_score__min__energy>  (20) 
-13.619999999999999

>  <m_primary>  (20) 
energy

$$$$
20:0
     RDKit          3D

 58 61  0  0  0  0  0  0  0  0999 V2000
   -9.1090   20.0450  -33.4110 O   0  0  0  0  0  0  0  0  0  0  0  0
   -7.9870   19.5230  -32.5570 S   0  0  0  0  0  0  0  0  0  0  0  0
   -8.5830   19.0000  -31.2800 O   0  0  0  0  0  0  0  0  0  0  0  0
   -6.8870   20.8510  -32.1750 C   0  0  0  0  0  0  0  0  0  0  0  0
   -5.5320   20.5920  -31.9240 C   0  0  0  0  0  0  0  0  0  0  0  0
   -4.6720   21.6290  -31.5530 C   0  0  0  0  0  0  0  0  0  0  0  0
   -5.1610   22.9320  -31.4040 C   0  0  0  0  0  0  0  0  0  0  0  0
   -4.2830   23.9410  -30.9830 O   0  0  0  0  0  0  0  0  0  0  0  0
   -3.2650   23.7830  -30.0310 C   0  0  0  0  0  0  0  0  0  0  0  0
   -2.0660   23.1060  -30.3230 C   0  0  0  0  0  0  0  0  0  0  0  0
   -1.0690   22.9830  -29.3540 C   0  0  0  0  0  0  0  0  0  0  0  0
   -1.2400   23.5530  -28.0850 C   0  0  0  0  0  0  0  0  0  0  0  0
   -0.1360   23.4630  -27.0690 C   0  0  0  0  0  0  0  0  0  0  0  0
   -0.6990   23.1610  -25.7540 N   0  0  0  0  0  0  0  0  0  0  0  0
    0.0120   23.4050  -24.5330 C   0  0  0  0  0  0  0  0  0  0  0  0
   -0.0620   22.2960  -23.3300 S   0  0  0  0  0  0  0  0  0  0  0  0
    0.7790   24.6040  -24.3350 N   0  0  0  0  0  0  0  0  0  0  0  0
    0.4000   25.8940  -24.8440 C   0  0  0  0  0  0  0  0  0  0  0  0
    1.1540   26.5450  -25.8400 C   0  0  0  0  0  0  0  0  0  0  0  0
    0.7540   27.7940  -26.3230 C   0  0  0  0  0  0  0  0  0  0  0  0
   -0.4060   28.3970  -25.8290 C   0  0  0  0  0  0  0  0  0  0  0  0
   -1.1700   27.7480  -24.8560 C   0  0  0  0  0  0  0  0  0  0  0  0
   -0.7720   26.5010  -24.3690 C   0  0  0  0  0  0  0  0  0  0  0  0
   -2.4270   24.2490  -27.8000 C   0  0  0  0  0  0  0  0  0  0  0  0
   -3.4320   24.3590  -28.7670 C   0  0  0  0  0  0  0  0  0  0  0  0
   -6.5080   23.1990  -31.7030 C   0  0  0  0  0  0  0  0  0  0  0  0
   -7.3670   22.1630  -32.0770 C   0  0  0  0  0  0  0  0  0  0  0  0
   -7.1860   18.2160  -33.3930 N   0  0  0  0  0  0  0  0  0  0  0  0
   -6.1550   18.7340  -34.3060 C   0  0  0  0  0  0  0  0  0  0  0  0
   -5.4120   17.5650  -34.9880 C   0  0  0  0  0  0  0  0  0  0  0  0
   -5.9300   16.3100  -34.5840 O   0  0  0  0  0  0  0  0  0  0  0  0
   -5.8110   16.1740  -33.1790 C   0  0  0  0  0  0  0  0  0  0  0  0
   -6.5870   17.2790  -32.4330 C   0  0  0  0  0  0  0  0  0  0  0  0
   -5.1440   19.5672  -32.0196 H   0  0  0  0  0  0  0  0  0  0  0  0
   -3.6063   21.4205  -31.3773 H   0  0  0  0  0  0  0  0  0  0  0  0
   -1.9137   22.6709  -31.3217 H   0  0  0  0  0  0  0  0  0  0  0  0
   -0.1439   22.4357  -29.5876 H   0  0  0  0  0  0  0  0  0  0  0  0
    0.5636   22.6652  -27.3591 H   0  0  0  0  0  0  0  0  0  0  0  0
    0.3971   24.4242  -27.0247 H   0  0  0  0  0  0  0  0  0  0  0  0
   -1.5570   22.5650  -25.7150 H   0  0  0  0  0  0  0  0  0  0  0  0
    1.6180   24.5480  -23.7180 H   0  0  0  0  0  0  0  0  0  0  0  0
    2.0614   26.0683  -26.2393 H   0  0  0  0  0  0  0  0  0  0  0  0
    1.3528   28.3029  -27.0927 H   0  0  0  0  0  0  0  0  0  0  0  0
   -0.7173   29.3823  -26.2062 H   0  0  0  0  0  0  0  0  0  0  0  0
   -2.0867   28.2200  -24.4727 H   0  0  0  0  0  0  0  0  0  0  0  0
   -1.3815   25.9916  -23.6081 H   0  0  0  0  0  0  0  0  0  0  0  0
   -2.5668   24.7099  -26.8110 H   0  0  0  0  0  0  0  0  0  0  0  0
   -4.3594   24.9018  -28.5320 H   0  0  0  0  0  0  0  0  0  0  0  0
   -6.8879   24.2295  -31.6422 H   0  0  0  0  0  0  0  0  0  0  0  0
   -8.4234   22.3782  -32.2952 H   0  0  0  0  0  0  0  0  0  0  0  0
   -6.6316   19.3598  -35.0749 H   0  0  0  0  0  0  0  0  0  0  0  0
   -5.4329   19.3317  -33.7305 H   0  0  0  0  0  0  0  0  0  0  0  0
   -5.5201   17.6613  -36.0784 H   0  0  0  0  0  0  0  0  0  0  0  0
   -4.3536   17.6112  -34.6920 H   0  0  0  0  0  0  0  0  0  0  0  0
   -6.2105   15.1936  -32.8803 H   0  0  0  0  0  0  0  0  0  0  0  0
   -4.7471   16.2624  -32.9140 H   0  0  0  0  0  0  0  0  0  0  0  0
   -7.3832   16.8192  -31.8292 H   0  0  0  0  0  0  0  0  0  0  0  0
   -5.8912   17.8286  -31.7820 H   0  0  0  0  0  0  0  0  0  0  0  0
  1  2  2  0
  2  3  2  0
  2  4  1  0
  4  5  2  0
  5  6  1  0
  6  7  2  0
  7  8  1  0
  8  9  1  0
  9 10  2  0
 10 11  1  0
 11 12  2  0
 12 13  1  0
 13 14  1  0
 14 15  1  0
 15 16  2  0
 15 17  1  0
 17 18  1  0
 18 19  2  0
 19 20  1  0
 20 21  2  0
 21 22  1  0
 22 23  2  0
 12 24  1  0
 24 25  2  0
  7 26  1  0
 26 27  2  0
  2 28  1  0
 28 29  1  0
 29 30  1  0
 30 31  1  0
 31 32  1  0
 32 33  1  0
 27  4  1  0
 33 28  1  0
 25  9  1  0
 23 18  1  0
  5 34  1  0
  6 35  1  0
 10 36  1  0
 11 37  1  0
 13 38  1  0
 13 39  1  0
 14 40  1  0
 17 41  1  0
 19 42  1  0
 20 43  1  0
 21 44  1  0
 22 45  1  0
 23 46  1  0
 24 47  1  0
 25 48  1  0
 26 49  1  0
 27 50  1  0
 29 51  1  0
 29 52  1  0
 30 53  1  0
 30 54  1  0
 32 55  1  0
 32 56  1  0
 33 57  1  0
 33 58  1  0
M  END
>  <UniqueID>  (21) 
21

>  <SMILES>  (21) 
O=S(=O)(c1ccc(Oc2ccc(CNC(=S)Nc3ccccc3)cc2)cc1)N1CCOCC1

>  <Energy>  (21) 
79.46961616350588

>  <Genealogy>  (21) 
O=S(=O)(c1ccc(Oc2ccc(CNC(=S)Nc3ccccc3)cc2)cc1)N1CCOCC1 (3D coordinates assigned)
O=S(=O)(c1ccc(Oc2ccc(CNC(=S)Nc3ccccc3)cc2)cc1)N1CCOCC1 (nonaromatic ring conformer: 79.46961616350588 kcal/mol)

>  <smiles>  (21) 
O=S(=O)(c1ccc(Oc2ccc(CNC(=S)Nc3ccccc3)cc2)cc1)N1CCOCC1

>  <score_type>  (21) 
oracle

>  <origin>  (21) 
adgpu

>  <m_score__min__energy>  (21) 
-10

>  <m_primary>  (21) 
energy

$$$$
21:0
     RDKit          3D

 29 31  0  0  0  0  0  0  0  0999 V2000
   -1.0230   23.8000  -29.3110 O   0  0  0  0  0  0  0  0  0  0  0  0
   -2.2080   23.8870  -29.7240 C   0  0  0  0  0  0  0  0  0  0  0  0
   -2.7820   22.9380  -30.5080 N   0  0  0  0  0  0  0  0  0  0  0  0
   -4.0180   23.4380  -30.7000 C   0  0  0  0  0  0  0  0  0  0  0  0
   -5.0560   22.8750  -31.4380 C   0  0  0  0  0  0  0  0  0  0  0  0
   -6.2810   23.5840  -31.5050 C   0  0  0  0  0  0  0  0  0  0  0  0
   -7.4040   23.0900  -32.2490 N   0  0  0  0  0  0  0  0  0  0  0  0
   -8.4420   21.7970  -31.7440 S   0  0  0  0  0  0  0  0  0  0  0  0
   -8.5390   21.8040  -30.2430 O   0  0  0  0  0  0  0  0  0  0  0  0
   -9.8100   22.0090  -32.3250 O   0  0  0  0  0  0  0  0  0  0  0  0
   -7.8120   20.2560  -32.3180 C   0  0  0  0  0  0  0  0  0  0  0  0
   -8.3680   19.0490  -31.8660 C   0  0  0  0  0  0  0  0  0  0  0  0
   -7.8560   17.8290  -32.3170 C   0  0  0  0  0  0  0  0  0  0  0  0
   -6.7890   17.8070  -33.2210 C   0  0  0  0  0  0  0  0  0  0  0  0
   -6.0900   16.1380  -33.8340 Br  0  0  0  0  0  0  0  0  0  0  0  0
   -6.2370   19.0080  -33.6780 C   0  0  0  0  0  0  0  0  0  0  0  0
   -6.7470   20.2290  -33.2290 C   0  0  0  0  0  0  0  0  0  0  0  0
   -6.4150   24.8200  -30.8250 C   0  0  0  0  0  0  0  0  0  0  0  0
   -5.3430   25.3570  -30.0880 C   0  0  0  0  0  0  0  0  0  0  0  0
   -4.1580   24.6290  -30.0520 C   0  0  0  0  0  0  0  0  0  0  0  0
   -3.0150   24.9320  -29.4250 N   0  0  0  0  0  0  0  0  0  0  0  0
   -4.9291   21.9110  -31.9524 H   0  0  0  0  0  0  0  0  0  0  0  0
   -9.2079   19.0632  -31.1558 H   0  0  0  0  0  0  0  0  0  0  0  0
   -8.2930   16.8846  -31.9603 H   0  0  0  0  0  0  0  0  0  0  0  0
   -5.4003   18.9914  -34.3918 H   0  0  0  0  0  0  0  0  0  0  0  0
   -6.3114   21.1718  -33.5915 H   0  0  0  0  0  0  0  0  0  0  0  0
   -7.3685   25.3664  -30.8738 H   0  0  0  0  0  0  0  0  0  0  0  0
   -5.4386   26.3171  -29.5598 H   0  0  0  0  0  0  0  0  0  0  0  0
   -2.7980   25.7730  -28.8450 H   0  0  0  0  0  0  0  0  0  0  0  0
  1  2  2  0
  2  3  1  0
  3  4  1  0
  4  5  2  0
  5  6  1  0
  6  7  1  0
  7  8  1  0
  8  9  2  0
  8 10  2  0
  8 11  1  0
 11 12  2  0
 12 13  1  0
 13 14  2  0
 14 15  1  0
 14 16  1  0
 16 17  2  0
  6 18  2  0
 18 19  1  0
 19 20  2  0
 20 21  1  0
 21  2  1  0
 20  4  1  0
 17 11  1  0
  5 22  1  0
 12 23  1  0
 13 24  1  0
 16 25  1  0
 17 26  1  0
 18 27  1  0
 19 28  1  0
 21 29  1  0
M  CHG  2   3  -1   7  -1
M  END
>  <UniqueID>  (22) 
22

>  <SMILES>  (22) 
O=c1[n-]c2cc([N-]S(=O)(=O)c3ccc(Br)cc3)ccc2[nH]1

>  <Energy>  (22) 
71.54643526982922

>  <Genealogy>  (22) 
O=c1[n-]c2cc([N-]S(=O)(=O)c3ccc(Br)cc3)ccc2[nH]1 (protonated)
O=c1[n-]c2cc([N-]S(=O)(=O)c3ccc(Br)cc3)ccc2[nH]1 (3D coordinates assigned)
O=c1[n-]c2cc([N-]S(=O)(=O)c3ccc(Br)cc3)ccc2[nH]1 (optimized conformer: 71.54643526982922 kcal/mol)

>  <smiles>  (22) 
O=c1[nH]c2ccc(NS(=O)(=O)c3ccc(Br)cc3)cc2[nH]1

>  <score_type>  (22) 
oracle

>  <origin>  (22) 
adgpu

>  <m_score__min__energy>  (22) 
-9.9499999999999993

>  <m_primary>  (22) 
energy

$$$$
22:0
     RDKit          3D

 59 62  0  0  0  0  0  0  0  0999 V2000
    0.9230   16.6880  -28.3940 C   0  0  0  0  0  0  0  0  0  0  0  0
    0.6410   17.7400  -27.4750 O   0  0  0  0  0  0  0  0  0  0  0  0
   -0.3610   18.7030  -27.6610 C   0  0  0  0  0  0  0  0  0  0  0  0
   -0.2020   19.8030  -28.5250 C   0  0  0  0  0  0  0  0  0  0  0  0
   -1.2320   20.7380  -28.6740 C   0  0  0  0  0  0  0  0  0  0  0  0
   -2.4370   20.5840  -27.9700 C   0  0  0  0  0  0  0  0  0  0  0  0
   -3.5680   21.5570  -28.1620 C   0  0  0  0  0  0  0  0  0  0  0  0
   -3.8570   21.7170  -29.5870 N   0  0  0  0  0  0  0  0  0  0  0  0
   -4.0940   20.6930  -30.3920 N   0  0  0  0  0  0  0  0  0  0  0  0
   -4.2230   21.1800  -31.6420 C   0  0  0  0  0  0  0  0  0  0  0  0
   -4.5690   20.3400  -32.8330 C   0  0  0  0  0  0  0  0  0  0  0  0
   -5.7500   19.4990  -32.5500 N   0  0  0  0  0  0  0  0  0  0  0  0
   -5.8070   18.3590  -33.4830 C   0  0  0  0  0  0  0  0  0  0  0  0
   -7.0140   17.4570  -33.1480 C   0  0  0  0  0  0  0  0  0  0  0  0
   -7.8880   18.0540  -32.2040 O   0  0  0  0  0  0  0  0  0  0  0  0
   -8.2370   19.3540  -32.6350 C   0  0  0  0  0  0  0  0  0  0  0  0
   -7.0050   20.2800  -32.6350 C   0  0  0  0  0  0  0  0  0  0  0  0
   -4.0660   22.5530  -31.6350 C   0  0  0  0  0  0  0  0  0  0  0  0
   -3.8220   22.8600  -30.3120 C   0  0  0  0  0  0  0  0  0  0  0  0
   -3.6310   24.2200  -29.7730 C   0  0  0  0  0  0  0  0  0  0  0  0
   -3.5040   25.1900  -30.5670 O   0  0  0  0  0  0  0  0  0  0  0  0
   -3.5120   24.4610  -28.3680 N   0  0  0  0  0  0  0  0  0  0  0  0
   -2.3600   24.0810  -27.5550 C   0  0  0  0  0  0  0  0  0  0  0  0
   -1.6910   25.3200  -27.0240 C   0  0  0  0  0  0  0  0  0  0  0  0
   -1.5910   25.5170  -25.6350 C   0  0  0  0  0  0  0  0  0  0  0  0
   -0.9440   26.6460  -25.1240 C   0  0  0  0  0  0  0  0  0  0  0  0
   -0.3800   27.5840  -25.9940 C   0  0  0  0  0  0  0  0  0  0  0  0
   -0.4510   27.3880  -27.3750 C   0  0  0  0  0  0  0  0  0  0  0  0
   -1.1020   26.2570  -27.8970 C   0  0  0  0  0  0  0  0  0  0  0  0
   -1.1570   26.0620  -29.2800 O   0  0  0  0  0  0  0  0  0  0  0  0
   -2.5950   19.4860  -27.1090 C   0  0  0  0  0  0  0  0  0  0  0  0
   -1.5630   18.5570  -26.9560 C   0  0  0  0  0  0  0  0  0  0  0  0
    1.1687   15.7713  -27.8378 H   0  0  0  0  0  0  0  0  0  0  0  0
    0.0415   16.5078  -29.0268 H   0  0  0  0  0  0  0  0  0  0  0  0
    1.7765   16.9729  -29.0268 H   0  0  0  0  0  0  0  0  0  0  0  0
    0.7362   19.9279  -29.0854 H   0  0  0  0  0  0  0  0  0  0  0  0
   -1.0971   21.5982  -29.3462 H   0  0  0  0  0  0  0  0  0  0  0  0
   -4.4645   21.1785  -27.6492 H   0  0  0  0  0  0  0  0  0  0  0  0
   -3.2797   22.5317  -27.7415 H   0  0  0  0  0  0  0  0  0  0  0  0
   -4.7893   20.9971  -33.6872 H   0  0  0  0  0  0  0  0  0  0  0  0
   -3.7156   19.6864  -33.0662 H   0  0  0  0  0  0  0  0  0  0  0  0
   -5.9091   18.7357  -34.5114 H   0  0  0  0  0  0  0  0  0  0  0  0
   -4.8820   17.7711  -33.3889 H   0  0  0  0  0  0  0  0  0  0  0  0
   -7.5750   17.2591  -34.0733 H   0  0  0  0  0  0  0  0  0  0  0  0
   -6.6262   16.5274  -32.7058 H   0  0  0  0  0  0  0  0  0  0  0  0
   -8.6461   19.2982  -33.6546 H   0  0  0  0  0  0  0  0  0  0  0  0
   -8.9870   19.7652  -31.9433 H   0  0  0  0  0  0  0  0  0  0  0  0
   -6.9989   20.8695  -33.5637 H   0  0  0  0  0  0  0  0  0  0  0  0
   -7.0650   20.9406  -31.7575 H   0  0  0  0  0  0  0  0  0  0  0  0
   -4.1226   23.2437  -32.4893 H   0  0  0  0  0  0  0  0  0  0  0  0
   -2.6947   23.4558  -26.7141 H   0  0  0  0  0  0  0  0  0  0  0  0
   -1.6467   23.5144  -28.1715 H   0  0  0  0  0  0  0  0  0  0  0  0
   -2.0249   24.7775  -24.9459 H   0  0  0  0  0  0  0  0  0  0  0  0
   -0.8786   26.7965  -24.0363 H   0  0  0  0  0  0  0  0  0  0  0  0
    0.1200   28.4769  -25.5905 H   0  0  0  0  0  0  0  0  0  0  0  0
    0.0043   28.1215  -28.0567 H   0  0  0  0  0  0  0  0  0  0  0  0
   -1.9840   25.6850  -29.7270 H   0  0  0  0  0  0  0  0  0  0  0  0
   -3.5352   19.3569  -26.5528 H   0  0  0  0  0  0  0  0  0  0  0  0
   -1.6953   17.7028  -26.2756 H   0  0  0  0  0  0  0  0  0  0  0  0
  1  2  1  0
  2  3  1  0
  3  4  2  0
  4  5  1  0
  5  6  2  0
  6  7  1  0
  7  8  1  0
  8  9  1  0
  9 10  2  0
 10 11  1  0
 11 12  1  0
 12 13  1  0
 13 14  1  0
 14 15  1  0
 15 16  1  0
 16 17  1  0
 10 18  1  0
 18 19  2  0
 19 20  1  0
 20 21  2  0
 20 22  1  0
 22 23  1  0
 23 24  1  0
 24 25  2  0
 25 26  1  0
 26 27  2  0
 27 28  1  0
 28 29  2  0
 29 30  1  0
  6 31  1  0
 31 32  2  0
 32  3  1  0
 19  8  1  0
 29 24  1  0
 17 12  1  0
  1 33  1  0
  1 34  1  0
  1 35  1  0
  4 36  1  0
  5 37  1  0
  7 38  1  0
  7 39  1  0
 11 40  1  0
 11 41  1  0
 13 42  1  0
 13 43  1  0
 14 44  1  0
 14 45  1  0
 16 46  1  0
 16 47  1  0
 17 48  1  0
 17 49  1  0
 18 50  1  0
 23 51  1  0
 23 52  1  0
 25 53  1  0
 26 54  1  0
 27 55  1  0
 28 56  1  0
 30 57  1  0
 31 58  1  0
 32 59  1  0
M  CHG  1  22  -1
M  END
>  <UniqueID>  (23) 
23

>  <SMILES>  (23) 
COc1ccc(Cn2nc(CN3CCOCC3)cc2C(=O)[N-]Cc2ccccc2O)cc1

>  <Energy>  (23) 
102.0186228161305

>  <Genealogy>  (23) 
COc1ccc(Cn2nc(CN3CCOCC3)cc2C(=O)[N-]Cc2ccccc2O)cc1 (protonated)
COc1ccc(Cn2nc(CN3CCOCC3)cc2C(=O)[N-]Cc2ccccc2O)cc1 (3D coordinates assigned)
COc1ccc(Cn2nc(CN3CCOCC3)cc2C(=O)[N-]Cc2ccccc2O)cc1 (nonaromatic ring conformer: 102.0186228161305 kcal/mol)

>  <smiles>  (23) 
COc1ccc(Cn2nc(CN3CCOCC3)cc2C(=O)NCc2ccccc2O)cc1

>  <score_type>  (23) 
oracle

>  <origin>  (23) 
adgpu

>  <m_score__min__energy>  (23) 
-11.17

>  <m_primary>  (23) 
energy

$$$$
23:0
     RDKit          3D

 53 55  0  0  1  0  0  0  0  0999 V2000
   -1.9440   20.1520  -28.4710 C   0  0  0  0  0  0  0  0  0  0  0  0
   -0.6420   20.4680  -28.9350 O   0  0  0  0  0  0  0  0  0  0  0  0
   -0.3230   20.4540  -30.2890 C   0  0  0  0  0  0  0  0  0  0  0  0
   -0.9390   21.3590  -31.1100 C   0  0  0  0  0  0  0  0  0  0  0  0
   -1.8930   22.3210  -30.6840 N   0  0  0  0  0  0  0  0  0  0  0  0
   -3.2340   22.3200  -31.1260 C   0  0  0  0  0  0  0  0  0  0  0  0
   -3.6410   21.4350  -31.9490 O   0  0  0  0  0  0  0  0  0  0  0  0
   -4.1930   23.3120  -30.6700 C   0  0  0  0  0  0  0  0  0  0  0  0
   -5.2570   23.5830  -31.5090 C   0  0  0  0  0  0  0  0  0  0  0  0
   -6.2330   24.5250  -31.1430 C   0  0  0  0  0  0  0  0  0  0  0  0
   -6.1060   25.1750  -29.9260 C   0  0  0  0  0  0  0  0  0  0  0  0
   -5.0560   24.8820  -29.1410 N   0  0  0  0  0  0  0  0  0  0  0  0
   -4.1150   23.9790  -29.4850 C   0  0  0  0  0  0  0  0  0  0  0  0
   -3.1190   23.7450  -28.6580 N   0  0  0  0  0  0  0  0  0  0  0  0
   -3.1080   24.4900  -27.4290 C   0  0  0  0  0  0  0  0  0  0  0  0
   -2.0730   25.1960  -26.8530 C   0  0  0  0  0  0  0  0  0  0  0  0
   -2.6130   25.7120  -25.6690 C   0  0  0  0  0  0  0  0  0  0  0  0
   -1.9600   26.4460  -24.8180 N   0  0  0  0  0  0  0  0  0  0  0  0
   -3.8970   25.3070  -25.5960 N   0  0  0  0  0  0  0  0  0  0  0  0
   -4.2050   24.5690  -26.6510 N   0  0  0  0  0  0  0  0  0  0  0  0
   -0.6320   21.3600  -32.4680 C   0  0  0  0  0  0  0  0  0  0  0  0
    0.2830   20.4590  -32.9790 C   0  0  0  0  0  0  0  0  0  0  0  0
    0.6390   20.4740  -34.7000 S   0  0  0  0  0  0  0  0  0  0  0  0
    0.1050   22.0180  -35.3210 N   0  0  0  0  0  0  0  0  0  0  0  0
    2.1230   20.4030  -34.9310 O   0  0  0  0  0  0  0  0  0  0  0  0
   -0.0910   19.3890  -35.3880 O   0  0  0  0  0  0  0  0  0  0  0  0
    0.8840   19.5580  -32.1120 C   0  0  0  0  0  0  0  0  0  0  0  0
    0.6120   19.5200  -30.7600 C   0  0  0  0  0  0  0  0  0  0  0  0
    1.2070   18.6330  -29.8500 N   0  0  0  0  0  0  0  0  0  0  0  0
    2.3210   17.4020  -30.2090 S   0  0  0  0  0  0  0  0  0  0  0  0
    3.8290   18.0850  -30.8340 C   0  0  0  0  0  0  0  0  0  0  0  0
    1.7840   16.3960  -31.1980 O   0  0  0  0  0  0  0  0  0  0  0  0
    2.6900   16.6010  -28.9740 O   0  0  0  0  0  0  0  0  0  0  0  0
   -1.9509   20.1503  -27.3710 H   0  0  0  0  0  0  0  0  0  0  0  0
   -2.6574   20.9031  -28.8410 H   0  0  0  0  0  0  0  0  0  0  0  0
   -2.2338   19.1575  -28.8410 H   0  0  0  0  0  0  0  0  0  0  0  0
   -1.6040   23.0670  -30.0140 H   0  0  0  0  0  0  0  0  0  0  0  0
   -5.3405   23.0569  -32.4714 H   0  0  0  0  0  0  0  0  0  0  0  0
   -7.0809   24.7421  -31.8092 H   0  0  0  0  0  0  0  0  0  0  0  0
   -6.8521   25.9181  -29.6081 H   0  0  0  0  0  0  0  0  0  0  0  0
   -4.9960   25.3890  -28.2360 H   0  0  0  0  0  0  0  0  0  0  0  0
   -1.0507   25.3250  -27.2381 H   0  0  0  0  0  0  0  0  0  0  0  0
   -2.4840   26.7670  -23.9700 H   0  0  0  0  0  0  0  0  0  0  0  0
   -4.5660   25.5430  -24.8080 H   0  0  0  0  0  0  0  0  0  0  0  0
   -5.1440   24.1460  -26.8160 H   0  0  0  0  0  0  0  0  0  0  0  0
   -1.1207   22.0824  -33.1383 H   0  0  0  0  0  0  0  0  0  0  0  0
   -0.9560   21.9690  -35.2280 H   0  0  0  0  0  0  0  0  0  0  0  0
    0.3910   22.7780  -34.6670 H   0  0  0  0  0  0  0  0  0  0  0  0
    1.6108   18.8409  -32.5214 H   0  0  0  0  0  0  0  0  0  0  0  0
    0.9260   18.7460  -28.8250 H   0  0  0  0  0  0  0  0  0  0  0  0
    4.4752   18.3777  -29.9933 H   0  0  0  0  0  0  0  0  0  0  0  0
    4.3452   17.3328  -31.4486 H   0  0  0  0  0  0  0  0  0  0  0  0
    3.6041   18.9691  -31.4486 H   0  0  0  0  0  0  0  0  0  0  0  0
  1  2  1  0
  2  3  1  0
  3  4  2  0
  4  5  1  0
  5  6  1  0
  6  7  2  0
  6  8  1  0
  8  9  2  0
  9 10  1  0
 10 11  2  0
 11 12  1  0
 12 13  1  0
 13 14  2  0
 14 15  1  0
 15 16  2  0
 16 17  1  0
 17 18  2  3
 17 19  1  0
 19 20  1  0
  4 21  1  0
 21 22  2  0
 22 23  1  0
 23 24  1  0
 23 25  2  0
 23 26  2  0
 22 27  1  0
 27 28  2  0
 28 29  1  0
 29 30  1  0
 30 31  1  0
 30 32  2  0
 30 33  2  0
 28  3  1  0
 13  8  1  0
 20 15  1  0
  1 34  1  0
  1 35  1  0
  1 36  1  0
  5 37  1  0
  9 38  1  0
 10 39  1  0
 11 40  1  0
 12 41  1  0
 16 42  1  0
 18 43  1  0
 19 44  1  0
 20 45  1  0
 21 46  1  0
 24 47  1  0
 24 48  1  0
 27 49  1  0
 29 50  1  0
 31 51  1  0
 31 52  1  0
 31 53  1  0
M  END
>  <smiles>  (24) 
COc1c(NC(=O)c2ccc[nH]c2=Nc2cc(=N)[nH][nH]2)cc(S(N)(=O)=O)cc1NS(C)(=O)=O

>  <score_type>  (24) 
oracle

>  <origin>  (24) 
adgpu

>  <m_score__min__energy>  (24) 
-9.6799999999999997

>  <m_primary>  (24) 
energy

$$$$
24:0
     RDKit          3D

 55 58  0  0  0  0  0  0  0  0999 V2000
   -6.3730   14.6430  -34.1960 C   0  0  0  0  0  0  0  0  0  0  0  0
   -6.2350   16.1640  -34.0390 C   0  0  0  0  0  0  0  0  0  0  0  0
   -4.9200   16.6290  -33.3550 C   0  0  0  0  0  0  0  0  0  0  0  0
   -5.1710   17.9260  -32.6960 N   0  0  0  0  0  0  0  0  0  0  0  0
   -6.4460   18.8830  -33.4180 S   0  0  0  0  0  0  0  0  0  0  0  0
   -6.4760   18.7270  -34.9130 O   0  0  0  0  0  0  0  0  0  0  0  0
   -7.7680   18.4250  -32.8700 O   0  0  0  0  0  0  0  0  0  0  0  0
   -6.2210   20.5790  -32.9990 C   0  0  0  0  0  0  0  0  0  0  0  0
   -4.9340   21.1210  -32.8860 C   0  0  0  0  0  0  0  0  0  0  0  0
   -4.7620   22.4510  -32.4930 C   0  0  0  0  0  0  0  0  0  0  0  0
   -5.8800   23.2670  -32.2380 C   0  0  0  0  0  0  0  0  0  0  0  0
   -5.7430   24.6260  -31.7970 N   0  0  0  0  0  0  0  0  0  0  0  0
   -5.1070   25.0630  -30.5930 C   0  0  0  0  0  0  0  0  0  0  0  0
   -5.8100   25.5530  -29.6700 O   0  0  0  0  0  0  0  0  0  0  0  0
   -3.6800   25.0200  -30.4630 N   0  0  0  0  0  0  0  0  0  0  0  0
   -2.9720   24.2870  -29.4540 C   0  0  0  0  0  0  0  0  0  0  0  0
   -3.3850   22.9870  -29.1590 C   0  0  0  0  0  0  0  0  0  0  0  0
   -2.7210   22.2400  -28.1890 C   0  0  0  0  0  0  0  0  0  0  0  0
   -1.6540   22.7920  -27.4750 C   0  0  0  0  0  0  0  0  0  0  0  0
   -0.8410   21.7640  -26.3000 Cl  0  0  0  0  0  0  0  0  0  0  0  0
   -1.2580   24.1270  -27.7130 C   0  0  0  0  0  0  0  0  0  0  0  0
    0.0730   24.8490  -26.7820 S   0  0  0  0  0  0  0  0  0  0  0  0
    0.7290   25.9280  -27.6000 O   0  0  0  0  0  0  0  0  0  0  0  0
    1.1180   23.8210  -26.4540 O   0  0  0  0  0  0  0  0  0  0  0  0
   -0.5920   25.4950  -25.2480 C   0  0  0  0  0  0  0  0  0  0  0  0
   -0.7780   27.0020  -25.2490 C   0  0  0  0  0  0  0  0  0  0  0  0
   -1.9900   26.0890  -25.3170 C   0  0  0  0  0  0  0  0  0  0  0  0
   -1.9240   24.8700  -28.7140 C   0  0  0  0  0  0  0  0  0  0  0  0
   -1.5690   26.1930  -28.9580 O   0  0  0  0  0  0  0  0  0  0  0  0
   -7.1630   22.7170  -32.3410 C   0  0  0  0  0  0  0  0  0  0  0  0
   -7.3340   21.3810  -32.7200 C   0  0  0  0  0  0  0  0  0  0  0  0
   -4.4860   15.5780  -32.3370 C   0  0  0  0  0  0  0  0  0  0  0  0
   -5.1020   15.4710  -31.2440 O   0  0  0  0  0  0  0  0  0  0  0  0
   -3.4180   14.6710  -32.6100 N   0  0  0  0  0  0  0  0  0  0  0  0
   -2.6250   14.7890  -33.7850 C   0  0  0  0  0  0  0  0  0  0  0  0
   -1.7150   13.9520  -34.0180 O   0  0  0  0  0  0  0  0  0  0  0  0
   -2.8500   15.8670  -34.6860 N   0  0  0  0  0  0  0  0  0  0  0  0
   -3.8980   16.8130  -34.4670 C   0  0  0  0  0  0  0  0  0  0  0  0
   -4.0050   17.7940  -35.2530 O   0  0  0  0  0  0  0  0  0  0  0  0
   -6.4155   14.1741  -33.2018 H   0  0  0  0  0  0  0  0  0  0  0  0
   -7.2956   14.4137  -34.7493 H   0  0  0  0  0  0  0  0  0  0  0  0
   -5.5067   14.2514  -34.7493 H   0  0  0  0  0  0  0  0  0  0  0  0
   -6.2793   16.6173  -35.0403 H   0  0  0  0  0  0  0  0  0  0  0  0
   -7.0571   16.4845  -33.3822 H   0  0  0  0  0  0  0  0  0  0  0  0
   -4.0555   20.4972  -33.1075 H   0  0  0  0  0  0  0  0  0  0  0  0
   -3.7477   22.8622  -32.3824 H   0  0  0  0  0  0  0  0  0  0  0  0
   -4.2399   22.5498  -29.6957 H   0  0  0  0  0  0  0  0  0  0  0  0
   -3.0390   21.2073  -27.9833 H   0  0  0  0  0  0  0  0  0  0  0  0
   -0.1064   24.7547  -24.5952 H   0  0  0  0  0  0  0  0  0  0  0  0
   -0.5767   27.5814  -24.3359 H   0  0  0  0  0  0  0  0  0  0  0  0
   -0.3948   27.8321  -25.8606 H   0  0  0  0  0  0  0  0  0  0  0  0
   -2.6660   26.0067  -24.4531 H   0  0  0  0  0  0  0  0  0  0  0  0
   -2.8476   25.9835  -25.9978 H   0  0  0  0  0  0  0  0  0  0  0  0
   -8.0432   23.3395  -32.1224 H   0  0  0  0  0  0  0  0  0  0  0  0
   -8.3469   20.9592  -32.7990 H   0  0  0  0  0  0  0  0  0  0  0  0
  1  2  1  0
  2  3  1  0
  3  4  1  0
  4  5  1  0
  5  6  2  0
  5  7  2  0
  5  8  1  0
  8  9  2  0
  9 10  1  0
 10 11  2  0
 11 12  1  0
 12 13  1  0
 13 14  2  0
 13 15  1  0
 15 16  1  0
 16 17  2  0
 17 18  1  0
 18 19  2  0
 19 20  1  0
 19 21  1  0
 21 22  1  0
 22 23  2  0
 22 24  2  0
 22 25  1  0
 25 26  1  0
 26 27  1  0
 21 28  2  0
 28 29  1  0
 11 30  1  0
 30 31  2  0
  3 32  1  0
 32 33  2  0
 32 34  1  0
 34 35  1  0
 35 36  2  0
 35 37  1  0
 37 38  1  0
 38 39  2  0
 38  3  1  0
 31  8  1  0
 28 16  1  0
 27 25  1  0
  1 40  1  0
  1 41  1  0
  1 42  1  0
  2 43  1  0
  2 44  1  0
  9 45  1  0
 10 46  1  0
 17 47  1  0
 18 48  1  0
 25 49  1  0
 26 50  1  0
 26 51  1  0
 27 52  1  0
 27 53  1  0
 30 54  1  0
 31 55  1  0
M  CHG  6   4  -1  12  -1  15  -1  29  -1  34  -1  37  -1
M  END
>  <UniqueID>  (25) 
24

>  <SMILES>  (25) 
CCC1([N-]S(=O)(=O)c2ccc([N-]C(=O)[N-]c3ccc(Cl)c(S(=O)(=O)C4CC4)c3[O-])cc2)C(=O)[N-]C(=O)[N-]C1=O

>  <Energy>  (25) 
335.19939849183686

>  <Genealogy>  (25) 
CCC1([N-]S(=O)(=O)c2ccc([N-]C(=O)[N-]c3ccc(Cl)c(S(=O)(=O)C4CC4)c3[O-])cc2)C(=O)[N-]C(=O)[N-]C1=O (protonated)
CCC1([N-]S(=O)(=O)c2ccc([N-]C(=O)[N-]c3ccc(Cl)c(S(=O)(=O)C4CC4)c3[O-])cc2)C(=O)[N-]C(=O)[N-]C1=O (3D coordinates assigned)
CCC1([N-]S(=O)(=O)c2ccc([N-]C(=O)[N-]c3ccc(Cl)c(S(=O)(=O)C4CC4)c3[O-])cc2)C(=O)[N-]C(=O)[N-]C1=O (nonaromatic ring conformer: 335.19939849183686 kcal/mol)

>  <smiles>  (25) 
CCC1(NS(=O)(=O)c2ccc(NC(=O)Nc3ccc(Cl)c(S(=O)(=O)C4CC4)c3O)cc2)C(=O)NC(=O)NC1=O

>  <score_type>  (25) 
oracle

>  <origin>  (25) 
adgpu

>  <m_score__min__energy>  (25) 
-16.379999999999999

>  <m_primary>  (25) 
energy

$$$$
25:0
     RDKit          3D

 33 35  0  0  0  0  0  0  0  0999 V2000
   -4.7271   18.7235  -33.2958 H   0  0  0  0  0  0  0  0  0  0  0  0
   -5.0810   19.7300  -33.0280 C   0  0  0  0  0  0  0  0  0  0  0  0
   -4.2170   20.7800  -33.0430 N   0  0  0  0  0  0  0  0  0  0  0  0
   -4.6180   22.0390  -32.7210 C   0  0  0  0  0  0  0  0  0  0  0  0
   -3.8937   22.8666  -32.7420 H   0  0  0  0  0  0  0  0  0  0  0  0
   -5.9520   22.2870  -32.3620 C   0  0  0  0  0  0  0  0  0  0  0  0
   -6.3930   23.6750  -31.9840 C   0  0  0  0  0  0  0  0  0  0  0  0
   -7.1576   23.6095  -31.1959 H   0  0  0  0  0  0  0  0  0  0  0  0
   -6.8065   24.1709  -32.8745 H   0  0  0  0  0  0  0  0  0  0  0  0
   -5.2600   24.4580  -31.4910 N   0  0  0  0  0  0  0  0  0  0  0  0
   -4.5310   24.1450  -30.4610 C   0  0  0  0  0  0  0  0  0  0  0  0
   -3.4950   24.9490  -30.1090 N   0  0  0  0  0  0  0  0  0  0  0  0
   -2.7120   24.6720  -29.0320 C   0  0  0  0  0  0  0  0  0  0  0  0
   -1.6080   25.5430  -28.7400 N   0  0  0  0  0  0  0  0  0  0  0  0
   -1.2530   25.9950  -27.5710 C   0  0  0  0  0  0  0  0  0  0  0  0
   -1.9960   25.7360  -26.4560 N   0  0  0  0  0  0  0  0  0  0  0  0
   -1.6510   26.2210  -25.2320 C   0  0  0  0  0  0  0  0  0  0  0  0
   -2.2702   25.9870  -24.3535 H   0  0  0  0  0  0  0  0  0  0  0  0
   -0.5120   27.0150  -25.0910 C   0  0  0  0  0  0  0  0  0  0  0  0
   -0.2254   27.4068  -24.1039 H   0  0  0  0  0  0  0  0  0  0  0  0
    0.2590   27.3060  -26.2170 C   0  0  0  0  0  0  0  0  0  0  0  0
    1.1571   27.9340  -26.1222 H   0  0  0  0  0  0  0  0  0  0  0  0
   -0.1110   26.7990  -27.4640 C   0  0  0  0  0  0  0  0  0  0  0  0
    0.4900   27.0292  -28.3561 H   0  0  0  0  0  0  0  0  0  0  0  0
   -2.9530   23.5020  -28.2950 C   0  0  0  0  0  0  0  0  0  0  0  0
   -2.3123   23.2335  -27.4421 H   0  0  0  0  0  0  0  0  0  0  0  0
   -4.0220   22.6870  -28.6670 C   0  0  0  0  0  0  0  0  0  0  0  0
   -4.2426   21.7735  -28.0954 H   0  0  0  0  0  0  0  0  0  0  0  0
   -4.7900   23.0220  -29.7350 N   0  0  0  0  0  0  0  0  0  0  0  0
   -6.8520   21.2120  -32.3380 C   0  0  0  0  0  0  0  0  0  0  0  0
   -7.9016   21.3802  -32.0551 H   0  0  0  0  0  0  0  0  0  0  0  0
   -6.4170   19.9280  -32.6730 C   0  0  0  0  0  0  0  0  0  0  0  0
   -7.1193   19.0815  -32.6574 H   0  0  0  0  0  0  0  0  0  0  0  0
  1  2  1  0
  2  3  2  0
  3  4  1  0
  4  5  1  0
  4  6  2  0
  6  7  1  0
  7  8  1  0
  7  9  1  0
  7 10  1  0
 10 11  2  0
 11 12  1  0
 12 13  2  0
 13 14  1  0
 14 15  2  0
 15 16  1  0
 16 17  1  0
 17 18  1  0
 17 19  2  0
 19 20  1  0
 19 21  1  0
 21 22  1  0
 21 23  2  0
 23 24  1  0
 13 25  1  0
 25 26  1  0
 25 27  2  0
 27 28  1  0
 27 29  1  0
  6 30  1  0
 30 31  1  0
 30 32  2  0
 32 33  1  0
 32  2  1  0
 29 11  1  0
 23 15  1  0
M  CHG  2  16  -1  29  -1
M  END
>  <UniqueID>  (26) 
25

>  <SMILES>  (26) 
c1cc/c(=N/c2cc[n-]/c(=N\Cc3cccnc3)n2)[n-]c1

>  <Energy>  (26) 
44.10969139566497

>  <Genealogy>  (26) 
c1ccc(=Nc2cc[n-]c(=NCc3cccnc3)n2)[n-]c1 (protonated)
c1cc/c(=N/c2cc[n-]/c(=N\Cc3cccnc3)n2)[n-]c1 (cis-trans isomerization)
c1cc/c(=N/c2cc[n-]/c(=N\Cc3cccnc3)n2)[n-]c1 (3D coordinates assigned)
c1cc/c(=N/c2cc[n-]/c(=N\Cc3cccnc3)n2)[n-]c1 (optimized conformer: 44.10969139566497 kcal/mol)

>  <smiles>  (26) 
c1ccc(=Nc2cc[nH]c(=NCc3cccnc3)n2)[nH]c1

>  <score_type>  (26) 
oracle

>  <origin>  (26) 
adgpu

>  <m_score__min__energy>  (26) 
-9

>  <m_primary>  (26) 
energy

$$$$
26:0
     RDKit          3D

 48 51  0  0  0  0  0  0  0  0999 V2000
   -6.0950   17.0150  -30.8480 C   0  0  0  0  0  0  0  0  0  0  0  0
   -6.2880   18.0630  -31.9130 C   0  0  0  0  0  0  0  0  0  0  0  0
   -7.0310   19.2140  -31.5920 C   0  0  0  0  0  0  0  0  0  0  0  0
   -7.2690   20.1990  -32.5500 C   0  0  0  0  0  0  0  0  0  0  0  0
   -6.7680   20.0530  -33.8410 C   0  0  0  0  0  0  0  0  0  0  0  0
   -6.0190   18.9260  -34.1770 C   0  0  0  0  0  0  0  0  0  0  0  0
   -5.7550   17.9210  -33.2260 C   0  0  0  0  0  0  0  0  0  0  0  0
   -4.9250   16.7590  -33.6410 C   0  0  0  0  0  0  0  0  0  0  0  0
   -5.2320   15.5920  -33.2800 O   0  0  0  0  0  0  0  0  0  0  0  0
   -3.7790   16.9720  -34.4770 N   0  0  0  0  0  0  0  0  0  0  0  0
   -2.6680   17.8400  -34.2050 C   0  0  0  0  0  0  0  0  0  0  0  0
   -1.4280   17.6850  -34.8500 C   0  0  0  0  0  0  0  0  0  0  0  0
   -0.3680   18.5390  -34.5420 C   0  0  0  0  0  0  0  0  0  0  0  0
   -0.5260   19.5420  -33.5830 C   0  0  0  0  0  0  0  0  0  0  0  0
   -1.7500   19.6930  -32.9090 C   0  0  0  0  0  0  0  0  0  0  0  0
   -1.9160   20.7490  -31.8770 C   0  0  0  0  0  0  0  0  0  0  0  0
   -0.8460   21.0930  -31.0310 C   0  0  0  0  0  0  0  0  0  0  0  0
   -1.0000   22.0920  -30.0680 C   0  0  0  0  0  0  0  0  0  0  0  0
   -2.2210   22.7560  -29.9320 C   0  0  0  0  0  0  0  0  0  0  0  0
   -3.3060   22.4220  -30.7580 C   0  0  0  0  0  0  0  0  0  0  0  0
   -4.6000   23.1310  -30.6130 C   0  0  0  0  0  0  0  0  0  0  0  0
   -5.8010   22.3980  -30.6260 C   0  0  0  0  0  0  0  0  0  0  0  0
   -7.0310   23.0500  -30.4790 C   0  0  0  0  0  0  0  0  0  0  0  0
   -8.2100   22.3160  -30.4860 O   0  0  0  0  0  0  0  0  0  0  0  0
   -7.0720   24.4380  -30.3220 C   0  0  0  0  0  0  0  0  0  0  0  0
   -5.8870   25.1770  -30.3170 C   0  0  0  0  0  0  0  0  0  0  0  0
   -4.6540   24.5330  -30.4660 C   0  0  0  0  0  0  0  0  0  0  0  0
   -3.4920   25.2980  -30.4900 O   0  0  0  0  0  0  0  0  0  0  0  0
   -3.1440   21.4220  -31.7330 C   0  0  0  0  0  0  0  0  0  0  0  0
   -2.8140   18.8280  -33.2250 C   0  0  0  0  0  0  0  0  0  0  0  0
   -6.1808   17.4809  -29.8553 H   0  0  0  0  0  0  0  0  0  0  0  0
   -6.8649   16.2368  -30.9556 H   0  0  0  0  0  0  0  0  0  0  0  0
   -5.0983   16.5621  -30.9556 H   0  0  0  0  0  0  0  0  0  0  0  0
   -7.4286   19.3382  -30.5739 H   0  0  0  0  0  0  0  0  0  0  0  0
   -7.8534   21.0926  -32.2855 H   0  0  0  0  0  0  0  0  0  0  0  0
   -6.9634   20.8279  -34.5968 H   0  0  0  0  0  0  0  0  0  0  0  0
   -5.6285   18.8201  -35.1999 H   0  0  0  0  0  0  0  0  0  0  0  0
   -1.2934   16.8898  -35.5981 H   0  0  0  0  0  0  0  0  0  0  0  0
    0.5968   18.4215  -35.0572 H   0  0  0  0  0  0  0  0  0  0  0  0
    0.3117   20.2171  -33.3541 H   0  0  0  0  0  0  0  0  0  0  0  0
    0.1177   20.5718  -31.1288 H   0  0  0  0  0  0  0  0  0  0  0  0
   -0.1563   22.3571  -29.4138 H   0  0  0  0  0  0  0  0  0  0  0  0
   -2.3332   23.5449  -29.1737 H   0  0  0  0  0  0  0  0  0  0  0  0
   -5.7732   21.3057  -30.7525 H   0  0  0  0  0  0  0  0  0  0  0  0
   -8.0387   24.9490  -30.2022 H   0  0  0  0  0  0  0  0  0  0  0  0
   -5.9232   26.2697  -30.1954 H   0  0  0  0  0  0  0  0  0  0  0  0
   -3.9866   21.1625  -32.3909 H   0  0  0  0  0  0  0  0  0  0  0  0
   -3.7725   18.9298  -32.6950 H   0  0  0  0  0  0  0  0  0  0  0  0
  1  2  1  0
  2  3  2  0
  3  4  1  0
  4  5  2  0
  5  6  1  0
  6  7  2  0
  7  8  1  0
  8  9  2  0
  8 10  1  0
 10 11  1  0
 11 12  2  0
 12 13  1  0
 13 14  2  0
 14 15  1  0
 15 16  1  0
 16 17  2  0
 17 18  1  0
 18 19  2  0
 19 20  1  0
 20 21  1  0
 21 22  2  0
 22 23  1  0
 23 24  1  0
 23 25  2  0
 25 26  1  0
 26 27  2  0
 27 28  1  0
 20 29  2  0
 15 30  2  0
  7  2  1  0
 30 11  1  0
 29 16  1  0
 27 21  1  0
  1 31  1  0
  1 32  1  0
  1 33  1  0
  3 34  1  0
  4 35  1  0
  5 36  1  0
  6 37  1  0
 12 38  1  0
 13 39  1  0
 14 40  1  0
 17 41  1  0
 18 42  1  0
 19 43  1  0
 22 44  1  0
 25 45  1  0
 26 46  1  0
 29 47  1  0
 30 48  1  0
M  CHG  3  10  -1  24  -1  28  -1
M  END
>  <UniqueID>  (27) 
26

>  <SMILES>  (27) 
Cc1ccccc1C(=O)[N-]c1cccc(-c2cccc(-c3cc([O-])ccc3[O-])c2)c1

>  <Energy>  (27) 
73.16332472729196

>  <Genealogy>  (27) 
Cc1ccccc1C(=O)[N-]c1cccc(-c2cccc(-c3cc([O-])ccc3[O-])c2)c1 (protonated)
Cc1ccccc1C(=O)[N-]c1cccc(-c2cccc(-c3cc([O-])ccc3[O-])c2)c1 (3D coordinates assigned)
Cc1ccccc1C(=O)[N-]c1cccc(-c2cccc(-c3cc([O-])ccc3[O-])c2)c1 (optimized conformer: 73.16332472729196 kcal/mol)

>  <smiles>  (27) 
Cc1ccccc1C(=O)Nc1cccc(-c2cccc(-c3cc(O)ccc3O)c2)c1

>  <score_type>  (27) 
oracle

>  <origin>  (27) 
adgpu

>  <m_score__min__energy>  (27) 
-12.970000000000001

>  <m_primary>  (27) 
energy

$$$$
27:0
     RDKit          3D

 36 37  0  0  0  0  0  0  0  0999 V2000
   -3.0290   19.7530  -27.1160 C   0  0  0  0  0  0  0  0  0  0  0  0
   -2.6020   20.9990  -27.8160 C   0  0  0  0  0  0  0  0  0  0  0  0
   -1.4840   21.1290  -28.6310 C   0  0  0  0  0  0  0  0  0  0  0  0
   -1.3770   22.3920  -29.2250 C   0  0  0  0  0  0  0  0  0  0  0  0
   -2.4130   23.2560  -28.8790 C   0  0  0  0  0  0  0  0  0  0  0  0
   -2.5860   24.6300  -29.3870 C   0  0  0  0  0  0  0  0  0  0  0  0
   -1.8540   25.5490  -28.9360 O   0  0  0  0  0  0  0  0  0  0  0  0
   -3.5260   24.9420  -30.4250 N   0  0  0  0  0  0  0  0  0  0  0  0
   -4.6160   24.1130  -30.8510 C   0  0  0  0  0  0  0  0  0  0  0  0
   -5.9260   24.5780  -30.6880 C   0  0  0  0  0  0  0  0  0  0  0  0
   -7.0090   23.7880  -31.0840 C   0  0  0  0  0  0  0  0  0  0  0  0
   -6.7910   22.5220  -31.6320 C   0  0  0  0  0  0  0  0  0  0  0  0
   -5.4850   22.0340  -31.7740 C   0  0  0  0  0  0  0  0  0  0  0  0
   -5.1890   20.4390  -32.4630 S   0  0  0  0  0  0  0  0  0  0  0  0
   -3.9290   20.4590  -33.2860 O   0  0  0  0  0  0  0  0  0  0  0  0
   -5.0210   19.4600  -31.3350 O   0  0  0  0  0  0  0  0  0  0  0  0
   -6.5410   19.9670  -33.4620 N   0  0  0  0  0  0  0  0  0  0  0  0
   -6.1150   18.9170  -34.3970 C   0  0  0  0  0  0  0  0  0  0  0  0
   -7.6260   19.4690  -32.6080 C   0  0  0  0  0  0  0  0  0  0  0  0
   -4.4010   22.8250  -31.3740 C   0  0  0  0  0  0  0  0  0  0  0  0
   -3.4760   22.4340  -27.8600 S   0  0  0  0  0  0  0  0  0  0  0  0
   -2.9762   19.9071  -26.0281 H   0  0  0  0  0  0  0  0  0  0  0  0
   -4.0625   19.5077  -27.4018 H   0  0  0  0  0  0  0  0  0  0  0  0
   -2.3632   18.9253  -27.4018 H   0  0  0  0  0  0  0  0  0  0  0  0
   -0.7560   20.3204  -28.7931 H   0  0  0  0  0  0  0  0  0  0  0  0
   -0.5550   22.6745  -29.8992 H   0  0  0  0  0  0  0  0  0  0  0  0
   -6.1041   25.5696  -30.2463 H   0  0  0  0  0  0  0  0  0  0  0  0
   -8.0356   24.1644  -30.9637 H   0  0  0  0  0  0  0  0  0  0  0  0
   -7.6452   21.9074  -31.9524 H   0  0  0  0  0  0  0  0  0  0  0  0
   -5.7605   18.0433  -33.8304 H   0  0  0  0  0  0  0  0  0  0  0  0
   -6.9650   18.6231  -35.0303 H   0  0  0  0  0  0  0  0  0  0  0  0
   -5.3005   19.2984  -35.0303 H   0  0  0  0  0  0  0  0  0  0  0  0
   -7.3486   19.5963  -31.5512 H   0  0  0  0  0  0  0  0  0  0  0  0
   -8.5459   20.0350  -32.8164 H   0  0  0  0  0  0  0  0  0  0  0  0
   -7.7966   18.4025  -32.8164 H   0  0  0  0  0  0  0  0  0  0  0  0
   -3.3760   22.4372  -31.4692 H   0  0  0  0  0  0  0  0  0  0  0  0
  1  2  1  0
  2  3  2  0
  3  4  1  0
  4  5  2  0
  5  6  1  0
  6  7  2  0
  6  8  1  0
  8  9  1  0
  9 10  2  0
 10 11  1  0
 11 12  2  0
 12 13  1  0
 13 14  1  0
 14 15  2  0
 14 16  2  0
 14 17  1  0
 17 18  1  0
 17 19  1  0
 13 20  2  0
  5 21  1  0
 21  2  1  0
 20  9  1  0
  1 22  1  0
  1 23  1  0
  1 24  1  0
  3 25  1  0
  4 26  1  0
 10 27  1  0
 11 28  1  0
 12 29  1  0
 18 30  1  0
 18 31  1  0
 18 32  1  0
 19 33  1  0
 19 34  1  0
 19 35  1  0
 20 36  1  0
M  CHG  1   8  -1
M  END
>  <UniqueID>  (28) 
27

>  <SMILES>  (28) 
Cc1ccc(C(=O)[N-]c2cccc(S(=O)(=O)N(C)C)c2)s1

>  <Energy>  (28) 
63.16599673444951

>  <Genealogy>  (28) 
Cc1ccc(C(=O)[N-]c2cccc(S(=O)(=O)N(C)C)c2)s1 (protonated)
Cc1ccc(C(=O)[N-]c2cccc(S(=O)(=O)N(C)C)c2)s1 (3D coordinates assigned)
Cc1ccc(C(=O)[N-]c2cccc(S(=O)(=O)N(C)C)c2)s1 (optimized conformer: 63.16599673444951 kcal/mol)

>  <smiles>  (28) 
Cc1ccc(C(=O)Nc2cccc(S(=O)(=O)N(C)C)c2)s1

>  <score_type>  (28) 
oracle

>  <origin>  (28) 
adgpu

>  <m_score__min__energy>  (28) 
-9.4299999999999997

>  <m_primary>  (28) 
energy

$$$$
28:0
     RDKit          3D

 48 50  0  0  0  0  0  0  0  0999 V2000
   -9.4910   19.3100  -32.7120 C   0  0  0  0  0  0  0  0  0  0  0  0
   -8.2600   19.6680  -31.9980 N   0  0  0  0  0  0  0  0  0  0  0  0
   -7.4290   18.5850  -31.4460 C   0  0  0  0  0  0  0  0  0  0  0  0
   -6.3970   18.1010  -32.4390 C   0  0  0  0  0  0  0  0  0  0  0  0
   -6.2660   18.7530  -33.6700 C   0  0  0  0  0  0  0  0  0  0  0  0
   -5.3420   18.2880  -34.6080 C   0  0  0  0  0  0  0  0  0  0  0  0
   -4.5640   17.1960  -34.3410 N   0  0  0  0  0  0  0  0  0  0  0  0
   -3.6110   16.7200  -35.3530 C   0  0  0  0  0  0  0  0  0  0  0  0
   -4.6960   16.5270  -33.1520 C   0  0  0  0  0  0  0  0  0  0  0  0
   -3.9970   15.5050  -32.9100 O   0  0  0  0  0  0  0  0  0  0  0  0
   -5.6120   16.9660  -32.1910 C   0  0  0  0  0  0  0  0  0  0  0  0
   -7.8930   21.0600  -31.8290 C   0  0  0  0  0  0  0  0  0  0  0  0
   -8.8420   22.0850  -32.0070 C   0  0  0  0  0  0  0  0  0  0  0  0
   -8.4850   23.4240  -31.8340 C   0  0  0  0  0  0  0  0  0  0  0  0
   -7.1790   23.7620  -31.4830 C   0  0  0  0  0  0  0  0  0  0  0  0
   -6.2160   22.7620  -31.3050 C   0  0  0  0  0  0  0  0  0  0  0  0
   -4.5620   23.1900  -30.8540 S   0  0  0  0  0  0  0  0  0  0  0  0
   -4.3520   24.6580  -31.1010 O   0  0  0  0  0  0  0  0  0  0  0  0
   -4.3750   22.9370  -29.3840 O   0  0  0  0  0  0  0  0  0  0  0  0
   -3.3590   22.2880  -31.7430 N   0  0  0  0  0  0  0  0  0  0  0  0
   -3.0180   21.0280  -31.0840 C   0  0  0  0  0  0  0  0  0  0  0  0
   -2.5090   20.0970  -32.1740 C   0  0  0  0  0  0  0  0  0  0  0  0
   -3.0330   20.6810  -33.4790 C   0  0  0  0  0  0  0  0  0  0  0  0
   -3.8240   21.9170  -33.0770 C   0  0  0  0  0  0  0  0  0  0  0  0
   -6.5780   21.4170  -31.4680 C   0  0  0  0  0  0  0  0  0  0  0  0
  -10.2831   19.0796  -31.9844 H   0  0  0  0  0  0  0  0  0  0  0  0
   -9.8071   20.1534  -33.3434 H   0  0  0  0  0  0  0  0  0  0  0  0
   -9.3055   18.4286  -33.3434 H   0  0  0  0  0  0  0  0  0  0  0  0
   -6.9119   18.9561  -30.5488 H   0  0  0  0  0  0  0  0  0  0  0  0
   -8.0897   17.7397  -31.2033 H   0  0  0  0  0  0  0  0  0  0  0  0
   -6.8895   19.6300  -33.8984 H   0  0  0  0  0  0  0  0  0  0  0  0
   -5.2389   18.8062  -35.5728 H   0  0  0  0  0  0  0  0  0  0  0  0
   -2.7342   16.2820  -34.8536 H   0  0  0  0  0  0  0  0  0  0  0  0
   -4.0940   15.9573  -35.9815 H   0  0  0  0  0  0  0  0  0  0  0  0
   -3.2914   17.5643  -35.9815 H   0  0  0  0  0  0  0  0  0  0  0  0
   -5.7167   16.4213  -31.2411 H   0  0  0  0  0  0  0  0  0  0  0  0
   -9.8749   21.8284  -32.2851 H   0  0  0  0  0  0  0  0  0  0  0  0
   -9.2368   24.2145  -31.9752 H   0  0  0  0  0  0  0  0  0  0  0  0
   -6.9043   24.8182  -31.3454 H   0  0  0  0  0  0  0  0  0  0  0  0
   -2.2354   21.1933  -30.3289 H   0  0  0  0  0  0  0  0  0  0  0  0
   -3.8899   20.5991  -30.5684 H   0  0  0  0  0  0  0  0  0  0  0  0
   -1.4093   20.0725  -32.1771 H   0  0  0  0  0  0  0  0  0  0  0  0
   -2.8502   19.0624  -32.0217 H   0  0  0  0  0  0  0  0  0  0  0  0
   -2.1983   20.9561  -34.1406 H   0  0  0  0  0  0  0  0  0  0  0  0
   -3.6527   19.9594  -34.0315 H   0  0  0  0  0  0  0  0  0  0  0  0
   -3.6365   22.7362  -33.7868 H   0  0  0  0  0  0  0  0  0  0  0  0
   -4.9057   21.7171  -33.0811 H   0  0  0  0  0  0  0  0  0  0  0  0
   -5.8256   20.6299  -31.3120 H   0  0  0  0  0  0  0  0  0  0  0  0
  1  2  1  0
  2  3  1  0
  3  4  1  0
  4  5  1  0
  5  6  2  0
  6  7  1  0
  7  8  1  0
  7  9  1  0
  9 10  2  0
  9 11  1  0
  2 12  1  0
 12 13  2  0
 13 14  1  0
 14 15  2  0
 15 16  1  0
 16 17  1  0
 17 18  2  0
 17 19  2  0
 17 20  1  0
 20 21  1  0
 21 22  1  0
 22 23  1  0
 23 24  1  0
 16 25  2  0
 11  4  2  0
 25 12  1  0
 24 20  1  0
  1 26  1  0
  1 27  1  0
  1 28  1  0
  3 29  1  0
  3 30  1  0
  5 31  1  0
  6 32  1  0
  8 33  1  0
  8 34  1  0
  8 35  1  0
 11 36  1  0
 13 37  1  0
 14 38  1  0
 15 39  1  0
 21 40  1  0
 21 41  1  0
 22 42  1  0
 22 43  1  0
 23 44  1  0
 23 45  1  0
 24 46  1  0
 24 47  1  0
 25 48  1  0
M  END
>  <UniqueID>  (29) 
28

>  <SMILES>  (29) 
CN(Cc1ccn(C)c(=O)c1)c1cccc(S(=O)(=O)N2CCCC2)c1

>  <Energy>  (29) 
54.788465620226965

>  <Genealogy>  (29) 
CN(Cc1ccn(C)c(=O)c1)c1cccc(S(=O)(=O)N2CCCC2)c1 (3D coordinates assigned)
CN(Cc1ccn(C)c(=O)c1)c1cccc(S(=O)(=O)N2CCCC2)c1 (nonaromatic ring conformer: 54.788465620226965 kcal/mol)

>  <smiles>  (29) 
CN(Cc1ccn(C)c(=O)c1)c1cccc(S(=O)(=O)N2CCCC2)c1

>  <score_type>  (29) 
oracle

>  <origin>  (29) 
adgpu

>  <m_score__min__energy>  (29) 
-8.9800000000000004

>  <m_primary>  (29) 
energy

$$$$
29:0
     RDKit          3D

 61 64  0  0  0  0  0  0  0  0999 V2000
   -6.9710   24.6700  -29.9250 O   0  0  0  0  0  0  0  0  0  0  0  0
   -5.7600   24.5030  -30.7990 S   0  0  0  0  0  0  0  0  0  0  0  0
   -5.3570   25.8580  -31.3110 O   0  0  0  0  0  0  0  0  0  0  0  0
   -6.1540   23.4530  -32.1220 N   0  0  0  0  0  0  0  0  0  0  0  0
   -7.0680   22.3540  -31.9910 C   0  0  0  0  0  0  0  0  0  0  0  0
   -8.4310   22.5620  -31.7210 C   0  0  0  0  0  0  0  0  0  0  0  0
   -9.2940   21.4730  -31.5760 C   0  0  0  0  0  0  0  0  0  0  0  0
   -8.8090   20.1690  -31.7040 C   0  0  0  0  0  0  0  0  0  0  0  0
   -7.4530   19.9480  -31.9750 C   0  0  0  0  0  0  0  0  0  0  0  0
   -6.8450   18.3040  -32.1880 S   0  0  0  0  0  0  0  0  0  0  0  0
   -7.9790   17.4130  -32.6140 O   0  0  0  0  0  0  0  0  0  0  0  0
   -6.3280   17.7960  -30.8710 O   0  0  0  0  0  0  0  0  0  0  0  0
   -5.5490   18.2330  -33.3600 N   0  0  0  0  0  0  0  0  0  0  0  0
   -5.1310   16.8420  -33.5920 C   0  0  0  0  0  0  0  0  0  0  0  0
   -4.0090   16.7970  -34.6510 C   0  0  0  0  0  0  0  0  0  0  0  0
   -3.5320   18.0890  -34.9860 O   0  0  0  0  0  0  0  0  0  0  0  0
   -3.1720   18.7870  -33.8110 C   0  0  0  0  0  0  0  0  0  0  0  0
   -4.4050   19.0500  -32.9230 C   0  0  0  0  0  0  0  0  0  0  0  0
   -6.5860   21.0420  -32.1080 C   0  0  0  0  0  0  0  0  0  0  0  0
   -4.4640   23.7800  -29.8500 C   0  0  0  0  0  0  0  0  0  0  0  0
   -4.5000   22.4140  -29.5440 C   0  0  0  0  0  0  0  0  0  0  0  0
   -3.4570   21.8280  -28.8240 C   0  0  0  0  0  0  0  0  0  0  0  0
   -2.3670   22.6000  -28.4150 C   0  0  0  0  0  0  0  0  0  0  0  0
   -2.3160   23.9660  -28.7270 C   0  0  0  0  0  0  0  0  0  0  0  0
   -0.9140   24.9290  -28.2570 S   0  0  0  0  0  0  0  0  0  0  0  0
    0.3400   24.2440  -28.7270 O   0  0  0  0  0  0  0  0  0  0  0  0
   -0.9890   26.2720  -28.9270 O   0  0  0  0  0  0  0  0  0  0  0  0
   -0.8400   25.1440  -26.5260 N   0  0  0  0  0  0  0  0  0  0  0  0
   -1.8200   26.1670  -26.0980 C   0  0  0  0  0  0  0  0  0  0  0  0
   -1.5860   26.6350  -24.6450 C   0  0  0  0  0  0  0  0  0  0  0  0
   -0.7040   25.6540  -23.8690 C   0  0  0  0  0  0  0  0  0  0  0  0
    0.6460   25.4420  -24.5780 C   0  0  0  0  0  0  0  0  0  0  0  0
    0.5220   25.5160  -26.1110 C   0  0  0  0  0  0  0  0  0  0  0  0
   -3.3700   24.5540  -29.4400 C   0  0  0  0  0  0  0  0  0  0  0  0
   -5.9140   23.7940  -33.0800 H   0  0  0  0  0  0  0  0  0  0  0  0
   -8.8201   23.5862  -31.6234 H   0  0  0  0  0  0  0  0  0  0  0  0
  -10.3592   21.6428  -31.3603 H   0  0  0  0  0  0  0  0  0  0  0  0
   -9.4931   19.3149  -31.5918 H   0  0  0  0  0  0  0  0  0  0  0  0
   -4.7603   16.4112  -32.6502 H   0  0  0  0  0  0  0  0  0  0  0  0
   -5.9926   16.2619  -33.9542 H   0  0  0  0  0  0  0  0  0  0  0  0
   -3.1723   16.2030  -34.2546 H   0  0  0  0  0  0  0  0  0  0  0  0
   -4.4260   16.3457  -35.5634 H   0  0  0  0  0  0  0  0  0  0  0  0
   -2.4433   18.1875  -33.2458 H   0  0  0  0  0  0  0  0  0  0  0  0
   -2.7354   19.7547  -34.0989 H   0  0  0  0  0  0  0  0  0  0  0  0
   -4.1591   18.7978  -31.8809 H   0  0  0  0  0  0  0  0  0  0  0  0
   -4.6787   20.1122  -33.0060 H   0  0  0  0  0  0  0  0  0  0  0  0
   -5.5178   20.8697  -32.3060 H   0  0  0  0  0  0  0  0  0  0  0  0
   -5.3524   21.8008  -29.8718 H   0  0  0  0  0  0  0  0  0  0  0  0
   -3.4937   20.7564  -28.5784 H   0  0  0  0  0  0  0  0  0  0  0  0
   -1.5473   22.1355  -27.8472 H   0  0  0  0  0  0  0  0  0  0  0  0
   -1.7378   27.0365  -26.7667 H   0  0  0  0  0  0  0  0  0  0  0  0
   -2.8211   25.7138  -26.1472 H   0  0  0  0  0  0  0  0  0  0  0  0
   -1.0948   27.6191  -24.6623 H   0  0  0  0  0  0  0  0  0  0  0  0
   -2.5623   26.6904  -24.1413 H   0  0  0  0  0  0  0  0  0  0  0  0
   -0.5214   26.0550  -22.8611 H   0  0  0  0  0  0  0  0  0  0  0  0
   -1.2243   24.6865  -23.8118 H   0  0  0  0  0  0  0  0  0  0  0  0
    1.3473   26.2202  -24.2424 H   0  0  0  0  0  0  0  0  0  0  0  0
    1.0064   24.4355  -24.3189 H   0  0  0  0  0  0  0  0  0  0  0  0
    0.7366   26.5421  -26.4444 H   0  0  0  0  0  0  0  0  0  0  0  0
    1.2404   24.8174  -26.5648 H   0  0  0  0  0  0  0  0  0  0  0  0
   -3.3383   25.6273  -29.6787 H   0  0  0  0  0  0  0  0  0  0  0  0
  1  2  2  0
  2  3  2  0
  2  4  1  0
  4  5  1  0
  5  6  2  0
  6  7  1  0
  7  8  2  0
  8  9  1  0
  9 10  1  0
 10 11  2  0
 10 12  2  0
 10 13  1  0
 13 14  1  0
 14 15  1  0
 15 16  1  0
 16 17  1  0
 17 18  1  0
  9 19  2  0
  2 20  1  0
 20 21  2  0
 21 22  1  0
 22 23  2  0
 23 24  1  0
 24 25  1  0
 25 26  2  0
 25 27  2  0
 25 28  1  0
 28 29  1  0
 29 30  1  0
 30 31  1  0
 31 32  1  0
 32 33  1  0
 24 34  2  0
 19  5  1  0
 34 20  1  0
 18 13  1  0
 33 28  1  0
  4 35  1  0
  6 36  1  0
  7 37  1  0
  8 38  1  0
 14 39  1  0
 14 40  1  0
 15 41  1  0
 15 42  1  0
 17 43  1  0
 17 44  1  0
 18 45  1  0
 18 46  1  0
 19 47  1  0
 21 48  1  0
 22 49  1  0
 23 50  1  0
 29 51  1  0
 29 52  1  0
 30 53  1  0
 30 54  1  0
 31 55  1  0
 31 56  1  0
 32 57  1  0
 32 58  1  0
 33 59  1  0
 33 60  1  0
 34 61  1  0
M  END
>  <UniqueID>  (30) 
29

>  <SMILES>  (30) 
O=S(=O)(Nc1cccc(S(=O)(=O)N2CCOCC2)c1)c1cccc(S(=O)(=O)N2CCCCC2)c1

>  <Energy>  (30) 
69.95414463563597

>  <Genealogy>  (30) 
O=S(=O)(Nc1cccc(S(=O)(=O)N2CCOCC2)c1)c1cccc(S(=O)(=O)N2CCCCC2)c1 (3D coordinates assigned)
O=S(=O)(Nc1cccc(S(=O)(=O)N2CCOCC2)c1)c1cccc(S(=O)(=O)N2CCCCC2)c1 (nonaromatic ring conformer: 69.95414463563597 kcal/mol)

>  <smiles>  (30) 
O=S(=O)(Nc1cccc(S(=O)(=O)N2CCOCC2)c1)c1cccc(S(=O)(=O)N2CCCCC2)c1

>  <score_type>  (30) 
oracle

>  <origin>  (30) 
adgpu

>  <m_score__min__energy>  (30) 
-12.140000000000001

>  <m_primary>  (30) 
energy

$$$$
30:0
     RDKit          3D

 45 48  0  0  0  0  0  0  0  0999 V2000
   -4.4030   19.8400  -34.0480 O   0  0  0  0  0  0  0  0  0  0  0  0
   -4.7710   20.1690  -32.8850 C   0  0  0  0  0  0  0  0  0  0  0  0
   -3.8320   20.9090  -32.0070 C   0  0  0  0  0  0  0  0  0  0  0  0
   -2.5580   20.3830  -31.7250 C   0  0  0  0  0  0  0  0  0  0  0  0
   -1.6640   21.0910  -30.9160 C   0  0  0  0  0  0  0  0  0  0  0  0
   -2.0290   22.3290  -30.3820 C   0  0  0  0  0  0  0  0  0  0  0  0
   -3.2910   22.8720  -30.6610 C   0  0  0  0  0  0  0  0  0  0  0  0
   -3.7370   24.4490  -30.0060 S   0  0  0  0  0  0  0  0  0  0  0  0
   -4.3540   25.2880  -31.0980 O   0  0  0  0  0  0  0  0  0  0  0  0
   -4.7630   24.2420  -28.9180 O   0  0  0  0  0  0  0  0  0  0  0  0
   -2.3690   25.2970  -29.3380 N   0  0  0  0  0  0  0  0  0  0  0  0
   -1.5730   24.8200  -28.2420 C   0  0  0  0  0  0  0  0  0  0  0  0
   -0.2550   24.3780  -28.4410 C   0  0  0  0  0  0  0  0  0  0  0  0
    0.5090   23.9150  -27.3650 C   0  0  0  0  0  0  0  0  0  0  0  0
   -0.0320   23.9060  -26.0780 C   0  0  0  0  0  0  0  0  0  0  0  0
   -1.3310   24.3770  -25.8610 C   0  0  0  0  0  0  0  0  0  0  0  0
   -2.1020   24.8440  -26.9350 C   0  0  0  0  0  0  0  0  0  0  0  0
   -3.3950   25.3130  -26.6840 O   0  0  0  0  0  0  0  0  0  0  0  0
   -4.1860   22.1640  -31.4760 C   0  0  0  0  0  0  0  0  0  0  0  0
   -6.1160   19.8830  -32.4730 N   0  0  0  0  0  0  0  0  0  0  0  0
   -6.6200   18.5360  -32.2010 C   0  0  0  0  0  0  0  0  0  0  0  0
   -8.1300   18.7020  -31.8950 C   0  0  0  0  0  0  0  0  0  0  0  0
   -8.3270   20.1790  -31.9170 C   0  0  0  0  0  0  0  0  0  0  0  0
   -9.4900   20.8970  -31.6240 C   0  0  0  0  0  0  0  0  0  0  0  0
   -9.4390   22.3000  -31.6580 C   0  0  0  0  0  0  0  0  0  0  0  0
   -8.2330   22.9580  -31.9700 C   0  0  0  0  0  0  0  0  0  0  0  0
   -7.0760   22.2150  -32.2610 C   0  0  0  0  0  0  0  0  0  0  0  0
   -7.1630   20.8180  -32.2500 C   0  0  0  0  0  0  0  0  0  0  0  0
   -2.2635   19.4092  -32.1433 H   0  0  0  0  0  0  0  0  0  0  0  0
   -0.6703   20.6718  -30.6994 H   0  0  0  0  0  0  0  0  0  0  0  0
   -1.3245   22.8792  -29.7410 H   0  0  0  0  0  0  0  0  0  0  0  0
    0.1799   24.3961  -29.4512 H   0  0  0  0  0  0  0  0  0  0  0  0
    1.5359   23.5580  -27.5327 H   0  0  0  0  0  0  0  0  0  0  0  0
    0.5638   23.5282  -25.2340 H   0  0  0  0  0  0  0  0  0  0  0  0
   -1.7494   24.3811  -24.8437 H   0  0  0  0  0  0  0  0  0  0  0  0
   -4.0160   25.6190  -27.4260 H   0  0  0  0  0  0  0  0  0  0  0  0
   -5.1733   22.5929  -31.7024 H   0  0  0  0  0  0  0  0  0  0  0  0
   -6.4763   17.8890  -33.0789 H   0  0  0  0  0  0  0  0  0  0  0  0
   -6.0866   18.0669  -31.3611 H   0  0  0  0  0  0  0  0  0  0  0  0
   -8.7438   18.2116  -32.6649 H   0  0  0  0  0  0  0  0  0  0  0  0
   -8.4275   18.2434  -30.9404 H   0  0  0  0  0  0  0  0  0  0  0  0
  -10.4247   20.3745  -31.3723 H   0  0  0  0  0  0  0  0  0  0  0  0
  -10.3435   22.8870  -31.4404 H   0  0  0  0  0  0  0  0  0  0  0  0
   -8.1967   24.0573  -31.9859 H   0  0  0  0  0  0  0  0  0  0  0  0
   -6.1257   22.7188  -32.4917 H   0  0  0  0  0  0  0  0  0  0  0  0
  1  2  2  0
  2  3  1  0
  3  4  2  0
  4  5  1  0
  5  6  2  0
  6  7  1  0
  7  8  1  0
  8  9  2  0
  8 10  2  0
  8 11  1  0
 11 12  1  0
 12 13  2  0
 13 14  1  0
 14 15  2  0
 15 16  1  0
 16 17  2  0
 17 18  1  0
  7 19  2  0
  2 20  1  0
 20 21  1  0
 21 22  1  0
 22 23  1  0
 23 24  2  0
 24 25  1  0
 25 26  2  0
 26 27  1  0
 27 28  2  0
 19  3  1  0
 28 20  1  0
 17 12  1  0
 28 23  1  0
  4 29  1  0
  5 30  1  0
  6 31  1  0
 13 32  1  0
 14 33  1  0
 15 34  1  0
 16 35  1  0
 18 36  1  0
 19 37  1  0
 21 38  1  0
 21 39  1  0
 22 40  1  0
 22 41  1  0
 24 42  1  0
 25 43  1  0
 26 44  1  0
 27 45  1  0
M  CHG  1  11  -1
M  END
>  <UniqueID>  (31) 
30

>  <SMILES>  (31) 
O=C(c1cccc(S(=O)(=O)[N-]c2ccccc2O)c1)N1CCc2ccccc21

>  <Energy>  (31) 
77.26872373971297

>  <Genealogy>  (31) 
O=C(c1cccc(S(=O)(=O)[N-]c2ccccc2O)c1)N1CCc2ccccc21 (protonated)
O=C(c1cccc(S(=O)(=O)[N-]c2ccccc2O)c1)N1CCc2ccccc21 (3D coordinates assigned)
O=C(c1cccc(S(=O)(=O)[N-]c2ccccc2O)c1)N1CCc2ccccc21 (nonaromatic ring conformer: 77.26872373971297 kcal/mol)

>  <smiles>  (31) 
O=C(c1cccc(S(=O)(=O)Nc2ccccc2O)c1)N1CCc2ccccc21

>  <score_type>  (31) 
oracle

>  <origin>  (31) 
adgpu

>  <m_score__min__energy>  (31) 
-11.56

>  <m_primary>  (31) 
energy

$$$$
31:0
     RDKit          3D

 59 62  0  0  0  0  0  0  0  0999 V2000
   -2.1330   19.3980  -34.1350 C   0  0  0  0  0  0  0  0  0  0  0  0
   -2.7500   20.2770  -33.0880 C   0  0  0  0  0  0  0  0  0  0  0  0
   -2.4950   20.0310  -31.7300 C   0  0  0  0  0  0  0  0  0  0  0  0
   -3.0460   20.8580  -30.7470 C   0  0  0  0  0  0  0  0  0  0  0  0
   -3.8540   21.9480  -31.1100 C   0  0  0  0  0  0  0  0  0  0  0  0
   -4.4410   22.7850  -30.1000 N   0  0  0  0  0  0  0  0  0  0  0  0
   -4.0930   22.5980  -28.6890 C   0  0  0  0  0  0  0  0  0  0  0  0
   -3.1600   23.6890  -28.2400 C   0  0  0  0  0  0  0  0  0  0  0  0
   -3.3370   24.2960  -26.9870 C   0  0  0  0  0  0  0  0  0  0  0  0
   -2.4410   25.2760  -26.5470 C   0  0  0  0  0  0  0  0  0  0  0  0
   -1.3610   25.6480  -27.3530 C   0  0  0  0  0  0  0  0  0  0  0  0
   -1.1720   25.0390  -28.5970 C   0  0  0  0  0  0  0  0  0  0  0  0
   -2.0650   24.0600  -29.0390 C   0  0  0  0  0  0  0  0  0  0  0  0
   -5.6860   23.9210  -30.5320 S   0  0  0  0  0  0  0  0  0  0  0  0
   -6.1090   24.7060  -29.3230 O   0  0  0  0  0  0  0  0  0  0  0  0
   -5.1540   24.8690  -31.5680 O   0  0  0  0  0  0  0  0  0  0  0  0
   -7.0870   23.0480  -31.1430 C   0  0  0  0  0  0  0  0  0  0  0  0
   -8.2020   23.7380  -31.6390 C   0  0  0  0  0  0  0  0  0  0  0  0
   -9.2830   23.0290  -32.1660 C   0  0  0  0  0  0  0  0  0  0  0  0
   -9.2580   21.6330  -32.2040 C   0  0  0  0  0  0  0  0  0  0  0  0
   -8.1500   20.9240  -31.7030 C   0  0  0  0  0  0  0  0  0  0  0  0
   -8.1340   19.4390  -31.7620 C   0  0  0  0  0  0  0  0  0  0  0  0
   -8.7230   18.7910  -30.8520 O   0  0  0  0  0  0  0  0  0  0  0  0
   -7.4870   18.7270  -32.8480 N   0  0  0  0  0  0  0  0  0  0  0  0
   -6.4120   19.5420  -33.4470 C   0  0  0  0  0  0  0  0  0  0  0  0
   -5.7230   18.7710  -34.5980 C   0  0  0  0  0  0  0  0  0  0  0  0
   -6.1330   17.4160  -34.6660 O   0  0  0  0  0  0  0  0  0  0  0  0
   -5.9890   16.8070  -33.4000 C   0  0  0  0  0  0  0  0  0  0  0  0
   -6.9490   17.4370  -32.3670 C   0  0  0  0  0  0  0  0  0  0  0  0
   -7.0610   21.6480  -31.1780 C   0  0  0  0  0  0  0  0  0  0  0  0
   -4.0970   22.2010  -32.4690 C   0  0  0  0  0  0  0  0  0  0  0  0
   -3.5450   21.3750  -33.4530 C   0  0  0  0  0  0  0  0  0  0  0  0
   -1.5662   18.5906  -33.6484 H   0  0  0  0  0  0  0  0  0  0  0  0
   -2.9252   18.9634  -34.7623 H   0  0  0  0  0  0  0  0  0  0  0  0
   -1.4550   19.9954  -34.7623 H   0  0  0  0  0  0  0  0  0  0  0  0
   -1.8582   19.1830  -31.4377 H   0  0  0  0  0  0  0  0  0  0  0  0
   -2.8460   20.6543  -29.6847 H   0  0  0  0  0  0  0  0  0  0  0  0
   -5.0090   22.6289  -28.0808 H   0  0  0  0  0  0  0  0  0  0  0  0
   -3.5959   21.6245  -28.5658 H   0  0  0  0  0  0  0  0  0  0  0  0
   -4.1829   24.0002  -26.3490 H   0  0  0  0  0  0  0  0  0  0  0  0
   -2.5862   25.7539  -25.5669 H   0  0  0  0  0  0  0  0  0  0  0  0
   -0.6588   26.4211  -27.0077 H   0  0  0  0  0  0  0  0  0  0  0  0
   -0.3197   25.3309  -29.2281 H   0  0  0  0  0  0  0  0  0  0  0  0
   -1.9106   23.5779  -30.0156 H   0  0  0  0  0  0  0  0  0  0  0  0
   -8.2251   24.8374  -31.6130 H   0  0  0  0  0  0  0  0  0  0  0  0
  -10.1580   23.5719  -32.5529 H   0  0  0  0  0  0  0  0  0  0  0  0
  -10.1109   21.0833  -32.6288 H   0  0  0  0  0  0  0  0  0  0  0  0
   -8.1880   18.5440  -33.6050 H   0  0  0  0  0  0  0  0  0  0  0  0
   -6.8422   20.4739  -33.8425 H   0  0  0  0  0  0  0  0  0  0  0  0
   -5.6639   19.7676  -32.6728 H   0  0  0  0  0  0  0  0  0  0  0  0
   -5.9713   19.2628  -35.5501 H   0  0  0  0  0  0  0  0  0  0  0  0
   -4.6398   18.7830  -34.4067 H   0  0  0  0  0  0  0  0  0  0  0  0
   -6.2125   15.7337  -33.4902 H   0  0  0  0  0  0  0  0  0  0  0  0
   -4.9557   16.9593  -33.0547 H   0  0  0  0  0  0  0  0  0  0  0  0
   -7.7851   16.7453  -32.1869 H   0  0  0  0  0  0  0  0  0  0  0  0
   -6.3875   17.6203  -31.4390 H   0  0  0  0  0  0  0  0  0  0  0  0
   -6.1830   21.1091  -30.7924 H   0  0  0  0  0  0  0  0  0  0  0  0
   -4.7258   23.0547  -32.7619 H   0  0  0  0  0  0  0  0  0  0  0  0
   -3.7342   21.5861  -34.5159 H   0  0  0  0  0  0  0  0  0  0  0  0
  1  2  1  0
  2  3  2  0
  3  4  1  0
  4  5  2  0
  5  6  1  0
  6  7  1  0
  7  8  1  0
  8  9  2  0
  9 10  1  0
 10 11  2  0
 11 12  1  0
 12 13  2  0
  6 14  1  0
 14 15  2  0
 14 16  2  0
 14 17  1  0
 17 18  2  0
 18 19  1  0
 19 20  2  0
 20 21  1  0
 21 22  1  0
 22 23  2  0
 22 24  1  0
 24 25  1  0
 25 26  1  0
 26 27  1  0
 27 28  1  0
 28 29  1  0
 21 30  2  0
  5 31  1  0
 31 32  2  0
 32  2  1  0
 13  8  1  0
 30 17  1  0
 29 24  1  0
  1 33  1  0
  1 34  1  0
  1 35  1  0
  3 36  1  0
  4 37  1  0
  7 38  1  0
  7 39  1  0
  9 40  1  0
 10 41  1  0
 11 42  1  0
 12 43  1  0
 13 44  1  0
 18 45  1  0
 19 46  1  0
 20 47  1  0
 24 48  1  0
 25 49  1  0
 25 50  1  0
 26 51  1  0
 26 52  1  0
 28 53  1  0
 28 54  1  0
 29 55  1  0
 29 56  1  0
 30 57  1  0
 31 58  1  0
 32 59  1  0
M  CHG  1  24   1
M  END
>  <UniqueID>  (32) 
31

>  <SMILES>  (32) 
Cc1ccc(N(Cc2ccccc2)S(=O)(=O)c2cccc(C(=O)[NH+]3CCOCC3)c2)cc1

>  <Energy>  (32) 
78.3471671192292

>  <Genealogy>  (32) 
Cc1ccc(N(Cc2ccccc2)S(=O)(=O)c2cccc(C(=O)[NH+]3CCOCC3)c2)cc1 (protonated)
Cc1ccc(N(Cc2ccccc2)S(=O)(=O)c2cccc(C(=O)[NH+]3CCOCC3)c2)cc1 (3D coordinates assigned)
Cc1ccc(N(Cc2ccccc2)S(=O)(=O)c2cccc(C(=O)[NH+]3CCOCC3)c2)cc1 (nonaromatic ring conformer: 78.3471671192292 kcal/mol)

>  <smiles>  (32) 
Cc1ccc(N(Cc2ccccc2)S(=O)(=O)c2cccc(C(=O)N3CCOCC3)c2)cc1

>  <score_type>  (32) 
oracle

>  <origin>  (32) 
adgpu

>  <m_score__min__energy>  (32) 
-10.18

>  <m_primary>  (32) 
energy

$$$$
32:0
     RDKit          3D

 61 64  0  0  0  0  0  0  0  0999 V2000
    1.3130   20.5720  -36.4440 C   0  0  0  0  0  0  0  0  0  0  0  0
    0.7080   21.0670  -35.1700 C   0  0  0  0  0  0  0  0  0  0  0  0
    0.6210   22.3120  -34.9700 O   0  0  0  0  0  0  0  0  0  0  0  0
    0.3410   20.1280  -34.1470 N   0  0  0  0  0  0  0  0  0  0  0  0
   -0.7750   19.2250  -34.1730 C   0  0  0  0  0  0  0  0  0  0  0  0
   -1.8790   19.5000  -33.3600 C   0  0  0  0  0  0  0  0  0  0  0  0
   -2.9840   18.6420  -33.3460 C   0  0  0  0  0  0  0  0  0  0  0  0
   -2.9860   17.4800  -34.1290 C   0  0  0  0  0  0  0  0  0  0  0  0
   -4.3760   16.3890  -34.0990 S   0  0  0  0  0  0  0  0  0  0  0  0
   -4.3350   15.5710  -32.8410 O   0  0  0  0  0  0  0  0  0  0  0  0
   -4.2740   15.4440  -35.2660 O   0  0  0  0  0  0  0  0  0  0  0  0
   -5.9010   17.2480  -34.1920 N   0  0  0  0  0  0  0  0  0  0  0  0
   -5.7400   18.5990  -34.7810 C   0  0  0  0  0  0  0  0  0  0  0  0
   -6.6040   19.6650  -34.0990 C   0  0  0  0  0  0  0  0  0  0  0  0
   -6.3730   19.6120  -32.6560 N   0  0  0  0  0  0  0  0  0  0  0  0
   -6.0010   20.7880  -31.9240 C   0  0  0  0  0  0  0  0  0  0  0  0
   -4.7150   21.3240  -32.0650 C   0  0  0  0  0  0  0  0  0  0  0  0
   -4.3680   22.5130  -31.4150 C   0  0  0  0  0  0  0  0  0  0  0  0
   -3.0810   23.0180  -31.5730 O   0  0  0  0  0  0  0  0  0  0  0  0
   -5.3210   23.1930  -30.6310 C   0  0  0  0  0  0  0  0  0  0  0  0
   -4.9420   24.7320  -29.8480 S   0  0  0  0  0  0  0  0  0  0  0  0
   -6.2170   25.4140  -29.4390 O   0  0  0  0  0  0  0  0  0  0  0  0
   -4.2570   25.6210  -30.8460 O   0  0  0  0  0  0  0  0  0  0  0  0
   -3.9020   24.5540  -28.4520 N   0  0  0  0  0  0  0  0  0  0  0  0
   -4.2170   23.3780  -27.6180 C   0  0  0  0  0  0  0  0  0  0  0  0
   -3.4140   22.1310  -28.0150 C   0  0  0  0  0  0  0  0  0  0  0  0
   -2.0330   22.4180  -28.0630 O   0  0  0  0  0  0  0  0  0  0  0  0
   -1.7970   23.3550  -29.0900 C   0  0  0  0  0  0  0  0  0  0  0  0
   -2.4670   24.6980  -28.7660 C   0  0  0  0  0  0  0  0  0  0  0  0
   -6.6000   22.6400  -30.4720 C   0  0  0  0  0  0  0  0  0  0  0  0
   -6.9390   21.4460  -31.1130 C   0  0  0  0  0  0  0  0  0  0  0  0
   -8.1950   20.9550  -30.9810 F   0  0  0  0  0  0  0  0  0  0  0  0
   -6.4000   18.3250  -31.9630 C   0  0  0  0  0  0  0  0  0  0  0  0
   -6.6810   17.1650  -32.9340 C   0  0  0  0  0  0  0  0  0  0  0  0
   -1.8800   17.1980  -34.9400 C   0  0  0  0  0  0  0  0  0  0  0  0
   -0.7750   18.0570  -34.9550 C   0  0  0  0  0  0  0  0  0  0  0  0
    2.1456   19.8908  -36.2141 H   0  0  0  0  0  0  0  0  0  0  0  0
    0.5506   20.0353  -37.0277 H   0  0  0  0  0  0  0  0  0  0  0  0
    1.6881   21.4256  -37.0277 H   0  0  0  0  0  0  0  0  0  0  0  0
   -1.8786   20.3988  -32.7259 H   0  0  0  0  0  0  0  0  0  0  0  0
   -3.8548   18.8806  -32.7177 H   0  0  0  0  0  0  0  0  0  0  0  0
   -4.6845   18.8954  -34.6913 H   0  0  0  0  0  0  0  0  0  0  0  0
   -6.0659   18.5379  -35.8298 H   0  0  0  0  0  0  0  0  0  0  0  0
   -6.3313   20.6602  -34.4800 H   0  0  0  0  0  0  0  0  0  0  0  0
   -7.6663   19.4757  -34.3129 H   0  0  0  0  0  0  0  0  0  0  0  0
   -3.9730   20.8067  -32.6909 H   0  0  0  0  0  0  0  0  0  0  0  0
   -3.9917   23.6212  -26.5691 H   0  0  0  0  0  0  0  0  0  0  0  0
   -5.2820   23.1451  -27.7649 H   0  0  0  0  0  0  0  0  0  0  0  0
   -3.5917   21.3370  -27.2748 H   0  0  0  0  0  0  0  0  0  0  0  0
   -3.7409   21.8044  -29.0132 H   0  0  0  0  0  0  0  0  0  0  0  0
   -0.7130   23.5089  -29.1959 H   0  0  0  0  0  0  0  0  0  0  0  0
   -2.2214   22.9658  -30.0272 H   0  0  0  0  0  0  0  0  0  0  0  0
   -1.9594   25.1449  -27.8985 H   0  0  0  0  0  0  0  0  0  0  0  0
   -2.3830   25.3365  -29.6578 H   0  0  0  0  0  0  0  0  0  0  0  0
   -7.3409   23.1497  -29.8385 H   0  0  0  0  0  0  0  0  0  0  0  0
   -5.4255   18.1587  -31.4806 H   0  0  0  0  0  0  0  0  0  0  0  0
   -7.2078   18.3527  -31.2169 H   0  0  0  0  0  0  0  0  0  0  0  0
   -6.4303   16.2199  -32.4300 H   0  0  0  0  0  0  0  0  0  0  0  0
   -7.7450   17.2209  -33.2074 H   0  0  0  0  0  0  0  0  0  0  0  0
   -1.8795   16.2958  -35.5693 H   0  0  0  0  0  0  0  0  0  0  0  0
    0.0969   17.8171  -35.5813 H   0  0  0  0  0  0  0  0  0  0  0  0
  1  2  1  0
  2  3  2  0
  2  4  1  0
  4  5  1  0
  5  6  2  0
  6  7  1  0
  7  8  2  0
  8  9  1  0
  9 10  2  0
  9 11  2  0
  9 12  1  0
 12 13  1  0
 13 14  1  0
 14 15  1  0
 15 16  1  0
 16 17  2  0
 17 18  1  0
 18 19  1  0
 18 20  2  0
 20 21  1  0
 21 22  2  0
 21 23  2  0
 21 24  1  0
 24 25  1  0
 25 26  1  0
 26 27  1  0
 27 28  1  0
 28 29  1  0
 20 30  1  0
 30 31  2  0
 31 32  1  0
 15 33  1  0
 33 34  1  0
  8 35  1  0
 35 36  2  0
 36  5  1  0
 34 12  1  0
 31 16  1  0
 29 24  1  0
  1 37  1  0
  1 38  1  0
  1 39  1  0
  6 40  1  0
  7 41  1  0
 13 42  1  0
 13 43  1  0
 14 44  1  0
 14 45  1  0
 17 46  1  0
 25 47  1  0
 25 48  1  0
 26 49  1  0
 26 50  1  0
 28 51  1  0
 28 52  1  0
 29 53  1  0
 29 54  1  0
 30 55  1  0
 33 56  1  0
 33 57  1  0
 34 58  1  0
 34 59  1  0
 35 60  1  0
 36 61  1  0
M  CHG  2   4  -1  19  -1
M  END
>  <UniqueID>  (33) 
32

>  <SMILES>  (33) 
CC(=O)[N-]c1ccc(S(=O)(=O)N2CCN(c3cc([O-])c(S(=O)(=O)N4CCOCC4)cc3F)CC2)cc1

>  <Energy>  (33) 
80.56742441230189

>  <Genealogy>  (33) 
CC(=O)[N-]c1ccc(S(=O)(=O)N2CCN(c3cc([O-])c(S(=O)(=O)N4CCOCC4)cc3F)CC2)cc1 (protonated)
CC(=O)[N-]c1ccc(S(=O)(=O)N2CCN(c3cc([O-])c(S(=O)(=O)N4CCOCC4)cc3F)CC2)cc1 (3D coordinates assigned)
CC(=O)[N-]c1ccc(S(=O)(=O)N2CCN(c3cc([O-])c(S(=O)(=O)N4CCOCC4)cc3F)CC2)cc1 (nonaromatic ring conformer: 80.56742441230189 kcal/mol)

>  <smiles>  (33) 
CC(=O)Nc1ccc(S(=O)(=O)N2CCN(c3cc(O)c(S(=O)(=O)N4CCOCC4)cc3F)CC2)cc1

>  <score_type>  (33) 
oracle

>  <origin>  (33) 
adgpu

>  <m_score__min__energy>  (33) 
-12.199999999999999

>  <m_primary>  (33) 
energy

$$$$
33:0
     RDKit          3D

 50 54  0  0  0  0  0  0  0  0999 V2000
   -8.7720   20.8770  -32.4460 N   0  0  0  0  0  0  0  0  0  0  0  0
   -8.0440   22.1870  -31.5840 S   0  0  0  0  0  0  0  0  0  0  0  0
   -8.6400   22.2780  -30.2060 O   0  0  0  0  0  0  0  0  0  0  0  0
   -8.3140   23.4740  -32.3130 O   0  0  0  0  0  0  0  0  0  0  0  0
   -6.3080   21.9190  -31.4620 C   0  0  0  0  0  0  0  0  0  0  0  0
   -5.7080   20.8480  -32.1300 C   0  0  0  0  0  0  0  0  0  0  0  0
   -4.3320   20.6320  -32.0230 C   0  0  0  0  0  0  0  0  0  0  0  0
   -3.5330   21.4840  -31.2410 C   0  0  0  0  0  0  0  0  0  0  0  0
   -2.1140   21.2580  -31.1490 N   0  0  0  0  0  0  0  0  0  0  0  0
   -1.2710   20.9880  -32.2820 C   0  0  0  0  0  0  0  0  0  0  0  0
   -1.7600   21.0920  -33.5970 C   0  0  0  0  0  0  0  0  0  0  0  0
   -0.9180   20.8400  -34.6850 C   0  0  0  0  0  0  0  0  0  0  0  0
    0.4220   20.4940  -34.4740 C   0  0  0  0  0  0  0  0  0  0  0  0
    1.4790   20.1560  -35.8410 S   0  0  0  0  0  0  0  0  0  0  0  0
    0.6420   19.8760  -37.0580 O   0  0  0  0  0  0  0  0  0  0  0  0
    2.3270   18.9450  -35.5640 O   0  0  0  0  0  0  0  0  0  0  0  0
    2.4950   21.5270  -36.1560 N   0  0  0  0  0  0  0  0  0  0  0  0
    2.0810   22.7530  -36.0670 C   0  0  0  0  0  0  0  0  0  0  0  0
    0.8240   23.1060  -35.7190 N   0  0  0  0  0  0  0  0  0  0  0  0
    0.6490   24.4270  -35.6890 N   0  0  0  0  0  0  0  0  0  0  0  0
    1.7610   25.1280  -36.0100 C   0  0  0  0  0  0  0  0  0  0  0  0
    3.0490   24.0940  -36.3580 S   0  0  0  0  0  0  0  0  0  0  0  0
    0.9160   20.4060  -33.1660 C   0  0  0  0  0  0  0  0  0  0  0  0
    0.0770   20.6610  -32.0780 C   0  0  0  0  0  0  0  0  0  0  0  0
   -4.1440   22.5470  -30.5380 C   0  0  0  0  0  0  0  0  0  0  0  0
   -3.3590   23.4710  -29.7000 C   0  0  0  0  0  0  0  0  0  0  0  0
   -3.2180   24.8440  -29.8560 C   0  0  0  0  0  0  0  0  0  0  0  0
   -3.8480   25.5990  -30.8370 O   0  0  0  0  0  0  0  0  0  0  0  0
   -2.3660   25.3770  -28.9480 N   0  0  0  0  0  0  0  0  0  0  0  0
   -1.9580   24.3190  -28.2210 C   0  0  0  0  0  0  0  0  0  0  0  0
   -1.0570   24.3390  -27.1580 C   0  0  0  0  0  0  0  0  0  0  0  0
   -0.7470   23.1190  -26.5300 C   0  0  0  0  0  0  0  0  0  0  0  0
   -1.3360   21.9150  -26.9750 C   0  0  0  0  0  0  0  0  0  0  0  0
   -2.2420   21.9220  -28.0520 C   0  0  0  0  0  0  0  0  0  0  0  0
   -2.5280   23.1470  -28.6520 C   0  0  0  0  0  0  0  0  0  0  0  0
   -5.5250   22.7630  -30.6670 C   0  0  0  0  0  0  0  0  0  0  0  0
   -8.2010   20.7210  -33.3050 H   0  0  0  0  0  0  0  0  0  0  0  0
   -6.3222   20.1719  -32.7429 H   0  0  0  0  0  0  0  0  0  0  0  0
   -3.8697   19.7877  -32.5554 H   0  0  0  0  0  0  0  0  0  0  0  0
   -1.6760   21.2330  -30.2030 H   0  0  0  0  0  0  0  0  0  0  0  0
   -2.8093   21.3728  -33.7703 H   0  0  0  0  0  0  0  0  0  0  0  0
   -1.3101   20.9139  -35.7101 H   0  0  0  0  0  0  0  0  0  0  0  0
    1.8181   26.2261  -36.0402 H   0  0  0  0  0  0  0  0  0  0  0  0
    1.9683   20.1352  -32.9948 H   0  0  0  0  0  0  0  0  0  0  0  0
    0.4768   20.6048  -31.0548 H   0  0  0  0  0  0  0  0  0  0  0  0
   -0.6015   25.2814  -26.8198 H   0  0  0  0  0  0  0  0  0  0  0  0
   -0.0410   23.1027  -25.6866 H   0  0  0  0  0  0  0  0  0  0  0  0
   -1.0853   20.9667  -26.4772 H   0  0  0  0  0  0  0  0  0  0  0  0
   -2.7087   20.9918  -28.4083 H   0  0  0  0  0  0  0  0  0  0  0  0
   -5.9963   23.6043  -30.1377 H   0  0  0  0  0  0  0  0  0  0  0  0
  1  2  1  0
  2  3  2  0
  2  4  2  0
  2  5  1  0
  5  6  2  0
  6  7  1  0
  7  8  2  0
  8  9  1  0
  9 10  1  0
 10 11  2  0
 11 12  1  0
 12 13  2  0
 13 14  1  0
 14 15  2  0
 14 16  2  0
 14 17  1  0
 17 18  2  3
 18 19  1  0
 19 20  1  0
 20 21  2  0
 21 22  1  0
 13 23  1  0
 23 24  2  0
  8 25  1  0
 25 26  1  0
 26 27  2  0
 27 28  1  0
 27 29  1  0
 29 30  1  0
 30 31  2  0
 31 32  1  0
 32 33  2  0
 33 34  1  0
 34 35  2  0
 25 36  2  0
 36  5  1  0
 24 10  1  0
 35 26  1  0
 22 18  1  0
 35 30  1  0
  1 37  1  0
  6 38  1  0
  7 39  1  0
  9 40  1  0
 11 41  1  0
 12 42  1  0
 21 43  1  0
 23 44  1  0
 24 45  1  0
 31 46  1  0
 32 47  1  0
 33 48  1  0
 34 49  1  0
 36 50  1  0
M  CHG  4   1  -1  19  -1  28  -1  29  -1
M  END
>  <UniqueID>  (34) 
33

>  <SMILES>  (34) 
[NH-]S(=O)(=O)c1ccc(Nc2ccc(S(=O)(=O)N=c3[n-]ncs3)cc2)c(-c2c([O-])[n-]c3ccccc23)c1

>  <Energy>  (34) 
139.5730501423816

>  <Genealogy>  (34) 
[NH-]S(=O)(=O)c1ccc(Nc2ccc(S(=O)(=O)N=c3[n-]ncs3)cc2)c(-c2c([O-])[n-]c3ccccc23)c1 (protonated)
[NH-]S(=O)(=O)c1ccc(Nc2ccc(S(=O)(=O)N=c3[n-]ncs3)cc2)c(-c2c([O-])[n-]c3ccccc23)c1 (3D coordinates assigned)
[NH-]S(=O)(=O)c1ccc(Nc2ccc(S(=O)(=O)N=c3[n-]ncs3)cc2)c(-c2c([O-])[n-]c3ccccc23)c1 (optimized conformer: 139.5730501423816 kcal/mol)

>  <smiles>  (34) 
NS(=O)(=O)c1ccc(Nc2ccc(S(=O)(=O)N=c3[nH]ncs3)cc2)c(-c2c(O)[nH]c3ccccc23)c1

>  <score_type>  (34) 
oracle

>  <origin>  (34) 
adgpu

>  <m_score__min__energy>  (34) 
-15.699999999999999

>  <m_primary>  (34) 
energy

$$$$
34:0
     RDKit          3D

 60 63  0  0  0  0  0  0  0  0999 V2000
   -0.3150   21.1320  -36.2200 O   0  0  0  0  0  0  0  0  0  0  0  0
    0.4380   21.2230  -35.2130 C   0  0  0  0  0  0  0  0  0  0  0  0
   -0.0010   20.7050  -33.9450 N   0  0  0  0  0  0  0  0  0  0  0  0
   -1.3810   20.4630  -33.6200 C   0  0  0  0  0  0  0  0  0  0  0  0
   -2.2620   21.5490  -33.4920 C   0  0  0  0  0  0  0  0  0  0  0  0
   -3.6100   21.3360  -33.1870 C   0  0  0  0  0  0  0  0  0  0  0  0
   -4.0980   20.0340  -33.0260 C   0  0  0  0  0  0  0  0  0  0  0  0
   -5.7840   19.7600  -32.6060 S   0  0  0  0  0  0  0  0  0  0  0  0
   -6.5390   19.2460  -33.8000 O   0  0  0  0  0  0  0  0  0  0  0  0
   -5.8780   18.7300  -31.5140 O   0  0  0  0  0  0  0  0  0  0  0  0
   -6.4860   21.2780  -32.0620 C   0  0  0  0  0  0  0  0  0  0  0  0
   -7.8680   21.4860  -32.1540 C   0  0  0  0  0  0  0  0  0  0  0  0
   -8.4300   22.6820  -31.6990 C   0  0  0  0  0  0  0  0  0  0  0  0
   -7.6170   23.6730  -31.1440 C   0  0  0  0  0  0  0  0  0  0  0  0
   -6.2360   23.4690  -31.0330 C   0  0  0  0  0  0  0  0  0  0  0  0
   -5.2180   24.7310  -30.3440 S   0  0  0  0  0  0  0  0  0  0  0  0
   -5.6790   26.0660  -30.8570 O   0  0  0  0  0  0  0  0  0  0  0  0
   -5.3340   24.7320  -28.8440 O   0  0  0  0  0  0  0  0  0  0  0  0
   -3.5630   24.4810  -30.8070 N   0  0  0  0  0  0  0  0  0  0  0  0
   -2.9230   23.5560  -29.8760 C   0  0  0  0  0  0  0  0  0  0  0  0
   -1.6580   24.2000  -29.3090 C   0  0  0  0  0  0  0  0  0  0  0  0
   -2.0010   25.2730  -28.3540 N   0  0  0  0  0  0  0  0  0  0  0  0
   -2.7770   24.7890  -27.2030 C   0  0  0  0  0  0  0  0  0  0  0  0
   -2.4000   25.6530  -26.0040 C   0  0  0  0  0  0  0  0  0  0  0  0
   -1.2130   26.4850  -26.4570 C   0  0  0  0  0  0  0  0  0  0  0  0
   -0.7980   25.8820  -27.7830 C   0  0  0  0  0  0  0  0  0  0  0  0
   -5.6720   22.2700  -31.4960 C   0  0  0  0  0  0  0  0  0  0  0  0
   -3.2280   18.9450  -33.1710 C   0  0  0  0  0  0  0  0  0  0  0  0
   -1.8800   19.1550  -33.4740 C   0  0  0  0  0  0  0  0  0  0  0  0
    1.7900   21.8170  -35.3650 C   0  0  0  0  0  0  0  0  0  0  0  0
    2.9360   21.0130  -35.2380 C   0  0  0  0  0  0  0  0  0  0  0  0
    4.2030   21.5820  -35.3870 C   0  0  0  0  0  0  0  0  0  0  0  0
    4.3280   22.9070  -35.6620 N   0  0  0  0  0  0  0  0  0  0  0  0
    3.2400   23.7110  -35.8000 C   0  0  0  0  0  0  0  0  0  0  0  0
    1.9540   23.1830  -35.6570 C   0  0  0  0  0  0  0  0  0  0  0  0
    0.7240   20.3650  -33.2750 H   0  0  0  0  0  0  0  0  0  0  0  0
   -1.8892   22.5743  -33.6326 H   0  0  0  0  0  0  0  0  0  0  0  0
   -4.2888   22.1941  -33.0733 H   0  0  0  0  0  0  0  0  0  0  0  0
   -8.5127   20.7061  -32.5854 H   0  0  0  0  0  0  0  0  0  0  0  0
   -9.5152   22.8433  -31.7781 H   0  0  0  0  0  0  0  0  0  0  0  0
   -8.0625   24.6157  -30.7934 H   0  0  0  0  0  0  0  0  0  0  0  0
   -3.6165   23.3239  -29.0543 H   0  0  0  0  0  0  0  0  0  0  0  0
   -2.6578   22.6282  -30.4041 H   0  0  0  0  0  0  0  0  0  0  0  0
   -1.0631   23.4329  -28.7917 H   0  0  0  0  0  0  0  0  0  0  0  0
   -1.0812   24.6358  -30.1381 H   0  0  0  0  0  0  0  0  0  0  0  0
   -3.8535   24.8814  -27.4095 H   0  0  0  0  0  0  0  0  0  0  0  0
   -2.5569   23.7299  -27.0035 H   0  0  0  0  0  0  0  0  0  0  0  0
   -3.2399   26.3045  -25.7210 H   0  0  0  0  0  0  0  0  0  0  0  0
   -2.1559   25.0418  -25.1227 H   0  0  0  0  0  0  0  0  0  0  0  0
   -1.5046   27.5379  -26.5850 H   0  0  0  0  0  0  0  0  0  0  0  0
   -0.3944   26.4731  -25.7223 H   0  0  0  0  0  0  0  0  0  0  0  0
   -0.4130   26.6647  -28.4531 H   0  0  0  0  0  0  0  0  0  0  0  0
    0.0014   25.1381  -27.6504 H   0  0  0  0  0  0  0  0  0  0  0  0
   -4.5871   22.1077  -31.4146 H   0  0  0  0  0  0  0  0  0  0  0  0
   -3.6078   17.9203  -33.0458 H   0  0  0  0  0  0  0  0  0  0  0  0
   -1.2062   18.2946  -33.5989 H   0  0  0  0  0  0  0  0  0  0  0  0
    2.8354   19.9391  -35.0220 H   0  0  0  0  0  0  0  0  0  0  0  0
    5.1015   20.9562  -35.2815 H   0  0  0  0  0  0  0  0  0  0  0  0
    3.3725   24.7796  -36.0247 H   0  0  0  0  0  0  0  0  0  0  0  0
    1.0740   23.8328  -35.7723 H   0  0  0  0  0  0  0  0  0  0  0  0
  1  2  2  0
  2  3  1  0
  3  4  1  0
  4  5  2  0
  5  6  1  0
  6  7  2  0
  7  8  1  0
  8  9  2  0
  8 10  2  0
  8 11  1  0
 11 12  2  0
 12 13  1  0
 13 14  2  0
 14 15  1  0
 15 16  1  0
 16 17  2  0
 16 18  2  0
 16 19  1  0
 19 20  1  0
 20 21  1  0
 21 22  1  0
 22 23  1  0
 23 24  1  0
 24 25  1  0
 25 26  1  0
 15 27  2  0
  7 28  1  0
 28 29  2  0
  2 30  1  0
 30 31  2  0
 31 32  1  0
 32 33  2  0
 33 34  1  0
 34 35  2  0
 29  4  1  0
 35 30  1  0
 27 11  1  0
 26 22  1  0
  3 36  1  0
  5 37  1  0
  6 38  1  0
 12 39  1  0
 13 40  1  0
 14 41  1  0
 20 42  1  0
 20 43  1  0
 21 44  1  0
 21 45  1  0
 23 46  1  0
 23 47  1  0
 24 48  1  0
 24 49  1  0
 25 50  1  0
 25 51  1  0
 26 52  1  0
 26 53  1  0
 27 54  1  0
 28 55  1  0
 29 56  1  0
 31 57  1  0
 32 58  1  0
 34 59  1  0
 35 60  1  0
M  CHG  1  19  -1
M  END
>  <UniqueID>  (35) 
34

>  <SMILES>  (35) 
O=C(Nc1ccc(S(=O)(=O)c2cccc(S(=O)(=O)[N-]CCN3CCCC3)c2)cc1)c1ccncc1

>  <Energy>  (35) 
69.49231755752375

>  <Genealogy>  (35) 
O=C(Nc1ccc(S(=O)(=O)c2cccc(S(=O)(=O)[N-]CCN3CCCC3)c2)cc1)c1ccncc1 (protonated)
O=C(Nc1ccc(S(=O)(=O)c2cccc(S(=O)(=O)[N-]CCN3CCCC3)c2)cc1)c1ccncc1 (3D coordinates assigned)
O=C(Nc1ccc(S(=O)(=O)c2cccc(S(=O)(=O)[N-]CCN3CCCC3)c2)cc1)c1ccncc1 (nonaromatic ring conformer: 69.49231755752375 kcal/mol)

>  <smiles>  (35) 
O=C(Nc1ccc(S(=O)(=O)c2cccc(S(=O)(=O)NCCN3CCCC3)c2)cc1)c1ccncc1

>  <score_type>  (35) 
oracle

>  <origin>  (35) 
adgpu

>  <m_score__min__energy>  (35) 
-11.109999999999999

>  <m_primary>  (35) 
energy

$$$$
35:0
     RDKit          3D

 59 62  0  0  0  0  0  0  0  0999 V2000
   -0.8570   22.9150  -30.2400 O   0  0  0  0  0  0  0  0  0  0  0  0
   -1.8710   22.1740  -30.3330 C   0  0  0  0  0  0  0  0  0  0  0  0
   -3.0370   22.4920  -29.5610 N   0  0  0  0  0  0  0  0  0  0  0  0
   -4.1770   23.2170  -30.0480 C   0  0  0  0  0  0  0  0  0  0  0  0
   -5.3620   22.5530  -30.4110 C   0  0  0  0  0  0  0  0  0  0  0  0
   -6.4680   23.2730  -30.8780 C   0  0  0  0  0  0  0  0  0  0  0  0
   -7.9450   22.4260  -31.3390 S   0  0  0  0  0  0  0  0  0  0  0  0
   -8.6830   22.0080  -30.0980 O   0  0  0  0  0  0  0  0  0  0  0  0
   -8.8290   23.3620  -32.1150 O   0  0  0  0  0  0  0  0  0  0  0  0
   -7.6030   21.0170  -32.3150 N   0  0  0  0  0  0  0  0  0  0  0  0
   -6.5520   20.1950  -31.6760 C   0  0  0  0  0  0  0  0  0  0  0  0
   -6.5140   18.7800  -32.2670 C   0  0  0  0  0  0  0  0  0  0  0  0
   -7.8430   18.0400  -32.0280 C   0  0  0  0  0  0  0  0  0  0  0  0
   -9.0310   19.0000  -31.8370 C   0  0  0  0  0  0  0  0  0  0  0  0
   -8.8420   20.2790  -32.6660 C   0  0  0  0  0  0  0  0  0  0  0  0
   -6.3940   24.6700  -30.9690 C   0  0  0  0  0  0  0  0  0  0  0  0
   -5.2320   25.3380  -30.5740 C   0  0  0  0  0  0  0  0  0  0  0  0
   -4.1270   24.6170  -30.1110 C   0  0  0  0  0  0  0  0  0  0  0  0
   -2.9760   25.2950  -29.7260 O   0  0  0  0  0  0  0  0  0  0  0  0
   -1.8480   21.0180  -31.2550 C   0  0  0  0  0  0  0  0  0  0  0  0
   -0.8690   20.0210  -31.1150 C   0  0  0  0  0  0  0  0  0  0  0  0
   -0.8720   18.9080  -31.9600 C   0  0  0  0  0  0  0  0  0  0  0  0
   -1.8350   18.7890  -32.9720 C   0  0  0  0  0  0  0  0  0  0  0  0
   -1.8490   17.3720  -34.0270 S   0  0  0  0  0  0  0  0  0  0  0  0
   -1.0110   16.2900  -33.4090 O   0  0  0  0  0  0  0  0  0  0  0  0
   -1.2350   17.7380  -35.3500 O   0  0  0  0  0  0  0  0  0  0  0  0
   -3.4670   16.7500  -34.2710 N   0  0  0  0  0  0  0  0  0  0  0  0
   -4.3080   17.7410  -34.9680 C   0  0  0  0  0  0  0  0  0  0  0  0
   -5.7950   17.3350  -34.9120 C   0  0  0  0  0  0  0  0  0  0  0  0
   -5.9340   15.9750  -34.5560 O   0  0  0  0  0  0  0  0  0  0  0  0
   -5.4810   15.7770  -33.2280 C   0  0  0  0  0  0  0  0  0  0  0  0
   -4.0750   16.3700  -32.9880 C   0  0  0  0  0  0  0  0  0  0  0  0
   -2.7980   19.7950  -33.1280 C   0  0  0  0  0  0  0  0  0  0  0  0
   -2.8090   20.8990  -32.2700 C   0  0  0  0  0  0  0  0  0  0  0  0
   -5.4206   21.4578  -30.3273 H   0  0  0  0  0  0  0  0  0  0  0  0
   -5.5754   20.6758  -31.8345 H   0  0  0  0  0  0  0  0  0  0  0  0
   -6.7778   20.1166  -30.6023 H   0  0  0  0  0  0  0  0  0  0  0  0
   -6.3311   18.8482  -33.3495 H   0  0  0  0  0  0  0  0  0  0  0  0
   -5.7086   18.2176  -31.7719 H   0  0  0  0  0  0  0  0  0  0  0  0
   -8.0476   17.3950  -32.8952 H   0  0  0  0  0  0  0  0  0  0  0  0
   -7.7361   17.4552  -31.1025 H   0  0  0  0  0  0  0  0  0  0  0  0
   -9.9554   18.4969  -32.1570 H   0  0  0  0  0  0  0  0  0  0  0  0
   -9.0917   19.2764  -30.7740 H   0  0  0  0  0  0  0  0  0  0  0  0
   -8.7972   20.0041  -33.7302 H   0  0  0  0  0  0  0  0  0  0  0  0
   -9.6932   20.9413  -32.4497 H   0  0  0  0  0  0  0  0  0  0  0  0
   -7.2523   25.2414  -31.3521 H   0  0  0  0  0  0  0  0  0  0  0  0
   -5.1863   26.4357  -30.6275 H   0  0  0  0  0  0  0  0  0  0  0  0
   -0.0969   20.1165  -30.3373 H   0  0  0  0  0  0  0  0  0  0  0  0
   -0.1146   18.1209  -31.8304 H   0  0  0  0  0  0  0  0  0  0  0  0
   -4.1838   18.7219  -34.4860 H   0  0  0  0  0  0  0  0  0  0  0  0
   -3.9955   17.7893  -36.0216 H   0  0  0  0  0  0  0  0  0  0  0  0
   -6.3101   17.9571  -34.1652 H   0  0  0  0  0  0  0  0  0  0  0  0
   -6.2374   17.4842  -35.9080 H   0  0  0  0  0  0  0  0  0  0  0  0
   -6.1895   16.2587  -32.5381 H   0  0  0  0  0  0  0  0  0  0  0  0
   -5.4206   14.6926  -33.0536 H   0  0  0  0  0  0  0  0  0  0  0  0
   -4.1589   17.2596  -32.3464 H   0  0  0  0  0  0  0  0  0  0  0  0
   -3.4427   15.6157  -32.4968 H   0  0  0  0  0  0  0  0  0  0  0  0
   -3.5482   19.7158  -33.9286 H   0  0  0  0  0  0  0  0  0  0  0  0
   -3.5755   21.6786  -32.3916 H   0  0  0  0  0  0  0  0  0  0  0  0
  1  2  2  0
  2  3  1  0
  3  4  1  0
  4  5  2  0
  5  6  1  0
  6  7  1  0
  7  8  2  0
  7  9  2  0
  7 10  1  0
 10 11  1  0
 11 12  1  0
 12 13  1  0
 13 14  1  0
 14 15  1  0
  6 16  2  0
 16 17  1  0
 17 18  2  0
 18 19  1  0
  2 20  1  0
 20 21  2  0
 21 22  1  0
 22 23  2  0
 23 24  1  0
 24 25  2  0
 24 26  2  0
 24 27  1  0
 27 28  1  0
 28 29  1  0
 29 30  1  0
 30 31  1  0
 31 32  1  0
 23 33  1  0
 33 34  2  0
 18  4  1  0
 34 20  1  0
 15 10  1  0
 32 27  1  0
  5 35  1  0
 11 36  1  0
 11 37  1  0
 12 38  1  0
 12 39  1  0
 13 40  1  0
 13 41  1  0
 14 42  1  0
 14 43  1  0
 15 44  1  0
 15 45  1  0
 16 46  1  0
 17 47  1  0
 21 48  1  0
 22 49  1  0
 28 50  1  0
 28 51  1  0
 29 52  1  0
 29 53  1  0
 31 54  1  0
 31 55  1  0
 32 56  1  0
 32 57  1  0
 33 58  1  0
 34 59  1  0
M  CHG  2   3  -1  19  -1
M  END
>  <UniqueID>  (36) 
35

>  <SMILES>  (36) 
O=C([N-]c1cc(S(=O)(=O)N2CCCCC2)ccc1[O-])c1ccc(S(=O)(=O)N2CCOCC2)cc1

>  <Energy>  (36) 
78.57291130515104

>  <Genealogy>  (36) 
O=C([N-]c1cc(S(=O)(=O)N2CCCCC2)ccc1[O-])c1ccc(S(=O)(=O)N2CCOCC2)cc1 (protonated)
O=C([N-]c1cc(S(=O)(=O)N2CCCCC2)ccc1[O-])c1ccc(S(=O)(=O)N2CCOCC2)cc1 (3D coordinates assigned)
O=C([N-]c1cc(S(=O)(=O)N2CCCCC2)ccc1[O-])c1ccc(S(=O)(=O)N2CCOCC2)cc1 (nonaromatic ring conformer: 78.57291130515104 kcal/mol)

>  <smiles>  (36) 
O=C(Nc1cc(S(=O)(=O)N2CCCCC2)ccc1O)c1ccc(S(=O)(=O)N2CCOCC2)cc1

>  <score_type>  (36) 
oracle

>  <origin>  (36) 
adgpu

>  <m_score__min__energy>  (36) 
-15.470000000000001

>  <m_primary>  (36) 
energy

$$$$
36:0
     RDKit          3D

 46 48  0  0  0  0  0  0  0  0999 V2000
   -0.5924   21.7526  -27.4727 H   0  0  0  0  0  0  0  0  0  0  0  0
   -1.1010   21.6060  -28.4370 C   0  0  0  0  0  0  0  0  0  0  0  0
   -2.3540   20.9890  -28.4800 C   0  0  0  0  0  0  0  0  0  0  0  0
   -2.8308   20.6490  -27.5489 H   0  0  0  0  0  0  0  0  0  0  0  0
   -3.0030   20.8030  -29.7050 C   0  0  0  0  0  0  0  0  0  0  0  0
   -3.9901   20.3185  -29.7359 H   0  0  0  0  0  0  0  0  0  0  0  0
   -2.3960   21.2340  -30.8950 C   0  0  0  0  0  0  0  0  0  0  0  0
   -3.2220   21.0380  -32.4380 S   0  0  0  0  0  0  0  0  0  0  0  0
   -2.2020   20.9000  -33.5330 O   0  0  0  0  0  0  0  0  0  0  0  0
   -4.0610   19.7910  -32.4070 O   0  0  0  0  0  0  0  0  0  0  0  0
   -4.2430   22.4710  -32.7640 C   0  0  0  0  0  0  0  0  0  0  0  0
   -4.5907   22.4347  -33.8070 H   0  0  0  0  0  0  0  0  0  0  0  0
   -3.6422   23.3755  -32.5881 H   0  0  0  0  0  0  0  0  0  0  0  0
   -5.4420   22.5050  -31.8450 C   0  0  0  0  0  0  0  0  0  0  0  0
   -6.5750   21.7550  -32.2150 C   0  0  0  0  0  0  0  0  0  0  0  0
   -6.5661   21.1876  -33.1573 H   0  0  0  0  0  0  0  0  0  0  0  0
   -7.7080   21.7220  -31.4030 C   0  0  0  0  0  0  0  0  0  0  0  0
   -8.5884   21.1392  -31.7116 H   0  0  0  0  0  0  0  0  0  0  0  0
   -7.7260   22.4260  -30.2020 C   0  0  0  0  0  0  0  0  0  0  0  0
   -8.6181   22.3923  -29.5593 H   0  0  0  0  0  0  0  0  0  0  0  0
   -6.6150   23.1740  -29.8120 C   0  0  0  0  0  0  0  0  0  0  0  0
   -6.6362   23.7208  -28.8577 H   0  0  0  0  0  0  0  0  0  0  0  0
   -5.4660   23.2380  -30.6250 C   0  0  0  0  0  0  0  0  0  0  0  0
   -4.3220   24.0550  -30.1500 C   0  0  0  0  0  0  0  0  0  0  0  0
   -3.8780   24.9930  -30.8640 O   0  0  0  0  0  0  0  0  0  0  0  0
   -3.8020   23.8390  -28.8290 N   0  0  0  0  0  0  0  0  0  0  0  0
   -2.8090   24.4580  -28.2550 C   0  0  0  0  0  0  0  0  0  0  0  0
   -2.3500   24.1760  -26.6630 S   0  0  0  0  0  0  0  0  0  0  0  0
   -1.0810   25.2800  -26.8060 C   0  0  0  0  0  0  0  0  0  0  0  0
   -0.1600   25.6770  -25.6980 C   0  0  0  0  0  0  0  0  0  0  0  0
    0.6740   26.2624  -26.1123 H   0  0  0  0  0  0  0  0  0  0  0  0
    0.2216   24.7686  -25.2089 H   0  0  0  0  0  0  0  0  0  0  0  0
   -0.9040   26.5230  -24.6620 C   0  0  0  0  0  0  0  0  0  0  0  0
   -1.7993   25.9775  -24.3289 H   0  0  0  0  0  0  0  0  0  0  0  0
   -1.1845   27.4789  -25.1284 H   0  0  0  0  0  0  0  0  0  0  0  0
   -0.0200   26.8150  -23.4530 C   0  0  0  0  0  0  0  0  0  0  0  0
   -0.5878   26.6274  -22.5297 H   0  0  0  0  0  0  0  0  0  0  0  0
    0.8642   26.1612  -23.4789 H   0  0  0  0  0  0  0  0  0  0  0  0
    0.3008   27.8669  -23.4789 H   0  0  0  0  0  0  0  0  0  0  0  0
   -1.0430   25.8290  -28.0420 N   0  0  0  0  0  0  0  0  0  0  0  0
   -1.9960   25.3680  -28.8500 N   0  0  0  0  0  0  0  0  0  0  0  0
   -2.0480   25.6710  -29.8440 H   0  0  0  0  0  0  0  0  0  0  0  0
   -1.1410   21.8550  -30.8460 C   0  0  0  0  0  0  0  0  0  0  0  0
   -0.6635   22.2004  -31.7748 H   0  0  0  0  0  0  0  0  0  0  0  0
   -0.4940   22.0370  -29.6210 C   0  0  0  0  0  0  0  0  0  0  0  0
    0.4938   22.5198  -29.5878 H   0  0  0  0  0  0  0  0  0  0  0  0
  1  2  1  0
  2  3  2  0
  3  4  1  0
  3  5  1  0
  5  6  1  0
  5  7  2  0
  7  8  1  0
  8  9  2  0
  8 10  2  0
  8 11  1  0
 11 12  1  0
 11 13  1  0
 11 14  1  0
 14 15  2  0
 15 16  1  0
 15 17  1  0
 17 18  1  0
 17 19  2  0
 19 20  1  0
 19 21  1  0
 21 22  1  0
 21 23  2  0
 23 24  1  0
 24 25  2  0
 24 26  1  0
 26 27  2  0
 27 28  1  0
 28 29  1  0
 29 30  1  0
 30 31  1  0
 30 32  1  0
 30 33  1  0
 33 34  1  0
 33 35  1  0
 33 36  1  0
 36 37  1  0
 36 38  1  0
 36 39  1  0
 29 40  2  0
 40 41  1  0
 41 42  1  0
  7 43  1  0
 43 44  1  0
 43 45  2  0
 45 46  1  0
 45  2  1  0
 23 14  1  0
 41 27  1  0
M  END
>  <UniqueID>  (37) 
36

>  <SMILES>  (37) 
CCCc1n[nH]/c(=N\C(=O)c2ccccc2CS(=O)(=O)c2ccccc2)s1

>  <Energy>  (37) 
82.86119292499335

>  <Genealogy>  (37) 
CCCc1n[nH]/c(=N\C(=O)c2ccccc2CS(=O)(=O)c2ccccc2)s1 (cis-trans isomerization)
CCCc1n[nH]/c(=N\C(=O)c2ccccc2CS(=O)(=O)c2ccccc2)s1 (3D coordinates assigned)
CCCc1n[nH]/c(=N\C(=O)c2ccccc2CS(=O)(=O)c2ccccc2)s1 (optimized conformer: 82.86119292499335 kcal/mol)

>  <smiles>  (37) 
CCCc1n[nH]c(=NC(=O)c2ccccc2CS(=O)(=O)c2ccccc2)s1

>  <score_type>  (37) 
oracle

>  <origin>  (37) 
adgpu

>  <m_score__min__energy>  (37) 
-10.16

>  <m_primary>  (37) 
energy

$$$$
37:0
     RDKit          3D

 34 37  0  0  0  0  0  0  0  0999 V2000
   -3.0110   25.2300  -29.6640 O   0  0  0  0  0  0  0  0  0  0  0  0
   -3.5020   24.0570  -30.2430 C   0  0  0  0  0  0  0  0  0  0  0  0
   -4.8540   23.9670  -30.6630 C   0  0  0  0  0  0  0  0  0  0  0  0
   -5.9830   25.3050  -30.4810 Cl  0  0  0  0  0  0  0  0  0  0  0  0
   -5.2830   22.7710  -31.2350 C   0  0  0  0  0  0  0  0  0  0  0  0
   -6.5110   22.4760  -31.6880 N   0  0  0  0  0  0  0  0  0  0  0  0
   -6.3660   21.2000  -32.1290 C   0  0  0  0  0  0  0  0  0  0  0  0
   -7.5040   20.4020  -32.6790 C   0  0  0  0  0  0  0  0  0  0  0  0
   -6.9940   19.1050  -33.2430 C   0  0  0  0  0  0  0  0  0  0  0  0
   -7.3450   17.8840  -32.6430 C   0  0  0  0  0  0  0  0  0  0  0  0
   -6.8400   16.6810  -33.1460 C   0  0  0  0  0  0  0  0  0  0  0  0
   -5.9730   16.6900  -34.2430 C   0  0  0  0  0  0  0  0  0  0  0  0
   -5.6070   17.9010  -34.8360 C   0  0  0  0  0  0  0  0  0  0  0  0
   -6.1100   19.1070  -34.3360 C   0  0  0  0  0  0  0  0  0  0  0  0
   -5.1220   20.6830  -31.9600 N   0  0  0  0  0  0  0  0  0  0  0  0
   -4.4540   21.7040  -31.3970 C   0  0  0  0  0  0  0  0  0  0  0  0
   -3.1180   21.7390  -30.9990 C   0  0  0  0  0  0  0  0  0  0  0  0
   -2.2640   20.6380  -31.1630 C   0  0  0  0  0  0  0  0  0  0  0  0
   -0.9320   20.7210  -30.7490 C   0  0  0  0  0  0  0  0  0  0  0  0
   -0.4460   21.8960  -30.1730 C   0  0  0  0  0  0  0  0  0  0  0  0
   -1.2860   23.0010  -30.0020 C   0  0  0  0  0  0  0  0  0  0  0  0
   -2.6320   22.9420  -30.4110 C   0  0  0  0  0  0  0  0  0  0  0  0
   -3.4900   26.1190  -29.7350 H   0  0  0  0  0  0  0  0  0  0  0  0
   -8.2244   20.1918  -31.8747 H   0  0  0  0  0  0  0  0  0  0  0  0
   -7.9959   20.9759  -33.4782 H   0  0  0  0  0  0  0  0  0  0  0  0
   -8.0197   17.8744  -31.7742 H   0  0  0  0  0  0  0  0  0  0  0  0
   -7.1250   15.7270  -32.6784 H   0  0  0  0  0  0  0  0  0  0  0  0
   -5.5787   15.7427  -34.6395 H   0  0  0  0  0  0  0  0  0  0  0  0
   -4.9225   17.9062  -35.6971 H   0  0  0  0  0  0  0  0  0  0  0  0
   -5.8129   20.0594  -34.7994 H   0  0  0  0  0  0  0  0  0  0  0  0
   -2.6426   19.7104  -31.6170 H   0  0  0  0  0  0  0  0  0  0  0  0
   -0.2636   19.8568  -30.8775 H   0  0  0  0  0  0  0  0  0  0  0  0
    0.6044   21.9531  -29.8515 H   0  0  0  0  0  0  0  0  0  0  0  0
   -0.8929   23.9214  -29.5454 H   0  0  0  0  0  0  0  0  0  0  0  0
  1  2  1  0
  2  3  2  0
  3  4  1  0
  3  5  1  0
  5  6  1  0
  6  7  2  0
  7  8  1  0
  8  9  1  0
  9 10  2  0
 10 11  1  0
 11 12  2  0
 12 13  1  0
 13 14  2  0
  7 15  1  0
 15 16  1  0
 16 17  1  0
 17 18  2  0
 18 19  1  0
 19 20  2  0
 20 21  1  0
 21 22  2  0
 22  2  1  0
 16  5  2  0
 22 17  1  0
 14  9  1  0
  1 23  1  0
  8 24  1  0
  8 25  1  0
 10 26  1  0
 11 27  1  0
 12 28  1  0
 13 29  1  0
 14 30  1  0
 18 31  1  0
 19 32  1  0
 20 33  1  0
 21 34  1  0
M  CHG  1  15  -1
M  END
>  <UniqueID>  (38) 
37

>  <SMILES>  (38) 
Oc1c(Cl)c2nc(Cc3ccccc3)[n-]c2c2ccccc12

>  <Energy>  (38) 
76.04156244398678

>  <Genealogy>  (38) 
Oc1c(Cl)c2nc(Cc3ccccc3)[n-]c2c2ccccc12 (protonated)
Oc1c(Cl)c2nc(Cc3ccccc3)[n-]c2c2ccccc12 (3D coordinates assigned)
Oc1c(Cl)c2nc(Cc3ccccc3)[n-]c2c2ccccc12 (optimized conformer: 76.04156244398678 kcal/mol)

>  <smiles>  (38) 
Oc1c(Cl)c2nc(Cc3ccccc3)[nH]c2c2ccccc12

>  <score_type>  (38) 
oracle

>  <origin>  (38) 
adgpu

>  <m_score__min__energy>  (38) 
-9.0600000000000005

>  <m_primary>  (38) 
energy

$$$$
38:0
     RDKit          3D

 57 59  0  0  0  0  0  0  0  0999 V2000
   -1.2680   25.8920  -27.5850 C   0  0  0  0  0  0  0  0  0  0  0  0
   -1.6980   25.6220  -28.9140 O   0  0  0  0  0  0  0  0  0  0  0  0
   -1.9970   24.3430  -29.4130 C   0  0  0  0  0  0  0  0  0  0  0  0
   -1.1790   23.2330  -29.1470 C   0  0  0  0  0  0  0  0  0  0  0  0
   -1.4970   21.9650  -29.6520 C   0  0  0  0  0  0  0  0  0  0  0  0
   -0.6360   20.8030  -29.3040 C   0  0  0  0  0  0  0  0  0  0  0  0
   -0.5750   20.4230  -28.1030 O   0  0  0  0  0  0  0  0  0  0  0  0
    0.0740   20.0620  -30.3130 N   0  0  0  0  0  0  0  0  0  0  0  0
    0.5530   18.7000  -30.0820 C   0  0  0  0  0  0  0  0  0  0  0  0
    0.3160   17.8150  -31.3120 C   0  0  0  0  0  0  0  0  0  0  0  0
   -0.2080   18.5820  -32.4000 O   0  0  0  0  0  0  0  0  0  0  0  0
   -1.5660   18.6700  -32.7470 C   0  0  0  0  0  0  0  0  0  0  0  0
   -2.2120   19.8980  -32.9650 C   0  0  0  0  0  0  0  0  0  0  0  0
   -3.5400   19.9320  -33.3960 C   0  0  0  0  0  0  0  0  0  0  0  0
   -4.2600   18.7390  -33.5850 C   0  0  0  0  0  0  0  0  0  0  0  0
   -5.6470   18.7570  -34.1130 C   0  0  0  0  0  0  0  0  0  0  0  0
   -5.8330   18.5440  -35.3430 O   0  0  0  0  0  0  0  0  0  0  0  0
   -6.8230   19.0380  -33.2550 C   0  0  0  0  0  0  0  0  0  0  0  0
   -7.5000   18.0040  -32.5850 C   0  0  0  0  0  0  0  0  0  0  0  0
   -8.6070   18.2870  -31.7780 C   0  0  0  0  0  0  0  0  0  0  0  0
   -9.0550   19.6030  -31.6430 C   0  0  0  0  0  0  0  0  0  0  0  0
   -8.4080   20.6350  -32.3260 C   0  0  0  0  0  0  0  0  0  0  0  0
   -7.3050   20.3540  -33.1380 C   0  0  0  0  0  0  0  0  0  0  0  0
   -3.6220   17.5150  -33.3230 C   0  0  0  0  0  0  0  0  0  0  0  0
   -2.2930   17.4830  -32.8940 C   0  0  0  0  0  0  0  0  0  0  0  0
   -2.6520   21.8180  -30.4350 C   0  0  0  0  0  0  0  0  0  0  0  0
   -3.5010   22.9130  -30.6940 C   0  0  0  0  0  0  0  0  0  0  0  0
   -4.6920   22.7480  -31.4170 O   0  0  0  0  0  0  0  0  0  0  0  0
   -5.9290   22.3130  -30.8610 C   0  0  0  0  0  0  0  0  0  0  0  0
   -3.1490   24.1930  -30.1990 C   0  0  0  0  0  0  0  0  0  0  0  0
   -3.9050   25.3560  -30.4480 O   0  0  0  0  0  0  0  0  0  0  0  0
   -5.3200   25.4770  -30.3500 C   0  0  0  0  0  0  0  0  0  0  0  0
   -1.9776   25.4464  -26.8724 H   0  0  0  0  0  0  0  0  0  0  0  0
   -0.2693   25.4585  -27.4275 H   0  0  0  0  0  0  0  0  0  0  0  0
   -1.2246   26.9798  -27.4275 H   0  0  0  0  0  0  0  0  0  0  0  0
   -0.2752   23.3607  -28.5331 H   0  0  0  0  0  0  0  0  0  0  0  0
    0.1450   20.4250  -31.2880 H   0  0  0  0  0  0  0  0  0  0  0  0
    1.6307   18.7304  -29.8636 H   0  0  0  0  0  0  0  0  0  0  0  0
   -0.0018   18.2739  -29.2331 H   0  0  0  0  0  0  0  0  0  0  0  0
    1.2700   17.3610  -31.6181 H   0  0  0  0  0  0  0  0  0  0  0  0
   -0.4138   17.0353  -31.0484 H   0  0  0  0  0  0  0  0  0  0  0  0
   -1.6684   20.8391  -32.7952 H   0  0  0  0  0  0  0  0  0  0  0  0
   -4.0265   20.8995  -33.5891 H   0  0  0  0  0  0  0  0  0  0  0  0
   -7.1567   16.9649  -32.6962 H   0  0  0  0  0  0  0  0  0  0  0  0
   -9.1248   17.4729  -31.2496 H   0  0  0  0  0  0  0  0  0  0  0  0
   -9.9178   19.8266  -30.9984 H   0  0  0  0  0  0  0  0  0  0  0  0
   -8.7665   21.6700  -32.2251 H   0  0  0  0  0  0  0  0  0  0  0  0
   -6.8109   21.1678  -33.6890 H   0  0  0  0  0  0  0  0  0  0  0  0
   -4.1742   16.5731  -33.4569 H   0  0  0  0  0  0  0  0  0  0  0  0
   -1.8145   16.5182  -32.6701 H   0  0  0  0  0  0  0  0  0  0  0  0
   -2.8992   20.8314  -30.8539 H   0  0  0  0  0  0  0  0  0  0  0  0
   -5.8655   22.3353  -29.7631 H   0  0  0  0  0  0  0  0  0  0  0  0
   -6.7364   22.9811  -31.1953 H   0  0  0  0  0  0  0  0  0  0  0  0
   -6.1405   21.2866  -31.1953 H   0  0  0  0  0  0  0  0  0  0  0  0
   -5.6133   25.5021  -29.2901 H   0  0  0  0  0  0  0  0  0  0  0  0
   -5.6435   26.4061  -30.8421 H   0  0  0  0  0  0  0  0  0  0  0  0
   -5.7966   24.6163  -30.8421 H   0  0  0  0  0  0  0  0  0  0  0  0
  1  2  1  0
  2  3  1  0
  3  4  2  0
  4  5  1  0
  5  6  1  0
  6  7  2  0
  6  8  1  0
  8  9  1  0
  9 10  1  0
 10 11  1  0
 11 12  1  0
 12 13  2  0
 13 14  1  0
 14 15  2  0
 15 16  1  0
 16 17  2  0
 16 18  1  0
 18 19  2  0
 19 20  1  0
 20 21  2  0
 21 22  1  0
 22 23  2  0
 15 24  1  0
 24 25  2  0
  5 26  2  0
 26 27  1  0
 27 28  1  0
 28 29  1  0
 27 30  2  0
 30 31  1  0
 31 32  1  0
 30  3  1  0
 25 12  1  0
 23 18  1  0
  1 33  1  0
  1 34  1  0
  1 35  1  0
  4 36  1  0
  8 37  1  0
  9 38  1  0
  9 39  1  0
 10 40  1  0
 10 41  1  0
 13 42  1  0
 14 43  1  0
 19 44  1  0
 20 45  1  0
 21 46  1  0
 22 47  1  0
 23 48  1  0
 24 49  1  0
 25 50  1  0
 26 51  1  0
 29 52  1  0
 29 53  1  0
 29 54  1  0
 32 55  1  0
 32 56  1  0
 32 57  1  0
M  END
>  <UniqueID>  (39) 
38

>  <SMILES>  (39) 
COc1cc(C(=O)NCCOc2ccc(C(=O)c3ccccc3)cc2)cc(OC)c1OC

>  <Energy>  (39) 
62.13029073918879

>  <Genealogy>  (39) 
COc1cc(C(=O)NCCOc2ccc(C(=O)c3ccccc3)cc2)cc(OC)c1OC (3D coordinates assigned)
COc1cc(C(=O)NCCOc2ccc(C(=O)c3ccccc3)cc2)cc(OC)c1OC (optimized conformer: 62.13029073918879 kcal/mol)

>  <smiles>  (39) 
COc1cc(C(=O)NCCOc2ccc(C(=O)c3ccccc3)cc2)cc(OC)c1OC

>  <score_type>  (39) 
oracle

>  <origin>  (39) 
adgpu

>  <m_score__min__energy>  (39) 
-9.0399999999999991

>  <m_primary>  (39) 
energy

$$$$
39:0
     RDKit          3D

 41 43  0  0  0  0  0  0  0  0999 V2000
   -5.2930   26.1260  -30.4350 O   0  0  0  0  0  0  0  0  0  0  0  0
   -4.7290   25.0200  -30.6450 C   0  0  0  0  0  0  0  0  0  0  0  0
   -3.3120   24.9240  -30.4250 N   0  0  0  0  0  0  0  0  0  0  0  0
   -2.6670   24.4930  -29.2160 C   0  0  0  0  0  0  0  0  0  0  0  0
   -3.0470   23.3030  -28.5670 C   0  0  0  0  0  0  0  0  0  0  0  0
   -2.4390   22.9340  -27.3640 C   0  0  0  0  0  0  0  0  0  0  0  0
   -1.4370   23.7330  -26.8110 C   0  0  0  0  0  0  0  0  0  0  0  0
   -1.0310   24.8980  -27.4680 C   0  0  0  0  0  0  0  0  0  0  0  0
   -1.6390   25.2760  -28.6690 C   0  0  0  0  0  0  0  0  0  0  0  0
   -1.2320   26.4420  -29.3080 O   0  0  0  0  0  0  0  0  0  0  0  0
   -5.5470   23.8450  -31.0490 C   0  0  0  0  0  0  0  0  0  0  0  0
   -4.9170   22.6880  -31.5390 C   0  0  0  0  0  0  0  0  0  0  0  0
   -5.6660   21.6040  -32.0080 C   0  0  0  0  0  0  0  0  0  0  0  0
   -4.8690   20.2340  -32.7830 S   0  0  0  0  0  0  0  0  0  0  0  0
   -3.9200   20.7310  -33.8380 O   0  0  0  0  0  0  0  0  0  0  0  0
   -4.0870   19.4920  -31.7330 O   0  0  0  0  0  0  0  0  0  0  0  0
   -6.0700   19.1650  -33.4830 N   0  0  0  0  0  0  0  0  0  0  0  0
   -6.5730   18.2190  -32.4700 C   0  0  0  0  0  0  0  0  0  0  0  0
   -7.2580   17.0200  -33.1460 C   0  0  0  0  0  0  0  0  0  0  0  0
   -6.4080   16.2730  -34.0080 O   0  0  0  0  0  0  0  0  0  0  0  0
   -5.2740   16.9980  -34.4640 C   0  0  0  0  0  0  0  0  0  0  0  0
   -5.5690   18.4890  -34.7030 C   0  0  0  0  0  0  0  0  0  0  0  0
   -7.0620   21.6390  -31.9100 C   0  0  0  0  0  0  0  0  0  0  0  0
   -7.7000   22.7590  -31.3750 C   0  0  0  0  0  0  0  0  0  0  0  0
   -6.9540   23.8660  -30.9570 C   0  0  0  0  0  0  0  0  0  0  0  0
   -7.6220   24.9860  -30.4700 O   0  0  0  0  0  0  0  0  0  0  0  0
   -3.8245   22.6619  -29.0079 H   0  0  0  0  0  0  0  0  0  0  0  0
   -2.7508   22.0118  -26.8518 H   0  0  0  0  0  0  0  0  0  0  0  0
   -0.9671   23.4460  -25.8587 H   0  0  0  0  0  0  0  0  0  0  0  0
   -0.2309   25.5192  -27.0390 H   0  0  0  0  0  0  0  0  0  0  0  0
   -3.8184   22.6343  -31.5538 H   0  0  0  0  0  0  0  0  0  0  0  0
   -5.7306   17.8587  -31.8613 H   0  0  0  0  0  0  0  0  0  0  0  0
   -7.3068   18.7358  -31.8340 H   0  0  0  0  0  0  0  0  0  0  0  0
   -7.6297   16.3466  -32.3596 H   0  0  0  0  0  0  0  0  0  0  0  0
   -8.0641   17.4286  -33.7731 H   0  0  0  0  0  0  0  0  0  0  0  0
   -4.4782   16.9149  -33.7091 H   0  0  0  0  0  0  0  0  0  0  0  0
   -4.9724   16.5639  -35.4287 H   0  0  0  0  0  0  0  0  0  0  0  0
   -4.6426   18.9855  -35.0276 H   0  0  0  0  0  0  0  0  0  0  0  0
   -6.3522   18.5584  -35.4723 H   0  0  0  0  0  0  0  0  0  0  0  0
   -7.6578   20.7813  -32.2556 H   0  0  0  0  0  0  0  0  0  0  0  0
   -8.7959   22.7713  -31.2815 H   0  0  0  0  0  0  0  0  0  0  0  0
  1  2  2  0
  2  3  1  0
  3  4  1  0
  4  5  2  0
  5  6  1  0
  6  7  2  0
  7  8  1  0
  8  9  2  0
  9 10  1  0
  2 11  1  0
 11 12  2  0
 12 13  1  0
 13 14  1  0
 14 15  2  0
 14 16  2  0
 14 17  1  0
 17 18  1  0
 18 19  1  0
 19 20  1  0
 20 21  1  0
 21 22  1  0
 13 23  2  0
 23 24  1  0
 24 25  2  0
 25 26  1  0
  9  4  1  0
 25 11  1  0
 22 17  1  0
  5 27  1  0
  6 28  1  0
  7 29  1  0
  8 30  1  0
 12 31  1  0
 18 32  1  0
 18 33  1  0
 19 34  1  0
 19 35  1  0
 21 36  1  0
 21 37  1  0
 22 38  1  0
 22 39  1  0
 23 40  1  0
 24 41  1  0
M  CHG  3   3  -1  10  -1  26  -1
M  END
>  <UniqueID>  (40) 
39

>  <SMILES>  (40) 
O=C([N-]c1ccccc1[O-])c1cc(S(=O)(=O)N2CCOCC2)ccc1[O-]

>  <Energy>  (40) 
62.94144019426347

>  <Genealogy>  (40) 
O=C([N-]c1ccccc1[O-])c1cc(S(=O)(=O)N2CCOCC2)ccc1[O-] (protonated)
O=C([N-]c1ccccc1[O-])c1cc(S(=O)(=O)N2CCOCC2)ccc1[O-] (3D coordinates assigned)
O=C([N-]c1ccccc1[O-])c1cc(S(=O)(=O)N2CCOCC2)ccc1[O-] (nonaromatic ring conformer: 62.94144019426347 kcal/mol)

>  <smiles>  (40) 
O=C(Nc1ccccc1O)c1cc(S(=O)(=O)N2CCOCC2)ccc1O

>  <score_type>  (40) 
oracle

>  <origin>  (40) 
adgpu

>  <m_score__min__energy>  (40) 
-14.92

>  <m_primary>  (40) 
energy

$$$$
40:0
     RDKit          3D

 51 54  0  0  0  0  0  0  0  0999 V2000
    2.2030   20.0440  -28.7240 O   0  0  0  0  0  0  0  0  0  0  0  0
    1.0900   19.0690  -28.9970 S   0  0  0  0  0  0  0  0  0  0  0  0
    1.6600   17.8650  -29.6900 O   0  0  0  0  0  0  0  0  0  0  0  0
    0.3610   18.5760  -27.4950 N   0  0  0  0  0  0  0  0  0  0  0  0
   -0.8390   19.3610  -27.2040 C   0  0  0  0  0  0  0  0  0  0  0  0
   -1.9780   18.4320  -26.7660 C   0  0  0  0  0  0  0  0  0  0  0  0
   -2.8410   18.9540  -25.6270 C   0  0  0  0  0  0  0  0  0  0  0  0
   -3.3820   18.9420  -27.0490 C   0  0  0  0  0  0  0  0  0  0  0  0
   -0.1260   19.8040  -30.0400 C   0  0  0  0  0  0  0  0  0  0  0  0
   -0.7490   19.0310  -31.0270 C   0  0  0  0  0  0  0  0  0  0  0  0
   -1.7150   19.6000  -31.8600 C   0  0  0  0  0  0  0  0  0  0  0  0
   -2.0650   20.9480  -31.7240 C   0  0  0  0  0  0  0  0  0  0  0  0
   -3.0480   21.4760  -32.5770 O   0  0  0  0  0  0  0  0  0  0  0  0
   -4.4300   21.3850  -32.3580 C   0  0  0  0  0  0  0  0  0  0  0  0
   -5.0690   20.1710  -32.6340 C   0  0  0  0  0  0  0  0  0  0  0  0
   -6.4400   20.0250  -32.4010 C   0  0  0  0  0  0  0  0  0  0  0  0
   -7.1830   21.0950  -31.8930 C   0  0  0  0  0  0  0  0  0  0  0  0
   -8.9050   20.9100  -31.6070 Cl  0  0  0  0  0  0  0  0  0  0  0  0
   -6.5570   22.3180  -31.6310 C   0  0  0  0  0  0  0  0  0  0  0  0
   -5.1880   22.4800  -31.8850 C   0  0  0  0  0  0  0  0  0  0  0  0
   -4.6070   23.7770  -31.7350 N   0  0  0  0  0  0  0  0  0  0  0  0
   -4.6870   24.6320  -30.2280 S   0  0  0  0  0  0  0  0  0  0  0  0
   -6.0980   24.6200  -29.7130 O   0  0  0  0  0  0  0  0  0  0  0  0
   -4.2540   26.0590  -30.4370 O   0  0  0  0  0  0  0  0  0  0  0  0
   -3.5980   23.8700  -29.0610 C   0  0  0  0  0  0  0  0  0  0  0  0
   -3.9340   22.6320  -28.4870 C   0  0  0  0  0  0  0  0  0  0  0  0
   -3.0450   21.9940  -27.6130 C   0  0  0  0  0  0  0  0  0  0  0  0
   -1.8140   22.5840  -27.3140 C   0  0  0  0  0  0  0  0  0  0  0  0
   -1.4720   23.8150  -27.8830 C   0  0  0  0  0  0  0  0  0  0  0  0
   -2.3560   24.4580  -28.7590 C   0  0  0  0  0  0  0  0  0  0  0  0
   -1.9890   25.6730  -29.3310 O   0  0  0  0  0  0  0  0  0  0  0  0
   -1.4460   21.7200  -30.7220 C   0  0  0  0  0  0  0  0  0  0  0  0
   -0.4770   21.1520  -29.8910 C   0  0  0  0  0  0  0  0  0  0  0  0
   -0.6204   20.0755  -26.3967 H   0  0  0  0  0  0  0  0  0  0  0  0
   -1.1440   19.9050  -28.1101 H   0  0  0  0  0  0  0  0  0  0  0  0
   -1.4337   17.4976  -26.9675 H   0  0  0  0  0  0  0  0  0  0  0  0
   -3.2452   18.2564  -24.8787 H   0  0  0  0  0  0  0  0  0  0  0  0
   -2.7199   19.7201  -24.8470 H   0  0  0  0  0  0  0  0  0  0  0  0
   -4.1776   18.2358  -27.3288 H   0  0  0  0  0  0  0  0  0  0  0  0
   -3.8143   19.6962  -27.7230 H   0  0  0  0  0  0  0  0  0  0  0  0
   -0.4768   17.9720  -31.1469 H   0  0  0  0  0  0  0  0  0  0  0  0
   -2.2043   18.9838  -32.6287 H   0  0  0  0  0  0  0  0  0  0  0  0
   -4.4896   19.3270  -33.0364 H   0  0  0  0  0  0  0  0  0  0  0  0
   -6.9348   19.0668  -32.6177 H   0  0  0  0  0  0  0  0  0  0  0  0
   -7.1414   23.1563  -31.2239 H   0  0  0  0  0  0  0  0  0  0  0  0
   -4.8996   22.1620  -28.7253 H   0  0  0  0  0  0  0  0  0  0  0  0
   -3.3158   21.0281  -27.1617 H   0  0  0  0  0  0  0  0  0  0  0  0
   -1.1140   22.0803  -26.6311 H   0  0  0  0  0  0  0  0  0  0  0  0
   -0.5049   24.2802  -27.6416 H   0  0  0  0  0  0  0  0  0  0  0  0
   -1.7268   22.7757  -30.5929 H   0  0  0  0  0  0  0  0  0  0  0  0
    0.0111   21.7643  -29.1185 H   0  0  0  0  0  0  0  0  0  0  0  0
  1  2  2  0
  2  3  2  0
  2  4  1  0
  4  5  1  0
  5  6  1  0
  6  7  1  0
  7  8  1  0
  2  9  1  0
  9 10  2  0
 10 11  1  0
 11 12  2  0
 12 13  1  0
 13 14  1  0
 14 15  2  0
 15 16  1  0
 16 17  2  0
 17 18  1  0
 17 19  1  0
 19 20  2  0
 20 21  1  0
 21 22  1  0
 22 23  2  0
 22 24  2  0
 22 25  1  0
 25 26  2  0
 26 27  1  0
 27 28  2  0
 28 29  1  0
 29 30  2  0
 30 31  1  0
 12 32  1  0
 32 33  2  0
  8  6  1  0
 33  9  1  0
 20 14  1  0
 30 25  1  0
  5 34  1  0
  5 35  1  0
  6 36  1  0
  7 37  1  0
  7 38  1  0
  8 39  1  0
  8 40  1  0
 10 41  1  0
 11 42  1  0
 15 43  1  0
 16 44  1  0
 19 45  1  0
 26 46  1  0
 27 47  1  0
 28 48  1  0
 29 49  1  0
 32 50  1  0
 33 51  1  0
M  CHG  3   4  -1  21  -1  31  -1
M  END
>  <UniqueID>  (41) 
40

>  <SMILES>  (41) 
O=S(=O)([N-]CC1CC1)c1ccc(Oc2ccc(Cl)cc2[N-]S(=O)(=O)c2ccccc2[O-])cc1

>  <Energy>  (41) 
332.46067200699895

>  <Genealogy>  (41) 
O=S(=O)([N-]CC1CC1)c1ccc(Oc2ccc(Cl)cc2[N-]S(=O)(=O)c2ccccc2[O-])cc1 (protonated)
O=S(=O)([N-]CC1CC1)c1ccc(Oc2ccc(Cl)cc2[N-]S(=O)(=O)c2ccccc2[O-])cc1 (3D coordinates assigned)
O=S(=O)([N-]CC1CC1)c1ccc(Oc2ccc(Cl)cc2[N-]S(=O)(=O)c2ccccc2[O-])cc1 (nonaromatic ring conformer: 332.46067200699895 kcal/mol)

>  <smiles>  (41) 
O=S(=O)(NCC1CC1)c1ccc(Oc2ccc(Cl)cc2NS(=O)(=O)c2ccccc2O)cc1

>  <score_type>  (41) 
oracle

>  <origin>  (41) 
adgpu

>  <m_score__min__energy>  (41) 
-14.4

>  <m_primary>  (41) 
energy

$$$$
41:0
     RDKit          3D

 56 59  0  0  0  0  0  0  0  0999 V2000
   -2.6300   23.0290  -29.4960 O   0  0  0  0  0  0  0  0  0  0  0  0
   -3.2270   22.8590  -30.5920 C   0  0  0  0  0  0  0  0  0  0  0  0
   -2.5660   22.1090  -31.6220 N   0  0  0  0  0  0  0  0  0  0  0  0
   -3.1080   20.9790  -32.3210 C   0  0  0  0  0  0  0  0  0  0  0  0
   -4.2460   21.0930  -33.1370 C   0  0  0  0  0  0  0  0  0  0  0  0
   -4.7470   19.9750  -33.8100 C   0  0  0  0  0  0  0  0  0  0  0  0
   -4.1070   18.7340  -33.6840 C   0  0  0  0  0  0  0  0  0  0  0  0
   -4.7200   17.3130  -34.5260 S   0  0  0  0  0  0  0  0  0  0  0  0
   -5.3640   17.7690  -35.8050 O   0  0  0  0  0  0  0  0  0  0  0  0
   -3.5860   16.3830  -34.8610 O   0  0  0  0  0  0  0  0  0  0  0  0
   -5.9070   16.4880  -33.5350 N   0  0  0  0  0  0  0  0  0  0  0  0
   -5.3520   16.0920  -32.2270 C   0  0  0  0  0  0  0  0  0  0  0  0
   -4.4070   14.8700  -32.3340 C   0  0  0  0  0  0  0  0  0  0  0  0
   -4.5600   14.1370  -33.5370 O   0  0  0  0  0  0  0  0  0  0  0  0
   -5.9270   13.9930  -33.8480 C   0  0  0  0  0  0  0  0  0  0  0  0
   -6.5290   15.3510  -34.2500 C   0  0  0  0  0  0  0  0  0  0  0  0
   -2.9590   18.6250  -32.8900 C   0  0  0  0  0  0  0  0  0  0  0  0
   -2.4570   19.7440  -32.2200 C   0  0  0  0  0  0  0  0  0  0  0  0
   -4.6090   23.3710  -30.7610 C   0  0  0  0  0  0  0  0  0  0  0  0
   -5.6690   22.4740  -30.9850 C   0  0  0  0  0  0  0  0  0  0  0  0
   -6.9780   22.9430  -31.1550 C   0  0  0  0  0  0  0  0  0  0  0  0
   -8.3020   21.8180  -31.4560 S   0  0  0  0  0  0  0  0  0  0  0  0
   -8.7640   21.2670  -30.1350 O   0  0  0  0  0  0  0  0  0  0  0  0
   -9.4530   22.5370  -32.1040 O   0  0  0  0  0  0  0  0  0  0  0  0
   -7.7470   20.5080  -32.4760 N   0  0  0  0  0  0  0  0  0  0  0  0
   -8.8810   19.7520  -33.0120 C   0  0  0  0  0  0  0  0  0  0  0  0
   -9.1560   18.5840  -32.0760 C   0  0  0  0  0  0  0  0  0  0  0  0
   -7.9080   18.4400  -31.2270 C   0  0  0  0  0  0  0  0  0  0  0  0
   -6.9680   19.5430  -31.6910 C   0  0  0  0  0  0  0  0  0  0  0  0
   -7.2390   24.3140  -31.0740 C   0  0  0  0  0  0  0  0  0  0  0  0
   -6.1990   25.2130  -30.8360 C   0  0  0  0  0  0  0  0  0  0  0  0
   -4.8880   24.7520  -30.6810 C   0  0  0  0  0  0  0  0  0  0  0  0
   -3.8690   25.6740  -30.4650 O   0  0  0  0  0  0  0  0  0  0  0  0
   -4.7453   22.0670  -33.2468 H   0  0  0  0  0  0  0  0  0  0  0  0
   -5.6444   20.0690  -34.4392 H   0  0  0  0  0  0  0  0  0  0  0  0
   -4.7879   16.9398  -31.8110 H   0  0  0  0  0  0  0  0  0  0  0  0
   -6.1931   15.8104  -31.5764 H   0  0  0  0  0  0  0  0  0  0  0  0
   -3.3684   15.2275  -32.2745 H   0  0  0  0  0  0  0  0  0  0  0  0
   -4.6641   14.1907  -31.5079 H   0  0  0  0  0  0  0  0  0  0  0  0
   -6.0366   13.2859  -34.6834 H   0  0  0  0  0  0  0  0  0  0  0  0
   -6.4577   13.6145  -32.9619 H   0  0  0  0  0  0  0  0  0  0  0  0
   -6.3838   15.4937  -35.3310 H   0  0  0  0  0  0  0  0  0  0  0  0
   -7.5953   15.3335  -33.9805 H   0  0  0  0  0  0  0  0  0  0  0  0
   -2.4501   17.6546  -32.7931 H   0  0  0  0  0  0  0  0  0  0  0  0
   -1.5459   19.6538  -31.6103 H   0  0  0  0  0  0  0  0  0  0  0  0
   -5.4681   21.3933  -31.0271 H   0  0  0  0  0  0  0  0  0  0  0  0
   -9.7677   20.4005  -33.0693 H   0  0  0  0  0  0  0  0  0  0  0  0
   -8.6499   19.3840  -34.0225 H   0  0  0  0  0  0  0  0  0  0  0  0
  -10.0293   18.7972  -31.4421 H   0  0  0  0  0  0  0  0  0  0  0  0
   -9.3796   17.6611  -32.6312 H   0  0  0  0  0  0  0  0  0  0  0  0
   -8.1516   18.5660  -30.1617 H   0  0  0  0  0  0  0  0  0  0  0  0
   -7.4533   17.4445  -31.3373 H   0  0  0  0  0  0  0  0  0  0  0  0
   -6.5232   20.0448  -30.8190 H   0  0  0  0  0  0  0  0  0  0  0  0
   -6.1582   19.1199  -32.3035 H   0  0  0  0  0  0  0  0  0  0  0  0
   -8.2671   24.6850  -31.1982 H   0  0  0  0  0  0  0  0  0  0  0  0
   -6.4115   26.2903  -30.7699 H   0  0  0  0  0  0  0  0  0  0  0  0
  1  2  2  0
  2  3  1  0
  3  4  1  0
  4  5  2  0
  5  6  1  0
  6  7  2  0
  7  8  1  0
  8  9  2  0
  8 10  2  0
  8 11  1  0
 11 12  1  0
 12 13  1  0
 13 14  1  0
 14 15  1  0
 15 16  1  0
  7 17  1  0
 17 18  2  0
  2 19  1  0
 19 20  2  0
 20 21  1  0
 21 22  1  0
 22 23  2  0
 22 24  2  0
 22 25  1  0
 25 26  1  0
 26 27  1  0
 27 28  1  0
 28 29  1  0
 21 30  2  0
 30 31  1  0
 31 32  2  0
 32 33  1  0
 18  4  1  0
 32 19  1  0
 16 11  1  0
 29 25  1  0
  5 34  1  0
  6 35  1  0
 12 36  1  0
 12 37  1  0
 13 38  1  0
 13 39  1  0
 15 40  1  0
 15 41  1  0
 16 42  1  0
 16 43  1  0
 17 44  1  0
 18 45  1  0
 20 46  1  0
 26 47  1  0
 26 48  1  0
 27 49  1  0
 27 50  1  0
 28 51  1  0
 28 52  1  0
 29 53  1  0
 29 54  1  0
 30 55  1  0
 31 56  1  0
M  CHG  2   3  -1  33  -1
M  END
>  <UniqueID>  (42) 
41

>  <SMILES>  (42) 
O=C([N-]c1ccc(S(=O)(=O)N2CCOCC2)cc1)c1cc(S(=O)(=O)N2CCCC2)ccc1[O-]

>  <Energy>  (42) 
77.50217441123198

>  <Genealogy>  (42) 
O=C([N-]c1ccc(S(=O)(=O)N2CCOCC2)cc1)c1cc(S(=O)(=O)N2CCCC2)ccc1[O-] (protonated)
O=C([N-]c1ccc(S(=O)(=O)N2CCOCC2)cc1)c1cc(S(=O)(=O)N2CCCC2)ccc1[O-] (3D coordinates assigned)
O=C([N-]c1ccc(S(=O)(=O)N2CCOCC2)cc1)c1cc(S(=O)(=O)N2CCCC2)ccc1[O-] (nonaromatic ring conformer: 77.50217441123198 kcal/mol)

>  <smiles>  (42) 
O=C(Nc1ccc(S(=O)(=O)N2CCOCC2)cc1)c1cc(S(=O)(=O)N2CCCC2)ccc1O

>  <score_type>  (42) 
oracle

>  <origin>  (42) 
adgpu

>  <m_score__min__energy>  (42) 
-13.76

>  <m_primary>  (42) 
energy

$$$$
42:0
     RDKit          3D

 42 44  0  0  0  0  0  0  0  0999 V2000
   -4.5090   16.2640  -33.3940 C   0  0  0  0  0  0  0  0  0  0  0  0
   -5.2650   17.4910  -33.7940 C   0  0  0  0  0  0  0  0  0  0  0  0
   -5.4440   17.8640  -35.0740 N   0  0  0  0  0  0  0  0  0  0  0  0
   -6.1580   18.9510  -35.0580 O   0  0  0  0  0  0  0  0  0  0  0  0
   -6.4570   19.3130  -33.8320 C   0  0  0  0  0  0  0  0  0  0  0  0
   -7.1810   20.3710  -33.5980 N   0  0  0  0  0  0  0  0  0  0  0  0
   -7.7050   21.0570  -32.0920 S   0  0  0  0  0  0  0  0  0  0  0  0
   -8.9250   21.9040  -32.3210 O   0  0  0  0  0  0  0  0  0  0  0  0
   -8.0770   19.9330  -31.1670 O   0  0  0  0  0  0  0  0  0  0  0  0
   -6.4140   21.9760  -31.3250 C   0  0  0  0  0  0  0  0  0  0  0  0
   -6.6950   22.7890  -30.2200 C   0  0  0  0  0  0  0  0  0  0  0  0
   -5.6720   23.5120  -29.6010 C   0  0  0  0  0  0  0  0  0  0  0  0
   -4.3540   23.4270  -30.0750 C   0  0  0  0  0  0  0  0  0  0  0  0
   -3.3210   24.1940  -29.4320 N   0  0  0  0  0  0  0  0  0  0  0  0
   -3.3360   24.5450  -28.0390 C   0  0  0  0  0  0  0  0  0  0  0  0
   -4.4270   24.5510  -27.4050 O   0  0  0  0  0  0  0  0  0  0  0  0
   -2.0940   24.9750  -27.3520 C   0  0  0  0  0  0  0  0  0  0  0  0
   -1.8810   24.6050  -26.0120 C   0  0  0  0  0  0  0  0  0  0  0  0
   -0.7230   25.0040  -25.3400 C   0  0  0  0  0  0  0  0  0  0  0  0
    0.2400   25.7700  -25.9980 C   0  0  0  0  0  0  0  0  0  0  0  0
    0.0510   26.1300  -27.3340 C   0  0  0  0  0  0  0  0  0  0  0  0
   -1.1030   25.7310  -28.0170 C   0  0  0  0  0  0  0  0  0  0  0  0
   -1.2390   26.0700  -29.3600 O   0  0  0  0  0  0  0  0  0  0  0  0
   -4.0830   22.6350  -31.2070 C   0  0  0  0  0  0  0  0  0  0  0  0
   -5.1070   21.9130  -31.8250 C   0  0  0  0  0  0  0  0  0  0  0  0
   -5.8850   18.3970  -32.9450 C   0  0  0  0  0  0  0  0  0  0  0  0
   -5.9690   18.2700  -31.4520 C   0  0  0  0  0  0  0  0  0  0  0  0
   -4.4692   16.1993  -32.2966 H   0  0  0  0  0  0  0  0  0  0  0  0
   -5.0156   15.3740  -33.7956 H   0  0  0  0  0  0  0  0  0  0  0  0
   -3.4863   16.3163  -33.7956 H   0  0  0  0  0  0  0  0  0  0  0  0
   -7.7242   22.8587  -29.8381 H   0  0  0  0  0  0  0  0  0  0  0  0
   -5.9014   24.1521  -28.7363 H   0  0  0  0  0  0  0  0  0  0  0  0
   -2.5760   24.6150  -30.0320 H   0  0  0  0  0  0  0  0  0  0  0  0
   -2.6328   23.9961  -25.4884 H   0  0  0  0  0  0  0  0  0  0  0  0
   -0.5701   24.7137  -24.2901 H   0  0  0  0  0  0  0  0  0  0  0  0
    1.1473   26.0900  -25.4648 H   0  0  0  0  0  0  0  0  0  0  0  0
    0.8134   26.7304  -27.8520 H   0  0  0  0  0  0  0  0  0  0  0  0
   -3.0596   22.5844  -31.6070 H   0  0  0  0  0  0  0  0  0  0  0  0
   -4.8863   21.2933  -32.7067 H   0  0  0  0  0  0  0  0  0  0  0  0
   -5.4203   19.0995  -30.9820 H   0  0  0  0  0  0  0  0  0  0  0  0
   -7.0232   18.3042  -31.1398 H   0  0  0  0  0  0  0  0  0  0  0  0
   -5.5250   17.3132  -31.1398 H   0  0  0  0  0  0  0  0  0  0  0  0
  1  2  1  0
  2  3  1  0
  3  4  1  0
  4  5  1  0
  5  6  2  3
  6  7  1  0
  7  8  2  0
  7  9  2  0
  7 10  1  0
 10 11  2  0
 11 12  1  0
 12 13  2  0
 13 14  1  0
 14 15  1  0
 15 16  2  0
 15 17  1  0
 17 18  2  0
 18 19  1  0
 19 20  2  0
 20 21  1  0
 21 22  2  0
 22 23  1  0
 13 24  1  0
 24 25  2  0
  5 26  1  0
 26 27  1  0
 26  2  2  0
 25 10  1  0
 22 17  1  0
  1 28  1  0
  1 29  1  0
  1 30  1  0
 11 31  1  0
 12 32  1  0
 14 33  1  0
 18 34  1  0
 19 35  1  0
 20 36  1  0
 21 37  1  0
 24 38  1  0
 25 39  1  0
 27 40  1  0
 27 41  1  0
 27 42  1  0
M  CHG  2   3  -1  23  -1
M  END
>  <UniqueID>  (43) 
42

>  <SMILES>  (43) 
Cc1[n-]oc(=NS(=O)(=O)c2ccc(NC(=O)c3ccccc3[O-])cc2)c1C

>  <Energy>  (43) 
91.28387806738928

>  <Genealogy>  (43) 
Cc1[n-]oc(=NS(=O)(=O)c2ccc(NC(=O)c3ccccc3[O-])cc2)c1C (protonated)
Cc1[n-]oc(=NS(=O)(=O)c2ccc(NC(=O)c3ccccc3[O-])cc2)c1C (3D coordinates assigned)
Cc1[n-]oc(=NS(=O)(=O)c2ccc(NC(=O)c3ccccc3[O-])cc2)c1C (optimized conformer: 91.28387806738928 kcal/mol)

>  <smiles>  (43) 
Cc1[nH]oc(=NS(=O)(=O)c2ccc(NC(=O)c3ccccc3O)cc2)c1C

>  <score_type>  (43) 
oracle

>  <origin>  (43) 
adgpu

>  <m_score__min__energy>  (43) 
-11.68

>  <m_primary>  (43) 
energy

$$$$
43:0
     RDKit          3D

 60 63  0  0  0  0  0  0  0  0999 V2000
   -0.7260   20.4800  -31.8750 C   0  0  0  0  0  0  0  0  0  0  0  0
   -0.0090   19.1420  -31.6940 C   0  0  0  0  0  0  0  0  0  0  0  0
   -0.4210   18.1180  -32.7580 C   0  0  0  0  0  0  0  0  0  0  0  0
   -1.2550   17.0590  -32.1650 N   0  0  0  0  0  0  0  0  0  0  0  0
   -2.1320   16.4050  -33.1530 C   0  0  0  0  0  0  0  0  0  0  0  0
   -3.3010   17.2830  -33.5370 C   0  0  0  0  0  0  0  0  0  0  0  0
   -4.2100   16.8820  -34.5230 C   0  0  0  0  0  0  0  0  0  0  0  0
   -5.2620   17.6780  -34.8460 N   0  0  0  0  0  0  0  0  0  0  0  0
   -5.4810   18.8760  -34.2370 C   0  0  0  0  0  0  0  0  0  0  0  0
   -6.4820   19.6080  -34.6130 N   0  0  0  0  0  0  0  0  0  0  0  0
   -4.5980   19.3220  -33.2310 C   0  0  0  0  0  0  0  0  0  0  0  0
   -4.7740   20.6310  -32.5540 C   0  0  0  0  0  0  0  0  0  0  0  0
   -5.9400   20.8860  -31.8110 C   0  0  0  0  0  0  0  0  0  0  0  0
   -6.0940   22.0970  -31.1310 C   0  0  0  0  0  0  0  0  0  0  0  0
   -5.0920   23.0750  -31.1960 C   0  0  0  0  0  0  0  0  0  0  0  0
   -5.2200   24.5380  -30.2270 S   0  0  0  0  0  0  0  0  0  0  0  0
   -4.5290   25.6850  -30.9120 O   0  0  0  0  0  0  0  0  0  0  0  0
   -6.6680   24.8970  -30.0340 O   0  0  0  0  0  0  0  0  0  0  0  0
   -4.4990   24.2240  -28.6850 N   0  0  0  0  0  0  0  0  0  0  0  0
   -3.2950   23.4640  -28.5650 C   0  0  0  0  0  0  0  0  0  0  0  0
   -3.3320   22.1330  -28.1290 C   0  0  0  0  0  0  0  0  0  0  0  0
   -2.1500   21.3910  -27.9930 C   0  0  0  0  0  0  0  0  0  0  0  0
   -0.9090   21.9930  -28.3130 C   0  0  0  0  0  0  0  0  0  0  0  0
   -0.8810   23.3300  -28.7500 C   0  0  0  0  0  0  0  0  0  0  0  0
   -2.0670   24.0550  -28.8910 C   0  0  0  0  0  0  0  0  0  0  0  0
   -2.0180   25.3710  -29.3390 O   0  0  0  0  0  0  0  0  0  0  0  0
    0.3950   21.2630  -28.0970 C   0  0  0  0  0  0  0  0  0  0  0  0
    0.2170   19.7410  -28.1230 C   0  0  0  0  0  0  0  0  0  0  0  0
   -0.9140   19.3240  -27.1800 C   0  0  0  0  0  0  0  0  0  0  0  0
   -2.2480   19.9220  -27.6400 C   0  0  0  0  0  0  0  0  0  0  0  0
   -3.9370   22.8340  -31.9540 C   0  0  0  0  0  0  0  0  0  0  0  0
   -3.7800   21.6220  -32.6320 C   0  0  0  0  0  0  0  0  0  0  0  0
   -3.5040   18.5100  -32.8930 C   0  0  0  0  0  0  0  0  0  0  0  0
   -0.9560   20.9091  -30.8886 H   0  0  0  0  0  0  0  0  0  0  0  0
   -0.0773   21.1710  -32.4333 H   0  0  0  0  0  0  0  0  0  0  0  0
   -1.6606   20.3226  -32.4333 H   0  0  0  0  0  0  0  0  0  0  0  0
    1.0760   19.3088  -31.7637 H   0  0  0  0  0  0  0  0  0  0  0  0
   -0.2885   18.7385  -30.7096 H   0  0  0  0  0  0  0  0  0  0  0  0
   -0.9921   18.6278  -33.5479 H   0  0  0  0  0  0  0  0  0  0  0  0
    0.4864   17.6600  -33.1786 H   0  0  0  0  0  0  0  0  0  0  0  0
   -0.6350   16.3440  -31.7140 H   0  0  0  0  0  0  0  0  0  0  0  0
   -1.5450   16.1795  -34.0555 H   0  0  0  0  0  0  0  0  0  0  0  0
   -2.5306   15.4855  -32.6994 H   0  0  0  0  0  0  0  0  0  0  0  0
   -4.0720   15.9196  -35.0376 H   0  0  0  0  0  0  0  0  0  0  0  0
   -7.1350   19.2980  -35.3660 H   0  0  0  0  0  0  0  0  0  0  0  0
   -6.7356   20.1278  -31.7647 H   0  0  0  0  0  0  0  0  0  0  0  0
   -7.0046   22.2834  -30.5427 H   0  0  0  0  0  0  0  0  0  0  0  0
   -4.2986   21.6651  -27.8908 H   0  0  0  0  0  0  0  0  0  0  0  0
    0.0820   23.8082  -28.9824 H   0  0  0  0  0  0  0  0  0  0  0  0
    1.0983   21.5511  -28.8922 H   0  0  0  0  0  0  0  0  0  0  0  0
    0.7778   21.5416  -27.1041 H   0  0  0  0  0  0  0  0  0  0  0  0
   -0.0273   19.4214  -29.1468 H   0  0  0  0  0  0  0  0  0  0  0  0
    1.1523   19.2650  -27.7936 H   0  0  0  0  0  0  0  0  0  0  0  0
   -0.9929   18.2269  -27.1731 H   0  0  0  0  0  0  0  0  0  0  0  0
   -0.6884   19.6957  -26.1696 H   0  0  0  0  0  0  0  0  0  0  0  0
   -2.5912   19.3707  -28.5279 H   0  0  0  0  0  0  0  0  0  0  0  0
   -2.9541   19.8326  -26.8013 H   0  0  0  0  0  0  0  0  0  0  0  0
   -3.1517   23.6018  -32.0152 H   0  0  0  0  0  0  0  0  0  0  0  0
   -2.8741   21.4426  -33.2297 H   0  0  0  0  0  0  0  0  0  0  0  0
   -2.7998   18.8404  -32.1153 H   0  0  0  0  0  0  0  0  0  0  0  0
  1  2  1  0
  2  3  1  0
  3  4  1  0
  4  5  1  0
  5  6  1  0
  6  7  2  0
  7  8  1  0
  8  9  1  0
  9 10  2  3
  9 11  1  0
 11 12  1  0
 12 13  2  0
 13 14  1  0
 14 15  2  0
 15 16  1  0
 16 17  2  0
 16 18  2  0
 16 19  1  0
 19 20  1  0
 20 21  2  0
 21 22  1  0
 22 23  2  0
 23 24  1  0
 24 25  2  0
 25 26  1  0
 23 27  1  0
 27 28  1  0
 28 29  1  0
 29 30  1  0
 15 31  1  0
 31 32  2  0
 11 33  2  0
 33  6  1  0
 32 12  1  0
 25 20  1  0
 30 22  1  0
  1 34  1  0
  1 35  1  0
  1 36  1  0
  2 37  1  0
  2 38  1  0
  3 39  1  0
  3 40  1  0
  4 41  1  0
  5 42  1  0
  5 43  1  0
  7 44  1  0
 10 45  1  0
 13 46  1  0
 14 47  1  0
 21 48  1  0
 24 49  1  0
 27 50  1  0
 27 51  1  0
 28 52  1  0
 28 53  1  0
 29 54  1  0
 29 55  1  0
 30 56  1  0
 30 57  1  0
 31 58  1  0
 32 59  1  0
 33 60  1  0
M  CHG  3   8  -1  19  -1  26  -1
M  END
>  <UniqueID>  (44) 
43

>  <SMILES>  (44) 
CCCNCc1c[n-]c(=N)c(-c2ccc(S(=O)(=O)[N-]c3cc4c(cc3[O-])CCCC4)cc2)c1

>  <Energy>  (44) 
74.83540538428703

>  <Genealogy>  (44) 
CCCNCc1c[n-]c(=N)c(-c2ccc(S(=O)(=O)[N-]c3cc4c(cc3[O-])CCCC4)cc2)c1 (protonated)
CCCNCc1c[n-]c(=N)c(-c2ccc(S(=O)(=O)[N-]c3cc4c(cc3[O-])CCCC4)cc2)c1 (3D coordinates assigned)
CCCNCc1c[n-]c(=N)c(-c2ccc(S(=O)(=O)[N-]c3cc4c(cc3[O-])CCCC4)cc2)c1 (nonaromatic ring conformer: 74.83540538428703 kcal/mol)

>  <smiles>  (44) 
CCCNCc1c[nH]c(=N)c(-c2ccc(S(=O)(=O)Nc3cc4c(cc3O)CCCC4)cc2)c1

>  <score_type>  (44) 
oracle

>  <origin>  (44) 
adgpu

>  <m_score__min__energy>  (44) 
-14.35

>  <m_primary>  (44) 
energy

$$$$
44:0
     RDKit          3D

 53 56  0  0  0  0  0  0  0  0999 V2000
   -3.1660   22.0220  -32.4370 C   0  0  0  0  0  0  0  0  0  0  0  0
   -2.9100   20.8620  -33.3980 C   0  0  0  0  0  0  0  0  0  0  0  0
   -2.3080   19.6450  -32.6810 C   0  0  0  0  0  0  0  0  0  0  0  0
   -1.7060   20.0180  -31.4010 N   0  0  0  0  0  0  0  0  0  0  0  0
   -0.3920   20.5900  -31.3030 C   0  0  0  0  0  0  0  0  0  0  0  0
    0.2190   20.9580  -32.3440 O   0  0  0  0  0  0  0  0  0  0  0  0
    0.2230   20.8070  -30.0270 N   0  0  0  0  0  0  0  0  0  0  0  0
   -0.3360   21.5620  -28.9420 C   0  0  0  0  0  0  0  0  0  0  0  0
   -0.1110   21.1320  -27.6280 C   0  0  0  0  0  0  0  0  0  0  0  0
   -0.6760   21.8240  -26.5510 C   0  0  0  0  0  0  0  0  0  0  0  0
   -1.4790   22.9440  -26.7800 C   0  0  0  0  0  0  0  0  0  0  0  0
   -1.7250   23.3800  -28.0930 C   0  0  0  0  0  0  0  0  0  0  0  0
   -2.6500   24.5390  -28.3450 C   0  0  0  0  0  0  0  0  0  0  0  0
   -3.8440   24.0780  -29.0520 N   0  0  0  0  0  0  0  0  0  0  0  0
   -4.3510   24.5600  -30.1970 C   0  0  0  0  0  0  0  0  0  0  0  0
   -3.8620   25.6720  -30.8750 O   0  0  0  0  0  0  0  0  0  0  0  0
   -5.4020   23.7630  -30.5940 C   0  0  0  0  0  0  0  0  0  0  0  0
   -6.1820   23.8930  -31.8640 C   0  0  0  0  0  0  0  0  0  0  0  0
   -7.2820   22.8740  -31.9010 C   0  0  0  0  0  0  0  0  0  0  0  0
   -8.6450   23.1290  -31.7600 C   0  0  0  0  0  0  0  0  0  0  0  0
   -9.3530   21.9810  -31.8440 N   0  0  0  0  0  0  0  0  0  0  0  0
   -8.4490   21.0030  -32.0370 C   0  0  0  0  0  0  0  0  0  0  0  0
   -8.7000   19.6360  -32.1750 C   0  0  0  0  0  0  0  0  0  0  0  0
   -7.5960   18.7740  -32.3590 C   0  0  0  0  0  0  0  0  0  0  0  0
   -6.2860   19.2990  -32.4090 C   0  0  0  0  0  0  0  0  0  0  0  0
   -6.0610   20.6800  -32.2690 C   0  0  0  0  0  0  0  0  0  0  0  0
   -7.1730   21.5070  -32.0800 C   0  0  0  0  0  0  0  0  0  0  0  0
   -5.5490   22.7470  -29.7170 N   0  0  0  0  0  0  0  0  0  0  0  0
   -4.5860   22.9770  -28.7990 C   0  0  0  0  0  0  0  0  0  0  0  0
   -4.3910   22.2210  -27.8100 O   0  0  0  0  0  0  0  0  0  0  0  0
   -1.1680   22.6720  -29.1720 C   0  0  0  0  0  0  0  0  0  0  0  0
   -3.0869   21.6634  -31.4001 H   0  0  0  0  0  0  0  0  0  0  0  0
   -2.4207   22.8124  -32.6095 H   0  0  0  0  0  0  0  0  0  0  0  0
   -4.1748   22.4253  -32.6095 H   0  0  0  0  0  0  0  0  0  0  0  0
   -3.8634   20.5664  -33.8603 H   0  0  0  0  0  0  0  0  0  0  0  0
   -2.1891   21.2011  -34.1565 H   0  0  0  0  0  0  0  0  0  0  0  0
   -3.1039   18.9076  -32.4999 H   0  0  0  0  0  0  0  0  0  0  0  0
   -1.5200   19.2228  -33.3220 H   0  0  0  0  0  0  0  0  0  0  0  0
   -2.2550   19.8330  -30.5270 H   0  0  0  0  0  0  0  0  0  0  0  0
    0.5132   20.2456  -27.4418 H   0  0  0  0  0  0  0  0  0  0  0  0
   -0.4874   21.4853  -25.5216 H   0  0  0  0  0  0  0  0  0  0  0  0
   -1.9198   23.4860  -25.9303 H   0  0  0  0  0  0  0  0  0  0  0  0
   -2.9448   24.9860  -27.3841 H   0  0  0  0  0  0  0  0  0  0  0  0
   -2.1316   25.2890  -28.9604 H   0  0  0  0  0  0  0  0  0  0  0  0
   -6.6182   24.9012  -31.9213 H   0  0  0  0  0  0  0  0  0  0  0  0
   -5.5089   23.7268  -32.7180 H   0  0  0  0  0  0  0  0  0  0  0  0
   -9.0832   24.1256  -31.6024 H   0  0  0  0  0  0  0  0  0  0  0  0
  -10.3900   21.8780  -31.7690 H   0  0  0  0  0  0  0  0  0  0  0  0
   -9.7266   19.2424  -32.1414 H   0  0  0  0  0  0  0  0  0  0  0  0
   -7.7572   17.6909  -32.4636 H   0  0  0  0  0  0  0  0  0  0  0  0
   -5.4330   18.6208  -32.5590 H   0  0  0  0  0  0  0  0  0  0  0  0
   -5.0435   21.0963  -32.3069 H   0  0  0  0  0  0  0  0  0  0  0  0
   -1.3844   22.9883  -30.2031 H   0  0  0  0  0  0  0  0  0  0  0  0
  1  2  1  0
  2  3  1  0
  3  4  1  0
  4  5  1  0
  5  6  2  0
  5  7  1  0
  7  8  1  0
  8  9  2  0
  9 10  1  0
 10 11  2  0
 11 12  1  0
 12 13  1  0
 13 14  1  0
 14 15  1  0
 15 16  1  0
 15 17  2  0
 17 18  1  0
 18 19  1  0
 19 20  2  0
 20 21  1  0
 21 22  1  0
 22 23  2  0
 23 24  1  0
 24 25  2  0
 25 26  1  0
 26 27  2  0
 17 28  1  0
 28 29  1  0
 29 30  2  0
 12 31  2  0
 31  8  1  0
 29 14  1  0
 27 19  1  0
 27 22  1  0
  1 32  1  0
  1 33  1  0
  1 34  1  0
  2 35  1  0
  2 36  1  0
  3 37  1  0
  3 38  1  0
  4 39  1  0
  9 40  1  0
 10 41  1  0
 11 42  1  0
 13 43  1  0
 13 44  1  0
 18 45  1  0
 18 46  1  0
 20 47  1  0
 21 48  1  0
 23 49  1  0
 24 50  1  0
 25 51  1  0
 26 52  1  0
 31 53  1  0
M  CHG  3   7  -1  16  -1  28  -1
M  END
>  <UniqueID>  (45) 
44

>  <SMILES>  (45) 
CCCNC(=O)[N-]c1cccc(Cn2c([O-])c(Cc3c[nH]c4ccccc34)[n-]c2=O)c1

>  <Energy>  (45) 
115.86441249840394

>  <Genealogy>  (45) 
CCCNC(=O)[N-]c1cccc(Cn2c([O-])c(Cc3c[nH]c4ccccc34)[n-]c2=O)c1 (protonated)
CCCNC(=O)[N-]c1cccc(Cn2c([O-])c(Cc3c[nH]c4ccccc34)[n-]c2=O)c1 (3D coordinates assigned)
CCCNC(=O)[N-]c1cccc(Cn2c([O-])c(Cc3c[nH]c4ccccc34)[n-]c2=O)c1 (optimized conformer: 115.86441249840394 kcal/mol)

>  <smiles>  (45) 
CCCNC(=O)Nc1cccc(Cn2c(O)c(Cc3c[nH]c4ccccc34)[nH]c2=O)c1

>  <score_type>  (45) 
oracle

>  <origin>  (45) 
adgpu

>  <m_score__min__energy>  (45) 
-12.119999999999999

>  <m_primary>  (45) 
energy

$$$$
45:0
     RDKit          3D

 49 51  0  0  0  0  0  0  0  0999 V2000
   -1.2900   21.7820  -26.6420 C   0  0  0  0  0  0  0  0  0  0  0  0
   -1.9220   22.7730  -27.5870 C   0  0  0  0  0  0  0  0  0  0  0  0
   -3.1760   22.4530  -28.1300 C   0  0  0  0  0  0  0  0  0  0  0  0
   -3.7940   23.2980  -29.0460 C   0  0  0  0  0  0  0  0  0  0  0  0
   -3.1610   24.4640  -29.4730 C   0  0  0  0  0  0  0  0  0  0  0  0
   -3.8410   25.3010  -30.4180 N   0  0  0  0  0  0  0  0  0  0  0  0
   -5.0470   24.9600  -31.1110 C   0  0  0  0  0  0  0  0  0  0  0  0
   -6.0650   25.6960  -31.0120 O   0  0  0  0  0  0  0  0  0  0  0  0
   -5.0810   23.8420  -32.0040 N   0  0  0  0  0  0  0  0  0  0  0  0
   -5.9540   22.7070  -31.8990 C   0  0  0  0  0  0  0  0  0  0  0  0
   -5.7870   21.5800  -32.7240 C   0  0  0  0  0  0  0  0  0  0  0  0
   -6.6300   20.4740  -32.5910 C   0  0  0  0  0  0  0  0  0  0  0  0
   -7.6400   20.4730  -31.6250 C   0  0  0  0  0  0  0  0  0  0  0  0
   -8.5070   19.3320  -31.4870 C   0  0  0  0  0  0  0  0  0  0  0  0
   -9.2040   18.4150  -31.3770 N   0  0  0  0  0  0  0  0  0  0  0  0
   -7.7980   21.5800  -30.7820 C   0  0  0  0  0  0  0  0  0  0  0  0
   -6.9570   22.6920  -30.9090 C   0  0  0  0  0  0  0  0  0  0  0  0
   -7.1410   23.7730  -30.0460 O   0  0  0  0  0  0  0  0  0  0  0  0
   -1.9160   24.8220  -28.9200 C   0  0  0  0  0  0  0  0  0  0  0  0
   -1.3310   26.0280  -29.2880 O   0  0  0  0  0  0  0  0  0  0  0  0
   -1.2790   23.9810  -27.9780 C   0  0  0  0  0  0  0  0  0  0  0  0
    0.2960   24.4810  -27.2980 S   0  0  0  0  0  0  0  0  0  0  0  0
    0.7880   23.4690  -26.3030 O   0  0  0  0  0  0  0  0  0  0  0  0
    1.3160   24.5470  -28.4000 O   0  0  0  0  0  0  0  0  0  0  0  0
    0.2290   26.0910  -26.4940 C   0  0  1  0  0  0  0  0  0  0  0  0
   -1.1730   26.6420  -26.3580 C   0  0  0  0  0  0  0  0  0  0  0  0
   -1.0940   27.5800  -25.1590 C   0  0  0  0  0  0  0  0  0  0  0  0
    0.1470   27.2730  -24.4240 N   0  0  0  0  0  0  0  0  0  0  0  0
   -0.1000   27.0450  -22.9930 C   0  0  0  0  0  0  0  0  0  0  0  0
    0.7380   26.0900  -25.0650 C   0  0  0  0  0  0  0  0  0  0  0  0
   -1.4858   22.0890  -25.6040 H   0  0  0  0  0  0  0  0  0  0  0  0
   -1.7189   20.7842  -26.8164 H   0  0  0  0  0  0  0  0  0  0  0  0
   -0.2044   21.7500  -26.8164 H   0  0  0  0  0  0  0  0  0  0  0  0
   -3.6768   21.5216  -27.8272 H   0  0  0  0  0  0  0  0  0  0  0  0
   -4.7904   23.0439  -29.4365 H   0  0  0  0  0  0  0  0  0  0  0  0
   -4.9871   21.5695  -33.4791 H   0  0  0  0  0  0  0  0  0  0  0  0
   -6.4985   19.6018  -33.2482 H   0  0  0  0  0  0  0  0  0  0  0  0
   -8.5873   21.5758  -30.0158 H   0  0  0  0  0  0  0  0  0  0  0  0
   -6.3640   24.2780  -29.6350 H   0  0  0  0  0  0  0  0  0  0  0  0
    0.8607   26.6956  -27.1614 H   0  0  0  0  0  0  0  0  0  0  0  0
   -1.4652   27.1922  -27.2646 H   0  0  0  0  0  0  0  0  0  0  0  0
   -1.9247   25.8502  -26.2235 H   0  0  0  0  0  0  0  0  0  0  0  0
   -1.0761   28.6248  -25.5025 H   0  0  0  0  0  0  0  0  0  0  0  0
   -1.9693   27.4428  -24.5070 H   0  0  0  0  0  0  0  0  0  0  0  0
    0.5803   27.6729  -22.3989 H   0  0  0  0  0  0  0  0  0  0  0  0
   -1.1417   27.3057  -22.7546 H   0  0  0  0  0  0  0  0  0  0  0  0
    0.0767   25.9858  -22.7546 H   0  0  0  0  0  0  0  0  0  0  0  0
    1.8359   26.1556  -25.0502 H   0  0  0  0  0  0  0  0  0  0  0  0
    0.4596   25.1651  -24.5387 H   0  0  0  0  0  0  0  0  0  0  0  0
  1  2  1  0
  2  3  2  0
  3  4  1  0
  4  5  2  0
  5  6  1  0
  6  7  1  0
  7  8  2  0
  7  9  1  0
  9 10  1  0
 10 11  2  0
 11 12  1  0
 12 13  2  0
 13 14  1  0
 14 15  3  0
 13 16  1  0
 16 17  2  0
 17 18  1  0
  5 19  1  0
 19 20  1  0
 19 21  2  0
 21 22  1  0
 22 23  2  0
 22 24  2  0
 22 25  1  0
 25 26  1  0
 26 27  1  0
 27 28  1  0
 28 29  1  0
 28 30  1  0
 21  2  1  0
 30 25  1  0
 17 10  1  0
  1 31  1  0
  1 32  1  0
  1 33  1  0
  3 34  1  0
  4 35  1  0
 11 36  1  0
 12 37  1  0
 16 38  1  0
 18 39  1  0
 25 40  1  6
 26 41  1  0
 26 42  1  0
 27 43  1  0
 27 44  1  0
 29 45  1  0
 29 46  1  0
 29 47  1  0
 30 48  1  0
 30 49  1  0
M  CHG  3   6  -1   9  -1  20  -1
M  END
>  <UniqueID>  (46) 
45

>  <SMILES>  (46) 
Cc1ccc([N-]C(=O)[N-]c2ccc(C#N)cc2O)c([O-])c1S(=O)(=O)[C@H]1CCN(C)C1

>  <Energy>  (46) 
63.53340124102011

>  <Genealogy>  (46) 
Cc1ccc([N-]C(=O)[N-]c2ccc(C#N)cc2O)c([O-])c1S(=O)(=O)C1CCN(C)C1 (protonated)
Cc1ccc([N-]C(=O)[N-]c2ccc(C#N)cc2O)c([O-])c1S(=O)(=O)[C@H]1CCN(C)C1 (chirality)
Cc1ccc([N-]C(=O)[N-]c2ccc(C#N)cc2O)c([O-])c1S(=O)(=O)[C@H]1CCN(C)C1 (3D coordinates assigned)
Cc1ccc([N-]C(=O)[N-]c2ccc(C#N)cc2O)c([O-])c1S(=O)(=O)[C@H]1CCN(C)C1 (nonaromatic ring conformer: 63.53340124102011 kcal/mol)

>  <smiles>  (46) 
Cc1ccc(NC(=O)Nc2ccc(C#N)cc2O)c(O)c1S(=O)(=O)C1CCN(C)C1

>  <score_type>  (46) 
oracle

>  <origin>  (46) 
adgpu

>  <m_score__min__energy>  (46) 
-15.550000000000001

>  <m_primary>  (46) 
energy

$$$$
46:0
     RDKit          3D

 50 53  0  0  0  0  0  0  0  0999 V2000
   -4.2120   20.6350  -30.6810 O   0  0  0  0  0  0  0  0  0  0  0  0
   -4.7850   21.7510  -30.8060 C   0  0  0  0  0  0  0  0  0  0  0  0
   -6.0200   21.8560  -31.5330 N   0  0  0  0  0  0  0  0  0  0  0  0
   -6.8230   20.7280  -31.9220 C   0  0  0  0  0  0  0  0  0  0  0  0
   -8.2000   20.6770  -31.6420 C   0  0  0  0  0  0  0  0  0  0  0  0
   -8.9600   19.5770  -32.0470 C   0  0  0  0  0  0  0  0  0  0  0  0
   -8.3600   18.5280  -32.7460 C   0  0  0  0  0  0  0  0  0  0  0  0
   -6.9960   18.5790  -33.0560 C   0  0  0  0  0  0  0  0  0  0  0  0
   -6.2520   17.2420  -33.9310 S   0  0  0  0  0  0  0  0  0  0  0  0
   -7.2460   16.1180  -34.0200 O   0  0  0  0  0  0  0  0  0  0  0  0
   -5.8940   17.6800  -35.3250 O   0  0  0  0  0  0  0  0  0  0  0  0
   -4.8210   16.7220  -33.0690 N   0  0  0  0  0  0  0  0  0  0  0  0
   -3.6990   17.6830  -33.2200 C   0  0  0  0  0  0  0  0  0  0  0  0
   -2.4600   17.0980  -33.9200 C   0  0  0  0  0  0  0  0  0  0  0  0
   -2.8730   16.2790  -35.1420 C   0  0  0  0  0  0  0  0  0  0  0  0
   -3.8480   15.1470  -34.7720 C   0  0  0  0  0  0  0  0  0  0  0  0
   -4.4760   15.3190  -33.3760 C   0  0  0  0  0  0  0  0  0  0  0  0
   -6.2320   19.6810  -32.6460 C   0  0  0  0  0  0  0  0  0  0  0  0
   -4.1560   22.9530  -30.2360 C   0  0  0  0  0  0  0  0  0  0  0  0
   -3.5100   23.0330  -29.0200 C   0  0  0  0  0  0  0  0  0  0  0  0
   -3.1080   24.3550  -28.9360 C   0  0  0  0  0  0  0  0  0  0  0  0
   -2.3590   24.9900  -27.8180 C   0  0  0  0  0  0  0  0  0  0  0  0
   -2.5660   24.5610  -26.4910 C   0  0  0  0  0  0  0  0  0  0  0  0
   -1.8650   25.1470  -25.4340 C   0  0  0  0  0  0  0  0  0  0  0  0
   -0.9480   26.1670  -25.6820 C   0  0  0  0  0  0  0  0  0  0  0  0
   -0.7280   26.6060  -26.9880 C   0  0  0  0  0  0  0  0  0  0  0  0
   -1.4260   26.0260  -28.0550 C   0  0  0  0  0  0  0  0  0  0  0  0
   -1.1850   26.4990  -29.3410 O   0  0  0  0  0  0  0  0  0  0  0  0
   -3.5030   25.0070  -30.0500 N   0  0  0  0  0  0  0  0  0  0  0  0
   -4.1400   24.1560  -30.8390 N   0  0  0  0  0  0  0  0  0  0  0  0
   -6.3080   22.8010  -31.8780 H   0  0  0  0  0  0  0  0  0  0  0  0
   -8.6805   21.5062  -31.1021 H   0  0  0  0  0  0  0  0  0  0  0  0
  -10.0344   19.5373  -31.8144 H   0  0  0  0  0  0  0  0  0  0  0  0
   -8.9606   17.6594  -33.0539 H   0  0  0  0  0  0  0  0  0  0  0  0
   -4.0558   18.5406  -33.8092 H   0  0  0  0  0  0  0  0  0  0  0  0
   -3.3852   17.9660  -32.2044 H   0  0  0  0  0  0  0  0  0  0  0  0
   -1.8032   17.9202  -34.2403 H   0  0  0  0  0  0  0  0  0  0  0  0
   -1.9293   16.4418  -33.2145 H   0  0  0  0  0  0  0  0  0  0  0  0
   -3.3612   16.9455  -35.8683 H   0  0  0  0  0  0  0  0  0  0  0  0
   -1.9674   15.8229  -35.5684 H   0  0  0  0  0  0  0  0  0  0  0  0
   -4.6558   15.1235  -35.5183 H   0  0  0  0  0  0  0  0  0  0  0  0
   -3.2712   14.2105  -34.7578 H   0  0  0  0  0  0  0  0  0  0  0  0
   -5.3930   14.7134  -33.3268 H   0  0  0  0  0  0  0  0  0  0  0  0
   -3.7297   14.9935  -32.6363 H   0  0  0  0  0  0  0  0  0  0  0  0
   -5.1612   19.7252  -32.8937 H   0  0  0  0  0  0  0  0  0  0  0  0
   -3.3507   22.2301  -28.2852 H   0  0  0  0  0  0  0  0  0  0  0  0
   -3.2872   23.7562  -26.2856 H   0  0  0  0  0  0  0  0  0  0  0  0
   -2.0372   24.8026  -24.4036 H   0  0  0  0  0  0  0  0  0  0  0  0
   -0.3975   26.6261  -24.8477 H   0  0  0  0  0  0  0  0  0  0  0  0
   -0.0034   27.4109  -27.1805 H   0  0  0  0  0  0  0  0  0  0  0  0
  1  2  2  0
  2  3  1  0
  3  4  1  0
  4  5  2  0
  5  6  1  0
  6  7  2  0
  7  8  1  0
  8  9  1  0
  9 10  2  0
  9 11  2  0
  9 12  1  0
 12 13  1  0
 13 14  1  0
 14 15  1  0
 15 16  1  0
 16 17  1  0
  8 18  2  0
  2 19  1  0
 19 20  1  0
 20 21  2  0
 21 22  1  0
 22 23  2  0
 23 24  1  0
 24 25  2  0
 25 26  1  0
 26 27  2  0
 27 28  1  0
 21 29  1  0
 29 30  1  0
 18  4  1  0
 30 19  2  0
 17 12  1  0
 27 22  1  0
  3 31  1  0
  5 32  1  0
  6 33  1  0
  7 34  1  0
 13 35  1  0
 13 36  1  0
 14 37  1  0
 14 38  1  0
 15 39  1  0
 15 40  1  0
 16 41  1  0
 16 42  1  0
 17 43  1  0
 17 44  1  0
 18 45  1  0
 20 46  1  0
 23 47  1  0
 24 48  1  0
 25 49  1  0
 26 50  1  0
M  CHG  2  28  -1  29  -1
M  END
>  <UniqueID>  (47) 
46

>  <SMILES>  (47) 
O=C(Nc1cccc(S(=O)(=O)N2CCCCC2)c1)c1cc(-c2ccccc2[O-])[n-]n1

>  <Energy>  (47) 
95.85181979978087

>  <Genealogy>  (47) 
O=C(Nc1cccc(S(=O)(=O)N2CCCCC2)c1)c1cc(-c2ccccc2[O-])[n-]n1 (protonated)
O=C(Nc1cccc(S(=O)(=O)N2CCCCC2)c1)c1cc(-c2ccccc2[O-])[n-]n1 (3D coordinates assigned)
O=C(Nc1cccc(S(=O)(=O)N2CCCCC2)c1)c1cc(-c2ccccc2[O-])[n-]n1 (nonaromatic ring conformer: 95.85181979978087 kcal/mol)

>  <smiles>  (47) 
O=C(Nc1cccc(S(=O)(=O)N2CCCCC2)c1)c1cc(-c2ccccc2O)[nH]n1

>  <score_type>  (47) 
oracle

>  <origin>  (47) 
adgpu

>  <m_score__min__energy>  (47) 
-15.199999999999999

>  <m_primary>  (47) 
energy

$$$$
47:0
     RDKit          3D

 39 42  0  0  0  0  0  0  0  0999 V2000
  -10.1165   21.4188  -30.1488 H   0  0  0  0  0  0  0  0  0  0  0  0
   -9.2300   21.8630  -30.6250 C   0  0  0  0  0  0  0  0  0  0  0  0
   -8.0650   22.0340  -30.0440 O   0  0  0  0  0  0  0  0  0  0  0  0
   -7.2370   22.5810  -30.9040 C   0  0  0  0  0  0  0  0  0  0  0  0
   -5.8380   22.9680  -30.6140 C   0  0  0  0  0  0  0  0  0  0  0  0
   -5.6360   23.8780  -29.6270 N   0  0  0  0  0  0  0  0  0  0  0  0
   -4.4210   24.2520  -29.2360 N   0  0  0  0  0  0  0  0  0  0  0  0
   -3.2930   23.7380  -29.7930 C   0  0  0  0  0  0  0  0  0  0  0  0
   -2.1160   24.1350  -29.3940 N   0  0  0  0  0  0  0  0  0  0  0  0
   -1.8250   25.0330  -28.3090 C   0  0  0  0  0  0  0  0  0  0  0  0
   -2.4490   24.9140  -27.0530 C   0  0  0  0  0  0  0  0  0  0  0  0
   -3.2063   24.1332  -26.8890 H   0  0  0  0  0  0  0  0  0  0  0  0
   -2.1100   25.7840  -26.0140 C   0  0  0  0  0  0  0  0  0  0  0  0
   -2.6150   25.6969  -25.0407 H   0  0  0  0  0  0  0  0  0  0  0  0
   -1.1310   26.7660  -26.2050 C   0  0  0  0  0  0  0  0  0  0  0  0
   -0.7190   27.8700  -24.8970 S   0  0  0  0  0  0  0  0  0  0  0  0
    0.7480   28.1930  -24.9490 O   0  0  0  0  0  0  0  0  0  0  0  0
   -1.4980   29.1480  -25.0430 O   0  0  0  0  0  0  0  0  0  0  0  0
   -1.1000   27.1330  -23.3810 N   0  0  0  0  0  0  0  0  0  0  0  0
   -2.0660   27.4390  -23.1260 H   0  0  0  0  0  0  0  0  0  0  0  0
   -0.4540   27.5460  -22.6710 H   0  0  0  0  0  0  0  0  0  0  0  0
   -0.4920   26.8710  -27.4470 C   0  0  0  0  0  0  0  0  0  0  0  0
    0.2774   27.6412  -27.6044 H   0  0  0  0  0  0  0  0  0  0  0  0
   -0.8290   26.0000  -28.4870 C   0  0  0  0  0  0  0  0  0  0  0  0
   -0.3075   26.0751  -29.4526 H   0  0  0  0  0  0  0  0  0  0  0  0
   -3.4150   22.8110  -30.8470 C   0  0  0  0  0  0  0  0  0  0  0  0
   -2.2780   22.2740  -31.4840 C   0  0  0  0  0  0  0  0  0  0  0  0
   -1.2733   22.5582  -31.1378 H   0  0  0  0  0  0  0  0  0  0  0  0
   -2.4170   21.3850  -32.5500 C   0  0  0  0  0  0  0  0  0  0  0  0
   -1.5237   20.9616  -33.0325 H   0  0  0  0  0  0  0  0  0  0  0  0
   -3.6860   21.0330  -33.0040 C   0  0  0  0  0  0  0  0  0  0  0  0
   -3.7911   20.3430  -33.8542 H   0  0  0  0  0  0  0  0  0  0  0  0
   -4.8240   21.5510  -32.3860 C   0  0  0  0  0  0  0  0  0  0  0  0
   -5.8203   21.2760  -32.7624 H   0  0  0  0  0  0  0  0  0  0  0  0
   -4.7110   22.4250  -31.2820 C   0  0  0  0  0  0  0  0  0  0  0  0
   -7.8900   22.7950  -32.1050 C   0  0  0  0  0  0  0  0  0  0  0  0
   -7.4717   23.2468  -33.0166 H   0  0  0  0  0  0  0  0  0  0  0  0
   -9.1730   22.3250  -31.9230 C   0  0  0  0  0  0  0  0  0  0  0  0
   -9.9866   22.3196  -32.6633 H   0  0  0  0  0  0  0  0  0  0  0  0
  1  2  1  0
  2  3  1  0
  3  4  1  0
  4  5  1  0
  5  6  2  0
  6  7  1  0
  7  8  1  0
  8  9  2  0
  9 10  1  0
 10 11  2  0
 11 12  1  0
 11 13  1  0
 13 14  1  0
 13 15  2  0
 15 16  1  0
 16 17  2  0
 16 18  2  0
 16 19  1  0
 19 20  1  0
 19 21  1  0
 15 22  1  0
 22 23  1  0
 22 24  2  0
 24 25  1  0
  8 26  1  0
 26 27  2  0
 27 28  1  0
 27 29  1  0
 29 30  1  0
 29 31  2  0
 31 32  1  0
 31 33  1  0
 33 34  1  0
 33 35  2  0
  4 36  2  0
 36 37  1  0
 36 38  1  0
 38 39  1  0
 38  2  2  0
 35  5  1  0
 24 10  1  0
 35 26  1  0
M  CHG  1   7  -1
M  END
>  <UniqueID>  (48) 
47

>  <SMILES>  (48) 
NS(=O)(=O)c1ccc(/N=c2\[n-]nc(-c3ccco3)c3ccccc23)cc1

>  <Energy>  (48) 
86.56929812828001

>  <Genealogy>  (48) 
NS(=O)(=O)c1ccc(N=c2[n-]nc(-c3ccco3)c3ccccc23)cc1 (protonated)
NS(=O)(=O)c1ccc(/N=c2\[n-]nc(-c3ccco3)c3ccccc23)cc1 (cis-trans isomerization)
NS(=O)(=O)c1ccc(/N=c2\[n-]nc(-c3ccco3)c3ccccc23)cc1 (3D coordinates assigned)
NS(=O)(=O)c1ccc(/N=c2\[n-]nc(-c3ccco3)c3ccccc23)cc1 (optimized conformer: 86.56929812828001 kcal/mol)

>  <smiles>  (48) 
NS(=O)(=O)c1ccc(N=c2[nH]nc(-c3ccco3)c3ccccc23)cc1

>  <score_type>  (48) 
oracle

>  <origin>  (48) 
adgpu

>  <m_score__min__energy>  (48) 
-8.9600000000000009

>  <m_primary>  (48) 
energy

$$$$
