0:0
     RDKit          3D

 38 40  0  0  0  0  0  0  0  0999 V2000
   -2.3050   21.9620  -31.7090 C   0  0  0  0  0  0  0  0  0  0  0  0
   -3.7680   22.1660  -31.4770 C   0  0  0  0  0  0  0  0  0  0  0  0
   -4.7010   21.2560  -31.8180 N   0  0  0  0  0  0  0  0  0  0  0  0
   -5.8870   21.7470  -31.4960 N   0  0  0  0  0  0  0  0  0  0  0  0
   -7.1120   21.0410  -31.7550 C   0  0  0  0  0  0  0  0  0  0  0  0
   -8.3220   21.7350  -31.9280 C   0  0  0  0  0  0  0  0  0  0  0  0
   -9.5010   21.0370  -32.2080 C   0  0  0  0  0  0  0  0  0  0  0  0
   -9.4780   19.6460  -32.3330 C   0  0  0  0  0  0  0  0  0  0  0  0
   -8.2760   18.9500  -32.1840 C   0  0  0  0  0  0  0  0  0  0  0  0
   -7.0950   19.6440  -31.9040 C   0  0  0  0  0  0  0  0  0  0  0  0
   -5.7350   22.9670  -30.9240 C   0  0  0  0  0  0  0  0  0  0  0  0
   -6.8430   23.7930  -30.3340 C   0  0  0  0  0  0  0  0  0  0  0  0
   -4.3790   23.2780  -30.9130 C   0  0  0  0  0  0  0  0  0  0  0  0
   -3.7250   24.5140  -30.4300 C   0  0  0  0  0  0  0  0  0  0  0  0
   -4.2430   25.6340  -30.6840 O   0  0  0  0  0  0  0  0  0  0  0  0
   -2.4920   24.4390  -29.7040 N   0  0  0  0  0  0  0  0  0  0  0  0
   -2.2220   24.9980  -28.4100 C   0  0  0  0  0  0  0  0  0  0  0  0
   -1.1170   25.8460  -28.2640 C   0  0  0  0  0  0  0  0  0  0  0  0
   -0.8050   26.3950  -27.0170 C   0  0  0  0  0  0  0  0  0  0  0  0
   -1.5880   26.0880  -25.9000 C   0  0  0  0  0  0  0  0  0  0  0  0
   -1.1950   26.7730  -24.3350 Cl  0  0  0  0  0  0  0  0  0  0  0  0
   -2.6790   25.2220  -26.0320 C   0  0  0  0  0  0  0  0  0  0  0  0
   -2.9920   24.6720  -27.2780 C   0  0  0  0  0  0  0  0  0  0  0  0
   -1.7869   21.8898  -30.7414 H   0  0  0  0  0  0  0  0  0  0  0  0
   -2.1500   21.0335  -32.2782 H   0  0  0  0  0  0  0  0  0  0  0  0
   -1.9019   22.8126  -32.2782 H   0  0  0  0  0  0  0  0  0  0  0  0
   -8.3416   22.8315  -31.8428 H   0  0  0  0  0  0  0  0  0  0  0  0
  -10.4475   21.5840  -32.3299 H   0  0  0  0  0  0  0  0  0  0  0  0
  -10.4071   19.0982  -32.5489 H   0  0  0  0  0  0  0  0  0  0  0  0
   -8.2586   17.8550  -32.2870 H   0  0  0  0  0  0  0  0  0  0  0  0
   -6.1482   19.0938  -31.7999 H   0  0  0  0  0  0  0  0  0  0  0  0
   -6.7869   23.7512  -29.2362 H   0  0  0  0  0  0  0  0  0  0  0  0
   -6.7398   24.8363  -30.6669 H   0  0  0  0  0  0  0  0  0  0  0  0
   -7.8134   23.3962  -30.6669 H   0  0  0  0  0  0  0  0  0  0  0  0
   -0.4903   26.0816  -29.1368 H   0  0  0  0  0  0  0  0  0  0  0  0
    0.0578   27.0696  -26.9143 H   0  0  0  0  0  0  0  0  0  0  0  0
   -3.2918   24.9735  -25.1530 H   0  0  0  0  0  0  0  0  0  0  0  0
   -3.8432   23.9819  -27.3743 H   0  0  0  0  0  0  0  0  0  0  0  0
  1  2  1  0
  2  3  2  0
  3  4  1  0
  4  5  1  0
  5  6  2  0
  6  7  1  0
  7  8  2  0
  8  9  1  0
  9 10  2  0
  4 11  1  0
 11 12  1  0
 11 13  2  0
 13 14  1  0
 14 15  2  0
 14 16  1  0
 16 17  1  0
 17 18  2  0
 18 19  1  0
 19 20  2  0
 20 21  1  0
 20 22  1  0
 22 23  2  0
 13  2  1  0
 23 17  1  0
 10  5  1  0
  1 24  1  0
  1 25  1  0
  1 26  1  0
  6 27  1  0
  7 28  1  0
  8 29  1  0
  9 30  1  0
 10 31  1  0
 12 32  1  0
 12 33  1  0
 12 34  1  0
 18 35  1  0
 19 36  1  0
 22 37  1  0
 23 38  1  0
M  CHG  1  16  -1
M  END
>  <UniqueID>  (1) 
1

>  <SMILES>  (1) 
Cc1nn(-c2ccccc2)c(C)c1C(=O)[N-]c1ccc(Cl)cc1

>  <Energy>  (1) 
79.48469197025554

>  <Genealogy>  (1) 
Cc1nn(-c2ccccc2)c(C)c1C(=O)[N-]c1ccc(Cl)cc1 (protonated)
Cc1nn(-c2ccccc2)c(C)c1C(=O)[N-]c1ccc(Cl)cc1 (3D coordinates assigned)
Cc1nn(-c2ccccc2)c(C)c1C(=O)[N-]c1ccc(Cl)cc1 (optimized conformer: 79.48469197025554 kcal/mol)

>  <smiles>  (1) 
Cc1nn(-c2ccccc2)c(C)c1C(=O)Nc1ccc(Cl)cc1

>  <score_type>  (1) 
oracle

>  <origin>  (1) 
adgpu

>  <m_score__min__energy>  (1) 
-10.4

>  <m_primary>  (1) 
energy

$$$$
1:0
     RDKit          3D

 33 34  0  0  0  0  0  0  0  0999 V2000
   -3.2050   22.1540  -31.8860 C   0  0  0  0  0  0  0  0  0  0  0  0
   -4.3220   23.0310  -31.9770 O   0  0  0  0  0  0  0  0  0  0  0  0
   -5.6630   22.6280  -31.8730 C   0  0  0  0  0  0  0  0  0  0  0  0
   -6.0920   21.3590  -32.3120 C   0  0  0  0  0  0  0  0  0  0  0  0
   -7.4300   20.9810  -32.1890 C   0  0  0  0  0  0  0  0  0  0  0  0
   -8.3560   21.8590  -31.6250 C   0  0  0  0  0  0  0  0  0  0  0  0
   -7.9480   23.1190  -31.1860 C   0  0  0  0  0  0  0  0  0  0  0  0
   -6.6060   23.5190  -31.3150 C   0  0  0  0  0  0  0  0  0  0  0  0
   -6.1860   24.8720  -30.7980 C   0  0  0  0  0  0  0  0  0  0  0  0
   -4.9090   24.7560  -30.0200 C   0  0  0  0  0  0  0  0  0  0  0  0
   -3.8630   25.2940  -30.4730 O   0  0  0  0  0  0  0  0  0  0  0  0
   -4.9000   24.1070  -28.7390 N   0  0  0  0  0  0  0  0  0  0  0  0
   -3.7080   23.9040  -27.9660 C   0  0  0  0  0  0  0  0  0  0  0  0
   -3.2970   24.9000  -27.0670 C   0  0  0  0  0  0  0  0  0  0  0  0
   -2.1480   24.7230  -26.2910 C   0  0  0  0  0  0  0  0  0  0  0  0
   -1.4080   23.5410  -26.3950 C   0  0  0  0  0  0  0  0  0  0  0  0
    0.1600   23.2990  -25.3310 Br  0  0  0  0  0  0  0  0  0  0  0  0
   -1.8250   22.5310  -27.2670 C   0  0  0  0  0  0  0  0  0  0  0  0
   -2.9740   22.7050  -28.0460 C   0  0  0  0  0  0  0  0  0  0  0  0
   -3.3940   21.6840  -28.8370 F   0  0  0  0  0  0  0  0  0  0  0  0
   -2.9694   21.9690  -30.8276 H   0  0  0  0  0  0  0  0  0  0  0  0
   -3.4458   21.2011  -32.3800 H   0  0  0  0  0  0  0  0  0  0  0  0
   -2.3365   22.6140  -32.3800 H   0  0  0  0  0  0  0  0  0  0  0  0
   -5.3664   20.6610  -32.7551 H   0  0  0  0  0  0  0  0  0  0  0  0
   -7.7548   19.9894  -32.5372 H   0  0  0  0  0  0  0  0  0  0  0  0
   -9.4092   21.5575  -31.5263 H   0  0  0  0  0  0  0  0  0  0  0  0
   -8.6813   23.8043  -30.7358 H   0  0  0  0  0  0  0  0  0  0  0  0
   -6.0332   25.5541  -31.6474 H   0  0  0  0  0  0  0  0  0  0  0  0
   -6.9738   25.2643  -30.1381 H   0  0  0  0  0  0  0  0  0  0  0  0
   -5.8170   23.8990  -28.2850 H   0  0  0  0  0  0  0  0  0  0  0  0
   -3.8829   25.8261  -26.9724 H   0  0  0  0  0  0  0  0  0  0  0  0
   -1.8256   25.5141  -25.5980 H   0  0  0  0  0  0  0  0  0  0  0  0
   -1.2483   21.5972  -27.3408 H   0  0  0  0  0  0  0  0  0  0  0  0
  1  2  1  0
  2  3  1  0
  3  4  2  0
  4  5  1  0
  5  6  2  0
  6  7  1  0
  7  8  2  0
  8  9  1  0
  9 10  1  0
 10 11  2  0
 10 12  1  0
 12 13  1  0
 13 14  2  0
 14 15  1  0
 15 16  2  0
 16 17  1  0
 16 18  1  0
 18 19  2  0
 19 20  1  0
  8  3  1  0
 19 13  1  0
  1 21  1  0
  1 22  1  0
  1 23  1  0
  4 24  1  0
  5 25  1  0
  6 26  1  0
  7 27  1  0
  9 28  1  0
  9 29  1  0
 12 30  1  0
 14 31  1  0
 15 32  1  0
 18 33  1  0
M  END
>  <UniqueID>  (2) 
2

>  <SMILES>  (2) 
COc1ccccc1CC(=O)Nc1ccc(Br)cc1F

>  <Energy>  (2) 
35.68009693512103

>  <Genealogy>  (2) 
COc1ccccc1CC(=O)Nc1ccc(Br)cc1F (3D coordinates assigned)
COc1ccccc1CC(=O)Nc1ccc(Br)cc1F (optimized conformer: 35.68009693512103 kcal/mol)

>  <smiles>  (2) 
COc1ccccc1CC(=O)Nc1ccc(Br)cc1F

>  <score_type>  (2) 
oracle

>  <origin>  (2) 
adgpu

>  <m_score__min__energy>  (2) 
-7.6399999999999997

>  <m_primary>  (2) 
energy

$$$$
2:0
     RDKit          3D

 37 39  0  0  0  0  0  0  0  0999 V2000
   -1.5790   20.9640  -26.9250 O   0  0  0  0  0  0  0  0  0  0  0  0
   -1.6360   21.0400  -28.1820 C   0  0  0  0  0  0  0  0  0  0  0  0
   -1.0880   19.9670  -28.9590 N   0  0  0  0  0  0  0  0  0  0  0  0
   -0.6460   20.0490  -30.3220 C   0  0  0  0  0  0  0  0  0  0  0  0
   -1.5020   20.4760  -31.3530 C   0  0  0  0  0  0  0  0  0  0  0  0
   -1.0430   20.5330  -32.6710 C   0  0  0  0  0  0  0  0  0  0  0  0
    0.2670   20.1330  -32.9860 C   0  0  0  0  0  0  0  0  0  0  0  0
    0.7710   20.2100  -34.3310 N   0  0  0  0  0  0  0  0  0  0  0  0
    1.2120   21.4240  -34.9650 C   0  0  0  0  0  0  0  0  0  0  0  0
    2.5740   21.7720  -35.0100 C   0  0  0  0  0  0  0  0  0  0  0  0
    2.9750   22.9700  -35.6080 C   0  0  0  0  0  0  0  0  0  0  0  0
    2.0220   23.8370  -36.1500 C   0  0  0  0  0  0  0  0  0  0  0  0
    0.6650   23.5090  -36.0880 C   0  0  0  0  0  0  0  0  0  0  0  0
    0.2600   22.3110  -35.4900 C   0  0  0  0  0  0  0  0  0  0  0  0
    1.1170   19.7060  -31.9550 C   0  0  0  0  0  0  0  0  0  0  0  0
    0.6570   19.6500  -30.6360 C   0  0  0  0  0  0  0  0  0  0  0  0
   -2.2160   22.2520  -28.8090 C   0  0  0  0  0  0  0  0  0  0  0  0
   -3.4650   22.1860  -29.4510 C   0  0  0  0  0  0  0  0  0  0  0  0
   -4.0170   23.3250  -30.0440 C   0  0  0  0  0  0  0  0  0  0  0  0
   -3.3350   24.5440  -29.9930 C   0  0  0  0  0  0  0  0  0  0  0  0
   -3.8890   25.6720  -30.5860 O   0  0  0  0  0  0  0  0  0  0  0  0
   -2.0980   24.6260  -29.3430 C   0  0  0  0  0  0  0  0  0  0  0  0
   -1.4190   25.8370  -29.2820 O   0  0  0  0  0  0  0  0  0  0  0  0
   -1.5440   23.4870  -28.7490 C   0  0  0  0  0  0  0  0  0  0  0  0
   -2.5372   20.7663  -31.1205 H   0  0  0  0  0  0  0  0  0  0  0  0
   -1.7109   20.8932  -33.4673 H   0  0  0  0  0  0  0  0  0  0  0  0
    0.8180   19.3250  -34.8850 H   0  0  0  0  0  0  0  0  0  0  0  0
    3.3263   21.0989  -34.5730 H   0  0  0  0  0  0  0  0  0  0  0  0
    4.0427   23.2310  -35.6522 H   0  0  0  0  0  0  0  0  0  0  0  0
    2.3399   24.7768  -36.6250 H   0  0  0  0  0  0  0  0  0  0  0  0
   -0.0855   24.1936  -36.5099 H   0  0  0  0  0  0  0  0  0  0  0  0
   -0.8101   22.0631  -35.4311 H   0  0  0  0  0  0  0  0  0  0  0  0
    2.1519   19.4134  -32.1858 H   0  0  0  0  0  0  0  0  0  0  0  0
    1.3247   19.2896  -29.8396 H   0  0  0  0  0  0  0  0  0  0  0  0
   -4.0113   21.2319  -29.4869 H   0  0  0  0  0  0  0  0  0  0  0  0
   -4.9906   23.2619  -30.5521 H   0  0  0  0  0  0  0  0  0  0  0  0
   -0.5760   23.5573  -28.2312 H   0  0  0  0  0  0  0  0  0  0  0  0
  1  2  2  0
  2  3  1  0
  3  4  1  0
  4  5  2  0
  5  6  1  0
  6  7  2  0
  7  8  1  0
  8  9  1  0
  9 10  2  0
 10 11  1  0
 11 12  2  0
 12 13  1  0
 13 14  2  0
  7 15  1  0
 15 16  2  0
  2 17  1  0
 17 18  2  0
 18 19  1  0
 19 20  2  0
 20 21  1  0
 20 22  1  0
 22 23  1  0
 22 24  2  0
 16  4  1  0
 24 17  1  0
 14  9  1  0
  5 25  1  0
  6 26  1  0
  8 27  1  0
 10 28  1  0
 11 29  1  0
 12 30  1  0
 13 31  1  0
 14 32  1  0
 15 33  1  0
 16 34  1  0
 18 35  1  0
 19 36  1  0
 24 37  1  0
M  CHG  3   3  -1  21  -1  23  -1
M  END
>  <UniqueID>  (3) 
3

>  <SMILES>  (3) 
O=C([N-]c1ccc(Nc2ccccc2)cc1)c1ccc([O-])c([O-])c1

>  <Energy>  (3) 
52.59740250305673

>  <Genealogy>  (3) 
O=C([N-]c1ccc(Nc2ccccc2)cc1)c1ccc([O-])c([O-])c1 (protonated)
O=C([N-]c1ccc(Nc2ccccc2)cc1)c1ccc([O-])c([O-])c1 (3D coordinates assigned)
O=C([N-]c1ccc(Nc2ccccc2)cc1)c1ccc([O-])c([O-])c1 (optimized conformer: 52.59740250305673 kcal/mol)

>  <smiles>  (3) 
O=C(Nc1ccc(Nc2ccccc2)cc1)c1ccc(O)c(O)c1

>  <score_type>  (3) 
oracle

>  <origin>  (3) 
adgpu

>  <m_score__min__energy>  (3) 
-12.25

>  <m_primary>  (3) 
energy

$$$$
3:0
     RDKit          3D

 27 28  0  0  0  0  0  0  0  0999 V2000
   -9.3190   22.3130  -31.9910 C   0  0  0  0  0  0  0  0  0  0  0  0
   -8.6700   20.9570  -31.9810 C   0  0  0  0  0  0  0  0  0  0  0  0
   -9.4210   19.8170  -32.3160 C   0  0  0  0  0  0  0  0  0  0  0  0
   -8.8300   18.5500  -32.2960 C   0  0  0  0  0  0  0  0  0  0  0  0
   -7.4880   18.4090  -31.9370 C   0  0  0  0  0  0  0  0  0  0  0  0
   -6.7330   19.5320  -31.5940 C   0  0  0  0  0  0  0  0  0  0  0  0
   -7.3160   20.8080  -31.6070 C   0  0  0  0  0  0  0  0  0  0  0  0
   -6.5200   21.9510  -31.2410 N   0  0  0  0  0  0  0  0  0  0  0  0
   -5.4130   22.2960  -31.9760 C   0  0  0  0  0  0  0  0  0  0  0  0
   -5.0140   21.5420  -33.1310 N   0  0  0  0  0  0  0  0  0  0  0  0
   -4.6510   23.4070  -31.5990 C   0  0  0  0  0  0  0  0  0  0  0  0
   -5.0390   24.1440  -30.4860 C   0  0  0  0  0  0  0  0  0  0  0  0
   -4.3660   25.1490  -30.1310 O   0  0  0  0  0  0  0  0  0  0  0  0
   -6.1420   23.7800  -29.7830 N   0  0  0  0  0  0  0  0  0  0  0  0
   -6.8800   22.6980  -30.1490 C   0  0  0  0  0  0  0  0  0  0  0  0
   -7.9000   22.3880  -29.4710 O   0  0  0  0  0  0  0  0  0  0  0  0
   -9.4803   22.6499  -30.9564 H   0  0  0  0  0  0  0  0  0  0  0  0
   -8.6657   23.0284  -32.5120 H   0  0  0  0  0  0  0  0  0  0  0  0
  -10.2859   22.2529  -32.5120 H   0  0  0  0  0  0  0  0  0  0  0  0
  -10.4797   19.9223  -32.5955 H   0  0  0  0  0  0  0  0  0  0  0  0
   -9.4231   17.6630  -32.5635 H   0  0  0  0  0  0  0  0  0  0  0  0
   -7.0249   17.4113  -31.9244 H   0  0  0  0  0  0  0  0  0  0  0  0
   -5.6761   19.4159  -31.3122 H   0  0  0  0  0  0  0  0  0  0  0  0
   -4.6450   22.0280  -33.9800 H   0  0  0  0  0  0  0  0  0  0  0  0
   -5.0800   20.5010  -33.1660 H   0  0  0  0  0  0  0  0  0  0  0  0
   -3.7583   23.6931  -32.1746 H   0  0  0  0  0  0  0  0  0  0  0  0
   -6.4280   24.3400  -28.9470 H   0  0  0  0  0  0  0  0  0  0  0  0
  1  2  1  0
  2  3  2  0
  3  4  1  0
  4  5  2  0
  5  6  1  0
  6  7  2  0
  7  8  1  0
  8  9  1  0
  9 10  1  0
  9 11  2  0
 11 12  1  0
 12 13  2  0
 12 14  1  0
 14 15  1  0
 15 16  2  0
  7  2  1  0
 15  8  1  0
  1 17  1  0
  1 18  1  0
  1 19  1  0
  3 20  1  0
  4 21  1  0
  5 22  1  0
  6 23  1  0
 10 24  1  0
 10 25  1  0
 11 26  1  0
 14 27  1  0
M  END
>  <UniqueID>  (4) 
4

>  <SMILES>  (4) 
Cc1ccccc1-n1c(N)cc(=O)[nH]c1=O

>  <Energy>  (4) 
37.56254606501947

>  <Genealogy>  (4) 
Cc1ccccc1-n1c(N)cc(=O)[nH]c1=O (3D coordinates assigned)
Cc1ccccc1-n1c(N)cc(=O)[nH]c1=O (optimized conformer: 37.56254606501947 kcal/mol)

>  <smiles>  (4) 
Cc1ccccc1-n1c(N)cc(=O)[nH]c1=O

>  <score_type>  (4) 
oracle

>  <origin>  (4) 
adgpu

>  <m_score__min__energy>  (4) 
-6.6200000000000001

>  <m_primary>  (4) 
energy

$$$$
4:0
     RDKit          3D

 54 57  0  0  0  0  0  0  0  0999 V2000
   -6.0260   25.6220  -29.2520 F   0  0  0  0  0  0  0  0  0  0  0  0
   -6.0270   24.5740  -30.1120 C   0  0  0  0  0  0  0  0  0  0  0  0
   -7.2390   24.0320  -30.5480 C   0  0  0  0  0  0  0  0  0  0  0  0
   -7.2430   22.9490  -31.4330 C   0  0  0  0  0  0  0  0  0  0  0  0
   -8.7980   22.2320  -31.9630 S   0  0  0  0  0  0  0  0  0  0  0  0
   -8.0460   20.6360  -32.2810 C   0  0  0  0  0  0  0  0  0  0  0  0
   -7.3460   20.4150  -33.4720 C   0  0  0  0  0  0  0  0  0  0  0  0
   -6.7910   19.1590  -33.7370 C   0  0  0  0  0  0  0  0  0  0  0  0
   -6.9270   18.1150  -32.8080 C   0  0  0  0  0  0  0  0  0  0  0  0
   -6.3630   16.7470  -33.1140 C   0  0  0  0  0  0  0  0  0  0  0  0
   -4.9470   16.6100  -32.6760 N   0  0  0  0  0  0  0  0  0  0  0  0
   -4.3460   15.3440  -33.1690 C   0  0  0  0  0  0  0  0  0  0  0  0
   -3.6210   15.5130  -34.5220 C   0  0  0  0  0  0  0  0  0  0  0  0
   -4.1630   16.5940  -35.2490 O   0  0  0  0  0  0  0  0  0  0  0  0
   -3.8680   17.8170  -34.5970 C   0  0  0  0  0  0  0  0  0  0  0  0
   -4.1080   17.7670  -33.0690 C   0  0  0  0  0  0  0  0  0  0  0  0
   -7.6190   18.3470  -31.6080 C   0  0  0  0  0  0  0  0  0  0  0  0
   -8.1740   19.6030  -31.3460 C   0  0  0  0  0  0  0  0  0  0  0  0
   -6.0320   22.4130  -31.8890 C   0  0  0  0  0  0  0  0  0  0  0  0
   -4.8060   22.9460  -31.4510 C   0  0  0  0  0  0  0  0  0  0  0  0
   -3.5010   22.3380  -31.9320 C   0  0  0  0  0  0  0  0  0  0  0  0
   -2.7560   21.6010  -30.7980 C   0  0  0  0  0  0  0  0  0  0  0  0
   -1.7350   20.5950  -31.3620 C   0  0  0  0  0  0  0  0  0  0  0  0
   -1.3200   20.9700  -32.6610 O   0  0  0  0  0  0  0  0  0  0  0  0
   -2.3770   20.7750  -33.5890 C   0  0  0  0  0  0  0  0  0  0  0  0
   -3.7170   21.4040  -33.1340 C   0  0  0  0  0  0  0  0  0  0  0  0
   -4.8160   24.0350  -30.5580 C   0  0  0  0  0  0  0  0  0  0  0  0
   -8.1901   24.4572  -30.1951 H   0  0  0  0  0  0  0  0  0  0  0  0
   -7.2320   21.2306  -34.2013 H   0  0  0  0  0  0  0  0  0  0  0  0
   -6.2457   18.9883  -34.6770 H   0  0  0  0  0  0  0  0  0  0  0  0
   -6.9690   15.9900  -32.5946 H   0  0  0  0  0  0  0  0  0  0  0  0
   -6.3935   16.6061  -34.2045 H   0  0  0  0  0  0  0  0  0  0  0  0
   -4.9460   16.5640  -31.6300 H   0  0  0  0  0  0  0  0  0  0  0  0
   -3.6205   14.9858  -32.4238 H   0  0  0  0  0  0  0  0  0  0  0  0
   -5.1649   14.6252  -33.3195 H   0  0  0  0  0  0  0  0  0  0  0  0
   -2.5530   15.7015  -34.3379 H   0  0  0  0  0  0  0  0  0  0  0  0
   -3.7514   14.5922  -35.1094 H   0  0  0  0  0  0  0  0  0  0  0  0
   -2.8111   18.0630  -34.7770 H   0  0  0  0  0  0  0  0  0  0  0  0
   -4.5458   18.5789  -35.0094 H   0  0  0  0  0  0  0  0  0  0  0  0
   -3.1363   17.6904  -32.5593 H   0  0  0  0  0  0  0  0  0  0  0  0
   -4.6386   18.6857  -32.7783 H   0  0  0  0  0  0  0  0  0  0  0  0
   -7.7247   17.5370  -30.8713 H   0  0  0  0  0  0  0  0  0  0  0  0
   -8.7123   19.7795  -30.4031 H   0  0  0  0  0  0  0  0  0  0  0  0
   -6.0396   21.5692  -32.5947 H   0  0  0  0  0  0  0  0  0  0  0  0
   -2.8678   23.1749  -32.2616 H   0  0  0  0  0  0  0  0  0  0  0  0
   -2.2267   22.3393  -30.1777 H   0  0  0  0  0  0  0  0  0  0  0  0
   -3.4944   21.0480  -30.1989 H   0  0  0  0  0  0  0  0  0  0  0  0
   -0.8577   20.5627  -30.6992 H   0  0  0  0  0  0  0  0  0  0  0  0
   -2.2117   19.6052  -31.4179 H   0  0  0  0  0  0  0  0  0  0  0  0
   -2.0869   21.2280  -34.5485 H   0  0  0  0  0  0  0  0  0  0  0  0
   -2.5391   19.6904  -33.6742 H   0  0  0  0  0  0  0  0  0  0  0  0
   -4.1458   21.9810  -33.9666 H   0  0  0  0  0  0  0  0  0  0  0  0
   -4.4020   20.5969  -32.8349 H   0  0  0  0  0  0  0  0  0  0  0  0
   -3.8653   24.4644  -30.2091 H   0  0  0  0  0  0  0  0  0  0  0  0
  1  2  1  0
  2  3  2  0
  3  4  1  0
  4  5  1  0
  5  6  1  0
  6  7  2  0
  7  8  1  0
  8  9  2  0
  9 10  1  0
 10 11  1  0
 11 12  1  0
 12 13  1  0
 13 14  1  0
 14 15  1  0
 15 16  1  0
  9 17  1  0
 17 18  2  0
  4 19  2  0
 19 20  1  0
 20 21  1  0
 21 22  1  0
 22 23  1  0
 23 24  1  0
 24 25  1  0
 25 26  1  0
 20 27  2  0
 27  2  1  0
 18  6  1  0
 26 21  1  0
 16 11  1  0
  3 28  1  0
  7 29  1  0
  8 30  1  0
 10 31  1  0
 10 32  1  0
 11 33  1  0
 12 34  1  0
 12 35  1  0
 13 36  1  0
 13 37  1  0
 15 38  1  0
 15 39  1  0
 16 40  1  0
 16 41  1  0
 17 42  1  0
 18 43  1  0
 19 44  1  0
 21 45  1  0
 22 46  1  0
 22 47  1  0
 23 48  1  0
 23 49  1  0
 25 50  1  0
 25 51  1  0
 26 52  1  0
 26 53  1  0
 27 54  1  0
M  CHG  1  11   1
M  END
>  <UniqueID>  (5) 
5

>  <SMILES>  (5) 
Fc1cc(Sc2ccc(C[NH+]3CCOCC3)cc2)cc(C2CCOCC2)c1

>  <Energy>  (5) 
71.10992937583477

>  <Genealogy>  (5) 
Fc1cc(Sc2ccc(C[NH+]3CCOCC3)cc2)cc(C2CCOCC2)c1 (protonated)
Fc1cc(Sc2ccc(C[NH+]3CCOCC3)cc2)cc(C2CCOCC2)c1 (3D coordinates assigned)
Fc1cc(Sc2ccc(C[NH+]3CCOCC3)cc2)cc(C2CCOCC2)c1 (nonaromatic ring conformer: 71.10992937583477 kcal/mol)

>  <smiles>  (5) 
Fc1cc(Sc2ccc(CN3CCOCC3)cc2)cc(C2CCOCC2)c1

>  <score_type>  (5) 
oracle

>  <origin>  (5) 
adgpu

>  <m_score__min__energy>  (5) 
-8.7899999999999991

>  <m_primary>  (5) 
energy

$$$$
5:0
     RDKit          3D

 40 43  0  0  0  0  0  0  0  0999 V2000
   -1.1600   23.0500  -26.1240 H   0  0  0  0  0  0  0  0  0  0  0  0
   -2.0190   22.9560  -26.7090 N   0  0  0  0  0  0  0  0  0  0  0  0
   -2.2680   23.7360  -27.7140 C   0  0  0  0  0  0  0  0  0  0  0  0
   -3.3480   23.6290  -28.5610 C   0  0  0  0  0  0  0  0  0  0  0  0
   -4.4500   22.7880  -28.6170 C   0  0  0  0  0  0  0  0  0  0  0  0
   -4.6126   22.0042  -27.8625 H   0  0  0  0  0  0  0  0  0  0  0  0
   -5.3510   22.9810  -29.6810 C   0  0  0  0  0  0  0  0  0  0  0  0
   -6.2435   22.3438  -29.7672 H   0  0  0  0  0  0  0  0  0  0  0  0
   -5.1080   24.0040  -30.6500 C   0  0  0  0  0  0  0  0  0  0  0  0
   -5.9150   24.2170  -31.6500 N   0  0  0  0  0  0  0  0  0  0  0  0
   -7.1450   23.4830  -31.9360 C   0  0  0  0  0  0  0  0  0  0  0  0
   -7.7789   23.4635  -31.0372 H   0  0  0  0  0  0  0  0  0  0  0  0
   -7.6885   23.9783  -32.7541 H   0  0  0  0  0  0  0  0  0  0  0  0
   -6.8010   22.0780  -32.3380 C   0  0  0  0  0  0  0  0  0  0  0  0
   -7.7780   21.0700  -32.2960 C   0  0  0  0  0  0  0  0  0  0  0  0
   -8.8069   21.3160  -31.9946 H   0  0  0  0  0  0  0  0  0  0  0  0
   -7.4470   19.7550  -32.6360 C   0  0  0  0  0  0  0  0  0  0  0  0
   -8.2177   18.9706  -32.6091 H   0  0  0  0  0  0  0  0  0  0  0  0
   -6.1390   19.4350  -33.0100 C   0  0  0  0  0  0  0  0  0  0  0  0
   -5.8817   18.4005  -33.2814 H   0  0  0  0  0  0  0  0  0  0  0  0
   -5.1570   20.4310  -33.0390 C   0  0  0  0  0  0  0  0  0  0  0  0
   -4.1266   20.1784  -33.3296 H   0  0  0  0  0  0  0  0  0  0  0  0
   -5.4840   21.7470  -32.6990 C   0  0  0  0  0  0  0  0  0  0  0  0
   -4.7076   22.5261  -32.7141 H   0  0  0  0  0  0  0  0  0  0  0  0
   -3.9930   24.7930  -30.5360 N   0  0  0  0  0  0  0  0  0  0  0  0
   -3.1400   24.5930  -29.5030 C   0  0  0  0  0  0  0  0  0  0  0  0
   -2.0000   25.2620  -29.2570 N   0  0  0  0  0  0  0  0  0  0  0  0
   -1.6000   26.0490  -29.8150 H   0  0  0  0  0  0  0  0  0  0  0  0
   -1.4670   24.7450  -28.1520 N   0  0  0  0  0  0  0  0  0  0  0  0
   -0.2360   25.2090  -27.5750 C   0  0  0  0  0  0  0  0  0  0  0  0
   -0.1590   26.5080  -27.0490 C   0  0  0  0  0  0  0  0  0  0  0  0
   -1.0368   27.1695  -27.0936 H   0  0  0  0  0  0  0  0  0  0  0  0
    1.0270   26.9650  -26.4690 C   0  0  0  0  0  0  0  0  0  0  0  0
    1.0832   27.9875  -26.0674 H   0  0  0  0  0  0  0  0  0  0  0  0
    2.1430   26.1250  -26.3980 C   0  0  0  0  0  0  0  0  0  0  0  0
    3.7630   26.7500  -25.6020 Br  0  0  0  0  0  0  0  0  0  0  0  0
    2.0680   24.8220  -26.9010 C   0  0  0  0  0  0  0  0  0  0  0  0
    2.9436   24.1591  -26.8391 H   0  0  0  0  0  0  0  0  0  0  0  0
    0.8820   24.3590  -27.4830 C   0  0  0  0  0  0  0  0  0  0  0  0
    0.8130   23.0780  -27.9230 F   0  0  0  0  0  0  0  0  0  0  0  0
  1  2  1  0
  2  3  2  0
  3  4  1  0
  4  5  1  0
  5  6  1  0
  5  7  2  0
  7  8  1  0
  7  9  1  0
  9 10  2  0
 10 11  1  0
 11 12  1  0
 11 13  1  0
 11 14  1  0
 14 15  2  0
 15 16  1  0
 15 17  1  0
 17 18  1  0
 17 19  2  0
 19 20  1  0
 19 21  1  0
 21 22  1  0
 21 23  2  0
 23 24  1  0
  9 25  1  0
 25 26  1  0
 26 27  1  0
 27 28  1  0
 27 29  1  0
 29 30  1  0
 30 31  2  0
 31 32  1  0
 31 33  1  0
 33 34  1  0
 33 35  2  0
 35 36  1  0
 35 37  1  0
 37 38  1  0
 37 39  2  0
 39 40  1  0
 29  3  1  0
 39 30  1  0
 26  4  2  0
 23 14  1  0
M  CHG  1  25  -1
M  END
>  <UniqueID>  (6) 
6

>  <SMILES>  (6) 
[H]/N=c1/c2cc/c(=N\Cc3ccccc3)[n-]c2[nH]n1-c1ccc(Br)cc1F

>  <Energy>  (6) 
96.04916115554195

>  <Genealogy>  (6) 
N=c1c2ccc(=NCc3ccccc3)[n-]c2[nH]n1-c1ccc(Br)cc1F (protonated)
[H]/N=c1/c2cc/c(=N\Cc3ccccc3)[n-]c2[nH]n1-c1ccc(Br)cc1F (cis-trans isomerization)
[H]/N=c1/c2cc/c(=N\Cc3ccccc3)[n-]c2[nH]n1-c1ccc(Br)cc1F (3D coordinates assigned)
[H]/N=c1/c2cc/c(=N\Cc3ccccc3)[n-]c2[nH]n1-c1ccc(Br)cc1F (optimized conformer: 96.04916115554195 kcal/mol)

>  <smiles>  (6) 
N=c1c2ccc(=NCc3ccccc3)[nH]c2[nH]n1-c1ccc(Br)cc1F

>  <score_type>  (6) 
oracle

>  <origin>  (6) 
adgpu

>  <m_score__min__energy>  (6) 
-9.8599999999999994

>  <m_primary>  (6) 
energy

$$$$
6:0
     RDKit          3D

 38 41  0  0  1  0  0  0  0  0999 V2000
   -8.7300   18.9230  -31.7640 C   0  0  0  0  0  0  0  0  0  0  0  0
   -7.5740   18.2390  -32.0730 C   0  0  0  0  0  0  0  0  0  0  0  0
   -6.4980   18.9670  -32.4970 C   0  0  0  0  0  0  0  0  0  0  0  0
   -6.5340   20.3420  -32.6230 C   0  0  0  0  0  0  0  0  0  0  0  0
   -5.2980   21.0160  -33.0930 C   0  0  0  0  0  0  0  0  0  0  0  0
   -4.5510   21.5980  -31.9970 N   0  0  0  0  0  0  0  0  0  0  0  0
   -3.5320   21.0910  -31.2940 C   0  0  0  0  0  0  0  0  0  0  0  0
   -3.1240   21.9840  -30.3440 N   0  0  0  0  0  0  0  0  0  0  0  0
   -3.9190   23.0630  -30.4750 C   0  0  0  0  0  0  0  0  0  0  0  0
   -3.9640   24.2600  -29.7890 C   0  0  0  0  0  0  0  0  0  0  0  0
   -3.1640   24.5490  -28.8180 N   0  0  0  0  0  0  0  0  0  0  0  0
   -2.2030   23.5590  -28.4670 C   0  0  0  0  0  0  0  0  0  0  0  0
   -2.5830   22.6240  -27.5250 C   0  0  0  0  0  0  0  0  0  0  0  0
   -1.7570   21.6090  -27.0910 C   0  0  0  0  0  0  0  0  0  0  0  0
   -0.4890   21.5500  -27.6450 C   0  0  0  0  0  0  0  0  0  0  0  0
   -0.1170   22.4840  -28.5820 C   0  0  0  0  0  0  0  0  0  0  0  0
   -0.9430   23.4930  -29.0120 C   0  0  0  0  0  0  0  0  0  0  0  0
   -4.8950   25.1850  -30.1480 N   0  0  0  0  0  0  0  0  0  0  0  0
   -5.7630   24.9260  -31.1680 C   0  0  0  0  0  0  0  0  0  0  0  0
   -5.7290   23.7640  -31.8440 N   0  0  0  0  0  0  0  0  0  0  0  0
   -4.8240   22.8340  -31.5120 C   0  0  0  0  0  0  0  0  0  0  0  0
   -7.6940   21.0170  -32.3110 C   0  0  0  0  0  0  0  0  0  0  0  0
   -8.8120   20.3120  -31.8750 C   0  0  0  0  0  0  0  0  0  0  0  0
   -9.6105   18.3599  -31.4211 H   0  0  0  0  0  0  0  0  0  0  0  0
   -7.5194   17.1442  -31.9814 H   0  0  0  0  0  0  0  0  0  0  0  0
   -5.5671   18.4374  -32.7477 H   0  0  0  0  0  0  0  0  0  0  0  0
   -4.6626   20.2778  -33.6042 H   0  0  0  0  0  0  0  0  0  0  0  0
   -5.5903   21.8275  -33.7757 H   0  0  0  0  0  0  0  0  0  0  0  0
   -3.0869   20.0984  -31.4573 H   0  0  0  0  0  0  0  0  0  0  0  0
   -3.5951   22.6922  -27.0996 H   0  0  0  0  0  0  0  0  0  0  0  0
   -2.0901   20.8789  -26.3386 H   0  0  0  0  0  0  0  0  0  0  0  0
    0.2144   20.7622  -27.3376 H   0  0  0  0  0  0  0  0  0  0  0  0
    0.8945   22.4199  -29.0095 H   0  0  0  0  0  0  0  0  0  0  0  0
   -0.6086   24.2218  -29.7650 H   0  0  0  0  0  0  0  0  0  0  0  0
   -4.9400   26.0890  -29.6410 H   0  0  0  0  0  0  0  0  0  0  0  0
   -6.5087   25.6860  -31.4442 H   0  0  0  0  0  0  0  0  0  0  0  0
   -7.7364   22.1120  -32.4064 H   0  0  0  0  0  0  0  0  0  0  0  0
   -9.7434   20.8399  -31.6224 H   0  0  0  0  0  0  0  0  0  0  0  0
  1  2  2  0
  2  3  1  0
  3  4  2  0
  4  5  1  0
  5  6  1  0
  6  7  1  0
  7  8  2  0
  8  9  1  0
  9 10  1  0
 10 11  2  0
 11 12  1  0
 12 13  2  0
 13 14  1  0
 14 15  2  0
 15 16  1  0
 16 17  2  0
 10 18  1  0
 18 19  1  0
 19 20  2  0
 20 21  1  0
  4 22  1  0
 22 23  2  0
 23  1  1  0
 21  6  1  0
 21  9  2  0
 17 12  1  0
  1 24  1  0
  2 25  1  0
  3 26  1  0
  5 27  1  0
  5 28  1  0
  7 29  1  0
 13 30  1  0
 14 31  1  0
 15 32  1  0
 16 33  1  0
 17 34  1  0
 18 35  1  0
 19 36  1  0
 22 37  1  0
 23 38  1  0
M  END
>  <smiles>  (7) 
c1ccc(Cn2cnc3c(=Nc4ccccc4)[nH]cnc32)cc1

>  <score_type>  (7) 
oracle

>  <origin>  (7) 
adgpu

>  <m_score__min__energy>  (7) 
-8.0199999999999996

>  <m_primary>  (7) 
energy

$$$$
7:0
     RDKit          3D

 49 52  0  0  0  0  0  0  0  0999 V2000
   -1.8362   21.5754  -27.4932 H   0  0  0  0  0  0  0  0  0  0  0  0
   -2.5580   21.2410  -28.2530 C   0  0  0  0  0  0  0  0  0  0  0  0
   -2.8633   20.1850  -28.2945 H   0  0  0  0  0  0  0  0  0  0  0  0
   -3.0630   22.1160  -29.1240 C   0  0  0  0  0  0  0  0  0  0  0  0
   -3.9540   21.7590  -30.0790 N   0  0  0  0  0  0  0  0  0  0  0  0
   -4.2370   22.9130  -30.7230 C   0  0  0  0  0  0  0  0  0  0  0  0
   -5.1070   23.0310  -31.7340 C   0  0  0  0  0  0  0  0  0  0  0  0
   -5.2855   24.0305  -32.1572 H   0  0  0  0  0  0  0  0  0  0  0  0
   -5.8370   21.8860  -32.3070 C   0  0  0  0  0  0  0  0  0  0  0  0
   -5.2600   20.8520  -33.0340 C   0  0  0  0  0  0  0  0  0  0  0  0
   -4.1909   20.7780  -33.2822 H   0  0  0  0  0  0  0  0  0  0  0  0
   -6.2020   19.9490  -33.3930 N   0  0  0  0  0  0  0  0  0  0  0  0
   -5.9760   18.7580  -34.2140 C   0  0  0  0  0  0  0  0  0  0  0  0
   -6.6525   18.7816  -35.0811 H   0  0  0  0  0  0  0  0  0  0  0  0
   -4.9292   18.7506  -34.5518 H   0  0  0  0  0  0  0  0  0  0  0  0
   -6.2430   17.4960  -33.4030 C   0  0  0  0  0  0  0  0  0  0  0  0
   -6.1930   17.7324  -32.3299 H   0  0  0  0  0  0  0  0  0  0  0  0
   -7.2431   17.1082  -33.6468 H   0  0  0  0  0  0  0  0  0  0  0  0
   -5.4857   16.7364  -33.6468 H   0  0  0  0  0  0  0  0  0  0  0  0
   -7.3730   20.3990  -32.8940 C   0  0  0  0  0  0  0  0  0  0  0  0
   -8.6340   19.8020  -32.9860 C   0  0  0  0  0  0  0  0  0  0  0  0
   -8.7784   18.8684  -33.5495 H   0  0  0  0  0  0  0  0  0  0  0  0
   -9.7110   20.4290  -32.3380 C   0  0  0  0  0  0  0  0  0  0  0  0
  -10.7175   19.9896  -32.4011 H   0  0  0  0  0  0  0  0  0  0  0  0
   -9.5100   21.6200  -31.6060 C   0  0  0  0  0  0  0  0  0  0  0  0
  -10.3587   22.0958  -31.0928 H   0  0  0  0  0  0  0  0  0  0  0  0
   -8.2330   22.2010  -31.5290 C   0  0  0  0  0  0  0  0  0  0  0  0
   -8.0637   23.1213  -30.9507 H   0  0  0  0  0  0  0  0  0  0  0  0
   -7.1850   21.5760  -32.2080 C   0  0  0  0  0  0  0  0  0  0  0  0
   -3.5270   23.9380  -30.1360 C   0  0  0  0  0  0  0  0  0  0  0  0
   -3.5560   25.1540  -30.4690 O   0  0  0  0  0  0  0  0  0  0  0  0
   -2.7750   23.4410  -29.1400 N   0  0  0  0  0  0  0  0  0  0  0  0
   -1.9040   24.1820  -28.2690 C   0  0  0  0  0  0  0  0  0  0  0  0
   -0.5400   24.2430  -28.5770 C   0  0  0  0  0  0  0  0  0  0  0  0
   -0.1550   23.7071  -29.4571 H   0  0  0  0  0  0  0  0  0  0  0  0
    0.3340   24.9770  -27.7780 C   0  0  0  0  0  0  0  0  0  0  0  0
    1.4052   25.0134  -28.0254 H   0  0  0  0  0  0  0  0  0  0  0  0
   -0.1470   25.6650  -26.6660 C   0  0  0  0  0  0  0  0  0  0  0  0
    0.5479   26.2484  -26.0441 H   0  0  0  0  0  0  0  0  0  0  0  0
   -1.5110   25.6210  -26.3310 C   0  0  0  0  0  0  0  0  0  0  0  0
   -1.9860   26.3790  -25.1190 C   0  0  0  0  0  0  0  0  0  0  0  0
   -1.6585   25.8564  -24.2081 H   0  0  0  0  0  0  0  0  0  0  0  0
   -1.5621   27.3940  -25.1319 H   0  0  0  0  0  0  0  0  0  0  0  0
   -3.0842   26.4401  -25.1319 H   0  0  0  0  0  0  0  0  0  0  0  0
   -2.3990   24.8410  -27.1160 C   0  0  0  0  0  0  0  0  0  0  0  0
   -3.8620   24.7390  -26.7480 C   0  0  0  0  0  0  0  0  0  0  0  0
   -3.9650   24.7318  -25.6529 H   0  0  0  0  0  0  0  0  0  0  0  0
   -4.4051   25.6015  -27.1617 H   0  0  0  0  0  0  0  0  0  0  0  0
   -4.2802   23.8095  -27.1617 H   0  0  0  0  0  0  0  0  0  0  0  0
  1  2  1  0
  2  3  1  0
  2  4  2  0
  4  5  1  0
  5  6  1  0
  6  7  2  0
  7  8  1  0
  7  9  1  0
  9 10  2  0
 10 11  1  0
 10 12  1  0
 12 13  1  0
 13 14  1  0
 13 15  1  0
 13 16  1  0
 16 17  1  0
 16 18  1  0
 16 19  1  0
 12 20  1  0
 20 21  2  0
 21 22  1  0
 21 23  1  0
 23 24  1  0
 23 25  2  0
 25 26  1  0
 25 27  1  0
 27 28  1  0
 27 29  2  0
  6 30  1  0
 30 31  2  0
 30 32  1  0
 32 33  1  0
 33 34  2  0
 34 35  1  0
 34 36  1  0
 36 37  1  0
 36 38  2  0
 38 39  1  0
 38 40  1  0
 40 41  1  0
 41 42  1  0
 41 43  1  0
 41 44  1  0
 40 45  2  0
 45 46  1  0
 46 47  1  0
 46 48  1  0
 46 49  1  0
 32  4  1  0
 45 33  1  0
 29  9  1  0
 29 20  1  0
M  CHG  1   5  -1
M  END
>  <UniqueID>  (8) 
7

>  <SMILES>  (8) 
C=c1[n-]/c(=C\c2cn(CC)c3ccccc23)c(=O)n1-c1cccc(C)c1C

>  <Energy>  (8) 
129.44260337826444

>  <Genealogy>  (8) 
C=c1[n-]c(=Cc2cn(CC)c3ccccc23)c(=O)n1-c1cccc(C)c1C (protonated)
C=c1[n-]/c(=C\c2cn(CC)c3ccccc23)c(=O)n1-c1cccc(C)c1C (cis-trans isomerization)
C=c1[n-]/c(=C\c2cn(CC)c3ccccc23)c(=O)n1-c1cccc(C)c1C (3D coordinates assigned)
C=c1[n-]/c(=C\c2cn(CC)c3ccccc23)c(=O)n1-c1cccc(C)c1C (optimized conformer: 129.44260337826444 kcal/mol)

>  <smiles>  (8) 
C=c1[nH]c(=Cc2cn(CC)c3ccccc23)c(=O)n1-c1cccc(C)c1C

>  <score_type>  (8) 
oracle

>  <origin>  (8) 
adgpu

>  <m_score__min__energy>  (8) 
-10.68

>  <m_primary>  (8) 
energy

$$$$
8:0
     RDKit          3D

 46 48  0  0  0  0  0  0  0  0999 V2000
   -2.0330   25.3030  -27.5120 C   0  0  0  0  0  0  0  0  0  0  0  0
   -2.3670   25.3050  -28.8960 O   0  0  0  0  0  0  0  0  0  0  0  0
   -2.4130   24.1570  -29.7050 C   0  0  0  0  0  0  0  0  0  0  0  0
   -1.4320   23.1510  -29.6300 C   0  0  0  0  0  0  0  0  0  0  0  0
   -1.5070   22.0270  -30.4550 C   0  0  0  0  0  0  0  0  0  0  0  0
   -2.5660   21.8810  -31.3610 C   0  0  0  0  0  0  0  0  0  0  0  0
   -2.6280   20.7110  -32.2600 C   0  0  0  0  0  0  0  0  0  0  0  0
   -1.7150   20.4470  -33.2180 N   0  0  0  0  0  0  0  0  0  0  0  0
   -2.1650   19.3880  -33.8640 N   0  0  0  0  0  0  0  0  0  0  0  0
   -3.3290   19.0330  -33.3010 C   0  0  0  0  0  0  0  0  0  0  0  0
   -4.3920   17.7280  -33.9150 S   0  0  0  0  0  0  0  0  0  0  0  0
   -5.6850   18.8620  -34.5480 C   0  0  0  0  0  0  0  0  0  0  0  0
   -6.6890   19.2180  -33.4730 C   0  0  0  0  0  0  0  0  0  0  0  0
   -6.8720   20.5730  -33.1420 C   0  0  0  0  0  0  0  0  0  0  0  0
   -7.7030   20.9500  -32.0800 C   0  0  0  0  0  0  0  0  0  0  0  0
   -7.8710   22.3990  -31.7300 C   0  0  0  0  0  0  0  0  0  0  0  0
   -8.4110   19.9680  -31.3800 C   0  0  0  0  0  0  0  0  0  0  0  0
   -8.2630   18.6200  -31.7110 C   0  0  0  0  0  0  0  0  0  0  0  0
   -7.4000   18.2280  -32.7490 C   0  0  0  0  0  0  0  0  0  0  0  0
   -7.2660   16.7630  -33.0750 C   0  0  0  0  0  0  0  0  0  0  0  0
   -3.6600   19.8380  -32.2760 N   0  0  0  0  0  0  0  0  0  0  0  0
   -3.5480   22.8820  -31.4340 C   0  0  0  0  0  0  0  0  0  0  0  0
   -3.4730   24.0240  -30.6140 C   0  0  0  0  0  0  0  0  0  0  0  0
   -4.4300   25.0510  -30.6780 O   0  0  0  0  0  0  0  0  0  0  0  0
   -5.7180   24.9920  -30.0730 C   0  0  0  0  0  0  0  0  0  0  0  0
   -2.9551   25.3085  -26.9123 H   0  0  0  0  0  0  0  0  0  0  0  0
   -1.4483   24.4013  -27.2772 H   0  0  0  0  0  0  0  0  0  0  0  0
   -1.4375   26.1976  -27.2772 H   0  0  0  0  0  0  0  0  0  0  0  0
   -0.6006   23.2507  -28.9167 H   0  0  0  0  0  0  0  0  0  0  0  0
   -0.7297   21.2511  -30.3933 H   0  0  0  0  0  0  0  0  0  0  0  0
   -1.6980   18.9430  -34.6850 H   0  0  0  0  0  0  0  0  0  0  0  0
   -5.2057   19.7842  -34.9083 H   0  0  0  0  0  0  0  0  0  0  0  0
   -6.2199   18.3528  -35.3632 H   0  0  0  0  0  0  0  0  0  0  0  0
   -6.3544   21.3480  -33.7263 H   0  0  0  0  0  0  0  0  0  0  0  0
   -7.8842   22.5128  -30.6360 H   0  0  0  0  0  0  0  0  0  0  0  0
   -7.0338   22.9768  -32.1487 H   0  0  0  0  0  0  0  0  0  0  0  0
   -8.8182   22.7699  -32.1487 H   0  0  0  0  0  0  0  0  0  0  0  0
   -9.0884   20.2595  -30.5638 H   0  0  0  0  0  0  0  0  0  0  0  0
   -8.8271   17.8572  -31.1542 H   0  0  0  0  0  0  0  0  0  0  0  0
   -7.2130   16.1831  -32.1418 H   0  0  0  0  0  0  0  0  0  0  0  0
   -8.1380   16.4364  -33.6606 H   0  0  0  0  0  0  0  0  0  0  0  0
   -6.3492   16.6000  -33.6606 H   0  0  0  0  0  0  0  0  0  0  0  0
   -4.3849   22.7727  -32.1395 H   0  0  0  0  0  0  0  0  0  0  0  0
   -5.6095   24.9970  -28.9784 H   0  0  0  0  0  0  0  0  0  0  0  0
   -6.3107   25.8639  -30.3867 H   0  0  0  0  0  0  0  0  0  0  0  0
   -6.2285   24.0695  -30.3867 H   0  0  0  0  0  0  0  0  0  0  0  0
  1  2  1  0
  2  3  1  0
  3  4  2  0
  4  5  1  0
  5  6  2  0
  6  7  1  0
  7  8  2  0
  8  9  1  0
  9 10  1  0
 10 11  1  0
 11 12  1  0
 12 13  1  0
 13 14  2  0
 14 15  1  0
 15 16  1  0
 15 17  2  0
 17 18  1  0
 18 19  2  0
 19 20  1  0
 10 21  2  0
  6 22  1  0
 22 23  2  0
 23 24  1  0
 24 25  1  0
 23  3  1  0
 21  7  1  0
 19 13  1  0
  1 26  1  0
  1 27  1  0
  1 28  1  0
  4 29  1  0
  5 30  1  0
  9 31  1  0
 12 32  1  0
 12 33  1  0
 14 34  1  0
 16 35  1  0
 16 36  1  0
 16 37  1  0
 17 38  1  0
 18 39  1  0
 20 40  1  0
 20 41  1  0
 20 42  1  0
 22 43  1  0
 25 44  1  0
 25 45  1  0
 25 46  1  0
M  END
>  <UniqueID>  (9) 
8

>  <SMILES>  (9) 
COc1ccc(-c2n[nH]c(SCc3cc(C)ccc3C)n2)cc1OC

>  <Energy>  (9) 
73.13671551215398

>  <Genealogy>  (9) 
COc1ccc(-c2n[nH]c(SCc3cc(C)ccc3C)n2)cc1OC (3D coordinates assigned)
COc1ccc(-c2n[nH]c(SCc3cc(C)ccc3C)n2)cc1OC (optimized conformer: 73.13671551215398 kcal/mol)

>  <smiles>  (9) 
COc1ccc(-c2n[nH]c(SCc3cc(C)ccc3C)n2)cc1OC

>  <score_type>  (9) 
oracle

>  <origin>  (9) 
adgpu

>  <m_score__min__energy>  (9) 
-9.0999999999999996

>  <m_primary>  (9) 
energy

$$$$
9:0
     RDKit          3D

 46 49  0  0  0  0  0  0  0  0999 V2000
   -1.0760   21.6320  -35.6480 H   0  0  0  0  0  0  0  0  0  0  0  0
   -0.7930   20.7010  -35.2700 N   0  0  0  0  0  0  0  0  0  0  0  0
   -1.4790   20.1100  -34.3470 C   0  0  0  0  0  0  0  0  0  0  0  0
   -2.5950   20.6950  -33.8430 N   0  0  0  0  0  0  0  0  0  0  0  0
   -3.3090   20.0750  -32.8650 C   0  0  0  0  0  0  0  0  0  0  0  0
   -4.5280   20.7110  -32.3240 C   0  0  0  0  0  0  0  0  0  0  0  0
   -4.3480   21.7540  -31.4040 C   0  0  0  0  0  0  0  0  0  0  0  0
   -3.3477   21.9464  -30.9889 H   0  0  0  0  0  0  0  0  0  0  0  0
   -5.4270   22.5530  -31.0080 C   0  0  0  0  0  0  0  0  0  0  0  0
   -5.2740   23.6510  -30.0970 N   0  0  0  0  0  0  0  0  0  0  0  0
   -4.2380   24.6400  -30.1230 C   0  0  0  0  0  0  0  0  0  0  0  0
   -4.3390   25.6620  -30.8540 O   0  0  0  0  0  0  0  0  0  0  0  0
   -3.0190   24.4420  -29.3290 C   0  0  0  0  0  0  0  0  0  0  0  0
   -2.0250   25.2990  -29.2860 O   0  0  0  0  0  0  0  0  0  0  0  0
   -1.0980   24.8230  -28.4870 C   0  0  0  0  0  0  0  0  0  0  0  0
   -0.1455   25.3217  -28.2546 H   0  0  0  0  0  0  0  0  0  0  0  0
   -1.4990   23.6030  -27.9830 C   0  0  0  0  0  0  0  0  0  0  0  0
   -0.9397   22.9587  -27.2886 H   0  0  0  0  0  0  0  0  0  0  0  0
   -2.7420   23.3540  -28.5250 C   0  0  0  0  0  0  0  0  0  0  0  0
   -3.3790   22.4739  -28.3531 H   0  0  0  0  0  0  0  0  0  0  0  0
   -6.6720   22.3290  -31.5900 C   0  0  0  0  0  0  0  0  0  0  0  0
   -7.5159   22.9904  -31.3443 H   0  0  0  0  0  0  0  0  0  0  0  0
   -6.8530   21.3000  -32.4590 N   0  0  0  0  0  0  0  0  0  0  0  0
   -7.8140   21.1420  -32.8380 H   0  0  0  0  0  0  0  0  0  0  0  0
   -5.8470   20.4410  -32.8000 C   0  0  0  0  0  0  0  0  0  0  0  0
   -6.1650   19.4060  -33.5370 N   0  0  0  0  0  0  0  0  0  0  0  0
   -5.4010   18.2300  -33.8400 C   0  0  0  0  0  0  0  0  0  0  0  0
   -4.5880   18.1710  -34.9820 C   0  0  0  0  0  0  0  0  0  0  0  0
   -4.5421   19.0234  -35.6758 H   0  0  0  0  0  0  0  0  0  0  0  0
   -3.8380   17.0200  -35.2290 C   0  0  0  0  0  0  0  0  0  0  0  0
   -3.2140   16.9550  -36.1326 H   0  0  0  0  0  0  0  0  0  0  0  0
   -3.8770   15.9800  -34.3560 N   0  0  0  0  0  0  0  0  0  0  0  0
   -4.6340   16.0180  -33.2230 C   0  0  0  0  0  0  0  0  0  0  0  0
   -4.6190   14.8590  -32.2700 C   0  0  0  0  0  0  0  0  0  0  0  0
   -5.1560   15.2280  -31.0500 F   0  0  0  0  0  0  0  0  0  0  0  0
   -3.3190   14.4290  -32.0730 F   0  0  0  0  0  0  0  0  0  0  0  0
   -5.3670   13.8210  -32.7950 F   0  0  0  0  0  0  0  0  0  0  0  0
   -5.3920   17.1640  -32.9350 C   0  0  0  0  0  0  0  0  0  0  0  0
   -5.9748   17.2230  -32.0039 H   0  0  0  0  0  0  0  0  0  0  0  0
   -2.9170   18.8540  -32.4190 N   0  0  0  0  0  0  0  0  0  0  0  0
   -1.7960   18.2710  -32.9140 C   0  0  0  0  0  0  0  0  0  0  0  0
   -1.3570   16.9380  -32.4090 C   0  0  0  0  0  0  0  0  0  0  0  0
   -1.3589   16.9438  -31.3090 H   0  0  0  0  0  0  0  0  0  0  0  0
   -2.0472   16.1626  -32.7728 H   0  0  0  0  0  0  0  0  0  0  0  0
   -0.3411   16.7245  -32.7728 H   0  0  0  0  0  0  0  0  0  0  0  0
   -1.0790   18.9000  -33.8800 N   0  0  0  0  0  0  0  0  0  0  0  0
  1  2  1  0
  2  3  2  0
  3  4  1  0
  4  5  2  0
  5  6  1  0
  6  7  2  0
  7  8  1  0
  7  9  1  0
  9 10  1  0
 10 11  1  0
 11 12  2  0
 11 13  1  0
 13 14  1  0
 14 15  1  0
 15 16  1  0
 15 17  2  0
 17 18  1  0
 17 19  1  0
 19 20  1  0
  9 21  2  0
 21 22  1  0
 21 23  1  0
 23 24  1  0
 23 25  1  0
 25 26  2  3
 26 27  1  0
 27 28  2  0
 28 29  1  0
 28 30  1  0
 30 31  1  0
 30 32  2  0
 32 33  1  0
 33 34  1  0
 34 35  1  0
 34 36  1  0
 34 37  1  0
 33 38  2  0
 38 39  1  0
  5 40  1  0
 40 41  1  0
 41 42  1  0
 42 43  1  0
 42 44  1  0
 42 45  1  0
 41 46  2  0
 46  3  1  0
 25  6  1  0
 38 27  1  0
 19 13  2  0
M  CHG  2  10  -1  40  -1
M  END
>  <UniqueID>  (10) 
9

>  <SMILES>  (10) 
[H]/N=c1/nc(C)[n-]c(-c2cc([N-]C(=O)c3ccco3)c[nH]c2=Nc2ccnc(C(F)(F)F)c2)n1

>  <Energy>  (10) 
96.8074089611107

>  <Genealogy>  (10) 
Cc1nc(=N)nc(-c2cc([N-]C(=O)c3ccco3)c[nH]c2=Nc2ccnc(C(F)(F)F)c2)[n-]1 (protonated)
[H]/N=c1/nc(C)[n-]c(-c2cc([N-]C(=O)c3ccco3)c[nH]c2=Nc2ccnc(C(F)(F)F)c2)n1 (cis-trans isomerization)
[H]/N=c1/nc(C)[n-]c(-c2cc([N-]C(=O)c3ccco3)c[nH]c2=Nc2ccnc(C(F)(F)F)c2)n1 (3D coordinates assigned)
[H]/N=c1/nc(C)[n-]c(-c2cc([N-]C(=O)c3ccco3)c[nH]c2=Nc2ccnc(C(F)(F)F)c2)n1 (optimized conformer: 96.8074089611107 kcal/mol)

>  <smiles>  (10) 
Cc1nc(=N)nc(-c2cc(NC(=O)c3ccco3)c[nH]c2=Nc2ccnc(C(F)(F)F)c2)[nH]1

>  <score_type>  (10) 
oracle

>  <origin>  (10) 
adgpu

>  <m_score__min__energy>  (10) 
-8.8000000000000007

>  <m_primary>  (10) 
energy

$$$$
10:0
     RDKit          3D

 33 34  0  0  0  0  0  0  0  0999 V2000
   -8.7510   21.8200  -30.5290 C   0  0  0  0  0  0  0  0  0  0  0  0
   -8.1510   22.9300  -31.3410 C   0  0  0  0  0  0  0  0  0  0  0  0
   -8.7950   23.3600  -32.3360 O   0  0  0  0  0  0  0  0  0  0  0  0
   -6.8300   23.5270  -31.0030 C   0  0  0  0  0  0  0  0  0  0  0  0
   -6.7630   24.8240  -30.4630 C   0  0  0  0  0  0  0  0  0  0  0  0
   -5.5310   25.3990  -30.1460 C   0  0  0  0  0  0  0  0  0  0  0  0
   -4.3450   24.6950  -30.3610 C   0  0  0  0  0  0  0  0  0  0  0  0
   -3.1320   25.2950  -30.0400 O   0  0  0  0  0  0  0  0  0  0  0  0
   -4.3870   23.3940  -30.8980 C   0  0  0  0  0  0  0  0  0  0  0  0
   -3.1290   22.6070  -31.1600 C   0  0  0  0  0  0  0  0  0  0  0  0
   -3.4500   21.2730  -31.5490 O   0  0  0  0  0  0  0  0  0  0  0  0
   -3.7670   20.9100  -32.8650 C   0  0  0  0  0  0  0  0  0  0  0  0
   -3.2470   21.5270  -33.8350 O   0  0  0  0  0  0  0  0  0  0  0  0
   -4.7120   19.7990  -33.1120 C   0  0  0  0  0  0  0  0  0  0  0  0
   -4.3000   18.6450  -33.8040 C   0  0  0  0  0  0  0  0  0  0  0  0
   -5.2000   17.6010  -34.0380 C   0  0  0  0  0  0  0  0  0  0  0  0
   -6.5180   17.6960  -33.5860 C   0  0  0  0  0  0  0  0  0  0  0  0
   -6.9410   18.8390  -32.9000 C   0  0  0  0  0  0  0  0  0  0  0  0
   -8.7440   18.9690  -32.2850 Br  0  0  0  0  0  0  0  0  0  0  0  0
   -6.0420   19.8860  -32.6640 C   0  0  0  0  0  0  0  0  0  0  0  0
   -5.6290   22.8200  -31.2160 C   0  0  0  0  0  0  0  0  0  0  0  0
   -8.6307   22.0425  -29.4585 H   0  0  0  0  0  0  0  0  0  0  0  0
   -9.8212   21.7290  -30.7666 H   0  0  0  0  0  0  0  0  0  0  0  0
   -8.2410   20.8748  -30.7666 H   0  0  0  0  0  0  0  0  0  0  0  0
   -7.6897   25.3904  -30.2889 H   0  0  0  0  0  0  0  0  0  0  0  0
   -5.4946   26.4141  -29.7238 H   0  0  0  0  0  0  0  0  0  0  0  0
   -2.5588   23.0924  -31.9658 H   0  0  0  0  0  0  0  0  0  0  0  0
   -2.5288   22.5758  -30.2387 H   0  0  0  0  0  0  0  0  0  0  0  0
   -3.2634   18.5638  -34.1630 H   0  0  0  0  0  0  0  0  0  0  0  0
   -4.8692   16.7025  -34.5795 H   0  0  0  0  0  0  0  0  0  0  0  0
   -7.2232   16.8720  -33.7695 H   0  0  0  0  0  0  0  0  0  0  0  0
   -6.3786   20.7833  -32.1241 H   0  0  0  0  0  0  0  0  0  0  0  0
   -5.6650   21.8045  -31.6372 H   0  0  0  0  0  0  0  0  0  0  0  0
  1  2  1  0
  2  3  2  0
  2  4  1  0
  4  5  2  0
  5  6  1  0
  6  7  2  0
  7  8  1  0
  7  9  1  0
  9 10  1  0
 10 11  1  0
 11 12  1  0
 12 13  2  0
 12 14  1  0
 14 15  2  0
 15 16  1  0
 16 17  2  0
 17 18  1  0
 18 19  1  0
 18 20  2  0
  9 21  2  0
 21  4  1  0
 20 14  1  0
  1 22  1  0
  1 23  1  0
  1 24  1  0
  5 25  1  0
  6 26  1  0
 10 27  1  0
 10 28  1  0
 15 29  1  0
 16 30  1  0
 17 31  1  0
 20 32  1  0
 21 33  1  0
M  CHG  1   8  -1
M  END
>  <UniqueID>  (11) 
10

>  <SMILES>  (11) 
CC(=O)c1ccc([O-])c(COC(=O)c2cccc(Br)c2)c1

>  <Energy>  (11) 
33.323978705356645

>  <Genealogy>  (11) 
CC(=O)c1ccc([O-])c(COC(=O)c2cccc(Br)c2)c1 (protonated)
CC(=O)c1ccc([O-])c(COC(=O)c2cccc(Br)c2)c1 (3D coordinates assigned)
CC(=O)c1ccc([O-])c(COC(=O)c2cccc(Br)c2)c1 (optimized conformer: 33.323978705356645 kcal/mol)

>  <smiles>  (11) 
CC(=O)c1ccc(O)c(COC(=O)c2cccc(Br)c2)c1

>  <score_type>  (11) 
oracle

>  <origin>  (11) 
adgpu

>  <m_score__min__energy>  (11) 
-11.33

>  <m_primary>  (11) 
energy

$$$$
11:0
     RDKit          3D

 50 53  0  0  0  0  0  0  0  0999 V2000
    1.1870   22.4140  -34.6070 H   0  0  0  0  0  0  0  0  0  0  0  0
    0.3070   21.8990  -34.8440 N   0  0  0  0  0  0  0  0  0  0  0  0
    0.1130   20.6600  -33.6560 S   0  0  0  0  0  0  0  0  0  0  0  0
    0.6350   21.1640  -32.3400 O   0  0  0  0  0  0  0  0  0  0  0  0
    0.8950   19.4460  -34.0670 O   0  0  0  0  0  0  0  0  0  0  0  0
   -1.5900   20.2390  -33.5130 C   0  0  0  0  0  0  0  0  0  0  0  0
   -1.9570   18.9650  -33.0550 C   0  0  0  0  0  0  0  0  0  0  0  0
   -1.1790   18.2293  -32.8030 H   0  0  0  0  0  0  0  0  0  0  0  0
   -3.3060   18.6250  -32.9170 C   0  0  0  0  0  0  0  0  0  0  0  0
   -3.5851   17.6260  -32.5507 H   0  0  0  0  0  0  0  0  0  0  0  0
   -4.3100   19.5590  -33.2460 C   0  0  0  0  0  0  0  0  0  0  0  0
   -5.7080   19.2530  -33.1330 N   0  0  0  0  0  0  0  0  0  0  0  0
   -6.9000   20.2590  -32.3660 S   0  0  0  0  0  0  0  0  0  0  0  0
   -8.0210   20.5350  -33.3330 O   0  0  0  0  0  0  0  0  0  0  0  0
   -7.4660   19.5360  -31.1750 O   0  0  0  0  0  0  0  0  0  0  0  0
   -6.1560   21.7560  -31.8110 C   0  0  0  0  0  0  0  0  0  0  0  0
   -6.7890   23.0020  -32.0300 C   0  0  0  0  0  0  0  0  0  0  0  0
   -7.7690   23.0351  -32.5285 H   0  0  0  0  0  0  0  0  0  0  0  0
   -6.1780   24.1970  -31.6170 C   0  0  0  0  0  0  0  0  0  0  0  0
   -6.6597   25.1692  -31.7981 H   0  0  0  0  0  0  0  0  0  0  0  0
   -4.9460   24.1190  -30.9720 C   0  0  0  0  0  0  0  0  0  0  0  0
   -4.2160   25.1550  -30.5120 N   0  0  0  0  0  0  0  0  0  0  0  0
   -3.1210   24.5740  -29.9690 C   0  0  0  0  0  0  0  0  0  0  0  0
   -2.1020   25.2940  -29.3610 O   0  0  0  0  0  0  0  0  0  0  0  0
   -3.1560   23.1980  -30.0820 C   0  0  0  0  0  0  0  0  0  0  0  0
   -2.1830   22.2950  -29.5500 N   0  0  0  0  0  0  0  0  0  0  0  0
   -2.2610   21.0410  -29.7470 N   0  0  0  0  0  0  0  0  0  0  0  0
   -1.3030   20.1170  -29.2160 C   0  0  0  0  0  0  0  0  0  0  0  0
   -1.3780   19.6560  -27.8870 C   0  0  0  0  0  0  0  0  0  0  0  0
   -2.1827   20.0108  -27.2263 H   0  0  0  0  0  0  0  0  0  0  0  0
   -0.4280   18.7460  -27.4070 C   0  0  0  0  0  0  0  0  0  0  0  0
   -0.4839   18.3930  -26.3667 H   0  0  0  0  0  0  0  0  0  0  0  0
    0.5970   18.2820  -28.2500 C   0  0  0  0  0  0  0  0  0  0  0  0
    1.8040   17.1430  -27.6550 S   0  0  0  0  0  0  0  0  0  0  0  0
    2.5810   16.5620  -28.8050 O   0  0  0  0  0  0  0  0  0  0  0  0
    2.7590   17.8550  -26.7370 O   0  0  0  0  0  0  0  0  0  0  0  0
    1.0180   15.8650  -26.7940 N   0  0  0  0  0  0  0  0  0  0  0  0
    0.1350   16.2600  -26.4020 H   0  0  0  0  0  0  0  0  0  0  0  0
    1.6290   15.6250  -25.9790 H   0  0  0  0  0  0  0  0  0  0  0  0
    0.6740   18.7480  -29.5710 C   0  0  0  0  0  0  0  0  0  0  0  0
    1.4794   18.3945  -30.2315 H   0  0  0  0  0  0  0  0  0  0  0  0
   -0.2710   19.6610  -30.0500 C   0  0  0  0  0  0  0  0  0  0  0  0
   -0.2048   20.0236  -31.0864 H   0  0  0  0  0  0  0  0  0  0  0  0
   -4.3370   22.9090  -30.7360 C   0  0  0  0  0  0  0  0  0  0  0  0
   -4.9120   21.7040  -31.1530 C   0  0  0  0  0  0  0  0  0  0  0  0
   -4.4071   20.7436  -30.9722 H   0  0  0  0  0  0  0  0  0  0  0  0
   -3.9370   20.8300  -33.7050 C   0  0  0  0  0  0  0  0  0  0  0  0
   -4.7132   21.5649  -33.9648 H   0  0  0  0  0  0  0  0  0  0  0  0
   -2.5850   21.1730  -33.8360 C   0  0  0  0  0  0  0  0  0  0  0  0
   -2.3039   22.1750  -34.1922 H   0  0  0  0  0  0  0  0  0  0  0  0
  1  2  1  0
  2  3  1  0
  3  4  2  0
  3  5  2  0
  3  6  1  0
  6  7  2  0
  7  8  1  0
  7  9  1  0
  9 10  1  0
  9 11  2  0
 11 12  1  0
 12 13  1  0
 13 14  2  0
 13 15  2  0
 13 16  1  0
 16 17  2  0
 17 18  1  0
 17 19  1  0
 19 20  1  0
 19 21  2  0
 21 22  1  0
 22 23  1  0
 23 24  1  0
 23 25  2  0
 25 26  1  0
 26 27  2  0
 27 28  1  0
 28 29  2  0
 29 30  1  0
 29 31  1  0
 31 32  1  0
 31 33  2  0
 33 34  1  0
 34 35  2  0
 34 36  2  0
 34 37  1  0
 37 38  1  0
 37 39  1  0
 33 40  1  0
 40 41  1  0
 40 42  2  0
 42 43  1  0
 25 44  1  0
 44 45  2  0
 45 46  1  0
 11 47  1  0
 47 48  1  0
 47 49  2  0
 49 50  1  0
 49  6  1  0
 45 16  1  0
 44 21  1  0
 42 28  1  0
M  CHG  4   2  -1  12  -1  22  -1  24  -1
M  END
>  <UniqueID>  (12) 
11

>  <SMILES>  (12) 
[NH-]S(=O)(=O)c1ccc([N-]S(=O)(=O)c2ccc3[n-]c([O-])c(/N=N/c4ccc(S(N)(=O)=O)cc4)c3c2)cc1

>  <Energy>  (12) 
91.33171574782067

>  <Genealogy>  (12) 
[NH-]S(=O)(=O)c1ccc([N-]S(=O)(=O)c2ccc3[n-]c([O-])c(N=Nc4ccc(S(N)(=O)=O)cc4)c3c2)cc1 (protonated)
[NH-]S(=O)(=O)c1ccc([N-]S(=O)(=O)c2ccc3[n-]c([O-])c(/N=N/c4ccc(S(N)(=O)=O)cc4)c3c2)cc1 (cis-trans isomerization)
[NH-]S(=O)(=O)c1ccc([N-]S(=O)(=O)c2ccc3[n-]c([O-])c(/N=N/c4ccc(S(N)(=O)=O)cc4)c3c2)cc1 (3D coordinates assigned)
[NH-]S(=O)(=O)c1ccc([N-]S(=O)(=O)c2ccc3[n-]c([O-])c(/N=N/c4ccc(S(N)(=O)=O)cc4)c3c2)cc1 (optimized conformer: 91.33171574782067 kcal/mol)

>  <smiles>  (12) 
NS(=O)(=O)c1ccc(N=Nc2c(O)[nH]c3ccc(S(=O)(=O)Nc4ccc(S(N)(=O)=O)cc4)cc23)cc1

>  <score_type>  (12) 
oracle

>  <origin>  (12) 
adgpu

>  <m_score__min__energy>  (12) 
-14.220000000000001

>  <m_primary>  (12) 
energy

$$$$
12:0
     RDKit          3D

 42 44  0  0  0  0  0  0  0  0999 V2000
   -8.6040   20.0740  -33.1840 O   0  0  0  0  0  0  0  0  0  0  0  0
   -7.6090   20.0260  -32.4100 C   0  0  0  0  0  0  0  0  0  0  0  0
   -7.0520   18.7530  -32.0470 N   0  0  0  0  0  0  0  0  0  0  0  0
   -7.4050   17.5200  -32.7450 C   0  0  0  0  0  0  0  0  0  0  0  0
   -6.2500   17.0530  -33.5870 C   0  0  0  0  0  0  0  0  0  0  0  0
   -5.7230   17.8720  -34.5990 C   0  0  0  0  0  0  0  0  0  0  0  0
   -4.6340   17.4220  -35.3490 C   0  0  0  0  0  0  0  0  0  0  0  0
   -4.0870   16.2020  -35.0960 N   0  0  0  0  0  0  0  0  0  0  0  0
   -4.5760   15.3920  -34.1190 C   0  0  0  0  0  0  0  0  0  0  0  0
   -5.6630   15.8040  -33.3460 C   0  0  0  0  0  0  0  0  0  0  0  0
   -7.0410   21.2840  -31.8740 C   0  0  0  0  0  0  0  0  0  0  0  0
   -5.7120   21.3200  -31.4130 C   0  0  0  0  0  0  0  0  0  0  0  0
   -5.1710   22.5020  -30.9010 C   0  0  0  0  0  0  0  0  0  0  0  0
   -5.9500   23.6610  -30.8290 C   0  0  0  0  0  0  0  0  0  0  0  0
   -5.2490   25.1450  -30.1910 S   0  0  0  0  0  0  0  0  0  0  0  0
   -5.7130   26.3400  -30.9770 O   0  0  0  0  0  0  0  0  0  0  0  0
   -5.6790   25.3100  -28.7610 O   0  0  0  0  0  0  0  0  0  0  0  0
   -3.5200   25.0540  -30.2600 N   0  0  0  0  0  0  0  0  0  0  0  0
   -2.6800   24.5110  -29.2310 C   0  0  0  0  0  0  0  0  0  0  0  0
   -3.0350   23.3590  -28.5040 C   0  0  0  0  0  0  0  0  0  0  0  0
   -2.1850   22.8670  -27.5090 C   0  0  0  0  0  0  0  0  0  0  0  0
   -0.9770   23.5130  -27.2340 C   0  0  0  0  0  0  0  0  0  0  0  0
   -0.6180   24.6560  -27.9540 C   0  0  0  0  0  0  0  0  0  0  0  0
   -1.4660   25.1520  -28.9480 C   0  0  0  0  0  0  0  0  0  0  0  0
   -7.2780   23.6310  -31.2710 C   0  0  0  0  0  0  0  0  0  0  0  0
   -7.8210   22.4520  -31.7890 C   0  0  0  0  0  0  0  0  0  0  0  0
   -6.3960   18.6870  -31.2340 H   0  0  0  0  0  0  0  0  0  0  0  0
   -7.6547   16.7432  -32.0073 H   0  0  0  0  0  0  0  0  0  0  0  0
   -8.2708   17.7106  -33.3961 H   0  0  0  0  0  0  0  0  0  0  0  0
   -6.1642   18.8595  -34.7993 H   0  0  0  0  0  0  0  0  0  0  0  0
   -4.2175   18.0554  -36.1461 H   0  0  0  0  0  0  0  0  0  0  0  0
   -4.1141   14.4103  -33.9375 H   0  0  0  0  0  0  0  0  0  0  0  0
   -6.0563   15.1518  -32.5523 H   0  0  0  0  0  0  0  0  0  0  0  0
   -5.0944   20.4107  -31.4561 H   0  0  0  0  0  0  0  0  0  0  0  0
   -4.1277   22.5210  -30.5530 H   0  0  0  0  0  0  0  0  0  0  0  0
   -3.9833   22.8448  -28.7193 H   0  0  0  0  0  0  0  0  0  0  0  0
   -2.4681   21.9686  -26.9409 H   0  0  0  0  0  0  0  0  0  0  0  0
   -0.3093   23.1226  -26.4518 H   0  0  0  0  0  0  0  0  0  0  0  0
    0.3327   25.1655  -27.7381 H   0  0  0  0  0  0  0  0  0  0  0  0
   -1.1788   26.0516  -29.5121 H   0  0  0  0  0  0  0  0  0  0  0  0
   -7.8964   24.5387  -31.2104 H   0  0  0  0  0  0  0  0  0  0  0  0
   -8.8658   22.4370  -32.1328 H   0  0  0  0  0  0  0  0  0  0  0  0
  1  2  2  0
  2  3  1  0
  3  4  1  0
  4  5  1  0
  5  6  2  0
  6  7  1  0
  7  8  2  0
  8  9  1  0
  9 10  2  0
  2 11  1  0
 11 12  2  0
 12 13  1  0
 13 14  2  0
 14 15  1  0
 15 16  2  0
 15 17  2  0
 15 18  1  0
 18 19  1  0
 19 20  2  0
 20 21  1  0
 21 22  2  0
 22 23  1  0
 23 24  2  0
 14 25  1  0
 25 26  2  0
 10  5  1  0
 26 11  1  0
 24 19  1  0
  3 27  1  0
  4 28  1  0
  4 29  1  0
  6 30  1  0
  7 31  1  0
  9 32  1  0
 10 33  1  0
 12 34  1  0
 13 35  1  0
 20 36  1  0
 21 37  1  0
 22 38  1  0
 23 39  1  0
 24 40  1  0
 25 41  1  0
 26 42  1  0
M  CHG  1  18  -1
M  END
>  <UniqueID>  (13) 
12

>  <SMILES>  (13) 
O=C(NCc1ccncc1)c1ccc(S(=O)(=O)[N-]c2ccccc2)cc1

>  <Energy>  (13) 
48.60735241970363

>  <Genealogy>  (13) 
O=C(NCc1ccncc1)c1ccc(S(=O)(=O)[N-]c2ccccc2)cc1 (protonated)
O=C(NCc1ccncc1)c1ccc(S(=O)(=O)[N-]c2ccccc2)cc1 (3D coordinates assigned)
O=C(NCc1ccncc1)c1ccc(S(=O)(=O)[N-]c2ccccc2)cc1 (optimized conformer: 48.60735241970363 kcal/mol)

>  <smiles>  (13) 
O=C(NCc1ccncc1)c1ccc(S(=O)(=O)Nc2ccccc2)cc1

>  <score_type>  (13) 
oracle

>  <origin>  (13) 
adgpu

>  <m_score__min__energy>  (13) 
-9.8800000000000008

>  <m_primary>  (13) 
energy

$$$$
13:0
     RDKit          3D

 33 34  0  0  0  0  0  0  0  0999 V2000
   -8.4780   20.3980  -32.2710 C   0  0  0  0  0  0  0  0  0  0  0  0
   -7.4590   21.3600  -31.7310 C   0  0  0  0  0  0  0  0  0  0  0  0
   -6.2430   21.5480  -32.4070 C   0  0  0  0  0  0  0  0  0  0  0  0
   -5.3050   22.4690  -31.9320 C   0  0  0  0  0  0  0  0  0  0  0  0
   -5.5760   23.2190  -30.7810 C   0  0  0  0  0  0  0  0  0  0  0  0
   -4.3970   24.3760  -30.1720 S   0  0  0  0  0  0  0  0  0  0  0  0
   -4.5920   24.5320  -28.6910 O   0  0  0  0  0  0  0  0  0  0  0  0
   -4.5710   25.7140  -30.8350 O   0  0  0  0  0  0  0  0  0  0  0  0
   -2.7910   23.7950  -30.4760 N   0  0  0  0  0  0  0  0  0  0  0  0
   -2.1840   22.6570  -29.8460 C   0  0  0  0  0  0  0  0  0  0  0  0
   -2.4660   21.3450  -30.2740 C   0  0  0  0  0  0  0  0  0  0  0  0
   -1.8590   20.2520  -29.6510 C   0  0  0  0  0  0  0  0  0  0  0  0
   -0.9640   20.4520  -28.5990 C   0  0  0  0  0  0  0  0  0  0  0  0
   -0.2000   19.0770  -27.8230 Cl  0  0  0  0  0  0  0  0  0  0  0  0
   -0.6750   21.7490  -28.1660 C   0  0  0  0  0  0  0  0  0  0  0  0
   -1.2830   22.8560  -28.7790 C   0  0  0  0  0  0  0  0  0  0  0  0
   -0.9100   24.4850  -28.2100 S   0  0  0  0  0  0  0  0  0  0  0  0
   -1.6200   25.6410  -29.2810 N   0  0  0  0  0  0  0  0  0  0  0  0
    0.5760   24.6990  -28.1690 O   0  0  0  0  0  0  0  0  0  0  0  0
   -1.4630   24.6730  -26.8250 O   0  0  0  0  0  0  0  0  0  0  0  0
   -6.7980   23.0500  -30.1160 C   0  0  0  0  0  0  0  0  0  0  0  0
   -7.7370   22.1310  -30.5890 C   0  0  0  0  0  0  0  0  0  0  0  0
   -8.9190   21.9940  -29.9360 F   0  0  0  0  0  0  0  0  0  0  0  0
   -8.9979   19.9071  -31.4351 H   0  0  0  0  0  0  0  0  0  0  0  0
   -9.2078   20.9442  -32.8867 H   0  0  0  0  0  0  0  0  0  0  0  0
   -7.9747   19.6380  -32.8867 H   0  0  0  0  0  0  0  0  0  0  0  0
   -6.0272   20.9671  -33.3158 H   0  0  0  0  0  0  0  0  0  0  0  0
   -4.3516   22.6050  -32.4636 H   0  0  0  0  0  0  0  0  0  0  0  0
   -3.1687   21.1801  -31.1041 H   0  0  0  0  0  0  0  0  0  0  0  0
   -2.0871   19.2309  -29.9905 H   0  0  0  0  0  0  0  0  0  0  0  0
    0.0338   21.9035  -27.3391 H   0  0  0  0  0  0  0  0  0  0  0  0
   -2.6500   25.4680  -29.2780 H   0  0  0  0  0  0  0  0  0  0  0  0
   -7.0186   23.6442  -29.2170 H   0  0  0  0  0  0  0  0  0  0  0  0
  1  2  1  0
  2  3  2  0
  3  4  1  0
  4  5  2  0
  5  6  1  0
  6  7  2  0
  6  8  2  0
  6  9  1  0
  9 10  1  0
 10 11  2  0
 11 12  1  0
 12 13  2  0
 13 14  1  0
 13 15  1  0
 15 16  2  0
 16 17  1  0
 17 18  1  0
 17 19  2  0
 17 20  2  0
  5 21  1  0
 21 22  2  0
 22 23  1  0
 22  2  1  0
 16 10  1  0
  1 24  1  0
  1 25  1  0
  1 26  1  0
  3 27  1  0
  4 28  1  0
 11 29  1  0
 12 30  1  0
 15 31  1  0
 18 32  1  0
 21 33  1  0
M  CHG  2   9  -1  18  -1
M  END
>  <UniqueID>  (14) 
13

>  <SMILES>  (14) 
Cc1ccc(S(=O)(=O)[N-]c2ccc(Cl)cc2S([NH-])(=O)=O)cc1F

>  <Energy>  (14) 
36.73813133363088

>  <Genealogy>  (14) 
Cc1ccc(S(=O)(=O)[N-]c2ccc(Cl)cc2S([NH-])(=O)=O)cc1F (protonated)
Cc1ccc(S(=O)(=O)[N-]c2ccc(Cl)cc2S([NH-])(=O)=O)cc1F (3D coordinates assigned)
Cc1ccc(S(=O)(=O)[N-]c2ccc(Cl)cc2S([NH-])(=O)=O)cc1F (optimized conformer: 36.73813133363088 kcal/mol)

>  <smiles>  (14) 
Cc1ccc(S(=O)(=O)Nc2ccc(Cl)cc2S(N)(=O)=O)cc1F

>  <score_type>  (14) 
oracle

>  <origin>  (14) 
adgpu

>  <m_score__min__energy>  (14) 
-11.380000000000001

>  <m_primary>  (14) 
energy

$$$$
14:0
     RDKit          3D

 31 33  0  0  0  0  0  0  0  0999 V2000
  -10.1610   21.4060  -31.9930 O   0  0  0  0  0  0  0  0  0  0  0  0
   -8.9240   21.1760  -32.0240 C   0  0  0  0  0  0  0  0  0  0  0  0
   -8.0260   22.0840  -31.4620 C   0  0  0  0  0  0  0  0  0  0  0  0
   -6.6540   21.7940  -31.5130 C   0  0  0  0  0  0  0  0  0  0  0  0
   -5.6350   22.7140  -30.9440 C   0  0  0  0  0  0  0  0  0  0  0  0
   -4.2670   22.4510  -31.1420 C   0  0  0  0  0  0  0  0  0  0  0  0
   -3.2940   23.3020  -30.6070 C   0  0  0  0  0  0  0  0  0  0  0  0
   -3.6740   24.4220  -29.8580 C   0  0  0  0  0  0  0  0  0  0  0  0
   -2.7130   25.2760  -29.3200 O   0  0  0  0  0  0  0  0  0  0  0  0
   -5.0290   24.6850  -29.6450 C   0  0  0  0  0  0  0  0  0  0  0  0
   -6.0050   23.8390  -30.1790 C   0  0  0  0  0  0  0  0  0  0  0  0
   -6.2470   20.6460  -32.1200 N   0  0  0  0  0  0  0  0  0  0  0  0
   -7.1330   19.7660  -32.6650 C   0  0  0  0  0  0  0  0  0  0  0  0
   -6.6480   18.5230  -33.3140 C   0  0  0  0  0  0  0  0  0  0  0  0
   -7.1360   17.2650  -32.9080 C   0  0  0  0  0  0  0  0  0  0  0  0
   -6.6780   16.0940  -33.5230 C   0  0  0  0  0  0  0  0  0  0  0  0
   -5.7300   16.1640  -34.5460 C   0  0  0  0  0  0  0  0  0  0  0  0
   -5.2380   17.4050  -34.9570 C   0  0  0  0  0  0  0  0  0  0  0  0
   -5.6920   18.5780  -34.3480 C   0  0  0  0  0  0  0  0  0  0  0  0
   -8.4640   20.0410  -32.6080 N   0  0  0  0  0  0  0  0  0  0  0  0
   -8.3865   23.0090  -30.9883 H   0  0  0  0  0  0  0  0  0  0  0  0
   -3.9599   21.5686  -31.7225 H   0  0  0  0  0  0  0  0  0  0  0  0
   -2.2277   23.0906  -30.7753 H   0  0  0  0  0  0  0  0  0  0  0  0
   -1.9820   25.6780  -29.8940 H   0  0  0  0  0  0  0  0  0  0  0  0
   -5.3297   25.5626  -29.0539 H   0  0  0  0  0  0  0  0  0  0  0  0
   -7.0693   24.0524  -30.0012 H   0  0  0  0  0  0  0  0  0  0  0  0
   -7.8821   17.2028  -32.1021 H   0  0  0  0  0  0  0  0  0  0  0  0
   -7.0656   15.1166  -33.1998 H   0  0  0  0  0  0  0  0  0  0  0  0
   -5.3710   15.2426  -35.0278 H   0  0  0  0  0  0  0  0  0  0  0  0
   -4.4909   17.4592  -35.7625 H   0  0  0  0  0  0  0  0  0  0  0  0
   -5.3003   19.5514  -34.6781 H   0  0  0  0  0  0  0  0  0  0  0  0
  1  2  2  0
  2  3  1  0
  3  4  2  0
  4  5  1  0
  5  6  2  0
  6  7  1  0
  7  8  2  0
  8  9  1  0
  8 10  1  0
 10 11  2  0
  4 12  1  0
 12 13  1  0
 13 14  1  0
 14 15  2  0
 15 16  1  0
 16 17  2  0
 17 18  1  0
 18 19  2  0
 13 20  2  0
 20  2  1  0
 11  5  1  0
 19 14  1  0
  3 21  1  0
  6 22  1  0
  7 23  1  0
  9 24  1  0
 10 25  1  0
 11 26  1  0
 15 27  1  0
 16 28  1  0
 17 29  1  0
 18 30  1  0
 19 31  1  0
M  CHG  1  12  -1
M  END
>  <UniqueID>  (15) 
14

>  <SMILES>  (15) 
O=c1cc(-c2ccc(O)cc2)[n-]c(-c2ccccc2)n1

>  <Energy>  (15) 
39.92913754904935

>  <Genealogy>  (15) 
O=c1cc(-c2ccc(O)cc2)[n-]c(-c2ccccc2)n1 (protonated)
O=c1cc(-c2ccc(O)cc2)[n-]c(-c2ccccc2)n1 (3D coordinates assigned)
O=c1cc(-c2ccc(O)cc2)[n-]c(-c2ccccc2)n1 (optimized conformer: 39.92913754904935 kcal/mol)

>  <smiles>  (15) 
O=c1cc(-c2ccc(O)cc2)[nH]c(-c2ccccc2)n1

>  <score_type>  (15) 
oracle

>  <origin>  (15) 
adgpu

>  <m_score__min__energy>  (15) 
-8.4600000000000009

>  <m_primary>  (15) 
energy

$$$$
15:0
     RDKit          3D

 59 62  0  0  0  0  0  0  0  0999 V2000
   -3.6985   22.1401  -29.4660 H   0  0  0  0  0  0  0  0  0  0  0  0
   -2.7290   22.2170  -29.9800 C   0  0  0  0  0  0  0  0  0  0  0  0
   -1.7430   23.1780  -29.4590 C   0  0  0  0  0  0  0  0  0  0  0  0
   -0.4930   22.8330  -29.1040 N   0  0  0  0  0  0  0  0  0  0  0  0
    0.0720   24.0080  -28.7530 C   0  0  0  0  0  0  0  0  0  0  0  0
    1.2580   24.0940  -28.3410 O   0  0  0  0  0  0  0  0  0  0  0  0
   -0.7310   25.0840  -28.8860 N   0  0  0  0  0  0  0  0  0  0  0  0
   -1.8720   24.5460  -29.3450 C   0  0  0  0  0  0  0  0  0  0  0  0
   -2.9870   25.2960  -29.6990 O   0  0  0  0  0  0  0  0  0  0  0  0
   -2.5150   21.4300  -31.0440 C   0  0  0  0  0  0  0  0  0  0  0  0
   -1.4130   21.3810  -31.9050 C   0  0  0  0  0  0  0  0  0  0  0  0
   -0.5003   21.9857  -31.7990 H   0  0  0  0  0  0  0  0  0  0  0  0
   -1.6390   20.4760  -32.8900 N   0  0  0  0  0  0  0  0  0  0  0  0
   -2.8390   19.9660  -32.6710 N   0  0  0  0  0  0  0  0  0  0  0  0
   -3.4990   19.0400  -33.4050 C   0  0  0  0  0  0  0  0  0  0  0  0
   -2.9450   18.5060  -34.4520 N   0  0  0  0  0  0  0  0  0  0  0  0
   -3.5990   17.4930  -35.2720 C   0  0  0  0  0  0  0  0  0  0  0  0
   -4.1148   18.1730  -35.9659 H   0  0  0  0  0  0  0  0  0  0  0  0
   -3.9960   16.2480  -34.5000 C   0  0  0  0  0  0  0  0  0  0  0  0
   -3.8688   16.2137  -33.4079 H   0  0  0  0  0  0  0  0  0  0  0  0
   -4.9123   15.6458  -34.4117 H   0  0  0  0  0  0  0  0  0  0  0  0
   -2.7770   16.2260  -35.4090 C   0  0  0  0  0  0  0  0  0  0  0  0
   -1.7677   16.1754  -34.9746 H   0  0  0  0  0  0  0  0  0  0  0  0
   -2.4457   15.6008  -36.2512 H   0  0  0  0  0  0  0  0  0  0  0  0
   -4.7570   18.6860  -33.0090 N   0  0  0  0  0  0  0  0  0  0  0  0
   -5.3270   19.2510  -31.8990 C   0  0  0  0  0  0  0  0  0  0  0  0
   -6.5280   18.9220  -31.5180 N   0  0  0  0  0  0  0  0  0  0  0  0
   -7.4250   18.0300  -32.1980 C   0  0  0  0  0  0  0  0  0  0  0  0
   -7.0460   16.8810  -32.5570 O   0  0  0  0  0  0  0  0  0  0  0  0
   -8.7850   18.5330  -32.5910 C   0  0  0  0  0  0  0  0  0  0  0  0
   -9.5222   17.7444  -32.3797 H   0  0  0  0  0  0  0  0  0  0  0  0
   -8.7393   18.7863  -33.6605 H   0  0  0  0  0  0  0  0  0  0  0  0
   -9.2080   19.8070  -31.8430 C   0  0  0  0  0  0  0  0  0  0  0  0
   -8.9542   19.6931  -30.7788 H   0  0  0  0  0  0  0  0  0  0  0  0
  -10.2909   19.9374  -31.9860 H   0  0  0  0  0  0  0  0  0  0  0  0
   -8.5070   21.0630  -32.3870 C   0  0  0  0  0  0  0  0  0  0  0  0
   -8.8427   21.2312  -33.4209 H   0  0  0  0  0  0  0  0  0  0  0  0
   -7.4231   20.8845  -32.3299 H   0  0  0  0  0  0  0  0  0  0  0  0
   -8.8080   22.3260  -31.5630 C   0  0  0  0  0  0  0  0  0  0  0  0
   -8.7169   22.0588  -30.4998 H   0  0  0  0  0  0  0  0  0  0  0  0
   -9.8148   22.6396  -31.8761 H   0  0  0  0  0  0  0  0  0  0  0  0
   -7.9040   23.5590  -31.8150 C   0  0  0  0  0  0  0  0  0  0  0  0
   -8.4097   24.4289  -31.3705 H   0  0  0  0  0  0  0  0  0  0  0  0
   -7.7750   23.5799  -32.9072 H   0  0  0  0  0  0  0  0  0  0  0  0
   -6.4410   23.5390  -31.2560 C   0  0  0  0  0  0  0  0  0  0  0  0
   -5.4420   22.9430  -32.2700 C   0  0  0  0  0  0  0  0  0  0  0  0
   -4.6194   22.4523  -31.7292 H   0  0  0  0  0  0  0  0  0  0  0  0
   -5.9574   22.2046  -32.9018 H   0  0  0  0  0  0  0  0  0  0  0  0
   -5.0371   23.7473  -32.9018 H   0  0  0  0  0  0  0  0  0  0  0  0
   -5.9770   24.9530  -30.8390 C   0  0  0  0  0  0  0  0  0  0  0  0
   -5.9542   25.0226  -29.7414 H   0  0  0  0  0  0  0  0  0  0  0  0
   -4.9699   25.1414  -31.2394 H   0  0  0  0  0  0  0  0  0  0  0  0
   -6.6767   25.7014  -31.2394 H   0  0  0  0  0  0  0  0  0  0  0  0
   -6.4260   22.6540  -29.9880 C   0  0  0  0  0  0  0  0  0  0  0  0
   -6.4369   23.2944  -29.0937 H   0  0  0  0  0  0  0  0  0  0  0  0
   -7.3133   22.0038  -29.9841 H   0  0  0  0  0  0  0  0  0  0  0  0
   -5.5172   22.0342  -29.9841 H   0  0  0  0  0  0  0  0  0  0  0  0
   -4.6320   20.1740  -31.1720 N   0  0  0  0  0  0  0  0  0  0  0  0
   -3.3890   20.5140  -31.5860 C   0  0  0  0  0  0  0  0  0  0  0  0
  1  2  1  0
  2  3  1  0
  3  4  1  0
  4  5  1  0
  5  6  2  0
  5  7  1  0
  7  8  1  0
  8  9  1  0
  2 10  2  3
 10 11  1  0
 11 12  1  0
 11 13  2  0
 13 14  1  0
 14 15  1  0
 15 16  2  0
 16 17  1  0
 17 18  1  0
 17 19  1  0
 19 20  1  0
 19 21  1  0
 19 22  1  0
 22 23  1  0
 22 24  1  0
 15 25  1  0
 25 26  1  0
 26 27  2  3
 27 28  1  0
 28 29  2  0
 28 30  1  0
 30 31  1  0
 30 32  1  0
 30 33  1  0
 33 34  1  0
 33 35  1  0
 33 36  1  0
 36 37  1  0
 36 38  1  0
 36 39  1  0
 39 40  1  0
 39 41  1  0
 39 42  1  0
 42 43  1  0
 42 44  1  0
 42 45  1  0
 45 46  1  0
 46 47  1  0
 46 48  1  0
 46 49  1  0
 45 50  1  0
 50 51  1  0
 50 52  1  0
 50 53  1  0
 45 54  1  0
 54 55  1  0
 54 56  1  0
 54 57  1  0
 26 58  1  0
 58 59  2  0
  8  3  2  0
 59 10  1  0
 59 14  1  0
 22 17  1  0
M  CHG  4   4  -1   7  -1   9  -1  25  -1
M  END
>  <UniqueID>  (16) 
15

>  <SMILES>  (16) 
CC(C)(C)CCCCCC(=O)N=c1nc2c(=Cc3[n-]c(=O)[n-]c3[O-])cnn2/c(=N/C2CC2)[n-]1

>  <Energy>  (16) 
396.59188950964915

>  <Genealogy>  (16) 
CC(C)(C)CCCCCC(=O)N=c1nc2c(=Cc3[n-]c(=O)[n-]c3[O-])cnn2c(=NC2CC2)[n-]1 (protonated)
CC(C)(C)CCCCCC(=O)N=c1nc2c(=Cc3[n-]c(=O)[n-]c3[O-])cnn2/c(=N/C2CC2)[n-]1 (cis-trans isomerization)
CC(C)(C)CCCCCC(=O)N=c1nc2c(=Cc3[n-]c(=O)[n-]c3[O-])cnn2/c(=N/C2CC2)[n-]1 (3D coordinates assigned)
CC(C)(C)CCCCCC(=O)N=c1nc2c(=Cc3[n-]c(=O)[n-]c3[O-])cnn2/c(=N/C2CC2)[n-]1 (nonaromatic ring conformer: 396.59188950964915 kcal/mol)

>  <smiles>  (16) 
CC(C)(C)CCCCCC(=O)N=c1nc2c(=Cc3[nH]c(=O)[nH]c3O)cnn2c(=NC2CC2)[nH]1

>  <score_type>  (16) 
oracle

>  <origin>  (16) 
adgpu

>  <m_score__min__energy>  (16) 
-13.98

>  <m_primary>  (16) 
energy

$$$$
16:0
     RDKit          3D

 44 46  0  0  0  0  0  0  0  0999 V2000
   -9.9709   19.0258  -30.6086 H   0  0  0  0  0  0  0  0  0  0  0  0
   -9.1080   19.2250  -31.2610 C   0  0  0  0  0  0  0  0  0  0  0  0
   -8.5150   18.1800  -31.9710 C   0  0  0  0  0  0  0  0  0  0  0  0
   -8.9134   17.1586  -31.8813 H   0  0  0  0  0  0  0  0  0  0  0  0
   -7.4150   18.4310  -32.7960 C   0  0  0  0  0  0  0  0  0  0  0  0
   -6.9544   17.6045  -33.3571 H   0  0  0  0  0  0  0  0  0  0  0  0
   -6.8920   19.7310  -32.9150 C   0  0  0  0  0  0  0  0  0  0  0  0
   -5.7530   19.9830  -33.8750 C   0  0  0  0  0  0  0  0  0  0  0  0
   -5.7808   21.0347  -34.1961 H   0  0  0  0  0  0  0  0  0  0  0  0
   -5.8698   19.3101  -34.7373 H   0  0  0  0  0  0  0  0  0  0  0  0
   -4.4260   19.7030  -33.2310 C   0  0  0  0  0  0  0  0  0  0  0  0
   -3.6670   18.6650  -33.6630 N   0  0  0  0  0  0  0  0  0  0  0  0
   -2.4470   18.4370  -33.1120 C   0  0  0  0  0  0  0  0  0  0  0  0
   -1.4620   17.0550  -33.6850 S   0  0  0  0  0  0  0  0  0  0  0  0
   -0.6230   18.0380  -34.9660 C   0  0  0  0  0  0  0  0  0  0  0  0
    0.0200   18.7914  -34.4876 H   0  0  0  0  0  0  0  0  0  0  0  0
   -0.0078   17.3753  -35.5924 H   0  0  0  0  0  0  0  0  0  0  0  0
   -1.3741   18.5415  -35.5924 H   0  0  0  0  0  0  0  0  0  0  0  0
   -1.9790   19.2540  -32.1300 N   0  0  0  0  0  0  0  0  0  0  0  0
   -1.0420   19.0700  -31.7050 H   0  0  0  0  0  0  0  0  0  0  0  0
   -2.7260   20.3090  -31.7080 C   0  0  0  0  0  0  0  0  0  0  0  0
   -2.2850   21.0700  -30.7480 N   0  0  0  0  0  0  0  0  0  0  0  0
   -2.9420   22.2340  -30.2120 C   0  0  0  0  0  0  0  0  0  0  0  0
   -4.3420   22.3110  -30.0910 C   0  0  0  0  0  0  0  0  0  0  0  0
   -4.9663   21.4577  -30.3945 H   0  0  0  0  0  0  0  0  0  0  0  0
   -4.9410   23.4670  -29.5870 C   0  0  0  0  0  0  0  0  0  0  0  0
   -6.0352   23.5189  -29.4865 H   0  0  0  0  0  0  0  0  0  0  0  0
   -4.1540   24.5580  -29.2100 C   0  0  0  0  0  0  0  0  0  0  0  0
   -4.6318   25.4686  -28.8193 H   0  0  0  0  0  0  0  0  0  0  0  0
   -2.7610   24.4980  -29.3270 C   0  0  0  0  0  0  0  0  0  0  0  0
   -1.9850   25.6490  -28.9660 N   0  0  0  0  0  0  0  0  0  0  0  0
   -0.8770   25.6820  -28.0560 C   0  0  0  0  0  0  0  0  0  0  0  0
    0.1130   24.9360  -28.2760 O   0  0  0  0  0  0  0  0  0  0  0  0
   -0.8430   26.6050  -26.8760 C   0  0  0  0  0  0  0  0  0  0  0  0
   -0.8647   26.0147  -25.9480 H   0  0  0  0  0  0  0  0  0  0  0  0
    0.0779   27.2058  -26.9069 H   0  0  0  0  0  0  0  0  0  0  0  0
   -1.7172   27.2720  -26.9069 H   0  0  0  0  0  0  0  0  0  0  0  0
   -2.1620   23.3450  -29.8630 C   0  0  0  0  0  0  0  0  0  0  0  0
   -1.0723   23.3143  -30.0098 H   0  0  0  0  0  0  0  0  0  0  0  0
   -3.9470   20.5240  -32.2630 N   0  0  0  0  0  0  0  0  0  0  0  0
   -7.5080   20.7870  -32.2060 C   0  0  0  0  0  0  0  0  0  0  0  0
   -6.9490   22.4500  -32.3500 Cl  0  0  0  0  0  0  0  0  0  0  0  0
   -8.6070   20.5230  -31.3780 C   0  0  0  0  0  0  0  0  0  0  0  0
   -9.0780   21.3434  -30.8167 H   0  0  0  0  0  0  0  0  0  0  0  0
  1  2  1  0
  2  3  2  0
  3  4  1  0
  3  5  1  0
  5  6  1  0
  5  7  2  0
  7  8  1  0
  8  9  1  0
  8 10  1  0
  8 11  1  0
 11 12  1  0
 12 13  2  0
 13 14  1  0
 14 15  1  0
 15 16  1  0
 15 17  1  0
 15 18  1  0
 13 19  1  0
 19 20  1  0
 19 21  1  0
 21 22  2  0
 22 23  1  0
 23 24  2  0
 24 25  1  0
 24 26  1  0
 26 27  1  0
 26 28  2  0
 28 29  1  0
 28 30  1  0
 30 31  1  0
 31 32  1  0
 32 33  2  0
 32 34  1  0
 34 35  1  0
 34 36  1  0
 34 37  1  0
 30 38  2  0
 38 39  1  0
 21 40  1  0
  7 41  1  0
 41 42  1  0
 41 43  2  0
 43 44  1  0
 43  2  1  0
 40 11  2  0
 38 23  1  0
M  CHG  1  31  -1
M  END
>  <UniqueID>  (17) 
16

>  <SMILES>  (17) 
CSc1nc(Cc2ccccc2Cl)n/c(=N\c2cccc([N-]C(C)=O)c2)[nH]1

>  <Energy>  (17) 
50.39162796750646

>  <Genealogy>  (17) 
CSc1nc(Cc2ccccc2Cl)nc(=Nc2cccc([N-]C(C)=O)c2)[nH]1 (protonated)
CSc1nc(Cc2ccccc2Cl)n/c(=N\c2cccc([N-]C(C)=O)c2)[nH]1 (cis-trans isomerization)
CSc1nc(Cc2ccccc2Cl)n/c(=N\c2cccc([N-]C(C)=O)c2)[nH]1 (3D coordinates assigned)
CSc1nc(Cc2ccccc2Cl)n/c(=N\c2cccc([N-]C(C)=O)c2)[nH]1 (optimized conformer: 50.39162796750646 kcal/mol)

>  <smiles>  (17) 
CSc1nc(Cc2ccccc2Cl)nc(=Nc2cccc(NC(C)=O)c2)[nH]1

>  <score_type>  (17) 
oracle

>  <origin>  (17) 
adgpu

>  <m_score__min__energy>  (17) 
-10.869999999999999

>  <m_primary>  (17) 
energy

$$$$
17:0
     RDKit          3D

 42 44  0  0  0  0  0  0  0  0999 V2000
   -6.4670   16.1620  -34.1730 C   0  0  0  0  0  0  0  0  0  0  0  0
   -6.2680   17.5290  -34.5120 O   0  0  0  0  0  0  0  0  0  0  0  0
   -5.4640   18.3870  -33.7560 C   0  0  0  0  0  0  0  0  0  0  0  0
   -5.9200   18.8380  -32.5150 C   0  0  0  0  0  0  0  0  0  0  0  0
   -5.1180   19.6940  -31.7580 C   0  0  0  0  0  0  0  0  0  0  0  0
   -3.8630   20.1000  -32.2420 C   0  0  0  0  0  0  0  0  0  0  0  0
   -2.9990   21.0120  -31.4480 C   0  0  0  0  0  0  0  0  0  0  0  0
   -1.7290   20.5930  -31.0170 C   0  0  0  0  0  0  0  0  0  0  0  0
   -0.9170   21.4510  -30.2730 C   0  0  0  0  0  0  0  0  0  0  0  0
   -1.3600   22.7340  -29.9480 C   0  0  0  0  0  0  0  0  0  0  0  0
   -2.6270   23.1780  -30.3650 C   0  0  0  0  0  0  0  0  0  0  0  0
   -3.1010   24.5380  -30.0180 C   0  0  0  0  0  0  0  0  0  0  0  0
   -2.3800   25.2950  -29.3130 O   0  0  0  0  0  0  0  0  0  0  0  0
   -4.3570   25.0120  -30.5270 N   0  0  0  0  0  0  0  0  0  0  0  0
   -5.5380   24.2310  -30.7570 C   0  0  0  0  0  0  0  0  0  0  0  0
   -6.1550   23.4900  -29.7330 C   0  0  0  0  0  0  0  0  0  0  0  0
   -7.2910   22.7220  -30.0070 C   0  0  0  0  0  0  0  0  0  0  0  0
   -7.8210   22.6670  -31.3010 C   0  0  0  0  0  0  0  0  0  0  0  0
   -8.9650   21.8820  -31.5160 O   0  0  0  0  0  0  0  0  0  0  0  0
   -8.9730   20.5770  -32.0880 C   0  0  0  0  0  0  0  0  0  0  0  0
  -10.2240   20.3260  -32.6160 F   0  0  0  0  0  0  0  0  0  0  0  0
   -8.7010   19.6290  -31.1160 F   0  0  0  0  0  0  0  0  0  0  0  0
   -8.0360   20.4930  -33.1020 F   0  0  0  0  0  0  0  0  0  0  0  0
   -7.1890   23.3910  -32.3300 C   0  0  0  0  0  0  0  0  0  0  0  0
   -6.0520   24.1570  -32.0570 C   0  0  0  0  0  0  0  0  0  0  0  0
   -3.4410   22.3070  -31.1160 C   0  0  0  0  0  0  0  0  0  0  0  0
   -3.4460   19.6210  -33.4960 C   0  0  0  0  0  0  0  0  0  0  0  0
   -4.2450   18.7860  -34.2120 N   0  0  0  0  0  0  0  0  0  0  0  0
   -6.4827   16.0542  -33.0784 H   0  0  0  0  0  0  0  0  0  0  0  0
   -7.4249   15.8167  -34.5892 H   0  0  0  0  0  0  0  0  0  0  0  0
   -5.6473   15.5579  -34.5892 H   0  0  0  0  0  0  0  0  0  0  0  0
   -6.9033   18.5211  -32.1372 H   0  0  0  0  0  0  0  0  0  0  0  0
   -5.4699   20.0519  -30.7792 H   0  0  0  0  0  0  0  0  0  0  0  0
   -1.3724   19.5829  -31.2673 H   0  0  0  0  0  0  0  0  0  0  0  0
    0.0764   21.1144  -29.9415 H   0  0  0  0  0  0  0  0  0  0  0  0
   -0.7130   23.4027  -29.3613 H   0  0  0  0  0  0  0  0  0  0  0  0
   -5.7427   23.5147  -28.7135 H   0  0  0  0  0  0  0  0  0  0  0  0
   -7.7731   22.1551  -29.1969 H   0  0  0  0  0  0  0  0  0  0  0  0
   -7.5916   23.3537  -33.3530 H   0  0  0  0  0  0  0  0  0  0  0  0
   -5.5567   24.7066  -32.8710 H   0  0  0  0  0  0  0  0  0  0  0  0
   -4.4347   22.6430  -31.4472 H   0  0  0  0  0  0  0  0  0  0  0  0
   -2.4685   19.9232  -33.8999 H   0  0  0  0  0  0  0  0  0  0  0  0
  1  2  1  0
  2  3  1  0
  3  4  2  0
  4  5  1  0
  5  6  2  0
  6  7  1  0
  7  8  2  0
  8  9  1  0
  9 10  2  0
 10 11  1  0
 11 12  1  0
 12 13  2  0
 12 14  1  0
 14 15  1  0
 15 16  2  0
 16 17  1  0
 17 18  2  0
 18 19  1  0
 19 20  1  0
 20 21  1  0
 20 22  1  0
 20 23  1  0
 18 24  1  0
 24 25  2  0
 11 26  2  0
  6 27  1  0
 27 28  2  0
 28  3  1  0
 26  7  1  0
 25 15  1  0
  1 29  1  0
  1 30  1  0
  1 31  1  0
  4 32  1  0
  5 33  1  0
  8 34  1  0
  9 35  1  0
 10 36  1  0
 16 37  1  0
 17 38  1  0
 24 39  1  0
 25 40  1  0
 26 41  1  0
 27 42  1  0
M  CHG  1  14  -1
M  END
>  <UniqueID>  (18) 
17

>  <SMILES>  (18) 
COc1ccc(-c2cccc(C(=O)[N-]c3ccc(OC(F)(F)F)cc3)c2)cn1

>  <Energy>  (18) 
53.22726414646462

>  <Genealogy>  (18) 
COc1ccc(-c2cccc(C(=O)[N-]c3ccc(OC(F)(F)F)cc3)c2)cn1 (protonated)
COc1ccc(-c2cccc(C(=O)[N-]c3ccc(OC(F)(F)F)cc3)c2)cn1 (3D coordinates assigned)
COc1ccc(-c2cccc(C(=O)[N-]c3ccc(OC(F)(F)F)cc3)c2)cn1 (optimized conformer: 53.22726414646462 kcal/mol)

>  <smiles>  (18) 
COc1ccc(-c2cccc(C(=O)Nc3ccc(OC(F)(F)F)cc3)c2)cn1

>  <score_type>  (18) 
oracle

>  <origin>  (18) 
adgpu

>  <m_score__min__energy>  (18) 
-9.5199999999999996

>  <m_primary>  (18) 
energy

$$$$
18:0
     RDKit          3D

 46 49  0  0  0  0  0  0  0  0999 V2000
   -1.2370   26.4070  -29.3190 O   0  0  0  0  0  0  0  0  0  0  0  0
   -1.2500   26.4210  -27.9280 C   0  0  0  0  0  0  0  0  0  0  0  0
   -0.7500   27.5510  -27.2710 C   0  0  0  0  0  0  0  0  0  0  0  0
   -0.7350   27.6150  -25.8760 C   0  0  0  0  0  0  0  0  0  0  0  0
   -0.2310   28.7530  -25.2500 O   0  0  0  0  0  0  0  0  0  0  0  0
   -1.2250   26.5370  -25.1290 C   0  0  0  0  0  0  0  0  0  0  0  0
   -1.2180   26.5820  -23.7720 F   0  0  0  0  0  0  0  0  0  0  0  0
   -1.7270   25.4050  -25.7760 C   0  0  0  0  0  0  0  0  0  0  0  0
   -1.7500   25.3260  -27.1840 C   0  0  0  0  0  0  0  0  0  0  0  0
   -2.2940   24.1030  -27.8400 C   0  0  0  0  0  0  0  0  0  0  0  0
   -1.8040   22.8730  -27.5390 N   0  0  0  0  0  0  0  0  0  0  0  0
   -2.2970   21.7570  -28.1380 C   0  0  0  0  0  0  0  0  0  0  0  0
   -1.7690   20.4550  -27.8060 N   0  0  0  0  0  0  0  0  0  0  0  0
   -2.2510   19.7580  -26.6050 C   0  0  0  0  0  0  0  0  0  0  0  0
   -2.0130   18.2500  -26.7270 C   0  0  0  0  0  0  0  0  0  0  0  0
   -0.6730   17.9790  -27.0840 O   0  0  0  0  0  0  0  0  0  0  0  0
   -0.4270   18.4680  -28.3870 C   0  0  0  0  0  0  0  0  0  0  0  0
   -0.5160   19.9970  -28.4210 C   0  0  0  0  0  0  0  0  0  0  0  0
   -3.2940   21.8830  -29.0520 N   0  0  0  0  0  0  0  0  0  0  0  0
   -3.7980   23.1040  -29.3700 C   0  0  0  0  0  0  0  0  0  0  0  0
   -4.8570   23.2290  -30.3420 N   0  0  0  0  0  0  0  0  0  0  0  0
   -4.6890   22.6530  -31.6820 C   0  0  0  0  0  0  0  0  0  0  0  0
   -6.0520   22.3990  -32.3320 C   0  0  0  0  0  0  0  0  0  0  0  0
   -6.8610   23.5560  -32.2710 O   0  0  0  0  0  0  0  0  0  0  0  0
   -7.1750   23.8410  -30.9230 C   0  0  0  0  0  0  0  0  0  0  0  0
   -5.9160   24.2280  -30.1420 C   0  0  0  0  0  0  0  0  0  0  0  0
   -3.2900   24.2080  -28.7590 N   0  0  0  0  0  0  0  0  0  0  0  0
   -0.3650   28.3971  -27.8592 H   0  0  0  0  0  0  0  0  0  0  0  0
   -0.2950   28.8860  -24.2480 H   0  0  0  0  0  0  0  0  0  0  0  0
   -2.1095   24.5639  -25.1791 H   0  0  0  0  0  0  0  0  0  0  0  0
   -1.7125   20.1392  -25.7248 H   0  0  0  0  0  0  0  0  0  0  0  0
   -3.3306   19.9398  -26.4978 H   0  0  0  0  0  0  0  0  0  0  0  0
   -2.2324   17.7713  -25.7612 H   0  0  0  0  0  0  0  0  0  0  0  0
   -2.6734   17.8520  -27.5115 H   0  0  0  0  0  0  0  0  0  0  0  0
    0.5798   18.1584  -28.7041 H   0  0  0  0  0  0  0  0  0  0  0  0
   -1.1869   18.0558  -29.0672 H   0  0  0  0  0  0  0  0  0  0  0  0
    0.3347   20.4212  -27.8675 H   0  0  0  0  0  0  0  0  0  0  0  0
   -0.4922   20.3307  -29.4689 H   0  0  0  0  0  0  0  0  0  0  0  0
   -4.1147   23.3525  -32.3072 H   0  0  0  0  0  0  0  0  0  0  0  0
   -4.1537   21.6961  -31.5931 H   0  0  0  0  0  0  0  0  0  0  0  0
   -5.9026   22.1187  -33.3851 H   0  0  0  0  0  0  0  0  0  0  0  0
   -6.5564   21.5873  -31.7873 H   0  0  0  0  0  0  0  0  0  0  0  0
   -7.8917   24.6748  -30.8881 H   0  0  0  0  0  0  0  0  0  0  0  0
   -7.6118   22.9415  -30.4647 H   0  0  0  0  0  0  0  0  0  0  0  0
   -5.5598   25.2079  -30.4926 H   0  0  0  0  0  0  0  0  0  0  0  0
   -6.1627   24.2743  -29.0710 H   0  0  0  0  0  0  0  0  0  0  0  0
  1  2  1  0
  2  3  2  0
  3  4  1  0
  4  5  1  0
  4  6  2  0
  6  7  1  0
  6  8  1  0
  8  9  2  0
  9 10  1  0
 10 11  2  0
 11 12  1  0
 12 13  1  0
 13 14  1  0
 14 15  1  0
 15 16  1  0
 16 17  1  0
 17 18  1  0
 12 19  2  0
 19 20  1  0
 20 21  1  0
 21 22  1  0
 22 23  1  0
 23 24  1  0
 24 25  1  0
 25 26  1  0
 20 27  2  0
  9  2  1  0
 27 10  1  0
 18 13  1  0
 26 21  1  0
  3 28  1  0
  5 29  1  0
  8 30  1  0
 14 31  1  0
 14 32  1  0
 15 33  1  0
 15 34  1  0
 17 35  1  0
 17 36  1  0
 18 37  1  0
 18 38  1  0
 22 39  1  0
 22 40  1  0
 23 41  1  0
 23 42  1  0
 25 43  1  0
 25 44  1  0
 26 45  1  0
 26 46  1  0
M  CHG  1   1  -1
M  END
>  <UniqueID>  (19) 
18

>  <SMILES>  (19) 
[O-]c1cc(O)c(F)cc1-c1nc(N2CCOCC2)nc(N2CCOCC2)n1

>  <Energy>  (19) 
55.29789118206439

>  <Genealogy>  (19) 
[O-]c1cc(O)c(F)cc1-c1nc(N2CCOCC2)nc(N2CCOCC2)n1 (protonated)
[O-]c1cc(O)c(F)cc1-c1nc(N2CCOCC2)nc(N2CCOCC2)n1 (3D coordinates assigned)
[O-]c1cc(O)c(F)cc1-c1nc(N2CCOCC2)nc(N2CCOCC2)n1 (nonaromatic ring conformer: 55.29789118206439 kcal/mol)

>  <smiles>  (19) 
Oc1cc(O)c(-c2nc(N3CCOCC3)nc(N3CCOCC3)n2)cc1F

>  <score_type>  (19) 
oracle

>  <origin>  (19) 
adgpu

>  <m_score__min__energy>  (19) 
-9.5199999999999996

>  <m_primary>  (19) 
energy

$$$$
19:0
     RDKit          3D

 51 55  0  0  0  0  0  0  0  0999 V2000
   -1.4267   22.7308  -31.0515 H   0  0  0  0  0  0  0  0  0  0  0  0
   -1.8060   23.0720  -30.0770 C   0  0  0  0  0  0  0  0  0  0  0  0
   -3.0280   23.6620  -29.9920 N   0  0  0  0  0  0  0  0  0  0  0  0
   -3.5370   24.0990  -28.8050 C   0  0  0  0  0  0  0  0  0  0  0  0
   -4.7060   24.6590  -28.7450 N   0  0  0  0  0  0  0  0  0  0  0  0
   -5.7290   24.9070  -30.1260 S   0  0  0  0  0  0  0  0  0  0  0  0
   -6.9490   25.6750  -29.7020 O   0  0  0  0  0  0  0  0  0  0  0  0
   -4.9830   25.6740  -31.1820 O   0  0  0  0  0  0  0  0  0  0  0  0
   -6.2090   23.3450  -30.7790 C   0  0  0  0  0  0  0  0  0  0  0  0
   -5.5580   22.8260  -31.9050 C   0  0  0  0  0  0  0  0  0  0  0  0
   -4.7405   23.3925  -32.3749 H   0  0  0  0  0  0  0  0  0  0  0  0
   -5.9430   21.5910  -32.4340 C   0  0  0  0  0  0  0  0  0  0  0  0
   -5.4374   21.1964  -33.3277 H   0  0  0  0  0  0  0  0  0  0  0  0
   -6.9750   20.8500  -31.8280 C   0  0  0  0  0  0  0  0  0  0  0  0
   -7.4190   19.5890  -32.3570 N   0  0  0  0  0  0  0  0  0  0  0  0
   -6.7080   18.7370  -33.0400 C   0  0  0  0  0  0  0  0  0  0  0  0
   -5.3770   18.9390  -33.2470 N   0  0  0  0  0  0  0  0  0  0  0  0
   -4.6110   18.0500  -33.9350 C   0  0  0  0  0  0  0  0  0  0  0  0
   -3.1660   18.3370  -34.1340 C   0  0  0  0  0  0  0  0  0  0  0  0
   -2.3110   17.3180  -34.5910 C   0  0  0  0  0  0  0  0  0  0  0  0
   -2.7189   16.3167  -34.7934 H   0  0  0  0  0  0  0  0  0  0  0  0
   -0.9500   17.5620  -34.7910 C   0  0  0  0  0  0  0  0  0  0  0  0
   -0.2936   16.7512  -35.1399 H   0  0  0  0  0  0  0  0  0  0  0  0
   -0.4180   18.8350  -34.5490 C   0  0  0  0  0  0  0  0  0  0  0  0
    0.9480   19.0900  -34.7470 C   0  0  0  0  0  0  0  0  0  0  0  0
    1.6126   18.2844  -35.0924 H   0  0  0  0  0  0  0  0  0  0  0  0
    1.4650   20.3660  -34.5060 C   0  0  0  0  0  0  0  0  0  0  0  0
    2.5362   20.5617  -34.6617 H   0  0  0  0  0  0  0  0  0  0  0  0
    0.6260   21.3940  -34.0680 C   0  0  0  0  0  0  0  0  0  0  0  0
    1.0383   22.3968  -33.8825 H   0  0  0  0  0  0  0  0  0  0  0  0
   -0.7350   21.1520  -33.8650 C   0  0  0  0  0  0  0  0  0  0  0  0
   -1.3910   21.9646  -33.5194 H   0  0  0  0  0  0  0  0  0  0  0  0
   -1.2680   19.8740  -34.1010 C   0  0  0  0  0  0  0  0  0  0  0  0
   -2.6340   19.6200  -33.9020 C   0  0  0  0  0  0  0  0  0  0  0  0
   -3.2951   20.4307  -33.5617 H   0  0  0  0  0  0  0  0  0  0  0  0
   -5.2170   16.8950  -34.4510 C   0  0  0  0  0  0  0  0  0  0  0  0
   -4.6304   16.1634  -35.0261 H   0  0  0  0  0  0  0  0  0  0  0  0
   -6.5770   16.6920  -34.2210 C   0  0  0  0  0  0  0  0  0  0  0  0
   -7.0700   15.7891  -34.6104 H   0  0  0  0  0  0  0  0  0  0  0  0
   -7.2950   17.6050  -33.5180 N   0  0  0  0  0  0  0  0  0  0  0  0
   -8.3140   17.4340  -33.3540 H   0  0  0  0  0  0  0  0  0  0  0  0
   -7.6480   21.3920  -30.7260 C   0  0  0  0  0  0  0  0  0  0  0  0
   -8.4846   20.8408  -30.2718 H   0  0  0  0  0  0  0  0  0  0  0  0
   -7.2640   22.6290  -30.1990 C   0  0  0  0  0  0  0  0  0  0  0  0
   -7.7920   23.0410  -29.3264 H   0  0  0  0  0  0  0  0  0  0  0  0
   -2.7880   23.9410  -27.6320 C   0  0  0  0  0  0  0  0  0  0  0  0
   -3.1866   24.2893  -26.6677 H   0  0  0  0  0  0  0  0  0  0  0  0
   -1.5300   23.3370  -27.6980 C   0  0  0  0  0  0  0  0  0  0  0  0
   -0.9328   23.2066  -26.7835 H   0  0  0  0  0  0  0  0  0  0  0  0
   -1.0320   22.8990  -28.9270 C   0  0  0  0  0  0  0  0  0  0  0  0
   -0.0420   22.4234  -28.9888 H   0  0  0  0  0  0  0  0  0  0  0  0
  1  2  1  0
  2  3  1  0
  3  4  1  0
  4  5  2  0
  5  6  1  0
  6  7  2  0
  6  8  2  0
  6  9  1  0
  9 10  2  0
 10 11  1  0
 10 12  1  0
 12 13  1  0
 12 14  2  0
 14 15  1  0
 15 16  2  3
 16 17  1  0
 17 18  2  0
 18 19  1  0
 19 20  2  0
 20 21  1  0
 20 22  1  0
 22 23  1  0
 22 24  2  0
 24 25  1  0
 25 26  1  0
 25 27  2  0
 27 28  1  0
 27 29  1  0
 29 30  1  0
 29 31  2  0
 31 32  1  0
 31 33  1  0
 33 34  2  0
 34 35  1  0
 18 36  1  0
 36 37  1  0
 36 38  2  0
 38 39  1  0
 38 40  1  0
 40 41  1  0
 14 42  1  0
 42 43  1  0
 42 44  2  0
 44 45  1  0
  4 46  1  0
 46 47  1  0
 46 48  2  0
 48 49  1  0
 48 50  1  0
 50 51  1  0
 50  2  2  0
 44  9  1  0
 40 16  1  0
 34 19  1  0
 33 24  1  0
M  CHG  1   3  -1
M  END
>  <UniqueID>  (20) 
19

>  <SMILES>  (20) 
O=S(=O)(/N=c1/cccc[n-]1)c1ccc(N=c2nc(-c3ccc4ccccc4c3)cc[nH]2)cc1

>  <Energy>  (20) 
75.71331683413074

>  <Genealogy>  (20) 
O=S(=O)(N=c1cccc[n-]1)c1ccc(N=c2nc(-c3ccc4ccccc4c3)cc[nH]2)cc1 (protonated)
O=S(=O)(/N=c1/cccc[n-]1)c1ccc(N=c2nc(-c3ccc4ccccc4c3)cc[nH]2)cc1 (cis-trans isomerization)
O=S(=O)(/N=c1/cccc[n-]1)c1ccc(N=c2nc(-c3ccc4ccccc4c3)cc[nH]2)cc1 (3D coordinates assigned)
O=S(=O)(/N=c1/cccc[n-]1)c1ccc(N=c2nc(-c3ccc4ccccc4c3)cc[nH]2)cc1 (optimized conformer: 75.71331683413074 kcal/mol)

>  <smiles>  (20) 
O=S(=O)(N=c1cccc[nH]1)c1ccc(N=c2nc(-c3ccc4ccccc4c3)cc[nH]2)cc1

>  <score_type>  (20) 
oracle

>  <origin>  (20) 
adgpu

>  <m_score__min__energy>  (20) 
-11.75

>  <m_primary>  (20) 
energy

$$$$
20:0
     RDKit          3D

 40 41  0  0  0  0  0  0  0  0999 V2000
   -6.4070   18.7140  -33.6880 C   0  0  0  0  0  0  0  0  0  0  0  0
   -6.4650   20.0420  -32.9810 C   0  0  0  0  0  0  0  0  0  0  0  0
   -5.3080   20.8370  -32.9100 C   0  0  0  0  0  0  0  0  0  0  0  0
   -5.3330   22.0710  -32.2600 C   0  0  0  0  0  0  0  0  0  0  0  0
   -6.5160   22.5340  -31.6780 C   0  0  0  0  0  0  0  0  0  0  0  0
   -6.5450   24.1340  -30.8620 S   0  0  0  0  0  0  0  0  0  0  0  0
   -5.1220   23.7860  -29.7690 C   0  0  0  0  0  0  0  0  0  0  0  0
   -3.9620   24.6730  -30.0960 C   0  0  0  0  0  0  0  0  0  0  0  0
   -4.1350   25.6740  -30.8410 O   0  0  0  0  0  0  0  0  0  0  0  0
   -2.6790   24.4040  -29.5180 N   0  0  0  0  0  0  0  0  0  0  0  0
   -2.1490   24.9910  -28.3200 C   0  0  0  0  0  0  0  0  0  0  0  0
   -0.9530   25.7310  -28.3190 C   0  0  0  0  0  0  0  0  0  0  0  0
   -0.4530   26.2600  -27.1250 C   0  0  0  0  0  0  0  0  0  0  0  0
   -1.1370   26.0520  -25.9200 C   0  0  0  0  0  0  0  0  0  0  0  0
   -0.4960   26.7040  -24.4160 S   0  0  0  0  0  0  0  0  0  0  0  0
    0.7800   25.6910  -23.8410 N   0  0  0  0  0  0  0  0  0  0  0  0
   -1.5860   26.7700  -23.3830 O   0  0  0  0  0  0  0  0  0  0  0  0
    0.0320   28.0920  -24.6470 O   0  0  0  0  0  0  0  0  0  0  0  0
   -2.3130   25.2910  -25.9160 C   0  0  0  0  0  0  0  0  0  0  0  0
   -2.8110   24.7600  -27.1090 C   0  0  0  0  0  0  0  0  0  0  0  0
   -7.6710   21.7480  -31.7270 C   0  0  0  0  0  0  0  0  0  0  0  0
   -7.6600   20.4990  -32.3730 C   0  0  0  0  0  0  0  0  0  0  0  0
   -8.9240   19.6820  -32.4210 C   0  0  0  0  0  0  0  0  0  0  0  0
   -6.3716   17.9040  -32.9445 H   0  0  0  0  0  0  0  0  0  0  0  0
   -7.3008   18.5947  -34.3180 H   0  0  0  0  0  0  0  0  0  0  0  0
   -5.5062   18.6730  -34.3180 H   0  0  0  0  0  0  0  0  0  0  0  0
   -4.3743   20.4828  -33.3712 H   0  0  0  0  0  0  0  0  0  0  0  0
   -4.4193   22.6810  -32.2055 H   0  0  0  0  0  0  0  0  0  0  0  0
   -5.4213   23.9564  -28.7243 H   0  0  0  0  0  0  0  0  0  0  0  0
   -4.8149   22.7402  -29.9175 H   0  0  0  0  0  0  0  0  0  0  0  0
   -0.4089   25.8943  -29.2609 H   0  0  0  0  0  0  0  0  0  0  0  0
    0.4807   26.8415  -27.1318 H   0  0  0  0  0  0  0  0  0  0  0  0
    0.3600   24.7580  -23.6310 H   0  0  0  0  0  0  0  0  0  0  0  0
    1.0980   26.0890  -22.9280 H   0  0  0  0  0  0  0  0  0  0  0  0
   -2.8462   25.1108  -24.9709 H   0  0  0  0  0  0  0  0  0  0  0  0
   -3.7302   24.1560  -27.0959 H   0  0  0  0  0  0  0  0  0  0  0  0
   -8.5969   22.1098  -31.2559 H   0  0  0  0  0  0  0  0  0  0  0  0
   -9.2595   19.4651  -31.3961 H   0  0  0  0  0  0  0  0  0  0  0  0
   -9.7055   20.2463  -32.9510 H   0  0  0  0  0  0  0  0  0  0  0  0
   -8.7304   18.7377  -32.9510 H   0  0  0  0  0  0  0  0  0  0  0  0
  1  2  1  0
  2  3  2  0
  3  4  1  0
  4  5  2  0
  5  6  1  0
  6  7  1  0
  7  8  1  0
  8  9  2  0
  8 10  1  0
 10 11  1  0
 11 12  2  0
 12 13  1  0
 13 14  2  0
 14 15  1  0
 15 16  1  0
 15 17  2  0
 15 18  2  0
 14 19  1  0
 19 20  2  0
  5 21  1  0
 21 22  2  0
 22 23  1  0
 22  2  1  0
 20 11  1  0
  1 24  1  0
  1 25  1  0
  1 26  1  0
  3 27  1  0
  4 28  1  0
  7 29  1  0
  7 30  1  0
 12 31  1  0
 13 32  1  0
 16 33  1  0
 16 34  1  0
 19 35  1  0
 20 36  1  0
 21 37  1  0
 23 38  1  0
 23 39  1  0
 23 40  1  0
M  CHG  1  10  -1
M  END
>  <UniqueID>  (21) 
20

>  <SMILES>  (21) 
Cc1ccc(SCC(=O)[N-]c2ccc(S(N)(=O)=O)cc2)cc1C

>  <Energy>  (21) 
36.03795042478348

>  <Genealogy>  (21) 
Cc1ccc(SCC(=O)[N-]c2ccc(S(N)(=O)=O)cc2)cc1C (protonated)
Cc1ccc(SCC(=O)[N-]c2ccc(S(N)(=O)=O)cc2)cc1C (3D coordinates assigned)
Cc1ccc(SCC(=O)[N-]c2ccc(S(N)(=O)=O)cc2)cc1C (optimized conformer: 36.03795042478348 kcal/mol)

>  <smiles>  (21) 
Cc1ccc(SCC(=O)Nc2ccc(S(N)(=O)=O)cc2)cc1C

>  <score_type>  (21) 
oracle

>  <origin>  (21) 
adgpu

>  <m_score__min__energy>  (21) 
-11.039999999999999

>  <m_primary>  (21) 
energy

$$$$
21:0
     RDKit          3D

 40 42  0  0  0  0  0  0  0  0999 V2000
   -8.9180   18.6710  -31.7510 C   0  0  0  0  0  0  0  0  0  0  0  0
   -8.0380   18.6610  -32.9970 C   0  0  0  0  0  0  0  0  0  0  0  0
   -6.7010   19.2890  -32.7110 C   0  0  0  0  0  0  0  0  0  0  0  0
   -6.1780   20.2650  -33.5730 C   0  0  0  0  0  0  0  0  0  0  0  0
   -4.9500   20.8720  -33.2920 C   0  0  0  0  0  0  0  0  0  0  0  0
   -4.2260   20.5070  -32.1410 C   0  0  0  0  0  0  0  0  0  0  0  0
   -2.9950   21.0950  -31.8110 O   0  0  0  0  0  0  0  0  0  0  0  0
   -2.6280   21.5480  -30.5380 C   0  0  0  0  0  0  0  0  0  0  0  0
   -2.1680   20.7510  -29.6770 O   0  0  0  0  0  0  0  0  0  0  0  0
   -2.8040   22.9740  -30.2110 C   0  0  0  0  0  0  0  0  0  0  0  0
   -1.8270   23.8080  -29.7090 C   0  0  0  0  0  0  0  0  0  0  0  0
   -2.3710   25.0020  -29.4100 N   0  0  0  0  0  0  0  0  0  0  0  0
   -3.6610   24.9670  -29.7090 N   0  0  0  0  0  0  0  0  0  0  0  0
   -3.9560   23.7490  -30.2040 C   0  0  0  0  0  0  0  0  0  0  0  0
   -5.3050   23.3830  -30.6790 C   0  0  0  0  0  0  0  0  0  0  0  0
   -5.7630   23.7960  -31.9410 C   0  0  0  0  0  0  0  0  0  0  0  0
   -7.0540   23.4690  -32.3660 C   0  0  0  0  0  0  0  0  0  0  0  0
   -7.9060   22.7280  -31.5340 C   0  0  0  0  0  0  0  0  0  0  0  0
   -9.3050   22.4120  -31.9740 C   0  0  0  0  0  0  0  0  0  0  0  0
   -7.4650   22.3520  -30.2560 C   0  0  0  0  0  0  0  0  0  0  0  0
   -6.1740   22.6780  -29.8310 C   0  0  0  0  0  0  0  0  0  0  0  0
   -4.7660   19.5560  -31.2660 C   0  0  0  0  0  0  0  0  0  0  0  0
   -5.9940   18.9490  -31.5470 C   0  0  0  0  0  0  0  0  0  0  0  0
   -8.2825   18.6638  -30.8532 H   0  0  0  0  0  0  0  0  0  0  0  0
   -9.5428   19.5763  -31.7507 H   0  0  0  0  0  0  0  0  0  0  0  0
   -9.5633   17.7801  -31.7507 H   0  0  0  0  0  0  0  0  0  0  0  0
   -7.8860   17.6215  -33.3230 H   0  0  0  0  0  0  0  0  0  0  0  0
   -8.5383   19.2403  -33.7870 H   0  0  0  0  0  0  0  0  0  0  0  0
   -6.7373   20.5543  -34.4750 H   0  0  0  0  0  0  0  0  0  0  0  0
   -4.5483   21.6372  -33.9725 H   0  0  0  0  0  0  0  0  0  0  0  0
   -0.7689   23.5393  -29.5741 H   0  0  0  0  0  0  0  0  0  0  0  0
   -5.1022   24.3800  -32.5985 H   0  0  0  0  0  0  0  0  0  0  0  0
   -7.4031   23.7942  -33.3571 H   0  0  0  0  0  0  0  0  0  0  0  0
   -9.9436   22.2678  -31.0901 H   0  0  0  0  0  0  0  0  0  0  0  0
   -9.6965   23.2443  -32.5773 H   0  0  0  0  0  0  0  0  0  0  0  0
   -9.3007   21.4922  -32.5773 H   0  0  0  0  0  0  0  0  0  0  0  0
   -8.1385   21.7981  -29.5855 H   0  0  0  0  0  0  0  0  0  0  0  0
   -5.8371   22.3807  -28.8270 H   0  0  0  0  0  0  0  0  0  0  0  0
   -4.2198   19.2845  -30.3506 H   0  0  0  0  0  0  0  0  0  0  0  0
   -6.4075   18.2022  -30.8532 H   0  0  0  0  0  0  0  0  0  0  0  0
  1  2  1  0
  2  3  1  0
  3  4  2  0
  4  5  1  0
  5  6  2  0
  6  7  1  0
  7  8  1  0
  8  9  2  0
  8 10  1  0
 10 11  2  0
 11 12  1  0
 12 13  1  0
 13 14  2  0
 14 15  1  0
 15 16  2  0
 16 17  1  0
 17 18  2  0
 18 19  1  0
 18 20  1  0
 20 21  2  0
  6 22  1  0
 22 23  2  0
 23  3  1  0
 14 10  1  0
 21 15  1  0
  1 24  1  0
  1 25  1  0
  1 26  1  0
  2 27  1  0
  2 28  1  0
  4 29  1  0
  5 30  1  0
 11 31  1  0
 16 32  1  0
 17 33  1  0
 19 34  1  0
 19 35  1  0
 19 36  1  0
 20 37  1  0
 21 38  1  0
 22 39  1  0
 23 40  1  0
M  CHG  1  12  -1
M  END
>  <UniqueID>  (22) 
21

>  <SMILES>  (22) 
CCc1ccc(OC(=O)c2c[n-]nc2-c2ccc(C)cc2)cc1

>  <Energy>  (22) 
77.93155091509193

>  <Genealogy>  (22) 
CCc1ccc(OC(=O)c2c[n-]nc2-c2ccc(C)cc2)cc1 (protonated)
CCc1ccc(OC(=O)c2c[n-]nc2-c2ccc(C)cc2)cc1 (3D coordinates assigned)
CCc1ccc(OC(=O)c2c[n-]nc2-c2ccc(C)cc2)cc1 (optimized conformer: 77.93155091509193 kcal/mol)

>  <smiles>  (22) 
CCc1ccc(OC(=O)c2c[nH]nc2-c2ccc(C)cc2)cc1

>  <score_type>  (22) 
oracle

>  <origin>  (22) 
adgpu

>  <m_score__min__energy>  (22) 
-9.8699999999999992

>  <m_primary>  (22) 
energy

$$$$
22:0
     RDKit          3D

 36 38  0  0  0  0  0  0  0  0999 V2000
   -4.7880   25.8410  -31.6580 H   0  0  0  0  0  0  0  0  0  0  0  0
   -4.2410   25.6780  -30.7830 N   0  0  0  0  0  0  0  0  0  0  0  0
   -3.8030   24.5040  -30.4680 C   0  0  0  0  0  0  0  0  0  0  0  0
   -4.0480   23.4410  -31.2780 N   0  0  0  0  0  0  0  0  0  0  0  0
   -3.5990   22.1930  -30.9720 C   0  0  0  0  0  0  0  0  0  0  0  0
   -3.9070   21.0650  -31.8880 C   0  0  0  0  0  0  0  0  0  0  0  0
   -5.2320   20.6530  -32.1250 C   0  0  0  0  0  0  0  0  0  0  0  0
   -6.0631   21.1768  -31.6300 H   0  0  0  0  0  0  0  0  0  0  0  0
   -5.5000   19.5840  -32.9840 C   0  0  0  0  0  0  0  0  0  0  0  0
   -6.5411   19.2771  -33.1629 H   0  0  0  0  0  0  0  0  0  0  0  0
   -4.4590   18.9010  -33.6180 C   0  0  0  0  0  0  0  0  0  0  0  0
   -4.7820   17.8370  -34.4730 O   0  0  0  0  0  0  0  0  0  0  0  0
   -6.0740   17.2470  -34.5710 C   0  0  0  0  0  0  0  0  0  0  0  0
   -6.4717   17.0654  -33.5616 H   0  0  0  0  0  0  0  0  0  0  0  0
   -6.7474   17.9269  -35.1136 H   0  0  0  0  0  0  0  0  0  0  0  0
   -6.0012   16.2929  -35.1136 H   0  0  0  0  0  0  0  0  0  0  0  0
   -3.1310   19.3010  -33.3780 C   0  0  0  0  0  0  0  0  0  0  0  0
   -2.3021   18.7709  -33.8699 H   0  0  0  0  0  0  0  0  0  0  0  0
   -2.8610   20.3680  -32.5180 C   0  0  0  0  0  0  0  0  0  0  0  0
   -1.8187   20.6662  -32.3316 H   0  0  0  0  0  0  0  0  0  0  0  0
   -2.8780   22.0040  -29.7820 C   0  0  0  0  0  0  0  0  0  0  0  0
   -2.5206   21.0027  -29.4998 H   0  0  0  0  0  0  0  0  0  0  0  0
   -2.6190   23.1120  -28.9560 C   0  0  0  0  0  0  0  0  0  0  0  0
   -1.8610   22.9780  -27.6860 C   0  0  0  0  0  0  0  0  0  0  0  0
   -1.5710   21.6980  -27.1750 C   0  0  0  0  0  0  0  0  0  0  0  0
   -1.9032   20.8040  -27.7230 H   0  0  0  0  0  0  0  0  0  0  0  0
   -0.8650   21.5540  -25.9780 C   0  0  0  0  0  0  0  0  0  0  0  0
   -0.6376   20.5490  -25.5930 H   0  0  0  0  0  0  0  0  0  0  0  0
   -0.4460   22.6850  -25.2670 C   0  0  0  0  0  0  0  0  0  0  0  0
    0.2580   22.5530  -24.0730 O   0  0  0  0  0  0  0  0  0  0  0  0
    0.2640   23.2890  -23.3760 H   0  0  0  0  0  0  0  0  0  0  0  0
   -0.7390   23.9600  -25.7590 C   0  0  0  0  0  0  0  0  0  0  0  0
   -0.4132   24.8505  -25.2015 H   0  0  0  0  0  0  0  0  0  0  0  0
   -1.4440   24.1080  -26.9560 C   0  0  0  0  0  0  0  0  0  0  0  0
   -1.6754   25.1157  -27.3316 H   0  0  0  0  0  0  0  0  0  0  0  0
   -3.0960   24.3320  -29.3230 N   0  0  0  0  0  0  0  0  0  0  0  0
  1  2  1  0
  2  3  2  0
  3  4  1  0
  4  5  2  0
  5  6  1  0
  6  7  2  0
  7  8  1  0
  7  9  1  0
  9 10  1  0
  9 11  2  0
 11 12  1  0
 12 13  1  0
 13 14  1  0
 13 15  1  0
 13 16  1  0
 11 17  1  0
 17 18  1  0
 17 19  2  0
 19 20  1  0
  5 21  1  0
 21 22  1  0
 21 23  2  0
 23 24  1  0
 24 25  2  0
 25 26  1  0
 25 27  1  0
 27 28  1  0
 27 29  2  0
 29 30  1  0
 30 31  1  0
 29 32  1  0
 32 33  1  0
 32 34  2  0
 34 35  1  0
 23 36  1  0
 36  3  1  0
 19  6  1  0
 34 24  1  0
M  CHG  1  36  -1
M  END
>  <UniqueID>  (23) 
22

>  <SMILES>  (23) 
[H]/N=c1\nc(-c2ccc(OC)cc2)cc(-c2ccc(O)cc2)[n-]1

>  <Energy>  (23) 
46.13297756961651

>  <Genealogy>  (23) 
COc1ccc(-c2cc(-c3ccc(O)cc3)[n-]c(=N)n2)cc1 (protonated)
[H]/N=c1\nc(-c2ccc(OC)cc2)cc(-c2ccc(O)cc2)[n-]1 (cis-trans isomerization)
[H]/N=c1\nc(-c2ccc(OC)cc2)cc(-c2ccc(O)cc2)[n-]1 (3D coordinates assigned)
[H]/N=c1\nc(-c2ccc(OC)cc2)cc(-c2ccc(O)cc2)[n-]1 (optimized conformer: 46.13297756961651 kcal/mol)

>  <smiles>  (23) 
COc1ccc(-c2cc(-c3ccc(O)cc3)[nH]c(=N)n2)cc1

>  <score_type>  (23) 
oracle

>  <origin>  (23) 
adgpu

>  <m_score__min__energy>  (23) 
-8.5399999999999991

>  <m_primary>  (23) 
energy

$$$$
23:0
     RDKit          3D

 52 55  0  0  0  0  0  0  0  0999 V2000
   -9.4770   20.4460  -32.3390 C   0  0  0  0  0  0  0  0  0  0  0  0
   -8.1900   19.9100  -31.6960 C   0  0  1  0  0  0  0  0  0  0  0  0
   -7.8790   18.5080  -32.2630 C   0  0  0  0  0  0  0  0  0  0  0  0
   -6.4640   18.0700  -31.8950 C   0  0  0  0  0  0  0  0  0  0  0  0
   -5.4830   19.0560  -32.4540 C   0  0  0  0  0  0  0  0  0  0  0  0
   -4.2450   18.6250  -32.9540 C   0  0  0  0  0  0  0  0  0  0  0  0
   -3.3430   19.5490  -33.4860 C   0  0  0  0  0  0  0  0  0  0  0  0
   -3.6720   20.9050  -33.5220 C   0  0  0  0  0  0  0  0  0  0  0  0
   -4.8950   21.3440  -33.0100 C   0  0  0  0  0  0  0  0  0  0  0  0
   -5.8070   20.4270  -32.4490 C   0  0  0  0  0  0  0  0  0  0  0  0
   -7.0720   20.8610  -31.8900 N   0  0  0  0  0  0  0  0  0  0  0  0
   -7.1940   22.4370  -31.1400 S   0  0  0  0  0  0  0  0  0  0  0  0
   -7.7440   23.4200  -32.1370 O   0  0  0  0  0  0  0  0  0  0  0  0
   -8.1370   22.3730  -29.9720 O   0  0  0  0  0  0  0  0  0  0  0  0
   -5.6150   22.9950  -30.5960 C   0  0  0  0  0  0  0  0  0  0  0  0
   -4.6720   22.0650  -30.1430 C   0  0  0  0  0  0  0  0  0  0  0  0
   -3.4200   22.4900  -29.6930 C   0  0  0  0  0  0  0  0  0  0  0  0
   -3.0970   23.8580  -29.6800 C   0  0  0  0  0  0  0  0  0  0  0  0
   -1.7820   24.3260  -29.1870 C   0  0  0  0  0  0  0  0  0  0  0  0
   -0.8750   23.4820  -28.9560 O   0  0  0  0  0  0  0  0  0  0  0  0
   -1.5030   25.7140  -28.9540 N   0  0  0  0  0  0  0  0  0  0  0  0
   -1.1320   26.2960  -27.6960 C   0  0  0  0  0  0  0  0  0  0  0  0
   -0.5040   27.5490  -27.7060 C   0  0  0  0  0  0  0  0  0  0  0  0
   -0.0590   28.1290  -26.5170 C   0  0  0  0  0  0  0  0  0  0  0  0
   -0.2500   27.4690  -25.3030 C   0  0  0  0  0  0  0  0  0  0  0  0
   -0.9070   26.2370  -25.2730 C   0  0  0  0  0  0  0  0  0  0  0  0
   -1.3730   25.6490  -26.4590 C   0  0  0  0  0  0  0  0  0  0  0  0
   -2.1330   24.4350  -26.3800 N   0  0  0  0  0  0  0  0  0  0  0  0
   -4.0360   24.7860  -30.1600 C   0  0  0  0  0  0  0  0  0  0  0  0
   -5.2880   24.3580  -30.6090 C   0  0  0  0  0  0  0  0  0  0  0  0
  -10.1853   20.7410  -31.5508 H   0  0  0  0  0  0  0  0  0  0  0  0
   -9.2386   21.3196  -32.9634 H   0  0  0  0  0  0  0  0  0  0  0  0
   -9.9292   19.6614  -32.9634 H   0  0  0  0  0  0  0  0  0  0  0  0
   -8.3301   19.8112  -30.6094 H   0  0  0  0  0  0  0  0  0  0  0  0
   -8.5980   17.7854  -31.8497 H   0  0  0  0  0  0  0  0  0  0  0  0
   -7.9592   18.5480  -33.3593 H   0  0  0  0  0  0  0  0  0  0  0  0
   -6.3637   18.0312  -30.8003 H   0  0  0  0  0  0  0  0  0  0  0  0
   -6.2649   17.0723  -32.3132 H   0  0  0  0  0  0  0  0  0  0  0  0
   -3.9842   17.5567  -32.9269 H   0  0  0  0  0  0  0  0  0  0  0  0
   -2.3729   19.2080  -33.8768 H   0  0  0  0  0  0  0  0  0  0  0  0
   -2.9664   21.6295  -33.9546 H   0  0  0  0  0  0  0  0  0  0  0  0
   -5.1486   22.4138  -33.0448 H   0  0  0  0  0  0  0  0  0  0  0  0
   -4.9185   20.9930  -30.1414 H   0  0  0  0  0  0  0  0  0  0  0  0
   -2.6829   21.7504  -29.3470 H   0  0  0  0  0  0  0  0  0  0  0  0
   -0.3607   28.0797  -28.6588 H   0  0  0  0  0  0  0  0  0  0  0  0
    0.4429   29.1076  -26.5373 H   0  0  0  0  0  0  0  0  0  0  0  0
    0.1171   27.9192  -24.3689 H   0  0  0  0  0  0  0  0  0  0  0  0
   -1.0604   25.7235  -24.3124 H   0  0  0  0  0  0  0  0  0  0  0  0
   -1.9290   23.6390  -27.0240 H   0  0  0  0  0  0  0  0  0  0  0  0
   -2.8300   24.2730  -25.6220 H   0  0  0  0  0  0  0  0  0  0  0  0
   -3.7840   25.8565  -30.1825 H   0  0  0  0  0  0  0  0  0  0  0  0
   -6.0199   25.0935  -30.9741 H   0  0  0  0  0  0  0  0  0  0  0  0
  1  2  1  0
  2  3  1  0
  3  4  1  0
  4  5  1  0
  5  6  2  0
  6  7  1  0
  7  8  2  0
  8  9  1  0
  9 10  2  0
 10 11  1  0
 11 12  1  0
 12 13  2  0
 12 14  2  0
 12 15  1  0
 15 16  2  0
 16 17  1  0
 17 18  2  0
 18 19  1  0
 19 20  2  0
 19 21  1  0
 21 22  1  0
 22 23  2  0
 23 24  1  0
 24 25  2  0
 25 26  1  0
 26 27  2  0
 27 28  1  0
 18 29  1  0
 29 30  2  0
 11  2  1  0
 30 15  1  0
 10  5  1  0
 27 22  1  0
  1 31  1  0
  1 32  1  0
  1 33  1  0
  2 34  1  1
  3 35  1  0
  3 36  1  0
  4 37  1  0
  4 38  1  0
  6 39  1  0
  7 40  1  0
  8 41  1  0
  9 42  1  0
 16 43  1  0
 17 44  1  0
 23 45  1  0
 24 46  1  0
 25 47  1  0
 26 48  1  0
 28 49  1  0
 28 50  1  0
 29 51  1  0
 30 52  1  0
M  CHG  1  21  -1
M  END
>  <UniqueID>  (24) 
23

>  <SMILES>  (24) 
C[C@H]1CCc2ccccc2N1S(=O)(=O)c1ccc(C(=O)[N-]c2ccccc2N)cc1

>  <Energy>  (24) 
68.63064335984582

>  <Genealogy>  (24) 
CC1CCc2ccccc2N1S(=O)(=O)c1ccc(C(=O)[N-]c2ccccc2N)cc1 (protonated)
C[C@H]1CCc2ccccc2N1S(=O)(=O)c1ccc(C(=O)[N-]c2ccccc2N)cc1 (chirality)
C[C@H]1CCc2ccccc2N1S(=O)(=O)c1ccc(C(=O)[N-]c2ccccc2N)cc1 (3D coordinates assigned)
C[C@H]1CCc2ccccc2N1S(=O)(=O)c1ccc(C(=O)[N-]c2ccccc2N)cc1 (nonaromatic ring conformer: 68.63064335984582 kcal/mol)

>  <smiles>  (24) 
CC1CCc2ccccc2N1S(=O)(=O)c1ccc(C(=O)Nc2ccccc2N)cc1

>  <score_type>  (24) 
oracle

>  <origin>  (24) 
adgpu

>  <m_score__min__energy>  (24) 
-11.59

>  <m_primary>  (24) 
energy

$$$$
24:0
     RDKit          3D

 28 30  0  0  0  0  0  0  0  0999 V2000
   -4.1410   20.1430  -33.2560 O   0  0  0  0  0  0  0  0  0  0  0  0
   -4.3660   20.9130  -32.2820 C   0  0  0  0  0  0  0  0  0  0  0  0
   -3.2980   21.5420  -31.6410 C   0  0  0  0  0  0  0  0  0  0  0  0
   -3.5560   22.3980  -30.5570 C   0  0  0  0  0  0  0  0  0  0  0  0
   -2.4590   23.0970  -29.8480 C   0  0  0  0  0  0  0  0  0  0  0  0
   -1.3760   22.3430  -29.3650 C   0  0  0  0  0  0  0  0  0  0  0  0
   -0.3220   22.9640  -28.6890 C   0  0  0  0  0  0  0  0  0  0  0  0
   -0.3310   24.3500  -28.4950 C   0  0  0  0  0  0  0  0  0  0  0  0
    0.7100   24.9800  -27.8190 O   0  0  0  0  0  0  0  0  0  0  0  0
   -1.3940   25.1130  -28.9910 C   0  0  0  0  0  0  0  0  0  0  0  0
   -2.4490   24.4990  -29.6730 C   0  0  0  0  0  0  0  0  0  0  0  0
   -3.4630   25.2930  -30.1980 O   0  0  0  0  0  0  0  0  0  0  0  0
   -4.8120   22.6140  -30.1690 O   0  0  0  0  0  0  0  0  0  0  0  0
   -5.8590   22.0370  -30.7500 C   0  0  0  0  0  0  0  0  0  0  0  0
   -7.1480   22.3100  -30.2810 C   0  0  0  0  0  0  0  0  0  0  0  0
   -8.2560   21.7070  -30.8830 C   0  0  0  0  0  0  0  0  0  0  0  0
   -8.0830   20.8300  -31.9590 C   0  0  0  0  0  0  0  0  0  0  0  0
   -9.4790   20.0790  -32.7110 Cl  0  0  0  0  0  0  0  0  0  0  0  0
   -6.7970   20.5530  -32.4380 C   0  0  0  0  0  0  0  0  0  0  0  0
   -5.6760   21.1530  -31.8380 C   0  0  0  0  0  0  0  0  0  0  0  0
   -2.2660   21.3697  -31.9804 H   0  0  0  0  0  0  0  0  0  0  0  0
   -1.3576   21.2542  -29.5203 H   0  0  0  0  0  0  0  0  0  0  0  0
    0.5164   22.3621  -28.3086 H   0  0  0  0  0  0  0  0  0  0  0  0
    1.1870   25.7830  -28.2120 H   0  0  0  0  0  0  0  0  0  0  0  0
   -1.3997   26.2030  -28.8434 H   0  0  0  0  0  0  0  0  0  0  0  0
   -7.2901   23.0006  -29.4367 H   0  0  0  0  0  0  0  0  0  0  0  0
   -9.2678   21.9229  -30.5093 H   0  0  0  0  0  0  0  0  0  0  0  0
   -6.6634   19.8646  -33.2855 H   0  0  0  0  0  0  0  0  0  0  0  0
  1  2  2  0
  2  3  1  0
  3  4  2  0
  4  5  1  0
  5  6  2  0
  6  7  1  0
  7  8  2  0
  8  9  1  0
  8 10  1  0
 10 11  2  0
 11 12  1  0
  4 13  1  0
 13 14  1  0
 14 15  2  0
 15 16  1  0
 16 17  2  0
 17 18  1  0
 17 19  1  0
 19 20  2  0
 20  2  1  0
 11  5  1  0
 20 14  1  0
  3 21  1  0
  6 22  1  0
  7 23  1  0
  9 24  1  0
 10 25  1  0
 15 26  1  0
 16 27  1  0
 19 28  1  0
M  CHG  1  12  -1
M  END
>  <UniqueID>  (25) 
24

>  <SMILES>  (25) 
O=c1cc(-c2ccc(O)cc2[O-])oc2ccc(Cl)cc12

>  <Energy>  (25) 
41.39590687088478

>  <Genealogy>  (25) 
O=c1cc(-c2ccc(O)cc2[O-])oc2ccc(Cl)cc12 (protonated)
O=c1cc(-c2ccc(O)cc2[O-])oc2ccc(Cl)cc12 (3D coordinates assigned)
O=c1cc(-c2ccc(O)cc2[O-])oc2ccc(Cl)cc12 (optimized conformer: 41.39590687088478 kcal/mol)

>  <smiles>  (25) 
O=c1cc(-c2ccc(O)cc2O)oc2ccc(Cl)cc12

>  <score_type>  (25) 
oracle

>  <origin>  (25) 
adgpu

>  <m_score__min__energy>  (25) 
-9.6500000000000004

>  <m_primary>  (25) 
energy

$$$$
25:0
     RDKit          3D

 64 67  0  0  0  0  0  0  0  0999 V2000
   -2.4660   23.6440  -27.5180 C   0  0  0  0  0  0  0  0  0  0  0  0
   -3.2440   24.2670  -28.6300 C   0  0  0  0  0  0  0  0  0  0  0  0
   -4.6150   24.2290  -28.7790 C   0  0  0  0  0  0  0  0  0  0  0  0
   -4.8320   24.9050  -29.9600 C   0  0  0  0  0  0  0  0  0  0  0  0
   -6.1690   25.1990  -30.5780 C   0  0  0  0  0  0  0  0  0  0  0  0
   -6.3190   24.4990  -31.8150 O   0  0  0  0  0  0  0  0  0  0  0  0
   -6.5480   23.1160  -31.9350 C   0  0  0  0  0  0  0  0  0  0  0  0
   -7.6810   22.4900  -31.3850 C   0  0  0  0  0  0  0  0  0  0  0  0
   -7.8230   21.1010  -31.4510 C   0  0  0  0  0  0  0  0  0  0  0  0
   -6.8370   20.3090  -32.0680 C   0  0  0  0  0  0  0  0  0  0  0  0
   -6.9250   18.8680  -32.0100 N   0  0  0  0  0  0  0  0  0  0  0  0
   -7.7530   18.1080  -32.9580 C   0  0  0  0  0  0  0  0  0  0  0  0
   -6.8360   17.2770  -33.8640 C   0  0  0  0  0  0  0  0  0  0  0  0
   -5.7610   16.6370  -33.0890 N   0  0  0  0  0  0  0  0  0  0  0  0
   -4.5520   16.2890  -33.7790 C   0  0  0  0  0  0  0  0  0  0  0  0
   -3.8180   17.2020  -34.2380 O   0  0  0  0  0  0  0  0  0  0  0  0
   -4.1600   14.9170  -33.9370 N   0  0  0  0  0  0  0  0  0  0  0  0
   -3.5690   14.4640  -35.2010 C   0  0  0  0  0  0  0  0  0  0  0  0
   -2.1310   13.9650  -34.9610 C   0  0  0  0  0  0  0  0  0  0  0  0
   -1.9590   13.1520  -33.7150 N   0  0  0  0  0  0  0  0  0  0  0  0
   -0.9510   13.7600  -32.7900 C   0  0  0  0  0  0  0  0  0  0  0  0
   -1.0360   15.2990  -32.7000 C   0  0  0  0  0  0  0  0  0  0  0  0
   -1.1530   13.2030  -31.3660 C   0  0  0  0  0  0  0  0  0  0  0  0
   -3.2600   12.7800  -33.0940 C   0  0  0  0  0  0  0  0  0  0  0  0
   -4.1010   14.0240  -32.7740 C   0  0  0  0  0  0  0  0  0  0  0  0
   -5.7940   16.6810  -31.6210 C   0  0  0  0  0  0  0  0  0  0  0  0
   -5.9820   18.1320  -31.1510 C   0  0  0  0  0  0  0  0  0  0  0  0
   -5.7260   20.9450  -32.6550 C   0  0  0  0  0  0  0  0  0  0  0  0
   -5.5930   22.3370  -32.5980 C   0  0  0  0  0  0  0  0  0  0  0  0
   -3.6540   25.2930  -30.4880 N   0  0  0  0  0  0  0  0  0  0  0  0
   -2.6820   24.8980  -29.6790 N   0  0  0  0  0  0  0  0  0  0  0  0
   -2.8778   23.9738  -26.5528 H   0  0  0  0  0  0  0  0  0  0  0  0
   -2.5350   22.5486  -27.5911 H   0  0  0  0  0  0  0  0  0  0  0  0
   -1.4122   23.9507  -27.5911 H   0  0  0  0  0  0  0  0  0  0  0  0
   -5.3590   23.7681  -28.1126 H   0  0  0  0  0  0  0  0  0  0  0  0
   -6.9638   24.8836  -29.8860 H   0  0  0  0  0  0  0  0  0  0  0  0
   -6.2387   26.2794  -30.7725 H   0  0  0  0  0  0  0  0  0  0  0  0
   -8.4598   23.0969  -30.9001 H   0  0  0  0  0  0  0  0  0  0  0  0
   -8.7134   20.6228  -31.0168 H   0  0  0  0  0  0  0  0  0  0  0  0
   -8.4290   17.4398  -32.4044 H   0  0  0  0  0  0  0  0  0  0  0  0
   -8.3514   18.8005  -33.5682 H   0  0  0  0  0  0  0  0  0  0  0  0
   -7.4328   16.4980  -34.3611 H   0  0  0  0  0  0  0  0  0  0  0  0
   -6.3787   17.9477  -34.6063 H   0  0  0  0  0  0  0  0  0  0  0  0
   -4.1752   13.6439  -35.6134 H   0  0  0  0  0  0  0  0  0  0  0  0
   -3.5461   15.3041  -35.9107 H   0  0  0  0  0  0  0  0  0  0  0  0
   -1.8338   13.3455  -35.8200 H   0  0  0  0  0  0  0  0  0  0  0  0
   -1.5035   14.8605  -34.8411 H   0  0  0  0  0  0  0  0  0  0  0  0
    0.0327   13.4973  -33.2063 H   0  0  0  0  0  0  0  0  0  0  0  0
   -1.0529   15.6041  -31.6433 H   0  0  0  0  0  0  0  0  0  0  0  0
   -0.1611   15.7442  -33.1963 H   0  0  0  0  0  0  0  0  0  0  0  0
   -1.9546   15.6451  -33.1963 H   0  0  0  0  0  0  0  0  0  0  0  0
   -0.8746   13.9707  -30.6291 H   0  0  0  0  0  0  0  0  0  0  0  0
   -2.2086   12.9267  -31.2267 H   0  0  0  0  0  0  0  0  0  0  0  0
   -0.5199   12.3143  -31.2267 H   0  0  0  0  0  0  0  0  0  0  0  0
   -3.8195   12.1388  -33.7910 H   0  0  0  0  0  0  0  0  0  0  0  0
   -3.0562   12.2472  -32.1535 H   0  0  0  0  0  0  0  0  0  0  0  0
   -5.1209   13.7121  -32.5049 H   0  0  0  0  0  0  0  0  0  0  0  0
   -3.6355   14.5622  -31.9352 H   0  0  0  0  0  0  0  0  0  0  0  0
   -6.6302   16.0669  -31.2554 H   0  0  0  0  0  0  0  0  0  0  0  0
   -4.8464   16.2888  -31.2232 H   0  0  0  0  0  0  0  0  0  0  0  0
   -6.3692   18.1253  -30.1214 H   0  0  0  0  0  0  0  0  0  0  0  0
   -5.0063   18.6372  -31.2035 H   0  0  0  0  0  0  0  0  0  0  0  0
   -4.9572   20.3433  -33.1619 H   0  0  0  0  0  0  0  0  0  0  0  0
   -4.7308   22.8227  -33.0782 H   0  0  0  0  0  0  0  0  0  0  0  0
  1  2  1  0
  2  3  1  0
  3  4  2  0
  4  5  1  0
  5  6  1  0
  6  7  1  0
  7  8  2  0
  8  9  1  0
  9 10  2  0
 10 11  1  0
 11 12  1  0
 12 13  1  0
 13 14  1  0
 14 15  1  0
 15 16  2  0
 15 17  1  0
 17 18  1  0
 18 19  1  0
 19 20  1  0
 20 21  1  0
 21 22  1  0
 21 23  1  0
 20 24  1  0
 24 25  1  0
 14 26  1  0
 26 27  1  0
 10 28  1  0
 28 29  2  0
  4 30  1  0
 30 31  1  0
 31  2  2  0
 29  7  1  0
 27 11  1  0
 25 17  1  0
  1 32  1  0
  1 33  1  0
  1 34  1  0
  3 35  1  0
  5 36  1  0
  5 37  1  0
  8 38  1  0
  9 39  1  0
 12 40  1  0
 12 41  1  0
 13 42  1  0
 13 43  1  0
 18 44  1  0
 18 45  1  0
 19 46  1  0
 19 47  1  0
 21 48  1  0
 22 49  1  0
 22 50  1  0
 22 51  1  0
 23 52  1  0
 23 53  1  0
 23 54  1  0
 24 55  1  0
 24 56  1  0
 25 57  1  0
 25 58  1  0
 26 59  1  0
 26 60  1  0
 27 61  1  0
 27 62  1  0
 28 63  1  0
 29 64  1  0
M  CHG  1  30  -1
M  END
>  <UniqueID>  (26) 
25

>  <SMILES>  (26) 
Cc1cc(COc2ccc(N3CCN(C(=O)N4CCN(C(C)C)CC4)CC3)cc2)[n-]n1

>  <Energy>  (26) 
120.2834999364274

>  <Genealogy>  (26) 
Cc1cc(COc2ccc(N3CCN(C(=O)N4CCN(C(C)C)CC4)CC3)cc2)[n-]n1 (protonated)
Cc1cc(COc2ccc(N3CCN(C(=O)N4CCN(C(C)C)CC4)CC3)cc2)[n-]n1 (3D coordinates assigned)
Cc1cc(COc2ccc(N3CCN(C(=O)N4CCN(C(C)C)CC4)CC3)cc2)[n-]n1 (nonaromatic ring conformer: 120.2834999364274 kcal/mol)

>  <smiles>  (26) 
Cc1cc(COc2ccc(N3CCN(C(=O)N4CCN(C(C)C)CC4)CC3)cc2)[nH]n1

>  <score_type>  (26) 
oracle

>  <origin>  (26) 
adgpu

>  <m_score__min__energy>  (26) 
-10.380000000000001

>  <m_primary>  (26) 
energy

$$$$
26:0
     RDKit          3D

 58 62  0  0  0  0  0  0  0  0999 V2000
   -8.7963   20.8095  -32.2358 H   0  0  0  0  0  0  0  0  0  0  0  0
   -7.7450   20.6030  -32.4850 C   0  0  0  0  0  0  0  0  0  0  0  0
   -7.3880   19.3570  -33.0000 C   0  0  0  0  0  0  0  0  0  0  0  0
   -8.1609   18.5886  -33.1485 H   0  0  0  0  0  0  0  0  0  0  0  0
   -6.0540   19.0720  -33.3310 C   0  0  0  0  0  0  0  0  0  0  0  0
   -5.7220   17.7280  -33.9240 C   0  0  0  0  0  0  0  0  0  0  0  0
   -5.5432   17.0044  -33.1151 H   0  0  0  0  0  0  0  0  0  0  0  0
   -6.5621   17.3836  -34.5450 H   0  0  0  0  0  0  0  0  0  0  0  0
   -4.8182   17.8144  -34.5450 H   0  0  0  0  0  0  0  0  0  0  0  0
   -5.0590   20.0530  -33.1060 C   0  0  0  0  0  0  0  0  0  0  0  0
   -3.6710   19.7940  -33.3890 N   0  0  0  0  0  0  0  0  0  0  0  0
   -3.0810   18.6170  -33.2610 N   0  0  0  0  0  0  0  0  0  0  0  0
   -1.7930   18.7100  -33.5570 N   0  0  0  0  0  0  0  0  0  0  0  0
   -1.5530   19.9990  -33.8800 C   0  0  0  0  0  0  0  0  0  0  0  0
   -0.2270   20.5250  -34.2820 C   0  0  0  0  0  0  0  0  0  0  0  0
    0.9360   19.8000  -33.9710 C   0  0  0  0  0  0  0  0  0  0  0  0
    0.8541   18.8482  -33.4257 H   0  0  0  0  0  0  0  0  0  0  0  0
    2.1960   20.2750  -34.3470 C   0  0  0  0  0  0  0  0  0  0  0  0
    3.0968   19.6951  -34.0975 H   0  0  0  0  0  0  0  0  0  0  0  0
    2.3160   21.4860  -35.0400 C   0  0  0  0  0  0  0  0  0  0  0  0
    3.5770   21.9700  -35.4220 C   0  0  0  0  0  0  0  0  0  0  0  0
    4.4830   21.3964  -35.1765 H   0  0  0  0  0  0  0  0  0  0  0  0
    3.6830   23.1800  -36.1140 C   0  0  0  0  0  0  0  0  0  0  0  0
    4.6725   23.5557  -36.4136 H   0  0  0  0  0  0  0  0  0  0  0  0
    2.5360   23.9130  -36.4260 C   0  0  0  0  0  0  0  0  0  0  0  0
    2.6255   24.8658  -36.9684 H   0  0  0  0  0  0  0  0  0  0  0  0
    1.2750   23.4410  -36.0520 C   0  0  0  0  0  0  0  0  0  0  0  0
    0.3754   24.0222  -36.3028 H   0  0  0  0  0  0  0  0  0  0  0  0
    1.1530   22.2270  -35.3570 C   0  0  0  0  0  0  0  0  0  0  0  0
   -0.1080   21.7440  -34.9760 C   0  0  0  0  0  0  0  0  0  0  0  0
   -1.0108   22.3224  -35.2215 H   0  0  0  0  0  0  0  0  0  0  0  0
   -2.7430   20.6920  -33.7680 C   0  0  0  0  0  0  0  0  0  0  0  0
   -2.9007   21.7650  -33.9521 H   0  0  0  0  0  0  0  0  0  0  0  0
   -5.4330   21.3090  -32.5940 C   0  0  0  0  0  0  0  0  0  0  0  0
   -4.6638   22.0792  -32.4353 H   0  0  0  0  0  0  0  0  0  0  0  0
   -6.7730   21.5960  -32.2820 C   0  0  0  0  0  0  0  0  0  0  0  0
   -7.1570   22.9230  -31.7430 C   0  0  0  0  0  0  0  0  0  0  0  0
   -8.2930   23.0740  -31.2170 O   0  0  0  0  0  0  0  0  0  0  0  0
   -6.2220   24.0160  -31.8000 N   0  0  0  0  0  0  0  0  0  0  0  0
   -5.2270   24.2680  -31.0000 C   0  0  0  0  0  0  0  0  0  0  0  0
   -4.4030   25.3140  -31.1880 N   0  0  0  0  0  0  0  0  0  0  0  0
   -3.5330   25.2860  -30.2220 O   0  0  0  0  0  0  0  0  0  0  0  0
   -3.7500   24.2730  -29.4100 C   0  0  0  0  0  0  0  0  0  0  0  0
   -2.9360   23.9740  -28.1660 C   0  0  0  0  0  0  0  0  0  0  0  0
   -1.5420   24.6170  -28.2840 C   0  0  0  0  0  0  0  0  0  0  0  0
   -1.1379   24.8034  -27.2781 H   0  0  0  0  0  0  0  0  0  0  0  0
   -0.8699   23.9379  -28.8291 H   0  0  0  0  0  0  0  0  0  0  0  0
   -1.6223   25.5690  -28.8291 H   0  0  0  0  0  0  0  0  0  0  0  0
   -2.7920   22.4490  -28.0150 C   0  0  0  0  0  0  0  0  0  0  0  0
   -2.7673   22.1870  -26.9469 H   0  0  0  0  0  0  0  0  0  0  0  0
   -3.6471   21.9506  -28.4951 H   0  0  0  0  0  0  0  0  0  0  0  0
   -1.8587   22.1195  -28.4951 H   0  0  0  0  0  0  0  0  0  0  0  0
   -3.6460   24.5430  -26.9210 C   0  0  0  0  0  0  0  0  0  0  0  0
   -3.1614   24.1547  -26.0130 H   0  0  0  0  0  0  0  0  0  0  0  0
   -3.5799   25.6410  -26.9309 H   0  0  0  0  0  0  0  0  0  0  0  0
   -4.7032   24.2393  -26.9309 H   0  0  0  0  0  0  0  0  0  0  0  0
   -4.8500   23.5690  -29.8660 C   0  0  0  0  0  0  0  0  0  0  0  0
   -5.3134   22.6706  -29.4323 H   0  0  0  0  0  0  0  0  0  0  0  0
  1  2  1  0
  2  3  2  0
  3  4  1  0
  3  5  1  0
  5  6  1  0
  6  7  1  0
  6  8  1  0
  6  9  1  0
  5 10  2  0
 10 11  1  0
 11 12  1  0
 12 13  2  0
 13 14  1  0
 14 15  1  0
 15 16  2  0
 16 17  1  0
 16 18  1  0
 18 19  1  0
 18 20  2  0
 20 21  1  0
 21 22  1  0
 21 23  2  0
 23 24  1  0
 23 25  1  0
 25 26  1  0
 25 27  2  0
 27 28  1  0
 27 29  1  0
 29 30  2  0
 30 31  1  0
 14 32  2  0
 32 33  1  0
 10 34  1  0
 34 35  1  0
 34 36  2  0
 36 37  1  0
 37 38  2  0
 37 39  1  0
 39 40  2  0
 40 41  1  0
 41 42  1  0
 42 43  1  0
 43 44  1  0
 44 45  1  0
 45 46  1  0
 45 47  1  0
 45 48  1  0
 44 49  1  0
 49 50  1  0
 49 51  1  0
 49 52  1  0
 44 53  1  0
 53 54  1  0
 53 55  1  0
 53 56  1  0
 43 57  2  0
 57 58  1  0
 36  2  1  0
 57 40  1  0
 32 11  1  0
 30 15  1  0
 29 20  1  0
M  CHG  1  41  -1
M  END
>  <UniqueID>  (27) 
26

>  <SMILES>  (27) 
Cc1ccc(C(=O)/N=c2\cc(C(C)(C)C)o[n-]2)cc1-n1cc(-c2ccc3ccccc3c2)nn1

>  <Energy>  (27) 
140.19101246908875

>  <Genealogy>  (27) 
Cc1ccc(C(=O)N=c2cc(C(C)(C)C)o[n-]2)cc1-n1cc(-c2ccc3ccccc3c2)nn1 (protonated)
Cc1ccc(C(=O)/N=c2\cc(C(C)(C)C)o[n-]2)cc1-n1cc(-c2ccc3ccccc3c2)nn1 (cis-trans isomerization)
Cc1ccc(C(=O)/N=c2\cc(C(C)(C)C)o[n-]2)cc1-n1cc(-c2ccc3ccccc3c2)nn1 (3D coordinates assigned)
Cc1ccc(C(=O)/N=c2\cc(C(C)(C)C)o[n-]2)cc1-n1cc(-c2ccc3ccccc3c2)nn1 (optimized conformer: 140.19101246908875 kcal/mol)

>  <smiles>  (27) 
Cc1ccc(C(=O)N=c2cc(C(C)(C)C)o[nH]2)cc1-n1cc(-c2ccc3ccccc3c2)nn1

>  <score_type>  (27) 
oracle

>  <origin>  (27) 
adgpu

>  <m_score__min__energy>  (27) 
-13.02

>  <m_primary>  (27) 
energy

$$$$
27:0
     RDKit          3D

 76 81  0  0  0  0  0  0  0  0999 V2000
   -0.1960   24.2750  -27.3670 C   0  0  0  0  0  0  0  0  0  0  0  0
   -0.0900   24.1180  -28.7780 O   0  0  0  0  0  0  0  0  0  0  0  0
   -1.1370   23.6950  -29.6120 C   0  0  0  0  0  0  0  0  0  0  0  0
   -1.0690   22.5050  -30.3590 C   0  0  0  0  0  0  0  0  0  0  0  0
   -2.1400   22.1090  -31.1760 C   0  0  0  0  0  0  0  0  0  0  0  0
   -2.0630   20.8500  -31.9590 C   0  0  0  0  0  0  0  0  0  0  0  0
   -1.4260   19.7200  -31.4300 C   0  0  0  0  0  0  0  0  0  0  0  0
   -1.3540   18.5330  -32.1630 C   0  0  0  0  0  0  0  0  0  0  0  0
   -1.9230   18.4320  -33.4560 C   0  0  0  0  0  0  0  0  0  0  0  0
   -1.8440   17.1930  -34.2330 N   0  0  0  0  0  0  0  0  0  0  0  0
   -3.0900   16.4220  -34.4740 C   0  0  0  0  0  0  0  0  0  0  0  0
   -4.2630   16.8230  -33.6260 C   0  0  0  0  0  0  0  0  0  0  0  0
   -5.0370   17.9540  -33.7670 C   0  0  0  0  0  0  0  0  0  0  0  0
   -6.0130   17.8610  -32.8410 N   0  0  0  0  0  0  0  0  0  0  0  0
   -7.0910   18.7880  -32.5900 C   0  0  0  0  0  0  0  0  0  0  0  0
   -8.4060   18.3380  -32.3580 C   0  0  0  0  0  0  0  0  0  0  0  0
   -9.4370   19.2510  -32.1170 C   0  0  0  0  0  0  0  0  0  0  0  0
   -9.1690   20.6230  -32.1010 C   0  0  0  0  0  0  0  0  0  0  0  0
  -10.1710   21.5060  -31.8690 F   0  0  0  0  0  0  0  0  0  0  0  0
   -7.8720   21.0820  -32.3330 C   0  0  0  0  0  0  0  0  0  0  0  0
   -6.8390   20.1720  -32.5770 C   0  0  0  0  0  0  0  0  0  0  0  0
   -5.8390   16.7270  -32.1780 N   0  0  0  0  0  0  0  0  0  0  0  0
   -4.7820   16.0710  -32.6370 N   0  0  0  0  0  0  0  0  0  0  0  0
   -0.5480   16.7670  -34.8100 C   0  0  0  0  0  0  0  0  0  0  0  0
    0.0950   17.9050  -35.5400 C   0  0  0  0  0  0  0  0  0  0  0  0
    0.4330   19.1320  -35.0180 C   0  0  0  0  0  0  0  0  0  0  0  0
    0.9460   19.8450  -36.0380 N   0  0  0  0  0  0  0  0  0  0  0  0
    1.4310   21.2000  -35.9820 C   0  0  0  0  0  0  0  0  0  0  0  0
    0.5160   22.2610  -36.1050 C   0  0  0  0  0  0  0  0  0  0  0  0
    0.9490   23.5860  -36.0590 C   0  0  0  0  0  0  0  0  0  0  0  0
    2.3080   23.8810  -35.9010 C   0  0  0  0  0  0  0  0  0  0  0  0
    2.7680   25.3070  -35.8190 C   0  0  0  0  0  0  0  0  0  0  0  0
    3.2280   22.8340  -35.7600 C   0  0  0  0  0  0  0  0  0  0  0  0
    2.8100   21.4920  -35.8190 C   0  0  0  0  0  0  0  0  0  0  0  0
    3.8450   20.4040  -35.7150 C   0  0  0  0  0  0  0  0  0  0  0  0
    0.9410   19.0820  -37.1200 N   0  0  0  0  0  0  0  0  0  0  0  0
    0.4260   17.8910  -36.8470 N   0  0  0  0  0  0  0  0  0  0  0  0
   -2.5660   19.5830  -33.9730 C   0  0  0  0  0  0  0  0  0  0  0  0
   -2.6300   20.7700  -33.2380 C   0  0  0  0  0  0  0  0  0  0  0  0
   -3.2860   22.9190  -31.2440 C   0  0  0  0  0  0  0  0  0  0  0  0
   -3.3640   24.1140  -30.5060 C   0  0  0  0  0  0  0  0  0  0  0  0
   -4.4900   24.9520  -30.5560 O   0  0  0  0  0  0  0  0  0  0  0  0
   -5.5780   24.8980  -29.6380 C   0  0  0  0  0  0  0  0  0  0  0  0
   -2.2880   24.4910  -29.6930 C   0  0  0  0  0  0  0  0  0  0  0  0
   -2.3610   25.6710  -28.9590 O   0  0  0  0  0  0  0  0  0  0  0  0
    0.3519   23.4636  -26.8656 H   0  0  0  0  0  0  0  0  0  0  0  0
    0.2335   25.2439  -27.0726 H   0  0  0  0  0  0  0  0  0  0  0  0
   -1.2553   24.2388  -27.0726 H   0  0  0  0  0  0  0  0  0  0  0  0
   -0.1670   21.8779  -30.3025 H   0  0  0  0  0  0  0  0  0  0  0  0
   -0.9777   19.7679  -30.4266 H   0  0  0  0  0  0  0  0  0  0  0  0
   -0.8456   17.6601  -31.7276 H   0  0  0  0  0  0  0  0  0  0  0  0
   -3.3723   16.5522  -35.5292 H   0  0  0  0  0  0  0  0  0  0  0  0
   -2.8613   15.3799  -34.2063 H   0  0  0  0  0  0  0  0  0  0  0  0
   -4.8886   18.7696  -34.4901 H   0  0  0  0  0  0  0  0  0  0  0  0
   -8.6231   17.2597  -32.3666 H   0  0  0  0  0  0  0  0  0  0  0  0
  -10.4606   18.8893  -31.9397 H   0  0  0  0  0  0  0  0  0  0  0  0
   -7.6618   22.1617  -32.3239 H   0  0  0  0  0  0  0  0  0  0  0  0
   -5.8194   20.5418  -32.7606 H   0  0  0  0  0  0  0  0  0  0  0  0
    0.1175   16.4331  -34.0003 H   0  0  0  0  0  0  0  0  0  0  0  0
   -0.7247   15.9428  -35.5167 H   0  0  0  0  0  0  0  0  0  0  0  0
    0.3090   19.4638  -33.9766 H   0  0  0  0  0  0  0  0  0  0  0  0
   -0.5539   22.0432  -36.2391 H   0  0  0  0  0  0  0  0  0  0  0  0
    0.2184   24.4036  -36.1474 H   0  0  0  0  0  0  0  0  0  0  0  0
    2.8630   25.6015  -34.7634 H   0  0  0  0  0  0  0  0  0  0  0  0
    3.7439   25.4067  -36.3167 H   0  0  0  0  0  0  0  0  0  0  0  0
    2.0343   25.9581  -36.3167 H   0  0  0  0  0  0  0  0  0  0  0  0
    4.2918   23.0643  -35.6010 H   0  0  0  0  0  0  0  0  0  0  0  0
    4.0477   20.1909  -34.6551 H   0  0  0  0  0  0  0  0  0  0  0  0
    3.4711   19.4940  -36.2070 H   0  0  0  0  0  0  0  0  0  0  0  0
    4.7725   20.7320  -36.2070 H   0  0  0  0  0  0  0  0  0  0  0  0
   -3.0239   19.5420  -34.9723 H   0  0  0  0  0  0  0  0  0  0  0  0
   -3.1305   21.6502  -33.6678 H   0  0  0  0  0  0  0  0  0  0  0  0
   -4.1304   22.6158  -31.8805 H   0  0  0  0  0  0  0  0  0  0  0  0
   -5.1905   24.9172  -28.6087 H   0  0  0  0  0  0  0  0  0  0  0  0
   -6.2363   25.7646  -29.7982 H   0  0  0  0  0  0  0  0  0  0  0  0
   -6.1473   23.9705  -29.7982 H   0  0  0  0  0  0  0  0  0  0  0  0
  1  2  1  0
  2  3  1  0
  3  4  2  0
  4  5  1  0
  5  6  1  0
  6  7  2  0
  7  8  1  0
  8  9  2  0
  9 10  1  0
 10 11  1  0
 11 12  1  0
 12 13  2  0
 13 14  1  0
 14 15  1  0
 15 16  2  0
 16 17  1  0
 17 18  2  0
 18 19  1  0
 18 20  1  0
 20 21  2  0
 14 22  1  0
 22 23  2  0
 10 24  1  0
 24 25  1  0
 25 26  2  0
 26 27  1  0
 27 28  1  0
 28 29  2  0
 29 30  1  0
 30 31  2  0
 31 32  1  0
 31 33  1  0
 33 34  2  0
 34 35  1  0
 27 36  1  0
 36 37  2  0
  9 38  1  0
 38 39  2  0
  5 40  2  0
 40 41  1  0
 41 42  1  0
 42 43  1  0
 41 44  2  0
 44 45  1  0
 44  3  1  0
 39  6  1  0
 23 12  1  0
 37 25  1  0
 21 15  1  0
 34 28  1  0
  1 46  1  0
  1 47  1  0
  1 48  1  0
  4 49  1  0
  7 50  1  0
  8 51  1  0
 11 52  1  0
 11 53  1  0
 13 54  1  0
 16 55  1  0
 17 56  1  0
 20 57  1  0
 21 58  1  0
 24 59  1  0
 24 60  1  0
 26 61  1  0
 29 62  1  0
 30 63  1  0
 32 64  1  0
 32 65  1  0
 32 66  1  0
 33 67  1  0
 35 68  1  0
 35 69  1  0
 35 70  1  0
 38 71  1  0
 39 72  1  0
 40 73  1  0
 43 74  1  0
 43 75  1  0
 43 76  1  0
M  CHG  1  45  -1
M  END
>  <UniqueID>  (28) 
27

>  <SMILES>  (28) 
COc1cc(-c2ccc(N(Cc3cn(-c4ccc(F)cc4)nn3)Cc3cn(-c4ccc(C)cc4C)nn3)cc2)cc(OC)c1[O-]

>  <Energy>  (28) 
171.4979005637701

>  <Genealogy>  (28) 
COc1cc(-c2ccc(N(Cc3cn(-c4ccc(F)cc4)nn3)Cc3cn(-c4ccc(C)cc4C)nn3)cc2)cc(OC)c1[O-] (protonated)
COc1cc(-c2ccc(N(Cc3cn(-c4ccc(F)cc4)nn3)Cc3cn(-c4ccc(C)cc4C)nn3)cc2)cc(OC)c1[O-] (3D coordinates assigned)
COc1cc(-c2ccc(N(Cc3cn(-c4ccc(F)cc4)nn3)Cc3cn(-c4ccc(C)cc4C)nn3)cc2)cc(OC)c1[O-] (optimized conformer: 171.4979005637701 kcal/mol)

>  <smiles>  (28) 
COc1cc(-c2ccc(N(Cc3cn(-c4ccc(F)cc4)nn3)Cc3cn(-c4ccc(C)cc4C)nn3)cc2)cc(OC)c1O

>  <score_type>  (28) 
oracle

>  <origin>  (28) 
adgpu

>  <m_score__min__energy>  (28) 
-13.58

>  <m_primary>  (28) 
energy

$$$$
28:0
     RDKit          3D

 38 40  0  0  0  0  0  0  0  0999 V2000
   -3.1020   20.5490  -33.9990 N   0  0  0  0  0  0  0  0  0  0  0  0
   -2.5480   19.2720  -33.6980 C   0  0  0  0  0  0  0  0  0  0  0  0
   -2.8340   17.9580  -34.0350 C   0  0  0  0  0  0  0  0  0  0  0  0
   -3.7890   17.2830  -34.8600 N   0  0  0  0  0  0  0  0  0  0  0  0
   -5.0750   16.8030  -34.3560 C   0  0  0  0  0  0  0  0  0  0  0  0
   -5.8140   17.8900  -33.6140 C   0  0  0  0  0  0  0  0  0  0  0  0
   -6.0950   19.1100  -34.2510 C   0  0  0  0  0  0  0  0  0  0  0  0
   -6.8410   20.0930  -33.5970 C   0  0  0  0  0  0  0  0  0  0  0  0
   -7.3160   19.8730  -32.2950 C   0  0  0  0  0  0  0  0  0  0  0  0
   -8.2090   20.8580  -31.6500 C   0  0  0  0  0  0  0  0  0  0  0  0
   -9.1660   20.4540  -30.9380 O   0  0  0  0  0  0  0  0  0  0  0  0
   -8.0310   22.2700  -31.8350 N   0  0  0  0  0  0  0  0  0  0  0  0
   -6.8570   23.0200  -31.4860 C   0  0  0  0  0  0  0  0  0  0  0  0
   -5.5620   22.5300  -31.7420 C   0  0  0  0  0  0  0  0  0  0  0  0
   -4.4400   23.2910  -31.4020 C   0  0  0  0  0  0  0  0  0  0  0  0
   -4.5990   24.5340  -30.7820 C   0  0  0  0  0  0  0  0  0  0  0  0
   -3.4840   25.2910  -30.4450 O   0  0  0  0  0  0  0  0  0  0  0  0
   -5.8820   25.0130  -30.4960 C   0  0  0  0  0  0  0  0  0  0  0  0
   -7.0070   24.2540  -30.8410 C   0  0  0  0  0  0  0  0  0  0  0  0
   -6.9610   18.6900  -31.6280 C   0  0  0  0  0  0  0  0  0  0  0  0
   -6.2080   17.7110  -32.2780 C   0  0  0  0  0  0  0  0  0  0  0  0
   -1.7790   17.5330  -33.2500 C   0  0  0  0  0  0  0  0  0  0  0  0
   -1.2850   16.4130  -32.9550 O   0  0  0  0  0  0  0  0  0  0  0  0
   -1.4830   18.8420  -32.9300 C   0  0  0  0  0  0  0  0  0  0  0  0
   -0.6090   19.4100  -32.2260 O   0  0  0  0  0  0  0  0  0  0  0  0
   -4.0090   20.8470  -33.5830 H   0  0  0  0  0  0  0  0  0  0  0  0
   -2.5760   21.2150  -34.6060 H   0  0  0  0  0  0  0  0  0  0  0  0
   -3.5890   17.2010  -35.8820 H   0  0  0  0  0  0  0  0  0  0  0  0
   -5.6894   16.4669  -35.2043 H   0  0  0  0  0  0  0  0  0  0  0  0
   -4.8866   15.9733  -33.6588 H   0  0  0  0  0  0  0  0  0  0  0  0
   -5.7253   19.2922  -35.2709 H   0  0  0  0  0  0  0  0  0  0  0  0
   -7.0573   21.0444  -34.1050 H   0  0  0  0  0  0  0  0  0  0  0  0
   -5.4328   21.5438  -32.2117 H   0  0  0  0  0  0  0  0  0  0  0  0
   -3.4312   22.9117  -31.6224 H   0  0  0  0  0  0  0  0  0  0  0  0
   -6.0071   25.9867  -29.9997 H   0  0  0  0  0  0  0  0  0  0  0  0
   -8.0137   24.6289  -30.6042 H   0  0  0  0  0  0  0  0  0  0  0  0
   -7.2783   18.5336  -30.5864 H   0  0  0  0  0  0  0  0  0  0  0  0
   -5.9217   16.7946  -31.7411 H   0  0  0  0  0  0  0  0  0  0  0  0
  1  2  1  0
  2  3  2  0
  3  4  1  0
  4  5  1  0
  5  6  1  0
  6  7  2  0
  7  8  1  0
  8  9  2  0
  9 10  1  0
 10 11  2  0
 10 12  1  0
 12 13  1  0
 13 14  2  0
 14 15  1  0
 15 16  2  0
 16 17  1  0
 16 18  1  0
 18 19  2  0
  9 20  1  0
 20 21  2  0
  3 22  1  0
 22 23  2  0
 22 24  1  0
 24 25  2  0
 24  2  1  0
 21  6  1  0
 19 13  1  0
  1 26  1  0
  1 27  1  0
  4 28  1  0
  5 29  1  0
  5 30  1  0
  7 31  1  0
  8 32  1  0
 14 33  1  0
 15 34  1  0
 18 35  1  0
 19 36  1  0
 20 37  1  0
 21 38  1  0
M  CHG  2  12  -1  17  -1
M  END
>  <UniqueID>  (29) 
28

>  <SMILES>  (29) 
Nc1c(NCc2ccc(C(=O)[N-]c3ccc([O-])cc3)cc2)c(=O)c1=O

>  <Energy>  (29) 
34.402837890503676

>  <Genealogy>  (29) 
Nc1c(NCc2ccc(C(=O)[N-]c3ccc([O-])cc3)cc2)c(=O)c1=O (protonated)
Nc1c(NCc2ccc(C(=O)[N-]c3ccc([O-])cc3)cc2)c(=O)c1=O (3D coordinates assigned)
Nc1c(NCc2ccc(C(=O)[N-]c3ccc([O-])cc3)cc2)c(=O)c1=O (optimized conformer: 34.402837890503676 kcal/mol)

>  <smiles>  (29) 
Nc1c(NCc2ccc(C(=O)Nc3ccc(O)cc3)cc2)c(=O)c1=O

>  <score_type>  (29) 
oracle

>  <origin>  (29) 
adgpu

>  <m_score__min__energy>  (29) 
-10.73

>  <m_primary>  (29) 
energy

$$$$
29:0
     RDKit          3D

 43 46  0  0  0  0  0  0  0  0999 V2000
   -5.2250   23.6560  -29.2100 C   0  0  0  0  0  0  0  0  0  0  0  0
   -5.2400   24.8480  -30.5300 S   0  0  0  0  0  0  0  0  0  0  0  0
   -6.0870   26.0250  -30.1350 O   0  0  0  0  0  0  0  0  0  0  0  0
   -3.8360   25.3180  -30.7850 O   0  0  0  0  0  0  0  0  0  0  0  0
   -5.8980   24.1360  -31.9670 N   0  0  0  0  0  0  0  0  0  0  0  0
   -6.7220   22.9670  -31.9220 C   0  0  0  0  0  0  0  0  0  0  0  0
   -8.0760   23.1130  -31.5930 C   0  0  0  0  0  0  0  0  0  0  0  0
   -8.9280   22.0060  -31.6050 C   0  0  0  0  0  0  0  0  0  0  0  0
   -8.4330   20.7460  -31.9430 C   0  0  0  0  0  0  0  0  0  0  0  0
   -7.0800   20.5850  -32.2510 C   0  0  0  0  0  0  0  0  0  0  0  0
   -6.2070   21.6870  -32.2290 C   0  0  0  0  0  0  0  0  0  0  0  0
   -4.7640   21.4690  -32.4720 C   0  0  0  0  0  0  0  0  0  0  0  0
   -3.8050   22.1770  -31.7320 C   0  0  0  0  0  0  0  0  0  0  0  0
   -2.4420   21.9800  -31.9700 C   0  0  0  0  0  0  0  0  0  0  0  0
   -2.0120   21.0810  -32.9630 C   0  0  0  0  0  0  0  0  0  0  0  0
   -0.5690   20.8550  -33.2280 C   0  0  0  0  0  0  0  0  0  0  0  0
    0.2550   19.9200  -32.6290 C   0  0  0  0  0  0  0  0  0  0  0  0
    1.4830   20.0440  -33.1550 N   0  0  0  0  0  0  0  0  0  0  0  0
    1.3880   21.0450  -34.0580 C   0  0  0  0  0  0  0  0  0  0  0  0
    2.5150   21.5600  -34.9160 C   0  0  0  0  0  0  0  0  0  0  0  0
    2.2780   21.5420  -36.4180 C   0  0  0  0  0  0  0  0  0  0  0  0
    2.2520   22.8610  -35.6570 C   0  0  0  0  0  0  0  0  0  0  0  0
    0.1450   21.5640  -34.1290 N   0  0  0  0  0  0  0  0  0  0  0  0
   -2.9770   20.3870  -33.7140 C   0  0  0  0  0  0  0  0  0  0  0  0
   -4.3400   20.5790  -33.4700 C   0  0  0  0  0  0  0  0  0  0  0  0
   -5.2316   24.1799  -28.2428 H   0  0  0  0  0  0  0  0  0  0  0  0
   -6.1151   23.0142  -29.2854 H   0  0  0  0  0  0  0  0  0  0  0  0
   -4.3190   23.0368  -29.2854 H   0  0  0  0  0  0  0  0  0  0  0  0
   -8.4701   24.1041  -31.3239 H   0  0  0  0  0  0  0  0  0  0  0  0
   -9.9905   22.1278  -31.3476 H   0  0  0  0  0  0  0  0  0  0  0  0
   -9.1089   19.8785  -31.9670 H   0  0  0  0  0  0  0  0  0  0  0  0
   -6.6946   19.5885  -32.5127 H   0  0  0  0  0  0  0  0  0  0  0  0
   -4.1278   22.8912  -30.9601 H   0  0  0  0  0  0  0  0  0  0  0  0
   -1.6992   22.5325  -31.3759 H   0  0  0  0  0  0  0  0  0  0  0  0
   -0.0447   19.1987  -31.8545 H   0  0  0  0  0  0  0  0  0  0  0  0
    2.3200   19.4750  -32.9020 H   0  0  0  0  0  0  0  0  0  0  0  0
    3.3077   21.1902  -34.2490 H   0  0  0  0  0  0  0  0  0  0  0  0
    3.1088   21.3185  -37.1035 H   0  0  0  0  0  0  0  0  0  0  0  0
    1.5829   21.0174  -37.0900 H   0  0  0  0  0  0  0  0  0  0  0  0
    3.0640   23.5906  -35.7928 H   0  0  0  0  0  0  0  0  0  0  0  0
    1.5301   23.6843  -35.5515 H   0  0  0  0  0  0  0  0  0  0  0  0
   -2.6568   19.6872  -34.5000 H   0  0  0  0  0  0  0  0  0  0  0  0
   -5.0845   20.0289  -34.0642 H   0  0  0  0  0  0  0  0  0  0  0  0
  1  2  1  0
  2  3  2  0
  2  4  2  0
  2  5  1  0
  5  6  1  0
  6  7  2  0
  7  8  1  0
  8  9  2  0
  9 10  1  0
 10 11  2  0
 11 12  1  0
 12 13  2  0
 13 14  1  0
 14 15  2  0
 15 16  1  0
 16 17  2  0
 17 18  1  0
 18 19  1  0
 19 20  1  0
 20 21  1  0
 21 22  1  0
 19 23  2  0
 15 24  1  0
 24 25  2  0
 11  6  1  0
 25 12  1  0
 23 16  1  0
 22 20  1  0
  1 26  1  0
  1 27  1  0
  1 28  1  0
  7 29  1  0
  8 30  1  0
  9 31  1  0
 10 32  1  0
 13 33  1  0
 14 34  1  0
 17 35  1  0
 18 36  1  0
 20 37  1  0
 21 38  1  0
 21 39  1  0
 22 40  1  0
 22 41  1  0
 24 42  1  0
 25 43  1  0
M  CHG  1   5  -1
M  END
>  <UniqueID>  (30) 
29

>  <SMILES>  (30) 
CS(=O)(=O)[N-]c1ccccc1-c1ccc(-c2c[nH]c(C3CC3)n2)cc1

>  <Energy>  (30) 
351.60382293317025

>  <Genealogy>  (30) 
CS(=O)(=O)[N-]c1ccccc1-c1ccc(-c2c[nH]c(C3CC3)n2)cc1 (protonated)
CS(=O)(=O)[N-]c1ccccc1-c1ccc(-c2c[nH]c(C3CC3)n2)cc1 (3D coordinates assigned)
CS(=O)(=O)[N-]c1ccccc1-c1ccc(-c2c[nH]c(C3CC3)n2)cc1 (nonaromatic ring conformer: 351.60382293317025 kcal/mol)

>  <smiles>  (30) 
CS(=O)(=O)Nc1ccccc1-c1ccc(-c2c[nH]c(C3CC3)n2)cc1

>  <score_type>  (30) 
oracle

>  <origin>  (30) 
adgpu

>  <m_score__min__energy>  (30) 
-9.3499999999999996

>  <m_primary>  (30) 
energy

$$$$
30:0
     RDKit          3D

 48 51  0  0  0  0  0  0  0  0999 V2000
    1.5810   28.7450  -33.4440 H   0  0  0  0  0  0  0  0  0  0  0  0
    1.3450   29.5420  -33.9830 O   0  0  0  0  0  0  0  0  0  0  0  0
    0.1460   29.0120  -35.0350 S   0  0  0  0  0  0  0  0  0  0  0  0
    0.4140   27.3460  -35.5160 C   0  0  0  0  0  0  0  0  0  0  0  0
    1.6720   26.7620  -35.3370 C   0  0  0  0  0  0  0  0  0  0  0  0
    2.4913   27.3486  -34.8959 H   0  0  0  0  0  0  0  0  0  0  0  0
    1.8910   25.4350  -35.7170 C   0  0  0  0  0  0  0  0  0  0  0  0
    2.8864   24.9850  -35.5875 H   0  0  0  0  0  0  0  0  0  0  0  0
    0.8420   24.6720  -36.2650 C   0  0  0  0  0  0  0  0  0  0  0  0
    1.0330   23.3150  -36.7030 N   0  0  0  0  0  0  0  0  0  0  0  0
    0.7520   22.2330  -36.0370 C   0  0  0  0  0  0  0  0  0  0  0  0
    1.0450   21.0240  -36.5840 N   0  0  0  0  0  0  0  0  0  0  0  0
    0.7400   19.8690  -35.9390 C   0  0  0  0  0  0  0  0  0  0  0  0
    0.9879   18.9005  -36.3978 H   0  0  0  0  0  0  0  0  0  0  0  0
    0.1130   19.9110  -34.6960 C   0  0  0  0  0  0  0  0  0  0  0  0
   -0.1536   18.9826  -34.1698 H   0  0  0  0  0  0  0  0  0  0  0  0
   -0.1710   21.1610  -34.1300 C   0  0  0  0  0  0  0  0  0  0  0  0
   -0.8620   21.2820  -32.8780 N   0  0  0  0  0  0  0  0  0  0  0  0
   -2.1490   21.2090  -32.6960 C   0  0  0  0  0  0  0  0  0  0  0  0
   -2.7190   21.3870  -31.4890 N   0  0  0  0  0  0  0  0  0  0  0  0
   -4.0210   21.2010  -31.6390 N   0  0  0  0  0  0  0  0  0  0  0  0
   -4.7150   21.2720  -30.8620 H   0  0  0  0  0  0  0  0  0  0  0  0
   -4.2880   20.8960  -32.9230 C   0  0  0  0  0  0  0  0  0  0  0  0
   -5.6530   20.5760  -33.4550 C   0  0  0  0  0  0  0  0  0  0  0  0
   -5.8406   21.1797  -34.3552 H   0  0  0  0  0  0  0  0  0  0  0  0
   -5.6957   19.5043  -33.6992 H   0  0  0  0  0  0  0  0  0  0  0  0
   -6.7150   20.8830  -32.4200 C   0  0  0  0  0  0  0  0  0  0  0  0
   -7.6280   19.8800  -32.0150 C   0  0  0  0  0  0  0  0  0  0  0  0
   -7.5600   18.2390  -32.6540 Cl  0  0  0  0  0  0  0  0  0  0  0  0
   -8.6280   20.1740  -31.0830 C   0  0  0  0  0  0  0  0  0  0  0  0
   -9.3298   19.3878  -30.7678 H   0  0  0  0  0  0  0  0  0  0  0  0
   -8.7410   21.4570  -30.5510 C   0  0  0  0  0  0  0  0  0  0  0  0
   -9.5284   21.6792  -29.8157 H   0  0  0  0  0  0  0  0  0  0  0  0
   -7.8580   22.4590  -30.9490 C   0  0  0  0  0  0  0  0  0  0  0  0
   -7.9543   23.4707  -30.5282 H   0  0  0  0  0  0  0  0  0  0  0  0
   -6.8500   22.1870  -31.8800 C   0  0  0  0  0  0  0  0  0  0  0  0
   -5.7850   23.5140  -32.3380 Cl  0  0  0  0  0  0  0  0  0  0  0  0
   -3.1090   20.8850  -33.6430 C   0  0  0  0  0  0  0  0  0  0  0  0
   -2.9658   20.6704  -34.7123 H   0  0  0  0  0  0  0  0  0  0  0  0
    0.1300   22.2880  -34.8270 N   0  0  0  0  0  0  0  0  0  0  0  0
   -0.4060   25.2750  -36.4720 C   0  0  0  0  0  0  0  0  0  0  0  0
   -1.2199   24.7007  -36.9387 H   0  0  0  0  0  0  0  0  0  0  0  0
   -0.6230   26.6020  -36.0890 C   0  0  0  0  0  0  0  0  0  0  0  0
   -1.6110   27.0619  -36.2385 H   0  0  0  0  0  0  0  0  0  0  0  0
   -0.0240   30.0900  -36.4380 C   0  0  0  0  0  0  0  0  0  0  0  0
   -0.1866   31.1210  -36.0907 H   0  0  0  0  0  0  0  0  0  0  0  0
    0.8919   30.0480  -37.0458 H   0  0  0  0  0  0  0  0  0  0  0  0
   -0.8825   29.7682  -37.0458 H   0  0  0  0  0  0  0  0  0  0  0  0
  1  2  1  0
  3  2  1  1
  3  4  1  0
  4  5  2  0
  5  6  1  0
  5  7  1  0
  7  8  1  0
  7  9  2  0
  9 10  1  0
 10 11  2  0
 11 12  1  0
 12 13  2  0
 13 14  1  0
 13 15  1  0
 15 16  1  0
 15 17  2  0
 17 18  1  0
 18 19  2  0
 19 20  1  0
 20 21  1  0
 21 22  1  0
 21 23  1  0
 23 24  1  0
 24 25  1  0
 24 26  1  0
 24 27  1  0
 27 28  2  0
 28 29  1  0
 28 30  1  0
 30 31  1  0
 30 32  2  0
 32 33  1  0
 32 34  1  0
 34 35  1  0
 34 36  2  0
 36 37  1  0
 23 38  2  0
 38 39  1  0
 17 40  1  0
  9 41  1  0
 41 42  1  0
 41 43  2  0
 43 44  1  0
  3 45  1  0
 45 46  1  0
 45 47  1  0
 45 48  1  0
 43  4  1  0
 40 11  1  0
 38 19  1  0
 36 27  1  0
M  CHG  3   3   1  20  -1  40  -1
M  END
>  <UniqueID>  (31) 
30

>  <SMILES>  (31) 
C[S@+](O)c1ccc(/N=c2/nccc(/N=c3\cc(Cc4c(Cl)cccc4Cl)[nH][n-]3)[n-]2)cc1

>  <Energy>  (31) 
94.11182668990473

>  <Genealogy>  (31) 
C[S+](O)c1ccc(N=c2nccc(N=c3cc(Cc4c(Cl)cccc4Cl)[nH][n-]3)[n-]2)cc1 (protonated)
C[S@+](O)c1ccc(N=c2nccc(N=c3cc(Cc4c(Cl)cccc4Cl)[nH][n-]3)[n-]2)cc1 (chirality)
C[S@+](O)c1ccc(/N=c2/nccc(/N=c3\cc(Cc4c(Cl)cccc4Cl)[nH][n-]3)[n-]2)cc1 (cis-trans isomerization)
C[S@+](O)c1ccc(/N=c2/nccc(/N=c3\cc(Cc4c(Cl)cccc4Cl)[nH][n-]3)[n-]2)cc1 (3D coordinates assigned)
C[S@+](O)c1ccc(/N=c2/nccc(/N=c3\cc(Cc4c(Cl)cccc4Cl)[nH][n-]3)[n-]2)cc1 (optimized conformer: 94.11182668990473 kcal/mol)

>  <smiles>  (31) 
C[S+]([O-])c1ccc(N=c2nccc(N=c3cc(Cc4c(Cl)cccc4Cl)[nH][nH]3)[nH]2)cc1

>  <score_type>  (31) 
oracle

>  <origin>  (31) 
adgpu

>  <m_score__min__energy>  (31) 
-10.77

>  <m_primary>  (31) 
energy

$$$$
31:0
     RDKit          3D

 46 49  0  0  0  0  0  0  0  0999 V2000
   -3.4450   16.5220  -35.3650 C   0  0  0  0  0  0  0  0  0  0  0  0
   -4.5490   17.4130  -35.4870 O   0  0  0  0  0  0  0  0  0  0  0  0
   -5.4450   17.7170  -34.4500 C   0  0  0  0  0  0  0  0  0  0  0  0
   -5.6100   19.0270  -33.9570 C   0  0  0  0  0  0  0  0  0  0  0  0
   -6.5160   19.2920  -32.9100 C   0  0  0  0  0  0  0  0  0  0  0  0
   -6.7210   20.6650  -32.3810 C   0  0  0  0  0  0  0  0  0  0  0  0
   -8.0030   21.2220  -32.2290 C   0  0  0  0  0  0  0  0  0  0  0  0
   -8.1290   22.5130  -31.7150 C   0  0  0  0  0  0  0  0  0  0  0  0
   -9.2780   23.0150  -31.5740 O   0  0  0  0  0  0  0  0  0  0  0  0
   -6.9760   23.2330  -31.3650 C   0  0  0  0  0  0  0  0  0  0  0  0
   -7.0410   24.5290  -30.8290 C   0  0  0  0  0  0  0  0  0  0  0  0
   -5.8700   25.2040  -30.4840 C   0  0  0  0  0  0  0  0  0  0  0  0
   -4.6230   24.6030  -30.6750 C   0  0  0  0  0  0  0  0  0  0  0  0
   -3.4740   25.2960  -30.3070 O   0  0  0  0  0  0  0  0  0  0  0  0
   -4.5330   23.3130  -31.2310 C   0  0  0  0  0  0  0  0  0  0  0  0
   -3.1800   22.6610  -31.4130 C   0  0  0  0  0  0  0  0  0  0  0  0
   -3.2820   21.5220  -32.3450 N   0  0  0  0  0  0  0  0  0  0  0  0
   -3.0930   20.2420  -31.6570 C   0  0  0  0  0  0  0  0  0  0  0  0
   -2.5740   19.2570  -32.6940 C   0  0  0  0  0  0  0  0  0  0  0  0
   -2.0540   20.1120  -33.8380 C   0  0  0  0  0  0  0  0  0  0  0  0
   -2.2490   21.5490  -33.3860 C   0  0  0  0  0  0  0  0  0  0  0  0
   -5.7170   22.6210  -31.5610 C   0  0  0  0  0  0  0  0  0  0  0  0
   -5.6520   21.3860  -32.0540 O   0  0  0  0  0  0  0  0  0  0  0  0
   -7.2710   18.2320  -32.3810 C   0  0  0  0  0  0  0  0  0  0  0  0
   -7.1090   16.9350  -32.8660 C   0  0  0  0  0  0  0  0  0  0  0  0
   -6.1990   16.6760  -33.8940 C   0  0  0  0  0  0  0  0  0  0  0  0
   -6.0470   15.3770  -34.3660 O   0  0  0  0  0  0  0  0  0  0  0  0
   -3.2299   16.3484  -34.3003 H   0  0  0  0  0  0  0  0  0  0  0  0
   -3.6902   15.5657  -35.8502 H   0  0  0  0  0  0  0  0  0  0  0  0
   -2.5621   16.9636  -35.8502 H   0  0  0  0  0  0  0  0  0  0  0  0
   -5.0261   19.8507  -34.3935 H   0  0  0  0  0  0  0  0  0  0  0  0
   -8.8966   20.6464  -32.5121 H   0  0  0  0  0  0  0  0  0  0  0  0
   -8.0175   25.0132  -30.6808 H   0  0  0  0  0  0  0  0  0  0  0  0
   -5.9286   26.2167  -30.0585 H   0  0  0  0  0  0  0  0  0  0  0  0
   -2.4728   23.3996  -31.8185 H   0  0  0  0  0  0  0  0  0  0  0  0
   -2.8250   22.2952  -30.4383 H   0  0  0  0  0  0  0  0  0  0  0  0
   -2.3622   20.3543  -30.8425 H   0  0  0  0  0  0  0  0  0  0  0  0
   -4.0364   19.8888  -31.2150 H   0  0  0  0  0  0  0  0  0  0  0  0
   -1.7634   18.6450  -32.2717 H   0  0  0  0  0  0  0  0  0  0  0  0
   -3.3589   18.5619  -33.0268 H   0  0  0  0  0  0  0  0  0  0  0  0
   -0.9887   19.9064  -34.0192 H   0  0  0  0  0  0  0  0  0  0  0  0
   -2.5834   19.9030  -34.7793 H   0  0  0  0  0  0  0  0  0  0  0  0
   -1.3093   21.9499  -32.9784 H   0  0  0  0  0  0  0  0  0  0  0  0
   -2.5479   22.1930  -34.2262 H   0  0  0  0  0  0  0  0  0  0  0  0
   -7.9962   18.4270  -31.5772 H   0  0  0  0  0  0  0  0  0  0  0  0
   -7.7001   16.1122  -32.4375 H   0  0  0  0  0  0  0  0  0  0  0  0
  1  2  1  0
  2  3  1  0
  3  4  2  0
  4  5  1  0
  5  6  1  0
  6  7  2  0
  7  8  1  0
  8  9  2  0
  8 10  1  0
 10 11  2  0
 11 12  1  0
 12 13  2  0
 13 14  1  0
 13 15  1  0
 15 16  1  0
 16 17  1  0
 17 18  1  0
 18 19  1  0
 19 20  1  0
 20 21  1  0
 15 22  2  0
 22 23  1  0
  5 24  2  0
 24 25  1  0
 25 26  2  0
 26 27  1  0
 26  3  1  0
 23  6  1  0
 22 10  1  0
 21 17  1  0
  1 28  1  0
  1 29  1  0
  1 30  1  0
  4 31  1  0
  7 32  1  0
 11 33  1  0
 12 34  1  0
 16 35  1  0
 16 36  1  0
 18 37  1  0
 18 38  1  0
 19 39  1  0
 19 40  1  0
 20 41  1  0
 20 42  1  0
 21 43  1  0
 21 44  1  0
 24 45  1  0
 25 46  1  0
M  CHG  2  14  -1  27  -1
M  END
>  <UniqueID>  (32) 
31

>  <SMILES>  (32) 
COc1cc(-c2cc(=O)c3ccc([O-])c(CN4CCCC4)c3o2)ccc1[O-]

>  <Energy>  (32) 
59.68801338917699

>  <Genealogy>  (32) 
COc1cc(-c2cc(=O)c3ccc([O-])c(CN4CCCC4)c3o2)ccc1[O-] (protonated)
COc1cc(-c2cc(=O)c3ccc([O-])c(CN4CCCC4)c3o2)ccc1[O-] (3D coordinates assigned)
COc1cc(-c2cc(=O)c3ccc([O-])c(CN4CCCC4)c3o2)ccc1[O-] (nonaromatic ring conformer: 59.68801338917699 kcal/mol)

>  <smiles>  (32) 
COc1cc(-c2cc(=O)c3ccc(O)c(CN4CCCC4)c3o2)ccc1O

>  <score_type>  (32) 
oracle

>  <origin>  (32) 
adgpu

>  <m_score__min__energy>  (32) 
-11.49

>  <m_primary>  (32) 
energy

$$$$
32:0
     RDKit          3D

 65 68  0  0  0  0  0  0  0  0999 V2000
   -0.3680   20.5810  -30.0690 C   0  0  0  0  0  0  0  0  0  0  0  0
   -0.8480   20.6880  -31.4060 O   0  0  0  0  0  0  0  0  0  0  0  0
   -1.0020   19.6030  -32.2800 C   0  0  0  0  0  0  0  0  0  0  0  0
   -1.3910   19.8620  -33.5980 C   0  0  0  0  0  0  0  0  0  0  0  0
   -1.5660   18.8160  -34.5060 C   0  0  0  0  0  0  0  0  0  0  0  0
   -1.3540   17.4880  -34.1030 C   0  0  0  0  0  0  0  0  0  0  0  0
   -1.5580   16.4100  -35.0320 N   0  0  0  0  0  0  0  0  0  0  0  0
   -0.6560   15.8610  -35.8700 C   0  0  0  0  0  0  0  0  0  0  0  0
    0.8030   16.1980  -35.9110 C   0  0  0  0  0  0  0  0  0  0  0  0
   -1.2310   14.9660  -36.6950 N   0  0  0  0  0  0  0  0  0  0  0  0
   -2.5220   14.9400  -36.3990 N   0  0  0  0  0  0  0  0  0  0  0  0
   -2.7180   15.8140  -35.3920 C   0  0  0  0  0  0  0  0  0  0  0  0
   -4.0390   16.0440  -34.7680 C   0  0  0  0  0  0  0  0  0  0  0  0
   -4.8990   14.9710  -34.4830 C   0  0  0  0  0  0  0  0  0  0  0  0
   -6.1390   15.2030  -33.8890 C   0  0  0  0  0  0  0  0  0  0  0  0
   -6.5420   16.5040  -33.5850 C   0  0  0  0  0  0  0  0  0  0  0  0
   -5.7100   17.5970  -33.8870 C   0  0  0  0  0  0  0  0  0  0  0  0
   -6.1220   18.9820  -33.5480 C   0  0  0  0  0  0  0  0  0  0  0  0
   -6.4680   19.7740  -34.4680 O   0  0  0  0  0  0  0  0  0  0  0  0
   -6.1650   19.4210  -32.1810 N   0  0  0  0  0  0  0  0  0  0  0  0
   -5.9340   20.7790  -31.7660 C   0  0  0  0  0  0  0  0  0  0  0  0
   -6.9560   21.4800  -31.1080 C   0  0  0  0  0  0  0  0  0  0  0  0
   -6.7420   22.7810  -30.6460 C   0  0  0  0  0  0  0  0  0  0  0  0
   -5.4970   23.3980  -30.8270 C   0  0  0  0  0  0  0  0  0  0  0  0
   -5.2060   25.0270  -30.2230 S   0  0  0  0  0  0  0  0  0  0  0  0
   -5.7170   26.0060  -31.2410 O   0  0  0  0  0  0  0  0  0  0  0  0
   -5.9500   25.2430  -28.9360 O   0  0  0  0  0  0  0  0  0  0  0  0
   -3.4900   25.2860  -30.0080 N   0  0  0  0  0  0  0  0  0  0  0  0
   -2.8090   24.4510  -28.9960 C   0  0  0  0  0  0  0  0  0  0  0  0
   -1.9850   23.4070  -29.7700 C   0  0  0  0  0  0  0  0  0  0  0  0
   -3.7980   23.6950  -28.0800 C   0  0  0  0  0  0  0  0  0  0  0  0
   -1.8360   25.3030  -28.1560 C   0  0  0  0  0  0  0  0  0  0  0  0
   -4.4740   22.7060  -31.4840 C   0  0  0  0  0  0  0  0  0  0  0  0
   -4.6840   21.4000  -31.9400 C   0  0  0  0  0  0  0  0  0  0  0  0
   -4.4590   17.3550  -34.4840 C   0  0  0  0  0  0  0  0  0  0  0  0
   -0.9580   17.2230  -32.7860 C   0  0  0  0  0  0  0  0  0  0  0  0
   -0.7810   18.2710  -31.8770 C   0  0  0  0  0  0  0  0  0  0  0  0
   -1.1945   20.7652  -29.3669 H   0  0  0  0  0  0  0  0  0  0  0  0
    0.0351   19.5709  -29.9039 H   0  0  0  0  0  0  0  0  0  0  0  0
    0.4260   21.3242  -29.9039 H   0  0  0  0  0  0  0  0  0  0  0  0
   -1.5607   20.8993  -33.9223 H   0  0  0  0  0  0  0  0  0  0  0  0
   -1.8709   19.0331  -35.5404 H   0  0  0  0  0  0  0  0  0  0  0  0
    1.1878   16.2869  -34.8843 H   0  0  0  0  0  0  0  0  0  0  0  0
    1.3484   15.4022  -36.4394 H   0  0  0  0  0  0  0  0  0  0  0  0
    0.9442   17.1524  -36.4394 H   0  0  0  0  0  0  0  0  0  0  0  0
   -4.5932   13.9435  -34.7293 H   0  0  0  0  0  0  0  0  0  0  0  0
   -6.8027   14.3565  -33.6589 H   0  0  0  0  0  0  0  0  0  0  0  0
   -7.5171   16.6758  -33.1059 H   0  0  0  0  0  0  0  0  0  0  0  0
   -6.4360   18.7230  -31.4510 H   0  0  0  0  0  0  0  0  0  0  0  0
   -7.9343   21.0010  -30.9546 H   0  0  0  0  0  0  0  0  0  0  0  0
   -7.5536   23.3228  -30.1384 H   0  0  0  0  0  0  0  0  0  0  0  0
   -1.4655   22.7488  -29.0581 H   0  0  0  0  0  0  0  0  0  0  0  0
   -2.6553   22.8065  -30.4026 H   0  0  0  0  0  0  0  0  0  0  0  0
   -1.2452   23.9194  -30.4026 H   0  0  0  0  0  0  0  0  0  0  0  0
   -3.5443   23.8889  -27.0274 H   0  0  0  0  0  0  0  0  0  0  0  0
   -4.8222   24.0426  -28.2803 H   0  0  0  0  0  0  0  0  0  0  0  0
   -3.7314   22.6155  -28.2803 H   0  0  0  0  0  0  0  0  0  0  0  0
   -2.0297   25.1334  -27.0865 H   0  0  0  0  0  0  0  0  0  0  0  0
   -0.8005   25.0159  -28.3911 H   0  0  0  0  0  0  0  0  0  0  0  0
   -1.9838   26.3674  -28.3911 H   0  0  0  0  0  0  0  0  0  0  0  0
   -3.4996   23.1911  -31.6429 H   0  0  0  0  0  0  0  0  0  0  0  0
   -3.8673   20.8561  -32.4372 H   0  0  0  0  0  0  0  0  0  0  0  0
   -3.8019   18.2018  -34.7314 H   0  0  0  0  0  0  0  0  0  0  0  0
   -0.7853   16.1852  -32.4649 H   0  0  0  0  0  0  0  0  0  0  0  0
   -0.4684   18.0549  -30.8447 H   0  0  0  0  0  0  0  0  0  0  0  0
  1  2  1  0
  2  3  1  0
  3  4  2  0
  4  5  1  0
  5  6  2  0
  6  7  1  0
  7  8  1  0
  8  9  1  0
  8 10  2  0
 10 11  1  0
 11 12  2  0
 12 13  1  0
 13 14  2  0
 14 15  1  0
 15 16  2  0
 16 17  1  0
 17 18  1  0
 18 19  2  0
 18 20  1  0
 20 21  1  0
 21 22  2  0
 22 23  1  0
 23 24  2  0
 24 25  1  0
 25 26  2  0
 25 27  2  0
 25 28  1  0
 28 29  1  0
 29 30  1  0
 29 31  1  0
 29 32  1  0
 24 33  1  0
 33 34  2  0
 17 35  2  0
  6 36  1  0
 36 37  2  0
 37  3  1  0
 12  7  1  0
 35 13  1  0
 34 21  1  0
  1 38  1  0
  1 39  1  0
  1 40  1  0
  4 41  1  0
  5 42  1  0
  9 43  1  0
  9 44  1  0
  9 45  1  0
 14 46  1  0
 15 47  1  0
 16 48  1  0
 20 49  1  0
 22 50  1  0
 23 51  1  0
 30 52  1  0
 30 53  1  0
 30 54  1  0
 31 55  1  0
 31 56  1  0
 31 57  1  0
 32 58  1  0
 32 59  1  0
 32 60  1  0
 33 61  1  0
 34 62  1  0
 35 63  1  0
 36 64  1  0
 37 65  1  0
M  CHG  1  28  -1
M  END
>  <UniqueID>  (33) 
32

>  <SMILES>  (33) 
COc1ccc(-n2c(C)nnc2-c2cccc(C(=O)Nc3ccc(S(=O)(=O)[N-]C(C)(C)C)cc3)c2)cc1

>  <Energy>  (33) 
117.35228256838597

>  <Genealogy>  (33) 
COc1ccc(-n2c(C)nnc2-c2cccc(C(=O)Nc3ccc(S(=O)(=O)[N-]C(C)(C)C)cc3)c2)cc1 (protonated)
COc1ccc(-n2c(C)nnc2-c2cccc(C(=O)Nc3ccc(S(=O)(=O)[N-]C(C)(C)C)cc3)c2)cc1 (3D coordinates assigned)
COc1ccc(-n2c(C)nnc2-c2cccc(C(=O)Nc3ccc(S(=O)(=O)[N-]C(C)(C)C)cc3)c2)cc1 (optimized conformer: 117.35228256838597 kcal/mol)

>  <smiles>  (33) 
COc1ccc(-n2c(C)nnc2-c2cccc(C(=O)Nc3ccc(S(=O)(=O)NC(C)(C)C)cc3)c2)cc1

>  <score_type>  (33) 
oracle

>  <origin>  (33) 
adgpu

>  <m_score__min__energy>  (33) 
-11.41

>  <m_primary>  (33) 
energy

$$$$
33:0
     RDKit          3D

 42 44  0  0  0  0  0  0  0  0999 V2000
   -3.4630   19.3420  -33.4350 C   0  0  0  0  0  0  0  0  0  0  0  0
   -4.5030   20.4540  -33.5080 C   0  0  0  0  0  0  0  0  0  0  0  0
   -4.3910   21.3610  -32.3200 C   0  0  0  0  0  0  0  0  0  0  0  0
   -3.2160   21.7890  -31.8190 N   0  0  0  0  0  0  0  0  0  0  0  0
   -3.4710   22.4930  -30.7250 N   0  0  0  0  0  0  0  0  0  0  0  0
   -2.4420   23.1170  -29.9410 C   0  0  0  0  0  0  0  0  0  0  0  0
   -1.4240   22.3440  -29.3560 C   0  0  0  0  0  0  0  0  0  0  0  0
   -0.4350   22.9490  -28.5760 C   0  0  0  0  0  0  0  0  0  0  0  0
   -0.4580   24.3300  -28.3650 C   0  0  0  0  0  0  0  0  0  0  0  0
    0.5260   24.9300  -27.5890 O   0  0  0  0  0  0  0  0  0  0  0  0
   -1.4730   25.1070  -28.9310 C   0  0  0  0  0  0  0  0  0  0  0  0
   -2.4660   24.5060  -29.7130 C   0  0  0  0  0  0  0  0  0  0  0  0
   -3.4640   25.2950  -30.2740 O   0  0  0  0  0  0  0  0  0  0  0  0
   -4.8040   22.5000  -30.4900 C   0  0  0  0  0  0  0  0  0  0  0  0
   -5.4860   23.2030  -29.3510 C   0  0  0  0  0  0  0  0  0  0  0  0
   -5.4250   21.7870  -31.5020 C   0  0  0  0  0  0  0  0  0  0  0  0
   -6.8610   21.4900  -31.6520 C   0  0  0  0  0  0  0  0  0  0  0  0
   -7.7740   22.5470  -31.7770 C   0  0  0  0  0  0  0  0  0  0  0  0
   -9.1370   22.2870  -31.9250 C   0  0  0  0  0  0  0  0  0  0  0  0
   -9.5980   20.9700  -31.9550 C   0  0  0  0  0  0  0  0  0  0  0  0
   -8.6970   19.9080  -31.8420 C   0  0  0  0  0  0  0  0  0  0  0  0
   -7.3170   20.1570  -31.6960 C   0  0  0  0  0  0  0  0  0  0  0  0
   -6.3790   19.1160  -31.6050 O   0  0  0  0  0  0  0  0  0  0  0  0
   -6.6090   17.7820  -32.0470 C   0  0  0  0  0  0  0  0  0  0  0  0
   -3.2468   19.1108  -32.3815 H   0  0  0  0  0  0  0  0  0  0  0  0
   -3.8518   18.4429  -33.9354 H   0  0  0  0  0  0  0  0  0  0  0  0
   -2.5399   19.6699  -33.9354 H   0  0  0  0  0  0  0  0  0  0  0  0
   -4.3427   21.0390  -34.4256 H   0  0  0  0  0  0  0  0  0  0  0  0
   -5.5056   20.0015  -33.5150 H   0  0  0  0  0  0  0  0  0  0  0  0
   -1.4058   21.2555  -29.5133 H   0  0  0  0  0  0  0  0  0  0  0  0
    0.3621   22.3377  -28.1278 H   0  0  0  0  0  0  0  0  0  0  0  0
   -1.4913   26.1937  -28.7613 H   0  0  0  0  0  0  0  0  0  0  0  0
   -5.1049   22.8102  -28.3968 H   0  0  0  0  0  0  0  0  0  0  0  0
   -5.2816   24.2822  -29.4111 H   0  0  0  0  0  0  0  0  0  0  0  0
   -6.5709   23.0314  -29.4111 H   0  0  0  0  0  0  0  0  0  0  0  0
   -7.4140   23.5862  -31.7583 H   0  0  0  0  0  0  0  0  0  0  0  0
   -9.8486   23.1206  -32.0181 H   0  0  0  0  0  0  0  0  0  0  0  0
  -10.6733   20.7676  -32.0679 H   0  0  0  0  0  0  0  0  0  0  0  0
   -9.0664   18.8722  -31.8671 H   0  0  0  0  0  0  0  0  0  0  0  0
   -6.7229   17.1213  -31.1749 H   0  0  0  0  0  0  0  0  0  0  0  0
   -7.5260   17.7497  -32.6537 H   0  0  0  0  0  0  0  0  0  0  0  0
   -5.7558   17.4445  -32.6537 H   0  0  0  0  0  0  0  0  0  0  0  0
  1  2  1  0
  2  3  1  0
  3  4  2  0
  4  5  1  0
  5  6  1  0
  6  7  2  0
  7  8  1  0
  8  9  2  0
  9 10  1  0
  9 11  1  0
 11 12  2  0
 12 13  1  0
  5 14  1  0
 14 15  1  0
 14 16  2  0
 16 17  1  0
 17 18  2  0
 18 19  1  0
 19 20  2  0
 20 21  1  0
 21 22  2  0
 22 23  1  0
 23 24  1  0
 16  3  1  0
 22 17  1  0
 12  6  1  0
  1 25  1  0
  1 26  1  0
  1 27  1  0
  2 28  1  0
  2 29  1  0
  7 30  1  0
  8 31  1  0
 11 32  1  0
 15 33  1  0
 15 34  1  0
 15 35  1  0
 18 36  1  0
 19 37  1  0
 20 38  1  0
 21 39  1  0
 24 40  1  0
 24 41  1  0
 24 42  1  0
M  CHG  2  10  -1  13  -1
M  END
>  <UniqueID>  (34) 
33

>  <SMILES>  (34) 
CCc1nn(-c2ccc([O-])cc2[O-])c(C)c1-c1ccccc1OC

>  <Energy>  (34) 
81.89313002489966

>  <Genealogy>  (34) 
CCc1nn(-c2ccc([O-])cc2[O-])c(C)c1-c1ccccc1OC (protonated)
CCc1nn(-c2ccc([O-])cc2[O-])c(C)c1-c1ccccc1OC (3D coordinates assigned)
CCc1nn(-c2ccc([O-])cc2[O-])c(C)c1-c1ccccc1OC (optimized conformer: 81.89313002489966 kcal/mol)

>  <smiles>  (34) 
CCc1nn(-c2ccc(O)cc2O)c(C)c1-c1ccccc1OC

>  <score_type>  (34) 
oracle

>  <origin>  (34) 
adgpu

>  <m_score__min__energy>  (34) 
-11.470000000000001

>  <m_primary>  (34) 
energy

$$$$
34:0
     RDKit          3D

 46 48  0  0  0  0  0  0  0  0999 V2000
   -6.4710   17.6850  -31.5750 C   0  0  0  0  0  0  0  0  0  0  0  0
   -7.7880   18.2840  -32.0580 C   0  0  0  0  0  0  0  0  0  0  0  0
   -7.5540   19.4340  -32.8690 O   0  0  0  0  0  0  0  0  0  0  0  0
   -7.4020   20.7540  -32.4090 C   0  0  0  0  0  0  0  0  0  0  0  0
   -8.5010   21.5410  -32.0130 C   0  0  0  0  0  0  0  0  0  0  0  0
   -8.3150   22.8680  -31.6160 C   0  0  0  0  0  0  0  0  0  0  0  0
   -7.0360   23.4250  -31.6110 C   0  0  0  0  0  0  0  0  0  0  0  0
   -5.9360   22.6520  -31.9850 C   0  0  0  0  0  0  0  0  0  0  0  0
   -6.1030   21.3100  -32.3590 C   0  0  0  0  0  0  0  0  0  0  0  0
   -4.9480   20.5430  -32.7320 N   0  0  0  0  0  0  0  0  0  0  0  0
   -3.7850   21.1290  -33.3350 C   0  0  0  0  0  0  0  0  0  0  0  0
   -3.8140   22.3230  -33.7430 O   0  0  0  0  0  0  0  0  0  0  0  0
   -2.5110   20.3440  -33.4270 C   0  0  0  0  0  0  0  0  0  0  0  0
   -2.8110   18.5890  -33.0020 S   0  0  0  0  0  0  0  0  0  0  0  0
   -1.2810   18.3900  -32.0840 C   0  0  0  0  0  0  0  0  0  0  0  0
   -0.5270   17.2770  -32.1240 N   0  0  0  0  0  0  0  0  0  0  0  0
    0.4380   17.4830  -31.2370 N   0  0  0  0  0  0  0  0  0  0  0  0
    0.2830   18.6670  -30.6620 N   0  0  0  0  0  0  0  0  0  0  0  0
   -0.7780   19.2580  -31.1840 N   0  0  0  0  0  0  0  0  0  0  0  0
   -1.3160   20.5130  -30.7350 C   0  0  0  0  0  0  0  0  0  0  0  0
   -0.5050   21.6550  -30.6410 C   0  0  0  0  0  0  0  0  0  0  0  0
   -1.0510   22.8770  -30.2390 C   0  0  0  0  0  0  0  0  0  0  0  0
   -2.4100   22.9710  -29.9150 C   0  0  0  0  0  0  0  0  0  0  0  0
   -3.0890   24.5180  -29.4200 S   0  0  0  0  0  0  0  0  0  0  0  0
   -1.8130   25.5950  -28.9810 N   0  0  0  0  0  0  0  0  0  0  0  0
   -3.8760   25.1070  -30.5580 O   0  0  0  0  0  0  0  0  0  0  0  0
   -4.0090   24.3280  -28.2460 O   0  0  0  0  0  0  0  0  0  0  0  0
   -3.2130   21.8250  -29.9690 C   0  0  0  0  0  0  0  0  0  0  0  0
   -2.6700   20.6030  -30.3750 C   0  0  0  0  0  0  0  0  0  0  0  0
   -6.4533   17.6770  -30.4752 H   0  0  0  0  0  0  0  0  0  0  0  0
   -6.3768   16.6555  -31.9508 H   0  0  0  0  0  0  0  0  0  0  0  0
   -5.6331   18.2906  -31.9508 H   0  0  0  0  0  0  0  0  0  0  0  0
   -8.3318   17.5313  -32.6478 H   0  0  0  0  0  0  0  0  0  0  0  0
   -8.3809   18.5851  -31.1817 H   0  0  0  0  0  0  0  0  0  0  0  0
   -9.5123   21.1083  -32.0162 H   0  0  0  0  0  0  0  0  0  0  0  0
   -9.1790   23.4746  -31.3068 H   0  0  0  0  0  0  0  0  0  0  0  0
   -6.8945   24.4741  -31.3121 H   0  0  0  0  0  0  0  0  0  0  0  0
   -4.9305   23.0981  -31.9866 H   0  0  0  0  0  0  0  0  0  0  0  0
   -5.0070   19.5010  -32.6760 H   0  0  0  0  0  0  0  0  0  0  0  0
   -2.1199   20.4067  -34.4532 H   0  0  0  0  0  0  0  0  0  0  0  0
   -1.7816   20.7632  -32.7183 H   0  0  0  0  0  0  0  0  0  0  0  0
    0.5655   21.5877  -30.8850 H   0  0  0  0  0  0  0  0  0  0  0  0
   -0.4103   23.7690  -30.1768 H   0  0  0  0  0  0  0  0  0  0  0  0
   -1.2870   25.8180  -29.8550 H   0  0  0  0  0  0  0  0  0  0  0  0
   -4.2754   21.8869  -29.6907 H   0  0  0  0  0  0  0  0  0  0  0  0
   -3.3068   19.7069  -30.4127 H   0  0  0  0  0  0  0  0  0  0  0  0
  1  2  1  0
  2  3  1  0
  3  4  1  0
  4  5  2  0
  5  6  1  0
  6  7  2  0
  7  8  1  0
  8  9  2  0
  9 10  1  0
 10 11  1  0
 11 12  2  0
 11 13  1  0
 13 14  1  0
 14 15  1  0
 15 16  2  0
 16 17  1  0
 17 18  2  0
 18 19  1  0
 19 20  1  0
 20 21  2  0
 21 22  1  0
 22 23  2  0
 23 24  1  0
 24 25  1  0
 24 26  2  0
 24 27  2  0
 23 28  1  0
 28 29  2  0
  9  4  1  0
 19 15  1  0
 29 20  1  0
  1 30  1  0
  1 31  1  0
  1 32  1  0
  2 33  1  0
  2 34  1  0
  5 35  1  0
  6 36  1  0
  7 37  1  0
  8 38  1  0
 10 39  1  0
 13 40  1  0
 13 41  1  0
 21 42  1  0
 22 43  1  0
 25 44  1  0
 28 45  1  0
 29 46  1  0
M  CHG  1  25  -1
M  END
>  <UniqueID>  (35) 
34

>  <SMILES>  (35) 
CCOc1ccccc1NC(=O)CSc1nnnn1-c1ccc(S([NH-])(=O)=O)cc1

>  <Energy>  (35) 
90.04146877436038

>  <Genealogy>  (35) 
CCOc1ccccc1NC(=O)CSc1nnnn1-c1ccc(S([NH-])(=O)=O)cc1 (protonated)
CCOc1ccccc1NC(=O)CSc1nnnn1-c1ccc(S([NH-])(=O)=O)cc1 (3D coordinates assigned)
CCOc1ccccc1NC(=O)CSc1nnnn1-c1ccc(S([NH-])(=O)=O)cc1 (optimized conformer: 90.04146877436038 kcal/mol)

>  <smiles>  (35) 
CCOc1ccccc1NC(=O)CSc1nnnn1-c1ccc(S(N)(=O)=O)cc1

>  <score_type>  (35) 
oracle

>  <origin>  (35) 
adgpu

>  <m_score__min__energy>  (35) 
-10.76

>  <m_primary>  (35) 
energy

$$$$
35:0
     RDKit          3D

 39 40  0  0  0  0  0  0  0  0999 V2000
   -0.7340   30.4950  -24.8980 C   0  0  0  0  0  0  0  0  0  0  0  0
   -0.0350   29.2640  -24.7370 O   0  0  0  0  0  0  0  0  0  0  0  0
   -0.4390   28.0420  -25.2950 C   0  0  0  0  0  0  0  0  0  0  0  0
   -0.5000   27.8420  -26.6890 C   0  0  0  0  0  0  0  0  0  0  0  0
   -0.9040   26.6130  -27.2100 C   0  0  0  0  0  0  0  0  0  0  0  0
   -1.2410   25.5550  -26.3540 C   0  0  0  0  0  0  0  0  0  0  0  0
   -1.7170   24.2430  -26.9160 C   0  0  0  0  0  0  0  0  0  0  0  0
   -2.9940   24.4510  -27.6620 C   0  0  0  0  0  0  0  0  0  0  0  0
   -4.0920   24.1410  -27.1260 O   0  0  0  0  0  0  0  0  0  0  0  0
   -2.9470   24.9330  -29.0070 N   0  0  0  0  0  0  0  0  0  0  0  0
   -4.0640   24.4760  -30.2510 S   0  0  0  0  0  0  0  0  0  0  0  0
   -4.5620   25.6770  -31.0060 O   0  0  0  0  0  0  0  0  0  0  0  0
   -3.3650   23.5570  -31.2130 O   0  0  0  0  0  0  0  0  0  0  0  0
   -5.4040   23.6430  -29.5310 N   0  0  0  0  0  0  0  0  0  0  0  0
   -6.2490   22.7340  -30.2560 C   0  0  0  0  0  0  0  0  0  0  0  0
   -7.6180   22.6760  -29.9500 C   0  0  0  0  0  0  0  0  0  0  0  0
   -8.4610   21.7920  -30.6310 C   0  0  0  0  0  0  0  0  0  0  0  0
   -7.9420   20.9480  -31.6190 C   0  0  0  0  0  0  0  0  0  0  0  0
   -8.8090   20.0290  -32.3100 C   0  0  0  0  0  0  0  0  0  0  0  0
   -9.5060   19.2900  -32.8640 N   0  0  0  0  0  0  0  0  0  0  0  0
   -6.5780   20.9940  -31.9260 C   0  0  0  0  0  0  0  0  0  0  0  0
   -5.7350   21.8800  -31.2490 C   0  0  0  0  0  0  0  0  0  0  0  0
   -1.1960   25.7540  -24.9660 C   0  0  0  0  0  0  0  0  0  0  0  0
   -0.8000   26.9870  -24.4360 C   0  0  0  0  0  0  0  0  0  0  0  0
   -0.7790   27.1490  -23.0510 O   0  0  0  0  0  0  0  0  0  0  0  0
   -0.9718   30.9137  -23.9090 H   0  0  0  0  0  0  0  0  0  0  0  0
   -0.1039   31.2043  -25.4547 H   0  0  0  0  0  0  0  0  0  0  0  0
   -1.6660   30.3174  -25.4547 H   0  0  0  0  0  0  0  0  0  0  0  0
   -0.2270   28.6610  -27.3707 H   0  0  0  0  0  0  0  0  0  0  0  0
   -0.9586   26.4728  -28.2997 H   0  0  0  0  0  0  0  0  0  0  0  0
   -0.9553   23.8397  -27.5995 H   0  0  0  0  0  0  0  0  0  0  0  0
   -1.8863   23.5331  -26.0930 H   0  0  0  0  0  0  0  0  0  0  0  0
   -5.6860   23.9410  -28.5700 H   0  0  0  0  0  0  0  0  0  0  0  0
   -8.0307   23.3310  -29.1685 H   0  0  0  0  0  0  0  0  0  0  0  0
   -9.5337   21.7602  -30.3896 H   0  0  0  0  0  0  0  0  0  0  0  0
   -6.1677   20.3312  -32.7022 H   0  0  0  0  0  0  0  0  0  0  0  0
   -4.6631   21.9097  -31.4941 H   0  0  0  0  0  0  0  0  0  0  0  0
   -1.4745   24.9335  -24.2883 H   0  0  0  0  0  0  0  0  0  0  0  0
   -0.4770   28.0100  -22.6130 H   0  0  0  0  0  0  0  0  0  0  0  0
  1  2  1  0
  2  3  1  0
  3  4  2  0
  4  5  1  0
  5  6  2  0
  6  7  1  0
  7  8  1  0
  8  9  2  0
  8 10  1  0
 10 11  1  0
 11 12  2  0
 11 13  2  0
 11 14  1  0
 14 15  1  0
 15 16  2  0
 16 17  1  0
 17 18  2  0
 18 19  1  0
 19 20  3  0
 18 21  1  0
 21 22  2  0
  6 23  1  0
 23 24  2  0
 24 25  1  0
 24  3  1  0
 22 15  1  0
  1 26  1  0
  1 27  1  0
  1 28  1  0
  4 29  1  0
  5 30  1  0
  7 31  1  0
  7 32  1  0
 14 33  1  0
 16 34  1  0
 17 35  1  0
 21 36  1  0
 22 37  1  0
 23 38  1  0
 25 39  1  0
M  CHG  1  10  -1
M  END
>  <UniqueID>  (36) 
35

>  <SMILES>  (36) 
COc1ccc(CC(=O)[N-]S(=O)(=O)Nc2ccc(C#N)cc2)cc1O

>  <Energy>  (36) 
35.34287047329828

>  <Genealogy>  (36) 
COc1ccc(CC(=O)[N-]S(=O)(=O)Nc2ccc(C#N)cc2)cc1O (protonated)
COc1ccc(CC(=O)[N-]S(=O)(=O)Nc2ccc(C#N)cc2)cc1O (3D coordinates assigned)
COc1ccc(CC(=O)[N-]S(=O)(=O)Nc2ccc(C#N)cc2)cc1O (optimized conformer: 35.34287047329828 kcal/mol)

>  <smiles>  (36) 
COc1ccc(CC(=O)NS(=O)(=O)Nc2ccc(C#N)cc2)cc1O

>  <score_type>  (36) 
oracle

>  <origin>  (36) 
adgpu

>  <m_score__min__energy>  (36) 
-9.4499999999999993

>  <m_primary>  (36) 
energy

$$$$
36:0
     RDKit          3D

 36 38  0  0  0  0  0  0  0  0999 V2000
   -6.8360   16.3250  -33.8690 C   0  0  0  0  0  0  0  0  0  0  0  0
   -7.1070   17.5400  -33.0490 C   0  0  0  0  0  0  0  0  0  0  0  0
   -6.2950   18.6480  -32.9330 C   0  0  0  0  0  0  0  0  0  0  0  0
   -7.0090   19.4880  -32.0950 C   0  0  0  0  0  0  0  0  0  0  0  0
   -6.6030   20.8350  -31.6210 C   0  0  0  0  0  0  0  0  0  0  0  0
   -7.4820   21.6440  -30.8780 C   0  0  0  0  0  0  0  0  0  0  0  0
   -7.0830   22.9120  -30.4450 C   0  0  0  0  0  0  0  0  0  0  0  0
   -5.8040   23.3910  -30.7470 C   0  0  0  0  0  0  0  0  0  0  0  0
   -5.3200   24.9970  -30.2120 S   0  0  0  0  0  0  0  0  0  0  0  0
   -5.7770   26.0050  -31.2290 O   0  0  0  0  0  0  0  0  0  0  0  0
   -5.9400   25.3280  -28.8820 O   0  0  0  0  0  0  0  0  0  0  0  0
   -3.5930   25.0790  -30.0670 N   0  0  0  0  0  0  0  0  0  0  0  0
   -2.8080   24.3990  -29.0750 C   0  0  0  0  0  0  0  0  0  0  0  0
   -3.2220   23.1720  -28.5200 C   0  0  0  0  0  0  0  0  0  0  0  0
   -2.4340   22.5280  -27.5630 C   0  0  0  0  0  0  0  0  0  0  0  0
   -1.2310   23.1020  -27.1440 C   0  0  0  0  0  0  0  0  0  0  0  0
   -0.8160   24.3220  -27.6810 C   0  0  0  0  0  0  0  0  0  0  0  0
   -1.5950   24.9730  -28.6450 C   0  0  0  0  0  0  0  0  0  0  0  0
   -1.1440   26.1890  -29.1600 O   0  0  0  0  0  0  0  0  0  0  0  0
   -4.9210   22.5900  -31.4810 C   0  0  0  0  0  0  0  0  0  0  0  0
   -5.3170   21.3230  -31.9150 C   0  0  0  0  0  0  0  0  0  0  0  0
   -8.1720   18.8930  -31.7570 N   0  0  0  0  0  0  0  0  0  0  0  0
   -8.1970   17.7350  -32.3470 O   0  0  0  0  0  0  0  0  0  0  0  0
   -6.6451   15.4693  -33.2046 H   0  0  0  0  0  0  0  0  0  0  0  0
   -7.7080   16.1090  -34.5037 H   0  0  0  0  0  0  0  0  0  0  0  0
   -5.9548   16.5001  -34.5037 H   0  0  0  0  0  0  0  0  0  0  0  0
   -5.3128   18.8233  -33.3962 H   0  0  0  0  0  0  0  0  0  0  0  0
   -8.4901   21.2764  -30.6361 H   0  0  0  0  0  0  0  0  0  0  0  0
   -7.7782   23.5359  -29.8641 H   0  0  0  0  0  0  0  0  0  0  0  0
   -4.1710   22.7186  -28.8420 H   0  0  0  0  0  0  0  0  0  0  0  0
   -2.7612   21.5674  -27.1386 H   0  0  0  0  0  0  0  0  0  0  0  0
   -0.6112   22.5928  -26.3913 H   0  0  0  0  0  0  0  0  0  0  0  0
    0.1286   24.7744  -27.3447 H   0  0  0  0  0  0  0  0  0  0  0  0
   -1.2390   26.4330  -30.1390 H   0  0  0  0  0  0  0  0  0  0  0  0
   -3.9122   22.9597  -31.7166 H   0  0  0  0  0  0  0  0  0  0  0  0
   -4.6168   20.7011  -32.4920 H   0  0  0  0  0  0  0  0  0  0  0  0
  1  2  1  0
  2  3  2  0
  3  4  1  0
  4  5  1  0
  5  6  2  0
  6  7  1  0
  7  8  2  0
  8  9  1  0
  9 10  2  0
  9 11  2  0
  9 12  1  0
 12 13  1  0
 13 14  2  0
 14 15  1  0
 15 16  2  0
 16 17  1  0
 17 18  2  0
 18 19  1  0
  8 20  1  0
 20 21  2  0
  4 22  2  0
 22 23  1  0
 23  2  1  0
 21  5  1  0
 18 13  1  0
  1 24  1  0
  1 25  1  0
  1 26  1  0
  3 27  1  0
  6 28  1  0
  7 29  1  0
 14 30  1  0
 15 31  1  0
 16 32  1  0
 17 33  1  0
 19 34  1  0
 20 35  1  0
 21 36  1  0
M  CHG  1  12  -1
M  END
>  <UniqueID>  (37) 
36

>  <SMILES>  (37) 
Cc1cc(-c2ccc(S(=O)(=O)[N-]c3ccccc3O)cc2)no1

>  <Energy>  (37) 
72.3003708561426

>  <Genealogy>  (37) 
Cc1cc(-c2ccc(S(=O)(=O)[N-]c3ccccc3O)cc2)no1 (protonated)
Cc1cc(-c2ccc(S(=O)(=O)[N-]c3ccccc3O)cc2)no1 (3D coordinates assigned)
Cc1cc(-c2ccc(S(=O)(=O)[N-]c3ccccc3O)cc2)no1 (optimized conformer: 72.3003708561426 kcal/mol)

>  <smiles>  (37) 
Cc1cc(-c2ccc(S(=O)(=O)Nc3ccccc3O)cc2)no1

>  <score_type>  (37) 
oracle

>  <origin>  (37) 
adgpu

>  <m_score__min__energy>  (37) 
-11.220000000000001

>  <m_primary>  (37) 
energy

$$$$
37:0
     RDKit          3D

 48 50  0  0  0  0  0  0  0  0999 V2000
   -2.2940   25.8760  -25.5100 C   0  0  0  0  0  0  0  0  0  0  0  0
   -1.1010   26.4550  -26.1370 N   0  0  0  0  0  0  0  0  0  0  0  0
   -0.7540   27.8570  -25.8920 C   0  0  0  0  0  0  0  0  0  0  0  0
   -0.1760   25.6210  -26.8640 C   0  0  0  0  0  0  0  0  0  0  0  0
    1.0400   25.9500  -26.9310 O   0  0  0  0  0  0  0  0  0  0  0  0
   -0.6160   24.3820  -27.5430 C   0  0  0  0  0  0  0  0  0  0  0  0
   -0.3470   23.1340  -26.9600 C   0  0  0  0  0  0  0  0  0  0  0  0
   -0.7860   21.9600  -27.5720 C   0  0  0  0  0  0  0  0  0  0  0  0
   -1.5290   22.0200  -28.7510 C   0  0  0  0  0  0  0  0  0  0  0  0
   -1.8560   23.2570  -29.3210 C   0  0  0  0  0  0  0  0  0  0  0  0
   -2.6620   23.2800  -30.5070 N   0  0  0  0  0  0  0  0  0  0  0  0
   -4.0840   23.4420  -30.5060 C   0  0  0  0  0  0  0  0  0  0  0  0
   -5.1440   23.1560  -31.3600 C   0  0  0  0  0  0  0  0  0  0  0  0
   -5.3240   22.6140  -32.6740 N   0  0  0  0  0  0  0  0  0  0  0  0
   -5.2500   21.1760  -32.9630 C   0  0  2  0  0  0  0  0  0  0  0  0
   -6.5430   20.4820  -32.5780 C   0  0  0  0  0  0  0  0  0  0  0  0
   -6.6180   19.0780  -32.5130 C   0  0  0  0  0  0  0  0  0  0  0  0
   -7.8190   18.4510  -32.1650 C   0  0  0  0  0  0  0  0  0  0  0  0
   -8.9550   19.2160  -31.8910 C   0  0  0  0  0  0  0  0  0  0  0  0
   -8.8930   20.6110  -31.9640 C   0  0  0  0  0  0  0  0  0  0  0  0
   -7.6960   21.2420  -32.3130 C   0  0  0  0  0  0  0  0  0  0  0  0
   -4.0490   20.5350  -32.2460 C   0  0  0  0  0  0  0  0  0  0  0  0
   -4.3310   20.4000  -30.8980 F   0  0  0  0  0  0  0  0  0  0  0  0
   -3.7720   19.2840  -32.7730 F   0  0  0  0  0  0  0  0  0  0  0  0
   -2.9320   21.3390  -32.3860 F   0  0  0  0  0  0  0  0  0  0  0  0
   -6.0250   23.6530  -30.4220 C   0  0  0  0  0  0  0  0  0  0  0  0
   -7.2760   23.7750  -30.3560 O   0  0  0  0  0  0  0  0  0  0  0  0
   -4.9700   23.9890  -29.6000 C   0  0  0  0  0  0  0  0  0  0  0  0
   -4.8620   24.5420  -28.4750 O   0  0  0  0  0  0  0  0  0  0  0  0
   -1.3660   24.4420  -28.7340 C   0  0  0  0  0  0  0  0  0  0  0  0
   -1.6060   25.6720  -29.3380 O   0  0  0  0  0  0  0  0  0  0  0  0
   -2.1934   25.9248  -24.4157 H   0  0  0  0  0  0  0  0  0  0  0  0
   -3.1838   26.4425  -25.8221 H   0  0  0  0  0  0  0  0  0  0  0  0
   -2.3995   24.8265  -25.8221 H   0  0  0  0  0  0  0  0  0  0  0  0
   -0.7088   28.0395  -24.8082 H   0  0  0  0  0  0  0  0  0  0  0  0
    0.2255   28.0763  -26.3419 H   0  0  0  0  0  0  0  0  0  0  0  0
   -1.5182   28.5079  -26.3419 H   0  0  0  0  0  0  0  0  0  0  0  0
    0.2133   23.0814  -26.0149 H   0  0  0  0  0  0  0  0  0  0  0  0
   -0.5457   20.9846  -27.1239 H   0  0  0  0  0  0  0  0  0  0  0  0
   -1.8602   21.0900  -29.2362 H   0  0  0  0  0  0  0  0  0  0  0  0
   -2.1900   23.1660  -31.4330 H   0  0  0  0  0  0  0  0  0  0  0  0
   -5.3130   23.2950  -33.4670 H   0  0  0  0  0  0  0  0  0  0  0  0
   -5.1057   21.0518  -34.0464 H   0  0  0  0  0  0  0  0  0  0  0  0
   -5.7283   18.4711  -32.7368 H   0  0  0  0  0  0  0  0  0  0  0  0
   -7.8689   17.3537  -32.1070 H   0  0  0  0  0  0  0  0  0  0  0  0
   -9.8986   18.7210  -31.6177 H   0  0  0  0  0  0  0  0  0  0  0  0
   -9.7878   21.2126  -31.7464 H   0  0  0  0  0  0  0  0  0  0  0  0
   -7.6555   22.3392  -32.3808 H   0  0  0  0  0  0  0  0  0  0  0  0
  1  2  1  0
  2  3  1  0
  2  4  1  0
  4  5  2  0
  4  6  1  0
  6  7  2  0
  7  8  1  0
  8  9  2  0
  9 10  1  0
 10 11  1  0
 11 12  1  0
 12 13  2  0
 13 14  1  0
 14 15  1  0
 15 16  1  0
 16 17  2  0
 17 18  1  0
 18 19  2  0
 19 20  1  0
 20 21  2  0
 15 22  1  0
 22 23  1  0
 22 24  1  0
 22 25  1  0
 13 26  1  0
 26 27  2  0
 26 28  1  0
 28 29  2  0
 10 30  2  0
 30 31  1  0
 30  6  1  0
 28 12  1  0
 21 16  1  0
  1 32  1  0
  1 33  1  0
  1 34  1  0
  3 35  1  0
  3 36  1  0
  3 37  1  0
  7 38  1  0
  8 39  1  0
  9 40  1  0
 11 41  1  0
 14 42  1  0
 15 43  1  6
 17 44  1  0
 18 45  1  0
 19 46  1  0
 20 47  1  0
 21 48  1  0
M  CHG  1  31  -1
M  END
>  <UniqueID>  (38) 
37

>  <SMILES>  (38) 
CN(C)C(=O)c1cccc(Nc2c(N[C@H](c3ccccc3)C(F)(F)F)c(=O)c2=O)c1[O-]

>  <Energy>  (38) 
47.3754378300972

>  <Genealogy>  (38) 
CN(C)C(=O)c1cccc(Nc2c(NC(c3ccccc3)C(F)(F)F)c(=O)c2=O)c1[O-] (protonated)
CN(C)C(=O)c1cccc(Nc2c(N[C@H](c3ccccc3)C(F)(F)F)c(=O)c2=O)c1[O-] (chirality)
CN(C)C(=O)c1cccc(Nc2c(N[C@H](c3ccccc3)C(F)(F)F)c(=O)c2=O)c1[O-] (3D coordinates assigned)
CN(C)C(=O)c1cccc(Nc2c(N[C@H](c3ccccc3)C(F)(F)F)c(=O)c2=O)c1[O-] (optimized conformer: 47.3754378300972 kcal/mol)

>  <smiles>  (38) 
CN(C)C(=O)c1cccc(Nc2c(NC(c3ccccc3)C(F)(F)F)c(=O)c2=O)c1O

>  <score_type>  (38) 
oracle

>  <origin>  (38) 
adgpu

>  <m_score__min__energy>  (38) 
-12.6

>  <m_primary>  (38) 
energy

$$$$
38:0
     RDKit          3D

 45 47  0  0  0  0  0  0  0  0999 V2000
   -5.3550   26.0480  -31.2130 O   0  0  0  0  0  0  0  0  0  0  0  0
   -4.9170   25.1830  -30.4090 C   0  0  0  0  0  0  0  0  0  0  0  0
   -5.8900   24.4520  -29.5230 C   0  0  0  0  0  0  0  0  0  0  0  0
   -6.5800   23.3690  -30.3070 C   0  0  0  0  0  0  0  0  0  0  0  0
   -7.6380   22.6420  -29.7350 C   0  0  0  0  0  0  0  0  0  0  0  0
   -8.3030   21.6610  -30.4770 C   0  0  0  0  0  0  0  0  0  0  0  0
   -7.9240   21.4050  -31.8020 C   0  0  0  0  0  0  0  0  0  0  0  0
   -8.7620   20.1760  -32.7330 Cl  0  0  0  0  0  0  0  0  0  0  0  0
   -6.8770   22.1320  -32.3800 C   0  0  0  0  0  0  0  0  0  0  0  0
   -6.2080   23.1130  -31.6390 C   0  0  0  0  0  0  0  0  0  0  0  0
   -3.5290   24.8310  -30.4590 N   0  0  0  0  0  0  0  0  0  0  0  0
   -2.9960   23.5060  -30.3350 C   0  0  0  0  0  0  0  0  0  0  0  0
   -2.3980   23.0670  -29.1420 C   0  0  0  0  0  0  0  0  0  0  0  0
   -1.8670   21.7770  -29.0560 C   0  0  0  0  0  0  0  0  0  0  0  0
   -1.9120   20.9250  -30.1630 C   0  0  0  0  0  0  0  0  0  0  0  0
   -2.4750   21.3670  -31.3680 C   0  0  0  0  0  0  0  0  0  0  0  0
   -2.5630   20.2970  -32.7660 S   0  0  0  0  0  0  0  0  0  0  0  0
   -2.7820   21.1310  -33.9990 O   0  0  0  0  0  0  0  0  0  0  0  0
   -1.2680   19.5440  -32.9190 O   0  0  0  0  0  0  0  0  0  0  0  0
   -3.8890   19.1780  -32.5680 N   0  0  0  0  0  0  0  0  0  0  0  0
   -4.5520   18.9340  -33.8650 C   0  0  0  0  0  0  0  0  0  0  0  0
   -5.9050   18.2140  -33.6780 C   0  0  0  0  0  0  0  0  0  0  0  0
   -6.0240   17.6790  -32.3750 O   0  0  0  0  0  0  0  0  0  0  0  0
   -6.0500   18.7310  -31.4250 C   0  0  0  0  0  0  0  0  0  0  0  0
   -4.8530   19.6990  -31.5840 C   0  0  0  0  0  0  0  0  0  0  0  0
   -3.0090   22.6610  -31.4510 C   0  0  0  0  0  0  0  0  0  0  0  0
   -5.3476   24.0021  -28.6784 H   0  0  0  0  0  0  0  0  0  0  0  0
   -6.6411   25.1616  -29.1459 H   0  0  0  0  0  0  0  0  0  0  0  0
   -7.9445   22.8457  -28.6984 H   0  0  0  0  0  0  0  0  0  0  0  0
   -9.1245   21.0895  -30.0204 H   0  0  0  0  0  0  0  0  0  0  0  0
   -6.5790   21.9318  -33.4198 H   0  0  0  0  0  0  0  0  0  0  0  0
   -5.3892   23.6852  -32.0996 H   0  0  0  0  0  0  0  0  0  0  0  0
   -2.3476   23.7401  -28.2735 H   0  0  0  0  0  0  0  0  0  0  0  0
   -1.4129   21.4317  -28.1155 H   0  0  0  0  0  0  0  0  0  0  0  0
   -1.5049   19.9058  -30.0884 H   0  0  0  0  0  0  0  0  0  0  0  0
   -3.4890   18.2770  -32.2120 H   0  0  0  0  0  0  0  0  0  0  0  0
   -4.7255   19.8981  -34.3655 H   0  0  0  0  0  0  0  0  0  0  0  0
   -3.8984   18.2913  -34.4731 H   0  0  0  0  0  0  0  0  0  0  0  0
   -6.7203   18.9330  -33.8464 H   0  0  0  0  0  0  0  0  0  0  0  0
   -5.9619   17.3866  -34.4006 H   0  0  0  0  0  0  0  0  0  0  0  0
   -6.9832   19.2992  -31.5525 H   0  0  0  0  0  0  0  0  0  0  0  0
   -5.9862   18.2803  -30.4236 H   0  0  0  0  0  0  0  0  0  0  0  0
   -5.2228   20.6776  -31.9240 H   0  0  0  0  0  0  0  0  0  0  0  0
   -4.3473   19.7986  -30.6122 H   0  0  0  0  0  0  0  0  0  0  0  0
   -3.4408   23.0143  -32.3990 H   0  0  0  0  0  0  0  0  0  0  0  0
  1  2  2  0
  2  3  1  0
  3  4  1  0
  4  5  2  0
  5  6  1  0
  6  7  2  0
  7  8  1  0
  7  9  1  0
  9 10  2  0
  2 11  1  0
 11 12  1  0
 12 13  2  0
 13 14  1  0
 14 15  2  0
 15 16  1  0
 16 17  1  0
 17 18  2  0
 17 19  2  0
 17 20  1  0
 20 21  1  0
 21 22  1  0
 22 23  1  0
 23 24  1  0
 24 25  1  0
 16 26  2  0
 10  4  1  0
 26 12  1  0
 25 20  1  0
  3 27  1  0
  3 28  1  0
  5 29  1  0
  6 30  1  0
  9 31  1  0
 10 32  1  0
 13 33  1  0
 14 34  1  0
 15 35  1  0
 20 36  1  0
 21 37  1  0
 21 38  1  0
 22 39  1  0
 22 40  1  0
 24 41  1  0
 24 42  1  0
 25 43  1  0
 25 44  1  0
 26 45  1  0
M  CHG  2  11  -1  20   1
M  END
>  <UniqueID>  (39) 
38

>  <SMILES>  (39) 
O=C(Cc1ccc(Cl)cc1)[N-]c1cccc(S(=O)(=O)[NH+]2CCOCC2)c1

>  <Energy>  (39) 
56.98709688767184

>  <Genealogy>  (39) 
O=C(Cc1ccc(Cl)cc1)[N-]c1cccc(S(=O)(=O)[NH+]2CCOCC2)c1 (protonated)
O=C(Cc1ccc(Cl)cc1)[N-]c1cccc(S(=O)(=O)[NH+]2CCOCC2)c1 (3D coordinates assigned)
O=C(Cc1ccc(Cl)cc1)[N-]c1cccc(S(=O)(=O)[NH+]2CCOCC2)c1 (nonaromatic ring conformer: 56.98709688767184 kcal/mol)

>  <smiles>  (39) 
O=C(Cc1ccc(Cl)cc1)Nc1cccc(S(=O)(=O)N2CCOCC2)c1

>  <score_type>  (39) 
oracle

>  <origin>  (39) 
adgpu

>  <m_score__min__energy>  (39) 
-10.18

>  <m_primary>  (39) 
energy

$$$$
39:0
     RDKit          3D

 49 52  0  0  0  0  0  0  0  0999 V2000
   -4.0360   23.9640  -27.3350 C   0  0  0  0  0  0  0  0  0  0  0  0
   -4.5530   24.2350  -28.7530 C   0  0  1  0  0  0  0  0  0  0  0  0
   -5.0010   22.9240  -29.4250 C   0  0  0  0  0  0  0  0  0  0  0  0
   -5.7770   23.2080  -30.6340 N   0  0  0  0  0  0  0  0  0  0  0  0
   -6.4910   22.1460  -31.2820 C   0  0  0  0  0  0  0  0  0  0  0  0
   -7.7550   21.7890  -30.7940 C   0  0  0  0  0  0  0  0  0  0  0  0
   -8.4920   20.7770  -31.4130 C   0  0  0  0  0  0  0  0  0  0  0  0
   -7.9720   20.1170  -32.5270 C   0  0  0  0  0  0  0  0  0  0  0  0
   -6.7130   20.4640  -33.0230 C   0  0  0  0  0  0  0  0  0  0  0  0
   -5.9560   21.4770  -32.4100 C   0  0  0  0  0  0  0  0  0  0  0  0
   -4.5890   21.7970  -32.9620 C   0  0  0  0  0  0  0  0  0  0  0  0
   -3.5850   21.6960  -31.9060 N   0  0  0  0  0  0  0  0  0  0  0  0
   -3.4030   20.6440  -31.0870 C   0  0  0  0  0  0  0  0  0  0  0  0
   -2.3950   20.9670  -30.1970 C   0  0  0  0  0  0  0  0  0  0  0  0
   -1.8370   20.1450  -29.1040 C   0  0  0  0  0  0  0  0  0  0  0  0
   -2.4640   20.0650  -27.8490 C   0  0  0  0  0  0  0  0  0  0  0  0
   -1.8980   19.2750  -26.8460 C   0  0  0  0  0  0  0  0  0  0  0  0
   -0.7200   18.5710  -27.0980 C   0  0  0  0  0  0  0  0  0  0  0  0
   -0.1210   18.6710  -28.3550 C   0  0  0  0  0  0  0  0  0  0  0  0
   -0.6870   19.4450  -29.3180 N   0  0  0  0  0  0  0  0  0  0  0  0
   -2.0120   22.2510  -30.5420 C   0  0  0  0  0  0  0  0  0  0  0  0
   -2.7560   22.6750  -31.5810 N   0  0  0  0  0  0  0  0  0  0  0  0
   -5.8230   24.5640  -31.1850 C   0  0  0  0  0  0  0  0  0  0  0  0
   -6.1140   25.6040  -30.0810 C   0  0  0  0  0  0  0  0  0  0  0  0
   -5.6810   25.1850  -28.7280 N   0  0  0  0  0  0  0  0  0  0  0  0
   -4.7618   24.3444  -26.6012 H   0  0  0  0  0  0  0  0  0  0  0  0
   -3.9047   22.8811  -27.1933 H   0  0  0  0  0  0  0  0  0  0  0  0
   -3.0707   24.4721  -27.1933 H   0  0  0  0  0  0  0  0  0  0  0  0
   -3.7285   24.6757  -29.3327 H   0  0  0  0  0  0  0  0  0  0  0  0
   -4.1131   22.3335  -29.6949 H   0  0  0  0  0  0  0  0  0  0  0  0
   -5.6311   22.3602  -28.7214 H   0  0  0  0  0  0  0  0  0  0  0  0
   -8.1695   22.3091  -29.9178 H   0  0  0  0  0  0  0  0  0  0  0  0
   -9.4824   20.5002  -31.0224 H   0  0  0  0  0  0  0  0  0  0  0  0
   -8.5545   19.3220  -33.0155 H   0  0  0  0  0  0  0  0  0  0  0  0
   -6.3103   19.9393  -33.9019 H   0  0  0  0  0  0  0  0  0  0  0  0
   -4.3453   21.0858  -33.7650 H   0  0  0  0  0  0  0  0  0  0  0  0
   -4.5921   22.8229  -33.3589 H   0  0  0  0  0  0  0  0  0  0  0  0
   -3.9579   19.6948  -31.1196 H   0  0  0  0  0  0  0  0  0  0  0  0
   -3.3939   20.6206  -27.6579 H   0  0  0  0  0  0  0  0  0  0  0  0
   -2.3799   19.2079  -25.8594 H   0  0  0  0  0  0  0  0  0  0  0  0
   -0.2683   17.9442  -26.3150 H   0  0  0  0  0  0  0  0  0  0  0  0
    0.8093   18.1232  -28.5660 H   0  0  0  0  0  0  0  0  0  0  0  0
   -1.2229   22.8343  -30.0450 H   0  0  0  0  0  0  0  0  0  0  0  0
   -4.8535   24.7957  -31.6501 H   0  0  0  0  0  0  0  0  0  0  0  0
   -6.6308   24.6107  -31.9302 H   0  0  0  0  0  0  0  0  0  0  0  0
   -5.5906   26.5367  -30.3381 H   0  0  0  0  0  0  0  0  0  0  0  0
   -7.2063   25.7278  -30.0410 H   0  0  0  0  0  0  0  0  0  0  0  0
   -5.4050   26.0400  -28.1920 H   0  0  0  0  0  0  0  0  0  0  0  0
   -6.4930   24.7470  -28.2310 H   0  0  0  0  0  0  0  0  0  0  0  0
  1  2  1  0
  2  3  1  0
  3  4  1  0
  4  5  1  0
  5  6  2  0
  6  7  1  0
  7  8  2  0
  8  9  1  0
  9 10  2  0
 10 11  1  0
 11 12  1  0
 12 13  1  0
 13 14  2  0
 14 15  1  0
 15 16  2  0
 16 17  1  0
 17 18  2  0
 18 19  1  0
 19 20  2  0
 14 21  1  0
 21 22  2  0
  4 23  1  0
 23 24  1  0
 24 25  1  0
 25  2  1  0
 10  5  1  0
 22 12  1  0
 20 15  1  0
  1 26  1  0
  1 27  1  0
  1 28  1  0
  2 29  1  6
  3 30  1  0
  3 31  1  0
  6 32  1  0
  7 33  1  0
  8 34  1  0
  9 35  1  0
 11 36  1  0
 11 37  1  0
 13 38  1  0
 16 39  1  0
 17 40  1  0
 18 41  1  0
 19 42  1  0
 21 43  1  0
 23 44  1  0
 23 45  1  0
 24 46  1  0
 24 47  1  0
 25 48  1  0
 25 49  1  0
M  CHG  1  25   1
M  END
>  <UniqueID>  (40) 
39

>  <SMILES>  (40) 
C[C@H]1CN(c2ccccc2Cn2cc(-c3ccccn3)cn2)CC[NH2+]1

>  <Energy>  (40) 
91.07886971606223

>  <Genealogy>  (40) 
CC1CN(c2ccccc2Cn2cc(-c3ccccn3)cn2)CC[NH2+]1 (protonated)
C[C@H]1CN(c2ccccc2Cn2cc(-c3ccccn3)cn2)CC[NH2+]1 (chirality)
C[C@H]1CN(c2ccccc2Cn2cc(-c3ccccn3)cn2)CC[NH2+]1 (3D coordinates assigned)
C[C@H]1CN(c2ccccc2Cn2cc(-c3ccccn3)cn2)CC[NH2+]1 (nonaromatic ring conformer: 91.07886971606223 kcal/mol)

>  <smiles>  (40) 
CC1CN(c2ccccc2Cn2cc(-c3ccccn3)cn2)CCN1

>  <score_type>  (40) 
oracle

>  <origin>  (40) 
adgpu

>  <m_score__min__energy>  (40) 
-8.3699999999999992

>  <m_primary>  (40) 
energy

$$$$
40:0
     RDKit          3D

 58 61  0  0  0  0  0  0  0  0999 V2000
    3.1770   24.7710  -27.5200 C   0  0  0  0  0  0  0  0  0  0  0  0
    2.2160   24.3150  -26.5730 O   0  0  0  0  0  0  0  0  0  0  0  0
    0.9390   24.8720  -26.4110 C   0  0  0  0  0  0  0  0  0  0  0  0
    0.4740   25.3470  -25.1700 C   0  0  0  0  0  0  0  0  0  0  0  0
   -0.8020   25.9070  -25.0660 C   0  0  0  0  0  0  0  0  0  0  0  0
   -1.6280   25.9870  -26.1880 C   0  0  0  0  0  0  0  0  0  0  0  0
   -1.1900   25.4850  -27.4270 C   0  0  0  0  0  0  0  0  0  0  0  0
   -1.9970   25.5760  -28.6150 N   0  0  0  0  0  0  0  0  0  0  0  0
   -2.7450   24.6420  -29.1240 C   0  0  0  0  0  0  0  0  0  0  0  0
   -3.4780   24.9140  -30.2360 N   0  0  0  0  0  0  0  0  0  0  0  0
   -4.2510   23.9620  -30.8190 C   0  0  0  0  0  0  0  0  0  0  0  0
   -4.3140   22.6760  -30.2740 C   0  0  0  0  0  0  0  0  0  0  0  0
   -5.1100   21.6620  -30.9100 N   0  0  0  0  0  0  0  0  0  0  0  0
   -6.2260   21.9460  -31.7670 C   0  0  0  0  0  0  0  0  0  0  0  0
   -6.2970   23.0540  -32.3640 O   0  0  0  0  0  0  0  0  0  0  0  0
   -7.2560   20.9140  -32.0250 C   0  0  0  0  0  0  0  0  0  0  0  0
   -6.8370   19.5860  -32.2230 C   0  0  0  0  0  0  0  0  0  0  0  0
   -7.7650   18.5610  -32.4290 C   0  0  0  0  0  0  0  0  0  0  0  0
   -7.2790   17.2230  -32.6230 N   0  0  0  0  0  0  0  0  0  0  0  0
   -6.4760   16.7490  -33.7140 C   0  0  0  0  0  0  0  0  0  0  0  0
   -6.9790   15.9890  -34.5850 O   0  0  0  0  0  0  0  0  0  0  0  0
   -5.0390   17.1050  -33.7860 C   0  0  0  0  0  0  0  0  0  0  0  0
   -4.0570   16.1030  -33.8850 C   0  0  0  0  0  0  0  0  0  0  0  0
   -2.7040   16.4430  -33.9640 C   0  0  0  0  0  0  0  0  0  0  0  0
   -2.3130   17.7830  -33.9380 C   0  0  0  0  0  0  0  0  0  0  0  0
   -3.2750   18.7960  -33.8200 C   0  0  0  0  0  0  0  0  0  0  0  0
   -2.8650   20.2380  -33.8220 C   0  0  0  0  0  0  0  0  0  0  0  0
   -4.6350   18.4540  -33.7580 C   0  0  0  0  0  0  0  0  0  0  0  0
   -9.1320   18.8730  -32.4890 C   0  0  0  0  0  0  0  0  0  0  0  0
   -9.5620   20.1890  -32.3100 C   0  0  0  0  0  0  0  0  0  0  0  0
   -8.6380   21.2230  -32.0920 C   0  0  0  0  0  0  0  0  0  0  0  0
   -9.1530   22.6310  -31.9420 C   0  0  0  0  0  0  0  0  0  0  0  0
   -3.5310   22.4060  -29.1430 C   0  0  0  0  0  0  0  0  0  0  0  0
   -2.7670   23.3860  -28.5970 N   0  0  0  0  0  0  0  0  0  0  0  0
    0.1030   24.9560  -27.5310 C   0  0  0  0  0  0  0  0  0  0  0  0
    4.0474   25.1840  -26.9892 H   0  0  0  0  0  0  0  0  0  0  0  0
    3.4979   23.9292  -28.1511 H   0  0  0  0  0  0  0  0  0  0  0  0
    2.7279   25.5520  -28.1511 H   0  0  0  0  0  0  0  0  0  0  0  0
    1.1167   25.2771  -24.2800 H   0  0  0  0  0  0  0  0  0  0  0  0
   -1.1567   26.2861  -24.0962 H   0  0  0  0  0  0  0  0  0  0  0  0
   -2.6249   26.4441  -26.1033 H   0  0  0  0  0  0  0  0  0  0  0  0
   -4.8295   24.2033  -31.7229 H   0  0  0  0  0  0  0  0  0  0  0  0
   -4.8220   20.6640  -30.7980 H   0  0  0  0  0  0  0  0  0  0  0  0
   -5.7626   19.3503  -32.2156 H   0  0  0  0  0  0  0  0  0  0  0  0
   -4.3561   15.0446  -33.9003 H   0  0  0  0  0  0  0  0  0  0  0  0
   -1.9441   15.6520  -34.0470 H   0  0  0  0  0  0  0  0  0  0  0  0
   -1.2470   18.0447  -34.0103 H   0  0  0  0  0  0  0  0  0  0  0  0
   -2.7643   20.5920  -32.7854 H   0  0  0  0  0  0  0  0  0  0  0  0
   -1.9010   20.3444  -34.3410 H   0  0  0  0  0  0  0  0  0  0  0  0
   -3.6288   20.8357  -34.3410 H   0  0  0  0  0  0  0  0  0  0  0  0
   -5.3931   19.2478  -33.6868 H   0  0  0  0  0  0  0  0  0  0  0  0
   -9.8677   18.0773  -32.6778 H   0  0  0  0  0  0  0  0  0  0  0  0
  -10.6374   20.4184  -32.3401 H   0  0  0  0  0  0  0  0  0  0  0  0
   -9.2429   22.8767  -30.8736 H   0  0  0  0  0  0  0  0  0  0  0  0
   -8.4526   23.3306  -32.4215 H   0  0  0  0  0  0  0  0  0  0  0  0
  -10.1396   22.7136  -32.4215 H   0  0  0  0  0  0  0  0  0  0  0  0
   -3.5358   21.4000  -28.6981 H   0  0  0  0  0  0  0  0  0  0  0  0
    0.4667   24.6015  -28.5067 H   0  0  0  0  0  0  0  0  0  0  0  0
  1  2  1  0
  2  3  1  0
  3  4  2  0
  4  5  1  0
  5  6  2  0
  6  7  1  0
  7  8  1  0
  8  9  2  3
  9 10  1  0
 10 11  2  0
 11 12  1  0
 12 13  1  0
 13 14  1  0
 14 15  2  0
 14 16  1  0
 16 17  2  0
 17 18  1  0
 18 19  1  0
 19 20  1  0
 20 21  2  0
 20 22  1  0
 22 23  2  0
 23 24  1  0
 24 25  2  0
 25 26  1  0
 26 27  1  0
 26 28  2  0
 18 29  2  0
 29 30  1  0
 30 31  2  0
 31 32  1  0
 12 33  2  0
 33 34  1  0
  7 35  2  0
 35  3  1  0
 34  9  1  0
 31 16  1  0
 28 22  1  0
  1 36  1  0
  1 37  1  0
  1 38  1  0
  4 39  1  0
  5 40  1  0
  6 41  1  0
 11 42  1  0
 13 43  1  0
 17 44  1  0
 23 45  1  0
 24 46  1  0
 25 47  1  0
 27 48  1  0
 27 49  1  0
 27 50  1  0
 28 51  1  0
 29 52  1  0
 30 53  1  0
 32 54  1  0
 32 55  1  0
 32 56  1  0
 33 57  1  0
 35 58  1  0
M  CHG  2  19  -1  34  -1
M  END
>  <UniqueID>  (41) 
40

>  <SMILES>  (41) 
COc1cccc(N=c2ncc(NC(=O)c3cc([N-]C(=O)c4cccc(C)c4)ccc3C)c[n-]2)c1

>  <Energy>  (41) 
81.61775178508927

>  <Genealogy>  (41) 
COc1cccc(N=c2ncc(NC(=O)c3cc([N-]C(=O)c4cccc(C)c4)ccc3C)c[n-]2)c1 (protonated)
COc1cccc(N=c2ncc(NC(=O)c3cc([N-]C(=O)c4cccc(C)c4)ccc3C)c[n-]2)c1 (3D coordinates assigned)
COc1cccc(N=c2ncc(NC(=O)c3cc([N-]C(=O)c4cccc(C)c4)ccc3C)c[n-]2)c1 (optimized conformer: 81.61775178508927 kcal/mol)

>  <smiles>  (41) 
COc1cccc(N=c2ncc(NC(=O)c3cc(NC(=O)c4cccc(C)c4)ccc3C)c[nH]2)c1

>  <score_type>  (41) 
oracle

>  <origin>  (41) 
adgpu

>  <m_score__min__energy>  (41) 
-11.539999999999999

>  <m_primary>  (41) 
energy

$$$$
41:0
     RDKit          3D

 58 61  0  0  0  0  0  0  0  0999 V2000
   -6.8790   24.8550  -29.7230 C   0  0  0  0  0  0  0  0  0  0  0  0
   -5.6650   24.4810  -30.5940 C   0  0  0  0  0  0  0  0  0  0  0  0
   -4.6880   25.6620  -30.7020 C   0  0  0  0  0  0  0  0  0  0  0  0
   -4.9380   23.2360  -30.0920 C   0  0  0  0  0  0  0  0  0  0  0  0
   -4.5050   23.1760  -28.7480 C   0  0  0  0  0  0  0  0  0  0  0  0
   -3.7220   22.1020  -28.2850 C   0  0  0  0  0  0  0  0  0  0  0  0
   -3.3240   21.0970  -29.1660 C   0  0  0  0  0  0  0  0  0  0  0  0
   -3.7360   21.1450  -30.5030 C   0  0  0  0  0  0  0  0  0  0  0  0
   -4.5570   22.1880  -30.9720 C   0  0  0  0  0  0  0  0  0  0  0  0
   -5.1120   22.1150  -32.6910 S   0  0  0  0  0  0  0  0  0  0  0  0
   -6.7840   21.6060  -32.2230 C   0  0  0  0  0  0  0  0  0  0  0  0
   -7.6890   22.5760  -31.7680 C   0  0  0  0  0  0  0  0  0  0  0  0
   -8.9690   22.2040  -31.3370 C   0  0  0  0  0  0  0  0  0  0  0  0
   -9.3580   20.8630  -31.3710 C   0  0  0  0  0  0  0  0  0  0  0  0
   -8.4750   19.8890  -31.8420 C   0  0  0  0  0  0  0  0  0  0  0  0
   -7.1890   20.2500  -32.2790 C   0  0  0  0  0  0  0  0  0  0  0  0
   -6.3360   19.2110  -32.8850 C   0  0  0  0  0  0  0  0  0  0  0  0
   -6.1140   19.2210  -34.2750 C   0  0  0  0  0  0  0  0  0  0  0  0
   -5.4060   18.1830  -34.8780 C   0  0  0  0  0  0  0  0  0  0  0  0
   -4.8980   17.1240  -34.0990 C   0  0  0  0  0  0  0  0  0  0  0  0
   -4.1400   15.9890  -34.7490 C   0  0  0  0  0  0  0  0  0  0  0  0
   -2.7490   16.3720  -35.1040 N   0  0  0  0  0  0  0  0  0  0  0  0
   -2.3400   17.5860  -34.3730 C   0  0  0  0  0  0  0  0  0  0  0  0
   -1.6310   17.1460  -33.0970 C   0  0  0  0  0  0  0  0  0  0  0  0
   -1.3240   15.6650  -33.2910 C   0  0  0  0  0  0  0  0  0  0  0  0
   -1.7620   15.3520  -34.7130 C   0  0  0  0  0  0  0  0  0  0  0  0
   -5.1020   17.1330  -32.7060 C   0  0  0  0  0  0  0  0  0  0  0  0
   -5.8300   18.1590  -32.1030 C   0  0  0  0  0  0  0  0  0  0  0  0
   -6.6075   24.7714  -28.6603 H   0  0  0  0  0  0  0  0  0  0  0  0
   -7.1838   25.8887  -29.9433 H   0  0  0  0  0  0  0  0  0  0  0  0
   -7.7127   24.1720  -29.9433 H   0  0  0  0  0  0  0  0  0  0  0  0
   -6.0579   24.2434  -31.5936 H   0  0  0  0  0  0  0  0  0  0  0  0
   -4.4084   26.0000  -29.6932 H   0  0  0  0  0  0  0  0  0  0  0  0
   -3.7861   25.3432  -31.2450 H   0  0  0  0  0  0  0  0  0  0  0  0
   -5.1701   26.4882  -31.2450 H   0  0  0  0  0  0  0  0  0  0  0  0
   -4.7844   23.9814  -28.0528 H   0  0  0  0  0  0  0  0  0  0  0  0
   -3.4237   22.0553  -27.2272 H   0  0  0  0  0  0  0  0  0  0  0  0
   -2.6897   20.2709  -28.8122 H   0  0  0  0  0  0  0  0  0  0  0  0
   -3.4133   20.3556  -31.1978 H   0  0  0  0  0  0  0  0  0  0  0  0
   -7.3920   23.6350  -31.7494 H   0  0  0  0  0  0  0  0  0  0  0  0
   -9.6691   22.9695  -30.9711 H   0  0  0  0  0  0  0  0  0  0  0  0
  -10.3617   20.5736  -31.0262 H   0  0  0  0  0  0  0  0  0  0  0  0
   -8.7874   18.8347  -31.8711 H   0  0  0  0  0  0  0  0  0  0  0  0
   -6.5001   20.0498  -34.8865 H   0  0  0  0  0  0  0  0  0  0  0  0
   -5.2431   18.1903  -35.9658 H   0  0  0  0  0  0  0  0  0  0  0  0
   -4.1061   15.1401  -34.0503 H   0  0  0  0  0  0  0  0  0  0  0  0
   -4.6640   15.7225  -35.6787 H   0  0  0  0  0  0  0  0  0  0  0  0
   -2.6860   16.5500  -36.1350 H   0  0  0  0  0  0  0  0  0  0  0  0
   -1.6563   18.1838  -34.9936 H   0  0  0  0  0  0  0  0  0  0  0  0
   -3.2182   18.2026  -34.1311 H   0  0  0  0  0  0  0  0  0  0  0  0
   -0.7008   17.7164  -32.9580 H   0  0  0  0  0  0  0  0  0  0  0  0
   -2.2506   17.3207  -32.2051 H   0  0  0  0  0  0  0  0  0  0  0  0
   -0.2477   15.4745  -33.1678 H   0  0  0  0  0  0  0  0  0  0  0  0
   -1.8431   15.0365  -32.5524 H   0  0  0  0  0  0  0  0  0  0  0  0
   -0.8957   15.3881  -35.3899 H   0  0  0  0  0  0  0  0  0  0  0  0
   -2.2002   14.3448  -34.7717 H   0  0  0  0  0  0  0  0  0  0  0  0
   -4.6840   16.3246  -32.0881 H   0  0  0  0  0  0  0  0  0  0  0  0
   -6.0075   18.1444  -31.0175 H   0  0  0  0  0  0  0  0  0  0  0  0
  1  2  1  0
  2  3  1  0
  2  4  1  0
  4  5  2  0
  5  6  1  0
  6  7  2  0
  7  8  1  0
  8  9  2  0
  9 10  1  0
 10 11  1  0
 11 12  2  0
 12 13  1  0
 13 14  2  0
 14 15  1  0
 15 16  2  0
 16 17  1  0
 17 18  2  0
 18 19  1  0
 19 20  2  0
 20 21  1  0
 21 22  1  0
 22 23  1  0
 23 24  1  0
 24 25  1  0
 25 26  1  0
 20 27  1  0
 27 28  2  0
  9  4  1  0
 16 11  1  0
 28 17  1  0
 26 22  1  0
  1 29  1  0
  1 30  1  0
  1 31  1  0
  2 32  1  0
  3 33  1  0
  3 34  1  0
  3 35  1  0
  5 36  1  0
  6 37  1  0
  7 38  1  0
  8 39  1  0
 12 40  1  0
 13 41  1  0
 14 42  1  0
 15 43  1  0
 18 44  1  0
 19 45  1  0
 21 46  1  0
 21 47  1  0
 22 48  1  0
 23 49  1  0
 23 50  1  0
 24 51  1  0
 24 52  1  0
 25 53  1  0
 25 54  1  0
 26 55  1  0
 26 56  1  0
 27 57  1  0
 28 58  1  0
M  CHG  1  22   1
M  END
>  <UniqueID>  (42) 
41

>  <SMILES>  (42) 
CC(C)c1ccccc1Sc1ccccc1-c1ccc(C[NH+]2CCCC2)cc1

>  <Energy>  (42) 
68.15237061517698

>  <Genealogy>  (42) 
CC(C)c1ccccc1Sc1ccccc1-c1ccc(C[NH+]2CCCC2)cc1 (protonated)
CC(C)c1ccccc1Sc1ccccc1-c1ccc(C[NH+]2CCCC2)cc1 (3D coordinates assigned)
CC(C)c1ccccc1Sc1ccccc1-c1ccc(C[NH+]2CCCC2)cc1 (nonaromatic ring conformer: 68.15237061517698 kcal/mol)

>  <smiles>  (42) 
CC(C)c1ccccc1Sc1ccccc1-c1ccc(CN2CCCC2)cc1

>  <score_type>  (42) 
oracle

>  <origin>  (42) 
adgpu

>  <m_score__min__energy>  (42) 
-8.6199999999999992

>  <m_primary>  (42) 
energy

$$$$
42:0
     RDKit          3D

 43 45  0  0  0  0  0  0  0  0999 V2000
   -0.4110   30.1250  -26.9310 C   0  0  0  0  0  0  0  0  0  0  0  0
    0.1770   29.3300  -25.4020 S   0  0  0  0  0  0  0  0  0  0  0  0
   -0.4910   27.7220  -25.8390 C   0  0  0  0  0  0  0  0  0  0  0  0
   -0.7590   26.7800  -24.8390 C   0  0  0  0  0  0  0  0  0  0  0  0
   -1.2780   25.5280  -25.1800 C   0  0  0  0  0  0  0  0  0  0  0  0
   -1.5150   25.2090  -26.5210 C   0  0  0  0  0  0  0  0  0  0  0  0
   -1.2220   26.1330  -27.5300 C   0  0  0  0  0  0  0  0  0  0  0  0
   -1.4530   25.7650  -28.8980 N   0  0  0  0  0  0  0  0  0  0  0  0
   -2.4100   24.8000  -29.3600 C   0  0  0  0  0  0  0  0  0  0  0  0
   -2.2810   23.5990  -29.0090 O   0  0  0  0  0  0  0  0  0  0  0  0
   -3.5070   25.1610  -30.2090 N   0  0  0  0  0  0  0  0  0  0  0  0
   -4.7450   24.4470  -30.3320 C   0  0  0  0  0  0  0  0  0  0  0  0
   -5.9390   25.1000  -30.0100 C   0  0  0  0  0  0  0  0  0  0  0  0
   -7.1650   24.4400  -30.1430 C   0  0  0  0  0  0  0  0  0  0  0  0
   -7.2060   23.1030  -30.5830 C   0  0  0  0  0  0  0  0  0  0  0  0
   -8.4090   22.4010  -30.7420 O   0  0  0  0  0  0  0  0  0  0  0  0
   -8.8840   21.8850  -31.9820 C   0  0  0  0  0  0  0  0  0  0  0  0
   -8.3720   20.4910  -32.1630 C   0  0  0  0  0  0  0  0  0  0  0  0
   -7.2410   20.2450  -32.9530 C   0  0  0  0  0  0  0  0  0  0  0  0
   -6.7670   18.9370  -33.0780 C   0  0  0  0  0  0  0  0  0  0  0  0
   -7.4190   17.8940  -32.4180 C   0  0  0  0  0  0  0  0  0  0  0  0
   -8.5390   18.1780  -31.6350 C   0  0  0  0  0  0  0  0  0  0  0  0
   -8.9850   19.4580  -31.5210 N   0  0  0  0  0  0  0  0  0  0  0  0
   -6.0080   22.4430  -30.8710 C   0  0  0  0  0  0  0  0  0  0  0  0
   -4.7830   23.1040  -30.7410 C   0  0  0  0  0  0  0  0  0  0  0  0
   -0.7320   27.4040  -27.1800 C   0  0  0  0  0  0  0  0  0  0  0  0
   -1.0473   30.9852  -26.6757 H   0  0  0  0  0  0  0  0  0  0  0  0
    0.4516   30.4691  -27.5205 H   0  0  0  0  0  0  0  0  0  0  0  0
   -0.9926   29.4009  -27.5205 H   0  0  0  0  0  0  0  0  0  0  0  0
   -0.5612   27.0251  -23.7851 H   0  0  0  0  0  0  0  0  0  0  0  0
   -1.5004   24.7926  -24.3928 H   0  0  0  0  0  0  0  0  0  0  0  0
   -1.9340   24.2265  -26.7838 H   0  0  0  0  0  0  0  0  0  0  0  0
   -5.9138   26.1391  -29.6499 H   0  0  0  0  0  0  0  0  0  0  0  0
   -8.1002   24.9671  -29.9031 H   0  0  0  0  0  0  0  0  0  0  0  0
   -9.9840   21.8755  -31.9794 H   0  0  0  0  0  0  0  0  0  0  0  0
   -8.5281   22.5195  -32.8070 H   0  0  0  0  0  0  0  0  0  0  0  0
   -6.7322   21.0726  -33.4689 H   0  0  0  0  0  0  0  0  0  0  0  0
   -5.8810   18.7291  -33.6958 H   0  0  0  0  0  0  0  0  0  0  0  0
   -7.0545   16.8606  -32.5138 H   0  0  0  0  0  0  0  0  0  0  0  0
   -9.0618   17.3654  -31.1093 H   0  0  0  0  0  0  0  0  0  0  0  0
   -6.0293   21.3945  -31.2028 H   0  0  0  0  0  0  0  0  0  0  0  0
   -3.8461   22.5706  -30.9597 H   0  0  0  0  0  0  0  0  0  0  0  0
   -0.5375   28.1510  -27.9637 H   0  0  0  0  0  0  0  0  0  0  0  0
  1  2  1  0
  2  3  1  0
  3  4  2  0
  4  5  1  0
  5  6  2  0
  6  7  1  0
  7  8  1  0
  8  9  1  0
  9 10  2  0
  9 11  1  0
 11 12  1  0
 12 13  2  0
 13 14  1  0
 14 15  2  0
 15 16  1  0
 16 17  1  0
 17 18  1  0
 18 19  2  0
 19 20  1  0
 20 21  2  0
 21 22  1  0
 22 23  2  0
 15 24  1  0
 24 25  2  0
  7 26  2  0
 26  3  1  0
 25 12  1  0
 23 18  1  0
  1 27  1  0
  1 28  1  0
  1 29  1  0
  4 30  1  0
  5 31  1  0
  6 32  1  0
 13 33  1  0
 14 34  1  0
 17 35  1  0
 17 36  1  0
 19 37  1  0
 20 38  1  0
 21 39  1  0
 22 40  1  0
 24 41  1  0
 25 42  1  0
 26 43  1  0
M  CHG  2   8  -1  11  -1
M  END
>  <UniqueID>  (43) 
42

>  <SMILES>  (43) 
CSc1cccc([N-]C(=O)[N-]c2ccc(OCc3ccccn3)cc2)c1

>  <Energy>  (43) 
47.4197736839367

>  <Genealogy>  (43) 
CSc1cccc([N-]C(=O)[N-]c2ccc(OCc3ccccn3)cc2)c1 (protonated)
CSc1cccc([N-]C(=O)[N-]c2ccc(OCc3ccccn3)cc2)c1 (3D coordinates assigned)
CSc1cccc([N-]C(=O)[N-]c2ccc(OCc3ccccn3)cc2)c1 (optimized conformer: 47.4197736839367 kcal/mol)

>  <smiles>  (43) 
CSc1cccc(NC(=O)Nc2ccc(OCc3ccccn3)cc2)c1

>  <score_type>  (43) 
oracle

>  <origin>  (43) 
adgpu

>  <m_score__min__energy>  (43) 
-11.65

>  <m_primary>  (43) 
energy

$$$$
43:0
     RDKit          3D

 52 54  0  0  0  0  0  0  0  0999 V2000
   -6.1350   18.1330  -31.6380 C   0  0  0  0  0  0  0  0  0  0  0  0
   -5.3880   19.4280  -31.9500 C   0  0  0  0  0  0  0  0  0  0  0  0
   -5.2500   19.6880  -33.4600 C   0  0  0  0  0  0  0  0  0  0  0  0
   -4.4420   18.6110  -34.2050 C   0  0  0  0  0  0  0  0  0  0  0  0
   -3.1070   19.0430  -34.4750 O   0  0  0  0  0  0  0  0  0  0  0  0
   -2.1490   19.3560  -33.4990 C   0  0  0  0  0  0  0  0  0  0  0  0
   -1.5950   18.3070  -32.7600 C   0  0  0  0  0  0  0  0  0  0  0  0
   -0.7240   18.5710  -31.7010 C   0  0  0  0  0  0  0  0  0  0  0  0
   -0.3840   19.8950  -31.3800 C   0  0  0  0  0  0  0  0  0  0  0  0
    0.3470   20.1970  -30.1860 N   0  0  0  0  0  0  0  0  0  0  0  0
   -0.4750   20.5880  -28.7110 S   0  0  0  0  0  0  0  0  0  0  0  0
   -1.2420   19.3910  -28.2240 O   0  0  0  0  0  0  0  0  0  0  0  0
    0.5260   20.9950  -27.6650 O   0  0  0  0  0  0  0  0  0  0  0  0
   -1.5550   21.9420  -29.0360 C   0  0  0  0  0  0  0  0  0  0  0  0
   -2.8230   21.7300  -29.5930 C   0  0  0  0  0  0  0  0  0  0  0  0
   -3.5820   22.8130  -30.0480 C   0  0  0  0  0  0  0  0  0  0  0  0
   -3.0720   24.1220  -29.9580 C   0  0  0  0  0  0  0  0  0  0  0  0
   -3.7880   25.2540  -30.4690 N   0  0  0  0  0  0  0  0  0  0  0  0
   -5.2130   25.4130  -30.5020 C   0  0  0  0  0  0  0  0  0  0  0  0
   -5.7350   26.5180  -30.1890 O   0  0  0  0  0  0  0  0  0  0  0  0
   -6.0790   24.2600  -30.8390 C   0  0  0  0  0  0  0  0  0  0  0  0
   -6.8260   23.6080  -29.8390 C   0  0  0  0  0  0  0  0  0  0  0  0
   -7.6330   22.5120  -30.1570 C   0  0  0  0  0  0  0  0  0  0  0  0
   -7.7080   22.0550  -31.4750 C   0  0  0  0  0  0  0  0  0  0  0  0
   -8.8130   20.5570  -31.9060 Br  0  0  0  0  0  0  0  0  0  0  0  0
   -6.9750   22.6950  -32.4770 C   0  0  0  0  0  0  0  0  0  0  0  0
   -6.1640   23.7900  -32.1640 C   0  0  0  0  0  0  0  0  0  0  0  0
   -1.8330   24.3330  -29.3420 C   0  0  0  0  0  0  0  0  0  0  0  0
   -1.0730   23.2500  -28.8940 C   0  0  0  0  0  0  0  0  0  0  0  0
   -0.8610   20.9410  -32.1750 C   0  0  0  0  0  0  0  0  0  0  0  0
   -1.7470   20.6780  -33.2260 C   0  0  0  0  0  0  0  0  0  0  0  0
   -6.2085   18.0056  -30.5479 H   0  0  0  0  0  0  0  0  0  0  0  0
   -7.1453   18.1791  -32.0707 H   0  0  0  0  0  0  0  0  0  0  0  0
   -5.5893   17.2815  -32.0707 H   0  0  0  0  0  0  0  0  0  0  0  0
   -5.9361   20.2676  -31.4975 H   0  0  0  0  0  0  0  0  0  0  0  0
   -4.3732   19.3327  -31.5364 H   0  0  0  0  0  0  0  0  0  0  0  0
   -6.2581   19.7301  -33.8981 H   0  0  0  0  0  0  0  0  0  0  0  0
   -4.7016   20.6349  -33.5730 H   0  0  0  0  0  0  0  0  0  0  0  0
   -4.4042   17.7023  -33.5863 H   0  0  0  0  0  0  0  0  0  0  0  0
   -4.9391   18.4136  -35.1662 H   0  0  0  0  0  0  0  0  0  0  0  0
   -1.8467   17.2668  -33.0142 H   0  0  0  0  0  0  0  0  0  0  0  0
   -0.3031   17.7395  -31.1167 H   0  0  0  0  0  0  0  0  0  0  0  0
   -3.2229   20.7084  -29.6727 H   0  0  0  0  0  0  0  0  0  0  0  0
   -4.5801   22.6415  -30.4773 H   0  0  0  0  0  0  0  0  0  0  0  0
   -6.7740   23.9640  -28.7995 H   0  0  0  0  0  0  0  0  0  0  0  0
   -8.2103   22.0082  -29.3678 H   0  0  0  0  0  0  0  0  0  0  0  0
   -7.0360   22.3365  -33.5152 H   0  0  0  0  0  0  0  0  0  0  0  0
   -5.5883   24.2879  -32.9581 H   0  0  0  0  0  0  0  0  0  0  0  0
   -1.4555   25.3577  -29.2099 H   0  0  0  0  0  0  0  0  0  0  0  0
   -0.0921   23.4247  -28.4278 H   0  0  0  0  0  0  0  0  0  0  0  0
   -0.5392   21.9735  -31.9741 H   0  0  0  0  0  0  0  0  0  0  0  0
   -2.1304   21.5059  -33.8404 H   0  0  0  0  0  0  0  0  0  0  0  0
  1  2  1  0
  2  3  1  0
  3  4  1  0
  4  5  1  0
  5  6  1  0
  6  7  2  0
  7  8  1  0
  8  9  2  0
  9 10  1  0
 10 11  1  0
 11 12  2  0
 11 13  2  0
 11 14  1  0
 14 15  2  0
 15 16  1  0
 16 17  2  0
 17 18  1  0
 18 19  1  0
 19 20  2  0
 19 21  1  0
 21 22  2  0
 22 23  1  0
 23 24  2  0
 24 25  1  0
 24 26  1  0
 26 27  2  0
 17 28  1  0
 28 29  2  0
  9 30  1  0
 30 31  2  0
 31  6  1  0
 29 14  1  0
 27 21  1  0
  1 32  1  0
  1 33  1  0
  1 34  1  0
  2 35  1  0
  2 36  1  0
  3 37  1  0
  3 38  1  0
  4 39  1  0
  4 40  1  0
  7 41  1  0
  8 42  1  0
 15 43  1  0
 16 44  1  0
 22 45  1  0
 23 46  1  0
 26 47  1  0
 27 48  1  0
 28 49  1  0
 29 50  1  0
 30 51  1  0
 31 52  1  0
M  CHG  2  10  -1  18  -1
M  END
>  <UniqueID>  (44) 
43

>  <SMILES>  (44) 
CCCCOc1ccc([N-]S(=O)(=O)c2ccc([N-]C(=O)c3ccc(Br)cc3)cc2)cc1

>  <Energy>  (44) 
57.72329320333326

>  <Genealogy>  (44) 
CCCCOc1ccc([N-]S(=O)(=O)c2ccc([N-]C(=O)c3ccc(Br)cc3)cc2)cc1 (protonated)
CCCCOc1ccc([N-]S(=O)(=O)c2ccc([N-]C(=O)c3ccc(Br)cc3)cc2)cc1 (3D coordinates assigned)
CCCCOc1ccc([N-]S(=O)(=O)c2ccc([N-]C(=O)c3ccc(Br)cc3)cc2)cc1 (optimized conformer: 57.72329320333326 kcal/mol)

>  <smiles>  (44) 
CCCCOc1ccc(NS(=O)(=O)c2ccc(NC(=O)c3ccc(Br)cc3)cc2)cc1

>  <score_type>  (44) 
oracle

>  <origin>  (44) 
adgpu

>  <m_score__min__energy>  (44) 
-11.07

>  <m_primary>  (44) 
energy

$$$$
44:0
     RDKit          3D

 37 38  0  0  0  0  0  0  0  0999 V2000
   -6.0330   18.2480  -34.1440 C   0  0  0  0  0  0  0  0  0  0  0  0
   -7.1460   18.3700  -33.2650 O   0  0  0  0  0  0  0  0  0  0  0  0
   -7.5460   19.5680  -32.6520 C   0  0  0  0  0  0  0  0  0  0  0  0
   -6.8380   20.7740  -32.8250 C   0  0  0  0  0  0  0  0  0  0  0  0
   -7.2720   21.9510  -32.1930 C   0  0  0  0  0  0  0  0  0  0  0  0
   -6.4750   23.2190  -32.3360 C   0  0  0  0  0  0  0  0  0  0  0  0
   -5.2520   23.1390  -31.5300 N   0  0  0  0  0  0  0  0  0  0  0  0
   -4.2490   22.1540  -31.8340 C   0  0  0  0  0  0  0  0  0  0  0  0
   -3.6560   21.4020  -30.8080 C   0  0  0  0  0  0  0  0  0  0  0  0
   -2.7000   20.4280  -31.1110 C   0  0  0  0  0  0  0  0  0  0  0  0
   -2.3290   20.1980  -32.4380 C   0  0  0  0  0  0  0  0  0  0  0  0
   -2.9170   20.9400  -33.4660 C   0  0  0  0  0  0  0  0  0  0  0  0
   -3.8750   21.9140  -33.1670 C   0  0  0  0  0  0  0  0  0  0  0  0
   -4.9620   24.3180  -30.2830 S   0  0  0  0  0  0  0  0  0  0  0  0
   -6.4490   25.2370  -29.9400 C   0  0  0  0  0  0  0  0  0  0  0  0
   -3.9100   25.2910  -30.7360 O   0  0  0  0  0  0  0  0  0  0  0  0
   -4.4960   23.6260  -29.0330 O   0  0  0  0  0  0  0  0  0  0  0  0
   -8.4070   21.9140  -31.3710 C   0  0  0  0  0  0  0  0  0  0  0  0
   -9.1140   20.7220  -31.2010 C   0  0  0  0  0  0  0  0  0  0  0  0
   -8.6860   19.5550  -31.8400 C   0  0  0  0  0  0  0  0  0  0  0  0
   -9.3800   18.4020  -31.6620 F   0  0  0  0  0  0  0  0  0  0  0  0
   -5.1097   18.1468  -33.5547 H   0  0  0  0  0  0  0  0  0  0  0  0
   -6.1625   17.3587  -34.7783 H   0  0  0  0  0  0  0  0  0  0  0  0
   -5.9667   19.1443  -34.7783 H   0  0  0  0  0  0  0  0  0  0  0  0
   -5.9394   20.7939  -33.4592 H   0  0  0  0  0  0  0  0  0  0  0  0
   -6.2056   23.3622  -33.3928 H   0  0  0  0  0  0  0  0  0  0  0  0
   -7.0819   24.0672  -31.9863 H   0  0  0  0  0  0  0  0  0  0  0  0
   -3.9445   21.5797  -29.7615 H   0  0  0  0  0  0  0  0  0  0  0  0
   -2.2389   19.8414  -30.3027 H   0  0  0  0  0  0  0  0  0  0  0  0
   -1.5744   19.4332  -32.6737 H   0  0  0  0  0  0  0  0  0  0  0  0
   -2.6261   20.7578  -34.5111 H   0  0  0  0  0  0  0  0  0  0  0  0
   -4.3376   22.4946  -33.9787 H   0  0  0  0  0  0  0  0  0  0  0  0
   -6.5852   25.3212  -28.8517 H   0  0  0  0  0  0  0  0  0  0  0  0
   -6.3678   26.2427  -30.3782 H   0  0  0  0  0  0  0  0  0  0  0  0
   -7.3122   24.7146  -30.3782 H   0  0  0  0  0  0  0  0  0  0  0  0
   -8.7419   22.8276  -30.8579 H   0  0  0  0  0  0  0  0  0  0  0  0
  -10.0097   20.7014  -30.5628 H   0  0  0  0  0  0  0  0  0  0  0  0
  1  2  1  0
  2  3  1  0
  3  4  2  0
  4  5  1  0
  5  6  1  0
  6  7  1  0
  7  8  1  0
  8  9  2  0
  9 10  1  0
 10 11  2  0
 11 12  1  0
 12 13  2  0
  7 14  1  0
 14 15  1  0
 14 16  2  0
 14 17  2  0
  5 18  2  0
 18 19  1  0
 19 20  2  0
 20 21  1  0
 20  3  1  0
 13  8  1  0
  1 22  1  0
  1 23  1  0
  1 24  1  0
  4 25  1  0
  6 26  1  0
  6 27  1  0
  9 28  1  0
 10 29  1  0
 11 30  1  0
 12 31  1  0
 13 32  1  0
 15 33  1  0
 15 34  1  0
 15 35  1  0
 18 36  1  0
 19 37  1  0
M  END
>  <UniqueID>  (45) 
44

>  <SMILES>  (45) 
COc1cc(CN(c2ccccc2)S(C)(=O)=O)ccc1F

>  <Energy>  (45) 
35.68269897553246

>  <Genealogy>  (45) 
COc1cc(CN(c2ccccc2)S(C)(=O)=O)ccc1F (3D coordinates assigned)
COc1cc(CN(c2ccccc2)S(C)(=O)=O)ccc1F (optimized conformer: 35.68269897553246 kcal/mol)

>  <smiles>  (45) 
COc1cc(CN(c2ccccc2)S(C)(=O)=O)ccc1F

>  <score_type>  (45) 
oracle

>  <origin>  (45) 
adgpu

>  <m_score__min__energy>  (45) 
-7.6500000000000004

>  <m_primary>  (45) 
energy

$$$$
45:0
     RDKit          3D

 42 44  0  0  0  0  0  0  0  0999 V2000
   -1.1080   18.7350  -27.0910 C   0  0  0  0  0  0  0  0  0  0  0  0
   -0.7690   19.8830  -27.8630 O   0  0  0  0  0  0  0  0  0  0  0  0
   -1.6900   20.8470  -28.2980 C   0  0  0  0  0  0  0  0  0  0  0  0
   -2.3070   21.7470  -27.4190 C   0  0  0  0  0  0  0  0  0  0  0  0
   -3.2040   22.6980  -27.9020 C   0  0  0  0  0  0  0  0  0  0  0  0
   -3.5160   22.7710  -29.2700 C   0  0  0  0  0  0  0  0  0  0  0  0
   -4.6340   24.0510  -29.7890 S   0  0  0  0  0  0  0  0  0  0  0  0
   -4.9680   24.9240  -28.6110 O   0  0  0  0  0  0  0  0  0  0  0  0
   -3.9840   24.9120  -30.8370 O   0  0  0  0  0  0  0  0  0  0  0  0
   -6.0880   23.3660  -30.5070 C   0  0  0  0  0  0  0  0  0  0  0  0
   -6.5220   23.7760  -31.7760 C   0  0  0  0  0  0  0  0  0  0  0  0
   -7.6820   23.2280  -32.3310 C   0  0  0  0  0  0  0  0  0  0  0  0
   -8.4090   22.2620  -31.6280 C   0  0  0  0  0  0  0  0  0  0  0  0
   -9.8650   21.5770  -32.3250 Cl  0  0  0  0  0  0  0  0  0  0  0  0
   -7.9710   21.8410  -30.3670 C   0  0  0  0  0  0  0  0  0  0  0  0
   -6.8120   22.3890  -29.8090 C   0  0  0  0  0  0  0  0  0  0  0  0
   -2.9170   21.8420  -30.1650 C   0  0  0  0  0  0  0  0  0  0  0  0
   -3.2340   21.8140  -31.9150 S   0  0  0  0  0  0  0  0  0  0  0  0
   -1.9270   21.7470  -32.6530 O   0  0  0  0  0  0  0  0  0  0  0  0
   -3.9850   23.0370  -32.3590 O   0  0  0  0  0  0  0  0  0  0  0  0
   -4.2260   20.4190  -32.3460 C   0  0  0  0  0  0  0  0  0  0  0  0
   -5.6260   20.5140  -32.3480 C   0  0  0  0  0  0  0  0  0  0  0  0
   -6.4060   19.4110  -32.7030 C   0  0  0  0  0  0  0  0  0  0  0  0
   -5.7950   18.2070  -33.0630 C   0  0  0  0  0  0  0  0  0  0  0  0
   -4.4010   18.1060  -33.0680 C   0  0  0  0  0  0  0  0  0  0  0  0
   -3.6160   19.2060  -32.7120 C   0  0  0  0  0  0  0  0  0  0  0  0
   -2.2640   19.0940  -32.7340 F   0  0  0  0  0  0  0  0  0  0  0  0
   -1.9950   20.9070  -29.6580 C   0  0  0  0  0  0  0  0  0  0  0  0
   -1.0361   18.9786  -26.0207 H   0  0  0  0  0  0  0  0  0  0  0  0
   -2.1362   18.4243  -27.3280 H   0  0  0  0  0  0  0  0  0  0  0  0
   -0.4135   17.9156  -27.3280 H   0  0  0  0  0  0  0  0  0  0  0  0
   -2.0824   21.7027  -26.3431 H   0  0  0  0  0  0  0  0  0  0  0  0
   -3.6752   23.4027  -27.2010 H   0  0  0  0  0  0  0  0  0  0  0  0
   -5.9487   24.5299  -32.3354 H   0  0  0  0  0  0  0  0  0  0  0  0
   -8.0239   23.5574  -33.3233 H   0  0  0  0  0  0  0  0  0  0  0  0
   -8.5392   21.0782  -29.8144 H   0  0  0  0  0  0  0  0  0  0  0  0
   -6.4673   22.0528  -28.8200 H   0  0  0  0  0  0  0  0  0  0  0  0
   -6.1112   21.4609  -32.0689 H   0  0  0  0  0  0  0  0  0  0  0  0
   -7.5031   19.4903  -32.6992 H   0  0  0  0  0  0  0  0  0  0  0  0
   -6.4107   17.3393  -33.3423 H   0  0  0  0  0  0  0  0  0  0  0  0
   -3.9206   17.1583  -33.3529 H   0  0  0  0  0  0  0  0  0  0  0  0
   -1.5036   20.2074  -30.3502 H   0  0  0  0  0  0  0  0  0  0  0  0
  1  2  1  0
  2  3  1  0
  3  4  2  0
  4  5  1  0
  5  6  2  0
  6  7  1  0
  7  8  2  0
  7  9  2  0
  7 10  1  0
 10 11  2  0
 11 12  1  0
 12 13  2  0
 13 14  1  0
 13 15  1  0
 15 16  2  0
  6 17  1  0
 17 18  1  0
 18 19  2  0
 18 20  2  0
 18 21  1  0
 21 22  2  0
 22 23  1  0
 23 24  2  0
 24 25  1  0
 25 26  2  0
 26 27  1  0
 17 28  2  0
 28  3  1  0
 16 10  1  0
 26 21  1  0
  1 29  1  0
  1 30  1  0
  1 31  1  0
  4 32  1  0
  5 33  1  0
 11 34  1  0
 12 35  1  0
 15 36  1  0
 16 37  1  0
 22 38  1  0
 23 39  1  0
 24 40  1  0
 25 41  1  0
 28 42  1  0
M  END
>  <UniqueID>  (46) 
45

>  <SMILES>  (46) 
COc1ccc(S(=O)(=O)c2ccc(Cl)cc2)c(S(=O)(=O)c2ccccc2F)c1

>  <Energy>  (46) 
52.55439442017826

>  <Genealogy>  (46) 
COc1ccc(S(=O)(=O)c2ccc(Cl)cc2)c(S(=O)(=O)c2ccccc2F)c1 (3D coordinates assigned)
COc1ccc(S(=O)(=O)c2ccc(Cl)cc2)c(S(=O)(=O)c2ccccc2F)c1 (optimized conformer: 52.55439442017826 kcal/mol)

>  <smiles>  (46) 
COc1ccc(S(=O)(=O)c2ccc(Cl)cc2)c(S(=O)(=O)c2ccccc2F)c1

>  <score_type>  (46) 
oracle

>  <origin>  (46) 
adgpu

>  <m_score__min__energy>  (46) 
-9.3800000000000008

>  <m_primary>  (46) 
energy

$$$$
46:0
     RDKit          3D

 55 58  0  0  0  0  0  0  0  0999 V2000
   -1.6950   21.4630  -31.5740 C   0  0  0  0  0  0  0  0  0  0  0  0
   -0.6900   21.2780  -30.4430 C   0  0  0  0  0  0  0  0  0  0  0  0
   -1.0640   22.0360  -29.2950 O   0  0  0  0  0  0  0  0  0  0  0  0
   -1.2240   21.4910  -28.0140 C   0  0  0  0  0  0  0  0  0  0  0  0
   -1.9270   20.3390  -27.8290 N   0  0  0  0  0  0  0  0  0  0  0  0
   -2.1070   19.8120  -26.5890 C   0  0  0  0  0  0  0  0  0  0  0  0
   -2.8960   18.5580  -26.4170 C   0  0  0  0  0  0  0  0  0  0  0  0
   -1.6020   20.4520  -25.5020 N   0  0  0  0  0  0  0  0  0  0  0  0
   -0.8990   21.6050  -25.6330 C   0  0  0  0  0  0  0  0  0  0  0  0
   -0.6870   22.1570  -26.9020 C   0  0  0  0  0  0  0  0  0  0  0  0
    0.0200   23.4470  -27.0440 C   0  0  0  0  0  0  0  0  0  0  0  0
    1.4160   23.4550  -27.1890 C   0  0  0  0  0  0  0  0  0  0  0  0
    2.1150   24.6640  -27.2360 C   0  0  0  0  0  0  0  0  0  0  0  0
    1.4260   25.8750  -27.1320 C   0  0  0  0  0  0  0  0  0  0  0  0
    0.0360   25.8800  -26.9990 C   0  0  0  0  0  0  0  0  0  0  0  0
   -0.6790   24.6770  -26.9820 C   0  0  0  0  0  0  0  0  0  0  0  0
   -2.0790   24.7280  -26.8970 O   0  0  0  0  0  0  0  0  0  0  0  0
   -2.9440   24.2850  -27.9080 C   0  0  0  0  0  0  0  0  0  0  0  0
   -4.1340   23.5960  -27.6130 C   0  0  0  0  0  0  0  0  0  0  0  0
   -4.9880   23.1910  -28.6420 C   0  0  0  0  0  0  0  0  0  0  0  0
   -4.6610   23.4630  -29.9760 C   0  0  0  0  0  0  0  0  0  0  0  0
   -5.7160   22.9220  -31.2780 S   0  0  0  0  0  0  0  0  0  0  0  0
   -6.0410   24.0980  -32.1540 O   0  0  0  0  0  0  0  0  0  0  0  0
   -6.9960   22.3630  -30.7220 O   0  0  0  0  0  0  0  0  0  0  0  0
   -4.9280   21.7110  -32.2440 N   0  0  0  0  0  0  0  0  0  0  0  0
   -5.4430   20.5930  -32.6760 C   0  0  0  0  0  0  0  0  0  0  0  0
   -6.7730   20.2170  -32.3960 C   0  0  0  0  0  0  0  0  0  0  0  0
   -7.2670   19.0130  -32.9020 C   0  0  0  0  0  0  0  0  0  0  0  0
   -6.4430   18.1860  -33.6630 C   0  0  0  0  0  0  0  0  0  0  0  0
   -6.9120   17.0100  -34.1480 F   0  0  0  0  0  0  0  0  0  0  0  0
   -5.1290   18.5790  -33.9140 C   0  0  0  0  0  0  0  0  0  0  0  0
   -4.6620   19.7600  -33.4250 N   0  0  0  0  0  0  0  0  0  0  0  0
   -3.4630   24.1270  -30.2740 C   0  0  0  0  0  0  0  0  0  0  0  0
   -2.6070   24.5290  -29.2440 C   0  0  0  0  0  0  0  0  0  0  0  0
   -2.6936   21.6468  -31.1508 H   0  0  0  0  0  0  0  0  0  0  0  0
   -1.3958   22.3212  -32.1937 H   0  0  0  0  0  0  0  0  0  0  0  0
   -1.7210   20.5545  -32.1937 H   0  0  0  0  0  0  0  0  0  0  0  0
   -0.6465   20.2129  -30.1717 H   0  0  0  0  0  0  0  0  0  0  0  0
    0.2934   21.6294  -30.7885 H   0  0  0  0  0  0  0  0  0  0  0  0
   -3.0263   18.3510  -25.3445 H   0  0  0  0  0  0  0  0  0  0  0  0
   -3.8820   18.6774  -26.8898 H   0  0  0  0  0  0  0  0  0  0  0  0
   -2.3616   17.7208  -26.8898 H   0  0  0  0  0  0  0  0  0  0  0  0
   -0.4952   22.1066  -24.7412 H   0  0  0  0  0  0  0  0  0  0  0  0
    1.9631   22.5038  -27.2661 H   0  0  0  0  0  0  0  0  0  0  0  0
    3.2085   24.6623  -27.3550 H   0  0  0  0  0  0  0  0  0  0  0  0
    1.9791   26.8255  -27.1549 H   0  0  0  0  0  0  0  0  0  0  0  0
   -0.5006   26.8358  -26.9070 H   0  0  0  0  0  0  0  0  0  0  0  0
   -4.3937   23.3749  -26.5672 H   0  0  0  0  0  0  0  0  0  0  0  0
   -5.9197   22.6571  -28.4035 H   0  0  0  0  0  0  0  0  0  0  0  0
   -7.4159   20.8668  -31.7841 H   0  0  0  0  0  0  0  0  0  0  0  0
   -8.3070   18.7172  -32.6999 H   0  0  0  0  0  0  0  0  0  0  0  0
   -4.4676   17.9323  -34.5093 H   0  0  0  0  0  0  0  0  0  0  0  0
   -3.6730   20.0280  -33.6340 H   0  0  0  0  0  0  0  0  0  0  0  0
   -3.1955   24.3324  -31.3210 H   0  0  0  0  0  0  0  0  0  0  0  0
   -1.6633   25.0400  -29.4854 H   0  0  0  0  0  0  0  0  0  0  0  0
  1  2  1  0
  2  3  1  0
  3  4  1  0
  4  5  2  0
  5  6  1  0
  6  7  1  0
  6  8  2  0
  8  9  1  0
  9 10  2  0
 10 11  1  0
 11 12  2  0
 12 13  1  0
 13 14  2  0
 14 15  1  0
 15 16  2  0
 16 17  1  0
 17 18  1  0
 18 19  2  0
 19 20  1  0
 20 21  2  0
 21 22  1  0
 22 23  2  0
 22 24  2  0
 22 25  1  0
 25 26  2  3
 26 27  1  0
 27 28  2  0
 28 29  1  0
 29 30  1  0
 29 31  2  0
 31 32  1  0
 21 33  1  0
 33 34  2  0
 10  4  1  0
 16 11  1  0
 34 18  1  0
 32 26  1  0
  1 35  1  0
  1 36  1  0
  1 37  1  0
  2 38  1  0
  2 39  1  0
  7 40  1  0
  7 41  1  0
  7 42  1  0
  9 43  1  0
 12 44  1  0
 13 45  1  0
 14 46  1  0
 15 47  1  0
 19 48  1  0
 20 49  1  0
 27 50  1  0
 28 51  1  0
 31 52  1  0
 32 53  1  0
 33 54  1  0
 34 55  1  0
M  END
>  <UniqueID>  (47) 
46

>  <SMILES>  (47) 
CCOc1nc(C)ncc1-c1ccccc1Oc1ccc(S(=O)(=O)N=c2ccc(F)c[nH]2)cc1

>  <Energy>  (47) 
68.72062113246547

>  <Genealogy>  (47) 
CCOc1nc(C)ncc1-c1ccccc1Oc1ccc(S(=O)(=O)N=c2ccc(F)c[nH]2)cc1 (3D coordinates assigned)
CCOc1nc(C)ncc1-c1ccccc1Oc1ccc(S(=O)(=O)N=c2ccc(F)c[nH]2)cc1 (optimized conformer: 68.72062113246547 kcal/mol)

>  <smiles>  (47) 
CCOc1nc(C)ncc1-c1ccccc1Oc1ccc(S(=O)(=O)N=c2ccc(F)c[nH]2)cc1

>  <score_type>  (47) 
oracle

>  <origin>  (47) 
adgpu

>  <m_score__min__energy>  (47) 
-9.5700000000000003

>  <m_primary>  (47) 
energy

$$$$
47:0
     RDKit          3D

 63 69  0  0  0  0  0  0  0  0999 V2000
   -3.9990   22.8200  -29.7930 C   0  0  0  0  0  0  0  0  0  0  0  0
   -2.8350   22.7010  -28.8160 C   0  0  0  0  0  0  0  0  0  0  0  0
   -1.8130   21.8050  -29.3530 N   0  0  0  0  0  0  0  0  0  0  0  0
   -0.5450   22.1240  -29.6810 C   0  0  0  0  0  0  0  0  0  0  0  0
    0.1280   21.0800  -30.2100 N   0  0  0  0  0  0  0  0  0  0  0  0
   -0.7730   20.0740  -30.2130 C   0  0  0  0  0  0  0  0  0  0  0  0
   -0.4940   18.7230  -30.7180 C   0  0  0  0  0  0  0  0  0  0  0  0
    0.4470   17.8390  -30.1890 C   0  0  0  0  0  0  0  0  0  0  0  0
    0.4800   16.6270  -30.8850 C   0  0  0  0  0  0  0  0  0  0  0  0
    1.2680   15.5720  -30.5610 N   0  0  0  0  0  0  0  0  0  0  0  0
    1.1950   14.4130  -31.2790 C   0  0  0  0  0  0  0  0  0  0  0  0
    0.3000   14.2980  -32.3600 C   0  0  0  0  0  0  0  0  0  0  0  0
   -0.5090   15.3860  -32.7220 C   0  0  0  0  0  0  0  0  0  0  0  0
   -1.4050   15.2530  -33.7930 O   0  0  0  0  0  0  0  0  0  0  0  0
   -2.7470   15.6520  -33.7660 C   0  0  0  0  0  0  0  0  0  0  0  0
   -3.5230   15.3290  -32.6490 C   0  0  0  0  0  0  0  0  0  0  0  0
   -4.8540   15.7480  -32.5670 C   0  0  0  0  0  0  0  0  0  0  0  0
   -5.4290   16.4900  -33.6050 C   0  0  0  0  0  0  0  0  0  0  0  0
   -6.7930   16.9170  -33.4710 N   0  0  0  0  0  0  0  0  0  0  0  0
   -7.2820   17.9660  -32.6240 C   0  0  0  0  0  0  0  0  0  0  0  0
   -8.3130   17.7880  -31.9210 O   0  0  0  0  0  0  0  0  0  0  0  0
   -6.6560   19.3070  -32.6700 C   0  0  0  0  0  0  0  0  0  0  0  0
   -5.2870   19.3830  -32.9770 C   0  0  0  0  0  0  0  0  0  0  0  0
   -4.6240   20.6180  -32.9660 C   0  0  0  0  0  0  0  0  0  0  0  0
   -3.1820   20.7210  -33.2700 C   0  0  0  0  0  0  0  0  0  0  0  0
   -2.3100   21.6670  -32.7360 C   0  0  0  0  0  0  0  0  0  0  0  0
   -0.9940   21.5360  -33.1980 C   0  0  0  0  0  0  0  0  0  0  0  0
   -0.8310   20.4890  -34.0910 C   0  0  0  0  0  0  0  0  0  0  0  0
    0.6690   20.0330  -34.8720 Cl  0  0  0  0  0  0  0  0  0  0  0  0
   -2.3090   19.7240  -34.3150 S   0  0  0  0  0  0  0  0  0  0  0  0
   -5.3210   21.7450  -32.6630 N   0  0  0  0  0  0  0  0  0  0  0  0
   -6.6500   21.7260  -32.3800 C   0  0  0  0  0  0  0  0  0  0  0  0
   -7.3070   22.9280  -32.0950 C   0  0  0  0  0  0  0  0  0  0  0  0
   -8.6780   22.9330  -31.8370 C   0  0  0  0  0  0  0  0  0  0  0  0
   -9.4030   21.7410  -31.8760 C   0  0  0  0  0  0  0  0  0  0  0  0
   -8.7580   20.5330  -32.1580 C   0  0  0  0  0  0  0  0  0  0  0  0
   -7.3650   20.5020  -32.3890 C   0  0  0  0  0  0  0  0  0  0  0  0
   -4.6720   16.7580  -34.7610 C   0  0  0  0  0  0  0  0  0  0  0  0
   -3.3370   16.3430  -34.8400 C   0  0  0  0  0  0  0  0  0  0  0  0
   -2.6320   16.5960  -35.9710 F   0  0  0  0  0  0  0  0  0  0  0  0
   -0.4060   16.5530  -31.9490 C   0  0  0  0  0  0  0  0  0  0  0  0
   -1.2730   17.9920  -32.0300 S   0  0  0  0  0  0  0  0  0  0  0  0
   -1.9710   20.5160  -29.6930 C   0  0  0  0  0  0  0  0  0  0  0  0
   -4.9403   22.9162  -29.2319 H   0  0  0  0  0  0  0  0  0  0  0  0
   -3.8570   23.7083  -30.4260 H   0  0  0  0  0  0  0  0  0  0  0  0
   -4.0397   21.9213  -30.4260 H   0  0  0  0  0  0  0  0  0  0  0  0
   -2.3956   23.6960  -28.6519 H   0  0  0  0  0  0  0  0  0  0  0  0
   -3.2061   22.2919  -27.8647 H   0  0  0  0  0  0  0  0  0  0  0  0
   -0.1078   23.1226  -29.5341 H   0  0  0  0  0  0  0  0  0  0  0  0
    1.0881   18.0689  -29.3252 H   0  0  0  0  0  0  0  0  0  0  0  0
    1.8399   13.5631  -31.0111 H   0  0  0  0  0  0  0  0  0  0  0  0
    0.2349   13.3543  -32.9213 H   0  0  0  0  0  0  0  0  0  0  0  0
   -3.0835   14.7415  -31.8295 H   0  0  0  0  0  0  0  0  0  0  0  0
   -5.4535   15.4928  -31.6807 H   0  0  0  0  0  0  0  0  0  0  0  0
   -4.7317   18.4671  -33.2277 H   0  0  0  0  0  0  0  0  0  0  0  0
   -2.6242   22.4416  -32.0210 H   0  0  0  0  0  0  0  0  0  0  0  0
   -0.1731   22.1973  -32.8837 H   0  0  0  0  0  0  0  0  0  0  0  0
   -6.7413   23.8711  -32.0743 H   0  0  0  0  0  0  0  0  0  0  0  0
   -9.1888   23.8785  -31.6023 H   0  0  0  0  0  0  0  0  0  0  0  0
  -10.4861   21.7520  -31.6841 H   0  0  0  0  0  0  0  0  0  0  0  0
   -9.3395   19.6002  -32.2003 H   0  0  0  0  0  0  0  0  0  0  0  0
   -5.1304   17.2949  -35.6046 H   0  0  0  0  0  0  0  0  0  0  0  0
   -2.8889   19.9209  -29.5777 H   0  0  0  0  0  0  0  0  0  0  0  0
  1  2  1  0
  2  3  1  0
  3  4  1  0
  4  5  2  0
  5  6  1  0
  6  7  1  0
  7  8  2  0
  8  9  1  0
  9 10  2  0
 10 11  1  0
 11 12  2  0
 12 13  1  0
 13 14  1  0
 14 15  1  0
 15 16  2  0
 16 17  1  0
 17 18  2  0
 18 19  1  0
 19 20  1  0
 20 21  2  0
 20 22  1  0
 22 23  2  0
 23 24  1  0
 24 25  1  0
 25 26  2  0
 26 27  1  0
 27 28  2  0
 28 29  1  0
 28 30  1  0
 24 31  2  0
 31 32  1  0
 32 33  2  0
 33 34  1  0
 34 35  2  0
 35 36  1  0
 36 37  2  0
 18 38  1  0
 38 39  2  0
 39 40  1  0
 13 41  2  0
 41 42  1  0
  6 43  2  0
 43  3  1  0
 42  7  1  0
 41  9  1  0
 39 15  1  0
 37 22  1  0
 30 25  1  0
 37 32  1  0
  1 44  1  0
  1 45  1  0
  1 46  1  0
  2 47  1  0
  2 48  1  0
  4 49  1  0
  8 50  1  0
 11 51  1  0
 12 52  1  0
 16 53  1  0
 17 54  1  0
 23 55  1  0
 26 56  1  0
 27 57  1  0
 33 58  1  0
 34 59  1  0
 35 60  1  0
 36 61  1  0
 38 62  1  0
 43 63  1  0
M  CHG  1  19  -1
M  END
>  <UniqueID>  (48) 
47

>  <SMILES>  (48) 
CCn1cnc(-c2cc3nccc(Oc4ccc([N-]C(=O)c5cc(-c6ccc(Cl)s6)nc6ccccc56)cc4F)c3s2)c1

>  <Energy>  (48) 
179.70218818475993

>  <Genealogy>  (48) 
CCn1cnc(-c2cc3nccc(Oc4ccc([N-]C(=O)c5cc(-c6ccc(Cl)s6)nc6ccccc56)cc4F)c3s2)c1 (protonated)
CCn1cnc(-c2cc3nccc(Oc4ccc([N-]C(=O)c5cc(-c6ccc(Cl)s6)nc6ccccc56)cc4F)c3s2)c1 (3D coordinates assigned)
CCn1cnc(-c2cc3nccc(Oc4ccc([N-]C(=O)c5cc(-c6ccc(Cl)s6)nc6ccccc56)cc4F)c3s2)c1 (optimized conformer: 179.70218818475993 kcal/mol)

>  <smiles>  (48) 
CCn1cnc(-c2cc3nccc(Oc4ccc(NC(=O)c5cc(-c6ccc(Cl)s6)nc6ccccc56)cc4F)c3s2)c1

>  <score_type>  (48) 
oracle

>  <origin>  (48) 
adgpu

>  <m_score__min__energy>  (48) 
-11.16

>  <m_primary>  (48) 
energy

$$$$
48:0
     RDKit          3D

 40 42  0  0  0  0  0  0  0  0999 V2000
   -9.1540   21.0180  -30.7090 O   0  0  0  0  0  0  0  0  0  0  0  0
   -8.3540   20.3490  -31.7910 S   0  0  0  0  0  0  0  0  0  0  0  0
   -9.1210   20.4240  -33.0830 O   0  0  0  0  0  0  0  0  0  0  0  0
   -8.1090   18.6810  -31.3740 N   0  0  0  0  0  0  0  0  0  0  0  0
   -7.1620   17.8200  -32.0310 C   0  0  0  0  0  0  0  0  0  0  0  0
   -7.2320   17.6650  -33.4260 C   0  0  0  0  0  0  0  0  0  0  0  0
   -6.3310   16.8300  -34.0950 C   0  0  0  0  0  0  0  0  0  0  0  0
   -5.3490   16.1430  -33.3780 C   0  0  0  0  0  0  0  0  0  0  0  0
   -5.2620   16.2950  -31.9930 C   0  0  0  0  0  0  0  0  0  0  0  0
   -6.1600   17.1300  -31.3190 C   0  0  0  0  0  0  0  0  0  0  0  0
   -6.8020   21.1660  -31.9360 C   0  0  0  0  0  0  0  0  0  0  0  0
   -5.8870   20.7590  -32.9160 C   0  0  0  0  0  0  0  0  0  0  0  0
   -4.6560   21.4070  -33.0390 C   0  0  0  0  0  0  0  0  0  0  0  0
   -4.3310   22.4650  -32.1850 C   0  0  0  0  0  0  0  0  0  0  0  0
   -5.2420   22.8830  -31.2060 C   0  0  0  0  0  0  0  0  0  0  0  0
   -4.8310   24.1960  -30.1110 S   0  0  0  0  0  0  0  0  0  0  0  0
   -6.0740   24.6950  -29.4260 O   0  0  0  0  0  0  0  0  0  0  0  0
   -4.2300   25.3400  -30.8780 O   0  0  0  0  0  0  0  0  0  0  0  0
   -3.6800   23.6070  -28.9180 C   0  0  0  0  0  0  0  0  0  0  0  0
   -2.8440   24.5090  -28.2420 C   0  0  0  0  0  0  0  0  0  0  0  0
   -1.9130   24.0390  -27.3100 C   0  0  0  0  0  0  0  0  0  0  0  0
   -1.8100   22.6690  -27.0530 C   0  0  0  0  0  0  0  0  0  0  0  0
   -2.6340   21.7660  -27.7300 C   0  0  0  0  0  0  0  0  0  0  0  0
   -3.5660   22.2330  -28.6640 C   0  0  0  0  0  0  0  0  0  0  0  0
   -6.4740   22.2250  -31.0770 C   0  0  0  0  0  0  0  0  0  0  0  0
   -8.6350   18.3200  -30.5480 H   0  0  0  0  0  0  0  0  0  0  0  0
   -8.0019   18.2049  -33.9967 H   0  0  0  0  0  0  0  0  0  0  0  0
   -6.3960   16.7144  -35.1870 H   0  0  0  0  0  0  0  0  0  0  0  0
   -4.6444   15.4824  -33.9044 H   0  0  0  0  0  0  0  0  0  0  0  0
   -4.4853   15.7568  -31.4299 H   0  0  0  0  0  0  0  0  0  0  0  0
   -6.0837   17.2486  -30.2281 H   0  0  0  0  0  0  0  0  0  0  0  0
   -6.1389   19.9271  -33.5901 H   0  0  0  0  0  0  0  0  0  0  0  0
   -3.9405   21.0842  -33.8096 H   0  0  0  0  0  0  0  0  0  0  0  0
   -3.3586   22.9701  -32.2818 H   0  0  0  0  0  0  0  0  0  0  0  0
   -2.9210   25.5873  -28.4454 H   0  0  0  0  0  0  0  0  0  0  0  0
   -1.2612   24.7482  -26.7788 H   0  0  0  0  0  0  0  0  0  0  0  0
   -1.0797   22.3013  -26.3172 H   0  0  0  0  0  0  0  0  0  0  0  0
   -2.5501   20.6878  -27.5288 H   0  0  0  0  0  0  0  0  0  0  0  0
   -4.2103   21.5205  -29.1998 H   0  0  0  0  0  0  0  0  0  0  0  0
   -7.1853   22.5406  -30.2995 H   0  0  0  0  0  0  0  0  0  0  0  0
  1  2  2  0
  2  3  2  0
  2  4  1  0
  4  5  1  0
  5  6  2  0
  6  7  1  0
  7  8  2  0
  8  9  1  0
  9 10  2  0
  2 11  1  0
 11 12  2  0
 12 13  1  0
 13 14  2  0
 14 15  1  0
 15 16  1  0
 16 17  2  0
 16 18  2  0
 16 19  1  0
 19 20  2  0
 20 21  1  0
 21 22  2  0
 22 23  1  0
 23 24  2  0
 15 25  2  0
 10  5  1  0
 25 11  1  0
 24 19  1  0
  4 26  1  0
  6 27  1  0
  7 28  1  0
  8 29  1  0
  9 30  1  0
 10 31  1  0
 12 32  1  0
 13 33  1  0
 14 34  1  0
 20 35  1  0
 21 36  1  0
 22 37  1  0
 23 38  1  0
 24 39  1  0
 25 40  1  0
M  END
>  <UniqueID>  (49) 
48

>  <SMILES>  (49) 
O=S(=O)(Nc1ccccc1)c1cccc(S(=O)(=O)c2ccccc2)c1

>  <Energy>  (49) 
47.11814461823777

>  <Genealogy>  (49) 
O=S(=O)(Nc1ccccc1)c1cccc(S(=O)(=O)c2ccccc2)c1 (3D coordinates assigned)
O=S(=O)(Nc1ccccc1)c1cccc(S(=O)(=O)c2ccccc2)c1 (optimized conformer: 47.11814461823777 kcal/mol)

>  <smiles>  (49) 
O=S(=O)(Nc1ccccc1)c1cccc(S(=O)(=O)c2ccccc2)c1

>  <score_type>  (49) 
oracle

>  <origin>  (49) 
adgpu

>  <m_score__min__energy>  (49) 
-10.06

>  <m_primary>  (49) 
energy

$$$$
49:0
     RDKit          3D

 47 50  0  0  0  0  0  0  0  0999 V2000
   -0.8543   18.8860  -31.2113 H   0  0  0  0  0  0  0  0  0  0  0  0
   -1.7870   19.2920  -31.6300 C   0  0  0  0  0  0  0  0  0  0  0  0
   -2.3810   18.6700  -32.6790 N   0  0  0  0  0  0  0  0  0  0  0  0
   -3.5380   19.1390  -33.2080 C   0  0  0  0  0  0  0  0  0  0  0  0
   -4.0730   18.5230  -34.2180 N   0  0  0  0  0  0  0  0  0  0  0  0
   -5.3160   18.9370  -34.8630 C   0  0  0  0  0  0  0  0  0  0  0  0
   -5.1862   19.9370  -35.3025 H   0  0  0  0  0  0  0  0  0  0  0  0
   -5.5753   18.2201  -35.6560 H   0  0  0  0  0  0  0  0  0  0  0  0
   -6.4160   18.9770  -33.8440 C   0  0  0  0  0  0  0  0  0  0  0  0
   -7.0210   20.1990  -33.5030 C   0  0  0  0  0  0  0  0  0  0  0  0
   -6.7062   21.1255  -34.0054 H   0  0  0  0  0  0  0  0  0  0  0  0
   -8.0220   20.2410  -32.5270 C   0  0  0  0  0  0  0  0  0  0  0  0
   -8.4981   21.1985  -32.2690 H   0  0  0  0  0  0  0  0  0  0  0  0
   -8.4180   19.0670  -31.8790 C   0  0  0  0  0  0  0  0  0  0  0  0
   -9.2084   19.1006  -31.1147 H   0  0  0  0  0  0  0  0  0  0  0  0
   -7.8100   17.8510  -32.2020 C   0  0  0  0  0  0  0  0  0  0  0  0
   -8.1198   16.9287  -31.6888 H   0  0  0  0  0  0  0  0  0  0  0  0
   -6.8080   17.8050  -33.1770 C   0  0  0  0  0  0  0  0  0  0  0  0
   -6.3254   16.8474  -33.4221 H   0  0  0  0  0  0  0  0  0  0  0  0
   -4.1260   20.2410  -32.6710 N   0  0  0  0  0  0  0  0  0  0  0  0
   -3.5820   20.9020  -31.6140 C   0  0  0  0  0  0  0  0  0  0  0  0
   -4.3330   22.0460  -31.0500 C   0  0  0  0  0  0  0  0  0  0  0  0
   -5.6470   21.8860  -30.5770 C   0  0  0  0  0  0  0  0  0  0  0  0
   -6.1252   20.8961  -30.6150 H   0  0  0  0  0  0  0  0  0  0  0  0
   -6.3490   22.9770  -30.0590 C   0  0  0  0  0  0  0  0  0  0  0  0
   -7.3717   22.8402  -29.6776 H   0  0  0  0  0  0  0  0  0  0  0  0
   -5.7550   24.2430  -30.0240 C   0  0  0  0  0  0  0  0  0  0  0  0
   -6.6530   25.6040  -29.3700 Cl  0  0  0  0  0  0  0  0  0  0  0  0
   -4.4540   24.4170  -30.5170 C   0  0  0  0  0  0  0  0  0  0  0  0
   -3.8560   25.6710  -30.4950 O   0  0  0  0  0  0  0  0  0  0  0  0
   -3.7510   23.3230  -31.0340 C   0  0  0  0  0  0  0  0  0  0  0  0
   -2.7349   23.4650  -31.4307 H   0  0  0  0  0  0  0  0  0  0  0  0
   -2.3530   20.4480  -31.0760 C   0  0  0  0  0  0  0  0  0  0  0  0
   -1.6260   21.1520  -29.9960 C   0  0  0  0  0  0  0  0  0  0  0  0
   -1.7070   20.6830  -28.7200 N   0  0  0  0  0  0  0  0  0  0  0  0
   -1.0530   21.2770  -27.6820 C   0  0  0  0  0  0  0  0  0  0  0  0
   -1.1560   20.8100  -26.4740 N   0  0  0  0  0  0  0  0  0  0  0  0
   -1.9550   19.6430  -26.1170 C   0  0  0  0  0  0  0  0  0  0  0  0
   -2.0124   19.5591  -25.0217 H   0  0  0  0  0  0  0  0  0  0  0  0
   -2.9686   19.7523  -26.5300 H   0  0  0  0  0  0  0  0  0  0  0  0
   -1.4865   18.7375  -26.5300 H   0  0  0  0  0  0  0  0  0  0  0  0
   -0.2590   22.4040  -27.9220 C   0  0  0  0  0  0  0  0  0  0  0  0
    0.2684   22.8978  -27.0925 H   0  0  0  0  0  0  0  0  0  0  0  0
   -0.1420   22.8960  -29.2220 C   0  0  0  0  0  0  0  0  0  0  0  0
    0.4835   23.7784  -29.4224 H   0  0  0  0  0  0  0  0  0  0  0  0
   -0.8190   22.2680  -30.2680 C   0  0  0  0  0  0  0  0  0  0  0  0
   -0.7212   22.6442  -31.2970 H   0  0  0  0  0  0  0  0  0  0  0  0
  1  2  1  0
  2  3  2  0
  3  4  1  0
  4  5  2  0
  5  6  1  0
  6  7  1  0
  6  8  1  0
  6  9  1  0
  9 10  2  0
 10 11  1  0
 10 12  1  0
 12 13  1  0
 12 14  2  0
 14 15  1  0
 14 16  1  0
 16 17  1  0
 16 18  2  0
 18 19  1  0
  4 20  1  0
 20 21  1  0
 21 22  1  0
 22 23  2  0
 23 24  1  0
 23 25  1  0
 25 26  1  0
 25 27  2  0
 27 28  1  0
 27 29  1  0
 29 30  1  0
 29 31  2  0
 31 32  1  0
 21 33  2  0
 33 34  1  0
 34 35  1  0
 35 36  1  0
 36 37  2  0
 37 38  1  0
 38 39  1  0
 38 40  1  0
 38 41  1  0
 36 42  1  0
 42 43  1  0
 42 44  2  0
 44 45  1  0
 44 46  1  0
 46 47  1  0
 33  2  1  0
 46 34  2  0
 18  9  1  0
 31 22  1  0
M  CHG  3  20  -1  30  -1  35  -1
M  END
>  <UniqueID>  (50) 
49

>  <SMILES>  (50) 
C/N=c1/cccc(-c2cn/c(=N/Cc3ccccc3)[n-]c2-c2ccc(Cl)c([O-])c2)[n-]1

>  <Energy>  (50) 
62.34766968615979

>  <Genealogy>  (50) 
CN=c1cccc(-c2cnc(=NCc3ccccc3)[n-]c2-c2ccc(Cl)c([O-])c2)[n-]1 (protonated)
C/N=c1/cccc(-c2cn/c(=N/Cc3ccccc3)[n-]c2-c2ccc(Cl)c([O-])c2)[n-]1 (cis-trans isomerization)
C/N=c1/cccc(-c2cn/c(=N/Cc3ccccc3)[n-]c2-c2ccc(Cl)c([O-])c2)[n-]1 (3D coordinates assigned)
C/N=c1/cccc(-c2cn/c(=N/Cc3ccccc3)[n-]c2-c2ccc(Cl)c([O-])c2)[n-]1 (optimized conformer: 62.34766968615979 kcal/mol)

>  <smiles>  (50) 
CN=c1cccc(-c2cnc(=NCc3ccccc3)[nH]c2-c2ccc(Cl)c(O)c2)[nH]1

>  <score_type>  (50) 
oracle

>  <origin>  (50) 
adgpu

>  <m_score__min__energy>  (50) 
-12.35

>  <m_primary>  (50) 
energy

$$$$
