0:0
     RDKit          3D

 64 68  0  0  0  0  0  0  0  0999 V2000
   -2.2770   16.2230  -34.6840 C   0  0  0  0  0  0  0  0  0  0  0  0
   -1.8090   17.5620  -34.8260 O   0  0  0  0  0  0  0  0  0  0  0  0
   -2.0260   18.5820  -33.8870 C   0  0  0  0  0  0  0  0  0  0  0  0
   -2.9340   19.6290  -34.1210 C   0  0  0  0  0  0  0  0  0  0  0  0
   -3.1230   20.6300  -33.1680 C   0  0  0  0  0  0  0  0  0  0  0  0
   -2.4050   20.6090  -31.9590 C   0  0  0  0  0  0  0  0  0  0  0  0
   -2.6010   21.6660  -30.9340 C   0  0  0  0  0  0  0  0  0  0  0  0
   -3.4260   22.7710  -31.1780 C   0  0  0  0  0  0  0  0  0  0  0  0
   -3.6450   23.7370  -30.1840 C   0  0  0  0  0  0  0  0  0  0  0  0
   -4.6130   24.8270  -30.4700 C   0  0  0  0  0  0  0  0  0  0  0  0
   -4.2400   26.0300  -30.4830 O   0  0  0  0  0  0  0  0  0  0  0  0
   -5.9990   24.5260  -30.6530 N   0  0  0  0  0  0  0  0  0  0  0  0
   -6.4950   23.2350  -31.0330 C   0  0  0  0  0  0  0  0  0  0  0  0
   -6.2800   22.7110  -32.3210 C   0  0  0  0  0  0  0  0  0  0  0  0
   -6.8590   21.4960  -32.6930 C   0  0  0  0  0  0  0  0  0  0  0  0
   -7.6550   20.7860  -31.7840 C   0  0  0  0  0  0  0  0  0  0  0  0
   -8.4690   19.3050  -32.2800 S   0  0  0  0  0  0  0  0  0  0  0  0
   -9.4760   19.6410  -33.3450 O   0  0  0  0  0  0  0  0  0  0  0  0
   -9.1970   18.7100  -31.1030 O   0  0  0  0  0  0  0  0  0  0  0  0
   -7.3070   18.1660  -32.9150 N   0  0  0  0  0  0  0  0  0  0  0  0
   -6.4870   18.8010  -33.9600 C   0  0  0  0  0  0  0  0  0  0  0  0
   -5.4290   17.8080  -34.4870 C   0  0  0  0  0  0  0  0  0  0  0  0
   -5.4380   16.5880  -33.7680 O   0  0  0  0  0  0  0  0  0  0  0  0
   -5.2710   16.8470  -32.3860 C   0  0  0  0  0  0  0  0  0  0  0  0
   -6.4490   17.6710  -31.8260 C   0  0  0  0  0  0  0  0  0  0  0  0
   -7.8520   21.2960  -30.4940 C   0  0  0  0  0  0  0  0  0  0  0  0
   -7.2700   22.5110  -30.1210 C   0  0  0  0  0  0  0  0  0  0  0  0
   -2.9610   23.6100  -28.9460 C   0  0  0  0  0  0  0  0  0  0  0  0
   -3.0500   24.5720  -27.9160 C   0  0  0  0  0  0  0  0  0  0  0  0
   -2.3530   24.3940  -26.7170 C   0  0  0  0  0  0  0  0  0  0  0  0
   -1.5470   23.2700  -26.5310 C   0  0  0  0  0  0  0  0  0  0  0  0
   -1.4240   22.3220  -27.5470 C   0  0  0  0  0  0  0  0  0  0  0  0
   -2.1180   22.4860  -28.7510 C   0  0  0  0  0  0  0  0  0  0  0  0
   -1.9700   21.5620  -29.7350 N   0  0  0  0  0  0  0  0  0  0  0  0
   -1.5090   19.5540  -31.7190 C   0  0  0  0  0  0  0  0  0  0  0  0
   -1.3100   18.5430  -32.6800 C   0  0  0  0  0  0  0  0  0  0  0  0
   -0.4100   17.4850  -32.4740 O   0  0  0  0  0  0  0  0  0  0  0  0
    0.2570   17.2200  -31.2460 C   0  0  0  0  0  0  0  0  0  0  0  0
   -2.3633   15.9761  -33.6155 H   0  0  0  0  0  0  0  0  0  0  0  0
   -3.2623   16.1262  -35.1634 H   0  0  0  0  0  0  0  0  0  0  0  0
   -1.5666   15.5335  -35.1634 H   0  0  0  0  0  0  0  0  0  0  0  0
   -3.5003   19.6593  -35.0635 H   0  0  0  0  0  0  0  0  0  0  0  0
   -3.8390   21.4418  -33.3637 H   0  0  0  0  0  0  0  0  0  0  0  0
   -3.9080   22.8830  -32.1604 H   0  0  0  0  0  0  0  0  0  0  0  0
   -5.6529   23.2610  -33.0382 H   0  0  0  0  0  0  0  0  0  0  0  0
   -6.6897   21.0947  -33.7031 H   0  0  0  0  0  0  0  0  0  0  0  0
   -7.1365   19.1142  -34.7907 H   0  0  0  0  0  0  0  0  0  0  0  0
   -5.9754   19.6755  -33.5317 H   0  0  0  0  0  0  0  0  0  0  0  0
   -5.6374   17.5969  -35.5463 H   0  0  0  0  0  0  0  0  0  0  0  0
   -4.4385   18.2691  -34.3590 H   0  0  0  0  0  0  0  0  0  0  0  0
   -5.2137   15.8903  -31.8461 H   0  0  0  0  0  0  0  0  0  0  0  0
   -4.3455   17.4256  -32.2496 H   0  0  0  0  0  0  0  0  0  0  0  0
   -7.0472   17.0355  -31.1564 H   0  0  0  0  0  0  0  0  0  0  0  0
   -6.0450   18.5339  -31.2763 H   0  0  0  0  0  0  0  0  0  0  0  0
   -8.4668   20.7384  -29.7722 H   0  0  0  0  0  0  0  0  0  0  0  0
   -7.4225   22.9003  -29.1036 H   0  0  0  0  0  0  0  0  0  0  0  0
   -3.6722   25.4679  -28.0580 H   0  0  0  0  0  0  0  0  0  0  0  0
   -2.4404   25.1435  -25.9166 H   0  0  0  0  0  0  0  0  0  0  0  0
   -1.0081   23.1314  -25.5821 H   0  0  0  0  0  0  0  0  0  0  0  0
   -0.7794   21.4427  -27.4012 H   0  0  0  0  0  0  0  0  0  0  0  0
   -0.9558   19.5167  -30.7689 H   0  0  0  0  0  0  0  0  0  0  0  0
   -0.4032   17.4823  -30.4061 H   0  0  0  0  0  0  0  0  0  0  0  0
    0.5134   16.1517  -31.1911 H   0  0  0  0  0  0  0  0  0  0  0  0
    1.1766   17.8211  -31.1911 H   0  0  0  0  0  0  0  0  0  0  0  0
  1  2  1  0
  2  3  1  0
  3  4  2  0
  4  5  1  0
  5  6  2  0
  6  7  1  0
  7  8  2  0
  8  9  1  0
  9 10  1  0
 10 11  2  0
 10 12  1  0
 12 13  1  0
 13 14  2  0
 14 15  1  0
 15 16  2  0
 16 17  1  0
 17 18  2  0
 17 19  2  0
 17 20  1  0
 20 21  1  0
 21 22  1  0
 22 23  1  0
 23 24  1  0
 24 25  1  0
 16 26  1  0
 26 27  2  0
  9 28  2  0
 28 29  1  0
 29 30  2  0
 30 31  1  0
 31 32  2  0
 32 33  1  0
 33 34  2  0
  6 35  1  0
 35 36  2  0
 36 37  1  0
 37 38  1  0
 36  3  1  0
 34  7  1  0
 27 13  1  0
 33 28  1  0
 25 20  1  0
  1 39  1  0
  1 40  1  0
  1 41  1  0
  4 42  1  0
  5 43  1  0
  8 44  1  0
 14 45  1  0
 15 46  1  0
 21 47  1  0
 21 48  1  0
 22 49  1  0
 22 50  1  0
 24 51  1  0
 24 52  1  0
 25 53  1  0
 25 54  1  0
 26 55  1  0
 27 56  1  0
 29 57  1  0
 30 58  1  0
 31 59  1  0
 32 60  1  0
 35 61  1  0
 38 62  1  0
 38 63  1  0
 38 64  1  0
M  CHG  1  12  -1
M  END
>  <UniqueID>  (1) 
1

>  <SMILES>  (1) 
COc1ccc(-c2cc(C(=O)[N-]c3ccc(S(=O)(=O)N4CCOCC4)cc3)c3ccccc3n2)cc1OC

>  <Energy>  (1) 
96.46528925841204

>  <Genealogy>  (1) 
COc1ccc(-c2cc(C(=O)[N-]c3ccc(S(=O)(=O)N4CCOCC4)cc3)c3ccccc3n2)cc1OC (protonated)
COc1ccc(-c2cc(C(=O)[N-]c3ccc(S(=O)(=O)N4CCOCC4)cc3)c3ccccc3n2)cc1OC (3D coordinates assigned)
COc1ccc(-c2cc(C(=O)[N-]c3ccc(S(=O)(=O)N4CCOCC4)cc3)c3ccccc3n2)cc1OC (nonaromatic ring conformer: 96.46528925841204 kcal/mol)

>  <smiles>  (1) 
COc1ccc(-c2cc(C(=O)Nc3ccc(S(=O)(=O)N4CCOCC4)cc3)c3ccccc3n2)cc1OC

>  <score_type>  (1) 
oracle

>  <origin>  (1) 
adgpu

>  <m_score__min__energy>  (1) 
-12.199999999999999

>  <m_primary>  (1) 
energy

$$$$
1:0
     RDKit          3D

 39 41  0  0  0  0  0  0  0  0999 V2000
   -0.8990   24.4160  -28.2210 C   0  0  0  0  0  0  0  0  0  0  0  0
   -2.1310   24.7520  -28.8500 O   0  0  0  0  0  0  0  0  0  0  0  0
   -2.9540   23.8350  -29.5240 C   0  0  0  0  0  0  0  0  0  0  0  0
   -2.9360   22.4570  -29.2390 C   0  0  0  0  0  0  0  0  0  0  0  0
   -3.7730   21.5810  -29.9340 C   0  0  0  0  0  0  0  0  0  0  0  0
   -4.6460   22.0640  -30.9220 C   0  0  0  0  0  0  0  0  0  0  0  0
   -5.5300   21.1340  -31.6700 C   0  0  0  0  0  0  0  0  0  0  0  0
   -6.8770   21.0160  -31.3080 C   0  0  0  0  0  0  0  0  0  0  0  0
   -7.7180   20.1580  -32.0080 C   0  0  0  0  0  0  0  0  0  0  0  0
   -7.2110   19.4200  -33.0740 C   0  0  0  0  0  0  0  0  0  0  0  0
   -5.8960   19.5240  -33.4390 N   0  0  0  0  0  0  0  0  0  0  0  0
   -5.4020   18.7300  -34.5790 C   0  0  0  0  0  0  0  0  0  0  0  0
   -4.9480   17.3570  -34.1250 C   0  0  0  0  0  0  0  0  0  0  0  0
   -5.9180   16.3640  -33.8680 C   0  0  0  0  0  0  0  0  0  0  0  0
   -7.2400   16.6390  -33.9930 F   0  0  0  0  0  0  0  0  0  0  0  0
   -5.5310   15.0830  -33.4690 C   0  0  0  0  0  0  0  0  0  0  0  0
   -4.1810   14.7720  -33.3160 C   0  0  0  0  0  0  0  0  0  0  0  0
   -3.2100   15.7440  -33.5540 C   0  0  0  0  0  0  0  0  0  0  0  0
   -3.5790   17.0340  -33.9540 C   0  0  0  0  0  0  0  0  0  0  0  0
   -2.2890   18.2070  -34.2080 Cl  0  0  0  0  0  0  0  0  0  0  0  0
   -5.0480   20.3560  -32.7450 C   0  0  0  0  0  0  0  0  0  0  0  0
   -3.8260   20.4140  -33.0570 O   0  0  0  0  0  0  0  0  0  0  0  0
   -4.6570   23.4380  -31.2110 C   0  0  0  0  0  0  0  0  0  0  0  0
   -3.8200   24.3160  -30.5150 C   0  0  0  0  0  0  0  0  0  0  0  0
   -3.8530   25.6740  -30.8120 O   0  0  0  0  0  0  0  0  0  0  0  0
   -1.0238   24.4500  -27.1286 H   0  0  0  0  0  0  0  0  0  0  0  0
   -0.5969   23.4027  -28.5242 H   0  0  0  0  0  0  0  0  0  0  0  0
   -0.1243   25.1357  -28.5242 H   0  0  0  0  0  0  0  0  0  0  0  0
   -2.2589   22.0675  -28.4645 H   0  0  0  0  0  0  0  0  0  0  0  0
   -3.7481   20.5052  -29.7057 H   0  0  0  0  0  0  0  0  0  0  0  0
   -7.2717   21.6043  -30.4665 H   0  0  0  0  0  0  0  0  0  0  0  0
   -8.7758   20.0631  -31.7217 H   0  0  0  0  0  0  0  0  0  0  0  0
   -7.8765   18.7439  -33.6307 H   0  0  0  0  0  0  0  0  0  0  0  0
   -6.2105   18.6166  -35.3162 H   0  0  0  0  0  0  0  0  0  0  0  0
   -4.5445   19.2536  -35.0269 H   0  0  0  0  0  0  0  0  0  0  0  0
   -6.2950   14.3159  -33.2746 H   0  0  0  0  0  0  0  0  0  0  0  0
   -3.8815   13.7595  -33.0074 H   0  0  0  0  0  0  0  0  0  0  0  0
   -2.1461   15.4954  -33.4265 H   0  0  0  0  0  0  0  0  0  0  0  0
   -5.3288   23.8266  -31.9905 H   0  0  0  0  0  0  0  0  0  0  0  0
  1  2  1  0
  2  3  1  0
  3  4  2  0
  4  5  1  0
  5  6  2  0
  6  7  1  0
  7  8  2  0
  8  9  1  0
  9 10  2  0
 10 11  1  0
 11 12  1  0
 12 13  1  0
 13 14  2  0
 14 15  1  0
 14 16  1  0
 16 17  2  0
 17 18  1  0
 18 19  2  0
 19 20  1  0
 11 21  1  0
 21 22  2  0
  6 23  1  0
 23 24  2  0
 24 25  1  0
 24  3  1  0
 21  7  1  0
 19 13  1  0
  1 26  1  0
  1 27  1  0
  1 28  1  0
  4 29  1  0
  5 30  1  0
  8 31  1  0
  9 32  1  0
 10 33  1  0
 12 34  1  0
 12 35  1  0
 16 36  1  0
 17 37  1  0
 18 38  1  0
 23 39  1  0
M  CHG  1  25  -1
M  END
>  <UniqueID>  (2) 
2

>  <SMILES>  (2) 
COc1ccc(-c2cccn(Cc3c(F)cccc3Cl)c2=O)cc1[O-]

>  <Energy>  (2) 
52.9906998821938

>  <Genealogy>  (2) 
COc1ccc(-c2cccn(Cc3c(F)cccc3Cl)c2=O)cc1[O-] (protonated)
COc1ccc(-c2cccn(Cc3c(F)cccc3Cl)c2=O)cc1[O-] (3D coordinates assigned)
COc1ccc(-c2cccn(Cc3c(F)cccc3Cl)c2=O)cc1[O-] (optimized conformer: 52.9906998821938 kcal/mol)

>  <smiles>  (2) 
COc1ccc(-c2cccn(Cc3c(F)cccc3Cl)c2=O)cc1O

>  <score_type>  (2) 
oracle

>  <origin>  (2) 
adgpu

>  <m_score__min__energy>  (2) 
-11.130000000000001

>  <m_primary>  (2) 
energy

$$$$
2:0
     RDKit          3D

 46 49  0  0  0  0  0  0  0  0999 V2000
   -4.8190   15.7760  -34.5360 C   0  0  0  0  0  0  0  0  0  0  0  0
   -5.8410   16.6930  -33.9450 C   0  0  0  0  0  0  0  0  0  0  0  0
   -5.6780   18.0400  -33.7110 C   0  0  0  0  0  0  0  0  0  0  0  0
   -6.8620   18.4100  -33.0970 C   0  0  0  0  0  0  0  0  0  0  0  0
   -7.2460   19.7560  -32.6150 C   0  0  0  0  0  0  0  0  0  0  0  0
   -8.5950   20.0390  -32.3360 C   0  0  0  0  0  0  0  0  0  0  0  0
   -8.9670   21.2870  -31.8270 C   0  0  0  0  0  0  0  0  0  0  0  0
   -7.9990   22.2600  -31.5780 C   0  0  0  0  0  0  0  0  0  0  0  0
   -6.6510   22.0000  -31.8550 C   0  0  0  0  0  0  0  0  0  0  0  0
   -5.4220   23.1690  -31.3770 S   0  0  0  0  0  0  0  0  0  0  0  0
   -4.1840   23.0230  -32.2160 O   0  0  0  0  0  0  0  0  0  0  0  0
   -5.9670   24.5570  -31.5550 O   0  0  0  0  0  0  0  0  0  0  0  0
   -5.0290   22.9060  -29.7100 N   0  0  0  0  0  0  0  0  0  0  0  0
   -3.7100   23.0970  -29.1770 C   0  0  0  0  0  0  0  0  0  0  0  0
   -3.1490   22.1600  -28.2890 C   0  0  0  0  0  0  0  0  0  0  0  0
   -1.9250   22.4210  -27.6620 C   0  0  0  0  0  0  0  0  0  0  0  0
   -1.2280   23.6020  -27.9510 C   0  0  0  0  0  0  0  0  0  0  0  0
   -1.7420   24.5000  -28.8970 C   0  0  0  0  0  0  0  0  0  0  0  0
   -2.9840   24.2590  -29.5040 C   0  0  0  0  0  0  0  0  0  0  0  0
   -3.4850   25.1950  -30.4090 O   0  0  0  0  0  0  0  0  0  0  0  0
    0.0860   23.8490  -27.2570 C   0  0  0  0  0  0  0  0  0  0  0  0
   -0.0010   23.5010  -25.7560 C   0  0  0  0  0  0  0  0  0  0  0  0
   -0.8540   22.2480  -25.4210 C   0  0  0  0  0  0  0  0  0  0  0  0
   -1.3390   21.4680  -26.6550 C   0  0  0  0  0  0  0  0  0  0  0  0
   -6.2810   20.7560  -32.3910 C   0  0  0  0  0  0  0  0  0  0  0  0
   -7.6220   17.3420  -32.9860 O   0  0  0  0  0  0  0  0  0  0  0  0
   -7.0370   16.2890  -33.4810 N   0  0  0  0  0  0  0  0  0  0  0  0
   -4.2631   15.2773  -33.7284 H   0  0  0  0  0  0  0  0  0  0  0  0
   -5.3207   15.0195  -35.1573 H   0  0  0  0  0  0  0  0  0  0  0  0
   -4.1211   16.3565  -35.1573 H   0  0  0  0  0  0  0  0  0  0  0  0
   -4.8116   18.6726  -33.9545 H   0  0  0  0  0  0  0  0  0  0  0  0
   -9.3629   19.2731  -32.5195 H   0  0  0  0  0  0  0  0  0  0  0  0
  -10.0262   21.5022  -31.6223 H   0  0  0  0  0  0  0  0  0  0  0  0
   -8.2953   23.2346  -31.1628 H   0  0  0  0  0  0  0  0  0  0  0  0
   -3.6761   21.2160  -28.0863 H   0  0  0  0  0  0  0  0  0  0  0  0
   -1.1680   25.3993  -29.1651 H   0  0  0  0  0  0  0  0  0  0  0  0
   -3.8560   24.9300  -31.3100 H   0  0  0  0  0  0  0  0  0  0  0  0
    0.8618   23.2255  -27.7254 H   0  0  0  0  0  0  0  0  0  0  0  0
    0.3352   24.9161  -27.3531 H   0  0  0  0  0  0  0  0  0  0  0  0
    1.0203   23.3272  -25.3863 H   0  0  0  0  0  0  0  0  0  0  0  0
   -0.5020   24.3522  -25.2718 H   0  0  0  0  0  0  0  0  0  0  0  0
   -0.2457   21.5717  -24.8024 H   0  0  0  0  0  0  0  0  0  0  0  0
   -1.7537   22.6077  -24.9003 H   0  0  0  0  0  0  0  0  0  0  0  0
   -0.4896   20.9353  -27.1075 H   0  0  0  0  0  0  0  0  0  0  0  0
   -2.1089   20.7447  -26.3483 H   0  0  0  0  0  0  0  0  0  0  0  0
   -5.2270   20.5611  -32.6382 H   0  0  0  0  0  0  0  0  0  0  0  0
  1  2  1  0
  2  3  1  0
  3  4  2  0
  4  5  1  0
  5  6  2  0
  6  7  1  0
  7  8  2  0
  8  9  1  0
  9 10  1  0
 10 11  2  0
 10 12  2  0
 10 13  1  0
 13 14  1  0
 14 15  2  0
 15 16  1  0
 16 17  2  0
 17 18  1  0
 18 19  2  0
 19 20  1  0
 17 21  1  0
 21 22  1  0
 22 23  1  0
 23 24  1  0
  9 25  2  0
  4 26  1  0
 26 27  1  0
 27  2  2  0
 25  5  1  0
 19 14  1  0
 24 16  1  0
  1 28  1  0
  1 29  1  0
  1 30  1  0
  3 31  1  0
  6 32  1  0
  7 33  1  0
  8 34  1  0
 15 35  1  0
 18 36  1  0
 20 37  1  0
 21 38  1  0
 21 39  1  0
 22 40  1  0
 22 41  1  0
 23 42  1  0
 23 43  1  0
 24 44  1  0
 24 45  1  0
 25 46  1  0
M  CHG  1  13  -1
M  END
>  <UniqueID>  (3) 
3

>  <SMILES>  (3) 
Cc1cc(-c2cccc(S(=O)(=O)[N-]c3cc4c(cc3O)CCCC4)c2)on1

>  <Energy>  (3) 
86.89928716075579

>  <Genealogy>  (3) 
Cc1cc(-c2cccc(S(=O)(=O)[N-]c3cc4c(cc3O)CCCC4)c2)on1 (protonated)
Cc1cc(-c2cccc(S(=O)(=O)[N-]c3cc4c(cc3O)CCCC4)c2)on1 (3D coordinates assigned)
Cc1cc(-c2cccc(S(=O)(=O)[N-]c3cc4c(cc3O)CCCC4)c2)on1 (nonaromatic ring conformer: 86.89928716075579 kcal/mol)

>  <smiles>  (3) 
Cc1cc(-c2cccc(S(=O)(=O)Nc3cc4c(cc3O)CCCC4)c2)on1

>  <score_type>  (3) 
oracle

>  <origin>  (3) 
adgpu

>  <m_score__min__energy>  (3) 
-12.220000000000001

>  <m_primary>  (3) 
energy

$$$$
3:0
     RDKit          3D

 57 60  0  0  0  0  0  0  0  0999 V2000
   -2.0660   23.5920  -29.2800 O   0  0  0  0  0  0  0  0  0  0  0  0
   -2.3570   24.8160  -29.3030 C   0  0  0  0  0  0  0  0  0  0  0  0
   -3.4760   25.2900  -30.0640 N   0  0  0  0  0  0  0  0  0  0  0  0
   -4.6730   24.5670  -30.3870 C   0  0  0  0  0  0  0  0  0  0  0  0
   -5.9520   25.1370  -30.2570 C   0  0  0  0  0  0  0  0  0  0  0  0
   -7.0850   24.4160  -30.6420 C   0  0  0  0  0  0  0  0  0  0  0  0
   -6.9530   23.1320  -31.1740 C   0  0  0  0  0  0  0  0  0  0  0  0
   -5.6820   22.5620  -31.3290 C   0  0  0  0  0  0  0  0  0  0  0  0
   -5.5050   20.9510  -32.0260 S   0  0  0  0  0  0  0  0  0  0  0  0
   -5.1600   21.0740  -33.4840 O   0  0  0  0  0  0  0  0  0  0  0  0
   -4.3700   20.2420  -31.3400 O   0  0  0  0  0  0  0  0  0  0  0  0
   -6.9630   20.0040  -31.8520 N   0  0  0  0  0  0  0  0  0  0  0  0
   -8.0200   20.5190  -32.7330 C   0  0  0  0  0  0  0  0  0  0  0  0
   -9.3130   19.7010  -32.5310 C   0  0  0  0  0  0  0  0  0  0  0  0
   -9.0990   18.5310  -31.7580 O   0  0  0  0  0  0  0  0  0  0  0  0
   -8.0130   17.7970  -32.2870 C   0  0  0  0  0  0  0  0  0  0  0  0
   -6.6960   18.5850  -32.1480 C   0  0  0  0  0  0  0  0  0  0  0  0
   -4.5480   23.2870  -30.9390 C   0  0  0  0  0  0  0  0  0  0  0  0
   -1.5140   25.7450  -28.6190 N   0  0  0  0  0  0  0  0  0  0  0  0
   -1.2160   25.6370  -27.2230 C   0  0  0  0  0  0  0  0  0  0  0  0
   -1.8650   26.5040  -26.3330 C   0  0  0  0  0  0  0  0  0  0  0  0
   -1.6290   26.4120  -24.9600 C   0  0  0  0  0  0  0  0  0  0  0  0
   -0.7390   25.4590  -24.4660 C   0  0  0  0  0  0  0  0  0  0  0  0
   -0.0680   24.6050  -25.3450 C   0  0  0  0  0  0  0  0  0  0  0  0
   -0.2850   24.6930  -26.7300 C   0  0  0  0  0  0  0  0  0  0  0  0
    0.6430   23.6380  -27.8070 S   0  0  0  0  0  0  0  0  0  0  0  0
    2.1010   23.7080  -27.4400 O   0  0  0  0  0  0  0  0  0  0  0  0
    0.4940   24.1090  -29.2270 O   0  0  0  0  0  0  0  0  0  0  0  0
    0.0660   21.9970  -27.6730 N   0  0  0  0  0  0  0  0  0  0  0  0
   -0.2320   21.4210  -28.9830 C   0  0  0  0  0  0  0  0  0  0  0  0
   -1.2820   20.3470  -28.7500 C   0  0  0  0  0  0  0  0  0  0  0  0
   -1.9150   20.6860  -27.4090 C   0  0  0  0  0  0  0  0  0  0  0  0
   -1.1840   21.9270  -26.9190 C   0  0  0  0  0  0  0  0  0  0  0  0
   -6.0607   26.1535  -29.8510 H   0  0  0  0  0  0  0  0  0  0  0  0
   -8.0841   24.8613  -30.5256 H   0  0  0  0  0  0  0  0  0  0  0  0
   -7.8482   22.5666  -31.4721 H   0  0  0  0  0  0  0  0  0  0  0  0
   -8.2142   21.5746  -32.4921 H   0  0  0  0  0  0  0  0  0  0  0  0
   -7.6947   20.4318  -33.7802 H   0  0  0  0  0  0  0  0  0  0  0  0
  -10.0536   20.3323  -32.0182 H   0  0  0  0  0  0  0  0  0  0  0  0
   -9.6685   19.3863  -33.5233 H   0  0  0  0  0  0  0  0  0  0  0  0
   -7.9224   16.8455  -31.7426 H   0  0  0  0  0  0  0  0  0  0  0  0
   -8.2008   17.6126  -33.3551 H   0  0  0  0  0  0  0  0  0  0  0  0
   -6.1013   18.1519  -31.3302 H   0  0  0  0  0  0  0  0  0  0  0  0
   -6.1452   18.5209  -33.0980 H   0  0  0  0  0  0  0  0  0  0  0  0
   -3.5489   22.8453  -31.0681 H   0  0  0  0  0  0  0  0  0  0  0  0
   -2.5640   27.2609  -26.7184 H   0  0  0  0  0  0  0  0  0  0  0  0
   -2.1458   27.0922  -24.2670 H   0  0  0  0  0  0  0  0  0  0  0  0
   -0.5649   25.3794  -23.3828 H   0  0  0  0  0  0  0  0  0  0  0  0
    0.6357   23.8579  -24.9493 H   0  0  0  0  0  0  0  0  0  0  0  0
   -0.6233   22.1954  -29.6591 H   0  0  0  0  0  0  0  0  0  0  0  0
    0.6716   21.0012  -29.4492 H   0  0  0  0  0  0  0  0  0  0  0  0
   -2.0380   20.3679  -29.5488 H   0  0  0  0  0  0  0  0  0  0  0  0
   -0.8433   19.3383  -28.7522 H   0  0  0  0  0  0  0  0  0  0  0  0
   -2.9880   20.8948  -27.5318 H   0  0  0  0  0  0  0  0  0  0  0  0
   -1.8311   19.8534  -26.6951 H   0  0  0  0  0  0  0  0  0  0  0  0
   -1.7915   22.8247  -27.1062 H   0  0  0  0  0  0  0  0  0  0  0  0
   -0.9935   21.8752  -25.8369 H   0  0  0  0  0  0  0  0  0  0  0  0
  1  2  2  0
  2  3  1  0
  3  4  1  0
  4  5  2  0
  5  6  1  0
  6  7  2  0
  7  8  1  0
  8  9  1  0
  9 10  2  0
  9 11  2  0
  9 12  1  0
 12 13  1  0
 13 14  1  0
 14 15  1  0
 15 16  1  0
 16 17  1  0
  8 18  2  0
  2 19  1  0
 19 20  1  0
 20 21  2  0
 21 22  1  0
 22 23  2  0
 23 24  1  0
 24 25  2  0
 25 26  1  0
 26 27  2  0
 26 28  2  0
 26 29  1  0
 29 30  1  0
 30 31  1  0
 31 32  1  0
 32 33  1  0
 18  4  1  0
 25 20  1  0
 33 29  1  0
 17 12  1  0
  5 34  1  0
  6 35  1  0
  7 36  1  0
 13 37  1  0
 13 38  1  0
 14 39  1  0
 14 40  1  0
 16 41  1  0
 16 42  1  0
 17 43  1  0
 17 44  1  0
 18 45  1  0
 21 46  1  0
 22 47  1  0
 23 48  1  0
 24 49  1  0
 30 50  1  0
 30 51  1  0
 31 52  1  0
 31 53  1  0
 32 54  1  0
 32 55  1  0
 33 56  1  0
 33 57  1  0
M  CHG  2   3  -1  19  -1
M  END
>  <UniqueID>  (4) 
4

>  <SMILES>  (4) 
O=C([N-]c1cccc(S(=O)(=O)N2CCOCC2)c1)[N-]c1ccccc1S(=O)(=O)N1CCCC1

>  <Energy>  (4) 
72.55762737565284

>  <Genealogy>  (4) 
O=C([N-]c1cccc(S(=O)(=O)N2CCOCC2)c1)[N-]c1ccccc1S(=O)(=O)N1CCCC1 (protonated)
O=C([N-]c1cccc(S(=O)(=O)N2CCOCC2)c1)[N-]c1ccccc1S(=O)(=O)N1CCCC1 (3D coordinates assigned)
O=C([N-]c1cccc(S(=O)(=O)N2CCOCC2)c1)[N-]c1ccccc1S(=O)(=O)N1CCCC1 (nonaromatic ring conformer: 72.55762737565284 kcal/mol)

>  <smiles>  (4) 
O=C(Nc1cccc(S(=O)(=O)N2CCOCC2)c1)Nc1ccccc1S(=O)(=O)N1CCCC1

>  <score_type>  (4) 
oracle

>  <origin>  (4) 
adgpu

>  <m_score__min__energy>  (4) 
-13.800000000000001

>  <m_primary>  (4) 
energy

$$$$
4:0
     RDKit          3D

 60 63  0  0  0  0  0  0  0  0999 V2000
   -2.3870   22.6190  -31.9870 O   0  0  0  0  0  0  0  0  0  0  0  0
   -3.1510   22.4250  -31.0050 C   0  0  0  0  0  0  0  0  0  0  0  0
   -2.7120   21.5600  -29.9480 N   0  0  0  0  0  0  0  0  0  0  0  0
   -2.0620   21.9790  -28.7390 C   0  0  0  0  0  0  0  0  0  0  0  0
   -1.5170   23.2680  -28.6850 C   0  0  0  0  0  0  0  0  0  0  0  0
   -0.8480   23.7120  -27.5370 C   0  0  0  0  0  0  0  0  0  0  0  0
   -0.1590   25.3330  -27.4940 S   0  0  0  0  0  0  0  0  0  0  0  0
   -0.8600   26.1830  -28.5170 O   0  0  0  0  0  0  0  0  0  0  0  0
    1.3040   25.2740  -27.8430 O   0  0  0  0  0  0  0  0  0  0  0  0
   -0.3720   26.0310  -25.9080 N   0  0  0  0  0  0  0  0  0  0  0  0
    0.7460   25.6260  -25.0270 C   0  0  0  0  0  0  0  0  0  0  0  0
    0.8100   26.4620  -23.7290 C   0  0  0  0  0  0  0  0  0  0  0  0
   -0.4990   27.2130  -23.4740 C   0  0  0  0  0  0  0  0  0  0  0  0
   -0.8570   28.1160  -24.6670 C   0  0  0  0  0  0  0  0  0  0  0  0
   -0.4500   27.4960  -26.0170 C   0  0  0  0  0  0  0  0  0  0  0  0
   -0.7540   22.8710  -26.4220 C   0  0  0  0  0  0  0  0  0  0  0  0
   -1.3290   21.5980  -26.4520 C   0  0  0  0  0  0  0  0  0  0  0  0
   -1.9970   21.1500  -27.6010 C   0  0  0  0  0  0  0  0  0  0  0  0
   -2.6150   19.9010  -27.5980 O   0  0  0  0  0  0  0  0  0  0  0  0
   -4.4800   23.0760  -30.9830 C   0  0  0  0  0  0  0  0  0  0  0  0
   -5.6320   22.2980  -31.1910 C   0  0  0  0  0  0  0  0  0  0  0  0
   -6.8990   22.8960  -31.2200 C   0  0  0  0  0  0  0  0  0  0  0  0
   -8.3350   21.9320  -31.5530 S   0  0  0  0  0  0  0  0  0  0  0  0
   -9.4460   22.8580  -31.9670 O   0  0  0  0  0  0  0  0  0  0  0  0
   -8.7590   21.2080  -30.3050 O   0  0  0  0  0  0  0  0  0  0  0  0
   -7.9820   20.8000  -32.8410 N   0  0  0  0  0  0  0  0  0  0  0  0
   -6.7020   20.0900  -32.6180 C   0  0  0  0  0  0  0  0  0  0  0  0
   -6.8950   18.6870  -32.0140 C   0  0  0  0  0  0  0  0  0  0  0  0
   -8.0350   18.6620  -31.1840 O   0  0  0  0  0  0  0  0  0  0  0  0
   -9.2110   18.7950  -31.9630 C   0  0  0  0  0  0  0  0  0  0  0  0
   -9.1010   19.8700  -33.0720 C   0  0  0  0  0  0  0  0  0  0  0  0
   -7.0190   24.2770  -31.0270 C   0  0  0  0  0  0  0  0  0  0  0  0
   -5.8830   25.0530  -30.7870 C   0  0  0  0  0  0  0  0  0  0  0  0
   -4.6170   24.4610  -30.7550 C   0  0  0  0  0  0  0  0  0  0  0  0
   -3.5080   25.2520  -30.4750 O   0  0  0  0  0  0  0  0  0  0  0  0
   -1.6151   23.9379  -29.5519 H   0  0  0  0  0  0  0  0  0  0  0  0
    0.6176   24.5670  -24.7585 H   0  0  0  0  0  0  0  0  0  0  0  0
    1.6831   25.7930  -25.5784 H   0  0  0  0  0  0  0  0  0  0  0  0
    1.0060   25.7893  -22.8810 H   0  0  0  0  0  0  0  0  0  0  0  0
    1.6150   27.2036  -23.8382 H   0  0  0  0  0  0  0  0  0  0  0  0
   -1.3079   26.4839  -23.3191 H   0  0  0  0  0  0  0  0  0  0  0  0
   -0.3734   27.8439  -22.5817 H   0  0  0  0  0  0  0  0  0  0  0  0
   -1.9441   28.2839  -24.6690 H   0  0  0  0  0  0  0  0  0  0  0  0
   -0.3032   29.0593  -24.5511 H   0  0  0  0  0  0  0  0  0  0  0  0
   -1.1978   27.7631  -26.7782 H   0  0  0  0  0  0  0  0  0  0  0  0
    0.5383   27.8847  -26.3037 H   0  0  0  0  0  0  0  0  0  0  0  0
   -0.2260   23.2133  -25.5197 H   0  0  0  0  0  0  0  0  0  0  0  0
   -1.2575   20.9441  -25.5704 H   0  0  0  0  0  0  0  0  0  0  0  0
   -3.1300   19.5590  -28.4030 H   0  0  0  0  0  0  0  0  0  0  0  0
   -5.5383   21.2111  -31.3321 H   0  0  0  0  0  0  0  0  0  0  0  0
   -6.1835   19.9889  -33.5828 H   0  0  0  0  0  0  0  0  0  0  0  0
   -6.1159   20.6819  -31.8996 H   0  0  0  0  0  0  0  0  0  0  0  0
   -7.0222   17.9568  -32.8268 H   0  0  0  0  0  0  0  0  0  0  0  0
   -6.0099   18.4324  -31.4125 H   0  0  0  0  0  0  0  0  0  0  0  0
   -9.4252   17.8261  -32.4377 H   0  0  0  0  0  0  0  0  0  0  0  0
  -10.0145   19.1140  -31.2828 H   0  0  0  0  0  0  0  0  0  0  0  0
   -8.9490   19.3669  -34.0383 H   0  0  0  0  0  0  0  0  0  0  0  0
  -10.0319   20.4559  -33.0658 H   0  0  0  0  0  0  0  0  0  0  0  0
   -8.0103   24.7522  -31.0644 H   0  0  0  0  0  0  0  0  0  0  0  0
   -5.9849   26.1358  -30.6223 H   0  0  0  0  0  0  0  0  0  0  0  0
  1  2  2  0
  2  3  1  0
  3  4  1  0
  4  5  2  0
  5  6  1  0
  6  7  1  0
  7  8  2  0
  7  9  2  0
  7 10  1  0
 10 11  1  0
 11 12  1  0
 12 13  1  0
 13 14  1  0
 14 15  1  0
  6 16  2  0
 16 17  1  0
 17 18  2  0
 18 19  1  0
  2 20  1  0
 20 21  2  0
 21 22  1  0
 22 23  1  0
 23 24  2  0
 23 25  2  0
 23 26  1  0
 26 27  1  0
 27 28  1  0
 28 29  1  0
 29 30  1  0
 30 31  1  0
 22 32  2  0
 32 33  1  0
 33 34  2  0
 34 35  1  0
 18  4  1  0
 34 20  1  0
 15 10  1  0
 31 26  1  0
  5 36  1  0
 11 37  1  0
 11 38  1  0
 12 39  1  0
 12 40  1  0
 13 41  1  0
 13 42  1  0
 14 43  1  0
 14 44  1  0
 15 45  1  0
 15 46  1  0
 16 47  1  0
 17 48  1  0
 19 49  1  0
 21 50  1  0
 27 51  1  0
 27 52  1  0
 28 53  1  0
 28 54  1  0
 30 55  1  0
 30 56  1  0
 31 57  1  0
 31 58  1  0
 32 59  1  0
 33 60  1  0
M  CHG  2   3  -1  35  -1
M  END
>  <UniqueID>  (5) 
5

>  <SMILES>  (5) 
O=C([N-]c1cc(S(=O)(=O)N2CCCCC2)ccc1O)c1cc(S(=O)(=O)N2CCOCC2)ccc1[O-]

>  <Energy>  (5) 
84.762904341896

>  <Genealogy>  (5) 
O=C([N-]c1cc(S(=O)(=O)N2CCCCC2)ccc1O)c1cc(S(=O)(=O)N2CCOCC2)ccc1[O-] (protonated)
O=C([N-]c1cc(S(=O)(=O)N2CCCCC2)ccc1O)c1cc(S(=O)(=O)N2CCOCC2)ccc1[O-] (3D coordinates assigned)
O=C([N-]c1cc(S(=O)(=O)N2CCCCC2)ccc1O)c1cc(S(=O)(=O)N2CCOCC2)ccc1[O-] (nonaromatic ring conformer: 84.762904341896 kcal/mol)

>  <smiles>  (5) 
O=C(Nc1cc(S(=O)(=O)N2CCCCC2)ccc1O)c1cc(S(=O)(=O)N2CCOCC2)ccc1O

>  <score_type>  (5) 
oracle

>  <origin>  (5) 
adgpu

>  <m_score__min__energy>  (5) 
-14.65

>  <m_primary>  (5) 
energy

$$$$
5:0
     RDKit          3D

 63 66  0  0  0  0  0  0  0  0999 V2000
    2.4240   19.4800  -33.9280 C   0  0  0  0  0  0  0  0  0  0  0  0
    1.4450   20.4530  -33.4190 N   0  0  0  0  0  0  0  0  0  0  0  0
    0.4940   20.8380  -34.4910 C   0  0  0  0  0  0  0  0  0  0  0  0
   -0.8190   21.3860  -33.9260 C   0  0  0  0  0  0  0  0  0  0  0  0
   -1.4400   20.3740  -33.0660 N   0  0  0  0  0  0  0  0  0  0  0  0
   -2.8480   20.4340  -32.7820 C   0  0  0  0  0  0  0  0  0  0  0  0
   -3.7660   20.0110  -33.7560 C   0  0  0  0  0  0  0  0  0  0  0  0
   -5.1370   20.1540  -33.5470 C   0  0  0  0  0  0  0  0  0  0  0  0
   -5.6130   20.7380  -32.3680 C   0  0  0  0  0  0  0  0  0  0  0  0
   -7.0640   20.8980  -32.1490 C   0  0  0  0  0  0  0  0  0  0  0  0
   -7.9220   19.8720  -32.5780 C   0  0  0  0  0  0  0  0  0  0  0  0
   -9.3030   19.9900  -32.4220 C   0  0  0  0  0  0  0  0  0  0  0  0
   -9.8430   21.1340  -31.8360 C   0  0  0  0  0  0  0  0  0  0  0  0
   -9.0030   22.1590  -31.3930 C   0  0  0  0  0  0  0  0  0  0  0  0
   -7.6110   22.0520  -31.5320 C   0  0  0  0  0  0  0  0  0  0  0  0
   -6.5870   23.3500  -30.8970 S   0  0  0  0  0  0  0  0  0  0  0  0
   -5.4020   23.8030  -32.0730 N   0  0  0  0  0  0  0  0  0  0  0  0
   -5.8690   22.8800  -29.6620 O   0  0  0  0  0  0  0  0  0  0  0  0
   -7.4350   24.5390  -30.5470 O   0  0  0  0  0  0  0  0  0  0  0  0
   -4.7050   21.1360  -31.3760 C   0  0  0  0  0  0  0  0  0  0  0  0
   -3.3260   20.9730  -31.5660 C   0  0  0  0  0  0  0  0  0  0  0  0
   -2.4290   21.3570  -30.5140 N   0  0  0  0  0  0  0  0  0  0  0  0
   -2.4090   22.6890  -29.9740 C   0  0  0  0  0  0  0  0  0  0  0  0
   -2.9150   23.6350  -30.6410 O   0  0  0  0  0  0  0  0  0  0  0  0
   -1.7990   22.9720  -28.6530 C   0  0  0  0  0  0  0  0  0  0  0  0
   -1.5900   24.3010  -28.2410 C   0  0  0  0  0  0  0  0  0  0  0  0
   -1.0470   24.5800  -26.9850 C   0  0  0  0  0  0  0  0  0  0  0  0
   -0.7150   23.5360  -26.1130 C   0  0  0  0  0  0  0  0  0  0  0  0
   -0.0360   23.8750  -24.5260 S   0  0  0  0  0  0  0  0  0  0  0  0
   -0.5310   25.5010  -24.0000 C   0  0  0  0  0  0  0  0  0  0  0  0
   -0.5250   22.8620  -23.5270 O   0  0  0  0  0  0  0  0  0  0  0  0
    1.4620   23.8010  -24.5960 O   0  0  0  0  0  0  0  0  0  0  0  0
   -0.9160   22.2110  -26.5150 C   0  0  0  0  0  0  0  0  0  0  0  0
   -1.4550   21.9290  -27.7730 C   0  0  0  0  0  0  0  0  0  0  0  0
   -0.5920   19.3980  -32.3720 C   0  0  0  0  0  0  0  0  0  0  0  0
    0.8130   19.9760  -32.1600 C   0  0  0  0  0  0  0  0  0  0  0  0
    2.9225   18.9845  -33.0818 H   0  0  0  0  0  0  0  0  0  0  0  0
    1.9076   18.7269  -34.5414 H   0  0  0  0  0  0  0  0  0  0  0  0
    3.1739   20.0010  -34.5414 H   0  0  0  0  0  0  0  0  0  0  0  0
    0.9607   21.6118  -35.1182 H   0  0  0  0  0  0  0  0  0  0  0  0
    0.2608   19.9367  -35.0769 H   0  0  0  0  0  0  0  0  0  0  0  0
   -0.6150   22.2925  -33.3373 H   0  0  0  0  0  0  0  0  0  0  0  0
   -1.5003   21.6324  -34.7537 H   0  0  0  0  0  0  0  0  0  0  0  0
   -3.4007   19.5630  -34.6919 H   0  0  0  0  0  0  0  0  0  0  0  0
   -5.8471   19.8064  -34.3118 H   0  0  0  0  0  0  0  0  0  0  0  0
   -7.5011   18.9674  -33.0411 H   0  0  0  0  0  0  0  0  0  0  0  0
   -9.9660   19.1805  -32.7613 H   0  0  0  0  0  0  0  0  0  0  0  0
  -10.9329   21.2299  -31.7221 H   0  0  0  0  0  0  0  0  0  0  0  0
   -9.4371   23.0580  -30.9311 H   0  0  0  0  0  0  0  0  0  0  0  0
   -4.5730   24.1640  -31.5510 H   0  0  0  0  0  0  0  0  0  0  0  0
   -5.0782   21.5797  -30.4412 H   0  0  0  0  0  0  0  0  0  0  0  0
   -1.6490   20.7050  -30.2700 H   0  0  0  0  0  0  0  0  0  0  0  0
   -1.8570   25.1284  -28.9149 H   0  0  0  0  0  0  0  0  0  0  0  0
   -0.8795   25.6234  -26.6797 H   0  0  0  0  0  0  0  0  0  0  0  0
   -0.5437   25.5428  -22.9009 H   0  0  0  0  0  0  0  0  0  0  0  0
    0.1816   26.2443  -24.3870 H   0  0  0  0  0  0  0  0  0  0  0  0
   -1.5369   25.7212  -24.3870 H   0  0  0  0  0  0  0  0  0  0  0  0
   -0.6483   21.3870  -25.8372 H   0  0  0  0  0  0  0  0  0  0  0  0
   -1.6116   20.8837  -28.0778 H   0  0  0  0  0  0  0  0  0  0  0  0
   -1.0378   19.1582  -31.3954 H   0  0  0  0  0  0  0  0  0  0  0  0
   -0.5176   18.4868  -32.9837 H   0  0  0  0  0  0  0  0  0  0  0  0
    0.7412   20.8230  -31.4619 H   0  0  0  0  0  0  0  0  0  0  0  0
    1.4436   19.1667  -31.7632 H   0  0  0  0  0  0  0  0  0  0  0  0
  1  2  1  0
  2  3  1  0
  3  4  1  0
  4  5  1  0
  5  6  1  0
  6  7  2  0
  7  8  1  0
  8  9  2  0
  9 10  1  0
 10 11  2  0
 11 12  1  0
 12 13  2  0
 13 14  1  0
 14 15  2  0
 15 16  1  0
 16 17  1  0
 16 18  2  0
 16 19  2  0
  9 20  1  0
 20 21  2  0
 21 22  1  0
 22 23  1  0
 23 24  2  0
 23 25  1  0
 25 26  2  0
 26 27  1  0
 27 28  2  0
 28 29  1  0
 29 30  1  0
 29 31  2  0
 29 32  2  0
 28 33  1  0
 33 34  2  0
  5 35  1  0
 35 36  1  0
 36  2  1  0
 21  6  1  0
 34 25  1  0
 15 10  1  0
  1 37  1  0
  1 38  1  0
  1 39  1  0
  3 40  1  0
  3 41  1  0
  4 42  1  0
  4 43  1  0
  7 44  1  0
  8 45  1  0
 11 46  1  0
 12 47  1  0
 13 48  1  0
 14 49  1  0
 17 50  1  0
 20 51  1  0
 22 52  1  0
 26 53  1  0
 27 54  1  0
 30 55  1  0
 30 56  1  0
 30 57  1  0
 33 58  1  0
 34 59  1  0
 35 60  1  0
 35 61  1  0
 36 62  1  0
 36 63  1  0
M  CHG  1  17  -1
M  END
>  <UniqueID>  (6) 
6

>  <SMILES>  (6) 
CN1CCN(c2ccc(-c3ccccc3S([NH-])(=O)=O)cc2NC(=O)c2ccc(S(C)(=O)=O)cc2)CC1

>  <Energy>  (6) 
87.6595358974203

>  <Genealogy>  (6) 
CN1CCN(c2ccc(-c3ccccc3S([NH-])(=O)=O)cc2NC(=O)c2ccc(S(C)(=O)=O)cc2)CC1 (protonated)
CN1CCN(c2ccc(-c3ccccc3S([NH-])(=O)=O)cc2NC(=O)c2ccc(S(C)(=O)=O)cc2)CC1 (3D coordinates assigned)
CN1CCN(c2ccc(-c3ccccc3S([NH-])(=O)=O)cc2NC(=O)c2ccc(S(C)(=O)=O)cc2)CC1 (nonaromatic ring conformer: 87.6595358974203 kcal/mol)

>  <smiles>  (6) 
CN1CCN(c2ccc(-c3ccccc3S(N)(=O)=O)cc2NC(=O)c2ccc(S(C)(=O)=O)cc2)CC1

>  <score_type>  (6) 
oracle

>  <origin>  (6) 
adgpu

>  <m_score__min__energy>  (6) 
-10.710000000000001

>  <m_primary>  (6) 
energy

$$$$
6:0
     RDKit          3D

 46 48  0  0  0  0  0  0  0  0999 V2000
   -2.3560   25.2560  -28.8670 O   0  0  0  0  0  0  0  0  0  0  0  0
   -2.9890   24.6220  -29.7550 C   0  0  0  0  0  0  0  0  0  0  0  0
   -3.8660   25.3270  -30.6430 N   0  0  0  0  0  0  0  0  0  0  0  0
   -5.2880   25.5220  -30.3890 C   0  0  0  0  0  0  0  0  0  0  0  0
   -6.0590   24.2820  -30.7500 C   0  0  0  0  0  0  0  0  0  0  0  0
   -6.6050   23.4770  -29.7410 C   0  0  0  0  0  0  0  0  0  0  0  0
   -7.3000   22.3160  -30.0870 C   0  0  0  0  0  0  0  0  0  0  0  0
   -7.4400   21.9680  -31.3940 N   0  0  0  0  0  0  0  0  0  0  0  0
   -6.9150   22.7280  -32.3920 C   0  0  0  0  0  0  0  0  0  0  0  0
   -6.2130   23.8970  -32.0900 C   0  0  0  0  0  0  0  0  0  0  0  0
   -2.8290   23.1540  -29.8760 C   0  0  0  0  0  0  0  0  0  0  0  0
   -2.2440   22.4130  -28.8340 C   0  0  0  0  0  0  0  0  0  0  0  0
   -2.0920   21.0290  -28.9500 C   0  0  0  0  0  0  0  0  0  0  0  0
   -2.5210   20.3680  -30.1020 C   0  0  0  0  0  0  0  0  0  0  0  0
   -3.1110   21.0890  -31.1470 C   0  0  0  0  0  0  0  0  0  0  0  0
   -3.6720   20.2510  -32.5970 S   0  0  0  0  0  0  0  0  0  0  0  0
   -3.3890   21.1050  -33.8020 O   0  0  0  0  0  0  0  0  0  0  0  0
   -2.9050   18.9660  -32.7500 O   0  0  0  0  0  0  0  0  0  0  0  0
   -5.3840   19.9000  -32.5210 N   0  0  0  0  0  0  0  0  0  0  0  0
   -5.9360   19.6090  -33.8740 C   0  0  0  0  0  0  0  0  0  0  0  0
   -6.1480   18.1090  -34.1240 C   0  0  0  0  0  0  0  0  0  0  0  0
   -7.1110   17.5060  -33.0860 C   0  0  0  0  0  0  0  0  0  0  0  0
   -7.0180   18.1990  -31.7150 C   0  0  0  0  0  0  0  0  0  0  0  0
   -5.6410   18.8400  -31.5150 C   0  0  0  0  0  0  0  0  0  0  0  0
   -3.2580   22.4800  -31.0340 C   0  0  0  0  0  0  0  0  0  0  0  0
   -5.4386   25.7450  -29.3224 H   0  0  0  0  0  0  0  0  0  0  0  0
   -5.6493   26.3591  -31.0044 H   0  0  0  0  0  0  0  0  0  0  0  0
   -6.4870   23.7576  -28.6840 H   0  0  0  0  0  0  0  0  0  0  0  0
   -7.7350   21.6818  -29.3005 H   0  0  0  0  0  0  0  0  0  0  0  0
   -7.0436   22.4211  -33.4405 H   0  0  0  0  0  0  0  0  0  0  0  0
   -5.7845   24.5106  -32.8962 H   0  0  0  0  0  0  0  0  0  0  0  0
   -1.9041   22.9259  -27.9222 H   0  0  0  0  0  0  0  0  0  0  0  0
   -1.6323   20.4579  -28.1300 H   0  0  0  0  0  0  0  0  0  0  0  0
   -2.3953   19.2787  -30.1890 H   0  0  0  0  0  0  0  0  0  0  0  0
   -5.8430   20.7770  -32.1770 H   0  0  0  0  0  0  0  0  0  0  0  0
   -6.9038   20.1218  -33.9757 H   0  0  0  0  0  0  0  0  0  0  0  0
   -5.2033   19.9660  -34.6127 H   0  0  0  0  0  0  0  0  0  0  0  0
   -6.5700   17.9684  -35.1301 H   0  0  0  0  0  0  0  0  0  0  0  0
   -5.1770   17.5994  -34.0378 H   0  0  0  0  0  0  0  0  0  0  0  0
   -8.1401   17.6057  -33.4614 H   0  0  0  0  0  0  0  0  0  0  0  0
   -6.8292   16.4521  -32.9449 H   0  0  0  0  0  0  0  0  0  0  0  0
   -7.7904   18.9798  -31.6537 H   0  0  0  0  0  0  0  0  0  0  0  0
   -7.1698   17.4436  -30.9299 H   0  0  0  0  0  0  0  0  0  0  0  0
   -5.5955   19.2830  -30.5092 H   0  0  0  0  0  0  0  0  0  0  0  0
   -4.8758   18.0587  -31.6333 H   0  0  0  0  0  0  0  0  0  0  0  0
   -3.7129   23.0486  -31.8585 H   0  0  0  0  0  0  0  0  0  0  0  0
  1  2  2  0
  2  3  1  0
  3  4  1  0
  4  5  1  0
  5  6  2  0
  6  7  1  0
  7  8  2  0
  8  9  1  0
  9 10  2  0
  2 11  1  0
 11 12  2  0
 12 13  1  0
 13 14  2  0
 14 15  1  0
 15 16  1  0
 16 17  2  0
 16 18  2  0
 16 19  1  0
 19 20  1  0
 20 21  1  0
 21 22  1  0
 22 23  1  0
 23 24  1  0
 15 25  2  0
 10  5  1  0
 25 11  1  0
 24 19  1  0
  4 26  1  0
  4 27  1  0
  6 28  1  0
  7 29  1  0
  9 30  1  0
 10 31  1  0
 12 32  1  0
 13 33  1  0
 14 34  1  0
 19 35  1  0
 20 36  1  0
 20 37  1  0
 21 38  1  0
 21 39  1  0
 22 40  1  0
 22 41  1  0
 23 42  1  0
 23 43  1  0
 24 44  1  0
 24 45  1  0
 25 46  1  0
M  CHG  2   3  -1  19   1
M  END
>  <UniqueID>  (7) 
7

>  <SMILES>  (7) 
O=C([N-]Cc1ccncc1)c1cccc(S(=O)(=O)[NH+]2CCCCC2)c1

>  <Energy>  (7) 
50.78226339307377

>  <Genealogy>  (7) 
O=C([N-]Cc1ccncc1)c1cccc(S(=O)(=O)[NH+]2CCCCC2)c1 (protonated)
O=C([N-]Cc1ccncc1)c1cccc(S(=O)(=O)[NH+]2CCCCC2)c1 (3D coordinates assigned)
O=C([N-]Cc1ccncc1)c1cccc(S(=O)(=O)[NH+]2CCCCC2)c1 (nonaromatic ring conformer: 50.78226339307377 kcal/mol)

>  <smiles>  (7) 
O=C(NCc1ccncc1)c1cccc(S(=O)(=O)N2CCCCC2)c1

>  <score_type>  (7) 
oracle

>  <origin>  (7) 
adgpu

>  <m_score__min__energy>  (7) 
-9.6099999999999994

>  <m_primary>  (7) 
energy

$$$$
7:0
     RDKit          3D

 56 59  0  0  0  0  0  0  0  0999 V2000
   -9.4532   23.9854  -31.7010 H   0  0  0  0  0  0  0  0  0  0  0  0
   -8.7310   23.1930  -31.9470 C   0  0  0  0  0  0  0  0  0  0  0  0
   -7.4180   23.5280  -32.2910 C   0  0  0  0  0  0  0  0  0  0  0  0
   -7.1093   24.5837  -32.3085 H   0  0  0  0  0  0  0  0  0  0  0  0
   -6.4950   22.5280  -32.6130 C   0  0  0  0  0  0  0  0  0  0  0  0
   -5.1940   22.9020  -32.9820 O   0  0  0  0  0  0  0  0  0  0  0  0
   -4.0280   22.4090  -32.3800 C   0  0  0  0  0  0  0  0  0  0  0  0
   -3.4210   21.2780  -32.9380 C   0  0  0  0  0  0  0  0  0  0  0  0
   -3.9187   20.7402  -33.7584 H   0  0  0  0  0  0  0  0  0  0  0  0
   -2.1880   20.8270  -32.4610 C   0  0  0  0  0  0  0  0  0  0  0  0
   -1.7230   19.9317  -32.8993 H   0  0  0  0  0  0  0  0  0  0  0  0
   -1.5450   21.5130  -31.4270 C   0  0  0  0  0  0  0  0  0  0  0  0
   -0.2490   21.0870  -30.9900 N   0  0  0  0  0  0  0  0  0  0  0  0
    0.0670   20.3100  -29.9840 C   0  0  0  0  0  0  0  0  0  0  0  0
    1.3560   19.7660  -29.9980 C   0  0  0  0  0  0  0  0  0  0  0  0
    2.0981   20.1387  -30.7194 H   0  0  0  0  0  0  0  0  0  0  0  0
    1.7060   18.7570  -29.1060 C   0  0  0  0  0  0  0  0  0  0  0  0
    2.7166   18.3240  -29.1395 H   0  0  0  0  0  0  0  0  0  0  0  0
    0.8080   18.3040  -28.1950 N   0  0  0  0  0  0  0  0  0  0  0  0
    1.1000   17.5270  -27.5590 H   0  0  0  0  0  0  0  0  0  0  0  0
   -0.4250   18.8700  -28.0650 C   0  0  0  0  0  0  0  0  0  0  0  0
   -1.2920   18.4220  -27.0540 C   0  0  0  0  0  0  0  0  0  0  0  0
   -1.0092   17.5581  -26.4346 H   0  0  0  0  0  0  0  0  0  0  0  0
   -2.5090   19.0660  -26.8310 C   0  0  0  0  0  0  0  0  0  0  0  0
   -3.5810   18.5070  -25.5600 Cl  0  0  0  0  0  0  0  0  0  0  0  0
   -2.8510   20.1860  -27.5850 C   0  0  0  0  0  0  0  0  0  0  0  0
   -3.7901   20.7199  -27.3776 H   0  0  0  0  0  0  0  0  0  0  0  0
   -2.0070   20.6340  -28.6030 C   0  0  0  0  0  0  0  0  0  0  0  0
   -2.2704   21.5421  -29.1651 H   0  0  0  0  0  0  0  0  0  0  0  0
   -0.8180   19.9370  -28.9220 C   0  0  0  0  0  0  0  0  0  0  0  0
   -2.1990   22.5780  -30.7890 C   0  0  0  0  0  0  0  0  0  0  0  0
   -1.7286   23.0659  -29.9226 H   0  0  0  0  0  0  0  0  0  0  0  0
   -3.4470   23.0260  -31.2460 C   0  0  0  0  0  0  0  0  0  0  0  0
   -4.0980   24.1550  -30.5430 C   0  0  0  0  0  0  0  0  0  0  0  0
   -3.4970   25.2630  -30.4910 O   0  0  0  0  0  0  0  0  0  0  0  0
   -5.3840   24.0150  -29.9090 N   0  0  0  0  0  0  0  0  0  0  0  0
   -6.2000   25.2110  -29.6860 C   0  0  0  0  0  0  0  0  0  0  0  0
   -6.3153   25.3799  -28.6052 H   0  0  0  0  0  0  0  0  0  0  0  0
   -5.7068   26.0818  -30.1427 H   0  0  0  0  0  0  0  0  0  0  0  0
   -7.1906   25.0694  -30.1427 H   0  0  0  0  0  0  0  0  0  0  0  0
   -5.8040   22.7210  -29.3590 C   0  0  0  0  0  0  0  0  0  0  0  0
   -5.7889   22.7674  -28.2601 H   0  0  0  0  0  0  0  0  0  0  0  0
   -6.8232   22.4901  -29.7023 H   0  0  0  0  0  0  0  0  0  0  0  0
   -5.1147   21.9355  -29.7023 H   0  0  0  0  0  0  0  0  0  0  0  0
   -6.8890   21.1780  -32.5470 C   0  0  0  0  0  0  0  0  0  0  0  0
   -6.1582   20.3843  -32.7614 H   0  0  0  0  0  0  0  0  0  0  0  0
   -8.2060   20.8390  -32.2100 C   0  0  0  0  0  0  0  0  0  0  0  0
   -8.6870   19.1470  -32.1960 S   0  0  0  0  0  0  0  0  0  0  0  0
   -9.0550   18.7420  -30.7960 O   0  0  0  0  0  0  0  0  0  0  0  0
   -9.8770   18.9340  -33.0920 O   0  0  0  0  0  0  0  0  0  0  0  0
   -7.3360   18.1440  -32.7750 C   0  0  0  0  0  0  0  0  0  0  0  0
   -6.7867   17.7362  -31.9137 H   0  0  0  0  0  0  0  0  0  0  0  0
   -7.7285   17.3168  -33.3846 H   0  0  0  0  0  0  0  0  0  0  0  0
   -6.6577   18.7590  -33.3846 H   0  0  0  0  0  0  0  0  0  0  0  0
   -9.1280   21.8530  -31.9150 C   0  0  0  0  0  0  0  0  0  0  0  0
  -10.1656   21.5938  -31.6579 H   0  0  0  0  0  0  0  0  0  0  0  0
  1  2  1  0
  2  3  2  0
  3  4  1  0
  3  5  1  0
  5  6  1  0
  6  7  1  0
  7  8  2  0
  8  9  1  0
  8 10  1  0
 10 11  1  0
 10 12  2  0
 12 13  1  0
 13 14  2  0
 14 15  1  0
 15 16  1  0
 15 17  2  0
 17 18  1  0
 17 19  1  0
 19 20  1  0
 19 21  1  0
 21 22  2  0
 22 23  1  0
 22 24  1  0
 24 25  1  0
 24 26  2  0
 26 27  1  0
 26 28  1  0
 28 29  1  0
 28 30  2  0
 12 31  1  0
 31 32  1  0
 31 33  2  0
 33 34  1  0
 34 35  2  0
 34 36  1  0
 36 37  1  0
 37 38  1  0
 37 39  1  0
 37 40  1  0
 36 41  1  0
 41 42  1  0
 41 43  1  0
 41 44  1  0
  5 45  2  0
 45 46  1  0
 45 47  1  0
 47 48  1  0
 48 49  2  0
 48 50  2  0
 48 51  1  0
 51 52  1  0
 51 53  1  0
 51 54  1  0
 47 55  2  0
 55 56  1  0
 55  2  1  0
 33  7  1  0
 30 14  1  0
 30 21  1  0
M  END
>  <UniqueID>  (8) 
8

>  <SMILES>  (8) 
CN(C)C(=O)c1cc(/N=c2/cc[nH]c3cc(Cl)ccc23)ccc1Oc1cccc(S(C)(=O)=O)c1

>  <Energy>  (8) 
87.60339922844692

>  <Genealogy>  (8) 
CN(C)C(=O)c1cc(/N=c2/cc[nH]c3cc(Cl)ccc23)ccc1Oc1cccc(S(C)(=O)=O)c1 (cis-trans isomerization)
CN(C)C(=O)c1cc(/N=c2/cc[nH]c3cc(Cl)ccc23)ccc1Oc1cccc(S(C)(=O)=O)c1 (3D coordinates assigned)
CN(C)C(=O)c1cc(/N=c2/cc[nH]c3cc(Cl)ccc23)ccc1Oc1cccc(S(C)(=O)=O)c1 (optimized conformer: 87.60339922844692 kcal/mol)

>  <smiles>  (8) 
CN(C)C(=O)c1cc(N=c2cc[nH]c3cc(Cl)ccc23)ccc1Oc1cccc(S(C)(=O)=O)c1

>  <score_type>  (8) 
oracle

>  <origin>  (8) 
adgpu

>  <m_score__min__energy>  (8) 
-10.9

>  <m_primary>  (8) 
energy

$$$$
8:0
     RDKit          3D

 45 48  0  0  0  0  0  0  0  0999 V2000
   -8.6180   23.4530  -31.9670 O   0  0  0  0  0  0  0  0  0  0  0  0
   -7.6450   22.6580  -31.8820 C   0  0  0  0  0  0  0  0  0  0  0  0
   -7.7360   21.2640  -32.1520 N   0  0  0  0  0  0  0  0  0  0  0  0
   -6.4030   20.6880  -31.9420 C   0  0  0  0  0  0  0  0  0  0  0  0
   -5.5600   21.8630  -31.5360 C   0  0  0  0  0  0  0  0  0  0  0  0
   -4.2060   21.8770  -31.2080 C   0  0  0  0  0  0  0  0  0  0  0  0
   -3.5910   23.1020  -30.8500 C   0  0  0  0  0  0  0  0  0  0  0  0
   -2.1890   23.1370  -30.5040 N   0  0  0  0  0  0  0  0  0  0  0  0
   -1.3650   21.9470  -30.2730 C   0  0  0  0  0  0  0  0  0  0  0  0
   -1.3870   21.5240  -28.8180 C   0  0  0  0  0  0  0  0  0  0  0  0
   -1.5070   20.1490  -28.5320 C   0  0  0  0  0  0  0  0  0  0  0  0
   -1.5040   19.6880  -27.2160 C   0  0  0  0  0  0  0  0  0  0  0  0
   -1.3860   20.5900  -26.1620 C   0  0  0  0  0  0  0  0  0  0  0  0
   -1.2850   21.9570  -26.4200 C   0  0  0  0  0  0  0  0  0  0  0  0
   -1.3040   22.4460  -27.7380 C   0  0  0  0  0  0  0  0  0  0  0  0
   -1.1840   24.2030  -27.9670 S   0  0  0  0  0  0  0  0  0  0  0  0
   -2.4740   24.7840  -28.4730 O   0  0  0  0  0  0  0  0  0  0  0  0
   -0.0940   24.4930  -28.9600 O   0  0  0  0  0  0  0  0  0  0  0  0
   -0.8200   24.9990  -26.4360 C   0  0  0  0  0  0  0  0  0  0  0  0
    0.3760   24.7290  -25.7540 C   0  0  0  0  0  0  0  0  0  0  0  0
    0.6440   25.3540  -24.5320 C   0  0  0  0  0  0  0  0  0  0  0  0
   -0.2810   26.2480  -23.9860 C   0  0  0  0  0  0  0  0  0  0  0  0
   -1.4750   26.5170  -24.6590 C   0  0  0  0  0  0  0  0  0  0  0  0
   -1.7460   25.8930  -25.8810 C   0  0  0  0  0  0  0  0  0  0  0  0
   -4.3870   24.2920  -30.8160 C   0  0  0  0  0  0  0  0  0  0  0  0
   -3.8620   25.5400  -30.4740 O   0  0  0  0  0  0  0  0  0  0  0  0
   -5.7530   24.2360  -31.1450 C   0  0  0  0  0  0  0  0  0  0  0  0
   -6.3020   23.0110  -31.5040 C   0  0  0  0  0  0  0  0  0  0  0  0
   -6.4258   19.9293  -31.1459 H   0  0  0  0  0  0  0  0  0  0  0  0
   -6.0161   20.1780  -32.8366 H   0  0  0  0  0  0  0  0  0  0  0  0
   -3.6203   20.9461  -31.2268 H   0  0  0  0  0  0  0  0  0  0  0  0
   -1.7250   24.0540  -30.3310 H   0  0  0  0  0  0  0  0  0  0  0  0
   -1.7498   21.1217  -30.8901 H   0  0  0  0  0  0  0  0  0  0  0  0
   -0.3270   22.1907  -30.5436 H   0  0  0  0  0  0  0  0  0  0  0  0
   -1.6044   19.4296  -29.3584 H   0  0  0  0  0  0  0  0  0  0  0  0
   -1.5949   18.6112  -27.0105 H   0  0  0  0  0  0  0  0  0  0  0  0
   -1.3724   20.2242  -25.1247 H   0  0  0  0  0  0  0  0  0  0  0  0
   -1.1892   22.6619  -25.5810 H   0  0  0  0  0  0  0  0  0  0  0  0
    1.1044   24.0242  -26.1814 H   0  0  0  0  0  0  0  0  0  0  0  0
    1.5833   25.1418  -24.0003 H   0  0  0  0  0  0  0  0  0  0  0  0
   -0.0686   26.7402  -23.0255 H   0  0  0  0  0  0  0  0  0  0  0  0
   -2.2027   27.2201  -24.2276 H   0  0  0  0  0  0  0  0  0  0  0  0
   -2.6882   26.1043  -26.4079 H   0  0  0  0  0  0  0  0  0  0  0  0
   -3.1060   25.6770  -29.8180 H   0  0  0  0  0  0  0  0  0  0  0  0
   -6.3743   25.1434  -31.1187 H   0  0  0  0  0  0  0  0  0  0  0  0
  1  2  2  0
  2  3  1  0
  3  4  1  0
  4  5  1  0
  5  6  2  0
  6  7  1  0
  7  8  1  0
  8  9  1  0
  9 10  1  0
 10 11  2  0
 11 12  1  0
 12 13  2  0
 13 14  1  0
 14 15  2  0
 15 16  1  0
 16 17  2  0
 16 18  2  0
 16 19  1  0
 19 20  2  0
 20 21  1  0
 21 22  2  0
 22 23  1  0
 23 24  2  0
  7 25  2  0
 25 26  1  0
 25 27  1  0
 27 28  2  0
 28  2  1  0
 28  5  1  0
 15 10  1  0
 24 19  1  0
  4 29  1  0
  4 30  1  0
  6 31  1  0
  8 32  1  0
  9 33  1  0
  9 34  1  0
 11 35  1  0
 12 36  1  0
 13 37  1  0
 14 38  1  0
 20 39  1  0
 21 40  1  0
 22 41  1  0
 23 42  1  0
 24 43  1  0
 26 44  1  0
 27 45  1  0
M  CHG  1   3  -1
M  END
>  <UniqueID>  (9) 
9

>  <SMILES>  (9) 
O=C1[N-]Cc2cc(NCc3ccccc3S(=O)(=O)c3ccccc3)c(O)cc21

>  <Energy>  (9) 
78.78764054119027

>  <Genealogy>  (9) 
O=C1[N-]Cc2cc(NCc3ccccc3S(=O)(=O)c3ccccc3)c(O)cc21 (protonated)
O=C1[N-]Cc2cc(NCc3ccccc3S(=O)(=O)c3ccccc3)c(O)cc21 (3D coordinates assigned)
O=C1[N-]Cc2cc(NCc3ccccc3S(=O)(=O)c3ccccc3)c(O)cc21 (nonaromatic ring conformer: 78.78764054119027 kcal/mol)

>  <smiles>  (9) 
O=C1NCc2cc(NCc3ccccc3S(=O)(=O)c3ccccc3)c(O)cc21

>  <score_type>  (9) 
oracle

>  <origin>  (9) 
adgpu

>  <m_score__min__energy>  (9) 
-9.9000000000000004

>  <m_primary>  (9) 
energy

$$$$
9:0
     RDKit          3D

 51 55  0  0  0  0  0  0  0  0999 V2000
   -0.1370   22.0370  -25.9740 C   0  0  0  0  0  0  0  0  0  0  0  0
   -0.1140   21.3090  -27.2540 N   0  0  0  0  0  0  0  0  0  0  0  0
   -1.0940   20.2050  -27.2980 C   0  0  0  0  0  0  0  0  0  0  0  0
   -2.5440   20.7060  -27.2380 C   0  0  0  0  0  0  0  0  0  0  0  0
   -2.7780   21.8990  -28.1270 C   0  0  0  0  0  0  0  0  0  0  0  0
   -4.0930   22.3080  -28.3870 C   0  0  0  0  0  0  0  0  0  0  0  0
   -4.3530   23.4360  -29.1860 C   0  0  0  0  0  0  0  0  0  0  0  0
   -5.7020   23.8390  -29.4900 N   0  0  0  0  0  0  0  0  0  0  0  0
   -6.4870   23.4720  -30.9930 S   0  0  0  0  0  0  0  0  0  0  0  0
   -7.9460   23.2170  -30.7360 O   0  0  0  0  0  0  0  0  0  0  0  0
   -6.3520   24.6410  -31.9250 O   0  0  0  0  0  0  0  0  0  0  0  0
   -5.7250   22.0670  -31.7350 C   0  0  0  0  0  0  0  0  0  0  0  0
   -4.3560   22.0900  -32.0120 C   0  0  0  0  0  0  0  0  0  0  0  0
   -3.7280   20.9690  -32.5540 C   0  0  0  0  0  0  0  0  0  0  0  0
   -4.4630   19.8020  -32.8280 C   0  0  0  0  0  0  0  0  0  0  0  0
   -5.8480   19.7750  -32.5580 C   0  0  0  0  0  0  0  0  0  0  0  0
   -6.4690   20.9130  -32.0120 C   0  0  0  0  0  0  0  0  0  0  0  0
   -6.6330   18.5520  -32.8440 C   0  0  0  0  0  0  0  0  0  0  0  0
   -7.8730   18.5290  -32.6120 O   0  0  0  0  0  0  0  0  0  0  0  0
   -5.9660   17.3550  -33.4090 C   0  0  0  0  0  0  0  0  0  0  0  0
   -6.7010   16.1870  -33.6810 C   0  0  0  0  0  0  0  0  0  0  0  0
   -6.0690   15.0620  -34.2140 C   0  0  0  0  0  0  0  0  0  0  0  0
   -4.7000   15.0880  -34.4820 C   0  0  0  0  0  0  0  0  0  0  0  0
   -3.9570   16.2400  -34.2150 C   0  0  0  0  0  0  0  0  0  0  0  0
   -4.5800   17.3810  -33.6780 C   0  0  0  0  0  0  0  0  0  0  0  0
   -3.7950   18.6050  -33.3930 C   0  0  0  0  0  0  0  0  0  0  0  0
   -2.5570   18.6290  -33.6300 O   0  0  0  0  0  0  0  0  0  0  0  0
   -3.2710   24.1780  -29.6890 C   0  0  0  0  0  0  0  0  0  0  0  0
   -3.4910   25.3010  -30.4790 O   0  0  0  0  0  0  0  0  0  0  0  0
   -1.9580   23.7890  -29.4110 C   0  0  0  0  0  0  0  0  0  0  0  0
   -1.7000   22.6580  -28.6230 C   0  0  0  0  0  0  0  0  0  0  0  0
   -0.2710   22.2150  -28.4090 C   0  0  0  0  0  0  0  0  0  0  0  0
   -0.1143   21.3173  -25.1424 H   0  0  0  0  0  0  0  0  0  0  0  0
    0.7407   22.6971  -25.9118 H   0  0  0  0  0  0  0  0  0  0  0  0
   -1.0547   22.6404  -25.9118 H   0  0  0  0  0  0  0  0  0  0  0  0
   -0.9525   19.6443  -28.2337 H   0  0  0  0  0  0  0  0  0  0  0  0
   -0.9224   19.5692  -26.4169 H   0  0  0  0  0  0  0  0  0  0  0  0
   -3.2121   19.8922  -27.5563 H   0  0  0  0  0  0  0  0  0  0  0  0
   -2.7488   21.0150  -26.2023 H   0  0  0  0  0  0  0  0  0  0  0  0
   -4.9327   21.7395  -27.9607 H   0  0  0  0  0  0  0  0  0  0  0  0
   -6.2020   24.4930  -28.8470 H   0  0  0  0  0  0  0  0  0  0  0  0
   -3.7703   22.9970  -31.8015 H   0  0  0  0  0  0  0  0  0  0  0  0
   -2.6496   20.9979  -32.7688 H   0  0  0  0  0  0  0  0  0  0  0  0
   -7.5484   20.8965  -31.8007 H   0  0  0  0  0  0  0  0  0  0  0  0
   -7.7807   16.1598  -33.4724 H   0  0  0  0  0  0  0  0  0  0  0  0
   -6.6518   14.1528  -34.4232 H   0  0  0  0  0  0  0  0  0  0  0  0
   -4.2056   14.2006  -34.9039 H   0  0  0  0  0  0  0  0  0  0  0  0
   -2.8775   16.2551  -34.4260 H   0  0  0  0  0  0  0  0  0  0  0  0
   -1.1190   24.3753  -29.8140 H   0  0  0  0  0  0  0  0  0  0  0  0
    0.0730   21.6923  -29.3137 H   0  0  0  0  0  0  0  0  0  0  0  0
    0.3252   23.1162  -28.2033 H   0  0  0  0  0  0  0  0  0  0  0  0
  1  2  1  0
  2  3  1  0
  3  4  1  0
  4  5  1  0
  5  6  2  0
  6  7  1  0
  7  8  1  0
  8  9  1  0
  9 10  2  0
  9 11  2  0
  9 12  1  0
 12 13  2  0
 13 14  1  0
 14 15  2  0
 15 16  1  0
 16 17  2  0
 16 18  1  0
 18 19  2  0
 18 20  1  0
 20 21  2  0
 21 22  1  0
 22 23  2  0
 23 24  1  0
 24 25  2  0
 25 26  1  0
 26 27  2  0
  7 28  2  0
 28 29  1  0
 28 30  1  0
 30 31  2  0
 31 32  1  0
 32  2  1  0
 31  5  1  0
 17 12  1  0
 25 20  1  0
 26 15  1  0
  1 33  1  0
  1 34  1  0
  1 35  1  0
  3 36  1  0
  3 37  1  0
  4 38  1  0
  4 39  1  0
  6 40  1  0
  8 41  1  0
 13 42  1  0
 14 43  1  0
 17 44  1  0
 21 45  1  0
 22 46  1  0
 23 47  1  0
 24 48  1  0
 30 49  1  0
 32 50  1  0
 32 51  1  0
M  CHG  1  29  -1
M  END
>  <UniqueID>  (10) 
10

>  <SMILES>  (10) 
CN1CCc2cc(NS(=O)(=O)c3ccc4c(c3)C(=O)c3ccccc3C4=O)c([O-])cc2C1

>  <Energy>  (10) 
69.52873072149981

>  <Genealogy>  (10) 
CN1CCc2cc(NS(=O)(=O)c3ccc4c(c3)C(=O)c3ccccc3C4=O)c([O-])cc2C1 (protonated)
CN1CCc2cc(NS(=O)(=O)c3ccc4c(c3)C(=O)c3ccccc3C4=O)c([O-])cc2C1 (3D coordinates assigned)
CN1CCc2cc(NS(=O)(=O)c3ccc4c(c3)C(=O)c3ccccc3C4=O)c([O-])cc2C1 (nonaromatic ring conformer: 69.52873072149981 kcal/mol)

>  <smiles>  (10) 
CN1CCc2cc(NS(=O)(=O)c3ccc4c(c3)C(=O)c3ccccc3C4=O)c(O)cc2C1

>  <score_type>  (10) 
oracle

>  <origin>  (10) 
adgpu

>  <m_score__min__energy>  (10) 
-14.35

>  <m_primary>  (10) 
energy

$$$$
10:0
     RDKit          3D

 57 60  0  0  0  0  0  0  0  0999 V2000
   -3.6850   23.9880  -30.1840 O   0  0  0  0  0  0  0  0  0  0  0  0
   -2.6680   23.3450  -29.8080 C   0  0  0  0  0  0  0  0  0  0  0  0
   -2.3230   22.1050  -30.4490 N   0  0  0  0  0  0  0  0  0  0  0  0
   -3.2450   21.3260  -31.2310 C   0  0  0  0  0  0  0  0  0  0  0  0
   -4.6130   21.2720  -30.9110 C   0  0  0  0  0  0  0  0  0  0  0  0
   -5.4870   20.4900  -31.6730 C   0  0  0  0  0  0  0  0  0  0  0  0
   -5.0050   19.7460  -32.7580 C   0  0  0  0  0  0  0  0  0  0  0  0
   -6.1140   18.7700  -33.7250 S   0  0  0  0  0  0  0  0  0  0  0  0
   -7.5040   18.8950  -33.1660 O   0  0  0  0  0  0  0  0  0  0  0  0
   -6.1310   19.2970  -35.1340 O   0  0  0  0  0  0  0  0  0  0  0  0
   -5.6430   17.0880  -33.7430 N   0  0  0  0  0  0  0  0  0  0  0  0
   -6.6820   16.2750  -34.4080 C   0  0  0  0  0  0  0  0  0  0  0  0
   -6.4690   14.7590  -34.1960 C   0  0  0  0  0  0  0  0  0  0  0  0
   -5.0540   14.4490  -33.7010 C   0  0  0  0  0  0  0  0  0  0  0  0
   -4.7400   15.2170  -32.4040 C   0  0  0  0  0  0  0  0  0  0  0  0
   -5.3950   16.6110  -32.3730 C   0  0  0  0  0  0  0  0  0  0  0  0
   -3.6390   19.7800  -33.0650 C   0  0  0  0  0  0  0  0  0  0  0  0
   -2.7640   20.5590  -32.3020 C   0  0  0  0  0  0  0  0  0  0  0  0
   -1.8200   23.9080  -28.7430 C   0  0  0  0  0  0  0  0  0  0  0  0
   -0.9180   24.9650  -28.8670 C   0  0  0  0  0  0  0  0  0  0  0  0
   -0.2480   25.2630  -27.6750 C   0  0  0  0  0  0  0  0  0  0  0  0
   -0.6150   24.4360  -26.6240 C   0  0  0  0  0  0  0  0  0  0  0  0
   -0.0050   24.5400  -24.9820 S   0  0  0  0  0  0  0  0  0  0  0  0
   -0.1550   23.2010  -24.3150 O   0  0  0  0  0  0  0  0  0  0  0  0
    1.4570   24.8830  -25.0430 O   0  0  0  0  0  0  0  0  0  0  0  0
   -0.8530   25.7800  -24.0790 N   0  0  0  0  0  0  0  0  0  0  0  0
    0.0760   26.6630  -23.3510 C   0  0  0  0  0  0  0  0  0  0  0  0
    0.8200   27.6380  -24.2940 C   0  0  0  0  0  0  0  0  0  0  0  0
    0.1950   27.7930  -25.5570 O   0  0  0  0  0  0  0  0  0  0  0  0
   -1.2030   27.8910  -25.4020 C   0  0  0  0  0  0  0  0  0  0  0  0
   -1.7850   26.5420  -24.9380 C   0  0  0  0  0  0  0  0  0  0  0  0
   -1.7720   23.3420  -27.1570 S   0  0  0  0  0  0  0  0  0  0  0  0
   -1.3230   21.8020  -30.4340 H   0  0  0  0  0  0  0  0  0  0  0  0
   -4.9980   21.8480  -30.0566 H   0  0  0  0  0  0  0  0  0  0  0  0
   -6.5569   20.4589  -31.4195 H   0  0  0  0  0  0  0  0  0  0  0  0
   -7.6644   16.5543  -33.9994 H   0  0  0  0  0  0  0  0  0  0  0  0
   -6.6234   16.4741  -35.4882 H   0  0  0  0  0  0  0  0  0  0  0  0
   -7.1940   14.3980  -33.4516 H   0  0  0  0  0  0  0  0  0  0  0  0
   -6.6118   14.2545  -35.1630 H   0  0  0  0  0  0  0  0  0  0  0  0
   -4.9691   13.3693  -33.5087 H   0  0  0  0  0  0  0  0  0  0  0  0
   -4.3369   14.7614  -34.4744 H   0  0  0  0  0  0  0  0  0  0  0  0
   -5.1116   14.6331  -31.5491 H   0  0  0  0  0  0  0  0  0  0  0  0
   -3.6502   15.3576  -32.3532 H   0  0  0  0  0  0  0  0  0  0  0  0
   -6.3502   16.5514  -31.8308 H   0  0  0  0  0  0  0  0  0  0  0  0
   -4.7178   17.3140  -31.8659 H   0  0  0  0  0  0  0  0  0  0  0  0
   -3.2528   19.1912  -33.9101 H   0  0  0  0  0  0  0  0  0  0  0  0
   -1.6909   20.5704  -32.5434 H   0  0  0  0  0  0  0  0  0  0  0  0
   -0.7502   25.5098  -29.8078 H   0  0  0  0  0  0  0  0  0  0  0  0
    0.4934   26.0702  -27.5814 H   0  0  0  0  0  0  0  0  0  0  0  0
   -0.4955   27.2488  -22.6160 H   0  0  0  0  0  0  0  0  0  0  0  0
    0.8291   26.0284  -22.8610 H   0  0  0  0  0  0  0  0  0  0  0  0
    0.8695   28.6231  -23.8071 H   0  0  0  0  0  0  0  0  0  0  0  0
    1.8173   27.2118  -24.4775 H   0  0  0  0  0  0  0  0  0  0  0  0
   -1.4318   28.6623  -24.6518 H   0  0  0  0  0  0  0  0  0  0  0  0
   -1.6523   28.1611  -26.3690 H   0  0  0  0  0  0  0  0  0  0  0  0
   -2.7080   26.7339  -24.3712 H   0  0  0  0  0  0  0  0  0  0  0  0
   -1.9759   25.9373  -25.8368 H   0  0  0  0  0  0  0  0  0  0  0  0
  1  2  2  0
  2  3  1  0
  3  4  1  0
  4  5  2  0
  5  6  1  0
  6  7  2  0
  7  8  1  0
  8  9  2  0
  8 10  2  0
  8 11  1  0
 11 12  1  0
 12 13  1  0
 13 14  1  0
 14 15  1  0
 15 16  1  0
  7 17  1  0
 17 18  2  0
  2 19  1  0
 19 20  2  0
 20 21  1  0
 21 22  2  0
 22 23  1  0
 23 24  2  0
 23 25  2  0
 23 26  1  0
 26 27  1  0
 27 28  1  0
 28 29  1  0
 29 30  1  0
 30 31  1  0
 22 32  1  0
 18  4  1  0
 32 19  1  0
 16 11  1  0
 31 26  1  0
  3 33  1  0
  5 34  1  0
  6 35  1  0
 12 36  1  0
 12 37  1  0
 13 38  1  0
 13 39  1  0
 14 40  1  0
 14 41  1  0
 15 42  1  0
 15 43  1  0
 16 44  1  0
 16 45  1  0
 17 46  1  0
 18 47  1  0
 20 48  1  0
 21 49  1  0
 27 50  1  0
 27 51  1  0
 28 52  1  0
 28 53  1  0
 30 54  1  0
 30 55  1  0
 31 56  1  0
 31 57  1  0
M  END
>  <UniqueID>  (11) 
11

>  <SMILES>  (11) 
O=C(Nc1ccc(S(=O)(=O)N2CCCCC2)cc1)c1ccc(S(=O)(=O)N2CCOCC2)s1

>  <Energy>  (11) 
101.6118276162577

>  <Genealogy>  (11) 
O=C(Nc1ccc(S(=O)(=O)N2CCCCC2)cc1)c1ccc(S(=O)(=O)N2CCOCC2)s1 (3D coordinates assigned)
O=C(Nc1ccc(S(=O)(=O)N2CCCCC2)cc1)c1ccc(S(=O)(=O)N2CCOCC2)s1 (nonaromatic ring conformer: 101.6118276162577 kcal/mol)

>  <smiles>  (11) 
O=C(Nc1ccc(S(=O)(=O)N2CCCCC2)cc1)c1ccc(S(=O)(=O)N2CCOCC2)s1

>  <score_type>  (11) 
oracle

>  <origin>  (11) 
adgpu

>  <m_score__min__energy>  (11) 
-10.18

>  <m_primary>  (11) 
energy

$$$$
11:0
     RDKit          3D

 78 82  0  0  0  0  0  0  0  0999 V2000
    0.9140   16.6650  -27.2730 C   0  0  0  0  0  0  0  0  0  0  0  0
    1.2680   16.5890  -28.7620 C   0  0  1  0  0  0  0  0  0  0  0  0
    0.3110   17.4490  -29.5960 C   0  0  0  0  0  0  0  0  0  0  0  0
    0.6170   17.3430  -31.1080 C   0  0  0  0  0  0  0  0  0  0  0  0
    2.0540   17.0920  -31.4380 N   0  0  2  0  0  0  0  0  0  0  0  0
    2.3320   15.6610  -31.7490 C   0  0  0  0  0  0  0  0  0  0  0  0
    2.2210   15.3610  -33.2560 C   0  0  0  0  0  0  0  0  0  0  0  0
    0.9800   16.0000  -33.8270 C   0  0  0  0  0  0  0  0  0  0  0  0
   -0.2200   15.2690  -33.8350 C   0  0  0  0  0  0  0  0  0  0  0  0
   -1.3740   15.8060  -34.4060 C   0  0  0  0  0  0  0  0  0  0  0  0
   -1.3460   17.0800  -34.9740 C   0  0  0  0  0  0  0  0  0  0  0  0
   -0.1590   17.8180  -34.9790 C   0  0  0  0  0  0  0  0  0  0  0  0
    1.0200   17.2790  -34.4280 C   0  0  0  0  0  0  0  0  0  0  0  0
    2.2630   18.0040  -34.4600 N   0  0  0  0  0  0  0  0  0  0  0  0
    2.5390   19.5720  -33.7800 S   0  0  0  0  0  0  0  0  0  0  0  0
    3.4740   19.4390  -32.6120 O   0  0  0  0  0  0  0  0  0  0  0  0
    3.1700   20.4550  -34.8210 O   0  0  0  0  0  0  0  0  0  0  0  0
    1.0110   20.2890  -33.2760 C   0  0  0  0  0  0  0  0  0  0  0  0
    0.6390   20.2740  -31.9280 C   0  0  0  0  0  0  0  0  0  0  0  0
   -0.6130   20.7530  -31.5360 C   0  0  0  0  0  0  0  0  0  0  0  0
   -1.5170   21.2510  -32.4920 C   0  0  0  0  0  0  0  0  0  0  0  0
   -2.8790   21.6890  -32.0900 C   0  0  0  0  0  0  0  0  0  0  0  0
   -3.1830   21.9140  -30.7350 C   0  0  0  0  0  0  0  0  0  0  0  0
   -4.4670   22.3100  -30.3500 C   0  0  0  0  0  0  0  0  0  0  0  0
   -5.4810   22.4710  -31.3080 C   0  0  0  0  0  0  0  0  0  0  0  0
   -6.8710   22.9050  -30.8910 C   0  0  0  0  0  0  0  0  0  0  0  0
   -7.9020   21.8550  -31.0430 N   0  0  0  0  0  0  0  0  0  0  0  0
   -7.3710   20.4840  -31.2360 C   0  0  0  0  0  0  0  0  0  0  0  0
   -7.6440   19.9590  -32.6540 C   0  0  0  0  0  0  0  0  0  0  0  0
   -9.0890   19.9310  -32.9550 N   0  0  0  0  0  0  0  0  0  0  0  0
   -9.8630   21.0010  -32.2920 C   0  0  0  0  0  0  0  0  0  0  0  0
   -8.9970   22.2260  -31.9660 C   0  0  0  0  0  0  0  0  0  0  0  0
   -5.1720   22.2740  -32.6640 C   0  0  0  0  0  0  0  0  0  0  0  0
   -3.8870   21.8840  -33.0510 C   0  0  0  0  0  0  0  0  0  0  0  0
   -1.1220   21.2950  -33.8420 C   0  0  0  0  0  0  0  0  0  0  0  0
    0.1340   20.8200  -34.2280 C   0  0  0  0  0  0  0  0  0  0  0  0
    2.9630   17.6340  -30.3990 C   0  0  0  0  0  0  0  0  0  0  0  0
    2.7350   17.0130  -29.0020 C   0  0  0  0  0  0  0  0  0  0  0  0
    1.8146   16.4717  -26.6717 H   0  0  0  0  0  0  0  0  0  0  0  0
    0.5252   17.6671  -27.0392 H   0  0  0  0  0  0  0  0  0  0  0  0
    0.1481   15.9108  -27.0392 H   0  0  0  0  0  0  0  0  0  0  0  0
    1.1570   15.5431  -29.0841 H   0  0  0  0  0  0  0  0  0  0  0  0
    0.4122   18.4991  -29.2846 H   0  0  0  0  0  0  0  0  0  0  0  0
   -0.7130   17.0846  -29.4270 H   0  0  0  0  0  0  0  0  0  0  0  0
    0.3154   18.2868  -31.5858 H   0  0  0  0  0  0  0  0  0  0  0  0
    0.0561   16.4723  -31.4785 H   0  0  0  0  0  0  0  0  0  0  0  0
    2.2460   17.6410  -32.3120 H   0  0  0  0  0  0  0  0  0  0  0  0
    3.3507   15.4169  -31.4133 H   0  0  0  0  0  0  0  0  0  0  0  0
    1.5812   15.0498  -31.2267 H   0  0  0  0  0  0  0  0  0  0  0  0
    3.1058   15.7620  -33.7719 H   0  0  0  0  0  0  0  0  0  0  0  0
    2.1616   14.2722  -33.4006 H   0  0  0  0  0  0  0  0  0  0  0  0
   -0.2497   14.2647  -33.3872 H   0  0  0  0  0  0  0  0  0  0  0  0
   -2.3075   15.2241  -34.4084 H   0  0  0  0  0  0  0  0  0  0  0  0
   -2.2587   17.5039  -35.4182 H   0  0  0  0  0  0  0  0  0  0  0  0
   -0.1454   18.8272  -35.4165 H   0  0  0  0  0  0  0  0  0  0  0  0
    1.3362   19.8829  -31.1724 H   0  0  0  0  0  0  0  0  0  0  0  0
   -0.8941   20.7408  -30.4726 H   0  0  0  0  0  0  0  0  0  0  0  0
   -2.4031   21.7770  -29.9715 H   0  0  0  0  0  0  0  0  0  0  0  0
   -4.6849   22.4970  -29.2881 H   0  0  0  0  0  0  0  0  0  0  0  0
   -6.8366   23.2050  -29.8332 H   0  0  0  0  0  0  0  0  0  0  0  0
   -7.1589   23.7314  -31.5575 H   0  0  0  0  0  0  0  0  0  0  0  0
   -6.2846   20.4958  -31.0640 H   0  0  0  0  0  0  0  0  0  0  0  0
   -7.8779   19.8181  -30.5221 H   0  0  0  0  0  0  0  0  0  0  0  0
   -7.1409   20.6144  -33.3802 H   0  0  0  0  0  0  0  0  0  0  0  0
   -7.2592   18.9306  -32.7198 H   0  0  0  0  0  0  0  0  0  0  0  0
   -9.2050   20.0230  -33.9930 H   0  0  0  0  0  0  0  0  0  0  0  0
  -10.6804   21.3123  -32.9591 H   0  0  0  0  0  0  0  0  0  0  0  0
  -10.2508   20.5996  -31.3441 H   0  0  0  0  0  0  0  0  0  0  0  0
   -8.5667   22.6234  -32.8971 H   0  0  0  0  0  0  0  0  0  0  0  0
   -9.6262   22.9885  -31.4836 H   0  0  0  0  0  0  0  0  0  0  0  0
   -5.9483   22.4280  -33.4280 H   0  0  0  0  0  0  0  0  0  0  0  0
   -3.6621   21.7282  -34.1164 H   0  0  0  0  0  0  0  0  0  0  0  0
   -1.8067   21.7061  -34.5984 H   0  0  0  0  0  0  0  0  0  0  0  0
    0.4347   20.8637  -35.2852 H   0  0  0  0  0  0  0  0  0  0  0  0
    2.8040   18.7202  -30.3283 H   0  0  0  0  0  0  0  0  0  0  0  0
    3.9903   17.3840  -30.7027 H   0  0  0  0  0  0  0  0  0  0  0  0
    3.0151   17.7541  -28.2389 H   0  0  0  0  0  0  0  0  0  0  0  0
    3.3542   16.1059  -28.9399 H   0  0  0  0  0  0  0  0  0  0  0  0
  1  2  1  0
  2  3  1  0
  3  4  1  0
  4  5  1  0
  5  6  1  0
  6  7  1  0
  7  8  1  0
  8  9  2  0
  9 10  1  0
 10 11  2  0
 11 12  1  0
 12 13  2  0
 13 14  1  0
 14 15  1  0
 15 16  2  0
 15 17  2  0
 15 18  1  0
 18 19  2  0
 19 20  1  0
 20 21  2  0
 21 22  1  0
 22 23  2  0
 23 24  1  0
 24 25  2  0
 25 26  1  0
 26 27  1  0
 27 28  1  0
 28 29  1  0
 29 30  1  0
 30 31  1  0
 31 32  1  0
 25 33  1  0
 33 34  2  0
 21 35  1  0
 35 36  2  0
  5 37  1  0
 37 38  1  0
 38  2  1  0
 13  8  1  0
 36 18  1  0
 34 22  1  0
 32 27  1  0
  1 39  1  0
  1 40  1  0
  1 41  1  0
  2 42  1  6
  3 43  1  0
  3 44  1  0
  4 45  1  0
  4 46  1  0
  5 47  1  6
  6 48  1  0
  6 49  1  0
  7 50  1  0
  7 51  1  0
  9 52  1  0
 10 53  1  0
 11 54  1  0
 12 55  1  0
 19 56  1  0
 20 57  1  0
 23 58  1  0
 24 59  1  0
 26 60  1  0
 26 61  1  0
 28 62  1  0
 28 63  1  0
 29 64  1  0
 29 65  1  0
 30 66  1  0
 31 67  1  0
 31 68  1  0
 32 69  1  0
 32 70  1  0
 33 71  1  0
 34 72  1  0
 35 73  1  0
 36 74  1  0
 37 75  1  0
 37 76  1  0
 38 77  1  0
 38 78  1  0
M  CHG  2   5   1  14  -1
M  END
>  <UniqueID>  (12) 
12

>  <SMILES>  (12) 
CC1CC[NH+](CCc2ccccc2[N-]S(=O)(=O)c2ccc(-c3ccc(CN4CCNCC4)cc3)cc2)CC1

>  <Energy>  (12) 
110.46779906568241

>  <Genealogy>  (12) 
CC1CC[NH+](CCc2ccccc2[N-]S(=O)(=O)c2ccc(-c3ccc(CN4CCNCC4)cc3)cc2)CC1 (protonated)
CC1CC[NH+](CCc2ccccc2[N-]S(=O)(=O)c2ccc(-c3ccc(CN4CCNCC4)cc3)cc2)CC1 (3D coordinates assigned)
CC1CC[NH+](CCc2ccccc2[N-]S(=O)(=O)c2ccc(-c3ccc(CN4CCNCC4)cc3)cc2)CC1 (nonaromatic ring conformer: 110.46779906568241 kcal/mol)

>  <smiles>  (12) 
CC1CCN(CCc2ccccc2NS(=O)(=O)c2ccc(-c3ccc(CN4CCNCC4)cc3)cc2)CC1

>  <score_type>  (12) 
oracle

>  <origin>  (12) 
adgpu

>  <m_score__min__energy>  (12) 
-12.199999999999999

>  <m_primary>  (12) 
energy

$$$$
12:0
     RDKit          3D

 37 39  0  0  0  0  0  0  0  0999 V2000
   -1.2220   26.4280  -28.9590 O   0  0  0  0  0  0  0  0  0  0  0  0
   -1.2420   25.3570  -28.2960 C   0  0  0  0  0  0  0  0  0  0  0  0
   -0.4880   25.2480  -27.1660 N   0  0  0  0  0  0  0  0  0  0  0  0
   -0.4790   24.1080  -26.4220 C   0  0  0  0  0  0  0  0  0  0  0  0
   -1.2550   23.0150  -26.8080 C   0  0  0  0  0  0  0  0  0  0  0  0
   -2.0370   23.1000  -27.9600 C   0  0  0  0  0  0  0  0  0  0  0  0
   -2.0380   24.2800  -28.7220 C   0  0  0  0  0  0  0  0  0  0  0  0
   -2.8250   24.4180  -29.9140 N   0  0  0  0  0  0  0  0  0  0  0  0
   -4.5350   24.7060  -29.9570 S   0  0  0  0  0  0  0  0  0  0  0  0
   -4.7940   26.0510  -30.5740 O   0  0  0  0  0  0  0  0  0  0  0  0
   -5.0860   24.6620  -28.5580 O   0  0  0  0  0  0  0  0  0  0  0  0
   -5.3330   23.4650  -30.9230 C   0  0  0  0  0  0  0  0  0  0  0  0
   -6.7290   23.3330  -30.8980 C   0  0  0  0  0  0  0  0  0  0  0  0
   -7.3570   22.3520  -31.6700 C   0  0  0  0  0  0  0  0  0  0  0  0
   -6.6020   21.4850  -32.4660 C   0  0  0  0  0  0  0  0  0  0  0  0
   -7.2710   20.5230  -33.2380 O   0  0  0  0  0  0  0  0  0  0  0  0
   -6.8330   19.2080  -33.4570 C   0  0  0  0  0  0  0  0  0  0  0  0
   -7.2920   18.1300  -32.6770 C   0  0  0  0  0  0  0  0  0  0  0  0
   -6.8440   16.8300  -32.9380 C   0  0  0  0  0  0  0  0  0  0  0  0
   -5.9470   16.5960  -33.9840 C   0  0  0  0  0  0  0  0  0  0  0  0
   -5.5140   15.3370  -34.2380 F   0  0  0  0  0  0  0  0  0  0  0  0
   -5.5030   17.6600  -34.7750 C   0  0  0  0  0  0  0  0  0  0  0  0
   -5.9500   18.9600  -34.5160 C   0  0  0  0  0  0  0  0  0  0  0  0
   -5.2040   21.6320  -32.5100 C   0  0  0  0  0  0  0  0  0  0  0  0
   -4.5730   22.6130  -31.7390 C   0  0  0  0  0  0  0  0  0  0  0  0
   -3.2230   22.7390  -31.7990 F   0  0  0  0  0  0  0  0  0  0  0  0
    0.1010   26.0550  -26.8580 H   0  0  0  0  0  0  0  0  0  0  0  0
    0.1410   24.0487  -25.5153 H   0  0  0  0  0  0  0  0  0  0  0  0
   -1.2503   22.0928  -26.2084 H   0  0  0  0  0  0  0  0  0  0  0  0
   -2.6526   22.2433  -28.2716 H   0  0  0  0  0  0  0  0  0  0  0  0
   -7.3317   24.0041  -30.2684 H   0  0  0  0  0  0  0  0  0  0  0  0
   -8.4531   22.2612  -31.6514 H   0  0  0  0  0  0  0  0  0  0  0  0
   -8.0054   18.3099  -31.8593 H   0  0  0  0  0  0  0  0  0  0  0  0
   -7.1980   15.9920  -32.3196 H   0  0  0  0  0  0  0  0  0  0  0  0
   -4.8015   17.4747  -35.6018 H   0  0  0  0  0  0  0  0  0  0  0  0
   -5.6062   19.7924  -35.1476 H   0  0  0  0  0  0  0  0  0  0  0  0
   -4.6042   20.9721  -33.1540 H   0  0  0  0  0  0  0  0  0  0  0  0
  1  2  2  0
  2  3  1  0
  3  4  1  0
  4  5  2  0
  5  6  1  0
  6  7  2  0
  7  8  1  0
  8  9  1  0
  9 10  2  0
  9 11  2  0
  9 12  1  0
 12 13  2  0
 13 14  1  0
 14 15  2  0
 15 16  1  0
 16 17  1  0
 17 18  2  0
 18 19  1  0
 19 20  2  0
 20 21  1  0
 20 22  1  0
 22 23  2  0
 15 24  1  0
 24 25  2  0
 25 26  1  0
  7  2  1  0
 25 12  1  0
 23 17  1  0
  3 27  1  0
  4 28  1  0
  5 29  1  0
  6 30  1  0
 13 31  1  0
 14 32  1  0
 18 33  1  0
 19 34  1  0
 22 35  1  0
 23 36  1  0
 24 37  1  0
M  CHG  1   8  -1
M  END
>  <UniqueID>  (13) 
13

>  <SMILES>  (13) 
O=c1[nH]cccc1[N-]S(=O)(=O)c1ccc(Oc2ccc(F)cc2)cc1F

>  <Energy>  (13) 
51.99898999919304

>  <Genealogy>  (13) 
O=c1[nH]cccc1[N-]S(=O)(=O)c1ccc(Oc2ccc(F)cc2)cc1F (protonated)
O=c1[nH]cccc1[N-]S(=O)(=O)c1ccc(Oc2ccc(F)cc2)cc1F (3D coordinates assigned)
O=c1[nH]cccc1[N-]S(=O)(=O)c1ccc(Oc2ccc(F)cc2)cc1F (optimized conformer: 51.99898999919304 kcal/mol)

>  <smiles>  (13) 
O=c1[nH]cccc1NS(=O)(=O)c1ccc(Oc2ccc(F)cc2)cc1F

>  <score_type>  (13) 
oracle

>  <origin>  (13) 
adgpu

>  <m_score__min__energy>  (13) 
-10.050000000000001

>  <m_primary>  (13) 
energy

$$$$
13:0
     RDKit          3D

 50 53  0  0  0  0  0  0  0  0999 V2000
   -4.7600   15.3420  -32.5100 C   0  0  0  0  0  0  0  0  0  0  0  0
   -4.6350   16.5540  -33.4240 C   0  0  0  0  0  0  0  0  0  0  0  0
   -5.7290   17.5440  -33.1440 C   0  0  0  0  0  0  0  0  0  0  0  0
   -6.9290   17.1620  -32.6320 N   0  0  0  0  0  0  0  0  0  0  0  0
   -7.5810   18.3280  -32.4820 C   0  0  0  0  0  0  0  0  0  0  0  0
   -8.8720   18.5180  -31.9940 C   0  0  0  0  0  0  0  0  0  0  0  0
   -9.3580   19.8370  -31.9220 C   0  0  0  0  0  0  0  0  0  0  0  0
   -8.5500   20.9200  -32.3340 C   0  0  0  0  0  0  0  0  0  0  0  0
   -7.2490   20.6940  -32.8210 C   0  0  0  0  0  0  0  0  0  0  0  0
   -6.7980   19.3730  -32.8810 C   0  0  0  0  0  0  0  0  0  0  0  0
   -5.6110   18.8930  -33.2980 N   0  0  0  0  0  0  0  0  0  0  0  0
   -4.4740   19.6460  -33.8430 C   0  0  0  0  0  0  0  0  0  0  0  0
   -3.7850   20.4310  -32.7560 C   0  0  0  0  0  0  0  0  0  0  0  0
   -2.5530   19.9970  -32.2400 C   0  0  0  0  0  0  0  0  0  0  0  0
   -1.9120   20.7230  -31.2340 C   0  0  0  0  0  0  0  0  0  0  0  0
   -2.4830   21.9080  -30.7380 C   0  0  0  0  0  0  0  0  0  0  0  0
   -1.8580   22.6610  -29.6840 N   0  0  0  0  0  0  0  0  0  0  0  0
   -1.9090   22.2910  -28.2950 C   0  0  0  0  0  0  0  0  0  0  0  0
   -2.3440   21.1590  -27.9520 O   0  0  0  0  0  0  0  0  0  0  0  0
   -1.3900   23.2110  -27.2590 C   0  0  0  0  0  0  0  0  0  0  0  0
   -0.8690   22.6570  -26.0750 C   0  0  0  0  0  0  0  0  0  0  0  0
   -0.4500   23.4780  -25.0280 C   0  0  0  0  0  0  0  0  0  0  0  0
   -0.5510   24.8620  -25.1440 C   0  0  0  0  0  0  0  0  0  0  0  0
   -1.0590   25.4330  -26.3110 C   0  0  0  0  0  0  0  0  0  0  0  0
   -1.4710   24.6260  -27.3880 C   0  0  0  0  0  0  0  0  0  0  0  0
   -1.9260   25.2950  -28.6320 C   0  0  0  0  0  0  0  0  0  0  0  0
   -2.9050   24.8520  -29.2880 O   0  0  0  0  0  0  0  0  0  0  0  0
   -1.2370   26.4000  -29.1200 O   0  0  0  0  0  0  0  0  0  0  0  0
   -3.7210   22.3330  -31.2440 C   0  0  0  0  0  0  0  0  0  0  0  0
   -4.3610   21.6070  -32.2510 C   0  0  0  0  0  0  0  0  0  0  0  0
   -4.7262   15.6693  -31.4604 H   0  0  0  0  0  0  0  0  0  0  0  0
   -5.7154   14.8329  -32.7048 H   0  0  0  0  0  0  0  0  0  0  0  0
   -3.9286   14.6486  -32.7048 H   0  0  0  0  0  0  0  0  0  0  0  0
   -3.6604   17.0351  -33.2547 H   0  0  0  0  0  0  0  0  0  0  0  0
   -4.7188   16.2198  -34.4686 H   0  0  0  0  0  0  0  0  0  0  0  0
   -9.4906   17.6660  -31.6757 H   0  0  0  0  0  0  0  0  0  0  0  0
  -10.3731   20.0256  -31.5426 H   0  0  0  0  0  0  0  0  0  0  0  0
   -8.9402   21.9467  -32.2738 H   0  0  0  0  0  0  0  0  0  0  0  0
   -6.6092   21.5287  -33.1433 H   0  0  0  0  0  0  0  0  0  0  0  0
   -3.7564   18.9427  -34.2908 H   0  0  0  0  0  0  0  0  0  0  0  0
   -4.8464   20.3474  -34.6041 H   0  0  0  0  0  0  0  0  0  0  0  0
   -2.0899   19.0790  -32.6309 H   0  0  0  0  0  0  0  0  0  0  0  0
   -0.9545   20.3655  -30.8272 H   0  0  0  0  0  0  0  0  0  0  0  0
   -1.2920   23.4950  -29.9550 H   0  0  0  0  0  0  0  0  0  0  0  0
   -0.7913   21.5644  -25.9740 H   0  0  0  0  0  0  0  0  0  0  0  0
   -0.0395   23.0319  -24.1101 H   0  0  0  0  0  0  0  0  0  0  0  0
   -0.2293   25.5069  -24.3130 H   0  0  0  0  0  0  0  0  0  0  0  0
   -1.1385   26.5272  -26.3905 H   0  0  0  0  0  0  0  0  0  0  0  0
   -4.1906   23.2441  -30.8448 H   0  0  0  0  0  0  0  0  0  0  0  0
   -5.3232   21.9594  -32.6511 H   0  0  0  0  0  0  0  0  0  0  0  0
  1  2  1  0
  2  3  1  0
  3  4  2  0
  4  5  1  0
  5  6  2  0
  6  7  1  0
  7  8  2  0
  8  9  1  0
  9 10  2  0
 10 11  1  0
 11 12  1  0
 12 13  1  0
 13 14  2  0
 14 15  1  0
 15 16  2  0
 16 17  1  0
 17 18  1  0
 18 19  2  0
 18 20  1  0
 20 21  2  0
 21 22  1  0
 22 23  2  0
 23 24  1  0
 24 25  2  0
 25 26  1  0
 26 27  2  0
 26 28  1  0
 16 29  1  0
 29 30  2  0
 11  3  1  0
 30 13  1  0
 10  5  1  0
 25 20  1  0
  1 31  1  0
  1 32  1  0
  1 33  1  0
  2 34  1  0
  2 35  1  0
  6 36  1  0
  7 37  1  0
  8 38  1  0
  9 39  1  0
 12 40  1  0
 12 41  1  0
 14 42  1  0
 15 43  1  0
 17 44  1  0
 21 45  1  0
 22 46  1  0
 23 47  1  0
 24 48  1  0
 29 49  1  0
 30 50  1  0
M  CHG  1  28  -1
M  END
>  <UniqueID>  (14) 
14

>  <SMILES>  (14) 
CCc1nc2ccccc2n1Cc1ccc(NC(=O)c2ccccc2C(=O)[O-])cc1

>  <Energy>  (14) 
100.14900104211452

>  <Genealogy>  (14) 
CCc1nc2ccccc2n1Cc1ccc(NC(=O)c2ccccc2C(=O)[O-])cc1 (protonated)
CCc1nc2ccccc2n1Cc1ccc(NC(=O)c2ccccc2C(=O)[O-])cc1 (3D coordinates assigned)
CCc1nc2ccccc2n1Cc1ccc(NC(=O)c2ccccc2C(=O)[O-])cc1 (optimized conformer: 100.14900104211452 kcal/mol)

>  <smiles>  (14) 
CCc1nc2ccccc2n1Cc1ccc(NC(=O)c2ccccc2C(=O)O)cc1

>  <score_type>  (14) 
oracle

>  <origin>  (14) 
adgpu

>  <m_score__min__energy>  (14) 
-11.27

>  <m_primary>  (14) 
energy

$$$$
14:0
     RDKit          3D

 47 50  0  0  0  0  0  0  0  0999 V2000
   -4.1220   23.3740  -31.2020 O   0  0  0  0  0  0  0  0  0  0  0  0
   -4.5060   23.4780  -30.0050 C   0  0  0  0  0  0  0  0  0  0  0  0
   -5.8120   23.0100  -29.6260 N   0  0  0  0  0  0  0  0  0  0  0  0
   -6.8630   22.7170  -30.5630 C   0  0  0  0  0  0  0  0  0  0  0  0
   -7.6300   23.7410  -31.1480 C   0  0  0  0  0  0  0  0  0  0  0  0
   -8.6600   23.4280  -32.0380 C   0  0  0  0  0  0  0  0  0  0  0  0
   -8.9450   22.0960  -32.3430 C   0  0  0  0  0  0  0  0  0  0  0  0
   -8.2100   21.0630  -31.7430 C   0  0  0  0  0  0  0  0  0  0  0  0
   -8.5750   19.3740  -32.1210 S   0  0  0  0  0  0  0  0  0  0  0  0
   -9.8340   19.3180  -32.9390 O   0  0  0  0  0  0  0  0  0  0  0  0
   -8.8200   18.6290  -30.8390 O   0  0  0  0  0  0  0  0  0  0  0  0
   -7.2890   18.5830  -33.0000 N   0  0  0  0  0  0  0  0  0  0  0  0
   -6.3880   17.8480  -32.1140 C   0  0  0  0  0  0  0  0  0  0  0  0
   -5.0520   17.7630  -32.8380 C   0  0  0  0  0  0  0  0  0  0  0  0
   -5.0900   18.8650  -33.8870 C   0  0  0  0  0  0  0  0  0  0  0  0
   -6.4440   19.5370  -33.7150 C   0  0  0  0  0  0  0  0  0  0  0  0
   -7.1700   21.3800  -30.8570 C   0  0  0  0  0  0  0  0  0  0  0  0
   -3.6150   24.0310  -29.0240 N   0  0  0  0  0  0  0  0  0  0  0  0
   -2.2720   24.5200  -29.3430 C   0  0  0  0  0  0  0  0  0  0  0  0
   -1.7900   25.0440  -28.0430 C   0  0  0  0  0  0  0  0  0  0  0  0
   -0.5570   25.6370  -27.7610 C   0  0  0  0  0  0  0  0  0  0  0  0
   -0.3060   26.0690  -26.4500 C   0  0  0  0  0  0  0  0  0  0  0  0
   -1.2830   25.9040  -25.4480 C   0  0  0  0  0  0  0  0  0  0  0  0
   -2.5160   25.3060  -25.7550 C   0  0  0  0  0  0  0  0  0  0  0  0
   -2.7450   24.8840  -27.0650 C   0  0  0  0  0  0  0  0  0  0  0  0
   -3.9580   24.2320  -27.6140 C   0  0  0  0  0  0  0  0  0  0  0  0
   -5.9840   22.7850  -28.6210 H   0  0  0  0  0  0  0  0  0  0  0  0
   -7.4177   24.7923  -30.9036 H   0  0  0  0  0  0  0  0  0  0  0  0
   -9.2487   24.2341  -32.5002 H   0  0  0  0  0  0  0  0  0  0  0  0
   -9.7479   21.8559  -33.0556 H   0  0  0  0  0  0  0  0  0  0  0  0
   -6.2710   18.3836  -31.1603 H   0  0  0  0  0  0  0  0  0  0  0  0
   -6.7823   16.8472  -31.8838 H   0  0  0  0  0  0  0  0  0  0  0  0
   -4.2222   17.9290  -32.1353 H   0  0  0  0  0  0  0  0  0  0  0  0
   -4.8941   16.7728  -33.2904 H   0  0  0  0  0  0  0  0  0  0  0  0
   -4.2774   19.5867  -33.7172 H   0  0  0  0  0  0  0  0  0  0  0  0
   -4.9557   18.4677  -34.9039 H   0  0  0  0  0  0  0  0  0  0  0  0
   -6.3378   20.4633  -33.1314 H   0  0  0  0  0  0  0  0  0  0  0  0
   -6.8818   19.8076  -34.6872 H   0  0  0  0  0  0  0  0  0  0  0  0
   -6.5892   20.5722  -30.3879 H   0  0  0  0  0  0  0  0  0  0  0  0
   -1.6291   23.7032  -29.7028 H   0  0  0  0  0  0  0  0  0  0  0  0
   -2.2643   25.2740  -30.1438 H   0  0  0  0  0  0  0  0  0  0  0  0
    0.2001   25.7624  -28.5491 H   0  0  0  0  0  0  0  0  0  0  0  0
    0.6576   26.5386  -26.2032 H   0  0  0  0  0  0  0  0  0  0  0  0
   -1.0792   26.2447  -24.4221 H   0  0  0  0  0  0  0  0  0  0  0  0
   -3.2846   25.1732  -24.9794 H   0  0  0  0  0  0  0  0  0  0  0  0
   -4.1515   23.2718  -27.1135 H   0  0  0  0  0  0  0  0  0  0  0  0
   -4.8721   24.8269  -27.4709 H   0  0  0  0  0  0  0  0  0  0  0  0
  1  2  2  0
  2  3  1  0
  3  4  1  0
  4  5  2  0
  5  6  1  0
  6  7  2  0
  7  8  1  0
  8  9  1  0
  9 10  2  0
  9 11  2  0
  9 12  1  0
 12 13  1  0
 13 14  1  0
 14 15  1  0
 15 16  1  0
  8 17  2  0
  2 18  1  0
 18 19  1  0
 19 20  1  0
 20 21  2  0
 21 22  1  0
 22 23  2  0
 23 24  1  0
 24 25  2  0
 25 26  1  0
 17  4  1  0
 26 18  1  0
 16 12  1  0
 25 20  1  0
  3 27  1  0
  5 28  1  0
  6 29  1  0
  7 30  1  0
 13 31  1  0
 13 32  1  0
 14 33  1  0
 14 34  1  0
 15 35  1  0
 15 36  1  0
 16 37  1  0
 16 38  1  0
 17 39  1  0
 19 40  1  0
 19 41  1  0
 21 42  1  0
 22 43  1  0
 23 44  1  0
 24 45  1  0
 26 46  1  0
 26 47  1  0
M  END
>  <UniqueID>  (15) 
15

>  <SMILES>  (15) 
O=C(Nc1cccc(S(=O)(=O)N2CCCC2)c1)N1Cc2ccccc2C1

>  <Energy>  (15) 
63.53608210446811

>  <Genealogy>  (15) 
O=C(Nc1cccc(S(=O)(=O)N2CCCC2)c1)N1Cc2ccccc2C1 (3D coordinates assigned)
O=C(Nc1cccc(S(=O)(=O)N2CCCC2)c1)N1Cc2ccccc2C1 (nonaromatic ring conformer: 63.53608210446811 kcal/mol)

>  <smiles>  (15) 
O=C(Nc1cccc(S(=O)(=O)N2CCCC2)c1)N1Cc2ccccc2C1

>  <score_type>  (15) 
oracle

>  <origin>  (15) 
adgpu

>  <m_score__min__energy>  (15) 
-9.3900000000000006

>  <m_primary>  (15) 
energy

$$$$
15:0
     RDKit          3D

 35 37  0  0  0  0  0  0  0  0999 V2000
   -3.4120   12.6030  -32.6440 H   0  0  0  0  0  0  0  0  0  0  0  0
   -3.9020   13.2930  -32.0300 N   0  0  0  0  0  0  0  0  0  0  0  0
   -4.3720   14.4150  -32.4760 C   0  0  0  0  0  0  0  0  0  0  0  0
   -4.2370   14.7540  -33.8320 C   0  0  0  0  0  0  0  0  0  0  0  0
   -3.7300   14.0671  -34.5256 H   0  0  0  0  0  0  0  0  0  0  0  0
   -4.7490   15.9660  -34.2950 C   0  0  0  0  0  0  0  0  0  0  0  0
   -4.6497   16.2365  -35.3566 H   0  0  0  0  0  0  0  0  0  0  0  0
   -5.3890   16.8370  -33.4070 C   0  0  0  0  0  0  0  0  0  0  0  0
   -5.9120   18.0610  -33.8470 C   0  0  0  0  0  0  0  0  0  0  0  0
   -5.8309   18.3411  -34.9077 H   0  0  0  0  0  0  0  0  0  0  0  0
   -6.5400   18.9330  -32.9390 C   0  0  0  0  0  0  0  0  0  0  0  0
   -7.1010   20.1840  -33.3730 N   0  0  0  0  0  0  0  0  0  0  0  0
   -7.5960   20.2040  -34.2940 H   0  0  0  0  0  0  0  0  0  0  0  0
   -7.0300   21.4090  -32.6220 C   0  0  0  0  0  0  0  0  0  0  0  0
   -8.2110   22.1040  -32.3240 C   0  0  0  0  0  0  0  0  0  0  0  0
   -9.1771   21.7194  -32.6829 H   0  0  0  0  0  0  0  0  0  0  0  0
   -8.1680   23.2820  -31.5740 C   0  0  0  0  0  0  0  0  0  0  0  0
   -9.0980   23.8263  -31.3531 H   0  0  0  0  0  0  0  0  0  0  0  0
   -6.9460   23.7700  -31.1040 C   0  0  0  0  0  0  0  0  0  0  0  0
   -6.9154   24.6993  -30.5162 H   0  0  0  0  0  0  0  0  0  0  0  0
   -5.7600   23.0780  -31.3800 C   0  0  0  0  0  0  0  0  0  0  0  0
   -4.2200   23.6720  -30.7660 S   0  0  0  0  0  0  0  0  0  0  0  0
   -4.0540   23.2600  -29.3310 O   0  0  0  0  0  0  0  0  0  0  0  0
   -3.0900   23.0920  -31.5690 O   0  0  0  0  0  0  0  0  0  0  0  0
   -4.1800   25.3960  -30.8830 N   0  0  0  0  0  0  0  0  0  0  0  0
   -3.2250   25.6570  -31.2180 H   0  0  0  0  0  0  0  0  0  0  0  0
   -5.8060   21.8920  -32.1240 C   0  0  0  0  0  0  0  0  0  0  0  0
   -4.8784   21.3343  -32.3203 H   0  0  0  0  0  0  0  0  0  0  0  0
   -6.6760   18.5460  -31.5980 C   0  0  0  0  0  0  0  0  0  0  0  0
   -7.1948   19.2087  -30.8897 H   0  0  0  0  0  0  0  0  0  0  0  0
   -6.1590   17.3270  -31.1530 C   0  0  0  0  0  0  0  0  0  0  0  0
   -6.2613   17.0420  -30.0955 H   0  0  0  0  0  0  0  0  0  0  0  0
   -5.5100   16.4650  -32.0490 C   0  0  0  0  0  0  0  0  0  0  0  0
   -5.0010   15.2730  -31.6210 N   0  0  0  0  0  0  0  0  0  0  0  0
   -5.0930   15.0040  -30.6140 H   0  0  0  0  0  0  0  0  0  0  0  0
  1  2  1  0
  2  3  2  0
  3  4  1  0
  4  5  1  0
  4  6  2  0
  6  7  1  0
  6  8  1  0
  8  9  2  0
  9 10  1  0
  9 11  1  0
 11 12  1  0
 12 13  1  0
 12 14  1  0
 14 15  2  0
 15 16  1  0
 15 17  1  0
 17 18  1  0
 17 19  2  0
 19 20  1  0
 19 21  1  0
 21 22  1  0
 22 23  2  0
 22 24  2  0
 22 25  1  0
 25 26  1  0
 21 27  2  0
 27 28  1  0
 11 29  2  0
 29 30  1  0
 29 31  1  0
 31 32  1  0
 31 33  2  0
 33 34  1  0
 34 35  1  0
 34  3  1  0
 33  8  1  0
 27 14  1  0
M  CHG  1  25  -1
M  END
>  <UniqueID>  (16) 
16

>  <SMILES>  (16) 
[H]/N=c1\ccc2cc(Nc3cccc(S([NH-])(=O)=O)c3)ccc2[nH]1

>  <Energy>  (16) 
46.18060400174327

>  <Genealogy>  (16) 
N=c1ccc2cc(Nc3cccc(S([NH-])(=O)=O)c3)ccc2[nH]1 (protonated)
[H]/N=c1\ccc2cc(Nc3cccc(S([NH-])(=O)=O)c3)ccc2[nH]1 (cis-trans isomerization)
[H]/N=c1\ccc2cc(Nc3cccc(S([NH-])(=O)=O)c3)ccc2[nH]1 (3D coordinates assigned)
[H]/N=c1\ccc2cc(Nc3cccc(S([NH-])(=O)=O)c3)ccc2[nH]1 (optimized conformer: 46.18060400174327 kcal/mol)

>  <smiles>  (16) 
N=c1ccc2cc(Nc3cccc(S(N)(=O)=O)c3)ccc2[nH]1

>  <score_type>  (16) 
oracle

>  <origin>  (16) 
adgpu

>  <m_score__min__energy>  (16) 
-10.529999999999999

>  <m_primary>  (16) 
energy

$$$$
16:0
     RDKit          3D

 53 56  0  0  0  0  0  0  0  0999 V2000
    0.2370   19.4510  -28.9110 C   0  0  0  0  0  0  0  0  0  0  0  0
    0.3250   20.1030  -27.5930 N   0  0  0  0  0  0  0  0  0  0  0  0
   -0.8310   19.7970  -26.7270 C   0  0  0  0  0  0  0  0  0  0  0  0
   -2.1460   20.3740  -27.2740 C   0  0  0  0  0  0  0  0  0  0  0  0
   -1.9870   21.7850  -27.7780 C   0  0  0  0  0  0  0  0  0  0  0  0
   -3.1330   22.5480  -28.0420 C   0  0  0  0  0  0  0  0  0  0  0  0
   -3.0290   23.8600  -28.5420 C   0  0  0  0  0  0  0  0  0  0  0  0
   -4.1970   24.6810  -28.7490 N   0  0  0  0  0  0  0  0  0  0  0  0
   -5.2110   24.5900  -30.1540 S   0  0  0  0  0  0  0  0  0  0  0  0
   -4.9980   25.8220  -30.9890 O   0  0  0  0  0  0  0  0  0  0  0  0
   -6.6490   24.5370  -29.7230 O   0  0  0  0  0  0  0  0  0  0  0  0
   -4.8510   23.1360  -31.0860 C   0  0  0  0  0  0  0  0  0  0  0  0
   -3.6000   22.9840  -31.7010 C   0  0  0  0  0  0  0  0  0  0  0  0
   -3.3160   21.8320  -32.4370 C   0  0  0  0  0  0  0  0  0  0  0  0
   -4.2780   20.8260  -32.5660 C   0  0  0  0  0  0  0  0  0  0  0  0
   -5.5270   20.9630  -31.9470 C   0  0  0  0  0  0  0  0  0  0  0  0
   -6.5370   19.8990  -32.0930 C   0  0  0  0  0  0  0  0  0  0  0  0
   -6.0910   18.5780  -32.2620 C   0  0  0  0  0  0  0  0  0  0  0  0
   -7.0080   17.5350  -32.4000 C   0  0  0  0  0  0  0  0  0  0  0  0
   -8.3770   17.7980  -32.3630 C   0  0  0  0  0  0  0  0  0  0  0  0
   -8.8350   19.1070  -32.1890 C   0  0  0  0  0  0  0  0  0  0  0  0
   -7.9260   20.1680  -32.0480 C   0  0  0  0  0  0  0  0  0  0  0  0
   -8.5540   21.8090  -31.8370 S   0  0  0  0  0  0  0  0  0  0  0  0
   -8.4030   22.3130  -30.1890 N   0  0  0  0  0  0  0  0  0  0  0  0
  -10.0080   21.8620  -32.2160 O   0  0  0  0  0  0  0  0  0  0  0  0
   -7.7860   22.7430  -32.7260 O   0  0  0  0  0  0  0  0  0  0  0  0
   -5.8160   22.1240  -31.2120 C   0  0  0  0  0  0  0  0  0  0  0  0
   -1.7530   24.3780  -28.8310 C   0  0  0  0  0  0  0  0  0  0  0  0
   -1.6110   25.6640  -29.3380 O   0  0  0  0  0  0  0  0  0  0  0  0
   -0.6110   23.6110  -28.5910 C   0  0  0  0  0  0  0  0  0  0  0  0
   -0.7160   22.3150  -28.0670 C   0  0  0  0  0  0  0  0  0  0  0  0
    0.5420   21.5580  -27.7070 C   0  0  0  0  0  0  0  0  0  0  0  0
    0.0910   18.3691  -28.7759 H   0  0  0  0  0  0  0  0  0  0  0  0
   -0.6129   19.8686  -29.4707 H   0  0  0  0  0  0  0  0  0  0  0  0
    1.1672   19.6284  -29.4707 H   0  0  0  0  0  0  0  0  0  0  0  0
   -0.9318   18.7046  -26.6463 H   0  0  0  0  0  0  0  0  0  0  0  0
   -0.6455   20.2599  -25.7465 H   0  0  0  0  0  0  0  0  0  0  0  0
   -2.4927   19.7395  -28.1030 H   0  0  0  0  0  0  0  0  0  0  0  0
   -2.8738   20.3919  -26.4493 H   0  0  0  0  0  0  0  0  0  0  0  0
   -4.1272   22.1157  -27.8559 H   0  0  0  0  0  0  0  0  0  0  0  0
   -4.5060   25.3330  -27.9970 H   0  0  0  0  0  0  0  0  0  0  0  0
   -2.8408   23.7740  -31.6034 H   0  0  0  0  0  0  0  0  0  0  0  0
   -2.3329   21.7157  -32.9165 H   0  0  0  0  0  0  0  0  0  0  0  0
   -4.0536   19.9246  -33.1551 H   0  0  0  0  0  0  0  0  0  0  0  0
   -5.0123   18.3641  -32.2857 H   0  0  0  0  0  0  0  0  0  0  0  0
   -6.6504   16.5040  -32.5382 H   0  0  0  0  0  0  0  0  0  0  0  0
   -9.0976   16.9739  -32.4709 H   0  0  0  0  0  0  0  0  0  0  0  0
   -9.9162   19.3077  -32.1623 H   0  0  0  0  0  0  0  0  0  0  0  0
   -7.8280   23.1880  -30.1880 H   0  0  0  0  0  0  0  0  0  0  0  0
   -6.7999   22.2408  -30.7342 H   0  0  0  0  0  0  0  0  0  0  0  0
    0.3817   24.0283  -28.8155 H   0  0  0  0  0  0  0  0  0  0  0  0
    1.2963   21.7402  -28.4867 H   0  0  0  0  0  0  0  0  0  0  0  0
    0.8742   21.9199  -26.7228 H   0  0  0  0  0  0  0  0  0  0  0  0
  1  2  1  0
  2  3  1  0
  3  4  1  0
  4  5  1  0
  5  6  2  0
  6  7  1  0
  7  8  1  0
  8  9  1  0
  9 10  2  0
  9 11  2  0
  9 12  1  0
 12 13  2  0
 13 14  1  0
 14 15  2  0
 15 16  1  0
 16 17  1  0
 17 18  2  0
 18 19  1  0
 19 20  2  0
 20 21  1  0
 21 22  2  0
 22 23  1  0
 23 24  1  0
 23 25  2  0
 23 26  2  0
 16 27  2  0
  7 28  2  0
 28 29  1  0
 28 30  1  0
 30 31  2  0
 31 32  1  0
 32  2  1  0
 31  5  1  0
 27 12  1  0
 22 17  1  0
  1 33  1  0
  1 34  1  0
  1 35  1  0
  3 36  1  0
  3 37  1  0
  4 38  1  0
  4 39  1  0
  6 40  1  0
  8 41  1  0
 13 42  1  0
 14 43  1  0
 15 44  1  0
 18 45  1  0
 19 46  1  0
 20 47  1  0
 21 48  1  0
 24 49  1  0
 27 50  1  0
 30 51  1  0
 32 52  1  0
 32 53  1  0
M  CHG  2  24  -1  29  -1
M  END
>  <UniqueID>  (17) 
17

>  <SMILES>  (17) 
CN1CCc2cc(NS(=O)(=O)c3cccc(-c4ccccc4S([NH-])(=O)=O)c3)c([O-])cc2C1

>  <Energy>  (17) 
69.57660675248806

>  <Genealogy>  (17) 
CN1CCc2cc(NS(=O)(=O)c3cccc(-c4ccccc4S([NH-])(=O)=O)c3)c([O-])cc2C1 (protonated)
CN1CCc2cc(NS(=O)(=O)c3cccc(-c4ccccc4S([NH-])(=O)=O)c3)c([O-])cc2C1 (3D coordinates assigned)
CN1CCc2cc(NS(=O)(=O)c3cccc(-c4ccccc4S([NH-])(=O)=O)c3)c([O-])cc2C1 (nonaromatic ring conformer: 69.57660675248806 kcal/mol)

>  <smiles>  (17) 
CN1CCc2cc(NS(=O)(=O)c3cccc(-c4ccccc4S(N)(=O)=O)c3)c(O)cc2C1

>  <score_type>  (17) 
oracle

>  <origin>  (17) 
adgpu

>  <m_score__min__energy>  (17) 
-15.09

>  <m_primary>  (17) 
energy

$$$$
17:0
     RDKit          3D

 51 54  0  0  0  0  0  0  0  0999 V2000
   -0.9430   26.3630  -28.2050 C   0  0  0  0  0  0  0  0  0  0  0  0
   -1.9820   25.6240  -28.9170 N   0  0  0  0  0  0  0  0  0  0  0  0
   -2.4590   24.3330  -28.5300 C   0  0  0  0  0  0  0  0  0  0  0  0
   -3.2770   24.2460  -27.5760 O   0  0  0  0  0  0  0  0  0  0  0  0
   -1.9950   23.1040  -29.1970 C   0  0  0  0  0  0  0  0  0  0  0  0
   -2.6120   21.8720  -28.9360 C   0  0  0  0  0  0  0  0  0  0  0  0
   -2.1570   20.7100  -29.5640 C   0  0  0  0  0  0  0  0  0  0  0  0
   -1.0920   20.7620  -30.4710 C   0  0  0  0  0  0  0  0  0  0  0  0
   -0.6740   19.5500  -31.1130 N   0  0  0  0  0  0  0  0  0  0  0  0
   -1.3320   18.9190  -32.5860 S   0  0  0  0  0  0  0  0  0  0  0  0
   -0.8430   19.7510  -33.7400 O   0  0  0  0  0  0  0  0  0  0  0  0
   -0.8530   17.5030  -32.7760 O   0  0  0  0  0  0  0  0  0  0  0  0
   -3.0920   18.9840  -32.5430 C   0  0  0  0  0  0  0  0  0  0  0  0
   -3.7340   20.1590  -32.0930 C   0  0  0  0  0  0  0  0  0  0  0  0
   -5.1350   20.2440  -32.0830 C   0  0  0  0  0  0  0  0  0  0  0  0
   -5.8690   19.1390  -32.5270 C   0  0  0  0  0  0  0  0  0  0  0  0
   -5.2520   17.9960  -32.9560 C   0  0  0  0  0  0  0  0  0  0  0  0
   -3.8610   17.8890  -32.9800 C   0  0  0  0  0  0  0  0  0  0  0  0
   -6.2620   16.9790  -33.3680 C   0  0  0  0  0  0  0  0  0  0  0  0
   -7.6160   17.6850  -33.0990 C   0  0  0  0  0  0  0  0  0  0  0  0
   -7.2770   19.0190  -32.6050 N   0  0  0  0  0  0  0  0  0  0  0  0
   -8.4300   20.1710  -32.0200 S   0  0  0  0  0  0  0  0  0  0  0  0
   -9.4660   20.4180  -33.0800 O   0  0  0  0  0  0  0  0  0  0  0  0
   -9.1130   19.6300  -30.7940 O   0  0  0  0  0  0  0  0  0  0  0  0
   -7.5980   21.6610  -31.5980 C   0  0  0  0  0  0  0  0  0  0  0  0
   -7.4020   21.9810  -30.2480 C   0  0  0  0  0  0  0  0  0  0  0  0
   -6.7300   23.1560  -29.8940 C   0  0  0  0  0  0  0  0  0  0  0  0
   -6.2490   24.0130  -30.8890 C   0  0  0  0  0  0  0  0  0  0  0  0
   -5.4160   25.4900  -30.4460 Cl  0  0  0  0  0  0  0  0  0  0  0  0
   -6.4390   23.6940  -32.2370 C   0  0  0  0  0  0  0  0  0  0  0  0
   -7.1130   22.5210  -32.5930 C   0  0  0  0  0  0  0  0  0  0  0  0
   -0.4680   21.9960  -30.7260 C   0  0  0  0  0  0  0  0  0  0  0  0
   -0.9090   23.1560  -30.0820 C   0  0  0  0  0  0  0  0  0  0  0  0
   -1.0942   26.2555  -27.1208 H   0  0  0  0  0  0  0  0  0  0  0  0
    0.0445   25.9632  -28.4790 H   0  0  0  0  0  0  0  0  0  0  0  0
   -0.9967   27.4270  -28.4790 H   0  0  0  0  0  0  0  0  0  0  0  0
   -3.4574   21.8204  -28.2341 H   0  0  0  0  0  0  0  0  0  0  0  0
   -2.6396   19.7463  -29.3440 H   0  0  0  0  0  0  0  0  0  0  0  0
   -3.1322   21.0128  -31.7482 H   0  0  0  0  0  0  0  0  0  0  0  0
   -5.6426   21.1558  -31.7351 H   0  0  0  0  0  0  0  0  0  0  0  0
   -3.3751   16.9675  -33.3333 H   0  0  0  0  0  0  0  0  0  0  0  0
   -6.1546   16.7272  -34.4334 H   0  0  0  0  0  0  0  0  0  0  0  0
   -6.1590   16.0280  -32.8249 H   0  0  0  0  0  0  0  0  0  0  0  0
   -8.2016   17.7574  -34.0274 H   0  0  0  0  0  0  0  0  0  0  0  0
   -8.2270   17.1273  -32.3739 H   0  0  0  0  0  0  0  0  0  0  0  0
   -7.7775   21.3066  -29.4643 H   0  0  0  0  0  0  0  0  0  0  0  0
   -6.5800   23.4057  -28.8333 H   0  0  0  0  0  0  0  0  0  0  0  0
   -6.0577   24.3668  -33.0192 H   0  0  0  0  0  0  0  0  0  0  0  0
   -7.2625   22.2734  -33.6543 H   0  0  0  0  0  0  0  0  0  0  0  0
    0.3710   22.0490  -31.4354 H   0  0  0  0  0  0  0  0  0  0  0  0
   -0.4016   24.1136  -30.2706 H   0  0  0  0  0  0  0  0  0  0  0  0
  1  2  1  0
  2  3  1  0
  3  4  2  0
  3  5  1  0
  5  6  2  0
  6  7  1  0
  7  8  2  0
  8  9  1  0
  9 10  1  0
 10 11  2  0
 10 12  2  0
 10 13  1  0
 13 14  2  0
 14 15  1  0
 15 16  2  0
 16 17  1  0
 17 18  2  0
 17 19  1  0
 19 20  1  0
 20 21  1  0
 21 22  1  0
 22 23  2  0
 22 24  2  0
 22 25  1  0
 25 26  2  0
 26 27  1  0
 27 28  2  0
 28 29  1  0
 28 30  1  0
 30 31  2  0
  8 32  1  0
 32 33  2  0
 33  5  1  0
 18 13  1  0
 31 25  1  0
 21 16  1  0
  1 34  1  0
  1 35  1  0
  1 36  1  0
  6 37  1  0
  7 38  1  0
 14 39  1  0
 15 40  1  0
 18 41  1  0
 19 42  1  0
 19 43  1  0
 20 44  1  0
 20 45  1  0
 26 46  1  0
 27 47  1  0
 30 48  1  0
 31 49  1  0
 32 50  1  0
 33 51  1  0
M  CHG  2   2  -1   9  -1
M  END
>  <UniqueID>  (18) 
18

>  <SMILES>  (18) 
C[N-]C(=O)c1ccc([N-]S(=O)(=O)c2ccc3c(c2)CCN3S(=O)(=O)c2ccc(Cl)cc2)cc1

>  <Energy>  (18) 
76.83730757678444

>  <Genealogy>  (18) 
C[N-]C(=O)c1ccc([N-]S(=O)(=O)c2ccc3c(c2)CCN3S(=O)(=O)c2ccc(Cl)cc2)cc1 (protonated)
C[N-]C(=O)c1ccc([N-]S(=O)(=O)c2ccc3c(c2)CCN3S(=O)(=O)c2ccc(Cl)cc2)cc1 (3D coordinates assigned)
C[N-]C(=O)c1ccc([N-]S(=O)(=O)c2ccc3c(c2)CCN3S(=O)(=O)c2ccc(Cl)cc2)cc1 (nonaromatic ring conformer: 76.83730757678444 kcal/mol)

>  <smiles>  (18) 
CNC(=O)c1ccc(NS(=O)(=O)c2ccc3c(c2)CCN3S(=O)(=O)c2ccc(Cl)cc2)cc1

>  <score_type>  (18) 
oracle

>  <origin>  (18) 
adgpu

>  <m_score__min__energy>  (18) 
-12.17

>  <m_primary>  (18) 
energy

$$$$
18:0
     RDKit          3D

 48 50  0  0  0  0  0  0  0  0999 V2000
   -3.4890   19.0310  -34.1520 C   0  0  0  0  0  0  0  0  0  0  0  0
   -4.7970   18.4290  -33.7470 C   0  0  0  0  0  0  0  0  0  0  0  0
   -5.0870   17.0920  -34.0480 C   0  0  0  0  0  0  0  0  0  0  0  0
   -6.3180   16.5540  -33.6670 C   0  0  0  0  0  0  0  0  0  0  0  0
   -7.2470   17.3530  -32.9980 C   0  0  0  0  0  0  0  0  0  0  0  0
   -6.9310   18.6910  -32.7210 C   0  0  0  0  0  0  0  0  0  0  0  0
   -7.8980   19.5650  -31.9810 C   0  0  0  0  0  0  0  0  0  0  0  0
   -8.0410   20.8340  -32.6930 N   0  0  0  0  0  0  0  0  0  0  0  0
   -8.3970   22.1140  -31.5700 S   0  0  0  0  0  0  0  0  0  0  0  0
   -9.4880   22.9790  -32.1320 O   0  0  0  0  0  0  0  0  0  0  0  0
   -8.8510   21.5200  -30.2660 O   0  0  0  0  0  0  0  0  0  0  0  0
   -6.9510   23.0880  -31.3200 C   0  0  0  0  0  0  0  0  0  0  0  0
   -7.0470   24.3830  -30.7950 C   0  0  0  0  0  0  0  0  0  0  0  0
   -5.8880   25.1150  -30.5220 C   0  0  0  0  0  0  0  0  0  0  0  0
   -4.6270   24.5530  -30.7560 C   0  0  0  0  0  0  0  0  0  0  0  0
   -3.4880   25.2980  -30.4680 O   0  0  0  0  0  0  0  0  0  0  0  0
   -4.5210   23.2540  -31.2870 C   0  0  0  0  0  0  0  0  0  0  0  0
   -3.2360   22.6350  -31.4780 N   0  0  0  0  0  0  0  0  0  0  0  0
   -2.2190   22.6920  -30.4220 C   0  0  0  0  0  0  0  0  0  0  0  0
   -1.5560   21.3170  -30.2930 C   0  0  0  0  0  0  0  0  0  0  0  0
   -0.9580   20.8380  -31.5670 N   0  0  0  0  0  0  0  0  0  0  0  0
   -1.0600   19.3740  -31.6750 C   0  0  0  0  0  0  0  0  0  0  0  0
   -1.4710   21.5060  -32.7890 C   0  0  0  0  0  0  0  0  0  0  0  0
   -2.9620   21.8590  -32.6940 C   0  0  0  0  0  0  0  0  0  0  0  0
   -5.6910   22.5410  -31.5880 C   0  0  0  0  0  0  0  0  0  0  0  0
   -5.7190   19.1890  -33.0930 N   0  0  0  0  0  0  0  0  0  0  0  0
   -2.9133   19.2960  -33.2529 H   0  0  0  0  0  0  0  0  0  0  0  0
   -2.9204   18.3040  -34.7505 H   0  0  0  0  0  0  0  0  0  0  0  0
   -3.6714   19.9358  -34.7505 H   0  0  0  0  0  0  0  0  0  0  0  0
   -4.3512   16.4711  -34.5800 H   0  0  0  0  0  0  0  0  0  0  0  0
   -6.5550   15.5039  -33.8933 H   0  0  0  0  0  0  0  0  0  0  0  0
   -8.2179   16.9369  -32.6910 H   0  0  0  0  0  0  0  0  0  0  0  0
   -8.8756   19.0642  -31.9217 H   0  0  0  0  0  0  0  0  0  0  0  0
   -7.5234   19.7521  -30.9638 H   0  0  0  0  0  0  0  0  0  0  0  0
   -8.0351   24.8242  -30.5974 H   0  0  0  0  0  0  0  0  0  0  0  0
   -5.9668   26.1366  -30.1218 H   0  0  0  0  0  0  0  0  0  0  0  0
   -1.4598   23.4446  -30.6814 H   0  0  0  0  0  0  0  0  0  0  0  0
   -2.6900   22.9684  -29.4671 H   0  0  0  0  0  0  0  0  0  0  0  0
   -0.7613   21.3809  -29.5351 H   0  0  0  0  0  0  0  0  0  0  0  0
   -2.3395   20.5997  -30.0074 H   0  0  0  0  0  0  0  0  0  0  0  0
   -1.0907   18.9333  -30.6676 H   0  0  0  0  0  0  0  0  0  0  0  0
   -1.9787   19.1096  -32.2191 H   0  0  0  0  0  0  0  0  0  0  0  0
   -0.1868   18.9847  -32.2191 H   0  0  0  0  0  0  0  0  0  0  0  0
   -0.9002   22.4326  -32.9487 H   0  0  0  0  0  0  0  0  0  0  0  0
   -1.3504   20.8024  -33.6259 H   0  0  0  0  0  0  0  0  0  0  0  0
   -3.2489   22.4535  -33.5739 H   0  0  0  0  0  0  0  0  0  0  0  0
   -3.5442   20.9264  -32.6566 H   0  0  0  0  0  0  0  0  0  0  0  0
   -5.6173   21.5408  -32.0397 H   0  0  0  0  0  0  0  0  0  0  0  0
  1  2  1  0
  2  3  2  0
  3  4  1  0
  4  5  2  0
  5  6  1  0
  6  7  1  0
  7  8  1  0
  8  9  1  0
  9 10  2  0
  9 11  2  0
  9 12  1  0
 12 13  2  0
 13 14  1  0
 14 15  2  0
 15 16  1  0
 15 17  1  0
 17 18  1  0
 18 19  1  0
 19 20  1  0
 20 21  1  0
 21 22  1  0
 21 23  1  0
 23 24  1  0
 17 25  2  0
  6 26  2  0
 26  2  1  0
 25 12  1  0
 24 18  1  0
  1 27  1  0
  1 28  1  0
  1 29  1  0
  3 30  1  0
  4 31  1  0
  5 32  1  0
  7 33  1  0
  7 34  1  0
 13 35  1  0
 14 36  1  0
 19 37  1  0
 19 38  1  0
 20 39  1  0
 20 40  1  0
 22 41  1  0
 22 42  1  0
 22 43  1  0
 23 44  1  0
 23 45  1  0
 24 46  1  0
 24 47  1  0
 25 48  1  0
M  CHG  2   8  -1  16  -1
M  END
>  <UniqueID>  (19) 
19

>  <SMILES>  (19) 
Cc1cccc(C[N-]S(=O)(=O)c2ccc([O-])c(N3CCN(C)CC3)c2)n1

>  <Energy>  (19) 
55.65553644115145

>  <Genealogy>  (19) 
Cc1cccc(C[N-]S(=O)(=O)c2ccc([O-])c(N3CCN(C)CC3)c2)n1 (protonated)
Cc1cccc(C[N-]S(=O)(=O)c2ccc([O-])c(N3CCN(C)CC3)c2)n1 (3D coordinates assigned)
Cc1cccc(C[N-]S(=O)(=O)c2ccc([O-])c(N3CCN(C)CC3)c2)n1 (nonaromatic ring conformer: 55.65553644115145 kcal/mol)

>  <smiles>  (19) 
Cc1cccc(CNS(=O)(=O)c2ccc(O)c(N3CCN(C)CC3)c2)n1

>  <score_type>  (19) 
oracle

>  <origin>  (19) 
adgpu

>  <m_score__min__energy>  (19) 
-11.84

>  <m_primary>  (19) 
energy

$$$$
19:0
     RDKit          3D

 55 58  0  0  0  0  0  0  0  0999 V2000
   -6.4560   19.0760  -34.7040 O   0  0  0  0  0  0  0  0  0  0  0  0
   -6.3380   19.3240  -33.4730 C   0  0  0  0  0  0  0  0  0  0  0  0
   -5.2170   18.8080  -32.7370 N   0  0  0  0  0  0  0  0  0  0  0  0
   -4.0350   18.2650  -33.3470 C   0  0  0  0  0  0  0  0  0  0  0  0
   -4.0170   16.9620  -33.8740 C   0  0  0  0  0  0  0  0  0  0  0  0
   -2.8650   16.4710  -34.4960 C   0  0  0  0  0  0  0  0  0  0  0  0
   -1.7280   17.2750  -34.6050 C   0  0  0  0  0  0  0  0  0  0  0  0
   -1.7370   18.5790  -34.0920 C   0  0  0  0  0  0  0  0  0  0  0  0
   -0.3100   19.6020  -34.2440 S   0  0  0  0  0  0  0  0  0  0  0  0
    0.9070   18.7370  -34.4260 O   0  0  0  0  0  0  0  0  0  0  0  0
   -0.4550   20.4810  -35.4550 O   0  0  0  0  0  0  0  0  0  0  0  0
   -0.1530   20.6020  -32.8210 N   0  0  0  0  0  0  0  0  0  0  0  0
   -0.2180   19.7980  -31.6010 C   0  0  0  0  0  0  0  0  0  0  0  0
   -0.7450   20.7120  -30.5060 C   0  0  0  0  0  0  0  0  0  0  0  0
   -1.4180   21.8670  -31.2330 C   0  0  0  0  0  0  0  0  0  0  0  0
   -1.2540   21.5590  -32.7140 C   0  0  0  0  0  0  0  0  0  0  0  0
   -2.8950   19.0730  -33.4760 C   0  0  0  0  0  0  0  0  0  0  0  0
   -7.3510   20.1600  -32.7900 C   0  0  0  0  0  0  0  0  0  0  0  0
   -8.7090   19.8430  -32.9810 C   0  0  0  0  0  0  0  0  0  0  0  0
   -9.7070   20.5590  -32.3190 C   0  0  0  0  0  0  0  0  0  0  0  0
   -9.3650   21.6000  -31.4570 C   0  0  0  0  0  0  0  0  0  0  0  0
   -8.0240   21.9350  -31.2640 C   0  0  0  0  0  0  0  0  0  0  0  0
   -7.0060   21.2400  -31.9360 C   0  0  0  0  0  0  0  0  0  0  0  0
   -5.3330   21.7880  -31.7280 S   0  0  0  0  0  0  0  0  0  0  0  0
   -4.7310   22.1100  -33.0670 O   0  0  0  0  0  0  0  0  0  0  0  0
   -4.5300   20.6980  -31.0760 O   0  0  0  0  0  0  0  0  0  0  0  0
   -5.2840   23.1960  -30.7150 N   0  0  0  0  0  0  0  0  0  0  0  0
   -4.2130   23.4630  -29.8050 C   0  0  0  0  0  0  0  0  0  0  0  0
   -3.7970   22.4510  -28.9280 C   0  0  0  0  0  0  0  0  0  0  0  0
   -2.7480   22.6820  -28.0340 C   0  0  0  0  0  0  0  0  0  0  0  0
   -2.0980   23.9200  -28.0200 C   0  0  0  0  0  0  0  0  0  0  0  0
   -2.4820   24.9210  -28.9140 C   0  0  0  0  0  0  0  0  0  0  0  0
   -3.5260   24.6920  -29.8200 C   0  0  0  0  0  0  0  0  0  0  0  0
   -3.8470   25.6740  -30.7500 O   0  0  0  0  0  0  0  0  0  0  0  0
   -5.3090   18.7420  -31.6970 H   0  0  0  0  0  0  0  0  0  0  0  0
   -4.9117   16.3268  -33.7969 H   0  0  0  0  0  0  0  0  0  0  0  0
   -2.8541   15.4483  -34.9008 H   0  0  0  0  0  0  0  0  0  0  0  0
   -0.8239   16.8838  -35.0944 H   0  0  0  0  0  0  0  0  0  0  0  0
   -0.8984   18.9456  -31.7440 H   0  0  0  0  0  0  0  0  0  0  0  0
    0.7710   19.3942  -31.3388 H   0  0  0  0  0  0  0  0  0  0  0  0
   -1.4716   20.1783  -29.8757 H   0  0  0  0  0  0  0  0  0  0  0  0
    0.0594   21.0601  -29.8413 H   0  0  0  0  0  0  0  0  0  0  0  0
   -2.4838   21.9214  -30.9665 H   0  0  0  0  0  0  0  0  0  0  0  0
   -0.9728   22.8362  -30.9638 H   0  0  0  0  0  0  0  0  0  0  0  0
   -2.1793   21.1199  -33.1153 H   0  0  0  0  0  0  0  0  0  0  0  0
   -1.0433   22.4729  -33.2889 H   0  0  0  0  0  0  0  0  0  0  0  0
   -2.9103   20.1031  -33.0903 H   0  0  0  0  0  0  0  0  0  0  0  0
   -8.9863   19.0224  -33.6591 H   0  0  0  0  0  0  0  0  0  0  0  0
  -10.7647   20.3018  -32.4774 H   0  0  0  0  0  0  0  0  0  0  0  0
  -10.1525   22.1576  -30.9288 H   0  0  0  0  0  0  0  0  0  0  0  0
   -7.7616   22.7532  -30.5773 H   0  0  0  0  0  0  0  0  0  0  0  0
   -4.2981   21.4719  -28.9438 H   0  0  0  0  0  0  0  0  0  0  0  0
   -2.4331   21.8886  -27.3402 H   0  0  0  0  0  0  0  0  0  0  0  0
   -1.2836   24.1052  -27.3041 H   0  0  0  0  0  0  0  0  0  0  0  0
   -1.9640   25.8914  -28.9072 H   0  0  0  0  0  0  0  0  0  0  0  0
  1  2  2  0
  2  3  1  0
  3  4  1  0
  4  5  2  0
  5  6  1  0
  6  7  2  0
  7  8  1  0
  8  9  1  0
  9 10  2  0
  9 11  2  0
  9 12  1  0
 12 13  1  0
 13 14  1  0
 14 15  1  0
 15 16  1  0
  8 17  2  0
  2 18  1  0
 18 19  2  0
 19 20  1  0
 20 21  2  0
 21 22  1  0
 22 23  2  0
 23 24  1  0
 24 25  2  0
 24 26  2  0
 24 27  1  0
 27 28  1  0
 28 29  2  0
 29 30  1  0
 30 31  2  0
 31 32  1  0
 32 33  2  0
 33 34  1  0
 17  4  1  0
 23 18  1  0
 33 28  1  0
 16 12  1  0
  3 35  1  0
  5 36  1  0
  6 37  1  0
  7 38  1  0
 13 39  1  0
 13 40  1  0
 14 41  1  0
 14 42  1  0
 15 43  1  0
 15 44  1  0
 16 45  1  0
 16 46  1  0
 17 47  1  0
 19 48  1  0
 20 49  1  0
 21 50  1  0
 22 51  1  0
 29 52  1  0
 30 53  1  0
 31 54  1  0
 32 55  1  0
M  CHG  2  27  -1  34  -1
M  END
>  <UniqueID>  (20) 
20

>  <SMILES>  (20) 
O=C(Nc1cccc(S(=O)(=O)N2CCCC2)c1)c1ccccc1S(=O)(=O)[N-]c1ccccc1[O-]

>  <Energy>  (20) 
79.45292064597831

>  <Genealogy>  (20) 
O=C(Nc1cccc(S(=O)(=O)N2CCCC2)c1)c1ccccc1S(=O)(=O)[N-]c1ccccc1[O-] (protonated)
O=C(Nc1cccc(S(=O)(=O)N2CCCC2)c1)c1ccccc1S(=O)(=O)[N-]c1ccccc1[O-] (3D coordinates assigned)
O=C(Nc1cccc(S(=O)(=O)N2CCCC2)c1)c1ccccc1S(=O)(=O)[N-]c1ccccc1[O-] (nonaromatic ring conformer: 79.45292064597831 kcal/mol)

>  <smiles>  (20) 
O=C(Nc1cccc(S(=O)(=O)N2CCCC2)c1)c1ccccc1S(=O)(=O)Nc1ccccc1O

>  <score_type>  (20) 
oracle

>  <origin>  (20) 
adgpu

>  <m_score__min__energy>  (20) 
-13.710000000000001

>  <m_primary>  (20) 
energy

$$$$
20:0
     RDKit          3D

 46 48  0  0  0  0  0  0  0  0999 V2000
   -6.2910   17.9520  -32.2730 C   0  0  0  0  0  0  0  0  0  0  0  0
   -6.2370   19.1680  -33.1950 C   0  0  0  0  0  0  0  0  0  0  0  0
   -6.9840   20.3040  -32.6070 N   0  0  0  0  0  0  0  0  0  0  0  0
   -8.3590   20.2420  -32.5650 C   0  0  0  0  0  0  0  0  0  0  0  0
   -8.9750   19.2470  -33.0400 O   0  0  0  0  0  0  0  0  0  0  0  0
   -9.0950   21.2850  -31.9940 C   0  0  0  0  0  0  0  0  0  0  0  0
  -10.3540   21.2280  -31.9380 O   0  0  0  0  0  0  0  0  0  0  0  0
   -8.4540   22.3660  -31.4980 N   0  0  0  0  0  0  0  0  0  0  0  0
   -7.1050   22.4740  -31.5500 C   0  0  0  0  0  0  0  0  0  0  0  0
   -6.4900   23.6210  -31.0380 C   0  0  0  0  0  0  0  0  0  0  0  0
   -5.0950   23.7700  -31.0960 C   0  0  0  0  0  0  0  0  0  0  0  0
   -4.4460   24.9880  -30.5580 C   0  0  0  0  0  0  0  0  0  0  0  0
   -5.0590   26.0910  -30.5710 O   0  0  0  0  0  0  0  0  0  0  0  0
   -3.1190   24.9210  -30.0200 N   0  0  0  0  0  0  0  0  0  0  0  0
   -2.8180   24.4540  -28.6700 C   0  0  1  0  0  0  0  0  0  0  0  0
   -4.1170   24.0540  -27.9700 C   0  0  0  0  0  0  0  0  0  0  0  0
   -1.8600   23.2820  -28.7140 C   0  0  0  0  0  0  0  0  0  0  0  0
   -1.1560   22.9040  -27.5600 C   0  0  0  0  0  0  0  0  0  0  0  0
   -0.2790   21.8180  -27.5940 C   0  0  0  0  0  0  0  0  0  0  0  0
   -0.1010   21.0950  -28.7750 C   0  0  0  0  0  0  0  0  0  0  0  0
   -0.7980   21.4480  -29.9350 C   0  0  0  0  0  0  0  0  0  0  0  0
   -0.5870   20.6900  -31.0960 O   0  0  0  0  0  0  0  0  0  0  0  0
   -1.4520   20.6920  -32.2270 C   0  0  0  0  0  0  0  0  0  0  0  0
   -1.6830   22.5430  -29.9000 C   0  0  0  0  0  0  0  0  0  0  0  0
   -4.3290   22.7530  -31.6850 C   0  0  0  0  0  0  0  0  0  0  0  0
   -4.9370   21.6040  -32.1970 C   0  0  0  0  0  0  0  0  0  0  0  0
   -6.3390   21.4320  -32.1280 C   0  0  0  0  0  0  0  0  0  0  0  0
   -6.2762   18.2856  -31.2249 H   0  0  0  0  0  0  0  0  0  0  0  0
   -7.2151   17.3871  -32.4649 H   0  0  0  0  0  0  0  0  0  0  0  0
   -5.4206   17.3074  -32.4649 H   0  0  0  0  0  0  0  0  0  0  0  0
   -5.1877   19.4633  -33.3422 H   0  0  0  0  0  0  0  0  0  0  0  0
   -6.6973   18.9025  -34.1581 H   0  0  0  0  0  0  0  0  0  0  0  0
   -7.1046   24.4134  -30.5859 H   0  0  0  0  0  0  0  0  0  0  0  0
   -2.3371   25.2672  -28.1065 H   0  0  0  0  0  0  0  0  0  0  0  0
   -3.9747   24.0978  -26.8801 H   0  0  0  0  0  0  0  0  0  0  0  0
   -4.9198   24.7466  -28.2631 H   0  0  0  0  0  0  0  0  0  0  0  0
   -4.3911   23.0298  -28.2631 H   0  0  0  0  0  0  0  0  0  0  0  0
   -1.2958   23.4658  -26.6247 H   0  0  0  0  0  0  0  0  0  0  0  0
    0.2736   21.5311  -26.6871 H   0  0  0  0  0  0  0  0  0  0  0  0
    0.5926   20.2414  -28.7933 H   0  0  0  0  0  0  0  0  0  0  0  0
   -2.4985   20.6944  -31.8882 H   0  0  0  0  0  0  0  0  0  0  0  0
   -1.2608   21.5897  -32.8333 H   0  0  0  0  0  0  0  0  0  0  0  0
   -1.2649   19.7934  -32.8333 H   0  0  0  0  0  0  0  0  0  0  0  0
   -2.2404   22.8233  -30.8060 H   0  0  0  0  0  0  0  0  0  0  0  0
   -3.2360   22.8615  -31.7445 H   0  0  0  0  0  0  0  0  0  0  0  0
   -4.3167   20.8225  -32.6601 H   0  0  0  0  0  0  0  0  0  0  0  0
  1  2  1  0
  2  3  1  0
  3  4  1  0
  4  5  2  0
  4  6  1  0
  6  7  2  0
  6  8  1  0
  8  9  1  0
  9 10  2  0
 10 11  1  0
 11 12  1  0
 12 13  2  0
 12 14  1  0
 14 15  1  0
 15 16  1  0
 15 17  1  0
 17 18  2  0
 18 19  1  0
 19 20  2  0
 20 21  1  0
 21 22  1  0
 22 23  1  0
 21 24  2  0
 11 25  2  0
 25 26  1  0
 26 27  2  0
 27  3  1  0
 27  9  1  0
 24 17  1  0
  1 28  1  0
  1 29  1  0
  1 30  1  0
  2 31  1  0
  2 32  1  0
 10 33  1  0
 15 34  1  1
 16 35  1  0
 16 36  1  0
 16 37  1  0
 18 38  1  0
 19 39  1  0
 20 40  1  0
 23 41  1  0
 23 42  1  0
 23 43  1  0
 24 44  1  0
 25 45  1  0
 26 46  1  0
M  CHG  2   8  -1  14  -1
M  END
>  <UniqueID>  (21) 
21

>  <SMILES>  (21) 
CCn1c(=O)c(=O)[n-]c2cc(C(=O)[N-][C@@H](C)c3cccc(OC)c3)ccc21

>  <Energy>  (21) 
52.764417579638376

>  <Genealogy>  (21) 
CCn1c(=O)c(=O)[n-]c2cc(C(=O)[N-]C(C)c3cccc(OC)c3)ccc21 (protonated)
CCn1c(=O)c(=O)[n-]c2cc(C(=O)[N-][C@@H](C)c3cccc(OC)c3)ccc21 (chirality)
CCn1c(=O)c(=O)[n-]c2cc(C(=O)[N-][C@@H](C)c3cccc(OC)c3)ccc21 (3D coordinates assigned)
CCn1c(=O)c(=O)[n-]c2cc(C(=O)[N-][C@@H](C)c3cccc(OC)c3)ccc21 (optimized conformer: 52.764417579638376 kcal/mol)

>  <smiles>  (21) 
CCn1c(=O)c(=O)[nH]c2cc(C(=O)NC(C)c3cccc(OC)c3)ccc21

>  <score_type>  (21) 
oracle

>  <origin>  (21) 
adgpu

>  <m_score__min__energy>  (21) 
-10.16

>  <m_primary>  (21) 
energy

$$$$
21:0
     RDKit          3D

 55 58  0  0  0  0  0  0  0  0999 V2000
    0.1310   22.5650  -25.8420 C   0  0  0  0  0  0  0  0  0  0  0  0
    0.2510   21.7940  -27.0910 N   0  0  0  0  0  0  0  0  0  0  0  0
   -0.6050   20.5930  -27.1040 C   0  0  0  0  0  0  0  0  0  0  0  0
   -2.1020   20.9380  -27.0770 C   0  0  0  0  0  0  0  0  0  0  0  0
   -2.4490   22.0730  -28.0030 C   0  0  0  0  0  0  0  0  0  0  0  0
   -3.7970   22.3340  -28.2880 C   0  0  0  0  0  0  0  0  0  0  0  0
   -4.1650   23.4120  -29.1140 C   0  0  0  0  0  0  0  0  0  0  0  0
   -5.5470   23.6770  -29.4300 N   0  0  0  0  0  0  0  0  0  0  0  0
   -6.1790   23.6800  -31.0460 S   0  0  0  0  0  0  0  0  0  0  0  0
   -5.7170   24.9210  -31.7590 O   0  0  0  0  0  0  0  0  0  0  0  0
   -7.6800   23.6820  -30.9930 O   0  0  0  0  0  0  0  0  0  0  0  0
   -5.6470   22.2300  -31.8890 C   0  0  0  0  0  0  0  0  0  0  0  0
   -6.5970   21.3830  -32.4720 C   0  0  0  0  0  0  0  0  0  0  0  0
   -6.1920   20.2170  -33.1270 C   0  0  0  0  0  0  0  0  0  0  0  0
   -4.8330   19.8820  -33.1970 C   0  0  0  0  0  0  0  0  0  0  0  0
   -4.3280   18.3940  -33.9970 S   0  0  0  0  0  0  0  0  0  0  0  0
   -5.0340   18.2940  -35.3210 O   0  0  0  0  0  0  0  0  0  0  0  0
   -2.8510   18.4580  -34.2710 O   0  0  0  0  0  0  0  0  0  0  0  0
   -4.6820   16.9640  -33.0490 N   0  0  0  0  0  0  0  0  0  0  0  0
   -4.9400   15.7720  -33.8840 C   0  0  0  0  0  0  0  0  0  0  0  0
   -6.4370   15.4480  -34.0200 C   0  0  0  0  0  0  0  0  0  0  0  0
   -7.2060   16.6240  -33.9240 O   0  0  0  0  0  0  0  0  0  0  0  0
   -7.1570   17.1190  -32.6000 C   0  0  0  0  0  0  0  0  0  0  0  0
   -5.7210   17.2030  -32.0310 C   0  0  0  0  0  0  0  0  0  0  0  0
   -3.8820   20.7350  -32.6210 C   0  0  0  0  0  0  0  0  0  0  0  0
   -4.2860   21.9030  -31.9680 C   0  0  0  0  0  0  0  0  0  0  0  0
   -3.1580   24.2300  -29.6530 C   0  0  0  0  0  0  0  0  0  0  0  0
   -3.4820   25.2990  -30.4820 O   0  0  0  0  0  0  0  0  0  0  0  0
   -1.8140   23.9840  -29.3600 C   0  0  0  0  0  0  0  0  0  0  0  0
   -1.4500   22.9200  -28.5230 C   0  0  0  0  0  0  0  0  0  0  0  0
    0.0150   22.6360  -28.2820 C   0  0  0  0  0  0  0  0  0  0  0  0
    0.2364   21.8879  -24.9815 H   0  0  0  0  0  0  0  0  0  0  0  0
    0.9209   23.3296  -25.8058 H   0  0  0  0  0  0  0  0  0  0  0  0
   -0.8540   23.0534  -25.8058 H   0  0  0  0  0  0  0  0  0  0  0  0
   -0.3919   20.0176  -28.0170 H   0  0  0  0  0  0  0  0  0  0  0  0
   -0.3793   20.0115  -26.1980 H   0  0  0  0  0  0  0  0  0  0  0  0
   -2.6744   20.0486  -27.3792 H   0  0  0  0  0  0  0  0  0  0  0  0
   -2.3540   21.2528  -26.0536 H   0  0  0  0  0  0  0  0  0  0  0  0
   -4.5772   21.6873  -27.8601 H   0  0  0  0  0  0  0  0  0  0  0  0
   -6.2420   23.7710  -28.6570 H   0  0  0  0  0  0  0  0  0  0  0  0
   -7.6659   21.6362  -32.4143 H   0  0  0  0  0  0  0  0  0  0  0  0
   -6.9428   19.5595  -33.5895 H   0  0  0  0  0  0  0  0  0  0  0  0
   -4.5272   15.9508  -34.8878 H   0  0  0  0  0  0  0  0  0  0  0  0
   -4.4605   14.9138  -33.3905 H   0  0  0  0  0  0  0  0  0  0  0  0
   -6.6180   14.9756  -34.9968 H   0  0  0  0  0  0  0  0  0  0  0  0
   -6.7286   14.7646  -33.2089 H   0  0  0  0  0  0  0  0  0  0  0  0
   -7.5970   18.1271  -32.5876 H   0  0  0  0  0  0  0  0  0  0  0  0
   -7.7173   16.4145  -31.9678 H   0  0  0  0  0  0  0  0  0  0  0  0
   -5.5707   18.2064  -31.6059 H   0  0  0  0  0  0  0  0  0  0  0  0
   -5.6226   16.4150  -31.2698 H   0  0  0  0  0  0  0  0  0  0  0  0
   -2.8128   20.4843  -32.6830 H   0  0  0  0  0  0  0  0  0  0  0  0
   -3.5347   22.5668  -31.5153 H   0  0  0  0  0  0  0  0  0  0  0  0
   -1.0350   24.6308  -29.7898 H   0  0  0  0  0  0  0  0  0  0  0  0
    0.4215   22.1184  -29.1634 H   0  0  0  0  0  0  0  0  0  0  0  0
    0.5130   23.6010  -28.1069 H   0  0  0  0  0  0  0  0  0  0  0  0
  1  2  1  0
  2  3  1  0
  3  4  1  0
  4  5  1  0
  5  6  2  0
  6  7  1  0
  7  8  1  0
  8  9  1  0
  9 10  2  0
  9 11  2  0
  9 12  1  0
 12 13  2  0
 13 14  1  0
 14 15  2  0
 15 16  1  0
 16 17  2  0
 16 18  2  0
 16 19  1  0
 19 20  1  0
 20 21  1  0
 21 22  1  0
 22 23  1  0
 23 24  1  0
 15 25  1  0
 25 26  2  0
  7 27  2  0
 27 28  1  0
 27 29  1  0
 29 30  2  0
 30 31  1  0
 31  2  1  0
 30  5  1  0
 26 12  1  0
 24 19  1  0
  1 32  1  0
  1 33  1  0
  1 34  1  0
  3 35  1  0
  3 36  1  0
  4 37  1  0
  4 38  1  0
  6 39  1  0
  8 40  1  0
 13 41  1  0
 14 42  1  0
 20 43  1  0
 20 44  1  0
 21 45  1  0
 21 46  1  0
 23 47  1  0
 23 48  1  0
 24 49  1  0
 24 50  1  0
 25 51  1  0
 26 52  1  0
 29 53  1  0
 31 54  1  0
 31 55  1  0
M  CHG  1  28  -1
M  END
>  <UniqueID>  (22) 
22

>  <SMILES>  (22) 
CN1CCc2cc(NS(=O)(=O)c3ccc(S(=O)(=O)N4CCOCC4)cc3)c([O-])cc2C1

>  <Energy>  (22) 
72.75294732411952

>  <Genealogy>  (22) 
CN1CCc2cc(NS(=O)(=O)c3ccc(S(=O)(=O)N4CCOCC4)cc3)c([O-])cc2C1 (protonated)
CN1CCc2cc(NS(=O)(=O)c3ccc(S(=O)(=O)N4CCOCC4)cc3)c([O-])cc2C1 (3D coordinates assigned)
CN1CCc2cc(NS(=O)(=O)c3ccc(S(=O)(=O)N4CCOCC4)cc3)c([O-])cc2C1 (nonaromatic ring conformer: 72.75294732411952 kcal/mol)

>  <smiles>  (22) 
CN1CCc2cc(NS(=O)(=O)c3ccc(S(=O)(=O)N4CCOCC4)cc3)c(O)cc2C1

>  <score_type>  (22) 
oracle

>  <origin>  (22) 
adgpu

>  <m_score__min__energy>  (22) 
-13.19

>  <m_primary>  (22) 
energy

$$$$
22:0
     RDKit          3D

 42 44  0  0  0  0  0  0  0  0999 V2000
   -7.0210   22.6310  -29.5470 C   0  0  0  0  0  0  0  0  0  0  0  0
   -7.6470   23.3420  -30.7490 C   0  0  2  0  0  0  0  0  0  0  0  0
   -8.8500   22.2740  -31.6150 S   0  0  0  0  0  0  0  0  0  0  0  0
   -7.6340   21.1000  -32.2280 C   0  0  0  0  0  0  0  0  0  0  0  0
   -7.9230   19.7310  -32.1870 C   0  0  0  0  0  0  0  0  0  0  0  0
   -7.0310   18.8090  -32.7400 C   0  0  0  0  0  0  0  0  0  0  0  0
   -5.8400   19.2470  -33.3310 C   0  0  0  0  0  0  0  0  0  0  0  0
   -4.7420   18.0750  -34.0560 S   0  0  0  0  0  0  0  0  0  0  0  0
   -5.1700   17.8160  -35.4730 O   0  0  0  0  0  0  0  0  0  0  0  0
   -4.7910   16.7770  -33.2990 O   0  0  0  0  0  0  0  0  0  0  0  0
   -3.1200   18.6960  -34.0560 N   0  0  0  0  0  0  0  0  0  0  0  0
   -2.5660   18.6320  -32.7050 C   0  0  0  0  0  0  0  0  0  0  0  0
   -2.7600   19.9570  -32.0310 C   0  0  0  0  0  0  0  0  0  0  0  0
   -3.6660   20.0860  -30.9670 C   0  0  0  0  0  0  0  0  0  0  0  0
   -3.8210   21.3140  -30.3170 C   0  0  0  0  0  0  0  0  0  0  0  0
   -3.0670   22.4250  -30.7180 C   0  0  0  0  0  0  0  0  0  0  0  0
   -3.2510   23.9660  -29.8870 S   0  0  0  0  0  0  0  0  0  0  0  0
   -1.7040   24.5290  -29.3650 N   0  0  0  0  0  0  0  0  0  0  0  0
   -4.1520   23.7970  -28.6950 O   0  0  0  0  0  0  0  0  0  0  0  0
   -3.8640   24.9760  -30.8150 O   0  0  0  0  0  0  0  0  0  0  0  0
   -2.1450   22.2940  -31.7640 C   0  0  0  0  0  0  0  0  0  0  0  0
   -1.9890   21.0660  -32.4160 C   0  0  0  0  0  0  0  0  0  0  0  0
   -5.5400   20.6160  -33.3550 C   0  0  0  0  0  0  0  0  0  0  0  0
   -6.4230   21.5460  -32.7860 C   0  0  0  0  0  0  0  0  0  0  0  0
   -6.0440   22.9280  -32.7010 N   0  0  0  0  0  0  0  0  0  0  0  0
   -6.5980   23.8140  -31.7170 C   0  0  0  0  0  0  0  0  0  0  0  0
   -6.1680   24.9960  -31.6370 O   0  0  0  0  0  0  0  0  0  0  0  0
   -7.4093   23.0720  -28.6171 H   0  0  0  0  0  0  0  0  0  0  0  0
   -7.2760   21.5615  -29.5800 H   0  0  0  0  0  0  0  0  0  0  0  0
   -5.9278   22.7485  -29.5800 H   0  0  0  0  0  0  0  0  0  0  0  0
   -8.1813   24.2181  -30.3528 H   0  0  0  0  0  0  0  0  0  0  0  0
   -8.8544   19.3805  -31.7184 H   0  0  0  0  0  0  0  0  0  0  0  0
   -7.2654   17.7347  -32.7109 H   0  0  0  0  0  0  0  0  0  0  0  0
   -3.0829   17.8482  -32.1319 H   0  0  0  0  0  0  0  0  0  0  0  0
   -1.4928   18.3961  -32.7558 H   0  0  0  0  0  0  0  0  0  0  0  0
   -4.2570   19.2167  -30.6429 H   0  0  0  0  0  0  0  0  0  0  0  0
   -4.5375   21.4084  -29.4877 H   0  0  0  0  0  0  0  0  0  0  0  0
   -1.5800   25.4880  -29.7600 H   0  0  0  0  0  0  0  0  0  0  0  0
   -1.5413   23.1597  -32.0741 H   0  0  0  0  0  0  0  0  0  0  0  0
   -1.2595   20.9687  -33.2335 H   0  0  0  0  0  0  0  0  0  0  0  0
   -4.6069   20.9632  -33.8227 H   0  0  0  0  0  0  0  0  0  0  0  0
   -5.2550   23.2770  -33.2920 H   0  0  0  0  0  0  0  0  0  0  0  0
  1  2  1  0
  2  3  1  0
  3  4  1  0
  4  5  2  0
  5  6  1  0
  6  7  2  0
  7  8  1  0
  8  9  2  0
  8 10  2  0
  8 11  1  0
 11 12  1  0
 12 13  1  0
 13 14  2  0
 14 15  1  0
 15 16  2  0
 16 17  1  0
 17 18  1  0
 17 19  2  0
 17 20  2  0
 16 21  1  0
 21 22  2  0
  7 23  1  0
 23 24  2  0
 24 25  1  0
 25 26  1  0
 26 27  2  0
 26  2  1  0
 24  4  1  0
 22 13  1  0
  1 28  1  0
  1 29  1  0
  1 30  1  0
  2 31  1  1
  5 32  1  0
  6 33  1  0
 12 34  1  0
 12 35  1  0
 14 36  1  0
 15 37  1  0
 18 38  1  0
 21 39  1  0
 22 40  1  0
 23 41  1  0
 25 42  1  0
M  CHG  2  11  -1  18  -1
M  END
>  <UniqueID>  (23) 
23

>  <SMILES>  (23) 
C[C@@H]1Sc2ccc(S(=O)(=O)[N-]Cc3ccc(S([NH-])(=O)=O)cc3)cc2NC1=O

>  <Energy>  (23) 
43.32037386919494

>  <Genealogy>  (23) 
CC1Sc2ccc(S(=O)(=O)[N-]Cc3ccc(S([NH-])(=O)=O)cc3)cc2NC1=O (protonated)
C[C@@H]1Sc2ccc(S(=O)(=O)[N-]Cc3ccc(S([NH-])(=O)=O)cc3)cc2NC1=O (chirality)
C[C@@H]1Sc2ccc(S(=O)(=O)[N-]Cc3ccc(S([NH-])(=O)=O)cc3)cc2NC1=O (3D coordinates assigned)
C[C@@H]1Sc2ccc(S(=O)(=O)[N-]Cc3ccc(S([NH-])(=O)=O)cc3)cc2NC1=O (nonaromatic ring conformer: 43.32037386919494 kcal/mol)

>  <smiles>  (23) 
CC1Sc2ccc(S(=O)(=O)NCc3ccc(S(N)(=O)=O)cc3)cc2NC1=O

>  <score_type>  (23) 
oracle

>  <origin>  (23) 
adgpu

>  <m_score__min__energy>  (23) 
-11.83

>  <m_primary>  (23) 
energy

$$$$
23:0
     RDKit          3D

 37 38  0  0  0  0  0  0  0  0999 V2000
   -0.9880   20.0290  -30.0620 C   0  0  0  0  0  0  0  0  0  0  0  0
   -1.5530   21.2420  -29.3940 C   0  0  0  0  0  0  0  0  0  0  0  0
   -1.5130   22.4790  -29.9240 N   0  0  0  0  0  0  0  0  0  0  0  0
   -2.1710   23.2920  -29.0720 C   0  0  0  0  0  0  0  0  0  0  0  0
   -2.3900   24.7290  -29.3400 C   0  0  0  0  0  0  0  0  0  0  0  0
   -1.5610   25.5590  -28.8830 O   0  0  0  0  0  0  0  0  0  0  0  0
   -3.5270   25.2280  -30.0560 N   0  0  0  0  0  0  0  0  0  0  0  0
   -4.9240   24.9100  -29.7800 C   0  0  0  0  0  0  0  0  0  0  0  0
   -5.7380   24.9460  -31.0750 C   0  0  0  0  0  0  0  0  0  0  0  0
   -6.0530   23.5570  -31.5670 C   0  0  0  0  0  0  0  0  0  0  0  0
   -5.0280   22.7110  -32.0140 C   0  0  0  0  0  0  0  0  0  0  0  0
   -5.3180   21.4130  -32.4410 C   0  0  0  0  0  0  0  0  0  0  0  0
   -6.6430   20.9350  -32.4200 C   0  0  0  0  0  0  0  0  0  0  0  0
   -6.9800   19.6360  -32.8390 O   0  0  0  0  0  0  0  0  0  0  0  0
   -6.1090   18.5060  -32.8150 C   0  0  0  0  0  0  0  0  0  0  0  0
   -5.7270   18.1250  -34.1790 C   0  0  0  0  0  0  0  0  0  0  0  0
   -5.4250   17.8260  -35.2550 N   0  0  0  0  0  0  0  0  0  0  0  0
   -7.6660   21.7800  -31.9610 C   0  0  0  0  0  0  0  0  0  0  0  0
   -9.4800   21.1710  -31.9070 Br  0  0  0  0  0  0  0  0  0  0  0  0
   -7.3710   23.0800  -31.5350 C   0  0  0  0  0  0  0  0  0  0  0  0
   -2.6650   22.5620  -28.0030 C   0  0  0  0  0  0  0  0  0  0  0  0
   -2.2670   21.2570  -28.2120 C   0  0  0  0  0  0  0  0  0  0  0  0
   -2.6970   19.7630  -27.1030 Br  0  0  0  0  0  0  0  0  0  0  0  0
   -0.6539   19.3117  -29.2979 H   0  0  0  0  0  0  0  0  0  0  0  0
   -1.7614   19.5623  -30.6897 H   0  0  0  0  0  0  0  0  0  0  0  0
   -0.1331   20.3208  -30.6897 H   0  0  0  0  0  0  0  0  0  0  0  0
   -1.0660   22.7530  -30.8270 H   0  0  0  0  0  0  0  0  0  0  0  0
   -4.9877   23.9046  -29.3382 H   0  0  0  0  0  0  0  0  0  0  0  0
   -5.3305   25.6538  -29.0789 H   0  0  0  0  0  0  0  0  0  0  0  0
   -6.6805   25.4822  -30.8902 H   0  0  0  0  0  0  0  0  0  0  0  0
   -5.1411   25.4579  -31.8442 H   0  0  0  0  0  0  0  0  0  0  0  0
   -3.9889   23.0718  -32.0285 H   0  0  0  0  0  0  0  0  0  0  0  0
   -4.5069   20.7602  -32.7958 H   0  0  0  0  0  0  0  0  0  0  0  0
   -5.2042   18.7580  -32.2424 H   0  0  0  0  0  0  0  0  0  0  0  0
   -6.6329   17.6620  -32.3425 H   0  0  0  0  0  0  0  0  0  0  0  0
   -8.1791   23.7323  -31.1724 H   0  0  0  0  0  0  0  0  0  0  0  0
   -3.2555   22.9453  -27.1578 H   0  0  0  0  0  0  0  0  0  0  0  0
  1  2  1  0
  2  3  1  0
  3  4  1  0
  4  5  1  0
  5  6  2  0
  5  7  1  0
  7  8  1  0
  8  9  1  0
  9 10  1  0
 10 11  2  0
 11 12  1  0
 12 13  2  0
 13 14  1  0
 14 15  1  0
 15 16  1  0
 16 17  3  0
 13 18  1  0
 18 19  1  0
 18 20  2  0
  4 21  2  0
 21 22  1  0
 22 23  1  0
 22  2  2  0
 20 10  1  0
  1 24  1  0
  1 25  1  0
  1 26  1  0
  3 27  1  0
  8 28  1  0
  8 29  1  0
  9 30  1  0
  9 31  1  0
 11 32  1  0
 12 33  1  0
 15 34  1  0
 15 35  1  0
 20 36  1  0
 21 37  1  0
M  CHG  1   7  -1
M  END
>  <UniqueID>  (24) 
24

>  <SMILES>  (24) 
Cc1[nH]c(C(=O)[N-]CCc2ccc(OCC#N)c(Br)c2)cc1Br

>  <Energy>  (24) 
60.257772619017885

>  <Genealogy>  (24) 
Cc1[nH]c(C(=O)[N-]CCc2ccc(OCC#N)c(Br)c2)cc1Br (protonated)
Cc1[nH]c(C(=O)[N-]CCc2ccc(OCC#N)c(Br)c2)cc1Br (3D coordinates assigned)
Cc1[nH]c(C(=O)[N-]CCc2ccc(OCC#N)c(Br)c2)cc1Br (optimized conformer: 60.257772619017885 kcal/mol)

>  <smiles>  (24) 
Cc1[nH]c(C(=O)NCCc2ccc(OCC#N)c(Br)c2)cc1Br

>  <score_type>  (24) 
oracle

>  <origin>  (24) 
adgpu

>  <m_score__min__energy>  (24) 
-9.8900000000000006

>  <m_primary>  (24) 
energy

$$$$
24:0
     RDKit          3D

 28 29  0  0  0  0  0  0  0  0999 V2000
   -2.5810   21.8760  -31.0730 O   0  0  0  0  0  0  0  0  0  0  0  0
   -2.9860   22.9660  -30.5870 C   0  0  0  0  0  0  0  0  0  0  0  0
   -2.0190   23.8790  -30.0500 N   0  0  0  0  0  0  0  0  0  0  0  0
   -1.6640   24.0220  -28.6660 C   0  0  0  0  0  0  0  0  0  0  0  0
   -1.4770   22.9050  -27.8360 C   0  0  0  0  0  0  0  0  0  0  0  0
   -1.1180   23.0720  -26.4960 C   0  0  0  0  0  0  0  0  0  0  0  0
   -0.9230   24.3580  -25.9640 C   0  0  0  0  0  0  0  0  0  0  0  0
   -0.5540   24.5350  -24.5850 N   0  0  0  0  0  0  0  0  0  0  0  0
   -0.7990   23.6480  -23.7410 O   0  0  0  0  0  0  0  0  0  0  0  0
    0.0760   25.6870  -24.1700 O   0  0  0  0  0  0  0  0  0  0  0  0
   -1.0880   25.4730  -26.8050 C   0  0  0  0  0  0  0  0  0  0  0  0
   -1.4490   25.3060  -28.1460 C   0  0  0  0  0  0  0  0  0  0  0  0
   -1.6020   26.4240  -28.9590 O   0  0  0  0  0  0  0  0  0  0  0  0
   -4.4310   23.3000  -30.6480 C   0  0  0  0  0  0  0  0  0  0  0  0
   -5.3920   22.2770  -30.5600 C   0  0  0  0  0  0  0  0  0  0  0  0
   -6.7550   22.5780  -30.6090 C   0  0  0  0  0  0  0  0  0  0  0  0
   -7.1760   23.9020  -30.7380 C   0  0  0  0  0  0  0  0  0  0  0  0
   -6.2340   24.9290  -30.8170 C   0  0  0  0  0  0  0  0  0  0  0  0
   -4.8620   24.6390  -30.7730 C   0  0  0  0  0  0  0  0  0  0  0  0
   -3.9310   25.6740  -30.8690 O   0  0  0  0  0  0  0  0  0  0  0  0
   -1.6140   21.8923  -28.2431 H   0  0  0  0  0  0  0  0  0  0  0  0
   -0.9870   22.1897  -25.8523 H   0  0  0  0  0  0  0  0  0  0  0  0
   -0.9318   26.4856  -26.4046 H   0  0  0  0  0  0  0  0  0  0  0  0
   -5.0676   21.2315  -30.4517 H   0  0  0  0  0  0  0  0  0  0  0  0
   -7.4982   21.7695  -30.5458 H   0  0  0  0  0  0  0  0  0  0  0  0
   -8.2500   24.1364  -30.7774 H   0  0  0  0  0  0  0  0  0  0  0  0
   -6.5694   25.9721  -30.9143 H   0  0  0  0  0  0  0  0  0  0  0  0
   -3.0750   25.6710  -30.3280 H   0  0  0  0  0  0  0  0  0  0  0  0
  1  2  2  0
  2  3  1  0
  3  4  1  0
  4  5  2  0
  5  6  1  0
  6  7  2  0
  7  8  1  0
  8  9  2  0
  8 10  1  0
  7 11  1  0
 11 12  2  0
 12 13  1  0
  2 14  1  0
 14 15  2  0
 15 16  1  0
 16 17  2  0
 17 18  1  0
 18 19  2  0
 19 20  1  0
 12  4  1  0
 19 14  1  0
  5 21  1  0
  6 22  1  0
 11 23  1  0
 15 24  1  0
 16 25  1  0
 17 26  1  0
 18 27  1  0
 20 28  1  0
M  CHG  4   3  -1   8   1  10  -1  13  -1
M  END
>  <UniqueID>  (25) 
25

>  <SMILES>  (25) 
O=C([N-]c1ccc([N+](=O)[O-])cc1[O-])c1ccccc1O

>  <Energy>  (25) 
38.15847961285248

>  <Genealogy>  (25) 
O=C([N-]c1ccc([N+](=O)[O-])cc1[O-])c1ccccc1O (protonated)
O=C([N-]c1ccc([N+](=O)[O-])cc1[O-])c1ccccc1O (3D coordinates assigned)
O=C([N-]c1ccc([N+](=O)[O-])cc1[O-])c1ccccc1O (optimized conformer: 38.15847961285248 kcal/mol)

>  <smiles>  (25) 
O=C(Nc1ccc([N+](=O)[O-])cc1O)c1ccccc1O

>  <score_type>  (25) 
oracle

>  <origin>  (25) 
adgpu

>  <m_score__min__energy>  (25) 
-11.44

>  <m_primary>  (25) 
energy

$$$$
25:0
     RDKit          3D

 56 58  0  0  0  0  0  0  0  0999 V2000
   -9.0270   18.6760  -31.9800 C   0  0  0  0  0  0  0  0  0  0  0  0
   -7.8700   19.6320  -31.9600 C   0  0  0  0  0  0  0  0  0  0  0  0
   -8.0490   20.9900  -32.2630 C   0  0  0  0  0  0  0  0  0  0  0  0
   -6.9550   21.8630  -32.2610 C   0  0  0  0  0  0  0  0  0  0  0  0
   -5.6730   21.3810  -31.9560 C   0  0  0  0  0  0  0  0  0  0  0  0
   -4.2530   22.4800  -32.0130 S   0  0  0  0  0  0  0  0  0  0  0  0
   -4.6390   23.3470  -30.4480 C   0  0  0  0  0  0  0  0  0  0  0  0
   -3.9880   24.6950  -30.3920 C   0  0  0  0  0  0  0  0  0  0  0  0
   -4.5730   25.6680  -30.9320 O   0  0  0  0  0  0  0  0  0  0  0  0
   -2.7500   24.9220  -29.7010 N   0  0  0  0  0  0  0  0  0  0  0  0
   -1.8820   23.8990  -29.1750 C   0  0  0  0  0  0  0  0  0  0  0  0
   -1.4440   22.8400  -29.9880 C   0  0  0  0  0  0  0  0  0  0  0  0
   -0.6190   21.8350  -29.4850 C   0  0  0  0  0  0  0  0  0  0  0  0
   -0.1460   20.4950  -30.5190 S   0  0  0  0  0  0  0  0  0  0  0  0
   -1.2340   19.4610  -30.5740 O   0  0  0  0  0  0  0  0  0  0  0  0
    1.0920   19.8440  -29.9690 O   0  0  0  0  0  0  0  0  0  0  0  0
    0.1870   21.1010  -32.1070 N   0  0  0  0  0  0  0  0  0  0  0  0
   -0.7270   20.9940  -33.1940 C   0  0  0  0  0  0  0  0  0  0  0  0
   -0.5660   21.6930  -34.2280 O   0  0  0  0  0  0  0  0  0  0  0  0
   -1.8280   20.0870  -33.1050 N   0  0  0  0  0  0  0  0  0  0  0  0
   -2.8130   19.9810  -34.1810 C   0  0  0  0  0  0  0  0  0  0  0  0
   -3.6700   18.7570  -34.0030 C   0  0  0  0  0  0  0  0  0  0  0  0
   -3.1900   17.6670  -33.2580 C   0  0  0  0  0  0  0  0  0  0  0  0
   -3.9780   16.5250  -33.0920 C   0  0  0  0  0  0  0  0  0  0  0  0
   -5.2510   16.4650  -33.6620 C   0  0  0  0  0  0  0  0  0  0  0  0
   -5.7290   17.5420  -34.4120 C   0  0  0  0  0  0  0  0  0  0  0  0
   -4.9410   18.6830  -34.5880 C   0  0  0  0  0  0  0  0  0  0  0  0
   -0.2080   21.8890  -28.1540 C   0  0  0  0  0  0  0  0  0  0  0  0
   -0.5750   22.9740  -27.3510 C   0  0  0  0  0  0  0  0  0  0  0  0
   -1.3820   24.0040  -27.8600 C   0  0  0  0  0  0  0  0  0  0  0  0
   -1.7190   25.1750  -26.9740 C   0  0  0  0  0  0  0  0  0  0  0  0
   -5.4990   20.0370  -31.6220 C   0  0  0  0  0  0  0  0  0  0  0  0
   -6.5900   19.1630  -31.6300 C   0  0  0  0  0  0  0  0  0  0  0  0
   -9.3203   18.4337  -30.9479 H   0  0  0  0  0  0  0  0  0  0  0  0
   -9.8764   19.1392  -32.5034 H   0  0  0  0  0  0  0  0  0  0  0  0
   -8.7322   17.7545  -32.5034 H   0  0  0  0  0  0  0  0  0  0  0  0
   -9.0529   21.3701  -32.5031 H   0  0  0  0  0  0  0  0  0  0  0  0
   -7.1002   22.9272  -32.4986 H   0  0  0  0  0  0  0  0  0  0  0  0
   -5.7289   23.4729  -30.3685 H   0  0  0  0  0  0  0  0  0  0  0  0
   -4.2527   22.7424  -29.6142 H   0  0  0  0  0  0  0  0  0  0  0  0
   -1.7581   22.8032  -31.0416 H   0  0  0  0  0  0  0  0  0  0  0  0
   -1.8710   19.4470  -32.2860 H   0  0  0  0  0  0  0  0  0  0  0  0
   -3.4544   20.8746  -34.1720 H   0  0  0  0  0  0  0  0  0  0  0  0
   -2.2801   19.9016  -35.1400 H   0  0  0  0  0  0  0  0  0  0  0  0
   -2.1894   17.7127  -32.8033 H   0  0  0  0  0  0  0  0  0  0  0  0
   -3.5950   15.6726  -32.5117 H   0  0  0  0  0  0  0  0  0  0  0  0
   -5.8764   15.5712  -33.5207 H   0  0  0  0  0  0  0  0  0  0  0  0
   -6.7297   17.4921  -34.8660 H   0  0  0  0  0  0  0  0  0  0  0  0
   -5.3195   19.5245  -35.1869 H   0  0  0  0  0  0  0  0  0  0  0  0
    0.4054   21.0778  -27.7349 H   0  0  0  0  0  0  0  0  0  0  0  0
   -0.2272   23.0208  -26.3085 H   0  0  0  0  0  0  0  0  0  0  0  0
   -1.6323   24.8739  -25.9196 H   0  0  0  0  0  0  0  0  0  0  0  0
   -1.0222   26.0014  -27.1778 H   0  0  0  0  0  0  0  0  0  0  0  0
   -2.7485   25.5047  -27.1778 H   0  0  0  0  0  0  0  0  0  0  0  0
   -4.5000   19.6643  -31.3516 H   0  0  0  0  0  0  0  0  0  0  0  0
   -6.4440   18.1027  -31.3763 H   0  0  0  0  0  0  0  0  0  0  0  0
  1  2  1  0
  2  3  2  0
  3  4  1  0
  4  5  2  0
  5  6  1  0
  6  7  1  0
  7  8  1  0
  8  9  2  0
  8 10  1  0
 10 11  1  0
 11 12  2  0
 12 13  1  0
 13 14  1  0
 14 15  2  0
 14 16  2  0
 14 17  1  0
 17 18  1  0
 18 19  2  0
 18 20  1  0
 20 21  1  0
 21 22  1  0
 22 23  2  0
 23 24  1  0
 24 25  2  0
 25 26  1  0
 26 27  2  0
 13 28  2  0
 28 29  1  0
 29 30  2  0
 30 31  1  0
  5 32  1  0
 32 33  2  0
 33  2  1  0
 30 11  1  0
 27 22  1  0
  1 34  1  0
  1 35  1  0
  1 36  1  0
  3 37  1  0
  4 38  1  0
  7 39  1  0
  7 40  1  0
 12 41  1  0
 20 42  1  0
 21 43  1  0
 21 44  1  0
 23 45  1  0
 24 46  1  0
 25 47  1  0
 26 48  1  0
 27 49  1  0
 28 50  1  0
 29 51  1  0
 31 52  1  0
 31 53  1  0
 31 54  1  0
 32 55  1  0
 33 56  1  0
M  CHG  2  10  -1  17  -1
M  END
>  <UniqueID>  (26) 
26

>  <SMILES>  (26) 
Cc1ccc(SCC(=O)[N-]c2cc(S(=O)(=O)[N-]C(=O)NCc3ccccc3)ccc2C)cc1

>  <Energy>  (26) 
53.612967548383814

>  <Genealogy>  (26) 
Cc1ccc(SCC(=O)[N-]c2cc(S(=O)(=O)[N-]C(=O)NCc3ccccc3)ccc2C)cc1 (protonated)
Cc1ccc(SCC(=O)[N-]c2cc(S(=O)(=O)[N-]C(=O)NCc3ccccc3)ccc2C)cc1 (3D coordinates assigned)
Cc1ccc(SCC(=O)[N-]c2cc(S(=O)(=O)[N-]C(=O)NCc3ccccc3)ccc2C)cc1 (optimized conformer: 53.612967548383814 kcal/mol)

>  <smiles>  (26) 
Cc1ccc(SCC(=O)Nc2cc(S(=O)(=O)NC(=O)NCc3ccccc3)ccc2C)cc1

>  <score_type>  (26) 
oracle

>  <origin>  (26) 
adgpu

>  <m_score__min__energy>  (26) 
-11.77

>  <m_primary>  (26) 
energy

$$$$
26:0
     RDKit          3D

 56 59  0  0  0  0  0  0  0  0999 V2000
   -5.8790   26.0230  -29.7890 O   0  0  0  0  0  0  0  0  0  0  0  0
   -5.1680   25.1000  -30.2650 C   0  0  0  0  0  0  0  0  0  0  0  0
   -3.7510   25.2990  -30.3530 N   0  0  0  0  0  0  0  0  0  0  0  0
   -2.7590   24.4560  -29.7490 C   0  0  0  0  0  0  0  0  0  0  0  0
   -2.8660   23.0540  -29.8040 C   0  0  0  0  0  0  0  0  0  0  0  0
   -1.9040   22.2450  -29.1820 C   0  0  0  0  0  0  0  0  0  0  0  0
   -2.0800   20.4900  -29.2020 S   0  0  0  0  0  0  0  0  0  0  0  0
   -0.9450   19.8860  -28.4230 O   0  0  0  0  0  0  0  0  0  0  0  0
   -3.3730   20.1030  -28.5350 O   0  0  0  0  0  0  0  0  0  0  0  0
   -2.0350   19.8980  -30.8490 N   0  0  0  0  0  0  0  0  0  0  0  0
   -0.7070   19.3710  -31.1770 C   0  0  0  0  0  0  0  0  0  0  0  0
    0.1090   20.4960  -31.7960 C   0  0  0  0  0  0  0  0  0  0  0  0
   -0.9020   21.5500  -32.2070 C   0  0  0  0  0  0  0  0  0  0  0  0
   -2.2580   20.9980  -31.7930 C   0  0  0  0  0  0  0  0  0  0  0  0
   -0.8250   22.8410  -28.5160 C   0  0  0  0  0  0  0  0  0  0  0  0
   -0.7250   24.2330  -28.4460 C   0  0  0  0  0  0  0  0  0  0  0  0
   -1.6940   25.0390  -29.0510 C   0  0  0  0  0  0  0  0  0  0  0  0
   -1.5870   26.4230  -28.9650 O   0  0  0  0  0  0  0  0  0  0  0  0
   -5.8140   23.8660  -30.7730 C   0  0  0  0  0  0  0  0  0  0  0  0
   -5.3290   23.2410  -31.9350 C   0  0  0  0  0  0  0  0  0  0  0  0
   -5.9150   22.0600  -32.4010 C   0  0  0  0  0  0  0  0  0  0  0  0
   -6.9930   21.4860  -31.7120 C   0  0  0  0  0  0  0  0  0  0  0  0
   -7.7430   20.0050  -32.3090 S   0  0  0  0  0  0  0  0  0  0  0  0
   -7.9220   20.1100  -33.7970 O   0  0  0  0  0  0  0  0  0  0  0  0
   -9.1080   19.8730  -31.6930 O   0  0  0  0  0  0  0  0  0  0  0  0
   -6.8010   18.5750  -31.9390 N   0  0  0  0  0  0  0  0  0  0  0  0
   -6.9850   17.5050  -32.9380 C   0  0  0  0  0  0  0  0  0  0  0  0
   -6.1080   17.6950  -34.1970 C   0  0  0  0  0  0  0  0  0  0  0  0
   -5.1600   18.7350  -34.0610 O   0  0  0  0  0  0  0  0  0  0  0  0
   -4.4590   18.5820  -32.8480 C   0  0  0  0  0  0  0  0  0  0  0  0
   -5.3820   18.8810  -31.6560 C   0  0  0  0  0  0  0  0  0  0  0  0
   -7.4660   22.0960  -30.5440 C   0  0  0  0  0  0  0  0  0  0  0  0
   -6.8820   23.2760  -30.0770 C   0  0  0  0  0  0  0  0  0  0  0  0
   -3.7086   22.5901  -30.3377 H   0  0  0  0  0  0  0  0  0  0  0  0
   -0.2125   19.0113  -30.2626 H   0  0  0  0  0  0  0  0  0  0  0  0
   -0.7940   18.5312  -31.8821 H   0  0  0  0  0  0  0  0  0  0  0  0
    0.8164   20.9075  -31.0609 H   0  0  0  0  0  0  0  0  0  0  0  0
    0.7046   20.1455  -32.6518 H   0  0  0  0  0  0  0  0  0  0  0  0
   -0.6993   22.4992  -31.6894 H   0  0  0  0  0  0  0  0  0  0  0  0
   -0.8587   21.7572  -33.2864 H   0  0  0  0  0  0  0  0  0  0  0  0
   -2.8506   21.7890  -31.3101 H   0  0  0  0  0  0  0  0  0  0  0  0
   -2.8071   20.6369  -32.6751 H   0  0  0  0  0  0  0  0  0  0  0  0
   -0.0545   22.2114  -28.0470 H   0  0  0  0  0  0  0  0  0  0  0  0
    0.1187   24.6960  -27.9133 H   0  0  0  0  0  0  0  0  0  0  0  0
   -4.4831   23.6838  -32.4812 H   0  0  0  0  0  0  0  0  0  0  0  0
   -5.5287   21.5792  -33.3119 H   0  0  0  0  0  0  0  0  0  0  0  0
   -6.7257   16.5427  -32.4724 H   0  0  0  0  0  0  0  0  0  0  0  0
   -8.0358   17.5352  -33.2620 H   0  0  0  0  0  0  0  0  0  0  0  0
   -5.5710   16.7555  -34.3946 H   0  0  0  0  0  0  0  0  0  0  0  0
   -6.7782   17.9685  -35.0252 H   0  0  0  0  0  0  0  0  0  0  0  0
   -4.0896   17.5488  -32.7704 H   0  0  0  0  0  0  0  0  0  0  0  0
   -3.6146   19.2868  -32.8318 H   0  0  0  0  0  0  0  0  0  0  0  0
   -5.0560   18.2744  -30.7982 H   0  0  0  0  0  0  0  0  0  0  0  0
   -5.3113   19.9582  -31.4445 H   0  0  0  0  0  0  0  0  0  0  0  0
   -8.3023   21.6436  -29.9909 H   0  0  0  0  0  0  0  0  0  0  0  0
   -7.2612   23.7464  -29.1578 H   0  0  0  0  0  0  0  0  0  0  0  0
  1  2  2  0
  2  3  1  0
  3  4  1  0
  4  5  2  0
  5  6  1  0
  6  7  1  0
  7  8  2  0
  7  9  2  0
  7 10  1  0
 10 11  1  0
 11 12  1  0
 12 13  1  0
 13 14  1  0
  6 15  2  0
 15 16  1  0
 16 17  2  0
 17 18  1  0
  2 19  1  0
 19 20  2  0
 20 21  1  0
 21 22  2  0
 22 23  1  0
 23 24  2  0
 23 25  2  0
 23 26  1  0
 26 27  1  0
 27 28  1  0
 28 29  1  0
 29 30  1  0
 30 31  1  0
 22 32  1  0
 32 33  2  0
 17  4  1  0
 33 19  1  0
 14 10  1  0
 31 26  1  0
  5 34  1  0
 11 35  1  0
 11 36  1  0
 12 37  1  0
 12 38  1  0
 13 39  1  0
 13 40  1  0
 14 41  1  0
 14 42  1  0
 15 43  1  0
 16 44  1  0
 20 45  1  0
 21 46  1  0
 27 47  1  0
 27 48  1  0
 28 49  1  0
 28 50  1  0
 30 51  1  0
 30 52  1  0
 31 53  1  0
 31 54  1  0
 32 55  1  0
 33 56  1  0
M  CHG  2   3  -1  18  -1
M  END
>  <UniqueID>  (27) 
27

>  <SMILES>  (27) 
O=C([N-]c1cc(S(=O)(=O)N2CCCC2)ccc1[O-])c1ccc(S(=O)(=O)N2CCOCC2)cc1

>  <Energy>  (27) 
75.5085999119081

>  <Genealogy>  (27) 
O=C([N-]c1cc(S(=O)(=O)N2CCCC2)ccc1[O-])c1ccc(S(=O)(=O)N2CCOCC2)cc1 (protonated)
O=C([N-]c1cc(S(=O)(=O)N2CCCC2)ccc1[O-])c1ccc(S(=O)(=O)N2CCOCC2)cc1 (3D coordinates assigned)
O=C([N-]c1cc(S(=O)(=O)N2CCCC2)ccc1[O-])c1ccc(S(=O)(=O)N2CCOCC2)cc1 (nonaromatic ring conformer: 75.5085999119081 kcal/mol)

>  <smiles>  (27) 
O=C(Nc1cc(S(=O)(=O)N2CCCC2)ccc1O)c1ccc(S(=O)(=O)N2CCOCC2)cc1

>  <score_type>  (27) 
oracle

>  <origin>  (27) 
adgpu

>  <m_score__min__energy>  (27) 
-15.039999999999999

>  <m_primary>  (27) 
energy

$$$$
27:0
     RDKit          3D

 44 46  0  0  0  0  0  0  0  0999 V2000
   -0.5080   25.0480  -24.3560 C   0  0  0  0  0  0  0  0  0  0  0  0
   -1.7170   26.3170  -24.8430 S   0  0  0  0  0  0  0  0  0  0  0  0
   -2.1140   25.5120  -26.3930 C   0  0  0  0  0  0  0  0  0  0  0  0
   -1.2140   25.5530  -27.4600 C   0  0  0  0  0  0  0  0  0  0  0  0
   -1.5440   24.9170  -28.6580 C   0  0  0  0  0  0  0  0  0  0  0  0
   -2.7640   24.2320  -28.7840 C   0  0  0  0  0  0  0  0  0  0  0  0
   -3.1520   23.5440  -30.0390 C   0  0  0  0  0  0  0  0  0  0  0  0
   -3.9050   24.1450  -30.8550 O   0  0  0  0  0  0  0  0  0  0  0  0
   -2.6820   22.2170  -30.3420 N   0  0  0  0  0  0  0  0  0  0  0  0
   -3.1470   21.4390  -31.4580 C   0  0  0  0  0  0  0  0  0  0  0  0
   -2.2830   21.2010  -32.5380 C   0  0  0  0  0  0  0  0  0  0  0  0
   -2.7010   20.4220  -33.6210 C   0  0  0  0  0  0  0  0  0  0  0  0
   -3.9820   19.8640  -33.6300 C   0  0  0  0  0  0  0  0  0  0  0  0
   -4.8500   20.0800  -32.5500 C   0  0  0  0  0  0  0  0  0  0  0  0
   -6.4470   19.3380  -32.5220 S   0  0  0  0  0  0  0  0  0  0  0  0
   -6.6530   18.6060  -31.2250 O   0  0  0  0  0  0  0  0  0  0  0  0
   -6.5480   18.3510  -33.6520 O   0  0  0  0  0  0  0  0  0  0  0  0
   -7.6560   20.5800  -32.7230 N   0  0  0  0  0  0  0  0  0  0  0  0
   -7.1570   21.8840  -32.2850 C   0  0  0  0  0  0  0  0  0  0  0  0
   -8.3710   22.6900  -31.8490 C   0  0  0  0  0  0  0  0  0  0  0  0
   -9.4730   21.6680  -31.6170 C   0  0  0  0  0  0  0  0  0  0  0  0
   -8.8330   20.3170  -31.8970 C   0  0  0  0  0  0  0  0  0  0  0  0
   -4.4270   20.8540  -31.4620 C   0  0  0  0  0  0  0  0  0  0  0  0
   -3.6410   24.2280  -27.6830 C   0  0  0  0  0  0  0  0  0  0  0  0
   -3.2960   24.8560  -26.5270 N   0  0  0  0  0  0  0  0  0  0  0  0
   -0.4558   24.9932  -23.2586 H   0  0  0  0  0  0  0  0  0  0  0  0
   -0.8188   24.0722  -24.7575 H   0  0  0  0  0  0  0  0  0  0  0  0
    0.4817   25.3112  -24.7575 H   0  0  0  0  0  0  0  0  0  0  0  0
   -0.2546   26.0812  -27.3575 H   0  0  0  0  0  0  0  0  0  0  0  0
   -0.8457   24.9524  -29.5072 H   0  0  0  0  0  0  0  0  0  0  0  0
   -1.9310   21.7930  -29.7530 H   0  0  0  0  0  0  0  0  0  0  0  0
   -1.2702   21.6302  -32.5323 H   0  0  0  0  0  0  0  0  0  0  0  0
   -2.0203   20.2481  -34.4674 H   0  0  0  0  0  0  0  0  0  0  0  0
   -4.3099   19.2547  -34.4851 H   0  0  0  0  0  0  0  0  0  0  0  0
   -6.4609   21.7604  -31.4423 H   0  0  0  0  0  0  0  0  0  0  0  0
   -6.6130   22.3928  -33.0945 H   0  0  0  0  0  0  0  0  0  0  0  0
   -8.1547   23.2399  -30.9212 H   0  0  0  0  0  0  0  0  0  0  0  0
   -8.6584   23.4369  -32.6037 H   0  0  0  0  0  0  0  0  0  0  0  0
   -9.8312   21.7167  -30.5781 H   0  0  0  0  0  0  0  0  0  0  0  0
  -10.3444   21.8507  -32.2630 H   0  0  0  0  0  0  0  0  0  0  0  0
   -8.5358   19.8343  -30.9543 H   0  0  0  0  0  0  0  0  0  0  0  0
   -9.5353   19.6417  -32.4077 H   0  0  0  0  0  0  0  0  0  0  0  0
   -5.0997   21.0056  -30.6050 H   0  0  0  0  0  0  0  0  0  0  0  0
   -4.6107   23.7141  -27.7580 H   0  0  0  0  0  0  0  0  0  0  0  0
  1  2  1  0
  2  3  1  0
  3  4  2  0
  4  5  1  0
  5  6  2  0
  6  7  1  0
  7  8  2  0
  7  9  1  0
  9 10  1  0
 10 11  2  0
 11 12  1  0
 12 13  2  0
 13 14  1  0
 14 15  1  0
 15 16  2  0
 15 17  2  0
 15 18  1  0
 18 19  1  0
 19 20  1  0
 20 21  1  0
 21 22  1  0
 14 23  2  0
  6 24  1  0
 24 25  2  0
 25  3  1  0
 23 10  1  0
 22 18  1  0
  1 26  1  0
  1 27  1  0
  1 28  1  0
  4 29  1  0
  5 30  1  0
  9 31  1  0
 11 32  1  0
 12 33  1  0
 13 34  1  0
 19 35  1  0
 19 36  1  0
 20 37  1  0
 20 38  1  0
 21 39  1  0
 21 40  1  0
 22 41  1  0
 22 42  1  0
 23 43  1  0
 24 44  1  0
M  END
>  <UniqueID>  (28) 
28

>  <SMILES>  (28) 
CSc1ccc(C(=O)Nc2cccc(S(=O)(=O)N3CCCC3)c2)cn1

>  <Energy>  (28) 
48.97270674630441

>  <Genealogy>  (28) 
CSc1ccc(C(=O)Nc2cccc(S(=O)(=O)N3CCCC3)c2)cn1 (3D coordinates assigned)
CSc1ccc(C(=O)Nc2cccc(S(=O)(=O)N3CCCC3)c2)cn1 (nonaromatic ring conformer: 48.97270674630441 kcal/mol)

>  <smiles>  (28) 
CSc1ccc(C(=O)Nc2cccc(S(=O)(=O)N3CCCC3)c2)cn1

>  <score_type>  (28) 
oracle

>  <origin>  (28) 
adgpu

>  <m_score__min__energy>  (28) 
-9.1199999999999992

>  <m_primary>  (28) 
energy

$$$$
28:0
     RDKit          3D

 53 55  0  0  1  0  0  0  0  0999 V2000
   -4.8380   14.9790  -33.3300 C   0  0  0  0  0  0  0  0  0  0  0  0
   -5.4420   15.8650  -34.2460 O   0  0  0  0  0  0  0  0  0  0  0  0
   -6.0860   17.0080  -33.8290 C   0  0  0  0  0  0  0  0  0  0  0  0
   -6.9360   17.0540  -32.7330 C   0  0  0  0  0  0  0  0  0  0  0  0
   -7.5630   18.2450  -32.3560 C   0  0  0  0  0  0  0  0  0  0  0  0
   -7.3240   19.3740  -33.0910 C   0  0  0  0  0  0  0  0  0  0  0  0
   -7.8950   20.6150  -32.8070 O   0  0  0  0  0  0  0  0  0  0  0  0
   -7.0910   21.5450  -32.1230 C   0  0  0  0  0  0  0  0  0  0  0  0
   -5.8030   21.1500  -31.8580 C   0  0  0  0  0  0  0  0  0  0  0  0
   -4.9460   21.9870  -31.1970 C   0  0  0  0  0  0  0  0  0  0  0  0
   -5.3980   23.2500  -30.7980 C   0  0  0  0  0  0  0  0  0  0  0  0
   -4.2510   24.2580  -29.9630 S   0  0  0  0  0  0  0  0  0  0  0  0
   -4.9140   24.7790  -28.7180 O   0  0  0  0  0  0  0  0  0  0  0  0
   -3.8750   25.4040  -30.8350 O   0  0  0  0  0  0  0  0  0  0  0  0
   -2.7830   23.3760  -29.5010 C   0  0  0  0  0  0  0  0  0  0  0  0
   -1.7480   24.3110  -29.0200 C   0  0  0  0  0  0  0  0  0  0  0  0
   -2.0510   25.6800  -28.9730 O   0  0  0  0  0  0  0  0  0  0  0  0
   -0.5690   23.9620  -28.6340 N   0  0  0  0  0  0  0  0  0  0  0  0
    0.3240   24.9130  -28.2020 O   0  0  0  0  0  0  0  0  0  0  0  0
   -2.2750   22.7170  -30.7620 C   0  0  0  0  0  0  0  0  0  0  0  0
   -1.1640   21.7430  -30.5460 C   0  0  0  0  0  0  0  0  0  0  0  0
   -1.3970   20.8060  -29.4900 N   0  0  0  0  0  0  0  0  0  0  0  0
   -0.1300   20.1670  -29.1640 C   0  0  0  0  0  0  0  0  0  0  0  0
   -1.8760   21.4330  -28.2760 C   0  0  0  0  0  0  0  0  0  0  0  0
   -3.0700   22.2980  -28.4930 C   0  0  0  0  0  0  0  0  0  0  0  0
   -6.6990   23.6450  -31.0680 C   0  0  0  0  0  0  0  0  0  0  0  0
   -7.5660   22.7810  -31.7440 C   0  0  0  0  0  0  0  0  0  0  0  0
   -6.4740   19.3410  -34.1930 C   0  0  0  0  0  0  0  0  0  0  0  0
   -5.8500   18.1660  -34.5730 C   0  0  0  0  0  0  0  0  0  0  0  0
   -5.0604   15.3052  -32.3033 H   0  0  0  0  0  0  0  0  0  0  0  0
   -5.2334   13.9644  -33.4861 H   0  0  0  0  0  0  0  0  0  0  0  0
   -3.7491   14.9763  -33.4861 H   0  0  0  0  0  0  0  0  0  0  0  0
   -7.1193   16.1384  -32.1516 H   0  0  0  0  0  0  0  0  0  0  0  0
   -8.2352   18.2740  -31.4857 H   0  0  0  0  0  0  0  0  0  0  0  0
   -5.4585   20.1558  -32.1787 H   0  0  0  0  0  0  0  0  0  0  0  0
   -3.9145   21.6712  -30.9818 H   0  0  0  0  0  0  0  0  0  0  0  0
   -2.9460   26.0390  -29.3350 H   0  0  0  0  0  0  0  0  0  0  0  0
    0.3020   25.8750  -28.5180 H   0  0  0  0  0  0  0  0  0  0  0  0
   -3.1137   22.1830  -31.2327 H   0  0  0  0  0  0  0  0  0  0  0  0
   -1.8687   23.5207  -31.3937 H   0  0  0  0  0  0  0  0  0  0  0  0
   -1.0138   21.1798  -31.4789 H   0  0  0  0  0  0  0  0  0  0  0  0
   -0.2820   22.3321  -30.2544 H   0  0  0  0  0  0  0  0  0  0  0  0
   -0.0183   20.1106  -28.0711 H   0  0  0  0  0  0  0  0  0  0  0  0
   -0.1117   19.1519  -29.5873 H   0  0  0  0  0  0  0  0  0  0  0  0
    0.6972   20.7557  -29.5873 H   0  0  0  0  0  0  0  0  0  0  0  0
   -2.1419   20.6443  -27.5567 H   0  0  0  0  0  0  0  0  0  0  0  0
   -1.0683   22.0791  -27.9015 H   0  0  0  0  0  0  0  0  0  0  0  0
   -3.9015   21.6772  -28.8581 H   0  0  0  0  0  0  0  0  0  0  0  0
   -3.3334   22.7751  -27.5375 H   0  0  0  0  0  0  0  0  0  0  0  0
   -7.0494   24.6382  -30.7504 H   0  0  0  0  0  0  0  0  0  0  0  0
   -8.6006   23.0807  -31.9673 H   0  0  0  0  0  0  0  0  0  0  0  0
   -6.2961   20.2610  -34.7691 H   0  0  0  0  0  0  0  0  0  0  0  0
   -5.1802   18.1444  -35.4453 H   0  0  0  0  0  0  0  0  0  0  0  0
  1  2  1  0
  2  3  1  0
  3  4  2  0
  4  5  1  0
  5  6  2  0
  6  7  1  0
  7  8  1  0
  8  9  2  0
  9 10  1  0
 10 11  2  0
 11 12  1  0
 12 13  2  0
 12 14  2  0
 12 15  1  0
 15 16  1  0
 16 17  1  0
 16 18  2  0
 18 19  1  0
 15 20  1  0
 20 21  1  0
 21 22  1  0
 22 23  1  0
 22 24  1  0
 24 25  1  0
 11 26  1  0
 26 27  2  0
  6 28  1  0
 28 29  2  0
 29  3  1  0
 27  8  1  0
 25 15  1  0
  1 30  1  0
  1 31  1  0
  1 32  1  0
  4 33  1  0
  5 34  1  0
  9 35  1  0
 10 36  1  0
 17 37  1  0
 19 38  1  0
 20 39  1  0
 20 40  1  0
 21 41  1  0
 21 42  1  0
 23 43  1  0
 23 44  1  0
 23 45  1  0
 24 46  1  0
 24 47  1  0
 25 48  1  0
 25 49  1  0
 26 50  1  0
 27 51  1  0
 28 52  1  0
 29 53  1  0
M  END
>  <smiles>  (29) 
COc1ccc(Oc2ccc(S(=O)(=O)C3(C(O)=NO)CCN(C)CC3)cc2)cc1

>  <score_type>  (29) 
oracle

>  <origin>  (29) 
adgpu

>  <m_score__min__energy>  (29) 
-10.44

>  <m_primary>  (29) 
energy

$$$$
29:0
     RDKit          3D

 58 62  0  0  0  0  0  0  0  0999 V2000
   -1.8780   20.7980  -34.8130 H   0  0  0  0  0  0  0  0  0  0  0  0
   -1.2170   21.3650  -34.3440 O   0  0  0  0  0  0  0  0  0  0  0  0
   -0.4440   20.3190  -33.2820 S   0  0  0  0  0  0  0  0  0  0  0  0
   -0.6900   18.6520  -33.7670 C   0  0  0  0  0  0  0  0  0  0  0  0
   -0.4150   18.2590  -35.0810 C   0  0  0  0  0  0  0  0  0  0  0  0
   -0.0450   18.9960  -35.8090 H   0  0  0  0  0  0  0  0  0  0  0  0
   -0.6100   16.9300  -35.4700 C   0  0  0  0  0  0  0  0  0  0  0  0
   -0.4034   16.6279  -36.5073 H   0  0  0  0  0  0  0  0  0  0  0  0
   -1.0670   15.9810  -34.5460 C   0  0  0  0  0  0  0  0  0  0  0  0
   -1.2670   14.6280  -34.9820 N   0  0  0  0  0  0  0  0  0  0  0  0
   -2.4760   13.8680  -34.8480 C   0  0  0  0  0  0  0  0  0  0  0  0
   -2.9850   13.3650  -35.8820 O   0  0  0  0  0  0  0  0  0  0  0  0
   -3.0830   13.6030  -33.5210 C   0  0  0  0  0  0  0  0  0  0  0  0
   -2.2570   13.1330  -32.4820 C   0  0  0  0  0  0  0  0  0  0  0  0
   -1.2006   12.9053  -32.6874 H   0  0  0  0  0  0  0  0  0  0  0  0
   -2.7640   12.9530  -31.1950 C   0  0  0  0  0  0  0  0  0  0  0  0
   -2.1099   12.5769  -30.3946 H   0  0  0  0  0  0  0  0  0  0  0  0
   -4.0980   13.2490  -30.9220 C   0  0  0  0  0  0  0  0  0  0  0  0
   -4.4929   13.1194  -29.9036 H   0  0  0  0  0  0  0  0  0  0  0  0
   -4.9330   13.7100  -31.9410 C   0  0  0  0  0  0  0  0  0  0  0  0
   -5.9815   13.9557  -31.7168 H   0  0  0  0  0  0  0  0  0  0  0  0
   -4.4480   13.8630  -33.2480 C   0  0  0  0  0  0  0  0  0  0  0  0
   -5.5790   14.4790  -34.5100 S   0  0  0  0  0  0  0  0  0  0  0  0
   -5.4230   16.1960  -33.9990 C   0  0  0  0  0  0  0  0  0  0  0  0
   -6.3080   16.7430  -33.0380 C   0  0  0  0  0  0  0  0  0  0  0  0
   -7.0995   16.1131  -32.6058 H   0  0  0  0  0  0  0  0  0  0  0  0
   -6.1850   18.0830  -32.6310 C   0  0  0  0  0  0  0  0  0  0  0  0
   -6.8526   18.5091  -31.8677 H   0  0  0  0  0  0  0  0  0  0  0  0
   -5.1860   18.8550  -33.2290 C   0  0  0  0  0  0  0  0  0  0  0  0
   -4.7630   20.1620  -33.0590 C   0  0  0  0  0  0  0  0  0  0  0  0
   -5.3070   21.2090  -32.1760 C   0  0  0  0  0  0  0  0  0  0  0  0
   -6.0667   20.9308  -31.4307 H   0  0  0  0  0  0  0  0  0  0  0  0
   -4.9110   22.4870  -32.2470 C   0  0  0  0  0  0  0  0  0  0  0  0
   -4.1647   22.7553  -33.0093 H   0  0  0  0  0  0  0  0  0  0  0  0
   -5.4170   23.5590  -31.3620 C   0  0  0  0  0  0  0  0  0  0  0  0
   -4.6040   24.6250  -31.1170 N   0  0  0  0  0  0  0  0  0  0  0  0
   -4.9880   25.6650  -30.3300 C   0  0  0  0  0  0  0  0  0  0  0  0
   -4.2990   26.5041  -30.1535 H   0  0  0  0  0  0  0  0  0  0  0  0
   -6.2550   25.6690  -29.7460 C   0  0  0  0  0  0  0  0  0  0  0  0
   -6.5692   26.5055  -29.1044 H   0  0  0  0  0  0  0  0  0  0  0  0
   -7.1190   24.6000  -29.9850 C   0  0  0  0  0  0  0  0  0  0  0  0
   -8.1223   24.5914  -29.5342 H   0  0  0  0  0  0  0  0  0  0  0  0
   -6.7080   23.5400  -30.7980 C   0  0  0  0  0  0  0  0  0  0  0  0
   -7.3871   22.6976  -30.9960 H   0  0  0  0  0  0  0  0  0  0  0  0
   -3.6780   20.3460  -33.8480 N   0  0  0  0  0  0  0  0  0  0  0  0
   -3.1260   21.2280  -33.9340 H   0  0  0  0  0  0  0  0  0  0  0  0
   -3.4070   19.2340  -34.5230 N   0  0  0  0  0  0  0  0  0  0  0  0
   -4.3220   18.3240  -34.1500 C   0  0  0  0  0  0  0  0  0  0  0  0
   -4.4150   17.0000  -34.5690 C   0  0  0  0  0  0  0  0  0  0  0  0
   -3.7234   16.5935  -35.3216 H   0  0  0  0  0  0  0  0  0  0  0  0
   -1.3690   16.3870  -33.2330 C   0  0  0  0  0  0  0  0  0  0  0  0
   -1.7618   15.6573  -32.5096 H   0  0  0  0  0  0  0  0  0  0  0  0
   -1.1710   17.7150  -32.8460 C   0  0  0  0  0  0  0  0  0  0  0  0
   -1.3939   18.0246  -31.8143 H   0  0  0  0  0  0  0  0  0  0  0  0
   -0.9670   20.5980  -31.6060 C   0  0  0  0  0  0  0  0  0  0  0  0
   -0.2122   20.1953  -30.9145 H   0  0  0  0  0  0  0  0  0  0  0  0
   -1.0835   21.6781  -31.4332 H   0  0  0  0  0  0  0  0  0  0  0  0
   -1.9289   20.0932  -31.4332 H   0  0  0  0  0  0  0  0  0  0  0  0
  1  2  1  0
  3  2  1  6
  3  4  1  0
  4  5  2  0
  5  6  1  0
  5  7  1  0
  7  8  1  0
  7  9  2  0
  9 10  1  0
 10 11  1  0
 11 12  2  0
 11 13  1  0
 13 14  2  0
 14 15  1  0
 14 16  1  0
 16 17  1  0
 16 18  2  0
 18 19  1  0
 18 20  1  0
 20 21  1  0
 20 22  2  0
 22 23  1  0
 23 24  1  0
 24 25  1  0
 25 26  1  0
 25 27  2  0
 27 28  1  0
 27 29  1  0
 29 30  2  0
 30 31  1  0
 31 32  1  0
 31 33  2  0
 33 34  1  0
 33 35  1  0
 35 36  2  0
 36 37  1  0
 37 38  1  0
 37 39  2  0
 39 40  1  0
 39 41  1  0
 41 42  1  0
 41 43  2  0
 43 44  1  0
 30 45  1  0
 45 46  1  0
 45 47  1  0
 47 48  2  0
 48 49  1  0
 49 50  1  0
  9 51  1  0
 51 52  1  0
 51 53  2  0
 53 54  1  0
  3 55  1  0
 55 56  1  0
 55 57  1  0
 55 58  1  0
 53  4  1  0
 22 13  1  0
 49 24  2  0
 48 29  1  0
 43 35  1  0
M  CHG  2   3   1  10  -1
M  END
>  <UniqueID>  (30) 
29

>  <SMILES>  (30) 
C[S@+](O)c1ccc([N-]C(=O)c2ccccc2Sc2ccc3c(/C=C/c4ccccn4)[nH]nc3c2)cc1

>  <Energy>  (30) 
109.75099080592317

>  <Genealogy>  (30) 
C[S+](O)c1ccc([N-]C(=O)c2ccccc2Sc2ccc3c(C=Cc4ccccn4)[nH]nc3c2)cc1 (protonated)
C[S@+](O)c1ccc([N-]C(=O)c2ccccc2Sc2ccc3c(C=Cc4ccccn4)[nH]nc3c2)cc1 (chirality)
C[S@+](O)c1ccc([N-]C(=O)c2ccccc2Sc2ccc3c(/C=C/c4ccccn4)[nH]nc3c2)cc1 (cis-trans isomerization)
C[S@+](O)c1ccc([N-]C(=O)c2ccccc2Sc2ccc3c(/C=C/c4ccccn4)[nH]nc3c2)cc1 (3D coordinates assigned)
C[S@+](O)c1ccc([N-]C(=O)c2ccccc2Sc2ccc3c(/C=C/c4ccccn4)[nH]nc3c2)cc1 (optimized conformer: 109.75099080592317 kcal/mol)

>  <smiles>  (30) 
C[S+]([O-])c1ccc(NC(=O)c2ccccc2Sc2ccc3c(C=Cc4ccccn4)[nH]nc3c2)cc1

>  <score_type>  (30) 
oracle

>  <origin>  (30) 
adgpu

>  <m_score__min__energy>  (30) 
-12.42

>  <m_primary>  (30) 
energy

$$$$
30:0
     RDKit          3D

 50 53  0  0  0  0  0  0  0  0999 V2000
   -6.0680   17.6560  -34.2040 C   0  0  0  0  0  0  0  0  0  0  0  0
   -5.5580   18.9560  -33.6640 C   0  0  0  0  0  0  0  0  0  0  0  0
   -4.3560   19.2700  -33.8710 O   0  0  0  0  0  0  0  0  0  0  0  0
   -6.4130   19.8100  -32.8810 N   0  0  0  0  0  0  0  0  0  0  0  0
   -7.8050   19.4920  -32.5500 C   0  0  0  0  0  0  0  0  0  0  0  0
   -8.2860   20.5970  -31.5820 C   0  0  0  0  0  0  0  0  0  0  0  0
   -7.1040   21.4920  -31.4700 C   0  0  0  0  0  0  0  0  0  0  0  0
   -7.0100   22.6890  -30.7570 C   0  0  0  0  0  0  0  0  0  0  0  0
   -5.8130   23.4240  -30.8280 C   0  0  0  0  0  0  0  0  0  0  0  0
   -5.6670   24.9820  -30.0200 S   0  0  0  0  0  0  0  0  0  0  0  0
   -5.1340   26.0270  -30.9620 O   0  0  0  0  0  0  0  0  0  0  0  0
   -7.0260   25.4060  -29.5410 O   0  0  0  0  0  0  0  0  0  0  0  0
   -4.5940   24.8350  -28.6640 N   0  0  0  0  0  0  0  0  0  0  0  0
   -3.5080   23.8920  -28.6260 C   0  0  0  0  0  0  0  0  0  0  0  0
   -3.7260   22.5520  -28.2580 C   0  0  0  0  0  0  0  0  0  0  0  0
   -2.6590   21.6470  -28.1720 C   0  0  0  0  0  0  0  0  0  0  0  0
   -1.3600   22.0670  -28.5220 C   0  0  0  0  0  0  0  0  0  0  0  0
   -1.1430   23.3990  -28.9020 C   0  0  0  0  0  0  0  0  0  0  0  0
   -2.2070   24.3040  -28.9590 C   0  0  0  0  0  0  0  0  0  0  0  0
   -1.9580   25.6210  -29.3320 O   0  0  0  0  0  0  0  0  0  0  0  0
   -0.1850   21.1290  -28.3850 C   0  0  0  0  0  0  0  0  0  0  0  0
   -0.6130   19.7160  -28.4200 N   0  0  0  0  0  0  0  0  0  0  0  0
    0.5420   18.8370  -28.1800 C   0  0  0  0  0  0  0  0  0  0  0  0
   -1.6520   19.4750  -27.4030 C   0  0  0  0  0  0  0  0  0  0  0  0
   -2.9330   20.2150  -27.7910 C   0  0  0  0  0  0  0  0  0  0  0  0
   -4.7430   22.9460  -31.6120 C   0  0  0  0  0  0  0  0  0  0  0  0
   -4.8630   21.7400  -32.3200 C   0  0  0  0  0  0  0  0  0  0  0  0
   -6.0610   21.0200  -32.2200 C   0  0  0  0  0  0  0  0  0  0  0  0
   -6.3295   16.9894  -33.3690 H   0  0  0  0  0  0  0  0  0  0  0  0
   -6.9607   17.8397  -34.8199 H   0  0  0  0  0  0  0  0  0  0  0  0
   -5.2885   17.1837  -34.8199 H   0  0  0  0  0  0  0  0  0  0  0  0
   -8.4217   19.4892  -33.4609 H   0  0  0  0  0  0  0  0  0  0  0  0
   -7.8886   18.4956  -32.0914 H   0  0  0  0  0  0  0  0  0  0  0  0
   -9.1503   21.1359  -31.9974 H   0  0  0  0  0  0  0  0  0  0  0  0
   -8.6210   20.2029  -30.6112 H   0  0  0  0  0  0  0  0  0  0  0  0
   -7.8550   23.0497  -30.1521 H   0  0  0  0  0  0  0  0  0  0  0  0
   -4.8620   25.3460  -27.7930 H   0  0  0  0  0  0  0  0  0  0  0  0
   -4.7473   22.2097  -28.0348 H   0  0  0  0  0  0  0  0  0  0  0  0
   -0.1271   23.7347  -29.1574 H   0  0  0  0  0  0  0  0  0  0  0  0
    0.5158   21.3107  -29.2132 H   0  0  0  0  0  0  0  0  0  0  0  0
    0.2971   21.3195  -27.4148 H   0  0  0  0  0  0  0  0  0  0  0  0
    0.6952   18.7204  -27.0970 H   0  0  0  0  0  0  0  0  0  0  0  0
    0.3533   17.8520  -28.6318 H   0  0  0  0  0  0  0  0  0  0  0  0
    1.4411   19.2814  -28.6318 H   0  0  0  0  0  0  0  0  0  0  0  0
   -1.8578   18.3963  -27.3387 H   0  0  0  0  0  0  0  0  0  0  0  0
   -1.2999   19.8421  -26.4277 H   0  0  0  0  0  0  0  0  0  0  0  0
   -3.3956   19.7013  -28.6466 H   0  0  0  0  0  0  0  0  0  0  0  0
   -3.6045   20.2157  -26.9197 H   0  0  0  0  0  0  0  0  0  0  0  0
   -3.8077   23.5222  -31.6692 H   0  0  0  0  0  0  0  0  0  0  0  0
   -4.0342   21.3679  -32.9402 H   0  0  0  0  0  0  0  0  0  0  0  0
  1  2  1  0
  2  3  2  0
  2  4  1  0
  4  5  1  0
  5  6  1  0
  6  7  1  0
  7  8  2  0
  8  9  1  0
  9 10  1  0
 10 11  2  0
 10 12  2  0
 10 13  1  0
 13 14  1  0
 14 15  2  0
 15 16  1  0
 16 17  2  0
 17 18  1  0
 18 19  2  0
 19 20  1  0
 17 21  1  0
 21 22  1  0
 22 23  1  0
 22 24  1  0
 24 25  1  0
  9 26  2  0
 26 27  1  0
 27 28  2  0
 28  4  1  0
 28  7  1  0
 19 14  1  0
 25 16  1  0
  1 29  1  0
  1 30  1  0
  1 31  1  0
  5 32  1  0
  5 33  1  0
  6 34  1  0
  6 35  1  0
  8 36  1  0
 13 37  1  0
 15 38  1  0
 18 39  1  0
 21 40  1  0
 21 41  1  0
 23 42  1  0
 23 43  1  0
 23 44  1  0
 24 45  1  0
 24 46  1  0
 25 47  1  0
 25 48  1  0
 26 49  1  0
 27 50  1  0
M  CHG  1  20  -1
M  END
>  <UniqueID>  (31) 
30

>  <SMILES>  (31) 
CC(=O)N1CCc2cc(S(=O)(=O)Nc3cc4c(cc3[O-])CN(C)CC4)ccc21

>  <Energy>  (31) 
72.37120105047781

>  <Genealogy>  (31) 
CC(=O)N1CCc2cc(S(=O)(=O)Nc3cc4c(cc3[O-])CN(C)CC4)ccc21 (protonated)
CC(=O)N1CCc2cc(S(=O)(=O)Nc3cc4c(cc3[O-])CN(C)CC4)ccc21 (3D coordinates assigned)
CC(=O)N1CCc2cc(S(=O)(=O)Nc3cc4c(cc3[O-])CN(C)CC4)ccc21 (nonaromatic ring conformer: 72.37120105047781 kcal/mol)

>  <smiles>  (31) 
CC(=O)N1CCc2cc(S(=O)(=O)Nc3cc4c(cc3O)CN(C)CC4)ccc21

>  <score_type>  (31) 
oracle

>  <origin>  (31) 
adgpu

>  <m_score__min__energy>  (31) 
-14.300000000000001

>  <m_primary>  (31) 
energy

$$$$
31:0
     RDKit          3D

 33 35  0  0  0  0  0  0  0  0999 V2000
   -8.9400   23.5230  -31.5830 H   0  0  0  0  0  0  0  0  0  0  0  0
   -7.9710   23.7000  -31.2380 N   0  0  0  0  0  0  0  0  0  0  0  0
   -7.0000   22.8420  -31.3170 C   0  0  0  0  0  0  0  0  0  0  0  0
   -5.7830   23.1970  -30.8290 N   0  0  0  0  0  0  0  0  0  0  0  0
   -4.7050   22.3700  -30.8520 C   0  0  0  0  0  0  0  0  0  0  0  0
   -3.4130   22.8450  -30.2950 C   0  0  0  0  0  0  0  0  0  0  0  0
   -3.2790   24.1780  -29.8810 C   0  0  0  0  0  0  0  0  0  0  0  0
   -4.1335   24.8646  -29.9725 H   0  0  0  0  0  0  0  0  0  0  0  0
   -2.0730   24.6430  -29.3540 C   0  0  0  0  0  0  0  0  0  0  0  0
   -1.9650   25.9740  -28.9660 O   0  0  0  0  0  0  0  0  0  0  0  0
   -0.9760   23.7830  -29.2170 C   0  0  0  0  0  0  0  0  0  0  0  0
    0.2120   24.3140  -28.7080 O   0  0  0  0  0  0  0  0  0  0  0  0
    0.3830   25.3010  -28.5830 H   0  0  0  0  0  0  0  0  0  0  0  0
   -1.1030   22.4270  -29.6040 C   0  0  0  0  0  0  0  0  0  0  0  0
   -0.0300   21.4860  -29.4450 N   0  0  0  0  0  0  0  0  0  0  0  0
    0.8420   21.7020  -28.9190 H   0  0  0  0  0  0  0  0  0  0  0  0
   -0.1250   20.5140  -29.8150 H   0  0  0  0  0  0  0  0  0  0  0  0
   -2.3180   21.9750  -30.1420 C   0  0  0  0  0  0  0  0  0  0  0  0
   -2.4157   20.9233  -30.4491 H   0  0  0  0  0  0  0  0  0  0  0  0
   -4.8360   21.0950  -31.4250 C   0  0  0  0  0  0  0  0  0  0  0  0
   -3.9697   20.4181  -31.4606 H   0  0  0  0  0  0  0  0  0  0  0  0
   -6.0680   20.6820  -31.9520 C   0  0  0  0  0  0  0  0  0  0  0  0
   -6.1600   19.3330  -32.5640 C   0  0  0  0  0  0  0  0  0  0  0  0
   -5.8160   19.0780  -33.8900 C   0  0  0  0  0  0  0  0  0  0  0  0
   -5.4267   19.8140  -34.6089 H   0  0  0  0  0  0  0  0  0  0  0  0
   -6.0990   17.4520  -34.2000 S   0  0  0  0  0  0  0  0  0  0  0  0
   -6.6680   17.0530  -32.6710 C   0  0  0  0  0  0  0  0  0  0  0  0
   -7.0009   16.0564  -32.3456 H   0  0  0  0  0  0  0  0  0  0  0  0
   -6.6450   18.1990  -31.8900 C   0  0  0  0  0  0  0  0  0  0  0  0
   -6.9755   18.2185  -30.8410 H   0  0  0  0  0  0  0  0  0  0  0  0
   -7.1770   21.5590  -31.8870 C   0  0  0  0  0  0  0  0  0  0  0  0
   -8.4820   21.1280  -32.3460 C   0  0  0  0  0  0  0  0  0  0  0  0
   -9.5260   20.7850  -32.7110 N   0  0  0  0  0  0  0  0  0  0  0  0
  1  2  1  0
  2  3  2  0
  3  4  1  0
  4  5  1  0
  5  6  1  0
  6  7  2  0
  7  8  1  0
  7  9  1  0
  9 10  1  0
  9 11  2  0
 11 12  1  0
 12 13  1  0
 11 14  1  0
 14 15  1  0
 15 16  1  0
 15 17  1  0
 14 18  2  0
 18 19  1  0
  5 20  2  0
 20 21  1  0
 20 22  1  0
 22 23  1  0
 23 24  2  0
 24 25  1  0
 24 26  1  0
 26 27  1  0
 27 28  1  0
 27 29  2  0
 29 30  1  0
 22 31  2  0
 31 32  1  0
 32 33  3  0
 31  3  1  0
 18  6  1  0
 29 23  1  0
M  CHG  2   4  -1  10  -1
M  END
>  <UniqueID>  (32) 
31

>  <SMILES>  (32) 
[H]/N=c1/[n-]c(-c2cc(N)c(O)c([O-])c2)cc(-c2ccsc2)c1C#N

>  <Energy>  (32) 
76.6277953413864

>  <Genealogy>  (32) 
N#Cc1c(-c2ccsc2)cc(-c2cc(N)c(O)c([O-])c2)[n-]c1=N (protonated)
[H]/N=c1/[n-]c(-c2cc(N)c(O)c([O-])c2)cc(-c2ccsc2)c1C#N (cis-trans isomerization)
[H]/N=c1/[n-]c(-c2cc(N)c(O)c([O-])c2)cc(-c2ccsc2)c1C#N (3D coordinates assigned)
[H]/N=c1/[n-]c(-c2cc(N)c(O)c([O-])c2)cc(-c2ccsc2)c1C#N (optimized conformer: 76.6277953413864 kcal/mol)

>  <smiles>  (32) 
N#Cc1c(-c2ccsc2)cc(-c2cc(N)c(O)c(O)c2)[nH]c1=N

>  <score_type>  (32) 
oracle

>  <origin>  (32) 
adgpu

>  <m_score__min__energy>  (32) 
-10.5

>  <m_primary>  (32) 
energy

$$$$
32:0
     RDKit          3D

 50 53  0  0  0  0  0  0  0  0999 V2000
   -4.0690   25.5010  -30.8610 O   0  0  0  0  0  0  0  0  0  0  0  0
   -3.6660   24.9140  -29.8200 C   0  0  0  0  0  0  0  0  0  0  0  0
   -4.5230   23.8500  -29.1850 C   0  0  0  0  0  0  0  0  0  0  0  0
   -5.4360   23.2020  -30.2080 C   0  0  0  0  0  0  0  0  0  0  0  0
   -6.8130   23.4880  -30.1340 C   0  0  0  0  0  0  0  0  0  0  0  0
   -7.7130   22.9240  -31.0350 C   0  0  0  0  0  0  0  0  0  0  0  0
   -7.2630   22.0540  -32.0240 C   0  0  0  0  0  0  0  0  0  0  0  0
   -5.9040   21.7300  -32.1160 C   0  0  0  0  0  0  0  0  0  0  0  0
   -5.4640   20.8400  -33.1090 C   0  0  0  0  0  0  0  0  0  0  0  0
   -4.1160   20.4960  -33.2010 C   0  0  0  0  0  0  0  0  0  0  0  0
   -3.1940   21.0330  -32.3030 C   0  0  0  0  0  0  0  0  0  0  0  0
   -3.6120   21.9230  -31.3090 C   0  0  0  0  0  0  0  0  0  0  0  0
   -4.9720   22.2950  -31.2010 C   0  0  0  0  0  0  0  0  0  0  0  0
   -2.3760   25.2540  -29.2970 N   0  0  0  0  0  0  0  0  0  0  0  0
   -1.8230   24.8350  -28.0410 C   0  0  0  0  0  0  0  0  0  0  0  0
   -1.7110   23.4750  -27.7010 C   0  0  0  0  0  0  0  0  0  0  0  0
   -1.2050   23.1020  -26.4530 C   0  0  0  0  0  0  0  0  0  0  0  0
   -0.8330   24.0780  -25.5250 C   0  0  0  0  0  0  0  0  0  0  0  0
   -0.9750   25.4360  -25.8390 C   0  0  0  0  0  0  0  0  0  0  0  0
   -0.5170   26.6580  -24.6550 S   0  0  0  0  0  0  0  0  0  0  0  0
   -1.6210   26.7950  -23.6430 O   0  0  0  0  0  0  0  0  0  0  0  0
   -0.3240   27.9850  -25.3380 O   0  0  0  0  0  0  0  0  0  0  0  0
    0.9540   26.1670  -23.8560 N   0  0  0  0  0  0  0  0  0  0  0  0
    1.8580   25.4550  -24.7630 C   0  0  0  0  0  0  0  0  0  0  0  0
    3.2650   25.6620  -24.2220 C   0  0  0  0  0  0  0  0  0  0  0  0
    3.1800   26.8940  -23.3320 C   0  0  0  0  0  0  0  0  0  0  0  0
    1.7150   27.3170  -23.3570 C   0  0  0  0  0  0  0  0  0  0  0  0
   -1.4700   25.8090  -27.0990 C   0  0  0  0  0  0  0  0  0  0  0  0
   -3.8724   23.0798  -28.7451 H   0  0  0  0  0  0  0  0  0  0  0  0
   -5.1453   24.3196  -28.4090 H   0  0  0  0  0  0  0  0  0  0  0  0
   -7.1835   24.1675  -29.3523 H   0  0  0  0  0  0  0  0  0  0  0  0
   -8.7835   23.1670  -30.9648 H   0  0  0  0  0  0  0  0  0  0  0  0
   -7.9788   21.6188  -32.7369 H   0  0  0  0  0  0  0  0  0  0  0  0
   -6.1872   20.4116  -33.8186 H   0  0  0  0  0  0  0  0  0  0  0  0
   -3.7791   19.7998  -33.9832 H   0  0  0  0  0  0  0  0  0  0  0  0
   -2.1323   20.7549  -32.3771 H   0  0  0  0  0  0  0  0  0  0  0  0
   -2.8761   22.3377  -30.6044 H   0  0  0  0  0  0  0  0  0  0  0  0
   -2.0226   22.7026  -28.4196 H   0  0  0  0  0  0  0  0  0  0  0  0
   -1.0992   22.0366  -26.2004 H   0  0  0  0  0  0  0  0  0  0  0  0
   -0.4281   23.7798  -24.5466 H   0  0  0  0  0  0  0  0  0  0  0  0
    0.7040   25.5450  -23.0520 H   0  0  0  0  0  0  0  0  0  0  0  0
    1.6117   24.3831  -24.7808 H   0  0  0  0  0  0  0  0  0  0  0  0
    1.7680   25.8334  -25.7919 H   0  0  0  0  0  0  0  0  0  0  0  0
    3.5851   24.7867  -23.6377 H   0  0  0  0  0  0  0  0  0  0  0  0
    3.9988   25.7923  -25.0311 H   0  0  0  0  0  0  0  0  0  0  0  0
    3.4915   26.6488  -22.3059 H   0  0  0  0  0  0  0  0  0  0  0  0
    3.8422   27.6982  -23.6854 H   0  0  0  0  0  0  0  0  0  0  0  0
    1.3796   27.5829  -22.3437 H   0  0  0  0  0  0  0  0  0  0  0  0
    1.5680   28.1981  -23.9990 H   0  0  0  0  0  0  0  0  0  0  0  0
   -1.5813   26.8747  -27.3480 H   0  0  0  0  0  0  0  0  0  0  0  0
  1  2  2  0
  2  3  1  0
  3  4  1  0
  4  5  2  0
  5  6  1  0
  6  7  2  0
  7  8  1  0
  8  9  2  0
  9 10  1  0
 10 11  2  0
 11 12  1  0
 12 13  2  0
  2 14  1  0
 14 15  1  0
 15 16  2  0
 16 17  1  0
 17 18  2  0
 18 19  1  0
 19 20  1  0
 20 21  2  0
 20 22  2  0
 20 23  1  0
 23 24  1  0
 24 25  1  0
 25 26  1  0
 26 27  1  0
 19 28  2  0
 13  4  1  0
 28 15  1  0
 13  8  1  0
 27 23  1  0
  3 29  1  0
  3 30  1  0
  5 31  1  0
  6 32  1  0
  7 33  1  0
  9 34  1  0
 10 35  1  0
 11 36  1  0
 12 37  1  0
 16 38  1  0
 17 39  1  0
 18 40  1  0
 23 41  1  0
 24 42  1  0
 24 43  1  0
 25 44  1  0
 25 45  1  0
 26 46  1  0
 26 47  1  0
 27 48  1  0
 27 49  1  0
 28 50  1  0
M  CHG  2  14  -1  23   1
M  END
>  <UniqueID>  (33) 
32

>  <SMILES>  (33) 
O=C(Cc1cccc2ccccc12)[N-]c1cccc(S(=O)(=O)[NH+]2CCCC2)c1

>  <Energy>  (33) 
64.07012144423399

>  <Genealogy>  (33) 
O=C(Cc1cccc2ccccc12)[N-]c1cccc(S(=O)(=O)[NH+]2CCCC2)c1 (protonated)
O=C(Cc1cccc2ccccc12)[N-]c1cccc(S(=O)(=O)[NH+]2CCCC2)c1 (3D coordinates assigned)
O=C(Cc1cccc2ccccc12)[N-]c1cccc(S(=O)(=O)[NH+]2CCCC2)c1 (nonaromatic ring conformer: 64.07012144423399 kcal/mol)

>  <smiles>  (33) 
O=C(Cc1cccc2ccccc12)Nc1cccc(S(=O)(=O)N2CCCC2)c1

>  <score_type>  (33) 
oracle

>  <origin>  (33) 
adgpu

>  <m_score__min__energy>  (33) 
-11.869999999999999

>  <m_primary>  (33) 
energy

$$$$
33:0
     RDKit          3D

 51 54  0  0  0  0  0  0  0  0999 V2000
    1.7400   20.4260  -34.9230 C   0  0  0  0  0  0  0  0  0  0  0  0
    0.2710   21.1360  -34.2120 S   0  0  0  0  0  0  0  0  0  0  0  0
   -0.1180   22.3590  -34.9940 O   0  0  0  0  0  0  0  0  0  0  0  0
    0.5370   21.5340  -32.7870 O   0  0  0  0  0  0  0  0  0  0  0  0
   -1.0220   19.9440  -34.2610 C   0  0  0  0  0  0  0  0  0  0  0  0
   -0.7560   18.6140  -34.6120 C   0  0  0  0  0  0  0  0  0  0  0  0
   -1.7830   17.6680  -34.6010 C   0  0  0  0  0  0  0  0  0  0  0  0
   -3.0750   18.0390  -34.2200 C   0  0  0  0  0  0  0  0  0  0  0  0
   -3.3510   19.3650  -33.8500 C   0  0  0  0  0  0  0  0  0  0  0  0
   -4.6960   19.7550  -33.3780 C   0  0  0  0  0  0  0  0  0  0  0  0
   -5.6500   19.7970  -34.1980 O   0  0  0  0  0  0  0  0  0  0  0  0
   -4.9440   20.1100  -32.0100 N   0  0  0  0  0  0  0  0  0  0  0  0
   -4.5030   21.3230  -31.3770 C   0  0  0  0  0  0  0  0  0  0  0  0
   -3.1340   21.4740  -31.1470 C   0  0  0  0  0  0  0  0  0  0  0  0
   -2.6260   22.6660  -30.6350 C   0  0  0  0  0  0  0  0  0  0  0  0
   -3.4760   23.7280  -30.3220 C   0  0  0  0  0  0  0  0  0  0  0  0
   -2.8920   24.9210  -29.7810 N   0  0  0  0  0  0  0  0  0  0  0  0
   -1.7440   24.9280  -28.9230 C   0  0  0  0  0  0  0  0  0  0  0  0
   -1.0700   25.9880  -28.8000 O   0  0  0  0  0  0  0  0  0  0  0  0
   -1.3570   23.7120  -28.1580 C   0  0  0  0  0  0  0  0  0  0  0  0
   -2.3640   22.8690  -27.6470 C   0  0  0  0  0  0  0  0  0  0  0  0
   -2.0340   21.7150  -26.9330 C   0  0  0  0  0  0  0  0  0  0  0  0
   -0.6990   21.3850  -26.7120 C   0  0  0  0  0  0  0  0  0  0  0  0
    0.3140   22.2110  -27.2010 C   0  0  0  0  0  0  0  0  0  0  0  0
   -0.0010   23.3750  -27.9210 C   0  0  0  0  0  0  0  0  0  0  0  0
    1.0320   24.1880  -28.3840 O   0  0  0  0  0  0  0  0  0  0  0  0
   -4.8680   23.6040  -30.5460 C   0  0  0  0  0  0  0  0  0  0  0  0
   -5.7480   24.6820  -30.3170 C   0  0  0  0  0  0  0  0  0  0  0  0
   -7.1220   24.5290  -30.4980 C   0  0  0  0  0  0  0  0  0  0  0  0
   -7.6440   23.3000  -30.8970 C   0  0  0  0  0  0  0  0  0  0  0  0
   -6.7910   22.2270  -31.1540 C   0  0  0  0  0  0  0  0  0  0  0  0
   -5.3930   22.3740  -31.0350 C   0  0  0  0  0  0  0  0  0  0  0  0
   -2.3220   20.3180  -33.8920 C   0  0  0  0  0  0  0  0  0  0  0  0
    2.4157   20.0994  -34.1187 H   0  0  0  0  0  0  0  0  0  0  0  0
    1.4653   19.5612  -35.5449 H   0  0  0  0  0  0  0  0  0  0  0  0
    2.2470   21.1785  -35.5449 H   0  0  0  0  0  0  0  0  0  0  0  0
    0.2634   18.3145  -34.8967 H   0  0  0  0  0  0  0  0  0  0  0  0
   -1.5743   16.6282  -34.8930 H   0  0  0  0  0  0  0  0  0  0  0  0
   -3.8795   17.2889  -34.2099 H   0  0  0  0  0  0  0  0  0  0  0  0
   -2.4494   20.6430  -31.3724 H   0  0  0  0  0  0  0  0  0  0  0  0
   -1.5427   22.7714  -30.4756 H   0  0  0  0  0  0  0  0  0  0  0  0
   -3.4215   23.1227  -27.8123 H   0  0  0  0  0  0  0  0  0  0  0  0
   -2.8311   21.0645  -26.5438 H   0  0  0  0  0  0  0  0  0  0  0  0
   -0.4432   20.4734  -26.1521 H   0  0  0  0  0  0  0  0  0  0  0  0
    1.3670   21.9485  -27.0212 H   0  0  0  0  0  0  0  0  0  0  0  0
    0.8900   25.1730  -28.5780 H   0  0  0  0  0  0  0  0  0  0  0  0
   -5.3464   25.6532  -29.9923 H   0  0  0  0  0  0  0  0  0  0  0  0
   -7.7960   25.3810  -30.3253 H   0  0  0  0  0  0  0  0  0  0  0  0
   -8.7312   23.1760  -31.0095 H   0  0  0  0  0  0  0  0  0  0  0  0
   -7.2127   21.2559  -31.4526 H   0  0  0  0  0  0  0  0  0  0  0  0
   -2.5366   21.3655  -33.6337 H   0  0  0  0  0  0  0  0  0  0  0  0
  1  2  1  0
  2  3  2  0
  2  4  2  0
  2  5  1  0
  5  6  2  0
  6  7  1  0
  7  8  2  0
  8  9  1  0
  9 10  1  0
 10 11  2  0
 10 12  1  0
 12 13  1  0
 13 14  2  0
 14 15  1  0
 15 16  2  0
 16 17  1  0
 17 18  1  0
 18 19  2  0
 18 20  1  0
 20 21  2  0
 21 22  1  0
 22 23  2  0
 23 24  1  0
 24 25  2  0
 25 26  1  0
 16 27  1  0
 27 28  2  0
 28 29  1  0
 29 30  2  0
 30 31  1  0
 31 32  2  0
  9 33  2  0
 33  5  1  0
 32 13  1  0
 25 20  1  0
 32 27  1  0
  1 34  1  0
  1 35  1  0
  1 36  1  0
  6 37  1  0
  7 38  1  0
  8 39  1  0
 14 40  1  0
 15 41  1  0
 21 42  1  0
 22 43  1  0
 23 44  1  0
 24 45  1  0
 26 46  1  0
 28 47  1  0
 29 48  1  0
 30 49  1  0
 31 50  1  0
 33 51  1  0
M  CHG  2  12  -1  17  -1
M  END
>  <UniqueID>  (34) 
33

>  <SMILES>  (34) 
CS(=O)(=O)c1cccc(C(=O)[N-]c2ccc([N-]C(=O)c3ccccc3O)c3ccccc23)c1

>  <Energy>  (34) 
77.03627818112656

>  <Genealogy>  (34) 
CS(=O)(=O)c1cccc(C(=O)[N-]c2ccc([N-]C(=O)c3ccccc3O)c3ccccc23)c1 (protonated)
CS(=O)(=O)c1cccc(C(=O)[N-]c2ccc([N-]C(=O)c3ccccc3O)c3ccccc23)c1 (3D coordinates assigned)
CS(=O)(=O)c1cccc(C(=O)[N-]c2ccc([N-]C(=O)c3ccccc3O)c3ccccc23)c1 (optimized conformer: 77.03627818112656 kcal/mol)

>  <smiles>  (34) 
CS(=O)(=O)c1cccc(C(=O)Nc2ccc(NC(=O)c3ccccc3O)c3ccccc23)c1

>  <score_type>  (34) 
oracle

>  <origin>  (34) 
adgpu

>  <m_score__min__energy>  (34) 
-13.27

>  <m_primary>  (34) 
energy

$$$$
34:0
     RDKit          3D

 49 52  0  0  0  0  0  0  0  0999 V2000
   -8.2750   20.1030  -32.7370 C   0  0  0  0  0  0  0  0  0  0  0  0
   -7.5300   21.2600  -32.1240 C   0  0  0  0  0  0  0  0  0  0  0  0
   -8.2710   22.3280  -31.5890 C   0  0  0  0  0  0  0  0  0  0  0  0
   -7.6280   23.4120  -30.9900 C   0  0  0  0  0  0  0  0  0  0  0  0
   -6.2330   23.4420  -30.9060 C   0  0  0  0  0  0  0  0  0  0  0  0
   -5.4110   24.8230  -30.1870 S   0  0  0  0  0  0  0  0  0  0  0  0
   -6.4010   25.9410  -30.0160 O   0  0  0  0  0  0  0  0  0  0  0  0
   -4.2870   25.2940  -31.0680 O   0  0  0  0  0  0  0  0  0  0  0  0
   -4.7680   24.3840  -28.6360 N   0  0  0  0  0  0  0  0  0  0  0  0
   -3.6370   23.5120  -28.4640 C   0  0  0  0  0  0  0  0  0  0  0  0
   -2.3400   23.8950  -28.8610 C   0  0  0  0  0  0  0  0  0  0  0  0
   -1.2590   23.0220  -28.6900 C   0  0  0  0  0  0  0  0  0  0  0  0
   -1.4630   21.7660  -28.1140 C   0  0  0  0  0  0  0  0  0  0  0  0
   -2.7500   21.3690  -27.7340 C   0  0  0  0  0  0  0  0  0  0  0  0
   -3.8290   22.2450  -27.8880 C   0  0  0  0  0  0  0  0  0  0  0  0
   -2.9370   20.0880  -27.2030 O   0  0  0  0  0  0  0  0  0  0  0  0
   -1.9180   19.0910  -27.3150 C   0  0  0  0  0  0  0  0  0  0  0  0
   -0.5360   19.7210  -27.0980 C   0  0  0  0  0  0  0  0  0  0  0  0
   -0.3910   20.8890  -27.9100 O   0  0  0  0  0  0  0  0  0  0  0  0
   -5.4850   22.3710  -31.4080 C   0  0  0  0  0  0  0  0  0  0  0  0
   -6.1150   21.2750  -32.0150 C   0  0  0  0  0  0  0  0  0  0  0  0
   -5.1090   19.9500  -32.6310 S   0  0  0  0  0  0  0  0  0  0  0  0
   -5.3620   18.7200  -31.8010 O   0  0  0  0  0  0  0  0  0  0  0  0
   -5.4620   19.6390  -34.0590 O   0  0  0  0  0  0  0  0  0  0  0  0
   -3.4090   20.4050  -32.5760 C   0  0  0  0  0  0  0  0  0  0  0  0
   -2.7470   20.4720  -31.3400 C   0  0  0  0  0  0  0  0  0  0  0  0
   -1.3920   20.8140  -31.2850 C   0  0  0  0  0  0  0  0  0  0  0  0
   -0.6920   21.0890  -32.4630 C   0  0  0  0  0  0  0  0  0  0  0  0
   -1.3470   21.0280  -33.6970 C   0  0  0  0  0  0  0  0  0  0  0  0
   -2.7020   20.6870  -33.7550 C   0  0  0  0  0  0  0  0  0  0  0  0
   -8.6848   19.4666  -31.9388 H   0  0  0  0  0  0  0  0  0  0  0  0
   -9.0972   20.4850  -33.3599 H   0  0  0  0  0  0  0  0  0  0  0  0
   -7.5870   19.5126  -33.3599 H   0  0  0  0  0  0  0  0  0  0  0  0
   -9.3695   22.3091  -31.6431 H   0  0  0  0  0  0  0  0  0  0  0  0
   -8.2203   24.2448  -30.5830 H   0  0  0  0  0  0  0  0  0  0  0  0
   -5.3190   24.6720  -27.7970 H   0  0  0  0  0  0  0  0  0  0  0  0
   -2.1760   24.8865  -29.3082 H   0  0  0  0  0  0  0  0  0  0  0  0
   -0.2506   23.3247  -29.0087 H   0  0  0  0  0  0  0  0  0  0  0  0
   -4.8328   21.9407  -27.5566 H   0  0  0  0  0  0  0  0  0  0  0  0
   -2.0860   18.3126  -26.5561 H   0  0  0  0  0  0  0  0  0  0  0  0
   -1.9573   18.6483  -28.3212 H   0  0  0  0  0  0  0  0  0  0  0  0
   -0.4258   19.9988  -26.0394 H   0  0  0  0  0  0  0  0  0  0  0  0
    0.2382   18.9916  -27.3782 H   0  0  0  0  0  0  0  0  0  0  0  0
   -4.3883   22.3891  -31.3253 H   0  0  0  0  0  0  0  0  0  0  0  0
   -3.2957   20.2548  -30.4117 H   0  0  0  0  0  0  0  0  0  0  0  0
   -0.8771   20.8666  -30.3144 H   0  0  0  0  0  0  0  0  0  0  0  0
    0.3748   21.3536  -32.4194 H   0  0  0  0  0  0  0  0  0  0  0  0
   -0.7958   21.2485  -34.6231 H   0  0  0  0  0  0  0  0  0  0  0  0
   -3.2148   20.6397  -34.7270 H   0  0  0  0  0  0  0  0  0  0  0  0
  1  2  1  0
  2  3  2  0
  3  4  1  0
  4  5  2  0
  5  6  1  0
  6  7  2  0
  6  8  2  0
  6  9  1  0
  9 10  1  0
 10 11  2  0
 11 12  1  0
 12 13  2  0
 13 14  1  0
 14 15  2  0
 14 16  1  0
 16 17  1  0
 17 18  1  0
 18 19  1  0
  5 20  1  0
 20 21  2  0
 21 22  1  0
 22 23  2  0
 22 24  2  0
 22 25  1  0
 25 26  2  0
 26 27  1  0
 27 28  2  0
 28 29  1  0
 29 30  2  0
 21  2  1  0
 30 25  1  0
 15 10  1  0
 19 13  1  0
  1 31  1  0
  1 32  1  0
  1 33  1  0
  3 34  1  0
  4 35  1  0
  9 36  1  0
 11 37  1  0
 12 38  1  0
 15 39  1  0
 17 40  1  0
 17 41  1  0
 18 42  1  0
 18 43  1  0
 20 44  1  0
 26 45  1  0
 27 46  1  0
 28 47  1  0
 29 48  1  0
 30 49  1  0
M  END
>  <UniqueID>  (35) 
34

>  <SMILES>  (35) 
Cc1ccc(S(=O)(=O)Nc2ccc3c(c2)OCCO3)cc1S(=O)(=O)c1ccccc1

>  <Energy>  (35) 
59.056504099435415

>  <Genealogy>  (35) 
Cc1ccc(S(=O)(=O)Nc2ccc3c(c2)OCCO3)cc1S(=O)(=O)c1ccccc1 (3D coordinates assigned)
Cc1ccc(S(=O)(=O)Nc2ccc3c(c2)OCCO3)cc1S(=O)(=O)c1ccccc1 (nonaromatic ring conformer: 59.056504099435415 kcal/mol)

>  <smiles>  (35) 
Cc1ccc(S(=O)(=O)Nc2ccc3c(c2)OCCO3)cc1S(=O)(=O)c1ccccc1

>  <score_type>  (35) 
oracle

>  <origin>  (35) 
adgpu

>  <m_score__min__energy>  (35) 
-10.369999999999999

>  <m_primary>  (35) 
energy

$$$$
35:0
     RDKit          3D

 53 55  0  0  0  0  0  0  0  0999 V2000
   -6.4760   16.3370  -34.0250 C   0  0  0  0  0  0  0  0  0  0  0  0
   -5.3590   17.2220  -34.5650 C   0  0  0  0  0  0  0  0  0  0  0  0
   -4.7040   17.9180  -33.5060 O   0  0  0  0  0  0  0  0  0  0  0  0
   -4.1840   19.2120  -33.6350 C   0  0  0  0  0  0  0  0  0  0  0  0
   -3.0830   19.4010  -34.2220 O   0  0  0  0  0  0  0  0  0  0  0  0
   -4.9420   20.3680  -33.1040 C   0  0  0  0  0  0  0  0  0  0  0  0
   -4.3520   21.6450  -32.9510 C   0  0  0  0  0  0  0  0  0  0  0  0
   -3.0520   21.9230  -33.3730 O   0  0  0  0  0  0  0  0  0  0  0  0
   -5.0780   22.6590  -32.4100 N   0  0  0  0  0  0  0  0  0  0  0  0
   -6.3650   22.4810  -32.0240 C   0  0  0  0  0  0  0  0  0  0  0  0
   -7.3010   23.8500  -31.3430 S   0  0  0  0  0  0  0  0  0  0  0  0
   -6.1070   24.2450  -30.0120 C   0  0  0  0  0  0  0  0  0  0  0  0
   -5.2370   25.4270  -30.3220 C   0  0  0  0  0  0  0  0  0  0  0  0
   -5.7610   26.5720  -30.3750 O   0  0  0  0  0  0  0  0  0  0  0  0
   -3.8190   25.2690  -30.4660 N   0  0  0  0  0  0  0  0  0  0  0  0
   -2.9610   24.4390  -29.6690 C   0  0  0  0  0  0  0  0  0  0  0  0
   -2.0350   24.9730  -28.7510 C   0  0  0  0  0  0  0  0  0  0  0  0
   -1.1740   24.1290  -28.0470 C   0  0  0  0  0  0  0  0  0  0  0  0
   -1.1910   22.7470  -28.2780 C   0  0  0  0  0  0  0  0  0  0  0  0
   -0.0360   21.6950  -27.4550 S   0  0  0  0  0  0  0  0  0  0  0  0
   -0.4980   21.4610  -26.0430 O   0  0  0  0  0  0  0  0  0  0  0  0
    1.3010   22.3790  -27.3970 O   0  0  0  0  0  0  0  0  0  0  0  0
    0.1190   20.1490  -28.2590 N   0  0  0  0  0  0  0  0  0  0  0  0
   -1.0760   19.2970  -28.0660 C   0  0  0  0  0  0  0  0  0  0  0  0
   -0.8000   18.1150  -27.1200 C   0  0  0  0  0  0  0  0  0  0  0  0
    0.2580   17.2800  -27.5670 O   0  0  0  0  0  0  0  0  0  0  0  0
    1.3190   17.9860  -28.2000 C   0  0  0  0  0  0  0  0  0  0  0  0
    1.3750   19.4850  -27.8650 C   0  0  0  0  0  0  0  0  0  0  0  0
   -2.1030   22.2160  -29.2000 C   0  0  0  0  0  0  0  0  0  0  0  0
   -2.9810   23.0570  -29.8870 C   0  0  0  0  0  0  0  0  0  0  0  0
   -6.9620   21.2750  -32.1930 N   0  0  0  0  0  0  0  0  0  0  0  0
   -6.2880   20.2210  -32.7170 C   0  0  0  0  0  0  0  0  0  0  0  0
   -6.8800   19.1160  -32.8390 O   0  0  0  0  0  0  0  0  0  0  0  0
   -6.4567   16.3523  -32.9253 H   0  0  0  0  0  0  0  0  0  0  0  0
   -7.4465   16.7139  -34.3800 H   0  0  0  0  0  0  0  0  0  0  0  0
   -6.3310   15.3060  -34.3800 H   0  0  0  0  0  0  0  0  0  0  0  0
   -4.6250   16.5944  -35.0917 H   0  0  0  0  0  0  0  0  0  0  0  0
   -5.7970   17.9603  -35.2528 H   0  0  0  0  0  0  0  0  0  0  0  0
   -2.6470   21.5440  -34.2180 H   0  0  0  0  0  0  0  0  0  0  0  0
   -6.6697   24.4584  -29.0912 H   0  0  0  0  0  0  0  0  0  0  0  0
   -5.4439   23.3742  -29.9024 H   0  0  0  0  0  0  0  0  0  0  0  0
   -1.9902   26.0600  -28.5882 H   0  0  0  0  0  0  0  0  0  0  0  0
   -0.4784   24.5513  -27.3069 H   0  0  0  0  0  0  0  0  0  0  0  0
   -1.8836   19.9106  -27.6402 H   0  0  0  0  0  0  0  0  0  0  0  0
   -1.3599   18.8862  -29.0461 H   0  0  0  0  0  0  0  0  0  0  0  0
   -0.5369   18.5135  -26.1291 H   0  0  0  0  0  0  0  0  0  0  0  0
   -1.7118   17.5006  -27.0875 H   0  0  0  0  0  0  0  0  0  0  0  0
    2.2699   17.5286  -27.8892 H   0  0  0  0  0  0  0  0  0  0  0  0
    1.1412   17.9135  -29.2831 H   0  0  0  0  0  0  0  0  0  0  0  0
    1.5258   19.6087  -26.7824 H   0  0  0  0  0  0  0  0  0  0  0  0
    2.2083   19.9425  -28.4184 H   0  0  0  0  0  0  0  0  0  0  0  0
   -2.1274   21.1317  -29.3834 H   0  0  0  0  0  0  0  0  0  0  0  0
   -3.6949   22.6291  -30.6062 H   0  0  0  0  0  0  0  0  0  0  0  0
  1  2  1  0
  2  3  1  0
  3  4  1  0
  4  5  2  0
  4  6  1  0
  6  7  2  0
  7  8  1  0
  7  9  1  0
  9 10  1  0
 10 11  1  0
 11 12  1  0
 12 13  1  0
 13 14  2  0
 13 15  1  0
 15 16  1  0
 16 17  2  0
 17 18  1  0
 18 19  2  0
 19 20  1  0
 20 21  2  0
 20 22  2  0
 20 23  1  0
 23 24  1  0
 24 25  1  0
 25 26  1  0
 26 27  1  0
 27 28  1  0
 19 29  1  0
 29 30  2  0
 10 31  2  0
 31 32  1  0
 32 33  2  0
 32  6  1  0
 30 16  1  0
 28 23  1  0
  1 34  1  0
  1 35  1  0
  1 36  1  0
  2 37  1  0
  2 38  1  0
  8 39  1  0
 12 40  1  0
 12 41  1  0
 17 42  1  0
 18 43  1  0
 24 44  1  0
 24 45  1  0
 25 46  1  0
 25 47  1  0
 27 48  1  0
 27 49  1  0
 28 50  1  0
 28 51  1  0
 29 52  1  0
 30 53  1  0
M  CHG  2   9  -1  15  -1
M  END
>  <UniqueID>  (36) 
35

>  <SMILES>  (36) 
CCOC(=O)c1c(O)[n-]c(SCC(=O)[N-]c2ccc(S(=O)(=O)N3CCOCC3)cc2)nc1=O

>  <Energy>  (36) 
67.03090372814066

>  <Genealogy>  (36) 
CCOC(=O)c1c(O)[n-]c(SCC(=O)[N-]c2ccc(S(=O)(=O)N3CCOCC3)cc2)nc1=O (protonated)
CCOC(=O)c1c(O)[n-]c(SCC(=O)[N-]c2ccc(S(=O)(=O)N3CCOCC3)cc2)nc1=O (3D coordinates assigned)
CCOC(=O)c1c(O)[n-]c(SCC(=O)[N-]c2ccc(S(=O)(=O)N3CCOCC3)cc2)nc1=O (nonaromatic ring conformer: 67.03090372814066 kcal/mol)

>  <smiles>  (36) 
CCOC(=O)c1c(O)[nH]c(SCC(=O)Nc2ccc(S(=O)(=O)N3CCOCC3)cc2)nc1=O

>  <score_type>  (36) 
oracle

>  <origin>  (36) 
adgpu

>  <m_score__min__energy>  (36) 
-11.09

>  <m_primary>  (36) 
energy

$$$$
36:0
     RDKit          3D

 54 57  0  0  0  0  0  0  0  0999 V2000
   -2.5980   22.5910  -31.6360 C   0  0  0  0  0  0  0  0  0  0  0  0
   -4.0830   22.4790  -31.5150 C   0  0  0  0  0  0  0  0  0  0  0  0
   -4.7520   21.3320  -31.7400 N   0  0  0  0  0  0  0  0  0  0  0  0
   -6.0390   21.5560  -31.5190 N   0  0  0  0  0  0  0  0  0  0  0  0
   -7.0410   20.5360  -31.6620 C   0  0  0  0  0  0  0  0  0  0  0  0
   -8.3850   20.8730  -31.8960 C   0  0  0  0  0  0  0  0  0  0  0  0
   -9.3550   19.8710  -32.0030 C   0  0  0  0  0  0  0  0  0  0  0  0
   -8.9940   18.5280  -31.8690 C   0  0  0  0  0  0  0  0  0  0  0  0
   -9.9370   17.5580  -31.9700 F   0  0  0  0  0  0  0  0  0  0  0  0
   -7.6620   18.1850  -31.6200 C   0  0  0  0  0  0  0  0  0  0  0  0
   -6.6900   19.1860  -31.5090 C   0  0  0  0  0  0  0  0  0  0  0  0
   -6.2190   22.8540  -31.1740 C   0  0  0  0  0  0  0  0  0  0  0  0
   -7.5450   23.5180  -30.9300 C   0  0  0  0  0  0  0  0  0  0  0  0
   -4.9820   23.4800  -31.1610 C   0  0  0  0  0  0  0  0  0  0  0  0
   -4.7010   24.8950  -30.8400 C   0  0  0  0  0  0  0  0  0  0  0  0
   -5.5440   25.7750  -31.1560 O   0  0  0  0  0  0  0  0  0  0  0  0
   -3.5040   25.2990  -30.1620 N   0  0  0  0  0  0  0  0  0  0  0  0
   -2.7460   24.4910  -29.2510 C   0  0  0  0  0  0  0  0  0  0  0  0
   -1.3460   24.4040  -29.3310 C   0  0  0  0  0  0  0  0  0  0  0  0
   -0.6410   23.5770  -28.4530 C   0  0  0  0  0  0  0  0  0  0  0  0
   -1.3240   22.8440  -27.4730 C   0  0  0  0  0  0  0  0  0  0  0  0
   -0.4450   21.7560  -26.4000 S   0  0  0  0  0  0  0  0  0  0  0  0
    0.8880   22.3620  -26.0580 O   0  0  0  0  0  0  0  0  0  0  0  0
   -1.2320   21.6110  -25.1270 O   0  0  0  0  0  0  0  0  0  0  0  0
   -0.2350   20.1680  -27.1180 N   0  0  0  0  0  0  0  0  0  0  0  0
   -0.0610   20.2560  -28.5850 C   0  0  0  0  0  0  0  0  0  0  0  0
   -1.3880   20.0630  -29.3530 C   0  0  0  0  0  0  0  0  0  0  0  0
   -2.4850   20.4640  -28.5620 O   0  0  0  0  0  0  0  0  0  0  0  0
   -2.6480   19.5810  -27.4670 C   0  0  0  0  0  0  0  0  0  0  0  0
   -1.3170   19.2350  -26.7570 C   0  0  0  0  0  0  0  0  0  0  0  0
   -2.7160   22.9590  -27.3690 C   0  0  0  0  0  0  0  0  0  0  0  0
   -3.4210   23.7860  -28.2470 C   0  0  0  0  0  0  0  0  0  0  0  0
   -2.1498   22.6248  -30.6320 H   0  0  0  0  0  0  0  0  0  0  0  0
   -2.2079   21.7197  -32.1825 H   0  0  0  0  0  0  0  0  0  0  0  0
   -2.3430   23.5109  -32.1825 H   0  0  0  0  0  0  0  0  0  0  0  0
   -8.6754   21.9293  -31.9954 H   0  0  0  0  0  0  0  0  0  0  0  0
  -10.4043   20.1409  -32.1930 H   0  0  0  0  0  0  0  0  0  0  0  0
   -7.3776   17.1280  -31.5112 H   0  0  0  0  0  0  0  0  0  0  0  0
   -5.6450   18.9129  -31.3006 H   0  0  0  0  0  0  0  0  0  0  0  0
   -7.7180   23.6046  -29.8471 H   0  0  0  0  0  0  0  0  0  0  0  0
   -7.5416   24.5208  -31.3821 H   0  0  0  0  0  0  0  0  0  0  0  0
   -8.3459   22.9146  -31.3821 H   0  0  0  0  0  0  0  0  0  0  0  0
   -0.8030   24.9892  -30.0877 H   0  0  0  0  0  0  0  0  0  0  0  0
    0.4536   23.5009  -28.5311 H   0  0  0  0  0  0  0  0  0  0  0  0
    0.3485   21.2465  -28.8325 H   0  0  0  0  0  0  0  0  0  0  0  0
    0.6206   19.4479  -28.8889 H   0  0  0  0  0  0  0  0  0  0  0  0
   -1.3649   20.6679  -30.2715 H   0  0  0  0  0  0  0  0  0  0  0  0
   -1.5014   18.9972  -29.6005 H   0  0  0  0  0  0  0  0  0  0  0  0
   -3.3217   20.0518  -26.7359 H   0  0  0  0  0  0  0  0  0  0  0  0
   -3.0595   18.6414  -27.8643 H   0  0  0  0  0  0  0  0  0  0  0  0
   -1.4740   19.2784  -25.6691 H   0  0  0  0  0  0  0  0  0  0  0  0
   -1.0150   18.2271  -27.0778 H   0  0  0  0  0  0  0  0  0  0  0  0
   -3.2560   22.3962  -26.5933 H   0  0  0  0  0  0  0  0  0  0  0  0
   -4.5123   23.8838  -28.1490 H   0  0  0  0  0  0  0  0  0  0  0  0
  1  2  1  0
  2  3  2  0
  3  4  1  0
  4  5  1  0
  5  6  2  0
  6  7  1  0
  7  8  2  0
  8  9  1  0
  8 10  1  0
 10 11  2  0
  4 12  1  0
 12 13  1  0
 12 14  2  0
 14 15  1  0
 15 16  2  0
 15 17  1  0
 17 18  1  0
 18 19  2  0
 19 20  1  0
 20 21  2  0
 21 22  1  0
 22 23  2  0
 22 24  2  0
 22 25  1  0
 25 26  1  0
 26 27  1  0
 27 28  1  0
 28 29  1  0
 29 30  1  0
 21 31  1  0
 31 32  2  0
 14  2  1  0
 32 18  1  0
 11  5  1  0
 30 25  1  0
  1 33  1  0
  1 34  1  0
  1 35  1  0
  6 36  1  0
  7 37  1  0
 10 38  1  0
 11 39  1  0
 13 40  1  0
 13 41  1  0
 13 42  1  0
 19 43  1  0
 20 44  1  0
 26 45  1  0
 26 46  1  0
 27 47  1  0
 27 48  1  0
 29 49  1  0
 29 50  1  0
 30 51  1  0
 30 52  1  0
 31 53  1  0
 32 54  1  0
M  CHG  1  17  -1
M  END
>  <UniqueID>  (37) 
36

>  <SMILES>  (37) 
Cc1nn(-c2ccc(F)cc2)c(C)c1C(=O)[N-]c1ccc(S(=O)(=O)N2CCOCC2)cc1

>  <Energy>  (37) 
108.58122596498042

>  <Genealogy>  (37) 
Cc1nn(-c2ccc(F)cc2)c(C)c1C(=O)[N-]c1ccc(S(=O)(=O)N2CCOCC2)cc1 (protonated)
Cc1nn(-c2ccc(F)cc2)c(C)c1C(=O)[N-]c1ccc(S(=O)(=O)N2CCOCC2)cc1 (3D coordinates assigned)
Cc1nn(-c2ccc(F)cc2)c(C)c1C(=O)[N-]c1ccc(S(=O)(=O)N2CCOCC2)cc1 (nonaromatic ring conformer: 108.58122596498042 kcal/mol)

>  <smiles>  (37) 
Cc1nn(-c2ccc(F)cc2)c(C)c1C(=O)Nc1ccc(S(=O)(=O)N2CCOCC2)cc1

>  <score_type>  (37) 
oracle

>  <origin>  (37) 
adgpu

>  <m_score__min__energy>  (37) 
-10.789999999999999

>  <m_primary>  (37) 
energy

$$$$
37:0
     RDKit          3D

 56 59  0  0  0  0  0  0  0  0999 V2000
   -2.2620   25.1160  -28.8000 O   0  0  0  0  0  0  0  0  0  0  0  0
   -2.8930   24.5350  -29.7230 C   0  0  0  0  0  0  0  0  0  0  0  0
   -3.8660   25.2830  -30.4700 N   0  0  0  0  0  0  0  0  0  0  0  0
   -5.3020   25.3420  -30.2000 C   0  0  0  0  0  0  0  0  0  0  0  0
   -6.0430   24.3620  -31.0580 C   0  0  0  0  0  0  0  0  0  0  0  0
   -7.2120   23.7070  -30.7340 C   0  0  0  0  0  0  0  0  0  0  0  0
   -7.4730   22.8870  -31.7660 N   0  0  0  0  0  0  0  0  0  0  0  0
   -8.6250   22.0040  -31.9080 C   0  0  0  0  0  0  0  0  0  0  0  0
   -8.1640   20.5860  -32.1040 C   0  0  0  0  0  0  0  0  0  0  0  0
   -7.1860   20.2870  -33.0690 C   0  0  0  0  0  0  0  0  0  0  0  0
   -6.7790   18.9650  -33.2720 C   0  0  0  0  0  0  0  0  0  0  0  0
   -7.3500   17.9320  -32.5220 C   0  0  0  0  0  0  0  0  0  0  0  0
   -8.3340   18.2200  -31.5710 C   0  0  0  0  0  0  0  0  0  0  0  0
   -8.7460   19.5410  -31.3660 C   0  0  0  0  0  0  0  0  0  0  0  0
   -6.5230   23.0350  -32.6770 N   0  0  0  0  0  0  0  0  0  0  0  0
   -5.6290   23.9240  -32.2650 N   0  0  0  0  0  0  0  0  0  0  0  0
   -2.6000   23.1160  -30.0040 C   0  0  0  0  0  0  0  0  0  0  0  0
   -1.9370   22.3380  -29.0420 C   0  0  0  0  0  0  0  0  0  0  0  0
   -1.6570   20.9930  -29.2990 C   0  0  0  0  0  0  0  0  0  0  0  0
   -2.0480   20.4130  -30.5070 C   0  0  0  0  0  0  0  0  0  0  0  0
   -2.7330   21.1720  -31.4640 C   0  0  0  0  0  0  0  0  0  0  0  0
   -3.2440   20.4180  -32.9730 S   0  0  0  0  0  0  0  0  0  0  0  0
   -3.6740   18.9990  -32.7210 O   0  0  0  0  0  0  0  0  0  0  0  0
   -4.4170   21.1860  -33.5160 O   0  0  0  0  0  0  0  0  0  0  0  0
   -1.9300   20.4430  -34.1260 N   0  0  0  0  0  0  0  0  0  0  0  0
   -0.8800   21.4210  -33.7160 C   0  0  0  0  0  0  0  0  0  0  0  0
    0.3320   20.7530  -33.0520 C   0  0  0  0  0  0  0  0  0  0  0  0
    0.9890   19.7320  -33.9970 C   0  0  0  0  0  0  0  0  0  0  0  0
   -0.0230   19.0580  -34.9420 C   0  0  0  0  0  0  0  0  0  0  0  0
   -1.4290   19.0620  -34.3330 C   0  0  0  0  0  0  0  0  0  0  0  0
   -3.0180   22.5210  -31.2050 C   0  0  0  0  0  0  0  0  0  0  0  0
   -5.4805   25.1023  -29.1414 H   0  0  0  0  0  0  0  0  0  0  0  0
   -5.6634   26.3556  -30.4280 H   0  0  0  0  0  0  0  0  0  0  0  0
   -7.8088   23.8304  -29.8183 H   0  0  0  0  0  0  0  0  0  0  0  0
   -9.2441   22.0638  -31.0007 H   0  0  0  0  0  0  0  0  0  0  0  0
   -9.2144   22.3166  -32.7826 H   0  0  0  0  0  0  0  0  0  0  0  0
   -6.7397   21.0959  -33.6661 H   0  0  0  0  0  0  0  0  0  0  0  0
   -6.0083   18.7370  -34.0230 H   0  0  0  0  0  0  0  0  0  0  0  0
   -7.0252   16.8930  -32.6801 H   0  0  0  0  0  0  0  0  0  0  0  0
   -8.7847   17.4066  -30.9833 H   0  0  0  0  0  0  0  0  0  0  0  0
   -9.5280   19.7626  -30.6248 H   0  0  0  0  0  0  0  0  0  0  0  0
   -1.6372   22.7878  -28.0840 H   0  0  0  0  0  0  0  0  0  0  0  0
   -1.1270   20.3898  -28.5472 H   0  0  0  0  0  0  0  0  0  0  0  0
   -1.8173   19.3564  -30.7079 H   0  0  0  0  0  0  0  0  0  0  0  0
   -2.3370   20.7750  -35.0330 H   0  0  0  0  0  0  0  0  0  0  0  0
   -0.5364   21.9624  -34.6098 H   0  0  0  0  0  0  0  0  0  0  0  0
   -1.3307   22.0980  -32.9753 H   0  0  0  0  0  0  0  0  0  0  0  0
    1.0693   21.5261  -32.7898 H   0  0  0  0  0  0  0  0  0  0  0  0
   -0.0111   20.2241  -32.1506 H   0  0  0  0  0  0  0  0  0  0  0  0
    1.7455   20.2508  -34.6041 H   0  0  0  0  0  0  0  0  0  0  0  0
    1.4370   18.9438  -33.3740 H   0  0  0  0  0  0  0  0  0  0  0  0
   -0.0428   19.6041  -35.8967 H   0  0  0  0  0  0  0  0  0  0  0  0
    0.2871   18.0147  -35.1015 H   0  0  0  0  0  0  0  0  0  0  0  0
   -2.1135   18.5318  -35.0115 H   0  0  0  0  0  0  0  0  0  0  0  0
   -1.3816   18.5626  -33.3540 H   0  0  0  0  0  0  0  0  0  0  0  0
   -3.5717   23.1155  -31.9466 H   0  0  0  0  0  0  0  0  0  0  0  0
  1  2  2  0
  2  3  1  0
  3  4  1  0
  4  5  1  0
  5  6  2  0
  6  7  1  0
  7  8  1  0
  8  9  1  0
  9 10  2  0
 10 11  1  0
 11 12  2  0
 12 13  1  0
 13 14  2  0
  7 15  1  0
 15 16  2  0
  2 17  1  0
 17 18  2  0
 18 19  1  0
 19 20  2  0
 20 21  1  0
 21 22  1  0
 22 23  2  0
 22 24  2  0
 22 25  1  0
 25 26  1  0
 26 27  1  0
 27 28  1  0
 28 29  1  0
 29 30  1  0
 21 31  2  0
 16  5  1  0
 31 17  1  0
 14  9  1  0
 30 25  1  0
  4 32  1  0
  4 33  1  0
  6 34  1  0
  8 35  1  0
  8 36  1  0
 10 37  1  0
 11 38  1  0
 12 39  1  0
 13 40  1  0
 14 41  1  0
 18 42  1  0
 19 43  1  0
 20 44  1  0
 25 45  1  0
 26 46  1  0
 26 47  1  0
 27 48  1  0
 27 49  1  0
 28 50  1  0
 28 51  1  0
 29 52  1  0
 29 53  1  0
 30 54  1  0
 30 55  1  0
 31 56  1  0
M  CHG  2   3  -1  25   1
M  END
>  <UniqueID>  (38) 
37

>  <SMILES>  (38) 
O=C([N-]Cc1cn(Cc2ccccc2)nn1)c1cccc(S(=O)(=O)[NH+]2CCCCC2)c1

>  <Energy>  (38) 
100.725088864185

>  <Genealogy>  (38) 
O=C([N-]Cc1cn(Cc2ccccc2)nn1)c1cccc(S(=O)(=O)[NH+]2CCCCC2)c1 (protonated)
O=C([N-]Cc1cn(Cc2ccccc2)nn1)c1cccc(S(=O)(=O)[NH+]2CCCCC2)c1 (3D coordinates assigned)
O=C([N-]Cc1cn(Cc2ccccc2)nn1)c1cccc(S(=O)(=O)[NH+]2CCCCC2)c1 (nonaromatic ring conformer: 100.725088864185 kcal/mol)

>  <smiles>  (38) 
O=C(NCc1cn(Cc2ccccc2)nn1)c1cccc(S(=O)(=O)N2CCCCC2)c1

>  <score_type>  (38) 
oracle

>  <origin>  (38) 
adgpu

>  <m_score__min__energy>  (38) 
-13.18

>  <m_primary>  (38) 
energy

$$$$
38:0
     RDKit          3D

 21 23  0  0  0  0  0  0  0  0999 V2000
   -3.3960   19.9840  -30.1160 H   0  0  0  0  0  0  0  0  0  0  0  0
   -3.2980   21.0240  -30.1210 N   0  0  0  0  0  0  0  0  0  0  0  0
   -4.2600   21.7890  -30.5260 C   0  0  0  0  0  0  0  0  0  0  0  0
   -5.4420   21.2600  -30.9620 N   0  0  0  0  0  0  0  0  0  0  0  0
   -6.4860   22.0390  -31.4000 C   0  0  0  0  0  0  0  0  0  0  0  0
   -7.7010   21.4040  -31.8440 N   0  0  0  0  0  0  0  0  0  0  0  0
   -8.9640   21.8810  -31.8110 C   0  0  0  0  0  0  0  0  0  0  0  0
   -9.2312   22.8725  -31.4166 H   0  0  0  0  0  0  0  0  0  0  0  0
   -9.8620   21.0100  -32.3140 N   0  0  0  0  0  0  0  0  0  0  0  0
   -9.1250   19.9420  -32.6770 C   0  0  0  0  0  0  0  0  0  0  0  0
   -9.5215   19.0223  -33.1319 H   0  0  0  0  0  0  0  0  0  0  0  0
   -7.8000   20.1790  -32.3910 C   0  0  0  0  0  0  0  0  0  0  0  0
   -6.9660   19.4865  -32.5774 H   0  0  0  0  0  0  0  0  0  0  0  0
   -6.3470   23.4500  -31.4050 C   0  0  0  0  0  0  0  0  0  0  0  0
   -7.1616   24.1044  -31.7490 H   0  0  0  0  0  0  0  0  0  0  0  0
   -5.1380   23.9730  -30.9570 C   0  0  0  0  0  0  0  0  0  0  0  0
   -4.7780   25.2650  -30.8710 N   0  0  0  0  0  0  0  0  0  0  0  0
   -3.5360   25.2940  -30.3910 N   0  0  0  0  0  0  0  0  0  0  0  0
   -3.1100   24.0270  -30.1740 C   0  0  0  0  0  0  0  0  0  0  0  0
   -2.1255   23.7330  -29.7812 H   0  0  0  0  0  0  0  0  0  0  0  0
   -4.1270   23.1730  -30.5320 C   0  0  0  0  0  0  0  0  0  0  0  0
  1  2  1  0
  2  3  2  0
  3  4  1  0
  4  5  1  0
  5  6  1  0
  6  7  1  0
  7  8  1  0
  7  9  2  0
  9 10  1  0
 10 11  1  0
 10 12  2  0
 12 13  1  0
  5 14  2  0
 14 15  1  0
 14 16  1  0
 16 17  2  0
 17 18  1  0
 18 19  1  0
 19 20  1  0
 19 21  2  0
 21  3  1  0
 12  6  1  0
 21 16  1  0
M  CHG  2   4  -1  18  -1
M  END
>  <UniqueID>  (39) 
38

>  <SMILES>  (39) 
[H]/N=c1\[n-]c(-n2ccnc2)cc2n[n-]cc12

>  <Energy>  (39) 
93.90123655568955

>  <Genealogy>  (39) 
N=c1[n-]c(-n2ccnc2)cc2n[n-]cc12 (protonated)
[H]/N=c1\[n-]c(-n2ccnc2)cc2n[n-]cc12 (cis-trans isomerization)
[H]/N=c1\[n-]c(-n2ccnc2)cc2n[n-]cc12 (3D coordinates assigned)
[H]/N=c1\[n-]c(-n2ccnc2)cc2n[n-]cc12 (optimized conformer: 93.90123655568955 kcal/mol)

>  <smiles>  (39) 
N=c1[nH]c(-n2ccnc2)cc2n[nH]cc12

>  <score_type>  (39) 
oracle

>  <origin>  (39) 
adgpu

>  <m_score__min__energy>  (39) 
-7.7699999999999996

>  <m_primary>  (39) 
energy

$$$$
39:0
     RDKit          3D

 70 73  0  0  0  0  0  0  0  0999 V2000
   -7.6020   13.6340  -34.9790 C   0  0  0  0  0  0  0  0  0  0  0  0
   -7.1620   14.7580  -34.2220 O   0  0  0  0  0  0  0  0  0  0  0  0
   -5.8190   15.1410  -34.0740 C   0  0  0  0  0  0  0  0  0  0  0  0
   -5.3360   16.3720  -34.5570 C   0  0  0  0  0  0  0  0  0  0  0  0
   -3.9930   16.7170  -34.3940 C   0  0  0  0  0  0  0  0  0  0  0  0
   -3.1120   15.8400  -33.7510 C   0  0  0  0  0  0  0  0  0  0  0  0
   -1.4080   16.2680  -33.5670 S   0  0  0  0  0  0  0  0  0  0  0  0
   -0.8940   15.7040  -32.2720 O   0  0  0  0  0  0  0  0  0  0  0  0
   -0.6180   15.6530  -34.6890 O   0  0  0  0  0  0  0  0  0  0  0  0
   -1.1780   18.0020  -33.5710 N   0  0  0  0  0  0  0  0  0  0  0  0
   -1.0190   18.5310  -34.9490 C   0  0  0  0  0  0  0  0  0  0  0  0
    0.4420   18.8540  -35.3050 C   0  0  0  0  0  0  0  0  0  0  0  0
    1.0570   19.8770  -34.3160 C   0  0  0  0  0  0  0  0  0  0  0  0
    0.9770   21.2930  -34.8350 C   0  0  0  0  0  0  0  0  0  0  0  0
    0.2290   22.1320  -34.2600 O   0  0  0  0  0  0  0  0  0  0  0  0
    1.7720   21.6870  -35.9640 N   0  0  0  0  0  0  0  0  0  0  0  0
    2.0290   23.0570  -36.3190 C   0  0  0  0  0  0  0  0  0  0  0  0
    1.0570   24.0530  -36.1110 C   0  0  0  0  0  0  0  0  0  0  0  0
    1.3220   25.3880  -36.4430 C   0  0  0  0  0  0  0  0  0  0  0  0
    0.0650   26.6010  -36.2150 S   0  0  0  0  0  0  0  0  0  0  0  0
   -1.2410   26.0390  -36.7040 O   0  0  0  0  0  0  0  0  0  0  0  0
   -0.0700   26.9450  -34.7560 O   0  0  0  0  0  0  0  0  0  0  0  0
    0.4800   28.0330  -37.1260 N   0  0  0  0  0  0  0  0  0  0  0  0
    1.1320   29.0480  -36.2590 C   0  0  0  0  0  0  0  0  0  0  0  0
    0.1910   30.1960  -35.8660 C   0  0  0  0  0  0  0  0  0  0  0  0
   -0.3580   30.9150  -37.1120 C   0  0  0  0  0  0  0  0  0  0  0  0
   -0.5280   29.9710  -38.3170 C   0  0  0  0  0  0  0  0  0  0  0  0
   -0.7090   28.5200  -37.8610 C   0  0  0  0  0  0  0  0  0  0  0  0
    2.5700   25.7370  -36.9750 C   0  0  0  0  0  0  0  0  0  0  0  0
    3.5480   24.7590  -37.1630 C   0  0  0  0  0  0  0  0  0  0  0  0
    3.2840   23.4250  -36.8370 C   0  0  0  0  0  0  0  0  0  0  0  0
    4.2710   22.4660  -37.0380 O   0  0  0  0  0  0  0  0  0  0  0  0
    0.4110   19.7980  -32.9140 C   0  0  0  0  0  0  0  0  0  0  0  0
   -0.0970   18.3820  -32.6340 C   0  0  0  0  0  0  0  0  0  0  0  0
   -3.5880   14.6180  -33.2610 C   0  0  0  0  0  0  0  0  0  0  0  0
   -4.9410   14.2600  -33.4220 C   0  0  0  0  0  0  0  0  0  0  0  0
   -5.4520   13.0420  -32.9470 O   0  0  0  0  0  0  0  0  0  0  0  0
   -5.0120   12.3900  -31.7600 C   0  0  0  0  0  0  0  0  0  0  0  0
   -7.9161   12.8316  -34.2952 H   0  0  0  0  0  0  0  0  0  0  0  0
   -8.4512   13.9287  -35.6131 H   0  0  0  0  0  0  0  0  0  0  0  0
   -6.7785   13.2739  -35.6131 H   0  0  0  0  0  0  0  0  0  0  0  0
   -6.0209   17.0662  -35.0659 H   0  0  0  0  0  0  0  0  0  0  0  0
   -3.6257   17.6823  -34.7726 H   0  0  0  0  0  0  0  0  0  0  0  0
   -1.3944   17.7789  -35.6585 H   0  0  0  0  0  0  0  0  0  0  0  0
   -1.5870   19.4712  -35.0076 H   0  0  0  0  0  0  0  0  0  0  0  0
    1.0314   17.9258  -35.2711 H   0  0  0  0  0  0  0  0  0  0  0  0
    0.4614   19.2948  -36.3126 H   0  0  0  0  0  0  0  0  0  0  0  0
    2.1177   19.6001  -34.2248 H   0  0  0  0  0  0  0  0  0  0  0  0
    2.1500   20.9370  -36.5860 H   0  0  0  0  0  0  0  0  0  0  0  0
    0.0805   23.7810  -35.6839 H   0  0  0  0  0  0  0  0  0  0  0  0
    1.4821   28.5523  -35.3416 H   0  0  0  0  0  0  0  0  0  0  0  0
    1.9626   29.4854  -36.8324 H   0  0  0  0  0  0  0  0  0  0  0  0
   -0.6505   29.7882  -35.2867 H   0  0  0  0  0  0  0  0  0  0  0  0
    0.7583   30.9223  -35.2655 H   0  0  0  0  0  0  0  0  0  0  0  0
   -1.3378   31.3494  -36.8644 H   0  0  0  0  0  0  0  0  0  0  0  0
    0.3701   31.6888  -37.3966 H   0  0  0  0  0  0  0  0  0  0  0  0
   -1.4131   30.2795  -38.8927 H   0  0  0  0  0  0  0  0  0  0  0  0
    0.3780   30.0312  -38.9379 H   0  0  0  0  0  0  0  0  0  0  0  0
   -1.5873   28.4589  -37.2016 H   0  0  0  0  0  0  0  0  0  0  0  0
   -0.8464   27.8912  -38.7530 H   0  0  0  0  0  0  0  0  0  0  0  0
    2.7794   26.7826  -37.2448 H   0  0  0  0  0  0  0  0  0  0  0  0
    4.5310   25.0389  -37.5695 H   0  0  0  0  0  0  0  0  0  0  0  0
    1.1595   20.0702  -32.1552 H   0  0  0  0  0  0  0  0  0  0  0  0
   -0.4400   20.4940  -32.8759 H   0  0  0  0  0  0  0  0  0  0  0  0
    0.7376   17.6739  -32.7440 H   0  0  0  0  0  0  0  0  0  0  0  0
   -0.4996   18.3542  -31.6107 H   0  0  0  0  0  0  0  0  0  0  0  0
   -2.8998   13.9316  -32.7460 H   0  0  0  0  0  0  0  0  0  0  0  0
   -5.3823   12.9387  -30.8815 H   0  0  0  0  0  0  0  0  0  0  0  0
   -5.4014   11.3614  -31.7408 H   0  0  0  0  0  0  0  0  0  0  0  0
   -3.9124   12.3662  -31.7408 H   0  0  0  0  0  0  0  0  0  0  0  0
  1  2  1  0
  2  3  1  0
  3  4  2  0
  4  5  1  0
  5  6  2  0
  6  7  1  0
  7  8  2  0
  7  9  2  0
  7 10  1  0
 10 11  1  0
 11 12  1  0
 12 13  1  0
 13 14  1  0
 14 15  2  0
 14 16  1  0
 16 17  1  0
 17 18  2  0
 18 19  1  0
 19 20  1  0
 20 21  2  0
 20 22  2  0
 20 23  1  0
 23 24  1  0
 24 25  1  0
 25 26  1  0
 26 27  1  0
 27 28  1  0
 19 29  2  0
 29 30  1  0
 30 31  2  0
 31 32  1  0
 13 33  1  0
 33 34  1  0
  6 35  1  0
 35 36  2  0
 36 37  1  0
 37 38  1  0
 36  3  1  0
 34 10  1  0
 31 17  1  0
 28 23  1  0
  1 39  1  0
  1 40  1  0
  1 41  1  0
  4 42  1  0
  5 43  1  0
 11 44  1  0
 11 45  1  0
 12 46  1  0
 12 47  1  0
 13 48  1  0
 16 49  1  0
 18 50  1  0
 24 51  1  0
 24 52  1  0
 25 53  1  0
 25 54  1  0
 26 55  1  0
 26 56  1  0
 27 57  1  0
 27 58  1  0
 28 59  1  0
 28 60  1  0
 29 61  1  0
 30 62  1  0
 33 63  1  0
 33 64  1  0
 34 65  1  0
 34 66  1  0
 35 67  1  0
 38 68  1  0
 38 69  1  0
 38 70  1  0
M  CHG  1  32  -1
M  END
>  <UniqueID>  (40) 
39

>  <SMILES>  (40) 
COc1ccc(S(=O)(=O)N2CCC(C(=O)Nc3cc(S(=O)(=O)N4CCCCC4)ccc3[O-])CC2)cc1OC

>  <Energy>  (40) 
85.11148076070735

>  <Genealogy>  (40) 
COc1ccc(S(=O)(=O)N2CCC(C(=O)Nc3cc(S(=O)(=O)N4CCCCC4)ccc3[O-])CC2)cc1OC (protonated)
COc1ccc(S(=O)(=O)N2CCC(C(=O)Nc3cc(S(=O)(=O)N4CCCCC4)ccc3[O-])CC2)cc1OC (3D coordinates assigned)
COc1ccc(S(=O)(=O)N2CCC(C(=O)Nc3cc(S(=O)(=O)N4CCCCC4)ccc3[O-])CC2)cc1OC (nonaromatic ring conformer: 85.11148076070735 kcal/mol)

>  <smiles>  (40) 
COc1ccc(S(=O)(=O)N2CCC(C(=O)Nc3cc(S(=O)(=O)N4CCCCC4)ccc3O)CC2)cc1OC

>  <score_type>  (40) 
oracle

>  <origin>  (40) 
adgpu

>  <m_score__min__energy>  (40) 
-13.16

>  <m_primary>  (40) 
energy

$$$$
40:0
     RDKit          3D

 44 47  0  0  0  0  0  0  0  0999 V2000
   -3.0520   21.5250  -33.1390 O   0  0  0  0  0  0  0  0  0  0  0  0
   -3.0100   21.9680  -31.9620 C   0  0  0  0  0  0  0  0  0  0  0  0
   -2.1150   21.3620  -31.0230 N   0  0  0  0  0  0  0  0  0  0  0  0
   -1.9400   21.7830  -29.6650 C   0  0  0  0  0  0  0  0  0  0  0  0
   -2.2040   20.9140  -28.5950 C   0  0  0  0  0  0  0  0  0  0  0  0
   -2.0560   21.3580  -27.2810 C   0  0  0  0  0  0  0  0  0  0  0  0
   -1.6440   22.6670  -27.0230 C   0  0  0  0  0  0  0  0  0  0  0  0
   -1.3920   23.5470  -28.0820 C   0  0  0  0  0  0  0  0  0  0  0  0
   -0.8610   25.2000  -27.7560 S   0  0  0  0  0  0  0  0  0  0  0  0
   -1.2420   26.0740  -28.9180 O   0  0  0  0  0  0  0  0  0  0  0  0
    0.6370   25.2230  -27.6310 O   0  0  0  0  0  0  0  0  0  0  0  0
   -1.5650   25.8380  -26.2840 N   0  0  0  0  0  0  0  0  0  0  0  0
   -1.2220   27.2520  -26.1030 C   0  0  0  0  0  0  0  0  0  0  0  0
   -0.1100   27.3290  -25.0790 C   0  0  0  0  0  0  0  0  0  0  0  0
   -0.3140   26.1080  -24.2180 C   0  0  0  0  0  0  0  0  0  0  0  0
   -1.0700   25.1230  -25.0970 C   0  0  0  0  0  0  0  0  0  0  0  0
   -1.5510   23.1010  -29.4020 C   0  0  0  0  0  0  0  0  0  0  0  0
   -3.9820   22.9960  -31.5280 C   0  0  0  0  0  0  0  0  0  0  0  0
   -3.4820   24.1700  -31.0610 N   0  0  0  0  0  0  0  0  0  0  0  0
   -4.2620   25.1320  -30.5720 N   0  0  0  0  0  0  0  0  0  0  0  0
   -5.6100   24.9930  -30.5080 C   0  0  0  0  0  0  0  0  0  0  0  0
   -6.3030   25.9310  -30.0240 O   0  0  0  0  0  0  0  0  0  0  0  0
   -6.2070   23.8140  -30.9780 C   0  0  0  0  0  0  0  0  0  0  0  0
   -7.6020   23.6320  -30.9260 C   0  0  0  0  0  0  0  0  0  0  0  0
   -8.1760   22.4570  -31.4170 C   0  0  0  0  0  0  0  0  0  0  0  0
   -7.3710   21.4610  -31.9690 C   0  0  0  0  0  0  0  0  0  0  0  0
   -5.9850   21.6220  -32.0170 C   0  0  0  0  0  0  0  0  0  0  0  0
   -5.3820   22.7910  -31.5090 C   0  0  0  0  0  0  0  0  0  0  0  0
   -2.5280   19.8816  -28.7928 H   0  0  0  0  0  0  0  0  0  0  0  0
   -2.2646   20.6744  -26.4449 H   0  0  0  0  0  0  0  0  0  0  0  0
   -1.5171   23.0076  -25.9848 H   0  0  0  0  0  0  0  0  0  0  0  0
   -0.8824   27.6802  -27.0576 H   0  0  0  0  0  0  0  0  0  0  0  0
   -2.0997   27.8205  -25.7617 H   0  0  0  0  0  0  0  0  0  0  0  0
    0.8743   27.3005  -25.5692 H   0  0  0  0  0  0  0  0  0  0  0  0
   -0.1362   28.2629  -24.4983 H   0  0  0  0  0  0  0  0  0  0  0  0
    0.6544   25.6864  -23.9106 H   0  0  0  0  0  0  0  0  0  0  0  0
   -0.8647   26.3426  -23.2951 H   0  0  0  0  0  0  0  0  0  0  0  0
   -0.3964   24.3107  -25.4077 H   0  0  0  0  0  0  0  0  0  0  0  0
   -1.9140   24.6917  -24.5387 H   0  0  0  0  0  0  0  0  0  0  0  0
   -1.3684   23.7930  -30.2374 H   0  0  0  0  0  0  0  0  0  0  0  0
   -8.2419   24.4174  -30.4974 H   0  0  0  0  0  0  0  0  0  0  0  0
   -9.2660   22.3170  -31.3681 H   0  0  0  0  0  0  0  0  0  0  0  0
   -7.8300   20.5446  -32.3683 H   0  0  0  0  0  0  0  0  0  0  0  0
   -5.3585   20.8307  -32.4545 H   0  0  0  0  0  0  0  0  0  0  0  0
  1  2  2  0
  2  3  1  0
  3  4  1  0
  4  5  2  0
  5  6  1  0
  6  7  2  0
  7  8  1  0
  8  9  1  0
  9 10  2  0
  9 11  2  0
  9 12  1  0
 12 13  1  0
 13 14  1  0
 14 15  1  0
 15 16  1  0
  8 17  2  0
  2 18  1  0
 18 19  2  0
 19 20  1  0
 20 21  1  0
 21 22  2  0
 21 23  1  0
 23 24  2  0
 24 25  1  0
 25 26  2  0
 26 27  1  0
 27 28  2  0
 17  4  1  0
 28 18  1  0
 16 12  1  0
 28 23  1  0
  5 29  1  0
  6 30  1  0
  7 31  1  0
 13 32  1  0
 13 33  1  0
 14 34  1  0
 14 35  1  0
 15 36  1  0
 15 37  1  0
 16 38  1  0
 16 39  1  0
 17 40  1  0
 24 41  1  0
 25 42  1  0
 26 43  1  0
 27 44  1  0
M  CHG  2   3  -1  20  -1
M  END
>  <UniqueID>  (41) 
40

>  <SMILES>  (41) 
O=C([N-]c1cccc(S(=O)(=O)N2CCCC2)c1)c1n[n-]c(=O)c2ccccc12

>  <Energy>  (41) 
64.45031715160655

>  <Genealogy>  (41) 
O=C([N-]c1cccc(S(=O)(=O)N2CCCC2)c1)c1n[n-]c(=O)c2ccccc12 (protonated)
O=C([N-]c1cccc(S(=O)(=O)N2CCCC2)c1)c1n[n-]c(=O)c2ccccc12 (3D coordinates assigned)
O=C([N-]c1cccc(S(=O)(=O)N2CCCC2)c1)c1n[n-]c(=O)c2ccccc12 (nonaromatic ring conformer: 64.45031715160655 kcal/mol)

>  <smiles>  (41) 
O=C(Nc1cccc(S(=O)(=O)N2CCCC2)c1)c1n[nH]c(=O)c2ccccc12

>  <score_type>  (41) 
oracle

>  <origin>  (41) 
adgpu

>  <m_score__min__energy>  (41) 
-12.34

>  <m_primary>  (41) 
energy

$$$$
41:0
     RDKit          3D

 76 80  0  0  0  0  0  0  0  0999 V2000
   -9.7030   20.8060  -32.0770 C   0  0  0  0  0  0  0  0  0  0  0  0
   -8.3810   21.5250  -31.9670 C   0  0  0  0  0  0  0  0  0  0  0  0
   -8.4060   22.9280  -31.9910 C   0  0  0  0  0  0  0  0  0  0  0  0
   -7.2310   23.6650  -31.9030 C   0  0  0  0  0  0  0  0  0  0  0  0
   -6.0080   23.0200  -31.7660 C   0  0  0  0  0  0  0  0  0  0  0  0
   -4.8170   23.8080  -31.7030 N   0  0  0  0  0  0  0  0  0  0  0  0
   -4.6670   24.9250  -30.8260 C   0  0  0  0  0  0  0  0  0  0  0  0
   -5.5590   25.8140  -30.8090 O   0  0  0  0  0  0  0  0  0  0  0  0
   -3.5190   25.0260  -29.9740 N   0  0  0  0  0  0  0  0  0  0  0  0
   -2.9060   23.9370  -29.2670 C   0  0  0  0  0  0  0  0  0  0  0  0
   -3.7120   22.8910  -28.8020 C   0  0  0  0  0  0  0  0  0  0  0  0
   -3.1550   21.8350  -28.0740 C   0  0  0  0  0  0  0  0  0  0  0  0
   -1.7810   21.8240  -27.7790 C   0  0  0  0  0  0  0  0  0  0  0  0
   -1.1900   20.7030  -27.0160 C   0  0  0  0  0  0  0  0  0  0  0  0
   -1.2410   20.7220  -25.7560 O   0  0  0  0  0  0  0  0  0  0  0  0
   -0.5660   19.5890  -27.6790 N   0  0  0  0  0  0  0  0  0  0  0  0
   -0.9120   18.2180  -27.2900 C   0  0  0  0  0  0  0  0  0  0  0  0
    0.3090   17.3040  -27.4560 C   0  0  0  0  0  0  0  0  0  0  0  0
    0.8880   17.4510  -28.7390 O   0  0  0  0  0  0  0  0  0  0  0  0
    1.3920   18.7650  -28.8900 C   0  0  0  0  0  0  0  0  0  0  0  0
    0.2480   19.7810  -28.8830 C   0  0  0  0  0  0  0  0  0  0  0  0
   -0.9730   22.8720  -28.2470 C   0  0  0  0  0  0  0  0  0  0  0  0
   -1.5320   23.9260  -28.9730 C   0  0  0  0  0  0  0  0  0  0  0  0
   -5.9400   21.6170  -31.7520 C   0  0  0  0  0  0  0  0  0  0  0  0
   -4.6670   21.0400  -31.6800 O   0  0  0  0  0  0  0  0  0  0  0  0
   -7.1330   20.8430  -31.8380 C   0  0  0  0  0  0  0  0  0  0  0  0
   -7.0290   19.0550  -31.8560 S   0  0  0  0  0  0  0  0  0  0  0  0
   -8.3350   18.4100  -31.4900 O   0  0  0  0  0  0  0  0  0  0  0  0
   -6.0170   18.6070  -30.8370 O   0  0  0  0  0  0  0  0  0  0  0  0
   -6.5360   18.4870  -33.4950 C   0  0  0  0  0  0  0  0  0  0  0  0
   -6.4330   16.9450  -33.5560 C   0  0  0  0  0  0  0  0  0  0  0  0
   -4.9910   16.4780  -33.3310 C   0  0  0  0  0  0  0  0  0  0  0  0
   -4.0770   16.9740  -34.3940 N   0  0  0  0  0  0  0  0  0  0  0  0
   -2.6680   16.9600  -33.9420 C   0  0  0  0  0  0  0  0  0  0  0  0
   -2.1770   18.3540  -33.6370 C   0  0  0  0  0  0  0  0  0  0  0  0
   -1.3990   19.0470  -34.5790 C   0  0  0  0  0  0  0  0  0  0  0  0
   -0.9130   20.3250  -34.2860 C   0  0  0  0  0  0  0  0  0  0  0  0
   -1.2000   20.9190  -33.0540 C   0  0  0  0  0  0  0  0  0  0  0  0
   -1.9740   20.2360  -32.1130 C   0  0  0  0  0  0  0  0  0  0  0  0
   -2.4600   18.9570  -32.4000 C   0  0  0  0  0  0  0  0  0  0  0  0
   -4.4540   18.3050  -34.9430 C   0  0  0  0  0  0  0  0  0  0  0  0
   -5.2190   19.1690  -33.9280 C   0  0  0  0  0  0  0  0  0  0  0  0
  -10.0907   20.5952  -31.0694 H   0  0  0  0  0  0  0  0  0  0  0  0
  -10.4202   21.4383  -32.6209 H   0  0  0  0  0  0  0  0  0  0  0  0
   -9.5619   19.8603  -32.6209 H   0  0  0  0  0  0  0  0  0  0  0  0
   -9.3692   23.4517  -32.0807 H   0  0  0  0  0  0  0  0  0  0  0  0
   -7.2694   24.7636  -31.9420 H   0  0  0  0  0  0  0  0  0  0  0  0
   -4.7919   22.8999  -29.0110 H   0  0  0  0  0  0  0  0  0  0  0  0
   -3.7953   21.0091  -27.7306 H   0  0  0  0  0  0  0  0  0  0  0  0
   -1.2350   18.2077  -26.2385 H   0  0  0  0  0  0  0  0  0  0  0  0
   -1.7269   17.8539  -27.9330 H   0  0  0  0  0  0  0  0  0  0  0  0
    1.0575   17.5632  -26.6928 H   0  0  0  0  0  0  0  0  0  0  0  0
   -0.0188   16.2605  -27.3394 H   0  0  0  0  0  0  0  0  0  0  0  0
    2.0787   18.9871  -28.0598 H   0  0  0  0  0  0  0  0  0  0  0  0
    1.9238   18.8342  -29.8504 H   0  0  0  0  0  0  0  0  0  0  0  0
    0.6621   20.8001  -28.8874 H   0  0  0  0  0  0  0  0  0  0  0  0
   -0.3773   19.6365  -29.7763 H   0  0  0  0  0  0  0  0  0  0  0  0
    0.1074   22.8631  -28.0406 H   0  0  0  0  0  0  0  0  0  0  0  0
   -0.8928   24.7526  -29.3168 H   0  0  0  0  0  0  0  0  0  0  0  0
   -4.4770   20.1120  -31.3350 H   0  0  0  0  0  0  0  0  0  0  0  0
   -7.3194   18.7789  -34.2099 H   0  0  0  0  0  0  0  0  0  0  0  0
   -7.0767   16.5110  -32.7767 H   0  0  0  0  0  0  0  0  0  0  0  0
   -6.7556   16.6130  -34.5538 H   0  0  0  0  0  0  0  0  0  0  0  0
   -4.6427   16.8545  -32.3579 H   0  0  0  0  0  0  0  0  0  0  0  0
   -4.9801   15.3784  -33.3568 H   0  0  0  0  0  0  0  0  0  0  0  0
   -2.5892   16.3453  -33.0332 H   0  0  0  0  0  0  0  0  0  0  0  0
   -2.0483   16.5420  -34.7490 H   0  0  0  0  0  0  0  0  0  0  0  0
   -1.1714   18.5830  -35.5500 H   0  0  0  0  0  0  0  0  0  0  0  0
   -0.3037   20.8638  -35.0266 H   0  0  0  0  0  0  0  0  0  0  0  0
   -0.8164   21.9243  -32.8254 H   0  0  0  0  0  0  0  0  0  0  0  0
   -2.2015   20.7053  -31.1445 H   0  0  0  0  0  0  0  0  0  0  0  0
   -3.0660   18.4209  -31.6548 H   0  0  0  0  0  0  0  0  0  0  0  0
   -3.5373   18.8367  -35.2379 H   0  0  0  0  0  0  0  0  0  0  0  0
   -5.1189   18.1342  -35.8025 H   0  0  0  0  0  0  0  0  0  0  0  0
   -4.5872   19.3250  -33.0412 H   0  0  0  0  0  0  0  0  0  0  0  0
   -5.4641   20.1303  -34.4032 H   0  0  0  0  0  0  0  0  0  0  0  0
  1  2  1  0
  2  3  2  0
  3  4  1  0
  4  5  2  0
  5  6  1  0
  6  7  1  0
  7  8  2  0
  7  9  1  0
  9 10  1  0
 10 11  2  0
 11 12  1  0
 12 13  2  0
 13 14  1  0
 14 15  2  0
 14 16  1  0
 16 17  1  0
 17 18  1  0
 18 19  1  0
 19 20  1  0
 20 21  1  0
 13 22  1  0
 22 23  2  0
  5 24  1  0
 24 25  1  0
 24 26  2  0
 26 27  1  0
 27 28  2  0
 27 29  2  0
 27 30  1  0
 30 31  1  0
 31 32  1  0
 32 33  1  0
 33 34  1  0
 34 35  1  0
 35 36  2  0
 36 37  1  0
 37 38  2  0
 38 39  1  0
 39 40  2  0
 33 41  1  0
 41 42  1  0
 26  2  1  0
 42 30  1  0
 23 10  1  0
 40 35  1  0
 21 16  1  0
  1 43  1  0
  1 44  1  0
  1 45  1  0
  3 46  1  0
  4 47  1  0
 11 48  1  0
 12 49  1  0
 17 50  1  0
 17 51  1  0
 18 52  1  0
 18 53  1  0
 20 54  1  0
 20 55  1  0
 21 56  1  0
 21 57  1  0
 22 58  1  0
 23 59  1  0
 25 60  1  0
 30 61  1  0
 31 62  1  0
 31 63  1  0
 32 64  1  0
 32 65  1  0
 34 66  1  0
 34 67  1  0
 36 68  1  0
 37 69  1  0
 38 70  1  0
 39 71  1  0
 40 72  1  0
 41 73  1  0
 41 74  1  0
 42 75  1  0
 42 76  1  0
M  CHG  2   6  -1   9  -1
M  END
>  <UniqueID>  (42) 
41

>  <SMILES>  (42) 
Cc1ccc([N-]C(=O)[N-]c2ccc(C(=O)N3CCOCC3)cc2)c(O)c1S(=O)(=O)C1CCN(Cc2ccccc2)CC1

>  <Energy>  (42) 
110.17628860476302

>  <Genealogy>  (42) 
Cc1ccc([N-]C(=O)[N-]c2ccc(C(=O)N3CCOCC3)cc2)c(O)c1S(=O)(=O)C1CCN(Cc2ccccc2)CC1 (protonated)
Cc1ccc([N-]C(=O)[N-]c2ccc(C(=O)N3CCOCC3)cc2)c(O)c1S(=O)(=O)C1CCN(Cc2ccccc2)CC1 (3D coordinates assigned)
Cc1ccc([N-]C(=O)[N-]c2ccc(C(=O)N3CCOCC3)cc2)c(O)c1S(=O)(=O)C1CCN(Cc2ccccc2)CC1 (nonaromatic ring conformer: 110.17628860476302 kcal/mol)

>  <smiles>  (42) 
Cc1ccc(NC(=O)Nc2ccc(C(=O)N3CCOCC3)cc2)c(O)c1S(=O)(=O)C1CCN(Cc2ccccc2)CC1

>  <score_type>  (42) 
oracle

>  <origin>  (42) 
adgpu

>  <m_score__min__energy>  (42) 
-13.130000000000001

>  <m_primary>  (42) 
energy

$$$$
42:0
     RDKit          3D

 53 56  0  0  0  0  0  0  0  0999 V2000
   -5.6790   26.3030  -31.1590 O   0  0  0  0  0  0  0  0  0  0  0  0
   -5.2810   25.1020  -30.3410 S   0  0  0  0  0  0  0  0  0  0  0  0
   -5.6950   25.3130  -28.9050 O   0  0  0  0  0  0  0  0  0  0  0  0
   -3.5500   24.9140  -30.4160 N   0  0  0  0  0  0  0  0  0  0  0  0
   -2.7640   24.1730  -29.4740 C   0  0  0  0  0  0  0  0  0  0  0  0
   -3.1170   22.8710  -29.0800 C   0  0  0  0  0  0  0  0  0  0  0  0
   -2.2570   22.1060  -28.2770 C   0  0  0  0  0  0  0  0  0  0  0  0
   -1.0370   22.6620  -27.8370 C   0  0  0  0  0  0  0  0  0  0  0  0
   -0.7310   23.9980  -28.1570 C   0  0  0  0  0  0  0  0  0  0  0  0
   -1.5840   24.7440  -28.9810 C   0  0  0  0  0  0  0  0  0  0  0  0
   -1.2410   26.0500  -29.3280 O   0  0  0  0  0  0  0  0  0  0  0  0
   -0.1020   21.8590  -26.9550 C   0  0  0  0  0  0  0  0  0  0  0  0
   -0.3050   20.4070  -27.0880 N   0  0  0  0  0  0  0  0  0  0  0  0
   -1.7200   20.0540  -26.9010 C   0  0  0  0  0  0  0  0  0  0  0  0
   -2.5890   20.6540  -28.0190 C   0  0  0  0  0  0  0  0  0  0  0  0
   -6.0810   23.6770  -31.0090 C   0  0  0  0  0  0  0  0  0  0  0  0
   -5.4910   22.4130  -30.8600 C   0  0  0  0  0  0  0  0  0  0  0  0
   -6.1830   21.2610  -31.2440 C   0  0  0  0  0  0  0  0  0  0  0  0
   -7.4580   21.3660  -31.8110 C   0  0  0  0  0  0  0  0  0  0  0  0
   -8.3720   19.9090  -32.2020 S   0  0  0  0  0  0  0  0  0  0  0  0
   -8.5540   19.0810  -30.9580 O   0  0  0  0  0  0  0  0  0  0  0  0
   -9.7340   20.3130  -32.7060 O   0  0  0  0  0  0  0  0  0  0  0  0
   -7.5070   19.0080  -33.4350 N   0  0  0  0  0  0  0  0  0  0  0  0
   -6.3210   19.7470  -33.9450 C   0  0  0  0  0  0  0  0  0  0  0  0
   -4.9740   19.0740  -33.6180 C   0  0  0  0  0  0  0  0  0  0  0  0
   -4.9700   18.5590  -32.1810 C   0  0  0  0  0  0  0  0  0  0  0  0
   -6.1160   17.5640  -31.9280 C   0  0  0  0  0  0  0  0  0  0  0  0
   -7.2160   17.6270  -33.0040 C   0  0  0  0  0  0  0  0  0  0  0  0
   -8.0290   22.6330  -32.0050 C   0  0  0  0  0  0  0  0  0  0  0  0
   -7.3490   23.7840  -31.5990 C   0  0  0  0  0  0  0  0  0  0  0  0
   -4.0785   22.4466  -29.4047 H   0  0  0  0  0  0  0  0  0  0  0  0
    0.1840   24.4596  -27.7575 H   0  0  0  0  0  0  0  0  0  0  0  0
    0.9354   22.0965  -27.2333 H   0  0  0  0  0  0  0  0  0  0  0  0
   -0.3145   22.1306  -25.9104 H   0  0  0  0  0  0  0  0  0  0  0  0
   -0.0020   20.1070  -28.0460 H   0  0  0  0  0  0  0  0  0  0  0  0
   -1.8225   18.9589  -26.9140 H   0  0  0  0  0  0  0  0  0  0  0  0
   -2.0587   20.4608  -25.9367 H   0  0  0  0  0  0  0  0  0  0  0  0
   -2.4227   20.0820  -28.9437 H   0  0  0  0  0  0  0  0  0  0  0  0
   -3.6401   20.5974  -27.6996 H   0  0  0  0  0  0  0  0  0  0  0  0
   -4.4784   22.3281  -30.4387 H   0  0  0  0  0  0  0  0  0  0  0  0
   -5.7251   20.2712  -31.1004 H   0  0  0  0  0  0  0  0  0  0  0  0
   -6.4094   19.8304  -35.0383 H   0  0  0  0  0  0  0  0  0  0  0  0
   -6.3170   20.7263  -33.4440 H   0  0  0  0  0  0  0  0  0  0  0  0
   -4.8142   18.2304  -34.3056 H   0  0  0  0  0  0  0  0  0  0  0  0
   -4.1686   19.8142  -33.7334 H   0  0  0  0  0  0  0  0  0  0  0  0
   -4.0116   18.0556  -31.9857 H   0  0  0  0  0  0  0  0  0  0  0  0
   -5.1088   19.4188  -31.5090 H   0  0  0  0  0  0  0  0  0  0  0  0
   -5.6993   16.5461  -31.9119 H   0  0  0  0  0  0  0  0  0  0  0  0
   -6.5795   17.8332  -30.9674 H   0  0  0  0  0  0  0  0  0  0  0  0
   -6.8875   17.0464  -33.8786 H   0  0  0  0  0  0  0  0  0  0  0  0
   -8.1361   17.2129  -32.5658 H   0  0  0  0  0  0  0  0  0  0  0  0
   -9.0176   22.7205  -32.4794 H   0  0  0  0  0  0  0  0  0  0  0  0
   -7.8078   24.7735  -31.7420 H   0  0  0  0  0  0  0  0  0  0  0  0
  1  2  2  0
  2  3  2  0
  2  4  1  0
  4  5  1  0
  5  6  2  0
  6  7  1  0
  7  8  2  0
  8  9  1  0
  9 10  2  0
 10 11  1  0
  8 12  1  0
 12 13  1  0
 13 14  1  0
 14 15  1  0
  2 16  1  0
 16 17  2  0
 17 18  1  0
 18 19  2  0
 19 20  1  0
 20 21  2  0
 20 22  2  0
 20 23  1  0
 23 24  1  0
 24 25  1  0
 25 26  1  0
 26 27  1  0
 27 28  1  0
 19 29  1  0
 29 30  2  0
 10  5  1  0
 30 16  1  0
 15  7  1  0
 28 23  1  0
  6 31  1  0
  9 32  1  0
 12 33  1  0
 12 34  1  0
 13 35  1  0
 14 36  1  0
 14 37  1  0
 15 38  1  0
 15 39  1  0
 17 40  1  0
 18 41  1  0
 24 42  1  0
 24 43  1  0
 25 44  1  0
 25 45  1  0
 26 46  1  0
 26 47  1  0
 27 48  1  0
 27 49  1  0
 28 50  1  0
 28 51  1  0
 29 52  1  0
 30 53  1  0
M  CHG  2   4  -1  11  -1
M  END
>  <UniqueID>  (43) 
42

>  <SMILES>  (43) 
O=S(=O)([N-]c1cc2c(cc1[O-])CNCC2)c1ccc(S(=O)(=O)N2CCCCC2)cc1

>  <Energy>  (43) 
68.31231569422246

>  <Genealogy>  (43) 
O=S(=O)([N-]c1cc2c(cc1[O-])CNCC2)c1ccc(S(=O)(=O)N2CCCCC2)cc1 (protonated)
O=S(=O)([N-]c1cc2c(cc1[O-])CNCC2)c1ccc(S(=O)(=O)N2CCCCC2)cc1 (3D coordinates assigned)
O=S(=O)([N-]c1cc2c(cc1[O-])CNCC2)c1ccc(S(=O)(=O)N2CCCCC2)cc1 (nonaromatic ring conformer: 68.31231569422246 kcal/mol)

>  <smiles>  (43) 
O=S(=O)(Nc1cc2c(cc1O)CNCC2)c1ccc(S(=O)(=O)N2CCCCC2)cc1

>  <score_type>  (43) 
oracle

>  <origin>  (43) 
adgpu

>  <m_score__min__energy>  (43) 
-15.630000000000001

>  <m_primary>  (43) 
energy

$$$$
43:0
     RDKit          3D

 42 45  0  0  0  0  0  0  0  0999 V2000
   -1.1513   17.9031  -32.3580 H   0  0  0  0  0  0  0  0  0  0  0  0
   -1.5480   18.9290  -32.3460 C   0  0  0  0  0  0  0  0  0  0  0  0
   -1.3290   19.7470  -31.2350 C   0  0  0  0  0  0  0  0  0  0  0  0
   -0.7564   19.3652  -30.3769 H   0  0  0  0  0  0  0  0  0  0  0  0
   -1.8370   21.0530  -31.2110 C   0  0  0  0  0  0  0  0  0  0  0  0
   -1.6010   22.0870  -29.8030 S   0  0  0  0  0  0  0  0  0  0  0  0
   -0.1380   22.1720  -29.4680 O   0  0  0  0  0  0  0  0  0  0  0  0
   -2.3370   21.4910  -28.6370 O   0  0  0  0  0  0  0  0  0  0  0  0
   -2.2120   23.6860  -30.0870 N   0  0  0  0  0  0  0  0  0  0  0  0
   -3.4460   23.9650  -30.3800 C   0  0  0  0  0  0  0  0  0  0  0  0
   -3.8690   25.2300  -30.5800 N   0  0  0  0  0  0  0  0  0  0  0  0
   -5.1700   25.3080  -30.8540 N   0  0  0  0  0  0  0  0  0  0  0  0
   -5.7840   24.1050  -30.8830 C   0  0  0  0  0  0  0  0  0  0  0  0
   -7.2490   23.9360  -31.1010 C   0  0  0  0  0  0  0  0  0  0  0  0
   -7.7600   23.8771  -30.1287 H   0  0  0  0  0  0  0  0  0  0  0  0
   -7.6369   24.7954  -31.6676 H   0  0  0  0  0  0  0  0  0  0  0  0
   -7.4311   23.0109  -31.6676 H   0  0  0  0  0  0  0  0  0  0  0  0
   -4.7110   22.8530  -30.5320 S   0  0  0  0  0  0  0  0  0  0  0  0
   -2.5290   21.5460  -32.3240 C   0  0  0  0  0  0  0  0  0  0  0  0
   -2.9121   22.5771  -32.3185 H   0  0  0  0  0  0  0  0  0  0  0  0
   -2.7350   20.7320  -33.4430 C   0  0  0  0  0  0  0  0  0  0  0  0
   -3.2621   21.1316  -34.3219 H   0  0  0  0  0  0  0  0  0  0  0  0
   -2.2730   19.4120  -33.4480 C   0  0  0  0  0  0  0  0  0  0  0  0
   -2.5210   18.5850  -34.5930 N   0  0  0  0  0  0  0  0  0  0  0  0
   -3.6050   17.6540  -34.7140 C   0  0  0  0  0  0  0  0  0  0  0  0
   -3.4740   16.6670  -35.4850 O   0  0  0  0  0  0  0  0  0  0  0  0
   -4.8880   17.8710  -34.0070 C   0  0  0  0  0  0  0  0  0  0  0  0
   -5.3270   19.1410  -33.7880 N   0  0  0  0  0  0  0  0  0  0  0  0
   -6.5000   19.4050  -33.1560 C   0  0  0  0  0  0  0  0  0  0  0  0
   -6.9080   20.7280  -32.9540 C   0  0  0  0  0  0  0  0  0  0  0  0
   -6.2730   21.5579  -33.2975 H   0  0  0  0  0  0  0  0  0  0  0  0
   -8.1220   20.9950  -32.3160 C   0  0  0  0  0  0  0  0  0  0  0  0
   -8.4452   22.0357  -32.1662 H   0  0  0  0  0  0  0  0  0  0  0  0
   -8.9280   19.9430  -31.8670 C   0  0  0  0  0  0  0  0  0  0  0  0
   -9.8812   20.1592  -31.3624 H   0  0  0  0  0  0  0  0  0  0  0  0
   -8.5250   18.6170  -32.0580 C   0  0  0  0  0  0  0  0  0  0  0  0
   -9.1585   17.7922  -31.6997 H   0  0  0  0  0  0  0  0  0  0  0  0
   -7.3120   18.3400  -32.7070 C   0  0  0  0  0  0  0  0  0  0  0  0
   -6.8840   17.0260  -32.9260 C   0  0  0  0  0  0  0  0  0  0  0  0
   -7.5002   16.1819  -32.5829 H   0  0  0  0  0  0  0  0  0  0  0  0
   -5.6730   16.7870  -33.5810 C   0  0  0  0  0  0  0  0  0  0  0  0
   -5.3363   15.7555  -33.7620 H   0  0  0  0  0  0  0  0  0  0  0  0
  1  2  1  0
  2  3  2  0
  3  4  1  0
  3  5  1  0
  5  6  1  0
  6  7  2  0
  6  8  2  0
  6  9  1  0
  9 10  2  0
 10 11  1  0
 11 12  1  0
 12 13  2  0
 13 14  1  0
 14 15  1  0
 14 16  1  0
 14 17  1  0
 13 18  1  0
  5 19  2  0
 19 20  1  0
 19 21  1  0
 21 22  1  0
 21 23  2  0
 23 24  1  0
 24 25  1  0
 25 26  2  0
 25 27  1  0
 27 28  2  0
 28 29  1  0
 29 30  2  0
 30 31  1  0
 30 32  1  0
 32 33  1  0
 32 34  2  0
 34 35  1  0
 34 36  1  0
 36 37  1  0
 36 38  2  0
 38 39  1  0
 39 40  1  0
 39 41  2  0
 41 42  1  0
 23  2  1  0
 41 27  1  0
 18 10  1  0
 38 29  1  0
M  CHG  2  11  -1  24  -1
M  END
>  <UniqueID>  (44) 
43

>  <SMILES>  (44) 
Cc1n[n-]/c(=N/S(=O)(=O)c2ccc([N-]C(=O)c3ccc4ccccc4n3)cc2)s1

>  <Energy>  (44) 
88.84197198955266

>  <Genealogy>  (44) 
Cc1n[n-]c(=NS(=O)(=O)c2ccc([N-]C(=O)c3ccc4ccccc4n3)cc2)s1 (protonated)
Cc1n[n-]/c(=N/S(=O)(=O)c2ccc([N-]C(=O)c3ccc4ccccc4n3)cc2)s1 (cis-trans isomerization)
Cc1n[n-]/c(=N/S(=O)(=O)c2ccc([N-]C(=O)c3ccc4ccccc4n3)cc2)s1 (3D coordinates assigned)
Cc1n[n-]/c(=N/S(=O)(=O)c2ccc([N-]C(=O)c3ccc4ccccc4n3)cc2)s1 (optimized conformer: 88.84197198955266 kcal/mol)

>  <smiles>  (44) 
Cc1n[nH]c(=NS(=O)(=O)c2ccc(NC(=O)c3ccc4ccccc4n3)cc2)s1

>  <score_type>  (44) 
oracle

>  <origin>  (44) 
adgpu

>  <m_score__min__energy>  (44) 
-11.44

>  <m_primary>  (44) 
energy

$$$$
44:0
     RDKit          3D

 58 62  0  0  0  0  0  0  0  0999 V2000
   -1.3380   19.4400  -34.5580 N   0  0  0  0  0  0  0  0  0  0  0  0
   -2.0690   18.3790  -34.4910 C   0  0  0  0  0  0  0  0  0  0  0  0
   -1.6630   17.2460  -35.1060 N   0  0  0  0  0  0  0  0  0  0  0  0
   -2.3760   16.1070  -35.0770 C   0  0  0  0  0  0  0  0  0  0  0  0
   -3.5460   16.0730  -34.4130 N   0  0  0  0  0  0  0  0  0  0  0  0
   -4.0040   17.1890  -33.7730 C   0  0  0  0  0  0  0  0  0  0  0  0
   -5.2500   17.0470  -33.1090 N   0  0  0  0  0  0  0  0  0  0  0  0
   -5.3960   16.8730  -31.6810 C   0  0  0  0  0  0  0  0  0  0  0  0
   -6.1540   18.0680  -31.1500 C   0  0  0  0  0  0  0  0  0  0  0  0
   -7.2230   18.3860  -32.0460 N   0  0  0  0  0  0  0  0  0  0  0  0
   -7.9200   19.6290  -31.8020 C   0  0  0  0  0  0  0  0  0  0  0  0
   -9.0550   19.8970  -32.5100 C   0  0  0  0  0  0  0  0  0  0  0  0
   -9.7630   21.0480  -32.3290 N   0  0  0  0  0  0  0  0  0  0  0  0
   -9.3250   21.9600  -31.4190 C   0  0  0  0  0  0  0  0  0  0  0  0
   -8.1760   21.6660  -30.7180 C   0  0  0  0  0  0  0  0  0  0  0  0
   -7.4750   20.5210  -30.8980 N   0  0  0  0  0  0  0  0  0  0  0  0
   -7.6170   17.5290  -33.1550 C   0  0  0  0  0  0  0  0  0  0  0  0
   -6.4390   17.0740  -33.9580 C   0  0  0  0  0  0  0  0  0  0  0  0
   -3.2840   18.3620  -33.7950 C   0  0  0  0  0  0  0  0  0  0  0  0
   -3.7290   19.5680  -33.1140 C   0  0  0  0  0  0  0  0  0  0  0  0
   -4.8630   20.2730  -33.4460 C   0  0  0  0  0  0  0  0  0  0  0  0
   -5.2180   21.4110  -32.7500 C   0  0  0  0  0  0  0  0  0  0  0  0
   -4.4750   21.9040  -31.7000 C   0  0  0  0  0  0  0  0  0  0  0  0
   -4.8220   23.0760  -30.9730 N   0  0  0  0  0  0  0  0  0  0  0  0
   -6.0000   23.8430  -31.3350 C   0  0  0  0  0  0  0  0  0  0  0  0
   -5.7860   25.2570  -30.8320 C   0  0  0  0  0  0  0  0  0  0  0  0
   -5.7180   25.2950  -29.3820 N   0  0  0  0  0  0  0  0  0  0  0  0
   -4.9990   24.1830  -28.8370 C   0  0  0  0  0  0  0  0  0  0  0  0
   -4.0450   23.5700  -29.8490 C   0  0  0  0  0  0  0  0  0  0  0  0
   -3.3370   21.2030  -31.3600 C   0  0  0  0  0  0  0  0  0  0  0  0
   -2.9740   20.0470  -32.0640 C   0  0  0  0  0  0  0  0  0  0  0  0
   -1.5950   20.3450  -34.1060 H   0  0  0  0  0  0  0  0  0  0  0  0
   -0.7580   17.2120  -35.6400 H   0  0  0  0  0  0  0  0  0  0  0  0
   -2.0056   15.2087  -35.5926 H   0  0  0  0  0  0  0  0  0  0  0  0
   -5.9562   15.9499  -31.4710 H   0  0  0  0  0  0  0  0  0  0  0  0
   -4.4105   16.7952  -31.1986 H   0  0  0  0  0  0  0  0  0  0  0  0
   -6.5647   17.8312  -30.1574 H   0  0  0  0  0  0  0  0  0  0  0  0
   -5.4740   18.9287  -31.0674 H   0  0  0  0  0  0  0  0  0  0  0  0
   -9.4093   19.1629  -33.2486 H   0  0  0  0  0  0  0  0  0  0  0  0
   -9.8700   22.9002  -31.2488 H   0  0  0  0  0  0  0  0  0  0  0  0
   -7.8113   22.3941  -29.9785 H   0  0  0  0  0  0  0  0  0  0  0  0
   -8.1361   16.6458  -32.7543 H   0  0  0  0  0  0  0  0  0  0  0  0
   -8.2750   18.1111  -33.8170 H   0  0  0  0  0  0  0  0  0  0  0  0
   -6.6314   16.0649  -34.3512 H   0  0  0  0  0  0  0  0  0  0  0  0
   -6.2757   17.7694  -34.7945 H   0  0  0  0  0  0  0  0  0  0  0  0
   -5.4948   19.9253  -34.2767 H   0  0  0  0  0  0  0  0  0  0  0  0
   -6.1321   21.9464  -33.0461 H   0  0  0  0  0  0  0  0  0  0  0  0
   -6.1262   23.8467  -32.4277 H   0  0  0  0  0  0  0  0  0  0  0  0
   -6.9046   23.4029  -30.8900 H   0  0  0  0  0  0  0  0  0  0  0  0
   -4.8438   25.6460  -31.2455 H   0  0  0  0  0  0  0  0  0  0  0  0
   -6.6367   25.8742  -31.1566 H   0  0  0  0  0  0  0  0  0  0  0  0
   -5.3790   26.1900  -29.0170 H   0  0  0  0  0  0  0  0  0  0  0  0
   -4.4207   24.5263  -27.9666 H   0  0  0  0  0  0  0  0  0  0  0  0
   -5.7306   23.4132  -28.5504 H   0  0  0  0  0  0  0  0  0  0  0  0
   -3.3325   24.3325  -30.1968 H   0  0  0  0  0  0  0  0  0  0  0  0
   -3.4835   22.7448  -29.3866 H   0  0  0  0  0  0  0  0  0  0  0  0
   -2.7085   21.5546  -30.5285 H   0  0  0  0  0  0  0  0  0  0  0  0
   -2.0617   19.5067  -31.7710 H   0  0  0  0  0  0  0  0  0  0  0  0
  1  2  2  3
  2  3  1  0
  3  4  1  0
  4  5  2  0
  5  6  1  0
  6  7  1  0
  7  8  1  0
  8  9  1  0
  9 10  1  0
 10 11  1  0
 11 12  2  0
 12 13  1  0
 13 14  2  0
 14 15  1  0
 15 16  2  0
 10 17  1  0
 17 18  1  0
  6 19  2  0
 19 20  1  0
 20 21  2  0
 21 22  1  0
 22 23  2  0
 23 24  1  0
 24 25  1  0
 25 26  1  0
 26 27  1  0
 27 28  1  0
 28 29  1  0
 23 30  1  0
 30 31  2  0
 19  2  1  0
 31 20  1  0
 18  7  1  0
 29 24  1  0
 16 11  1  0
  1 32  1  0
  3 33  1  0
  4 34  1  0
  8 35  1  0
  8 36  1  0
  9 37  1  0
  9 38  1  0
 12 39  1  0
 14 40  1  0
 15 41  1  0
 17 42  1  0
 17 43  1  0
 18 44  1  0
 18 45  1  0
 21 46  1  0
 22 47  1  0
 25 48  1  0
 25 49  1  0
 26 50  1  0
 26 51  1  0
 27 52  1  0
 28 53  1  0
 28 54  1  0
 29 55  1  0
 29 56  1  0
 30 57  1  0
 31 58  1  0
M  END
>  <smiles>  (45) 
N=c1[nH]cnc(N2CCN(c3cnccn3)CC2)c1-c1ccc(N2CCNCC2)cc1

>  <score_type>  (45) 
oracle

>  <origin>  (45) 
adgpu

>  <m_score__min__energy>  (45) 
-8.0700000000000003

>  <m_primary>  (45) 
energy

$$$$
45:0
     RDKit          3D

 56 58  0  0  0  0  0  0  0  0999 V2000
   -7.9970   23.3790  -31.6800 C   0  0  0  0  0  0  0  0  0  0  0  0
   -7.7540   21.9800  -32.2400 C   0  0  0  0  0  0  0  0  0  0  0  0
   -6.3360   21.6310  -32.1680 N   0  0  0  0  0  0  0  0  0  0  0  0
   -5.8750   20.3490  -31.7160 C   0  0  0  0  0  0  0  0  0  0  0  0
   -6.6960   19.4070  -31.5360 O   0  0  0  0  0  0  0  0  0  0  0  0
   -4.4080   20.1110  -31.4820 C   0  0  0  0  0  0  0  0  0  0  0  0
   -3.5420   21.2800  -31.9970 C   0  0  0  0  0  0  0  0  0  0  0  0
   -3.6280   22.4770  -31.0930 C   0  0  0  0  0  0  0  0  0  0  0  0
   -4.1220   23.6690  -31.4830 N   0  0  0  0  0  0  0  0  0  0  0  0
   -3.9850   24.4990  -30.4590 N   0  0  0  0  0  0  0  0  0  0  0  0
   -3.4250   23.7990  -29.4520 C   0  0  0  0  0  0  0  0  0  0  0  0
   -3.0150   24.4130  -28.1710 C   0  0  0  0  0  0  0  0  0  0  0  0
   -3.9880   24.6170  -27.1820 C   0  0  0  0  0  0  0  0  0  0  0  0
   -3.6640   25.2670  -25.9890 C   0  0  0  0  0  0  0  0  0  0  0  0
   -2.3640   25.7190  -25.7590 C   0  0  0  0  0  0  0  0  0  0  0  0
   -2.1000   26.3980  -24.5580 O   0  0  0  0  0  0  0  0  0  0  0  0
   -0.8330   26.4220  -23.9100 C   0  0  0  0  0  0  0  0  0  0  0  0
   -1.3720   25.4810  -26.7290 C   0  0  0  0  0  0  0  0  0  0  0  0
   -1.6870   24.8150  -27.9330 C   0  0  0  0  0  0  0  0  0  0  0  0
   -0.7040   24.5280  -28.8950 O   0  0  0  0  0  0  0  0  0  0  0  0
    0.4820   23.7810  -28.6450 C   0  0  0  0  0  0  0  0  0  0  0  0
   -3.1870   22.5220  -29.8200 N   0  0  0  0  0  0  0  0  0  0  0  0
   -2.4980   21.4880  -29.1000 C   0  0  0  0  0  0  0  0  0  0  0  0
   -3.0800   20.9610  -27.9350 C   0  0  0  0  0  0  0  0  0  0  0  0
   -2.4260   19.9630  -27.2080 C   0  0  0  0  0  0  0  0  0  0  0  0
   -1.1910   19.4790  -27.6420 C   0  0  0  0  0  0  0  0  0  0  0  0
   -0.6080   19.9860  -28.8060 C   0  0  0  0  0  0  0  0  0  0  0  0
   -1.2560   20.9850  -29.5460 C   0  0  0  0  0  0  0  0  0  0  0  0
   -0.4910   21.5680  -31.0660 S   0  0  0  0  0  0  0  0  0  0  0  0
   -0.2940   19.8980  -31.7630 C   0  0  0  0  0  0  0  0  0  0  0  0
   -7.9903   23.3402  -30.5807 H   0  0  0  0  0  0  0  0  0  0  0  0
   -7.2030   24.0562  -32.0279 H   0  0  0  0  0  0  0  0  0  0  0  0
   -8.9728   23.7488  -32.0279 H   0  0  0  0  0  0  0  0  0  0  0  0
   -8.3348   21.2516  -31.6552 H   0  0  0  0  0  0  0  0  0  0  0  0
   -8.0683   21.9626  -33.2940 H   0  0  0  0  0  0  0  0  0  0  0  0
   -5.6340   22.3830  -32.3560 H   0  0  0  0  0  0  0  0  0  0  0  0
   -4.2358   19.9906  -30.4023 H   0  0  0  0  0  0  0  0  0  0  0  0
   -4.1188   19.2052  -32.0352 H   0  0  0  0  0  0  0  0  0  0  0  0
   -2.4942   20.9498  -32.0522 H   0  0  0  0  0  0  0  0  0  0  0  0
   -3.9165   21.5725  -32.9891 H   0  0  0  0  0  0  0  0  0  0  0  0
   -5.0159   24.2618  -27.3473 H   0  0  0  0  0  0  0  0  0  0  0  0
   -4.4396   25.4238  -25.2249 H   0  0  0  0  0  0  0  0  0  0  0  0
   -0.9787   26.4192  -22.8197 H   0  0  0  0  0  0  0  0  0  0  0  0
   -0.2535   25.5347  -24.2047 H   0  0  0  0  0  0  0  0  0  0  0  0
   -0.2876   27.3306  -24.2047 H   0  0  0  0  0  0  0  0  0  0  0  0
   -0.3407   25.8175  -26.5468 H   0  0  0  0  0  0  0  0  0  0  0  0
    0.6333   23.6857  -27.5596 H   0  0  0  0  0  0  0  0  0  0  0  0
    0.3858   22.7801  -29.0911 H   0  0  0  0  0  0  0  0  0  0  0  0
    1.3431   24.3001  -29.0911 H   0  0  0  0  0  0  0  0  0  0  0  0
   -4.0560   21.3361  -27.5933 H   0  0  0  0  0  0  0  0  0  0  0  0
   -2.8845   19.5587  -26.2935 H   0  0  0  0  0  0  0  0  0  0  0  0
   -0.6754   18.6964  -27.0661 H   0  0  0  0  0  0  0  0  0  0  0  0
    0.3648   19.5992  -29.1437 H   0  0  0  0  0  0  0  0  0  0  0  0
   -0.2078   19.1672  -30.9453 H   0  0  0  0  0  0  0  0  0  0  0  0
   -1.1695   19.6536  -32.3824 H   0  0  0  0  0  0  0  0  0  0  0  0
    0.6144   19.8640  -32.3824 H   0  0  0  0  0  0  0  0  0  0  0  0
  1  2  1  0
  2  3  1  0
  3  4  1  0
  4  5  2  0
  4  6  1  0
  6  7  1  0
  7  8  1  0
  8  9  2  0
  9 10  1  0
 10 11  2  0
 11 12  1  0
 12 13  2  0
 13 14  1  0
 14 15  2  0
 15 16  1  0
 16 17  1  0
 15 18  1  0
 18 19  2  0
 19 20  1  0
 20 21  1  0
 11 22  1  0
 22 23  1  0
 23 24  2  0
 24 25  1  0
 25 26  2  0
 26 27  1  0
 27 28  2  0
 28 29  1  0
 29 30  1  0
 22  8  1  0
 28 23  1  0
 19 12  1  0
  1 31  1  0
  1 32  1  0
  1 33  1  0
  2 34  1  0
  2 35  1  0
  3 36  1  0
  6 37  1  0
  6 38  1  0
  7 39  1  0
  7 40  1  0
 13 41  1  0
 14 42  1  0
 17 43  1  0
 17 44  1  0
 17 45  1  0
 18 46  1  0
 21 47  1  0
 21 48  1  0
 21 49  1  0
 24 50  1  0
 25 51  1  0
 26 52  1  0
 27 53  1  0
 30 54  1  0
 30 55  1  0
 30 56  1  0
M  END
>  <UniqueID>  (46) 
44

>  <SMILES>  (46) 
CCNC(=O)CCc1nnc(-c2ccc(OC)cc2OC)n1-c1ccccc1SC

>  <Energy>  (46) 
90.89933248889203

>  <Genealogy>  (46) 
CCNC(=O)CCc1nnc(-c2ccc(OC)cc2OC)n1-c1ccccc1SC (3D coordinates assigned)
CCNC(=O)CCc1nnc(-c2ccc(OC)cc2OC)n1-c1ccccc1SC (optimized conformer: 90.89933248889203 kcal/mol)

>  <smiles>  (46) 
CCNC(=O)CCc1nnc(-c2ccc(OC)cc2OC)n1-c1ccccc1SC

>  <score_type>  (46) 
oracle

>  <origin>  (46) 
adgpu

>  <m_score__min__energy>  (46) 
-7.9800000000000004

>  <m_primary>  (46) 
energy

$$$$
46:0
     RDKit          3D

 59 62  0  0  0  0  0  0  0  0999 V2000
   -9.0880   19.1750  -32.1920 C   0  0  0  0  0  0  0  0  0  0  0  0
   -8.1300   20.3290  -32.1270 C   0  0  0  0  0  0  0  0  0  0  0  0
   -8.6060   21.6310  -31.9200 C   0  0  0  0  0  0  0  0  0  0  0  0
   -7.7180   22.7070  -31.8900 C   0  0  0  0  0  0  0  0  0  0  0  0
   -6.3450   22.4990  -32.0660 C   0  0  0  0  0  0  0  0  0  0  0  0
   -5.4560   23.6060  -31.9180 N   0  0  0  0  0  0  0  0  0  0  0  0
   -5.5160   24.5850  -30.4930 S   0  0  0  0  0  0  0  0  0  0  0  0
   -6.9120   24.5580  -29.9310 O   0  0  0  0  0  0  0  0  0  0  0  0
   -5.1530   26.0060  -30.8300 O   0  0  0  0  0  0  0  0  0  0  0  0
   -4.3850   23.9320  -29.3140 C   0  0  0  0  0  0  0  0  0  0  0  0
   -4.6160   22.6820  -28.7230 C   0  0  0  0  0  0  0  0  0  0  0  0
   -3.6640   22.1260  -27.8640 C   0  0  0  0  0  0  0  0  0  0  0  0
   -2.4690   22.8050  -27.6080 C   0  0  0  0  0  0  0  0  0  0  0  0
   -2.2250   24.0510  -28.2080 C   0  0  0  0  0  0  0  0  0  0  0  0
   -0.7130   24.9070  -27.9250 S   0  0  0  0  0  0  0  0  0  0  0  0
   -0.8180   26.2780  -28.5340 O   0  0  0  0  0  0  0  0  0  0  0  0
    0.4250   24.1750  -28.5810 O   0  0  0  0  0  0  0  0  0  0  0  0
   -0.4300   25.0400  -26.2070 N   0  0  0  0  0  0  0  0  0  0  0  0
    0.8950   25.6430  -25.9260 C   0  0  0  0  0  0  0  0  0  0  0  0
    0.8020   27.1350  -25.5590 C   0  0  0  0  0  0  0  0  0  0  0  0
   -0.0860   27.3780  -24.3950 N   0  0  0  0  0  0  0  0  0  0  0  0
    0.6860   27.5470  -23.1540 C   0  0  0  0  0  0  0  0  0  0  0  0
   -1.1330   26.3450  -24.2180 C   0  0  0  0  0  0  0  0  0  0  0  0
   -1.5560   25.7480  -25.5650 C   0  0  0  0  0  0  0  0  0  0  0  0
   -3.1920   24.6170  -29.0470 C   0  0  0  0  0  0  0  0  0  0  0  0
   -5.8510   21.1940  -32.2870 C   0  0  0  0  0  0  0  0  0  0  0  0
   -4.4000   20.9320  -32.4460 C   0  0  0  0  0  0  0  0  0  0  0  0
   -3.9390   20.1090  -33.4920 C   0  0  0  0  0  0  0  0  0  0  0  0
   -2.5730   19.8500  -33.6350 C   0  0  0  0  0  0  0  0  0  0  0  0
   -1.6560   20.4020  -32.7390 C   0  0  0  0  0  0  0  0  0  0  0  0
   -2.1020   21.2220  -31.6980 C   0  0  0  0  0  0  0  0  0  0  0  0
   -0.9490   21.9140  -30.5720 Cl  0  0  0  0  0  0  0  0  0  0  0  0
   -3.4670   21.4920  -31.5550 C   0  0  0  0  0  0  0  0  0  0  0  0
   -6.7570   20.1190  -32.3270 C   0  0  0  0  0  0  0  0  0  0  0  0
   -9.3507   18.8586  -31.1718 H   0  0  0  0  0  0  0  0  0  0  0  0
   -9.9987   19.4841  -32.7259 H   0  0  0  0  0  0  0  0  0  0  0  0
   -8.6166   18.3367  -32.7259 H   0  0  0  0  0  0  0  0  0  0  0  0
   -9.6832   21.8052  -31.7807 H   0  0  0  0  0  0  0  0  0  0  0  0
   -8.0996   23.7257  -31.7269 H   0  0  0  0  0  0  0  0  0  0  0  0
   -5.5480   22.1379  -28.9357 H   0  0  0  0  0  0  0  0  0  0  0  0
   -3.8552   21.1526  -27.3886 H   0  0  0  0  0  0  0  0  0  0  0  0
   -1.7190   22.3627  -26.9358 H   0  0  0  0  0  0  0  0  0  0  0  0
    1.3571   25.1022  -25.0870 H   0  0  0  0  0  0  0  0  0  0  0  0
    1.4980   25.5629  -26.8425 H   0  0  0  0  0  0  0  0  0  0  0  0
    1.8101   27.5025  -25.3168 H   0  0  0  0  0  0  0  0  0  0  0  0
    0.3753   27.6664  -26.4225 H   0  0  0  0  0  0  0  0  0  0  0  0
    0.0239   27.4020  -22.2877 H   0  0  0  0  0  0  0  0  0  0  0  0
    1.4977   26.8053  -23.1233 H   0  0  0  0  0  0  0  0  0  0  0  0
    1.1136   28.5600  -23.1233 H   0  0  0  0  0  0  0  0  0  0  0  0
   -0.7400   25.5419  -23.5772 H   0  0  0  0  0  0  0  0  0  0  0  0
   -2.0122   26.8161  -23.7543 H   0  0  0  0  0  0  0  0  0  0  0  0
   -2.3805   25.0385  -25.4010 H   0  0  0  0  0  0  0  0  0  0  0  0
   -1.8777   26.5666  -26.2256 H   0  0  0  0  0  0  0  0  0  0  0  0
   -3.0146   25.6041  -29.4989 H   0  0  0  0  0  0  0  0  0  0  0  0
   -4.6570   19.6683  -34.1993 H   0  0  0  0  0  0  0  0  0  0  0  0
   -2.2195   19.2092  -34.4562 H   0  0  0  0  0  0  0  0  0  0  0  0
   -0.5822   20.1918  -32.8519 H   0  0  0  0  0  0  0  0  0  0  0  0
   -3.8127   22.1461  -30.7410 H   0  0  0  0  0  0  0  0  0  0  0  0
   -6.3849   19.1015  -32.5173 H   0  0  0  0  0  0  0  0  0  0  0  0
  1  2  1  0
  2  3  2  0
  3  4  1  0
  4  5  2  0
  5  6  1  0
  6  7  1  0
  7  8  2  0
  7  9  2  0
  7 10  1  0
 10 11  2  0
 11 12  1  0
 12 13  2  0
 13 14  1  0
 14 15  1  0
 15 16  2  0
 15 17  2  0
 15 18  1  0
 18 19  1  0
 19 20  1  0
 20 21  1  0
 21 22  1  0
 21 23  1  0
 23 24  1  0
 14 25  2  0
  5 26  1  0
 26 27  1  0
 27 28  2  0
 28 29  1  0
 29 30  2  0
 30 31  1  0
 31 32  1  0
 31 33  2  0
 26 34  2  0
 34  2  1  0
 25 10  1  0
 33 27  1  0
 24 18  1  0
  1 35  1  0
  1 36  1  0
  1 37  1  0
  3 38  1  0
  4 39  1  0
 11 40  1  0
 12 41  1  0
 13 42  1  0
 19 43  1  0
 19 44  1  0
 20 45  1  0
 20 46  1  0
 22 47  1  0
 22 48  1  0
 22 49  1  0
 23 50  1  0
 23 51  1  0
 24 52  1  0
 24 53  1  0
 25 54  1  0
 28 55  1  0
 29 56  1  0
 30 57  1  0
 33 58  1  0
 34 59  1  0
M  CHG  1   6  -1
M  END
>  <UniqueID>  (47) 
45

>  <SMILES>  (47) 
Cc1ccc([N-]S(=O)(=O)c2cccc(S(=O)(=O)N3CCN(C)CC3)c2)c(-c2cccc(Cl)c2)c1

>  <Energy>  (47) 
84.74565595948346

>  <Genealogy>  (47) 
Cc1ccc([N-]S(=O)(=O)c2cccc(S(=O)(=O)N3CCN(C)CC3)c2)c(-c2cccc(Cl)c2)c1 (protonated)
Cc1ccc([N-]S(=O)(=O)c2cccc(S(=O)(=O)N3CCN(C)CC3)c2)c(-c2cccc(Cl)c2)c1 (3D coordinates assigned)
Cc1ccc([N-]S(=O)(=O)c2cccc(S(=O)(=O)N3CCN(C)CC3)c2)c(-c2cccc(Cl)c2)c1 (nonaromatic ring conformer: 84.74565595948346 kcal/mol)

>  <smiles>  (47) 
Cc1ccc(NS(=O)(=O)c2cccc(S(=O)(=O)N3CCN(C)CC3)c2)c(-c2cccc(Cl)c2)c1

>  <score_type>  (47) 
oracle

>  <origin>  (47) 
adgpu

>  <m_score__min__energy>  (47) 
-12.1

>  <m_primary>  (47) 
energy

$$$$
47:0
     RDKit          3D

 52 55  0  0  0  0  0  0  0  0999 V2000
   -6.1790   25.8180  -29.5510 O   0  0  0  0  0  0  0  0  0  0  0  0
   -5.0370   24.8890  -29.8570 S   0  0  0  0  0  0  0  0  0  0  0  0
   -4.1240   25.5400  -30.8600 O   0  0  0  0  0  0  0  0  0  0  0  0
   -4.1680   24.5410  -28.3990 N   0  0  0  0  0  0  0  0  0  0  0  0
   -3.1750   23.5150  -28.4060 C   0  0  0  0  0  0  0  0  0  0  0  0
   -3.4770   22.2520  -27.8780 C   0  0  0  0  0  0  0  0  0  0  0  0
   -2.4760   21.2770  -27.7490 C   0  0  0  0  0  0  0  0  0  0  0  0
   -1.1650   21.5620  -28.1890 C   0  0  0  0  0  0  0  0  0  0  0  0
   -0.8680   22.8300  -28.7170 C   0  0  0  0  0  0  0  0  0  0  0  0
   -1.8660   23.8090  -28.8190 C   0  0  0  0  0  0  0  0  0  0  0  0
   -1.5570   25.0840  -29.3000 O   0  0  0  0  0  0  0  0  0  0  0  0
   -0.0460   20.5640  -27.9800 C   0  0  0  0  0  0  0  0  0  0  0  0
   -0.5440   19.1890  -27.7930 N   0  0  0  0  0  0  0  0  0  0  0  0
   -1.5840   19.1460  -26.7570 C   0  0  0  0  0  0  0  0  0  0  0  0
   -2.8320   19.9160  -27.2050 C   0  0  0  0  0  0  0  0  0  0  0  0
   -5.6680   23.3730  -30.4910 C   0  0  0  0  0  0  0  0  0  0  0  0
   -7.0430   23.0970  -30.4120 C   0  0  0  0  0  0  0  0  0  0  0  0
   -7.5800   22.0020  -31.0950 C   0  0  0  0  0  0  0  0  0  0  0  0
   -6.7470   21.1700  -31.8570 C   0  0  0  0  0  0  0  0  0  0  0  0
   -7.4570   19.9050  -32.8580 S   0  0  0  0  0  0  0  0  0  0  0  0
   -8.9520   20.0700  -32.8870 O   0  0  0  0  0  0  0  0  0  0  0  0
   -6.9340   20.0570  -34.2600 O   0  0  0  0  0  0  0  0  0  0  0  0
   -7.0210   18.3120  -32.2570 N   0  0  0  0  0  0  0  0  0  0  0  0
   -7.2390   17.2530  -33.2630 C   0  0  0  0  0  0  0  0  0  0  0  0
   -6.1940   17.3150  -34.4070 C   0  0  0  0  0  0  0  0  0  0  0  0
   -5.0210   18.0380  -34.0670 O   0  0  0  0  0  0  0  0  0  0  0  0
   -4.6220   17.7310  -32.7500 C   0  0  0  0  0  0  0  0  0  0  0  0
   -5.6360   18.2900  -31.7290 C   0  0  0  0  0  0  0  0  0  0  0  0
   -5.3680   21.4270  -31.9070 C   0  0  0  0  0  0  0  0  0  0  0  0
   -4.8330   22.5260  -31.2320 C   0  0  0  0  0  0  0  0  0  0  0  0
   -4.5058   22.0236  -27.5626 H   0  0  0  0  0  0  0  0  0  0  0  0
    0.1549   23.0559  -29.0526 H   0  0  0  0  0  0  0  0  0  0  0  0
   -2.2590   25.6710  -29.7440 H   0  0  0  0  0  0  0  0  0  0  0  0
    0.6134   20.5838  -28.8602 H   0  0  0  0  0  0  0  0  0  0  0  0
    0.4924   20.8520  -27.0650 H   0  0  0  0  0  0  0  0  0  0  0  0
   -0.9500   18.8480  -28.6990 H   0  0  0  0  0  0  0  0  0  0  0  0
   -1.8570   18.0981  -26.5636 H   0  0  0  0  0  0  0  0  0  0  0  0
   -1.1903   19.6145  -25.8429 H   0  0  0  0  0  0  0  0  0  0  0  0
   -3.3447   19.3403  -27.9897 H   0  0  0  0  0  0  0  0  0  0  0  0
   -3.4850   20.0538  -26.3306 H   0  0  0  0  0  0  0  0  0  0  0  0
   -7.6988   23.7442  -29.8111 H   0  0  0  0  0  0  0  0  0  0  0  0
   -8.6582   21.7925  -31.0347 H   0  0  0  0  0  0  0  0  0  0  0  0
   -7.1666   16.2731  -32.7686 H   0  0  0  0  0  0  0  0  0  0  0  0
   -8.2354   17.4032  -33.7042 H   0  0  0  0  0  0  0  0  0  0  0  0
   -5.9047   16.2868  -34.6698 H   0  0  0  0  0  0  0  0  0  0  0  0
   -6.6669   17.8445  -35.2473 H   0  0  0  0  0  0  0  0  0  0  0  0
   -4.5602   16.6386  -32.6367 H   0  0  0  0  0  0  0  0  0  0  0  0
   -3.6403   18.1901  -32.5615 H   0  0  0  0  0  0  0  0  0  0  0  0
   -5.6123   17.6602  -30.8275 H   0  0  0  0  0  0  0  0  0  0  0  0
   -5.3473   19.3277  -31.5056 H   0  0  0  0  0  0  0  0  0  0  0  0
   -4.7066   20.7604  -32.4799 H   0  0  0  0  0  0  0  0  0  0  0  0
   -3.7528   22.7275  -31.2821 H   0  0  0  0  0  0  0  0  0  0  0  0
  1  2  2  0
  2  3  2  0
  2  4  1  0
  4  5  1  0
  5  6  2  0
  6  7  1  0
  7  8  2  0
  8  9  1  0
  9 10  2  0
 10 11  1  0
  8 12  1  0
 12 13  1  0
 13 14  1  0
 14 15  1  0
  2 16  1  0
 16 17  2  0
 17 18  1  0
 18 19  2  0
 19 20  1  0
 20 21  2  0
 20 22  2  0
 20 23  1  0
 23 24  1  0
 24 25  1  0
 25 26  1  0
 26 27  1  0
 27 28  1  0
 19 29  1  0
 29 30  2  0
 10  5  1  0
 30 16  1  0
 15  7  1  0
 28 23  1  0
  6 31  1  0
  9 32  1  0
 11 33  1  0
 12 34  1  0
 12 35  1  0
 13 36  1  0
 14 37  1  0
 14 38  1  0
 15 39  1  0
 15 40  1  0
 17 41  1  0
 18 42  1  0
 24 43  1  0
 24 44  1  0
 25 45  1  0
 25 46  1  0
 27 47  1  0
 27 48  1  0
 28 49  1  0
 28 50  1  0
 29 51  1  0
 30 52  1  0
M  CHG  1   4  -1
M  END
>  <UniqueID>  (48) 
46

>  <SMILES>  (48) 
O=S(=O)([N-]c1cc2c(cc1O)CNCC2)c1ccc(S(=O)(=O)N2CCOCC2)cc1

>  <Energy>  (48) 
73.60740115044544

>  <Genealogy>  (48) 
O=S(=O)([N-]c1cc2c(cc1O)CNCC2)c1ccc(S(=O)(=O)N2CCOCC2)cc1 (protonated)
O=S(=O)([N-]c1cc2c(cc1O)CNCC2)c1ccc(S(=O)(=O)N2CCOCC2)cc1 (3D coordinates assigned)
O=S(=O)([N-]c1cc2c(cc1O)CNCC2)c1ccc(S(=O)(=O)N2CCOCC2)cc1 (nonaromatic ring conformer: 73.60740115044544 kcal/mol)

>  <smiles>  (48) 
O=S(=O)(Nc1cc2c(cc1O)CNCC2)c1ccc(S(=O)(=O)N2CCOCC2)cc1

>  <score_type>  (48) 
oracle

>  <origin>  (48) 
adgpu

>  <m_score__min__energy>  (48) 
-12.77

>  <m_primary>  (48) 
energy

$$$$
