0:0
     RDKit          3D

 30 32  0  0  0  0  0  0  0  0999 V2000
   -4.5530   25.5170  -30.7680 N   0  0  0  0  0  0  0  0  0  0  0  0
   -5.5060   24.6570  -30.6620 C   0  0  0  0  0  0  0  0  0  0  0  0
   -6.0160   23.8200  -31.5930 N   0  0  0  0  0  0  0  0  0  0  0  0
   -7.0040   23.0860  -31.0720 C   0  0  0  0  0  0  0  0  0  0  0  0
   -8.0170   21.8270  -31.8700 S   0  0  0  0  0  0  0  0  0  0  0  0
   -7.5040   20.1660  -31.3450 C   0  0  0  0  0  0  0  0  0  0  0  0
   -6.6350   19.4840  -32.3060 C   0  0  0  0  0  0  0  0  0  0  0  0
   -7.1120   18.3180  -32.8940 C   0  0  0  0  0  0  0  0  0  0  0  0
   -6.3840   17.6020  -33.8100 C   0  0  0  0  0  0  0  0  0  0  0  0
   -6.8580   16.5470  -34.3200 O   0  0  0  0  0  0  0  0  0  0  0  0
   -5.1810   18.0560  -34.1310 O   0  0  0  0  0  0  0  0  0  0  0  0
   -4.6800   19.1510  -33.6060 C   0  0  0  0  0  0  0  0  0  0  0  0
   -3.4160   19.5310  -34.0140 C   0  0  0  0  0  0  0  0  0  0  0  0
   -2.8880   20.6990  -33.4510 C   0  0  0  0  0  0  0  0  0  0  0  0
   -1.6050   21.0920  -33.8600 O   0  0  0  0  0  0  0  0  0  0  0  0
   -3.5980   21.4380  -32.5290 C   0  0  0  0  0  0  0  0  0  0  0  0
   -4.8720   21.0440  -32.1270 C   0  0  0  0  0  0  0  0  0  0  0  0
   -5.3810   19.8990  -32.6820 C   0  0  0  0  0  0  0  0  0  0  0  0
   -7.1240   23.4640  -29.7830 N   0  0  0  0  0  0  0  0  0  0  0  0
   -6.2150   24.4130  -29.5470 N   0  0  0  0  0  0  0  0  0  0  0  0
   -4.0280   25.6780  -31.6440 H   0  0  0  0  0  0  0  0  0  0  0  0
   -6.9633   20.2554  -30.3913 H   0  0  0  0  0  0  0  0  0  0  0  0
   -8.4188   19.5617  -31.2556 H   0  0  0  0  0  0  0  0  0  0  0  0
   -8.1120   17.9555  -32.6138 H   0  0  0  0  0  0  0  0  0  0  0  0
   -2.8490   18.9414  -34.7494 H   0  0  0  0  0  0  0  0  0  0  0  0
   -1.4780   21.6800  -34.6610 H   0  0  0  0  0  0  0  0  0  0  0  0
   -3.1528   22.3503  -32.1054 H   0  0  0  0  0  0  0  0  0  0  0  0
   -5.4466   21.6285  -31.3934 H   0  0  0  0  0  0  0  0  0  0  0  0
   -7.8220   23.0660  -29.1050 H   0  0  0  0  0  0  0  0  0  0  0  0
   -6.1140   24.8690  -28.6020 H   0  0  0  0  0  0  0  0  0  0  0  0
  1  2  2  3
  2  3  1  0
  3  4  2  0
  4  5  1  0
  5  6  1  0
  6  7  1  0
  7  8  2  0
  8  9  1  0
  9 10  2  0
  9 11  1  0
 11 12  1  0
 12 13  2  0
 13 14  1  0
 14 15  1  0
 14 16  2  0
 16 17  1  0
 17 18  2  0
  4 19  1  0
 19 20  1  0
 20  2  1  0
 18  7  1  0
 18 12  1  0
  1 21  1  0
  6 22  1  0
  6 23  1  0
  8 24  1  0
 13 25  1  0
 15 26  1  0
 16 27  1  0
 17 28  1  0
 19 29  1  0
 20 30  1  0
M  END
>  <smiles>  (1) 
N=c1nc(SCc2cc(=O)oc3cc(O)ccc23)[nH][nH]1

>  <score_type>  (1) 
oracle

>  <origin>  (1) 
adgpu

>  <m_score__min__energy>  (1) 
-8.0999999999999996

>  <m_primary>  (1) 
energy

$$$$
1:0
     RDKit          3D

 40 42  0  0  0  0  0  0  0  0999 V2000
   -1.2340   26.4760  -28.9820 N   0  0  0  0  0  0  0  0  0  0  0  0
   -0.8020   25.3630  -27.7320 S   0  0  0  0  0  0  0  0  0  0  0  0
   -1.5510   25.7230  -26.4780 O   0  0  0  0  0  0  0  0  0  0  0  0
    0.6740   25.4520  -27.4610 O   0  0  0  0  0  0  0  0  0  0  0  0
   -1.2080   23.7240  -28.2470 C   0  0  0  0  0  0  0  0  0  0  0  0
   -0.4920   22.6330  -27.7290 C   0  0  0  0  0  0  0  0  0  0  0  0
   -0.8080   21.3310  -28.1210 C   0  0  0  0  0  0  0  0  0  0  0  0
   -1.8370   21.1080  -29.0360 C   0  0  0  0  0  0  0  0  0  0  0  0
   -2.5600   22.1840  -29.5560 C   0  0  0  0  0  0  0  0  0  0  0  0
   -2.2500   23.5020  -29.1710 C   0  0  0  0  0  0  0  0  0  0  0  0
   -2.9650   24.6260  -29.7090 N   0  0  0  0  0  0  0  0  0  0  0  0
   -4.6210   24.6150  -30.2210 S   0  0  0  0  0  0  0  0  0  0  0  0
   -4.8240   25.6790  -31.2620 O   0  0  0  0  0  0  0  0  0  0  0  0
   -5.5060   24.9140  -29.0430 O   0  0  0  0  0  0  0  0  0  0  0  0
   -5.0090   23.0490  -30.9260 C   0  0  0  0  0  0  0  0  0  0  0  0
   -6.1390   22.3540  -30.4830 C   0  0  0  0  0  0  0  0  0  0  0  0
   -6.4740   21.1200  -31.0470 C   0  0  0  0  0  0  0  0  0  0  0  0
   -5.6840   20.5640  -32.0710 C   0  0  0  0  0  0  0  0  0  0  0  0
   -6.0430   19.2560  -32.6780 C   0  0  0  0  0  0  0  0  0  0  0  0
   -5.4930   18.8660  -33.9150 C   0  0  0  0  0  0  0  0  0  0  0  0
   -5.8340   17.6380  -34.4890 C   0  0  0  0  0  0  0  0  0  0  0  0
   -6.7260   16.7820  -33.8340 C   0  0  0  0  0  0  0  0  0  0  0  0
   -7.1500   15.2390  -34.5540 Cl  0  0  0  0  0  0  0  0  0  0  0  0
   -7.2750   17.1550  -32.6040 C   0  0  0  0  0  0  0  0  0  0  0  0
   -6.9380   18.3850  -32.0280 C   0  0  0  0  0  0  0  0  0  0  0  0
   -4.5480   21.2710  -32.5110 C   0  0  0  0  0  0  0  0  0  0  0  0
   -4.2130   22.5020  -31.9410 C   0  0  0  0  0  0  0  0  0  0  0  0
   -1.2560   25.9400  -29.8790 H   0  0  0  0  0  0  0  0  0  0  0  0
    0.3226   22.8052  -27.0102 H   0  0  0  0  0  0  0  0  0  0  0  0
   -0.2454   20.4807  -27.7082 H   0  0  0  0  0  0  0  0  0  0  0  0
   -2.0798   20.0818  -29.3489 H   0  0  0  0  0  0  0  0  0  0  0  0
   -3.3761   22.0004  -30.2703 H   0  0  0  0  0  0  0  0  0  0  0  0
   -6.7669   22.7807  -29.6870 H   0  0  0  0  0  0  0  0  0  0  0  0
   -7.3619   20.5789  -30.6880 H   0  0  0  0  0  0  0  0  0  0  0  0
   -4.7892   19.5336  -34.4336 H   0  0  0  0  0  0  0  0  0  0  0  0
   -5.4007   17.3444  -35.4565 H   0  0  0  0  0  0  0  0  0  0  0  0
   -7.9735   16.4802  -32.0876 H   0  0  0  0  0  0  0  0  0  0  0  0
   -7.3754   18.6733  -31.0607 H   0  0  0  0  0  0  0  0  0  0  0  0
   -3.9194   20.8506  -33.3099 H   0  0  0  0  0  0  0  0  0  0  0  0
   -3.3214   23.0434  -32.2903 H   0  0  0  0  0  0  0  0  0  0  0  0
  1  2  1  0
  2  3  2  0
  2  4  2  0
  2  5  1  0
  5  6  2  0
  6  7  1  0
  7  8  2  0
  8  9  1  0
  9 10  2  0
 10 11  1  0
 11 12  1  0
 12 13  2  0
 12 14  2  0
 12 15  1  0
 15 16  2  0
 16 17  1  0
 17 18  2  0
 18 19  1  0
 19 20  2  0
 20 21  1  0
 21 22  2  0
 22 23  1  0
 22 24  1  0
 24 25  2  0
 18 26  1  0
 26 27  2  0
 10  5  1  0
 27 15  1  0
 25 19  1  0
  1 28  1  0
  6 29  1  0
  7 30  1  0
  8 31  1  0
  9 32  1  0
 16 33  1  0
 17 34  1  0
 20 35  1  0
 21 36  1  0
 24 37  1  0
 25 38  1  0
 26 39  1  0
 27 40  1  0
M  CHG  2   1  -1  11  -1
M  END
>  <UniqueID>  (2) 
1

>  <SMILES>  (2) 
[NH-]S(=O)(=O)c1ccccc1[N-]S(=O)(=O)c1ccc(-c2ccc(Cl)cc2)cc1

>  <Energy>  (2) 
51.83691661119642

>  <Genealogy>  (2) 
[NH-]S(=O)(=O)c1ccccc1[N-]S(=O)(=O)c1ccc(-c2ccc(Cl)cc2)cc1 (protonated)
[NH-]S(=O)(=O)c1ccccc1[N-]S(=O)(=O)c1ccc(-c2ccc(Cl)cc2)cc1 (3D coordinates assigned)
[NH-]S(=O)(=O)c1ccccc1[N-]S(=O)(=O)c1ccc(-c2ccc(Cl)cc2)cc1 (optimized conformer: 51.83691661119642 kcal/mol)

>  <smiles>  (2) 
NS(=O)(=O)c1ccccc1NS(=O)(=O)c1ccc(-c2ccc(Cl)cc2)cc1

>  <score_type>  (2) 
oracle

>  <origin>  (2) 
adgpu

>  <m_score__min__energy>  (2) 
-12.84

>  <m_primary>  (2) 
energy

$$$$
2:0
     RDKit          3D

 34 36  0  0  0  0  0  0  0  0999 V2000
   -0.8890   26.2130  -24.5440 C   0  0  0  0  0  0  0  0  0  0  0  0
   -0.6480   25.2900  -25.6000 O   0  0  0  0  0  0  0  0  0  0  0  0
   -1.5720   24.9760  -26.6100 C   0  0  0  0  0  0  0  0  0  0  0  0
   -2.9480   24.8450  -26.3470 C   0  0  0  0  0  0  0  0  0  0  0  0
   -3.8380   24.5330  -27.3770 C   0  0  0  0  0  0  0  0  0  0  0  0
   -3.3720   24.3460  -28.6850 C   0  0  0  0  0  0  0  0  0  0  0  0
   -4.3200   24.0150  -29.7680 C   0  0  0  0  0  0  0  0  0  0  0  0
   -5.1540   22.9550  -29.7510 N   0  0  0  0  0  0  0  0  0  0  0  0
   -5.7900   23.0930  -30.9340 C   0  0  0  0  0  0  0  0  0  0  0  0
   -6.8340   22.1660  -31.4190 C   0  0  0  0  0  0  0  0  0  0  0  0
   -8.1600   22.2800  -30.9700 C   0  0  0  0  0  0  0  0  0  0  0  0
   -9.1350   21.3970  -31.4370 C   0  0  0  0  0  0  0  0  0  0  0  0
   -8.7800   20.4040  -32.3480 C   0  0  0  0  0  0  0  0  0  0  0  0
   -7.4930   20.3010  -32.7760 N   0  0  0  0  0  0  0  0  0  0  0  0
   -6.5240   21.1490  -32.3370 C   0  0  0  0  0  0  0  0  0  0  0  0
   -5.3650   24.1710  -31.6220 N   0  0  0  0  0  0  0  0  0  0  0  0
   -4.4580   24.7130  -30.8690 O   0  0  0  0  0  0  0  0  0  0  0  0
   -1.9990   24.4750  -28.9500 C   0  0  0  0  0  0  0  0  0  0  0  0
   -1.0950   24.7900  -27.9160 C   0  0  0  0  0  0  0  0  0  0  0  0
    0.2830   24.9280  -28.1470 O   0  0  0  0  0  0  0  0  0  0  0  0
    1.2920   24.1540  -27.5060 C   0  0  0  0  0  0  0  0  0  0  0  0
   -0.7567   25.7062  -23.5767 H   0  0  0  0  0  0  0  0  0  0  0  0
   -0.1793   27.0500  -24.6195 H   0  0  0  0  0  0  0  0  0  0  0  0
   -1.9173   26.5962  -24.6195 H   0  0  0  0  0  0  0  0  0  0  0  0
   -3.3251   24.9892  -25.3238 H   0  0  0  0  0  0  0  0  0  0  0  0
   -4.9118   24.4334  -27.1600 H   0  0  0  0  0  0  0  0  0  0  0  0
   -8.4304   23.0660  -30.2495 H   0  0  0  0  0  0  0  0  0  0  0  0
  -10.1748   21.4842  -31.0889 H   0  0  0  0  0  0  0  0  0  0  0  0
   -9.5411   19.7030  -32.7212 H   0  0  0  0  0  0  0  0  0  0  0  0
   -5.4926   21.0377  -32.7028 H   0  0  0  0  0  0  0  0  0  0  0  0
   -1.6257   24.3288  -29.9743 H   0  0  0  0  0  0  0  0  0  0  0  0
    1.1814   24.2388  -26.4149 H   0  0  0  0  0  0  0  0  0  0  0  0
    1.1903   23.1000  -27.8040 H   0  0  0  0  0  0  0  0  0  0  0  0
    2.2836   24.5253  -27.8040 H   0  0  0  0  0  0  0  0  0  0  0  0
  1  2  1  0
  2  3  1  0
  3  4  2  0
  4  5  1  0
  5  6  2  0
  6  7  1  0
  7  8  2  0
  8  9  1  0
  9 10  1  0
 10 11  2  0
 11 12  1  0
 12 13  2  0
 13 14  1  0
 14 15  2  0
  9 16  2  0
 16 17  1  0
  6 18  1  0
 18 19  2  0
 19 20  1  0
 20 21  1  0
 19  3  1  0
 17  7  1  0
 15 10  1  0
  1 22  1  0
  1 23  1  0
  1 24  1  0
  4 25  1  0
  5 26  1  0
 11 27  1  0
 12 28  1  0
 13 29  1  0
 15 30  1  0
 18 31  1  0
 21 32  1  0
 21 33  1  0
 21 34  1  0
M  END
>  <UniqueID>  (3) 
2

>  <SMILES>  (3) 
COc1ccc(-c2nc(-c3cccnc3)no2)cc1OC

>  <Energy>  (3) 
70.0265620793128

>  <Genealogy>  (3) 
COc1ccc(-c2nc(-c3cccnc3)no2)cc1OC (3D coordinates assigned)
COc1ccc(-c2nc(-c3cccnc3)no2)cc1OC (optimized conformer: 70.0265620793128 kcal/mol)

>  <smiles>  (3) 
COc1ccc(-c2nc(-c3cccnc3)no2)cc1OC

>  <score_type>  (3) 
oracle

>  <origin>  (3) 
adgpu

>  <m_score__min__energy>  (3) 
-7.5599999999999996

>  <m_primary>  (3) 
energy

$$$$
3:0
     RDKit          3D

 33 35  0  0  0  0  0  0  0  0999 V2000
   -8.9890   20.9590  -31.2360 H   0  0  0  0  0  0  0  0  0  0  0  0
   -8.5320   20.1560  -31.7230 N   0  0  0  0  0  0  0  0  0  0  0  0
   -7.2400   20.0450  -31.8180 C   0  0  0  0  0  0  0  0  0  0  0  0
   -6.6690   18.9420  -32.4870 C   0  0  0  0  0  0  0  0  0  0  0  0
   -7.4570   17.9270  -33.0690 C   0  0  0  0  0  0  0  0  0  0  0  0
   -8.5539   17.9828  -33.0077 H   0  0  0  0  0  0  0  0  0  0  0  0
   -6.8510   16.8510  -33.7230 C   0  0  0  0  0  0  0  0  0  0  0  0
   -7.4723   16.0637  -34.1747 H   0  0  0  0  0  0  0  0  0  0  0  0
   -5.4590   16.7720  -33.8050 C   0  0  0  0  0  0  0  0  0  0  0  0
   -4.9875   15.9222  -34.3204 H   0  0  0  0  0  0  0  0  0  0  0  0
   -4.6640   17.7680  -33.2350 C   0  0  0  0  0  0  0  0  0  0  0  0
   -3.5681   17.7007  -33.3017 H   0  0  0  0  0  0  0  0  0  0  0  0
   -5.2600   18.8550  -32.5770 C   0  0  0  0  0  0  0  0  0  0  0  0
   -4.4660   19.8550  -32.0040 C   0  0  0  0  0  0  0  0  0  0  0  0
   -3.3697   19.7934  -32.0695 H   0  0  0  0  0  0  0  0  0  0  0  0
   -5.0710   20.9360  -31.3460 C   0  0  0  0  0  0  0  0  0  0  0  0
   -4.2360   21.9970  -30.7280 C   0  0  0  0  0  0  0  0  0  0  0  0
   -3.2340   21.6630  -29.8020 C   0  0  0  0  0  0  0  0  0  0  0  0
   -3.0683   20.6090  -29.5343 H   0  0  0  0  0  0  0  0  0  0  0  0
   -2.4460   22.6580  -29.2180 C   0  0  0  0  0  0  0  0  0  0  0  0
   -1.6639   22.3821  -28.4953 H   0  0  0  0  0  0  0  0  0  0  0  0
   -2.6470   24.0120  -29.5490 C   0  0  0  0  0  0  0  0  0  0  0  0
   -1.8800   25.0440  -28.9870 O   0  0  0  0  0  0  0  0  0  0  0  0
   -1.6030   25.1730  -27.5960 C   0  0  0  0  0  0  0  0  0  0  0  0
   -2.4499   24.7786  -27.0154 H   0  0  0  0  0  0  0  0  0  0  0  0
   -0.6934   24.6058  -27.3491 H   0  0  0  0  0  0  0  0  0  0  0  0
   -1.4517   26.2342  -27.3491 H   0  0  0  0  0  0  0  0  0  0  0  0
   -3.6480   24.3460  -30.4720 C   0  0  0  0  0  0  0  0  0  0  0  0
   -3.8650   25.6770  -30.8090 O   0  0  0  0  0  0  0  0  0  0  0  0
   -4.4350   23.3490  -31.0570 C   0  0  0  0  0  0  0  0  0  0  0  0
   -5.2162   23.6251  -31.7806 H   0  0  0  0  0  0  0  0  0  0  0  0
   -6.4340   21.0020  -31.2700 N   0  0  0  0  0  0  0  0  0  0  0  0
   -6.8760   21.8230  -30.7970 H   0  0  0  0  0  0  0  0  0  0  0  0
  1  2  1  0
  2  3  2  0
  3  4  1  0
  4  5  2  0
  5  6  1  0
  5  7  1  0
  7  8  1  0
  7  9  2  0
  9 10  1  0
  9 11  1  0
 11 12  1  0
 11 13  2  0
 13 14  1  0
 14 15  1  0
 14 16  2  0
 16 17  1  0
 17 18  2  0
 18 19  1  0
 18 20  1  0
 20 21  1  0
 20 22  2  0
 22 23  1  0
 23 24  1  0
 24 25  1  0
 24 26  1  0
 24 27  1  0
 22 28  1  0
 28 29  1  0
 28 30  2  0
 30 31  1  0
 16 32  1  0
 32 33  1  0
 32  3  1  0
 13  4  1  0
 30 17  1  0
M  CHG  1  29  -1
M  END
>  <UniqueID>  (4) 
3

>  <SMILES>  (4) 
[H]/N=c1\[nH]c(-c2ccc(OC)c([O-])c2)cc2ccccc12

>  <Energy>  (4) 
45.787438631806616

>  <Genealogy>  (4) 
COc1ccc(-c2cc3ccccc3c(=N)[nH]2)cc1[O-] (protonated)
[H]/N=c1\[nH]c(-c2ccc(OC)c([O-])c2)cc2ccccc12 (cis-trans isomerization)
[H]/N=c1\[nH]c(-c2ccc(OC)c([O-])c2)cc2ccccc12 (3D coordinates assigned)
[H]/N=c1\[nH]c(-c2ccc(OC)c([O-])c2)cc2ccccc12 (optimized conformer: 45.787438631806616 kcal/mol)

>  <smiles>  (4) 
COc1ccc(-c2cc3ccccc3c(=N)[nH]2)cc1O

>  <score_type>  (4) 
oracle

>  <origin>  (4) 
adgpu

>  <m_score__min__energy>  (4) 
-10.140000000000001

>  <m_primary>  (4) 
energy

$$$$
4:0
     RDKit          3D

 23 24  0  0  0  0  0  0  0  0999 V2000
   -7.1030   23.7930  -31.0110 C   0  0  0  0  0  0  0  0  0  0  0  0
   -7.5820   22.5010  -31.5870 C   0  0  0  0  0  0  0  0  0  0  0  0
   -8.8920   22.0520  -31.5950 C   0  0  0  0  0  0  0  0  0  0  0  0
   -8.7990   20.7950  -32.1540 C   0  0  0  0  0  0  0  0  0  0  0  0
   -9.7750   20.0320  -32.3860 O   0  0  0  0  0  0  0  0  0  0  0  0
   -7.5130   20.5070  -32.4460 N   0  0  0  0  0  0  0  0  0  0  0  0
   -6.9900   19.3000  -33.0350 C   0  0  0  0  0  0  0  0  0  0  0  0
   -7.3620   18.0450  -32.5210 C   0  0  0  0  0  0  0  0  0  0  0  0
   -6.8630   16.8710  -33.0910 C   0  0  0  0  0  0  0  0  0  0  0  0
   -5.9940   16.9360  -34.1830 C   0  0  0  0  0  0  0  0  0  0  0  0
   -5.6240   18.1770  -34.7070 C   0  0  0  0  0  0  0  0  0  0  0  0
   -6.1200   19.3550  -34.1380 C   0  0  0  0  0  0  0  0  0  0  0  0
   -6.7740   21.5500  -32.0960 N   0  0  0  0  0  0  0  0  0  0  0  0
   -7.1244   23.7352  -29.9127 H   0  0  0  0  0  0  0  0  0  0  0  0
   -6.0737   23.9855  -31.3480 H   0  0  0  0  0  0  0  0  0  0  0  0
   -7.7580   24.6099  -31.3480 H   0  0  0  0  0  0  0  0  0  0  0  0
   -9.7927   22.5741  -31.2398 H   0  0  0  0  0  0  0  0  0  0  0  0
   -8.0502   17.9872  -31.6648 H   0  0  0  0  0  0  0  0  0  0  0  0
   -7.1549   15.8937  -32.6792 H   0  0  0  0  0  0  0  0  0  0  0  0
   -5.6014   16.0107  -34.6299 H   0  0  0  0  0  0  0  0  0  0  0  0
   -4.9417   18.2281  -35.5683 H   0  0  0  0  0  0  0  0  0  0  0  0
   -5.8276   20.3296  -34.5560 H   0  0  0  0  0  0  0  0  0  0  0  0
   -5.7330   21.6050  -32.1770 H   0  0  0  0  0  0  0  0  0  0  0  0
  1  2  1  0
  2  3  2  0
  3  4  1  0
  4  5  2  0
  4  6  1  0
  6  7  1  0
  7  8  2  0
  8  9  1  0
  9 10  2  0
 10 11  1  0
 11 12  2  0
  6 13  1  0
 13  2  1  0
 12  7  1  0
  1 14  1  0
  1 15  1  0
  1 16  1  0
  3 17  1  0
  8 18  1  0
  9 19  1  0
 10 20  1  0
 11 21  1  0
 12 22  1  0
 13 23  1  0
M  END
>  <UniqueID>  (5) 
4

>  <SMILES>  (5) 
Cc1cc(=O)n(-c2ccccc2)[nH]1

>  <Energy>  (5) 
58.99811169703883

>  <Genealogy>  (5) 
Cc1cc(=O)n(-c2ccccc2)[nH]1 (3D coordinates assigned)
Cc1cc(=O)n(-c2ccccc2)[nH]1 (optimized conformer: 58.99811169703883 kcal/mol)

>  <smiles>  (5) 
Cc1cc(=O)n(-c2ccccc2)[nH]1

>  <score_type>  (5) 
oracle

>  <origin>  (5) 
adgpu

>  <m_score__min__energy>  (5) 
-5.54

>  <m_primary>  (5) 
energy

$$$$
5:0
     RDKit          3D

 96 99  0  0  0  0  0  0  0  0999 V2000
   -3.1240   18.7230  -26.0050 C   0  0  0  0  0  0  0  0  0  0  0  0
   -2.4140   19.3700  -27.1210 N   0  0  0  0  0  0  0  0  0  0  0  0
   -3.1370   20.5940  -27.5170 C   0  0  0  0  0  0  0  0  0  0  0  0
   -1.0220   19.6790  -26.7340 C   0  0  0  0  0  0  0  0  0  0  0  0
   -0.0350   18.9760  -27.6780 C   0  0  0  0  0  0  0  0  0  0  0  0
    0.8690   19.9760  -28.4060 C   0  0  0  0  0  0  0  0  0  0  0  0
    1.5230   19.3480  -29.5510 N   0  0  0  0  0  0  0  0  0  0  0  0
    0.8070   18.5600  -30.5180 C   0  0  0  0  0  0  0  0  0  0  0  0
   -0.4470   18.6620  -30.5890 O   0  0  0  0  0  0  0  0  0  0  0  0
    1.5210   17.6140  -31.4140 C   0  0  0  0  0  0  0  0  0  0  0  0
    2.5250   17.9630  -32.3120 C   0  0  0  0  0  0  0  0  0  0  0  0
    3.0100   16.7780  -32.8140 C   0  0  0  0  0  0  0  0  0  0  0  0
    4.1620   16.6550  -33.6560 N   0  0  0  0  0  0  0  0  0  0  0  0
    4.2150   15.8930  -34.8730 C   0  0  0  0  0  0  0  0  0  0  0  0
    5.0580   16.2120  -35.7510 O   0  0  0  0  0  0  0  0  0  0  0  0
    3.3350   14.7220  -35.1030 C   0  0  0  0  0  0  0  0  0  0  0  0
    3.8310   13.4200  -34.9350 C   0  0  0  0  0  0  0  0  0  0  0  0
    3.0280   12.3200  -35.2350 C   0  0  0  0  0  0  0  0  0  0  0  0
    1.7200   12.5080  -35.6980 C   0  0  0  0  0  0  0  0  0  0  0  0
    1.1930   13.8000  -35.8340 C   0  0  0  0  0  0  0  0  0  0  0  0
   -0.1830   14.0030  -36.4110 C   0  0  0  0  0  0  0  0  0  0  0  0
   -1.0030   14.7230  -35.4940 O   0  0  0  0  0  0  0  0  0  0  0  0
   -0.8700   16.0870  -35.1980 C   0  0  0  0  0  0  0  0  0  0  0  0
   -0.1680   16.9700  -36.0400 C   0  0  0  0  0  0  0  0  0  0  0  0
   -0.0880   18.3300  -35.7240 C   0  0  0  0  0  0  0  0  0  0  0  0
   -0.7160   18.8310  -34.5800 C   0  0  0  0  0  0  0  0  0  0  0  0
   -0.6900   20.2440  -34.3260 N   0  0  0  0  0  0  0  0  0  0  0  0
   -0.0440   20.8820  -33.2150 C   0  0  0  0  0  0  0  0  0  0  0  0
    1.1900   21.1170  -33.2880 O   0  0  0  0  0  0  0  0  0  0  0  0
   -0.8030   21.3170  -32.0190 C   0  0  0  0  0  0  0  0  0  0  0  0
   -0.2480   21.9300  -30.9040 C   0  0  0  0  0  0  0  0  0  0  0  0
   -1.3050   22.2250  -30.0660 C   0  0  0  0  0  0  0  0  0  0  0  0
   -1.2790   22.9920  -28.8510 N   0  0  0  0  0  0  0  0  0  0  0  0
   -0.3390   24.0210  -28.5130 C   0  0  0  0  0  0  0  0  0  0  0  0
    0.9010   23.8200  -28.5920 O   0  0  0  0  0  0  0  0  0  0  0  0
   -0.8360   25.3600  -28.0640 C   0  0  0  0  0  0  0  0  0  0  0  0
   -2.3020   25.3870  -28.1160 N   0  0  0  0  0  0  0  0  0  0  0  0
   -2.9080   24.9070  -26.8640 C   0  0  0  0  0  0  0  0  0  0  0  0
   -4.1630   24.0710  -27.1450 C   0  0  0  0  0  0  0  0  0  0  0  0
   -4.0530   23.3900  -28.4450 N   0  0  0  0  0  0  0  0  0  0  0  0
   -5.1640   23.7370  -29.3490 C   0  0  0  0  0  0  0  0  0  0  0  0
   -4.7410   24.6500  -30.4710 C   0  0  0  0  0  0  0  0  0  0  0  0
   -5.4900   24.7980  -31.4740 O   0  0  0  0  0  0  0  0  0  0  0  0
   -3.4960   25.2730  -30.4470 O   0  0  0  0  0  0  0  0  0  0  0  0
   -2.4540   21.7630  -30.6700 C   0  0  0  0  0  0  0  0  0  0  0  0
   -2.1450   21.2090  -31.8620 N   0  0  0  0  0  0  0  0  0  0  0  0
   -3.1100   20.6510  -32.8090 C   0  0  0  0  0  0  0  0  0  0  0  0
   -1.3710   17.9440  -33.7110 C   0  0  0  0  0  0  0  0  0  0  0  0
   -1.4540   16.5820  -34.0220 C   0  0  0  0  0  0  0  0  0  0  0  0
   -2.3050   15.5040  -32.9300 Cl  0  0  0  0  0  0  0  0  0  0  0  0
    2.0070   14.9020  -35.5310 C   0  0  0  0  0  0  0  0  0  0  0  0
    2.2880   15.7510  -32.2470 C   0  0  0  0  0  0  0  0  0  0  0  0
    1.3830   16.2630  -31.3930 N   0  0  0  0  0  0  0  0  0  0  0  0
    0.5460   15.4610  -30.5040 C   0  0  0  0  0  0  0  0  0  0  0  0
   -2.7198   19.0913  -25.0505 H   0  0  0  0  0  0  0  0  0  0  0  0
   -4.1962   18.9610  -26.0654 H   0  0  0  0  0  0  0  0  0  0  0  0
   -2.9863   17.6333  -26.0654 H   0  0  0  0  0  0  0  0  0  0  0  0
   -3.4582   21.1377  -26.6163 H   0  0  0  0  0  0  0  0  0  0  0  0
   -2.4726   21.2351  -28.1149 H   0  0  0  0  0  0  0  0  0  0  0  0
   -4.0192   20.3215  -28.1149 H   0  0  0  0  0  0  0  0  0  0  0  0
   -0.8636   20.7662  -26.7883 H   0  0  0  0  0  0  0  0  0  0  0  0
   -0.8495   19.3226  -25.7077 H   0  0  0  0  0  0  0  0  0  0  0  0
    0.5934   18.2911  -27.0898 H   0  0  0  0  0  0  0  0  0  0  0  0
   -0.6170   18.4288  -28.4342 H   0  0  0  0  0  0  0  0  0  0  0  0
    0.2604   20.8220  -28.7580 H   0  0  0  0  0  0  0  0  0  0  0  0
    1.6429   20.3249  -27.7064 H   0  0  0  0  0  0  0  0  0  0  0  0
    2.5680   19.3760  -29.5760 H   0  0  0  0  0  0  0  0  0  0  0  0
    2.8617   18.9784  -32.5679 H   0  0  0  0  0  0  0  0  0  0  0  0
    4.8558   13.2667  -34.5657 H   0  0  0  0  0  0  0  0  0  0  0  0
    3.4234   11.3015  -35.1075 H   0  0  0  0  0  0  0  0  0  0  0  0
    1.1016   11.6359  -35.9568 H   0  0  0  0  0  0  0  0  0  0  0  0
   -0.1027   14.5713  -37.3494 H   0  0  0  0  0  0  0  0  0  0  0  0
   -0.6388   13.0205  -36.6031 H   0  0  0  0  0  0  0  0  0  0  0  0
    0.3193   16.5890  -36.9496 H   0  0  0  0  0  0  0  0  0  0  0  0
    0.4735   19.0108  -36.3808 H   0  0  0  0  0  0  0  0  0  0  0  0
    0.8171   22.1383  -30.7246 H   0  0  0  0  0  0  0  0  0  0  0  0
   -0.5034   25.5462  -27.0322 H   0  0  0  0  0  0  0  0  0  0  0  0
   -0.4338   26.1390  -28.7284 H   0  0  0  0  0  0  0  0  0  0  0  0
   -2.6070   24.7450  -28.8840 H   0  0  0  0  0  0  0  0  0  0  0  0
   -2.1764   24.2872  -26.3249 H   0  0  0  0  0  0  0  0  0  0  0  0
   -3.1963   25.7785  -26.2579 H   0  0  0  0  0  0  0  0  0  0  0  0
   -4.2807   23.3182  -26.3516 H   0  0  0  0  0  0  0  0  0  0  0  0
   -5.0360   24.7398  -27.1684 H   0  0  0  0  0  0  0  0  0  0  0  0
   -3.1450   23.6560  -28.8990 H   0  0  0  0  0  0  0  0  0  0  0  0
   -5.5664   22.8099  -29.7831 H   0  0  0  0  0  0  0  0  0  0  0  0
   -5.9199   24.2712  -28.7546 H   0  0  0  0  0  0  0  0  0  0  0  0
   -3.4667   21.8344  -30.2465 H   0  0  0  0  0  0  0  0  0  0  0  0
   -3.9332   20.1750  -32.2560 H   0  0  0  0  0  0  0  0  0  0  0  0
   -3.5109   21.4567  -33.4416 H   0  0  0  0  0  0  0  0  0  0  0  0
   -2.6117   19.9017  -33.4416 H   0  0  0  0  0  0  0  0  0  0  0  0
   -1.8212   18.3214  -32.7810 H   0  0  0  0  0  0  0  0  0  0  0  0
    1.6015   15.9198  -35.6294 H   0  0  0  0  0  0  0  0  0  0  0  0
    2.4291   14.6809  -32.4590 H   0  0  0  0  0  0  0  0  0  0  0  0
    0.7916   15.6963  -29.4579 H   0  0  0  0  0  0  0  0  0  0  0  0
   -0.5133   15.6899  -30.6923 H   0  0  0  0  0  0  0  0  0  0  0  0
    0.7294   14.3929  -30.6923 H   0  0  0  0  0  0  0  0  0  0  0  0
  1  2  1  0
  2  3  1  0
  2  4  1  0
  4  5  1  0
  5  6  1  0
  6  7  1  0
  7  8  1  0
  8  9  2  0
  8 10  1  0
 10 11  2  0
 11 12  1  0
 12 13  1  0
 13 14  1  0
 14 15  2  0
 14 16  1  0
 16 17  2  0
 17 18  1  0
 18 19  2  0
 19 20  1  0
 20 21  1  0
 21 22  1  0
 22 23  1  0
 23 24  2  0
 24 25  1  0
 25 26  2  0
 26 27  1  0
 27 28  1  0
 28 29  2  0
 28 30  1  0
 30 31  2  0
 31 32  1  0
 32 33  1  0
 33 34  1  0
 34 35  2  0
 34 36  1  0
 36 37  1  0
 37 38  1  0
 38 39  1  0
 39 40  1  0
 40 41  1  0
 41 42  1  0
 42 43  2  0
 42 44  1  0
 32 45  2  0
 45 46  1  0
 46 47  1  0
 26 48  1  0
 48 49  2  0
 49 50  1  0
 20 51  2  0
 12 52  2  0
 52 53  1  0
 53 54  1  0
 53 10  1  0
 51 16  1  0
 49 23  1  0
 46 30  1  0
  1 55  1  0
  1 56  1  0
  1 57  1  0
  3 58  1  0
  3 59  1  0
  3 60  1  0
  4 61  1  0
  4 62  1  0
  5 63  1  0
  5 64  1  0
  6 65  1  0
  6 66  1  0
  7 67  1  0
 11 68  1  0
 17 69  1  0
 18 70  1  0
 19 71  1  0
 21 72  1  0
 21 73  1  0
 24 74  1  0
 25 75  1  0
 31 76  1  0
 36 77  1  0
 36 78  1  0
 37 79  1  0
 38 80  1  0
 38 81  1  0
 39 82  1  0
 39 83  1  0
 40 84  1  0
 41 85  1  0
 41 86  1  0
 45 87  1  0
 47 88  1  0
 47 89  1  0
 47 90  1  0
 48 91  1  0
 51 92  1  0
 52 93  1  0
 54 94  1  0
 54 95  1  0
 54 96  1  0
M  CHG  4  13  -1  27  -1  33  -1  44  -1
M  END
>  <UniqueID>  (6) 
5

>  <SMILES>  (6) 
CN(C)CCCNC(=O)c1cc([N-]C(=O)c2cccc(COc3ccc([N-]C(=O)c4cc([N-]C(=O)CNCCNCC(=O)[O-])cn4C)cc3Cl)c2)cn1C

>  <Energy>  (6) 
157.70294603148056

>  <Genealogy>  (6) 
CN(C)CCCNC(=O)c1cc([N-]C(=O)c2cccc(COc3ccc([N-]C(=O)c4cc([N-]C(=O)CNCCNCC(=O)[O-])cn4C)cc3Cl)c2)cn1C (protonated)
CN(C)CCCNC(=O)c1cc([N-]C(=O)c2cccc(COc3ccc([N-]C(=O)c4cc([N-]C(=O)CNCCNCC(=O)[O-])cn4C)cc3Cl)c2)cn1C (3D coordinates assigned)
CN(C)CCCNC(=O)c1cc([N-]C(=O)c2cccc(COc3ccc([N-]C(=O)c4cc([N-]C(=O)CNCCNCC(=O)[O-])cn4C)cc3Cl)c2)cn1C (optimized conformer: 157.70294603148056 kcal/mol)

>  <smiles>  (6) 
CN(C)CCCNC(=O)c1cc(NC(=O)c2cccc(COc3ccc(NC(=O)c4cc(NC(=O)CNCCNCC(=O)O)cn4C)cc3Cl)c2)cn1C

>  <score_type>  (6) 
oracle

>  <origin>  (6) 
adgpu

>  <m_score__min__energy>  (6) 
-11.130000000000001

>  <m_primary>  (6) 
energy

$$$$
6:0
     RDKit          3D

 32 33  0  0  0  0  0  0  0  0999 V2000
   -2.8110   23.5020  -28.4580 C   0  0  0  0  0  0  0  0  0  0  0  0
   -2.6610   24.7470  -29.2780 C   0  0  0  0  0  0  0  0  0  0  0  0
   -1.7630   25.5740  -28.9700 O   0  0  0  0  0  0  0  0  0  0  0  0
   -3.4780   25.0070  -30.4280 N   0  0  0  0  0  0  0  0  0  0  0  0
   -4.8620   24.6670  -30.5920 C   0  0  0  0  0  0  0  0  0  0  0  0
   -5.7980   25.2020  -29.7010 C   0  0  0  0  0  0  0  0  0  0  0  0
   -7.1520   24.8790  -29.8220 C   0  0  0  0  0  0  0  0  0  0  0  0
   -7.5770   24.0000  -30.8200 C   0  0  0  0  0  0  0  0  0  0  0  0
   -6.6490   23.4190  -31.6970 C   0  0  0  0  0  0  0  0  0  0  0  0
   -7.1140   22.5080  -32.7120 N   0  0  0  0  0  0  0  0  0  0  0  0
   -7.2920   21.1000  -32.4970 C   0  0  0  0  0  0  0  0  0  0  0  0
   -8.4600   20.6540  -31.8630 C   0  0  0  0  0  0  0  0  0  0  0  0
   -8.6800   19.2900  -31.6610 C   0  0  0  0  0  0  0  0  0  0  0  0
   -7.7270   18.3610  -32.0810 C   0  0  0  0  0  0  0  0  0  0  0  0
   -6.5470   18.7920  -32.6910 C   0  0  0  0  0  0  0  0  0  0  0  0
   -6.3110   20.1610  -32.8930 C   0  0  0  0  0  0  0  0  0  0  0  0
   -5.0660   20.5800  -33.4660 N   0  0  0  0  0  0  0  0  0  0  0  0
   -5.2870   23.7570  -31.5760 C   0  0  0  0  0  0  0  0  0  0  0  0
   -2.7798   23.7608  -27.3893 H   0  0  0  0  0  0  0  0  0  0  0  0
   -3.7734   23.0230  -28.6913 H   0  0  0  0  0  0  0  0  0  0  0  0
   -1.9900   22.8081  -28.6913 H   0  0  0  0  0  0  0  0  0  0  0  0
   -5.4666   25.8804  -28.9010 H   0  0  0  0  0  0  0  0  0  0  0  0
   -7.8849   25.3183  -29.1293 H   0  0  0  0  0  0  0  0  0  0  0  0
   -8.6462   23.7615  -30.9192 H   0  0  0  0  0  0  0  0  0  0  0  0
   -7.1890   22.8570  -33.6940 H   0  0  0  0  0  0  0  0  0  0  0  0
   -9.2088   21.3841  -31.5221 H   0  0  0  0  0  0  0  0  0  0  0  0
   -9.6037   18.9480  -31.1712 H   0  0  0  0  0  0  0  0  0  0  0  0
   -7.9058   17.2860  -31.9311 H   0  0  0  0  0  0  0  0  0  0  0  0
   -5.7981   18.0544  -33.0151 H   0  0  0  0  0  0  0  0  0  0  0  0
   -4.2440   19.9410  -33.5200 H   0  0  0  0  0  0  0  0  0  0  0  0
   -4.9720   21.5270  -33.8960 H   0  0  0  0  0  0  0  0  0  0  0  0
   -4.5501   23.3055  -32.2566 H   0  0  0  0  0  0  0  0  0  0  0  0
  1  2  1  0
  2  3  2  0
  2  4  1  0
  4  5  1  0
  5  6  2  0
  6  7  1  0
  7  8  2  0
  8  9  1  0
  9 10  1  0
 10 11  1  0
 11 12  2  0
 12 13  1  0
 13 14  2  0
 14 15  1  0
 15 16  2  0
 16 17  1  0
  9 18  2  0
 18  5  1  0
 16 11  1  0
  1 19  1  0
  1 20  1  0
  1 21  1  0
  6 22  1  0
  7 23  1  0
  8 24  1  0
 10 25  1  0
 12 26  1  0
 13 27  1  0
 14 28  1  0
 15 29  1  0
 17 30  1  0
 17 31  1  0
 18 32  1  0
M  CHG  1   4  -1
M  END
>  <UniqueID>  (7) 
6

>  <SMILES>  (7) 
CC(=O)[N-]c1cccc(Nc2ccccc2N)c1

>  <Energy>  (7) 
42.18587015472486

>  <Genealogy>  (7) 
CC(=O)[N-]c1cccc(Nc2ccccc2N)c1 (protonated)
CC(=O)[N-]c1cccc(Nc2ccccc2N)c1 (3D coordinates assigned)
CC(=O)[N-]c1cccc(Nc2ccccc2N)c1 (optimized conformer: 42.18587015472486 kcal/mol)

>  <smiles>  (7) 
CC(=O)Nc1cccc(Nc2ccccc2N)c1

>  <score_type>  (7) 
oracle

>  <origin>  (7) 
adgpu

>  <m_score__min__energy>  (7) 
-9.3200000000000003

>  <m_primary>  (7) 
energy

$$$$
7:0
     RDKit          3D

 50 53  0  0  0  0  0  0  0  0999 V2000
   -5.2950   25.2240  -30.3330 C   0  0  0  0  0  0  0  0  0  0  0  0
   -3.8510   25.3030  -30.5000 N   0  0  0  0  0  0  0  0  0  0  0  0
   -2.9370   24.5280  -29.7180 C   0  0  0  0  0  0  0  0  0  0  0  0
   -2.3600   25.0480  -28.7250 O   0  0  0  0  0  0  0  0  0  0  0  0
   -2.6540   23.1240  -30.0700 C   0  0  0  0  0  0  0  0  0  0  0  0
   -3.5810   22.3480  -30.7860 C   0  0  0  0  0  0  0  0  0  0  0  0
   -3.2540   21.0260  -31.1410 C   0  0  0  0  0  0  0  0  0  0  0  0
   -4.1050   20.2170  -31.9060 O   0  0  0  0  0  0  0  0  0  0  0  0
   -4.9420   20.6870  -32.9620 C   0  0  0  0  0  0  0  0  0  0  0  0
   -6.3820   20.6660  -32.5100 C   0  0  0  0  0  0  0  0  0  0  0  0
   -6.9720   21.8800  -32.1090 C   0  0  0  0  0  0  0  0  0  0  0  0
   -8.2900   21.9180  -31.6550 C   0  0  0  0  0  0  0  0  0  0  0  0
   -9.0410   20.7470  -31.5920 C   0  0  0  0  0  0  0  0  0  0  0  0
   -8.4790   19.5330  -31.9830 C   0  0  0  0  0  0  0  0  0  0  0  0
   -7.1530   19.4660  -32.4530 C   0  0  0  0  0  0  0  0  0  0  0  0
   -6.6170   18.1330  -32.8430 C   0  0  0  0  0  0  0  0  0  0  0  0
   -7.2470   17.2780  -33.6770 N   0  0  0  0  0  0  0  0  0  0  0  0
   -6.4700   16.2070  -33.7290 N   0  0  0  0  0  0  0  0  0  0  0  0
   -5.4110   16.4090  -32.9650 N   0  0  0  0  0  0  0  0  0  0  0  0
   -4.3760   15.4410  -32.7180 C   0  0  0  0  0  0  0  0  0  0  0  0
   -4.6280   14.3090  -31.9240 C   0  0  0  0  0  0  0  0  0  0  0  0
   -3.6060   13.3960  -31.6490 C   0  0  0  0  0  0  0  0  0  0  0  0
   -2.3160   13.5970  -32.1560 C   0  0  0  0  0  0  0  0  0  0  0  0
   -1.3210   12.6620  -31.8350 O   0  0  0  0  0  0  0  0  0  0  0  0
   -0.2850   12.8870  -30.8830 C   0  0  0  0  0  0  0  0  0  0  0  0
   -2.0620   14.7240  -32.9600 C   0  0  0  0  0  0  0  0  0  0  0  0
   -3.0860   15.6330  -33.2410 C   0  0  0  0  0  0  0  0  0  0  0  0
   -5.4630   17.6020  -32.4000 N   0  0  0  0  0  0  0  0  0  0  0  0
   -2.0230   20.5000  -30.7430 C   0  0  0  0  0  0  0  0  0  0  0  0
   -1.1300   21.2960  -30.0240 C   0  0  0  0  0  0  0  0  0  0  0  0
   -1.4590   22.5760  -29.7110 N   0  0  0  0  0  0  0  0  0  0  0  0
   -5.5399   25.2106  -29.2607 H   0  0  0  0  0  0  0  0  0  0  0  0
   -5.7672   26.0977  -30.8061 H   0  0  0  0  0  0  0  0  0  0  0  0
   -5.6690   24.3040  -30.8061 H   0  0  0  0  0  0  0  0  0  0  0  0
   -4.5565   22.7713  -31.0674 H   0  0  0  0  0  0  0  0  0  0  0  0
   -4.6557   21.7156  -33.2266 H   0  0  0  0  0  0  0  0  0  0  0  0
   -4.8240   20.0360  -33.8408 H   0  0  0  0  0  0  0  0  0  0  0  0
   -6.3861   22.8098  -32.1544 H   0  0  0  0  0  0  0  0  0  0  0  0
   -8.7371   22.8744  -31.3462 H   0  0  0  0  0  0  0  0  0  0  0  0
  -10.0802   20.7802  -31.2328 H   0  0  0  0  0  0  0  0  0  0  0  0
   -9.0800   18.6136  -31.9236 H   0  0  0  0  0  0  0  0  0  0  0  0
   -5.6357   14.1405  -31.5165 H   0  0  0  0  0  0  0  0  0  0  0  0
   -3.8167   12.5121  -31.0291 H   0  0  0  0  0  0  0  0  0  0  0  0
   -0.6955   12.7978  -29.8664 H   0  0  0  0  0  0  0  0  0  0  0  0
    0.5108   12.1407  -31.0238 H   0  0  0  0  0  0  0  0  0  0  0  0
    0.1295   13.8961  -31.0238 H   0  0  0  0  0  0  0  0  0  0  0  0
   -1.0543   14.8900  -33.3686 H   0  0  0  0  0  0  0  0  0  0  0  0
   -2.8802   16.5064  -33.8772 H   0  0  0  0  0  0  0  0  0  0  0  0
   -1.7583   19.4625  -30.9952 H   0  0  0  0  0  0  0  0  0  0  0  0
   -0.1586   20.8862  -29.7105 H   0  0  0  0  0  0  0  0  0  0  0  0
  1  2  1  0
  2  3  1  0
  3  4  2  0
  3  5  1  0
  5  6  2  0
  6  7  1  0
  7  8  1  0
  8  9  1  0
  9 10  1  0
 10 11  2  0
 11 12  1  0
 12 13  2  0
 13 14  1  0
 14 15  2  0
 15 16  1  0
 16 17  1  0
 17 18  2  0
 18 19  1  0
 19 20  1  0
 20 21  2  0
 21 22  1  0
 22 23  2  0
 23 24  1  0
 24 25  1  0
 23 26  1  0
 26 27  2  0
 19 28  1  0
  7 29  2  0
 29 30  1  0
 30 31  2  0
 31  5  1  0
 15 10  1  0
 28 16  2  0
 27 20  1  0
  1 32  1  0
  1 33  1  0
  1 34  1  0
  6 35  1  0
  9 36  1  0
  9 37  1  0
 11 38  1  0
 12 39  1  0
 13 40  1  0
 14 41  1  0
 21 42  1  0
 22 43  1  0
 25 44  1  0
 25 45  1  0
 25 46  1  0
 26 47  1  0
 27 48  1  0
 29 49  1  0
 30 50  1  0
M  CHG  1   2  -1
M  END
>  <UniqueID>  (8) 
7

>  <SMILES>  (8) 
C[N-]C(=O)c1cc(OCc2ccccc2-c2nnn(-c3ccc(OC)cc3)n2)ccn1

>  <Energy>  (8) 
92.37580929883296

>  <Genealogy>  (8) 
C[N-]C(=O)c1cc(OCc2ccccc2-c2nnn(-c3ccc(OC)cc3)n2)ccn1 (protonated)
C[N-]C(=O)c1cc(OCc2ccccc2-c2nnn(-c3ccc(OC)cc3)n2)ccn1 (3D coordinates assigned)
C[N-]C(=O)c1cc(OCc2ccccc2-c2nnn(-c3ccc(OC)cc3)n2)ccn1 (optimized conformer: 92.37580929883296 kcal/mol)

>  <smiles>  (8) 
CNC(=O)c1cc(OCc2ccccc2-c2nnn(-c3ccc(OC)cc3)n2)ccn1

>  <score_type>  (8) 
oracle

>  <origin>  (8) 
adgpu

>  <m_score__min__energy>  (8) 
-10.59

>  <m_primary>  (8) 
energy

$$$$
8:0
     RDKit          3D

 42 44  0  0  0  0  0  0  0  0999 V2000
   -2.7600   19.6210  -33.8750 C   0  0  0  0  0  0  0  0  0  0  0  0
   -4.1890   19.6410  -33.4130 C   0  0  0  0  0  0  0  0  0  0  0  0
   -5.2090   19.1130  -34.2200 C   0  0  0  0  0  0  0  0  0  0  0  0
   -6.5320   19.1090  -33.7720 C   0  0  0  0  0  0  0  0  0  0  0  0
   -6.8530   19.6210  -32.5100 C   0  0  0  0  0  0  0  0  0  0  0  0
   -8.5380   19.6640  -31.9940 S   0  0  0  0  0  0  0  0  0  0  0  0
   -8.7820   18.7100  -30.8580 O   0  0  0  0  0  0  0  0  0  0  0  0
   -9.4160   19.2800  -33.1530 O   0  0  0  0  0  0  0  0  0  0  0  0
   -8.9300   21.2720  -31.4810 N   0  0  0  0  0  0  0  0  0  0  0  0
   -7.9580   22.2970  -31.2360 C   0  0  0  0  0  0  0  0  0  0  0  0
   -7.3430   22.9230  -32.3270 C   0  0  0  0  0  0  0  0  0  0  0  0
   -6.3410   23.8770  -32.1200 C   0  0  0  0  0  0  0  0  0  0  0  0
   -5.9610   24.2390  -30.8160 C   0  0  0  0  0  0  0  0  0  0  0  0
   -4.8520   25.2010  -30.6060 C   0  0  0  0  0  0  0  0  0  0  0  0
   -5.1100   26.4260  -30.4590 O   0  0  0  0  0  0  0  0  0  0  0  0
   -3.4830   24.7740  -30.5330 N   0  0  0  0  0  0  0  0  0  0  0  0
   -2.8330   24.1820  -29.3930 C   0  0  0  0  0  0  0  0  0  0  0  0
   -3.2620   22.9500  -28.8540 C   0  0  0  0  0  0  0  0  0  0  0  0
   -2.6190   22.4100  -27.7350 C   0  0  0  0  0  0  0  0  0  0  0  0
   -1.5360   23.0770  -27.1560 C   0  0  0  0  0  0  0  0  0  0  0  0
   -1.0880   24.2820  -27.7030 C   0  0  0  0  0  0  0  0  0  0  0  0
   -1.7310   24.8330  -28.8200 C   0  0  0  0  0  0  0  0  0  0  0  0
   -1.2750   26.0340  -29.3490 O   0  0  0  0  0  0  0  0  0  0  0  0
   -6.6430   23.6720  -29.7270 C   0  0  0  0  0  0  0  0  0  0  0  0
   -7.6180   22.6960  -29.9310 C   0  0  0  0  0  0  0  0  0  0  0  0
   -5.8320   20.1260  -31.6940 C   0  0  0  0  0  0  0  0  0  0  0  0
   -4.5060   20.1320  -32.1430 C   0  0  0  0  0  0  0  0  0  0  0  0
   -2.0922   19.6117  -33.0010 H   0  0  0  0  0  0  0  0  0  0  0  0
   -2.5832   18.7203  -34.4812 H   0  0  0  0  0  0  0  0  0  0  0  0
   -2.5581   20.5164  -34.4812 H   0  0  0  0  0  0  0  0  0  0  0  0
   -4.9652   18.7004  -35.2101 H   0  0  0  0  0  0  0  0  0  0  0  0
   -7.3259   18.7011  -34.4149 H   0  0  0  0  0  0  0  0  0  0  0  0
   -7.6490   22.6636  -33.3512 H   0  0  0  0  0  0  0  0  0  0  0  0
   -5.8472   24.3469  -32.9833 H   0  0  0  0  0  0  0  0  0  0  0  0
   -4.1041   22.4131  -29.3150 H   0  0  0  0  0  0  0  0  0  0  0  0
   -2.9670   21.4572  -27.3095 H   0  0  0  0  0  0  0  0  0  0  0  0
   -1.0373   22.6541  -26.2714 H   0  0  0  0  0  0  0  0  0  0  0  0
   -0.2273   24.8004  -27.2553 H   0  0  0  0  0  0  0  0  0  0  0  0
   -6.4060   24.0006  -28.7043 H   0  0  0  0  0  0  0  0  0  0  0  0
   -8.1228   22.2367  -29.0683 H   0  0  0  0  0  0  0  0  0  0  0  0
   -6.0735   20.5197  -30.6957 H   0  0  0  0  0  0  0  0  0  0  0  0
   -3.7099   20.5249  -31.4935 H   0  0  0  0  0  0  0  0  0  0  0  0
  1  2  1  0
  2  3  2  0
  3  4  1  0
  4  5  2  0
  5  6  1  0
  6  7  2  0
  6  8  2  0
  6  9  1  0
  9 10  1  0
 10 11  2  0
 11 12  1  0
 12 13  2  0
 13 14  1  0
 14 15  2  0
 14 16  1  0
 16 17  1  0
 17 18  2  0
 18 19  1  0
 19 20  2  0
 20 21  1  0
 21 22  2  0
 22 23  1  0
 13 24  1  0
 24 25  2  0
  5 26  1  0
 26 27  2  0
 27  2  1  0
 25 10  1  0
 22 17  1  0
  1 28  1  0
  1 29  1  0
  1 30  1  0
  3 31  1  0
  4 32  1  0
 11 33  1  0
 12 34  1  0
 18 35  1  0
 19 36  1  0
 20 37  1  0
 21 38  1  0
 24 39  1  0
 25 40  1  0
 26 41  1  0
 27 42  1  0
M  CHG  3   9  -1  16  -1  23  -1
M  END
>  <UniqueID>  (9) 
8

>  <SMILES>  (9) 
Cc1ccc(S(=O)(=O)[N-]c2ccc(C(=O)[N-]c3ccccc3[O-])cc2)cc1

>  <Energy>  (9) 
53.03819425951469

>  <Genealogy>  (9) 
Cc1ccc(S(=O)(=O)[N-]c2ccc(C(=O)[N-]c3ccccc3[O-])cc2)cc1 (protonated)
Cc1ccc(S(=O)(=O)[N-]c2ccc(C(=O)[N-]c3ccccc3[O-])cc2)cc1 (3D coordinates assigned)
Cc1ccc(S(=O)(=O)[N-]c2ccc(C(=O)[N-]c3ccccc3[O-])cc2)cc1 (optimized conformer: 53.03819425951469 kcal/mol)

>  <smiles>  (9) 
Cc1ccc(S(=O)(=O)Nc2ccc(C(=O)Nc3ccccc3O)cc2)cc1

>  <score_type>  (9) 
oracle

>  <origin>  (9) 
adgpu

>  <m_score__min__energy>  (9) 
-14.630000000000001

>  <m_primary>  (9) 
energy

$$$$
9:0
     RDKit          3D

 37 38  0  0  0  0  0  0  0  0999 V2000
   -8.1890   19.5240  -31.7810 C   0  0  0  0  0  0  0  0  0  0  0  0
   -8.6450   20.9520  -31.7090 C   0  0  0  0  0  0  0  0  0  0  0  0
   -9.8700   21.2020  -31.8920 O   0  0  0  0  0  0  0  0  0  0  0  0
   -7.7040   22.0630  -31.4150 C   0  0  0  0  0  0  0  0  0  0  0  0
   -6.8530   22.5470  -32.4240 C   0  0  0  0  0  0  0  0  0  0  0  0
   -5.9530   23.5820  -32.1580 C   0  0  0  0  0  0  0  0  0  0  0  0
   -5.9020   24.1740  -30.8890 C   0  0  0  0  0  0  0  0  0  0  0  0
   -4.9350   25.2540  -30.6020 C   0  0  0  0  0  0  0  0  0  0  0  0
   -5.3570   26.4340  -30.4710 O   0  0  0  0  0  0  0  0  0  0  0  0
   -3.5310   25.0070  -30.4690 N   0  0  0  0  0  0  0  0  0  0  0  0
   -2.9570   23.9420  -29.6550 C   0  0  0  0  0  0  0  0  0  0  0  0
   -1.5090   24.2720  -29.3260 C   0  0  0  0  0  0  0  0  0  0  0  0
   -1.4060   25.6470  -28.9670 O   0  0  0  0  0  0  0  0  0  0  0  0
   -1.2920   26.1180  -27.6500 C   0  0  0  0  0  0  0  0  0  0  0  0
   -1.9710   25.5150  -26.5690 C   0  0  0  0  0  0  0  0  0  0  0  0
   -1.8050   26.0110  -25.2720 C   0  0  0  0  0  0  0  0  0  0  0  0
   -0.9710   27.1100  -25.0420 C   0  0  0  0  0  0  0  0  0  0  0  0
   -0.3060   27.7190  -26.1090 C   0  0  0  0  0  0  0  0  0  0  0  0
   -0.4670   27.2250  -27.4070 C   0  0  0  0  0  0  0  0  0  0  0  0
   -6.7320   23.6820  -29.8730 C   0  0  0  0  0  0  0  0  0  0  0  0
   -7.6270   22.6400  -30.1310 C   0  0  0  0  0  0  0  0  0  0  0  0
   -8.0625   19.1277  -30.7627 H   0  0  0  0  0  0  0  0  0  0  0  0
   -8.9407   18.9256  -32.3165 H   0  0  0  0  0  0  0  0  0  0  0  0
   -7.2296   19.4720  -32.3165 H   0  0  0  0  0  0  0  0  0  0  0  0
   -6.8961   22.1071  -33.4313 H   0  0  0  0  0  0  0  0  0  0  0  0
   -5.2784   23.9353  -32.9518 H   0  0  0  0  0  0  0  0  0  0  0  0
   -3.5311   23.8452  -28.7217 H   0  0  0  0  0  0  0  0  0  0  0  0
   -2.9971   22.9950  -30.2132 H   0  0  0  0  0  0  0  0  0  0  0  0
   -1.1722   23.6472  -28.4856 H   0  0  0  0  0  0  0  0  0  0  0  0
   -0.8784   24.0739  -30.2053 H   0  0  0  0  0  0  0  0  0  0  0  0
   -2.6316   24.6537  -26.7472 H   0  0  0  0  0  0  0  0  0  0  0  0
   -2.3314   25.5359  -24.4311 H   0  0  0  0  0  0  0  0  0  0  0  0
   -0.8386   27.4951  -24.0202 H   0  0  0  0  0  0  0  0  0  0  0  0
    0.3444   28.5874  -25.9279 H   0  0  0  0  0  0  0  0  0  0  0  0
    0.0578   27.7087  -28.2440 H   0  0  0  0  0  0  0  0  0  0  0  0
   -6.6788   24.1190  -28.8649 H   0  0  0  0  0  0  0  0  0  0  0  0
   -8.2767   22.2670  -29.3255 H   0  0  0  0  0  0  0  0  0  0  0  0
  1  2  1  0
  2  3  2  0
  2  4  1  0
  4  5  2  0
  5  6  1  0
  6  7  2  0
  7  8  1  0
  8  9  2  0
  8 10  1  0
 10 11  1  0
 11 12  1  0
 12 13  1  0
 13 14  1  0
 14 15  2  0
 15 16  1  0
 16 17  2  0
 17 18  1  0
 18 19  2  0
  7 20  1  0
 20 21  2  0
 21  4  1  0
 19 14  1  0
  1 22  1  0
  1 23  1  0
  1 24  1  0
  5 25  1  0
  6 26  1  0
 11 27  1  0
 11 28  1  0
 12 29  1  0
 12 30  1  0
 15 31  1  0
 16 32  1  0
 17 33  1  0
 18 34  1  0
 19 35  1  0
 20 36  1  0
 21 37  1  0
M  CHG  1  10  -1
M  END
>  <UniqueID>  (10) 
9

>  <SMILES>  (10) 
CC(=O)c1ccc(C(=O)[N-]CCOc2ccccc2)cc1

>  <Energy>  (10) 
39.32988374175602

>  <Genealogy>  (10) 
CC(=O)c1ccc(C(=O)[N-]CCOc2ccccc2)cc1 (protonated)
CC(=O)c1ccc(C(=O)[N-]CCOc2ccccc2)cc1 (3D coordinates assigned)
CC(=O)c1ccc(C(=O)[N-]CCOc2ccccc2)cc1 (optimized conformer: 39.32988374175602 kcal/mol)

>  <smiles>  (10) 
CC(=O)c1ccc(C(=O)NCCOc2ccccc2)cc1

>  <score_type>  (10) 
oracle

>  <origin>  (10) 
adgpu

>  <m_score__min__energy>  (10) 
-10.08

>  <m_primary>  (10) 
energy

$$$$
10:0
     RDKit          3D

 44 45  0  0  0  0  0  0  0  0999 V2000
   -1.5840   18.8350  -33.5850 C   0  0  0  0  0  0  0  0  0  0  0  0
   -3.0140   19.3360  -33.8310 C   0  0  1  0  0  0  0  0  0  0  0  0
   -4.0410   18.2450  -33.6600 C   0  0  0  0  0  0  0  0  0  0  0  0
   -3.7480   17.1850  -33.0430 O   0  0  0  0  0  0  0  0  0  0  0  0
   -5.3750   18.4500  -34.1480 N   0  0  0  0  0  0  0  0  0  0  0  0
   -6.4500   17.4760  -33.9630 C   0  0  0  0  0  0  0  0  0  0  0  0
   -7.0450   17.5490  -32.5490 C   0  0  0  0  0  0  0  0  0  0  0  0
   -7.6130   18.9140  -32.2390 C   0  0  0  0  0  0  0  0  0  0  0  0
   -8.9440   19.2130  -32.5790 C   0  0  0  0  0  0  0  0  0  0  0  0
   -9.4720   20.4820  -32.3250 C   0  0  0  0  0  0  0  0  0  0  0  0
   -8.6800   21.4610  -31.7210 C   0  0  0  0  0  0  0  0  0  0  0  0
   -7.3590   21.1720  -31.3670 C   0  0  0  0  0  0  0  0  0  0  0  0
   -6.8240   19.9070  -31.6240 C   0  0  0  0  0  0  0  0  0  0  0  0
   -5.5430   19.6470  -31.2580 F   0  0  0  0  0  0  0  0  0  0  0  0
   -3.3590   20.5140  -32.9430 C   0  0  0  0  0  0  0  0  0  0  0  0
   -2.8090   20.6380  -31.6540 C   0  0  0  0  0  0  0  0  0  0  0  0
   -3.1580   21.7150  -30.8350 C   0  0  0  0  0  0  0  0  0  0  0  0
   -4.0690   22.6810  -31.2860 C   0  0  0  0  0  0  0  0  0  0  0  0
   -4.5020   24.0420  -30.2540 S   0  0  0  0  0  0  0  0  0  0  0  0
   -6.2710   24.2160  -30.1460 C   0  0  0  0  0  0  0  0  0  0  0  0
   -3.9070   25.3020  -30.8160 O   0  0  0  0  0  0  0  0  0  0  0  0
   -3.9690   23.8190  -28.8660 O   0  0  0  0  0  0  0  0  0  0  0  0
   -4.6210   22.5610  -32.5670 C   0  0  0  0  0  0  0  0  0  0  0  0
   -4.2740   21.4860  -33.3880 C   0  0  0  0  0  0  0  0  0  0  0  0
   -1.3993   18.7703  -32.5026 H   0  0  0  0  0  0  0  0  0  0  0  0
   -1.4610   17.8402  -34.0381 H   0  0  0  0  0  0  0  0  0  0  0  0
   -0.8670   19.5355  -34.0381 H   0  0  0  0  0  0  0  0  0  0  0  0
   -3.0418   19.6680  -34.8793 H   0  0  0  0  0  0  0  0  0  0  0  0
   -5.5890   19.3230  -34.6800 H   0  0  0  0  0  0  0  0  0  0  0  0
   -7.2452   17.6792  -34.6954 H   0  0  0  0  0  0  0  0  0  0  0  0
   -6.0297   16.4697  -34.1068 H   0  0  0  0  0  0  0  0  0  0  0  0
   -7.8490   16.8031  -32.4640 H   0  0  0  0  0  0  0  0  0  0  0  0
   -6.2358   17.3489  -31.8313 H   0  0  0  0  0  0  0  0  0  0  0  0
   -9.5741   18.4430  -33.0481 H   0  0  0  0  0  0  0  0  0  0  0  0
  -10.5121   20.7098  -32.6010 H   0  0  0  0  0  0  0  0  0  0  0  0
   -9.0960   22.4600  -31.5238 H   0  0  0  0  0  0  0  0  0  0  0  0
   -6.7391   21.9423  -30.8849 H   0  0  0  0  0  0  0  0  0  0  0  0
   -2.0990   19.8816  -31.2882 H   0  0  0  0  0  0  0  0  0  0  0  0
   -2.7161   21.8055  -29.8318 H   0  0  0  0  0  0  0  0  0  0  0  0
   -6.5726   24.2457  -29.0886 H   0  0  0  0  0  0  0  0  0  0  0  0
   -6.5786   25.1487  -30.6414 H   0  0  0  0  0  0  0  0  0  0  0  0
   -6.7545   23.3611  -30.6414 H   0  0  0  0  0  0  0  0  0  0  0  0
   -5.3323   23.3180  -32.9289 H   0  0  0  0  0  0  0  0  0  0  0  0
   -4.7193   21.3984  -34.3900 H   0  0  0  0  0  0  0  0  0  0  0  0
  1  2  1  0
  2  3  1  0
  3  4  2  0
  3  5  1  0
  5  6  1  0
  6  7  1  0
  7  8  1  0
  8  9  2  0
  9 10  1  0
 10 11  2  0
 11 12  1  0
 12 13  2  0
 13 14  1  0
  2 15  1  0
 15 16  2  0
 16 17  1  0
 17 18  2  0
 18 19  1  0
 19 20  1  0
 19 21  2  0
 19 22  2  0
 18 23  1  0
 23 24  2  0
 13  8  1  0
 24 15  1  0
  1 25  1  0
  1 26  1  0
  1 27  1  0
  2 28  1  6
  5 29  1  0
  6 30  1  0
  6 31  1  0
  7 32  1  0
  7 33  1  0
  9 34  1  0
 10 35  1  0
 11 36  1  0
 12 37  1  0
 16 38  1  0
 17 39  1  0
 20 40  1  0
 20 41  1  0
 20 42  1  0
 23 43  1  0
 24 44  1  0
M  END
>  <UniqueID>  (11) 
10

>  <SMILES>  (11) 
C[C@@H](C(=O)NCCc1ccccc1F)c1ccc(S(C)(=O)=O)cc1

>  <Energy>  (11) 
31.80158508544781

>  <Genealogy>  (11) 
C[C@@H](C(=O)NCCc1ccccc1F)c1ccc(S(C)(=O)=O)cc1 (chirality)
C[C@@H](C(=O)NCCc1ccccc1F)c1ccc(S(C)(=O)=O)cc1 (3D coordinates assigned)
C[C@@H](C(=O)NCCc1ccccc1F)c1ccc(S(C)(=O)=O)cc1 (optimized conformer: 31.80158508544781 kcal/mol)

>  <smiles>  (11) 
CC(C(=O)NCCc1ccccc1F)c1ccc(S(C)(=O)=O)cc1

>  <score_type>  (11) 
oracle

>  <origin>  (11) 
adgpu

>  <m_score__min__energy>  (11) 
-8.4499999999999993

>  <m_primary>  (11) 
energy

$$$$
11:0
     RDKit          3D

 29 30  0  0  0  0  0  0  0  0999 V2000
   -6.4430   16.8070  -33.9440 N   0  0  0  0  0  0  0  0  0  0  0  0
   -6.9230   18.0120  -33.3440 C   0  0  0  0  0  0  0  0  0  0  0  0
   -7.8420   17.9570  -32.2860 C   0  0  0  0  0  0  0  0  0  0  0  0
   -8.3110   19.1360  -31.6980 C   0  0  0  0  0  0  0  0  0  0  0  0
   -7.8690   20.3800  -32.1660 C   0  0  0  0  0  0  0  0  0  0  0  0
   -8.4400   21.8630  -31.4090 S   0  0  0  0  0  0  0  0  0  0  0  0
   -9.2290   21.5360  -30.1730 O   0  0  0  0  0  0  0  0  0  0  0  0
   -9.3420   22.6060  -32.3550 O   0  0  0  0  0  0  0  0  0  0  0  0
   -7.0560   22.8630  -30.9910 C   0  0  0  0  0  0  0  0  0  0  0  0
   -5.7620   22.3240  -31.0210 C   0  0  0  0  0  0  0  0  0  0  0  0
   -4.6600   23.1250  -30.7080 C   0  0  0  0  0  0  0  0  0  0  0  0
   -4.8390   24.4720  -30.3670 C   0  0  0  0  0  0  0  0  0  0  0  0
   -3.7110   25.2910  -30.0480 N   0  0  0  0  0  0  0  0  0  0  0  0
   -6.1320   25.0130  -30.3460 C   0  0  0  0  0  0  0  0  0  0  0  0
   -7.2350   24.2140  -30.6590 C   0  0  0  0  0  0  0  0  0  0  0  0
   -6.9440   20.4370  -33.2170 C   0  0  0  0  0  0  0  0  0  0  0  0
   -6.4750   19.2590  -33.8060 C   0  0  0  0  0  0  0  0  0  0  0  0
   -6.4310   16.6960  -34.9830 H   0  0  0  0  0  0  0  0  0  0  0  0
   -6.0960   16.0180  -33.3560 H   0  0  0  0  0  0  0  0  0  0  0  0
   -8.1953   16.9827  -31.9173 H   0  0  0  0  0  0  0  0  0  0  0  0
   -9.0288   19.0863  -30.8659 H   0  0  0  0  0  0  0  0  0  0  0  0
   -5.6136   21.2682  -31.2915 H   0  0  0  0  0  0  0  0  0  0  0  0
   -3.6475   22.6957  -30.7295 H   0  0  0  0  0  0  0  0  0  0  0  0
   -3.4810   25.5210  -29.0550 H   0  0  0  0  0  0  0  0  0  0  0  0
   -3.0980   25.6740  -30.8010 H   0  0  0  0  0  0  0  0  0  0  0  0
   -6.2790   26.0707  -30.0821 H   0  0  0  0  0  0  0  0  0  0  0  0
   -8.2466   24.6459  -30.6450 H   0  0  0  0  0  0  0  0  0  0  0  0
   -6.5857   21.4117  -33.5798 H   0  0  0  0  0  0  0  0  0  0  0  0
   -5.7527   19.3098  -34.6340 H   0  0  0  0  0  0  0  0  0  0  0  0
  1  2  1  0
  2  3  2  0
  3  4  1  0
  4  5  2  0
  5  6  1  0
  6  7  2  0
  6  8  2  0
  6  9  1  0
  9 10  2  0
 10 11  1  0
 11 12  2  0
 12 13  1  0
 12 14  1  0
 14 15  2  0
  5 16  1  0
 16 17  2  0
 17  2  1  0
 15  9  1  0
  1 18  1  0
  1 19  1  0
  3 20  1  0
  4 21  1  0
 10 22  1  0
 11 23  1  0
 13 24  1  0
 13 25  1  0
 14 26  1  0
 15 27  1  0
 16 28  1  0
 17 29  1  0
M  END
>  <UniqueID>  (12) 
11

>  <SMILES>  (12) 
Nc1ccc(S(=O)(=O)c2ccc(N)cc2)cc1

>  <Energy>  (12) 
29.558904112296606

>  <Genealogy>  (12) 
Nc1ccc(S(=O)(=O)c2ccc(N)cc2)cc1 (3D coordinates assigned)
Nc1ccc(S(=O)(=O)c2ccc(N)cc2)cc1 (optimized conformer: 29.558904112296606 kcal/mol)

>  <smiles>  (12) 
Nc1ccc(S(=O)(=O)c2ccc(N)cc2)cc1

>  <score_type>  (12) 
oracle

>  <origin>  (12) 
adgpu

>  <m_score__min__energy>  (12) 
-7.7400000000000002

>  <m_primary>  (12) 
energy

$$$$
12:0
     RDKit          3D

 55 59  0  0  0  0  0  0  0  0999 V2000
    1.5590   19.6480  -36.9550 C   0  0  0  0  0  0  0  0  0  0  0  0
    0.5760   19.2930  -35.8920 C   0  0  0  0  0  0  0  0  0  0  0  0
    0.1430   18.0170  -35.5830 C   0  0  0  0  0  0  0  0  0  0  0  0
   -0.7950   18.2070  -34.5880 C   0  0  0  0  0  0  0  0  0  0  0  0
   -1.5190   17.1290  -33.8840 C   0  0  0  0  0  0  0  0  0  0  0  0
   -1.0130   16.5850  -32.8670 O   0  0  0  0  0  0  0  0  0  0  0  0
   -2.7720   16.6670  -34.4020 N   0  0  0  0  0  0  0  0  0  0  0  0
   -4.0720   17.1200  -33.9950 C   0  0  0  0  0  0  0  0  0  0  0  0
   -4.8100   17.9250  -34.8710 C   0  0  0  0  0  0  0  0  0  0  0  0
   -6.0730   18.3980  -34.5040 C   0  0  0  0  0  0  0  0  0  0  0  0
   -6.6160   18.0740  -33.2560 C   0  0  0  0  0  0  0  0  0  0  0  0
   -7.8890   18.5630  -32.9280 O   0  0  0  0  0  0  0  0  0  0  0  0
   -8.1610   19.8530  -32.4490 C   0  0  0  0  0  0  0  0  0  0  0  0
   -9.4910   20.2650  -32.3500 C   0  0  0  0  0  0  0  0  0  0  0  0
   -9.7850   21.5410  -31.8650 C   0  0  0  0  0  0  0  0  0  0  0  0
   -8.7790   22.3720  -31.4840 N   0  0  0  0  0  0  0  0  0  0  0  0
   -7.4710   22.0030  -31.5520 C   0  0  0  0  0  0  0  0  0  0  0  0
   -6.4290   22.9590  -31.1180 C   0  0  0  0  0  0  0  0  0  0  0  0
   -5.8660   23.9660  -31.8830 C   0  0  0  0  0  0  0  0  0  0  0  0
   -4.9560   24.6320  -31.1430 N   0  0  0  0  0  0  0  0  0  0  0  0
   -4.9210   24.0660  -29.9480 N   0  0  0  0  0  0  0  0  0  0  0  0
   -4.1010   24.5450  -28.8450 C   0  0  0  0  0  0  0  0  0  0  0  0
   -5.8080   23.0550  -29.8860 C   0  0  0  0  0  0  0  0  0  0  0  0
   -7.1400   20.7240  -32.0300 C   0  0  0  0  0  0  0  0  0  0  0  0
   -5.8550   17.3090  -32.3500 C   0  0  0  0  0  0  0  0  0  0  0  0
   -6.3110   17.0660  -31.0950 F   0  0  0  0  0  0  0  0  0  0  0  0
   -4.5920   16.8350  -32.7190 C   0  0  0  0  0  0  0  0  0  0  0  0
   -0.9110   19.5360  -34.3550 N   0  0  0  0  0  0  0  0  0  0  0  0
   -1.7790   20.1890  -33.4190 C   0  0  0  0  0  0  0  0  0  0  0  0
   -3.0960   20.4910  -33.7950 C   0  0  0  0  0  0  0  0  0  0  0  0
   -3.9570   21.1270  -32.8980 C   0  0  0  0  0  0  0  0  0  0  0  0
   -3.5120   21.4580  -31.6150 C   0  0  0  0  0  0  0  0  0  0  0  0
   -2.2060   21.1460  -31.2240 C   0  0  0  0  0  0  0  0  0  0  0  0
   -1.3380   20.5040  -32.1170 C   0  0  0  0  0  0  0  0  0  0  0  0
    0.2820   20.0820  -31.5750 Cl  0  0  0  0  0  0  0  0  0  0  0  0
   -0.0800   20.2000  -35.1420 N   0  0  0  0  0  0  0  0  0  0  0  0
    2.4963   19.9865  -36.4894 H   0  0  0  0  0  0  0  0  0  0  0  0
    1.7581   18.7650  -37.5800 H   0  0  0  0  0  0  0  0  0  0  0  0
    1.1479   20.4545  -37.5800 H   0  0  0  0  0  0  0  0  0  0  0  0
    0.4712   17.0664  -36.0286 H   0  0  0  0  0  0  0  0  0  0  0  0
   -4.3931   18.1870  -35.8546 H   0  0  0  0  0  0  0  0  0  0  0  0
   -6.6438   19.0292  -35.2010 H   0  0  0  0  0  0  0  0  0  0  0  0
  -10.3034   19.5879  -32.6525 H   0  0  0  0  0  0  0  0  0  0  0  0
  -10.8309   21.8738  -31.7912 H   0  0  0  0  0  0  0  0  0  0  0  0
   -6.1207   24.1881  -32.9298 H   0  0  0  0  0  0  0  0  0  0  0  0
   -4.5731   24.2692  -27.8905 H   0  0  0  0  0  0  0  0  0  0  0  0
   -3.1021   24.0884  -28.9055 H   0  0  0  0  0  0  0  0  0  0  0  0
   -4.0081   25.6394  -28.9055 H   0  0  0  0  0  0  0  0  0  0  0  0
   -6.0040   22.4183  -29.0107 H   0  0  0  0  0  0  0  0  0  0  0  0
   -6.0880   20.4059  -32.0762 H   0  0  0  0  0  0  0  0  0  0  0  0
   -4.0026   16.2368  -32.0086 H   0  0  0  0  0  0  0  0  0  0  0  0
   -3.4525   20.2256  -34.8012 H   0  0  0  0  0  0  0  0  0  0  0  0
   -4.9865   21.3677  -33.2015 H   0  0  0  0  0  0  0  0  0  0  0  0
   -4.1898   21.9645  -30.9121 H   0  0  0  0  0  0  0  0  0  0  0  0
   -1.8594   21.4053  -30.2128 H   0  0  0  0  0  0  0  0  0  0  0  0
  1  2  1  0
  2  3  1  0
  3  4  2  0
  4  5  1  0
  5  6  2  0
  5  7  1  0
  7  8  1  0
  8  9  2  0
  9 10  1  0
 10 11  2  0
 11 12  1  0
 12 13  1  0
 13 14  2  0
 14 15  1  0
 15 16  2  0
 16 17  1  0
 17 18  1  0
 18 19  1  0
 19 20  2  0
 20 21  1  0
 21 22  1  0
 21 23  1  0
 17 24  2  0
 11 25  1  0
 25 26  1  0
 25 27  2  0
  4 28  1  0
 28 29  1  0
 29 30  2  0
 30 31  1  0
 31 32  2  0
 32 33  1  0
 33 34  2  0
 34 35  1  0
 28 36  1  0
 36  2  2  0
 27  8  1  0
 34 29  1  0
 24 13  1  0
 23 18  2  0
  1 37  1  0
  1 38  1  0
  1 39  1  0
  3 40  1  0
  9 41  1  0
 10 42  1  0
 14 43  1  0
 15 44  1  0
 19 45  1  0
 22 46  1  0
 22 47  1  0
 22 48  1  0
 23 49  1  0
 24 50  1  0
 27 51  1  0
 30 52  1  0
 31 53  1  0
 32 54  1  0
 33 55  1  0
M  CHG  1   7  -1
M  END
>  <UniqueID>  (13) 
12

>  <SMILES>  (13) 
Cc1cc(C(=O)[N-]c2ccc(Oc3ccnc(-c4cnn(C)c4)c3)c(F)c2)n(-c2ccccc2Cl)n1

>  <Energy>  (13) 
138.5634794151661

>  <Genealogy>  (13) 
Cc1cc(C(=O)[N-]c2ccc(Oc3ccnc(-c4cnn(C)c4)c3)c(F)c2)n(-c2ccccc2Cl)n1 (protonated)
Cc1cc(C(=O)[N-]c2ccc(Oc3ccnc(-c4cnn(C)c4)c3)c(F)c2)n(-c2ccccc2Cl)n1 (3D coordinates assigned)
Cc1cc(C(=O)[N-]c2ccc(Oc3ccnc(-c4cnn(C)c4)c3)c(F)c2)n(-c2ccccc2Cl)n1 (optimized conformer: 138.5634794151661 kcal/mol)

>  <smiles>  (13) 
Cc1cc(C(=O)Nc2ccc(Oc3ccnc(-c4cnn(C)c4)c3)c(F)c2)n(-c2ccccc2Cl)n1

>  <score_type>  (13) 
oracle

>  <origin>  (13) 
adgpu

>  <m_score__min__energy>  (13) 
-12.130000000000001

>  <m_primary>  (13) 
energy

$$$$
13:0
     RDKit          3D

 66 67  0  0  0  0  0  0  0  0999 V2000
   -4.6210   14.2630  -32.1960 C   0  0  0  0  0  0  0  0  0  0  0  0
   -3.4560   15.0510  -32.8080 C   0  0  0  0  0  0  0  0  0  0  0  0
   -3.7530   15.5430  -34.1780 N   0  0  0  0  0  0  0  0  0  0  0  0
   -3.4340   14.5270  -35.2250 C   0  0  0  0  0  0  0  0  0  0  0  0
   -2.7140   15.1380  -36.4330 C   0  0  0  0  0  0  0  0  0  0  0  0
   -5.1530   16.0450  -34.2840 C   0  0  0  0  0  0  0  0  0  0  0  0
   -5.3630   17.4480  -33.7280 C   0  0  0  0  0  0  0  0  0  0  0  0
   -6.6470   17.8550  -33.3510 C   0  0  0  0  0  0  0  0  0  0  0  0
   -6.8600   19.0950  -32.7430 C   0  0  0  0  0  0  0  0  0  0  0  0
   -8.1650   19.4380  -32.2210 N   0  0  0  0  0  0  0  0  0  0  0  0
   -8.8180   18.5560  -31.2500 C   0  0  0  0  0  0  0  0  0  0  0  0
   -8.7540   20.7600  -32.5000 C   0  0  0  0  0  0  0  0  0  0  0  0
   -7.9400   21.8490  -31.8500 C   0  0  0  0  0  0  0  0  0  0  0  0
   -7.2410   22.7830  -32.6320 C   0  0  0  0  0  0  0  0  0  0  0  0
   -6.4350   23.7490  -32.0250 C   0  0  0  0  0  0  0  0  0  0  0  0
   -6.3190   23.7930  -30.6300 C   0  0  0  0  0  0  0  0  0  0  0  0
   -5.2950   24.9980  -29.8620 S   0  0  0  0  0  0  0  0  0  0  0  0
   -4.4890   24.2840  -28.4470 C   0  0  0  0  0  0  0  0  0  0  0  0
   -4.2570   25.4870  -30.8330 O   0  0  0  0  0  0  0  0  0  0  0  0
   -6.1350   26.1680  -29.4270 O   0  0  0  0  0  0  0  0  0  0  0  0
   -7.0110   22.8630  -29.8460 C   0  0  0  0  0  0  0  0  0  0  0  0
   -7.8180   21.8950  -30.4520 C   0  0  0  0  0  0  0  0  0  0  0  0
   -5.7760   19.9630  -32.5610 C   0  0  0  0  0  0  0  0  0  0  0  0
   -4.4620   19.6100  -32.9580 C   0  0  0  0  0  0  0  0  0  0  0  0
   -3.2590   20.5570  -32.7010 C   0  0  0  0  0  0  0  0  0  0  0  0
   -2.4410   20.0620  -31.4870 C   0  0  0  0  0  0  0  0  0  0  0  0
   -2.2820   20.6360  -33.9020 C   0  0  0  0  0  0  0  0  0  0  0  0
   -3.7650   21.9980  -32.4470 C   0  0  0  0  0  0  0  0  0  0  0  0
   -4.2830   18.3440  -33.5830 C   0  0  0  0  0  0  0  0  0  0  0  0
   -3.0380   17.9710  -34.0730 O   0  0  0  0  0  0  0  0  0  0  0  0
   -4.5567   14.3065  -31.0987 H   0  0  0  0  0  0  0  0  0  0  0  0
   -5.5741   14.7027  -32.5252 H   0  0  0  0  0  0  0  0  0  0  0  0
   -4.5677   13.2148  -32.5252 H   0  0  0  0  0  0  0  0  0  0  0  0
   -3.2387   15.9153  -32.1632 H   0  0  0  0  0  0  0  0  0  0  0  0
   -2.5954   14.3696  -32.8792 H   0  0  0  0  0  0  0  0  0  0  0  0
   -3.1560   16.3900  -34.3280 H   0  0  0  0  0  0  0  0  0  0  0  0
   -2.7879   13.7546  -34.7823 H   0  0  0  0  0  0  0  0  0  0  0  0
   -4.3844   14.1025  -35.5807 H   0  0  0  0  0  0  0  0  0  0  0  0
   -1.9188   15.8128  -36.0832 H   0  0  0  0  0  0  0  0  0  0  0  0
   -2.2722   14.3350  -37.0412 H   0  0  0  0  0  0  0  0  0  0  0  0
   -3.4344   15.7046  -37.0412 H   0  0  0  0  0  0  0  0  0  0  0  0
   -5.4370   16.0501  -35.3467 H   0  0  0  0  0  0  0  0  0  0  0  0
   -5.7748   15.3707  -33.6769 H   0  0  0  0  0  0  0  0  0  0  0  0
   -7.5024   17.1886  -33.5360 H   0  0  0  0  0  0  0  0  0  0  0  0
   -8.5725   18.8876  -30.2303 H   0  0  0  0  0  0  0  0  0  0  0  0
   -9.9077   18.5936  -31.3954 H   0  0  0  0  0  0  0  0  0  0  0  0
   -8.4640   17.5247  -31.3954 H   0  0  0  0  0  0  0  0  0  0  0  0
   -8.7755   20.9244  -33.5874 H   0  0  0  0  0  0  0  0  0  0  0  0
   -9.7750   20.7876  -32.0917 H   0  0  0  0  0  0  0  0  0  0  0  0
   -7.3287   22.7537  -33.7281 H   0  0  0  0  0  0  0  0  0  0  0  0
   -5.8901   24.4769  -32.6441 H   0  0  0  0  0  0  0  0  0  0  0  0
   -4.9406   24.6840  -27.5272 H   0  0  0  0  0  0  0  0  0  0  0  0
   -4.6095   23.1908  -28.4692 H   0  0  0  0  0  0  0  0  0  0  0  0
   -3.4184   24.5354  -28.4692 H   0  0  0  0  0  0  0  0  0  0  0  0
   -6.9199   22.8935  -28.7502 H   0  0  0  0  0  0  0  0  0  0  0  0
   -8.3596   21.1665  -29.8308 H   0  0  0  0  0  0  0  0  0  0  0  0
   -5.9491   20.9454  -32.0974 H   0  0  0  0  0  0  0  0  0  0  0  0
   -2.9440   20.3664  -30.5573 H   0  0  0  0  0  0  0  0  0  0  0  0
   -2.3634   18.9652  -31.5198 H   0  0  0  0  0  0  0  0  0  0  0  0
   -1.4334   20.5020  -31.5198 H   0  0  0  0  0  0  0  0  0  0  0  0
   -1.2501   20.7194  -33.5303 H   0  0  0  0  0  0  0  0  0  0  0  0
   -2.3790   19.7271  -34.5139 H   0  0  0  0  0  0  0  0  0  0  0  0
   -2.5237   21.5175  -34.5139 H   0  0  0  0  0  0  0  0  0  0  0  0
   -3.8285   22.1787  -31.3638 H   0  0  0  0  0  0  0  0  0  0  0  0
   -3.0656   22.7171  -32.8984 H   0  0  0  0  0  0  0  0  0  0  0  0
   -4.7604   22.1220  -32.8984 H   0  0  0  0  0  0  0  0  0  0  0  0
  1  2  1  0
  2  3  1  0
  3  4  1  0
  4  5  1  0
  3  6  1  0
  6  7  1  0
  7  8  2  0
  8  9  1  0
  9 10  1  0
 10 11  1  0
 10 12  1  0
 12 13  1  0
 13 14  2  0
 14 15  1  0
 15 16  2  0
 16 17  1  0
 17 18  1  0
 17 19  2  0
 17 20  2  0
 16 21  1  0
 21 22  2  0
  9 23  2  0
 23 24  1  0
 24 25  1  0
 25 26  1  0
 25 27  1  0
 25 28  1  0
 24 29  2  0
 29 30  1  0
 29  7  1  0
 22 13  1  0
  1 31  1  0
  1 32  1  0
  1 33  1  0
  2 34  1  0
  2 35  1  0
  3 36  1  0
  4 37  1  0
  4 38  1  0
  5 39  1  0
  5 40  1  0
  5 41  1  0
  6 42  1  0
  6 43  1  0
  8 44  1  0
 11 45  1  0
 11 46  1  0
 11 47  1  0
 12 48  1  0
 12 49  1  0
 14 50  1  0
 15 51  1  0
 18 52  1  0
 18 53  1  0
 18 54  1  0
 21 55  1  0
 22 56  1  0
 23 57  1  0
 26 58  1  0
 26 59  1  0
 26 60  1  0
 27 61  1  0
 27 62  1  0
 27 63  1  0
 28 64  1  0
 28 65  1  0
 28 66  1  0
M  CHG  2   3   1  30  -1
M  END
>  <UniqueID>  (14) 
13

>  <SMILES>  (14) 
CC[NH+](CC)Cc1cc(N(C)Cc2ccc(S(C)(=O)=O)cc2)cc(C(C)(C)C)c1[O-]

>  <Energy>  (14) 
71.34023590036952

>  <Genealogy>  (14) 
CC[NH+](CC)Cc1cc(N(C)Cc2ccc(S(C)(=O)=O)cc2)cc(C(C)(C)C)c1[O-] (protonated)
CC[NH+](CC)Cc1cc(N(C)Cc2ccc(S(C)(=O)=O)cc2)cc(C(C)(C)C)c1[O-] (3D coordinates assigned)
CC[NH+](CC)Cc1cc(N(C)Cc2ccc(S(C)(=O)=O)cc2)cc(C(C)(C)C)c1[O-] (optimized conformer: 71.34023590036952 kcal/mol)

>  <smiles>  (14) 
CCN(CC)Cc1cc(N(C)Cc2ccc(S(C)(=O)=O)cc2)cc(C(C)(C)C)c1O

>  <score_type>  (14) 
oracle

>  <origin>  (14) 
adgpu

>  <m_score__min__energy>  (14) 
-9.6199999999999992

>  <m_primary>  (14) 
energy

$$$$
14:0
     RDKit          3D

 43 45  0  0  1  0  0  0  0  0999 V2000
   -2.1550   17.9730  -34.1470 C   0  0  0  0  0  0  0  0  0  0  0  0
   -2.8060   16.8380  -34.7030 O   0  0  0  0  0  0  0  0  0  0  0  0
   -4.1100   16.5260  -34.3700 C   0  0  0  0  0  0  0  0  0  0  0  0
   -4.6360   15.2680  -34.5620 C   0  0  0  0  0  0  0  0  0  0  0  0
   -5.9430   15.0600  -34.1980 C   0  0  0  0  0  0  0  0  0  0  0  0
   -6.7190   16.0740  -33.6560 C   0  0  0  0  0  0  0  0  0  0  0  0
   -6.2100   17.3400  -33.4570 C   0  0  0  0  0  0  0  0  0  0  0  0
   -6.9930   18.4370  -32.8880 C   0  0  0  0  0  0  0  0  0  0  0  0
   -6.4990   19.6720  -32.9860 N   0  0  0  0  0  0  0  0  0  0  0  0
   -7.1880   20.7310  -32.4730 C   0  0  0  0  0  0  0  0  0  0  0  0
   -6.6140   21.8660  -32.6250 N   0  0  0  0  0  0  0  0  0  0  0  0
   -7.2410   23.0470  -32.1300 C   0  0  0  0  0  0  0  0  0  0  0  0
   -6.0460   23.6370  -31.3780 C   0  0  0  0  0  0  0  0  0  0  0  0
   -6.0870   24.9060  -30.8550 C   0  0  0  0  0  0  0  0  0  0  0  0
   -5.0070   25.4340  -30.1870 C   0  0  0  0  0  0  0  0  0  0  0  0
   -3.8820   24.6600  -30.0530 C   0  0  0  0  0  0  0  0  0  0  0  0
   -2.7890   25.1750  -29.3840 O   0  0  0  0  0  0  0  0  0  0  0  0
   -3.7840   23.3890  -30.5550 C   0  0  0  0  0  0  0  0  0  0  0  0
   -4.8880   22.8930  -31.2200 C   0  0  0  0  0  0  0  0  0  0  0  0
   -8.4070   20.5730  -31.8400 C   0  0  0  0  0  0  0  0  0  0  0  0
   -9.1530   21.6990  -31.2740 C   0  0  0  0  0  0  0  0  0  0  0  0
   -8.8620   19.2440  -31.7770 C   0  0  0  0  0  0  0  0  0  0  0  0
   -8.1620   18.2220  -32.2910 N   0  0  0  0  0  0  0  0  0  0  0  0
   -4.8860   17.5310  -33.8310 C   0  0  0  0  0  0  0  0  0  0  0  0
   -2.1889   17.9139  -33.0491 H   0  0  0  0  0  0  0  0  0  0  0  0
   -1.1071   17.9948  -34.4808 H   0  0  0  0  0  0  0  0  0  0  0  0
   -2.6653   18.8885  -34.4808 H   0  0  0  0  0  0  0  0  0  0  0  0
   -4.0295   14.4575  -34.9924 H   0  0  0  0  0  0  0  0  0  0  0  0
   -6.3865   14.0634  -34.3398 H   0  0  0  0  0  0  0  0  0  0  0  0
   -7.7626   15.8637  -33.3790 H   0  0  0  0  0  0  0  0  0  0  0  0
   -7.5863   23.7046  -32.9414 H   0  0  0  0  0  0  0  0  0  0  0  0
   -8.1522   22.8912  -31.5338 H   0  0  0  0  0  0  0  0  0  0  0  0
   -6.9987   25.5102  -30.9723 H   0  0  0  0  0  0  0  0  0  0  0  0
   -5.0442   26.4514  -29.7705 H   0  0  0  0  0  0  0  0  0  0  0  0
   -2.0390   25.6720  -29.8220 H   0  0  0  0  0  0  0  0  0  0  0  0
   -2.8685   22.7914  -30.4340 H   0  0  0  0  0  0  0  0  0  0  0  0
   -4.8467   21.8760  -31.6371 H   0  0  0  0  0  0  0  0  0  0  0  0
   -9.1184   21.6468  -30.1758 H   0  0  0  0  0  0  0  0  0  0  0  0
   -8.7017   22.6440  -31.6105 H   0  0  0  0  0  0  0  0  0  0  0  0
  -10.1992   21.6519  -31.6105 H   0  0  0  0  0  0  0  0  0  0  0  0
   -9.8256   19.0353  -31.2892 H   0  0  0  0  0  0  0  0  0  0  0  0
   -8.5860   17.2730  -32.1930 H   0  0  0  0  0  0  0  0  0  0  0  0
   -4.4374   18.5256  -33.6915 H   0  0  0  0  0  0  0  0  0  0  0  0
  1  2  1  0
  2  3  1  0
  3  4  2  0
  4  5  1  0
  5  6  2  0
  6  7  1  0
  7  8  1  0
  8  9  2  0
  9 10  1  0
 10 11  2  0
 11 12  1  0
 12 13  1  0
 13 14  2  0
 14 15  1  0
 15 16  2  0
 16 17  1  0
 16 18  1  0
 18 19  2  0
 10 20  1  0
 20 21  1  0
 20 22  2  0
 22 23  1  0
  7 24  2  0
 24  3  1  0
 23  8  1  0
 19 13  1  0
  1 25  1  0
  1 26  1  0
  1 27  1  0
  4 28  1  0
  5 29  1  0
  6 30  1  0
 12 31  1  0
 12 32  1  0
 14 33  1  0
 15 34  1  0
 17 35  1  0
 18 36  1  0
 19 37  1  0
 21 38  1  0
 21 39  1  0
 21 40  1  0
 22 41  1  0
 23 42  1  0
 24 43  1  0
M  END
>  <smiles>  (15) 
COc1cccc(-c2nc(=NCc3ccc(O)cc3)c(C)c[nH]2)c1

>  <score_type>  (15) 
oracle

>  <origin>  (15) 
adgpu

>  <m_score__min__energy>  (15) 
-8.9199999999999999

>  <m_primary>  (15) 
energy

$$$$
15:0
     RDKit          3D

 29 31  0  0  0  0  0  0  0  0999 V2000
   -4.9860   25.5500  -31.5680 H   0  0  0  0  0  0  0  0  0  0  0  0
   -4.2420   25.6700  -30.8480 N   0  0  0  0  0  0  0  0  0  0  0  0
   -3.7310   24.6850  -30.1790 C   0  0  0  0  0  0  0  0  0  0  0  0
   -2.7280   24.8750  -29.2870 N   0  0  0  0  0  0  0  0  0  0  0  0
   -2.4520   23.6230  -28.8810 C   0  0  0  0  0  0  0  0  0  0  0  0
   -1.4690   23.2290  -27.9760 C   0  0  0  0  0  0  0  0  0  0  0  0
   -0.8304   23.9699  -27.4728 H   0  0  0  0  0  0  0  0  0  0  0  0
   -1.3200   21.8540  -27.7270 C   0  0  0  0  0  0  0  0  0  0  0  0
   -0.5589   21.5073  -27.0126 H   0  0  0  0  0  0  0  0  0  0  0  0
   -2.1410   20.9150  -28.3880 C   0  0  0  0  0  0  0  0  0  0  0  0
   -2.0108   19.8409  -28.1897 H   0  0  0  0  0  0  0  0  0  0  0  0
   -3.1250   21.3430  -29.2990 C   0  0  0  0  0  0  0  0  0  0  0  0
   -3.7649   20.6198  -29.8258 H   0  0  0  0  0  0  0  0  0  0  0  0
   -3.2620   22.7180  -29.5120 C   0  0  0  0  0  0  0  0  0  0  0  0
   -4.0990   23.3830  -30.3320 N   0  0  0  0  0  0  0  0  0  0  0  0
   -5.3450   22.7270  -31.3620 S   0  0  0  0  0  0  0  0  0  0  0  0
   -5.8470   23.8100  -32.2760 O   0  0  0  0  0  0  0  0  0  0  0  0
   -6.4990   22.2480  -30.5280 O   0  0  0  0  0  0  0  0  0  0  0  0
   -4.7160   21.3800  -32.3190 C   0  0  0  0  0  0  0  0  0  0  0  0
   -3.3370   21.3020  -32.5760 C   0  0  0  0  0  0  0  0  0  0  0  0
   -2.6632   22.0770  -32.1818 H   0  0  0  0  0  0  0  0  0  0  0  0
   -2.8160   20.2480  -33.3280 C   0  0  0  0  0  0  0  0  0  0  0  0
   -1.7351   20.1969  -33.5258 H   0  0  0  0  0  0  0  0  0  0  0  0
   -3.6620   19.2600  -33.8290 C   0  0  0  0  0  0  0  0  0  0  0  0
   -3.2464   18.4333  -34.4238 H   0  0  0  0  0  0  0  0  0  0  0  0
   -5.0360   19.3150  -33.5790 C   0  0  0  0  0  0  0  0  0  0  0  0
   -6.0610   18.0420  -34.2270 Cl  0  0  0  0  0  0  0  0  0  0  0  0
   -5.5730   20.3740  -32.8210 C   0  0  0  0  0  0  0  0  0  0  0  0
   -7.3100   20.4220  -32.5040 Cl  0  0  0  0  0  0  0  0  0  0  0  0
  1  2  1  0
  2  3  2  0
  3  4  1  0
  4  5  1  0
  5  6  2  0
  6  7  1  0
  6  8  1  0
  8  9  1  0
  8 10  2  0
 10 11  1  0
 10 12  1  0
 12 13  1  0
 12 14  2  0
 14 15  1  0
 15 16  1  0
 16 17  2  0
 16 18  2  0
 16 19  1  0
 19 20  2  0
 20 21  1  0
 20 22  1  0
 22 23  1  0
 22 24  2  0
 24 25  1  0
 24 26  1  0
 26 27  1  0
 26 28  2  0
 28 29  1  0
 15  3  1  0
 28 19  1  0
 14  5  1  0
M  CHG  1   4  -1
M  END
>  <UniqueID>  (16) 
14

>  <SMILES>  (16) 
[H]/N=c1/[n-]c2ccccc2n1S(=O)(=O)c1cccc(Cl)c1Cl

>  <Energy>  (16) 
77.44676013494272

>  <Genealogy>  (16) 
N=c1[n-]c2ccccc2n1S(=O)(=O)c1cccc(Cl)c1Cl (protonated)
[H]/N=c1/[n-]c2ccccc2n1S(=O)(=O)c1cccc(Cl)c1Cl (cis-trans isomerization)
[H]/N=c1/[n-]c2ccccc2n1S(=O)(=O)c1cccc(Cl)c1Cl (3D coordinates assigned)
[H]/N=c1/[n-]c2ccccc2n1S(=O)(=O)c1cccc(Cl)c1Cl (optimized conformer: 77.44676013494272 kcal/mol)

>  <smiles>  (16) 
N=c1[nH]c2ccccc2n1S(=O)(=O)c1cccc(Cl)c1Cl

>  <score_type>  (16) 
oracle

>  <origin>  (16) 
adgpu

>  <m_score__min__energy>  (16) 
-9.5500000000000007

>  <m_primary>  (16) 
energy

$$$$
16:0
     RDKit          3D

 42 44  0  0  0  0  0  0  0  0999 V2000
   -9.5140   21.4370  -32.3340 C   0  0  0  0  0  0  0  0  0  0  0  0
   -8.4360   22.1750  -31.5970 C   0  0  0  0  0  0  0  0  0  0  0  0
   -8.2690   21.9880  -30.2160 C   0  0  0  0  0  0  0  0  0  0  0  0
   -7.2410   22.6470  -29.5350 C   0  0  0  0  0  0  0  0  0  0  0  0
   -6.3700   23.5040  -30.2260 C   0  0  0  0  0  0  0  0  0  0  0  0
   -5.3010   24.1830  -29.5570 N   0  0  0  0  0  0  0  0  0  0  0  0
   -3.9960   24.4390  -30.0910 C   0  0  0  0  0  0  0  0  0  0  0  0
   -3.8570   25.4200  -30.8700 O   0  0  0  0  0  0  0  0  0  0  0  0
   -2.8010   23.5470  -29.7760 C   0  0  2  0  0  0  0  0  0  0  0  0
   -3.1250   22.0320  -29.7580 C   0  0  0  0  0  0  0  0  0  0  0  0
   -3.7020   21.5070  -31.0500 C   0  0  0  0  0  0  0  0  0  0  0  0
   -4.6800   20.4990  -31.0380 C   0  0  0  0  0  0  0  0  0  0  0  0
   -5.2040   20.0100  -32.2400 C   0  0  0  0  0  0  0  0  0  0  0  0
   -4.7600   20.5270  -33.4600 C   0  0  0  0  0  0  0  0  0  0  0  0
   -3.7960   21.5380  -33.4810 C   0  0  0  0  0  0  0  0  0  0  0  0
   -3.2700   22.0290  -32.2830 C   0  0  0  0  0  0  0  0  0  0  0  0
   -2.1130   23.9470  -28.5320 N   0  0  0  0  0  0  0  0  0  0  0  0
   -1.9630   23.2510  -27.3800 C   0  0  0  0  0  0  0  0  0  0  0  0
   -2.5180   21.9990  -27.1380 O   0  0  0  0  0  0  0  0  0  0  0  0
   -1.1740   23.9370  -26.4810 C   0  0  0  0  0  0  0  0  0  0  0  0
   -0.8030   25.1090  -27.1110 C   0  0  0  0  0  0  0  0  0  0  0  0
   -1.3870   25.0720  -28.3600 C   0  0  0  0  0  0  0  0  0  0  0  0
   -1.2390   26.0590  -29.3280 O   0  0  0  0  0  0  0  0  0  0  0  0
   -6.5070   23.6510  -31.6120 C   0  0  0  0  0  0  0  0  0  0  0  0
   -7.5350   22.9940  -32.2940 C   0  0  0  0  0  0  0  0  0  0  0  0
  -10.1980   20.9687  -31.6109 H   0  0  0  0  0  0  0  0  0  0  0  0
  -10.0746   22.1416  -32.9658 H   0  0  0  0  0  0  0  0  0  0  0  0
   -9.0599   20.6594  -32.9658 H   0  0  0  0  0  0  0  0  0  0  0  0
   -8.9496   21.3204  -29.6673 H   0  0  0  0  0  0  0  0  0  0  0  0
   -7.1142   22.4933  -28.4532 H   0  0  0  0  0  0  0  0  0  0  0  0
   -2.1135   23.7057  -30.6199 H   0  0  0  0  0  0  0  0  0  0  0  0
   -2.1954   21.4830  -29.5472 H   0  0  0  0  0  0  0  0  0  0  0  0
   -3.8932   21.8824  -28.9851 H   0  0  0  0  0  0  0  0  0  0  0  0
   -5.0356   20.0922  -30.0798 H   0  0  0  0  0  0  0  0  0  0  0  0
   -5.9666   19.2174  -32.2244 H   0  0  0  0  0  0  0  0  0  0  0  0
   -5.1695   20.1379  -34.4039 H   0  0  0  0  0  0  0  0  0  0  0  0
   -3.4507   21.9480  -34.4415 H   0  0  0  0  0  0  0  0  0  0  0  0
   -2.5141   22.8279  -32.3042 H   0  0  0  0  0  0  0  0  0  0  0  0
   -0.8960   23.6157  -25.4664 H   0  0  0  0  0  0  0  0  0  0  0  0
   -0.1702   25.9094  -26.7000 H   0  0  0  0  0  0  0  0  0  0  0  0
   -5.8017   24.2870  -32.1669 H   0  0  0  0  0  0  0  0  0  0  0  0
   -7.6381   23.1196  -33.3819 H   0  0  0  0  0  0  0  0  0  0  0  0
  1  2  1  0
  2  3  2  0
  3  4  1  0
  4  5  2  0
  5  6  1  0
  6  7  1  0
  7  8  2  0
  7  9  1  0
  9 10  1  0
 10 11  1  0
 11 12  2  0
 12 13  1  0
 13 14  2  0
 14 15  1  0
 15 16  2  0
  9 17  1  0
 17 18  1  0
 18 19  1  0
 18 20  2  0
 20 21  1  0
 21 22  2  0
 22 23  1  0
  5 24  1  0
 24 25  2  0
 25  2  1  0
 16 11  1  0
 22 17  1  0
  1 26  1  0
  1 27  1  0
  1 28  1  0
  3 29  1  0
  4 30  1  0
  9 31  1  6
 10 32  1  0
 10 33  1  0
 12 34  1  0
 13 35  1  0
 14 36  1  0
 15 37  1  0
 16 38  1  0
 20 39  1  0
 21 40  1  0
 24 41  1  0
 25 42  1  0
M  CHG  3   6  -1  19  -1  23  -1
M  END
>  <UniqueID>  (17) 
15

>  <SMILES>  (17) 
Cc1ccc([N-]C(=O)[C@H](Cc2ccccc2)n2c([O-])ccc2[O-])cc1

>  <Energy>  (17) 
78.88292607662218

>  <Genealogy>  (17) 
Cc1ccc([N-]C(=O)C(Cc2ccccc2)n2c([O-])ccc2[O-])cc1 (protonated)
Cc1ccc([N-]C(=O)[C@H](Cc2ccccc2)n2c([O-])ccc2[O-])cc1 (chirality)
Cc1ccc([N-]C(=O)[C@H](Cc2ccccc2)n2c([O-])ccc2[O-])cc1 (3D coordinates assigned)
Cc1ccc([N-]C(=O)[C@H](Cc2ccccc2)n2c([O-])ccc2[O-])cc1 (optimized conformer: 78.88292607662218 kcal/mol)

>  <smiles>  (17) 
Cc1ccc(NC(=O)C(Cc2ccccc2)n2c(O)ccc2O)cc1

>  <score_type>  (17) 
oracle

>  <origin>  (17) 
adgpu

>  <m_score__min__energy>  (17) 
-11.43

>  <m_primary>  (17) 
energy

$$$$
17:0
     RDKit          3D

 50 52  0  0  0  0  0  0  0  0999 V2000
   -2.1470   17.5120  -34.2130 C   0  0  0  0  0  0  0  0  0  0  0  0
   -2.9860   16.2940  -34.6150 C   0  0  0  0  0  0  0  0  0  0  0  0
   -2.2340   15.3630  -35.5730 C   0  0  0  0  0  0  0  0  0  0  0  0
   -4.3320   16.6360  -35.1130 N   0  0  0  0  0  0  0  0  0  0  0  0
   -5.5920   16.7630  -33.9100 S   0  0  0  0  0  0  0  0  0  0  0  0
   -5.3660   15.7510  -32.8210 O   0  0  0  0  0  0  0  0  0  0  0  0
   -6.9060   16.4440  -34.5670 O   0  0  0  0  0  0  0  0  0  0  0  0
   -5.7100   18.3830  -33.2310 C   0  0  0  0  0  0  0  0  0  0  0  0
   -4.8540   19.3900  -33.6910 C   0  0  0  0  0  0  0  0  0  0  0  0
   -4.9220   20.6760  -33.1480 C   0  0  0  0  0  0  0  0  0  0  0  0
   -5.8540   20.9720  -32.1390 C   0  0  0  0  0  0  0  0  0  0  0  0
   -5.9190   22.3300  -31.5460 C   0  0  0  0  0  0  0  0  0  0  0  0
   -4.7290   23.0240  -31.2590 C   0  0  0  0  0  0  0  0  0  0  0  0
   -4.7690   24.3190  -30.7170 C   0  0  0  0  0  0  0  0  0  0  0  0
   -3.5700   25.0570  -30.4440 N   0  0  0  0  0  0  0  0  0  0  0  0
   -2.5610   24.7050  -29.4870 C   0  0  0  0  0  0  0  0  0  0  0  0
   -2.4670   23.5080  -29.1140 O   0  0  0  0  0  0  0  0  0  0  0  0
   -1.6550   25.6750  -28.9450 N   0  0  0  0  0  0  0  0  0  0  0  0
   -1.3480   25.8690  -27.5570 C   0  0  0  0  0  0  0  0  0  0  0  0
   -1.5580   24.8060  -26.6710 C   0  0  0  0  0  0  0  0  0  0  0  0
   -1.2960   24.9600  -25.3060 C   0  0  0  0  0  0  0  0  0  0  0  0
   -0.7980   26.1700  -24.8220 C   0  0  0  0  0  0  0  0  0  0  0  0
   -0.5440   27.2250  -25.7040 C   0  0  0  0  0  0  0  0  0  0  0  0
   -0.8060   27.0770  -27.0710 C   0  0  0  0  0  0  0  0  0  0  0  0
   -0.4910   28.0920  -27.9120 F   0  0  0  0  0  0  0  0  0  0  0  0
   -6.0040   24.9320  -30.4900 C   0  0  0  0  0  0  0  0  0  0  0  0
   -7.1900   24.2480  -30.7550 C   0  0  0  0  0  0  0  0  0  0  0  0
   -7.1590   22.9470  -31.2750 C   0  0  0  0  0  0  0  0  0  0  0  0
   -8.3520   22.2630  -31.5070 O   0  0  0  0  0  0  0  0  0  0  0  0
   -6.7100   19.9570  -31.6790 C   0  0  0  0  0  0  0  0  0  0  0  0
   -6.6420   18.6720  -32.2240 C   0  0  0  0  0  0  0  0  0  0  0  0
   -2.1006   17.5794  -33.1160 H   0  0  0  0  0  0  0  0  0  0  0  0
   -1.1295   17.4059  -34.6172 H   0  0  0  0  0  0  0  0  0  0  0  0
   -2.6088   18.4249  -34.6172 H   0  0  0  0  0  0  0  0  0  0  0  0
   -3.1534   15.7355  -33.6822 H   0  0  0  0  0  0  0  0  0  0  0  0
   -1.6469   14.6361  -34.9925 H   0  0  0  0  0  0  0  0  0  0  0  0
   -2.9564   14.8281  -36.2070 H   0  0  0  0  0  0  0  0  0  0  0  0
   -1.5591   15.9568  -36.2070 H   0  0  0  0  0  0  0  0  0  0  0  0
   -4.1242   19.1683  -34.4837 H   0  0  0  0  0  0  0  0  0  0  0  0
   -4.2424   21.4605  -33.5124 H   0  0  0  0  0  0  0  0  0  0  0  0
   -3.7583   22.5477  -31.4611 H   0  0  0  0  0  0  0  0  0  0  0  0
   -1.9314   23.8435  -27.0507 H   0  0  0  0  0  0  0  0  0  0  0  0
   -1.4828   24.1262  -24.6132 H   0  0  0  0  0  0  0  0  0  0  0  0
   -0.6051   26.2942  -23.7462 H   0  0  0  0  0  0  0  0  0  0  0  0
   -0.1374   28.1733  -25.3227 H   0  0  0  0  0  0  0  0  0  0  0  0
   -6.0409   25.9599  -30.1001 H   0  0  0  0  0  0  0  0  0  0  0  0
   -8.1567   24.7331  -30.5545 H   0  0  0  0  0  0  0  0  0  0  0  0
   -8.6620   21.5140  -30.8990 H   0  0  0  0  0  0  0  0  0  0  0  0
   -7.4386   20.1754  -30.8844 H   0  0  0  0  0  0  0  0  0  0  0  0
   -7.3209   17.8857  -31.8623 H   0  0  0  0  0  0  0  0  0  0  0  0
  1  2  1  0
  2  3  1  0
  2  4  1  0
  4  5  1  0
  5  6  2  0
  5  7  2  0
  5  8  1  0
  8  9  2  0
  9 10  1  0
 10 11  2  0
 11 12  1  0
 12 13  2  0
 13 14  1  0
 14 15  1  0
 15 16  1  0
 16 17  2  0
 16 18  1  0
 18 19  1  0
 19 20  2  0
 20 21  1  0
 21 22  2  0
 22 23  1  0
 23 24  2  0
 24 25  1  0
 14 26  2  0
 26 27  1  0
 27 28  2  0
 28 29  1  0
 11 30  1  0
 30 31  2  0
 31  8  1  0
 28 12  1  0
 24 19  1  0
  1 32  1  0
  1 33  1  0
  1 34  1  0
  2 35  1  0
  3 36  1  0
  3 37  1  0
  3 38  1  0
  9 39  1  0
 10 40  1  0
 13 41  1  0
 20 42  1  0
 21 43  1  0
 22 44  1  0
 23 45  1  0
 26 46  1  0
 27 47  1  0
 29 48  1  0
 30 49  1  0
 31 50  1  0
M  CHG  3   4  -1  15  -1  18  -1
M  END
>  <UniqueID>  (18) 
16

>  <SMILES>  (18) 
CC(C)[N-]S(=O)(=O)c1ccc(-c2cc([N-]C(=O)[N-]c3ccccc3F)ccc2O)cc1

>  <Energy>  (18) 
66.42653098254206

>  <Genealogy>  (18) 
CC(C)[N-]S(=O)(=O)c1ccc(-c2cc([N-]C(=O)[N-]c3ccccc3F)ccc2O)cc1 (protonated)
CC(C)[N-]S(=O)(=O)c1ccc(-c2cc([N-]C(=O)[N-]c3ccccc3F)ccc2O)cc1 (3D coordinates assigned)
CC(C)[N-]S(=O)(=O)c1ccc(-c2cc([N-]C(=O)[N-]c3ccccc3F)ccc2O)cc1 (optimized conformer: 66.42653098254206 kcal/mol)

>  <smiles>  (18) 
CC(C)NS(=O)(=O)c1ccc(-c2cc(NC(=O)Nc3ccccc3F)ccc2O)cc1

>  <score_type>  (18) 
oracle

>  <origin>  (18) 
adgpu

>  <m_score__min__energy>  (18) 
-11.93

>  <m_primary>  (18) 
energy

$$$$
18:0
     RDKit          3D

 48 51  0  0  0  0  0  0  0  0999 V2000
   -1.3033   25.6959  -29.3933 H   0  0  0  0  0  0  0  0  0  0  0  0
   -1.8840   24.9240  -28.8670 C   0  0  0  0  0  0  0  0  0  0  0  0
   -1.9700   24.9860  -27.5310 C   0  0  0  0  0  0  0  0  0  0  0  0
   -2.5564   24.2114  -27.0151 H   0  0  0  0  0  0  0  0  0  0  0  0
   -1.3230   26.0350  -26.7050 C   0  0  0  0  0  0  0  0  0  0  0  0
   -1.5210   26.1410  -25.3150 C   0  0  0  0  0  0  0  0  0  0  0  0
   -2.1737   25.4211  -24.7996 H   0  0  0  0  0  0  0  0  0  0  0  0
   -0.8930   27.1560  -24.5850 C   0  0  0  0  0  0  0  0  0  0  0  0
   -1.0520   27.2242  -23.4987 H   0  0  0  0  0  0  0  0  0  0  0  0
   -0.0620   28.0880  -25.2260 C   0  0  0  0  0  0  0  0  0  0  0  0
    0.6040   29.1620  -24.4560 C   0  0  0  0  0  0  0  0  0  0  0  0
    1.6320   28.9160  -23.7700 O   0  0  0  0  0  0  0  0  0  0  0  0
    0.1050   30.4600  -24.4790 O   0  0  0  0  0  0  0  0  0  0  0  0
    0.1240   27.9910  -26.6150 C   0  0  0  0  0  0  0  0  0  0  0  0
    0.7688   28.7172  -27.1316 H   0  0  0  0  0  0  0  0  0  0  0  0
   -0.5040   26.9790  -27.3450 C   0  0  0  0  0  0  0  0  0  0  0  0
   -0.3552   26.9210  -28.4333 H   0  0  0  0  0  0  0  0  0  0  0  0
   -2.5340   23.8660  -29.6620 C   0  0  0  0  0  0  0  0  0  0  0  0
   -1.8360   23.0560  -30.4810 N   0  0  0  0  0  0  0  0  0  0  0  0
   -2.6870   22.2330  -31.0740 N   0  0  0  0  0  0  0  0  0  0  0  0
   -2.2680   21.1770  -31.9550 C   0  0  0  0  0  0  0  0  0  0  0  0
   -2.6760   21.1850  -33.3000 C   0  0  0  0  0  0  0  0  0  0  0  0
   -3.3098   22.0026  -33.6741 H   0  0  0  0  0  0  0  0  0  0  0  0
   -2.2820   20.1620  -34.1640 C   0  0  0  0  0  0  0  0  0  0  0  0
   -2.6020   20.1786  -35.2163 H   0  0  0  0  0  0  0  0  0  0  0  0
   -1.4820   19.1170  -33.6950 C   0  0  0  0  0  0  0  0  0  0  0  0
   -0.9850   17.8340  -34.7830 Cl  0  0  0  0  0  0  0  0  0  0  0  0
   -1.0750   19.0970  -32.3580 C   0  0  0  0  0  0  0  0  0  0  0  0
   -0.4448   18.2738  -31.9904 H   0  0  0  0  0  0  0  0  0  0  0  0
   -1.4650   20.1190  -31.4840 C   0  0  0  0  0  0  0  0  0  0  0  0
   -0.8850   20.0760  -29.8240 Cl  0  0  0  0  0  0  0  0  0  0  0  0
   -3.9450   22.4980  -30.6500 C   0  0  0  0  0  0  0  0  0  0  0  0
   -5.1690   21.8230  -31.1350 C   0  0  0  0  0  0  0  0  0  0  0  0
   -6.3260   22.5660  -31.4200 C   0  0  0  0  0  0  0  0  0  0  0  0
   -6.3265   23.6560  -31.2718 H   0  0  0  0  0  0  0  0  0  0  0  0
   -7.4770   21.9280  -31.8910 C   0  0  0  0  0  0  0  0  0  0  0  0
   -8.3788   22.5166  -32.1154 H   0  0  0  0  0  0  0  0  0  0  0  0
   -7.4830   20.5430  -32.0770 C   0  0  0  0  0  0  0  0  0  0  0  0
   -9.0560   19.6720  -32.7210 Br  0  0  0  0  0  0  0  0  0  0  0  0
   -6.3360   19.7940  -31.7930 C   0  0  0  0  0  0  0  0  0  0  0  0
   -6.3412   18.7037  -31.9387 H   0  0  0  0  0  0  0  0  0  0  0  0
   -5.1830   20.4310  -31.3240 C   0  0  0  0  0  0  0  0  0  0  0  0
   -4.2826   19.8394  -31.1020 H   0  0  0  0  0  0  0  0  0  0  0  0
   -3.8890   23.5560  -29.7550 C   0  0  0  0  0  0  0  0  0  0  0  0
   -5.0500   24.2730  -29.1320 C   0  0  0  0  0  0  0  0  0  0  0  0
   -4.9673   24.2219  -28.0363 H   0  0  0  0  0  0  0  0  0  0  0  0
   -5.0451   25.3256  -29.4514 H   0  0  0  0  0  0  0  0  0  0  0  0
   -5.9890   23.7973  -29.4514 H   0  0  0  0  0  0  0  0  0  0  0  0
  1  2  1  0
  2  3  2  0
  3  4  1  0
  3  5  1  0
  5  6  2  0
  6  7  1  0
  6  8  1  0
  8  9  1  0
  8 10  2  0
 10 11  1  0
 11 12  2  0
 11 13  1  0
 10 14  1  0
 14 15  1  0
 14 16  2  0
 16 17  1  0
  2 18  1  0
 18 19  2  0
 19 20  1  0
 20 21  1  0
 21 22  2  0
 22 23  1  0
 22 24  1  0
 24 25  1  0
 24 26  2  0
 26 27  1  0
 26 28  1  0
 28 29  1  0
 28 30  2  0
 30 31  1  0
 20 32  1  0
 32 33  1  0
 33 34  2  0
 34 35  1  0
 34 36  1  0
 36 37  1  0
 36 38  2  0
 38 39  1  0
 38 40  1  0
 40 41  1  0
 40 42  2  0
 42 43  1  0
 32 44  2  0
 44 45  1  0
 45 46  1  0
 45 47  1  0
 45 48  1  0
 16  5  1  0
 44 18  1  0
 30 21  1  0
 42 33  1  0
M  CHG  1  13  -1
M  END
>  <UniqueID>  (19) 
17

>  <SMILES>  (19) 
Cc1c(/C=C/c2ccc(C(=O)[O-])cc2)nn(-c2ccc(Cl)cc2Cl)c1-c1ccc(Br)cc1

>  <Energy>  (19) 
98.900278092521

>  <Genealogy>  (19) 
Cc1c(C=Cc2ccc(C(=O)[O-])cc2)nn(-c2ccc(Cl)cc2Cl)c1-c1ccc(Br)cc1 (protonated)
Cc1c(/C=C/c2ccc(C(=O)[O-])cc2)nn(-c2ccc(Cl)cc2Cl)c1-c1ccc(Br)cc1 (cis-trans isomerization)
Cc1c(/C=C/c2ccc(C(=O)[O-])cc2)nn(-c2ccc(Cl)cc2Cl)c1-c1ccc(Br)cc1 (3D coordinates assigned)
Cc1c(/C=C/c2ccc(C(=O)[O-])cc2)nn(-c2ccc(Cl)cc2Cl)c1-c1ccc(Br)cc1 (optimized conformer: 98.900278092521 kcal/mol)

>  <smiles>  (19) 
Cc1c(C=Cc2ccc(C(=O)O)cc2)nn(-c2ccc(Cl)cc2Cl)c1-c1ccc(Br)cc1

>  <score_type>  (19) 
oracle

>  <origin>  (19) 
adgpu

>  <m_score__min__energy>  (19) 
-8.4199999999999999

>  <m_primary>  (19) 
energy

$$$$
19:0
     RDKit          3D

 43 45  0  0  0  0  0  0  0  0999 V2000
   -8.6280   19.3900  -32.2740 C   0  0  0  0  0  0  0  0  0  0  0  0
   -7.9740   20.6910  -31.9150 C   0  0  0  0  0  0  0  0  0  0  0  0
   -8.4600   21.4540  -30.8430 C   0  0  0  0  0  0  0  0  0  0  0  0
   -7.8740   22.6840  -30.5310 C   0  0  0  0  0  0  0  0  0  0  0  0
   -6.8130   23.1810  -31.3070 C   0  0  0  0  0  0  0  0  0  0  0  0
   -6.1700   24.4230  -30.9930 N   0  0  0  0  0  0  0  0  0  0  0  0
   -4.8110   24.5790  -30.5670 C   0  0  0  0  0  0  0  0  0  0  0  0
   -4.2100   25.6520  -30.8340 O   0  0  0  0  0  0  0  0  0  0  0  0
   -4.1540   23.5520  -29.8050 N   0  0  0  0  0  0  0  0  0  0  0  0
   -2.7750   23.6430  -29.4290 C   0  0  0  0  0  0  0  0  0  0  0  0
   -2.3590   24.7290  -28.6460 C   0  0  0  0  0  0  0  0  0  0  0  0
   -1.0300   24.8350  -28.2320 C   0  0  0  0  0  0  0  0  0  0  0  0
   -0.1010   23.8650  -28.6090 C   0  0  0  0  0  0  0  0  0  0  0  0
   -0.4970   22.7910  -29.4110 C   0  0  0  0  0  0  0  0  0  0  0  0
   -1.8300   22.6720  -29.8370 C   0  0  0  0  0  0  0  0  0  0  0  0
   -2.1910   21.6070  -30.7370 N   0  0  0  0  0  0  0  0  0  0  0  0
   -3.0770   20.5220  -30.3100 C   0  0  0  0  0  0  0  0  0  0  0  0
   -4.1310   20.2800  -31.3950 C   0  0  0  0  0  0  0  0  0  0  0  0
   -3.5210   20.0800  -32.6570 O   0  0  0  0  0  0  0  0  0  0  0  0
   -2.8480   21.2590  -33.0620 C   0  0  0  0  0  0  0  0  0  0  0  0
   -1.6880   21.5730  -32.1120 C   0  0  0  0  0  0  0  0  0  0  0  0
   -6.3220   22.4140  -32.3700 C   0  0  0  0  0  0  0  0  0  0  0  0
   -6.9080   21.1830  -32.6840 C   0  0  0  0  0  0  0  0  0  0  0  0
   -8.8994   18.8501  -31.3548 H   0  0  0  0  0  0  0  0  0  0  0  0
   -9.5346   19.5862  -32.8652 H   0  0  0  0  0  0  0  0  0  0  0  0
   -7.9297   18.7794  -32.8652 H   0  0  0  0  0  0  0  0  0  0  0  0
   -9.3057   21.0829  -30.2455 H   0  0  0  0  0  0  0  0  0  0  0  0
   -8.2450   23.2656  -29.6742 H   0  0  0  0  0  0  0  0  0  0  0  0
   -4.6550   22.6590  -29.6020 H   0  0  0  0  0  0  0  0  0  0  0  0
   -3.0848   25.5029  -28.3559 H   0  0  0  0  0  0  0  0  0  0  0  0
   -0.7150   25.6843  -27.6079 H   0  0  0  0  0  0  0  0  0  0  0  0
    0.9439   23.9455  -28.2748 H   0  0  0  0  0  0  0  0  0  0  0  0
    0.2413   22.0328  -29.7110 H   0  0  0  0  0  0  0  0  0  0  0  0
   -2.4891   19.6051  -30.1564 H   0  0  0  0  0  0  0  0  0  0  0  0
   -3.5720   20.7968  -29.3669 H   0  0  0  0  0  0  0  0  0  0  0  0
   -4.7185   19.3875  -31.1336 H   0  0  0  0  0  0  0  0  0  0  0  0
   -4.7820   21.1646  -31.4558 H   0  0  0  0  0  0  0  0  0  0  0  0
   -2.4539   21.1186  -34.0793 H   0  0  0  0  0  0  0  0  0  0  0  0
   -3.5595   22.0976  -33.0411 H   0  0  0  0  0  0  0  0  0  0  0  0
   -0.9163   20.7944  -32.2029 H   0  0  0  0  0  0  0  0  0  0  0  0
   -1.2503   22.5484  -32.3709 H   0  0  0  0  0  0  0  0  0  0  0  0
   -5.4706   22.7812  -32.9618 H   0  0  0  0  0  0  0  0  0  0  0  0
   -6.5319   20.5986  -33.5367 H   0  0  0  0  0  0  0  0  0  0  0  0
  1  2  1  0
  2  3  2  0
  3  4  1  0
  4  5  2  0
  5  6  1  0
  6  7  1  0
  7  8  2  0
  7  9  1  0
  9 10  1  0
 10 11  2  0
 11 12  1  0
 12 13  2  0
 13 14  1  0
 14 15  2  0
 15 16  1  0
 16 17  1  0
 17 18  1  0
 18 19  1  0
 19 20  1  0
 20 21  1  0
  5 22  1  0
 22 23  2  0
 23  2  1  0
 15 10  1  0
 21 16  1  0
  1 24  1  0
  1 25  1  0
  1 26  1  0
  3 27  1  0
  4 28  1  0
  9 29  1  0
 11 30  1  0
 12 31  1  0
 13 32  1  0
 14 33  1  0
 17 34  1  0
 17 35  1  0
 18 36  1  0
 18 37  1  0
 20 38  1  0
 20 39  1  0
 21 40  1  0
 21 41  1  0
 22 42  1  0
 23 43  1  0
M  CHG  1   6  -1
M  END
>  <UniqueID>  (20) 
18

>  <SMILES>  (20) 
Cc1ccc([N-]C(=O)Nc2ccccc2N2CCOCC2)cc1

>  <Energy>  (20) 
59.30897329446168

>  <Genealogy>  (20) 
Cc1ccc([N-]C(=O)Nc2ccccc2N2CCOCC2)cc1 (protonated)
Cc1ccc([N-]C(=O)Nc2ccccc2N2CCOCC2)cc1 (3D coordinates assigned)
Cc1ccc([N-]C(=O)Nc2ccccc2N2CCOCC2)cc1 (nonaromatic ring conformer: 59.30897329446168 kcal/mol)

>  <smiles>  (20) 
Cc1ccc(NC(=O)Nc2ccccc2N2CCOCC2)cc1

>  <score_type>  (20) 
oracle

>  <origin>  (20) 
adgpu

>  <m_score__min__energy>  (20) 
-8.8900000000000006

>  <m_primary>  (20) 
energy

$$$$
20:0
     RDKit          3D

 38 40  0  0  0  0  0  0  0  0999 V2000
   -4.4540   19.4870  -32.7580 O   0  0  0  0  0  0  0  0  0  0  0  0
   -4.0850   20.6920  -32.7310 C   0  0  0  0  0  0  0  0  0  0  0  0
   -5.0400   21.7470  -32.9000 N   0  0  0  0  0  0  0  0  0  0  0  0
   -6.4400   21.6190  -32.5960 C   0  0  0  0  0  0  0  0  0  0  0  0
   -7.1820   22.7670  -32.2850 C   0  0  0  0  0  0  0  0  0  0  0  0
   -8.5390   22.6680  -31.9730 C   0  0  0  0  0  0  0  0  0  0  0  0
   -9.1620   21.4190  -31.9420 C   0  0  0  0  0  0  0  0  0  0  0  0
   -8.4260   20.2500  -32.2000 C   0  0  0  0  0  0  0  0  0  0  0  0
   -9.1010   18.9020  -32.1950 C   0  0  0  0  0  0  0  0  0  0  0  0
   -8.2450   17.9270  -32.6770 F   0  0  0  0  0  0  0  0  0  0  0  0
  -10.2240   18.9530  -33.0000 F   0  0  0  0  0  0  0  0  0  0  0  0
   -9.4820   18.5450  -30.9130 F   0  0  0  0  0  0  0  0  0  0  0  0
   -7.0660   20.3610  -32.5430 C   0  0  0  0  0  0  0  0  0  0  0  0
   -2.6540   21.0030  -32.6360 C   0  0  0  0  0  0  0  0  0  0  0  0
   -1.9230   21.0250  -33.7850 N   0  0  0  0  0  0  0  0  0  0  0  0
   -0.5850   21.2570  -33.7870 C   0  0  0  0  0  0  0  0  0  0  0  0
    0.0890   21.4570  -32.5840 C   0  0  0  0  0  0  0  0  0  0  0  0
   -0.6260   21.4170  -31.3880 C   0  0  0  0  0  0  0  0  0  0  0  0
   -2.0120   21.2120  -31.3960 C   0  0  0  0  0  0  0  0  0  0  0  0
   -2.8770   21.0530  -29.8190 S   0  0  0  0  0  0  0  0  0  0  0  0
   -3.7690   22.6080  -29.9540 C   0  0  0  0  0  0  0  0  0  0  0  0
   -5.1190   22.6890  -29.5900 C   0  0  0  0  0  0  0  0  0  0  0  0
   -5.8050   23.8980  -29.7170 C   0  0  0  0  0  0  0  0  0  0  0  0
   -5.1380   25.0100  -30.2350 C   0  0  0  0  0  0  0  0  0  0  0  0
   -3.8390   24.9040  -30.6220 N   0  0  0  0  0  0  0  0  0  0  0  0
   -3.1510   23.7380  -30.5020 C   0  0  0  0  0  0  0  0  0  0  0  0
   -4.7050   22.6280  -33.3510 H   0  0  0  0  0  0  0  0  0  0  0  0
   -6.6919   23.7518  -32.2868 H   0  0  0  0  0  0  0  0  0  0  0  0
   -9.1187   23.5761  -31.7511 H   0  0  0  0  0  0  0  0  0  0  0  0
  -10.2359   21.3495  -31.7142 H   0  0  0  0  0  0  0  0  0  0  0  0
   -6.4866   19.4545  -32.7720 H   0  0  0  0  0  0  0  0  0  0  0  0
   -0.0333   21.2870  -34.7382 H   0  0  0  0  0  0  0  0  0  0  0  0
    1.1729   21.6443  -32.5781 H   0  0  0  0  0  0  0  0  0  0  0  0
   -0.0985   21.5473  -30.4315 H   0  0  0  0  0  0  0  0  0  0  0  0
   -5.6388   21.7997  -29.2040 H   0  0  0  0  0  0  0  0  0  0  0  0
   -6.8593   23.9739  -29.4124 H   0  0  0  0  0  0  0  0  0  0  0  0
   -5.6635   25.9717  -30.3299 H   0  0  0  0  0  0  0  0  0  0  0  0
   -2.1047   23.6822  -30.8368 H   0  0  0  0  0  0  0  0  0  0  0  0
  1  2  2  0
  2  3  1  0
  3  4  1  0
  4  5  2  0
  5  6  1  0
  6  7  2  0
  7  8  1  0
  8  9  1  0
  9 10  1  0
  9 11  1  0
  9 12  1  0
  8 13  2  0
  2 14  1  0
 14 15  2  0
 15 16  1  0
 16 17  2  0
 17 18  1  0
 18 19  2  0
 19 20  1  0
 20 21  1  0
 21 22  2  0
 22 23  1  0
 23 24  2  0
 24 25  1  0
 25 26  2  0
 13  4  1  0
 19 14  1  0
 26 21  1  0
  3 27  1  0
  5 28  1  0
  6 29  1  0
  7 30  1  0
 13 31  1  0
 16 32  1  0
 17 33  1  0
 18 34  1  0
 22 35  1  0
 23 36  1  0
 24 37  1  0
 26 38  1  0
M  END
>  <UniqueID>  (21) 
19

>  <SMILES>  (21) 
O=C(Nc1cccc(C(F)(F)F)c1)c1ncccc1Sc1cccnc1

>  <Energy>  (21) 
49.56857090690196

>  <Genealogy>  (21) 
O=C(Nc1cccc(C(F)(F)F)c1)c1ncccc1Sc1cccnc1 (3D coordinates assigned)
O=C(Nc1cccc(C(F)(F)F)c1)c1ncccc1Sc1cccnc1 (optimized conformer: 49.56857090690196 kcal/mol)

>  <smiles>  (21) 
O=C(Nc1cccc(C(F)(F)F)c1)c1ncccc1Sc1cccnc1

>  <score_type>  (21) 
oracle

>  <origin>  (21) 
adgpu

>  <m_score__min__energy>  (21) 
-7.8099999999999996

>  <m_primary>  (21) 
energy

$$$$
21:0
     RDKit          3D

 62 66  0  0  0  0  0  0  0  0999 V2000
    3.8800   12.9780  -33.4700 C   0  0  0  0  0  0  0  0  0  0  0  0
    4.9410   13.6520  -34.2340 N   0  0  0  0  0  0  0  0  0  0  0  0
    4.8120   13.3750  -35.6720 C   0  0  0  0  0  0  0  0  0  0  0  0
    5.0280   15.1010  -33.9360 C   0  0  0  0  0  0  0  0  0  0  0  0
    3.6830   15.7670  -33.7300 C   0  0  0  0  0  0  0  0  0  0  0  0
    2.8340   16.0090  -34.8220 C   0  0  0  0  0  0  0  0  0  0  0  0
    1.5910   16.6200  -34.6310 C   0  0  0  0  0  0  0  0  0  0  0  0
    1.1850   17.0170  -33.3460 C   0  0  0  0  0  0  0  0  0  0  0  0
   -0.1000   17.6210  -33.1170 N   0  0  0  0  0  0  0  0  0  0  0  0
   -0.3730   19.0230  -33.3080 C   0  0  0  0  0  0  0  0  0  0  0  0
    0.5650   19.8120  -33.6060 O   0  0  0  0  0  0  0  0  0  0  0  0
   -1.7440   19.5670  -33.1530 C   0  0  0  0  0  0  0  0  0  0  0  0
   -2.7870   19.2030  -34.0190 C   0  0  0  0  0  0  0  0  0  0  0  0
   -4.0330   19.7090  -33.8390 N   0  0  0  0  0  0  0  0  0  0  0  0
   -4.3310   20.5830  -32.8410 C   0  0  0  0  0  0  0  0  0  0  0  0
   -5.6890   21.0250  -32.6830 N   0  0  0  0  0  0  0  0  0  0  0  0
   -6.0600   22.4120  -32.3840 C   0  0  0  0  0  0  0  0  0  0  0  0
   -7.5140   22.3660  -31.8550 C   0  0  0  0  0  0  0  0  0  0  0  0
   -7.8330   20.9130  -31.8510 C   0  0  0  0  0  0  0  0  0  0  0  0
   -9.0170   20.2920  -31.4510 C   0  0  0  0  0  0  0  0  0  0  0  0
   -9.1040   18.8930  -31.5440 C   0  0  0  0  0  0  0  0  0  0  0  0
   -8.0150   18.1460  -32.0340 C   0  0  0  0  0  0  0  0  0  0  0  0
   -6.8350   18.7940  -32.4310 C   0  0  0  0  0  0  0  0  0  0  0  0
   -6.7720   20.1880  -32.3190 C   0  0  0  0  0  0  0  0  0  0  0  0
   -3.3180   20.9900  -31.9480 C   0  0  0  0  0  0  0  0  0  0  0  0
   -3.5640   21.9960  -30.8890 C   0  0  0  0  0  0  0  0  0  0  0  0
   -3.5920   23.3680  -31.2020 C   0  0  0  0  0  0  0  0  0  0  0  0
   -3.8290   24.3150  -30.2010 C   0  0  0  0  0  0  0  0  0  0  0  0
   -3.8640   25.6670  -30.5180 O   0  0  0  0  0  0  0  0  0  0  0  0
   -4.0330   23.9020  -28.8800 C   0  0  0  0  0  0  0  0  0  0  0  0
   -3.9940   22.5430  -28.5590 C   0  0  0  0  0  0  0  0  0  0  0  0
   -4.1880   22.1440  -27.2780 F   0  0  0  0  0  0  0  0  0  0  0  0
   -3.7580   21.5920  -29.5570 C   0  0  0  0  0  0  0  0  0  0  0  0
   -2.0300   20.4590  -32.1070 C   0  0  0  0  0  0  0  0  0  0  0  0
    2.0270   16.7610  -32.2550 C   0  0  0  0  0  0  0  0  0  0  0  0
    3.2700   16.1520  -32.4450 C   0  0  0  0  0  0  0  0  0  0  0  0
    4.0702   13.0988  -32.3933 H   0  0  0  0  0  0  0  0  0  0  0  0
    2.9066   13.4237  -33.7227 H   0  0  0  0  0  0  0  0  0  0  0  0
    3.8698   11.9075  -33.7227 H   0  0  0  0  0  0  0  0  0  0  0  0
    4.3516   12.3863  -35.8151 H   0  0  0  0  0  0  0  0  0  0  0  0
    4.1798   14.1449  -36.1384 H   0  0  0  0  0  0  0  0  0  0  0  0
    5.8081   13.3865  -36.1384 H   0  0  0  0  0  0  0  0  0  0  0  0
    5.6229   15.2311  -33.0199 H   0  0  0  0  0  0  0  0  0  0  0  0
    5.4907   15.5799  -34.8115 H   0  0  0  0  0  0  0  0  0  0  0  0
    3.1489   15.7159  -35.8344 H   0  0  0  0  0  0  0  0  0  0  0  0
    0.9274   16.7908  -35.4915 H   0  0  0  0  0  0  0  0  0  0  0  0
   -0.8500   17.0010  -32.7430 H   0  0  0  0  0  0  0  0  0  0  0  0
   -2.5935   18.5049  -34.8467 H   0  0  0  0  0  0  0  0  0  0  0  0
   -5.3890   22.8297  -31.6190 H   0  0  0  0  0  0  0  0  0  0  0  0
   -5.9783   23.0499  -33.2764 H   0  0  0  0  0  0  0  0  0  0  0  0
   -7.5772   22.7858  -30.8402 H   0  0  0  0  0  0  0  0  0  0  0  0
   -8.2122   22.9575  -32.4654 H   0  0  0  0  0  0  0  0  0  0  0  0
   -9.8627   20.8844  -31.0716 H   0  0  0  0  0  0  0  0  0  0  0  0
  -10.0256   18.3792  -31.2331 H   0  0  0  0  0  0  0  0  0  0  0  0
   -8.0896   17.0509  -32.1058 H   0  0  0  0  0  0  0  0  0  0  0  0
   -5.9808   18.2207  -32.8205 H   0  0  0  0  0  0  0  0  0  0  0  0
   -3.4267   23.6966  -32.2387 H   0  0  0  0  0  0  0  0  0  0  0  0
   -4.2241   24.6475  -28.0940 H   0  0  0  0  0  0  0  0  0  0  0  0
   -3.7241   20.5234  -29.2983 H   0  0  0  0  0  0  0  0  0  0  0  0
   -1.2339   20.7447  -31.4037 H   0  0  0  0  0  0  0  0  0  0  0  0
    1.7065   17.0419  -31.2409 H   0  0  0  0  0  0  0  0  0  0  0  0
    3.9288   15.9732  -31.5825 H   0  0  0  0  0  0  0  0  0  0  0  0
  1  2  1  0
  2  3  1  0
  2  4  1  0
  4  5  1  0
  5  6  2  0
  6  7  1  0
  7  8  2  0
  8  9  1  0
  9 10  1  0
 10 11  2  0
 10 12  1  0
 12 13  2  0
 13 14  1  0
 14 15  2  0
 15 16  1  0
 16 17  1  0
 17 18  1  0
 18 19  1  0
 19 20  2  0
 20 21  1  0
 21 22  2  0
 22 23  1  0
 23 24  2  0
 15 25  1  0
 25 26  1  0
 26 27  2  0
 27 28  1  0
 28 29  1  0
 28 30  2  0
 30 31  1  0
 31 32  1  0
 31 33  2  0
 25 34  2  0
  8 35  1  0
 35 36  2  0
 36  5  1  0
 34 12  1  0
 24 16  1  0
 33 26  1  0
 24 19  1  0
  1 37  1  0
  1 38  1  0
  1 39  1  0
  3 40  1  0
  3 41  1  0
  3 42  1  0
  4 43  1  0
  4 44  1  0
  6 45  1  0
  7 46  1  0
  9 47  1  0
 13 48  1  0
 17 49  1  0
 17 50  1  0
 18 51  1  0
 18 52  1  0
 20 53  1  0
 21 54  1  0
 22 55  1  0
 23 56  1  0
 27 57  1  0
 30 58  1  0
 33 59  1  0
 34 60  1  0
 35 61  1  0
 36 62  1  0
M  CHG  1  29  -1
M  END
>  <UniqueID>  (22) 
20

>  <SMILES>  (22) 
CN(C)Cc1ccc(NC(=O)c2cnc(N3CCc4ccccc43)c(-c3cc([O-])cc(F)c3)c2)cc1

>  <Energy>  (22) 
102.70650191158693

>  <Genealogy>  (22) 
CN(C)Cc1ccc(NC(=O)c2cnc(N3CCc4ccccc43)c(-c3cc([O-])cc(F)c3)c2)cc1 (protonated)
CN(C)Cc1ccc(NC(=O)c2cnc(N3CCc4ccccc43)c(-c3cc([O-])cc(F)c3)c2)cc1 (3D coordinates assigned)
CN(C)Cc1ccc(NC(=O)c2cnc(N3CCc4ccccc43)c(-c3cc([O-])cc(F)c3)c2)cc1 (nonaromatic ring conformer: 102.70650191158693 kcal/mol)

>  <smiles>  (22) 
CN(C)Cc1ccc(NC(=O)c2cnc(N3CCc4ccccc43)c(-c3cc(O)cc(F)c3)c2)cc1

>  <score_type>  (22) 
oracle

>  <origin>  (22) 
adgpu

>  <m_score__min__energy>  (22) 
-10.42

>  <m_primary>  (22) 
energy

$$$$
22:0
     RDKit          3D

 37 38  0  0  0  0  0  0  0  0999 V2000
   -8.7160   18.8540  -31.2360 C   0  0  0  0  0  0  0  0  0  0  0  0
   -8.3700   20.1160  -32.0550 C   0  0  0  0  0  0  0  0  0  0  0  0
   -9.6760   20.8840  -32.3370 C   0  0  0  0  0  0  0  0  0  0  0  0
   -7.3980   20.9780  -31.2280 C   0  0  0  0  0  0  0  0  0  0  0  0
   -7.7380   19.7050  -33.3210 N   0  0  0  0  0  0  0  0  0  0  0  0
   -6.6420   18.7850  -33.4510 C   0  0  0  0  0  0  0  0  0  0  0  0
   -5.2700   18.9410  -33.3580 C   0  0  0  0  0  0  0  0  0  0  0  0
   -4.4080   20.0500  -33.0980 N   0  0  0  0  0  0  0  0  0  0  0  0
   -3.4820   20.0650  -31.9710 C   0  0  0  0  0  0  0  0  0  0  0  0
   -3.3940   21.4480  -31.3840 C   0  0  0  0  0  0  0  0  0  0  0  0
   -2.2270   21.8550  -30.7180 C   0  0  0  0  0  0  0  0  0  0  0  0
   -2.1380   23.1360  -30.1620 C   0  0  0  0  0  0  0  0  0  0  0  0
   -0.6670   23.6160  -29.3290 Cl  0  0  0  0  0  0  0  0  0  0  0  0
   -3.2170   24.0240  -30.2720 C   0  0  0  0  0  0  0  0  0  0  0  0
   -3.1310   25.2980  -29.7200 O   0  0  0  0  0  0  0  0  0  0  0  0
   -4.3840   23.6260  -30.9410 C   0  0  0  0  0  0  0  0  0  0  0  0
   -5.7450   24.7270  -31.0930 Cl  0  0  0  0  0  0  0  0  0  0  0  0
   -4.4690   22.3450  -31.4980 C   0  0  0  0  0  0  0  0  0  0  0  0
   -5.0970   17.5940  -33.6140 C   0  0  0  0  0  0  0  0  0  0  0  0
   -4.1060   16.8260  -33.7140 O   0  0  0  0  0  0  0  0  0  0  0  0
   -6.4630   17.4330  -33.7110 C   0  0  0  0  0  0  0  0  0  0  0  0
   -7.2130   16.4490  -33.9410 O   0  0  0  0  0  0  0  0  0  0  0  0
   -8.6527   19.0849  -30.1624 H   0  0  0  0  0  0  0  0  0  0  0  0
   -9.7371   18.5264  -31.4810 H   0  0  0  0  0  0  0  0  0  0  0  0
   -8.0047   18.0515  -31.4810 H   0  0  0  0  0  0  0  0  0  0  0  0
  -10.1503   21.1629  -31.3845 H   0  0  0  0  0  0  0  0  0  0  0  0
   -9.4497   21.7928  -32.9139 H   0  0  0  0  0  0  0  0  0  0  0  0
  -10.3602   20.2444  -32.9139 H   0  0  0  0  0  0  0  0  0  0  0  0
   -7.5832   20.8137  -30.1562 H   0  0  0  0  0  0  0  0  0  0  0  0
   -6.3623   20.6960  -31.4685 H   0  0  0  0  0  0  0  0  0  0  0  0
   -7.5542   22.0400  -31.4685 H   0  0  0  0  0  0  0  0  0  0  0  0
   -8.1030   20.0970  -34.2190 H   0  0  0  0  0  0  0  0  0  0  0  0
   -4.4290   20.8660  -33.7510 H   0  0  0  0  0  0  0  0  0  0  0  0
   -3.8378   19.3658  -31.2000 H   0  0  0  0  0  0  0  0  0  0  0  0
   -2.4850   19.7625  -32.3238 H   0  0  0  0  0  0  0  0  0  0  0  0
   -1.3769   21.1622  -30.6327 H   0  0  0  0  0  0  0  0  0  0  0  0
   -5.3829   22.0388  -32.0281 H   0  0  0  0  0  0  0  0  0  0  0  0
  1  2  1  0
  2  3  1  0
  2  4  1  0
  2  5  1  0
  5  6  1  0
  6  7  2  0
  7  8  1  0
  8  9  1  0
  9 10  1  0
 10 11  2  0
 11 12  1  0
 12 13  1  0
 12 14  2  0
 14 15  1  0
 14 16  1  0
 16 17  1  0
 16 18  2  0
  7 19  1  0
 19 20  2  0
 19 21  1  0
 21 22  2  0
 21  6  1  0
 18 10  1  0
  1 23  1  0
  1 24  1  0
  1 25  1  0
  3 26  1  0
  3 27  1  0
  3 28  1  0
  4 29  1  0
  4 30  1  0
  4 31  1  0
  5 32  1  0
  8 33  1  0
  9 34  1  0
  9 35  1  0
 11 36  1  0
 18 37  1  0
M  CHG  1  15  -1
M  END
>  <UniqueID>  (23) 
21

>  <SMILES>  (23) 
CC(C)(C)Nc1c(NCc2cc(Cl)c([O-])c(Cl)c2)c(=O)c1=O

>  <Energy>  (23) 
20.664484509595088

>  <Genealogy>  (23) 
CC(C)(C)Nc1c(NCc2cc(Cl)c([O-])c(Cl)c2)c(=O)c1=O (protonated)
CC(C)(C)Nc1c(NCc2cc(Cl)c([O-])c(Cl)c2)c(=O)c1=O (3D coordinates assigned)
CC(C)(C)Nc1c(NCc2cc(Cl)c([O-])c(Cl)c2)c(=O)c1=O (optimized conformer: 20.664484509595088 kcal/mol)

>  <smiles>  (23) 
CC(C)(C)Nc1c(NCc2cc(Cl)c(O)c(Cl)c2)c(=O)c1=O

>  <score_type>  (23) 
oracle

>  <origin>  (23) 
adgpu

>  <m_score__min__energy>  (23) 
-10.529999999999999

>  <m_primary>  (23) 
energy

$$$$
23:0
     RDKit          3D

 62 65  0  0  0  0  0  0  0  0999 V2000
    3.3720   25.3410  -25.3970 C   0  0  0  0  0  0  0  0  0  0  0  0
    2.4280   24.2740  -25.4120 O   0  0  0  0  0  0  0  0  0  0  0  0
    1.1850   24.3200  -26.0620 C   0  0  0  0  0  0  0  0  0  0  0  0
    0.9750   23.7180  -27.3170 C   0  0  0  0  0  0  0  0  0  0  0  0
   -0.2800   23.7750  -27.9360 C   0  0  0  0  0  0  0  0  0  0  0  0
   -1.3330   24.4750  -27.3150 C   0  0  0  0  0  0  0  0  0  0  0  0
   -1.1290   25.0600  -26.0580 C   0  0  0  0  0  0  0  0  0  0  0  0
    0.1290   24.9920  -25.4290 C   0  0  0  0  0  0  0  0  0  0  0  0
    0.3670   25.5750  -24.1740 O   0  0  0  0  0  0  0  0  0  0  0  0
   -0.5350   26.4500  -23.5060 C   0  0  0  0  0  0  0  0  0  0  0  0
   -2.7070   24.5110  -27.9380 C   0  0  0  0  0  0  0  0  0  0  0  0
   -2.6510   24.2650  -29.3900 N   0  0  0  0  0  0  0  0  0  0  0  0
   -4.2740   24.1630  -30.0270 S   0  0  0  0  0  0  0  0  0  0  0  0
   -4.5730   25.3670  -30.8780 O   0  0  0  0  0  0  0  0  0  0  0  0
   -5.2610   24.1240  -28.8930 O   0  0  0  0  0  0  0  0  0  0  0  0
   -4.4540   22.6940  -30.9820 C   0  0  0  0  0  0  0  0  0  0  0  0
   -4.2710   21.4440  -30.3790 C   0  0  0  0  0  0  0  0  0  0  0  0
   -4.3910   20.2730  -31.1320 C   0  0  0  0  0  0  0  0  0  0  0  0
   -4.6960   20.3360  -32.5050 C   0  0  0  0  0  0  0  0  0  0  0  0
   -4.8180   19.1000  -33.3150 C   0  0  0  0  0  0  0  0  0  0  0  0
   -5.4560   19.1310  -34.4040 O   0  0  0  0  0  0  0  0  0  0  0  0
   -4.2570   17.8580  -32.8570 N   0  0  0  0  0  0  0  0  0  0  0  0
   -4.0400   16.7280  -33.7160 C   0  0  0  0  0  0  0  0  0  0  0  0
   -3.3120   16.8980  -34.9030 C   0  0  0  0  0  0  0  0  0  0  0  0
   -3.0960   15.8180  -35.7640 C   0  0  0  0  0  0  0  0  0  0  0  0
   -3.6250   14.5570  -35.4600 C   0  0  0  0  0  0  0  0  0  0  0  0
   -3.3420   13.1920  -36.5330 S   0  0  0  0  0  0  0  0  0  0  0  0
   -1.8690   12.3360  -36.0230 C   0  0  0  0  0  0  0  0  0  0  0  0
   -3.1750   13.6780  -37.9460 O   0  0  0  0  0  0  0  0  0  0  0  0
   -4.5140   12.2540  -36.4820 O   0  0  0  0  0  0  0  0  0  0  0  0
   -4.3690   14.3860  -34.2860 C   0  0  0  0  0  0  0  0  0  0  0  0
   -4.5860   15.4640  -33.4210 C   0  0  0  0  0  0  0  0  0  0  0  0
   -5.3630   15.2800  -32.3230 F   0  0  0  0  0  0  0  0  0  0  0  0
   -4.8590   21.5960  -33.1070 C   0  0  0  0  0  0  0  0  0  0  0  0
   -4.7410   22.7660  -32.3500 C   0  0  0  0  0  0  0  0  0  0  0  0
   -1.9370   23.0090  -29.6660 C   0  0  0  0  0  0  0  0  0  0  0  0
   -0.4600   23.1670  -29.3030 C   0  0  0  0  0  0  0  0  0  0  0  0
    3.6077   25.6074  -24.3561 H   0  0  0  0  0  0  0  0  0  0  0  0
    4.2912   25.0246  -25.9117 H   0  0  0  0  0  0  0  0  0  0  0  0
    2.9459   26.2148  -25.9117 H   0  0  0  0  0  0  0  0  0  0  0  0
    1.8052   23.1974  -27.8167 H   0  0  0  0  0  0  0  0  0  0  0  0
   -1.9604   25.5778  -25.5574 H   0  0  0  0  0  0  0  0  0  0  0  0
   -0.4180   26.3365  -22.4181 H   0  0  0  0  0  0  0  0  0  0  0  0
   -0.3167   27.4896  -23.7918 H   0  0  0  0  0  0  0  0  0  0  0  0
   -1.5675   26.2002  -23.7918 H   0  0  0  0  0  0  0  0  0  0  0  0
   -3.3321   23.7371  -27.4687 H   0  0  0  0  0  0  0  0  0  0  0  0
   -3.1326   25.5121  -27.7748 H   0  0  0  0  0  0  0  0  0  0  0  0
   -4.0315   21.3833  -29.3071 H   0  0  0  0  0  0  0  0  0  0  0  0
   -4.2462   19.2955  -30.6488 H   0  0  0  0  0  0  0  0  0  0  0  0
   -4.1610   17.7120  -31.8270 H   0  0  0  0  0  0  0  0  0  0  0  0
   -2.9080   17.8888  -35.1583 H   0  0  0  0  0  0  0  0  0  0  0  0
   -2.5086   15.9589  -36.6833 H   0  0  0  0  0  0  0  0  0  0  0  0
   -1.8224   12.3089  -34.9243 H   0  0  0  0  0  0  0  0  0  0  0  0
   -1.8880   11.3082  -36.4146 H   0  0  0  0  0  0  0  0  0  0  0  0
   -0.9854   12.8613  -36.4146 H   0  0  0  0  0  0  0  0  0  0  0  0
   -4.7856   13.3975  -34.0423 H   0  0  0  0  0  0  0  0  0  0  0  0
   -5.0812   21.6621  -34.1823 H   0  0  0  0  0  0  0  0  0  0  0  0
   -4.8742   23.7461  -32.8313 H   0  0  0  0  0  0  0  0  0  0  0  0
   -2.3766   22.1987  -29.0659 H   0  0  0  0  0  0  0  0  0  0  0  0
   -2.0260   22.7660  -30.7351 H   0  0  0  0  0  0  0  0  0  0  0  0
    0.0178   22.1763  -29.3175 H   0  0  0  0  0  0  0  0  0  0  0  0
    0.0022   23.8406  -30.0396 H   0  0  0  0  0  0  0  0  0  0  0  0
  1  2  1  0
  2  3  1  0
  3  4  2  0
  4  5  1  0
  5  6  2  0
  6  7  1  0
  7  8  2  0
  8  9  1  0
  9 10  1  0
  6 11  1  0
 11 12  1  0
 12 13  1  0
 13 14  2  0
 13 15  2  0
 13 16  1  0
 16 17  2  0
 17 18  1  0
 18 19  2  0
 19 20  1  0
 20 21  2  0
 20 22  1  0
 22 23  1  0
 23 24  2  0
 24 25  1  0
 25 26  2  0
 26 27  1  0
 27 28  1  0
 27 29  2  0
 27 30  2  0
 26 31  1  0
 31 32  2  0
 32 33  1  0
 19 34  1  0
 34 35  2  0
 12 36  1  0
 36 37  1  0
  8  3  1  0
 35 16  1  0
 37  5  1  0
 32 23  1  0
  1 38  1  0
  1 39  1  0
  1 40  1  0
  4 41  1  0
  7 42  1  0
 10 43  1  0
 10 44  1  0
 10 45  1  0
 11 46  1  0
 11 47  1  0
 17 48  1  0
 18 49  1  0
 22 50  1  0
 24 51  1  0
 25 52  1  0
 28 53  1  0
 28 54  1  0
 28 55  1  0
 31 56  1  0
 34 57  1  0
 35 58  1  0
 36 59  1  0
 36 60  1  0
 37 61  1  0
 37 62  1  0
M  END
>  <UniqueID>  (24) 
22

>  <SMILES>  (24) 
COc1cc2c(cc1OC)CN(S(=O)(=O)c1ccc(C(=O)Nc3ccc(S(C)(=O)=O)cc3F)cc1)CC2

>  <Energy>  (24) 
69.37880972677348

>  <Genealogy>  (24) 
COc1cc2c(cc1OC)CN(S(=O)(=O)c1ccc(C(=O)Nc3ccc(S(C)(=O)=O)cc3F)cc1)CC2 (3D coordinates assigned)
COc1cc2c(cc1OC)CN(S(=O)(=O)c1ccc(C(=O)Nc3ccc(S(C)(=O)=O)cc3F)cc1)CC2 (nonaromatic ring conformer: 69.37880972677348 kcal/mol)

>  <smiles>  (24) 
COc1cc2c(cc1OC)CN(S(=O)(=O)c1ccc(C(=O)Nc3ccc(S(C)(=O)=O)cc3F)cc1)CC2

>  <score_type>  (24) 
oracle

>  <origin>  (24) 
adgpu

>  <m_score__min__energy>  (24) 
-9.9800000000000004

>  <m_primary>  (24) 
energy

$$$$
24:0
     RDKit          3D

 35 37  0  0  0  0  0  0  0  0999 V2000
   -6.7700   15.8730  -34.2010 C   0  0  0  0  0  0  0  0  0  0  0  0
   -6.7090   17.2520  -33.6120 C   0  0  0  0  0  0  0  0  0  0  0  0
   -5.9020   18.2360  -34.1990 C   0  0  0  0  0  0  0  0  0  0  0  0
   -5.8720   19.5310  -33.6730 C   0  0  0  0  0  0  0  0  0  0  0  0
   -6.6590   19.8700  -32.5560 C   0  0  0  0  0  0  0  0  0  0  0  0
   -6.6350   21.2440  -31.9890 C   0  0  0  0  0  0  0  0  0  0  0  0
   -7.6240   22.2230  -32.1270 C   0  0  0  0  0  0  0  0  0  0  0  0
   -7.3180   23.4270  -31.4810 C   0  0  0  0  0  0  0  0  0  0  0  0
   -6.0930   23.4000  -30.8320 C   0  0  0  0  0  0  0  0  0  0  0  0
   -5.3800   24.7290  -29.9390 S   0  0  0  0  0  0  0  0  0  0  0  0
   -6.4710   25.6580  -29.4890 O   0  0  0  0  0  0  0  0  0  0  0  0
   -4.4160   25.4580  -30.8320 O   0  0  0  0  0  0  0  0  0  0  0  0
   -4.5300   24.0920  -28.5670 N   0  0  0  0  0  0  0  0  0  0  0  0
   -3.2990   24.3550  -28.2340 C   0  0  0  0  0  0  0  0  0  0  0  0
   -2.7880   23.7660  -27.1200 N   0  0  0  0  0  0  0  0  0  0  0  0
   -1.5130   23.9990  -26.7180 C   0  0  0  0  0  0  0  0  0  0  0  0
   -0.7000   24.8570  -27.4530 C   0  0  0  0  0  0  0  0  0  0  0  0
   -1.2300   25.4570  -28.5930 C   0  0  0  0  0  0  0  0  0  0  0  0
   -2.5130   25.2020  -28.9680 N   0  0  0  0  0  0  0  0  0  0  0  0
   -5.3840   21.8970  -31.0610 S   0  0  0  0  0  0  0  0  0  0  0  0
   -7.4830   18.8810  -31.9870 C   0  0  0  0  0  0  0  0  0  0  0  0
   -7.5110   17.5870  -32.5130 C   0  0  0  0  0  0  0  0  0  0  0  0
   -6.8029   15.1295  -33.3910 H   0  0  0  0  0  0  0  0  0  0  0  0
   -7.6732   15.7791  -34.8218 H   0  0  0  0  0  0  0  0  0  0  0  0
   -5.8786   15.6997  -34.8218 H   0  0  0  0  0  0  0  0  0  0  0  0
   -5.2890   17.9882  -35.0781 H   0  0  0  0  0  0  0  0  0  0  0  0
   -5.2273   20.2923  -34.1364 H   0  0  0  0  0  0  0  0  0  0  0  0
   -8.5551   22.0623  -32.6903 H   0  0  0  0  0  0  0  0  0  0  0  0
   -7.9814   24.3044  -31.4877 H   0  0  0  0  0  0  0  0  0  0  0  0
   -1.1227   23.5107  -25.8129 H   0  0  0  0  0  0  0  0  0  0  0  0
    0.3359   25.0564  -27.1412 H   0  0  0  0  0  0  0  0  0  0  0  0
   -0.6092   26.1393  -29.1922 H   0  0  0  0  0  0  0  0  0  0  0  0
   -2.8650   25.6750  -29.8290 H   0  0  0  0  0  0  0  0  0  0  0  0
   -8.1115   19.1294  -31.1191 H   0  0  0  0  0  0  0  0  0  0  0  0
   -8.1661   16.8272  -32.0620 H   0  0  0  0  0  0  0  0  0  0  0  0
  1  2  1  0
  2  3  2  0
  3  4  1  0
  4  5  2  0
  5  6  1  0
  6  7  2  0
  7  8  1  0
  8  9  2  0
  9 10  1  0
 10 11  2  0
 10 12  2  0
 10 13  1  0
 13 14  2  3
 14 15  1  0
 15 16  2  0
 16 17  1  0
 17 18  2  0
 18 19  1  0
  9 20  1  0
  5 21  1  0
 21 22  2  0
 22  2  1  0
 20  6  1  0
 19 14  1  0
  1 23  1  0
  1 24  1  0
  1 25  1  0
  3 26  1  0
  4 27  1  0
  7 28  1  0
  8 29  1  0
 16 30  1  0
 17 31  1  0
 18 32  1  0
 19 33  1  0
 21 34  1  0
 22 35  1  0
M  END
>  <UniqueID>  (25) 
23

>  <SMILES>  (25) 
Cc1ccc(-c2ccc(S(=O)(=O)N=c3nccc[nH]3)s2)cc1

>  <Energy>  (25) 
71.5593117303694

>  <Genealogy>  (25) 
Cc1ccc(-c2ccc(S(=O)(=O)N=c3nccc[nH]3)s2)cc1 (3D coordinates assigned)
Cc1ccc(-c2ccc(S(=O)(=O)N=c3nccc[nH]3)s2)cc1 (optimized conformer: 71.5593117303694 kcal/mol)

>  <smiles>  (25) 
Cc1ccc(-c2ccc(S(=O)(=O)N=c3nccc[nH]3)s2)cc1

>  <score_type>  (25) 
oracle

>  <origin>  (25) 
adgpu

>  <m_score__min__energy>  (25) 
-9.7200000000000006

>  <m_primary>  (25) 
energy

$$$$
25:0
     RDKit          3D

 38 40  0  0  0  0  0  0  0  0999 V2000
   -3.7590   13.8110  -32.2420 N   0  0  0  0  0  0  0  0  0  0  0  0
   -4.2900   14.9150  -32.6270 C   0  0  0  0  0  0  0  0  0  0  0  0
   -4.0570   15.4300  -33.8480 N   0  0  0  0  0  0  0  0  0  0  0  0
   -4.6170   16.6000  -34.2610 C   0  0  0  0  0  0  0  0  0  0  0  0
   -4.3260   16.9890  -35.4370 N   0  0  0  0  0  0  0  0  0  0  0  0
   -5.4390   17.2400  -33.3710 C   0  0  0  0  0  0  0  0  0  0  0  0
   -6.0280   18.4200  -33.7360 C   0  0  0  0  0  0  0  0  0  0  0  0
   -6.8470   19.0360  -32.8140 C   0  0  0  0  0  0  0  0  0  0  0  0
   -7.5010   20.3310  -33.1990 C   0  0  0  0  0  0  0  0  0  0  0  0
   -6.9180   21.4700  -32.4230 C   0  0  0  0  0  0  0  0  0  0  0  0
   -5.5580   21.7140  -32.4120 C   0  0  0  0  0  0  0  0  0  0  0  0
   -5.0190   22.7660  -31.6950 C   0  0  0  0  0  0  0  0  0  0  0  0
   -5.8820   23.5950  -30.9720 C   0  0  0  0  0  0  0  0  0  0  0  0
   -5.1790   24.9100  -30.0790 S   0  0  0  0  0  0  0  0  0  0  0  0
   -4.9010   24.5020  -28.4110 N   0  0  0  0  0  0  0  0  0  0  0  0
   -3.8670   25.3040  -30.6690 O   0  0  0  0  0  0  0  0  0  0  0  0
   -6.0850   26.1040  -30.1150 O   0  0  0  0  0  0  0  0  0  0  0  0
   -7.2420   23.3670  -30.9710 C   0  0  0  0  0  0  0  0  0  0  0  0
   -7.7520   22.2920  -31.7070 C   0  0  0  0  0  0  0  0  0  0  0  0
   -7.0990   18.5240  -31.5580 C   0  0  0  0  0  0  0  0  0  0  0  0
   -6.4970   17.3350  -31.2070 C   0  0  0  0  0  0  0  0  0  0  0  0
   -5.6760   16.7100  -32.1170 C   0  0  0  0  0  0  0  0  0  0  0  0
   -5.0980   15.5480  -31.7550 N   0  0  0  0  0  0  0  0  0  0  0  0
   -3.1200   13.2670  -32.8710 H   0  0  0  0  0  0  0  0  0  0  0  0
   -3.4230   14.9020  -34.4900 H   0  0  0  0  0  0  0  0  0  0  0  0
   -4.6970   17.8570  -35.8380 H   0  0  0  0  0  0  0  0  0  0  0  0
   -5.8543   18.8608  -34.7287 H   0  0  0  0  0  0  0  0  0  0  0  0
   -7.3450   20.5088  -34.2733 H   0  0  0  0  0  0  0  0  0  0  0  0
   -8.5759   20.2643  -32.9750 H   0  0  0  0  0  0  0  0  0  0  0  0
   -4.8891   21.0564  -32.9866 H   0  0  0  0  0  0  0  0  0  0  0  0
   -3.9340   22.9470  -31.6934 H   0  0  0  0  0  0  0  0  0  0  0  0
   -5.7020   23.9490  -28.0300 H   0  0  0  0  0  0  0  0  0  0  0  0
   -4.6630   25.3390  -27.8420 H   0  0  0  0  0  0  0  0  0  0  0  0
   -7.9166   24.0213  -30.3994 H   0  0  0  0  0  0  0  0  0  0  0  0
   -8.8356   22.1031  -31.7119 H   0  0  0  0  0  0  0  0  0  0  0  0
   -7.7623   19.0504  -30.8559 H   0  0  0  0  0  0  0  0  0  0  0  0
   -6.6702   16.8927  -30.2149 H   0  0  0  0  0  0  0  0  0  0  0  0
   -5.2650   15.1320  -30.8120 H   0  0  0  0  0  0  0  0  0  0  0  0
  1  2  2  3
  2  3  1  0
  3  4  1  0
  4  5  2  3
  4  6  1  0
  6  7  2  0
  7  8  1  0
  8  9  1  0
  9 10  1  0
 10 11  2  0
 11 12  1  0
 12 13  2  0
 13 14  1  0
 14 15  1  0
 14 16  2  0
 14 17  2  0
 13 18  1  0
 18 19  2  0
  8 20  2  0
 20 21  1  0
 21 22  2  0
 22 23  1  0
 23  2  1  0
 22  6  1  0
 19 10  1  0
  1 24  1  0
  3 25  1  0
  5 26  1  0
  7 27  1  0
  9 28  1  0
  9 29  1  0
 11 30  1  0
 12 31  1  0
 15 32  1  0
 15 33  1  0
 18 34  1  0
 19 35  1  0
 20 36  1  0
 21 37  1  0
 23 38  1  0
M  END
>  <smiles>  (26) 
N=c1[nH]c(=N)c2cc(Cc3ccc(S(N)(=O)=O)cc3)ccc2[nH]1

>  <score_type>  (26) 
oracle

>  <origin>  (26) 
adgpu

>  <m_score__min__energy>  (26) 
-9.6699999999999999

>  <m_primary>  (26) 
energy

$$$$
26:0
     RDKit          3D

 42 44  0  0  0  0  0  0  0  0999 V2000
   -7.9700   18.5860  -31.3180 N   0  0  0  0  0  0  0  0  0  0  0  0
   -7.0540   18.3280  -32.3900 C   0  0  0  0  0  0  0  0  0  0  0  0
   -7.1980   17.1520  -33.1430 C   0  0  0  0  0  0  0  0  0  0  0  0
   -6.3750   16.9110  -34.2450 C   0  0  0  0  0  0  0  0  0  0  0  0
   -5.4040   17.8450  -34.6100 C   0  0  0  0  0  0  0  0  0  0  0  0
   -5.2430   19.0140  -33.8640 C   0  0  0  0  0  0  0  0  0  0  0  0
   -6.0450   19.2560  -32.7390 C   0  0  0  0  0  0  0  0  0  0  0  0
   -5.8240   20.4530  -31.9780 N   0  0  0  0  0  0  0  0  0  0  0  0
   -6.8040   21.5020  -31.8970 C   0  0  0  0  0  0  0  0  0  0  0  0
   -7.9650   21.3050  -32.3530 O   0  0  0  0  0  0  0  0  0  0  0  0
   -6.4800   22.8040  -31.2660 C   0  0  0  0  0  0  0  0  0  0  0  0
   -7.4930   23.6250  -30.7400 C   0  0  0  0  0  0  0  0  0  0  0  0
   -7.1770   24.8540  -30.1580 C   0  0  0  0  0  0  0  0  0  0  0  0
   -5.8470   25.2710  -30.0760 C   0  0  0  0  0  0  0  0  0  0  0  0
   -4.8190   24.4540  -30.5570 C   0  0  0  0  0  0  0  0  0  0  0  0
   -3.4650   24.9210  -30.4660 N   0  0  0  0  0  0  0  0  0  0  0  0
   -2.5610   24.6660  -29.3870 C   0  0  0  0  0  0  0  0  0  0  0  0
   -2.5310   23.5150  -28.8770 O   0  0  0  0  0  0  0  0  0  0  0  0
   -1.6270   25.6710  -28.9690 N   0  0  0  0  0  0  0  0  0  0  0  0
   -1.3170   26.0440  -27.6180 C   0  0  0  0  0  0  0  0  0  0  0  0
   -1.9160   25.4110  -26.5130 C   0  0  0  0  0  0  0  0  0  0  0  0
   -1.6070   25.8260  -25.2130 C   0  0  0  0  0  0  0  0  0  0  0  0
   -0.7110   26.8780  -25.0070 C   0  0  0  0  0  0  0  0  0  0  0  0
   -0.1330   27.5260  -26.1020 C   0  0  0  0  0  0  0  0  0  0  0  0
   -0.4400   27.1150  -27.4020 C   0  0  0  0  0  0  0  0  0  0  0  0
   -5.1420   23.2290  -31.1710 C   0  0  0  0  0  0  0  0  0  0  0  0
   -8.1760   17.8700  -30.5880 H   0  0  0  0  0  0  0  0  0  0  0  0
   -8.3930   19.5320  -31.1980 H   0  0  0  0  0  0  0  0  0  0  0  0
   -7.9649   16.4149  -32.8628 H   0  0  0  0  0  0  0  0  0  0  0  0
   -6.4920   15.9843  -34.8260 H   0  0  0  0  0  0  0  0  0  0  0  0
   -4.7652   17.6598  -35.4861 H   0  0  0  0  0  0  0  0  0  0  0  0
   -4.4817   19.7506  -34.1606 H   0  0  0  0  0  0  0  0  0  0  0  0
   -5.0480   20.4450  -31.2790 H   0  0  0  0  0  0  0  0  0  0  0  0
   -8.5418   23.2967  -30.7874 H   0  0  0  0  0  0  0  0  0  0  0  0
   -7.9782   25.4958  -29.7628 H   0  0  0  0  0  0  0  0  0  0  0  0
   -5.6065   26.2476  -29.6306 H   0  0  0  0  0  0  0  0  0  0  0  0
   -2.6286   24.5882  -26.6717 H   0  0  0  0  0  0  0  0  0  0  0  0
   -2.0704   25.3230  -24.3515 H   0  0  0  0  0  0  0  0  0  0  0  0
   -0.4608   27.1959  -23.9841 H   0  0  0  0  0  0  0  0  0  0  0  0
    0.5647   28.3609  -25.9404 H   0  0  0  0  0  0  0  0  0  0  0  0
    0.0095   27.6354  -28.2606 H   0  0  0  0  0  0  0  0  0  0  0  0
   -4.3400   22.5975  -31.5808 H   0  0  0  0  0  0  0  0  0  0  0  0
  1  2  1  0
  2  3  2  0
  3  4  1  0
  4  5  2  0
  5  6  1  0
  6  7  2  0
  7  8  1  0
  8  9  1  0
  9 10  2  0
  9 11  1  0
 11 12  2  0
 12 13  1  0
 13 14  2  0
 14 15  1  0
 15 16  1  0
 16 17  1  0
 17 18  2  0
 17 19  1  0
 19 20  1  0
 20 21  2  0
 21 22  1  0
 22 23  2  0
 23 24  1  0
 24 25  2  0
 15 26  2  0
  7  2  1  0
 26 11  1  0
 25 20  1  0
  1 27  1  0
  1 28  1  0
  3 29  1  0
  4 30  1  0
  5 31  1  0
  6 32  1  0
  8 33  1  0
 12 34  1  0
 13 35  1  0
 14 36  1  0
 21 37  1  0
 22 38  1  0
 23 39  1  0
 24 40  1  0
 25 41  1  0
 26 42  1  0
M  CHG  2  16  -1  19  -1
M  END
>  <UniqueID>  (27) 
24

>  <SMILES>  (27) 
Nc1ccccc1NC(=O)c1cccc([N-]C(=O)[N-]c2ccccc2)c1

>  <Energy>  (27) 
58.994755562272594

>  <Genealogy>  (27) 
Nc1ccccc1NC(=O)c1cccc([N-]C(=O)[N-]c2ccccc2)c1 (protonated)
Nc1ccccc1NC(=O)c1cccc([N-]C(=O)[N-]c2ccccc2)c1 (3D coordinates assigned)
Nc1ccccc1NC(=O)c1cccc([N-]C(=O)[N-]c2ccccc2)c1 (optimized conformer: 58.994755562272594 kcal/mol)

>  <smiles>  (27) 
Nc1ccccc1NC(=O)c1cccc(NC(=O)Nc2ccccc2)c1

>  <score_type>  (27) 
oracle

>  <origin>  (27) 
adgpu

>  <m_score__min__energy>  (27) 
-11.57

>  <m_primary>  (27) 
energy

$$$$
27:0
     RDKit          3D

 58 61  0  0  0  0  0  0  0  0999 V2000
   -0.3980   23.0490  -24.8330 C   0  0  0  0  0  0  0  0  0  0  0  0
   -0.5060   22.3640  -26.0770 O   0  0  0  0  0  0  0  0  0  0  0  0
   -1.5160   22.5940  -27.0230 C   0  0  0  0  0  0  0  0  0  0  0  0
   -2.1650   21.5470  -27.7040 C   0  0  0  0  0  0  0  0  0  0  0  0
   -3.1670   21.8280  -28.6390 C   0  0  0  0  0  0  0  0  0  0  0  0
   -3.5400   23.1550  -28.9070 C   0  0  0  0  0  0  0  0  0  0  0  0
   -4.5640   23.4510  -29.8760 N   0  0  0  0  0  0  0  0  0  0  0  0
   -5.5520   22.6200  -30.2680 C   0  0  0  0  0  0  0  0  0  0  0  0
   -6.3410   23.2480  -31.2160 C   0  0  0  0  0  0  0  0  0  0  0  0
   -7.5170   22.6460  -31.9360 C   0  0  2  0  0  0  0  0  0  0  0  0
   -8.6690   23.3980  -31.6590 O   0  0  0  0  0  0  0  0  0  0  0  0
   -7.7240   21.2590  -31.5040 N   0  0  0  0  0  0  0  0  0  0  0  0
   -7.0430   20.1260  -32.0910 C   0  0  0  0  0  0  0  0  0  0  0  0
   -5.6810   20.2120  -32.4480 C   0  0  0  0  0  0  0  0  0  0  0  0
   -5.0070   19.1140  -32.9920 C   0  0  0  0  0  0  0  0  0  0  0  0
   -3.2930   19.2350  -33.3970 S   0  0  0  0  0  0  0  0  0  0  0  0
   -3.0430   18.5380  -34.7050 O   0  0  0  0  0  0  0  0  0  0  0  0
   -2.4850   18.5360  -32.3390 O   0  0  0  0  0  0  0  0  0  0  0  0
   -2.7620   20.9010  -33.5140 N   0  0  0  0  0  0  0  0  0  0  0  0
   -1.3380   20.9790  -33.8520 C   0  0  0  0  0  0  0  0  0  0  0  0
   -0.5530   21.1860  -32.5640 C   0  0  0  0  0  0  0  0  0  0  0  0
   -1.5690   21.6270  -31.5300 C   0  0  0  0  0  0  0  0  0  0  0  0
   -2.9180   21.6020  -32.2350 C   0  0  0  0  0  0  0  0  0  0  0  0
   -5.6950   17.9160  -33.2010 C   0  0  0  0  0  0  0  0  0  0  0  0
   -7.0410   17.8100  -32.8600 C   0  0  0  0  0  0  0  0  0  0  0  0
   -7.7300   18.9030  -32.3070 C   0  0  0  0  0  0  0  0  0  0  0  0
   -9.1860   18.7420  -31.9580 C   0  0  0  0  0  0  0  0  0  0  0  0
   -5.8060   24.5050  -31.4290 C   0  0  0  0  0  0  0  0  0  0  0  0
   -4.7180   24.5890  -30.5870 C   0  0  0  0  0  0  0  0  0  0  0  0
   -3.8670   25.6860  -30.5110 O   0  0  0  0  0  0  0  0  0  0  0  0
   -2.8840   24.1970  -28.2300 C   0  0  0  0  0  0  0  0  0  0  0  0
   -1.8840   23.9150  -27.2950 C   0  0  0  0  0  0  0  0  0  0  0  0
   -0.5113   22.3306  -24.0078 H   0  0  0  0  0  0  0  0  0  0  0  0
    0.5875   23.5329  -24.7652 H   0  0  0  0  0  0  0  0  0  0  0  0
   -1.1868   23.8126  -24.7652 H   0  0  0  0  0  0  0  0  0  0  0  0
   -1.8832   20.5034  -27.5002 H   0  0  0  0  0  0  0  0  0  0  0  0
   -3.6665   21.0031  -29.1683 H   0  0  0  0  0  0  0  0  0  0  0  0
   -5.7070   21.5982  -29.8912 H   0  0  0  0  0  0  0  0  0  0  0  0
   -7.3160   22.6563  -33.0174 H   0  0  0  0  0  0  0  0  0  0  0  0
   -8.4280   24.3520  -31.7970 H   0  0  0  0  0  0  0  0  0  0  0  0
   -8.4060   21.0930  -30.7290 H   0  0  0  0  0  0  0  0  0  0  0  0
   -5.1404   21.1579  -32.2961 H   0  0  0  0  0  0  0  0  0  0  0  0
   -1.0187   20.0444  -34.3364 H   0  0  0  0  0  0  0  0  0  0  0  0
   -1.1575   21.8141  -34.5449 H   0  0  0  0  0  0  0  0  0  0  0  0
   -0.0723   20.2468  -32.2529 H   0  0  0  0  0  0  0  0  0  0  0  0
    0.2460   21.9313  -32.6912 H   0  0  0  0  0  0  0  0  0  0  0  0
   -1.5708   20.9344  -30.6754 H   0  0  0  0  0  0  0  0  0  0  0  0
   -1.3370   22.6276  -31.1364 H   0  0  0  0  0  0  0  0  0  0  0  0
   -3.6535   21.0744  -31.6100 H   0  0  0  0  0  0  0  0  0  0  0  0
   -3.2714   22.6291  -32.4089 H   0  0  0  0  0  0  0  0  0  0  0  0
   -5.1710   17.0526  -33.6369 H   0  0  0  0  0  0  0  0  0  0  0  0
   -7.5708   16.8603  -33.0253 H   0  0  0  0  0  0  0  0  0  0  0  0
   -9.3016   18.7292  -30.8642 H   0  0  0  0  0  0  0  0  0  0  0  0
   -9.7587   19.5823  -32.3774 H   0  0  0  0  0  0  0  0  0  0  0  0
   -9.5613   17.7969  -32.3774 H   0  0  0  0  0  0  0  0  0  0  0  0
   -6.1715   25.2755  -32.1238 H   0  0  0  0  0  0  0  0  0  0  0  0
   -3.1593   25.2416  -28.4372 H   0  0  0  0  0  0  0  0  0  0  0  0
   -1.3820   24.7400  -26.7684 H   0  0  0  0  0  0  0  0  0  0  0  0
  1  2  1  0
  2  3  1  0
  3  4  2  0
  4  5  1  0
  5  6  2  0
  6  7  1  0
  7  8  1  0
  8  9  2  0
  9 10  1  0
 10 11  1  0
 10 12  1  0
 12 13  1  0
 13 14  2  0
 14 15  1  0
 15 16  1  0
 16 17  2  0
 16 18  2  0
 16 19  1  0
 19 20  1  0
 20 21  1  0
 21 22  1  0
 22 23  1  0
 15 24  2  0
 24 25  1  0
 25 26  2  0
 26 27  1  0
  9 28  1  0
 28 29  2  0
 29 30  1  0
  6 31  1  0
 31 32  2  0
 32  3  1  0
 29  7  1  0
 26 13  1  0
 23 19  1  0
  1 33  1  0
  1 34  1  0
  1 35  1  0
  4 36  1  0
  5 37  1  0
  8 38  1  0
 10 39  1  6
 11 40  1  0
 12 41  1  0
 14 42  1  0
 20 43  1  0
 20 44  1  0
 21 45  1  0
 21 46  1  0
 22 47  1  0
 22 48  1  0
 23 49  1  0
 23 50  1  0
 24 51  1  0
 25 52  1  0
 27 53  1  0
 27 54  1  0
 27 55  1  0
 28 56  1  0
 31 57  1  0
 32 58  1  0
M  CHG  1  30  -1
M  END
>  <UniqueID>  (28) 
25

>  <SMILES>  (28) 
COc1ccc(-n2cc([C@H](O)Nc3cc(S(=O)(=O)N4CCCC4)ccc3C)cc2[O-])cc1

>  <Energy>  (28) 
92.97664159576837

>  <Genealogy>  (28) 
COc1ccc(-n2cc(C(O)Nc3cc(S(=O)(=O)N4CCCC4)ccc3C)cc2[O-])cc1 (protonated)
COc1ccc(-n2cc([C@H](O)Nc3cc(S(=O)(=O)N4CCCC4)ccc3C)cc2[O-])cc1 (chirality)
COc1ccc(-n2cc([C@H](O)Nc3cc(S(=O)(=O)N4CCCC4)ccc3C)cc2[O-])cc1 (3D coordinates assigned)
COc1ccc(-n2cc([C@H](O)Nc3cc(S(=O)(=O)N4CCCC4)ccc3C)cc2[O-])cc1 (nonaromatic ring conformer: 92.97664159576837 kcal/mol)

>  <smiles>  (28) 
COc1ccc(-n2cc(C(O)Nc3cc(S(=O)(=O)N4CCCC4)ccc3C)cc2O)cc1

>  <score_type>  (28) 
oracle

>  <origin>  (28) 
adgpu

>  <m_score__min__energy>  (28) 
-12.08

>  <m_primary>  (28) 
energy

$$$$
28:0
     RDKit          3D

 37 39  0  0  0  0  0  0  0  0999 V2000
   -5.4680   15.9070  -30.9120 N   0  0  0  0  0  0  0  0  0  0  0  0
   -5.4040   16.5220  -32.2030 C   0  0  0  0  0  0  0  0  0  0  0  0
   -4.5900   15.9760  -33.2040 C   0  0  0  0  0  0  0  0  0  0  0  0
   -4.5180   16.5840  -34.4590 C   0  0  0  0  0  0  0  0  0  0  0  0
   -5.2650   17.7360  -34.7250 C   0  0  0  0  0  0  0  0  0  0  0  0
   -6.0980   18.2840  -33.7400 C   0  0  0  0  0  0  0  0  0  0  0  0
   -6.8450   19.4800  -34.0310 N   0  0  0  0  0  0  0  0  0  0  0  0
   -7.2510   20.4330  -33.0330 C   0  0  0  0  0  0  0  0  0  0  0  0
   -6.3430   21.4100  -32.5890 C   0  0  0  0  0  0  0  0  0  0  0  0
   -6.7020   22.3270  -31.5860 C   0  0  0  0  0  0  0  0  0  0  0  0
   -5.7390   23.3620  -31.1310 C   0  0  0  0  0  0  0  0  0  0  0  0
   -6.1530   24.6920  -30.9430 C   0  0  0  0  0  0  0  0  0  0  0  0
   -5.2320   25.6520  -30.5170 C   0  0  0  0  0  0  0  0  0  0  0  0
   -3.9400   25.3010  -30.2830 N   0  0  0  0  0  0  0  0  0  0  0  0
   -3.5070   24.0240  -30.4550 C   0  0  0  0  0  0  0  0  0  0  0  0
   -4.3960   23.0330  -30.8800 C   0  0  0  0  0  0  0  0  0  0  0  0
   -7.9820   22.2440  -31.0160 C   0  0  0  0  0  0  0  0  0  0  0  0
   -8.8840   21.2670  -31.4400 C   0  0  0  0  0  0  0  0  0  0  0  0
   -8.5320   20.3580  -32.4460 C   0  0  0  0  0  0  0  0  0  0  0  0
   -9.4950   19.3890  -32.8820 N   0  0  0  0  0  0  0  0  0  0  0  0
   -6.1520   17.6790  -32.4700 C   0  0  0  0  0  0  0  0  0  0  0  0
   -5.6770   16.4740  -30.0610 H   0  0  0  0  0  0  0  0  0  0  0  0
   -5.3040   14.8820  -30.8000 H   0  0  0  0  0  0  0  0  0  0  0  0
   -4.0062   15.0661  -33.0008 H   0  0  0  0  0  0  0  0  0  0  0  0
   -3.8724   16.1560  -35.2400 H   0  0  0  0  0  0  0  0  0  0  0  0
   -5.1984   18.2148  -35.7131 H   0  0  0  0  0  0  0  0  0  0  0  0
   -7.1600   19.6380  -35.0150 H   0  0  0  0  0  0  0  0  0  0  0  0
   -5.3376   21.4575  -33.0327 H   0  0  0  0  0  0  0  0  0  0  0  0
   -7.1990   24.9760  -31.1307 H   0  0  0  0  0  0  0  0  0  0  0  0
   -5.5530   26.6939  -30.3707 H   0  0  0  0  0  0  0  0  0  0  0  0
   -2.4547   23.7701  -30.2593 H   0  0  0  0  0  0  0  0  0  0  0  0
   -4.0458   21.9993  -31.0175 H   0  0  0  0  0  0  0  0  0  0  0  0
   -8.2764   22.9542  -30.2293 H   0  0  0  0  0  0  0  0  0  0  0  0
   -9.8814   21.2102  -30.9796 H   0  0  0  0  0  0  0  0  0  0  0  0
   -9.9360   18.7130  -32.2220 H   0  0  0  0  0  0  0  0  0  0  0  0
   -9.7410   19.3050  -33.8940 H   0  0  0  0  0  0  0  0  0  0  0  0
   -6.7840   18.1156  -31.6826 H   0  0  0  0  0  0  0  0  0  0  0  0
  1  2  1  0
  2  3  2  0
  3  4  1  0
  4  5  2  0
  5  6  1  0
  6  7  1  0
  7  8  1  0
  8  9  2  0
  9 10  1  0
 10 11  1  0
 11 12  2  0
 12 13  1  0
 13 14  2  0
 14 15  1  0
 15 16  2  0
 10 17  2  0
 17 18  1  0
 18 19  2  0
 19 20  1  0
  6 21  2  0
 21  2  1  0
 19  8  1  0
 16 11  1  0
  1 22  1  0
  1 23  1  0
  3 24  1  0
  4 25  1  0
  5 26  1  0
  7 27  1  0
  9 28  1  0
 12 29  1  0
 13 30  1  0
 15 31  1  0
 16 32  1  0
 17 33  1  0
 18 34  1  0
 20 35  1  0
 20 36  1  0
 21 37  1  0
M  END
>  <UniqueID>  (29) 
26

>  <SMILES>  (29) 
Nc1cccc(Nc2cc(-c3ccncc3)ccc2N)c1

>  <Energy>  (29) 
50.8100058104025

>  <Genealogy>  (29) 
Nc1cccc(Nc2cc(-c3ccncc3)ccc2N)c1 (3D coordinates assigned)
Nc1cccc(Nc2cc(-c3ccncc3)ccc2N)c1 (optimized conformer: 50.8100058104025 kcal/mol)

>  <smiles>  (29) 
Nc1cccc(Nc2cc(-c3ccncc3)ccc2N)c1

>  <score_type>  (29) 
oracle

>  <origin>  (29) 
adgpu

>  <m_score__min__energy>  (29) 
-8.6300000000000008

>  <m_primary>  (29) 
energy

$$$$
29:0
     RDKit          3D

 43 45  0  0  0  0  0  0  0  0999 V2000
   -5.3440   24.7350  -28.5760 O   0  0  0  0  0  0  0  0  0  0  0  0
   -5.1480   24.9350  -30.0540 S   0  0  0  0  0  0  0  0  0  0  0  0
   -5.7460   26.2600  -30.4360 O   0  0  0  0  0  0  0  0  0  0  0  0
   -3.4520   24.9550  -30.4190 N   0  0  0  0  0  0  0  0  0  0  0  0
   -2.4310   24.2650  -29.6820 C   0  0  0  0  0  0  0  0  0  0  0  0
   -2.3390   22.8610  -29.6710 C   0  0  0  0  0  0  0  0  0  0  0  0
   -1.3230   22.2240  -28.9470 C   0  0  0  0  0  0  0  0  0  0  0  0
   -1.2090   20.4730  -28.9510 Cl  0  0  0  0  0  0  0  0  0  0  0  0
   -0.4050   22.9840  -28.2160 C   0  0  0  0  0  0  0  0  0  0  0  0
   -0.4880   24.3780  -28.2240 C   0  0  0  0  0  0  0  0  0  0  0  0
   -1.4930   25.0190  -28.9570 C   0  0  0  0  0  0  0  0  0  0  0  0
   -1.5530   26.4090  -28.9690 O   0  0  0  0  0  0  0  0  0  0  0  0
   -5.9440   23.6650  -30.9780 C   0  0  0  0  0  0  0  0  0  0  0  0
   -7.3100   23.7630  -31.2480 C   0  0  0  0  0  0  0  0  0  0  0  0
   -7.9520   22.7670  -31.9810 C   0  0  0  0  0  0  0  0  0  0  0  0
   -7.2450   21.6570  -32.4600 C   0  0  0  0  0  0  0  0  0  0  0  0
   -7.9760   20.7020  -33.1690 O   0  0  0  0  0  0  0  0  0  0  0  0
   -5.8500   21.5520  -32.2030 C   0  0  0  0  0  0  0  0  0  0  0  0
   -4.8270   20.2160  -32.7820 S   0  0  0  0  0  0  0  0  0  0  0  0
   -3.8580   20.6790  -33.8310 O   0  0  0  0  0  0  0  0  0  0  0  0
   -4.0080   19.7200  -31.6220 O   0  0  0  0  0  0  0  0  0  0  0  0
   -5.7790   18.8910  -33.4200 N   0  0  0  0  0  0  0  0  0  0  0  0
   -4.9540   18.0210  -34.2810 C   0  0  0  0  0  0  0  0  0  0  0  0
   -5.5850   16.6250  -34.4100 C   0  0  0  0  0  0  0  0  0  0  0  0
   -5.7040   15.9380  -33.1720 O   0  0  0  0  0  0  0  0  0  0  0  0
   -5.8090   16.7990  -32.0450 C   0  0  0  0  0  0  0  0  0  0  0  0
   -6.4890   18.1440  -32.3590 C   0  0  0  0  0  0  0  0  0  0  0  0
   -5.2220   22.5650  -31.4580 C   0  0  0  0  0  0  0  0  0  0  0  0
   -3.0687   22.2605  -30.2339 H   0  0  0  0  0  0  0  0  0  0  0  0
    0.3831   22.4836  -27.6342 H   0  0  0  0  0  0  0  0  0  0  0  0
    0.2388   24.9739  -27.6524 H   0  0  0  0  0  0  0  0  0  0  0  0
   -7.8810   24.6287  -30.8812 H   0  0  0  0  0  0  0  0  0  0  0  0
   -9.0292   22.8537  -32.1863 H   0  0  0  0  0  0  0  0  0  0  0  0
   -7.5790   20.0300  -33.8050 H   0  0  0  0  0  0  0  0  0  0  0  0
   -4.8734   18.4742  -35.2801 H   0  0  0  0  0  0  0  0  0  0  0  0
   -3.9577   17.9172  -33.8264 H   0  0  0  0  0  0  0  0  0  0  0  0
   -6.5896   16.7362  -34.8440 H   0  0  0  0  0  0  0  0  0  0  0  0
   -4.9176   16.0270  -35.0479 H   0  0  0  0  0  0  0  0  0  0  0  0
   -6.3952   16.2857  -31.2685 H   0  0  0  0  0  0  0  0  0  0  0  0
   -4.7844   17.0246  -31.7145 H   0  0  0  0  0  0  0  0  0  0  0  0
   -7.5203   17.9516  -32.6899 H   0  0  0  0  0  0  0  0  0  0  0  0
   -6.4713   18.7547  -31.4443 H   0  0  0  0  0  0  0  0  0  0  0  0
   -4.1446   22.4926  -31.2483 H   0  0  0  0  0  0  0  0  0  0  0  0
  1  2  2  0
  2  3  2  0
  2  4  1  0
  4  5  1  0
  5  6  2  0
  6  7  1  0
  7  8  1  0
  7  9  2  0
  9 10  1  0
 10 11  2  0
 11 12  1  0
  2 13  1  0
 13 14  2  0
 14 15  1  0
 15 16  2  0
 16 17  1  0
 16 18  1  0
 18 19  1  0
 19 20  2  0
 19 21  2  0
 19 22  1  0
 22 23  1  0
 23 24  1  0
 24 25  1  0
 25 26  1  0
 26 27  1  0
 18 28  2  0
 11  5  1  0
 28 13  1  0
 27 22  1  0
  6 29  1  0
  9 30  1  0
 10 31  1  0
 14 32  1  0
 15 33  1  0
 17 34  1  0
 23 35  1  0
 23 36  1  0
 24 37  1  0
 24 38  1  0
 26 39  1  0
 26 40  1  0
 27 41  1  0
 27 42  1  0
 28 43  1  0
M  CHG  2   4  -1  12  -1
M  END
>  <UniqueID>  (30) 
27

>  <SMILES>  (30) 
O=S(=O)([N-]c1cc(Cl)ccc1[O-])c1ccc(O)c(S(=O)(=O)N2CCOCC2)c1

>  <Energy>  (30) 
64.7578507276679

>  <Genealogy>  (30) 
O=S(=O)([N-]c1cc(Cl)ccc1[O-])c1ccc(O)c(S(=O)(=O)N2CCOCC2)c1 (protonated)
O=S(=O)([N-]c1cc(Cl)ccc1[O-])c1ccc(O)c(S(=O)(=O)N2CCOCC2)c1 (3D coordinates assigned)
O=S(=O)([N-]c1cc(Cl)ccc1[O-])c1ccc(O)c(S(=O)(=O)N2CCOCC2)c1 (nonaromatic ring conformer: 64.7578507276679 kcal/mol)

>  <smiles>  (30) 
O=S(=O)(Nc1cc(Cl)ccc1O)c1ccc(O)c(S(=O)(=O)N2CCOCC2)c1

>  <score_type>  (30) 
oracle

>  <origin>  (30) 
adgpu

>  <m_score__min__energy>  (30) 
-13.789999999999999

>  <m_primary>  (30) 
energy

$$$$
30:0
     RDKit          3D

 59 62  0  0  1  0  0  0  0  0999 V2000
   -1.3300   21.3520  -26.7340 C   0  0  0  0  0  0  0  0  0  0  0  0
   -2.2660   22.1660  -27.5250 C   0  0  0  0  0  0  0  0  0  0  0  0
   -2.7800   21.6190  -28.6890 C   0  0  0  0  0  0  0  0  0  0  0  0
   -3.6540   22.3390  -29.4570 C   0  0  0  0  0  0  0  0  0  0  0  0
   -4.0390   23.6160  -29.0880 C   0  0  0  0  0  0  0  0  0  0  0  0
   -5.1590   24.4600  -30.1310 S   0  0  0  0  0  0  0  0  0  0  0  0
   -5.9910   25.4220  -29.3100 O   0  0  0  0  0  0  0  0  0  0  0  0
   -4.4890   25.2270  -31.2150 O   0  0  0  0  0  0  0  0  0  0  0  0
   -6.2720   23.2940  -30.8180 C   0  0  0  0  0  0  0  0  0  0  0  0
   -7.6140   23.5010  -30.7150 N   0  0  0  0  0  0  0  0  0  0  0  0
   -8.4850   22.6260  -31.2290 C   0  0  0  0  0  0  0  0  0  0  0  0
   -7.9970   21.4830  -31.8840 C   0  0  0  0  0  0  0  0  0  0  0  0
   -9.2060   20.3850  -32.4870 Cl  0  0  0  0  0  0  0  0  0  0  0  0
   -6.6500   21.2510  -32.0020 C   0  0  0  0  0  0  0  0  0  0  0  0
   -6.0290   20.1340  -32.6810 C   0  0  0  0  0  0  0  0  0  0  0  0
   -5.5430   20.4140  -33.8370 O   0  0  0  0  0  0  0  0  0  0  0  0
   -5.8940   18.8180  -32.2580 N   0  0  0  0  0  0  0  0  0  0  0  0
   -5.2780   17.7360  -32.9320 C   0  0  0  0  0  0  0  0  0  0  0  0
   -5.8310   16.4510  -32.7980 C   0  0  0  0  0  0  0  0  0  0  0  0
   -5.2960   15.3480  -33.4180 C   0  0  0  0  0  0  0  0  0  0  0  0
   -4.1770   15.4400  -34.2110 C   0  0  0  0  0  0  0  0  0  0  0  0
   -3.5620   14.0050  -34.9580 S   0  0  0  0  0  0  0  0  0  0  0  0
   -4.6270   13.3020  -35.7840 O   0  0  0  0  0  0  0  0  0  0  0  0
   -2.4460   14.3220  -35.9430 O   0  0  0  0  0  0  0  0  0  0  0  0
   -2.8880   12.8840  -33.8320 N   0  0  0  0  0  0  0  0  0  0  0  0
   -2.0020   13.2310  -32.9850 C   0  0  0  0  0  0  0  0  0  0  0  0
   -1.5330   12.2320  -32.1250 C   0  0  0  0  0  0  0  0  0  0  0  0
   -0.5730   12.5410  -31.1850 C   0  0  0  0  0  0  0  0  0  0  0  0
   -0.0950   11.4720  -30.2900 C   0  0  0  0  0  0  0  0  0  0  0  0
   -0.1350   13.8130  -31.1480 N   0  0  0  0  0  0  0  0  0  0  0  0
   -0.6010   14.7650  -31.9910 C   0  0  0  0  0  0  0  0  0  0  0  0
   -0.0360   16.1490  -31.8540 C   0  0  0  0  0  0  0  0  0  0  0  0
   -1.5450   14.4940  -32.9260 N   0  0  0  0  0  0  0  0  0  0  0  0
   -3.6150   16.6860  -34.3580 C   0  0  0  0  0  0  0  0  0  0  0  0
   -4.1630   17.8150  -33.7240 C   0  0  0  0  0  0  0  0  0  0  0  0
   -5.8470   22.2020  -31.4430 N   0  0  0  0  0  0  0  0  0  0  0  0
   -3.5420   24.1890  -27.9300 C   0  0  0  0  0  0  0  0  0  0  0  0
   -2.6670   23.4430  -27.1820 C   0  0  0  0  0  0  0  0  0  0  0  0
   -1.5175   21.5150  -25.6624 H   0  0  0  0  0  0  0  0  0  0  0  0
   -1.4757   20.2885  -26.9741 H   0  0  0  0  0  0  0  0  0  0  0  0
   -0.2970   21.6439  -26.9741 H   0  0  0  0  0  0  0  0  0  0  0  0
   -2.4853   20.6048  -28.9963 H   0  0  0  0  0  0  0  0  0  0  0  0
   -4.0561   21.8967  -30.3804 H   0  0  0  0  0  0  0  0  0  0  0  0
   -9.5677   22.7987  -31.1402 H   0  0  0  0  0  0  0  0  0  0  0  0
   -6.3140   18.5690  -31.3180 H   0  0  0  0  0  0  0  0  0  0  0  0
   -6.7268   16.3235  -32.1725 H   0  0  0  0  0  0  0  0  0  0  0  0
   -5.7745   14.3677  -33.2765 H   0  0  0  0  0  0  0  0  0  0  0  0
   -1.9273   11.2077  -32.1983 H   0  0  0  0  0  0  0  0  0  0  0  0
   -0.2332   11.7810  -29.2434 H   0  0  0  0  0  0  0  0  0  0  0  0
   -0.6675   10.5520  -30.4793 H   0  0  0  0  0  0  0  0  0  0  0  0
    0.9724   11.2852  -30.4793 H   0  0  0  0  0  0  0  0  0  0  0  0
    0.5920   14.0290  -30.4300 H   0  0  0  0  0  0  0  0  0  0  0  0
    0.0662   16.3994  -30.7878 H   0  0  0  0  0  0  0  0  0  0  0  0
    0.9514   16.1914  -32.3369 H   0  0  0  0  0  0  0  0  0  0  0  0
   -0.7116   16.8703  -32.3369 H   0  0  0  0  0  0  0  0  0  0  0  0
   -2.7183   16.8021  -34.9844 H   0  0  0  0  0  0  0  0  0  0  0  0
   -3.6809   18.7931  -33.8686 H   0  0  0  0  0  0  0  0  0  0  0  0
   -3.8372   25.2028  -27.6217 H   0  0  0  0  0  0  0  0  0  0  0  0
   -2.2628   23.8852  -26.2595 H   0  0  0  0  0  0  0  0  0  0  0  0
  1  2  1  0
  2  3  2  0
  3  4  1  0
  4  5  2  0
  5  6  1  0
  6  7  2  0
  6  8  2  0
  6  9  1  0
  9 10  2  0
 10 11  1  0
 11 12  2  0
 12 13  1  0
 12 14  1  0
 14 15  1  0
 15 16  2  0
 15 17  1  0
 17 18  1  0
 18 19  2  0
 19 20  1  0
 20 21  2  0
 21 22  1  0
 22 23  2  0
 22 24  2  0
 22 25  1  0
 25 26  2  0
 26 27  1  0
 27 28  2  0
 28 29  1  0
 28 30  1  0
 30 31  1  0
 31 32  1  0
 31 33  2  0
 21 34  1  0
 34 35  2  0
 14 36  2  0
  5 37  1  0
 37 38  2  0
 38  2  1  0
 36  9  1  0
 35 18  1  0
 33 26  1  0
  1 39  1  0
  1 40  1  0
  1 41  1  0
  3 42  1  0
  4 43  1  0
 11 44  1  0
 17 45  1  0
 19 46  1  0
 20 47  1  0
 27 48  1  0
 29 49  1  0
 29 50  1  0
 29 51  1  0
 30 52  1  0
 32 53  1  0
 32 54  1  0
 32 55  1  0
 34 56  1  0
 35 57  1  0
 37 58  1  0
 38 59  1  0
M  END
>  <smiles>  (31) 
Cc1ccc(S(=O)(=O)c2ncc(Cl)c(C(=O)Nc3ccc(S(=O)(=O)N=c4cc(C)[nH]c(C)n4)cc3)n2)cc1

>  <score_type>  (31) 
oracle

>  <origin>  (31) 
adgpu

>  <m_score__min__energy>  (31) 
-10.380000000000001

>  <m_primary>  (31) 
energy

$$$$
31:0
     RDKit          3D

 53 55  0  0  0  0  0  0  0  0999 V2000
    0.9350   21.2090  -34.8930 C   0  0  0  0  0  0  0  0  0  0  0  0
   -0.2670   21.5370  -34.1360 N   0  0  0  0  0  0  0  0  0  0  0  0
   -0.4680   21.1900  -32.9000 C   0  0  0  0  0  0  0  0  0  0  0  0
    0.4670   20.4690  -32.2150 N   0  0  0  0  0  0  0  0  0  0  0  0
    0.2940   20.1230  -30.9120 C   0  0  0  0  0  0  0  0  0  0  0  0
    1.2550   19.4100  -30.2730 F   0  0  0  0  0  0  0  0  0  0  0  0
   -0.8560   20.5140  -30.2310 C   0  0  0  0  0  0  0  0  0  0  0  0
   -1.8570   21.2380  -30.9080 C   0  0  0  0  0  0  0  0  0  0  0  0
   -3.0190   21.7230  -30.2870 O   0  0  0  0  0  0  0  0  0  0  0  0
   -4.2560   21.9090  -30.9130 C   0  0  0  0  0  0  0  0  0  0  0  0
   -4.8780   20.8490  -31.6030 C   0  0  0  0  0  0  0  0  0  0  0  0
   -6.0990   21.0420  -32.2650 C   0  0  0  0  0  0  0  0  0  0  0  0
   -6.7640   19.8980  -32.9370 C   0  0  0  0  0  0  0  0  0  0  0  0
   -8.0170   19.9230  -33.0670 O   0  0  0  0  0  0  0  0  0  0  0  0
   -6.0110   18.7950  -33.4930 N   0  0  0  0  0  0  0  0  0  0  0  0
   -4.6560   18.9950  -34.0140 C   0  0  0  0  0  0  0  0  0  0  0  0
   -6.6940   17.5150  -33.7170 C   0  0  0  0  0  0  0  0  0  0  0  0
   -6.6570   22.3270  -32.3130 C   0  0  0  0  0  0  0  0  0  0  0  0
   -6.0370   23.3920  -31.6490 C   0  0  0  0  0  0  0  0  0  0  0  0
   -4.8540   23.1880  -30.9230 C   0  0  0  0  0  0  0  0  0  0  0  0
   -4.2530   24.3290  -30.1800 C   0  0  0  0  0  0  0  0  0  0  0  0
   -3.8720   25.3420  -30.8200 O   0  0  0  0  0  0  0  0  0  0  0  0
   -4.1140   24.3240  -28.7510 N   0  0  0  0  0  0  0  0  0  0  0  0
   -2.8810   24.2220  -28.0280 C   0  0  0  0  0  0  0  0  0  0  0  0
   -1.9790   25.2960  -27.9590 C   0  0  0  0  0  0  0  0  0  0  0  0
   -0.8010   25.1820  -27.2200 C   0  0  0  0  0  0  0  0  0  0  0  0
   -0.5010   23.9940  -26.5300 C   0  0  0  0  0  0  0  0  0  0  0  0
    0.7340   23.8970  -25.7170 C   0  0  0  0  0  0  0  0  0  0  0  0
    0.6980   23.9860  -24.2920 N   0  0  0  0  0  0  0  0  0  0  0  0
    1.8490   23.7530  -26.2910 O   0  0  0  0  0  0  0  0  0  0  0  0
   -1.3870   22.9020  -26.6390 C   0  0  0  0  0  0  0  0  0  0  0  0
   -2.5580   23.0150  -27.3950 C   0  0  0  0  0  0  0  0  0  0  0  0
   -1.6580   21.5570  -32.2580 C   0  0  0  0  0  0  0  0  0  0  0  0
   -2.6010   22.2830  -32.9160 F   0  0  0  0  0  0  0  0  0  0  0  0
    1.7568   20.9847  -34.1971 H   0  0  0  0  0  0  0  0  0  0  0  0
    0.7411   20.3309  -35.5266 H   0  0  0  0  0  0  0  0  0  0  0  0
    1.2140   22.0639  -35.5266 H   0  0  0  0  0  0  0  0  0  0  0  0
   -0.9823   20.2585  -29.1686 H   0  0  0  0  0  0  0  0  0  0  0  0
   -4.3999   19.8585  -31.6224 H   0  0  0  0  0  0  0  0  0  0  0  0
   -3.9522   19.0989  -33.1750 H   0  0  0  0  0  0  0  0  0  0  0  0
   -4.3682   18.1296  -34.6290 H   0  0  0  0  0  0  0  0  0  0  0  0
   -4.6305   19.9066  -34.6290 H   0  0  0  0  0  0  0  0  0  0  0  0
   -6.9391   17.0557  -32.7480 H   0  0  0  0  0  0  0  0  0  0  0  0
   -7.6197   17.6879  -34.2854 H   0  0  0  0  0  0  0  0  0  0  0  0
   -6.0349   16.8423  -34.2854 H   0  0  0  0  0  0  0  0  0  0  0  0
   -7.5866   22.4993  -32.8752 H   0  0  0  0  0  0  0  0  0  0  0  0
   -6.4811   24.3972  -31.6969 H   0  0  0  0  0  0  0  0  0  0  0  0
   -2.2024   26.2327  -28.4907 H   0  0  0  0  0  0  0  0  0  0  0  0
   -0.1006   26.0291  -27.1767 H   0  0  0  0  0  0  0  0  0  0  0  0
    1.5650   23.8080  -23.7380 H   0  0  0  0  0  0  0  0  0  0  0  0
   -0.1450   24.3420  -23.7890 H   0  0  0  0  0  0  0  0  0  0  0  0
   -1.1557   21.9565  -26.1266 H   0  0  0  0  0  0  0  0  0  0  0  0
   -3.2302   22.1499  -27.4933 H   0  0  0  0  0  0  0  0  0  0  0  0
  1  2  1  0
  2  3  2  3
  3  4  1  0
  4  5  1  0
  5  6  1  0
  5  7  2  0
  7  8  1  0
  8  9  1  0
  9 10  1  0
 10 11  2  0
 11 12  1  0
 12 13  1  0
 13 14  2  0
 13 15  1  0
 15 16  1  0
 15 17  1  0
 12 18  2  0
 18 19  1  0
 19 20  2  0
 20 21  1  0
 21 22  2  0
 21 23  1  0
 23 24  1  0
 24 25  2  0
 25 26  1  0
 26 27  2  0
 27 28  1  0
 28 29  1  0
 28 30  2  0
 27 31  1  0
 31 32  2  0
  8 33  2  0
 33 34  1  0
 33  3  1  0
 20 10  1  0
 32 24  1  0
  1 35  1  0
  1 36  1  0
  1 37  1  0
  7 38  1  0
 11 39  1  0
 16 40  1  0
 16 41  1  0
 16 42  1  0
 17 43  1  0
 17 44  1  0
 17 45  1  0
 18 46  1  0
 19 47  1  0
 25 48  1  0
 26 49  1  0
 29 50  1  0
 29 51  1  0
 31 52  1  0
 32 53  1  0
M  CHG  2   4  -1  23  -1
M  END
>  <UniqueID>  (32) 
28

>  <SMILES>  (32) 
CN=c1[n-]c(F)cc(Oc2cc(C(=O)N(C)C)ccc2C(=O)[N-]c2ccc(C(N)=O)cc2)c1F

>  <Energy>  (32) 
71.88027626965543

>  <Genealogy>  (32) 
CN=c1[n-]c(F)cc(Oc2cc(C(=O)N(C)C)ccc2C(=O)[N-]c2ccc(C(N)=O)cc2)c1F (protonated)
CN=c1[n-]c(F)cc(Oc2cc(C(=O)N(C)C)ccc2C(=O)[N-]c2ccc(C(N)=O)cc2)c1F (3D coordinates assigned)
CN=c1[n-]c(F)cc(Oc2cc(C(=O)N(C)C)ccc2C(=O)[N-]c2ccc(C(N)=O)cc2)c1F (optimized conformer: 71.88027626965543 kcal/mol)

>  <smiles>  (32) 
CN=c1[nH]c(F)cc(Oc2cc(C(=O)N(C)C)ccc2C(=O)Nc2ccc(C(N)=O)cc2)c1F

>  <score_type>  (32) 
oracle

>  <origin>  (32) 
adgpu

>  <m_score__min__energy>  (32) 
-11.390000000000001

>  <m_primary>  (32) 
energy

$$$$
32:0
     RDKit          3D

 47 49  0  0  1  0  0  0  0  0999 V2000
    0.2890   20.7450  -36.0710 C   0  0  0  0  0  0  0  0  0  0  0  0
   -0.4710   21.1730  -34.8990 N   0  0  0  0  0  0  0  0  0  0  0  0
   -0.1570   20.6120  -33.6380 C   0  0  0  0  0  0  0  0  0  0  0  0
    0.7670   19.7610  -33.5590 O   0  0  0  0  0  0  0  0  0  0  0  0
   -0.8510   20.9650  -32.4060 C   0  0  0  0  0  0  0  0  0  0  0  0
   -0.4860   20.3080  -31.2510 C   0  0  0  0  0  0  0  0  0  0  0  0
   -1.0970   20.5850  -30.0270 C   0  0  0  0  0  0  0  0  0  0  0  0
   -2.1060   21.5500  -29.9600 C   0  0  0  0  0  0  0  0  0  0  0  0
   -2.4700   22.2060  -31.1100 C   0  0  0  0  0  0  0  0  0  0  0  0
   -3.4850   23.2070  -31.1550 N   0  0  0  0  0  0  0  0  0  0  0  0
   -4.6700   22.8680  -31.5690 C   0  0  0  0  0  0  0  0  0  0  0  0
   -4.9350   21.6030  -31.9440 N   0  0  0  0  0  0  0  0  0  0  0  0
   -6.1700   21.2840  -32.3650 C   0  0  0  0  0  0  0  0  0  0  0  0
   -6.4120   19.9030  -32.7630 C   0  0  0  0  0  0  0  0  0  0  0  0
   -7.3230   19.0900  -32.0750 C   0  0  0  0  0  0  0  0  0  0  0  0
   -7.5740   17.7980  -32.4190 C   0  0  0  0  0  0  0  0  0  0  0  0
   -6.9210   17.2240  -33.4910 C   0  0  0  0  0  0  0  0  0  0  0  0
   -6.0160   17.9860  -34.2000 C   0  0  0  0  0  0  0  0  0  0  0  0
   -5.3440   17.4380  -35.2810 O   0  0  0  0  0  0  0  0  0  0  0  0
   -3.9760   17.0610  -35.2260 C   0  0  0  0  0  0  0  0  0  0  0  0
   -5.7770   19.3000  -33.8300 C   0  0  0  0  0  0  0  0  0  0  0  0
   -7.1110   22.2430  -32.4010 N   0  0  0  0  0  0  0  0  0  0  0  0
   -6.8780   23.5220  -32.0300 C   0  0  0  0  0  0  0  0  0  0  0  0
   -5.6150   23.8720  -31.5930 C   0  0  0  0  0  0  0  0  0  0  0  0
   -5.3420   25.1750  -31.2060 O   0  0  0  0  0  0  0  0  0  0  0  0
   -5.8820   25.6700  -29.9810 C   0  0  0  0  0  0  0  0  0  0  0  0
   -1.8380   21.9070  -32.3220 C   0  0  0  0  0  0  0  0  0  0  0  0
    1.2047   20.2293  -35.7460 H   0  0  0  0  0  0  0  0  0  0  0  0
   -0.3234   20.0591  -36.6747 H   0  0  0  0  0  0  0  0  0  0  0  0
    0.5580   21.6243  -36.6747 H   0  0  0  0  0  0  0  0  0  0  0  0
   -1.2390   21.8820  -34.9730 H   0  0  0  0  0  0  0  0  0  0  0  0
    0.3065   19.5464  -31.2947 H   0  0  0  0  0  0  0  0  0  0  0  0
   -0.7860   20.0465  -29.1196 H   0  0  0  0  0  0  0  0  0  0  0  0
   -2.5992   21.7796  -29.0039 H   0  0  0  0  0  0  0  0  0  0  0  0
   -7.8608   19.5171  -31.2157 H   0  0  0  0  0  0  0  0  0  0  0  0
   -8.3003   17.2083  -31.8405 H   0  0  0  0  0  0  0  0  0  0  0  0
   -7.1184   16.1796  -33.7743 H   0  0  0  0  0  0  0  0  0  0  0  0
   -3.6615   16.9743  -34.1755 H   0  0  0  0  0  0  0  0  0  0  0  0
   -3.8420   16.0925  -35.7300 H   0  0  0  0  0  0  0  0  0  0  0  0
   -3.3648   17.8242  -35.7300 H   0  0  0  0  0  0  0  0  0  0  0  0
   -5.0507   19.8872  -34.4111 H   0  0  0  0  0  0  0  0  0  0  0  0
   -8.0620   22.0200  -32.7200 H   0  0  0  0  0  0  0  0  0  0  0  0
   -7.6813   24.2721  -32.0754 H   0  0  0  0  0  0  0  0  0  0  0  0
   -5.3646   25.1957  -29.1340 H   0  0  0  0  0  0  0  0  0  0  0  0
   -5.7419   26.7600  -29.9324 H   0  0  0  0  0  0  0  0  0  0  0  0
   -6.9557   25.4358  -29.9324 H   0  0  0  0  0  0  0  0  0  0  0  0
   -2.1436   22.4445  -33.2318 H   0  0  0  0  0  0  0  0  0  0  0  0
  1  2  1  0
  2  3  1  0
  3  4  2  0
  3  5  1  0
  5  6  2  0
  6  7  1  0
  7  8  2  0
  8  9  1  0
  9 10  1  0
 10 11  2  0
 11 12  1  0
 12 13  2  0
 13 14  1  0
 14 15  2  0
 15 16  1  0
 16 17  2  0
 17 18  1  0
 18 19  1  0
 19 20  1  0
 18 21  2  0
 13 22  1  0
 22 23  1  0
 23 24  2  0
 24 25  1  0
 25 26  1  0
  9 27  2  0
 27  5  1  0
 24 11  1  0
 21 14  1  0
  1 28  1  0
  1 29  1  0
  1 30  1  0
  2 31  1  0
  6 32  1  0
  7 33  1  0
  8 34  1  0
 15 35  1  0
 16 36  1  0
 17 37  1  0
 20 38  1  0
 20 39  1  0
 20 40  1  0
 21 41  1  0
 22 42  1  0
 23 43  1  0
 26 44  1  0
 26 45  1  0
 26 46  1  0
 27 47  1  0
M  END
>  <smiles>  (33) 
CNC(=O)c1cccc(N=c2nc(-c3cccc(OC)c3)[nH]cc2OC)c1

>  <score_type>  (33) 
oracle

>  <origin>  (33) 
adgpu

>  <m_score__min__energy>  (33) 
-8.5399999999999991

>  <m_primary>  (33) 
energy

$$$$
33:0
     RDKit          3D

 35 37  0  0  0  0  0  0  0  0999 V2000
   -4.8420   21.5270  -33.2570 O   0  0  0  0  0  0  0  0  0  0  0  0
   -5.6520   20.6170  -32.9320 C   0  0  0  0  0  0  0  0  0  0  0  0
   -5.2440   19.1960  -33.0690 C   0  0  0  0  0  0  0  0  0  0  0  0
   -4.3780   18.8070  -34.1070 C   0  0  0  0  0  0  0  0  0  0  0  0
   -4.0000   17.4690  -34.2510 C   0  0  0  0  0  0  0  0  0  0  0  0
   -4.4870   16.4990  -33.3670 C   0  0  0  0  0  0  0  0  0  0  0  0
   -4.1160   15.1640  -33.5010 O   0  0  0  0  0  0  0  0  0  0  0  0
   -5.3560   16.8750  -32.3390 C   0  0  0  0  0  0  0  0  0  0  0  0
   -5.7380   18.2120  -32.1910 C   0  0  0  0  0  0  0  0  0  0  0  0
   -6.9850   21.0030  -32.4100 C   0  0  0  0  0  0  0  0  0  0  0  0
   -8.1130   20.2720  -32.8240 C   0  0  0  0  0  0  0  0  0  0  0  0
   -9.3740   20.5550  -32.2980 C   0  0  0  0  0  0  0  0  0  0  0  0
   -9.5260   21.5630  -31.3480 C   0  0  0  0  0  0  0  0  0  0  0  0
   -8.4190   22.2990  -30.9250 C   0  0  0  0  0  0  0  0  0  0  0  0
   -7.1410   22.0390  -31.4520 C   0  0  0  0  0  0  0  0  0  0  0  0
   -6.0060   22.8870  -31.0190 C   0  0  0  0  0  0  0  0  0  0  0  0
   -6.0340   24.2780  -31.2270 C   0  0  0  0  0  0  0  0  0  0  0  0
   -4.9660   25.0760  -30.8080 C   0  0  0  0  0  0  0  0  0  0  0  0
   -3.8640   24.4960  -30.1710 C   0  0  0  0  0  0  0  0  0  0  0  0
   -2.8030   25.2900  -29.7560 O   0  0  0  0  0  0  0  0  0  0  0  0
   -3.8330   23.1160  -29.9510 C   0  0  0  0  0  0  0  0  0  0  0  0
   -4.9000   22.3140  -30.3680 C   0  0  0  0  0  0  0  0  0  0  0  0
   -3.9955   19.5612  -34.8105 H   0  0  0  0  0  0  0  0  0  0  0  0
   -3.3170   17.1771  -35.0624 H   0  0  0  0  0  0  0  0  0  0  0  0
   -3.1620   14.8600  -33.3460 H   0  0  0  0  0  0  0  0  0  0  0  0
   -5.7414   16.1154  -31.6429 H   0  0  0  0  0  0  0  0  0  0  0  0
   -6.4287   18.4969  -31.3837 H   0  0  0  0  0  0  0  0  0  0  0  0
   -8.0001   19.4704  -33.5688 H   0  0  0  0  0  0  0  0  0  0  0  0
  -10.2502   19.9810  -32.6340 H   0  0  0  0  0  0  0  0  0  0  0  0
  -10.5207   21.7788  -30.9308 H   0  0  0  0  0  0  0  0  0  0  0  0
   -8.5468   23.0905  -30.1719 H   0  0  0  0  0  0  0  0  0  0  0  0
   -6.9010   24.7399  -31.7220 H   0  0  0  0  0  0  0  0  0  0  0  0
   -4.9920   26.1622  -30.9795 H   0  0  0  0  0  0  0  0  0  0  0  0
   -2.9673   22.6598  -29.4487 H   0  0  0  0  0  0  0  0  0  0  0  0
   -4.8736   21.2295  -30.1856 H   0  0  0  0  0  0  0  0  0  0  0  0
  1  2  2  0
  2  3  1  0
  3  4  2  0
  4  5  1  0
  5  6  2  0
  6  7  1  0
  6  8  1  0
  8  9  2  0
  2 10  1  0
 10 11  2  0
 11 12  1  0
 12 13  2  0
 13 14  1  0
 14 15  2  0
 15 16  1  0
 16 17  2  0
 17 18  1  0
 18 19  2  0
 19 20  1  0
 19 21  1  0
 21 22  2  0
  9  3  1  0
 15 10  1  0
 22 16  1  0
  4 23  1  0
  5 24  1  0
  7 25  1  0
  8 26  1  0
  9 27  1  0
 11 28  1  0
 12 29  1  0
 13 30  1  0
 14 31  1  0
 17 32  1  0
 18 33  1  0
 21 34  1  0
 22 35  1  0
M  CHG  1  20  -1
M  END
>  <UniqueID>  (34) 
29

>  <SMILES>  (34) 
O=C(c1ccc(O)cc1)c1ccccc1-c1ccc([O-])cc1

>  <Energy>  (34) 
51.831092564952016

>  <Genealogy>  (34) 
O=C(c1ccc(O)cc1)c1ccccc1-c1ccc([O-])cc1 (protonated)
O=C(c1ccc(O)cc1)c1ccccc1-c1ccc([O-])cc1 (3D coordinates assigned)
O=C(c1ccc(O)cc1)c1ccccc1-c1ccc([O-])cc1 (optimized conformer: 51.831092564952016 kcal/mol)

>  <smiles>  (34) 
O=C(c1ccc(O)cc1)c1ccccc1-c1ccc(O)cc1

>  <score_type>  (34) 
oracle

>  <origin>  (34) 
adgpu

>  <m_score__min__energy>  (34) 
-11.17

>  <m_primary>  (34) 
energy

$$$$
34:0
     RDKit          3D

 43 45  0  0  0  0  0  0  0  0999 V2000
    0.0220   21.0850  -35.6300 C   0  0  0  0  0  0  0  0  0  0  0  0
   -0.7120   21.6850  -34.5670 O   0  0  0  0  0  0  0  0  0  0  0  0
   -0.7800   21.1780  -33.2590 C   0  0  0  0  0  0  0  0  0  0  0  0
    0.3810   20.9480  -32.4930 C   0  0  0  0  0  0  0  0  0  0  0  0
    0.2850   20.4340  -31.2000 C   0  0  0  0  0  0  0  0  0  0  0  0
   -0.9650   20.1490  -30.6520 C   0  0  0  0  0  0  0  0  0  0  0  0
   -2.1230   20.3750  -31.3970 C   0  0  0  0  0  0  0  0  0  0  0  0
   -2.0450   20.8840  -32.7070 C   0  0  0  0  0  0  0  0  0  0  0  0
   -3.2350   21.1130  -33.4860 N   0  0  0  0  0  0  0  0  0  0  0  0
   -4.8150   20.5870  -32.9970 S   0  0  0  0  0  0  0  0  0  0  0  0
   -5.5530   20.0660  -34.1990 O   0  0  0  0  0  0  0  0  0  0  0  0
   -4.6800   19.4840  -31.9860 O   0  0  0  0  0  0  0  0  0  0  0  0
   -5.6940   21.9240  -32.2580 C   0  0  0  0  0  0  0  0  0  0  0  0
   -7.0900   21.8860  -32.1600 C   0  0  0  0  0  0  0  0  0  0  0  0
   -7.7800   22.9570  -31.5900 C   0  0  0  0  0  0  0  0  0  0  0  0
   -7.0830   24.0700  -31.1140 C   0  0  0  0  0  0  0  0  0  0  0  0
   -5.6800   24.1230  -31.2020 C   0  0  0  0  0  0  0  0  0  0  0  0
   -4.9360   25.3030  -30.7010 C   0  0  0  0  0  0  0  0  0  0  0  0
   -5.5430   26.3920  -30.5060 O   0  0  0  0  0  0  0  0  0  0  0  0
   -3.5410   25.1930  -30.3870 N   0  0  0  0  0  0  0  0  0  0  0  0
   -2.9510   24.3390  -29.3960 C   0  0  0  0  0  0  0  0  0  0  0  0
   -1.7510   23.6850  -29.6930 C   0  0  0  0  0  0  0  0  0  0  0  0
   -1.1440   22.8640  -28.7400 C   0  0  0  0  0  0  0  0  0  0  0  0
   -1.7390   22.7180  -27.4870 C   0  0  0  0  0  0  0  0  0  0  0  0
   -2.8900   23.3810  -27.1990 N   0  0  0  0  0  0  0  0  0  0  0  0
   -3.5030   24.1820  -28.1120 C   0  0  0  0  0  0  0  0  0  0  0  0
   -4.9930   23.0360  -31.7730 C   0  0  0  0  0  0  0  0  0  0  0  0
    0.8102   20.4407  -35.2134 H   0  0  0  0  0  0  0  0  0  0  0  0
   -0.6571   20.4801  -36.2488 H   0  0  0  0  0  0  0  0  0  0  0  0
    0.4798   21.8708  -36.2488 H   0  0  0  0  0  0  0  0  0  0  0  0
    1.3697   21.1756  -32.9182 H   0  0  0  0  0  0  0  0  0  0  0  0
    1.1967   20.2532  -30.6117 H   0  0  0  0  0  0  0  0  0  0  0  0
   -1.0384   19.7456  -29.6313 H   0  0  0  0  0  0  0  0  0  0  0  0
   -3.1062   20.1533  -30.9564 H   0  0  0  0  0  0  0  0  0  0  0  0
   -3.1540   21.5120  -34.4480 H   0  0  0  0  0  0  0  0  0  0  0  0
   -7.6435   21.0114  -32.5325 H   0  0  0  0  0  0  0  0  0  0  0  0
   -8.8770   22.9245  -31.5153 H   0  0  0  0  0  0  0  0  0  0  0  0
   -7.6347   24.9104  -30.6675 H   0  0  0  0  0  0  0  0  0  0  0  0
   -1.2839   23.8176  -30.6800 H   0  0  0  0  0  0  0  0  0  0  0  0
   -0.2068   22.3382  -28.9751 H   0  0  0  0  0  0  0  0  0  0  0  0
   -1.2765   22.0659  -26.7315 H   0  0  0  0  0  0  0  0  0  0  0  0
   -4.4318   24.7077  -27.8455 H   0  0  0  0  0  0  0  0  0  0  0  0
   -3.8952   23.0594  -31.8393 H   0  0  0  0  0  0  0  0  0  0  0  0
  1  2  1  0
  2  3  1  0
  3  4  2  0
  4  5  1  0
  5  6  2  0
  6  7  1  0
  7  8  2  0
  8  9  1  0
  9 10  1  0
 10 11  2  0
 10 12  2  0
 10 13  1  0
 13 14  2  0
 14 15  1  0
 15 16  2  0
 16 17  1  0
 17 18  1  0
 18 19  2  0
 18 20  1  0
 20 21  1  0
 21 22  2  0
 22 23  1  0
 23 24  2  0
 24 25  1  0
 25 26  2  0
 17 27  2  0
  8  3  1  0
 27 13  1  0
 26 21  1  0
  1 28  1  0
  1 29  1  0
  1 30  1  0
  4 31  1  0
  5 32  1  0
  6 33  1  0
  7 34  1  0
  9 35  1  0
 14 36  1  0
 15 37  1  0
 16 38  1  0
 22 39  1  0
 23 40  1  0
 24 41  1  0
 26 42  1  0
 27 43  1  0
M  CHG  1  20  -1
M  END
>  <UniqueID>  (35) 
30

>  <SMILES>  (35) 
COc1ccccc1NS(=O)(=O)c1cccc(C(=O)[N-]c2cccnc2)c1

>  <Energy>  (35) 
53.541841017169475

>  <Genealogy>  (35) 
COc1ccccc1NS(=O)(=O)c1cccc(C(=O)[N-]c2cccnc2)c1 (protonated)
COc1ccccc1NS(=O)(=O)c1cccc(C(=O)[N-]c2cccnc2)c1 (3D coordinates assigned)
COc1ccccc1NS(=O)(=O)c1cccc(C(=O)[N-]c2cccnc2)c1 (optimized conformer: 53.541841017169475 kcal/mol)

>  <smiles>  (35) 
COc1ccccc1NS(=O)(=O)c1cccc(C(=O)Nc2cccnc2)c1

>  <score_type>  (35) 
oracle

>  <origin>  (35) 
adgpu

>  <m_score__min__energy>  (35) 
-10.06

>  <m_primary>  (35) 
energy

$$$$
35:0
     RDKit          3D

 51 53  0  0  0  0  0  0  0  0999 V2000
   -6.5350   25.6850  -29.3560 C   0  0  0  0  0  0  0  0  0  0  0  0
   -6.8610   24.6860  -30.4620 C   0  0  0  0  0  0  0  0  0  0  0  0
   -5.6970   23.8380  -30.7510 N   0  0  0  0  0  0  0  0  0  0  0  0
   -4.4200   24.1230  -30.1380 C   0  0  0  0  0  0  0  0  0  0  0  0
   -3.7250   25.0900  -30.5560 O   0  0  0  0  0  0  0  0  0  0  0  0
   -3.8460   23.2400  -29.0600 C   0  0  0  0  0  0  0  0  0  0  0  0
   -3.3110   24.0630  -27.9620 N   0  0  0  0  0  0  0  0  0  0  0  0
   -4.1760   24.5580  -27.0120 C   0  0  0  0  0  0  0  0  0  0  0  0
   -3.7140   25.2750  -25.9530 N   0  0  0  0  0  0  0  0  0  0  0  0
   -2.3860   25.5020  -25.8420 C   0  0  0  0  0  0  0  0  0  0  0  0
   -1.6190   26.3630  -24.6260 S   0  0  0  0  0  0  0  0  0  0  0  0
   -0.0670   26.1540  -25.2740 C   0  0  0  0  0  0  0  0  0  0  0  0
    1.1730   26.7300  -24.6630 C   0  0  0  0  0  0  0  0  0  0  0  0
   -0.1440   25.4100  -26.4640 C   0  0  0  0  0  0  0  0  0  0  0  0
    1.0490   25.0520  -27.3130 C   0  0  0  0  0  0  0  0  0  0  0  0
   -1.4740   25.0430  -26.7710 C   0  0  0  0  0  0  0  0  0  0  0  0
   -1.9570   24.3000  -27.8590 C   0  0  0  0  0  0  0  0  0  0  0  0
   -1.1620   23.8490  -28.7300 O   0  0  0  0  0  0  0  0  0  0  0  0
   -5.9070   22.6150  -31.4790 C   0  0  0  0  0  0  0  0  0  0  0  0
   -7.1770   22.0230  -31.4870 C   0  0  0  0  0  0  0  0  0  0  0  0
   -7.4090   20.8590  -32.2220 C   0  0  0  0  0  0  0  0  0  0  0  0
   -6.3770   20.2680  -32.9610 C   0  0  0  0  0  0  0  0  0  0  0  0
   -6.6680   19.1090  -33.6980 O   0  0  0  0  0  0  0  0  0  0  0  0
   -5.7300   18.4170  -34.5160 C   0  0  0  0  0  0  0  0  0  0  0  0
   -5.0950   20.8540  -32.9440 C   0  0  0  0  0  0  0  0  0  0  0  0
   -4.8540   22.0290  -32.2040 C   0  0  0  0  0  0  0  0  0  0  0  0
   -3.5860   22.6330  -32.1520 O   0  0  0  0  0  0  0  0  0  0  0  0
   -2.3670   21.9330  -31.9210 C   0  0  0  0  0  0  0  0  0  0  0  0
   -6.6899   25.2103  -28.3758 H   0  0  0  0  0  0  0  0  0  0  0  0
   -5.4862   26.0038  -29.4474 H   0  0  0  0  0  0  0  0  0  0  0  0
   -7.1939   26.5611  -29.4474 H   0  0  0  0  0  0  0  0  0  0  0  0
   -7.6999   24.0513  -30.1404 H   0  0  0  0  0  0  0  0  0  0  0  0
   -7.1313   25.2404  -31.3728 H   0  0  0  0  0  0  0  0  0  0  0  0
   -4.6364   22.5821  -28.6696 H   0  0  0  0  0  0  0  0  0  0  0  0
   -3.0318   22.6354  -29.4860 H   0  0  0  0  0  0  0  0  0  0  0  0
   -5.2554   24.3709  -27.1111 H   0  0  0  0  0  0  0  0  0  0  0  0
    1.0929   26.6928  -23.5666 H   0  0  0  0  0  0  0  0  0  0  0  0
    2.0469   26.1456  -24.9868 H   0  0  0  0  0  0  0  0  0  0  0  0
    1.2901   27.7747  -24.9868 H   0  0  0  0  0  0  0  0  0  0  0  0
    1.8987   24.7970  -26.6626 H   0  0  0  0  0  0  0  0  0  0  0  0
    0.8013   24.1886  -27.9480 H   0  0  0  0  0  0  0  0  0  0  0  0
    1.3176   25.9091  -27.9480 H   0  0  0  0  0  0  0  0  0  0  0  0
   -7.9960   22.4781  -30.9107 H   0  0  0  0  0  0  0  0  0  0  0  0
   -8.4099   20.4028  -32.2205 H   0  0  0  0  0  0  0  0  0  0  0  0
   -5.0091   17.8852  -33.8777 H   0  0  0  0  0  0  0  0  0  0  0  0
   -6.2614   17.6929  -35.1511 H   0  0  0  0  0  0  0  0  0  0  0  0
   -5.1950   19.1384  -35.1511 H   0  0  0  0  0  0  0  0  0  0  0  0
   -4.2758   20.3903  -33.5131 H   0  0  0  0  0  0  0  0  0  0  0  0
   -2.1991   21.8366  -30.8382 H   0  0  0  0  0  0  0  0  0  0  0  0
   -2.4276   20.9321  -32.3732 H   0  0  0  0  0  0  0  0  0  0  0  0
   -1.5331   22.4898  -32.3732 H   0  0  0  0  0  0  0  0  0  0  0  0
  1  2  1  0
  2  3  1  0
  3  4  1  0
  4  5  2  0
  4  6  1  0
  6  7  1  0
  7  8  1  0
  8  9  2  0
  9 10  1  0
 10 11  1  0
 11 12  1  0
 12 13  1  0
 12 14  2  0
 14 15  1  0
 14 16  1  0
 16 17  1  0
 17 18  2  0
  3 19  1  0
 19 20  2  0
 20 21  1  0
 21 22  2  0
 22 23  1  0
 23 24  1  0
 22 25  1  0
 25 26  2  0
 26 27  1  0
 27 28  1  0
 17  7  1  0
 26 19  1  0
 16 10  2  0
  1 29  1  0
  1 30  1  0
  1 31  1  0
  2 32  1  0
  2 33  1  0
  6 34  1  0
  6 35  1  0
  8 36  1  0
 13 37  1  0
 13 38  1  0
 13 39  1  0
 15 40  1  0
 15 41  1  0
 15 42  1  0
 20 43  1  0
 21 44  1  0
 24 45  1  0
 24 46  1  0
 24 47  1  0
 25 48  1  0
 28 49  1  0
 28 50  1  0
 28 51  1  0
M  END
>  <UniqueID>  (36) 
31

>  <SMILES>  (36) 
CCN(C(=O)Cn1cnc2sc(C)c(C)c2c1=O)c1ccc(OC)cc1OC

>  <Energy>  (36) 
87.81029705192611

>  <Genealogy>  (36) 
CCN(C(=O)Cn1cnc2sc(C)c(C)c2c1=O)c1ccc(OC)cc1OC (3D coordinates assigned)
CCN(C(=O)Cn1cnc2sc(C)c(C)c2c1=O)c1ccc(OC)cc1OC (optimized conformer: 87.81029705192611 kcal/mol)

>  <smiles>  (36) 
CCN(C(=O)Cn1cnc2sc(C)c(C)c2c1=O)c1ccc(OC)cc1OC

>  <score_type>  (36) 
oracle

>  <origin>  (36) 
adgpu

>  <m_score__min__energy>  (36) 
-8.8599999999999994

>  <m_primary>  (36) 
energy

$$$$
36:0
     RDKit          3D

 42 45  0  0  0  0  0  0  0  0999 V2000
   -3.2350   24.1290  -27.9260 C   0  0  0  0  0  0  0  0  0  0  0  0
   -3.9010   24.3940  -29.2330 C   0  0  0  0  0  0  0  0  0  0  0  0
   -5.0460   23.7840  -29.6980 C   0  0  0  0  0  0  0  0  0  0  0  0
   -5.2420   24.3970  -30.9220 C   0  0  0  0  0  0  0  0  0  0  0  0
   -6.2070   24.1700  -31.7610 N   0  0  0  0  0  0  0  0  0  0  0  0
   -7.4800   23.0190  -31.5010 S   0  0  0  0  0  0  0  0  0  0  0  0
   -8.6850   23.4320  -32.2980 O   0  0  0  0  0  0  0  0  0  0  0  0
   -7.8390   23.0030  -30.0420 O   0  0  0  0  0  0  0  0  0  0  0  0
   -6.9450   21.4090  -31.9750 C   0  0  0  0  0  0  0  0  0  0  0  0
   -5.5790   21.1170  -32.0810 C   0  0  0  0  0  0  0  0  0  0  0  0
   -5.1620   19.8330  -32.4450 C   0  0  0  0  0  0  0  0  0  0  0  0
   -6.1030   18.8310  -32.7250 C   0  0  0  0  0  0  0  0  0  0  0  0
   -5.6460   17.5120  -33.0720 N   0  0  0  0  0  0  0  0  0  0  0  0
   -4.7350   17.2330  -34.1480 C   0  0  0  0  0  0  0  0  0  0  0  0
   -4.0930   18.1680  -34.7000 O   0  0  0  0  0  0  0  0  0  0  0  0
   -4.5170   15.8470  -34.5860 C   0  0  0  0  0  0  0  0  0  0  0  0
   -3.4810   15.4130  -35.4120 C   0  0  0  0  0  0  0  0  0  0  0  0
   -3.6930   14.0600  -35.5390 C   0  0  0  0  0  0  0  0  0  0  0  0
   -2.9870   13.0860  -36.2420 C   0  0  0  0  0  0  0  0  0  0  0  0
   -3.4590   11.7620  -36.1770 C   0  0  0  0  0  0  0  0  0  0  0  0
   -4.6120   11.4490  -35.4210 C   0  0  0  0  0  0  0  0  0  0  0  0
   -5.3020   12.4570  -34.7230 C   0  0  0  0  0  0  0  0  0  0  0  0
   -4.8100   13.7580  -34.8060 C   0  0  0  0  0  0  0  0  0  0  0  0
   -5.2940   14.8360  -34.2400 O   0  0  0  0  0  0  0  0  0  0  0  0
   -7.4720   19.1240  -32.6000 C   0  0  0  0  0  0  0  0  0  0  0  0
   -7.8890   20.4080  -32.2350 C   0  0  0  0  0  0  0  0  0  0  0  0
   -4.2750   25.3030  -31.1530 N   0  0  0  0  0  0  0  0  0  0  0  0
   -3.4890   25.2760  -30.1150 O   0  0  0  0  0  0  0  0  0  0  0  0
   -3.9161   24.4000  -27.1058 H   0  0  0  0  0  0  0  0  0  0  0  0
   -2.9808   23.0612  -27.8539 H   0  0  0  0  0  0  0  0  0  0  0  0
   -2.3167   24.7302  -27.8539 H   0  0  0  0  0  0  0  0  0  0  0  0
   -5.6530   23.0037  -29.2156 H   0  0  0  0  0  0  0  0  0  0  0  0
   -4.8330   21.8994  -31.8775 H   0  0  0  0  0  0  0  0  0  0  0  0
   -4.0876   19.6068  -32.5123 H   0  0  0  0  0  0  0  0  0  0  0  0
   -5.9240   16.7190  -32.4490 H   0  0  0  0  0  0  0  0  0  0  0  0
   -2.6771   16.0155  -35.8601 H   0  0  0  0  0  0  0  0  0  0  0  0
   -2.0919   13.3431  -36.8274 H   0  0  0  0  0  0  0  0  0  0  0  0
   -2.9274   10.9653  -36.7179 H   0  0  0  0  0  0  0  0  0  0  0  0
   -4.9720   10.4104  -35.3783 H   0  0  0  0  0  0  0  0  0  0  0  0
   -6.2001   12.2257  -34.1314 H   0  0  0  0  0  0  0  0  0  0  0  0
   -8.2191   18.3394  -32.7902 H   0  0  0  0  0  0  0  0  0  0  0  0
   -8.9626   20.6324  -32.1518 H   0  0  0  0  0  0  0  0  0  0  0  0
  1  2  1  0
  2  3  2  0
  3  4  1  0
  4  5  2  3
  5  6  1  0
  6  7  2  0
  6  8  2  0
  6  9  1  0
  9 10  2  0
 10 11  1  0
 11 12  2  0
 12 13  1  0
 13 14  1  0
 14 15  2  0
 14 16  1  0
 16 17  2  0
 17 18  1  0
 18 19  2  0
 19 20  1  0
 20 21  2  0
 21 22  1  0
 22 23  2  0
 23 24  1  0
 12 25  1  0
 25 26  2  0
  4 27  1  0
 27 28  1  0
 28  2  1  0
 26  9  1  0
 24 16  1  0
 23 18  1  0
  1 29  1  0
  1 30  1  0
  1 31  1  0
  3 32  1  0
 10 33  1  0
 11 34  1  0
 13 35  1  0
 17 36  1  0
 19 37  1  0
 20 38  1  0
 21 39  1  0
 22 40  1  0
 25 41  1  0
 26 42  1  0
M  CHG  1  27  -1
M  END
>  <UniqueID>  (37) 
32

>  <SMILES>  (37) 
Cc1cc(=NS(=O)(=O)c2ccc(NC(=O)c3cc4ccccc4o3)cc2)[n-]o1

>  <Energy>  (37) 
115.69156577944652

>  <Genealogy>  (37) 
Cc1cc(=NS(=O)(=O)c2ccc(NC(=O)c3cc4ccccc4o3)cc2)[n-]o1 (protonated)
Cc1cc(=NS(=O)(=O)c2ccc(NC(=O)c3cc4ccccc4o3)cc2)[n-]o1 (3D coordinates assigned)
Cc1cc(=NS(=O)(=O)c2ccc(NC(=O)c3cc4ccccc4o3)cc2)[n-]o1 (optimized conformer: 115.69156577944652 kcal/mol)

>  <smiles>  (37) 
Cc1cc(=NS(=O)(=O)c2ccc(NC(=O)c3cc4ccccc4o3)cc2)[nH]o1

>  <score_type>  (37) 
oracle

>  <origin>  (37) 
adgpu

>  <m_score__min__energy>  (37) 
-10.210000000000001

>  <m_primary>  (37) 
energy

$$$$
37:0
     RDKit          3D

 57 60  0  0  0  0  0  0  0  0999 V2000
   -1.8680   15.1330  -32.8760 C   0  0  0  0  0  0  0  0  0  0  0  0
   -0.8150   16.5360  -33.1650 S   0  0  0  0  0  0  0  0  0  0  0  0
   -0.2300   16.4300  -34.5450 O   0  0  0  0  0  0  0  0  0  0  0  0
   -1.6230   17.7970  -33.0460 O   0  0  0  0  0  0  0  0  0  0  0  0
    0.4570   16.5410  -31.9870 N   0  0  0  0  0  0  0  0  0  0  0  0
    0.3780   17.1540  -30.6930 C   0  0  0  0  0  0  0  0  0  0  0  0
    0.7720   16.4820  -29.5240 C   0  0  0  0  0  0  0  0  0  0  0  0
    0.6710   17.1130  -28.2820 C   0  0  0  0  0  0  0  0  0  0  0  0
    0.1720   18.4140  -28.1940 C   0  0  0  0  0  0  0  0  0  0  0  0
   -0.2300   19.1040  -29.3520 C   0  0  0  0  0  0  0  0  0  0  0  0
   -0.7850   20.4790  -29.2570 C   0  0  0  0  0  0  0  0  0  0  0  0
   -0.4410   21.4520  -30.2130 C   0  0  0  0  0  0  0  0  0  0  0  0
   -0.9480   22.7510  -30.1160 C   0  0  0  0  0  0  0  0  0  0  0  0
   -1.8010   23.0990  -29.0590 C   0  0  0  0  0  0  0  0  0  0  0  0
   -2.4020   24.7490  -28.9040 S   0  0  0  0  0  0  0  0  0  0  0  0
   -3.1130   24.9240  -27.5910 O   0  0  0  0  0  0  0  0  0  0  0  0
   -1.2310   25.6900  -28.9360 O   0  0  0  0  0  0  0  0  0  0  0  0
   -3.4880   25.1590  -30.1920 N   0  0  0  0  0  0  0  0  0  0  0  0
   -4.4310   24.2430  -30.7570 C   0  0  0  0  0  0  0  0  0  0  0  0
   -4.0320   22.9890  -31.2460 C   0  0  0  0  0  0  0  0  0  0  0  0
   -4.9770   22.1090  -31.7810 C   0  0  0  0  0  0  0  0  0  0  0  0
   -6.3400   22.4610  -31.8090 C   0  0  0  0  0  0  0  0  0  0  0  0
   -7.3220   21.5950  -32.3160 O   0  0  0  0  0  0  0  0  0  0  0  0
   -7.1140   20.2610  -32.6990 C   0  0  0  0  0  0  0  0  0  0  0  0
   -8.0690   19.3060  -32.3410 C   0  0  0  0  0  0  0  0  0  0  0  0
   -7.9010   17.9700  -32.7000 C   0  0  0  0  0  0  0  0  0  0  0  0
   -6.7690   17.5660  -33.4220 C   0  0  0  0  0  0  0  0  0  0  0  0
   -6.6150   15.8590  -33.8310 Cl  0  0  0  0  0  0  0  0  0  0  0  0
   -5.7860   18.5130  -33.7870 C   0  0  0  0  0  0  0  0  0  0  0  0
   -4.5550   18.0930  -34.5650 C   0  0  0  0  0  0  0  0  0  0  0  0
   -4.8640   17.7560  -35.8730 F   0  0  0  0  0  0  0  0  0  0  0  0
   -3.6410   19.1350  -34.5840 F   0  0  0  0  0  0  0  0  0  0  0  0
   -3.9750   16.9880  -33.9640 F   0  0  0  0  0  0  0  0  0  0  0  0
   -5.9600   19.8550  -33.3950 C   0  0  0  0  0  0  0  0  0  0  0  0
   -6.7270   23.7310  -31.3660 C   0  0  0  0  0  0  0  0  0  0  0  0
   -5.7770   24.6200  -30.8480 C   0  0  0  0  0  0  0  0  0  0  0  0
   -2.1510   22.1360  -28.1060 C   0  0  0  0  0  0  0  0  0  0  0  0
   -1.6500   20.8340  -28.2050 C   0  0  0  0  0  0  0  0  0  0  0  0
   -0.1160   18.4620  -30.6000 C   0  0  0  0  0  0  0  0  0  0  0  0
   -1.9840   14.9785  -31.7931 H   0  0  0  0  0  0  0  0  0  0  0  0
   -2.8541   15.3154  -33.3280 H   0  0  0  0  0  0  0  0  0  0  0  0
   -1.4174   14.2371  -33.3280 H   0  0  0  0  0  0  0  0  0  0  0  0
    1.1615   15.4552  -29.5870 H   0  0  0  0  0  0  0  0  0  0  0  0
    0.9855   16.5834  -27.3706 H   0  0  0  0  0  0  0  0  0  0  0  0
    0.0926   18.9030  -27.2119 H   0  0  0  0  0  0  0  0  0  0  0  0
    0.2316   21.1887  -31.0426 H   0  0  0  0  0  0  0  0  0  0  0  0
   -0.6768   23.5030  -30.8716 H   0  0  0  0  0  0  0  0  0  0  0  0
   -2.9719   22.6979  -31.2080 H   0  0  0  0  0  0  0  0  0  0  0  0
   -4.6543   21.1369  -32.1821 H   0  0  0  0  0  0  0  0  0  0  0  0
   -8.9596   19.6108  -31.7719 H   0  0  0  0  0  0  0  0  0  0  0  0
   -8.6612   17.2277  -32.4152 H   0  0  0  0  0  0  0  0  0  0  0  0
   -5.1833   20.5956  -33.6362 H   0  0  0  0  0  0  0  0  0  0  0  0
   -7.7832   24.0325  -31.4250 H   0  0  0  0  0  0  0  0  0  0  0  0
   -6.0894   25.6194  -30.5109 H   0  0  0  0  0  0  0  0  0  0  0  0
   -2.8221   22.4038  -27.2766 H   0  0  0  0  0  0  0  0  0  0  0  0
   -1.9342   20.0815  -27.4547 H   0  0  0  0  0  0  0  0  0  0  0  0
   -0.4187   18.9942  -31.5139 H   0  0  0  0  0  0  0  0  0  0  0  0
  1  2  1  0
  2  3  2  0
  2  4  2  0
  2  5  1  0
  5  6  1  0
  6  7  2  0
  7  8  1  0
  8  9  2  0
  9 10  1  0
 10 11  1  0
 11 12  2  0
 12 13  1  0
 13 14  2  0
 14 15  1  0
 15 16  2  0
 15 17  2  0
 15 18  1  0
 18 19  1  0
 19 20  2  0
 20 21  1  0
 21 22  2  0
 22 23  1  0
 23 24  1  0
 24 25  2  0
 25 26  1  0
 26 27  2  0
 27 28  1  0
 27 29  1  0
 29 30  1  0
 30 31  1  0
 30 32  1  0
 30 33  1  0
 29 34  2  0
 22 35  1  0
 35 36  2  0
 14 37  1  0
 37 38  2  0
 10 39  2  0
 39  6  1  0
 38 11  1  0
 36 19  1  0
 34 24  1  0
  1 40  1  0
  1 41  1  0
  1 42  1  0
  7 43  1  0
  8 44  1  0
  9 45  1  0
 12 46  1  0
 13 47  1  0
 20 48  1  0
 21 49  1  0
 25 50  1  0
 26 51  1  0
 34 52  1  0
 35 53  1  0
 36 54  1  0
 37 55  1  0
 38 56  1  0
 39 57  1  0
M  CHG  2   5  -1  18  -1
M  END
>  <UniqueID>  (38) 
33

>  <SMILES>  (38) 
CS(=O)(=O)[N-]c1cccc(-c2ccc(S(=O)(=O)[N-]c3ccc(Oc4ccc(Cl)c(C(F)(F)F)c4)cc3)cc2)c1

>  <Energy>  (38) 
81.95115368686734

>  <Genealogy>  (38) 
CS(=O)(=O)[N-]c1cccc(-c2ccc(S(=O)(=O)[N-]c3ccc(Oc4ccc(Cl)c(C(F)(F)F)c4)cc3)cc2)c1 (protonated)
CS(=O)(=O)[N-]c1cccc(-c2ccc(S(=O)(=O)[N-]c3ccc(Oc4ccc(Cl)c(C(F)(F)F)c4)cc3)cc2)c1 (3D coordinates assigned)
CS(=O)(=O)[N-]c1cccc(-c2ccc(S(=O)(=O)[N-]c3ccc(Oc4ccc(Cl)c(C(F)(F)F)c4)cc3)cc2)c1 (optimized conformer: 81.95115368686734 kcal/mol)

>  <smiles>  (38) 
CS(=O)(=O)Nc1cccc(-c2ccc(S(=O)(=O)Nc3ccc(Oc4ccc(Cl)c(C(F)(F)F)c4)cc3)cc2)c1

>  <score_type>  (38) 
oracle

>  <origin>  (38) 
adgpu

>  <m_score__min__energy>  (38) 
-11.68

>  <m_primary>  (38) 
energy

$$$$
38:0
     RDKit          3D

 29 30  0  0  0  0  0  0  0  0999 V2000
   -4.0180   24.5660  -28.0500 O   0  0  0  0  0  0  0  0  0  0  0  0
   -3.0800   24.5570  -29.2250 S   0  0  0  0  0  0  0  0  0  0  0  0
   -1.8860   25.4060  -28.8920 O   0  0  0  0  0  0  0  0  0  0  0  0
   -3.8750   25.2200  -30.6260 N   0  0  0  0  0  0  0  0  0  0  0  0
   -5.3310   25.0720  -30.5410 C   0  0  0  0  0  0  0  0  0  0  0  0
   -5.7810   23.7680  -31.1470 C   0  0  0  0  0  0  0  0  0  0  0  0
   -4.8680   22.9450  -31.8270 C   0  0  0  0  0  0  0  0  0  0  0  0
   -5.3020   21.7600  -32.4290 C   0  0  0  0  0  0  0  0  0  0  0  0
   -6.6460   21.3870  -32.3530 C   0  0  0  0  0  0  0  0  0  0  0  0
   -7.5590   22.1940  -31.6680 C   0  0  0  0  0  0  0  0  0  0  0  0
   -9.2490   21.7320  -31.5870 Cl  0  0  0  0  0  0  0  0  0  0  0  0
   -7.1270   23.3780  -31.0590 C   0  0  0  0  0  0  0  0  0  0  0  0
   -2.5300   22.9180  -29.5620 C   0  0  0  0  0  0  0  0  0  0  0  0
   -1.4850   22.6820  -30.4680 C   0  0  0  0  0  0  0  0  0  0  0  0
   -1.0270   21.3780  -30.6860 C   0  0  0  0  0  0  0  0  0  0  0  0
   -1.6120   20.3070  -30.0050 C   0  0  0  0  0  0  0  0  0  0  0  0
   -2.6600   20.5360  -29.1080 C   0  0  0  0  0  0  0  0  0  0  0  0
   -3.1220   21.8390  -28.8910 C   0  0  0  0  0  0  0  0  0  0  0  0
   -5.6337   25.1000  -29.4838 H   0  0  0  0  0  0  0  0  0  0  0  0
   -5.7987   25.8962  -31.0996 H   0  0  0  0  0  0  0  0  0  0  0  0
   -3.8082   23.2337  -31.8861 H   0  0  0  0  0  0  0  0  0  0  0  0
   -4.5840   21.1205  -32.9633 H   0  0  0  0  0  0  0  0  0  0  0  0
   -6.9862   20.4574  -32.8326 H   0  0  0  0  0  0  0  0  0  0  0  0
   -7.8445   24.0051  -30.5095 H   0  0  0  0  0  0  0  0  0  0  0  0
   -1.0252   23.5231  -31.0076 H   0  0  0  0  0  0  0  0  0  0  0  0
   -0.2054   21.1956  -31.3943 H   0  0  0  0  0  0  0  0  0  0  0  0
   -1.2478   19.2830  -30.1747 H   0  0  0  0  0  0  0  0  0  0  0  0
   -3.1210   19.6924  -28.5733 H   0  0  0  0  0  0  0  0  0  0  0  0
   -3.9523   22.0170  -28.1917 H   0  0  0  0  0  0  0  0  0  0  0  0
  1  2  2  0
  2  3  2  0
  2  4  1  0
  4  5  1  0
  5  6  1  0
  6  7  2  0
  7  8  1  0
  8  9  2  0
  9 10  1  0
 10 11  1  0
 10 12  2  0
  2 13  1  0
 13 14  2  0
 14 15  1  0
 15 16  2  0
 16 17  1  0
 17 18  2  0
 12  6  1  0
 18 13  1  0
  5 19  1  0
  5 20  1  0
  7 21  1  0
  8 22  1  0
  9 23  1  0
 12 24  1  0
 14 25  1  0
 15 26  1  0
 16 27  1  0
 17 28  1  0
 18 29  1  0
M  CHG  1   4  -1
M  END
>  <UniqueID>  (39) 
34

>  <SMILES>  (39) 
O=S(=O)([N-]Cc1cccc(Cl)c1)c1ccccc1

>  <Energy>  (39) 
25.27702562219224

>  <Genealogy>  (39) 
O=S(=O)([N-]Cc1cccc(Cl)c1)c1ccccc1 (protonated)
O=S(=O)([N-]Cc1cccc(Cl)c1)c1ccccc1 (3D coordinates assigned)
O=S(=O)([N-]Cc1cccc(Cl)c1)c1ccccc1 (optimized conformer: 25.27702562219224 kcal/mol)

>  <smiles>  (39) 
O=S(=O)(NCc1cccc(Cl)c1)c1ccccc1

>  <score_type>  (39) 
oracle

>  <origin>  (39) 
adgpu

>  <m_score__min__energy>  (39) 
-8.5099999999999998

>  <m_primary>  (39) 
energy

$$$$
39:0
     RDKit          3D

 69 71  0  0  0  0  0  0  0  0999 V2000
   -4.4600   17.9130  -35.0670 C   0  0  0  0  0  0  0  0  0  0  0  0
   -5.1270   18.0260  -33.7190 C   0  0  0  0  0  0  0  0  0  0  0  0
   -6.1460   17.1060  -33.3590 C   0  0  0  0  0  0  0  0  0  0  0  0
   -6.5390   16.0540  -34.2580 N   0  0  0  0  0  0  0  0  0  0  0  0
   -5.8350   14.4690  -34.2040 S   0  0  0  0  0  0  0  0  0  0  0  0
   -7.0440   13.2450  -34.6530 C   0  0  0  0  0  0  0  0  0  0  0  0
   -5.3580   14.1970  -32.8050 O   0  0  0  0  0  0  0  0  0  0  0  0
   -4.6610   14.3970  -35.1390 O   0  0  0  0  0  0  0  0  0  0  0  0
   -6.7680   17.2210  -32.1050 C   0  0  0  0  0  0  0  0  0  0  0  0
   -6.3880   18.2190  -31.2120 C   0  0  0  0  0  0  0  0  0  0  0  0
   -5.3870   19.1230  -31.5570 C   0  0  0  0  0  0  0  0  0  0  0  0
   -4.7530   19.0420  -32.8050 C   0  0  0  0  0  0  0  0  0  0  0  0
   -3.7570   20.0250  -33.1360 N   0  0  0  0  0  0  0  0  0  0  0  0
   -2.3790   19.7850  -32.6800 C   0  0  0  0  0  0  0  0  0  0  0  0
   -2.0470   20.5860  -31.4450 C   0  0  0  0  0  0  0  0  0  0  0  0
   -2.8490   20.4920  -30.3000 C   0  0  0  0  0  0  0  0  0  0  0  0
   -2.5070   21.1820  -29.1340 C   0  0  0  0  0  0  0  0  0  0  0  0
   -1.3530   22.0030  -29.0850 C   0  0  0  0  0  0  0  0  0  0  0  0
   -0.9550   22.8030  -27.8260 C   0  0  0  0  0  0  0  0  0  0  0  0
   -2.2210   23.3000  -27.0900 C   0  0  0  0  0  0  0  0  0  0  0  0
   -0.1440   21.8880  -26.8880 C   0  0  0  0  0  0  0  0  0  0  0  0
   -0.0960   24.0480  -28.1480 C   0  0  0  0  0  0  0  0  0  0  0  0
   -0.5850   22.1260  -30.2630 C   0  0  0  0  0  0  0  0  0  0  0  0
   -0.9220   21.4210  -31.4220 C   0  0  0  0  0  0  0  0  0  0  0  0
   -4.2190   21.3880  -33.4530 C   0  0  0  0  0  0  0  0  0  0  0  0
   -5.3330   21.7840  -32.5220 C   0  0  0  0  0  0  0  0  0  0  0  0
   -6.6610   21.4490  -32.8290 C   0  0  0  0  0  0  0  0  0  0  0  0
   -7.7040   21.8890  -32.0100 C   0  0  0  0  0  0  0  0  0  0  0  0
   -7.4330   22.6890  -30.8980 C   0  0  0  0  0  0  0  0  0  0  0  0
   -6.1080   23.0570  -30.5940 C   0  0  0  0  0  0  0  0  0  0  0  0
   -5.7850   23.9060  -29.5230 O   0  0  0  0  0  0  0  0  0  0  0  0
   -4.4890   24.0360  -28.9400 C   0  0  0  0  0  0  0  0  0  0  0  0
   -3.6220   24.9260  -29.7790 C   0  0  0  0  0  0  0  0  0  0  0  0
   -4.0500   25.3810  -30.8750 O   0  0  0  0  0  0  0  0  0  0  0  0
   -2.3630   25.2960  -29.3310 O   0  0  0  0  0  0  0  0  0  0  0  0
   -5.0650   22.5780  -31.3960 C   0  0  0  0  0  0  0  0  0  0  0  0
   -3.3840   17.7307  -34.9295 H   0  0  0  0  0  0  0  0  0  0  0  0
   -4.9048   17.0774  -35.6273 H   0  0  0  0  0  0  0  0  0  0  0  0
   -4.6048   18.8485  -35.6273 H   0  0  0  0  0  0  0  0  0  0  0  0
   -7.3800   16.1720  -34.8690 H   0  0  0  0  0  0  0  0  0  0  0  0
   -7.4774   12.8063  -33.7421 H   0  0  0  0  0  0  0  0  0  0  0  0
   -7.8403   13.7169  -35.2473 H   0  0  0  0  0  0  0  0  0  0  0  0
   -6.5623   12.4546  -35.2473 H   0  0  0  0  0  0  0  0  0  0  0  0
   -7.5639   16.5150  -31.8255 H   0  0  0  0  0  0  0  0  0  0  0  0
   -6.8800   18.2936  -30.2310 H   0  0  0  0  0  0  0  0  0  0  0  0
   -5.0911   19.9072  -30.8447 H   0  0  0  0  0  0  0  0  0  0  0  0
   -2.2610   18.7153  -32.4523 H   0  0  0  0  0  0  0  0  0  0  0  0
   -1.6951   20.0975  -33.4829 H   0  0  0  0  0  0  0  0  0  0  0  0
   -3.7558   19.8696  -30.3191 H   0  0  0  0  0  0  0  0  0  0  0  0
   -3.1427   21.0865  -28.2414 H   0  0  0  0  0  0  0  0  0  0  0  0
   -2.0617   23.2375  -26.0034 H   0  0  0  0  0  0  0  0  0  0  0  0
   -2.4227   24.3441  -27.3715 H   0  0  0  0  0  0  0  0  0  0  0  0
   -3.0791   22.6720  -27.3715 H   0  0  0  0  0  0  0  0  0  0  0  0
   -0.3697   22.1427  -25.8420 H   0  0  0  0  0  0  0  0  0  0  0  0
   -0.4138   20.8383  -27.0762 H   0  0  0  0  0  0  0  0  0  0  0  0
    0.9305   22.0298  -27.0762 H   0  0  0  0  0  0  0  0  0  0  0  0
    0.2303   24.5209  -27.2100 H   0  0  0  0  0  0  0  0  0  0  0  0
    0.7856   23.7443  -28.7315 H   0  0  0  0  0  0  0  0  0  0  0  0
   -0.6929   24.7644  -28.7315 H   0  0  0  0  0  0  0  0  0  0  0  0
    0.2936   22.7879  -30.2690 H   0  0  0  0  0  0  0  0  0  0  0  0
   -0.2992   21.5225  -32.3230 H   0  0  0  0  0  0  0  0  0  0  0  0
   -3.3816   22.0921  -33.3391 H   0  0  0  0  0  0  0  0  0  0  0  0
   -4.5887   21.4120  -34.4888 H   0  0  0  0  0  0  0  0  0  0  0  0
   -6.8813   20.8383  -33.7170 H   0  0  0  0  0  0  0  0  0  0  0  0
   -8.7410   21.6046  -32.2417 H   0  0  0  0  0  0  0  0  0  0  0  0
   -8.2579   23.0332  -30.2568 H   0  0  0  0  0  0  0  0  0  0  0  0
   -4.5866   24.4699  -27.9339 H   0  0  0  0  0  0  0  0  0  0  0  0
   -4.0245   23.0407  -28.8806 H   0  0  0  0  0  0  0  0  0  0  0  0
   -4.0243   22.8266  -31.1409 H   0  0  0  0  0  0  0  0  0  0  0  0
  1  2  1  0
  2  3  2  0
  3  4  1  0
  4  5  1  0
  5  6  1  0
  5  7  2  0
  5  8  2  0
  3  9  1  0
  9 10  2  0
 10 11  1  0
 11 12  2  0
 12 13  1  0
 13 14  1  0
 14 15  1  0
 15 16  2  0
 16 17  1  0
 17 18  2  0
 18 19  1  0
 19 20  1  0
 19 21  1  0
 19 22  1  0
 18 23  1  0
 23 24  2  0
 13 25  1  0
 25 26  1  0
 26 27  2  0
 27 28  1  0
 28 29  2  0
 29 30  1  0
 30 31  1  0
 31 32  1  0
 32 33  1  0
 33 34  2  0
 33 35  1  0
 30 36  2  0
 12  2  1  0
 24 15  1  0
 36 26  1  0
  1 37  1  0
  1 38  1  0
  1 39  1  0
  4 40  1  0
  6 41  1  0
  6 42  1  0
  6 43  1  0
  9 44  1  0
 10 45  1  0
 11 46  1  0
 14 47  1  0
 14 48  1  0
 16 49  1  0
 17 50  1  0
 20 51  1  0
 20 52  1  0
 20 53  1  0
 21 54  1  0
 21 55  1  0
 21 56  1  0
 22 57  1  0
 22 58  1  0
 22 59  1  0
 23 60  1  0
 24 61  1  0
 25 62  1  0
 25 63  1  0
 27 64  1  0
 28 65  1  0
 29 66  1  0
 32 67  1  0
 32 68  1  0
 36 69  1  0
M  CHG  1  35  -1
M  END
>  <UniqueID>  (40) 
35

>  <SMILES>  (40) 
Cc1c(NS(C)(=O)=O)cccc1N(Cc1ccc(C(C)(C)C)cc1)Cc1cccc(OCC(=O)[O-])c1

>  <Energy>  (40) 
73.91769234112282

>  <Genealogy>  (40) 
Cc1c(NS(C)(=O)=O)cccc1N(Cc1ccc(C(C)(C)C)cc1)Cc1cccc(OCC(=O)[O-])c1 (protonated)
Cc1c(NS(C)(=O)=O)cccc1N(Cc1ccc(C(C)(C)C)cc1)Cc1cccc(OCC(=O)[O-])c1 (3D coordinates assigned)
Cc1c(NS(C)(=O)=O)cccc1N(Cc1ccc(C(C)(C)C)cc1)Cc1cccc(OCC(=O)[O-])c1 (optimized conformer: 73.91769234112282 kcal/mol)

>  <smiles>  (40) 
Cc1c(NS(C)(=O)=O)cccc1N(Cc1ccc(C(C)(C)C)cc1)Cc1cccc(OCC(=O)O)c1

>  <score_type>  (40) 
oracle

>  <origin>  (40) 
adgpu

>  <m_score__min__energy>  (40) 
-12.56

>  <m_primary>  (40) 
energy

$$$$
40:0
     RDKit          3D

 49 52  0  0  0  0  0  0  0  0999 V2000
    2.8840   20.5820  -36.8490 C   0  0  0  0  0  0  0  0  0  0  0  0
    1.4650   20.6980  -36.8310 O   0  0  0  0  0  0  0  0  0  0  0  0
    0.6540   20.3720  -35.7320 C   0  0  0  0  0  0  0  0  0  0  0  0
    0.1190   19.0820  -35.5550 C   0  0  0  0  0  0  0  0  0  0  0  0
   -0.6860   18.7960  -34.4510 C   0  0  0  0  0  0  0  0  0  0  0  0
   -0.9840   19.7950  -33.5100 C   0  0  0  0  0  0  0  0  0  0  0  0
   -1.7900   19.5170  -32.3540 N   0  0  0  0  0  0  0  0  0  0  0  0
   -3.2260   19.4980  -32.3700 C   0  0  0  0  0  0  0  0  0  0  0  0
   -3.9600   18.5210  -32.9540 N   0  0  0  0  0  0  0  0  0  0  0  0
   -5.2270   18.9650  -32.8140 C   0  0  0  0  0  0  0  0  0  0  0  0
   -6.3700   18.2910  -33.2400 C   0  0  0  0  0  0  0  0  0  0  0  0
   -7.6140   18.8910  -32.9910 C   0  0  0  0  0  0  0  0  0  0  0  0
   -7.6840   20.1300  -32.3240 C   0  0  0  0  0  0  0  0  0  0  0  0
   -9.2400   20.8710  -31.9950 Cl  0  0  0  0  0  0  0  0  0  0  0  0
   -6.5000   20.7640  -31.9170 C   0  0  0  0  0  0  0  0  0  0  0  0
   -5.3150   20.1570  -32.1960 N   0  0  0  0  0  0  0  0  0  0  0  0
   -4.0490   20.5200  -31.9130 C   0  0  0  0  0  0  0  0  0  0  0  0
   -3.6330   21.7650  -31.2350 C   0  0  0  0  0  0  0  0  0  0  0  0
   -2.4750   21.7830  -30.4430 C   0  0  0  0  0  0  0  0  0  0  0  0
   -2.0720   22.9600  -29.8080 C   0  0  0  0  0  0  0  0  0  0  0  0
   -0.4910   22.9490  -28.7310 Br  0  0  0  0  0  0  0  0  0  0  0  0
   -2.8240   24.1320  -29.9600 C   0  0  0  0  0  0  0  0  0  0  0  0
   -2.4240   25.3030  -29.3240 O   0  0  0  0  0  0  0  0  0  0  0  0
   -3.9810   24.1330  -30.7520 C   0  0  0  0  0  0  0  0  0  0  0  0
   -4.7060   25.3290  -30.8800 O   0  0  0  0  0  0  0  0  0  0  0  0
   -5.8450   25.6670  -30.0970 C   0  0  0  0  0  0  0  0  0  0  0  0
   -4.3790   22.9430  -31.3930 C   0  0  0  0  0  0  0  0  0  0  0  0
   -0.4320   21.0730  -33.6740 C   0  0  0  0  0  0  0  0  0  0  0  0
    0.3800   21.3720  -34.7840 C   0  0  0  0  0  0  0  0  0  0  0  0
    0.9350   22.6460  -34.9820 O   0  0  0  0  0  0  0  0  0  0  0  0
    0.6070   23.5090  -36.0670 C   0  0  0  0  0  0  0  0  0  0  0  0
    3.2625   20.5511  -35.8166 H   0  0  0  0  0  0  0  0  0  0  0  0
    3.1697   19.6575  -37.3721 H   0  0  0  0  0  0  0  0  0  0  0  0
    3.3161   21.4478  -37.3721 H   0  0  0  0  0  0  0  0  0  0  0  0
    0.3367   18.2943  -36.2913 H   0  0  0  0  0  0  0  0  0  0  0  0
   -1.0896   17.7815  -34.3172 H   0  0  0  0  0  0  0  0  0  0  0  0
   -1.3100   19.4140  -31.4320 H   0  0  0  0  0  0  0  0  0  0  0  0
   -6.2995   17.3212  -33.7542 H   0  0  0  0  0  0  0  0  0  0  0  0
   -8.5381   18.3919  -33.3179 H   0  0  0  0  0  0  0  0  0  0  0  0
   -6.5294   21.7269  -31.3861 H   0  0  0  0  0  0  0  0  0  0  0  0
   -1.8812   20.8651  -30.3215 H   0  0  0  0  0  0  0  0  0  0  0  0
   -5.5914   25.5917  -29.0293 H   0  0  0  0  0  0  0  0  0  0  0  0
   -6.1566   26.6963  -30.3282 H   0  0  0  0  0  0  0  0  0  0  0  0
   -6.6676   24.9742  -30.3282 H   0  0  0  0  0  0  0  0  0  0  0  0
   -5.2814   22.9374  -32.0221 H   0  0  0  0  0  0  0  0  0  0  0  0
   -0.6362   21.8525  -32.9252 H   0  0  0  0  0  0  0  0  0  0  0  0
    0.2420   24.4694  -35.6742 H   0  0  0  0  0  0  0  0  0  0  0  0
    1.5024   23.6810  -36.6823 H   0  0  0  0  0  0  0  0  0  0  0  0
   -0.1767   23.0429  -36.6823 H   0  0  0  0  0  0  0  0  0  0  0  0
  1  2  1  0
  2  3  1  0
  3  4  2  0
  4  5  1  0
  5  6  2  0
  6  7  1  0
  7  8  1  0
  8  9  1  0
  9 10  2  0
 10 11  1  0
 11 12  2  0
 12 13  1  0
 13 14  1  0
 13 15  2  0
 15 16  1  0
 16 17  1  0
 17 18  1  0
 18 19  2  0
 19 20  1  0
 20 21  1  0
 20 22  2  0
 22 23  1  0
 22 24  1  0
 24 25  1  0
 25 26  1  0
 24 27  2  0
  6 28  1  0
 28 29  2  0
 29 30  1  0
 30 31  1  0
 29  3  1  0
 17  8  2  0
 27 18  1  0
 16 10  1  0
  1 32  1  0
  1 33  1  0
  1 34  1  0
  4 35  1  0
  5 36  1  0
  7 37  1  0
 11 38  1  0
 12 39  1  0
 15 40  1  0
 19 41  1  0
 26 42  1  0
 26 43  1  0
 26 44  1  0
 27 45  1  0
 28 46  1  0
 31 47  1  0
 31 48  1  0
 31 49  1  0
M  CHG  1  23  -1
M  END
>  <UniqueID>  (41) 
36

>  <SMILES>  (41) 
COc1ccc(Nc2nc3ccc(Cl)cn3c2-c2cc(Br)c([O-])c(OC)c2)cc1OC

>  <Energy>  (41) 
96.05149884367187

>  <Genealogy>  (41) 
COc1ccc(Nc2nc3ccc(Cl)cn3c2-c2cc(Br)c([O-])c(OC)c2)cc1OC (protonated)
COc1ccc(Nc2nc3ccc(Cl)cn3c2-c2cc(Br)c([O-])c(OC)c2)cc1OC (3D coordinates assigned)
COc1ccc(Nc2nc3ccc(Cl)cn3c2-c2cc(Br)c([O-])c(OC)c2)cc1OC (optimized conformer: 96.05149884367187 kcal/mol)

>  <smiles>  (41) 
COc1ccc(Nc2nc3ccc(Cl)cn3c2-c2cc(Br)c(O)c(OC)c2)cc1OC

>  <score_type>  (41) 
oracle

>  <origin>  (41) 
adgpu

>  <m_score__min__energy>  (41) 
-12.23

>  <m_primary>  (41) 
energy

$$$$
41:0
     RDKit          3D

 36 37  0  0  0  0  0  0  0  0999 V2000
   -5.4800   20.8720  -32.6680 C   0  0  0  0  0  0  0  0  0  0  0  0
   -5.4770   22.1750  -31.9180 C   0  0  0  0  0  0  0  0  0  0  0  0
   -6.6330   22.8900  -31.5630 C   0  0  0  0  0  0  0  0  0  0  0  0
   -8.0450   22.5190  -31.7840 C   0  0  0  0  0  0  0  0  0  0  0  0
   -8.8100   23.3670  -32.3230 O   0  0  0  0  0  0  0  0  0  0  0  0
   -8.5900   21.2780  -31.2760 N   0  0  0  0  0  0  0  0  0  0  0  0
   -9.7580   21.5630  -30.4280 C   0  0  0  0  0  0  0  0  0  0  0  0
   -8.9610   20.3800  -32.3820 C   0  0  0  0  0  0  0  0  0  0  0  0
   -6.1710   24.3300  -30.8220 S   0  0  0  0  0  0  0  0  0  0  0  0
   -4.5170   24.0380  -30.8790 C   0  0  0  0  0  0  0  0  0  0  0  0
   -3.4890   24.9340  -30.4390 N   0  0  0  0  0  0  0  0  0  0  0  0
   -2.5890   24.6890  -29.3520 C   0  0  0  0  0  0  0  0  0  0  0  0
   -1.8800   25.6400  -28.9290 O   0  0  0  0  0  0  0  0  0  0  0  0
   -2.4330   23.3440  -28.7490 C   0  0  0  0  0  0  0  0  0  0  0  0
   -3.5110   22.7130  -28.1070 C   0  0  0  0  0  0  0  0  0  0  0  0
   -3.3370   21.4420  -27.5570 C   0  0  0  0  0  0  0  0  0  0  0  0
   -2.1360   20.8130  -27.6540 N   0  0  0  0  0  0  0  0  0  0  0  0
   -1.0790   21.3920  -28.2840 C   0  0  0  0  0  0  0  0  0  0  0  0
   -1.2090   22.6630  -28.8470 C   0  0  0  0  0  0  0  0  0  0  0  0
   -4.2900   22.8270  -31.5170 C   0  0  0  0  0  0  0  0  0  0  0  0
   -2.9660   22.3060  -31.7470 C   0  0  0  0  0  0  0  0  0  0  0  0
   -1.9020   21.8870  -31.9310 N   0  0  0  0  0  0  0  0  0  0  0  0
   -5.4819   20.0369  -31.9521 H   0  0  0  0  0  0  0  0  0  0  0  0
   -6.3783   20.8150  -33.3003 H   0  0  0  0  0  0  0  0  0  0  0  0
   -4.5820   20.8108  -33.3003 H   0  0  0  0  0  0  0  0  0  0  0  0
   -7.8840   20.7890  -30.6800 H   0  0  0  0  0  0  0  0  0  0  0  0
   -9.4684   21.4923  -29.3692 H   0  0  0  0  0  0  0  0  0  0  0  0
  -10.1265   22.5774  -30.6404 H   0  0  0  0  0  0  0  0  0  0  0  0
  -10.5524   20.8323  -30.6404 H   0  0  0  0  0  0  0  0  0  0  0  0
   -9.3509   19.4362  -31.9730 H   0  0  0  0  0  0  0  0  0  0  0  0
   -9.7347   20.8593  -32.9997 H   0  0  0  0  0  0  0  0  0  0  0  0
   -8.0746   20.1734  -32.9997 H   0  0  0  0  0  0  0  0  0  0  0  0
   -4.4862   23.2172  -28.0381 H   0  0  0  0  0  0  0  0  0  0  0  0
   -4.1747   20.9477  -27.0433 H   0  0  0  0  0  0  0  0  0  0  0  0
   -0.1197   20.8579  -28.3502 H   0  0  0  0  0  0  0  0  0  0  0  0
   -0.3572   23.1283  -29.3645 H   0  0  0  0  0  0  0  0  0  0  0  0
  1  2  1  0
  2  3  2  0
  3  4  1  0
  4  5  2  0
  4  6  1  0
  6  7  1  0
  6  8  1  0
  3  9  1  0
  9 10  1  0
 10 11  1  0
 11 12  1  0
 12 13  2  0
 12 14  1  0
 14 15  2  0
 15 16  1  0
 16 17  2  0
 17 18  1  0
 18 19  2  0
 10 20  2  0
 20 21  1  0
 21 22  3  0
 20  2  1  0
 19 14  1  0
  1 23  1  0
  1 24  1  0
  1 25  1  0
  6 26  1  0
  7 27  1  0
  7 28  1  0
  7 29  1  0
  8 30  1  0
  8 31  1  0
  8 32  1  0
 15 33  1  0
 16 34  1  0
 18 35  1  0
 19 36  1  0
M  CHG  2   6   1  11  -1
M  END
>  <UniqueID>  (42) 
37

>  <SMILES>  (42) 
Cc1c(C(=O)[NH+](C)C)sc([N-]C(=O)c2ccncc2)c1C#N

>  <Energy>  (42) 
74.18297659095096

>  <Genealogy>  (42) 
Cc1c(C(=O)[NH+](C)C)sc([N-]C(=O)c2ccncc2)c1C#N (protonated)
Cc1c(C(=O)[NH+](C)C)sc([N-]C(=O)c2ccncc2)c1C#N (3D coordinates assigned)
Cc1c(C(=O)[NH+](C)C)sc([N-]C(=O)c2ccncc2)c1C#N (optimized conformer: 74.18297659095096 kcal/mol)

>  <smiles>  (42) 
Cc1c(C(=O)N(C)C)sc(NC(=O)c2ccncc2)c1C#N

>  <score_type>  (42) 
oracle

>  <origin>  (42) 
adgpu

>  <m_score__min__energy>  (42) 
-8.4800000000000004

>  <m_primary>  (42) 
energy

$$$$
42:0
     RDKit          3D

 36 38  0  0  0  0  0  0  0  0999 V2000
   -3.0030   21.2000  -33.5330 N   0  0  0  0  0  0  0  0  0  0  0  0
   -2.5250   19.5970  -33.1030 S   0  0  0  0  0  0  0  0  0  0  0  0
   -2.1910   19.5610  -31.6370 O   0  0  0  0  0  0  0  0  0  0  0  0
   -1.3050   19.2030  -33.8880 O   0  0  0  0  0  0  0  0  0  0  0  0
   -3.8370   18.4770  -33.4580 C   0  0  0  0  0  0  0  0  0  0  0  0
   -3.5780   17.2290  -34.0430 C   0  0  0  0  0  0  0  0  0  0  0  0
   -4.6320   16.3570  -34.3270 C   0  0  0  0  0  0  0  0  0  0  0  0
   -5.9450   16.7160  -34.0110 C   0  0  0  0  0  0  0  0  0  0  0  0
   -6.2150   17.9430  -33.3930 C   0  0  0  0  0  0  0  0  0  0  0  0
   -7.5810   18.2770  -33.0890 N   0  0  0  0  0  0  0  0  0  0  0  0
   -8.0180   19.4090  -32.6180 C   0  0  0  0  0  0  0  0  0  0  0  0
   -9.3880   19.5930  -32.4140 C   0  0  0  0  0  0  0  0  0  0  0  0
   -9.8330   20.7640  -31.8900 N   0  0  0  0  0  0  0  0  0  0  0  0
   -8.9780   21.7680  -31.5620 C   0  0  0  0  0  0  0  0  0  0  0  0
   -7.5980   21.5960  -31.7670 C   0  0  0  0  0  0  0  0  0  0  0  0
   -6.6030   22.6500  -31.4320 C   0  0  0  0  0  0  0  0  0  0  0  0
   -7.0470   23.9160  -31.0060 C   0  0  0  0  0  0  0  0  0  0  0  0
   -6.1290   24.9140  -30.6690 C   0  0  0  0  0  0  0  0  0  0  0  0
   -4.7570   24.6640  -30.7430 C   0  0  0  0  0  0  0  0  0  0  0  0
   -3.8570   25.6690  -30.4060 O   0  0  0  0  0  0  0  0  0  0  0  0
   -4.2970   23.4030  -31.1550 C   0  0  0  0  0  0  0  0  0  0  0  0
   -2.9330   23.1230  -31.2290 O   0  0  0  0  0  0  0  0  0  0  0  0
   -5.2180   22.4030  -31.4940 C   0  0  0  0  0  0  0  0  0  0  0  0
   -7.1630   20.4110  -32.2770 N   0  0  0  0  0  0  0  0  0  0  0  0
   -5.1550   18.8360  -33.1470 C   0  0  0  0  0  0  0  0  0  0  0  0
   -2.4740   21.8540  -32.9130 H   0  0  0  0  0  0  0  0  0  0  0  0
   -2.5441   16.9364  -34.2785 H   0  0  0  0  0  0  0  0  0  0  0  0
   -4.4278   15.3854  -34.8006 H   0  0  0  0  0  0  0  0  0  0  0  0
   -6.7715   16.0304  -34.2493 H   0  0  0  0  0  0  0  0  0  0  0  0
  -10.0998   18.7962  -32.6756 H   0  0  0  0  0  0  0  0  0  0  0  0
   -9.3627   22.7079  -31.1394 H   0  0  0  0  0  0  0  0  0  0  0  0
   -8.1255   24.1213  -30.9378 H   0  0  0  0  0  0  0  0  0  0  0  0
   -6.4887   25.9014  -30.3438 H   0  0  0  0  0  0  0  0  0  0  0  0
   -2.5780   22.3080  -31.7160 H   0  0  0  0  0  0  0  0  0  0  0  0
   -4.8553   21.4144  -31.8120 H   0  0  0  0  0  0  0  0  0  0  0  0
   -5.3630   19.8227  -32.7075 H   0  0  0  0  0  0  0  0  0  0  0  0
  1  2  1  0
  2  3  2  0
  2  4  2  0
  2  5  1  0
  5  6  2  0
  6  7  1  0
  7  8  2  0
  8  9  1  0
  9 10  1  0
 10 11  2  3
 11 12  1  0
 12 13  2  0
 13 14  1  0
 14 15  2  0
 15 16  1  0
 16 17  2  0
 17 18  1  0
 18 19  2  0
 19 20  1  0
 19 21  1  0
 21 22  1  0
 21 23  2  0
 15 24  1  0
  9 25  2  0
 25  5  1  0
 24 11  1  0
 23 16  1  0
  1 26  1  0
  6 27  1  0
  7 28  1  0
  8 29  1  0
 12 30  1  0
 14 31  1  0
 17 32  1  0
 18 33  1  0
 22 34  1  0
 23 35  1  0
 25 36  1  0
M  CHG  3   1  -1  20  -1  24  -1
M  END
>  <UniqueID>  (43) 
38

>  <SMILES>  (43) 
[NH-]S(=O)(=O)c1cccc(N=c2cncc(-c3ccc([O-])c(O)c3)[n-]2)c1

>  <Energy>  (43) 
49.587905873693856

>  <Genealogy>  (43) 
[NH-]S(=O)(=O)c1cccc(N=c2cncc(-c3ccc([O-])c(O)c3)[n-]2)c1 (protonated)
[NH-]S(=O)(=O)c1cccc(N=c2cncc(-c3ccc([O-])c(O)c3)[n-]2)c1 (3D coordinates assigned)
[NH-]S(=O)(=O)c1cccc(N=c2cncc(-c3ccc([O-])c(O)c3)[n-]2)c1 (optimized conformer: 49.587905873693856 kcal/mol)

>  <smiles>  (43) 
NS(=O)(=O)c1cccc(N=c2cncc(-c3ccc(O)c(O)c3)[nH]2)c1

>  <score_type>  (43) 
oracle

>  <origin>  (43) 
adgpu

>  <m_score__min__energy>  (43) 
-11.92

>  <m_primary>  (43) 
energy

$$$$
43:0
     RDKit          3D

 54 57  0  0  0  0  0  0  0  0999 V2000
   -0.4050   30.6230  -24.6370 C   0  0  0  0  0  0  0  0  0  0  0  0
   -0.5560   29.3340  -25.3900 C   0  0  0  0  0  0  0  0  0  0  0  0
   -0.3270   29.2910  -26.7730 C   0  0  0  0  0  0  0  0  0  0  0  0
   -0.4290   28.0820  -27.4670 C   0  0  0  0  0  0  0  0  0  0  0  0
   -0.7640   26.8990  -26.7900 C   0  0  0  0  0  0  0  0  0  0  0  0
   -0.8470   25.6600  -27.5160 N   0  0  0  0  0  0  0  0  0  0  0  0
   -1.8370   25.3840  -28.3500 N   0  0  0  0  0  0  0  0  0  0  0  0
   -1.6220   24.1510  -28.8510 C   0  0  0  0  0  0  0  0  0  0  0  0
   -2.5120   23.5070  -29.8320 C   0  0  0  0  0  0  0  0  0  0  0  0
   -3.3360   24.2180  -30.4660 O   0  0  0  0  0  0  0  0  0  0  0  0
   -2.4760   22.0850  -30.0370 N   0  0  0  0  0  0  0  0  0  0  0  0
   -3.0470   21.4270  -31.1810 C   0  0  0  0  0  0  0  0  0  0  0  0
   -2.3540   21.4400  -32.4000 C   0  0  0  0  0  0  0  0  0  0  0  0
   -2.8970   20.8240  -33.5290 C   0  0  0  0  0  0  0  0  0  0  0  0
   -4.1470   20.2050  -33.4570 C   0  0  0  0  0  0  0  0  0  0  0  0
   -4.8700   20.2120  -32.2560 C   0  0  0  0  0  0  0  0  0  0  0  0
   -6.4590   19.4430  -32.1680 S   0  0  0  0  0  0  0  0  0  0  0  0
   -6.3620   18.2230  -31.2940 O   0  0  0  0  0  0  0  0  0  0  0  0
   -6.8610   18.9950  -33.5460 O   0  0  0  0  0  0  0  0  0  0  0  0
   -7.6930   20.5030  -31.5320 N   0  0  0  0  0  0  0  0  0  0  0  0
   -9.0150   20.1900  -32.0680 C   0  0  0  0  0  0  0  0  0  0  0  0
   -9.8300   21.4710  -31.9730 C   0  0  0  0  0  0  0  0  0  0  0  0
   -8.8060   22.5910  -31.8490 C   0  0  0  0  0  0  0  0  0  0  0  0
   -7.4500   21.9010  -31.8790 C   0  0  0  0  0  0  0  0  0  0  0  0
   -4.3150   20.8210  -31.1200 C   0  0  0  0  0  0  0  0  0  0  0  0
   -0.4590   23.6240  -28.3170 C   0  0  0  0  0  0  0  0  0  0  0  0
   -0.0020   24.6050  -27.4610 C   0  0  0  0  0  0  0  0  0  0  0  0
    1.2190   24.4920  -26.6000 C   0  0  0  0  0  0  0  0  0  0  0  0
   -0.9540   26.9370  -25.4000 C   0  0  0  0  0  0  0  0  0  0  0  0
   -0.8510   28.1460  -24.7040 C   0  0  0  0  0  0  0  0  0  0  0  0
   -0.4287   30.4211  -23.5560 H   0  0  0  0  0  0  0  0  0  0  0  0
    0.5542   31.0920  -24.9015 H   0  0  0  0  0  0  0  0  0  0  0  0
   -1.2299   31.3010  -24.9015 H   0  0  0  0  0  0  0  0  0  0  0  0
   -0.0660   30.2126  -27.3138 H   0  0  0  0  0  0  0  0  0  0  0  0
   -0.2454   28.0575  -28.5513 H   0  0  0  0  0  0  0  0  0  0  0  0
   -2.0960   21.4840  -29.2700 H   0  0  0  0  0  0  0  0  0  0  0  0
   -1.3760   21.9389  -32.4671 H   0  0  0  0  0  0  0  0  0  0  0  0
   -2.3393   20.8261  -34.4771 H   0  0  0  0  0  0  0  0  0  0  0  0
   -4.5656   19.7103  -34.3458 H   0  0  0  0  0  0  0  0  0  0  0  0
   -8.9340   19.8673  -33.1165 H   0  0  0  0  0  0  0  0  0  0  0  0
   -9.4900   19.3720  -31.5066 H   0  0  0  0  0  0  0  0  0  0  0  0
  -10.4415   21.6065  -32.8773 H   0  0  0  0  0  0  0  0  0  0  0  0
  -10.5235   21.4533  -31.1193 H   0  0  0  0  0  0  0  0  0  0  0  0
   -8.8995   23.2934  -32.6904 H   0  0  0  0  0  0  0  0  0  0  0  0
   -8.9479   23.1761  -30.9284 H   0  0  0  0  0  0  0  0  0  0  0  0
   -7.0084   21.9727  -32.8839 H   0  0  0  0  0  0  0  0  0  0  0  0
   -6.7469   22.3709  -31.1756 H   0  0  0  0  0  0  0  0  0  0  0  0
   -4.8762   20.8245  -30.1739 H   0  0  0  0  0  0  0  0  0  0  0  0
   -0.0027   22.6454  -28.5272 H   0  0  0  0  0  0  0  0  0  0  0  0
    0.9244   24.5193  -25.5405 H   0  0  0  0  0  0  0  0  0  0  0  0
    1.7318   23.5426  -26.8137 H   0  0  0  0  0  0  0  0  0  0  0  0
    1.8973   25.3312  -26.8137 H   0  0  0  0  0  0  0  0  0  0  0  0
   -1.1854   26.0103  -24.8544 H   0  0  0  0  0  0  0  0  0  0  0  0
   -1.0019   28.1655  -23.6146 H   0  0  0  0  0  0  0  0  0  0  0  0
  1  2  1  0
  2  3  2  0
  3  4  1  0
  4  5  2  0
  5  6  1  0
  6  7  1  0
  7  8  2  0
  8  9  1  0
  9 10  2  0
  9 11  1  0
 11 12  1  0
 12 13  2  0
 13 14  1  0
 14 15  2  0
 15 16  1  0
 16 17  1  0
 17 18  2  0
 17 19  2  0
 17 20  1  0
 20 21  1  0
 21 22  1  0
 22 23  1  0
 23 24  1  0
 16 25  2  0
  8 26  1  0
 26 27  2  0
 27 28  1  0
  5 29  1  0
 29 30  2  0
 30  2  1  0
 27  6  1  0
 25 12  1  0
 24 20  1  0
  1 31  1  0
  1 32  1  0
  1 33  1  0
  3 34  1  0
  4 35  1  0
 11 36  1  0
 13 37  1  0
 14 38  1  0
 15 39  1  0
 21 40  1  0
 21 41  1  0
 22 42  1  0
 22 43  1  0
 23 44  1  0
 23 45  1  0
 24 46  1  0
 24 47  1  0
 25 48  1  0
 26 49  1  0
 28 50  1  0
 28 51  1  0
 28 52  1  0
 29 53  1  0
 30 54  1  0
M  END
>  <UniqueID>  (44) 
39

>  <SMILES>  (44) 
Cc1ccc(-n2nc(C(=O)Nc3cccc(S(=O)(=O)N4CCCC4)c3)cc2C)cc1

>  <Energy>  (44) 
94.306313030107

>  <Genealogy>  (44) 
Cc1ccc(-n2nc(C(=O)Nc3cccc(S(=O)(=O)N4CCCC4)c3)cc2C)cc1 (3D coordinates assigned)
Cc1ccc(-n2nc(C(=O)Nc3cccc(S(=O)(=O)N4CCCC4)c3)cc2C)cc1 (nonaromatic ring conformer: 94.306313030107 kcal/mol)

>  <smiles>  (44) 
Cc1ccc(-n2nc(C(=O)Nc3cccc(S(=O)(=O)N4CCCC4)c3)cc2C)cc1

>  <score_type>  (44) 
oracle

>  <origin>  (44) 
adgpu

>  <m_score__min__energy>  (44) 
-10.32

>  <m_primary>  (44) 
energy

$$$$
44:0
     RDKit          3D

 56 59  0  0  0  0  0  0  0  0999 V2000
   -4.6003   18.3317  -34.3757 H   0  0  0  0  0  0  0  0  0  0  0  0
   -5.4980   18.3320  -33.7400 C   0  0  0  0  0  0  0  0  0  0  0  0
   -5.7000   17.3020  -32.8210 C   0  0  0  0  0  0  0  0  0  0  0  0
   -4.9610   16.4921  -32.7314 H   0  0  0  0  0  0  0  0  0  0  0  0
   -6.8400   17.2990  -32.0150 C   0  0  0  0  0  0  0  0  0  0  0  0
   -6.9964   16.4837  -31.2934 H   0  0  0  0  0  0  0  0  0  0  0  0
   -7.7890   18.3300  -32.1190 C   0  0  0  0  0  0  0  0  0  0  0  0
   -8.9510   18.3060  -31.2820 N   0  0  0  0  0  0  0  0  0  0  0  0
   -9.4890   19.1820  -31.0940 H   0  0  0  0  0  0  0  0  0  0  0  0
   -9.2910   17.4210  -30.8460 H   0  0  0  0  0  0  0  0  0  0  0  0
   -7.5780   19.3810  -33.0360 C   0  0  0  0  0  0  0  0  0  0  0  0
   -8.5580   20.4240  -33.1610 N   0  0  0  0  0  0  0  0  0  0  0  0
   -8.8940   21.3920  -32.1610 C   0  0  0  0  0  0  0  0  0  0  0  0
  -10.0290   21.3280  -31.6190 O   0  0  0  0  0  0  0  0  0  0  0  0
   -7.9280   22.4220  -31.7060 C   0  0  0  0  0  0  0  0  0  0  0  0
   -7.6570   22.5750  -30.3360 C   0  0  0  0  0  0  0  0  0  0  0  0
   -8.1802   21.9445  -29.6020 H   0  0  0  0  0  0  0  0  0  0  0  0
   -6.7270   23.5230  -29.8990 C   0  0  0  0  0  0  0  0  0  0  0  0
   -6.5339   23.6428  -28.8227 H   0  0  0  0  0  0  0  0  0  0  0  0
   -6.0380   24.3230  -30.8240 C   0  0  0  0  0  0  0  0  0  0  0  0
   -5.0390   25.3180  -30.3670 C   0  0  0  0  0  0  0  0  0  0  0  0
   -5.3510   26.5400  -30.3550 O   0  0  0  0  0  0  0  0  0  0  0  0
   -3.7370   24.9340  -29.8940 N   0  0  0  0  0  0  0  0  0  0  0  0
   -3.0680   23.8920  -30.2900 C   0  0  0  0  0  0  0  0  0  0  0  0
   -3.4840   23.0550  -31.2750 N   0  0  0  0  0  0  0  0  0  0  0  0
   -2.5740   22.0720  -31.4830 C   0  0  0  0  0  0  0  0  0  0  0  0
   -2.7170   21.0600  -32.4280 C   0  0  0  0  0  0  0  0  0  0  0  0
   -3.6119   21.0158  -33.0661 H   0  0  0  0  0  0  0  0  0  0  0  0
   -1.6960   20.0890  -32.5570 C   0  0  0  0  0  0  0  0  0  0  0  0
   -1.7630   19.0790  -33.5310 O   0  0  0  0  0  0  0  0  0  0  0  0
   -2.1110   17.7230  -33.2680 C   0  0  0  0  0  0  0  0  0  0  0  0
   -2.1530   17.5594  -32.1810 H   0  0  0  0  0  0  0  0  0  0  0  0
   -3.0943   17.5045  -33.7099 H   0  0  0  0  0  0  0  0  0  0  0  0
   -1.3544   17.0579  -33.7099 H   0  0  0  0  0  0  0  0  0  0  0  0
   -0.5600   20.1440  -31.7030 C   0  0  0  0  0  0  0  0  0  0  0  0
    0.4880   19.1690  -31.8020 N   0  0  0  0  0  0  0  0  0  0  0  0
    0.9960   19.0810  -32.7120 H   0  0  0  0  0  0  0  0  0  0  0  0
    0.9820   18.4330  -30.6730 C   0  0  0  0  0  0  0  0  0  0  0  0
    0.6510   18.7640  -29.5000 O   0  0  0  0  0  0  0  0  0  0  0  0
    1.8740   17.2460  -30.8820 C   0  0  0  0  0  0  0  0  0  0  0  0
    2.4952   17.0973  -29.9865 H   0  0  0  0  0  0  0  0  0  0  0  0
    2.5126   17.4294  -31.7587 H   0  0  0  0  0  0  0  0  0  0  0  0
    1.0410   15.9920  -31.1300 C   0  0  0  0  0  0  0  0  0  0  0  0
    0.7475   15.5502  -30.1663 H   0  0  0  0  0  0  0  0  0  0  0  0
    0.1393   16.2578  -31.7012 H   0  0  0  0  0  0  0  0  0  0  0  0
    1.6356   15.2639  -31.7012 H   0  0  0  0  0  0  0  0  0  0  0  0
   -0.4250   21.1940  -30.7760 C   0  0  0  0  0  0  0  0  0  0  0  0
    0.4687   21.2706  -30.1393 H   0  0  0  0  0  0  0  0  0  0  0  0
   -1.4460   22.1320  -30.6830 C   0  0  0  0  0  0  0  0  0  0  0  0
   -1.5590   23.4600  -29.6590 S   0  0  0  0  0  0  0  0  0  0  0  0
   -6.3160   24.1790  -32.1930 C   0  0  0  0  0  0  0  0  0  0  0  0
   -5.8009   24.8180  -32.9254 H   0  0  0  0  0  0  0  0  0  0  0  0
   -7.2430   23.2290  -32.6310 C   0  0  0  0  0  0  0  0  0  0  0  0
   -7.4379   23.1120  -33.7073 H   0  0  0  0  0  0  0  0  0  0  0  0
   -6.4330   19.3640  -33.8550 C   0  0  0  0  0  0  0  0  0  0  0  0
   -6.2736   20.1674  -34.5893 H   0  0  0  0  0  0  0  0  0  0  0  0
  1  2  1  0
  2  3  2  0
  3  4  1  0
  3  5  1  0
  5  6  1  0
  5  7  2  0
  7  8  1  0
  8  9  1  0
  8 10  1  0
  7 11  1  0
 11 12  1  0
 12 13  1  0
 13 14  2  0
 13 15  1  0
 15 16  2  0
 16 17  1  0
 16 18  1  0
 18 19  1  0
 18 20  2  0
 20 21  1  0
 21 22  2  0
 21 23  1  0
 23 24  2  0
 24 25  1  0
 25 26  1  0
 26 27  2  0
 27 28  1  0
 27 29  1  0
 29 30  1  0
 30 31  1  0
 31 32  1  0
 31 33  1  0
 31 34  1  0
 29 35  2  0
 35 36  1  0
 36 37  1  0
 36 38  1  0
 38 39  2  0
 38 40  1  0
 40 41  1  0
 40 42  1  0
 40 43  1  0
 43 44  1  0
 43 45  1  0
 43 46  1  0
 35 47  1  0
 47 48  1  0
 47 49  2  0
 49 50  1  0
 20 51  1  0
 51 52  1  0
 51 53  2  0
 53 54  1  0
 11 55  2  0
 55 56  1  0
 55  2  1  0
 53 15  1  0
 50 24  1  0
 49 26  1  0
M  CHG  2  12  -1  25  -1
M  END
>  <UniqueID>  (45) 
40

>  <SMILES>  (45) 
CCC(=O)Nc1cc2s/c(=N/C(=O)c3ccc(C(=O)[N-]c4ccccc4N)cc3)[n-]c2cc1OC

>  <Energy>  (45) 
108.77367241413195

>  <Genealogy>  (45) 
CCC(=O)Nc1cc2sc(=NC(=O)c3ccc(C(=O)[N-]c4ccccc4N)cc3)[n-]c2cc1OC (protonated)
CCC(=O)Nc1cc2s/c(=N/C(=O)c3ccc(C(=O)[N-]c4ccccc4N)cc3)[n-]c2cc1OC (cis-trans isomerization)
CCC(=O)Nc1cc2s/c(=N/C(=O)c3ccc(C(=O)[N-]c4ccccc4N)cc3)[n-]c2cc1OC (3D coordinates assigned)
CCC(=O)Nc1cc2s/c(=N/C(=O)c3ccc(C(=O)[N-]c4ccccc4N)cc3)[n-]c2cc1OC (optimized conformer: 108.77367241413195 kcal/mol)

>  <smiles>  (45) 
CCC(=O)Nc1cc2sc(=NC(=O)c3ccc(C(=O)Nc4ccccc4N)cc3)[nH]c2cc1OC

>  <score_type>  (45) 
oracle

>  <origin>  (45) 
adgpu

>  <m_score__min__energy>  (45) 
-11.800000000000001

>  <m_primary>  (45) 
energy

$$$$
45:0
     RDKit          3D

 45 47  0  0  0  0  0  0  0  0999 V2000
   -4.8610   17.4140  -34.9730 C   0  0  0  0  0  0  0  0  0  0  0  0
   -4.3430   18.5870  -34.3530 O   0  0  0  0  0  0  0  0  0  0  0  0
   -5.1180   19.5530  -33.6890 C   0  0  0  0  0  0  0  0  0  0  0  0
   -6.4650   19.3100  -33.3510 C   0  0  0  0  0  0  0  0  0  0  0  0
   -7.2230   20.2840  -32.6890 C   0  0  0  0  0  0  0  0  0  0  0  0
   -8.5640   20.0410  -32.3540 C   0  0  0  0  0  0  0  0  0  0  0  0
   -9.3120   21.0200  -31.6930 C   0  0  0  0  0  0  0  0  0  0  0  0
   -8.7280   22.2460  -31.3640 C   0  0  0  0  0  0  0  0  0  0  0  0
   -7.3940   22.4990  -31.6930 C   0  0  0  0  0  0  0  0  0  0  0  0
   -6.6320   21.5230  -32.3570 C   0  0  0  0  0  0  0  0  0  0  0  0
   -5.2930   21.7670  -32.6900 C   0  0  0  0  0  0  0  0  0  0  0  0
   -4.5260   20.7900  -33.3570 C   0  0  0  0  0  0  0  0  0  0  0  0
   -3.1470   21.0380  -33.7020 N   0  0  0  0  0  0  0  0  0  0  0  0
   -2.0170   20.6030  -32.8770 C   0  0  0  0  0  0  0  0  0  0  0  0
   -2.2170   21.0230  -31.4520 C   0  0  0  0  0  0  0  0  0  0  0  0
   -2.1900   20.1540  -30.5390 O   0  0  0  0  0  0  0  0  0  0  0  0
   -2.4080   22.4090  -31.1330 N   0  0  0  0  0  0  0  0  0  0  0  0
   -2.3440   22.9200  -29.7910 C   0  0  0  0  0  0  0  0  0  0  0  0
   -1.7870   22.1180  -28.7850 C   0  0  0  0  0  0  0  0  0  0  0  0
   -1.7130   22.5820  -27.4700 C   0  0  0  0  0  0  0  0  0  0  0  0
   -2.2100   23.8440  -27.1470 C   0  0  0  0  0  0  0  0  0  0  0  0
   -2.7960   24.6410  -28.1340 C   0  0  0  0  0  0  0  0  0  0  0  0
   -2.8830   24.1820  -29.4630 C   0  0  0  0  0  0  0  0  0  0  0  0
   -3.5150   24.9360  -30.4650 O   0  0  0  0  0  0  0  0  0  0  0  0
   -4.9180   24.9490  -30.7070 C   0  0  0  0  0  0  0  0  0  0  0  0
   -5.1767   16.6991  -34.1989 H   0  0  0  0  0  0  0  0  0  0  0  0
   -5.7248   17.6813  -35.5994 H   0  0  0  0  0  0  0  0  0  0  0  0
   -4.0816   16.9557  -35.5994 H   0  0  0  0  0  0  0  0  0  0  0  0
   -6.9255   18.3452  -33.6100 H   0  0  0  0  0  0  0  0  0  0  0  0
   -9.0279   19.0776  -32.6122 H   0  0  0  0  0  0  0  0  0  0  0  0
  -10.3624   20.8247  -31.4314 H   0  0  0  0  0  0  0  0  0  0  0  0
   -9.3201   23.0139  -30.8446 H   0  0  0  0  0  0  0  0  0  0  0  0
   -6.9387   23.4656  -31.4313 H   0  0  0  0  0  0  0  0  0  0  0  0
   -4.8349   22.7321  -32.4279 H   0  0  0  0  0  0  0  0  0  0  0  0
   -2.9360   21.5480  -34.5910 H   0  0  0  0  0  0  0  0  0  0  0  0
   -1.9351   19.5070  -32.9236 H   0  0  0  0  0  0  0  0  0  0  0  0
   -1.0965   21.0679  -33.2598 H   0  0  0  0  0  0  0  0  0  0  0  0
   -2.7250   23.0530  -31.8920 H   0  0  0  0  0  0  0  0  0  0  0  0
   -1.4057   21.1165  -29.0332 H   0  0  0  0  0  0  0  0  0  0  0  0
   -1.2626   21.9518  -26.6890 H   0  0  0  0  0  0  0  0  0  0  0  0
   -2.1407   24.2130  -26.1131 H   0  0  0  0  0  0  0  0  0  0  0  0
   -3.1919   25.6332  -27.8715 H   0  0  0  0  0  0  0  0  0  0  0  0
   -5.4556   24.9540  -29.7473 H   0  0  0  0  0  0  0  0  0  0  0  0
   -5.1829   25.8496  -31.2803 H   0  0  0  0  0  0  0  0  0  0  0  0
   -5.1995   24.0534  -31.2803 H   0  0  0  0  0  0  0  0  0  0  0  0
  1  2  1  0
  2  3  1  0
  3  4  2  0
  4  5  1  0
  5  6  2  0
  6  7  1  0
  7  8  2  0
  8  9  1  0
  9 10  2  0
 10 11  1  0
 11 12  2  0
 12 13  1  0
 13 14  1  0
 14 15  1  0
 15 16  2  0
 15 17  1  0
 17 18  1  0
 18 19  2  0
 19 20  1  0
 20 21  2  0
 21 22  1  0
 22 23  2  0
 23 24  1  0
 24 25  1  0
 12  3  1  0
 23 18  1  0
 10  5  1  0
  1 26  1  0
  1 27  1  0
  1 28  1  0
  4 29  1  0
  6 30  1  0
  7 31  1  0
  8 32  1  0
  9 33  1  0
 11 34  1  0
 13 35  1  0
 14 36  1  0
 14 37  1  0
 17 38  1  0
 19 39  1  0
 20 40  1  0
 21 41  1  0
 22 42  1  0
 25 43  1  0
 25 44  1  0
 25 45  1  0
M  END
>  <UniqueID>  (46) 
41

>  <SMILES>  (46) 
COc1cc2ccccc2cc1NCC(=O)Nc1ccccc1OC

>  <Energy>  (46) 
53.43897213096297

>  <Genealogy>  (46) 
COc1cc2ccccc2cc1NCC(=O)Nc1ccccc1OC (3D coordinates assigned)
COc1cc2ccccc2cc1NCC(=O)Nc1ccccc1OC (optimized conformer: 53.43897213096297 kcal/mol)

>  <smiles>  (46) 
COc1cc2ccccc2cc1NCC(=O)Nc1ccccc1OC

>  <score_type>  (46) 
oracle

>  <origin>  (46) 
adgpu

>  <m_score__min__energy>  (46) 
-8.9600000000000009

>  <m_primary>  (46) 
energy

$$$$
46:0
     RDKit          3D

 40 43  0  0  0  0  0  0  0  0999 V2000
   -7.7060   17.6540  -32.4280 O   0  0  0  0  0  0  0  0  0  0  0  0
   -6.6320   18.1760  -32.8430 C   0  0  0  0  0  0  0  0  0  0  0  0
   -5.6380   17.3620  -33.4100 C   0  0  0  0  0  0  0  0  0  0  0  0
   -5.7830   15.9670  -33.5300 C   0  0  0  0  0  0  0  0  0  0  0  0
   -4.7620   15.2030  -34.1050 C   0  0  0  0  0  0  0  0  0  0  0  0
   -3.5960   15.8210  -34.5630 C   0  0  0  0  0  0  0  0  0  0  0  0
   -3.4440   17.2050  -34.4470 C   0  0  0  0  0  0  0  0  0  0  0  0
   -4.4620   17.9760  -33.8730 C   0  0  0  0  0  0  0  0  0  0  0  0
   -4.3130   19.3160  -33.7580 N   0  0  0  0  0  0  0  0  0  0  0  0
   -5.2750   20.1020  -33.2070 C   0  0  0  0  0  0  0  0  0  0  0  0
   -4.9720   21.5810  -33.0830 C   0  0  0  0  0  0  0  0  0  0  0  0
   -4.0470   21.8740  -31.8970 C   0  0  0  0  0  0  0  0  0  0  0  0
   -4.4260   23.1410  -31.1950 C   0  0  0  0  0  0  0  0  0  0  0  0
   -3.8770   23.6120  -30.0240 C   0  0  0  0  0  0  0  0  0  0  0  0
   -4.4570   24.7880  -29.7420 N   0  0  0  0  0  0  0  0  0  0  0  0
   -5.3330   25.0070  -30.7410 C   0  0  0  0  0  0  0  0  0  0  0  0
   -5.3380   24.0180  -31.6600 N   0  0  0  0  0  0  0  0  0  0  0  0
   -6.4440   19.5330  -32.7470 N   0  0  0  0  0  0  0  0  0  0  0  0
   -7.4910   20.3380  -32.1730 C   0  0  0  0  0  0  0  0  0  0  0  0
   -7.2170   21.1920  -31.0920 C   0  0  0  0  0  0  0  0  0  0  0  0
   -8.2340   21.9770  -30.5400 C   0  0  0  0  0  0  0  0  0  0  0  0
   -9.5260   21.9230  -31.0720 C   0  0  0  0  0  0  0  0  0  0  0  0
   -9.8000   21.0910  -32.1610 C   0  0  0  0  0  0  0  0  0  0  0  0
   -8.7850   20.3070  -32.7170 C   0  0  0  0  0  0  0  0  0  0  0  0
   -6.7002   15.4771  -33.1712 H   0  0  0  0  0  0  0  0  0  0  0  0
   -4.8776   14.1129  -34.1967 H   0  0  0  0  0  0  0  0  0  0  0  0
   -2.7960   15.2169  -35.0158 H   0  0  0  0  0  0  0  0  0  0  0  0
   -2.5241   17.6891  -34.8068 H   0  0  0  0  0  0  0  0  0  0  0  0
   -4.4848   21.9236  -34.0078 H   0  0  0  0  0  0  0  0  0  0  0  0
   -5.9208   22.1120  -32.9164 H   0  0  0  0  0  0  0  0  0  0  0  0
   -4.1085   21.0394  -31.1830 H   0  0  0  0  0  0  0  0  0  0  0  0
   -3.0234   21.9903  -32.2827 H   0  0  0  0  0  0  0  0  0  0  0  0
   -3.1006   23.1127  -29.4258 H   0  0  0  0  0  0  0  0  0  0  0  0
   -4.2610   25.4090  -28.9260 H   0  0  0  0  0  0  0  0  0  0  0  0
   -5.9763   25.8972  -30.8018 H   0  0  0  0  0  0  0  0  0  0  0  0
   -6.1990   21.2434  -30.6783 H   0  0  0  0  0  0  0  0  0  0  0  0
   -8.0176   22.6371  -29.6871 H   0  0  0  0  0  0  0  0  0  0  0  0
  -10.3272   22.5357  -30.6331 H   0  0  0  0  0  0  0  0  0  0  0  0
  -10.8159   21.0530  -32.5812 H   0  0  0  0  0  0  0  0  0  0  0  0
   -9.0007   19.6640  -33.5831 H   0  0  0  0  0  0  0  0  0  0  0  0
  1  2  2  0
  2  3  1  0
  3  4  2  0
  4  5  1  0
  5  6  2  0
  6  7  1  0
  7  8  2  0
  8  9  1  0
  9 10  2  0
 10 11  1  0
 11 12  1  0
 12 13  1  0
 13 14  2  0
 14 15  1  0
 15 16  1  0
 16 17  2  0
 10 18  1  0
 18 19  1  0
 19 20  2  0
 20 21  1  0
 21 22  2  0
 22 23  1  0
 23 24  2  0
 18  2  1  0
 24 19  1  0
  8  3  1  0
 17 13  1  0
  4 25  1  0
  5 26  1  0
  6 27  1  0
  7 28  1  0
 11 29  1  0
 11 30  1  0
 12 31  1  0
 12 32  1  0
 14 33  1  0
 15 34  1  0
 16 35  1  0
 20 36  1  0
 21 37  1  0
 22 38  1  0
 23 39  1  0
 24 40  1  0
M  END
>  <UniqueID>  (47) 
42

>  <SMILES>  (47) 
O=c1c2ccccc2nc(CCc2c[nH]cn2)n1-c1ccccc1

>  <Energy>  (47) 
83.10454512289245

>  <Genealogy>  (47) 
O=c1c2ccccc2nc(CCc2c[nH]cn2)n1-c1ccccc1 (3D coordinates assigned)
O=c1c2ccccc2nc(CCc2c[nH]cn2)n1-c1ccccc1 (optimized conformer: 83.10454512289245 kcal/mol)

>  <smiles>  (47) 
O=c1c2ccccc2nc(CCc2c[nH]cn2)n1-c1ccccc1

>  <score_type>  (47) 
oracle

>  <origin>  (47) 
adgpu

>  <m_score__min__energy>  (47) 
-8.4399999999999995

>  <m_primary>  (47) 
energy

$$$$
47:0
     RDKit          3D

 16 16  0  0  0  0  0  0  0  0999 V2000
   -3.8260   25.2720  -30.1120 N   0  0  0  0  0  0  0  0  0  0  0  0
   -4.8660   24.4410  -30.6360 C   0  0  0  0  0  0  0  0  0  0  0  0
   -6.2060   24.7010  -30.3140 C   0  0  0  0  0  0  0  0  0  0  0  0
   -7.2210   23.8900  -30.8270 C   0  0  0  0  0  0  0  0  0  0  0  0
   -6.9060   22.8140  -31.6610 C   0  0  0  0  0  0  0  0  0  0  0  0
   -5.5700   22.5450  -31.9890 C   0  0  0  0  0  0  0  0  0  0  0  0
   -5.2460   21.4450  -32.8440 N   0  0  0  0  0  0  0  0  0  0  0  0
   -4.5520   23.3610  -31.4750 C   0  0  0  0  0  0  0  0  0  0  0  0
   -3.7790   25.4900  -29.0930 H   0  0  0  0  0  0  0  0  0  0  0  0
   -3.0960   25.6750  -30.7410 H   0  0  0  0  0  0  0  0  0  0  0  0
   -6.4583   25.5456  -29.6559 H   0  0  0  0  0  0  0  0  0  0  0  0
   -8.2709   24.0989  -30.5738 H   0  0  0  0  0  0  0  0  0  0  0  0
   -7.7083   22.1766  -32.0611 H   0  0  0  0  0  0  0  0  0  0  0  0
   -5.2570   20.4650  -32.4810 H   0  0  0  0  0  0  0  0  0  0  0  0
   -4.9940   21.6000  -33.8450 H   0  0  0  0  0  0  0  0  0  0  0  0
   -3.5024   23.1535  -31.7307 H   0  0  0  0  0  0  0  0  0  0  0  0
  1  2  1  0
  2  3  2  0
  3  4  1  0
  4  5  2  0
  5  6  1  0
  6  7  1  0
  6  8  2  0
  8  2  1  0
  1  9  1  0
  1 10  1  0
  3 11  1  0
  4 12  1  0
  5 13  1  0
  7 14  1  0
  7 15  1  0
  8 16  1  0
M  END
>  <UniqueID>  (48) 
43

>  <SMILES>  (48) 
Nc1cccc(N)c1

>  <Energy>  (48) 
12.470375499717209

>  <Genealogy>  (48) 
Nc1cccc(N)c1 (3D coordinates assigned)
Nc1cccc(N)c1 (optimized conformer: 12.470375499717209 kcal/mol)

>  <smiles>  (48) 
Nc1cccc(N)c1

>  <score_type>  (48) 
oracle

>  <origin>  (48) 
adgpu

>  <m_score__min__energy>  (48) 
-4.29

>  <m_primary>  (48) 
energy

$$$$
48:0
     RDKit          3D

 35 36  0  0  0  0  0  0  0  0999 V2000
   -6.1947   25.7824  -29.5579 H   0  0  0  0  0  0  0  0  0  0  0  0
   -6.1150   24.8640  -30.1580 C   0  0  0  0  0  0  0  0  0  0  0  0
   -7.2330   24.1550  -30.4640 N   0  0  0  0  0  0  0  0  0  0  0  0
   -7.1800   23.0200  -31.2110 C   0  0  0  0  0  0  0  0  0  0  0  0
   -8.6550   22.1440  -31.5640 Cl  0  0  0  0  0  0  0  0  0  0  0  0
   -5.9540   22.5630  -31.7000 C   0  0  0  0  0  0  0  0  0  0  0  0
   -5.9048   21.6505  -32.3124 H   0  0  0  0  0  0  0  0  0  0  0  0
   -4.7920   23.2770  -31.4030 C   0  0  0  0  0  0  0  0  0  0  0  0
   -3.8230   22.9354  -31.7959 H   0  0  0  0  0  0  0  0  0  0  0  0
   -4.8560   24.4260  -30.6070 C   0  0  0  0  0  0  0  0  0  0  0  0
   -3.6560   25.1630  -30.3160 N   0  0  0  0  0  0  0  0  0  0  0  0
   -3.4810   26.0460  -30.8460 H   0  0  0  0  0  0  0  0  0  0  0  0
   -2.6770   24.7660  -29.3430 C   0  0  0  0  0  0  0  0  0  0  0  0
   -1.7600   25.6750  -28.9170 N   0  0  0  0  0  0  0  0  0  0  0  0
   -0.7980   25.3570  -28.0120 C   0  0  0  0  0  0  0  0  0  0  0  0
   -0.0761   26.1216  -27.6892 H   0  0  0  0  0  0  0  0  0  0  0  0
   -0.7210   24.0630  -27.4890 C   0  0  0  0  0  0  0  0  0  0  0  0
    0.6430   23.6610  -26.2040 Br  0  0  0  0  0  0  0  0  0  0  0  0
   -1.6370   23.0880  -27.9160 C   0  0  0  0  0  0  0  0  0  0  0  0
   -1.5540   21.8820  -27.4210 N   0  0  0  0  0  0  0  0  0  0  0  0
   -2.4220   20.7410  -27.7190 C   0  0  0  0  0  0  0  0  0  0  0  0
   -2.6717   20.7469  -28.7903 H   0  0  0  0  0  0  0  0  0  0  0  0
   -3.3371   20.8244  -27.1143 H   0  0  0  0  0  0  0  0  0  0  0  0
   -1.7180   19.4200  -27.3720 C   0  0  0  0  0  0  0  0  0  0  0  0
   -0.6664   19.6335  -27.1301 H   0  0  0  0  0  0  0  0  0  0  0  0
   -1.8051   18.7553  -28.2441 H   0  0  0  0  0  0  0  0  0  0  0  0
   -2.3640   18.7070  -26.1750 C   0  0  0  0  0  0  0  0  0  0  0  0
   -2.1356   19.2747  -25.2609 H   0  0  0  0  0  0  0  0  0  0  0  0
   -1.9528   17.6877  -26.1313 H   0  0  0  0  0  0  0  0  0  0  0  0
   -3.8820   18.5900  -26.3130 C   0  0  0  0  0  0  0  0  0  0  0  0
   -4.3394   18.5547  -25.3132 H   0  0  0  0  0  0  0  0  0  0  0  0
   -4.2684   19.4610  -26.8625 H   0  0  0  0  0  0  0  0  0  0  0  0
   -4.1304   17.6700  -26.8625 H   0  0  0  0  0  0  0  0  0  0  0  0
   -2.6120   23.4460  -28.8690 C   0  0  0  0  0  0  0  0  0  0  0  0
   -3.3212   22.6919  -29.2410 H   0  0  0  0  0  0  0  0  0  0  0  0
  1  2  1  0
  2  3  2  0
  3  4  1  0
  4  5  1  0
  4  6  2  0
  6  7  1  0
  6  8  1  0
  8  9  1  0
  8 10  2  0
 10 11  1  0
 11 12  1  0
 11 13  1  0
 13 14  1  0
 14 15  1  0
 15 16  1  0
 15 17  2  0
 17 18  1  0
 17 19  1  0
 19 20  2  0
 20 21  1  0
 21 22  1  0
 21 23  1  0
 21 24  1  0
 24 25  1  0
 24 26  1  0
 24 27  1  0
 27 28  1  0
 27 29  1  0
 27 30  1  0
 30 31  1  0
 30 32  1  0
 30 33  1  0
 19 34  1  0
 34 35  1  0
 10  2  1  0
 34 13  2  0
M  CHG  1  14  -1
M  END
>  <UniqueID>  (49) 
44

>  <SMILES>  (49) 
CCCC/N=c1\cc(Nc2ccc(Cl)nc2)[n-]cc1Br

>  <Energy>  (49) 
37.237328441339564

>  <Genealogy>  (49) 
CCCCN=c1cc(Nc2ccc(Cl)nc2)[n-]cc1Br (protonated)
CCCC/N=c1\cc(Nc2ccc(Cl)nc2)[n-]cc1Br (cis-trans isomerization)
CCCC/N=c1\cc(Nc2ccc(Cl)nc2)[n-]cc1Br (3D coordinates assigned)
CCCC/N=c1\cc(Nc2ccc(Cl)nc2)[n-]cc1Br (optimized conformer: 37.237328441339564 kcal/mol)

>  <smiles>  (49) 
CCCCN=c1cc(Nc2ccc(Cl)nc2)[nH]cc1Br

>  <score_type>  (49) 
oracle

>  <origin>  (49) 
adgpu

>  <m_score__min__energy>  (49) 
-9.5600000000000005

>  <m_primary>  (49) 
energy

$$$$
