0:0
     RDKit          3D

 39 40  0  0  0  0  0  0  0  0999 V2000
   -2.1930   24.6450  -28.7650 C   0  0  0  0  0  0  0  0  0  0  0  0
   -3.1130   25.1620  -29.7210 O   0  0  0  0  0  0  0  0  0  0  0  0
   -4.2960   24.5160  -30.1090 C   0  0  0  0  0  0  0  0  0  0  0  0
   -5.4570   25.2230  -30.4800 C   0  0  0  0  0  0  0  0  0  0  0  0
   -6.6120   24.5310  -30.8590 C   0  0  0  0  0  0  0  0  0  0  0  0
   -6.6250   23.1300  -30.8660 C   0  0  0  0  0  0  0  0  0  0  0  0
   -8.0710   22.2630  -31.3690 S   0  0  0  0  0  0  0  0  0  0  0  0
   -8.8940   23.1250  -32.2850 O   0  0  0  0  0  0  0  0  0  0  0  0
   -8.9100   21.9270  -30.1670 O   0  0  0  0  0  0  0  0  0  0  0  0
   -7.5960   20.7880  -32.2010 C   0  0  0  0  0  0  0  0  0  0  0  0
   -6.4580   20.7680  -33.0140 C   0  0  0  0  0  0  0  0  0  0  0  0
   -6.0800   19.5860  -33.6550 C   0  0  0  0  0  0  0  0  0  0  0  0
   -6.8460   18.4270  -33.4670 C   0  0  0  0  0  0  0  0  0  0  0  0
   -6.4740   17.1460  -34.1580 C   0  0  0  0  0  0  0  0  0  0  0  0
   -5.4310   16.4280  -33.3980 N   0  0  0  0  0  0  0  0  0  0  0  0
   -5.4190   14.9960  -33.7490 C   0  0  0  0  0  0  0  0  0  0  0  0
   -5.6680   16.5770  -31.9550 C   0  0  0  0  0  0  0  0  0  0  0  0
   -7.9460   18.4690  -32.6660 N   0  0  0  0  0  0  0  0  0  0  0  0
   -8.3330   19.6080  -32.0340 C   0  0  0  0  0  0  0  0  0  0  0  0
   -5.4700   22.4260  -30.5070 C   0  0  0  0  0  0  0  0  0  0  0  0
   -4.3140   23.1160  -30.1280 C   0  0  0  0  0  0  0  0  0  0  0  0
   -2.5631   24.8530  -27.7502 H   0  0  0  0  0  0  0  0  0  0  0  0
   -2.0926   23.5583  -28.9031 H   0  0  0  0  0  0  0  0  0  0  0  0
   -1.2126   25.1243  -28.9031 H   0  0  0  0  0  0  0  0  0  0  0  0
   -5.4550   26.3230  -30.4715 H   0  0  0  0  0  0  0  0  0  0  0  0
   -7.5135   25.0888  -31.1526 H   0  0  0  0  0  0  0  0  0  0  0  0
   -5.8613   21.6823  -33.1484 H   0  0  0  0  0  0  0  0  0  0  0  0
   -5.1899   19.5647  -34.3010 H   0  0  0  0  0  0  0  0  0  0  0  0
   -7.3659   16.5073  -34.2395 H   0  0  0  0  0  0  0  0  0  0  0  0
   -6.0829   17.3838  -35.1582 H   0  0  0  0  0  0  0  0  0  0  0  0
   -5.4139   14.3930  -32.8290 H   0  0  0  0  0  0  0  0  0  0  0  0
   -6.3152   14.7558  -34.3399 H   0  0  0  0  0  0  0  0  0  0  0  0
   -4.5189   14.7709  -34.3399 H   0  0  0  0  0  0  0  0  0  0  0  0
   -4.8652   16.0723  -31.3975 H   0  0  0  0  0  0  0  0  0  0  0  0
   -5.6800   17.6455  -31.6938 H   0  0  0  0  0  0  0  0  0  0  0  0
   -6.6361   16.1247  -31.6938 H   0  0  0  0  0  0  0  0  0  0  0  0
   -9.2254   19.6037  -31.3909 H   0  0  0  0  0  0  0  0  0  0  0  0
   -5.4714   21.3261  -30.5230 H   0  0  0  0  0  0  0  0  0  0  0  0
   -3.4121   22.5546  -29.8427 H   0  0  0  0  0  0  0  0  0  0  0  0
  1  2  1  0
  2  3  1  0
  3  4  2  0
  4  5  1  0
  5  6  2  0
  6  7  1  0
  7  8  2  0
  7  9  2  0
  7 10  1  0
 10 11  2  0
 11 12  1  0
 12 13  2  0
 13 14  1  0
 14 15  1  0
 15 16  1  0
 15 17  1  0
 13 18  1  0
 18 19  2  0
  6 20  1  0
 20 21  2  0
 21  3  1  0
 19 10  1  0
  1 22  1  0
  1 23  1  0
  1 24  1  0
  4 25  1  0
  5 26  1  0
 11 27  1  0
 12 28  1  0
 14 29  1  0
 14 30  1  0
 16 31  1  0
 16 32  1  0
 16 33  1  0
 17 34  1  0
 17 35  1  0
 17 36  1  0
 19 37  1  0
 20 38  1  0
 21 39  1  0
M  END
>  <UniqueID>  (1) 
1

>  <SMILES>  (1) 
COc1ccc(S(=O)(=O)c2ccc(CN(C)C)nc2)cc1

>  <Energy>  (1) 
40.26738430261216

>  <Genealogy>  (1) 
COc1ccc(S(=O)(=O)c2ccc(CN(C)C)nc2)cc1 (3D coordinates assigned)
COc1ccc(S(=O)(=O)c2ccc(CN(C)C)nc2)cc1 (optimized conformer: 40.26738430261216 kcal/mol)

>  <smiles>  (1) 
COc1ccc(S(=O)(=O)c2ccc(CN(C)C)nc2)cc1

>  <score_type>  (1) 
oracle

>  <origin>  (1) 
adgpu

>  <m_score__min__energy>  (1) 
-8.1199999999999992

>  <m_primary>  (1) 
energy

$$$$
1:0
     RDKit          3D

 40 42  0  0  0  0  0  0  0  0999 V2000
   -6.2150   25.6470  -29.6920 C   0  0  0  0  0  0  0  0  0  0  0  0
   -5.9250   24.4380  -30.5390 C   0  0  0  0  0  0  0  0  0  0  0  0
   -6.9840   23.6170  -30.9610 C   0  0  0  0  0  0  0  0  0  0  0  0
   -6.7310   22.4800  -31.7300 C   0  0  0  0  0  0  0  0  0  0  0  0
   -5.4240   22.1500  -32.0820 C   0  0  0  0  0  0  0  0  0  0  0  0
   -4.3610   22.9490  -31.6570 C   0  0  0  0  0  0  0  0  0  0  0  0
   -4.5980   24.0950  -30.8760 C   0  0  0  0  0  0  0  0  0  0  0  0
   -3.5190   24.9200  -30.4070 N   0  0  0  0  0  0  0  0  0  0  0  0
   -2.6420   24.6830  -28.9300 S   0  0  0  0  0  0  0  0  0  0  0  0
   -1.5040   25.6620  -28.8720 O   0  0  0  0  0  0  0  0  0  0  0  0
   -3.5610   24.9320  -27.7660 O   0  0  0  0  0  0  0  0  0  0  0  0
   -1.9900   23.0480  -28.8800 C   0  0  0  0  0  0  0  0  0  0  0  0
   -1.4430   22.4880  -30.0330 C   0  0  0  0  0  0  0  0  0  0  0  0
   -0.9280   21.1940  -30.0070 C   0  0  0  0  0  0  0  0  0  0  0  0
   -0.9480   20.4240  -28.8290 C   0  0  0  0  0  0  0  0  0  0  0  0
   -1.5310   20.9840  -27.6560 C   0  0  0  0  0  0  0  0  0  0  0  0
   -2.0270   22.3020  -27.6990 C   0  0  0  0  0  0  0  0  0  0  0  0
   -1.6410   20.2350  -26.3480 C   0  0  0  0  0  0  0  0  0  0  0  0
   -2.1810   18.8160  -26.5530 C   0  0  0  0  0  0  0  0  0  0  0  0
   -1.0520   17.8130  -26.7750 C   0  0  0  0  0  0  0  0  0  0  0  0
   -0.0240   18.2770  -27.7660 C   0  0  0  0  0  0  0  0  0  0  0  0
    1.1420   17.8080  -27.6870 O   0  0  0  0  0  0  0  0  0  0  0  0
   -0.3620   19.1040  -28.8860 N   0  0  0  0  0  0  0  0  0  0  0  0
   -6.1495   25.3739  -28.6285 H   0  0  0  0  0  0  0  0  0  0  0  0
   -5.4804   26.4351  -29.9141 H   0  0  0  0  0  0  0  0  0  0  0  0
   -7.2272   26.0161  -29.9141 H   0  0  0  0  0  0  0  0  0  0  0  0
   -8.0177   23.8715  -30.6840 H   0  0  0  0  0  0  0  0  0  0  0  0
   -7.5654   21.8431  -32.0589 H   0  0  0  0  0  0  0  0  0  0  0  0
   -5.2293   21.2583  -32.6959 H   0  0  0  0  0  0  0  0  0  0  0  0
   -3.3310   22.6807  -31.9347 H   0  0  0  0  0  0  0  0  0  0  0  0
   -1.4179   23.0696  -30.9664 H   0  0  0  0  0  0  0  0  0  0  0  0
   -0.4976   20.7659  -30.9243 H   0  0  0  0  0  0  0  0  0  0  0  0
   -2.4502   22.7510  -26.7883 H   0  0  0  0  0  0  0  0  0  0  0  0
   -0.6442   20.1742  -25.8868 H   0  0  0  0  0  0  0  0  0  0  0  0
   -2.3425   20.7791  -25.6985 H   0  0  0  0  0  0  0  0  0  0  0  0
   -2.7524   18.5190  -25.6612 H   0  0  0  0  0  0  0  0  0  0  0  0
   -2.8217   18.8170  -27.4471 H   0  0  0  0  0  0  0  0  0  0  0  0
   -0.5512   17.6339  -25.8121 H   0  0  0  0  0  0  0  0  0  0  0  0
   -1.5072   16.8995  -27.1852 H   0  0  0  0  0  0  0  0  0  0  0  0
    0.0750   18.8160  -29.7910 H   0  0  0  0  0  0  0  0  0  0  0  0
  1  2  1  0
  2  3  2  0
  3  4  1  0
  4  5  2  0
  5  6  1  0
  6  7  2  0
  7  8  1  0
  8  9  1  0
  9 10  2  0
  9 11  2  0
  9 12  1  0
 12 13  2  0
 13 14  1  0
 14 15  2  0
 15 16  1  0
 16 17  2  0
 16 18  1  0
 18 19  1  0
 19 20  1  0
 20 21  1  0
 21 22  2  0
 21 23  1  0
  7  2  1  0
 17 12  1  0
 23 15  1  0
  1 24  1  0
  1 25  1  0
  1 26  1  0
  3 27  1  0
  4 28  1  0
  5 29  1  0
  6 30  1  0
 13 31  1  0
 14 32  1  0
 17 33  1  0
 18 34  1  0
 18 35  1  0
 19 36  1  0
 19 37  1  0
 20 38  1  0
 20 39  1  0
 23 40  1  0
M  CHG  1   8  -1
M  END
>  <UniqueID>  (2) 
2

>  <SMILES>  (2) 
Cc1ccccc1[N-]S(=O)(=O)c1ccc2c(c1)CCCC(=O)N2

>  <Energy>  (2) 
55.862430757217396

>  <Genealogy>  (2) 
Cc1ccccc1[N-]S(=O)(=O)c1ccc2c(c1)CCCC(=O)N2 (protonated)
Cc1ccccc1[N-]S(=O)(=O)c1ccc2c(c1)CCCC(=O)N2 (3D coordinates assigned)
Cc1ccccc1[N-]S(=O)(=O)c1ccc2c(c1)CCCC(=O)N2 (nonaromatic ring conformer: 55.862430757217396 kcal/mol)

>  <smiles>  (2) 
Cc1ccccc1NS(=O)(=O)c1ccc2c(c1)CCCC(=O)N2

>  <score_type>  (2) 
oracle

>  <origin>  (2) 
adgpu

>  <m_score__min__energy>  (2) 
-8.8900000000000006

>  <m_primary>  (2) 
energy

$$$$
2:0
     RDKit          3D

 57 59  0  0  0  0  0  0  0  0999 V2000
   -8.4600   22.5590  -31.7230 C   0  0  0  0  0  0  0  0  0  0  0  0
   -8.2150   21.0960  -31.9440 C   0  0  0  0  0  0  0  0  0  0  0  0
   -8.9390   20.1400  -31.2150 C   0  0  0  0  0  0  0  0  0  0  0  0
   -8.7240   18.7770  -31.4380 C   0  0  0  0  0  0  0  0  0  0  0  0
   -7.8020   18.3600  -32.4010 C   0  0  0  0  0  0  0  0  0  0  0  0
   -7.1010   19.3010  -33.1640 C   0  0  0  0  0  0  0  0  0  0  0  0
   -6.1810   18.8410  -34.1160 O   0  0  0  0  0  0  0  0  0  0  0  0
   -5.5040   17.6120  -34.0720 C   0  0  0  0  0  0  0  0  0  0  0  0
   -6.1930   16.4120  -33.8160 C   0  0  0  0  0  0  0  0  0  0  0  0
   -5.5150   15.1920  -33.8230 C   0  0  0  0  0  0  0  0  0  0  0  0
   -4.1450   15.1550  -34.0830 C   0  0  0  0  0  0  0  0  0  0  0  0
   -3.4440   16.3410  -34.3110 C   0  0  0  0  0  0  0  0  0  0  0  0
   -4.1060   17.5760  -34.2700 C   0  0  0  0  0  0  0  0  0  0  0  0
   -3.3450   18.7680  -34.5110 N   0  0  0  0  0  0  0  0  0  0  0  0
   -2.0670   19.0620  -33.9370 C   0  0  0  0  0  0  0  0  0  0  0  0
   -1.0260   19.0110  -34.6450 O   0  0  0  0  0  0  0  0  0  0  0  0
   -1.9910   19.4060  -32.5500 N   0  0  0  0  0  0  0  0  0  0  0  0
   -2.4340   20.6330  -31.9510 C   0  0  0  0  0  0  0  0  0  0  0  0
   -1.6750   21.1850  -30.9180 C   0  0  0  0  0  0  0  0  0  0  0  0
   -2.0720   22.3720  -30.3050 C   0  0  0  0  0  0  0  0  0  0  0  0
   -3.2460   23.0290  -30.7000 C   0  0  0  0  0  0  0  0  0  0  0  0
   -3.6500   24.5380  -29.8520 S   0  0  0  0  0  0  0  0  0  0  0  0
   -4.2900   25.4690  -30.8420 O   0  0  0  0  0  0  0  0  0  0  0  0
   -4.6300   24.3210  -28.7350 O   0  0  0  0  0  0  0  0  0  0  0  0
   -2.2100   25.3000  -29.2380 N   0  0  0  0  0  0  0  0  0  0  0  0
   -1.6320   24.5600  -28.1130 C   0  0  0  0  0  0  0  0  0  0  0  0
   -1.2360   25.4960  -26.9660 C   0  0  0  0  0  0  0  0  0  0  0  0
   -2.3700   25.6770  -25.9500 C   0  0  0  0  0  0  0  0  0  0  0  0
   -3.5920   25.2850  -26.5150 O   0  0  0  0  0  0  0  0  0  0  0  0
   -4.0530   22.4510  -31.7160 C   0  0  0  0  0  0  0  0  0  0  0  0
   -5.3450   23.0750  -32.1730 C   0  0  0  0  0  0  0  0  0  0  0  0
   -3.6330   21.2570  -32.3300 C   0  0  0  0  0  0  0  0  0  0  0  0
   -7.3030   20.6730  -32.9240 C   0  0  0  0  0  0  0  0  0  0  0  0
   -8.4947   22.7660  -30.6432 H   0  0  0  0  0  0  0  0  0  0  0  0
   -7.6467   23.1404  -32.1819 H   0  0  0  0  0  0  0  0  0  0  0  0
   -9.4183   22.8437  -32.1819 H   0  0  0  0  0  0  0  0  0  0  0  0
   -9.6772   20.4640  -30.4666 H   0  0  0  0  0  0  0  0  0  0  0  0
   -9.2823   18.0308  -30.8537 H   0  0  0  0  0  0  0  0  0  0  0  0
   -7.6259   17.2860  -32.5606 H   0  0  0  0  0  0  0  0  0  0  0  0
   -7.2731   16.4356  -33.6090 H   0  0  0  0  0  0  0  0  0  0  0  0
   -6.0616   14.2586  -33.6233 H   0  0  0  0  0  0  0  0  0  0  0  0
   -3.6164   14.1907  -34.1084 H   0  0  0  0  0  0  0  0  0  0  0  0
   -2.3654   16.3059  -34.5241 H   0  0  0  0  0  0  0  0  0  0  0  0
   -0.7565   20.6794  -30.5852 H   0  0  0  0  0  0  0  0  0  0  0  0
   -1.4558   22.7993  -29.5002 H   0  0  0  0  0  0  0  0  0  0  0  0
   -2.3732   23.8361  -27.7434 H   0  0  0  0  0  0  0  0  0  0  0  0
   -0.7255   24.0477  -28.4676 H   0  0  0  0  0  0  0  0  0  0  0  0
   -0.3615   25.0735  -26.4496 H   0  0  0  0  0  0  0  0  0  0  0  0
   -1.0078   26.4818  -27.3974 H   0  0  0  0  0  0  0  0  0  0  0  0
   -2.1651   25.0600  -25.0627 H   0  0  0  0  0  0  0  0  0  0  0  0
   -2.4301   26.7373  -25.6636 H   0  0  0  0  0  0  0  0  0  0  0  0
   -3.5350   25.4910  -27.4850 H   0  0  0  0  0  0  0  0  0  0  0  0
   -5.9430   23.3638  -31.2961 H   0  0  0  0  0  0  0  0  0  0  0  0
   -5.1273   23.9673  -32.7784 H   0  0  0  0  0  0  0  0  0  0  0  0
   -5.9085   22.3497  -32.7784 H   0  0  0  0  0  0  0  0  0  0  0  0
   -4.2531   20.8058  -33.1186 H   0  0  0  0  0  0  0  0  0  0  0  0
   -6.7430   21.4184  -33.5078 H   0  0  0  0  0  0  0  0  0  0  0  0
  1  2  1  0
  2  3  2  0
  3  4  1  0
  4  5  2  0
  5  6  1  0
  6  7  1  0
  7  8  1  0
  8  9  2  0
  9 10  1  0
 10 11  2  0
 11 12  1  0
 12 13  2  0
 13 14  1  0
 14 15  1  0
 15 16  2  0
 15 17  1  0
 17 18  1  0
 18 19  2  0
 19 20  1  0
 20 21  2  0
 21 22  1  0
 22 23  2  0
 22 24  2  0
 22 25  1  0
 25 26  1  0
 26 27  1  0
 27 28  1  0
 28 29  1  0
 21 30  1  0
 30 31  1  0
 30 32  2  0
  6 33  2  0
 33  2  1  0
 13  8  1  0
 32 18  1  0
  1 34  1  0
  1 35  1  0
  1 36  1  0
  3 37  1  0
  4 38  1  0
  5 39  1  0
  9 40  1  0
 10 41  1  0
 11 42  1  0
 12 43  1  0
 19 44  1  0
 20 45  1  0
 26 46  1  0
 26 47  1  0
 27 48  1  0
 27 49  1  0
 28 50  1  0
 28 51  1  0
 29 52  1  0
 31 53  1  0
 31 54  1  0
 31 55  1  0
 32 56  1  0
 33 57  1  0
M  CHG  3  14  -1  17  -1  25  -1
M  END
>  <UniqueID>  (3) 
3

>  <SMILES>  (3) 
Cc1cccc(Oc2ccccc2[N-]C(=O)[N-]c2ccc(S(=O)(=O)[N-]CCCO)c(C)c2)c1

>  <Energy>  (3) 
72.12120633033784

>  <Genealogy>  (3) 
Cc1cccc(Oc2ccccc2[N-]C(=O)[N-]c2ccc(S(=O)(=O)[N-]CCCO)c(C)c2)c1 (protonated)
Cc1cccc(Oc2ccccc2[N-]C(=O)[N-]c2ccc(S(=O)(=O)[N-]CCCO)c(C)c2)c1 (3D coordinates assigned)
Cc1cccc(Oc2ccccc2[N-]C(=O)[N-]c2ccc(S(=O)(=O)[N-]CCCO)c(C)c2)c1 (optimized conformer: 72.12120633033784 kcal/mol)

>  <smiles>  (3) 
Cc1cccc(Oc2ccccc2NC(=O)Nc2ccc(S(=O)(=O)NCCCO)c(C)c2)c1

>  <score_type>  (3) 
oracle

>  <origin>  (3) 
adgpu

>  <m_score__min__energy>  (3) 
-12.640000000000001

>  <m_primary>  (3) 
energy

$$$$
3:0
     RDKit          3D

 50 53  0  0  0  0  0  0  0  0999 V2000
   -1.6650   21.0330  -29.1870 C   0  0  0  0  0  0  0  0  0  0  0  0
   -1.5150   22.1210  -30.2450 C   0  0  0  0  0  0  0  0  0  0  0  0
   -2.8750   22.5550  -30.7710 C   0  0  0  0  0  0  0  0  0  0  0  0
   -3.4600   21.9040  -31.8860 C   0  0  0  0  0  0  0  0  0  0  0  0
   -2.7610   20.8560  -32.6510 C   0  0  0  0  0  0  0  0  0  0  0  0
   -1.5900   21.1540  -33.3650 C   0  0  0  0  0  0  0  0  0  0  0  0
   -0.9530   20.1590  -34.1140 C   0  0  0  0  0  0  0  0  0  0  0  0
   -1.4890   18.8690  -34.1650 C   0  0  0  0  0  0  0  0  0  0  0  0
   -2.6660   18.5730  -33.4730 C   0  0  0  0  0  0  0  0  0  0  0  0
   -3.3060   19.5650  -32.7230 C   0  0  0  0  0  0  0  0  0  0  0  0
   -4.7270   22.2120  -32.2610 N   0  0  0  0  0  0  0  0  0  0  0  0
   -5.4810   23.1360  -31.6200 C   0  0  0  0  0  0  0  0  0  0  0  0
   -7.1590   23.4150  -32.2000 S   0  0  0  0  0  0  0  0  0  0  0  0
   -7.5370   21.6630  -32.1920 C   0  0  0  0  0  0  0  0  0  0  0  0
   -8.4550   21.1460  -31.2680 C   0  0  0  0  0  0  0  0  0  0  0  0
   -8.7340   19.7760  -31.2520 C   0  0  0  0  0  0  0  0  0  0  0  0
   -8.1020   18.9200  -32.1590 C   0  0  0  0  0  0  0  0  0  0  0  0
   -7.1880   19.4320  -33.0870 C   0  0  0  0  0  0  0  0  0  0  0  0
   -6.5620   18.5690  -33.9840 O   0  0  0  0  0  0  0  0  0  0  0  0
   -6.9090   20.8060  -33.1050 C   0  0  0  0  0  0  0  0  0  0  0  0
   -4.9530   23.8270  -30.5190 C   0  0  0  0  0  0  0  0  0  0  0  0
   -5.7480   24.8320  -29.8450 C   0  0  0  0  0  0  0  0  0  0  0  0
   -6.3820   25.6340  -29.3050 N   0  0  0  0  0  0  0  0  0  0  0  0
   -3.6440   23.5300  -30.0830 C   0  0  0  0  0  0  0  0  0  0  0  0
   -3.0980   24.2280  -28.8960 C   0  0  0  0  0  0  0  0  0  0  0  0
   -3.7820   24.1760  -27.6710 C   0  0  0  0  0  0  0  0  0  0  0  0
   -3.2610   24.8260  -26.5490 C   0  0  0  0  0  0  0  0  0  0  0  0
   -2.0520   25.5250  -26.6420 C   0  0  0  0  0  0  0  0  0  0  0  0
   -1.5360   26.1710  -25.5260 O   0  0  0  0  0  0  0  0  0  0  0  0
   -1.3640   25.5720  -27.8590 C   0  0  0  0  0  0  0  0  0  0  0  0
   -1.8840   24.9230  -28.9830 C   0  0  0  0  0  0  0  0  0  0  0  0
   -1.6028   21.4842  -28.1857 H   0  0  0  0  0  0  0  0  0  0  0  0
   -2.6399   20.5377  -29.3061 H   0  0  0  0  0  0  0  0  0  0  0  0
   -0.8605   20.2924  -29.3061 H   0  0  0  0  0  0  0  0  0  0  0  0
   -1.0068   22.9891  -29.7999 H   0  0  0  0  0  0  0  0  0  0  0  0
   -0.9252   21.7195  -31.0822 H   0  0  0  0  0  0  0  0  0  0  0  0
   -1.1726   22.1713  -33.3356 H   0  0  0  0  0  0  0  0  0  0  0  0
   -0.0291   20.3920  -34.6636 H   0  0  0  0  0  0  0  0  0  0  0  0
   -0.9838   18.0865  -34.7503 H   0  0  0  0  0  0  0  0  0  0  0  0
   -3.0897   17.5589  -33.5180 H   0  0  0  0  0  0  0  0  0  0  0  0
   -4.2388   19.3326  -32.1883 H   0  0  0  0  0  0  0  0  0  0  0  0
   -8.9560   21.8178  -30.5555 H   0  0  0  0  0  0  0  0  0  0  0  0
   -9.4524   19.3707  -30.5242 H   0  0  0  0  0  0  0  0  0  0  0  0
   -8.3235   17.8426  -32.1432 H   0  0  0  0  0  0  0  0  0  0  0  0
   -6.8060   18.5600  -34.9680 H   0  0  0  0  0  0  0  0  0  0  0  0
   -6.1956   21.2117  -33.8374 H   0  0  0  0  0  0  0  0  0  0  0  0
   -4.7296   23.6227  -27.5943 H   0  0  0  0  0  0  0  0  0  0  0  0
   -3.8016   24.7883  -25.5918 H   0  0  0  0  0  0  0  0  0  0  0  0
   -0.4130   26.1200  -27.9318 H   0  0  0  0  0  0  0  0  0  0  0  0
   -1.3390   24.9580  -29.9379 H   0  0  0  0  0  0  0  0  0  0  0  0
  1  2  1  0
  2  3  1  0
  3  4  2  0
  4  5  1  0
  5  6  2  0
  6  7  1  0
  7  8  2  0
  8  9  1  0
  9 10  2  0
  4 11  1  0
 11 12  2  0
 12 13  1  0
 13 14  1  0
 14 15  2  0
 15 16  1  0
 16 17  2  0
 17 18  1  0
 18 19  1  0
 18 20  2  0
 12 21  1  0
 21 22  1  0
 22 23  3  0
 21 24  2  0
 24 25  1  0
 25 26  2  0
 26 27  1  0
 27 28  2  0
 28 29  1  0
 28 30  1  0
 30 31  2  0
 24  3  1  0
 31 25  1  0
 10  5  1  0
 20 14  1  0
  1 32  1  0
  1 33  1  0
  1 34  1  0
  2 35  1  0
  2 36  1  0
  6 37  1  0
  7 38  1  0
  8 39  1  0
  9 40  1  0
 10 41  1  0
 15 42  1  0
 16 43  1  0
 17 44  1  0
 19 45  1  0
 20 46  1  0
 26 47  1  0
 27 48  1  0
 30 49  1  0
 31 50  1  0
M  CHG  1  29  -1
M  END
>  <UniqueID>  (4) 
4

>  <SMILES>  (4) 
CCc1c(-c2ccccc2)nc(Sc2cccc(O)c2)c(C#N)c1-c1ccc([O-])cc1

>  <Energy>  (4) 
65.20820071251345

>  <Genealogy>  (4) 
CCc1c(-c2ccccc2)nc(Sc2cccc(O)c2)c(C#N)c1-c1ccc([O-])cc1 (protonated)
CCc1c(-c2ccccc2)nc(Sc2cccc(O)c2)c(C#N)c1-c1ccc([O-])cc1 (3D coordinates assigned)
CCc1c(-c2ccccc2)nc(Sc2cccc(O)c2)c(C#N)c1-c1ccc([O-])cc1 (optimized conformer: 65.20820071251345 kcal/mol)

>  <smiles>  (4) 
CCc1c(-c2ccccc2)nc(Sc2cccc(O)c2)c(C#N)c1-c1ccc(O)cc1

>  <score_type>  (4) 
oracle

>  <origin>  (4) 
adgpu

>  <m_score__min__energy>  (4) 
-10.050000000000001

>  <m_primary>  (4) 
energy

$$$$
4:0
     RDKit          3D

 46 49  0  0  0  0  0  0  0  0999 V2000
   -5.4380   26.3200  -30.8550 O   0  0  0  0  0  0  0  0  0  0  0  0
   -4.8070   25.2400  -30.7110 C   0  0  0  0  0  0  0  0  0  0  0  0
   -3.4980   25.2740  -30.1230 N   0  0  0  0  0  0  0  0  0  0  0  0
   -2.9410   24.2490  -29.2860 C   0  0  0  0  0  0  0  0  0  0  0  0
   -2.0060   23.3580  -29.8260 C   0  0  0  0  0  0  0  0  0  0  0  0
   -1.4970   22.3140  -29.0480 C   0  0  0  0  0  0  0  0  0  0  0  0
   -1.8990   22.1650  -27.7140 C   0  0  0  0  0  0  0  0  0  0  0  0
   -1.2980   20.8130  -26.7620 S   0  0  0  0  0  0  0  0  0  0  0  0
   -0.0330   20.2860  -27.3770 O   0  0  0  0  0  0  0  0  0  0  0  0
   -1.0060   21.2560  -25.3550 O   0  0  0  0  0  0  0  0  0  0  0  0
   -2.7280   19.3240  -26.7210 Cl  0  0  0  0  0  0  0  0  0  0  0  0
   -2.8030   23.0800  -27.1590 C   0  0  0  0  0  0  0  0  0  0  0  0
   -3.3140   24.1220  -27.9360 C   0  0  0  0  0  0  0  0  0  0  0  0
   -5.4140   23.9720  -31.1720 C   0  0  0  0  0  0  0  0  0  0  0  0
   -5.2420   22.7900  -30.4340 C   0  0  0  0  0  0  0  0  0  0  0  0
   -5.9080   21.6220  -30.8040 C   0  0  0  0  0  0  0  0  0  0  0  0
   -6.7560   21.6120  -31.9260 C   0  0  0  0  0  0  0  0  0  0  0  0
   -7.5220   20.4450  -32.2750 N   0  0  0  0  0  0  0  0  0  0  0  0
   -6.9290   19.2070  -32.7050 C   0  0  0  0  0  0  0  0  0  0  0  0
   -7.7030   18.0420  -32.6440 C   0  0  0  0  0  0  0  0  0  0  0  0
   -7.1970   16.8250  -33.1040 C   0  0  0  0  0  0  0  0  0  0  0  0
   -5.9050   16.7540  -33.6240 C   0  0  0  0  0  0  0  0  0  0  0  0
   -5.0960   17.8980  -33.6660 C   0  0  0  0  0  0  0  0  0  0  0  0
   -3.7870   17.8170  -34.1690 C   0  0  0  0  0  0  0  0  0  0  0  0
   -2.9670   18.9460  -34.1830 C   0  0  0  0  0  0  0  0  0  0  0  0
   -3.4400   20.1600  -33.6870 C   0  0  0  0  0  0  0  0  0  0  0  0
   -4.7400   20.2600  -33.1850 C   0  0  0  0  0  0  0  0  0  0  0  0
   -5.5950   19.1380  -33.1870 C   0  0  0  0  0  0  0  0  0  0  0  0
   -6.8690   22.7720  -32.7060 C   0  0  0  0  0  0  0  0  0  0  0  0
   -6.2030   23.9440  -32.3330 C   0  0  0  0  0  0  0  0  0  0  0  0
   -1.6705   23.4798  -30.8665 H   0  0  0  0  0  0  0  0  0  0  0  0
   -0.7774   21.6061  -29.4852 H   0  0  0  0  0  0  0  0  0  0  0  0
   -3.1113   22.9775  -26.1081 H   0  0  0  0  0  0  0  0  0  0  0  0
   -4.0113   24.8465  -27.4901 H   0  0  0  0  0  0  0  0  0  0  0  0
   -4.5771   22.7853  -29.5577 H   0  0  0  0  0  0  0  0  0  0  0  0
   -5.7693   20.7034  -30.2150 H   0  0  0  0  0  0  0  0  0  0  0  0
   -8.5620   20.5310  -32.3310 H   0  0  0  0  0  0  0  0  0  0  0  0
   -8.7208   18.0861  -32.2291 H   0  0  0  0  0  0  0  0  0  0  0  0
   -7.8193   15.9192  -33.0561 H   0  0  0  0  0  0  0  0  0  0  0  0
   -5.5190   15.7961  -34.0029 H   0  0  0  0  0  0  0  0  0  0  0  0
   -3.4066   16.8592  -34.5536 H   0  0  0  0  0  0  0  0  0  0  0  0
   -1.9458   18.8780  -34.5860 H   0  0  0  0  0  0  0  0  0  0  0  0
   -2.7859   21.0444  -33.6909 H   0  0  0  0  0  0  0  0  0  0  0  0
   -5.0992   21.2199  -32.7856 H   0  0  0  0  0  0  0  0  0  0  0  0
   -7.4854   22.7600  -33.6170 H   0  0  0  0  0  0  0  0  0  0  0  0
   -6.2978   24.8482  -32.9523 H   0  0  0  0  0  0  0  0  0  0  0  0
  1  2  2  0
  2  3  1  0
  3  4  1  0
  4  5  2  0
  5  6  1  0
  6  7  2  0
  7  8  1  0
  8  9  2  0
  8 10  2  0
  8 11  1  0
  7 12  1  0
 12 13  2  0
  2 14  1  0
 14 15  2  0
 15 16  1  0
 16 17  2  0
 17 18  1  0
 18 19  1  0
 19 20  2  0
 20 21  1  0
 21 22  2  0
 22 23  1  0
 23 24  2  0
 24 25  1  0
 25 26  2  0
 26 27  1  0
 27 28  2  0
 17 29  1  0
 29 30  2  0
 13  4  1  0
 30 14  1  0
 28 19  1  0
 28 23  1  0
  5 31  1  0
  6 32  1  0
 12 33  1  0
 13 34  1  0
 15 35  1  0
 16 36  1  0
 18 37  1  0
 20 38  1  0
 21 39  1  0
 22 40  1  0
 24 41  1  0
 25 42  1  0
 26 43  1  0
 27 44  1  0
 29 45  1  0
 30 46  1  0
M  CHG  1   3  -1
M  END
>  <UniqueID>  (5) 
5

>  <SMILES>  (5) 
O=C([N-]c1ccc(S(=O)(=O)Cl)cc1)c1ccc(Nc2cccc3ccccc23)cc1

>  <Energy>  (5) 
67.5988698484084

>  <Genealogy>  (5) 
O=C([N-]c1ccc(S(=O)(=O)Cl)cc1)c1ccc(Nc2cccc3ccccc23)cc1 (protonated)
O=C([N-]c1ccc(S(=O)(=O)Cl)cc1)c1ccc(Nc2cccc3ccccc23)cc1 (3D coordinates assigned)
O=C([N-]c1ccc(S(=O)(=O)Cl)cc1)c1ccc(Nc2cccc3ccccc23)cc1 (optimized conformer: 67.5988698484084 kcal/mol)

>  <smiles>  (5) 
O=C(Nc1ccc(S(=O)(=O)Cl)cc1)c1ccc(Nc2cccc3ccccc23)cc1

>  <score_type>  (5) 
oracle

>  <origin>  (5) 
adgpu

>  <m_score__min__energy>  (5) 
-12.27

>  <m_primary>  (5) 
energy

$$$$
5:0
     RDKit          3D

 47 49  0  0  0  0  0  0  0  0999 V2000
   -1.7770   25.3000  -29.3080 O   0  0  0  0  0  0  0  0  0  0  0  0
   -2.9140   24.7590  -29.3340 C   0  0  0  0  0  0  0  0  0  0  0  0
   -3.2570   23.7250  -28.2960 C   0  0  0  0  0  0  0  0  0  0  0  0
   -2.5790   22.4120  -28.5860 C   0  0  0  0  0  0  0  0  0  0  0  0
   -2.6930   21.3400  -27.6840 C   0  0  0  0  0  0  0  0  0  0  0  0
   -2.0480   20.1260  -27.9480 C   0  0  0  0  0  0  0  0  0  0  0  0
   -1.2940   19.9720  -29.1140 C   0  0  0  0  0  0  0  0  0  0  0  0
   -1.1840   21.0300  -30.0200 C   0  0  0  0  0  0  0  0  0  0  0  0
   -1.8280   22.2420  -29.7610 C   0  0  0  0  0  0  0  0  0  0  0  0
   -3.8350   25.1400  -30.3640 N   0  0  0  0  0  0  0  0  0  0  0  0
   -4.8720   24.2940  -30.8690 C   0  0  0  0  0  0  0  0  0  0  0  0
   -6.2110   24.6590  -30.6940 C   0  0  0  0  0  0  0  0  0  0  0  0
   -7.2310   23.8210  -31.1520 C   0  0  0  0  0  0  0  0  0  0  0  0
   -6.9160   22.6060  -31.7680 C   0  0  0  0  0  0  0  0  0  0  0  0
   -5.5750   22.2300  -31.9480 C   0  0  0  0  0  0  0  0  0  0  0  0
   -5.1910   20.6350  -32.6060 S   0  0  0  0  0  0  0  0  0  0  0  0
   -3.9690   20.7610  -33.4720 O   0  0  0  0  0  0  0  0  0  0  0  0
   -4.8320   19.7360  -31.4570 O   0  0  0  0  0  0  0  0  0  0  0  0
   -6.4750   19.8750  -33.5300 N   0  0  0  0  0  0  0  0  0  0  0  0
   -7.6650   19.5330  -32.7150 C   0  0  0  0  0  0  0  0  0  0  0  0
   -7.5590   18.1790  -32.0050 C   0  0  0  0  0  0  0  0  0  0  0  0
   -7.2170   17.0780  -32.9990 C   0  0  0  0  0  0  0  0  0  0  0  0
   -5.9090   17.4120  -33.7040 C   0  0  0  0  0  0  0  0  0  0  0  0
   -5.9950   18.7770  -34.4050 C   0  0  0  0  0  0  0  0  0  0  0  0
   -4.5540   23.0750  -31.4840 C   0  0  0  0  0  0  0  0  0  0  0  0
   -2.9313   24.0861  -27.3093 H   0  0  0  0  0  0  0  0  0  0  0  0
   -4.3451   23.5647  -28.3123 H   0  0  0  0  0  0  0  0  0  0  0  0
   -3.2909   21.4554  -26.7679 H   0  0  0  0  0  0  0  0  0  0  0  0
   -2.1350   19.2919  -27.2362 H   0  0  0  0  0  0  0  0  0  0  0  0
   -0.7868   19.0176  -29.3188 H   0  0  0  0  0  0  0  0  0  0  0  0
   -0.5899   20.9083  -30.9377 H   0  0  0  0  0  0  0  0  0  0  0  0
   -1.7466   23.0689  -30.4818 H   0  0  0  0  0  0  0  0  0  0  0  0
   -6.4613   25.6069  -30.1952 H   0  0  0  0  0  0  0  0  0  0  0  0
   -8.2830   24.1175  -31.0278 H   0  0  0  0  0  0  0  0  0  0  0  0
   -7.7221   21.9418  -32.1131 H   0  0  0  0  0  0  0  0  0  0  0  0
   -6.7900   20.6340  -34.1790 H   0  0  0  0  0  0  0  0  0  0  0  0
   -7.8000   20.3147  -31.9530 H   0  0  0  0  0  0  0  0  0  0  0  0
   -8.5186   19.4671  -33.4057 H   0  0  0  0  0  0  0  0  0  0  0  0
   -6.7706   18.2328  -31.2398 H   0  0  0  0  0  0  0  0  0  0  0  0
   -8.5275   17.9468  -31.5380 H   0  0  0  0  0  0  0  0  0  0  0  0
   -7.1107   16.1226  -32.4643 H   0  0  0  0  0  0  0  0  0  0  0  0
   -8.0222   16.9964  -33.7440 H   0  0  0  0  0  0  0  0  0  0  0  0
   -5.0971   17.4389  -32.9623 H   0  0  0  0  0  0  0  0  0  0  0  0
   -5.7122   16.6400  -34.4624 H   0  0  0  0  0  0  0  0  0  0  0  0
   -4.9925   19.0408  -34.7728 H   0  0  0  0  0  0  0  0  0  0  0  0
   -6.7298   18.6724  -35.2169 H   0  0  0  0  0  0  0  0  0  0  0  0
   -3.5012   22.7795  -31.6035 H   0  0  0  0  0  0  0  0  0  0  0  0
  1  2  2  0
  2  3  1  0
  3  4  1  0
  4  5  2  0
  5  6  1  0
  6  7  2  0
  7  8  1  0
  8  9  2  0
  2 10  1  0
 10 11  1  0
 11 12  2  0
 12 13  1  0
 13 14  2  0
 14 15  1  0
 15 16  1  0
 16 17  2  0
 16 18  2  0
 16 19  1  0
 19 20  1  0
 20 21  1  0
 21 22  1  0
 22 23  1  0
 23 24  1  0
 15 25  2  0
  9  4  1  0
 25 11  1  0
 24 19  1  0
  3 26  1  0
  3 27  1  0
  5 28  1  0
  6 29  1  0
  7 30  1  0
  8 31  1  0
  9 32  1  0
 12 33  1  0
 13 34  1  0
 14 35  1  0
 19 36  1  0
 20 37  1  0
 20 38  1  0
 21 39  1  0
 21 40  1  0
 22 41  1  0
 22 42  1  0
 23 43  1  0
 23 44  1  0
 24 45  1  0
 24 46  1  0
 25 47  1  0
M  CHG  2  10  -1  19   1
M  END
>  <UniqueID>  (6) 
6

>  <SMILES>  (6) 
O=C(Cc1ccccc1)[N-]c1cccc(S(=O)(=O)[NH+]2CCCCC2)c1

>  <Energy>  (6) 
52.31000006112616

>  <Genealogy>  (6) 
O=C(Cc1ccccc1)[N-]c1cccc(S(=O)(=O)[NH+]2CCCCC2)c1 (protonated)
O=C(Cc1ccccc1)[N-]c1cccc(S(=O)(=O)[NH+]2CCCCC2)c1 (3D coordinates assigned)
O=C(Cc1ccccc1)[N-]c1cccc(S(=O)(=O)[NH+]2CCCCC2)c1 (nonaromatic ring conformer: 52.31000006112616 kcal/mol)

>  <smiles>  (6) 
O=C(Cc1ccccc1)Nc1cccc(S(=O)(=O)N2CCCCC2)c1

>  <score_type>  (6) 
oracle

>  <origin>  (6) 
adgpu

>  <m_score__min__energy>  (6) 
-10.779999999999999

>  <m_primary>  (6) 
energy

$$$$
6:0
     RDKit          3D

 56 59  0  0  0  0  0  0  0  0999 V2000
   -0.8760   24.9110  -28.7150 C   0  0  0  0  0  0  0  0  0  0  0  0
   -2.0430   24.2030  -29.3240 C   0  0  0  0  0  0  0  0  0  0  0  0
   -2.0720   22.8090  -29.3810 C   0  0  0  0  0  0  0  0  0  0  0  0
   -3.1750   22.1480  -29.9390 C   0  0  0  0  0  0  0  0  0  0  0  0
   -3.1380   20.8510  -29.9860 N   0  0  0  0  0  0  0  0  0  0  0  0
   -4.2700   22.9140  -30.4280 C   0  0  0  0  0  0  0  0  0  0  0  0
   -5.4370   22.3420  -30.9850 C   0  0  0  0  0  0  0  0  0  0  0  0
   -6.4770   23.1490  -31.4660 C   0  0  0  0  0  0  0  0  0  0  0  0
   -7.6520   22.5140  -31.9890 N   0  0  0  0  0  0  0  0  0  0  0  0
   -8.0340   21.1430  -31.8060 C   0  0  0  0  0  0  0  0  0  0  0  0
   -9.0930   20.8610  -31.1820 O   0  0  0  0  0  0  0  0  0  0  0  0
   -7.2160   20.0600  -32.4030 C   0  0  0  0  0  0  0  0  0  0  0  0
   -6.8820   20.0830  -33.7690 C   0  0  0  0  0  0  0  0  0  0  0  0
   -6.1020   19.0670  -34.3260 C   0  0  0  0  0  0  0  0  0  0  0  0
   -5.6340   18.0170  -33.5260 C   0  0  0  0  0  0  0  0  0  0  0  0
   -4.6650   16.7330  -34.2470 S   0  0  0  0  0  0  0  0  0  0  0  0
   -4.4780   17.0000  -35.7160 O   0  0  0  0  0  0  0  0  0  0  0  0
   -5.4030   15.4330  -34.0890 O   0  0  0  0  0  0  0  0  0  0  0  0
   -3.1120   16.6370  -33.4530 N   0  0  1  0  0  0  0  0  0  0  0  0
   -2.7130   15.2240  -33.3430 C   0  0  0  0  0  0  0  0  0  0  0  0
   -2.1160   17.4260  -34.2100 C   0  0  0  0  0  0  0  0  0  0  0  0
   -1.9540   18.8170  -33.6460 C   0  0  0  0  0  0  0  0  0  0  0  0
   -0.7820   19.1640  -32.9500 C   0  0  0  0  0  0  0  0  0  0  0  0
   -0.6190   20.4580  -32.4410 C   0  0  0  0  0  0  0  0  0  0  0  0
   -1.6200   21.4150  -32.6310 C   0  0  0  0  0  0  0  0  0  0  0  0
   -2.7870   21.0800  -33.3270 C   0  0  0  0  0  0  0  0  0  0  0  0
   -2.9540   19.7870  -33.8340 C   0  0  0  0  0  0  0  0  0  0  0  0
   -5.9660   17.9840  -32.1670 C   0  0  0  0  0  0  0  0  0  0  0  0
   -6.7510   18.9960  -31.6090 C   0  0  0  0  0  0  0  0  0  0  0  0
   -6.3760   24.5450  -31.3590 C   0  0  0  0  0  0  0  0  0  0  0  0
   -5.2370   25.1270  -30.8050 C   0  0  0  0  0  0  0  0  0  0  0  0
   -4.1880   24.3270  -30.3430 C   0  0  0  0  0  0  0  0  0  0  0  0
   -3.0930   24.9200  -29.7990 N   0  0  0  0  0  0  0  0  0  0  0  0
   -0.9510   24.8655  -27.6185 H   0  0  0  0  0  0  0  0  0  0  0  0
    0.0568   24.4264  -29.0392 H   0  0  0  0  0  0  0  0  0  0  0  0
   -0.8749   25.9622  -29.0392 H   0  0  0  0  0  0  0  0  0  0  0  0
   -1.2262   22.2267  -28.9866 H   0  0  0  0  0  0  0  0  0  0  0  0
   -3.8770   20.2320  -30.3760 H   0  0  0  0  0  0  0  0  0  0  0  0
   -5.5300   21.2474  -31.0416 H   0  0  0  0  0  0  0  0  0  0  0  0
   -7.2379   20.9078  -34.4038 H   0  0  0  0  0  0  0  0  0  0  0  0
   -5.8543   19.0916  -35.3975 H   0  0  0  0  0  0  0  0  0  0  0  0
   -3.2240   17.0340  -32.4920 H   0  0  0  0  0  0  0  0  0  0  0  0
   -2.6347   14.9467  -32.2814 H   0  0  0  0  0  0  0  0  0  0  0  0
   -3.4675   14.5908  -33.8327 H   0  0  0  0  0  0  0  0  0  0  0  0
   -1.7388   15.0789  -33.8327 H   0  0  0  0  0  0  0  0  0  0  0  0
   -1.1458   16.9094  -34.1669 H   0  0  0  0  0  0  0  0  0  0  0  0
   -2.4704   17.5176  -35.2473 H   0  0  0  0  0  0  0  0  0  0  0  0
    0.0104   18.4150  -32.8049 H   0  0  0  0  0  0  0  0  0  0  0  0
    0.2968   20.7216  -31.8916 H   0  0  0  0  0  0  0  0  0  0  0  0
   -1.4903   22.4323  -32.2331 H   0  0  0  0  0  0  0  0  0  0  0  0
   -3.5738   21.8343  -33.4755 H   0  0  0  0  0  0  0  0  0  0  0  0
   -3.8718   19.5281  -34.3822 H   0  0  0  0  0  0  0  0  0  0  0  0
   -5.6074   17.1578  -31.5355 H   0  0  0  0  0  0  0  0  0  0  0  0
   -7.0076   18.9605  -30.5399 H   0  0  0  0  0  0  0  0  0  0  0  0
   -7.1993   25.1824  -31.7139 H   0  0  0  0  0  0  0  0  0  0  0  0
   -5.1633   26.2220  -30.7310 H   0  0  0  0  0  0  0  0  0  0  0  0
  1  2  1  0
  2  3  2  0
  3  4  1  0
  4  5  2  3
  4  6  1  0
  6  7  2  0
  7  8  1  0
  8  9  1  0
  9 10  1  0
 10 11  2  0
 10 12  1  0
 12 13  2  0
 13 14  1  0
 14 15  2  0
 15 16  1  0
 16 17  2  0
 16 18  2  0
 16 19  1  0
 19 20  1  0
 19 21  1  0
 21 22  1  0
 22 23  2  0
 23 24  1  0
 24 25  2  0
 25 26  1  0
 26 27  2  0
 15 28  1  0
 28 29  2  0
  8 30  2  0
 30 31  1  0
 31 32  2  0
 32 33  1  0
 33  2  1  0
 32  6  1  0
 29 12  1  0
 27 22  1  0
  1 34  1  0
  1 35  1  0
  1 36  1  0
  3 37  1  0
  5 38  1  0
  7 39  1  0
 13 40  1  0
 14 41  1  0
 19 42  1  1
 20 43  1  0
 20 44  1  0
 20 45  1  0
 21 46  1  0
 21 47  1  0
 23 48  1  0
 24 49  1  0
 25 50  1  0
 26 51  1  0
 27 52  1  0
 28 53  1  0
 29 54  1  0
 30 55  1  0
 31 56  1  0
M  CHG  3   9  -1  19   1  33  -1
M  END
>  <UniqueID>  (7) 
7

>  <SMILES>  (7) 
Cc1cc(=N)c2cc([N-]C(=O)c3ccc(S(=O)(=O)[N@@H+](C)Cc4ccccc4)cc3)ccc2[n-]1

>  <Energy>  (7) 
70.17159691697356

>  <Genealogy>  (7) 
Cc1cc(=N)c2cc([N-]C(=O)c3ccc(S(=O)(=O)[NH+](C)Cc4ccccc4)cc3)ccc2[n-]1 (protonated)
Cc1cc(=N)c2cc([N-]C(=O)c3ccc(S(=O)(=O)[N@@H+](C)Cc4ccccc4)cc3)ccc2[n-]1 (chirality)
Cc1cc(=N)c2cc([N-]C(=O)c3ccc(S(=O)(=O)[N@@H+](C)Cc4ccccc4)cc3)ccc2[n-]1 (3D coordinates assigned)
Cc1cc(=N)c2cc([N-]C(=O)c3ccc(S(=O)(=O)[N@@H+](C)Cc4ccccc4)cc3)ccc2[n-]1 (optimized conformer: 70.17159691697356 kcal/mol)

>  <smiles>  (7) 
Cc1cc(=N)c2cc(NC(=O)c3ccc(S(=O)(=O)N(C)Cc4ccccc4)cc3)ccc2[nH]1

>  <score_type>  (7) 
oracle

>  <origin>  (7) 
adgpu

>  <m_score__min__energy>  (7) 
-11.869999999999999

>  <m_primary>  (7) 
energy

$$$$
7:0
     RDKit          3D

 36 38  0  0  0  0  0  0  0  0999 V2000
    0.8980   22.2250  -27.4730 C   0  0  0  0  0  0  0  0  0  0  0  0
    0.0500   23.3230  -28.0190 C   0  0  0  0  0  0  0  0  0  0  0  0
   -1.2420   23.1970  -28.4840 C   0  0  0  0  0  0  0  0  0  0  0  0
   -1.5590   24.4910  -28.8680 C   0  0  0  0  0  0  0  0  0  0  0  0
   -2.6780   24.9210  -29.3780 N   0  0  0  0  0  0  0  0  0  0  0  0
   -3.8650   24.1740  -29.6850 C   0  0  0  0  0  0  0  0  0  0  0  0
   -4.2460   23.2300  -28.9460 O   0  0  0  0  0  0  0  0  0  0  0  0
   -4.5930   24.5100  -30.8740 N   0  0  0  0  0  0  0  0  0  0  0  0
   -6.0060   24.4130  -31.1060 C   0  0  0  0  0  0  0  0  0  0  0  0
   -6.7780   25.1350  -30.4230 O   0  0  0  0  0  0  0  0  0  0  0  0
   -6.6020   23.4990  -32.1360 C   0  0  0  0  0  0  0  0  0  0  0  0
   -8.2530   22.9540  -31.5910 S   0  0  0  0  0  0  0  0  0  0  0  0
   -7.9510   21.2330  -31.9960 C   0  0  0  0  0  0  0  0  0  0  0  0
   -8.6760   20.2250  -31.3480 C   0  0  0  0  0  0  0  0  0  0  0  0
   -8.4470   18.8810  -31.6590 C   0  0  0  0  0  0  0  0  0  0  0  0
   -7.4850   18.5410  -32.6210 C   0  0  0  0  0  0  0  0  0  0  0  0
   -7.2270   17.2090  -32.9600 C   0  0  0  0  0  0  0  0  0  0  0  0
   -6.2590   16.9240  -33.9220 C   0  0  0  0  0  0  0  0  0  0  0  0
   -5.5710   17.9810  -34.5260 C   0  0  0  0  0  0  0  0  0  0  0  0
   -4.6930   17.7440  -35.3980 O   0  0  0  0  0  0  0  0  0  0  0  0
   -5.8350   19.2400  -34.1860 O   0  0  0  0  0  0  0  0  0  0  0  0
   -6.7500   19.5560  -33.2720 C   0  0  0  0  0  0  0  0  0  0  0  0
   -6.9860   20.8980  -32.9540 C   0  0  0  0  0  0  0  0  0  0  0  0
   -0.5160   25.3090  -28.6370 N   0  0  0  0  0  0  0  0  0  0  0  0
    0.4300   24.5750  -28.1280 O   0  0  0  0  0  0  0  0  0  0  0  0
    0.8744   22.2556  -26.3737 H   0  0  0  0  0  0  0  0  0  0  0  0
    0.5118   21.2557  -27.8212 H   0  0  0  0  0  0  0  0  0  0  0  0
    1.9335   22.3537  -27.8212 H   0  0  0  0  0  0  0  0  0  0  0  0
   -1.8668   22.2932  -28.5372 H   0  0  0  0  0  0  0  0  0  0  0  0
   -6.6910   24.0347  -33.0926 H   0  0  0  0  0  0  0  0  0  0  0  0
   -5.9521   22.6208  -32.2637 H   0  0  0  0  0  0  0  0  0  0  0  0
   -9.4286   20.4916  -30.5914 H   0  0  0  0  0  0  0  0  0  0  0  0
   -9.0203   18.0921  -31.1501 H   0  0  0  0  0  0  0  0  0  0  0  0
   -7.7823   16.3942  -32.4724 H   0  0  0  0  0  0  0  0  0  0  0  0
   -6.0397   15.8830  -34.2018 H   0  0  0  0  0  0  0  0  0  0  0  0
   -6.4129   21.6908  -33.4570 H   0  0  0  0  0  0  0  0  0  0  0  0
  1  2  1  0
  2  3  2  0
  3  4  1  0
  4  5  2  3
  5  6  1  0
  6  7  2  0
  6  8  1  0
  8  9  1  0
  9 10  2  0
  9 11  1  0
 11 12  1  0
 12 13  1  0
 13 14  2  0
 14 15  1  0
 15 16  2  0
 16 17  1  0
 17 18  2  0
 18 19  1  0
 19 20  2  0
 19 21  1  0
 21 22  1  0
 22 23  2  0
  4 24  1  0
 24 25  1  0
 25  2  1  0
 23 13  1  0
 22 16  1  0
  1 26  1  0
  1 27  1  0
  1 28  1  0
  3 29  1  0
 11 30  1  0
 11 31  1  0
 14 32  1  0
 15 33  1  0
 17 34  1  0
 18 35  1  0
 23 36  1  0
M  CHG  2   8  -1  24  -1
M  END
>  <UniqueID>  (8) 
8

>  <SMILES>  (8) 
Cc1cc(=NC(=O)[N-]C(=O)CSc2ccc3ccc(=O)oc3c2)[n-]o1

>  <Energy>  (8) 
72.66242814088153

>  <Genealogy>  (8) 
Cc1cc(=NC(=O)[N-]C(=O)CSc2ccc3ccc(=O)oc3c2)[n-]o1 (protonated)
Cc1cc(=NC(=O)[N-]C(=O)CSc2ccc3ccc(=O)oc3c2)[n-]o1 (3D coordinates assigned)
Cc1cc(=NC(=O)[N-]C(=O)CSc2ccc3ccc(=O)oc3c2)[n-]o1 (optimized conformer: 72.66242814088153 kcal/mol)

>  <smiles>  (8) 
Cc1cc(=NC(=O)NC(=O)CSc2ccc3ccc(=O)oc3c2)[nH]o1

>  <score_type>  (8) 
oracle

>  <origin>  (8) 
adgpu

>  <m_score__min__energy>  (8) 
-11.07

>  <m_primary>  (8) 
energy

$$$$
8:0
     RDKit          3D

 63 67  0  0  0  0  0  0  0  0999 V2000
   -5.7670   26.3050  -29.9640 O   0  0  0  0  0  0  0  0  0  0  0  0
   -5.2410   25.2390  -30.3840 C   0  0  0  0  0  0  0  0  0  0  0  0
   -3.8140   25.1350  -30.4800 N   0  0  0  0  0  0  0  0  0  0  0  0
   -2.9480   24.4990  -29.5310 C   0  0  0  0  0  0  0  0  0  0  0  0
   -1.8120   23.7690  -29.9290 C   0  0  0  0  0  0  0  0  0  0  0  0
   -1.0200   23.1180  -28.9780 C   0  0  0  0  0  0  0  0  0  0  0  0
   -1.3590   23.1770  -27.6190 C   0  0  0  0  0  0  0  0  0  0  0  0
   -0.3750   22.3610  -26.4070 S   0  0  0  0  0  0  0  0  0  0  0  0
    0.5940   21.4270  -27.0790 O   0  0  0  0  0  0  0  0  0  0  0  0
   -1.2870   21.5540  -25.5240 O   0  0  0  0  0  0  0  0  0  0  0  0
    0.4830   23.5610  -25.4640 N   0  0  0  0  0  0  0  0  0  0  0  0
   -0.3180   24.7940  -25.2890 C   0  0  0  0  0  0  0  0  0  0  0  0
    0.1160   25.9260  -26.2370 C   0  0  0  0  0  0  0  0  0  0  0  0
    0.5340   25.3930  -27.4730 O   0  0  0  0  0  0  0  0  0  0  0  0
    1.7470   24.6740  -27.3230 C   0  0  0  0  0  0  0  0  0  0  0  0
    1.8180   23.8340  -26.0240 C   0  0  0  0  0  0  0  0  0  0  0  0
   -2.4970   23.8920  -27.2210 C   0  0  0  0  0  0  0  0  0  0  0  0
   -3.2890   24.5410  -28.1730 C   0  0  0  0  0  0  0  0  0  0  0  0
   -6.0970   24.0870  -30.7500 C   0  0  0  0  0  0  0  0  0  0  0  0
   -6.6150   23.9670  -32.0520 C   0  0  0  0  0  0  0  0  0  0  0  0
   -7.3920   22.8610  -32.4080 C   0  0  0  0  0  0  0  0  0  0  0  0
   -7.6620   21.8590  -31.4700 C   0  0  0  0  0  0  0  0  0  0  0  0
   -8.5680   20.4310  -31.9600 S   0  0  0  0  0  0  0  0  0  0  0  0
   -8.9540   19.6780  -30.7180 O   0  0  0  0  0  0  0  0  0  0  0  0
   -9.8240   20.8380  -32.6810 O   0  0  0  0  0  0  0  0  0  0  0  0
   -7.5800   19.4010  -32.9770 N   0  0  0  0  0  0  0  0  0  0  0  0
   -7.0220   18.2390  -32.2600 C   0  0  0  0  0  0  0  0  0  0  0  0
   -5.9700   18.6220  -31.2050 C   0  0  0  0  0  0  0  0  0  0  0  0
   -5.0660   19.7420  -31.6520 C   0  0  0  0  0  0  0  0  0  0  0  0
   -3.9480   20.0690  -30.8670 C   0  0  0  0  0  0  0  0  0  0  0  0
   -3.1250   21.1420  -31.2220 C   0  0  0  0  0  0  0  0  0  0  0  0
   -3.4120   21.8970  -32.3600 C   0  0  0  0  0  0  0  0  0  0  0  0
   -4.5270   21.5870  -33.1440 C   0  0  0  0  0  0  0  0  0  0  0  0
   -5.3690   20.5220  -32.7880 C   0  0  0  0  0  0  0  0  0  0  0  0
   -6.5340   20.1650  -33.6800 C   0  0  0  0  0  0  0  0  0  0  0  0
   -7.1390   21.9630  -30.1760 C   0  0  0  0  0  0  0  0  0  0  0  0
   -6.3760   23.0760  -29.8120 C   0  0  0  0  0  0  0  0  0  0  0  0
   -1.5457   23.7103  -30.9947 H   0  0  0  0  0  0  0  0  0  0  0  0
   -0.1286   22.5581  -29.2971 H   0  0  0  0  0  0  0  0  0  0  0  0
   -1.3744   24.5576  -25.4842 H   0  0  0  0  0  0  0  0  0  0  0  0
   -0.1627   25.1467  -24.2587 H   0  0  0  0  0  0  0  0  0  0  0  0
   -0.7324   26.6061  -26.4030 H   0  0  0  0  0  0  0  0  0  0  0  0
    0.9536   26.4743  -25.7811 H   0  0  0  0  0  0  0  0  0  0  0  0
    1.8564   23.9952  -28.1816 H   0  0  0  0  0  0  0  0  0  0  0  0
    2.5560   25.4174  -27.2689 H   0  0  0  0  0  0  0  0  0  0  0  0
    2.3108   22.8764  -26.2479 H   0  0  0  0  0  0  0  0  0  0  0  0
    2.3850   24.4115  -25.2790 H   0  0  0  0  0  0  0  0  0  0  0  0
   -2.7679   23.9427  -26.1561 H   0  0  0  0  0  0  0  0  0  0  0  0
   -4.1874   25.0892  -27.8529 H   0  0  0  0  0  0  0  0  0  0  0  0
   -6.4070   24.7499  -32.7962 H   0  0  0  0  0  0  0  0  0  0  0  0
   -7.7925   22.7783  -33.4292 H   0  0  0  0  0  0  0  0  0  0  0  0
   -7.8454   17.7113  -31.7563 H   0  0  0  0  0  0  0  0  0  0  0  0
   -6.5192   17.6066  -33.0065 H   0  0  0  0  0  0  0  0  0  0  0  0
   -6.4912   18.9370  -30.2890 H   0  0  0  0  0  0  0  0  0  0  0  0
   -5.3380   17.7378  -31.0355 H   0  0  0  0  0  0  0  0  0  0  0  0
   -3.7188   19.4777  -29.9682 H   0  0  0  0  0  0  0  0  0  0  0  0
   -2.2502   21.3914  -30.6035 H   0  0  0  0  0  0  0  0  0  0  0  0
   -2.7599   22.7373  -32.6405 H   0  0  0  0  0  0  0  0  0  0  0  0
   -4.7455   22.1804  -34.0441 H   0  0  0  0  0  0  0  0  0  0  0  0
   -6.9778   21.0942  -34.0668 H   0  0  0  0  0  0  0  0  0  0  0  0
   -6.1476   19.5286  -34.4897 H   0  0  0  0  0  0  0  0  0  0  0  0
   -7.3292   21.1656  -29.4425 H   0  0  0  0  0  0  0  0  0  0  0  0
   -5.9910   23.1622  -28.7852 H   0  0  0  0  0  0  0  0  0  0  0  0
  1  2  2  0
  2  3  1  0
  3  4  1  0
  4  5  2  0
  5  6  1  0
  6  7  2  0
  7  8  1  0
  8  9  2  0
  8 10  2  0
  8 11  1  0
 11 12  1  0
 12 13  1  0
 13 14  1  0
 14 15  1  0
 15 16  1  0
  7 17  1  0
 17 18  2  0
  2 19  1  0
 19 20  2  0
 20 21  1  0
 21 22  2  0
 22 23  1  0
 23 24  2  0
 23 25  2  0
 23 26  1  0
 26 27  1  0
 27 28  1  0
 28 29  1  0
 29 30  2  0
 30 31  1  0
 31 32  2  0
 32 33  1  0
 33 34  2  0
 34 35  1  0
 22 36  1  0
 36 37  2  0
 18  4  1  0
 37 19  1  0
 16 11  1  0
 35 26  1  0
 34 29  1  0
  5 38  1  0
  6 39  1  0
 12 40  1  0
 12 41  1  0
 13 42  1  0
 13 43  1  0
 15 44  1  0
 15 45  1  0
 16 46  1  0
 16 47  1  0
 17 48  1  0
 18 49  1  0
 20 50  1  0
 21 51  1  0
 27 52  1  0
 27 53  1  0
 28 54  1  0
 28 55  1  0
 30 56  1  0
 31 57  1  0
 32 58  1  0
 33 59  1  0
 35 60  1  0
 35 61  1  0
 36 62  1  0
 37 63  1  0
M  CHG  1   3  -1
M  END
>  <UniqueID>  (9) 
9

>  <SMILES>  (9) 
O=C([N-]c1ccc(S(=O)(=O)N2CCOCC2)cc1)c1ccc(S(=O)(=O)N2CCc3ccccc3C2)cc1

>  <Energy>  (9) 
88.81215393133898

>  <Genealogy>  (9) 
O=C([N-]c1ccc(S(=O)(=O)N2CCOCC2)cc1)c1ccc(S(=O)(=O)N2CCc3ccccc3C2)cc1 (protonated)
O=C([N-]c1ccc(S(=O)(=O)N2CCOCC2)cc1)c1ccc(S(=O)(=O)N2CCc3ccccc3C2)cc1 (3D coordinates assigned)
O=C([N-]c1ccc(S(=O)(=O)N2CCOCC2)cc1)c1ccc(S(=O)(=O)N2CCc3ccccc3C2)cc1 (nonaromatic ring conformer: 88.81215393133898 kcal/mol)

>  <smiles>  (9) 
O=C(Nc1ccc(S(=O)(=O)N2CCOCC2)cc1)c1ccc(S(=O)(=O)N2CCc3ccccc3C2)cc1

>  <score_type>  (9) 
oracle

>  <origin>  (9) 
adgpu

>  <m_score__min__energy>  (9) 
-12.449999999999999

>  <m_primary>  (9) 
energy

$$$$
9:0
     RDKit          3D

 39 41  0  0  0  0  0  0  0  0999 V2000
    0.5240   21.0040  -35.1290 C   0  0  0  0  0  0  0  0  0  0  0  0
    0.1450   19.7780  -34.5100 O   0  0  0  0  0  0  0  0  0  0  0  0
   -1.1770   19.4280  -34.1930 C   0  0  0  0  0  0  0  0  0  0  0  0
   -1.5610   18.1020  -33.9170 C   0  0  0  0  0  0  0  0  0  0  0  0
   -2.8910   17.8030  -33.6100 C   0  0  0  0  0  0  0  0  0  0  0  0
   -3.8610   18.8190  -33.5830 C   0  0  0  0  0  0  0  0  0  0  0  0
   -5.2700   18.5100  -33.2520 C   0  0  0  0  0  0  0  0  0  0  0  0
   -5.9070   17.3250  -33.5760 C   0  0  0  0  0  0  0  0  0  0  0  0
   -7.2210   17.4620  -33.1800 C   0  0  0  0  0  0  0  0  0  0  0  0
   -7.3390   18.7180  -32.6230 C   0  0  0  0  0  0  0  0  0  0  0  0
   -6.1500   19.3560  -32.6610 N   0  0  0  0  0  0  0  0  0  0  0  0
   -5.8910   20.6450  -32.0770 C   0  0  0  0  0  0  0  0  0  0  0  0
   -6.7240   21.7350  -32.3770 C   0  0  0  0  0  0  0  0  0  0  0  0
   -6.4780   22.9890  -31.8110 C   0  0  0  0  0  0  0  0  0  0  0  0
   -5.3990   23.1670  -30.9330 C   0  0  0  0  0  0  0  0  0  0  0  0
   -5.0980   24.7450  -30.2130 S   0  0  0  0  0  0  0  0  0  0  0  0
   -4.8450   24.5600  -28.5120 N   0  0  0  0  0  0  0  0  0  0  0  0
   -3.8800   25.3670  -30.8360 O   0  0  0  0  0  0  0  0  0  0  0  0
   -6.2770   25.6470  -30.4530 O   0  0  0  0  0  0  0  0  0  0  0  0
   -4.5810   22.0770  -30.6130 C   0  0  0  0  0  0  0  0  0  0  0  0
   -4.8260   20.8230  -31.1780 C   0  0  0  0  0  0  0  0  0  0  0  0
   -3.4710   20.1420  -33.8400 C   0  0  0  0  0  0  0  0  0  0  0  0
   -2.1410   20.4400  -34.1480 C   0  0  0  0  0  0  0  0  0  0  0  0
    0.7546   21.7500  -34.3542 H   0  0  0  0  0  0  0  0  0  0  0  0
    1.4131   20.8390  -35.7554 H   0  0  0  0  0  0  0  0  0  0  0  0
   -0.3031   21.3695  -35.7554 H   0  0  0  0  0  0  0  0  0  0  0  0
   -0.8109   17.2979  -33.9431 H   0  0  0  0  0  0  0  0  0  0  0  0
   -3.1805   16.7652  -33.3880 H   0  0  0  0  0  0  0  0  0  0  0  0
   -5.4536   16.4451  -34.0559 H   0  0  0  0  0  0  0  0  0  0  0  0
   -8.0203   16.7140  -33.2876 H   0  0  0  0  0  0  0  0  0  0  0  0
   -8.2669   19.1387  -32.2082 H   0  0  0  0  0  0  0  0  0  0  0  0
   -7.5748   21.6011  -33.0612 H   0  0  0  0  0  0  0  0  0  0  0  0
   -7.1326   23.8387  -32.0549 H   0  0  0  0  0  0  0  0  0  0  0  0
   -4.7460   25.5200  -28.1130 H   0  0  0  0  0  0  0  0  0  0  0  0
   -5.7220   24.1560  -28.1150 H   0  0  0  0  0  0  0  0  0  0  0  0
   -3.7420   22.2084  -29.9139 H   0  0  0  0  0  0  0  0  0  0  0  0
   -4.1816   19.9704  -30.9176 H   0  0  0  0  0  0  0  0  0  0  0  0
   -4.2167   20.9496  -33.7988 H   0  0  0  0  0  0  0  0  0  0  0  0
   -1.8497   21.4800  -34.3569 H   0  0  0  0  0  0  0  0  0  0  0  0
  1  2  1  0
  2  3  1  0
  3  4  2  0
  4  5  1  0
  5  6  2  0
  6  7  1  0
  7  8  2  0
  8  9  1  0
  9 10  2  0
 10 11  1  0
 11 12  1  0
 12 13  2  0
 13 14  1  0
 14 15  2  0
 15 16  1  0
 16 17  1  0
 16 18  2  0
 16 19  2  0
 15 20  1  0
 20 21  2  0
  6 22  1  0
 22 23  2  0
 23  3  1  0
 11  7  1  0
 21 12  1  0
  1 24  1  0
  1 25  1  0
  1 26  1  0
  4 27  1  0
  5 28  1  0
  8 29  1  0
  9 30  1  0
 10 31  1  0
 13 32  1  0
 14 33  1  0
 17 34  1  0
 17 35  1  0
 20 36  1  0
 21 37  1  0
 22 38  1  0
 23 39  1  0
M  END
>  <UniqueID>  (10) 
10

>  <SMILES>  (10) 
COc1ccc(-c2cccn2-c2ccc(S(N)(=O)=O)cc2)cc1

>  <Energy>  (10) 
74.4450054267477

>  <Genealogy>  (10) 
COc1ccc(-c2cccn2-c2ccc(S(N)(=O)=O)cc2)cc1 (3D coordinates assigned)
COc1ccc(-c2cccn2-c2ccc(S(N)(=O)=O)cc2)cc1 (optimized conformer: 74.4450054267477 kcal/mol)

>  <smiles>  (10) 
COc1ccc(-c2cccn2-c2ccc(S(N)(=O)=O)cc2)cc1

>  <score_type>  (10) 
oracle

>  <origin>  (10) 
adgpu

>  <m_score__min__energy>  (10) 
-8.4199999999999999

>  <m_primary>  (10) 
energy

$$$$
10:0
     RDKit          3D

 52 56  0  0  1  0  0  0  0  0999 V2000
   -4.5440   13.6800  -33.2330 C   0  0  0  0  0  0  0  0  0  0  0  0
   -5.2550   14.9810  -33.0720 C   0  0  0  0  0  0  0  0  0  0  0  0
   -6.0840   15.4570  -34.0720 C   0  0  0  0  0  0  0  0  0  0  0  0
   -6.7500   16.6630  -33.9320 C   0  0  0  0  0  0  0  0  0  0  0  0
   -6.5830   17.3970  -32.7800 C   0  0  0  0  0  0  0  0  0  0  0  0
   -7.2350   18.6580  -32.5430 C   0  0  0  0  0  0  0  0  0  0  0  0
   -8.6050   18.8500  -32.5850 C   0  0  0  0  0  0  0  0  0  0  0  0
   -9.1540   20.1140  -32.3390 C   0  0  0  0  0  0  0  0  0  0  0  0
   -8.3480   21.1940  -32.0510 C   0  0  0  0  0  0  0  0  0  0  0  0
   -8.8400   22.4330  -31.8060 N   0  0  0  0  0  0  0  0  0  0  0  0
   -8.0010   23.4490  -31.5280 C   0  0  0  0  0  0  0  0  0  0  0  0
   -6.6920   23.2390  -31.4940 N   0  0  0  0  0  0  0  0  0  0  0  0
   -6.1330   22.0440  -31.7250 C   0  0  0  0  0  0  0  0  0  0  0  0
   -4.8970   21.9280  -31.6760 N   0  0  0  0  0  0  0  0  0  0  0  0
   -3.7720   22.6820  -31.4410 C   0  0  0  0  0  0  0  0  0  0  0  0
   -3.3230   23.1800  -30.1640 C   0  0  0  0  0  0  0  0  0  0  0  0
   -1.9720   23.2170  -29.8600 C   0  0  0  0  0  0  0  0  0  0  0  0
   -1.4820   23.7130  -28.6710 C   0  0  0  0  0  0  0  0  0  0  0  0
   -2.3230   24.2030  -27.7160 C   0  0  0  0  0  0  0  0  0  0  0  0
   -1.8000   24.7270  -26.4600 C   0  0  0  0  0  0  0  0  0  0  0  0
   -0.8630   23.9490  -25.8030 C   0  0  0  0  0  0  0  0  0  0  0  0
   -0.3050   24.3660  -24.5930 C   0  0  0  0  0  0  0  0  0  0  0  0
   -0.7590   25.5900  -24.1240 C   0  0  0  0  0  0  0  0  0  0  0  0
   -1.6670   26.3300  -24.7740 N   0  0  0  0  0  0  0  0  0  0  0  0
   -2.2120   25.9370  -25.9410 C   0  0  0  0  0  0  0  0  0  0  0  0
   -3.6760   24.1850  -27.9800 C   0  0  0  0  0  0  0  0  0  0  0  0
   -4.1690   23.6900  -29.1630 C   0  0  0  0  0  0  0  0  0  0  0  0
   -6.9830   20.9970  -32.0100 C   0  0  0  0  0  0  0  0  0  0  0  0
   -6.4470   19.7520  -32.2520 C   0  0  0  0  0  0  0  0  0  0  0  0
   -5.7390   16.8810  -31.7960 C   0  0  0  0  0  0  0  0  0  0  0  0
   -5.1000   15.7060  -31.9500 N   0  0  0  0  0  0  0  0  0  0  0  0
   -4.3155   13.2619  -32.2416 H   0  0  0  0  0  0  0  0  0  0  0  0
   -5.1842   12.9785  -33.7881 H   0  0  0  0  0  0  0  0  0  0  0  0
   -3.6079   13.8400  -33.7881 H   0  0  0  0  0  0  0  0  0  0  0  0
   -6.2161   14.8687  -34.9920 H   0  0  0  0  0  0  0  0  0  0  0  0
   -7.4065   17.0309  -34.7343 H   0  0  0  0  0  0  0  0  0  0  0  0
   -9.2679   18.0024  -32.8136 H   0  0  0  0  0  0  0  0  0  0  0  0
  -10.2453   20.2472  -32.3762 H   0  0  0  0  0  0  0  0  0  0  0  0
   -8.4017   24.4539  -31.3290 H   0  0  0  0  0  0  0  0  0  0  0  0
   -6.0530   24.0180  -31.2800 H   0  0  0  0  0  0  0  0  0  0  0  0
   -2.9369   22.0749  -31.8204 H   0  0  0  0  0  0  0  0  0  0  0  0
   -4.0879   23.6285  -31.9040 H   0  0  0  0  0  0  0  0  0  0  0  0
   -1.2569   22.8326  -30.6022 H   0  0  0  0  0  0  0  0  0  0  0  0
   -0.3970   23.7136  -28.4899 H   0  0  0  0  0  0  0  0  0  0  0  0
   -0.5534   22.9883  -26.2403 H   0  0  0  0  0  0  0  0  0  0  0  0
    0.4411   23.7669  -24.0505 H   0  0  0  0  0  0  0  0  0  0  0  0
   -0.3547   25.9706  -23.1744 H   0  0  0  0  0  0  0  0  0  0  0  0
   -2.9573   26.5571  -26.4606 H   0  0  0  0  0  0  0  0  0  0  0  0
   -4.3762   24.5755  -27.2269 H   0  0  0  0  0  0  0  0  0  0  0  0
   -5.2559   23.6927  -29.3320 H   0  0  0  0  0  0  0  0  0  0  0  0
   -5.3550   19.6258  -32.2120 H   0  0  0  0  0  0  0  0  0  0  0  0
   -5.5913   17.4511  -30.8669 H   0  0  0  0  0  0  0  0  0  0  0  0
  1  2  1  0
  2  3  2  0
  3  4  1  0
  4  5  2  0
  5  6  1  0
  6  7  2  0
  7  8  1  0
  8  9  2  0
  9 10  1  0
 10 11  2  0
 11 12  1  0
 12 13  1  0
 13 14  2  0
 14 15  1  0
 15 16  1  0
 16 17  2  0
 17 18  1  0
 18 19  2  0
 19 20  1  0
 20 21  2  0
 21 22  1  0
 22 23  2  0
 23 24  1  0
 24 25  2  0
 19 26  1  0
 26 27  2  0
 13 28  1  0
 28 29  2  0
  5 30  1  0
 30 31  2  0
 31  2  1  0
 29  6  1  0
 28  9  1  0
 27 16  1  0
 25 20  1  0
  1 32  1  0
  1 33  1  0
  1 34  1  0
  3 35  1  0
  4 36  1  0
  7 37  1  0
  8 38  1  0
 11 39  1  0
 12 40  1  0
 15 41  1  0
 15 42  1  0
 17 43  1  0
 18 44  1  0
 21 45  1  0
 22 46  1  0
 23 47  1  0
 25 48  1  0
 26 49  1  0
 27 50  1  0
 29 51  1  0
 30 52  1  0
M  END
>  <smiles>  (11) 
Cc1ccc(-c2ccc3nc[nH]c(=NCc4ccc(-c5cccnc5)cc4)c3c2)cn1

>  <score_type>  (11) 
oracle

>  <origin>  (11) 
adgpu

>  <m_score__min__energy>  (11) 
-10.26

>  <m_primary>  (11) 
energy

$$$$
11:0
     RDKit          3D

 39 41  0  0  1  0  0  0  0  0999 V2000
   -8.0120   19.8420  -33.4390 N   0  0  0  0  0  0  0  0  0  0  0  0
   -8.5650   20.7540  -32.0580 S   0  0  0  0  0  0  0  0  0  0  0  0
   -9.8050   21.5250  -32.3670 O   0  0  0  0  0  0  0  0  0  0  0  0
   -8.7830   19.7520  -30.9520 O   0  0  0  0  0  0  0  0  0  0  0  0
   -7.2590   21.8390  -31.6330 C   0  0  0  0  0  0  0  0  0  0  0  0
   -7.4570   22.9570  -30.8490 C   0  0  0  0  0  0  0  0  0  0  0  0
   -6.4350   23.8210  -30.5050 C   0  0  0  0  0  0  0  0  0  0  0  0
   -5.1770   23.5140  -30.9920 C   0  0  0  0  0  0  0  0  0  0  0  0
   -4.0310   24.3120  -30.7220 N   0  0  0  0  0  0  0  0  0  0  0  0
   -3.5980   24.4020  -29.5040 C   0  0  0  0  0  0  0  0  0  0  0  0
   -4.2110   23.7570  -28.4960 N   0  0  0  0  0  0  0  0  0  0  0  0
   -3.7530   23.8580  -27.2350 C   0  0  0  0  0  0  0  0  0  0  0  0
   -2.6360   24.6460  -27.0280 C   0  0  0  0  0  0  0  0  0  0  0  0
   -1.9880   25.3170  -28.0450 C   0  0  0  0  0  0  0  0  0  0  0  0
   -0.9460   26.0540  -27.8630 N   0  0  0  0  0  0  0  0  0  0  0  0
   -0.4430   26.1750  -26.5360 C   0  0  0  0  0  0  0  0  0  0  0  0
   -1.0170   27.0540  -25.6220 C   0  0  0  0  0  0  0  0  0  0  0  0
   -0.5630   27.1990  -24.3370 C   0  0  0  0  0  0  0  0  0  0  0  0
    0.5280   26.4320  -23.9200 C   0  0  0  0  0  0  0  0  0  0  0  0
    1.1260   25.5440  -24.8050 C   0  0  0  0  0  0  0  0  0  0  0  0
    0.6460   25.4190  -26.0950 C   0  0  0  0  0  0  0  0  0  0  0  0
    1.4260   24.2820  -27.2020 Cl  0  0  0  0  0  0  0  0  0  0  0  0
   -2.4990   25.1730  -29.2850 N   0  0  0  0  0  0  0  0  0  0  0  0
   -4.9680   22.3860  -31.7860 C   0  0  0  0  0  0  0  0  0  0  0  0
   -6.0040   21.5340  -32.1180 C   0  0  0  0  0  0  0  0  0  0  0  0
   -8.2740   20.4240  -34.2780 H   0  0  0  0  0  0  0  0  0  0  0  0
   -8.6860   19.0250  -33.4970 H   0  0  0  0  0  0  0  0  0  0  0  0
   -8.4720   23.1696  -30.4821 H   0  0  0  0  0  0  0  0  0  0  0  0
   -6.6123   24.7064  -29.8769 H   0  0  0  0  0  0  0  0  0  0  0  0
   -5.0640   23.1570  -28.6580 H   0  0  0  0  0  0  0  0  0  0  0  0
   -4.2470   23.3351  -26.4028 H   0  0  0  0  0  0  0  0  0  0  0  0
   -2.2453   24.7427  -26.0043 H   0  0  0  0  0  0  0  0  0  0  0  0
   -1.8753   27.6608  -25.9463 H   0  0  0  0  0  0  0  0  0  0  0  0
   -1.0481   27.9055  -23.6473 H   0  0  0  0  0  0  0  0  0  0  0  0
    0.9121   26.5311  -22.8940 H   0  0  0  0  0  0  0  0  0  0  0  0
    1.9842   24.9384  -24.4782 H   0  0  0  0  0  0  0  0  0  0  0  0
   -2.0240   25.6730  -30.0710 H   0  0  0  0  0  0  0  0  0  0  0  0
   -3.9550   22.1699  -32.1563 H   0  0  0  0  0  0  0  0  0  0  0  0
   -5.8345   20.6463  -32.7451 H   0  0  0  0  0  0  0  0  0  0  0  0
  1  2  1  0
  2  3  2  0
  2  4  2  0
  2  5  1  0
  5  6  2  0
  6  7  1  0
  7  8  2  0
  8  9  1  0
  9 10  2  0
 10 11  1  0
 11 12  1  0
 12 13  2  0
 13 14  1  0
 14 15  2  0
 15 16  1  0
 16 17  2  0
 17 18  1  0
 18 19  2  0
 19 20  1  0
 20 21  2  0
 21 22  1  0
 14 23  1  0
  8 24  1  0
 24 25  2  0
 25  5  1  0
 23 10  1  0
 21 16  1  0
  1 26  1  0
  1 27  1  0
  6 28  1  0
  7 29  1  0
 11 30  1  0
 12 31  1  0
 13 32  1  0
 17 33  1  0
 18 34  1  0
 19 35  1  0
 20 36  1  0
 23 37  1  0
 24 38  1  0
 25 39  1  0
M  END
>  <smiles>  (12) 
NS(=O)(=O)c1ccc(N=c2[nH]ccc(=Nc3ccccc3Cl)[nH]2)cc1

>  <score_type>  (12) 
oracle

>  <origin>  (12) 
adgpu

>  <m_score__min__energy>  (12) 
-9.8800000000000008

>  <m_primary>  (12) 
energy

$$$$
12:0
     RDKit          3D

 53 55  0  0  0  0  0  0  0  0999 V2000
   -2.2019   19.7367  -26.3258 H   0  0  0  0  0  0  0  0  0  0  0  0
   -2.3160   20.4410  -27.1630 C   0  0  0  0  0  0  0  0  0  0  0  0
   -2.9140   20.0380  -28.3100 N   0  0  0  0  0  0  0  0  0  0  0  0
   -3.0600   20.8880  -29.3560 C   0  0  0  0  0  0  0  0  0  0  0  0
   -3.6310   20.4710  -30.4430 N   0  0  0  0  0  0  0  0  0  0  0  0
   -3.8220   21.2950  -31.6340 C   0  0  0  0  0  0  0  0  0  0  0  0
   -3.5666   20.7099  -32.5298 H   0  0  0  0  0  0  0  0  0  0  0  0
   -3.1709   22.1797  -31.5768 H   0  0  0  0  0  0  0  0  0  0  0  0
   -5.2650   21.7350  -31.7140 C   0  0  0  0  0  0  0  0  0  0  0  0
   -6.2490   20.8390  -32.1890 C   0  0  0  0  0  0  0  0  0  0  0  0
   -5.9030   19.5050  -32.5870 N   0  0  0  0  0  0  0  0  0  0  0  0
   -5.6630   19.2160  -33.9980 C   0  0  0  0  0  0  0  0  0  0  0  0
   -4.9625   18.3724  -34.0855 H   0  0  0  0  0  0  0  0  0  0  0  0
   -6.6138   18.9551  -34.4857 H   0  0  0  0  0  0  0  0  0  0  0  0
   -5.2319   20.1027  -34.4857 H   0  0  0  0  0  0  0  0  0  0  0  0
   -6.1080   18.4130  -31.6380 C   0  0  0  0  0  0  0  0  0  0  0  0
   -6.0352   18.8010  -30.6113 H   0  0  0  0  0  0  0  0  0  0  0  0
   -7.1043   17.9737  -31.7942 H   0  0  0  0  0  0  0  0  0  0  0  0
   -5.3389   17.6423  -31.7942 H   0  0  0  0  0  0  0  0  0  0  0  0
   -7.5850   21.2440  -32.2780 C   0  0  0  0  0  0  0  0  0  0  0  0
   -8.3394   20.5487  -32.6747 H   0  0  0  0  0  0  0  0  0  0  0  0
   -7.9710   22.5230  -31.8680 C   0  0  0  0  0  0  0  0  0  0  0  0
   -9.3980   22.9650  -32.0020 C   0  0  0  0  0  0  0  0  0  0  0  0
   -9.8354   23.1005  -31.0018 H   0  0  0  0  0  0  0  0  0  0  0  0
   -9.4369   23.9173  -32.5512 H   0  0  0  0  0  0  0  0  0  0  0  0
   -9.9683   22.2014  -32.5512 H   0  0  0  0  0  0  0  0  0  0  0  0
   -7.0090   23.4100  -31.3790 C   0  0  0  0  0  0  0  0  0  0  0  0
   -7.3098   24.4229  -31.0731 H   0  0  0  0  0  0  0  0  0  0  0  0
   -5.6630   23.0250  -31.2730 C   0  0  0  0  0  0  0  0  0  0  0  0
   -4.6690   24.0130  -30.7210 C   0  0  0  0  0  0  0  0  0  0  0  0
   -4.6966   23.9856  -29.6217 H   0  0  0  0  0  0  0  0  0  0  0  0
   -3.6591   23.7505  -31.0691 H   0  0  0  0  0  0  0  0  0  0  0  0
   -4.9254   25.0245  -31.0691 H   0  0  0  0  0  0  0  0  0  0  0  0
   -2.6030   22.1660  -29.2540 N   0  0  0  0  0  0  0  0  0  0  0  0
   -2.0060   22.6320  -28.1230 C   0  0  0  0  0  0  0  0  0  0  0  0
   -1.5660   24.0120  -28.0880 N   0  0  0  0  0  0  0  0  0  0  0  0
   -1.3780   24.7560  -29.3410 C   0  0  0  0  0  0  0  0  0  0  0  0
   -0.5036   24.3683  -29.8843 H   0  0  0  0  0  0  0  0  0  0  0  0
   -2.2539   24.6510  -29.9981 H   0  0  0  0  0  0  0  0  0  0  0  0
   -1.1640   26.1450  -28.9750 N   0  0  0  0  0  0  0  0  0  0  0  0
   -1.2170   26.2260  -27.5670 C   0  0  0  0  0  0  0  0  0  0  0  0
   -1.0730   27.3180  -26.9460 O   0  0  0  0  0  0  0  0  0  0  0  0
   -1.4360   24.9030  -26.9180 C   0  0  0  0  0  0  0  0  0  0  0  0
   -0.1940   24.5610  -26.0710 C   0  0  0  0  0  0  0  0  0  0  0  0
   -0.4479   24.6309  -25.0030 H   0  0  0  0  0  0  0  0  0  0  0  0
    0.1376   23.5381  -26.3028 H   0  0  0  0  0  0  0  0  0  0  0  0
    0.6145   25.2699  -26.3028 H   0  0  0  0  0  0  0  0  0  0  0  0
   -2.7310   24.9560  -26.0850 C   0  0  0  0  0  0  0  0  0  0  0  0
   -2.4789   24.9457  -25.0143 H   0  0  0  0  0  0  0  0  0  0  0  0
   -3.2826   25.8775  -26.3230 H   0  0  0  0  0  0  0  0  0  0  0  0
   -3.3561   24.0827  -26.3230 H   0  0  0  0  0  0  0  0  0  0  0  0
   -1.8450   21.7480  -27.0430 C   0  0  0  0  0  0  0  0  0  0  0  0
   -1.3547   22.0819  -26.1166 H   0  0  0  0  0  0  0  0  0  0  0  0
  1  2  1  0
  2  3  1  0
  3  4  1  0
  4  5  2  0
  5  6  1  0
  6  7  1  0
  6  8  1  0
  6  9  1  0
  9 10  2  0
 10 11  1  0
 11 12  1  0
 12 13  1  0
 12 14  1  0
 12 15  1  0
 11 16  1  0
 16 17  1  0
 16 18  1  0
 16 19  1  0
 10 20  1  0
 20 21  1  0
 20 22  2  0
 22 23  1  0
 23 24  1  0
 23 25  1  0
 23 26  1  0
 22 27  1  0
 27 28  1  0
 27 29  2  0
 29 30  1  0
 30 31  1  0
 30 32  1  0
 30 33  1  0
  4 34  1  0
 34 35  2  0
 35 36  1  0
 36 37  1  0
 37 38  1  0
 37 39  1  0
 37 40  1  0
 40 41  1  0
 41 42  2  0
 41 43  1  0
 43 44  1  0
 44 45  1  0
 44 46  1  0
 44 47  1  0
 43 48  1  0
 48 49  1  0
 48 50  1  0
 48 51  1  0
 35 52  1  0
 52 53  1  0
 52  2  2  0
 29  9  1  0
 43 36  1  0
M  CHG  2   3  -1  40  -1
M  END
>  <UniqueID>  (13) 
11

>  <SMILES>  (13) 
Cc1cc(C)c(C/N=c2\nc(N3C[N-]C(=O)C3(C)C)cc[n-]2)c(N(C)C)c1

>  <Energy>  (13) 
69.72526641768556

>  <Genealogy>  (13) 
Cc1cc(C)c(CN=c2nc(N3C[N-]C(=O)C3(C)C)cc[n-]2)c(N(C)C)c1 (protonated)
Cc1cc(C)c(C/N=c2\nc(N3C[N-]C(=O)C3(C)C)cc[n-]2)c(N(C)C)c1 (cis-trans isomerization)
Cc1cc(C)c(C/N=c2\nc(N3C[N-]C(=O)C3(C)C)cc[n-]2)c(N(C)C)c1 (3D coordinates assigned)
Cc1cc(C)c(C/N=c2\nc(N3C[N-]C(=O)C3(C)C)cc[n-]2)c(N(C)C)c1 (nonaromatic ring conformer: 69.72526641768556 kcal/mol)

>  <smiles>  (13) 
Cc1cc(C)c(CN=c2nc(N3CNC(=O)C3(C)C)cc[nH]2)c(N(C)C)c1

>  <score_type>  (13) 
oracle

>  <origin>  (13) 
adgpu

>  <m_score__min__energy>  (13) 
-9.9800000000000004

>  <m_primary>  (13) 
energy

$$$$
13:0
     RDKit          3D

 66 69  0  0  0  0  0  0  0  0999 V2000
   -3.5400   20.7640  -30.4660 C   0  0  0  0  0  0  0  0  0  0  0  0
   -2.3890   21.3950  -31.1320 N   0  0  0  0  0  0  0  0  0  0  0  0
   -2.7260   21.9000  -32.4840 C   0  0  0  0  0  0  0  0  0  0  0  0
   -2.3790   20.9060  -33.6100 C   0  0  0  0  0  0  0  0  0  0  0  0
   -2.4390   19.5250  -33.1030 N   0  0  0  0  0  0  0  0  0  0  0  0
   -2.3410   18.5500  -34.2110 C   0  0  0  0  0  0  0  0  0  0  0  0
   -3.1940   17.3040  -33.9350 C   0  0  0  0  0  0  0  0  0  0  0  0
   -4.6420   17.6600  -33.7530 C   0  0  0  0  0  0  0  0  0  0  0  0
   -5.4900   17.2360  -34.5870 O   0  0  0  0  0  0  0  0  0  0  0  0
   -5.0480   18.4960  -32.6510 N   0  0  0  0  0  0  0  0  0  0  0  0
   -6.4230   18.7590  -32.3260 C   0  0  0  0  0  0  0  0  0  0  0  0
   -7.3750   17.7270  -32.3140 C   0  0  0  0  0  0  0  0  0  0  0  0
   -8.7040   17.9980  -31.9780 C   0  0  0  0  0  0  0  0  0  0  0  0
   -9.0940   19.2970  -31.6470 C   0  0  0  0  0  0  0  0  0  0  0  0
   -8.1510   20.3330  -31.6320 C   0  0  0  0  0  0  0  0  0  0  0  0
   -8.6240   21.9720  -31.1820 S   0  0  0  0  0  0  0  0  0  0  0  0
   -9.4290   21.9300  -29.9140 O   0  0  0  0  0  0  0  0  0  0  0  0
   -9.4740   22.5800  -32.2610 O   0  0  0  0  0  0  0  0  0  0  0  0
   -7.1930   22.9750  -30.9470 C   0  0  0  0  0  0  0  0  0  0  0  0
   -7.0730   23.7600  -29.7920 C   0  0  0  0  0  0  0  0  0  0  0  0
   -5.9240   24.5270  -29.5800 C   0  0  0  0  0  0  0  0  0  0  0  0
   -4.8840   24.5220  -30.5240 C   0  0  0  0  0  0  0  0  0  0  0  0
   -3.6840   25.2680  -30.2840 N   0  0  0  0  0  0  0  0  0  0  0  0
   -2.6510   24.7790  -29.4220 C   0  0  0  0  0  0  0  0  0  0  0  0
   -2.6760   23.5750  -29.0280 O   0  0  0  0  0  0  0  0  0  0  0  0
   -1.6170   25.6740  -28.9770 N   0  0  0  0  0  0  0  0  0  0  0  0
   -1.3630   26.0190  -27.6070 C   0  0  0  0  0  0  0  0  0  0  0  0
   -0.4750   27.0720  -27.3200 C   0  0  0  0  0  0  0  0  0  0  0  0
   -0.2600   27.4790  -25.9970 C   0  0  0  0  0  0  0  0  0  0  0  0
   -0.9060   26.8130  -24.9500 C   0  0  0  0  0  0  0  0  0  0  0  0
   -0.7020   27.2190  -23.6700 F   0  0  0  0  0  0  0  0  0  0  0  0
   -1.7610   25.7330  -25.2250 C   0  0  0  0  0  0  0  0  0  0  0  0
   -1.9780   25.3260  -26.5460 C   0  0  0  0  0  0  0  0  0  0  0  0
   -5.0190   23.7680  -31.6960 C   0  0  0  0  0  0  0  0  0  0  0  0
   -6.1630   22.9860  -31.9000 C   0  0  0  0  0  0  0  0  0  0  0  0
   -6.8140   20.0570  -31.9590 C   0  0  0  0  0  0  0  0  0  0  0  0
   -1.3840   19.3020  -32.0840 C   0  0  0  0  0  0  0  0  0  0  0  0
   -1.2090   20.5140  -31.1440 C   0  0  0  0  0  0  0  0  0  0  0  0
   -3.4152   20.8324  -29.3752 H   0  0  0  0  0  0  0  0  0  0  0  0
   -4.4642   21.2816  -30.7625 H   0  0  0  0  0  0  0  0  0  0  0  0
   -3.6007   19.7065  -30.7625 H   0  0  0  0  0  0  0  0  0  0  0  0
   -3.8059   22.1060  -32.5206 H   0  0  0  0  0  0  0  0  0  0  0  0
   -2.1253   22.8060  -32.6525 H   0  0  0  0  0  0  0  0  0  0  0  0
   -3.0993   21.0229  -34.4331 H   0  0  0  0  0  0  0  0  0  0  0  0
   -1.3607   21.1127  -33.9711 H   0  0  0  0  0  0  0  0  0  0  0  0
   -2.6914   19.0257  -35.1389 H   0  0  0  0  0  0  0  0  0  0  0  0
   -1.2907   18.2374  -34.3063 H   0  0  0  0  0  0  0  0  0  0  0  0
   -3.0999   16.6107  -34.7838 H   0  0  0  0  0  0  0  0  0  0  0  0
   -2.8333   16.8363  -33.0070 H   0  0  0  0  0  0  0  0  0  0  0  0
   -4.3140   19.0560  -32.1640 H   0  0  0  0  0  0  0  0  0  0  0  0
   -7.0733   16.7007  -32.5702 H   0  0  0  0  0  0  0  0  0  0  0  0
   -9.4452   17.1853  -31.9743 H   0  0  0  0  0  0  0  0  0  0  0  0
  -10.1444   19.5076  -31.3973 H   0  0  0  0  0  0  0  0  0  0  0  0
   -7.8853   23.7724  -29.0504 H   0  0  0  0  0  0  0  0  0  0  0  0
   -5.8338   25.1375  -28.6694 H   0  0  0  0  0  0  0  0  0  0  0  0
    0.0541   27.5792  -28.1403 H   0  0  0  0  0  0  0  0  0  0  0  0
    0.4152   28.3203  -25.7818 H   0  0  0  0  0  0  0  0  0  0  0  0
   -2.2614   25.2057  -24.3995 H   0  0  0  0  0  0  0  0  0  0  0  0
   -2.6291   24.4646  -26.7560 H   0  0  0  0  0  0  0  0  0  0  0  0
   -4.2256   23.7898  -32.4576 H   0  0  0  0  0  0  0  0  0  0  0  0
   -6.2545   22.3775  -32.8118 H   0  0  0  0  0  0  0  0  0  0  0  0
   -6.0668   20.8637  -31.9275 H   0  0  0  0  0  0  0  0  0  0  0  0
   -1.6555   18.4232  -31.4807 H   0  0  0  0  0  0  0  0  0  0  0  0
   -0.4325   19.1482  -32.6141 H   0  0  0  0  0  0  0  0  0  0  0  0
   -1.0338   20.1455  -30.1225 H   0  0  0  0  0  0  0  0  0  0  0  0
   -0.3567   21.1028  -31.5139 H   0  0  0  0  0  0  0  0  0  0  0  0
  1  2  1  0
  2  3  1  0
  3  4  1  0
  4  5  1  0
  5  6  1  0
  6  7  1  0
  7  8  1  0
  8  9  2  0
  8 10  1  0
 10 11  1  0
 11 12  2  0
 12 13  1  0
 13 14  2  0
 14 15  1  0
 15 16  1  0
 16 17  2  0
 16 18  2  0
 16 19  1  0
 19 20  2  0
 20 21  1  0
 21 22  2  0
 22 23  1  0
 23 24  1  0
 24 25  2  0
 24 26  1  0
 26 27  1  0
 27 28  2  0
 28 29  1  0
 29 30  2  0
 30 31  1  0
 30 32  1  0
 32 33  2  0
 22 34  1  0
 34 35  2  0
 15 36  2  0
  5 37  1  0
 37 38  1  0
 38  2  1  0
 36 11  1  0
 35 19  1  0
 33 27  1  0
  1 39  1  0
  1 40  1  0
  1 41  1  0
  3 42  1  0
  3 43  1  0
  4 44  1  0
  4 45  1  0
  6 46  1  0
  6 47  1  0
  7 48  1  0
  7 49  1  0
 10 50  1  0
 12 51  1  0
 13 52  1  0
 14 53  1  0
 20 54  1  0
 21 55  1  0
 28 56  1  0
 29 57  1  0
 32 58  1  0
 33 59  1  0
 34 60  1  0
 35 61  1  0
 36 62  1  0
 37 63  1  0
 37 64  1  0
 38 65  1  0
 38 66  1  0
M  CHG  2  23  -1  26  -1
M  END
>  <UniqueID>  (14) 
12

>  <SMILES>  (14) 
CN1CCN(CCC(=O)Nc2cccc(S(=O)(=O)c3ccc([N-]C(=O)[N-]c4ccc(F)cc4)cc3)c2)CC1

>  <Energy>  (14) 
89.22125784470823

>  <Genealogy>  (14) 
CN1CCN(CCC(=O)Nc2cccc(S(=O)(=O)c3ccc([N-]C(=O)[N-]c4ccc(F)cc4)cc3)c2)CC1 (protonated)
CN1CCN(CCC(=O)Nc2cccc(S(=O)(=O)c3ccc([N-]C(=O)[N-]c4ccc(F)cc4)cc3)c2)CC1 (3D coordinates assigned)
CN1CCN(CCC(=O)Nc2cccc(S(=O)(=O)c3ccc([N-]C(=O)[N-]c4ccc(F)cc4)cc3)c2)CC1 (nonaromatic ring conformer: 89.22125784470823 kcal/mol)

>  <smiles>  (14) 
CN1CCN(CCC(=O)Nc2cccc(S(=O)(=O)c3ccc(NC(=O)Nc4ccc(F)cc4)cc3)c2)CC1

>  <score_type>  (14) 
oracle

>  <origin>  (14) 
adgpu

>  <m_score__min__energy>  (14) 
-14.32

>  <m_primary>  (14) 
energy

$$$$
14:0
     RDKit          3D

 44 47  0  0  0  0  0  0  0  0999 V2000
   -9.8141   21.0620  -29.9788 H   0  0  0  0  0  0  0  0  0  0  0  0
   -8.8990   21.5510  -30.3440 C   0  0  0  0  0  0  0  0  0  0  0  0
   -8.5220   21.3230  -31.7570 C   0  0  0  0  0  0  0  0  0  0  0  0
   -9.3510   21.6510  -32.6480 O   0  0  0  0  0  0  0  0  0  0  0  0
   -7.2460   20.6810  -32.1560 C   0  0  0  0  0  0  0  0  0  0  0  0
   -6.3570   21.3520  -33.0140 C   0  0  0  0  0  0  0  0  0  0  0  0
   -6.6123   22.3541  -33.3890 H   0  0  0  0  0  0  0  0  0  0  0  0
   -5.1520   20.7560  -33.3940 C   0  0  0  0  0  0  0  0  0  0  0  0
   -4.4751   21.2801  -34.0848 H   0  0  0  0  0  0  0  0  0  0  0  0
   -4.8020   19.4900  -32.8970 C   0  0  0  0  0  0  0  0  0  0  0  0
   -3.6050   18.8300  -33.3330 N   0  0  0  0  0  0  0  0  0  0  0  0
   -2.3470   19.0990  -33.0850 C   0  0  0  0  0  0  0  0  0  0  0  0
   -1.4090   18.4920  -33.9300 C   0  0  0  0  0  0  0  0  0  0  0  0
   -1.7342   17.7141  -34.6365 H   0  0  0  0  0  0  0  0  0  0  0  0
   -0.0690   18.8650  -33.8830 C   0  0  0  0  0  0  0  0  0  0  0  0
    0.6537   18.4038  -34.5722 H   0  0  0  0  0  0  0  0  0  0  0  0
    0.3470   19.7950  -32.9900 N   0  0  0  0  0  0  0  0  0  0  0  0
   -0.5000   20.3540  -32.0890 C   0  0  0  0  0  0  0  0  0  0  0  0
    0.0100   21.2600  -31.1520 C   0  0  0  0  0  0  0  0  0  0  0  0
    1.0612   21.5781  -31.2135 H   0  0  0  0  0  0  0  0  0  0  0  0
   -0.8090   21.7610  -30.1410 C   0  0  0  0  0  0  0  0  0  0  0  0
   -0.1610   22.8850  -28.9600 Cl  0  0  0  0  0  0  0  0  0  0  0  0
   -2.1300   21.3270  -30.0390 C   0  0  0  0  0  0  0  0  0  0  0  0
   -2.7639   21.6941  -29.2184 H   0  0  0  0  0  0  0  0  0  0  0  0
   -2.6540   20.4290  -30.9720 C   0  0  0  0  0  0  0  0  0  0  0  0
   -3.6851   20.0638  -30.8558 H   0  0  0  0  0  0  0  0  0  0  0  0
   -1.8730   19.9840  -32.0650 C   0  0  0  0  0  0  0  0  0  0  0  0
   -5.7050   18.7970  -32.0860 C   0  0  0  0  0  0  0  0  0  0  0  0
   -5.4609   17.7822  -31.7387 H   0  0  0  0  0  0  0  0  0  0  0  0
   -6.9160   19.3860  -31.7140 C   0  0  0  0  0  0  0  0  0  0  0  0
   -7.6169   18.8336  -31.0709 H   0  0  0  0  0  0  0  0  0  0  0  0
   -8.2120   22.3080  -29.4720 C   0  0  0  0  0  0  0  0  0  0  0  0
   -8.5429   22.3012  -28.4230 H   0  0  0  0  0  0  0  0  0  0  0  0
   -7.0460   23.1490  -29.8140 C   0  0  0  0  0  0  0  0  0  0  0  0
   -7.2370   24.5170  -30.0610 C   0  0  0  0  0  0  0  0  0  0  0  0
   -8.2460   24.9497  -29.9931 H   0  0  0  0  0  0  0  0  0  0  0  0
   -6.1510   25.3330  -30.3930 C   0  0  0  0  0  0  0  0  0  0  0  0
   -6.3045   26.4086  -30.5647 H   0  0  0  0  0  0  0  0  0  0  0  0
   -4.8710   24.7840  -30.5070 C   0  0  0  0  0  0  0  0  0  0  0  0
   -3.7940   25.5950  -30.8410 O   0  0  0  0  0  0  0  0  0  0  0  0
   -4.6760   23.4160  -30.2910 C   0  0  0  0  0  0  0  0  0  0  0  0
   -3.6697   22.9824  -30.3879 H   0  0  0  0  0  0  0  0  0  0  0  0
   -5.7590   22.5990  -29.9520 C   0  0  0  0  0  0  0  0  0  0  0  0
   -5.6037   21.5217  -29.7926 H   0  0  0  0  0  0  0  0  0  0  0  0
  1  2  1  0
  2  3  1  0
  3  4  2  0
  3  5  1  0
  5  6  2  0
  6  7  1  0
  6  8  1  0
  8  9  1  0
  8 10  2  0
 10 11  1  0
 11 12  2  0
 12 13  1  0
 13 14  1  0
 13 15  2  0
 15 16  1  0
 15 17  1  0
 17 18  1  0
 18 19  2  0
 19 20  1  0
 19 21  1  0
 21 22  1  0
 21 23  2  0
 23 24  1  0
 23 25  1  0
 25 26  1  0
 25 27  2  0
 10 28  1  0
 28 29  1  0
 28 30  2  0
 30 31  1  0
  2 32  2  0
 32 33  1  0
 32 34  1  0
 34 35  2  0
 35 36  1  0
 35 37  1  0
 37 38  1  0
 37 39  2  0
 39 40  1  0
 39 41  1  0
 41 42  1  0
 41 43  2  0
 43 44  1  0
 30  5  1  0
 43 34  1  0
 27 12  1  0
 27 18  1  0
M  CHG  2  17  -1  40  -1
M  END
>  <UniqueID>  (15) 
13

>  <SMILES>  (15) 
O=C(/C=C\c1ccc([O-])cc1)c1ccc(/N=c2/cc[n-]c3cc(Cl)ccc23)cc1

>  <Energy>  (15) 
80.56111843426942

>  <Genealogy>  (15) 
O=C(C=Cc1ccc([O-])cc1)c1ccc(N=c2cc[n-]c3cc(Cl)ccc23)cc1 (protonated)
O=C(/C=C\c1ccc([O-])cc1)c1ccc(/N=c2/cc[n-]c3cc(Cl)ccc23)cc1 (cis-trans isomerization)
O=C(/C=C\c1ccc([O-])cc1)c1ccc(/N=c2/cc[n-]c3cc(Cl)ccc23)cc1 (3D coordinates assigned)
O=C(/C=C\c1ccc([O-])cc1)c1ccc(/N=c2/cc[n-]c3cc(Cl)ccc23)cc1 (optimized conformer: 80.56111843426942 kcal/mol)

>  <smiles>  (15) 
O=C(C=Cc1ccc(O)cc1)c1ccc(N=c2cc[nH]c3cc(Cl)ccc23)cc1

>  <score_type>  (15) 
oracle

>  <origin>  (15) 
adgpu

>  <m_score__min__energy>  (15) 
-11.99

>  <m_primary>  (15) 
energy

$$$$
15:0
     RDKit          3D

 72 75  0  0  0  0  0  0  0  0999 V2000
   -6.7000   25.0450  -29.7240 C   0  0  0  0  0  0  0  0  0  0  0  0
   -5.6440   25.6900  -30.6140 C   0  0  0  0  0  0  0  0  0  0  0  0
   -4.8050   24.6960  -31.2040 O   0  0  0  0  0  0  0  0  0  0  0  0
   -5.1870   23.3780  -31.5030 C   0  0  0  0  0  0  0  0  0  0  0  0
   -6.3300   23.0660  -32.2660 C   0  0  0  0  0  0  0  0  0  0  0  0
   -6.6560   21.7330  -32.5350 C   0  0  0  0  0  0  0  0  0  0  0  0
   -5.8550   20.6920  -32.0450 C   0  0  0  0  0  0  0  0  0  0  0  0
   -6.1900   19.3230  -32.3310 N   0  0  0  0  0  0  0  0  0  0  0  0
   -7.0630   18.5710  -31.4230 C   0  0  0  0  0  0  0  0  0  0  0  0
   -8.5230   18.7560  -31.8170 C   0  0  0  0  0  0  0  0  0  0  0  0
   -5.6440   18.5810  -33.8090 S   0  0  0  0  0  0  0  0  0  0  0  0
   -6.1270   19.3910  -34.9800 O   0  0  0  0  0  0  0  0  0  0  0  0
   -6.2060   17.1920  -33.9220 O   0  0  0  0  0  0  0  0  0  0  0  0
   -3.8860   18.4890  -33.8550 C   0  0  0  0  0  0  0  0  0  0  0  0
   -3.2670   17.2590  -34.1070 C   0  0  0  0  0  0  0  0  0  0  0  0
   -1.8750   17.1610  -34.1130 C   0  0  0  0  0  0  0  0  0  0  0  0
   -1.0900   18.2930  -33.8740 C   0  0  0  0  0  0  0  0  0  0  0  0
   -1.6960   19.5400  -33.6390 C   0  0  0  0  0  0  0  0  0  0  0  0
   -0.8780   20.7410  -33.3560 C   0  0  0  0  0  0  0  0  0  0  0  0
   -0.8310   21.6710  -34.2040 O   0  0  0  0  0  0  0  0  0  0  0  0
   -0.1720   20.9120  -32.1190 N   0  0  0  0  0  0  0  0  0  0  0  0
   -0.7650   21.0750  -30.8230 C   0  0  0  0  0  0  0  0  0  0  0  0
   -1.0110   19.9780  -29.9790 C   0  0  0  0  0  0  0  0  0  0  0  0
   -1.5750   20.1770  -28.7150 C   0  0  0  0  0  0  0  0  0  0  0  0
   -1.8800   21.4670  -28.2780 C   0  0  0  0  0  0  0  0  0  0  0  0
   -1.6180   22.5690  -29.1030 C   0  0  0  0  0  0  0  0  0  0  0  0
   -2.0170   24.2030  -28.5740 S   0  0  0  0  0  0  0  0  0  0  0  0
   -2.9440   24.1030  -27.3940 O   0  0  0  0  0  0  0  0  0  0  0  0
   -2.7370   24.9310  -29.6750 O   0  0  0  0  0  0  0  0  0  0  0  0
   -0.5680   25.0680  -28.1000 N   0  0  0  0  0  0  0  0  0  0  0  0
    0.3850   24.1790  -27.3730 C   0  0  0  0  0  0  0  0  0  0  0  0
    0.6300   24.5850  -25.9080 C   0  0  0  0  0  0  0  0  0  0  0  0
   -0.6820   24.9540  -25.2220 C   0  0  0  0  0  0  0  0  0  0  0  0
   -1.4100   26.0940  -25.9560 C   0  0  0  0  0  0  0  0  0  0  0  0
   -0.8870   26.3250  -27.3880 C   0  0  0  0  0  0  0  0  0  0  0  0
   -1.0570   22.3680  -30.3720 C   0  0  0  0  0  0  0  0  0  0  0  0
   -3.0980   19.6260  -33.6260 C   0  0  0  0  0  0  0  0  0  0  0  0
   -4.7080   21.0050  -31.2990 C   0  0  0  0  0  0  0  0  0  0  0  0
   -4.3820   22.3360  -31.0290 C   0  0  0  0  0  0  0  0  0  0  0  0
   -6.4372   25.2055  -28.6680 H   0  0  0  0  0  0  0  0  0  0  0  0
   -7.6806   25.4985  -29.9309 H   0  0  0  0  0  0  0  0  0  0  0  0
   -6.7443   23.9655  -29.9309 H   0  0  0  0  0  0  0  0  0  0  0  0
   -6.1432   26.2606  -31.4111 H   0  0  0  0  0  0  0  0  0  0  0  0
   -5.0226   26.3572  -29.9986 H   0  0  0  0  0  0  0  0  0  0  0  0
   -6.9685   23.8745  -32.6516 H   0  0  0  0  0  0  0  0  0  0  0  0
   -7.5475   21.4995  -33.1355 H   0  0  0  0  0  0  0  0  0  0  0  0
   -6.8060   17.5027  -31.4748 H   0  0  0  0  0  0  0  0  0  0  0  0
   -6.9194   18.9446  -30.3984 H   0  0  0  0  0  0  0  0  0  0  0  0
   -9.1405   18.8342  -30.9100 H   0  0  0  0  0  0  0  0  0  0  0  0
   -8.6284   19.6747  -32.4127 H   0  0  0  0  0  0  0  0  0  0  0  0
   -8.8542   17.8926  -32.4127 H   0  0  0  0  0  0  0  0  0  0  0  0
   -3.8801   16.3665  -34.3010 H   0  0  0  0  0  0  0  0  0  0  0  0
   -1.3941   16.1907  -34.3062 H   0  0  0  0  0  0  0  0  0  0  0  0
    0.0067   18.2078  -33.8698 H   0  0  0  0  0  0  0  0  0  0  0  0
   -0.7593   18.9608  -30.3136 H   0  0  0  0  0  0  0  0  0  0  0  0
   -1.7788   19.3146  -28.0633 H   0  0  0  0  0  0  0  0  0  0  0  0
   -2.3268   21.6189  -27.2844 H   0  0  0  0  0  0  0  0  0  0  0  0
   -0.1110   25.3480  -29.0000 H   0  0  0  0  0  0  0  0  0  0  0  0
   -0.0191   23.1560  -27.3851 H   0  0  0  0  0  0  0  0  0  0  0  0
    1.3522   24.2597  -27.8907 H   0  0  0  0  0  0  0  0  0  0  0  0
    1.0925   23.7426  -25.3727 H   0  0  0  0  0  0  0  0  0  0  0  0
    1.2955   25.4607  -25.8911 H   0  0  0  0  0  0  0  0  0  0  0  0
   -1.3349   24.0689  -25.2027 H   0  0  0  0  0  0  0  0  0  0  0  0
   -0.4502   25.2968  -24.2028 H   0  0  0  0  0  0  0  0  0  0  0  0
   -2.4807   25.8475  -26.0102 H   0  0  0  0  0  0  0  0  0  0  0  0
   -1.2274   27.0181  -25.3879 H   0  0  0  0  0  0  0  0  0  0  0  0
   -1.6568   26.8648  -27.9589 H   0  0  0  0  0  0  0  0  0  0  0  0
    0.0463   26.9016  -27.3069 H   0  0  0  0  0  0  0  0  0  0  0  0
   -0.8447   23.2325  -31.0182 H   0  0  0  0  0  0  0  0  0  0  0  0
   -3.5825   20.5948  -33.4343 H   0  0  0  0  0  0  0  0  0  0  0  0
   -4.0620   20.1972  -30.9248 H   0  0  0  0  0  0  0  0  0  0  0  0
   -3.4836   22.5675  -30.4379 H   0  0  0  0  0  0  0  0  0  0  0  0
  1  2  1  0
  2  3  1  0
  3  4  1  0
  4  5  2  0
  5  6  1  0
  6  7  2  0
  7  8  1  0
  8  9  1  0
  9 10  1  0
  8 11  1  0
 11 12  2  0
 11 13  2  0
 11 14  1  0
 14 15  2  0
 15 16  1  0
 16 17  2  0
 17 18  1  0
 18 19  1  0
 19 20  2  0
 19 21  1  0
 21 22  1  0
 22 23  2  0
 23 24  1  0
 24 25  2  0
 25 26  1  0
 26 27  1  0
 27 28  2  0
 27 29  2  0
 27 30  1  0
 30 31  1  0
 31 32  1  0
 32 33  1  0
 33 34  1  0
 34 35  1  0
 26 36  2  0
 18 37  2  0
  7 38  1  0
 38 39  2  0
 39  4  1  0
 37 14  1  0
 36 22  1  0
 35 30  1  0
  1 40  1  0
  1 41  1  0
  1 42  1  0
  2 43  1  0
  2 44  1  0
  5 45  1  0
  6 46  1  0
  9 47  1  0
  9 48  1  0
 10 49  1  0
 10 50  1  0
 10 51  1  0
 15 52  1  0
 16 53  1  0
 17 54  1  0
 23 55  1  0
 24 56  1  0
 25 57  1  0
 30 58  1  0
 31 59  1  0
 31 60  1  0
 32 61  1  0
 32 62  1  0
 33 63  1  0
 33 64  1  0
 34 65  1  0
 34 66  1  0
 35 67  1  0
 35 68  1  0
 36 69  1  0
 37 70  1  0
 38 71  1  0
 39 72  1  0
M  CHG  2  21  -1  30   1
M  END
>  <UniqueID>  (16) 
14

>  <SMILES>  (16) 
CCOc1ccc(N(CC)S(=O)(=O)c2cccc(C(=O)[N-]c3cccc(S(=O)(=O)[NH+]4CCCCC4)c3)c2)cc1

>  <Energy>  (16) 
89.11798632241178

>  <Genealogy>  (16) 
CCOc1ccc(N(CC)S(=O)(=O)c2cccc(C(=O)[N-]c3cccc(S(=O)(=O)[NH+]4CCCCC4)c3)c2)cc1 (protonated)
CCOc1ccc(N(CC)S(=O)(=O)c2cccc(C(=O)[N-]c3cccc(S(=O)(=O)[NH+]4CCCCC4)c3)c2)cc1 (3D coordinates assigned)
CCOc1ccc(N(CC)S(=O)(=O)c2cccc(C(=O)[N-]c3cccc(S(=O)(=O)[NH+]4CCCCC4)c3)c2)cc1 (nonaromatic ring conformer: 89.11798632241178 kcal/mol)

>  <smiles>  (16) 
CCOc1ccc(N(CC)S(=O)(=O)c2cccc(C(=O)Nc3cccc(S(=O)(=O)N4CCCCC4)c3)c2)cc1

>  <score_type>  (16) 
oracle

>  <origin>  (16) 
adgpu

>  <m_score__min__energy>  (16) 
-11.75

>  <m_primary>  (16) 
energy

$$$$
16:0
     RDKit          3D

 51 53  0  0  0  0  0  0  0  0999 V2000
   -8.4680   19.4730  -31.7540 C   0  0  0  0  0  0  0  0  0  0  0  0
   -7.7160   20.7750  -31.8690 C   0  0  0  0  0  0  0  0  0  0  0  0
   -8.3230   21.9300  -31.3520 C   0  0  0  0  0  0  0  0  0  0  0  0
   -7.6660   23.1570  -31.3770 C   0  0  0  0  0  0  0  0  0  0  0  0
   -6.3730   23.2550  -31.8840 C   0  0  0  0  0  0  0  0  0  0  0  0
   -5.7360   24.5400  -31.8820 N   0  0  0  0  0  0  0  0  0  0  0  0
   -5.2800   25.2400  -30.7180 C   0  0  0  0  0  0  0  0  0  0  0  0
   -6.1050   25.7800  -29.9350 O   0  0  0  0  0  0  0  0  0  0  0  0
   -3.8820   25.3270  -30.4210 N   0  0  0  0  0  0  0  0  0  0  0  0
   -3.0860   24.3180  -29.7820 C   0  0  0  0  0  0  0  0  0  0  0  0
   -3.3950   22.9500  -29.8970 C   0  0  0  0  0  0  0  0  0  0  0  0
   -2.5860   21.9900  -29.2840 C   0  0  0  0  0  0  0  0  0  0  0  0
   -1.4520   22.3820  -28.5630 C   0  0  0  0  0  0  0  0  0  0  0  0
   -0.6190   21.3920  -27.9330 C   0  0  0  0  0  0  0  0  0  0  0  0
    0.0510   20.5950  -27.4270 N   0  0  0  0  0  0  0  0  0  0  0  0
   -1.1250   23.7390  -28.4670 C   0  0  0  0  0  0  0  0  0  0  0  0
   -1.9330   24.7030  -29.0800 C   0  0  0  0  0  0  0  0  0  0  0  0
   -1.5900   26.0470  -28.9820 O   0  0  0  0  0  0  0  0  0  0  0  0
   -5.7550   22.1190  -32.4400 C   0  0  0  0  0  0  0  0  0  0  0  0
   -4.4990   22.2440  -33.0250 O   0  0  0  0  0  0  0  0  0  0  0  0
   -6.4120   20.8670  -32.4330 C   0  0  0  0  0  0  0  0  0  0  0  0
   -5.5780   19.4640  -33.1600 S   0  0  0  0  0  0  0  0  0  0  0  0
   -6.1180   19.1590  -34.5290 O   0  0  0  0  0  0  0  0  0  0  0  0
   -5.8320   18.2520  -32.3080 O   0  0  0  0  0  0  0  0  0  0  0  0
   -3.7990   19.7200  -33.2930 C   0  0  0  0  0  0  0  0  0  0  0  0
   -3.1580   20.0500  -31.9280 C   0  0  0  0  0  0  0  0  0  0  0  0
   -1.6890   19.5860  -31.8230 C   0  0  0  0  0  0  0  0  0  0  0  0
   -0.9690   19.6350  -33.1110 N   0  0  0  0  0  0  0  0  0  0  0  0
   -0.6630   21.0150  -33.5220 C   0  0  0  0  0  0  0  0  0  0  0  0
   -1.6130   18.8420  -34.1930 C   0  0  0  0  0  0  0  0  0  0  0  0
   -3.0990   18.5210  -33.9390 C   0  0  0  0  0  0  0  0  0  0  0  0
   -8.6113   19.2249  -30.6920 H   0  0  0  0  0  0  0  0  0  0  0  0
   -9.4484   19.5714  -32.2431 H   0  0  0  0  0  0  0  0  0  0  0  0
   -7.8929   18.6730  -32.2431 H   0  0  0  0  0  0  0  0  0  0  0  0
   -9.3328   21.8647  -30.9207 H   0  0  0  0  0  0  0  0  0  0  0  0
   -8.1719   24.0554  -30.9935 H   0  0  0  0  0  0  0  0  0  0  0  0
   -4.2779   22.6349  -30.4724 H   0  0  0  0  0  0  0  0  0  0  0  0
   -2.8408   20.9232  -29.3682 H   0  0  0  0  0  0  0  0  0  0  0  0
   -0.2299   24.0490  -27.9079 H   0  0  0  0  0  0  0  0  0  0  0  0
   -3.6585   20.5912  -33.9497 H   0  0  0  0  0  0  0  0  0  0  0  0
   -3.1930   21.1392  -31.7785 H   0  0  0  0  0  0  0  0  0  0  0  0
   -3.7290   19.5111  -31.1576 H   0  0  0  0  0  0  0  0  0  0  0  0
   -1.1673   20.2371  -31.1061 H   0  0  0  0  0  0  0  0  0  0  0  0
   -1.7010   18.5360  -31.4955 H   0  0  0  0  0  0  0  0  0  0  0  0
   -0.5241   21.6414  -32.6285 H   0  0  0  0  0  0  0  0  0  0  0  0
    0.2587   21.0230  -34.1223 H   0  0  0  0  0  0  0  0  0  0  0  0
   -1.4950   21.4118  -34.1223 H   0  0  0  0  0  0  0  0  0  0  0  0
   -1.5382   19.4124  -35.1306 H   0  0  0  0  0  0  0  0  0  0  0  0
   -1.0837   17.8788  -34.2382 H   0  0  0  0  0  0  0  0  0  0  0  0
   -3.5885   18.2874  -34.8960 H   0  0  0  0  0  0  0  0  0  0  0  0
   -3.1677   17.6582  -33.2601 H   0  0  0  0  0  0  0  0  0  0  0  0
  1  2  1  0
  2  3  2  0
  3  4  1  0
  4  5  2  0
  5  6  1  0
  6  7  1  0
  7  8  2  0
  7  9  1  0
  9 10  1  0
 10 11  2  0
 11 12  1  0
 12 13  2  0
 13 14  1  0
 14 15  3  0
 13 16  1  0
 16 17  2  0
 17 18  1  0
  5 19  1  0
 19 20  1  0
 19 21  2  0
 21 22  1  0
 22 23  2  0
 22 24  2  0
 22 25  1  0
 25 26  1  0
 26 27  1  0
 27 28  1  0
 28 29  1  0
 28 30  1  0
 30 31  1  0
 21  2  1  0
 31 25  1  0
 17 10  1  0
  1 32  1  0
  1 33  1  0
  1 34  1  0
  3 35  1  0
  4 36  1  0
 11 37  1  0
 12 38  1  0
 16 39  1  0
 25 40  1  0
 26 41  1  0
 26 42  1  0
 27 43  1  0
 27 44  1  0
 29 45  1  0
 29 46  1  0
 29 47  1  0
 30 48  1  0
 30 49  1  0
 31 50  1  0
 31 51  1  0
M  CHG  4   6  -1   9  -1  18  -1  20  -1
M  END
>  <UniqueID>  (17) 
15

>  <SMILES>  (17) 
Cc1ccc([N-]C(=O)[N-]c2ccc(C#N)cc2[O-])c([O-])c1S(=O)(=O)C1CCN(C)CC1

>  <Energy>  (17) 
71.5838405980489

>  <Genealogy>  (17) 
Cc1ccc([N-]C(=O)[N-]c2ccc(C#N)cc2[O-])c([O-])c1S(=O)(=O)C1CCN(C)CC1 (protonated)
Cc1ccc([N-]C(=O)[N-]c2ccc(C#N)cc2[O-])c([O-])c1S(=O)(=O)C1CCN(C)CC1 (3D coordinates assigned)
Cc1ccc([N-]C(=O)[N-]c2ccc(C#N)cc2[O-])c([O-])c1S(=O)(=O)C1CCN(C)CC1 (nonaromatic ring conformer: 71.5838405980489 kcal/mol)

>  <smiles>  (17) 
Cc1ccc(NC(=O)Nc2ccc(C#N)cc2O)c(O)c1S(=O)(=O)C1CCN(C)CC1

>  <score_type>  (17) 
oracle

>  <origin>  (17) 
adgpu

>  <m_score__min__energy>  (17) 
-15.75

>  <m_primary>  (17) 
energy

$$$$
17:0
     RDKit          3D

 45 46  0  0  0  0  0  0  0  0999 V2000
   -9.3940   23.1040  -31.9640 C   0  0  0  0  0  0  0  0  0  0  0  0
   -8.8240   21.7170  -31.9460 C   0  0  0  0  0  0  0  0  0  0  0  0
   -9.6110   20.6240  -32.3400 C   0  0  0  0  0  0  0  0  0  0  0  0
   -9.0740   19.3330  -32.3400 C   0  0  0  0  0  0  0  0  0  0  0  0
   -7.7400   19.1190  -31.9620 C   0  0  0  0  0  0  0  0  0  0  0  0
   -7.1830   17.7180  -31.9210 C   0  0  0  0  0  0  0  0  0  0  0  0
   -5.7640   17.7190  -32.3370 N   0  0  0  0  0  0  0  0  0  0  0  0
   -5.2420   16.3410  -32.3500 C   0  0  0  0  0  0  0  0  0  0  0  0
   -5.5930   18.3500  -33.6650 C   0  0  0  0  0  0  0  0  0  0  0  0
   -4.1010   18.4660  -34.0130 C   0  0  0  0  0  0  0  0  0  0  0  0
   -3.3930   19.1570  -32.9830 O   0  0  0  0  0  0  0  0  0  0  0  0
   -3.7870   20.3830  -32.4180 C   0  0  0  0  0  0  0  0  0  0  0  0
   -3.7100   20.5300  -31.0270 C   0  0  0  0  0  0  0  0  0  0  0  0
   -4.0620   21.7390  -30.4200 C   0  0  0  0  0  0  0  0  0  0  0  0
   -4.5120   22.8130  -31.1970 C   0  0  0  0  0  0  0  0  0  0  0  0
   -4.9100   24.3500  -30.4370 S   0  0  0  0  0  0  0  0  0  0  0  0
   -4.8790   24.1690  -28.7170 N   0  0  0  0  0  0  0  0  0  0  0  0
   -3.9140   25.3990  -30.8470 O   0  0  0  0  0  0  0  0  0  0  0  0
   -6.2810   24.7900  -30.8710 O   0  0  0  0  0  0  0  0  0  0  0  0
   -4.6070   22.6690  -32.5860 C   0  0  0  0  0  0  0  0  0  0  0  0
   -4.2470   21.4640  -33.1950 C   0  0  0  0  0  0  0  0  0  0  0  0
   -6.9480   20.2170  -31.5880 C   0  0  0  0  0  0  0  0  0  0  0  0
   -7.4850   21.5080  -31.5850 C   0  0  0  0  0  0  0  0  0  0  0  0
   -9.5381   23.4546  -30.9314 H   0  0  0  0  0  0  0  0  0  0  0  0
   -8.7003   23.7788  -32.4869 H   0  0  0  0  0  0  0  0  0  0  0  0
  -10.3617   23.0960  -32.4869 H   0  0  0  0  0  0  0  0  0  0  0  0
  -10.6543   20.7835  -32.6500 H   0  0  0  0  0  0  0  0  0  0  0  0
   -9.7013   18.4800  -32.6382 H   0  0  0  0  0  0  0  0  0  0  0  0
   -7.2607   17.3262  -30.8961 H   0  0  0  0  0  0  0  0  0  0  0  0
   -7.7583   17.0832  -32.6110 H   0  0  0  0  0  0  0  0  0  0  0  0
   -5.1089   15.9896  -31.3162 H   0  0  0  0  0  0  0  0  0  0  0  0
   -5.9536   15.6842  -32.8718 H   0  0  0  0  0  0  0  0  0  0  0  0
   -4.2738   16.3206  -32.8718 H   0  0  0  0  0  0  0  0  0  0  0  0
   -6.0963   17.7356  -34.4261 H   0  0  0  0  0  0  0  0  0  0  0  0
   -6.0340   19.3575  -33.6415 H   0  0  0  0  0  0  0  0  0  0  0  0
   -3.6777   17.4572  -34.1274 H   0  0  0  0  0  0  0  0  0  0  0  0
   -4.0003   19.0317  -34.9510 H   0  0  0  0  0  0  0  0  0  0  0  0
   -3.3698   19.6872  -30.4074 H   0  0  0  0  0  0  0  0  0  0  0  0
   -3.9851   21.8468  -29.3280 H   0  0  0  0  0  0  0  0  0  0  0  0
   -4.4320   25.0290  -28.3290 H   0  0  0  0  0  0  0  0  0  0  0  0
   -5.8710   24.1750  -28.3930 H   0  0  0  0  0  0  0  0  0  0  0  0
   -4.9664   23.5076  -33.2005 H   0  0  0  0  0  0  0  0  0  0  0  0
   -4.3233   21.3590  -34.2873 H   0  0  0  0  0  0  0  0  0  0  0  0
   -5.8992   20.0604  -31.2958 H   0  0  0  0  0  0  0  0  0  0  0  0
   -6.8549   22.3629  -31.2984 H   0  0  0  0  0  0  0  0  0  0  0  0
  1  2  1  0
  2  3  2  0
  3  4  1  0
  4  5  2  0
  5  6  1  0
  6  7  1  0
  7  8  1  0
  7  9  1  0
  9 10  1  0
 10 11  1  0
 11 12  1  0
 12 13  2  0
 13 14  1  0
 14 15  2  0
 15 16  1  0
 16 17  1  0
 16 18  2  0
 16 19  2  0
 15 20  1  0
 20 21  2  0
  5 22  1  0
 22 23  2  0
 23  2  1  0
 21 12  1  0
  1 24  1  0
  1 25  1  0
  1 26  1  0
  3 27  1  0
  4 28  1  0
  6 29  1  0
  6 30  1  0
  8 31  1  0
  8 32  1  0
  8 33  1  0
  9 34  1  0
  9 35  1  0
 10 36  1  0
 10 37  1  0
 13 38  1  0
 14 39  1  0
 17 40  1  0
 17 41  1  0
 20 42  1  0
 21 43  1  0
 22 44  1  0
 23 45  1  0
M  END
>  <UniqueID>  (18) 
16

>  <SMILES>  (18) 
Cc1ccc(CN(C)CCOc2ccc(S(N)(=O)=O)cc2)cc1

>  <Energy>  (18) 
39.592403793776704

>  <Genealogy>  (18) 
Cc1ccc(CN(C)CCOc2ccc(S(N)(=O)=O)cc2)cc1 (3D coordinates assigned)
Cc1ccc(CN(C)CCOc2ccc(S(N)(=O)=O)cc2)cc1 (optimized conformer: 39.592403793776704 kcal/mol)

>  <smiles>  (18) 
Cc1ccc(CN(C)CCOc2ccc(S(N)(=O)=O)cc2)cc1

>  <score_type>  (18) 
oracle

>  <origin>  (18) 
adgpu

>  <m_score__min__energy>  (18) 
-8.9499999999999993

>  <m_primary>  (18) 
energy

$$$$
18:0
     RDKit          3D

 49 52  0  0  0  0  0  0  0  0999 V2000
   -1.0870   23.8420  -29.3550 C   0  0  0  0  0  0  0  0  0  0  0  0
   -1.8970   24.3530  -28.1940 C   0  0  0  0  0  0  0  0  0  0  0  0
   -1.2830   25.1640  -27.2240 C   0  0  0  0  0  0  0  0  0  0  0  0
   -2.0140   25.6570  -26.1320 C   0  0  0  0  0  0  0  0  0  0  0  0
   -1.3730   26.4790  -25.1370 N   0  0  0  0  0  0  0  0  0  0  0  0
   -0.8520   25.8770  -23.9050 C   0  0  0  0  0  0  0  0  0  0  0  0
    0.1950   26.7950  -23.2500 C   0  0  0  0  0  0  0  0  0  0  0  0
    1.0430   27.4680  -24.2580 N   0  0  0  0  0  0  0  0  0  0  0  0
    1.9160   26.5130  -24.9630 C   0  0  0  0  0  0  0  0  0  0  0  0
    0.2730   28.3160  -25.2040 C   0  0  0  0  0  0  0  0  0  0  0  0
   -1.2110   27.9220  -25.3320 C   0  0  0  0  0  0  0  0  0  0  0  0
   -3.3660   25.3080  -26.0010 C   0  0  0  0  0  0  0  0  0  0  0  0
   -3.9820   24.4970  -26.9540 C   0  0  0  0  0  0  0  0  0  0  0  0
   -3.2640   24.0220  -28.0630 C   0  0  0  0  0  0  0  0  0  0  0  0
   -3.8960   23.1550  -29.0190 N   0  0  0  0  0  0  0  0  0  0  0  0
   -4.2330   23.5610  -30.3560 C   0  0  0  0  0  0  0  0  0  0  0  0
   -4.0230   24.7460  -30.7330 O   0  0  0  0  0  0  0  0  0  0  0  0
   -4.8520   22.6150  -31.3010 C   0  0  0  0  0  0  0  0  0  0  0  0
   -4.2040   21.9510  -32.3370 C   0  0  0  0  0  0  0  0  0  0  0  0
   -5.0840   21.1690  -33.0040 N   0  0  0  0  0  0  0  0  0  0  0  0
   -6.2560   21.3160  -32.4090 N   0  0  0  0  0  0  0  0  0  0  0  0
   -7.4070   20.6810  -32.7470 C   0  0  0  0  0  0  0  0  0  0  0  0
   -8.5500   20.9170  -31.9700 C   0  0  0  0  0  0  0  0  0  0  0  0
   -8.4690   21.7840  -30.8640 C   0  0  0  0  0  0  0  0  0  0  0  0
   -7.2570   22.4180  -30.5470 C   0  0  0  0  0  0  0  0  0  0  0  0
   -6.1590   22.1680  -31.3750 C   0  0  0  0  0  0  0  0  0  0  0  0
   -0.2130   23.2906  -28.9779 H   0  0  0  0  0  0  0  0  0  0  0  0
   -1.7072   23.1713  -29.9678 H   0  0  0  0  0  0  0  0  0  0  0  0
   -0.7488   24.6906  -29.9678 H   0  0  0  0  0  0  0  0  0  0  0  0
   -0.2166   25.4154  -27.3219 H   0  0  0  0  0  0  0  0  0  0  0  0
   -1.6828   25.7179  -23.2018 H   0  0  0  0  0  0  0  0  0  0  0  0
   -0.3740   24.9184  -24.1552 H   0  0  0  0  0  0  0  0  0  0  0  0
   -0.3249   27.5598  -22.6543 H   0  0  0  0  0  0  0  0  0  0  0  0
    0.8450   26.1742  -22.6159 H   0  0  0  0  0  0  0  0  0  0  0  0
    2.4680   25.9091  -24.2277 H   0  0  0  0  0  0  0  0  0  0  0  0
    1.3029   25.8525  -25.5938 H   0  0  0  0  0  0  0  0  0  0  0  0
    2.6288   27.0645  -25.5938 H   0  0  0  0  0  0  0  0  0  0  0  0
    0.3256   29.3582  -24.8560 H   0  0  0  0  0  0  0  0  0  0  0  0
    0.7261   28.1780  -26.1968 H   0  0  0  0  0  0  0  0  0  0  0  0
   -1.7959   28.4589  -24.5707 H   0  0  0  0  0  0  0  0  0  0  0  0
   -1.5664   28.1891  -26.3381 H   0  0  0  0  0  0  0  0  0  0  0  0
   -3.9445   25.6763  -25.1409 H   0  0  0  0  0  0  0  0  0  0  0  0
   -5.0417   24.2267  -26.8354 H   0  0  0  0  0  0  0  0  0  0  0  0
   -4.1230   22.1810  -28.7180 H   0  0  0  0  0  0  0  0  0  0  0  0
   -3.1351   22.0472  -32.5783 H   0  0  0  0  0  0  0  0  0  0  0  0
   -7.4422   19.9984  -33.6089 H   0  0  0  0  0  0  0  0  0  0  0  0
   -9.5026   20.4284  -32.2227 H   0  0  0  0  0  0  0  0  0  0  0  0
   -9.3599   21.9658  -30.2449 H   0  0  0  0  0  0  0  0  0  0  0  0
   -7.1745   23.0875  -29.6781 H   0  0  0  0  0  0  0  0  0  0  0  0
  1  2  1  0
  2  3  2  0
  3  4  1  0
  4  5  1  0
  5  6  1  0
  6  7  1  0
  7  8  1  0
  8  9  1  0
  8 10  1  0
 10 11  1  0
  4 12  2  0
 12 13  1  0
 13 14  2  0
 14 15  1  0
 15 16  1  0
 16 17  2  0
 16 18  1  0
 18 19  1  0
 19 20  2  0
 20 21  1  0
 21 22  1  0
 22 23  2  0
 23 24  1  0
 24 25  2  0
 25 26  1  0
 14  2  1  0
 26 18  2  0
 11  5  1  0
 26 21  1  0
  1 27  1  0
  1 28  1  0
  1 29  1  0
  3 30  1  0
  6 31  1  0
  6 32  1  0
  7 33  1  0
  7 34  1  0
  9 35  1  0
  9 36  1  0
  9 37  1  0
 10 38  1  0
 10 39  1  0
 11 40  1  0
 11 41  1  0
 12 42  1  0
 13 43  1  0
 15 44  1  0
 19 45  1  0
 22 46  1  0
 23 47  1  0
 24 48  1  0
 25 49  1  0
M  END
>  <UniqueID>  (19) 
17

>  <SMILES>  (19) 
Cc1cc(N2CCN(C)CC2)ccc1NC(=O)c1cnn2ccccc12

>  <Energy>  (19) 
106.55931426777974

>  <Genealogy>  (19) 
Cc1cc(N2CCN(C)CC2)ccc1NC(=O)c1cnn2ccccc12 (3D coordinates assigned)
Cc1cc(N2CCN(C)CC2)ccc1NC(=O)c1cnn2ccccc12 (nonaromatic ring conformer: 106.55931426777974 kcal/mol)

>  <smiles>  (19) 
Cc1cc(N2CCN(C)CC2)ccc1NC(=O)c1cnn2ccccc12

>  <score_type>  (19) 
oracle

>  <origin>  (19) 
adgpu

>  <m_score__min__energy>  (19) 
-8.4399999999999995

>  <m_primary>  (19) 
energy

$$$$
19:0
     RDKit          3D

 43 46  0  0  0  0  0  0  0  0999 V2000
    0.2799   24.6425  -28.5312 H   0  0  0  0  0  0  0  0  0  0  0  0
   -0.5230   24.3610  -27.8340 C   0  0  0  0  0  0  0  0  0  0  0  0
   -1.2890   23.3510  -28.1170 N   0  0  0  0  0  0  0  0  0  0  0  0
   -1.1840   22.6170  -29.3140 N   0  0  0  0  0  0  0  0  0  0  0  0
   -0.1450   21.8220  -29.6220 C   0  0  0  0  0  0  0  0  0  0  0  0
    0.7294   21.6436  -28.9788 H   0  0  0  0  0  0  0  0  0  0  0  0
   -0.3430   21.2630  -30.8700 C   0  0  0  0  0  0  0  0  0  0  0  0
    0.3389   20.5805  -31.3983 H   0  0  0  0  0  0  0  0  0  0  0  0
   -1.5650   21.7270  -31.3280 C   0  0  0  0  0  0  0  0  0  0  0  0
   -2.0423   21.4859  -32.2893 H   0  0  0  0  0  0  0  0  0  0  0  0
   -2.0670   22.5530  -30.3390 C   0  0  0  0  0  0  0  0  0  0  0  0
   -3.4180   23.1590  -30.3560 C   0  0  0  0  0  0  0  0  0  0  0  0
   -3.6010   24.5070  -30.0320 C   0  0  0  0  0  0  0  0  0  0  0  0
   -2.5220   25.2940  -29.6430 O   0  0  0  0  0  0  0  0  0  0  0  0
   -4.8410   25.0550  -30.0860 N   0  0  0  0  0  0  0  0  0  0  0  0
   -4.9620   26.0650  -29.8460 H   0  0  0  0  0  0  0  0  0  0  0  0
   -5.9240   24.3170  -30.4500 C   0  0  0  0  0  0  0  0  0  0  0  0
   -7.0560   24.8720  -30.5080 O   0  0  0  0  0  0  0  0  0  0  0  0
   -5.7830   22.9890  -30.7610 N   0  0  0  0  0  0  0  0  0  0  0  0
   -6.9330   22.2160  -31.1570 C   0  0  0  0  0  0  0  0  0  0  0  0
   -6.8740   21.3870  -32.2900 C   0  0  0  0  0  0  0  0  0  0  0  0
   -5.9455   21.3258  -32.8767 H   0  0  0  0  0  0  0  0  0  0  0  0
   -7.9910   20.6400  -32.6740 C   0  0  0  0  0  0  0  0  0  0  0  0
   -7.9397   19.9932  -33.5622 H   0  0  0  0  0  0  0  0  0  0  0  0
   -9.1730   20.7130  -31.9320 C   0  0  0  0  0  0  0  0  0  0  0  0
  -10.0507   20.1233  -32.2353 H   0  0  0  0  0  0  0  0  0  0  0  0
   -9.2390   21.5360  -30.8040 C   0  0  0  0  0  0  0  0  0  0  0  0
  -10.1692   21.5929  -30.2197 H   0  0  0  0  0  0  0  0  0  0  0  0
   -8.1250   22.2870  -30.4170 C   0  0  0  0  0  0  0  0  0  0  0  0
   -8.1821   22.9355  -29.5303 H   0  0  0  0  0  0  0  0  0  0  0  0
   -4.5450   22.4020  -30.7120 C   0  0  0  0  0  0  0  0  0  0  0  0
   -4.4100   21.1770  -30.9940 O   0  0  0  0  0  0  0  0  0  0  0  0
   -0.7120   25.1400  -26.5890 C   0  0  0  0  0  0  0  0  0  0  0  0
   -1.0420   26.5090  -26.6520 C   0  0  0  0  0  0  0  0  0  0  0  0
   -1.1580   26.9981  -27.6304 H   0  0  0  0  0  0  0  0  0  0  0  0
   -1.2230   27.2500  -25.4800 C   0  0  0  0  0  0  0  0  0  0  0  0
   -1.4825   28.3173  -25.5398 H   0  0  0  0  0  0  0  0  0  0  0  0
   -1.0750   26.6380  -24.2350 C   0  0  0  0  0  0  0  0  0  0  0  0
   -1.2201   27.2224  -23.3144 H   0  0  0  0  0  0  0  0  0  0  0  0
   -0.7430   25.2850  -24.1570 C   0  0  0  0  0  0  0  0  0  0  0  0
   -0.6243   24.8076  -23.1731 H   0  0  0  0  0  0  0  0  0  0  0  0
   -0.5600   24.5310  -25.3220 C   0  0  0  0  0  0  0  0  0  0  0  0
   -0.1110   22.8350  -25.1460 Cl  0  0  0  0  0  0  0  0  0  0  0  0
  1  2  1  0
  2  3  2  0
  3  4  1  0
  4  5  1  0
  5  6  1  0
  5  7  2  0
  7  8  1  0
  7  9  1  0
  9 10  1  0
  9 11  2  0
 11 12  1  0
 12 13  2  0
 13 14  1  0
 13 15  1  0
 15 16  1  0
 15 17  1  0
 17 18  2  0
 17 19  1  0
 19 20  1  0
 20 21  2  0
 21 22  1  0
 21 23  1  0
 23 24  1  0
 23 25  2  0
 25 26  1  0
 25 27  1  0
 27 28  1  0
 27 29  2  0
 29 30  1  0
 19 31  1  0
 31 32  2  0
  2 33  1  0
 33 34  2  0
 34 35  1  0
 34 36  1  0
 36 37  1  0
 36 38  2  0
 38 39  1  0
 38 40  1  0
 40 41  1  0
 40 42  2  0
 42 43  1  0
 11  4  1  0
 31 12  1  0
 42 33  1  0
 29 20  1  0
M  CHG  1  14  -1
M  END
>  <UniqueID>  (20) 
18

>  <SMILES>  (20) 
O=c1[nH]c([O-])c(-c2cccn2/N=C/c2ccccc2Cl)c(=O)n1-c1ccccc1

>  <Energy>  (20) 
97.02931081308188

>  <Genealogy>  (20) 
O=c1[nH]c([O-])c(-c2cccn2N=Cc2ccccc2Cl)c(=O)n1-c1ccccc1 (protonated)
O=c1[nH]c([O-])c(-c2cccn2/N=C/c2ccccc2Cl)c(=O)n1-c1ccccc1 (cis-trans isomerization)
O=c1[nH]c([O-])c(-c2cccn2/N=C/c2ccccc2Cl)c(=O)n1-c1ccccc1 (3D coordinates assigned)
O=c1[nH]c([O-])c(-c2cccn2/N=C/c2ccccc2Cl)c(=O)n1-c1ccccc1 (optimized conformer: 97.02931081308188 kcal/mol)

>  <smiles>  (20) 
O=c1[nH]c(O)c(-c2cccn2N=Cc2ccccc2Cl)c(=O)n1-c1ccccc1

>  <score_type>  (20) 
oracle

>  <origin>  (20) 
adgpu

>  <m_score__min__energy>  (20) 
-12.140000000000001

>  <m_primary>  (20) 
energy

$$$$
20:0
     RDKit          3D

 40 42  0  0  0  0  0  0  0  0999 V2000
   -8.3260   20.6760  -32.7650 C   0  0  0  0  0  0  0  0  0  0  0  0
   -7.3890   19.5330  -32.4850 C   0  0  0  0  0  0  0  0  0  0  0  0
   -6.0860   19.5600  -33.0130 C   0  0  0  0  0  0  0  0  0  0  0  0
   -5.1830   18.5170  -32.7520 C   0  0  0  0  0  0  0  0  0  0  0  0
   -3.8110   18.5420  -33.3040 C   0  0  0  0  0  0  0  0  0  0  0  0
   -3.3280   17.5410  -34.0730 N   0  0  0  0  0  0  0  0  0  0  0  0
   -2.0990   17.9620  -34.4310 C   0  0  0  0  0  0  0  0  0  0  0  0
   -1.1340   17.1430  -35.2290 C   0  0  0  0  0  0  0  0  0  0  0  0
   -0.3090   16.4270  -34.3810 F   0  0  0  0  0  0  0  0  0  0  0  0
   -0.3580   17.9670  -36.0230 F   0  0  0  0  0  0  0  0  0  0  0  0
   -1.8340   16.2640  -36.0330 F   0  0  0  0  0  0  0  0  0  0  0  0
   -1.8390   19.1880  -33.8630 C   0  0  0  0  0  0  0  0  0  0  0  0
   -2.9200   19.5550  -33.1510 N   0  0  0  0  0  0  0  0  0  0  0  0
   -3.0060   20.7190  -32.3120 C   0  0  0  0  0  0  0  0  0  0  0  0
   -2.0170   20.9820  -31.3480 C   0  0  0  0  0  0  0  0  0  0  0  0
   -2.1090   22.1130  -30.5330 C   0  0  0  0  0  0  0  0  0  0  0  0
   -3.1830   23.0000  -30.6760 C   0  0  0  0  0  0  0  0  0  0  0  0
   -3.2920   24.4320  -29.6570 S   0  0  0  0  0  0  0  0  0  0  0  0
   -4.1670   25.6670  -30.4890 N   0  0  0  0  0  0  0  0  0  0  0  0
   -1.9130   24.9300  -29.3290 O   0  0  0  0  0  0  0  0  0  0  0  0
   -4.0000   24.0920  -28.3750 O   0  0  0  0  0  0  0  0  0  0  0  0
   -4.1560   22.7560  -31.6540 C   0  0  0  0  0  0  0  0  0  0  0  0
   -4.0660   21.6250  -32.4690 C   0  0  0  0  0  0  0  0  0  0  0  0
   -5.6070   17.4180  -31.9930 C   0  0  0  0  0  0  0  0  0  0  0  0
   -6.9010   17.3800  -31.4690 C   0  0  0  0  0  0  0  0  0  0  0  0
   -7.7950   18.4290  -31.7030 C   0  0  0  0  0  0  0  0  0  0  0  0
   -9.0750   18.3440  -31.1510 O   0  0  0  0  0  0  0  0  0  0  0  0
   -8.6768   21.1039  -31.8143 H   0  0  0  0  0  0  0  0  0  0  0  0
   -7.7986   21.4494  -33.3427 H   0  0  0  0  0  0  0  0  0  0  0  0
   -9.1878   20.3106  -33.3427 H   0  0  0  0  0  0  0  0  0  0  0  0
   -5.7704   20.4084  -33.6380 H   0  0  0  0  0  0  0  0  0  0  0  0
   -0.9099   19.7668  -33.9720 H   0  0  0  0  0  0  0  0  0  0  0  0
   -1.1664   20.2938  -31.2349 H   0  0  0  0  0  0  0  0  0  0  0  0
   -1.3348   22.3074  -29.7761 H   0  0  0  0  0  0  0  0  0  0  0  0
   -3.5350   26.0390  -31.2340 H   0  0  0  0  0  0  0  0  0  0  0  0
   -4.9938   23.4575  -31.7806 H   0  0  0  0  0  0  0  0  0  0  0  0
   -4.8308   21.4435  -33.2386 H   0  0  0  0  0  0  0  0  0  0  0  0
   -4.9172   16.5811  -31.8090 H   0  0  0  0  0  0  0  0  0  0  0  0
   -7.2197   16.5166  -30.8665 H   0  0  0  0  0  0  0  0  0  0  0  0
   -9.4860   17.4710  -30.8440 H   0  0  0  0  0  0  0  0  0  0  0  0
  1  2  1  0
  2  3  2  0
  3  4  1  0
  4  5  1  0
  5  6  2  0
  6  7  1  0
  7  8  1  0
  8  9  1  0
  8 10  1  0
  8 11  1  0
  7 12  2  0
 12 13  1  0
 13 14  1  0
 14 15  2  0
 15 16  1  0
 16 17  2  0
 17 18  1  0
 18 19  1  0
 18 20  2  0
 18 21  2  0
 17 22  1  0
 22 23  2  0
  4 24  2  0
 24 25  1  0
 25 26  2  0
 26 27  1  0
 26  2  1  0
 13  5  1  0
 23 14  1  0
  1 28  1  0
  1 29  1  0
  1 30  1  0
  3 31  1  0
 12 32  1  0
 15 33  1  0
 16 34  1  0
 19 35  1  0
 22 36  1  0
 23 37  1  0
 24 38  1  0
 25 39  1  0
 27 40  1  0
M  CHG  1  19  -1
M  END
>  <UniqueID>  (21) 
19

>  <SMILES>  (21) 
Cc1cc(-c2nc(C(F)(F)F)cn2-c2ccc(S([NH-])(=O)=O)cc2)ccc1O

>  <Energy>  (21) 
79.54213286095002

>  <Genealogy>  (21) 
Cc1cc(-c2nc(C(F)(F)F)cn2-c2ccc(S([NH-])(=O)=O)cc2)ccc1O (protonated)
Cc1cc(-c2nc(C(F)(F)F)cn2-c2ccc(S([NH-])(=O)=O)cc2)ccc1O (3D coordinates assigned)
Cc1cc(-c2nc(C(F)(F)F)cn2-c2ccc(S([NH-])(=O)=O)cc2)ccc1O (optimized conformer: 79.54213286095002 kcal/mol)

>  <smiles>  (21) 
Cc1cc(-c2nc(C(F)(F)F)cn2-c2ccc(S(N)(=O)=O)cc2)ccc1O

>  <score_type>  (21) 
oracle

>  <origin>  (21) 
adgpu

>  <m_score__min__energy>  (21) 
-10.06

>  <m_primary>  (21) 
energy

$$$$
21:0
     RDKit          3D

 50 53  0  0  0  0  0  0  0  0999 V2000
   -0.8590   26.6440  -27.8340 C   0  0  0  0  0  0  0  0  0  0  0  0
   -1.1180   25.5730  -28.7360 O   0  0  0  0  0  0  0  0  0  0  0  0
   -1.2220   24.2270  -28.3570 C   0  0  0  0  0  0  0  0  0  0  0  0
   -2.4340   23.6550  -27.9280 C   0  0  0  0  0  0  0  0  0  0  0  0
   -2.4890   22.3040  -27.5720 C   0  0  0  0  0  0  0  0  0  0  0  0
   -1.3430   21.4960  -27.6630 C   0  0  0  0  0  0  0  0  0  0  0  0
   -1.3680   20.1090  -27.2770 N   0  0  0  0  0  0  0  0  0  0  0  0
   -2.3130   19.5790  -26.5180 N   0  0  0  0  0  0  0  0  0  0  0  0
   -2.0950   18.2790  -26.4010 N   0  0  0  0  0  0  0  0  0  0  0  0
   -1.0080   17.9380  -27.0780 N   0  0  0  0  0  0  0  0  0  0  0  0
   -0.5520   19.0850  -27.6180 C   0  0  0  0  0  0  0  0  0  0  0  0
    0.6890   19.1550  -28.4170 C   0  0  0  0  0  0  0  0  0  0  0  0
    1.8650   19.5610  -27.7670 C   0  0  0  0  0  0  0  0  0  0  0  0
    3.0660   19.6660  -28.4690 C   0  0  0  0  0  0  0  0  0  0  0  0
    3.1020   19.3880  -29.8330 C   0  0  0  0  0  0  0  0  0  0  0  0
    1.9400   19.0050  -30.5020 C   0  0  0  0  0  0  0  0  0  0  0  0
    0.7180   18.8730  -29.8080 C   0  0  0  0  0  0  0  0  0  0  0  0
   -0.4930   18.5230  -30.5100 N   0  0  0  0  0  0  0  0  0  0  0  0
   -0.9110   19.1390  -31.7730 C   0  0  0  0  0  0  0  0  0  0  0  0
   -1.8170   20.3150  -31.5180 C   0  0  0  0  0  0  0  0  0  0  0  0
   -1.2780   21.5780  -31.2290 C   0  0  0  0  0  0  0  0  0  0  0  0
   -2.1200   22.6650  -30.9740 C   0  0  0  0  0  0  0  0  0  0  0  0
   -3.5100   22.5040  -31.0150 C   0  0  0  0  0  0  0  0  0  0  0  0
   -4.5730   23.8660  -30.6770 S   0  0  0  0  0  0  0  0  0  0  0  0
   -3.6260   25.2990  -30.4870 N   0  0  0  0  0  0  0  0  0  0  0  0
   -5.3520   23.6060  -29.4190 O   0  0  0  0  0  0  0  0  0  0  0  0
   -5.5390   24.0470  -31.8150 O   0  0  0  0  0  0  0  0  0  0  0  0
   -4.0530   21.2540  -31.3370 C   0  0  0  0  0  0  0  0  0  0  0  0
   -3.2130   20.1630  -31.5780 C   0  0  0  0  0  0  0  0  0  0  0  0
   -0.1340   22.0750  -28.0800 C   0  0  0  0  0  0  0  0  0  0  0  0
   -0.0750   23.4300  -28.4170 C   0  0  0  0  0  0  0  0  0  0  0  0
   -0.9467   26.2812  -26.7992 H   0  0  0  0  0  0  0  0  0  0  0  0
    0.1579   27.0279  -28.0030 H   0  0  0  0  0  0  0  0  0  0  0  0
   -1.5881   27.4502  -28.0030 H   0  0  0  0  0  0  0  0  0  0  0  0
   -3.3420   24.2734  -27.8725 H   0  0  0  0  0  0  0  0  0  0  0  0
   -3.4361   21.8706  -27.2182 H   0  0  0  0  0  0  0  0  0  0  0  0
    1.8393   19.7988  -26.6933 H   0  0  0  0  0  0  0  0  0  0  0  0
    3.9847   19.9684  -27.9450 H   0  0  0  0  0  0  0  0  0  0  0  0
    4.0501   19.4708  -30.3845 H   0  0  0  0  0  0  0  0  0  0  0  0
    1.9761   18.8035  -31.5828 H   0  0  0  0  0  0  0  0  0  0  0  0
   -1.1730   17.8910  -30.0330 H   0  0  0  0  0  0  0  0  0  0  0  0
   -0.0201   19.4815  -32.3199 H   0  0  0  0  0  0  0  0  0  0  0  0
   -1.4594   18.3923  -32.3660 H   0  0  0  0  0  0  0  0  0  0  0  0
   -0.1867   21.7138  -31.2029 H   0  0  0  0  0  0  0  0  0  0  0  0
   -1.6887   23.6496  -30.7405 H   0  0  0  0  0  0  0  0  0  0  0  0
   -2.7010   25.0050  -30.1030 H   0  0  0  0  0  0  0  0  0  0  0  0
   -5.1442   21.1302  -31.4005 H   0  0  0  0  0  0  0  0  0  0  0  0
   -3.6467   19.1805  -31.8158 H   0  0  0  0  0  0  0  0  0  0  0  0
    0.7741   21.4573  -28.1420 H   0  0  0  0  0  0  0  0  0  0  0  0
    0.8814   23.8729  -28.7319 H   0  0  0  0  0  0  0  0  0  0  0  0
  1  2  1  0
  2  3  1  0
  3  4  2  0
  4  5  1  0
  5  6  2  0
  6  7  1  0
  7  8  1  0
  8  9  2  0
  9 10  1  0
 10 11  2  0
 11 12  1  0
 12 13  2  0
 13 14  1  0
 14 15  2  0
 15 16  1  0
 16 17  2  0
 17 18  1  0
 18 19  1  0
 19 20  1  0
 20 21  2  0
 21 22  1  0
 22 23  2  0
 23 24  1  0
 24 25  1  0
 24 26  2  0
 24 27  2  0
 23 28  1  0
 28 29  2  0
  6 30  1  0
 30 31  2  0
 31  3  1  0
 11  7  1  0
 17 12  1  0
 29 20  1  0
  1 32  1  0
  1 33  1  0
  1 34  1  0
  4 35  1  0
  5 36  1  0
 13 37  1  0
 14 38  1  0
 15 39  1  0
 16 40  1  0
 18 41  1  0
 19 42  1  0
 19 43  1  0
 21 44  1  0
 22 45  1  0
 25 46  1  0
 28 47  1  0
 29 48  1  0
 30 49  1  0
 31 50  1  0
M  CHG  1  25  -1
M  END
>  <UniqueID>  (22) 
20

>  <SMILES>  (22) 
COc1ccc(-n2nnnc2-c2ccccc2NCc2ccc(S([NH-])(=O)=O)cc2)cc1

>  <Energy>  (22) 
100.39349259143573

>  <Genealogy>  (22) 
COc1ccc(-n2nnnc2-c2ccccc2NCc2ccc(S([NH-])(=O)=O)cc2)cc1 (protonated)
COc1ccc(-n2nnnc2-c2ccccc2NCc2ccc(S([NH-])(=O)=O)cc2)cc1 (3D coordinates assigned)
COc1ccc(-n2nnnc2-c2ccccc2NCc2ccc(S([NH-])(=O)=O)cc2)cc1 (optimized conformer: 100.39349259143573 kcal/mol)

>  <smiles>  (22) 
COc1ccc(-n2nnnc2-c2ccccc2NCc2ccc(S(N)(=O)=O)cc2)cc1

>  <score_type>  (22) 
oracle

>  <origin>  (22) 
adgpu

>  <m_score__min__energy>  (22) 
-11.9

>  <m_primary>  (22) 
energy

$$$$
22:0
     RDKit          3D

 51 54  0  0  0  0  0  0  0  0999 V2000
   -1.2450   20.2430  -32.6870 C   0  0  0  0  0  0  0  0  0  0  0  0
   -0.5230   20.5140  -31.4880 O   0  0  0  0  0  0  0  0  0  0  0  0
   -1.0460   21.1730  -30.3650 C   0  0  0  0  0  0  0  0  0  0  0  0
   -1.4190   22.5300  -30.4350 C   0  0  0  0  0  0  0  0  0  0  0  0
   -1.9850   23.1800  -29.3310 C   0  0  0  0  0  0  0  0  0  0  0  0
   -2.4890   24.5690  -29.4540 C   0  0  0  0  0  0  0  0  0  0  0  0
   -1.9870   25.4700  -28.7280 O   0  0  0  0  0  0  0  0  0  0  0  0
   -3.5120   24.9320  -30.3970 N   0  0  0  0  0  0  0  0  0  0  0  0
   -4.7890   24.2940  -30.5570 C   0  0  0  0  0  0  0  0  0  0  0  0
   -5.9520   25.0270  -30.3120 C   0  0  0  0  0  0  0  0  0  0  0  0
   -7.2080   24.4520  -30.5250 C   0  0  0  0  0  0  0  0  0  0  0  0
   -7.3160   23.1370  -31.0000 C   0  0  0  0  0  0  0  0  0  0  0  0
   -8.5770   22.5980  -31.2600 O   0  0  0  0  0  0  0  0  0  0  0  0
   -6.1490   22.3770  -31.2300 C   0  0  0  0  0  0  0  0  0  0  0  0
   -6.2150   21.0110  -31.8050 C   0  0  0  0  0  0  0  0  0  0  0  0
   -5.2540   20.4450  -32.6520 C   0  0  0  0  0  0  0  0  0  0  0  0
   -5.7280   19.2390  -32.9780 N   0  0  0  0  0  0  0  0  0  0  0  0
   -5.3680   18.2000  -33.7650 C   0  0  0  0  0  0  0  0  0  0  0  0
   -4.0990   18.1670  -34.5550 C   0  0  0  0  0  0  0  0  0  0  0  0
   -6.3230   17.1690  -33.7370 C   0  0  0  0  0  0  0  0  0  0  0  0
   -7.6240   17.6320  -32.7150 S   0  0  0  0  0  0  0  0  0  0  0  0
   -6.8830   19.0970  -32.3660 C   0  0  0  0  0  0  0  0  0  0  0  0
   -7.2640   20.1540  -31.6250 N   0  0  0  0  0  0  0  0  0  0  0  0
   -4.8960   22.9520  -30.9550 C   0  0  0  0  0  0  0  0  0  0  0  0
   -2.1200   22.4910  -28.1230 C   0  0  0  0  0  0  0  0  0  0  0  0
   -1.7480   21.1370  -28.0270 C   0  0  0  0  0  0  0  0  0  0  0  0
   -1.9010   20.4110  -26.8330 O   0  0  0  0  0  0  0  0  0  0  0  0
   -2.8140   19.3330  -26.6520 C   0  0  0  0  0  0  0  0  0  0  0  0
   -1.2190   20.4710  -29.1440 C   0  0  0  0  0  0  0  0  0  0  0  0
   -0.8960   19.1100  -28.9740 O   0  0  0  0  0  0  0  0  0  0  0  0
    0.2260   18.5850  -28.2710 C   0  0  0  0  0  0  0  0  0  0  0  0
   -2.2473   19.8668  -32.4344 H   0  0  0  0  0  0  0  0  0  0  0  0
   -1.3380   21.1674  -33.2759 H   0  0  0  0  0  0  0  0  0  0  0  0
   -0.7068   19.4857  -33.2759 H   0  0  0  0  0  0  0  0  0  0  0  0
   -1.2633   23.0871  -31.3706 H   0  0  0  0  0  0  0  0  0  0  0  0
   -5.8792   26.0629  -29.9493 H   0  0  0  0  0  0  0  0  0  0  0  0
   -8.1178   25.0348  -30.3187 H   0  0  0  0  0  0  0  0  0  0  0  0
   -8.7110   21.6050  -31.4150 H   0  0  0  0  0  0  0  0  0  0  0  0
   -4.3071   20.8984  -32.9802 H   0  0  0  0  0  0  0  0  0  0  0  0
   -3.2400   18.1447  -33.8682 H   0  0  0  0  0  0  0  0  0  0  0  0
   -4.0850   17.2682  -35.1890 H   0  0  0  0  0  0  0  0  0  0  0  0
   -4.0383   19.0639  -35.1890 H   0  0  0  0  0  0  0  0  0  0  0  0
   -6.2491   16.2168  -34.2828 H   0  0  0  0  0  0  0  0  0  0  0  0
   -3.9862   22.3415  -31.0531 H   0  0  0  0  0  0  0  0  0  0  0  0
   -2.5202   23.0109  -27.2401 H   0  0  0  0  0  0  0  0  0  0  0  0
   -2.9639   19.1560  -25.5767 H   0  0  0  0  0  0  0  0  0  0  0  0
   -3.7770   19.5856  -27.1197 H   0  0  0  0  0  0  0  0  0  0  0  0
   -2.4063   18.4247  -27.1197 H   0  0  0  0  0  0  0  0  0  0  0  0
    0.0512   18.6668  -27.1881 H   0  0  0  0  0  0  0  0  0  0  0  0
    0.3660   17.5279  -28.5410 H   0  0  0  0  0  0  0  0  0  0  0  0
    1.1273   19.1549  -28.5410 H   0  0  0  0  0  0  0  0  0  0  0  0
  1  2  1  0
  2  3  1  0
  3  4  2  0
  4  5  1  0
  5  6  1  0
  6  7  2  0
  6  8  1  0
  8  9  1  0
  9 10  2  0
 10 11  1  0
 11 12  2  0
 12 13  1  0
 12 14  1  0
 14 15  1  0
 15 16  2  0
 16 17  1  0
 17 18  1  0
 18 19  1  0
 18 20  2  0
 20 21  1  0
 21 22  1  0
 22 23  2  0
 14 24  2  0
  5 25  2  0
 25 26  1  0
 26 27  1  0
 27 28  1  0
 26 29  2  0
 29 30  1  0
 30 31  1  0
 29  3  1  0
 24  9  1  0
 23 15  1  0
 22 17  1  0
  1 32  1  0
  1 33  1  0
  1 34  1  0
  4 35  1  0
 10 36  1  0
 11 37  1  0
 13 38  1  0
 16 39  1  0
 19 40  1  0
 19 41  1  0
 19 42  1  0
 20 43  1  0
 24 44  1  0
 25 45  1  0
 28 46  1  0
 28 47  1  0
 28 48  1  0
 31 49  1  0
 31 50  1  0
 31 51  1  0
M  CHG  1   8  -1
M  END
>  <UniqueID>  (23) 
21

>  <SMILES>  (23) 
COc1cc(C(=O)[N-]c2ccc(O)c(-c3cn4c(C)csc4n3)c2)cc(OC)c1OC

>  <Energy>  (23) 
140.58887449159633

>  <Genealogy>  (23) 
COc1cc(C(=O)[N-]c2ccc(O)c(-c3cn4c(C)csc4n3)c2)cc(OC)c1OC (protonated)
COc1cc(C(=O)[N-]c2ccc(O)c(-c3cn4c(C)csc4n3)c2)cc(OC)c1OC (3D coordinates assigned)
COc1cc(C(=O)[N-]c2ccc(O)c(-c3cn4c(C)csc4n3)c2)cc(OC)c1OC (optimized conformer: 140.58887449159633 kcal/mol)

>  <smiles>  (23) 
COc1cc(C(=O)Nc2ccc(O)c(-c3cn4c(C)csc4n3)c2)cc(OC)c1OC

>  <score_type>  (23) 
oracle

>  <origin>  (23) 
adgpu

>  <m_score__min__energy>  (23) 
-9.4299999999999997

>  <m_primary>  (23) 
energy

$$$$
23:0
     RDKit          3D

 52 55  0  0  0  0  0  0  0  0999 V2000
   -0.7488   23.1998  -29.7690 H   0  0  0  0  0  0  0  0  0  0  0  0
   -1.5920   22.5570  -30.0620 C   0  0  0  0  0  0  0  0  0  0  0  0
   -1.3750   21.3030  -30.3130 N   0  0  0  0  0  0  0  0  0  0  0  0
   -0.0900   20.6650  -30.2630 C   0  0  0  0  0  0  0  0  0  0  0  0
    0.7520   20.2790  -31.3050 C   0  0  0  0  0  0  0  0  0  0  0  0
    0.5080   20.4600  -32.7760 C   0  0  0  0  0  0  0  0  0  0  0  0
   -0.3673   21.1093  -32.9253 H   0  0  0  0  0  0  0  0  0  0  0  0
    1.3914   20.9230  -33.2400 H   0  0  0  0  0  0  0  0  0  0  0  0
    0.3212   19.4803  -33.2400 H   0  0  0  0  0  0  0  0  0  0  0  0
    1.8460   19.6810  -30.7650 N   0  0  0  0  0  0  0  0  0  0  0  0
    2.9500   19.0830  -31.5240 C   0  0  0  0  0  0  0  0  0  0  0  0
    3.6977   18.6780  -30.8262 H   0  0  0  0  0  0  0  0  0  0  0  0
    2.5623   18.2716  -32.1575 H   0  0  0  0  0  0  0  0  0  0  0  0
    3.4178   19.8510  -32.1575 H   0  0  0  0  0  0  0  0  0  0  0  0
    1.7120   19.6550  -29.4390 N   0  0  0  0  0  0  0  0  0  0  0  0
    2.6710   19.1440  -28.4970 C   0  0  0  0  0  0  0  0  0  0  0  0
    2.3990   17.9740  -27.7720 C   0  0  0  0  0  0  0  0  0  0  0  0
    1.4397   17.4538  -27.9102 H   0  0  0  0  0  0  0  0  0  0  0  0
    3.3440   17.4670  -26.8740 C   0  0  0  0  0  0  0  0  0  0  0  0
    3.1238   16.5537  -26.3019 H   0  0  0  0  0  0  0  0  0  0  0  0
    4.5680   18.1200  -26.7030 C   0  0  0  0  0  0  0  0  0  0  0  0
    5.3096   17.7216  -25.9950 H   0  0  0  0  0  0  0  0  0  0  0  0
    4.8500   19.2800  -27.4320 C   0  0  0  0  0  0  0  0  0  0  0  0
    5.8143   19.7921  -27.2987 H   0  0  0  0  0  0  0  0  0  0  0  0
    3.9070   19.7890  -28.3300 C   0  0  0  0  0  0  0  0  0  0  0  0
    4.1340   20.6974  -28.9074 H   0  0  0  0  0  0  0  0  0  0  0  0
    0.5370   20.2310  -29.1200 C   0  0  0  0  0  0  0  0  0  0  0  0
    0.1030   20.3730  -27.9450 O   0  0  0  0  0  0  0  0  0  0  0  0
   -2.9540   23.1460  -30.1610 C   0  0  0  0  0  0  0  0  0  0  0  0
   -3.1550   24.4870  -29.7980 C   0  0  0  0  0  0  0  0  0  0  0  0
   -2.0930   25.2670  -29.3470 O   0  0  0  0  0  0  0  0  0  0  0  0
   -4.3900   25.0400  -29.8810 N   0  0  0  0  0  0  0  0  0  0  0  0
   -4.5170   26.0410  -29.6080 H   0  0  0  0  0  0  0  0  0  0  0  0
   -5.4580   24.3250  -30.3190 C   0  0  0  0  0  0  0  0  0  0  0  0
   -6.5860   24.8870  -30.3960 O   0  0  0  0  0  0  0  0  0  0  0  0
   -5.3090   23.0130  -30.6830 N   0  0  0  0  0  0  0  0  0  0  0  0
   -6.4500   22.2610  -31.1460 C   0  0  0  0  0  0  0  0  0  0  0  0
   -6.3670   21.5020  -32.3240 C   0  0  0  0  0  0  0  0  0  0  0  0
   -5.4274   21.4789  -32.8956 H   0  0  0  0  0  0  0  0  0  0  0  0
   -7.4740   20.7750  -32.7740 C   0  0  0  0  0  0  0  0  0  0  0  0
   -7.4048   20.1908  -33.7035 H   0  0  0  0  0  0  0  0  0  0  0  0
   -8.6730   20.7880  -32.0440 C   0  0  0  0  0  0  0  0  0  0  0  0
   -9.8710   20.0410  -32.5480 C   0  0  0  0  0  0  0  0  0  0  0  0
  -10.4599   19.6738  -31.6946 H   0  0  0  0  0  0  0  0  0  0  0  0
  -10.4913   20.7127  -33.1596 H   0  0  0  0  0  0  0  0  0  0  0  0
   -9.5409   19.1884  -33.1596 H   0  0  0  0  0  0  0  0  0  0  0  0
   -8.7610   21.5620  -30.8770 C   0  0  0  0  0  0  0  0  0  0  0  0
   -9.7050   21.5969  -30.3134 H   0  0  0  0  0  0  0  0  0  0  0  0
   -7.6550   22.2890  -30.4270 C   0  0  0  0  0  0  0  0  0  0  0  0
   -7.7295   22.8854  -29.5057 H   0  0  0  0  0  0  0  0  0  0  0  0
   -4.0770   22.4140  -30.6090 C   0  0  0  0  0  0  0  0  0  0  0  0
   -3.9500   21.1990  -30.9320 O   0  0  0  0  0  0  0  0  0  0  0  0
  1  2  1  0
  2  3  2  0
  3  4  1  0
  4  5  2  0
  5  6  1  0
  6  7  1  0
  6  8  1  0
  6  9  1  0
  5 10  1  0
 10 11  1  0
 11 12  1  0
 11 13  1  0
 11 14  1  0
 10 15  1  0
 15 16  1  0
 16 17  2  0
 17 18  1  0
 17 19  1  0
 19 20  1  0
 19 21  2  0
 21 22  1  0
 21 23  1  0
 23 24  1  0
 23 25  2  0
 25 26  1  0
 15 27  1  0
 27 28  2  0
  2 29  1  0
 29 30  2  0
 30 31  1  0
 30 32  1  0
 32 33  1  0
 32 34  1  0
 34 35  2  0
 34 36  1  0
 36 37  1  0
 37 38  2  0
 38 39  1  0
 38 40  1  0
 40 41  1  0
 40 42  2  0
 42 43  1  0
 43 44  1  0
 43 45  1  0
 43 46  1  0
 42 47  1  0
 47 48  1  0
 47 49  2  0
 49 50  1  0
 36 51  1  0
 51 52  2  0
 27  4  1  0
 51 29  1  0
 25 16  1  0
 49 37  1  0
M  CHG  1  31  -1
M  END
>  <UniqueID>  (24) 
22

>  <SMILES>  (24) 
Cc1ccc(-n2c(=O)[nH]c([O-])c(/C=N/c3c(C)n(C)n(-c4ccccc4)c3=O)c2=O)cc1

>  <Energy>  (24) 
114.86443243217768

>  <Genealogy>  (24) 
Cc1ccc(-n2c(=O)[nH]c([O-])c(C=Nc3c(C)n(C)n(-c4ccccc4)c3=O)c2=O)cc1 (protonated)
Cc1ccc(-n2c(=O)[nH]c([O-])c(/C=N/c3c(C)n(C)n(-c4ccccc4)c3=O)c2=O)cc1 (cis-trans isomerization)
Cc1ccc(-n2c(=O)[nH]c([O-])c(/C=N/c3c(C)n(C)n(-c4ccccc4)c3=O)c2=O)cc1 (3D coordinates assigned)
Cc1ccc(-n2c(=O)[nH]c([O-])c(/C=N/c3c(C)n(C)n(-c4ccccc4)c3=O)c2=O)cc1 (optimized conformer: 114.86443243217768 kcal/mol)

>  <smiles>  (24) 
Cc1ccc(-n2c(=O)[nH]c(O)c(C=Nc3c(C)n(C)n(-c4ccccc4)c3=O)c2=O)cc1

>  <score_type>  (24) 
oracle

>  <origin>  (24) 
adgpu

>  <m_score__min__energy>  (24) 
-10.82

>  <m_primary>  (24) 
energy

$$$$
24:0
     RDKit          3D

 55 58  0  0  0  0  0  0  0  0999 V2000
   -6.9010   15.5090  -34.1300 C   0  0  0  0  0  0  0  0  0  0  0  0
   -6.2620   16.8140  -33.7610 C   0  0  0  0  0  0  0  0  0  0  0  0
   -6.1900   17.2110  -32.4170 C   0  0  0  0  0  0  0  0  0  0  0  0
   -5.6270   18.4450  -32.0780 C   0  0  0  0  0  0  0  0  0  0  0  0
   -5.1310   19.2940  -33.0750 C   0  0  0  0  0  0  0  0  0  0  0  0
   -4.4130   20.8790  -32.6220 S   0  0  0  0  0  0  0  0  0  0  0  0
   -5.9780   21.5810  -32.0620 C   0  0  0  0  0  0  0  0  0  0  0  0
   -7.1590   21.1350  -32.6740 C   0  0  0  0  0  0  0  0  0  0  0  0
   -8.3970   21.6540  -32.2920 C   0  0  0  0  0  0  0  0  0  0  0  0
   -8.4670   22.6390  -31.3070 C   0  0  0  0  0  0  0  0  0  0  0  0
   -7.2980   23.1180  -30.7130 C   0  0  0  0  0  0  0  0  0  0  0  0
   -6.0410   22.6080  -31.0870 C   0  0  0  0  0  0  0  0  0  0  0  0
   -4.8220   23.1970  -30.4850 C   0  0  0  0  0  0  0  0  0  0  0  0
   -4.4340   24.3390  -30.8470 O   0  0  0  0  0  0  0  0  0  0  0  0
   -4.0680   22.4650  -29.5060 N   0  0  0  0  0  0  0  0  0  0  0  0
   -2.8990   23.0050  -28.8740 C   0  0  0  0  0  0  0  0  0  0  0  0
   -3.0540   23.9510  -27.8520 C   0  0  0  0  0  0  0  0  0  0  0  0
   -1.9360   24.4970  -27.2180 C   0  0  0  0  0  0  0  0  0  0  0  0
   -0.6450   24.1190  -27.6110 C   0  0  0  0  0  0  0  0  0  0  0  0
    0.7690   24.8040  -26.8040 S   0  0  0  0  0  0  0  0  0  0  0  0
    1.7150   25.3380  -27.8440 O   0  0  0  0  0  0  0  0  0  0  0  0
    1.4760   23.7150  -26.0470 O   0  0  0  0  0  0  0  0  0  0  0  0
    0.3600   26.0930  -25.6960 N   0  0  0  0  0  0  0  0  0  0  0  0
   -0.4440   27.1330  -26.3320 C   0  0  0  0  0  0  0  0  0  0  0  0
   -1.2290   27.8090  -25.2190 C   0  0  0  0  0  0  0  0  0  0  0  0
   -1.2290   26.8150  -24.0670 C   0  0  0  0  0  0  0  0  0  0  0  0
   -0.4380   25.6170  -24.5680 C   0  0  0  0  0  0  0  0  0  0  0  0
   -0.4860   23.1840  -28.6440 C   0  0  0  0  0  0  0  0  0  0  0  0
   -1.6020   22.6340  -29.2840 C   0  0  0  0  0  0  0  0  0  0  0  0
   -1.3410   21.5490  -30.6440 Cl  0  0  0  0  0  0  0  0  0  0  0  0
   -5.2350   18.9160  -34.4200 C   0  0  0  0  0  0  0  0  0  0  0  0
   -5.7990   17.6830  -34.7620 C   0  0  0  0  0  0  0  0  0  0  0  0
   -7.1695   14.9606  -33.2151 H   0  0  0  0  0  0  0  0  0  0  0  0
   -7.8078   15.6994  -34.7228 H   0  0  0  0  0  0  0  0  0  0  0  0
   -6.1945   14.9095  -34.7228 H   0  0  0  0  0  0  0  0  0  0  0  0
   -6.5775   16.5496  -31.6281 H   0  0  0  0  0  0  0  0  0  0  0  0
   -5.5734   18.7505  -31.0226 H   0  0  0  0  0  0  0  0  0  0  0  0
   -7.1088   20.3693  -33.4621 H   0  0  0  0  0  0  0  0  0  0  0  0
   -9.3179   21.2861  -32.7680 H   0  0  0  0  0  0  0  0  0  0  0  0
   -9.4441   23.0387  -30.9980 H   0  0  0  0  0  0  0  0  0  0  0  0
   -7.3602   23.9025  -29.9444 H   0  0  0  0  0  0  0  0  0  0  0  0
   -4.2920   21.4600  -29.3310 H   0  0  0  0  0  0  0  0  0  0  0  0
   -4.0630   24.2656  -27.5471 H   0  0  0  0  0  0  0  0  0  0  0  0
   -2.0693   25.2273  -26.4062 H   0  0  0  0  0  0  0  0  0  0  0  0
    0.2071   27.8626  -26.8357 H   0  0  0  0  0  0  0  0  0  0  0  0
   -1.1155   26.7087  -27.0929 H   0  0  0  0  0  0  0  0  0  0  0  0
   -0.7405   28.7475  -24.9181 H   0  0  0  0  0  0  0  0  0  0  0  0
   -2.2496   28.0690  -25.5364 H   0  0  0  0  0  0  0  0  0  0  0  0
   -0.7454   27.2524  -23.1811 H   0  0  0  0  0  0  0  0  0  0  0  0
   -2.2499   26.5353  -23.7678 H   0  0  0  0  0  0  0  0  0  0  0  0
    0.2180   25.2344  -23.7723 H   0  0  0  0  0  0  0  0  0  0  0  0
   -1.1051   24.7960  -24.8693 H   0  0  0  0  0  0  0  0  0  0  0  0
    0.5249   22.8804  -28.9538 H   0  0  0  0  0  0  0  0  0  0  0  0
   -4.8720   19.5909  -35.2091 H   0  0  0  0  0  0  0  0  0  0  0  0
   -5.8803   17.3926  -35.8199 H   0  0  0  0  0  0  0  0  0  0  0  0
  1  2  1  0
  2  3  2  0
  3  4  1  0
  4  5  2  0
  5  6  1  0
  6  7  1  0
  7  8  2  0
  8  9  1  0
  9 10  2  0
 10 11  1  0
 11 12  2  0
 12 13  1  0
 13 14  2  0
 13 15  1  0
 15 16  1  0
 16 17  2  0
 17 18  1  0
 18 19  2  0
 19 20  1  0
 20 21  2  0
 20 22  2  0
 20 23  1  0
 23 24  1  0
 24 25  1  0
 25 26  1  0
 26 27  1  0
 19 28  1  0
 28 29  2  0
 29 30  1  0
  5 31  1  0
 31 32  2  0
 32  2  1  0
 12  7  1  0
 29 16  1  0
 27 23  1  0
  1 33  1  0
  1 34  1  0
  1 35  1  0
  3 36  1  0
  4 37  1  0
  8 38  1  0
  9 39  1  0
 10 40  1  0
 11 41  1  0
 15 42  1  0
 17 43  1  0
 18 44  1  0
 24 45  1  0
 24 46  1  0
 25 47  1  0
 25 48  1  0
 26 49  1  0
 26 50  1  0
 27 51  1  0
 27 52  1  0
 28 53  1  0
 31 54  1  0
 32 55  1  0
M  END
>  <UniqueID>  (25) 
23

>  <SMILES>  (25) 
Cc1ccc(Sc2ccccc2C(=O)Nc2ccc(S(=O)(=O)N3CCCC3)cc2Cl)cc1

>  <Energy>  (25) 
66.95589831083521

>  <Genealogy>  (25) 
Cc1ccc(Sc2ccccc2C(=O)Nc2ccc(S(=O)(=O)N3CCCC3)cc2Cl)cc1 (3D coordinates assigned)
Cc1ccc(Sc2ccccc2C(=O)Nc2ccc(S(=O)(=O)N3CCCC3)cc2Cl)cc1 (nonaromatic ring conformer: 66.95589831083521 kcal/mol)

>  <smiles>  (25) 
Cc1ccc(Sc2ccccc2C(=O)Nc2ccc(S(=O)(=O)N3CCCC3)cc2Cl)cc1

>  <score_type>  (25) 
oracle

>  <origin>  (25) 
adgpu

>  <m_score__min__energy>  (25) 
-11.039999999999999

>  <m_primary>  (25) 
energy

$$$$
25:0
     RDKit          3D

 40 42  0  0  0  0  0  0  0  0999 V2000
   -5.7180   16.6490  -31.7420 C   0  0  0  0  0  0  0  0  0  0  0  0
   -5.6580   17.4670  -32.9900 C   0  0  0  0  0  0  0  0  0  0  0  0
   -4.7560   17.2430  -33.9700 N   0  0  0  0  0  0  0  0  0  0  0  0
   -5.0420   18.1740  -34.9030 C   0  0  0  0  0  0  0  0  0  0  0  0
   -6.1050   18.9420  -34.4810 C   0  0  0  0  0  0  0  0  0  0  0  0
   -6.4860   18.4950  -33.2750 N   0  0  0  0  0  0  0  0  0  0  0  0
   -7.8060   19.1100  -32.3310 S   0  0  0  0  0  0  0  0  0  0  0  0
   -7.9250   18.2990  -31.0690 O   0  0  0  0  0  0  0  0  0  0  0  0
   -9.0910   18.9490  -33.0920 O   0  0  0  0  0  0  0  0  0  0  0  0
   -7.4670   20.7880  -31.8670 C   0  0  0  0  0  0  0  0  0  0  0  0
   -6.1280   21.1040  -31.5900 C   0  0  0  0  0  0  0  0  0  0  0  0
   -5.7580   22.3780  -31.1420 C   0  0  0  0  0  0  0  0  0  0  0  0
   -4.0570   22.7140  -30.7880 S   0  0  0  0  0  0  0  0  0  0  0  0
   -3.8110   22.4770  -29.3240 O   0  0  0  0  0  0  0  0  0  0  0  0
   -3.7220   24.1450  -31.1030 O   0  0  0  0  0  0  0  0  0  0  0  0
   -3.0350   21.6670  -31.7690 C   0  0  0  0  0  0  0  0  0  0  0  0
   -3.4140   21.3140  -33.0730 C   0  0  0  0  0  0  0  0  0  0  0  0
   -2.5900   20.4870  -33.8430 C   0  0  0  0  0  0  0  0  0  0  0  0
   -1.3880   20.0100  -33.3160 C   0  0  0  0  0  0  0  0  0  0  0  0
   -1.0080   20.3570  -32.0160 C   0  0  0  0  0  0  0  0  0  0  0  0
   -1.8300   21.1830  -31.2430 C   0  0  0  0  0  0  0  0  0  0  0  0
   -6.7500   23.3550  -30.9510 C   0  0  0  0  0  0  0  0  0  0  0  0
   -6.3680   24.9690  -30.3600 Cl  0  0  0  0  0  0  0  0  0  0  0  0
   -8.0830   23.0560  -31.2370 C   0  0  0  0  0  0  0  0  0  0  0  0
   -8.4580   21.7910  -31.7120 C   0  0  0  0  0  0  0  0  0  0  0  0
   -9.8340   21.5750  -32.0450 N   0  0  0  0  0  0  0  0  0  0  0  0
   -5.6693   17.3125  -30.8660 H   0  0  0  0  0  0  0  0  0  0  0  0
   -6.6602   16.0817  -31.7204 H   0  0  0  0  0  0  0  0  0  0  0  0
   -4.8687   15.9503  -31.7204 H   0  0  0  0  0  0  0  0  0  0  0  0
   -4.5077   18.3008  -35.8561 H   0  0  0  0  0  0  0  0  0  0  0  0
   -6.5612   19.7753  -35.0355 H   0  0  0  0  0  0  0  0  0  0  0  0
   -5.3534   20.3352  -31.7276 H   0  0  0  0  0  0  0  0  0  0  0  0
   -4.3605   21.6882  -33.4902 H   0  0  0  0  0  0  0  0  0  0  0  0
   -2.8891   20.2119  -34.8652 H   0  0  0  0  0  0  0  0  0  0  0  0
   -0.7401   19.3612  -33.9237 H   0  0  0  0  0  0  0  0  0  0  0  0
   -0.0617   19.9799  -31.6009 H   0  0  0  0  0  0  0  0  0  0  0  0
   -1.5299   21.4533  -30.2198 H   0  0  0  0  0  0  0  0  0  0  0  0
   -8.8534   23.8267  -31.0871 H   0  0  0  0  0  0  0  0  0  0  0  0
  -10.6090   21.9780  -31.4830 H   0  0  0  0  0  0  0  0  0  0  0  0
  -10.0970   20.8350  -32.7340 H   0  0  0  0  0  0  0  0  0  0  0  0
  1  2  1  0
  2  3  2  0
  3  4  1  0
  4  5  2  0
  5  6  1  0
  6  7  1  0
  7  8  2  0
  7  9  2  0
  7 10  1  0
 10 11  2  0
 11 12  1  0
 12 13  1  0
 13 14  2  0
 13 15  2  0
 13 16  1  0
 16 17  2  0
 17 18  1  0
 18 19  2  0
 19 20  1  0
 20 21  2  0
 12 22  2  0
 22 23  1  0
 22 24  1  0
 24 25  2  0
 25 26  1  0
  6  2  1  0
 25 10  1  0
 21 16  1  0
  1 27  1  0
  1 28  1  0
  1 29  1  0
  4 30  1  0
  5 31  1  0
 11 32  1  0
 17 33  1  0
 18 34  1  0
 19 35  1  0
 20 36  1  0
 21 37  1  0
 24 38  1  0
 26 39  1  0
 26 40  1  0
M  END
>  <UniqueID>  (26) 
24

>  <SMILES>  (26) 
Cc1nccn1S(=O)(=O)c1cc(S(=O)(=O)c2ccccc2)c(Cl)cc1N

>  <Energy>  (26) 
80.44790822950833

>  <Genealogy>  (26) 
Cc1nccn1S(=O)(=O)c1cc(S(=O)(=O)c2ccccc2)c(Cl)cc1N (3D coordinates assigned)
Cc1nccn1S(=O)(=O)c1cc(S(=O)(=O)c2ccccc2)c(Cl)cc1N (optimized conformer: 80.44790822950833 kcal/mol)

>  <smiles>  (26) 
Cc1nccn1S(=O)(=O)c1cc(S(=O)(=O)c2ccccc2)c(Cl)cc1N

>  <score_type>  (26) 
oracle

>  <origin>  (26) 
adgpu

>  <m_score__min__energy>  (26) 
-8.7300000000000004

>  <m_primary>  (26) 
energy

$$$$
26:0
     RDKit          3D

 42 44  0  0  0  0  0  0  0  0999 V2000
   -5.8701   25.6565  -29.6132 H   0  0  0  0  0  0  0  0  0  0  0  0
   -5.4070   25.0520  -30.4070 C   0  0  0  0  0  0  0  0  0  0  0  0
   -4.2630   25.3550  -30.8360 O   0  0  0  0  0  0  0  0  0  0  0  0
   -6.1290   23.8960  -30.9590 C   0  0  0  0  0  0  0  0  0  0  0  0
   -7.4990   23.7970  -31.1160 C   0  0  0  0  0  0  0  0  0  0  0  0
   -8.2481   24.5666  -30.8780 H   0  0  0  0  0  0  0  0  0  0  0  0
   -7.7390   22.5370  -31.6320 C   0  0  0  0  0  0  0  0  0  0  0  0
   -9.0980   21.9940  -31.9540 C   0  0  0  0  0  0  0  0  0  0  0  0
   -9.6375   21.7784  -31.0199 H   0  0  0  0  0  0  0  0  0  0  0  0
   -9.6603   22.7365  -32.5392 H   0  0  0  0  0  0  0  0  0  0  0  0
   -8.9938   21.0684  -32.5392 H   0  0  0  0  0  0  0  0  0  0  0  0
   -6.5730   21.8720  -31.8080 N   0  0  0  0  0  0  0  0  0  0  0  0
   -6.4240   20.5300  -32.3020 C   0  0  0  0  0  0  0  0  0  0  0  0
   -6.9880   19.4530  -31.6020 C   0  0  0  0  0  0  0  0  0  0  0  0
   -7.5475   19.6365  -30.6729 H   0  0  0  0  0  0  0  0  0  0  0  0
   -6.8420   18.1480  -32.0800 C   0  0  0  0  0  0  0  0  0  0  0  0
   -7.2894   17.3084  -31.5279 H   0  0  0  0  0  0  0  0  0  0  0  0
   -6.1270   17.9060  -33.2610 C   0  0  0  0  0  0  0  0  0  0  0  0
   -5.9200   16.2620  -33.8580 S   0  0  0  0  0  0  0  0  0  0  0  0
   -7.1660   15.8540  -34.5910 O   0  0  0  0  0  0  0  0  0  0  0  0
   -5.6880   15.3070  -32.7200 O   0  0  0  0  0  0  0  0  0  0  0  0
   -4.5700   16.1880  -34.9500 N   0  0  0  0  0  0  0  0  0  0  0  0
   -3.3300   16.4830  -34.6760 C   0  0  0  0  0  0  0  0  0  0  0  0
   -2.9210   16.9120  -33.3960 C   0  0  0  0  0  0  0  0  0  0  0  0
   -3.6548   17.0016  -32.5814 H   0  0  0  0  0  0  0  0  0  0  0  0
   -1.5790   17.2220  -33.1700 C   0  0  0  0  0  0  0  0  0  0  0  0
   -1.2520   17.5592  -32.1754 H   0  0  0  0  0  0  0  0  0  0  0  0
   -0.6540   17.1040  -34.2050 C   0  0  0  0  0  0  0  0  0  0  0  0
    0.4053   17.3464  -34.0344 H   0  0  0  0  0  0  0  0  0  0  0  0
   -1.0860   16.6750  -35.4600 C   0  0  0  0  0  0  0  0  0  0  0  0
   -0.3640   16.5780  -36.2842 H   0  0  0  0  0  0  0  0  0  0  0  0
   -2.3970   16.3760  -35.6690 N   0  0  0  0  0  0  0  0  0  0  0  0
   -2.6890   16.0590  -36.6210 H   0  0  0  0  0  0  0  0  0  0  0  0
   -5.5690   18.9810  -33.9650 C   0  0  0  0  0  0  0  0  0  0  0  0
   -5.0139   18.7969  -34.8967 H   0  0  0  0  0  0  0  0  0  0  0  0
   -5.7150   20.2860  -33.4880 C   0  0  0  0  0  0  0  0  0  0  0  0
   -5.2724   21.1254  -34.0443 H   0  0  0  0  0  0  0  0  0  0  0  0
   -5.5830   22.7010  -31.4050 C   0  0  0  0  0  0  0  0  0  0  0  0
   -4.1200   22.3580  -31.4130 C   0  0  0  0  0  0  0  0  0  0  0  0
   -3.7576   22.2730  -30.3779 H   0  0  0  0  0  0  0  0  0  0  0  0
   -3.9707   21.4005  -31.9335 H   0  0  0  0  0  0  0  0  0  0  0  0
   -3.5607   23.1494  -31.9335 H   0  0  0  0  0  0  0  0  0  0  0  0
  1  2  1  0
  2  3  2  0
  2  4  1  0
  4  5  1  0
  5  6  1  0
  5  7  2  0
  7  8  1  0
  8  9  1  0
  8 10  1  0
  8 11  1  0
  7 12  1  0
 12 13  1  0
 13 14  2  0
 14 15  1  0
 14 16  1  0
 16 17  1  0
 16 18  2  0
 18 19  1  0
 19 20  2  0
 19 21  2  0
 19 22  1  0
 22 23  2  0
 23 24  1  0
 24 25  1  0
 24 26  2  0
 26 27  1  0
 26 28  1  0
 28 29  1  0
 28 30  2  0
 30 31  1  0
 30 32  1  0
 32 33  1  0
 18 34  1  0
 34 35  1  0
 34 36  2  0
 36 37  1  0
 12 38  1  0
 38 39  1  0
 39 40  1  0
 39 41  1  0
 39 42  1  0
 38  4  2  0
 36 13  1  0
 32 23  1  0
M  END
>  <UniqueID>  (27) 
25

>  <SMILES>  (27) 
Cc1cc(C=O)c(C)n1-c1ccc(S(=O)(=O)/N=c2\cccc[nH]2)cc1

>  <Energy>  (27) 
80.37016057820362

>  <Genealogy>  (27) 
Cc1cc(C=O)c(C)n1-c1ccc(S(=O)(=O)/N=c2\cccc[nH]2)cc1 (cis-trans isomerization)
Cc1cc(C=O)c(C)n1-c1ccc(S(=O)(=O)/N=c2\cccc[nH]2)cc1 (3D coordinates assigned)
Cc1cc(C=O)c(C)n1-c1ccc(S(=O)(=O)/N=c2\cccc[nH]2)cc1 (optimized conformer: 80.37016057820362 kcal/mol)

>  <smiles>  (27) 
Cc1cc(C=O)c(C)n1-c1ccc(S(=O)(=O)N=c2cccc[nH]2)cc1

>  <score_type>  (27) 
oracle

>  <origin>  (27) 
adgpu

>  <m_score__min__energy>  (27) 
-8.9499999999999993

>  <m_primary>  (27) 
energy

$$$$
27:0
     RDKit          3D

 57 60  0  0  0  0  0  0  0  0999 V2000
   -3.3142   21.0824  -26.7607 H   0  0  0  0  0  0  0  0  0  0  0  0
   -2.8180   21.5130  -27.6430 C   0  0  0  0  0  0  0  0  0  0  0  0
   -2.8990   22.8850  -27.8870 C   0  0  0  0  0  0  0  0  0  0  0  0
   -3.4831   23.5289  -27.2130 H   0  0  0  0  0  0  0  0  0  0  0  0
   -2.2370   23.4440  -28.9900 C   0  0  0  0  0  0  0  0  0  0  0  0
   -2.4340   24.8620  -29.3420 C   0  0  0  0  0  0  0  0  0  0  0  0
   -1.6130   25.7210  -28.9190 O   0  0  0  0  0  0  0  0  0  0  0  0
   -3.5430   25.2950  -30.1490 N   0  0  0  0  0  0  0  0  0  0  0  0
   -4.6920   24.5180  -30.5270 C   0  0  0  0  0  0  0  0  0  0  0  0
   -4.5030   23.3670  -31.3010 C   0  0  0  0  0  0  0  0  0  0  0  0
   -3.4897   23.0858  -31.6239 H   0  0  0  0  0  0  0  0  0  0  0  0
   -5.5960   22.5710  -31.6670 C   0  0  0  0  0  0  0  0  0  0  0  0
   -5.4348   21.6598  -32.2618 H   0  0  0  0  0  0  0  0  0  0  0  0
   -6.8940   22.9300  -31.2790 C   0  0  0  0  0  0  0  0  0  0  0  0
   -8.2650   21.9280  -31.7560 S   0  0  0  0  0  0  0  0  0  0  0  0
   -8.8560   21.2230  -30.5640 O   0  0  0  0  0  0  0  0  0  0  0  0
   -9.3310   22.8130  -32.3420 O   0  0  0  0  0  0  0  0  0  0  0  0
   -7.7790   20.7740  -32.9640 N   0  0  0  0  0  0  0  0  0  0  0  0
   -7.1590   19.6440  -32.7760 C   0  0  0  0  0  0  0  0  0  0  0  0
   -6.8600   18.8790  -33.8630 N   0  0  0  0  0  0  0  0  0  0  0  0
   -6.2270   17.7100  -33.7530 N   0  0  0  0  0  0  0  0  0  0  0  0
   -5.8380   17.2230  -32.5440 C   0  0  0  0  0  0  0  0  0  0  0  0
   -5.1450   15.8980  -32.4530 C   0  0  0  0  0  0  0  0  0  0  0  0
   -5.0046   15.6295  -31.3955 H   0  0  0  0  0  0  0  0  0  0  0  0
   -5.7566   15.1295  -32.9483 H   0  0  0  0  0  0  0  0  0  0  0  0
   -4.1649   15.9620  -32.9483 H   0  0  0  0  0  0  0  0  0  0  0  0
   -6.1210   17.9590  -31.3910 C   0  0  0  0  0  0  0  0  0  0  0  0
   -5.8197   17.5807  -30.4030 H   0  0  0  0  0  0  0  0  0  0  0  0
   -6.7880   19.1760  -31.5040 C   0  0  0  0  0  0  0  0  0  0  0  0
   -7.0224   19.7658  -30.6056 H   0  0  0  0  0  0  0  0  0  0  0  0
   -7.0860   24.0760  -30.4950 C   0  0  0  0  0  0  0  0  0  0  0  0
   -8.1028   24.3737  -30.1993 H   0  0  0  0  0  0  0  0  0  0  0  0
   -5.9910   24.8410  -30.0880 C   0  0  0  0  0  0  0  0  0  0  0  0
   -6.1438   25.7016  -29.4201 H   0  0  0  0  0  0  0  0  0  0  0  0
   -1.4890   22.6160  -29.8380 C   0  0  0  0  0  0  0  0  0  0  0  0
   -0.9311   23.0555  -30.6780 H   0  0  0  0  0  0  0  0  0  0  0  0
   -1.4470   21.2320  -29.6230 C   0  0  0  0  0  0  0  0  0  0  0  0
   -0.7620   20.1680  -30.8480 S   0  0  0  0  0  0  0  0  0  0  0  0
   -0.1560   18.9630  -30.1820 O   0  0  0  0  0  0  0  0  0  0  0  0
    0.3190   20.8960  -31.6000 O   0  0  0  0  0  0  0  0  0  0  0  0
   -2.0220   19.6660  -31.9510 N   0  0  0  0  0  0  0  0  0  0  0  0
   -2.5740   18.9120  -31.4750 H   0  0  0  0  0  0  0  0  0  0  0  0
   -2.9190   20.8020  -32.2540 C   0  0  0  0  0  0  0  0  0  0  0  0
   -3.5683   20.9856  -31.3853 H   0  0  0  0  0  0  0  0  0  0  0  0
   -2.2969   21.6824  -32.4729 H   0  0  0  0  0  0  0  0  0  0  0  0
   -3.8000   20.5170  -33.4850 C   0  0  0  0  0  0  0  0  0  0  0  0
   -4.8233   20.8668  -33.2837 H   0  0  0  0  0  0  0  0  0  0  0  0
   -3.3748   21.0465  -34.3503 H   0  0  0  0  0  0  0  0  0  0  0  0
   -3.8330   19.1350  -33.7750 O   0  0  0  0  0  0  0  0  0  0  0  0
   -2.5450   18.6980  -34.1760 C   0  0  0  0  0  0  0  0  0  0  0  0
   -2.5523   17.6004  -34.2476 H   0  0  0  0  0  0  0  0  0  0  0  0
   -2.3218   19.1675  -35.1454 H   0  0  0  0  0  0  0  0  0  0  0  0
   -1.4350   19.1220  -33.1850 C   0  0  0  0  0  0  0  0  0  0  0  0
   -0.8186   18.2455  -32.9362 H   0  0  0  0  0  0  0  0  0  0  0  0
   -0.8173   19.9005  -33.6567 H   0  0  0  0  0  0  0  0  0  0  0  0
   -2.1080   20.6850  -28.5170 C   0  0  0  0  0  0  0  0  0  0  0  0
   -2.0686   19.6008  -28.3353 H   0  0  0  0  0  0  0  0  0  0  0  0
  1  2  1  0
  2  3  2  0
  3  4  1  0
  3  5  1  0
  5  6  1  0
  6  7  2  0
  6  8  1  0
  8  9  1  0
  9 10  2  0
 10 11  1  0
 10 12  1  0
 12 13  1  0
 12 14  2  0
 14 15  1  0
 15 16  2  0
 15 17  2  0
 15 18  1  0
 18 19  2  0
 19 20  1  0
 20 21  1  0
 21 22  2  0
 22 23  1  0
 23 24  1  0
 23 25  1  0
 23 26  1  0
 22 27  1  0
 27 28  1  0
 27 29  2  0
 29 30  1  0
 14 31  1  0
 31 32  1  0
 31 33  2  0
 33 34  1  0
  5 35  2  0
 35 36  1  0
 35 37  1  0
 37 38  1  0
 38 39  2  0
 38 40  2  0
 38 41  1  0
 41 42  1  0
 41 43  1  0
 43 44  1  0
 43 45  1  0
 43 46  1  0
 46 47  1  0
 46 48  1  0
 46 49  1  0
 49 50  1  0
 50 51  1  0
 50 52  1  0
 50 53  1  0
 53 54  1  0
 53 55  1  0
 37 56  2  0
 56 57  1  0
 56  2  1  0
 33  9  1  0
 53 41  1  0
 29 19  1  0
M  CHG  3   8  -1  20  -1  41   1
M  END
>  <UniqueID>  (28) 
26

>  <SMILES>  (28) 
Cc1cc/c(=N\S(=O)(=O)c2ccc([N-]C(=O)c3cccc(S(=O)(=O)[NH+]4CCOCC4)c3)cc2)[n-]n1

>  <Energy>  (28) 
81.71449004089058

>  <Genealogy>  (28) 
Cc1ccc(=NS(=O)(=O)c2ccc([N-]C(=O)c3cccc(S(=O)(=O)[NH+]4CCOCC4)c3)cc2)[n-]n1 (protonated)
Cc1cc/c(=N\S(=O)(=O)c2ccc([N-]C(=O)c3cccc(S(=O)(=O)[NH+]4CCOCC4)c3)cc2)[n-]n1 (cis-trans isomerization)
Cc1cc/c(=N\S(=O)(=O)c2ccc([N-]C(=O)c3cccc(S(=O)(=O)[NH+]4CCOCC4)c3)cc2)[n-]n1 (3D coordinates assigned)
Cc1cc/c(=N\S(=O)(=O)c2ccc([N-]C(=O)c3cccc(S(=O)(=O)[NH+]4CCOCC4)c3)cc2)[n-]n1 (nonaromatic ring conformer: 81.71449004089058 kcal/mol)

>  <smiles>  (28) 
Cc1ccc(=NS(=O)(=O)c2ccc(NC(=O)c3cccc(S(=O)(=O)N4CCOCC4)c3)cc2)[nH]n1

>  <score_type>  (28) 
oracle

>  <origin>  (28) 
adgpu

>  <m_score__min__energy>  (28) 
-12.42

>  <m_primary>  (28) 
energy

$$$$
28:0
     RDKit          3D

 44 47  0  0  0  0  0  0  0  0999 V2000
   -1.6140   26.3040  -24.9940 C   0  0  0  0  0  0  0  0  0  0  0  0
   -2.5090   25.5390  -25.9150 C   0  0  0  0  0  0  0  0  0  0  0  0
   -3.8110   25.2990  -25.6790 N   0  0  0  0  0  0  0  0  0  0  0  0
   -4.3070   24.5530  -26.6520 N   0  0  0  0  0  0  0  0  0  0  0  0
   -3.3180   24.3030  -27.5360 C   0  0  0  0  0  0  0  0  0  0  0  0
   -3.5190   23.4840  -28.7530 C   0  0  0  0  0  0  0  0  0  0  0  0
   -3.9940   24.0940  -29.9280 C   0  0  0  0  0  0  0  0  0  0  0  0
   -4.1750   23.3440  -31.0920 C   0  0  0  0  0  0  0  0  0  0  0  0
   -3.8830   21.9740  -31.1030 C   0  0  0  0  0  0  0  0  0  0  0  0
   -4.1000   21.0510  -32.5860 S   0  0  0  0  0  0  0  0  0  0  0  0
   -3.0860   19.9400  -32.6280 O   0  0  0  0  0  0  0  0  0  0  0  0
   -3.8940   21.9240  -33.7940 O   0  0  0  0  0  0  0  0  0  0  0  0
   -5.6980   20.3830  -32.6200 N   0  0  0  0  0  0  0  0  0  0  0  0
   -5.9850   18.9500  -32.6450 C   0  0  0  0  0  0  0  0  0  0  0  0
   -7.5180   18.8210  -32.4610 C   0  0  0  0  0  0  0  0  0  0  0  0
   -7.9620   20.2310  -32.2700 C   0  0  0  0  0  0  0  0  0  0  0  0
   -9.2520   20.7000  -32.0120 C   0  0  0  0  0  0  0  0  0  0  0  0
   -9.4400   22.0830  -31.8410 C   0  0  0  0  0  0  0  0  0  0  0  0
   -8.3440   22.9650  -31.9280 C   0  0  0  0  0  0  0  0  0  0  0  0
   -7.0570   22.4690  -32.1910 C   0  0  0  0  0  0  0  0  0  0  0  0
   -6.8990   21.0880  -32.3610 C   0  0  0  0  0  0  0  0  0  0  0  0
   -3.3880   21.3630  -29.9440 C   0  0  0  0  0  0  0  0  0  0  0  0
   -3.1990   22.1140  -28.7790 C   0  0  0  0  0  0  0  0  0  0  0  0
   -2.1420   24.8980  -27.0840 C   0  0  0  0  0  0  0  0  0  0  0  0
   -0.7680   24.8370  -27.6820 C   0  0  0  0  0  0  0  0  0  0  0  0
   -1.8802   26.0765  -23.9512 H   0  0  0  0  0  0  0  0  0  0  0  0
   -0.5680   26.0165  -25.1765 H   0  0  0  0  0  0  0  0  0  0  0  0
   -1.7352   27.3820  -25.1765 H   0  0  0  0  0  0  0  0  0  0  0  0
   -4.3630   25.6300  -24.8560 H   0  0  0  0  0  0  0  0  0  0  0  0
   -4.2246   25.1696  -29.9301 H   0  0  0  0  0  0  0  0  0  0  0  0
   -4.5487   23.8314  -32.0046 H   0  0  0  0  0  0  0  0  0  0  0  0
   -5.6771   18.5148  -33.6072 H   0  0  0  0  0  0  0  0  0  0  0  0
   -5.4369   18.4144  -31.8559 H   0  0  0  0  0  0  0  0  0  0  0  0
   -7.9857   18.3783  -33.3527 H   0  0  0  0  0  0  0  0  0  0  0  0
   -7.7966   18.1654  -31.6228 H   0  0  0  0  0  0  0  0  0  0  0  0
  -10.1010   20.0039  -31.9442 H   0  0  0  0  0  0  0  0  0  0  0  0
  -10.4464   22.4781  -31.6385 H   0  0  0  0  0  0  0  0  0  0  0  0
   -8.4974   24.0454  -31.7894 H   0  0  0  0  0  0  0  0  0  0  0  0
   -6.1946   23.1481  -32.2617 H   0  0  0  0  0  0  0  0  0  0  0  0
   -3.1472   20.2897  -29.9498 H   0  0  0  0  0  0  0  0  0  0  0  0
   -2.7973   21.6300  -27.8766 H   0  0  0  0  0  0  0  0  0  0  0  0
   -0.0190   24.8037  -26.8771 H   0  0  0  0  0  0  0  0  0  0  0  0
   -0.6785   23.9340  -28.3037 H   0  0  0  0  0  0  0  0  0  0  0  0
   -0.5988   25.7285  -28.3037 H   0  0  0  0  0  0  0  0  0  0  0  0
  1  2  1  0
  2  3  1  0
  3  4  1  0
  4  5  2  0
  5  6  1  0
  6  7  2  0
  7  8  1  0
  8  9  2  0
  9 10  1  0
 10 11  2  0
 10 12  2  0
 10 13  1  0
 13 14  1  0
 14 15  1  0
 15 16  1  0
 16 17  2  0
 17 18  1  0
 18 19  2  0
 19 20  1  0
 20 21  2  0
  9 22  1  0
 22 23  2  0
  5 24  1  0
 24 25  1  0
 24  2  2  0
 23  6  1  0
 21 13  1  0
 21 16  1  0
  1 26  1  0
  1 27  1  0
  1 28  1  0
  3 29  1  0
  7 30  1  0
  8 31  1  0
 14 32  1  0
 14 33  1  0
 15 34  1  0
 15 35  1  0
 17 36  1  0
 18 37  1  0
 19 38  1  0
 20 39  1  0
 22 40  1  0
 23 41  1  0
 25 42  1  0
 25 43  1  0
 25 44  1  0
M  END
>  <UniqueID>  (29) 
27

>  <SMILES>  (29) 
Cc1[nH]nc(-c2ccc(S(=O)(=O)N3CCc4ccccc43)cc2)c1C

>  <Energy>  (29) 
95.521514826148

>  <Genealogy>  (29) 
Cc1[nH]nc(-c2ccc(S(=O)(=O)N3CCc4ccccc43)cc2)c1C (3D coordinates assigned)
Cc1[nH]nc(-c2ccc(S(=O)(=O)N3CCc4ccccc43)cc2)c1C (nonaromatic ring conformer: 95.521514826148 kcal/mol)

>  <smiles>  (29) 
Cc1[nH]nc(-c2ccc(S(=O)(=O)N3CCc4ccccc43)cc2)c1C

>  <score_type>  (29) 
oracle

>  <origin>  (29) 
adgpu

>  <m_score__min__energy>  (29) 
-9.25

>  <m_primary>  (29) 
energy

$$$$
29:0
     RDKit          3D

 26 27  0  0  0  0  0  0  0  0999 V2000
   -4.0710   20.9990  -34.0370 H   0  0  0  0  0  0  0  0  0  0  0  0
   -4.5970   21.5120  -33.2940 N   0  0  0  0  0  0  0  0  0  0  0  0
   -5.7210   21.0730  -32.8210 C   0  0  0  0  0  0  0  0  0  0  0  0
   -6.3840   19.9300  -33.2250 C   0  0  0  0  0  0  0  0  0  0  0  0
   -5.9780   18.9670  -34.2150 C   0  0  0  0  0  0  0  0  0  0  0  0
   -5.6510   18.1930  -35.0110 N   0  0  0  0  0  0  0  0  0  0  0  0
   -7.5500   19.9160  -32.4840 C   0  0  0  0  0  0  0  0  0  0  0  0
   -8.3352   19.1474  -32.5365 H   0  0  0  0  0  0  0  0  0  0  0  0
   -7.5640   21.0020  -31.6860 N   0  0  0  0  0  0  0  0  0  0  0  0
   -8.3200   21.2460  -31.0060 H   0  0  0  0  0  0  0  0  0  0  0  0
   -6.4560   21.7050  -31.8810 N   0  0  0  0  0  0  0  0  0  0  0  0
   -6.1470   22.9350  -31.1970 C   0  0  0  0  0  0  0  0  0  0  0  0
   -7.1710   23.7860  -30.7500 C   0  0  0  0  0  0  0  0  0  0  0  0
   -8.2230   23.5096  -30.9140 H   0  0  0  0  0  0  0  0  0  0  0  0
   -6.8600   24.9820  -30.0980 C   0  0  0  0  0  0  0  0  0  0  0  0
   -7.6674   25.6423  -29.7485 H   0  0  0  0  0  0  0  0  0  0  0  0
   -5.5280   25.3410  -29.8890 C   0  0  0  0  0  0  0  0  0  0  0  0
   -5.2912   26.2824  -29.3715 H   0  0  0  0  0  0  0  0  0  0  0  0
   -4.4900   24.5120  -30.3330 C   0  0  0  0  0  0  0  0  0  0  0  0
   -3.1680   24.9190  -30.1010 O   0  0  0  0  0  0  0  0  0  0  0  0
   -2.2360   24.2030  -29.2970 C   0  0  0  0  0  0  0  0  0  0  0  0
   -2.4604   24.3754  -28.2340 H   0  0  0  0  0  0  0  0  0  0  0  0
   -2.3110   23.1280  -29.5180 H   0  0  0  0  0  0  0  0  0  0  0  0
   -1.2167   24.5525  -29.5180 H   0  0  0  0  0  0  0  0  0  0  0  0
   -4.8070   23.3080  -30.9910 C   0  0  0  0  0  0  0  0  0  0  0  0
   -3.9984   22.6529  -31.3473 H   0  0  0  0  0  0  0  0  0  0  0  0
  1  2  1  0
  2  3  2  0
  3  4  1  0
  4  5  1  0
  5  6  3  0
  4  7  2  0
  7  8  1  0
  7  9  1  0
  9 10  1  0
  9 11  1  0
 11 12  1  0
 12 13  2  0
 13 14  1  0
 13 15  1  0
 15 16  1  0
 15 17  2  0
 17 18  1  0
 17 19  1  0
 19 20  1  0
 20 21  1  0
 21 22  1  0
 21 23  1  0
 21 24  1  0
 19 25  2  0
 25 26  1  0
 11  3  1  0
 25 12  1  0
M  END
>  <UniqueID>  (30) 
28

>  <SMILES>  (30) 
[H]/N=c1\c(C#N)c[nH]n1-c1cccc(OC)c1

>  <Energy>  (30) 
63.57099901089755

>  <Genealogy>  (30) 
[H]/N=c1\c(C#N)c[nH]n1-c1cccc(OC)c1 (cis-trans isomerization)
[H]/N=c1\c(C#N)c[nH]n1-c1cccc(OC)c1 (3D coordinates assigned)
[H]/N=c1\c(C#N)c[nH]n1-c1cccc(OC)c1 (optimized conformer: 63.57099901089755 kcal/mol)

>  <smiles>  (30) 
COc1cccc(-n2[nH]cc(C#N)c2=N)c1

>  <score_type>  (30) 
oracle

>  <origin>  (30) 
adgpu

>  <m_score__min__energy>  (30) 
-6.3600000000000003

>  <m_primary>  (30) 
energy

$$$$
30:0
     RDKit          3D

 40 41  0  0  0  0  0  0  0  0999 V2000
   -6.0950   17.1490  -31.8820 C   0  0  0  0  0  0  0  0  0  0  0  0
   -6.8480   17.6920  -33.0920 C   0  0  0  0  0  0  0  0  0  0  0  0
   -8.0140   18.4070  -32.6830 O   0  0  0  0  0  0  0  0  0  0  0  0
   -8.0660   19.7730  -32.3590 C   0  0  0  0  0  0  0  0  0  0  0  0
   -9.2730   20.4940  -32.2820 C   0  0  0  0  0  0  0  0  0  0  0  0
   -9.2620   21.8490  -31.9480 C   0  0  0  0  0  0  0  0  0  0  0  0
   -8.0530   22.5040  -31.6990 C   0  0  0  0  0  0  0  0  0  0  0  0
   -6.8380   21.8050  -31.7950 C   0  0  0  0  0  0  0  0  0  0  0  0
   -5.5800   22.4480  -31.5220 N   0  0  0  0  0  0  0  0  0  0  0  0
   -5.2150   22.9740  -30.2340 C   0  0  0  0  0  0  0  0  0  0  0  0
   -6.1160   23.2670  -29.4020 O   0  0  0  0  0  0  0  0  0  0  0  0
   -3.7930   23.2240  -29.8910 C   0  0  0  0  0  0  0  0  0  0  0  0
   -2.8650   22.1700  -29.8430 C   0  0  0  0  0  0  0  0  0  0  0  0
   -1.5290   22.4150  -29.5130 C   0  0  0  0  0  0  0  0  0  0  0  0
   -1.0940   23.7210  -29.2210 C   0  0  0  0  0  0  0  0  0  0  0  0
    0.2380   24.0190  -28.8830 O   0  0  0  0  0  0  0  0  0  0  0  0
    0.7510   24.1520  -27.5580 C   0  0  0  0  0  0  0  0  0  0  0  0
   -0.2690   23.6690  -26.5320 C   0  0  0  0  0  0  0  0  0  0  0  0
   -2.0210   24.7700  -29.2560 C   0  0  0  0  0  0  0  0  0  0  0  0
   -1.6150   26.0670  -28.9620 O   0  0  0  0  0  0  0  0  0  0  0  0
   -3.3590   24.5260  -29.5850 C   0  0  0  0  0  0  0  0  0  0  0  0
   -6.8580   20.4370  -32.1100 C   0  0  0  0  0  0  0  0  0  0  0  0
   -6.5814   17.4997  -30.9598 H   0  0  0  0  0  0  0  0  0  0  0  0
   -6.1056   16.0493  -31.9067 H   0  0  0  0  0  0  0  0  0  0  0  0
   -5.0549   17.5063  -31.9067 H   0  0  0  0  0  0  0  0  0  0  0  0
   -6.1879   18.3693  -33.6537 H   0  0  0  0  0  0  0  0  0  0  0  0
   -7.1560   16.8466  -33.7248 H   0  0  0  0  0  0  0  0  0  0  0  0
  -10.2279   19.9875  -32.4858 H   0  0  0  0  0  0  0  0  0  0  0  0
  -10.2094   22.4039  -31.8804 H   0  0  0  0  0  0  0  0  0  0  0  0
   -8.0525   23.5699  -31.4271 H   0  0  0  0  0  0  0  0  0  0  0  0
   -4.9460   22.6430  -32.3300 H   0  0  0  0  0  0  0  0  0  0  0  0
   -3.1925   21.1440  -30.0669 H   0  0  0  0  0  0  0  0  0  0  0  0
   -0.8125   21.5809  -29.4813 H   0  0  0  0  0  0  0  0  0  0  0  0
    1.6685   23.5524  -27.4645 H   0  0  0  0  0  0  0  0  0  0  0  0
    0.9669   25.2138  -27.3681 H   0  0  0  0  0  0  0  0  0  0  0  0
    0.1163   23.8515  -25.5180 H   0  0  0  0  0  0  0  0  0  0  0  0
   -1.2138   24.2153  -26.6690 H   0  0  0  0  0  0  0  0  0  0  0  0
   -0.4451   22.5919  -26.6690 H   0  0  0  0  0  0  0  0  0  0  0  0
   -4.0769   25.3592  -29.6044 H   0  0  0  0  0  0  0  0  0  0  0  0
   -5.9117   19.8787  -32.1620 H   0  0  0  0  0  0  0  0  0  0  0  0
  1  2  1  0
  2  3  1  0
  3  4  1  0
  4  5  2  0
  5  6  1  0
  6  7  2  0
  7  8  1  0
  8  9  1  0
  9 10  1  0
 10 11  2  0
 10 12  1  0
 12 13  2  0
 13 14  1  0
 14 15  2  0
 15 16  1  0
 16 17  1  0
 17 18  1  0
 15 19  1  0
 19 20  1  0
 19 21  2  0
  8 22  2  0
 22  4  1  0
 21 12  1  0
  1 23  1  0
  1 24  1  0
  1 25  1  0
  2 26  1  0
  2 27  1  0
  5 28  1  0
  6 29  1  0
  7 30  1  0
  9 31  1  0
 13 32  1  0
 14 33  1  0
 17 34  1  0
 17 35  1  0
 18 36  1  0
 18 37  1  0
 18 38  1  0
 21 39  1  0
 22 40  1  0
M  CHG  1  20  -1
M  END
>  <UniqueID>  (31) 
29

>  <SMILES>  (31) 
CCOc1cccc(NC(=O)c2ccc(OCC)c([O-])c2)c1

>  <Energy>  (31) 
41.96383341849352

>  <Genealogy>  (31) 
CCOc1cccc(NC(=O)c2ccc(OCC)c([O-])c2)c1 (protonated)
CCOc1cccc(NC(=O)c2ccc(OCC)c([O-])c2)c1 (3D coordinates assigned)
CCOc1cccc(NC(=O)c2ccc(OCC)c([O-])c2)c1 (optimized conformer: 41.96383341849352 kcal/mol)

>  <smiles>  (31) 
CCOc1cccc(NC(=O)c2ccc(OCC)c(O)c2)c1

>  <score_type>  (31) 
oracle

>  <origin>  (31) 
adgpu

>  <m_score__min__energy>  (31) 
-9.6199999999999992

>  <m_primary>  (31) 
energy

$$$$
31:0
     RDKit          3D

 55 59  0  0  0  0  0  0  0  0999 V2000
   -0.1450   22.1230  -28.4030 C   0  0  0  0  0  0  0  0  0  0  0  0
   -1.4140   21.5530  -28.7070 O   0  0  0  0  0  0  0  0  0  0  0  0
   -2.3140   22.0490  -29.6640 C   0  0  0  0  0  0  0  0  0  0  0  0
   -2.8340   21.2090  -30.6660 C   0  0  0  0  0  0  0  0  0  0  0  0
   -3.7250   21.6940  -31.6340 C   0  0  0  0  0  0  0  0  0  0  0  0
   -4.2990   20.7800  -32.7040 C   0  0  1  0  0  0  0  0  0  0  0  0
   -3.2410   19.8390  -33.2400 C   0  0  0  0  0  0  0  0  0  0  0  0
   -1.8740   19.9650  -32.9970 C   0  0  0  0  0  0  0  0  0  0  0  0
   -1.1910   18.9530  -33.5740 N   0  0  0  0  0  0  0  0  0  0  0  0
   -2.1090   18.1770  -34.1730 C   0  0  0  0  0  0  0  0  0  0  0  0
   -1.8750   17.0050  -34.8930 C   0  0  0  0  0  0  0  0  0  0  0  0
   -2.9830   16.3330  -35.4340 C   0  0  0  0  0  0  0  0  0  0  0  0
   -4.2870   16.8390  -35.2460 C   0  0  0  0  0  0  0  0  0  0  0  0
   -4.4950   18.0220  -34.5160 C   0  0  0  0  0  0  0  0  0  0  0  0
   -3.3750   18.6760  -33.9900 C   0  0  0  0  0  0  0  0  0  0  0  0
   -5.5480   20.0550  -32.2520 C   0  0  0  0  0  0  0  0  0  0  0  0
   -5.6850   18.7110  -31.8980 C   0  0  0  0  0  0  0  0  0  0  0  0
   -6.9570   18.4430  -31.5260 N   0  0  0  0  0  0  0  0  0  0  0  0
   -7.6260   19.6040  -31.6300 C   0  0  0  0  0  0  0  0  0  0  0  0
   -8.9720   19.8280  -31.3460 C   0  0  0  0  0  0  0  0  0  0  0  0
   -9.4710   21.1320  -31.5150 C   0  0  0  0  0  0  0  0  0  0  0  0
   -8.6220   22.1720  -31.9560 C   0  0  0  0  0  0  0  0  0  0  0  0
   -9.1150   23.4250  -32.1120 F   0  0  0  0  0  0  0  0  0  0  0  0
   -7.2670   21.9150  -32.2340 C   0  0  0  0  0  0  0  0  0  0  0  0
   -6.8020   20.6100  -32.0620 C   0  0  0  0  0  0  0  0  0  0  0  0
   -4.1170   23.0380  -31.5800 C   0  0  0  0  0  0  0  0  0  0  0  0
   -3.6150   23.8960  -30.5870 C   0  0  0  0  0  0  0  0  0  0  0  0
   -3.9930   25.2470  -30.5150 O   0  0  0  0  0  0  0  0  0  0  0  0
   -5.3340   25.7080  -30.3870 C   0  0  0  0  0  0  0  0  0  0  0  0
   -2.7090   23.4100  -29.6290 C   0  0  0  0  0  0  0  0  0  0  0  0
   -2.2460   24.3350  -28.6740 O   0  0  0  0  0  0  0  0  0  0  0  0
   -2.7430   24.5090  -27.3510 C   0  0  0  0  0  0  0  0  0  0  0  0
   -0.0202   22.1791  -27.3115 H   0  0  0  0  0  0  0  0  0  0  0  0
    0.6508   21.4958  -28.8313 H   0  0  0  0  0  0  0  0  0  0  0  0
   -0.0853   23.1344  -28.8313 H   0  0  0  0  0  0  0  0  0  0  0  0
   -2.5355   20.1506  -30.6904 H   0  0  0  0  0  0  0  0  0  0  0  0
   -4.6216   21.4214  -33.5374 H   0  0  0  0  0  0  0  0  0  0  0  0
   -1.4147   20.7775  -32.4149 H   0  0  0  0  0  0  0  0  0  0  0  0
   -0.1570   18.8050  -33.5510 H   0  0  0  0  0  0  0  0  0  0  0  0
   -0.8543   16.6194  -35.0325 H   0  0  0  0  0  0  0  0  0  0  0  0
   -2.8337   15.4065  -36.0078 H   0  0  0  0  0  0  0  0  0  0  0  0
   -5.1472   16.3035  -35.6741 H   0  0  0  0  0  0  0  0  0  0  0  0
   -5.5082   18.4220  -34.3626 H   0  0  0  0  0  0  0  0  0  0  0  0
   -4.8703   17.9722  -31.9189 H   0  0  0  0  0  0  0  0  0  0  0  0
   -7.3370   17.5220  -31.2150 H   0  0  0  0  0  0  0  0  0  0  0  0
   -9.6230   19.0113  -31.0008 H   0  0  0  0  0  0  0  0  0  0  0  0
  -10.5293   21.3438  -31.3025 H   0  0  0  0  0  0  0  0  0  0  0  0
   -6.5956   22.7165  -32.5759 H   0  0  0  0  0  0  0  0  0  0  0  0
   -4.8271   23.4266  -32.3248 H   0  0  0  0  0  0  0  0  0  0  0  0
   -5.5912   25.7964  -29.3211 H   0  0  0  0  0  0  0  0  0  0  0  0
   -5.4314   26.6912  -30.8705 H   0  0  0  0  0  0  0  0  0  0  0  0
   -6.0154   24.9925  -30.8705 H   0  0  0  0  0  0  0  0  0  0  0  0
   -1.9615   24.2354  -26.6268 H   0  0  0  0  0  0  0  0  0  0  0  0
   -3.0289   25.5607  -27.2021 H   0  0  0  0  0  0  0  0  0  0  0  0
   -3.6225   23.8653  -27.2021 H   0  0  0  0  0  0  0  0  0  0  0  0
  1  2  1  0
  2  3  1  0
  3  4  2  0
  4  5  1  0
  5  6  1  0
  6  7  1  0
  7  8  2  0
  8  9  1  0
  9 10  1  0
 10 11  2  0
 11 12  1  0
 12 13  2  0
 13 14  1  0
 14 15  2  0
  6 16  1  0
 16 17  2  0
 17 18  1  0
 18 19  1  0
 19 20  2  0
 20 21  1  0
 21 22  2  0
 22 23  1  0
 22 24  1  0
 24 25  2  0
  5 26  2  0
 26 27  1  0
 27 28  1  0
 28 29  1  0
 27 30  2  0
 30 31  1  0
 31 32  1  0
 30  3  1  0
 15  7  1  0
 25 16  1  0
 15 10  1  0
 25 19  1  0
  1 33  1  0
  1 34  1  0
  1 35  1  0
  4 36  1  0
  6 37  1  6
  8 38  1  0
  9 39  1  0
 11 40  1  0
 12 41  1  0
 13 42  1  0
 14 43  1  0
 17 44  1  0
 18 45  1  0
 20 46  1  0
 21 47  1  0
 24 48  1  0
 26 49  1  0
 29 50  1  0
 29 51  1  0
 29 52  1  0
 32 53  1  0
 32 54  1  0
 32 55  1  0
M  END
>  <UniqueID>  (32) 
30

>  <SMILES>  (32) 
COc1cc([C@@H](c2c[nH]c3ccccc23)c2c[nH]c3ccc(F)cc23)cc(OC)c1OC

>  <Energy>  (32) 
129.04643432614296

>  <Genealogy>  (32) 
COc1cc([C@@H](c2c[nH]c3ccccc23)c2c[nH]c3ccc(F)cc23)cc(OC)c1OC (chirality)
COc1cc([C@@H](c2c[nH]c3ccccc23)c2c[nH]c3ccc(F)cc23)cc(OC)c1OC (3D coordinates assigned)
COc1cc([C@@H](c2c[nH]c3ccccc23)c2c[nH]c3ccc(F)cc23)cc(OC)c1OC (optimized conformer: 129.04643432614296 kcal/mol)

>  <smiles>  (32) 
COc1cc(C(c2c[nH]c3ccccc23)c2c[nH]c3ccc(F)cc23)cc(OC)c1OC

>  <score_type>  (32) 
oracle

>  <origin>  (32) 
adgpu

>  <m_score__min__energy>  (32) 
-9.1999999999999993

>  <m_primary>  (32) 
energy

$$$$
32:0
     RDKit          3D

 50 53  0  0  0  0  0  0  0  0999 V2000
   -0.5590   23.0950  -26.1710 C   0  0  0  0  0  0  0  0  0  0  0  0
   -0.2780   22.1860  -27.3290 C   0  0  0  0  0  0  0  0  0  0  0  0
   -0.1470   20.9520  -27.1180 O   0  0  0  0  0  0  0  0  0  0  0  0
   -0.1160   22.6830  -28.6640 N   0  0  0  0  0  0  0  0  0  0  0  0
   -0.8210   22.2400  -29.8340 C   0  0  0  0  0  0  0  0  0  0  0  0
   -0.3850   21.1160  -30.5550 C   0  0  0  0  0  0  0  0  0  0  0  0
   -1.0600   20.7060  -31.7060 C   0  0  0  0  0  0  0  0  0  0  0  0
   -2.1700   21.4290  -32.1740 C   0  0  0  0  0  0  0  0  0  0  0  0
   -2.8910   21.0140  -33.3480 N   0  0  0  0  0  0  0  0  0  0  0  0
   -3.6960   19.8270  -33.4110 C   0  0  0  0  0  0  0  0  0  0  0  0
   -3.1150   18.6530  -33.8970 C   0  0  0  0  0  0  0  0  0  0  0  0
   -3.8730   17.4960  -34.0940 C   0  0  0  0  0  0  0  0  0  0  0  0
   -3.2030   16.2770  -34.6720 C   0  0  0  0  0  0  0  0  0  0  0  0
   -5.2530   17.5030  -33.7940 C   0  0  0  0  0  0  0  0  0  0  0  0
   -6.0530   16.3580  -34.1300 N   0  0  0  0  0  0  0  0  0  0  0  0
   -5.8450   18.6660  -33.2280 C   0  0  0  0  0  0  0  0  0  0  0  0
   -5.0680   19.8440  -33.0630 C   0  0  0  0  0  0  0  0  0  0  0  0
   -5.7130   21.0680  -32.4980 C   0  0  0  0  0  0  0  0  0  0  0  0
   -5.0160   22.0530  -32.1310 O   0  0  0  0  0  0  0  0  0  0  0  0
   -7.1810   21.1260  -32.3310 C   0  0  0  0  0  0  0  0  0  0  0  0
   -7.8250   22.3380  -32.0220 C   0  0  0  0  0  0  0  0  0  0  0  0
   -9.2090   22.3770  -31.8450 C   0  0  0  0  0  0  0  0  0  0  0  0
   -9.9630   21.2090  -31.9690 C   0  0  0  0  0  0  0  0  0  0  0  0
   -9.3340   19.9990  -32.2700 C   0  0  0  0  0  0  0  0  0  0  0  0
   -7.9410   19.9500  -32.4570 C   0  0  0  0  0  0  0  0  0  0  0  0
   -7.2610   18.6720  -32.7520 C   0  0  0  0  0  0  0  0  0  0  0  0
   -7.8700   17.5910  -32.5290 O   0  0  0  0  0  0  0  0  0  0  0  0
   -2.5970   22.5590  -31.4630 C   0  0  0  0  0  0  0  0  0  0  0  0
   -1.9220   22.9790  -30.3070 C   0  0  0  0  0  0  0  0  0  0  0  0
   -2.4760   24.4130  -29.4380 S   0  0  0  0  0  0  0  0  0  0  0  0
   -1.2910   25.2490  -29.0450 O   0  0  0  0  0  0  0  0  0  0  0  0
   -3.2300   24.0200  -28.1980 O   0  0  0  0  0  0  0  0  0  0  0  0
   -3.4950   25.3080  -30.4290 O   0  0  0  0  0  0  0  0  0  0  0  0
   -0.3911   22.5518  -25.2293 H   0  0  0  0  0  0  0  0  0  0  0  0
    0.1120   23.9654  -26.2169 H   0  0  0  0  0  0  0  0  0  0  0  0
   -1.6042   23.4349  -26.2169 H   0  0  0  0  0  0  0  0  0  0  0  0
    0.4955   20.5543  -30.2097 H   0  0  0  0  0  0  0  0  0  0  0  0
   -0.7209   19.8118  -32.2496 H   0  0  0  0  0  0  0  0  0  0  0  0
   -2.7730   21.5660  -34.2290 H   0  0  0  0  0  0  0  0  0  0  0  0
   -2.0398   18.6394  -34.1291 H   0  0  0  0  0  0  0  0  0  0  0  0
   -2.8482   15.6315  -33.8550 H   0  0  0  0  0  0  0  0  0  0  0  0
   -3.9228   15.7220  -35.2915 H   0  0  0  0  0  0  0  0  0  0  0  0
   -2.3487   16.5873  -35.2915 H   0  0  0  0  0  0  0  0  0  0  0  0
   -6.9340   16.1340  -33.6170 H   0  0  0  0  0  0  0  0  0  0  0  0
   -5.6980   15.6290  -34.7870 H   0  0  0  0  0  0  0  0  0  0  0  0
   -7.2344   23.2603  -31.9193 H   0  0  0  0  0  0  0  0  0  0  0  0
   -9.7059   23.3292  -31.6076 H   0  0  0  0  0  0  0  0  0  0  0  0
  -11.0536   21.2416  -31.8295 H   0  0  0  0  0  0  0  0  0  0  0  0
   -9.9311   19.0797  -32.3613 H   0  0  0  0  0  0  0  0  0  0  0  0
   -3.4725   23.1237  -31.8159 H   0  0  0  0  0  0  0  0  0  0  0  0
  1  2  1  0
  2  3  2  0
  2  4  1  0
  4  5  1  0
  5  6  2  0
  6  7  1  0
  7  8  2  0
  8  9  1  0
  9 10  1  0
 10 11  2  0
 11 12  1  0
 12 13  1  0
 12 14  2  0
 14 15  1  0
 14 16  1  0
 16 17  2  0
 17 18  1  0
 18 19  2  0
 18 20  1  0
 20 21  2  0
 21 22  1  0
 22 23  2  0
 23 24  1  0
 24 25  2  0
 25 26  1  0
 26 27  2  0
  8 28  1  0
 28 29  2  0
 29 30  1  0
 30 31  2  0
 30 32  2  0
 30 33  1  0
 29  5  1  0
 17 10  1  0
 25 20  1  0
 26 16  1  0
  1 34  1  0
  1 35  1  0
  1 36  1  0
  6 37  1  0
  7 38  1  0
  9 39  1  0
 11 40  1  0
 13 41  1  0
 13 42  1  0
 13 43  1  0
 15 44  1  0
 15 45  1  0
 21 46  1  0
 22 47  1  0
 23 48  1  0
 24 49  1  0
 28 50  1  0
M  CHG  2   4  -1  33  -1
M  END
>  <UniqueID>  (33) 
31

>  <SMILES>  (33) 
CC(=O)[N-]c1ccc(Nc2cc(C)c(N)c3c2C(=O)c2ccccc2C3=O)cc1S(=O)(=O)[O-]

>  <Energy>  (33) 
81.12688454454486

>  <Genealogy>  (33) 
CC(=O)[N-]c1ccc(Nc2cc(C)c(N)c3c2C(=O)c2ccccc2C3=O)cc1S(=O)(=O)[O-] (protonated)
CC(=O)[N-]c1ccc(Nc2cc(C)c(N)c3c2C(=O)c2ccccc2C3=O)cc1S(=O)(=O)[O-] (3D coordinates assigned)
CC(=O)[N-]c1ccc(Nc2cc(C)c(N)c3c2C(=O)c2ccccc2C3=O)cc1S(=O)(=O)[O-] (nonaromatic ring conformer: 81.12688454454486 kcal/mol)

>  <smiles>  (33) 
CC(=O)Nc1ccc(Nc2cc(C)c(N)c3c2C(=O)c2ccccc2C3=O)cc1S(=O)(=O)O

>  <score_type>  (33) 
oracle

>  <origin>  (33) 
adgpu

>  <m_score__min__energy>  (33) 
-13.6

>  <m_primary>  (33) 
energy

$$$$
33:0
     RDKit          3D

 49 51  0  0  0  0  0  0  0  0999 V2000
   -2.2810   20.5550  -33.8320 C   0  0  0  0  0  0  0  0  0  0  0  0
   -3.4620   20.6760  -32.8730 C   0  0  0  0  0  0  0  0  0  0  0  0
   -4.6810   20.3220  -33.5250 O   0  0  0  0  0  0  0  0  0  0  0  0
   -5.1600   19.0140  -33.7270 C   0  0  0  0  0  0  0  0  0  0  0  0
   -4.3760   18.0160  -34.3300 C   0  0  0  0  0  0  0  0  0  0  0  0
   -4.8840   16.7230  -34.4800 C   0  0  0  0  0  0  0  0  0  0  0  0
   -4.1650   15.8440  -35.0280 O   0  0  0  0  0  0  0  0  0  0  0  0
   -6.1430   16.4170  -34.0390 N   0  0  0  0  0  0  0  0  0  0  0  0
   -6.6750   15.0590  -34.2140 C   0  0  0  0  0  0  0  0  0  0  0  0
   -6.9310   17.3790  -33.4710 C   0  0  0  0  0  0  0  0  0  0  0  0
   -6.4630   18.6940  -33.3070 C   0  0  0  0  0  0  0  0  0  0  0  0
   -7.3460   19.7110  -32.6880 C   0  0  0  0  0  0  0  0  0  0  0  0
   -8.7340   19.6790  -32.9040 C   0  0  0  0  0  0  0  0  0  0  0  0
   -9.5650   20.6250  -32.2980 C   0  0  0  0  0  0  0  0  0  0  0  0
   -9.0210   21.6100  -31.4700 C   0  0  0  0  0  0  0  0  0  0  0  0
   -7.6370   21.6590  -31.2460 C   0  0  0  0  0  0  0  0  0  0  0  0
   -7.0550   22.6970  -30.3200 C   0  0  0  0  0  0  0  0  0  0  0  0
   -6.0710   23.6250  -31.0470 C   0  0  0  0  0  0  0  0  0  0  0  0
   -4.7570   22.9200  -31.4030 C   0  0  0  0  0  0  0  0  0  0  0  0
   -3.7280   23.2470  -30.4160 N   0  0  0  0  0  0  0  0  0  0  0  0
   -2.9320   22.3840  -29.7570 C   0  0  0  0  0  0  0  0  0  0  0  0
   -3.0110   21.0010  -29.8820 O   0  0  0  0  0  0  0  0  0  0  0  0
   -2.0290   23.0550  -28.9580 C   0  0  0  0  0  0  0  0  0  0  0  0
   -2.2770   24.4050  -29.1480 C   0  0  0  0  0  0  0  0  0  0  0  0
   -3.3180   24.4770  -30.0530 C   0  0  0  0  0  0  0  0  0  0  0  0
   -3.8690   25.6570  -30.5380 O   0  0  0  0  0  0  0  0  0  0  0  0
   -6.8050   20.7040  -31.8530 C   0  0  0  0  0  0  0  0  0  0  0  0
   -1.3490   20.4595  -33.2557 H   0  0  0  0  0  0  0  0  0  0  0  0
   -2.4129   19.6657  -34.4658 H   0  0  0  0  0  0  0  0  0  0  0  0
   -2.2299   21.4526  -34.4658 H   0  0  0  0  0  0  0  0  0  0  0  0
   -3.3022   20.0038  -32.0171 H   0  0  0  0  0  0  0  0  0  0  0  0
   -3.5342   21.7192  -32.5316 H   0  0  0  0  0  0  0  0  0  0  0  0
   -3.3618   18.2527  -34.6842 H   0  0  0  0  0  0  0  0  0  0  0  0
   -6.8529   14.6050  -33.2280 H   0  0  0  0  0  0  0  0  0  0  0  0
   -7.6215   15.1052  -34.7725 H   0  0  0  0  0  0  0  0  0  0  0  0
   -5.9490   14.4499  -34.7725 H   0  0  0  0  0  0  0  0  0  0  0  0
   -7.9466   17.1199  -33.1373 H   0  0  0  0  0  0  0  0  0  0  0  0
   -9.1688   18.9051  -33.5536 H   0  0  0  0  0  0  0  0  0  0  0  0
  -10.6505   20.5940  -32.4734 H   0  0  0  0  0  0  0  0  0  0  0  0
   -9.6801   22.3497  -30.9921 H   0  0  0  0  0  0  0  0  0  0  0  0
   -7.8741   23.3024  -29.9046 H   0  0  0  0  0  0  0  0  0  0  0  0
   -6.5055   22.1739  -29.5235 H   0  0  0  0  0  0  0  0  0  0  0  0
   -6.5423   23.9829  -31.9742 H   0  0  0  0  0  0  0  0  0  0  0  0
   -5.8319   24.4575  -30.3690 H   0  0  0  0  0  0  0  0  0  0  0  0
   -4.9189   21.8320  -31.4131 H   0  0  0  0  0  0  0  0  0  0  0  0
   -4.4244   23.2579  -32.3955 H   0  0  0  0  0  0  0  0  0  0  0  0
   -1.2665   22.6085  -28.3028 H   0  0  0  0  0  0  0  0  0  0  0  0
   -1.7518   25.2477  -28.6746 H   0  0  0  0  0  0  0  0  0  0  0  0
   -5.7202   20.7334  -31.6733 H   0  0  0  0  0  0  0  0  0  0  0  0
  1  2  1  0
  2  3  1  0
  3  4  1  0
  4  5  2  0
  5  6  1  0
  6  7  2  0
  6  8  1  0
  8  9  1  0
  8 10  1  0
 10 11  2  0
 11 12  1  0
 12 13  2  0
 13 14  1  0
 14 15  2  0
 15 16  1  0
 16 17  1  0
 17 18  1  0
 18 19  1  0
 19 20  1  0
 20 21  1  0
 21 22  1  0
 21 23  2  0
 23 24  1  0
 24 25  2  0
 25 26  1  0
 16 27  2  0
 11  4  1  0
 27 12  1  0
 25 20  1  0
  1 28  1  0
  1 29  1  0
  1 30  1  0
  2 31  1  0
  2 32  1  0
  5 33  1  0
  9 34  1  0
  9 35  1  0
  9 36  1  0
 10 37  1  0
 13 38  1  0
 14 39  1  0
 15 40  1  0
 17 41  1  0
 17 42  1  0
 18 43  1  0
 18 44  1  0
 19 45  1  0
 19 46  1  0
 23 47  1  0
 24 48  1  0
 27 49  1  0
M  CHG  2  22  -1  26  -1
M  END
>  <UniqueID>  (34) 
32

>  <SMILES>  (34) 
CCOc1cc(=O)n(C)cc1-c1cccc(CCCn2c([O-])ccc2[O-])c1

>  <Energy>  (34) 
79.56355373906193

>  <Genealogy>  (34) 
CCOc1cc(=O)n(C)cc1-c1cccc(CCCn2c([O-])ccc2[O-])c1 (protonated)
CCOc1cc(=O)n(C)cc1-c1cccc(CCCn2c([O-])ccc2[O-])c1 (3D coordinates assigned)
CCOc1cc(=O)n(C)cc1-c1cccc(CCCn2c([O-])ccc2[O-])c1 (optimized conformer: 79.56355373906193 kcal/mol)

>  <smiles>  (34) 
CCOc1cc(=O)n(C)cc1-c1cccc(CCCn2c(O)ccc2O)c1

>  <score_type>  (34) 
oracle

>  <origin>  (34) 
adgpu

>  <m_score__min__energy>  (34) 
-11.31

>  <m_primary>  (34) 
energy

$$$$
34:0
     RDKit          3D

 60 63  0  0  0  0  0  0  0  0999 V2000
   -7.0140   17.4580  -32.1240 C   0  0  0  0  0  0  0  0  0  0  0  0
   -7.2570   18.9360  -32.1990 C   0  0  0  0  0  0  0  0  0  0  0  0
   -8.1840   19.4960  -31.3760 N   0  0  0  0  0  0  0  0  0  0  0  0
   -8.4510   20.8300  -31.3850 C   0  0  0  0  0  0  0  0  0  0  0  0
   -9.4820   21.3710  -30.4410 C   0  0  0  0  0  0  0  0  0  0  0  0
   -7.7530   21.6550  -32.2840 C   0  0  0  0  0  0  0  0  0  0  0  0
   -8.0590   23.4260  -32.3860 S   0  0  0  0  0  0  0  0  0  0  0  0
   -6.5110   23.8460  -31.5810 C   0  0  0  0  0  0  0  0  0  0  0  0
   -5.3460   23.1200  -31.8550 C   0  0  0  0  0  0  0  0  0  0  0  0
   -4.1460   23.4520  -31.2170 C   0  0  0  0  0  0  0  0  0  0  0  0
   -4.1040   24.5170  -30.3000 C   0  0  0  0  0  0  0  0  0  0  0  0
   -2.8850   24.8940  -29.6450 N   0  0  0  0  0  0  0  0  0  0  0  0
   -1.7970   24.0140  -29.3430 C   0  0  0  0  0  0  0  0  0  0  0  0
   -0.6360   24.4930  -29.2510 O   0  0  0  0  0  0  0  0  0  0  0  0
   -2.0380   22.6300  -29.0390 N   0  0  0  0  0  0  0  0  0  0  0  0
   -1.0050   21.6360  -28.9240 C   0  0  0  0  0  0  0  0  0  0  0  0
   -0.9200   20.6210  -29.8860 C   0  0  0  0  0  0  0  0  0  0  0  0
    0.0880   19.6550  -29.8120 C   0  0  0  0  0  0  0  0  0  0  0  0
    1.0470   19.7040  -28.7890 C   0  0  0  0  0  0  0  0  0  0  0  0
    2.1180   18.6850  -28.7070 C   0  0  0  0  0  0  0  0  0  0  0  0
    3.1080   18.7680  -29.4840 O   0  0  0  0  0  0  0  0  0  0  0  0
    2.0480   17.5940  -27.7720 N   0  0  0  0  0  0  0  0  0  0  0  0
    3.2230   17.2300  -26.9720 C   0  0  0  0  0  0  0  0  0  0  0  0
    3.2680   15.7090  -26.7830 C   0  0  0  0  0  0  0  0  0  0  0  0
    2.0300   15.2240  -26.2960 O   0  0  0  0  0  0  0  0  0  0  0  0
    1.0200   15.4290  -27.2670 C   0  0  0  0  0  0  0  0  0  0  0  0
    0.7750   16.9260  -27.4830 C   0  0  0  0  0  0  0  0  0  0  0  0
    0.9640   20.7220  -27.8240 C   0  0  0  0  0  0  0  0  0  0  0  0
   -0.0460   21.6870  -27.8970 C   0  0  0  0  0  0  0  0  0  0  0  0
   -5.2620   25.2650  -30.0620 C   0  0  0  0  0  0  0  0  0  0  0  0
   -6.4630   24.9250  -30.6910 C   0  0  0  0  0  0  0  0  0  0  0  0
   -6.8130   21.1030  -33.0960 N   0  0  0  0  0  0  0  0  0  0  0  0
   -6.5400   19.7690  -33.0820 C   0  0  0  0  0  0  0  0  0  0  0  0
   -5.5050   19.2260  -34.0220 C   0  0  0  0  0  0  0  0  0  0  0  0
   -6.9630   17.1478  -31.0699 H   0  0  0  0  0  0  0  0  0  0  0  0
   -7.8366   16.9253  -32.6236 H   0  0  0  0  0  0  0  0  0  0  0  0
   -6.0641   17.2168  -32.6236 H   0  0  0  0  0  0  0  0  0  0  0  0
   -9.1558   21.1999  -29.4045 H   0  0  0  0  0  0  0  0  0  0  0  0
   -9.6061   22.4504  -30.6129 H   0  0  0  0  0  0  0  0  0  0  0  0
  -10.4407   20.8598  -30.6129 H   0  0  0  0  0  0  0  0  0  0  0  0
   -5.3741   22.2872  -32.5731 H   0  0  0  0  0  0  0  0  0  0  0  0
   -3.2328   22.8782  -31.4334 H   0  0  0  0  0  0  0  0  0  0  0  0
   -3.0080   22.3570  -28.7650 H   0  0  0  0  0  0  0  0  0  0  0  0
   -1.6522   20.5838  -30.7061 H   0  0  0  0  0  0  0  0  0  0  0  0
    0.1295   18.8507  -30.5613 H   0  0  0  0  0  0  0  0  0  0  0  0
    4.1351   17.5613  -27.4900 H   0  0  0  0  0  0  0  0  0  0  0  0
    3.1594   17.7178  -25.9881 H   0  0  0  0  0  0  0  0  0  0  0  0
    3.4865   15.2321  -27.7499 H   0  0  0  0  0  0  0  0  0  0  0  0
    4.0526   15.4687  -26.0504 H   0  0  0  0  0  0  0  0  0  0  0  0
    1.3346   14.9734  -28.2175 H   0  0  0  0  0  0  0  0  0  0  0  0
    0.0879   14.9648  -26.9124 H   0  0  0  0  0  0  0  0  0  0  0  0
    0.0870   17.0663  -28.3297 H   0  0  0  0  0  0  0  0  0  0  0  0
    0.3320   17.3595  -26.5742 H   0  0  0  0  0  0  0  0  0  0  0  0
    1.6981   20.7603  -27.0057 H   0  0  0  0  0  0  0  0  0  0  0  0
   -0.0902   22.4902  -27.1468 H   0  0  0  0  0  0  0  0  0  0  0  0
   -5.2272   26.1247  -29.3767 H   0  0  0  0  0  0  0  0  0  0  0  0
   -7.3734   25.5074  -30.4858 H   0  0  0  0  0  0  0  0  0  0  0  0
   -4.6764   18.7913  -33.4436 H   0  0  0  0  0  0  0  0  0  0  0  0
   -5.9570   18.4489  -34.6559 H   0  0  0  0  0  0  0  0  0  0  0  0
   -5.1225   20.0396  -34.6559 H   0  0  0  0  0  0  0  0  0  0  0  0
  1  2  1  0
  2  3  2  0
  3  4  1  0
  4  5  1  0
  4  6  2  0
  6  7  1  0
  7  8  1  0
  8  9  2  0
  9 10  1  0
 10 11  2  0
 11 12  1  0
 12 13  1  0
 13 14  2  0
 13 15  1  0
 15 16  1  0
 16 17  2  0
 17 18  1  0
 18 19  2  0
 19 20  1  0
 20 21  2  0
 20 22  1  0
 22 23  1  0
 23 24  1  0
 24 25  1  0
 25 26  1  0
 26 27  1  0
 19 28  1  0
 28 29  2  0
 11 30  1  0
 30 31  2  0
  6 32  1  0
 32 33  2  0
 33 34  1  0
 33  2  1  0
 31  8  1  0
 29 16  1  0
 27 22  1  0
  1 35  1  0
  1 36  1  0
  1 37  1  0
  5 38  1  0
  5 39  1  0
  5 40  1  0
  9 41  1  0
 10 42  1  0
 15 43  1  0
 17 44  1  0
 18 45  1  0
 23 46  1  0
 23 47  1  0
 24 48  1  0
 24 49  1  0
 26 50  1  0
 26 51  1  0
 27 52  1  0
 27 53  1  0
 28 54  1  0
 29 55  1  0
 30 56  1  0
 31 57  1  0
 34 58  1  0
 34 59  1  0
 34 60  1  0
M  CHG  1  12  -1
M  END
>  <UniqueID>  (35) 
33

>  <SMILES>  (35) 
Cc1nc(C)c(Sc2ccc([N-]C(=O)Nc3ccc(C(=O)N4CCOCC4)cc3)cc2)nc1C

>  <Energy>  (35) 
72.7299711213284

>  <Genealogy>  (35) 
Cc1nc(C)c(Sc2ccc([N-]C(=O)Nc3ccc(C(=O)N4CCOCC4)cc3)cc2)nc1C (protonated)
Cc1nc(C)c(Sc2ccc([N-]C(=O)Nc3ccc(C(=O)N4CCOCC4)cc3)cc2)nc1C (3D coordinates assigned)
Cc1nc(C)c(Sc2ccc([N-]C(=O)Nc3ccc(C(=O)N4CCOCC4)cc3)cc2)nc1C (nonaromatic ring conformer: 72.7299711213284 kcal/mol)

>  <smiles>  (35) 
Cc1nc(C)c(Sc2ccc(NC(=O)Nc3ccc(C(=O)N4CCOCC4)cc3)cc2)nc1C

>  <score_type>  (35) 
oracle

>  <origin>  (35) 
adgpu

>  <m_score__min__energy>  (35) 
-11.640000000000001

>  <m_primary>  (35) 
energy

$$$$
35:0
     RDKit          3D

 54 57  0  0  1  0  0  0  0  0999 V2000
    0.0640   18.2640  -27.5770 C   0  0  0  0  0  0  0  0  0  0  0  0
   -1.2260   18.9090  -27.2440 C   0  0  0  0  0  0  0  0  0  0  0  0
   -1.5910   20.2010  -27.6000 C   0  0  0  0  0  0  0  0  0  0  0  0
   -2.8590   20.4150  -27.1020 C   0  0  0  0  0  0  0  0  0  0  0  0
   -3.6220   21.4430  -27.1670 N   0  0  0  0  0  0  0  0  0  0  0  0
   -3.1640   22.6050  -27.8520 C   0  0  0  0  0  0  0  0  0  0  0  0
   -2.1040   23.3750  -27.3850 C   0  0  0  0  0  0  0  0  0  0  0  0
   -1.6510   24.4970  -28.0310 C   0  0  0  0  0  0  0  0  0  0  0  0
   -0.5640   25.2860  -27.5450 N   0  0  0  0  0  0  0  0  0  0  0  0
   -0.7820   26.5610  -26.9030 C   0  0  0  0  0  0  0  0  0  0  0  0
    0.3760   27.5190  -27.0530 C   0  0  0  0  0  0  0  0  0  0  0  0
    1.6640   26.9440  -26.8860 N   0  0  0  0  0  0  0  0  0  0  0  0
    1.6540   25.5150  -26.6850 C   0  0  0  0  0  0  0  0  0  0  0  0
    0.7860   24.8060  -27.6910 C   0  0  0  0  0  0  0  0  0  0  0  0
   -2.2820   24.8450  -29.1680 N   0  0  0  0  0  0  0  0  0  0  0  0
   -3.3270   24.1180  -29.6620 C   0  0  0  0  0  0  0  0  0  0  0  0
   -3.9140   24.4760  -30.7560 N   0  0  0  0  0  0  0  0  0  0  0  0
   -5.0020   23.7100  -31.2620 C   0  0  0  0  0  0  0  0  0  0  0  0
   -6.2720   24.1420  -30.9330 C   0  0  0  0  0  0  0  0  0  0  0  0
   -6.4880   25.3490  -30.0910 C   0  0  0  0  0  0  0  0  0  0  0  0
   -7.3320   23.4180  -31.4110 C   0  0  0  0  0  0  0  0  0  0  0  0
   -7.1650   22.2800  -32.2040 C   0  0  0  0  0  0  0  0  0  0  0  0
   -5.8740   21.8820  -32.5100 C   0  0  0  0  0  0  0  0  0  0  0  0
   -4.7890   22.5930  -32.0420 C   0  0  0  0  0  0  0  0  0  0  0  0
   -3.3920   22.1970  -32.3500 C   0  0  0  0  0  0  0  0  0  0  0  0
   -3.7370   23.0330  -29.0030 N   0  0  0  0  0  0  0  0  0  0  0  0
   -3.2230   19.2790  -26.4710 N   0  0  0  0  0  0  0  0  0  0  0  0
   -2.2470   18.3780  -26.5550 N   0  0  0  0  0  0  0  0  0  0  0  0
    0.5922   17.9999  -26.6490 H   0  0  0  0  0  0  0  0  0  0  0  0
   -0.1225   17.3531  -28.1647 H   0  0  0  0  0  0  0  0  0  0  0  0
    0.6809   18.9597  -28.1647 H   0  0  0  0  0  0  0  0  0  0  0  0
   -0.9833   20.9181  -28.1713 H   0  0  0  0  0  0  0  0  0  0  0  0
   -1.6053   23.0697  -26.4533 H   0  0  0  0  0  0  0  0  0  0  0  0
   -1.6764   27.0245  -27.3449 H   0  0  0  0  0  0  0  0  0  0  0  0
   -0.9010   26.3645  -25.8273 H   0  0  0  0  0  0  0  0  0  0  0  0
    0.3270   27.9564  -28.0611 H   0  0  0  0  0  0  0  0  0  0  0  0
    0.2658   28.2587  -26.2463 H   0  0  0  0  0  0  0  0  0  0  0  0
    2.3350   27.4350  -26.2930 H   0  0  0  0  0  0  0  0  0  0  0  0
    2.6830   25.1371  -26.7759 H   0  0  0  0  0  0  0  0  0  0  0  0
    1.2424   25.3172  -25.6843 H   0  0  0  0  0  0  0  0  0  0  0  0
    1.1475   25.0175  -28.7081 H   0  0  0  0  0  0  0  0  0  0  0  0
    0.8213   23.7197  -27.5216 H   0  0  0  0  0  0  0  0  0  0  0  0
   -2.0240   25.6770  -29.7410 H   0  0  0  0  0  0  0  0  0  0  0  0
   -6.4378   25.0686  -29.0285 H   0  0  0  0  0  0  0  0  0  0  0  0
   -5.7089   26.0937  -30.3109 H   0  0  0  0  0  0  0  0  0  0  0  0
   -7.4771   25.7773  -30.3109 H   0  0  0  0  0  0  0  0  0  0  0  0
   -8.3523   23.7446  -31.1613 H   0  0  0  0  0  0  0  0  0  0  0  0
   -8.0338   21.7162  -32.5747 H   0  0  0  0  0  0  0  0  0  0  0  0
   -5.7126   20.9897  -33.1327 H   0  0  0  0  0  0  0  0  0  0  0  0
   -2.8399   22.0405  -31.4116 H   0  0  0  0  0  0  0  0  0  0  0  0
   -3.3954   21.2644  -32.9333 H   0  0  0  0  0  0  0  0  0  0  0  0
   -2.9055   22.9926  -32.9333 H   0  0  0  0  0  0  0  0  0  0  0  0
   -4.1450   19.1020  -25.9730 H   0  0  0  0  0  0  0  0  0  0  0  0
   -2.2680   17.4130  -26.1540 H   0  0  0  0  0  0  0  0  0  0  0  0
  1  2  1  0
  2  3  2  0
  3  4  1  0
  4  5  2  0
  5  6  1  0
  6  7  1  0
  7  8  2  0
  8  9  1  0
  9 10  1  0
 10 11  1  0
 11 12  1  0
 12 13  1  0
 13 14  1  0
  8 15  1  0
 15 16  1  0
 16 17  2  0
 17 18  1  0
 18 19  2  0
 19 20  1  0
 19 21  1  0
 21 22  2  0
 22 23  1  0
 23 24  2  0
 24 25  1  0
 16 26  1  0
  4 27  1  0
 27 28  1  0
 28  2  1  0
 26  6  2  0
 14  9  1  0
 24 18  1  0
  1 29  1  0
  1 30  1  0
  1 31  1  0
  3 32  1  0
  7 33  1  0
 10 34  1  0
 10 35  1  0
 11 36  1  0
 11 37  1  0
 12 38  1  0
 13 39  1  0
 13 40  1  0
 14 41  1  0
 14 42  1  0
 15 43  1  0
 20 44  1  0
 20 45  1  0
 20 46  1  0
 21 47  1  0
 22 48  1  0
 23 49  1  0
 25 50  1  0
 25 51  1  0
 25 52  1  0
 27 53  1  0
 28 54  1  0
M  END
>  <smiles>  (36) 
Cc1cc(=Nc2cc(N3CCNCC3)[nH]c(=Nc3c(C)cccc3C)n2)[nH][nH]1

>  <score_type>  (36) 
oracle

>  <origin>  (36) 
adgpu

>  <m_score__min__energy>  (36) 
-9.2300000000000004

>  <m_primary>  (36) 
energy

$$$$
36:0
     RDKit          3D

 80 82  0  0  0  0  0  0  0  0999 V2000
   -3.4760   18.6640  -26.0060 C   0  0  0  0  0  0  0  0  0  0  0  0
   -2.3040   19.5820  -26.3500 C   0  0  0  0  0  0  0  0  0  0  0  0
   -1.7420   19.3130  -27.7530 C   0  0  0  0  0  0  0  0  0  0  0  0
   -1.7890   20.5420  -28.6300 C   0  0  0  0  0  0  0  0  0  0  0  0
   -2.6770   21.5800  -28.2900 C   0  0  0  0  0  0  0  0  0  0  0  0
   -2.7600   22.7470  -29.0690 C   0  0  0  0  0  0  0  0  0  0  0  0
   -3.6900   23.8020  -28.7260 N   0  0  0  0  0  0  0  0  0  0  0  0
   -3.9010   24.1710  -27.3230 C   0  0  0  0  0  0  0  0  0  0  0  0
   -4.4510   24.4930  -29.7720 C   0  0  0  0  0  0  0  0  0  0  0  0
   -1.9330   22.8620  -30.1970 C   0  0  0  0  0  0  0  0  0  0  0  0
   -1.0560   21.8370  -30.5490 C   0  0  0  0  0  0  0  0  0  0  0  0
   -0.9680   20.6670  -29.7690 C   0  0  0  0  0  0  0  0  0  0  0  0
   -0.0960   19.6120  -30.1030 O   0  0  0  0  0  0  0  0  0  0  0  0
    1.0880   19.7290  -30.8930 C   0  0  0  0  0  0  0  0  0  0  0  0
    0.7610   20.0690  -32.3550 C   0  0  0  0  0  0  0  0  0  0  0  0
    0.2240   18.8740  -33.1640 C   0  0  0  0  0  0  0  0  0  0  0  0
   -1.2040   19.0730  -33.6780 C   0  0  0  0  0  0  0  0  0  0  0  0
   -2.1150   19.1370  -32.5840 O   0  0  0  0  0  0  0  0  0  0  0  0
   -3.1270   20.0970  -32.4480 C   0  0  0  0  0  0  0  0  0  0  0  0
   -4.1240   19.8780  -31.4910 C   0  0  0  0  0  0  0  0  0  0  0  0
   -5.1700   20.7900  -31.3340 C   0  0  0  0  0  0  0  0  0  0  0  0
   -5.2280   21.9440  -32.1290 C   0  0  0  0  0  0  0  0  0  0  0  0
   -6.3830   22.8950  -32.0030 C   0  0  0  0  0  0  0  0  0  0  0  0
   -7.3020   22.4610  -30.8900 C   0  0  0  0  0  0  0  0  0  0  0  0
   -7.1780   22.9790  -29.7890 O   0  0  0  0  0  0  0  0  0  0  0  0
   -8.2940   21.4250  -31.1060 N   0  0  1  0  0  0  0  0  0  0  0  0
   -9.6560   21.9130  -30.8190 C   0  0  0  0  0  0  0  0  0  0  0  0
   -8.1800   20.7720  -32.4340 C   0  0  0  0  0  0  0  0  0  0  0  0
   -8.3320   19.2300  -32.4520 C   0  0  0  0  0  0  0  0  0  0  0  0
   -7.0910   18.5130  -32.9360 C   0  0  0  0  0  0  0  0  0  0  0  0
   -6.5960   17.3930  -32.2420 C   0  0  0  0  0  0  0  0  0  0  0  0
   -5.4510   16.7330  -32.6920 C   0  0  0  0  0  0  0  0  0  0  0  0
   -4.7640   17.2070  -33.8140 C   0  0  0  0  0  0  0  0  0  0  0  0
   -5.2190   18.3490  -34.4840 C   0  0  0  0  0  0  0  0  0  0  0  0
   -6.3790   18.9970  -34.0500 C   0  0  0  0  0  0  0  0  0  0  0  0
   -4.2240   22.1730  -33.0810 C   0  0  0  0  0  0  0  0  0  0  0  0
   -3.1770   21.2600  -33.2370 C   0  0  0  0  0  0  0  0  0  0  0  0
   -3.5734   18.5877  -24.9130 H   0  0  0  0  0  0  0  0  0  0  0  0
   -4.4030   19.0788  -26.4287 H   0  0  0  0  0  0  0  0  0  0  0  0
   -3.2953   17.6647  -26.4287 H   0  0  0  0  0  0  0  0  0  0  0  0
   -2.6469   20.6260  -26.3010 H   0  0  0  0  0  0  0  0  0  0  0  0
   -1.5009   19.3869  -25.6240 H   0  0  0  0  0  0  0  0  0  0  0  0
   -0.6965   18.9842  -27.6591 H   0  0  0  0  0  0  0  0  0  0  0  0
   -2.3640   18.5374  -28.2237 H   0  0  0  0  0  0  0  0  0  0  0  0
   -3.3160   21.4762  -27.4007 H   0  0  0  0  0  0  0  0  0  0  0  0
   -3.4611   23.4017  -26.6714 H   0  0  0  0  0  0  0  0  0  0  0  0
   -3.4204   25.1399  -27.1224 H   0  0  0  0  0  0  0  0  0  0  0  0
   -4.9798   24.2483  -27.1224 H   0  0  0  0  0  0  0  0  0  0  0  0
   -5.1889   25.1630  -29.3066 H   0  0  0  0  0  0  0  0  0  0  0  0
   -3.7637   25.0821  -30.3970 H   0  0  0  0  0  0  0  0  0  0  0  0
   -4.9712   23.7522  -30.3970 H   0  0  0  0  0  0  0  0  0  0  0  0
   -1.9773   23.7731  -30.8117 H   0  0  0  0  0  0  0  0  0  0  0  0
   -0.4264   21.9428  -31.4448 H   0  0  0  0  0  0  0  0  0  0  0  0
    1.7195   20.5261  -30.4738 H   0  0  0  0  0  0  0  0  0  0  0  0
    1.6116   18.7618  -30.8735 H   0  0  0  0  0  0  0  0  0  0  0  0
    0.0012   20.8644  -32.3648 H   0  0  0  0  0  0  0  0  0  0  0  0
    1.7025   20.3815  -32.8303 H   0  0  0  0  0  0  0  0  0  0  0  0
    0.8854   18.7140  -34.0283 H   0  0  0  0  0  0  0  0  0  0  0  0
    0.2045   18.0083  -32.4856 H   0  0  0  0  0  0  0  0  0  0  0  0
   -1.2570   20.0107  -34.2506 H   0  0  0  0  0  0  0  0  0  0  0  0
   -1.4756   18.2242  -34.3228 H   0  0  0  0  0  0  0  0  0  0  0  0
   -4.0836   18.9800  -30.8570 H   0  0  0  0  0  0  0  0  0  0  0  0
   -5.9519   20.6024  -30.5834 H   0  0  0  0  0  0  0  0  0  0  0  0
   -6.0004   23.9030  -31.7848 H   0  0  0  0  0  0  0  0  0  0  0  0
   -6.9454   22.9005  -32.9484 H   0  0  0  0  0  0  0  0  0  0  0  0
   -8.1140   20.6700  -30.4020 H   0  0  0  0  0  0  0  0  0  0  0  0
   -9.8046   21.9662  -29.7304 H   0  0  0  0  0  0  0  0  0  0  0  0
   -9.7866   22.9139  -31.2563 H   0  0  0  0  0  0  0  0  0  0  0  0
  -10.3925   21.2228  -31.2563 H   0  0  0  0  0  0  0  0  0  0  0  0
   -8.9607   21.1940  -33.0839 H   0  0  0  0  0  0  0  0  0  0  0  0
   -7.1528   20.9711  -32.7734 H   0  0  0  0  0  0  0  0  0  0  0  0
   -8.5564   18.8891  -31.4305 H   0  0  0  0  0  0  0  0  0  0  0  0
   -9.1427   18.9903  -33.1558 H   0  0  0  0  0  0  0  0  0  0  0  0
   -7.1142   17.0357  -31.3399 H   0  0  0  0  0  0  0  0  0  0  0  0
   -5.0888   15.8390  -32.1633 H   0  0  0  0  0  0  0  0  0  0  0  0
   -3.8654   16.6822  -34.1704 H   0  0  0  0  0  0  0  0  0  0  0  0
   -4.6640   18.7360  -35.3513 H   0  0  0  0  0  0  0  0  0  0  0  0
   -6.7377   19.8905  -34.5820 H   0  0  0  0  0  0  0  0  0  0  0  0
   -4.2606   23.0759  -33.7083 H   0  0  0  0  0  0  0  0  0  0  0  0
   -2.3889   21.4521  -33.9800 H   0  0  0  0  0  0  0  0  0  0  0  0
  1  2  1  0
  2  3  1  0
  3  4  1  0
  4  5  2  0
  5  6  1  0
  6  7  1  0
  7  8  1  0
  7  9  1  0
  6 10  2  0
 10 11  1  0
 11 12  2  0
 12 13  1  0
 13 14  1  0
 14 15  1  0
 15 16  1  0
 16 17  1  0
 17 18  1  0
 18 19  1  0
 19 20  2  0
 20 21  1  0
 21 22  2  0
 22 23  1  0
 23 24  1  0
 24 25  2  0
 24 26  1  0
 26 27  1  0
 26 28  1  0
 28 29  1  0
 29 30  1  0
 30 31  2  0
 31 32  1  0
 32 33  2  0
 33 34  1  0
 34 35  2  0
 22 36  1  0
 36 37  2  0
 12  4  1  0
 37 19  1  0
 35 30  1  0
  1 38  1  0
  1 39  1  0
  1 40  1  0
  2 41  1  0
  2 42  1  0
  3 43  1  0
  3 44  1  0
  5 45  1  0
  8 46  1  0
  8 47  1  0
  8 48  1  0
  9 49  1  0
  9 50  1  0
  9 51  1  0
 10 52  1  0
 11 53  1  0
 14 54  1  0
 14 55  1  0
 15 56  1  0
 15 57  1  0
 16 58  1  0
 16 59  1  0
 17 60  1  0
 17 61  1  0
 20 62  1  0
 21 63  1  0
 23 64  1  0
 23 65  1  0
 26 66  1  1
 27 67  1  0
 27 68  1  0
 27 69  1  0
 28 70  1  0
 28 71  1  0
 29 72  1  0
 29 73  1  0
 31 74  1  0
 32 75  1  0
 33 76  1  0
 34 77  1  0
 35 78  1  0
 36 79  1  0
 37 80  1  0
M  CHG  1  26   1
M  END
>  <UniqueID>  (37) 
34

>  <SMILES>  (37) 
CCCc1cc(N(C)C)ccc1OCCCCOc1ccc(CC(=O)[N@@H+](C)CCc2ccccc2)cc1

>  <Energy>  (37) 
72.80873240908855

>  <Genealogy>  (37) 
CCCc1cc(N(C)C)ccc1OCCCCOc1ccc(CC(=O)[NH+](C)CCc2ccccc2)cc1 (protonated)
CCCc1cc(N(C)C)ccc1OCCCCOc1ccc(CC(=O)[N@@H+](C)CCc2ccccc2)cc1 (chirality)
CCCc1cc(N(C)C)ccc1OCCCCOc1ccc(CC(=O)[N@@H+](C)CCc2ccccc2)cc1 (3D coordinates assigned)
CCCc1cc(N(C)C)ccc1OCCCCOc1ccc(CC(=O)[N@@H+](C)CCc2ccccc2)cc1 (optimized conformer: 72.80873240908855 kcal/mol)

>  <smiles>  (37) 
CCCc1cc(N(C)C)ccc1OCCCCOc1ccc(CC(=O)N(C)CCc2ccccc2)cc1

>  <score_type>  (37) 
oracle

>  <origin>  (37) 
adgpu

>  <m_score__min__energy>  (37) 
-9.1400000000000006

>  <m_primary>  (37) 
energy

$$$$
37:0
     RDKit          3D

 51 55  0  0  0  0  0  0  0  0999 V2000
   -5.8470   25.7560  -30.0680 C   0  0  0  0  0  0  0  0  0  0  0  0
   -4.6860   25.4300  -30.8260 O   0  0  0  0  0  0  0  0  0  0  0  0
   -4.0010   24.2080  -30.7410 C   0  0  0  0  0  0  0  0  0  0  0  0
   -4.4610   23.0400  -31.3830 C   0  0  0  0  0  0  0  0  0  0  0  0
   -3.7240   21.8490  -31.3060 C   0  0  0  0  0  0  0  0  0  0  0  0
   -4.1890   20.6470  -32.0250 C   0  0  0  0  0  0  0  0  0  0  0  0
   -5.4810   20.4540  -32.3920 N   0  0  0  0  0  0  0  0  0  0  0  0
   -5.4630   19.2270  -32.9550 C   0  0  0  0  0  0  0  0  0  0  0  0
   -6.5420   18.6030  -33.4870 N   0  0  0  0  0  0  0  0  0  0  0  0
   -6.3830   17.3660  -34.0430 C   0  0  0  0  0  0  0  0  0  0  0  0
   -5.1150   16.7520  -34.0710 C   0  0  0  0  0  0  0  0  0  0  0  0
   -4.0240   17.4320  -33.5140 C   0  0  0  0  0  0  0  0  0  0  0  0
   -4.2520   18.6500  -32.9650 N   0  0  0  0  0  0  0  0  0  0  0  0
   -3.4270   19.5370  -32.3940 C   0  0  0  0  0  0  0  0  0  0  0  0
   -2.0040   19.3680  -32.2830 N   0  0  0  0  0  0  0  0  0  0  0  0
   -1.0660   20.0000  -33.1690 C   0  0  0  0  0  0  0  0  0  0  0  0
   -1.3460   20.1390  -34.5390 C   0  0  0  0  0  0  0  0  0  0  0  0
   -0.4670   20.8340  -35.3700 C   0  0  0  0  0  0  0  0  0  0  0  0
    0.7090   21.3960  -34.8450 C   0  0  0  0  0  0  0  0  0  0  0  0
    1.5930   22.1320  -35.6460 O   0  0  0  0  0  0  0  0  0  0  0  0
    1.6020   23.5300  -35.7600 C   0  0  0  0  0  0  0  0  0  0  0  0
    2.7820   24.2840  -35.6000 C   0  0  0  0  0  0  0  0  0  0  0  0
    2.7540   25.6750  -35.7330 C   0  0  0  0  0  0  0  0  0  0  0  0
    1.5540   26.3250  -36.0360 C   0  0  0  0  0  0  0  0  0  0  0  0
    0.3840   25.5810  -36.2150 C   0  0  0  0  0  0  0  0  0  0  0  0
    0.4090   24.1900  -36.0830 C   0  0  0  0  0  0  0  0  0  0  0  0
    1.0250   21.1900  -33.4980 C   0  0  0  0  0  0  0  0  0  0  0  0
    0.1420   20.4970  -32.6630 C   0  0  0  0  0  0  0  0  0  0  0  0
   -2.5420   21.8170  -30.5510 C   0  0  0  0  0  0  0  0  0  0  0  0
   -2.0900   22.9670  -29.9030 C   0  0  0  0  0  0  0  0  0  0  0  0
   -2.8140   24.1590  -29.9990 C   0  0  0  0  0  0  0  0  0  0  0  0
   -2.3460   25.2990  -29.3560 O   0  0  0  0  0  0  0  0  0  0  0  0
   -5.6145   25.6907  -28.9948 H   0  0  0  0  0  0  0  0  0  0  0  0
   -6.1688   26.7792  -30.3119 H   0  0  0  0  0  0  0  0  0  0  0  0
   -6.6544   25.0498  -30.3119 H   0  0  0  0  0  0  0  0  0  0  0  0
   -5.4044   23.0629  -31.9482 H   0  0  0  0  0  0  0  0  0  0  0  0
   -7.2514   16.8448  -34.4723 H   0  0  0  0  0  0  0  0  0  0  0  0
   -4.9842   15.7572  -34.5218 H   0  0  0  0  0  0  0  0  0  0  0  0
   -3.0159   16.9920  -33.5220 H   0  0  0  0  0  0  0  0  0  0  0  0
   -1.6370   18.7590  -31.5180 H   0  0  0  0  0  0  0  0  0  0  0  0
   -2.2624   19.6978  -34.9581 H   0  0  0  0  0  0  0  0  0  0  0  0
   -0.6955   20.9425  -36.4405 H   0  0  0  0  0  0  0  0  0  0  0  0
    3.7296   23.7752  -35.3693 H   0  0  0  0  0  0  0  0  0  0  0  0
    3.6767   26.2587  -35.5992 H   0  0  0  0  0  0  0  0  0  0  0  0
    1.5304   27.4204  -36.1334 H   0  0  0  0  0  0  0  0  0  0  0  0
   -0.5588   26.0919  -36.4604 H   0  0  0  0  0  0  0  0  0  0  0  0
   -0.5134   23.6098  -36.2336 H   0  0  0  0  0  0  0  0  0  0  0  0
    1.9726   21.5749  -33.0932 H   0  0  0  0  0  0  0  0  0  0  0  0
    0.3974   20.3417  -31.6044 H   0  0  0  0  0  0  0  0  0  0  0  0
   -1.9692   20.8814  -30.4696 H   0  0  0  0  0  0  0  0  0  0  0  0
   -1.1610   22.9356  -29.3147 H   0  0  0  0  0  0  0  0  0  0  0  0
  1  2  1  0
  2  3  1  0
  3  4  2  0
  4  5  1  0
  5  6  1  0
  6  7  1  0
  7  8  2  0
  8  9  1  0
  9 10  2  0
 10 11  1  0
 11 12  2  0
 12 13  1  0
 13 14  1  0
 14 15  1  0
 15 16  1  0
 16 17  2  0
 17 18  1  0
 18 19  2  0
 19 20  1  0
 20 21  1  0
 21 22  2  0
 22 23  1  0
 23 24  2  0
 24 25  1  0
 25 26  2  0
 19 27  1  0
 27 28  2  0
  5 29  2  0
 29 30  1  0
 30 31  2  0
 31 32  1  0
 31  3  1  0
 14  6  2  0
 28 16  1  0
 13  8  1  0
 26 21  1  0
  1 33  1  0
  1 34  1  0
  1 35  1  0
  4 36  1  0
 10 37  1  0
 11 38  1  0
 12 39  1  0
 15 40  1  0
 17 41  1  0
 18 42  1  0
 22 43  1  0
 23 44  1  0
 24 45  1  0
 25 46  1  0
 26 47  1  0
 27 48  1  0
 28 49  1  0
 29 50  1  0
 30 51  1  0
M  CHG  1  32  -1
M  END
>  <UniqueID>  (38) 
35

>  <SMILES>  (38) 
COc1cc(-c2nc3ncccn3c2Nc2ccc(Oc3ccccc3)cc2)ccc1[O-]

>  <Energy>  (38) 
107.42149715487287

>  <Genealogy>  (38) 
COc1cc(-c2nc3ncccn3c2Nc2ccc(Oc3ccccc3)cc2)ccc1[O-] (protonated)
COc1cc(-c2nc3ncccn3c2Nc2ccc(Oc3ccccc3)cc2)ccc1[O-] (3D coordinates assigned)
COc1cc(-c2nc3ncccn3c2Nc2ccc(Oc3ccccc3)cc2)ccc1[O-] (optimized conformer: 107.42149715487287 kcal/mol)

>  <smiles>  (38) 
COc1cc(-c2nc3ncccn3c2Nc2ccc(Oc3ccccc3)cc2)ccc1O

>  <score_type>  (38) 
oracle

>  <origin>  (38) 
adgpu

>  <m_score__min__energy>  (38) 
-12.039999999999999

>  <m_primary>  (38) 
energy

$$$$
38:0
     RDKit          3D

 39 41  0  0  0  0  0  0  0  0999 V2000
   -4.1630   16.3840  -34.7550 C   0  0  0  0  0  0  0  0  0  0  0  0
   -3.4950   17.6410  -34.2810 C   0  0  0  0  0  0  0  0  0  0  0  0
   -2.2010   18.0080  -34.5960 C   0  0  0  0  0  0  0  0  0  0  0  0
   -1.9630   19.2010  -33.9470 C   0  0  0  0  0  0  0  0  0  0  0  0
   -3.1270   19.5270  -33.2730 C   0  0  0  0  0  0  0  0  0  0  0  0
   -3.3140   20.7610  -32.4750 C   0  0  0  0  0  0  0  0  0  0  0  0
   -4.2350   21.7440  -32.8740 C   0  0  0  0  0  0  0  0  0  0  0  0
   -4.4060   22.9040  -32.1130 C   0  0  0  0  0  0  0  0  0  0  0  0
   -3.6490   23.1040  -30.9530 C   0  0  0  0  0  0  0  0  0  0  0  0
   -3.8810   24.5570  -29.9870 S   0  0  0  0  0  0  0  0  0  0  0  0
   -2.3600   25.0780  -29.3530 N   0  0  0  0  0  0  0  0  0  0  0  0
   -4.8270   24.2720  -28.8550 O   0  0  0  0  0  0  0  0  0  0  0  0
   -4.4660   25.6480  -30.8390 O   0  0  0  0  0  0  0  0  0  0  0  0
   -2.7220   22.1310  -30.5560 C   0  0  0  0  0  0  0  0  0  0  0  0
   -2.5500   20.9710  -31.3150 C   0  0  0  0  0  0  0  0  0  0  0  0
   -4.0660   18.5720  -33.4830 N   0  0  0  0  0  0  0  0  0  0  0  0
   -5.3680   18.4900  -32.8780 C   0  0  0  0  0  0  0  0  0  0  0  0
   -5.6050   17.5850  -31.8300 C   0  0  0  0  0  0  0  0  0  0  0  0
   -6.8660   17.5140  -31.2340 C   0  0  0  0  0  0  0  0  0  0  0  0
   -7.9000   18.3420  -31.6790 C   0  0  0  0  0  0  0  0  0  0  0  0
   -7.6770   19.2500  -32.7240 C   0  0  0  0  0  0  0  0  0  0  0  0
   -8.7330   20.1010  -33.1760 N   0  0  0  0  0  0  0  0  0  0  0  0
   -6.4090   19.3200  -33.3200 C   0  0  0  0  0  0  0  0  0  0  0  0
   -4.4800   15.7875  -33.8869 H   0  0  0  0  0  0  0  0  0  0  0  0
   -5.0425   16.6429  -35.3628 H   0  0  0  0  0  0  0  0  0  0  0  0
   -3.4563   15.8000  -35.3628 H   0  0  0  0  0  0  0  0  0  0  0  0
   -1.4985   17.4568  -35.2384 H   0  0  0  0  0  0  0  0  0  0  0  0
   -1.0287   19.7814  -33.9620 H   0  0  0  0  0  0  0  0  0  0  0  0
   -4.8252   21.5999  -33.7910 H   0  0  0  0  0  0  0  0  0  0  0  0
   -5.1382   23.6624  -32.4270 H   0  0  0  0  0  0  0  0  0  0  0  0
   -2.5030   26.0390  -28.9680 H   0  0  0  0  0  0  0  0  0  0  0  0
   -2.1273   22.2813  -29.6429 H   0  0  0  0  0  0  0  0  0  0  0  0
   -1.8120   20.2176  -31.0025 H   0  0  0  0  0  0  0  0  0  0  0  0
   -4.7945   16.9300  -31.4776 H   0  0  0  0  0  0  0  0  0  0  0  0
   -7.0457   16.8048  -30.4125 H   0  0  0  0  0  0  0  0  0  0  0  0
   -8.8922   18.2813  -31.2079 H   0  0  0  0  0  0  0  0  0  0  0  0
   -9.0730   20.0530  -34.1620 H   0  0  0  0  0  0  0  0  0  0  0  0
   -9.1820   20.7870  -32.5290 H   0  0  0  0  0  0  0  0  0  0  0  0
   -6.2297   20.0310  -34.1400 H   0  0  0  0  0  0  0  0  0  0  0  0
  1  2  1  0
  2  3  2  0
  3  4  1  0
  4  5  2  0
  5  6  1  0
  6  7  2  0
  7  8  1  0
  8  9  2  0
  9 10  1  0
 10 11  1  0
 10 12  2  0
 10 13  2  0
  9 14  1  0
 14 15  2  0
  5 16  1  0
 16 17  1  0
 17 18  2  0
 18 19  1  0
 19 20  2  0
 20 21  1  0
 21 22  1  0
 21 23  2  0
 16  2  1  0
 23 17  1  0
 15  6  1  0
  1 24  1  0
  1 25  1  0
  1 26  1  0
  3 27  1  0
  4 28  1  0
  7 29  1  0
  8 30  1  0
 11 31  1  0
 14 32  1  0
 15 33  1  0
 18 34  1  0
 19 35  1  0
 20 36  1  0
 22 37  1  0
 22 38  1  0
 23 39  1  0
M  CHG  1  11  -1
M  END
>  <UniqueID>  (39) 
36

>  <SMILES>  (39) 
Cc1ccc(-c2ccc(S([NH-])(=O)=O)cc2)n1-c1cccc(N)c1

>  <Energy>  (39) 
75.10093666457736

>  <Genealogy>  (39) 
Cc1ccc(-c2ccc(S([NH-])(=O)=O)cc2)n1-c1cccc(N)c1 (protonated)
Cc1ccc(-c2ccc(S([NH-])(=O)=O)cc2)n1-c1cccc(N)c1 (3D coordinates assigned)
Cc1ccc(-c2ccc(S([NH-])(=O)=O)cc2)n1-c1cccc(N)c1 (optimized conformer: 75.10093666457736 kcal/mol)

>  <smiles>  (39) 
Cc1ccc(-c2ccc(S(N)(=O)=O)cc2)n1-c1cccc(N)c1

>  <score_type>  (39) 
oracle

>  <origin>  (39) 
adgpu

>  <m_score__min__energy>  (39) 
-10.48

>  <m_primary>  (39) 
energy

$$$$
39:0
     RDKit          3D

 57 60  0  0  0  0  0  0  0  0999 V2000
    2.1500   26.3830  -24.0800 C   0  0  0  0  0  0  0  0  0  0  0  0
    0.8690   26.1650  -23.3990 N   0  0  0  0  0  0  0  0  0  0  0  0
   -0.2300   26.9100  -24.0370 C   0  0  0  0  0  0  0  0  0  0  0  0
   -0.8890   26.1090  -25.1360 C   0  0  0  0  0  0  0  0  0  0  0  0
   -0.1070   25.4660  -26.1070 C   0  0  0  0  0  0  0  0  0  0  0  0
   -0.7140   24.7420  -27.1370 C   0  0  0  0  0  0  0  0  0  0  0  0
   -2.1160   24.6510  -27.2170 C   0  0  0  0  0  0  0  0  0  0  0  0
   -2.7610   23.8820  -28.3120 C   0  0  0  0  0  0  0  0  0  0  0  0
   -3.2950   24.5430  -29.4330 C   0  0  0  0  0  0  0  0  0  0  0  0
   -3.9070   23.8190  -30.4600 C   0  0  0  0  0  0  0  0  0  0  0  0
   -3.9950   22.4230  -30.3820 C   0  0  0  0  0  0  0  0  0  0  0  0
   -4.7850   21.4980  -31.6560 S   0  0  0  0  0  0  0  0  0  0  0  0
   -4.5470   20.0370  -31.3890 O   0  0  0  0  0  0  0  0  0  0  0  0
   -4.2000   21.8360  -32.9960 O   0  0  0  0  0  0  0  0  0  0  0  0
   -6.5210   21.8500  -31.6590 C   0  0  0  0  0  0  0  0  0  0  0  0
   -6.9490   23.1810  -31.5390 C   0  0  0  0  0  0  0  0  0  0  0  0
   -8.2670   23.4930  -31.6420 N   0  0  0  0  0  0  0  0  0  0  0  0
   -9.2100   22.5430  -31.8680 C   0  0  0  0  0  0  0  0  0  0  0  0
   -8.8380   21.2060  -31.9920 C   0  0  0  0  0  0  0  0  0  0  0  0
   -7.4920   20.8430  -31.8590 C   0  0  0  0  0  0  0  0  0  0  0  0
   -7.0590   19.0960  -31.9810 S   0  0  0  0  0  0  0  0  0  0  0  0
   -6.4810   19.1650  -33.7160 C   0  0  0  0  0  0  0  0  0  0  0  0
   -5.4130   18.1430  -33.9800 C   0  0  0  0  0  0  0  0  0  0  0  0
   -4.0890   18.5460  -34.2280 C   0  0  0  0  0  0  0  0  0  0  0  0
   -3.1010   17.5920  -34.4900 C   0  0  0  0  0  0  0  0  0  0  0  0
   -3.4250   16.2320  -34.5060 C   0  0  0  0  0  0  0  0  0  0  0  0
   -4.7400   15.8240  -34.2620 C   0  0  0  0  0  0  0  0  0  0  0  0
   -5.7330   16.7750  -34.0030 C   0  0  0  0  0  0  0  0  0  0  0  0
   -3.4610   21.7580  -29.2720 C   0  0  0  0  0  0  0  0  0  0  0  0
   -2.8500   22.4790  -28.2440 C   0  0  0  0  0  0  0  0  0  0  0  0
   -2.8950   25.3020  -26.2440 C   0  0  0  0  0  0  0  0  0  0  0  0
   -2.2880   26.0260  -25.2150 C   0  0  0  0  0  0  0  0  0  0  0  0
    2.9448   26.5182  -23.3316 H   0  0  0  0  0  0  0  0  0  0  0  0
    2.3836   25.5117  -24.7095 H   0  0  0  0  0  0  0  0  0  0  0  0
    2.0822   27.2825  -24.7095 H   0  0  0  0  0  0  0  0  0  0  0  0
    0.6530   25.1420  -23.3820 H   0  0  0  0  0  0  0  0  0  0  0  0
    0.9620   26.4960  -22.4110 H   0  0  0  0  0  0  0  0  0  0  0  0
   -0.9838   27.1548  -23.2742 H   0  0  0  0  0  0  0  0  0  0  0  0
    0.1909   27.8222  -24.4849 H   0  0  0  0  0  0  0  0  0  0  0  0
    0.9899   25.5319  -26.0575 H   0  0  0  0  0  0  0  0  0  0  0  0
   -0.0908   24.2393  -27.8912 H   0  0  0  0  0  0  0  0  0  0  0  0
   -3.2304   25.6389  -29.5019 H   0  0  0  0  0  0  0  0  0  0  0  0
   -4.3207   24.3468  -31.3319 H   0  0  0  0  0  0  0  0  0  0  0  0
   -6.2117   23.9775  -31.3602 H   0  0  0  0  0  0  0  0  0  0  0  0
  -10.2687   22.8290  -31.9533 H   0  0  0  0  0  0  0  0  0  0  0  0
   -9.5992   20.4380  -32.1937 H   0  0  0  0  0  0  0  0  0  0  0  0
   -7.3330   18.9729  -34.3847 H   0  0  0  0  0  0  0  0  0  0  0  0
   -6.0571   20.1633  -33.8997 H   0  0  0  0  0  0  0  0  0  0  0  0
   -3.8297   19.6149  -34.2159 H   0  0  0  0  0  0  0  0  0  0  0  0
   -2.0666   17.9121  -34.6839 H   0  0  0  0  0  0  0  0  0  0  0  0
   -2.6456   15.4832  -34.7105 H   0  0  0  0  0  0  0  0  0  0  0  0
   -4.9941   14.7538  -34.2737 H   0  0  0  0  0  0  0  0  0  0  0  0
   -6.7675   16.4507  -33.8168 H   0  0  0  0  0  0  0  0  0  0  0  0
   -3.5230   20.6615  -29.2092 H   0  0  0  0  0  0  0  0  0  0  0  0
   -2.4354   21.9468  -27.3751 H   0  0  0  0  0  0  0  0  0  0  0  0
   -3.9922   25.2406  -26.2936 H   0  0  0  0  0  0  0  0  0  0  0  0
   -2.9096   26.5337  -24.4627 H   0  0  0  0  0  0  0  0  0  0  0  0
  1  2  1  0
  2  3  1  0
  3  4  1  0
  4  5  2  0
  5  6  1  0
  6  7  2  0
  7  8  1  0
  8  9  2  0
  9 10  1  0
 10 11  2  0
 11 12  1  0
 12 13  2  0
 12 14  2  0
 12 15  1  0
 15 16  2  0
 16 17  1  0
 17 18  2  0
 18 19  1  0
 19 20  2  0
 20 21  1  0
 21 22  1  0
 22 23  1  0
 23 24  2  0
 24 25  1  0
 25 26  2  0
 26 27  1  0
 27 28  2  0
 11 29  1  0
 29 30  2  0
  7 31  1  0
 31 32  2  0
 32  4  1  0
 30  8  1  0
 20 15  1  0
 28 23  1  0
  1 33  1  0
  1 34  1  0
  1 35  1  0
  2 36  1  0
  2 37  1  0
  3 38  1  0
  3 39  1  0
  5 40  1  0
  6 41  1  0
  9 42  1  0
 10 43  1  0
 16 44  1  0
 18 45  1  0
 19 46  1  0
 22 47  1  0
 22 48  1  0
 24 49  1  0
 25 50  1  0
 26 51  1  0
 27 52  1  0
 28 53  1  0
 29 54  1  0
 30 55  1  0
 31 56  1  0
 32 57  1  0
M  CHG  1   2   1
M  END
>  <UniqueID>  (40) 
37

>  <SMILES>  (40) 
C[NH2+]Cc1ccc(-c2ccc(S(=O)(=O)c3cnccc3SCc3ccccc3)cc2)cc1

>  <Energy>  (40) 
64.41015266235303

>  <Genealogy>  (40) 
C[NH2+]Cc1ccc(-c2ccc(S(=O)(=O)c3cnccc3SCc3ccccc3)cc2)cc1 (protonated)
C[NH2+]Cc1ccc(-c2ccc(S(=O)(=O)c3cnccc3SCc3ccccc3)cc2)cc1 (3D coordinates assigned)
C[NH2+]Cc1ccc(-c2ccc(S(=O)(=O)c3cnccc3SCc3ccccc3)cc2)cc1 (optimized conformer: 64.41015266235303 kcal/mol)

>  <smiles>  (40) 
CNCc1ccc(-c2ccc(S(=O)(=O)c3cnccc3SCc3ccccc3)cc2)cc1

>  <score_type>  (40) 
oracle

>  <origin>  (40) 
adgpu

>  <m_score__min__energy>  (40) 
-10.84

>  <m_primary>  (40) 
energy

$$$$
40:0
     RDKit          3D

 44 46  0  0  0  0  0  0  0  0999 V2000
   -7.0180   21.9970  -32.6760 C   0  0  0  0  0  0  0  0  0  0  0  0
   -7.4630   20.5700  -32.4970 C   0  0  0  0  0  0  0  0  0  0  0  0
   -8.8340   20.2630  -32.5180 C   0  0  0  0  0  0  0  0  0  0  0  0
   -9.2690   18.9490  -32.3350 C   0  0  0  0  0  0  0  0  0  0  0  0
   -8.3430   17.9290  -32.1160 C   0  0  0  0  0  0  0  0  0  0  0  0
   -6.9780   18.2190  -32.0820 C   0  0  0  0  0  0  0  0  0  0  0  0
   -6.5260   19.5330  -32.2750 C   0  0  0  0  0  0  0  0  0  0  0  0
   -5.0740   19.8080  -32.1970 C   0  0  0  0  0  0  0  0  0  0  0  0
   -4.6150   20.6310  -31.1580 C   0  0  0  0  0  0  0  0  0  0  0  0
   -3.2460   20.9020  -31.0020 C   0  0  0  0  0  0  0  0  0  0  0  0
   -2.7510   21.7270  -29.9290 N   0  0  0  0  0  0  0  0  0  0  0  0
   -2.9120   23.1810  -29.8600 C   0  0  0  0  0  0  0  0  0  0  0  0
   -4.3720   23.5640  -29.9320 C   0  0  0  0  0  0  0  0  0  0  0  0
   -5.3390   22.7020  -29.3860 C   0  0  0  0  0  0  0  0  0  0  0  0
   -6.6950   23.0330  -29.4400 C   0  0  0  0  0  0  0  0  0  0  0  0
   -7.1000   24.2310  -30.0290 C   0  0  0  0  0  0  0  0  0  0  0  0
   -6.1500   25.1070  -30.5590 C   0  0  0  0  0  0  0  0  0  0  0  0
   -4.7850   24.7850  -30.5090 C   0  0  0  0  0  0  0  0  0  0  0  0
   -3.8450   25.6750  -31.0310 O   0  0  0  0  0  0  0  0  0  0  0  0
   -2.3390   20.3470  -31.9130 C   0  0  0  0  0  0  0  0  0  0  0  0
   -2.7830   19.5340  -32.9560 C   0  0  0  0  0  0  0  0  0  0  0  0
   -4.1530   19.2610  -33.1260 C   0  0  0  0  0  0  0  0  0  0  0  0
   -4.6120   18.3650  -34.2610 C   0  0  0  0  0  0  0  0  0  0  0  0
   -3.5670   18.1240  -35.1330 F   0  0  0  0  0  0  0  0  0  0  0  0
   -5.0640   17.1430  -33.7930 F   0  0  0  0  0  0  0  0  0  0  0  0
   -5.6440   18.9790  -34.9450 F   0  0  0  0  0  0  0  0  0  0  0  0
   -6.8729   22.4623  -31.6899 H   0  0  0  0  0  0  0  0  0  0  0  0
   -6.0705   22.0183  -33.2345 H   0  0  0  0  0  0  0  0  0  0  0  0
   -7.7854   22.5531  -33.2345 H   0  0  0  0  0  0  0  0  0  0  0  0
   -9.5702   21.0641  -32.6799 H   0  0  0  0  0  0  0  0  0  0  0  0
  -10.3440   18.7176  -32.3636 H   0  0  0  0  0  0  0  0  0  0  0  0
   -8.6888   16.8950  -31.9699 H   0  0  0  0  0  0  0  0  0  0  0  0
   -6.2522   17.4121  -31.9027 H   0  0  0  0  0  0  0  0  0  0  0  0
   -5.3380   21.0706  -30.4551 H   0  0  0  0  0  0  0  0  0  0  0  0
   -2.2780   21.2620  -29.1210 H   0  0  0  0  0  0  0  0  0  0  0  0
   -2.4899   23.5458  -28.9120 H   0  0  0  0  0  0  0  0  0  0  0  0
   -2.3864   23.6345  -30.7133 H   0  0  0  0  0  0  0  0  0  0  0  0
   -5.0255   21.7598  -28.9127 H   0  0  0  0  0  0  0  0  0  0  0  0
   -7.4447   22.3479  -29.0174 H   0  0  0  0  0  0  0  0  0  0  0  0
   -8.1690   24.4861  -30.0761 H   0  0  0  0  0  0  0  0  0  0  0  0
   -6.4731   26.0532  -31.0175 H   0  0  0  0  0  0  0  0  0  0  0  0
   -3.9270   26.0430  -31.9700 H   0  0  0  0  0  0  0  0  0  0  0  0
   -1.2641   20.5544  -31.8050 H   0  0  0  0  0  0  0  0  0  0  0  0
   -2.0525   19.1005  -33.6549 H   0  0  0  0  0  0  0  0  0  0  0  0
  1  2  1  0
  2  3  2  0
  3  4  1  0
  4  5  2  0
  5  6  1  0
  6  7  2  0
  7  8  1  0
  8  9  2  0
  9 10  1  0
 10 11  1  0
 11 12  1  0
 12 13  1  0
 13 14  2  0
 14 15  1  0
 15 16  2  0
 16 17  1  0
 17 18  2  0
 18 19  1  0
 10 20  2  0
 20 21  1  0
 21 22  2  0
 22 23  1  0
 23 24  1  0
 23 25  1  0
 23 26  1  0
  7  2  1  0
 22  8  1  0
 18 13  1  0
  1 27  1  0
  1 28  1  0
  1 29  1  0
  3 30  1  0
  4 31  1  0
  5 32  1  0
  6 33  1  0
  9 34  1  0
 11 35  1  0
 12 36  1  0
 12 37  1  0
 14 38  1  0
 15 39  1  0
 16 40  1  0
 17 41  1  0
 19 42  1  0
 20 43  1  0
 21 44  1  0
M  END
>  <UniqueID>  (41) 
38

>  <SMILES>  (41) 
Cc1ccccc1-c1cc(NCc2ccccc2O)ccc1C(F)(F)F

>  <Energy>  (41) 
55.47123214422674

>  <Genealogy>  (41) 
Cc1ccccc1-c1cc(NCc2ccccc2O)ccc1C(F)(F)F (3D coordinates assigned)
Cc1ccccc1-c1cc(NCc2ccccc2O)ccc1C(F)(F)F (optimized conformer: 55.47123214422674 kcal/mol)

>  <smiles>  (41) 
Cc1ccccc1-c1cc(NCc2ccccc2O)ccc1C(F)(F)F

>  <score_type>  (41) 
oracle

>  <origin>  (41) 
adgpu

>  <m_score__min__energy>  (41) 
-9.4399999999999995

>  <m_primary>  (41) 
energy

$$$$
41:0
     RDKit          3D

 51 54  0  0  1  0  0  0  0  0999 V2000
   -3.9200   21.9030  -33.3080 C   0  0  0  0  0  0  0  0  0  0  0  0
   -4.7510   23.0240  -33.0840 O   0  0  0  0  0  0  0  0  0  0  0  0
   -5.5120   23.0510  -31.9300 C   0  0  0  0  0  0  0  0  0  0  0  0
   -6.8030   22.6010  -31.9490 C   0  0  0  0  0  0  0  0  0  0  0  0
   -7.6140   22.6120  -30.7970 C   0  0  0  0  0  0  0  0  0  0  0  0
   -8.9090   22.0220  -30.9550 C   0  0  0  0  0  0  0  0  0  0  0  0
   -9.2340   20.9540  -31.6240 C   0  0  0  0  0  0  0  0  0  0  0  0
   -8.3540   20.0870  -32.3620 C   0  0  0  0  0  0  0  0  0  0  0  0
   -8.0970   20.0710  -33.5660 O   0  0  0  0  0  0  0  0  0  0  0  0
   -7.6610   19.0870  -31.5940 N   0  0  0  0  0  0  0  0  0  0  0  0
   -6.7880   18.2420  -32.3760 C   0  0  0  0  0  0  0  0  0  0  0  0
   -7.2800   17.0760  -32.9250 C   0  0  0  0  0  0  0  0  0  0  0  0
   -6.4560   16.2520  -33.6800 C   0  0  0  0  0  0  0  0  0  0  0  0
   -5.1500   16.6710  -33.8360 C   0  0  0  0  0  0  0  0  0  0  0  0
   -4.3430   15.8740  -34.5680 N   0  0  0  0  0  0  0  0  0  0  0  0
   -3.0500   16.2210  -34.7630 C   0  0  0  0  0  0  0  0  0  0  0  0
   -2.5530   17.3610  -34.2310 N   0  0  0  0  0  0  0  0  0  0  0  0
   -3.3370   18.1910  -33.4850 C   0  0  0  0  0  0  0  0  0  0  0  0
   -2.8170   19.2730  -32.9960 N   0  0  0  0  0  0  0  0  0  0  0  0
   -1.4450   19.6140  -33.2180 C   0  0  0  0  0  0  0  0  0  0  0  0
   -0.4330   19.2070  -32.3730 C   0  0  0  0  0  0  0  0  0  0  0  0
    0.8460   19.6050  -32.7020 C   0  0  0  0  0  0  0  0  0  0  0  0
    1.0940   20.3780  -33.8300 C   0  0  0  0  0  0  0  0  0  0  0  0
    2.7350   20.8800  -34.2370 Cl  0  0  0  0  0  0  0  0  0  0  0  0
    0.0760   20.7790  -34.6670 C   0  0  0  0  0  0  0  0  0  0  0  0
    0.3440   21.7520  -36.0970 Cl  0  0  0  0  0  0  0  0  0  0  0  0
   -1.2000   20.3890  -34.3490 C   0  0  0  0  0  0  0  0  0  0  0  0
   -4.6550   17.8350  -33.2890 C   0  0  0  0  0  0  0  0  0  0  0  0
   -5.4790   18.6530  -32.5370 C   0  0  0  0  0  0  0  0  0  0  0  0
   -7.0240   23.0950  -29.6760 C   0  0  0  0  0  0  0  0  0  0  0  0
   -5.6910   23.5620  -29.6540 C   0  0  0  0  0  0  0  0  0  0  0  0
   -4.9140   23.5440  -30.7930 C   0  0  0  0  0  0  0  0  0  0  0  0
   -3.6180   23.9870  -30.8190 O   0  0  0  0  0  0  0  0  0  0  0  0
   -3.6065   21.4801  -32.3421 H   0  0  0  0  0  0  0  0  0  0  0  0
   -4.4749   21.1433  -33.8781 H   0  0  0  0  0  0  0  0  0  0  0  0
   -3.0318   22.2130  -33.8781 H   0  0  0  0  0  0  0  0  0  0  0  0
   -7.2210   22.2189  -32.8920 H   0  0  0  0  0  0  0  0  0  0  0  0
   -9.7359   22.5380  -30.4451 H   0  0  0  0  0  0  0  0  0  0  0  0
  -10.3003   20.6840  -31.6255 H   0  0  0  0  0  0  0  0  0  0  0  0
   -7.7730   18.9750  -30.5680 H   0  0  0  0  0  0  0  0  0  0  0  0
   -8.3318   16.7973  -32.7636 H   0  0  0  0  0  0  0  0  0  0  0  0
   -6.8235   15.3174  -34.1288 H   0  0  0  0  0  0  0  0  0  0  0  0
   -2.3959   15.5691  -35.3606 H   0  0  0  0  0  0  0  0  0  0  0  0
   -1.5520   17.5630  -34.4220 H   0  0  0  0  0  0  0  0  0  0  0  0
   -0.6361   18.5956  -31.4814 H   0  0  0  0  0  0  0  0  0  0  0  0
    1.6863   19.3046  -32.0588 H   0  0  0  0  0  0  0  0  0  0  0  0
   -2.0383   20.6914  -34.9938 H   0  0  0  0  0  0  0  0  0  0  0  0
   -5.1093   19.5868  -32.0883 H   0  0  0  0  0  0  0  0  0  0  0  0
   -7.6080   23.1245  -28.7443 H   0  0  0  0  0  0  0  0  0  0  0  0
   -5.2666   23.9456  -28.7145 H   0  0  0  0  0  0  0  0  0  0  0  0
   -3.1290   24.1760  -31.7010 H   0  0  0  0  0  0  0  0  0  0  0  0
  1  2  1  0
  2  3  1  0
  3  4  2  0
  4  5  1  0
  5  6  1  0
  6  7  2  0
  7  8  1  0
  8  9  2  0
  8 10  1  0
 10 11  1  0
 11 12  2  0
 12 13  1  0
 13 14  2  0
 14 15  1  0
 15 16  2  0
 16 17  1  0
 17 18  1  0
 18 19  2  0
 19 20  1  0
 20 21  2  0
 21 22  1  0
 22 23  2  0
 23 24  1  0
 23 25  1  0
 25 26  1  0
 25 27  2  0
 18 28  1  0
 28 29  2  0
  5 30  2  0
 30 31  1  0
 31 32  2  0
 32 33  1  0
 32  3  1  0
 29 11  1  0
 28 14  1  0
 27 20  1  0
  1 34  1  0
  1 35  1  0
  1 36  1  0
  4 37  1  0
  6 38  1  0
  7 39  1  0
 10 40  1  0
 12 41  1  0
 13 42  1  0
 16 43  1  0
 17 44  1  0
 21 45  1  0
 22 46  1  0
 27 47  1  0
 29 48  1  0
 30 49  1  0
 31 50  1  0
 33 51  1  0
M  END
>  <smiles>  (42) 
COc1cc(C=CC(=O)Nc2ccc3nc[nH]c(=Nc4ccc(Cl)c(Cl)c4)c3c2)ccc1O

>  <score_type>  (42) 
oracle

>  <origin>  (42) 
adgpu

>  <m_score__min__energy>  (42) 
-10.68

>  <m_primary>  (42) 
energy

$$$$
42:0
     RDKit          3D

 60 64  0  0  0  0  0  0  0  0999 V2000
   -0.0900   26.6980  -23.2720 C   0  0  0  0  0  0  0  0  0  0  0  0
    0.2170   26.6070  -24.6520 O   0  0  0  0  0  0  0  0  0  0  0  0
   -0.6530   26.0230  -25.5440 C   0  0  0  0  0  0  0  0  0  0  0  0
   -2.0120   25.9300  -25.2710 C   0  0  0  0  0  0  0  0  0  0  0  0
   -2.8960   25.3470  -26.1590 C   0  0  0  0  0  0  0  0  0  0  0  0
   -2.4330   24.8380  -27.3540 C   0  0  0  0  0  0  0  0  0  0  0  0
   -3.2990   24.2070  -28.3470 C   0  0  0  0  0  0  0  0  0  0  0  0
   -3.0010   23.1550  -29.1630 N   0  0  0  0  0  0  0  0  0  0  0  0
   -4.0530   22.8830  -29.9140 C   0  0  0  0  0  0  0  0  0  0  0  0
   -4.2640   21.8390  -30.9680 C   0  0  0  0  0  0  0  0  0  0  0  0
   -4.0920   22.5240  -32.3000 C   0  0  0  0  0  0  0  0  0  0  0  0
   -4.2400   21.5160  -33.4550 C   0  0  0  0  0  0  0  0  0  0  0  0
   -3.8370   20.1970  -33.0030 N   0  0  0  0  0  0  0  0  0  0  0  0
   -4.4250   18.9850  -33.4490 C   0  0  0  0  0  0  0  0  0  0  0  0
   -3.5730   18.2190  -34.2130 N   0  0  0  0  0  0  0  0  0  0  0  0
   -3.9200   17.0240  -34.6970 C   0  0  0  0  0  0  0  0  0  0  0  0
   -5.1490   16.5810  -34.4150 N   0  0  0  0  0  0  0  0  0  0  0  0
   -6.0400   17.2970  -33.6630 C   0  0  0  0  0  0  0  0  0  0  0  0
   -7.1620   16.7280  -33.4800 N   0  0  0  0  0  0  0  0  0  0  0  0
   -5.6910   18.5560  -33.1470 C   0  0  0  0  0  0  0  0  0  0  0  0
   -6.6470   19.3140  -32.3840 C   0  0  0  0  0  0  0  0  0  0  0  0
   -7.6770   20.1550  -33.0970 C   0  0  0  0  0  0  0  0  0  0  0  0
   -8.6210   19.8340  -31.9550 C   0  0  0  0  0  0  0  0  0  0  0  0
   -7.6510   18.7440  -31.4690 C   0  0  0  0  0  0  0  0  0  0  0  0
   -2.7580   20.2010  -31.9870 C   0  0  0  0  0  0  0  0  0  0  0  0
   -3.2330   20.7750  -30.7000 C   0  0  0  0  0  0  0  0  0  0  0  0
   -5.0420   23.7560  -29.5910 N   0  0  0  0  0  0  0  0  0  0  0  0
   -4.5850   24.5550  -28.6440 N   0  0  0  0  0  0  0  0  0  0  0  0
   -1.0860   24.9280  -27.6260 C   0  0  0  0  0  0  0  0  0  0  0  0
   -0.2010   25.5110  -26.7410 C   0  0  0  0  0  0  0  0  0  0  0  0
    1.2600   25.5860  -27.0860 C   0  0  0  0  0  0  0  0  0  0  0  0
    0.7991   26.4344  -22.6804 H   0  0  0  0  0  0  0  0  0  0  0  0
   -0.3985   27.7262  -23.0320 H   0  0  0  0  0  0  0  0  0  0  0  0
   -0.9090   26.0040  -23.0320 H   0  0  0  0  0  0  0  0  0  0  0  0
   -2.3952   26.3317  -24.3214 H   0  0  0  0  0  0  0  0  0  0  0  0
   -3.9666   25.2891  -25.9131 H   0  0  0  0  0  0  0  0  0  0  0  0
   -5.2584   21.3687  -30.9658 H   0  0  0  0  0  0  0  0  0  0  0  0
   -4.8571   23.3074  -32.4044 H   0  0  0  0  0  0  0  0  0  0  0  0
   -3.0852   22.9650  -32.3429 H   0  0  0  0  0  0  0  0  0  0  0  0
   -5.2896   21.4861  -33.7829 H   0  0  0  0  0  0  0  0  0  0  0  0
   -3.6012   21.8259  -34.2952 H   0  0  0  0  0  0  0  0  0  0  0  0
   -3.2223   16.4280  -35.3036 H   0  0  0  0  0  0  0  0  0  0  0  0
   -5.4050   15.6360  -34.8080 H   0  0  0  0  0  0  0  0  0  0  0  0
   -7.9630   17.0660  -32.9610 H   0  0  0  0  0  0  0  0  0  0  0  0
   -5.7653   19.7629  -31.9032 H   0  0  0  0  0  0  0  0  0  0  0  0
   -7.4157   21.2192  -33.1924 H   0  0  0  0  0  0  0  0  0  0  0  0
   -7.9511   19.9722  -34.1465 H   0  0  0  0  0  0  0  0  0  0  0  0
   -8.7632   20.6601  -31.2428 H   0  0  0  0  0  0  0  0  0  0  0  0
   -9.6765   19.5955  -32.1524 H   0  0  0  0  0  0  0  0  0  0  0  0
   -7.3876   18.8074  -30.4029 H   0  0  0  0  0  0  0  0  0  0  0  0
   -7.9194   17.6777  -31.4986 H   0  0  0  0  0  0  0  0  0  0  0  0
   -2.4219   19.1676  -31.8166 H   0  0  0  0  0  0  0  0  0  0  0  0
   -1.9302   20.8216  -32.3606 H   0  0  0  0  0  0  0  0  0  0  0  0
   -3.6805   19.9784  -30.0875 H   0  0  0  0  0  0  0  0  0  0  0  0
   -2.3818   21.2198  -30.1636 H   0  0  0  0  0  0  0  0  0  0  0  0
   -5.1450   25.3130  -28.2210 H   0  0  0  0  0  0  0  0  0  0  0  0
   -0.7043   24.5240  -28.5752 H   0  0  0  0  0  0  0  0  0  0  0  0
    1.8541   25.6165  -26.1608 H   0  0  0  0  0  0  0  0  0  0  0  0
    1.5436   24.7012  -27.6749 H   0  0  0  0  0  0  0  0  0  0  0  0
    1.4515   26.4952  -27.6749 H   0  0  0  0  0  0  0  0  0  0  0  0
  1  2  1  0
  2  3  1  0
  3  4  2  0
  4  5  1  0
  5  6  2  0
  6  7  1  0
  7  8  2  0
  8  9  1  0
  9 10  1  0
 10 11  1  0
 11 12  1  0
 12 13  1  0
 13 14  1  0
 14 15  1  0
 15 16  2  0
 16 17  1  0
 17 18  1  0
 18 19  2  3
 18 20  1  0
 20 21  1  0
 21 22  1  0
 22 23  1  0
 23 24  1  0
 13 25  1  0
 25 26  1  0
  9 27  2  0
 27 28  1  0
  6 29  1  0
 29 30  2  0
 30 31  1  0
 30  3  1  0
 28  7  1  0
 26 10  1  0
 20 14  2  0
 24 21  1  0
  1 32  1  0
  1 33  1  0
  1 34  1  0
  4 35  1  0
  5 36  1  0
 10 37  1  0
 11 38  1  0
 11 39  1  0
 12 40  1  0
 12 41  1  0
 16 42  1  0
 17 43  1  0
 19 44  1  0
 21 45  1  0
 22 46  1  0
 22 47  1  0
 23 48  1  0
 23 49  1  0
 24 50  1  0
 24 51  1  0
 25 52  1  0
 25 53  1  0
 26 54  1  0
 26 55  1  0
 28 56  1  0
 29 57  1  0
 31 58  1  0
 31 59  1  0
 31 60  1  0
M  END
>  <smiles>  (43) 
COc1ccc(-c2nc(C3CCN(c4nc[nH]c(=N)c4C4CCC4)CC3)n[nH]2)cc1C

>  <score_type>  (43) 
oracle

>  <origin>  (43) 
adgpu

>  <m_score__min__energy>  (43) 
-9.2300000000000004

>  <m_primary>  (43) 
energy

$$$$
43:0
     RDKit          3D

 45 47  0  0  0  0  0  0  0  0999 V2000
   -4.8140   25.8420  -30.7230 O   0  0  0  0  0  0  0  0  0  0  0  0
   -4.2820   24.7340  -29.8590 S   0  0  0  0  0  0  0  0  0  0  0  0
   -4.9180   24.8420  -28.5000 O   0  0  0  0  0  0  0  0  0  0  0  0
   -2.5590   24.9020  -29.7160 N   0  0  0  0  0  0  0  0  0  0  0  0
   -2.0000   23.7420  -29.0250 C   0  0  0  0  0  0  0  0  0  0  0  0
   -1.8210   24.0400  -27.5200 C   0  0  0  0  0  0  0  0  0  0  0  0
   -2.2430   25.3960  -27.0820 N   0  0  0  0  0  0  0  0  0  0  0  0
   -2.6900   25.4600  -25.6810 C   0  0  0  0  0  0  0  0  0  0  0  0
   -1.5650   26.0750  -24.8660 C   0  0  0  0  0  0  0  0  0  0  0  0
   -0.7200   26.8490  -25.8600 C   0  0  0  0  0  0  0  0  0  0  0  0
   -1.1980   26.4230  -27.2460 C   0  0  0  0  0  0  0  0  0  0  0  0
   -4.6860   23.1850  -30.5960 C   0  0  0  0  0  0  0  0  0  0  0  0
   -5.8490   23.0470  -31.3650 C   0  0  0  0  0  0  0  0  0  0  0  0
   -6.1760   21.8100  -31.9300 C   0  0  0  0  0  0  0  0  0  0  0  0
   -5.3460   20.6930  -31.7310 C   0  0  0  0  0  0  0  0  0  0  0  0
   -5.6930   19.3780  -32.3300 C   0  0  0  0  0  0  0  0  0  0  0  0
   -5.6320   19.1870  -33.7230 C   0  0  0  0  0  0  0  0  0  0  0  0
   -5.9600   17.9490  -34.2830 C   0  0  0  0  0  0  0  0  0  0  0  0
   -6.3530   16.8880  -33.4630 C   0  0  0  0  0  0  0  0  0  0  0  0
   -6.8000   15.1990  -34.2320 Br  0  0  0  0  0  0  0  0  0  0  0  0
   -6.4170   17.0660  -32.0780 C   0  0  0  0  0  0  0  0  0  0  0  0
   -6.0900   18.3030  -31.5130 C   0  0  0  0  0  0  0  0  0  0  0  0
   -4.1830   20.8390  -30.9530 C   0  0  0  0  0  0  0  0  0  0  0  0
   -3.8590   22.0760  -30.3880 C   0  0  0  0  0  0  0  0  0  0  0  0
   -2.6809   22.8865  -29.1457 H   0  0  0  0  0  0  0  0  0  0  0  0
   -1.0167   23.5099  -29.4600 H   0  0  0  0  0  0  0  0  0  0  0  0
   -2.4111   23.3027  -26.9559 H   0  0  0  0  0  0  0  0  0  0  0  0
   -0.7395   23.9832  -27.3273 H   0  0  0  0  0  0  0  0  0  0  0  0
   -3.0570   25.6600  -27.6900 H   0  0  0  0  0  0  0  0  0  0  0  0
   -3.5930   26.0835  -25.6038 H   0  0  0  0  0  0  0  0  0  0  0  0
   -2.9320   24.4542  -25.3070 H   0  0  0  0  0  0  0  0  0  0  0  0
   -1.9711   26.7505  -24.0987 H   0  0  0  0  0  0  0  0  0  0  0  0
   -0.9766   25.3089  -24.3398 H   0  0  0  0  0  0  0  0  0  0  0  0
   -0.8642   27.9308  -25.7225 H   0  0  0  0  0  0  0  0  0  0  0  0
    0.3515   26.6412  -25.7235 H   0  0  0  0  0  0  0  0  0  0  0  0
   -1.6111   27.2916  -27.7798 H   0  0  0  0  0  0  0  0  0  0  0  0
   -0.3572   26.0174  -27.8279 H   0  0  0  0  0  0  0  0  0  0  0  0
   -6.5068   23.9140  -31.5249 H   0  0  0  0  0  0  0  0  0  0  0  0
   -7.0895   21.7104  -32.5346 H   0  0  0  0  0  0  0  0  0  0  0  0
   -5.3242   20.0174  -34.3754 H   0  0  0  0  0  0  0  0  0  0  0  0
   -5.9086   17.8095  -35.3729 H   0  0  0  0  0  0  0  0  0  0  0  0
   -6.7252   16.2314  -31.4311 H   0  0  0  0  0  0  0  0  0  0  0  0
   -6.1435   18.4366  -30.4225 H   0  0  0  0  0  0  0  0  0  0  0  0
   -3.5240   19.9738  -30.7881 H   0  0  0  0  0  0  0  0  0  0  0  0
   -2.9498   22.1778  -29.7772 H   0  0  0  0  0  0  0  0  0  0  0  0
  1  2  2  0
  2  3  2  0
  2  4  1  0
  4  5  1  0
  5  6  1  0
  6  7  1  0
  7  8  1  0
  8  9  1  0
  9 10  1  0
 10 11  1  0
  2 12  1  0
 12 13  2  0
 13 14  1  0
 14 15  2  0
 15 16  1  0
 16 17  2  0
 17 18  1  0
 18 19  2  0
 19 20  1  0
 19 21  1  0
 21 22  2  0
 15 23  1  0
 23 24  2  0
 11  7  1  0
 24 12  1  0
 22 16  1  0
  5 25  1  0
  5 26  1  0
  6 27  1  0
  6 28  1  0
  7 29  1  0
  8 30  1  0
  8 31  1  0
  9 32  1  0
  9 33  1  0
 10 34  1  0
 10 35  1  0
 11 36  1  0
 11 37  1  0
 13 38  1  0
 14 39  1  0
 17 40  1  0
 18 41  1  0
 21 42  1  0
 22 43  1  0
 23 44  1  0
 24 45  1  0
M  CHG  2   4  -1   7   1
M  END
>  <UniqueID>  (44) 
39

>  <SMILES>  (44) 
O=S(=O)([N-]CC[NH+]1CCCC1)c1ccc(-c2ccc(Br)cc2)cc1

>  <Energy>  (44) 
55.471538209485345

>  <Genealogy>  (44) 
O=S(=O)([N-]CC[NH+]1CCCC1)c1ccc(-c2ccc(Br)cc2)cc1 (protonated)
O=S(=O)([N-]CC[NH+]1CCCC1)c1ccc(-c2ccc(Br)cc2)cc1 (3D coordinates assigned)
O=S(=O)([N-]CC[NH+]1CCCC1)c1ccc(-c2ccc(Br)cc2)cc1 (nonaromatic ring conformer: 55.471538209485345 kcal/mol)

>  <smiles>  (44) 
O=S(=O)(NCCN1CCCC1)c1ccc(-c2ccc(Br)cc2)cc1

>  <score_type>  (44) 
oracle

>  <origin>  (44) 
adgpu

>  <m_score__min__energy>  (44) 
-8.8200000000000003

>  <m_primary>  (44) 
energy

$$$$
44:0
     RDKit          3D

 65 68  0  0  0  0  0  0  0  0999 V2000
    1.5640   22.3000  -35.2820 C   0  0  0  0  0  0  0  0  0  0  0  0
    0.2040   22.2970  -34.8640 O   0  0  0  0  0  0  0  0  0  0  0  0
   -0.4600   21.1990  -34.2960 C   0  0  0  0  0  0  0  0  0  0  0  0
   -1.4230   21.3860  -33.2860 C   0  0  0  0  0  0  0  0  0  0  0  0
   -2.0740   20.2950  -32.6980 C   0  0  0  0  0  0  0  0  0  0  0  0
   -3.0920   20.5090  -31.5980 C   0  0  0  0  0  0  0  0  0  0  0  0
   -4.3840   21.0460  -32.1050 N   0  0  1  0  0  0  0  0  0  0  0  0
   -4.2990   22.4770  -32.5110 C   0  0  0  0  0  0  0  0  0  0  0  0
   -5.0170   23.4260  -31.5760 C   0  0  0  0  0  0  0  0  0  0  0  0
   -6.3990   23.3130  -31.3530 C   0  0  0  0  0  0  0  0  0  0  0  0
   -7.0300   24.2150  -30.4930 C   0  0  0  0  0  0  0  0  0  0  0  0
   -6.2850   25.2110  -29.8580 C   0  0  0  0  0  0  0  0  0  0  0  0
   -4.9100   25.2860  -30.0920 C   0  0  0  0  0  0  0  0  0  0  0  0
   -4.3140   24.4010  -30.9350 N   0  0  0  0  0  0  0  0  0  0  0  0
   -4.9130   20.2120  -33.2160 C   0  0  0  0  0  0  0  0  0  0  0  0
   -6.3210   19.7070  -32.9440 C   0  0  0  0  0  0  0  0  0  0  0  0
   -7.3190   20.6500  -32.6400 C   0  0  0  0  0  0  0  0  0  0  0  0
   -8.6160   20.2400  -32.3250 C   0  0  0  0  0  0  0  0  0  0  0  0
   -8.9350   18.8840  -32.3040 C   0  0  0  0  0  0  0  0  0  0  0  0
   -7.9600   17.9320  -32.6060 C   0  0  0  0  0  0  0  0  0  0  0  0
   -6.6530   18.3250  -32.9370 C   0  0  0  0  0  0  0  0  0  0  0  0
   -5.6660   17.2700  -33.2560 C   0  0  0  0  0  0  0  0  0  0  0  0
   -5.3230   16.3100  -32.2900 C   0  0  0  0  0  0  0  0  0  0  0  0
   -4.3950   15.3080  -32.5910 C   0  0  0  0  0  0  0  0  0  0  0  0
   -3.7880   15.2700  -33.8480 C   0  0  0  0  0  0  0  0  0  0  0  0
   -4.1050   16.2360  -34.8070 C   0  0  0  0  0  0  0  0  0  0  0  0
   -5.0340   17.2410  -34.5130 C   0  0  0  0  0  0  0  0  0  0  0  0
   -5.3270   18.1720  -35.4550 F   0  0  0  0  0  0  0  0  0  0  0  0
   -1.8000   19.0030  -33.1590 C   0  0  0  0  0  0  0  0  0  0  0  0
   -0.8530   18.7920  -34.1760 C   0  0  0  0  0  0  0  0  0  0  0  0
   -0.5620   17.5060  -34.6580 O   0  0  0  0  0  0  0  0  0  0  0  0
   -0.4780   16.3400  -33.8460 C   0  0  0  0  0  0  0  0  0  0  0  0
   -0.1710   19.8830  -34.7400 C   0  0  0  0  0  0  0  0  0  0  0  0
    0.7760   19.5890  -35.7410 O   0  0  0  0  0  0  0  0  0  0  0  0
    0.5760   18.7610  -36.8810 C   0  0  0  0  0  0  0  0  0  0  0  0
    2.2192   22.3014  -34.3984 H   0  0  0  0  0  0  0  0  0  0  0  0
    1.7641   21.4023  -35.8854 H   0  0  0  0  0  0  0  0  0  0  0  0
    1.7602   23.1986  -35.8854 H   0  0  0  0  0  0  0  0  0  0  0  0
   -1.6677   22.4056  -32.9536 H   0  0  0  0  0  0  0  0  0  0  0  0
   -3.2820   19.5454  -31.1026 H   0  0  0  0  0  0  0  0  0  0  0  0
   -2.6755   21.2510  -30.9008 H   0  0  0  0  0  0  0  0  0  0  0  0
   -5.0820   21.0030  -31.3240 H   0  0  0  0  0  0  0  0  0  0  0  0
   -3.2377   22.7639  -32.5469 H   0  0  0  0  0  0  0  0  0  0  0  0
   -4.7937   22.5599  -33.4900 H   0  0  0  0  0  0  0  0  0  0  0  0
   -6.9790   22.5219  -31.8507 H   0  0  0  0  0  0  0  0  0  0  0  0
   -8.1131   24.1408  -30.3161 H   0  0  0  0  0  0  0  0  0  0  0  0
   -6.7748   25.9274  -29.1821 H   0  0  0  0  0  0  0  0  0  0  0  0
   -4.3091   26.0613  -29.5942 H   0  0  0  0  0  0  0  0  0  0  0  0
   -4.9260   20.8158  -34.1353 H   0  0  0  0  0  0  0  0  0  0  0  0
   -4.2568   19.3351  -33.3180 H   0  0  0  0  0  0  0  0  0  0  0  0
   -7.0751   21.7226  -32.6505 H   0  0  0  0  0  0  0  0  0  0  0  0
   -9.3874   20.9891  -32.0930 H   0  0  0  0  0  0  0  0  0  0  0  0
   -9.9559   18.5634  -32.0492 H   0  0  0  0  0  0  0  0  0  0  0  0
   -8.2180   16.8629  -32.5845 H   0  0  0  0  0  0  0  0  0  0  0  0
   -5.7860   16.3464  -31.2929 H   0  0  0  0  0  0  0  0  0  0  0  0
   -4.1428   14.5485  -31.8363 H   0  0  0  0  0  0  0  0  0  0  0  0
   -3.0602   14.4796  -34.0835 H   0  0  0  0  0  0  0  0  0  0  0  0
   -3.6232   16.2065  -35.7954 H   0  0  0  0  0  0  0  0  0  0  0  0
   -2.3305   18.1444  -32.7216 H   0  0  0  0  0  0  0  0  0  0  0  0
   -0.4989   16.6297  -32.7851 H   0  0  0  0  0  0  0  0  0  0  0  0
   -1.3309   15.6800  -34.0627 H   0  0  0  0  0  0  0  0  0  0  0  0
    0.4607   15.8091  -34.0627 H   0  0  0  0  0  0  0  0  0  0  0  0
    0.3294   17.7401  -36.5540 H   0  0  0  0  0  0  0  0  0  0  0  0
   -0.2510   19.1623  -37.4851 H   0  0  0  0  0  0  0  0  0  0  0  0
    1.4950   18.7406  -37.4851 H   0  0  0  0  0  0  0  0  0  0  0  0
  1  2  1  0
  2  3  1  0
  3  4  2  0
  4  5  1  0
  5  6  1  0
  6  7  1  0
  7  8  1  0
  8  9  1  0
  9 10  2  0
 10 11  1  0
 11 12  2  0
 12 13  1  0
 13 14  2  0
  7 15  1  0
 15 16  1  0
 16 17  2  0
 17 18  1  0
 18 19  2  0
 19 20  1  0
 20 21  2  0
 21 22  1  0
 22 23  2  0
 23 24  1  0
 24 25  2  0
 25 26  1  0
 26 27  2  0
 27 28  1  0
  5 29  2  0
 29 30  1  0
 30 31  1  0
 31 32  1  0
 30 33  2  0
 33 34  1  0
 34 35  1  0
 33  3  1  0
 14  9  1  0
 21 16  1  0
 27 22  1  0
  1 36  1  0
  1 37  1  0
  1 38  1  0
  4 39  1  0
  6 40  1  0
  6 41  1  0
  7 42  1  1
  8 43  1  0
  8 44  1  0
 10 45  1  0
 11 46  1  0
 12 47  1  0
 13 48  1  0
 15 49  1  0
 15 50  1  0
 17 51  1  0
 18 52  1  0
 19 53  1  0
 20 54  1  0
 23 55  1  0
 24 56  1  0
 25 57  1  0
 26 58  1  0
 29 59  1  0
 32 60  1  0
 32 61  1  0
 32 62  1  0
 35 63  1  0
 35 64  1  0
 35 65  1  0
M  CHG  1   7   1
M  END
>  <UniqueID>  (45) 
40

>  <SMILES>  (45) 
COc1cc(C[N@@H+](Cc2ccccn2)Cc2ccccc2-c2ccccc2F)cc(OC)c1OC

>  <Energy>  (45) 
82.60918933607897

>  <Genealogy>  (45) 
COc1cc(C[NH+](Cc2ccccn2)Cc2ccccc2-c2ccccc2F)cc(OC)c1OC (protonated)
COc1cc(C[N@@H+](Cc2ccccn2)Cc2ccccc2-c2ccccc2F)cc(OC)c1OC (chirality)
COc1cc(C[N@@H+](Cc2ccccn2)Cc2ccccc2-c2ccccc2F)cc(OC)c1OC (3D coordinates assigned)
COc1cc(C[N@@H+](Cc2ccccn2)Cc2ccccc2-c2ccccc2F)cc(OC)c1OC (optimized conformer: 82.60918933607897 kcal/mol)

>  <smiles>  (45) 
COc1cc(CN(Cc2ccccn2)Cc2ccccc2-c2ccccc2F)cc(OC)c1OC

>  <score_type>  (45) 
oracle

>  <origin>  (45) 
adgpu

>  <m_score__min__energy>  (45) 
-9.8300000000000001

>  <m_primary>  (45) 
energy

$$$$
45:0
     RDKit          3D

 61 64  0  0  0  0  0  0  0  0999 V2000
   -5.0910   25.5380  -31.2160 O   0  0  0  0  0  0  0  0  0  0  0  0
   -5.8390   24.7880  -30.1480 S   0  0  0  0  0  0  0  0  0  0  0  0
   -6.1390   25.7360  -29.0180 O   0  0  0  0  0  0  0  0  0  0  0  0
   -7.3190   24.1730  -30.8140 N   0  0  0  0  0  0  0  0  0  0  0  0
   -7.4320   22.8120  -31.2480 C   0  0  0  0  0  0  0  0  0  0  0  0
   -8.1760   21.8990  -30.4880 C   0  0  0  0  0  0  0  0  0  0  0  0
   -8.3500   20.5870  -30.9350 C   0  0  0  0  0  0  0  0  0  0  0  0
   -7.7550   20.1620  -32.1350 C   0  0  0  0  0  0  0  0  0  0  0  0
   -8.0540   18.7940  -32.6860 C   0  0  0  0  0  0  0  0  0  0  0  0
   -6.8480   17.8400  -32.5570 C   0  0  0  0  0  0  0  0  0  0  0  0
   -6.0220   17.7840  -33.7780 N   0  0  0  0  0  0  0  0  0  0  0  0
   -5.0500   18.8880  -33.8860 C   0  0  0  0  0  0  0  0  0  0  0  0
   -3.8410   18.6390  -32.9810 C   0  0  1  0  0  0  0  0  0  0  0  0
   -3.5730   17.2620  -32.9130 O   0  0  0  0  0  0  0  0  0  0  0  0
   -2.6340   19.4130  -33.4680 C   0  0  0  0  0  0  0  0  0  0  0  0
   -2.4460   20.7640  -33.1340 C   0  0  0  0  0  0  0  0  0  0  0  0
   -1.3050   21.4390  -33.5650 C   0  0  0  0  0  0  0  0  0  0  0  0
   -0.3520   20.7570  -34.3220 C   0  0  0  0  0  0  0  0  0  0  0  0
   -0.5330   19.4430  -34.6210 N   0  0  0  0  0  0  0  0  0  0  0  0
   -1.6330   18.7620  -34.2100 C   0  0  0  0  0  0  0  0  0  0  0  0
   -6.9600   21.0610  -32.8630 C   0  0  0  0  0  0  0  0  0  0  0  0
   -6.8090   22.3800  -32.4300 C   0  0  0  0  0  0  0  0  0  0  0  0
   -4.8420   23.4430  -29.5940 C   0  0  0  0  0  0  0  0  0  0  0  0
   -4.6000   23.2370  -28.2290 C   0  0  0  0  0  0  0  0  0  0  0  0
   -3.7590   22.2000  -27.8110 C   0  0  0  0  0  0  0  0  0  0  0  0
   -3.1490   21.3490  -28.7550 C   0  0  0  0  0  0  0  0  0  0  0  0
   -2.2310   20.2610  -28.3220 C   0  0  0  0  0  0  0  0  0  0  0  0
   -1.0590   19.9730  -29.0510 C   0  0  0  0  0  0  0  0  0  0  0  0
   -0.1840   18.9720  -28.6210 C   0  0  0  0  0  0  0  0  0  0  0  0
   -0.4750   18.2330  -27.4730 C   0  0  0  0  0  0  0  0  0  0  0  0
   -1.6420   18.4960  -26.7510 C   0  0  0  0  0  0  0  0  0  0  0  0
   -2.5150   19.5040  -27.1710 C   0  0  0  0  0  0  0  0  0  0  0  0
   -3.4190   21.5490  -30.1220 C   0  0  0  0  0  0  0  0  0  0  0  0
   -4.2580   22.5870  -30.5360 C   0  0  0  0  0  0  0  0  0  0  0  0
   -7.9960   24.8750  -31.1860 H   0  0  0  0  0  0  0  0  0  0  0  0
   -8.6248   22.2170  -29.5354 H   0  0  0  0  0  0  0  0  0  0  0  0
   -8.9556   19.8833  -30.3449 H   0  0  0  0  0  0  0  0  0  0  0  0
   -8.9044   18.3673  -32.1339 H   0  0  0  0  0  0  0  0  0  0  0  0
   -8.2868   18.9030  -33.7555 H   0  0  0  0  0  0  0  0  0  0  0  0
   -6.2177   18.1830  -31.7233 H   0  0  0  0  0  0  0  0  0  0  0  0
   -7.2460   16.8294  -32.3833 H   0  0  0  0  0  0  0  0  0  0  0  0
   -5.5280   16.8630  -33.8370 H   0  0  0  0  0  0  0  0  0  0  0  0
   -4.7094   18.9677  -34.9289 H   0  0  0  0  0  0  0  0  0  0  0  0
   -5.5400   19.8210  -33.5706 H   0  0  0  0  0  0  0  0  0  0  0  0
   -4.0731   18.9984  -31.9676 H   0  0  0  0  0  0  0  0  0  0  0  0
   -4.0800   16.8360  -33.6550 H   0  0  0  0  0  0  0  0  0  0  0  0
   -3.2005   21.2906  -32.5312 H   0  0  0  0  0  0  0  0  0  0  0  0
   -1.1575   22.4990  -33.3107 H   0  0  0  0  0  0  0  0  0  0  0  0
    0.5466   21.2827  -34.6773 H   0  0  0  0  0  0  0  0  0  0  0  0
   -1.7416   17.6960  -34.4586 H   0  0  0  0  0  0  0  0  0  0  0  0
   -6.4532   20.7247  -33.7795 H   0  0  0  0  0  0  0  0  0  0  0  0
   -6.1998   23.0831  -33.0170 H   0  0  0  0  0  0  0  0  0  0  0  0
   -5.0731   23.8931  -27.4835 H   0  0  0  0  0  0  0  0  0  0  0  0
   -3.5723   22.0475  -26.7377 H   0  0  0  0  0  0  0  0  0  0  0  0
   -0.8317   20.5407  -29.9653 H   0  0  0  0  0  0  0  0  0  0  0  0
    0.7357   18.7660  -29.1881 H   0  0  0  0  0  0  0  0  0  0  0  0
    0.2140   17.4441  -27.1370 H   0  0  0  0  0  0  0  0  0  0  0  0
   -1.8743   17.9088  -25.8503 H   0  0  0  0  0  0  0  0  0  0  0  0
   -3.4311   19.7067  -26.5969 H   0  0  0  0  0  0  0  0  0  0  0  0
   -2.9657   20.8826  -30.8706 H   0  0  0  0  0  0  0  0  0  0  0  0
   -4.4608   22.7325  -31.6073 H   0  0  0  0  0  0  0  0  0  0  0  0
  1  2  2  0
  2  3  2  0
  2  4  1  0
  4  5  1  0
  5  6  2  0
  6  7  1  0
  7  8  2  0
  8  9  1  0
  9 10  1  0
 10 11  1  0
 11 12  1  0
 12 13  1  0
 13 14  1  0
 13 15  1  0
 15 16  2  0
 16 17  1  0
 17 18  2  0
 18 19  1  0
 19 20  2  0
  8 21  1  0
 21 22  2  0
  2 23  1  0
 23 24  2  0
 24 25  1  0
 25 26  2  0
 26 27  1  0
 27 28  2  0
 28 29  1  0
 29 30  2  0
 30 31  1  0
 31 32  2  0
 26 33  1  0
 33 34  2  0
 22  5  1  0
 34 23  1  0
 20 15  1  0
 32 27  1  0
  4 35  1  0
  6 36  1  0
  7 37  1  0
  9 38  1  0
  9 39  1  0
 10 40  1  0
 10 41  1  0
 11 42  1  0
 12 43  1  0
 12 44  1  0
 13 45  1  1
 14 46  1  0
 16 47  1  0
 17 48  1  0
 18 49  1  0
 20 50  1  0
 21 51  1  0
 22 52  1  0
 24 53  1  0
 25 54  1  0
 28 55  1  0
 29 56  1  0
 30 57  1  0
 31 58  1  0
 32 59  1  0
 33 60  1  0
 34 61  1  0
M  END
>  <UniqueID>  (46) 
41

>  <SMILES>  (46) 
O=S(=O)(Nc1ccc(CCNC[C@@H](O)c2cccnc2)cc1)c1ccc(-c2ccccc2)cc1

>  <Energy>  (46) 
70.48869948694022

>  <Genealogy>  (46) 
O=S(=O)(Nc1ccc(CCNC[C@@H](O)c2cccnc2)cc1)c1ccc(-c2ccccc2)cc1 (chirality)
O=S(=O)(Nc1ccc(CCNC[C@@H](O)c2cccnc2)cc1)c1ccc(-c2ccccc2)cc1 (3D coordinates assigned)
O=S(=O)(Nc1ccc(CCNC[C@@H](O)c2cccnc2)cc1)c1ccc(-c2ccccc2)cc1 (optimized conformer: 70.48869948694022 kcal/mol)

>  <smiles>  (46) 
O=S(=O)(Nc1ccc(CCNCC(O)c2cccnc2)cc1)c1ccc(-c2ccccc2)cc1

>  <score_type>  (46) 
oracle

>  <origin>  (46) 
adgpu

>  <m_score__min__energy>  (46) 
-11.17

>  <m_primary>  (46) 
energy

$$$$
46:0
     RDKit          3D

 34 37  0  0  0  0  0  0  0  0999 V2000
   -0.4970   23.8710  -29.7220 O   0  0  0  0  0  0  0  0  0  0  0  0
   -0.8240   24.3950  -28.6250 C   0  0  0  0  0  0  0  0  0  0  0  0
    0.1270   24.6540  -27.7320 O   0  0  0  0  0  0  0  0  0  0  0  0
   -0.1240   25.2040  -26.5490 C   0  0  0  0  0  0  0  0  0  0  0  0
    0.9250   25.4500  -25.6560 C   0  0  0  0  0  0  0  0  0  0  0  0
    0.6630   26.0290  -24.4100 C   0  0  0  0  0  0  0  0  0  0  0  0
   -0.6470   26.3650  -24.0520 C   0  0  0  0  0  0  0  0  0  0  0  0
   -1.7010   26.1220  -24.9390 C   0  0  0  0  0  0  0  0  0  0  0  0
   -1.4440   25.5420  -26.1900 C   0  0  0  0  0  0  0  0  0  0  0  0
   -2.4710   25.2850  -27.1020 C   0  0  0  0  0  0  0  0  0  0  0  0
   -2.1750   24.7020  -28.3460 C   0  0  0  0  0  0  0  0  0  0  0  0
   -3.2520   24.4190  -29.3310 C   0  0  0  0  0  0  0  0  0  0  0  0
   -4.1580   23.3730  -29.3130 C   0  0  0  0  0  0  0  0  0  0  0  0
   -4.9290   23.5760  -30.4440 C   0  0  0  0  0  0  0  0  0  0  0  0
   -6.0620   22.7440  -30.9200 C   0  0  0  0  0  0  0  0  0  0  0  0
   -7.2900   22.7170  -30.2300 C   0  0  0  0  0  0  0  0  0  0  0  0
   -8.3450   21.9250  -30.6940 C   0  0  0  0  0  0  0  0  0  0  0  0
   -8.1900   21.1550  -31.8480 C   0  0  0  0  0  0  0  0  0  0  0  0
   -6.9750   21.1710  -32.5440 C   0  0  0  0  0  0  0  0  0  0  0  0
   -6.8080   20.4070  -33.6970 O   0  0  0  0  0  0  0  0  0  0  0  0
   -5.9180   21.9620  -32.0820 C   0  0  0  0  0  0  0  0  0  0  0  0
   -4.4930   24.6810  -31.0820 N   0  0  0  0  0  0  0  0  0  0  0  0
   -3.4960   25.1550  -30.3920 O   0  0  0  0  0  0  0  0  0  0  0  0
    1.9564   25.1878  -25.9342 H   0  0  0  0  0  0  0  0  0  0  0  0
    1.4893   26.2207  -23.7096 H   0  0  0  0  0  0  0  0  0  0  0  0
   -0.8485   26.8210  -23.0715 H   0  0  0  0  0  0  0  0  0  0  0  0
   -2.7307   26.3856  -24.6556 H   0  0  0  0  0  0  0  0  0  0  0  0
   -3.5104   25.5388  -26.8464 H   0  0  0  0  0  0  0  0  0  0  0  0
   -4.2452   22.5660  -28.5706 H   0  0  0  0  0  0  0  0  0  0  0  0
   -7.4197   23.3225  -29.3209 H   0  0  0  0  0  0  0  0  0  0  0  0
   -9.2998   21.9087  -30.1480 H   0  0  0  0  0  0  0  0  0  0  0  0
   -9.0231   20.5351  -32.2110 H   0  0  0  0  0  0  0  0  0  0  0  0
   -7.6020   20.0340  -34.2050 H   0  0  0  0  0  0  0  0  0  0  0  0
   -4.9652   21.9733  -32.6317 H   0  0  0  0  0  0  0  0  0  0  0  0
  1  2  2  0
  2  3  1  0
  3  4  1  0
  4  5  2  0
  5  6  1  0
  6  7  2  0
  7  8  1  0
  8  9  2  0
  9 10  1  0
 10 11  2  0
 11 12  1  0
 12 13  2  0
 13 14  1  0
 14 15  1  0
 15 16  2  0
 16 17  1  0
 17 18  2  0
 18 19  1  0
 19 20  1  0
 19 21  2  0
 14 22  2  0
 22 23  1  0
 11  2  1  0
 23 12  1  0
  9  4  1  0
 21 15  1  0
  5 24  1  0
  6 25  1  0
  7 26  1  0
  8 27  1  0
 10 28  1  0
 13 29  1  0
 16 30  1  0
 17 31  1  0
 18 32  1  0
 20 33  1  0
 21 34  1  0
M  END
>  <UniqueID>  (47) 
42

>  <SMILES>  (47) 
O=c1oc2ccccc2cc1-c1cc(-c2cccc(O)c2)no1

>  <Energy>  (47) 
76.91190776361111

>  <Genealogy>  (47) 
O=c1oc2ccccc2cc1-c1cc(-c2cccc(O)c2)no1 (3D coordinates assigned)
O=c1oc2ccccc2cc1-c1cc(-c2cccc(O)c2)no1 (optimized conformer: 76.91190776361111 kcal/mol)

>  <smiles>  (47) 
O=c1oc2ccccc2cc1-c1cc(-c2cccc(O)c2)no1

>  <score_type>  (47) 
oracle

>  <origin>  (47) 
adgpu

>  <m_score__min__energy>  (47) 
-9.1099999999999994

>  <m_primary>  (47) 
energy

$$$$
47:0
     RDKit          3D

 52 55  0  0  0  0  0  0  0  0999 V2000
   -0.9550   19.5350  -32.3700 C   0  0  0  0  0  0  0  0  0  0  0  0
   -1.0790   20.5970  -31.3190 C   0  0  0  0  0  0  0  0  0  0  0  0
   -0.3910   20.4720  -30.1020 C   0  0  0  0  0  0  0  0  0  0  0  0
   -0.5080   21.4620  -29.1220 C   0  0  0  0  0  0  0  0  0  0  0  0
   -1.3100   22.5910  -29.3480 C   0  0  0  0  0  0  0  0  0  0  0  0
   -1.4710   23.5890  -28.3190 N   0  0  0  0  0  0  0  0  0  0  0  0
   -2.6920   23.7750  -27.7150 C   0  0  0  0  0  0  0  0  0  0  0  0
   -4.1440   22.8210  -28.1960 S   0  0  0  0  0  0  0  0  0  0  0  0
   -5.0520   24.1860  -29.0140 C   0  0  0  0  0  0  0  0  0  0  0  0
   -4.5110   24.5460  -30.3720 C   0  0  0  0  0  0  0  0  0  0  0  0
   -3.5010   25.2950  -30.4440 O   0  0  0  0  0  0  0  0  0  0  0  0
   -5.1810   24.1830  -31.5870 N   0  0  0  0  0  0  0  0  0  0  0  0
   -5.9000   22.9710  -31.8530 C   0  0  0  0  0  0  0  0  0  0  0  0
   -5.1840   21.8190  -32.1930 C   0  0  0  0  0  0  0  0  0  0  0  0
   -5.8470   20.6050  -32.3940 C   0  0  0  0  0  0  0  0  0  0  0  0
   -7.2380   20.5250  -32.2260 C   0  0  0  0  0  0  0  0  0  0  0  0
   -8.0910   19.0010  -32.4560 S   0  0  0  0  0  0  0  0  0  0  0  0
   -9.6670   19.3060  -33.0990 N   0  0  0  0  0  0  0  0  0  0  0  0
   -7.3360   18.1200  -33.4110 O   0  0  0  0  0  0  0  0  0  0  0  0
   -8.2110   18.2950  -31.1340 O   0  0  0  0  0  0  0  0  0  0  0  0
   -7.9530   21.6710  -31.8570 C   0  0  0  0  0  0  0  0  0  0  0  0
   -7.2880   22.8850  -31.6670 C   0  0  0  0  0  0  0  0  0  0  0  0
   -2.8340   24.6970  -26.7290 N   0  0  0  0  0  0  0  0  0  0  0  0
   -1.7980   25.4700  -26.3270 C   0  0  0  0  0  0  0  0  0  0  0  0
   -1.9840   26.4180  -25.3130 C   0  0  0  0  0  0  0  0  0  0  0  0
   -0.9150   27.2190  -24.9010 C   0  0  0  0  0  0  0  0  0  0  0  0
    0.3400   27.0780  -25.4980 C   0  0  0  0  0  0  0  0  0  0  0  0
    0.5340   26.1320  -26.5100 C   0  0  0  0  0  0  0  0  0  0  0  0
   -0.5370   25.3210  -26.9330 C   0  0  0  0  0  0  0  0  0  0  0  0
   -0.3950   24.3520  -27.9410 C   0  0  0  0  0  0  0  0  0  0  0  0
    0.7300   24.1800  -28.4920 O   0  0  0  0  0  0  0  0  0  0  0  0
   -1.9580   22.7380  -30.5840 C   0  0  0  0  0  0  0  0  0  0  0  0
   -1.8420   21.7480  -31.5640 C   0  0  0  0  0  0  0  0  0  0  0  0
   -0.8404   18.5532  -31.8874 H   0  0  0  0  0  0  0  0  0  0  0  0
   -1.8589   19.5322  -32.9968 H   0  0  0  0  0  0  0  0  0  0  0  0
   -0.0747   19.7405  -32.9968 H   0  0  0  0  0  0  0  0  0  0  0  0
    0.2426   19.5917  -29.9187 H   0  0  0  0  0  0  0  0  0  0  0  0
    0.0312   21.3554  -28.1692 H   0  0  0  0  0  0  0  0  0  0  0  0
   -6.1035   23.8839  -29.1283 H   0  0  0  0  0  0  0  0  0  0  0  0
   -4.9370   25.0752  -28.3767 H   0  0  0  0  0  0  0  0  0  0  0  0
   -4.0906   21.8685  -32.3031 H   0  0  0  0  0  0  0  0  0  0  0  0
   -5.2771   19.7101  -32.6846 H   0  0  0  0  0  0  0  0  0  0  0  0
   -9.5670   19.3780  -34.1360 H   0  0  0  0  0  0  0  0  0  0  0  0
  -10.2440   18.4570  -32.9090 H   0  0  0  0  0  0  0  0  0  0  0  0
   -9.0425   21.6153  -31.7162 H   0  0  0  0  0  0  0  0  0  0  0  0
   -7.8561   23.7788  -31.3698 H   0  0  0  0  0  0  0  0  0  0  0  0
   -2.9710   26.5322  -24.8409 H   0  0  0  0  0  0  0  0  0  0  0  0
   -1.0625   27.9628  -24.1041 H   0  0  0  0  0  0  0  0  0  0  0  0
    1.1774   27.7122  -25.1716 H   0  0  0  0  0  0  0  0  0  0  0  0
    1.5242   26.0213  -26.9760 H   0  0  0  0  0  0  0  0  0  0  0  0
   -2.5602   23.6368  -30.7827 H   0  0  0  0  0  0  0  0  0  0  0  0
   -2.3511   21.8722  -32.5311 H   0  0  0  0  0  0  0  0  0  0  0  0
  1  2  1  0
  2  3  2  0
  3  4  1  0
  4  5  2  0
  5  6  1  0
  6  7  1  0
  7  8  1  0
  8  9  1  0
  9 10  1  0
 10 11  2  0
 10 12  1  0
 12 13  1  0
 13 14  2  0
 14 15  1  0
 15 16  2  0
 16 17  1  0
 17 18  1  0
 17 19  2  0
 17 20  2  0
 16 21  1  0
 21 22  2  0
  7 23  2  0
 23 24  1  0
 24 25  2  0
 25 26  1  0
 26 27  2  0
 27 28  1  0
 28 29  2  0
 29 30  1  0
 30 31  2  0
  5 32  1  0
 32 33  2  0
 33  2  1  0
 30  6  1  0
 22 13  1  0
 29 24  1  0
  1 34  1  0
  1 35  1  0
  1 36  1  0
  3 37  1  0
  4 38  1  0
  9 39  1  0
  9 40  1  0
 14 41  1  0
 15 42  1  0
 18 43  1  0
 18 44  1  0
 21 45  1  0
 22 46  1  0
 25 47  1  0
 26 48  1  0
 27 49  1  0
 28 50  1  0
 32 51  1  0
 33 52  1  0
M  CHG  1  12  -1
M  END
>  <UniqueID>  (48) 
43

>  <SMILES>  (48) 
Cc1ccc(-n2c(SCC(=O)[N-]c3ccc(S(N)(=O)=O)cc3)nc3ccccc3c2=O)cc1

>  <Energy>  (48) 
67.55721385399919

>  <Genealogy>  (48) 
Cc1ccc(-n2c(SCC(=O)[N-]c3ccc(S(N)(=O)=O)cc3)nc3ccccc3c2=O)cc1 (protonated)
Cc1ccc(-n2c(SCC(=O)[N-]c3ccc(S(N)(=O)=O)cc3)nc3ccccc3c2=O)cc1 (3D coordinates assigned)
Cc1ccc(-n2c(SCC(=O)[N-]c3ccc(S(N)(=O)=O)cc3)nc3ccccc3c2=O)cc1 (optimized conformer: 67.55721385399919 kcal/mol)

>  <smiles>  (48) 
Cc1ccc(-n2c(SCC(=O)Nc3ccc(S(N)(=O)=O)cc3)nc3ccccc3c2=O)cc1

>  <score_type>  (48) 
oracle

>  <origin>  (48) 
adgpu

>  <m_score__min__energy>  (48) 
-12.35

>  <m_primary>  (48) 
energy

$$$$
48:0
     RDKit          3D

 60 64  0  0  0  0  0  0  0  0999 V2000
   -2.1350   25.2920  -29.0940 O   0  0  0  0  0  0  0  0  0  0  0  0
   -2.6450   24.8340  -28.0350 C   0  0  0  0  0  0  0  0  0  0  0  0
   -4.0030   24.3530  -28.0530 N   0  0  0  0  0  0  0  0  0  0  0  0
   -4.7170   24.0500  -29.2660 C   0  0  0  0  0  0  0  0  0  0  0  0
   -5.8180   24.8230  -29.6740 C   0  0  0  0  0  0  0  0  0  0  0  0
   -6.4700   24.5390  -30.8760 C   0  0  0  0  0  0  0  0  0  0  0  0
   -6.0320   23.4870  -31.6820 C   0  0  0  0  0  0  0  0  0  0  0  0
   -4.9350   22.7010  -31.2880 C   0  0  0  0  0  0  0  0  0  0  0  0
   -4.4420   21.6010  -32.1460 C   0  0  0  0  0  0  0  0  0  0  0  0
   -3.1800   21.5560  -32.6220 N   0  0  0  0  0  0  0  0  0  0  0  0
   -3.0900   20.5070  -33.4280 N   0  0  0  0  0  0  0  0  0  0  0  0
   -1.8510   20.0690  -34.0800 C   0  0  0  0  0  0  0  0  0  0  0  0
   -0.8640   21.2480  -34.2240 C   0  0  0  0  0  0  0  0  0  0  0  0
    0.5710   20.7340  -34.4000 C   0  0  0  0  0  0  0  0  0  0  0  0
    1.0310   19.8960  -33.2690 N   0  0  0  0  0  0  0  0  0  0  0  0
   -0.0490   19.3130  -32.4520 C   0  0  0  0  0  0  0  0  0  0  0  0
   -1.2340   18.8730  -33.3190 C   0  0  0  0  0  0  0  0  0  0  0  0
   -4.2640   19.8510  -33.4630 C   0  0  0  0  0  0  0  0  0  0  0  0
   -5.1610   20.5200  -32.6530 C   0  0  0  0  0  0  0  0  0  0  0  0
   -6.5330   20.0720  -32.3310 C   0  0  0  0  0  0  0  0  0  0  0  0
   -6.7750   18.7640  -31.8810 C   0  0  0  0  0  0  0  0  0  0  0  0
   -8.0830   18.3640  -31.6030 C   0  0  0  0  0  0  0  0  0  0  0  0
   -9.1160   19.2300  -31.7820 N   0  0  0  0  0  0  0  0  0  0  0  0
   -8.9110   20.4990  -32.2240 C   0  0  0  0  0  0  0  0  0  0  0  0
   -7.6160   20.9400  -32.5140 C   0  0  0  0  0  0  0  0  0  0  0  0
   -4.2660   23.0080  -30.0910 C   0  0  0  0  0  0  0  0  0  0  0  0
   -1.8230   24.8020  -26.7980 C   0  0  0  0  0  0  0  0  0  0  0  0
   -1.2610   23.5840  -26.3770 C   0  0  0  0  0  0  0  0  0  0  0  0
   -0.4840   23.5210  -25.2200 C   0  0  0  0  0  0  0  0  0  0  0  0
   -0.2590   24.6700  -24.4620 C   0  0  0  0  0  0  0  0  0  0  0  0
   -0.8170   25.8990  -24.8530 C   0  0  0  0  0  0  0  0  0  0  0  0
   -0.5200   27.1500  -24.0670 C   0  0  0  0  0  0  0  0  0  0  0  0
    0.8330   27.4420  -24.1100 F   0  0  0  0  0  0  0  0  0  0  0  0
   -1.2270   28.2080  -24.6090 F   0  0  0  0  0  0  0  0  0  0  0  0
   -0.8860   26.9950  -22.7410 F   0  0  0  0  0  0  0  0  0  0  0  0
   -1.5730   25.9630  -26.0390 C   0  0  0  0  0  0  0  0  0  0  0  0
   -4.5260   24.2380  -27.1590 H   0  0  0  0  0  0  0  0  0  0  0  0
   -6.1673   25.6545  -29.0443 H   0  0  0  0  0  0  0  0  0  0  0  0
   -7.3319   25.1467  -31.1887 H   0  0  0  0  0  0  0  0  0  0  0  0
   -6.5474   23.2720  -32.6297 H   0  0  0  0  0  0  0  0  0  0  0  0
   -2.0845   19.7212  -35.0971 H   0  0  0  0  0  0  0  0  0  0  0  0
   -1.1433   21.8478  -35.1028 H   0  0  0  0  0  0  0  0  0  0  0  0
   -0.9109   21.8624  -33.3128 H   0  0  0  0  0  0  0  0  0  0  0  0
    0.6176   20.1348  -35.3213 H   0  0  0  0  0  0  0  0  0  0  0  0
    1.2307   21.6130  -34.4464 H   0  0  0  0  0  0  0  0  0  0  0  0
    1.6310   20.4800  -32.6360 H   0  0  0  0  0  0  0  0  0  0  0  0
    0.3433   18.4384  -31.9124 H   0  0  0  0  0  0  0  0  0  0  0  0
   -0.4025   20.0810  -31.7483 H   0  0  0  0  0  0  0  0  0  0  0  0
   -0.8863   18.1260  -34.0478 H   0  0  0  0  0  0  0  0  0  0  0  0
   -2.0052   18.4466  -32.6606 H   0  0  0  0  0  0  0  0  0  0  0  0
   -4.4739   18.9374  -34.0386 H   0  0  0  0  0  0  0  0  0  0  0  0
   -5.9402   18.0601  -31.7486 H   0  0  0  0  0  0  0  0  0  0  0  0
   -8.2788   17.3450  -31.2380 H   0  0  0  0  0  0  0  0  0  0  0  0
   -9.7650   21.1800  -32.3538 H   0  0  0  0  0  0  0  0  0  0  0  0
   -7.4494   21.9626  -32.8836 H   0  0  0  0  0  0  0  0  0  0  0  0
   -3.3800   22.4258  -29.7977 H   0  0  0  0  0  0  0  0  0  0  0  0
   -1.4357   22.6714  -26.9658 H   0  0  0  0  0  0  0  0  0  0  0  0
   -0.0473   22.5619  -24.9045 H   0  0  0  0  0  0  0  0  0  0  0  0
    0.3585   24.6138  -23.5534 H   0  0  0  0  0  0  0  0  0  0  0  0
   -1.9731   26.9302  -26.3771 H   0  0  0  0  0  0  0  0  0  0  0  0
  1  2  2  0
  2  3  1  0
  3  4  1  0
  4  5  2  0
  5  6  1  0
  6  7  2  0
  7  8  1  0
  8  9  1  0
  9 10  2  0
 10 11  1  0
 11 12  1  0
 12 13  1  0
 13 14  1  0
 14 15  1  0
 15 16  1  0
 16 17  1  0
 11 18  1  0
 18 19  2  0
 19 20  1  0
 20 21  2  0
 21 22  1  0
 22 23  2  0
 23 24  1  0
 24 25  2  0
  8 26  2  0
  2 27  1  0
 27 28  2  0
 28 29  1  0
 29 30  2  0
 30 31  1  0
 31 32  1  0
 32 33  1  0
 32 34  1  0
 32 35  1  0
 31 36  2  0
 26  4  1  0
 36 27  1  0
 19  9  1  0
 25 20  1  0
 17 12  1  0
  3 37  1  0
  5 38  1  0
  6 39  1  0
  7 40  1  0
 12 41  1  0
 13 42  1  0
 13 43  1  0
 14 44  1  0
 14 45  1  0
 15 46  1  0
 16 47  1  0
 16 48  1  0
 17 49  1  0
 17 50  1  0
 18 51  1  0
 21 52  1  0
 22 53  1  0
 24 54  1  0
 25 55  1  0
 26 56  1  0
 28 57  1  0
 29 58  1  0
 30 59  1  0
 36 60  1  0
M  END
>  <UniqueID>  (49) 
44

>  <SMILES>  (49) 
O=C(Nc1cccc(-c2nn(C3CCNCC3)cc2-c2ccncc2)c1)c1cccc(C(F)(F)F)c1

>  <Energy>  (49) 
117.08333316665176

>  <Genealogy>  (49) 
O=C(Nc1cccc(-c2nn(C3CCNCC3)cc2-c2ccncc2)c1)c1cccc(C(F)(F)F)c1 (3D coordinates assigned)
O=C(Nc1cccc(-c2nn(C3CCNCC3)cc2-c2ccncc2)c1)c1cccc(C(F)(F)F)c1 (nonaromatic ring conformer: 117.08333316665176 kcal/mol)

>  <smiles>  (49) 
O=C(Nc1cccc(-c2nn(C3CCNCC3)cc2-c2ccncc2)c1)c1cccc(C(F)(F)F)c1

>  <score_type>  (49) 
oracle

>  <origin>  (49) 
adgpu

>  <m_score__min__energy>  (49) 
-10.630000000000001

>  <m_primary>  (49) 
energy

$$$$
