0:0
     RDKit          3D

 47 50  0  0  0  0  0  0  0  0999 V2000
    0.5880   17.8510  -29.0100 H   0  0  0  0  0  0  0  0  0  0  0  0
    0.6540   18.8920  -29.0720 N   0  0  0  0  0  0  0  0  0  0  0  0
   -0.2690   19.6580  -28.5890 C   0  0  0  0  0  0  0  0  0  0  0  0
   -1.3580   19.1200  -27.9800 N   0  0  0  0  0  0  0  0  0  0  0  0
   -2.3280   19.9280  -27.4800 C   0  0  0  0  0  0  0  0  0  0  0  0
   -3.5050   19.3400  -26.7770 C   0  0  0  0  0  0  0  0  0  0  0  0
   -3.3571   19.4139  -25.6895 H   0  0  0  0  0  0  0  0  0  0  0  0
   -4.4143   19.8897  -27.0616 H   0  0  0  0  0  0  0  0  0  0  0  0
   -3.6115   18.2828  -27.0616 H   0  0  0  0  0  0  0  0  0  0  0  0
   -2.1930   21.2770  -27.5640 N   0  0  0  0  0  0  0  0  0  0  0  0
   -1.0960   21.8190  -28.1550 C   0  0  0  0  0  0  0  0  0  0  0  0
   -0.9530   23.2830  -28.2430 C   0  0  0  0  0  0  0  0  0  0  0  0
   -0.1210   23.9010  -27.2970 C   0  0  0  0  0  0  0  0  0  0  0  0
    0.5081   23.2842  -26.6384 H   0  0  0  0  0  0  0  0  0  0  0  0
   -0.0850   25.2880  -27.1850 C   0  0  0  0  0  0  0  0  0  0  0  0
    0.5735   25.7690  -26.4467 H   0  0  0  0  0  0  0  0  0  0  0  0
   -0.8900   26.0590  -28.0160 C   0  0  0  0  0  0  0  0  0  0  0  0
   -0.9000   27.1539  -27.9102 H   0  0  0  0  0  0  0  0  0  0  0  0
   -1.6630   25.4620  -28.9570 N   0  0  0  0  0  0  0  0  0  0  0  0
   -1.7050   24.1120  -29.1320 C   0  0  0  0  0  0  0  0  0  0  0  0
   -2.4210   23.6650  -30.1310 N   0  0  0  0  0  0  0  0  0  0  0  0
   -2.4800   22.3400  -30.6800 C   0  0  0  0  0  0  0  0  0  0  0  0
   -1.3230   21.7200  -31.1790 C   0  0  0  0  0  0  0  0  0  0  0  0
   -0.1310   22.3660  -31.1540 F   0  0  0  0  0  0  0  0  0  0  0  0
   -1.3940   20.4270  -31.6970 C   0  0  0  0  0  0  0  0  0  0  0  0
   -0.4833   19.9357  -32.0701 H   0  0  0  0  0  0  0  0  0  0  0  0
   -2.6170   19.7530  -31.7440 C   0  0  0  0  0  0  0  0  0  0  0  0
   -2.6599   18.7265  -32.1370 H   0  0  0  0  0  0  0  0  0  0  0  0
   -3.7950   20.3780  -31.2920 C   0  0  0  0  0  0  0  0  0  0  0  0
   -5.0710   19.7110  -31.3340 N   0  0  0  0  0  0  0  0  0  0  0  0
   -5.4890   19.3500  -30.4480 H   0  0  0  0  0  0  0  0  0  0  0  0
   -5.9880   19.4500  -32.7850 S   0  0  0  0  0  0  0  0  0  0  0  0
   -7.4350   19.7500  -32.5110 O   0  0  0  0  0  0  0  0  0  0  0  0
   -5.4910   20.3790  -33.8560 O   0  0  0  0  0  0  0  0  0  0  0  0
   -5.7910   17.7900  -33.3380 C   0  0  0  0  0  0  0  0  0  0  0  0
   -6.9050   16.9510  -33.4720 C   0  0  0  0  0  0  0  0  0  0  0  0
   -7.9087   17.3267  -33.2241 H   0  0  0  0  0  0  0  0  0  0  0  0
   -6.7470   15.6730  -33.9080 N   0  0  0  0  0  0  0  0  0  0  0  0
   -5.5220   15.1710  -34.2200 C   0  0  0  0  0  0  0  0  0  0  0  0
   -5.4264   14.1334  -34.5724 H   0  0  0  0  0  0  0  0  0  0  0  0
   -4.3850   15.9730  -34.0930 C   0  0  0  0  0  0  0  0  0  0  0  0
   -3.3915   15.5713  -34.3413 H   0  0  0  0  0  0  0  0  0  0  0  0
   -4.5220   17.2890  -33.6480 C   0  0  0  0  0  0  0  0  0  0  0  0
   -3.6347   17.9303  -33.5414 H   0  0  0  0  0  0  0  0  0  0  0  0
   -3.7160   21.6870  -30.7790 C   0  0  0  0  0  0  0  0  0  0  0  0
   -4.8340   22.3130  -30.3300 F   0  0  0  0  0  0  0  0  0  0  0  0
   -0.1440   21.0050  -28.6820 N   0  0  0  0  0  0  0  0  0  0  0  0
  1  2  1  0
  2  3  2  0
  3  4  1  0
  4  5  2  0
  5  6  1  0
  6  7  1  0
  6  8  1  0
  6  9  1  0
  5 10  1  0
 10 11  2  0
 11 12  1  0
 12 13  2  0
 13 14  1  0
 13 15  1  0
 15 16  1  0
 15 17  2  0
 17 18  1  0
 17 19  1  0
 19 20  1  0
 20 21  2  0
 21 22  1  0
 22 23  2  0
 23 24  1  0
 23 25  1  0
 25 26  1  0
 25 27  2  0
 27 28  1  0
 27 29  1  0
 29 30  1  0
 30 31  1  0
 30 32  1  0
 32 33  2  0
 32 34  2  0
 32 35  1  0
 35 36  2  0
 36 37  1  0
 36 38  1  0
 38 39  2  0
 39 40  1  0
 39 41  1  0
 41 42  1  0
 41 43  2  0
 43 44  1  0
 29 45  2  0
 45 46  1  0
 11 47  1  0
 47  3  1  0
 20 12  1  0
 45 22  1  0
 43 35  1  0
M  CHG  2  19  -1  47  -1
M  END
>  <UniqueID>  (1) 
1

>  <SMILES>  (1) 
[H]/N=c1\nc(C)nc(-c2ccc[n-]/c2=N/c2c(F)ccc(NS(=O)(=O)c3cccnc3)c2F)[n-]1

>  <Energy>  (1) 
75.00810925472828

>  <Genealogy>  (1) 
Cc1nc(-c2ccc[n-]c2=Nc2c(F)ccc(NS(=O)(=O)c3cccnc3)c2F)[n-]c(=N)n1 (protonated)
[H]/N=c1\nc(C)nc(-c2ccc[n-]/c2=N/c2c(F)ccc(NS(=O)(=O)c3cccnc3)c2F)[n-]1 (cis-trans isomerization)
[H]/N=c1\nc(C)nc(-c2ccc[n-]/c2=N/c2c(F)ccc(NS(=O)(=O)c3cccnc3)c2F)[n-]1 (3D coordinates assigned)
[H]/N=c1\nc(C)nc(-c2ccc[n-]/c2=N/c2c(F)ccc(NS(=O)(=O)c3cccnc3)c2F)[n-]1 (optimized conformer: 75.00810925472828 kcal/mol)

>  <smiles>  (1) 
Cc1nc(-c2ccc[nH]c2=Nc2c(F)ccc(NS(=O)(=O)c3cccnc3)c2F)[nH]c(=N)n1

>  <score_type>  (1) 
oracle

>  <origin>  (1) 
adgpu

>  <m_score__min__energy>  (1) 
-9.4700000000000006

>  <m_primary>  (1) 
energy

$$$$
1:0
     RDKit          3D

 37 39  0  0  0  0  0  0  0  0999 V2000
   -2.7320   15.9270  -35.9470 N   0  0  0  0  0  0  0  0  0  0  0  0
   -3.5790   16.2650  -35.2360 C   0  0  0  0  0  0  0  0  0  0  0  0
   -4.6360   16.6870  -34.3500 C   0  0  0  0  0  0  0  0  0  0  0  0
   -5.2500   17.9280  -34.5330 C   0  0  0  0  0  0  0  0  0  0  0  0
   -6.2600   18.3310  -33.7040 N   0  0  0  0  0  0  0  0  0  0  0  0
   -6.8580   19.5970  -33.8770 N   0  0  0  0  0  0  0  0  0  0  0  0
   -6.5190   20.7390  -33.0700 C   0  0  0  0  0  0  0  0  0  0  0  0
   -7.5300   21.4300  -32.3880 C   0  0  0  0  0  0  0  0  0  0  0  0
   -7.2200   22.5440  -31.6030 C   0  0  0  0  0  0  0  0  0  0  0  0
   -5.8960   22.9820  -31.4870 C   0  0  0  0  0  0  0  0  0  0  0  0
   -5.6130   24.1270  -30.6700 N   0  0  0  0  0  0  0  0  0  0  0  0
   -4.3110   24.6030  -30.3000 C   0  0  0  0  0  0  0  0  0  0  0  0
   -3.8820   25.6620  -30.8280 O   0  0  0  0  0  0  0  0  0  0  0  0
   -3.4730   23.9050  -29.2970 C   0  0  0  0  0  0  0  0  0  0  0  0
   -3.8870   22.6540  -28.8050 C   0  0  0  0  0  0  0  0  0  0  0  0
   -3.1260   21.9850  -27.8420 C   0  0  0  0  0  0  0  0  0  0  0  0
   -1.9410   22.5510  -27.3680 C   0  0  0  0  0  0  0  0  0  0  0  0
   -1.5080   23.7830  -27.8650 C   0  0  0  0  0  0  0  0  0  0  0  0
   -2.2610   24.4570  -28.8330 C   0  0  0  0  0  0  0  0  0  0  0  0
   -1.7830   25.6590  -29.3420 O   0  0  0  0  0  0  0  0  0  0  0  0
   -4.8880   22.3220  -32.2110 C   0  0  0  0  0  0  0  0  0  0  0  0
   -5.1970   21.2080  -32.9940 C   0  0  0  0  0  0  0  0  0  0  0  0
   -6.6480   17.5300  -32.6660 C   0  0  0  0  0  0  0  0  0  0  0  0
   -7.5640   17.8980  -31.8820 O   0  0  0  0  0  0  0  0  0  0  0  0
   -6.0570   16.3220  -32.4740 N   0  0  0  0  0  0  0  0  0  0  0  0
   -5.0680   15.8830  -33.2910 C   0  0  0  0  0  0  0  0  0  0  0  0
   -4.5460   14.7540  -33.0830 O   0  0  0  0  0  0  0  0  0  0  0  0
   -4.9187   18.5860  -35.3499 H   0  0  0  0  0  0  0  0  0  0  0  0
   -7.5660   19.7210  -34.6360 H   0  0  0  0  0  0  0  0  0  0  0  0
   -8.5739   21.0934  -32.4711 H   0  0  0  0  0  0  0  0  0  0  0  0
   -8.0215   23.0797  -31.0732 H   0  0  0  0  0  0  0  0  0  0  0  0
   -4.8155   22.1992  -29.1804 H   0  0  0  0  0  0  0  0  0  0  0  0
   -3.4614   21.0107  -27.4569 H   0  0  0  0  0  0  0  0  0  0  0  0
   -1.3484   22.0272  -26.6035 H   0  0  0  0  0  0  0  0  0  0  0  0
   -0.5715   24.2249  -27.4939 H   0  0  0  0  0  0  0  0  0  0  0  0
   -3.8508   22.6849  -32.1605 H   0  0  0  0  0  0  0  0  0  0  0  0
   -4.4013   20.6951  -33.5541 H   0  0  0  0  0  0  0  0  0  0  0  0
  1  2  3  0
  2  3  1  0
  3  4  2  0
  4  5  1  0
  5  6  1  0
  6  7  1  0
  7  8  2  0
  8  9  1  0
  9 10  2  0
 10 11  1  0
 11 12  1  0
 12 13  2  0
 12 14  1  0
 14 15  2  0
 15 16  1  0
 16 17  2  0
 17 18  1  0
 18 19  2  0
 19 20  1  0
 10 21  1  0
 21 22  2  0
  5 23  1  0
 23 24  2  0
 23 25  1  0
 25 26  1  0
 26 27  2  0
 26  3  1  0
 22  7  1  0
 19 14  1  0
  4 28  1  0
  6 29  1  0
  8 30  1  0
  9 31  1  0
 15 32  1  0
 16 33  1  0
 17 34  1  0
 18 35  1  0
 21 36  1  0
 22 37  1  0
M  CHG  3  11  -1  20  -1  25  -1
M  END
>  <UniqueID>  (2) 
2

>  <SMILES>  (2) 
N#Cc1cn(Nc2ccc([N-]C(=O)c3ccccc3[O-])cc2)c(=O)[n-]c1=O

>  <Energy>  (2) 
55.88039104469965

>  <Genealogy>  (2) 
N#Cc1cn(Nc2ccc([N-]C(=O)c3ccccc3[O-])cc2)c(=O)[n-]c1=O (protonated)
N#Cc1cn(Nc2ccc([N-]C(=O)c3ccccc3[O-])cc2)c(=O)[n-]c1=O (3D coordinates assigned)
N#Cc1cn(Nc2ccc([N-]C(=O)c3ccccc3[O-])cc2)c(=O)[n-]c1=O (optimized conformer: 55.88039104469965 kcal/mol)

>  <smiles>  (2) 
N#Cc1cn(Nc2ccc(NC(=O)c3ccccc3O)cc2)c(=O)[nH]c1=O

>  <score_type>  (2) 
oracle

>  <origin>  (2) 
adgpu

>  <m_score__min__energy>  (2) 
-12.91

>  <m_primary>  (2) 
energy

$$$$
2:0
     RDKit          3D

 45 47  0  0  0  0  0  0  0  0999 V2000
   -6.3660   17.5110  -31.2980 C   0  0  0  0  0  0  0  0  0  0  0  0
   -7.3240   17.7040  -32.4690 C   0  0  0  0  0  0  0  0  0  0  0  0
   -7.1070   19.0360  -33.1370 C   0  0  0  0  0  0  0  0  0  0  0  0
   -6.4820   19.0770  -34.2310 O   0  0  0  0  0  0  0  0  0  0  0  0
   -7.6770   20.2450  -32.6130 N   0  0  0  0  0  0  0  0  0  0  0  0
   -9.0740   20.3280  -32.1850 C   0  0  0  0  0  0  0  0  0  0  0  0
   -9.1670   21.5570  -31.2490 C   0  0  0  0  0  0  0  0  0  0  0  0
   -7.7890   22.1170  -31.2800 C   0  0  0  0  0  0  0  0  0  0  0  0
   -7.3180   23.2670  -30.6440 C   0  0  0  0  0  0  0  0  0  0  0  0
   -5.9770   23.6460  -30.8450 C   0  0  0  0  0  0  0  0  0  0  0  0
   -5.3100   25.0470  -30.0160 S   0  0  0  0  0  0  0  0  0  0  0  0
   -4.2580   25.6690  -30.8890 O   0  0  0  0  0  0  0  0  0  0  0  0
   -6.3820   26.0640  -29.7390 O   0  0  0  0  0  0  0  0  0  0  0  0
   -4.5960   24.5520  -28.5140 N   0  0  0  0  0  0  0  0  0  0  0  0
   -3.5200   23.5990  -28.4310 C   0  0  0  0  0  0  0  0  0  0  0  0
   -3.7730   22.2500  -28.1150 C   0  0  0  0  0  0  0  0  0  0  0  0
   -2.7260   21.3270  -28.0510 C   0  0  0  0  0  0  0  0  0  0  0  0
   -1.4160   21.7400  -28.2880 C   0  0  0  0  0  0  0  0  0  0  0  0
   -1.1460   23.0760  -28.5880 C   0  0  0  0  0  0  0  0  0  0  0  0
   -2.1920   24.0170  -28.6630 C   0  0  0  0  0  0  0  0  0  0  0  0
   -1.9510   25.3650  -28.9740 O   0  0  0  0  0  0  0  0  0  0  0  0
   -1.1220   26.2350  -28.2100 C   0  0  0  0  0  0  0  0  0  0  0  0
   -5.1550   22.8870  -31.7050 C   0  0  0  0  0  0  0  0  0  0  0  0
   -5.6560   21.7380  -32.3340 C   0  0  0  0  0  0  0  0  0  0  0  0
   -6.9750   21.3530  -32.0690 C   0  0  0  0  0  0  0  0  0  0  0  0
   -6.9163   17.6219  -30.3520 H   0  0  0  0  0  0  0  0  0  0  0  0
   -5.9228   16.5055  -31.3487 H   0  0  0  0  0  0  0  0  0  0  0  0
   -5.5680   18.2664  -31.3487 H   0  0  0  0  0  0  0  0  0  0  0  0
   -7.1579   16.9028  -33.2041 H   0  0  0  0  0  0  0  0  0  0  0  0
   -8.3542   17.6709  -32.0850 H   0  0  0  0  0  0  0  0  0  0  0  0
   -9.7323   20.4615  -33.0561 H   0  0  0  0  0  0  0  0  0  0  0  0
   -9.3910   19.4083  -31.6714 H   0  0  0  0  0  0  0  0  0  0  0  0
   -9.8974   22.2868  -31.6285 H   0  0  0  0  0  0  0  0  0  0  0  0
   -9.5041   21.3000  -30.2339 H   0  0  0  0  0  0  0  0  0  0  0  0
   -7.9802   23.8641  -29.9998 H   0  0  0  0  0  0  0  0  0  0  0  0
   -4.8850   25.0810  -27.6610 H   0  0  0  0  0  0  0  0  0  0  0  0
   -4.8036   21.9203  -27.9169 H   0  0  0  0  0  0  0  0  0  0  0  0
   -2.9357   20.2736  -27.8134 H   0  0  0  0  0  0  0  0  0  0  0  0
   -0.5933   21.0115  -28.2385 H   0  0  0  0  0  0  0  0  0  0  0  0
   -0.1091   23.3967  -28.7672 H   0  0  0  0  0  0  0  0  0  0  0  0
   -1.2924   26.0562  -27.1381 H   0  0  0  0  0  0  0  0  0  0  0  0
   -0.0664   26.0408  -28.4509 H   0  0  0  0  0  0  0  0  0  0  0  0
   -1.3668   27.2800  -28.4509 H   0  0  0  0  0  0  0  0  0  0  0  0
   -4.1151   23.1984  -31.8831 H   0  0  0  0  0  0  0  0  0  0  0  0
   -5.0263   21.1526  -33.0202 H   0  0  0  0  0  0  0  0  0  0  0  0
  1  2  1  0
  2  3  1  0
  3  4  2  0
  3  5  1  0
  5  6  1  0
  6  7  1  0
  7  8  1  0
  8  9  2  0
  9 10  1  0
 10 11  1  0
 11 12  2  0
 11 13  2  0
 11 14  1  0
 14 15  1  0
 15 16  2  0
 16 17  1  0
 17 18  2  0
 18 19  1  0
 19 20  2  0
 20 21  1  0
 21 22  1  0
 10 23  2  0
 23 24  1  0
 24 25  2  0
 25  5  1  0
 25  8  1  0
 20 15  1  0
  1 26  1  0
  1 27  1  0
  1 28  1  0
  2 29  1  0
  2 30  1  0
  6 31  1  0
  6 32  1  0
  7 33  1  0
  7 34  1  0
  9 35  1  0
 14 36  1  0
 16 37  1  0
 17 38  1  0
 18 39  1  0
 19 40  1  0
 22 41  1  0
 22 42  1  0
 22 43  1  0
 23 44  1  0
 24 45  1  0
M  END
>  <UniqueID>  (3) 
3

>  <SMILES>  (3) 
CCC(=O)N1CCc2cc(S(=O)(=O)Nc3ccccc3OC)ccc21

>  <Energy>  (3) 
64.85294496842502

>  <Genealogy>  (3) 
CCC(=O)N1CCc2cc(S(=O)(=O)Nc3ccccc3OC)ccc21 (3D coordinates assigned)
CCC(=O)N1CCc2cc(S(=O)(=O)Nc3ccccc3OC)ccc21 (nonaromatic ring conformer: 64.85294496842502 kcal/mol)

>  <smiles>  (3) 
CCC(=O)N1CCc2cc(S(=O)(=O)Nc3ccccc3OC)ccc21

>  <score_type>  (3) 
oracle

>  <origin>  (3) 
adgpu

>  <m_score__min__energy>  (3) 
-10.390000000000001

>  <m_primary>  (3) 
energy

$$$$
3:0
     RDKit          3D

 53 56  0  0  0  0  0  0  0  0999 V2000
   -1.6020   25.6160  -29.2170 O   0  0  0  0  0  0  0  0  0  0  0  0
   -2.5240   24.7690  -29.3520 C   0  0  0  0  0  0  0  0  0  0  0  0
   -3.4140   24.8870  -30.4660 N   0  0  0  0  0  0  0  0  0  0  0  0
   -4.7990   24.5130  -30.4870 C   0  0  0  0  0  0  0  0  0  0  0  0
   -5.7470   25.4200  -30.0010 C   0  0  0  0  0  0  0  0  0  0  0  0
   -7.1050   25.0980  -30.0180 C   0  0  0  0  0  0  0  0  0  0  0  0
   -7.5310   23.8720  -30.5330 C   0  0  0  0  0  0  0  0  0  0  0  0
   -6.5980   22.9530  -31.0510 C   0  0  0  0  0  0  0  0  0  0  0  0
   -7.0490   21.6550  -31.6110 C   0  0  0  0  0  0  0  0  0  0  0  0
   -8.1240   21.0120  -31.0780 N   0  0  0  0  0  0  0  0  0  0  0  0
   -8.5490   19.8210  -31.5730 C   0  0  0  0  0  0  0  0  0  0  0  0
   -7.8820   19.2360  -32.6460 C   0  0  0  0  0  0  0  0  0  0  0  0
   -6.7830   19.9050  -33.1950 C   0  0  0  0  0  0  0  0  0  0  0  0
   -5.9860   19.2920  -34.3050 C   0  0  0  0  0  0  0  0  0  0  0  0
   -4.5480   18.4660  -33.6430 S   0  0  0  0  0  0  0  0  0  0  0  0
   -3.9550   17.5680  -34.6940 O   0  0  0  0  0  0  0  0  0  0  0  0
   -4.9540   17.6230  -32.4660 O   0  0  0  0  0  0  0  0  0  0  0  0
   -3.3560   19.6570  -33.1330 C   0  0  0  0  0  0  0  0  0  0  0  0
   -2.1810   19.8400  -33.8780 C   0  0  0  0  0  0  0  0  0  0  0  0
   -1.2160   20.7570  -33.4500 C   0  0  0  0  0  0  0  0  0  0  0  0
   -1.4160   21.4910  -32.2780 C   0  0  0  0  0  0  0  0  0  0  0  0
   -2.5820   21.3060  -31.5280 C   0  0  0  0  0  0  0  0  0  0  0  0
   -3.5500   20.3910  -31.9530 C   0  0  0  0  0  0  0  0  0  0  0  0
   -6.3880   21.0920  -32.6600 N   0  0  0  0  0  0  0  0  0  0  0  0
   -5.2310   23.2920  -31.0360 C   0  0  0  0  0  0  0  0  0  0  0  0
   -2.6810   23.7030  -28.4050 N   0  0  0  0  0  0  0  0  0  0  0  0
   -1.9760   22.4540  -28.3820 C   0  0  0  0  0  0  0  0  0  0  0  0
   -0.7720   22.2610  -29.0820 C   0  0  0  0  0  0  0  0  0  0  0  0
   -0.1030   21.0370  -29.0040 C   0  0  0  0  0  0  0  0  0  0  0  0
   -0.6220   19.9990  -28.2260 C   0  0  0  0  0  0  0  0  0  0  0  0
   -1.8250   20.1740  -27.5210 C   0  0  0  0  0  0  0  0  0  0  0  0
   -2.3530   19.0780  -26.6310 C   0  0  0  0  0  0  0  0  0  0  0  0
   -2.3550   19.5160  -25.3200 F   0  0  0  0  0  0  0  0  0  0  0  0
   -3.6460   18.7340  -26.9930 F   0  0  0  0  0  0  0  0  0  0  0  0
   -1.5630   17.9450  -26.7280 F   0  0  0  0  0  0  0  0  0  0  0  0
   -2.4780   21.4190  -27.5820 C   0  0  0  0  0  0  0  0  0  0  0  0
   -5.4203   26.3922  -29.6033 H   0  0  0  0  0  0  0  0  0  0  0  0
   -7.8425   25.8128  -29.6242 H   0  0  0  0  0  0  0  0  0  0  0  0
   -8.6023   23.6224  -30.5341 H   0  0  0  0  0  0  0  0  0  0  0  0
   -9.4198   19.3187  -31.1264 H   0  0  0  0  0  0  0  0  0  0  0  0
   -8.2120   18.2689  -33.0531 H   0  0  0  0  0  0  0  0  0  0  0  0
   -6.6103   18.5622  -34.8413 H   0  0  0  0  0  0  0  0  0  0  0  0
   -5.6606   20.0843  -34.9952 H   0  0  0  0  0  0  0  0  0  0  0  0
   -2.0189   19.2616  -34.7995 H   0  0  0  0  0  0  0  0  0  0  0  0
   -0.2972   20.9009  -34.0374 H   0  0  0  0  0  0  0  0  0  0  0  0
   -0.6567   22.2141  -31.9453 H   0  0  0  0  0  0  0  0  0  0  0  0
   -2.7376   21.8808  -30.6031 H   0  0  0  0  0  0  0  0  0  0  0  0
   -4.4657   20.2462  -31.3610 H   0  0  0  0  0  0  0  0  0  0  0  0
   -4.4930   22.5942  -31.4583 H   0  0  0  0  0  0  0  0  0  0  0  0
   -0.3557   23.0758  -29.6926 H   0  0  0  0  0  0  0  0  0  0  0  0
    0.8362   20.8899  -29.5574 H   0  0  0  0  0  0  0  0  0  0  0  0
   -0.0864   19.0402  -28.1650 H   0  0  0  0  0  0  0  0  0  0  0  0
   -3.3936   21.5816  -26.9945 H   0  0  0  0  0  0  0  0  0  0  0  0
  1  2  2  0
  2  3  1  0
  3  4  1  0
  4  5  2  0
  5  6  1  0
  6  7  2  0
  7  8  1  0
  8  9  1  0
  9 10  2  0
 10 11  1  0
 11 12  2  0
 12 13  1  0
 13 14  1  0
 14 15  1  0
 15 16  2  0
 15 17  2  0
 15 18  1  0
 18 19  2  0
 19 20  1  0
 20 21  2  0
 21 22  1  0
 22 23  2  0
 13 24  2  0
  8 25  2  0
  2 26  1  0
 26 27  1  0
 27 28  2  0
 28 29  1  0
 29 30  2  0
 30 31  1  0
 31 32  1  0
 32 33  1  0
 32 34  1  0
 32 35  1  0
 31 36  2  0
 25  4  1  0
 36 27  1  0
 24  9  1  0
 23 18  1  0
  5 37  1  0
  6 38  1  0
  7 39  1  0
 11 40  1  0
 12 41  1  0
 14 42  1  0
 14 43  1  0
 19 44  1  0
 20 45  1  0
 21 46  1  0
 22 47  1  0
 23 48  1  0
 25 49  1  0
 28 50  1  0
 29 51  1  0
 30 52  1  0
 36 53  1  0
M  CHG  2   3  -1  26  -1
M  END
>  <UniqueID>  (4) 
4

>  <SMILES>  (4) 
O=C([N-]c1cccc(-c2nccc(CS(=O)(=O)c3ccccc3)n2)c1)[N-]c1cccc(C(F)(F)F)c1

>  <Energy>  (4) 
62.21286975763753

>  <Genealogy>  (4) 
O=C([N-]c1cccc(-c2nccc(CS(=O)(=O)c3ccccc3)n2)c1)[N-]c1cccc(C(F)(F)F)c1 (protonated)
O=C([N-]c1cccc(-c2nccc(CS(=O)(=O)c3ccccc3)n2)c1)[N-]c1cccc(C(F)(F)F)c1 (3D coordinates assigned)
O=C([N-]c1cccc(-c2nccc(CS(=O)(=O)c3ccccc3)n2)c1)[N-]c1cccc(C(F)(F)F)c1 (optimized conformer: 62.21286975763753 kcal/mol)

>  <smiles>  (4) 
O=C(Nc1cccc(-c2nccc(CS(=O)(=O)c3ccccc3)n2)c1)Nc1cccc(C(F)(F)F)c1

>  <score_type>  (4) 
oracle

>  <origin>  (4) 
adgpu

>  <m_score__min__energy>  (4) 
-13.220000000000001

>  <m_primary>  (4) 
energy

$$$$
4:0
     RDKit          3D

 44 46  0  0  0  0  0  0  0  0999 V2000
   -1.6410   19.7980  -27.8110 C   0  0  0  0  0  0  0  0  0  0  0  0
   -1.7570   20.2860  -29.1440 O   0  0  0  0  0  0  0  0  0  0  0  0
   -2.3160   21.5260  -29.4870 C   0  0  0  0  0  0  0  0  0  0  0  0
   -1.9380   22.6500  -28.7500 C   0  0  0  0  0  0  0  0  0  0  0  0
   -2.4570   23.9080  -29.0540 C   0  0  0  0  0  0  0  0  0  0  0  0
   -3.3780   24.0670  -30.1080 C   0  0  0  0  0  0  0  0  0  0  0  0
   -3.8810   25.3300  -30.4570 O   0  0  0  0  0  0  0  0  0  0  0  0
   -5.2610   25.6820  -30.4630 C   0  0  0  0  0  0  0  0  0  0  0  0
   -3.7890   22.9270  -30.8390 C   0  0  0  0  0  0  0  0  0  0  0  0
   -4.7320   22.9890  -31.8790 O   0  0  0  0  0  0  0  0  0  0  0  0
   -5.9660   22.3240  -31.8990 C   0  0  0  0  0  0  0  0  0  0  0  0
   -7.0750   22.9780  -31.3530 C   0  0  0  0  0  0  0  0  0  0  0  0
   -8.3070   22.3280  -31.3010 C   0  0  0  0  0  0  0  0  0  0  0  0
   -8.4370   21.0680  -31.7910 N   0  0  0  0  0  0  0  0  0  0  0  0
   -7.3930   20.4090  -32.3590 C   0  0  0  0  0  0  0  0  0  0  0  0
   -7.5820   19.1180  -32.8610 C   0  0  0  0  0  0  0  0  0  0  0  0
   -6.5200   18.4280  -33.4750 C   0  0  0  0  0  0  0  0  0  0  0  0
   -6.6720   17.1280  -33.9810 O   0  0  0  0  0  0  0  0  0  0  0  0
   -5.9410   15.9930  -33.5260 C   0  0  0  0  0  0  0  0  0  0  0  0
   -5.2670   19.0470  -33.5960 C   0  0  0  0  0  0  0  0  0  0  0  0
   -4.2300   18.3340  -34.2190 O   0  0  0  0  0  0  0  0  0  0  0  0
   -2.8590   18.4030  -33.8400 C   0  0  0  0  0  0  0  0  0  0  0  0
   -5.0790   20.3510  -33.0970 C   0  0  0  0  0  0  0  0  0  0  0  0
   -6.1260   21.0290  -32.4500 C   0  0  0  0  0  0  0  0  0  0  0  0
   -3.2390   21.6750  -30.5370 C   0  0  0  0  0  0  0  0  0  0  0  0
   -1.8356   20.6167  -27.1026 H   0  0  0  0  0  0  0  0  0  0  0  0
   -2.3727   18.9925  -27.6504 H   0  0  0  0  0  0  0  0  0  0  0  0
   -0.6251   19.4079  -27.6504 H   0  0  0  0  0  0  0  0  0  0  0  0
   -1.2233   22.5420  -27.9208 H   0  0  0  0  0  0  0  0  0  0  0  0
   -2.1446   24.7835  -28.4659 H   0  0  0  0  0  0  0  0  0  0  0  0
   -5.6205   25.7737  -29.4275 H   0  0  0  0  0  0  0  0  0  0  0  0
   -5.3922   26.6424  -30.9831 H   0  0  0  0  0  0  0  0  0  0  0  0
   -5.8362   24.9018  -30.9831 H   0  0  0  0  0  0  0  0  0  0  0  0
   -6.9754   24.0027  -30.9656 H   0  0  0  0  0  0  0  0  0  0  0  0
   -9.1772   22.8375  -30.8615 H   0  0  0  0  0  0  0  0  0  0  0  0
   -8.5680   18.6379  -32.7755 H   0  0  0  0  0  0  0  0  0  0  0  0
   -5.9322   15.9793  -32.4261 H   0  0  0  0  0  0  0  0  0  0  0  0
   -6.4183   15.0753  -33.9003 H   0  0  0  0  0  0  0  0  0  0  0  0
   -4.9081   16.0480  -33.9003 H   0  0  0  0  0  0  0  0  0  0  0  0
   -2.7817   18.4069  -32.7427 H   0  0  0  0  0  0  0  0  0  0  0  0
   -2.3230   17.5307  -34.2423 H   0  0  0  0  0  0  0  0  0  0  0  0
   -2.4133   19.3247  -34.2423 H   0  0  0  0  0  0  0  0  0  0  0  0
   -4.1025   20.8435  -33.2151 H   0  0  0  0  0  0  0  0  0  0  0  0
   -3.5332   20.7961  -31.1294 H   0  0  0  0  0  0  0  0  0  0  0  0
  1  2  1  0
  2  3  1  0
  3  4  2  0
  4  5  1  0
  5  6  2  0
  6  7  1  0
  7  8  1  0
  6  9  1  0
  9 10  1  0
 10 11  1  0
 11 12  2  0
 12 13  1  0
 13 14  2  0
 14 15  1  0
 15 16  2  0
 16 17  1  0
 17 18  1  0
 18 19  1  0
 17 20  2  0
 20 21  1  0
 21 22  1  0
 20 23  1  0
 23 24  2  0
  9 25  2  0
 25  3  1  0
 24 11  1  0
 24 15  1  0
  1 26  1  0
  1 27  1  0
  1 28  1  0
  4 29  1  0
  5 30  1  0
  8 31  1  0
  8 32  1  0
  8 33  1  0
 12 34  1  0
 13 35  1  0
 16 36  1  0
 19 37  1  0
 19 38  1  0
 19 39  1  0
 22 40  1  0
 22 41  1  0
 22 42  1  0
 23 43  1  0
 25 44  1  0
M  END
>  <UniqueID>  (5) 
5

>  <SMILES>  (5) 
COc1ccc(OC)c(Oc2ccnc3cc(OC)c(OC)cc23)c1

>  <Energy>  (5) 
57.056950894708315

>  <Genealogy>  (5) 
COc1ccc(OC)c(Oc2ccnc3cc(OC)c(OC)cc23)c1 (3D coordinates assigned)
COc1ccc(OC)c(Oc2ccnc3cc(OC)c(OC)cc23)c1 (optimized conformer: 57.056950894708315 kcal/mol)

>  <smiles>  (5) 
COc1ccc(OC)c(Oc2ccnc3cc(OC)c(OC)cc23)c1

>  <score_type>  (5) 
oracle

>  <origin>  (5) 
adgpu

>  <m_score__min__energy>  (5) 
-7.4400000000000004

>  <m_primary>  (5) 
energy

$$$$
5:0
     RDKit          3D

 46 49  0  0  0  0  0  0  0  0999 V2000
    1.2840   15.6710  -27.1120 C   0  0  0  0  0  0  0  0  0  0  0  0
    1.6590   16.9480  -27.6190 O   0  0  0  0  0  0  0  0  0  0  0  0
    0.7900   18.0440  -27.7250 C   0  0  0  0  0  0  0  0  0  0  0  0
   -0.4870   17.9380  -27.1620 C   0  0  0  0  0  0  0  0  0  0  0  0
   -1.3890   19.0030  -27.2410 C   0  0  0  0  0  0  0  0  0  0  0  0
   -1.0200   20.1960  -27.8780 C   0  0  0  0  0  0  0  0  0  0  0  0
   -1.9840   21.3170  -27.9780 C   0  0  0  0  0  0  0  0  0  0  0  0
   -3.1730   21.1150  -28.6920 C   0  0  0  0  0  0  0  0  0  0  0  0
   -4.0630   22.1270  -28.8530 N   0  0  0  0  0  0  0  0  0  0  0  0
   -3.8580   23.3690  -28.3430 C   0  0  0  0  0  0  0  0  0  0  0  0
   -4.8560   24.3760  -28.5680 N   0  0  0  0  0  0  0  0  0  0  0  0
   -5.3530   24.8730  -30.1560 S   0  0  0  0  0  0  0  0  0  0  0  0
   -6.5080   25.8280  -30.0350 O   0  0  0  0  0  0  0  0  0  0  0  0
   -4.2130   25.5780  -30.8350 O   0  0  0  0  0  0  0  0  0  0  0  0
   -5.8130   23.4670  -31.1100 C   0  0  0  0  0  0  0  0  0  0  0  0
   -4.8320   22.7420  -31.8000 C   0  0  0  0  0  0  0  0  0  0  0  0
   -5.1860   21.6090  -32.5390 C   0  0  0  0  0  0  0  0  0  0  0  0
   -6.5200   21.1940  -32.5910 C   0  0  0  0  0  0  0  0  0  0  0  0
   -7.5060   21.9160  -31.9060 C   0  0  0  0  0  0  0  0  0  0  0  0
   -8.8790   21.4880  -31.9570 C   0  0  0  0  0  0  0  0  0  0  0  0
   -9.9830   21.1430  -31.9970 N   0  0  0  0  0  0  0  0  0  0  0  0
   -7.1520   23.0540  -31.1690 C   0  0  0  0  0  0  0  0  0  0  0  0
   -2.7030   23.6170  -27.5750 C   0  0  0  0  0  0  0  0  0  0  0  0
   -2.5110   24.8240  -26.9760 N   0  0  0  0  0  0  0  0  0  0  0  0
   -1.4240   25.0880  -26.2090 C   0  0  0  0  0  0  0  0  0  0  0  0
   -0.4640   24.1030  -25.9970 C   0  0  0  0  0  0  0  0  0  0  0  0
   -0.6310   22.8460  -26.5800 C   0  0  0  0  0  0  0  0  0  0  0  0
   -1.7540   22.5820  -27.3890 C   0  0  0  0  0  0  0  0  0  0  0  0
    0.2550   20.3020  -28.4550 C   0  0  0  0  0  0  0  0  0  0  0  0
    1.1570   19.2380  -28.3770 C   0  0  0  0  0  0  0  0  0  0  0  0
    1.2915   15.6965  -26.0123 H   0  0  0  0  0  0  0  0  0  0  0  0
    0.2737   15.4182  -27.4660 H   0  0  0  0  0  0  0  0  0  0  0  0
    1.9972   14.9121  -27.4660 H   0  0  0  0  0  0  0  0  0  0  0  0
   -0.7833   17.0089  -26.6531 H   0  0  0  0  0  0  0  0  0  0  0  0
   -2.3926   18.9045  -26.8015 H   0  0  0  0  0  0  0  0  0  0  0  0
   -3.3869   20.1271  -29.1259 H   0  0  0  0  0  0  0  0  0  0  0  0
   -5.5100   24.5970  -27.7860 H   0  0  0  0  0  0  0  0  0  0  0  0
   -3.7812   23.0650  -31.7601 H   0  0  0  0  0  0  0  0  0  0  0  0
   -4.4135   21.0432  -33.0804 H   0  0  0  0  0  0  0  0  0  0  0  0
   -6.7956   20.3002  -33.1700 H   0  0  0  0  0  0  0  0  0  0  0  0
   -7.9262   23.6248  -30.6354 H   0  0  0  0  0  0  0  0  0  0  0  0
   -1.3011   26.0819  -25.7539 H   0  0  0  0  0  0  0  0  0  0  0  0
    0.4188   24.3133  -25.3753 H   0  0  0  0  0  0  0  0  0  0  0  0
    0.1171   22.0582  -26.4072 H   0  0  0  0  0  0  0  0  0  0  0  0
    0.5459   21.2285  -28.9718 H   0  0  0  0  0  0  0  0  0  0  0  0
    2.1567   19.3326  -28.8259 H   0  0  0  0  0  0  0  0  0  0  0  0
  1  2  1  0
  2  3  1  0
  3  4  2  0
  4  5  1  0
  5  6  2  0
  6  7  1  0
  7  8  2  0
  8  9  1  0
  9 10  2  0
 10 11  1  0
 11 12  1  0
 12 13  2  0
 12 14  2  0
 12 15  1  0
 15 16  2  0
 16 17  1  0
 17 18  2  0
 18 19  1  0
 19 20  1  0
 20 21  3  0
 19 22  2  0
 10 23  1  0
 23 24  2  0
 24 25  1  0
 25 26  2  0
 26 27  1  0
 27 28  2  0
  6 29  1  0
 29 30  2  0
 30  3  1  0
 28  7  1  0
 22 15  1  0
 28 23  1  0
  1 31  1  0
  1 32  1  0
  1 33  1  0
  4 34  1  0
  5 35  1  0
  8 36  1  0
 11 37  1  0
 16 38  1  0
 17 39  1  0
 18 40  1  0
 22 41  1  0
 25 42  1  0
 26 43  1  0
 27 44  1  0
 29 45  1  0
 30 46  1  0
M  END
>  <UniqueID>  (6) 
6

>  <SMILES>  (6) 
COc1ccc(-c2cnc(NS(=O)(=O)c3cccc(C#N)c3)c3ncccc23)cc1

>  <Energy>  (6) 
67.3504839284537

>  <Genealogy>  (6) 
COc1ccc(-c2cnc(NS(=O)(=O)c3cccc(C#N)c3)c3ncccc23)cc1 (3D coordinates assigned)
COc1ccc(-c2cnc(NS(=O)(=O)c3cccc(C#N)c3)c3ncccc23)cc1 (optimized conformer: 67.3504839284537 kcal/mol)

>  <smiles>  (6) 
COc1ccc(-c2cnc(NS(=O)(=O)c3cccc(C#N)c3)c3ncccc23)cc1

>  <score_type>  (6) 
oracle

>  <origin>  (6) 
adgpu

>  <m_score__min__energy>  (6) 
-10.199999999999999

>  <m_primary>  (6) 
energy

$$$$
6:0
     RDKit          3D

 41 42  0  0  0  0  0  0  0  0999 V2000
    0.8150   25.3610  -28.2580 H   0  0  0  0  0  0  0  0  0  0  0  0
    0.5330   24.3920  -28.1800 O   0  0  0  0  0  0  0  0  0  0  0  0
   -0.6720   23.9370  -28.7110 C   0  0  0  0  0  0  0  0  0  0  0  0
   -0.9990   22.5770  -28.6650 C   0  0  0  0  0  0  0  0  0  0  0  0
   -0.3014   21.8639  -28.2015 H   0  0  0  0  0  0  0  0  0  0  0  0
   -2.2090   22.1150  -29.2050 C   0  0  0  0  0  0  0  0  0  0  0  0
   -2.5350   20.6730  -29.1410 C   0  0  0  0  0  0  0  0  0  0  0  0
   -2.8593   20.1721  -30.0651 H   0  0  0  0  0  0  0  0  0  0  0  0
   -2.4570   19.9440  -28.0200 C   0  0  0  0  0  0  0  0  0  0  0  0
   -2.7477   18.8842  -28.0669 H   0  0  0  0  0  0  0  0  0  0  0  0
   -1.9950   20.4950  -26.7060 C   0  0  0  0  0  0  0  0  0  0  0  0
   -2.4664   19.9327  -25.8865 H   0  0  0  0  0  0  0  0  0  0  0  0
   -0.9014   20.4014  -26.6333 H   0  0  0  0  0  0  0  0  0  0  0  0
   -2.2779   21.5555  -26.6333 H   0  0  0  0  0  0  0  0  0  0  0  0
   -3.1130   23.0370  -29.7780 C   0  0  0  0  0  0  0  0  0  0  0  0
   -4.3890   22.5800  -30.3710 C   0  0  0  0  0  0  0  0  0  0  0  0
   -5.5970   22.9250  -29.7560 C   0  0  0  0  0  0  0  0  0  0  0  0
   -5.5913   23.5463  -28.8483 H   0  0  0  0  0  0  0  0  0  0  0  0
   -6.8060   22.4860  -30.2870 C   0  0  0  0  0  0  0  0  0  0  0  0
   -7.7501   22.7573  -29.7920 H   0  0  0  0  0  0  0  0  0  0  0  0
   -6.8300   21.7000  -31.4490 C   0  0  0  0  0  0  0  0  0  0  0  0
   -8.1550   21.2080  -31.9800 C   0  0  0  0  0  0  0  0  0  0  0  0
   -8.1406   21.2479  -33.0792 H   0  0  0  0  0  0  0  0  0  0  0  0
   -8.9549   21.8514  -31.5848 H   0  0  0  0  0  0  0  0  0  0  0  0
   -8.4120   19.7930  -31.5410 C   0  0  0  0  0  0  0  0  0  0  0  0
   -8.1129   19.4839  -30.5286 H   0  0  0  0  0  0  0  0  0  0  0  0
   -8.9940   18.9010  -32.3480 C   0  0  0  0  0  0  0  0  0  0  0  0
   -9.1682   17.8732  -31.9970 H   0  0  0  0  0  0  0  0  0  0  0  0
   -9.2989   19.1945  -33.3633 H   0  0  0  0  0  0  0  0  0  0  0  0
   -5.6200   21.3380  -32.0820 C   0  0  0  0  0  0  0  0  0  0  0  0
   -5.7040   20.5330  -33.2360 O   0  0  0  0  0  0  0  0  0  0  0  0
   -4.9970   19.3220  -33.4760 C   0  0  0  0  0  0  0  0  0  0  0  0
   -4.7266   18.8588  -32.5156 H   0  0  0  0  0  0  0  0  0  0  0  0
   -5.6345   18.6326  -34.0490 H   0  0  0  0  0  0  0  0  0  0  0  0
   -4.0833   19.5383  -34.0490 H   0  0  0  0  0  0  0  0  0  0  0  0
   -4.3930   21.7890  -31.5330 C   0  0  0  0  0  0  0  0  0  0  0  0
   -3.1750   21.4550  -32.1160 O   0  0  0  0  0  0  0  0  0  0  0  0
   -2.7770   24.4020  -29.8230 C   0  0  0  0  0  0  0  0  0  0  0  0
   -3.6520   25.3220  -30.3950 O   0  0  0  0  0  0  0  0  0  0  0  0
   -1.5610   24.8470  -29.2920 C   0  0  0  0  0  0  0  0  0  0  0  0
   -1.2360   26.1980  -29.3410 O   0  0  0  0  0  0  0  0  0  0  0  0
  1  2  1  0
  2  3  1  0
  3  4  2  0
  4  5  1  0
  4  6  1  0
  6  7  1  0
  7  8  1  0
  7  9  2  0
  9 10  1  0
  9 11  1  0
 11 12  1  0
 11 13  1  0
 11 14  1  0
  6 15  2  0
 15 16  1  0
 16 17  2  0
 17 18  1  0
 17 19  1  0
 19 20  1  0
 19 21  2  0
 21 22  1  0
 22 23  1  0
 22 24  1  0
 22 25  1  0
 25 26  1  0
 25 27  2  0
 27 28  1  0
 27 29  1  0
 21 30  1  0
 30 31  1  0
 31 32  1  0
 32 33  1  0
 32 34  1  0
 32 35  1  0
 30 36  2  0
 36 37  1  0
 15 38  1  0
 38 39  1  0
 38 40  2  0
 40 41  1  0
 40  3  1  0
 36 16  1  0
M  CHG  3  37  -1  39  -1  41  -1
M  END
>  <UniqueID>  (7) 
7

>  <SMILES>  (7) 
C=CCc1ccc(-c2c(/C=C\C)cc(O)c([O-])c2[O-])c([O-])c1OC

>  <Energy>  (7) 
53.787932413738964

>  <Genealogy>  (7) 
C=CCc1ccc(-c2c(C=CC)cc(O)c([O-])c2[O-])c([O-])c1OC (protonated)
C=CCc1ccc(-c2c(/C=C\C)cc(O)c([O-])c2[O-])c([O-])c1OC (cis-trans isomerization)
C=CCc1ccc(-c2c(/C=C\C)cc(O)c([O-])c2[O-])c([O-])c1OC (3D coordinates assigned)
C=CCc1ccc(-c2c(/C=C\C)cc(O)c([O-])c2[O-])c([O-])c1OC (optimized conformer: 53.787932413738964 kcal/mol)

>  <smiles>  (7) 
C=CCc1ccc(-c2c(C=CC)cc(O)c(O)c2O)c(O)c1OC

>  <score_type>  (7) 
oracle

>  <origin>  (7) 
adgpu

>  <m_score__min__energy>  (7) 
-13.76

>  <m_primary>  (7) 
energy

$$$$
7:0
     RDKit          3D

 42 45  0  0  0  0  0  0  0  0999 V2000
    1.3760   28.2480  -23.1720 C   0  0  0  0  0  0  0  0  0  0  0  0
    0.8380   26.8790  -23.2570 N   0  0  0  0  0  0  0  0  0  0  0  0
   -0.6410   26.9020  -23.4400 C   0  0  0  0  0  0  0  0  0  0  0  0
   -1.0670   26.7470  -24.9070 C   0  0  0  0  0  0  0  0  0  0  0  0
   -0.4880   25.5290  -25.4820 N   0  0  0  0  0  0  0  0  0  0  0  0
   -0.9750   25.0540  -26.7530 C   0  0  0  0  0  0  0  0  0  0  0  0
   -0.0900   24.7650  -27.7540 N   0  0  0  0  0  0  0  0  0  0  0  0
   -0.5000   24.3140  -28.9760 C   0  0  0  0  0  0  0  0  0  0  0  0
   -1.8660   24.1390  -29.2280 C   0  0  0  0  0  0  0  0  0  0  0  0
   -2.7380   24.4190  -28.2230 N   0  0  0  0  0  0  0  0  0  0  0  0
   -4.0890   24.4190  -28.1870 C   0  0  0  0  0  0  0  0  0  0  0  0
   -4.9780   23.9710  -29.2780 C   0  0  0  0  0  0  0  0  0  0  0  0
   -6.0000   24.8020  -29.7670 C   0  0  0  0  0  0  0  0  0  0  0  0
   -6.8170   24.3720  -30.8170 C   0  0  0  0  0  0  0  0  0  0  0  0
   -6.6110   23.1190  -31.3970 C   0  0  0  0  0  0  0  0  0  0  0  0
   -5.5810   22.2950  -30.9340 C   0  0  0  0  0  0  0  0  0  0  0  0
   -4.7620   22.7220  -29.8850 C   0  0  0  0  0  0  0  0  0  0  0  0
   -4.5620   24.8980  -27.0120 N   0  0  0  0  0  0  0  0  0  0  0  0
   -3.4600   25.1900  -26.2840 C   0  0  0  0  0  0  0  0  0  0  0  0
   -2.3400   24.8850  -27.0300 C   0  0  0  0  0  0  0  0  0  0  0  0
    0.7270   24.9690  -24.8780 C   0  0  0  0  0  0  0  0  0  0  0  0
    1.5720   26.1050  -24.2930 C   0  0  0  0  0  0  0  0  0  0  0  0
    1.4880   28.5330  -22.1155 H   0  0  0  0  0  0  0  0  0  0  0  0
    2.3567   28.2880  -23.6685 H   0  0  0  0  0  0  0  0  0  0  0  0
    0.6849   28.9450  -23.6685 H   0  0  0  0  0  0  0  0  0  0  0  0
    1.0290   26.4240  -22.3310 H   0  0  0  0  0  0  0  0  0  0  0  0
   -1.0789   26.0770  -22.8589 H   0  0  0  0  0  0  0  0  0  0  0  0
   -0.9997   27.8831  -23.0953 H   0  0  0  0  0  0  0  0  0  0  0  0
   -2.1640   26.6873  -24.9614 H   0  0  0  0  0  0  0  0  0  0  0  0
   -0.7068   27.6163  -25.4766 H   0  0  0  0  0  0  0  0  0  0  0  0
    0.2395   24.0893  -29.7587 H   0  0  0  0  0  0  0  0  0  0  0  0
   -2.2222   23.7865  -30.2072 H   0  0  0  0  0  0  0  0  0  0  0  0
   -6.1581   25.7954  -29.3217 H   0  0  0  0  0  0  0  0  0  0  0  0
   -7.6236   25.0222  -31.1867 H   0  0  0  0  0  0  0  0  0  0  0  0
   -7.2593   22.7800  -32.2185 H   0  0  0  0  0  0  0  0  0  0  0  0
   -5.4151   21.3103  -31.3954 H   0  0  0  0  0  0  0  0  0  0  0  0
   -3.9438   22.0768  -29.5325 H   0  0  0  0  0  0  0  0  0  0  0  0
   -3.4572   25.6029  -25.2644 H   0  0  0  0  0  0  0  0  0  0  0  0
    0.4495   24.2677  -24.0773 H   0  0  0  0  0  0  0  0  0  0  0  0
    1.3075   24.4356  -25.6452 H   0  0  0  0  0  0  0  0  0  0  0  0
    2.4766   25.6749  -23.8384 H   0  0  0  0  0  0  0  0  0  0  0  0
    1.8229   26.7941  -25.1128 H   0  0  0  0  0  0  0  0  0  0  0  0
  1  2  1  0
  2  3  1  0
  3  4  1  0
  4  5  1  0
  5  6  1  0
  6  7  2  0
  7  8  1  0
  8  9  2  0
  9 10  1  0
 10 11  1  0
 11 12  1  0
 12 13  2  0
 13 14  1  0
 14 15  2  0
 15 16  1  0
 16 17  2  0
 11 18  2  0
 18 19  1  0
 19 20  2  0
  5 21  1  0
 21 22  1  0
 22  2  1  0
 20  6  1  0
 20 10  1  0
 17 12  1  0
  1 23  1  0
  1 24  1  0
  1 25  1  0
  2 26  1  0
  3 27  1  0
  3 28  1  0
  4 29  1  0
  4 30  1  0
  8 31  1  0
  9 32  1  0
 13 33  1  0
 14 34  1  0
 15 35  1  0
 16 36  1  0
 17 37  1  0
 19 38  1  0
 21 39  1  0
 21 40  1  0
 22 41  1  0
 22 42  1  0
M  CHG  1   2   1
M  END
>  <UniqueID>  (8) 
8

>  <SMILES>  (8) 
C[NH+]1CCN(c2nccn3c(-c4ccccc4)ncc23)CC1

>  <Energy>  (8) 
98.6989568437794

>  <Genealogy>  (8) 
C[NH+]1CCN(c2nccn3c(-c4ccccc4)ncc23)CC1 (protonated)
C[NH+]1CCN(c2nccn3c(-c4ccccc4)ncc23)CC1 (3D coordinates assigned)
C[NH+]1CCN(c2nccn3c(-c4ccccc4)ncc23)CC1 (nonaromatic ring conformer: 98.6989568437794 kcal/mol)

>  <smiles>  (8) 
CN1CCN(c2nccn3c(-c4ccccc4)ncc23)CC1

>  <score_type>  (8) 
oracle

>  <origin>  (8) 
adgpu

>  <m_score__min__energy>  (8) 
-7.3700000000000001

>  <m_primary>  (8) 
energy

$$$$
8:0
     RDKit          3D

 36 37  0  0  0  0  0  0  0  0999 V2000
   -2.2150   25.2820  -29.0600 N   0  0  0  0  0  0  0  0  0  0  0  0
   -2.9690   24.2360  -28.3760 C   0  0  0  0  0  0  0  0  0  0  0  0
   -4.3670   24.1120  -28.9870 C   0  0  0  0  0  0  0  0  0  0  0  0
   -4.3550   24.4140  -30.4660 C   0  0  0  0  0  0  0  0  0  0  0  0
   -3.9020   25.5180  -30.8690 O   0  0  0  0  0  0  0  0  0  0  0  0
   -4.8290   23.4680  -31.4350 N   0  0  0  0  0  0  0  0  0  0  0  0
   -4.1480   22.2760  -31.8500 C   0  0  0  0  0  0  0  0  0  0  0  0
   -2.8370   22.0520  -31.4140 C   0  0  0  0  0  0  0  0  0  0  0  0
   -2.1620   20.8840  -31.7820 C   0  0  0  0  0  0  0  0  0  0  0  0
   -2.7920   19.9360  -32.5940 C   0  0  0  0  0  0  0  0  0  0  0  0
   -4.0910   20.1670  -33.0600 C   0  0  0  0  0  0  0  0  0  0  0  0
   -4.9210   18.9430  -34.0740 S   0  0  0  0  0  0  0  0  0  0  0  0
   -6.4320   19.0370  -33.1000 C   0  0  0  0  0  0  0  0  0  0  0  0
   -7.3720   20.0260  -33.4220 C   0  0  0  0  0  0  0  0  0  0  0  0
   -8.5380   20.1670  -32.6670 C   0  0  0  0  0  0  0  0  0  0  0  0
   -8.7800   19.3120  -31.5900 C   0  0  0  0  0  0  0  0  0  0  0  0
   -7.8570   18.3130  -31.2690 C   0  0  0  0  0  0  0  0  0  0  0  0
   -6.6800   18.1610  -32.0200 C   0  0  0  0  0  0  0  0  0  0  0  0
   -5.7600   17.1190  -31.6730 N   0  0  0  0  0  0  0  0  0  0  0  0
   -4.7550   21.3500  -32.7140 C   0  0  0  0  0  0  0  0  0  0  0  0
   -2.8780   26.0490  -29.3160 H   0  0  0  0  0  0  0  0  0  0  0  0
   -1.8610   24.8830  -29.9600 H   0  0  0  0  0  0  0  0  0  0  0  0
   -2.4395   23.2776  -28.4810 H   0  0  0  0  0  0  0  0  0  0  0  0
   -3.0626   24.4965  -27.3114 H   0  0  0  0  0  0  0  0  0  0  0  0
   -4.7335   23.0860  -28.8350 H   0  0  0  0  0  0  0  0  0  0  0  0
   -5.0251   24.8412  -28.4919 H   0  0  0  0  0  0  0  0  0  0  0  0
   -2.3357   22.7977  -30.7794 H   0  0  0  0  0  0  0  0  0  0  0  0
   -1.1336   20.7107  -31.4321 H   0  0  0  0  0  0  0  0  0  0  0  0
   -2.2666   19.0088  -32.8664 H   0  0  0  0  0  0  0  0  0  0  0  0
   -7.1897   20.6956  -34.2755 H   0  0  0  0  0  0  0  0  0  0  0  0
   -9.2660   20.9517  -32.9207 H   0  0  0  0  0  0  0  0  0  0  0  0
   -9.6976   19.4248  -30.9939 H   0  0  0  0  0  0  0  0  0  0  0  0
   -8.0539   17.6403  -30.4213 H   0  0  0  0  0  0  0  0  0  0  0  0
   -5.8510   16.6120  -30.7640 H   0  0  0  0  0  0  0  0  0  0  0  0
   -4.9980   16.8150  -32.3180 H   0  0  0  0  0  0  0  0  0  0  0  0
   -5.7563   21.5551  -33.1206 H   0  0  0  0  0  0  0  0  0  0  0  0
  1  2  1  0
  2  3  1  0
  3  4  1  0
  4  5  2  0
  4  6  1  0
  6  7  1  0
  7  8  2  0
  8  9  1  0
  9 10  2  0
 10 11  1  0
 11 12  1  0
 12 13  1  0
 13 14  2  0
 14 15  1  0
 15 16  2  0
 16 17  1  0
 17 18  2  0
 18 19  1  0
 11 20  2  0
 20  7  1  0
 18 13  1  0
  1 21  1  0
  1 22  1  0
  2 23  1  0
  2 24  1  0
  3 25  1  0
  3 26  1  0
  8 27  1  0
  9 28  1  0
 10 29  1  0
 14 30  1  0
 15 31  1  0
 16 32  1  0
 17 33  1  0
 19 34  1  0
 19 35  1  0
 20 36  1  0
M  CHG  1   6  -1
M  END
>  <UniqueID>  (9) 
9

>  <SMILES>  (9) 
NCCC(=O)[N-]c1cccc(Sc2ccccc2N)c1

>  <Energy>  (9) 
31.422829407475053

>  <Genealogy>  (9) 
NCCC(=O)[N-]c1cccc(Sc2ccccc2N)c1 (protonated)
NCCC(=O)[N-]c1cccc(Sc2ccccc2N)c1 (3D coordinates assigned)
NCCC(=O)[N-]c1cccc(Sc2ccccc2N)c1 (optimized conformer: 31.422829407475053 kcal/mol)

>  <smiles>  (9) 
NCCC(=O)Nc1cccc(Sc2ccccc2N)c1

>  <score_type>  (9) 
oracle

>  <origin>  (9) 
adgpu

>  <m_score__min__energy>  (9) 
-8.9499999999999993

>  <m_primary>  (9) 
energy

$$$$
9:0
     RDKit          3D

 54 57  0  0  0  0  0  0  0  0999 V2000
   -1.2530   25.9460  -24.8760 C   0  0  0  0  0  0  0  0  0  0  0  0
   -1.2080   24.8610  -25.7960 O   0  0  0  0  0  0  0  0  0  0  0  0
   -2.0420   24.7370  -26.9160 C   0  0  0  0  0  0  0  0  0  0  0  0
   -1.5400   24.6930  -28.2310 C   0  0  0  0  0  0  0  0  0  0  0  0
   -2.4140   24.5490  -29.3150 C   0  0  0  0  0  0  0  0  0  0  0  0
   -3.7990   24.4480  -29.1050 C   0  0  0  0  0  0  0  0  0  0  0  0
   -4.6990   24.2970  -30.2240 N   0  0  0  0  0  0  0  0  0  0  0  0
   -5.7220   25.3180  -30.4700 C   0  0  0  0  0  0  0  0  0  0  0  0
   -4.6610   23.1050  -31.0370 C   0  0  0  0  0  0  0  0  0  0  0  0
   -3.4950   22.6950  -31.6020 N   0  0  0  0  0  0  0  0  0  0  0  0
   -3.4460   21.5690  -32.3610 C   0  0  0  0  0  0  0  0  0  0  0  0
   -2.2000   21.1350  -32.9450 N   0  0  0  0  0  0  0  0  0  0  0  0
   -0.9770   21.1250  -32.1290 C   0  0  0  0  0  0  0  0  0  0  0  0
    0.2670   21.1620  -33.0210 C   0  0  0  0  0  0  0  0  0  0  0  0
    0.1990   20.1640  -34.0190 O   0  0  0  0  0  0  0  0  0  0  0  0
   -0.8620   20.4580  -34.9060 C   0  0  0  0  0  0  0  0  0  0  0  0
   -2.2130   20.3580  -34.1930 C   0  0  0  0  0  0  0  0  0  0  0  0
   -4.5840   20.8550  -32.5560 N   0  0  0  0  0  0  0  0  0  0  0  0
   -5.7630   21.2560  -32.0070 C   0  0  0  0  0  0  0  0  0  0  0  0
   -6.9670   20.4900  -32.2240 N   0  0  0  0  0  0  0  0  0  0  0  0
   -8.2620   21.1790  -32.3140 C   0  0  0  0  0  0  0  0  0  0  0  0
   -9.4090   20.2160  -31.9900 C   0  0  0  0  0  0  0  0  0  0  0  0
   -9.2980   19.0250  -32.7460 O   0  0  0  0  0  0  0  0  0  0  0  0
   -8.1350   18.3240  -32.3500 C   0  0  0  0  0  0  0  0  0  0  0  0
   -6.8760   19.1120  -32.7240 C   0  0  0  0  0  0  0  0  0  0  0  0
   -5.7920   22.3830  -31.2520 N   0  0  0  0  0  0  0  0  0  0  0  0
   -4.2990   24.5120  -27.7940 C   0  0  0  0  0  0  0  0  0  0  0  0
   -3.4240   24.6500  -26.7100 C   0  0  0  0  0  0  0  0  0  0  0  0
   -1.2368   25.5557  -23.8477 H   0  0  0  0  0  0  0  0  0  0  0  0
   -0.3811   26.5976  -25.0346 H   0  0  0  0  0  0  0  0  0  0  0  0
   -2.1759   26.5232  -25.0346 H   0  0  0  0  0  0  0  0  0  0  0  0
   -0.4571   24.7721  -28.4070 H   0  0  0  0  0  0  0  0  0  0  0  0
   -2.0131   24.5147  -30.3388 H   0  0  0  0  0  0  0  0  0  0  0  0
   -6.1010   25.6963  -29.5091 H   0  0  0  0  0  0  0  0  0  0  0  0
   -5.2818   26.1476  -31.0427 H   0  0  0  0  0  0  0  0  0  0  0  0
   -6.5507   24.8762  -31.0427 H   0  0  0  0  0  0  0  0  0  0  0  0
   -0.9753   22.0055  -31.4696 H   0  0  0  0  0  0  0  0  0  0  0  0
   -0.9572   20.2017  -31.5314 H   0  0  0  0  0  0  0  0  0  0  0  0
    0.3366   22.1488  -33.5020 H   0  0  0  0  0  0  0  0  0  0  0  0
    1.1538   20.9767  -32.3970 H   0  0  0  0  0  0  0  0  0  0  0  0
   -0.7344   21.4792  -35.2944 H   0  0  0  0  0  0  0  0  0  0  0  0
   -0.8442   19.7290  -35.7295 H   0  0  0  0  0  0  0  0  0  0  0  0
   -3.0002   20.7496  -34.8541 H   0  0  0  0  0  0  0  0  0  0  0  0
   -2.4082   19.3029  -33.9510 H   0  0  0  0  0  0  0  0  0  0  0  0
   -8.2778   22.0139  -31.5980 H   0  0  0  0  0  0  0  0  0  0  0  0
   -8.3933   21.5546  -33.3395 H   0  0  0  0  0  0  0  0  0  0  0  0
   -9.3782   19.9668  -30.9190 H   0  0  0  0  0  0  0  0  0  0  0  0
  -10.3608   20.7056  -32.2437 H   0  0  0  0  0  0  0  0  0  0  0  0
   -8.1570   18.1738  -31.2605 H   0  0  0  0  0  0  0  0  0  0  0  0
   -8.1126   17.3538  -32.8679 H   0  0  0  0  0  0  0  0  0  0  0  0
   -5.9968   18.6226  -32.2797 H   0  0  0  0  0  0  0  0  0  0  0  0
   -6.7822   19.1355  -33.8197 H   0  0  0  0  0  0  0  0  0  0  0  0
   -5.3833   24.4534  -27.6182 H   0  0  0  0  0  0  0  0  0  0  0  0
   -3.8260   24.6905  -25.6869 H   0  0  0  0  0  0  0  0  0  0  0  0
  1  2  1  0
  2  3  1  0
  3  4  2  0
  4  5  1  0
  5  6  2  0
  6  7  1  0
  7  8  1  0
  7  9  1  0
  9 10  2  0
 10 11  1  0
 11 12  1  0
 12 13  1  0
 13 14  1  0
 14 15  1  0
 15 16  1  0
 16 17  1  0
 11 18  2  0
 18 19  1  0
 19 20  1  0
 20 21  1  0
 21 22  1  0
 22 23  1  0
 23 24  1  0
 24 25  1  0
 19 26  2  0
  6 27  1  0
 27 28  2  0
 28  3  1  0
 26  9  1  0
 17 12  1  0
 25 20  1  0
  1 29  1  0
  1 30  1  0
  1 31  1  0
  4 32  1  0
  5 33  1  0
  8 34  1  0
  8 35  1  0
  8 36  1  0
 13 37  1  0
 13 38  1  0
 14 39  1  0
 14 40  1  0
 16 41  1  0
 16 42  1  0
 17 43  1  0
 17 44  1  0
 21 45  1  0
 21 46  1  0
 22 47  1  0
 22 48  1  0
 24 49  1  0
 24 50  1  0
 25 51  1  0
 25 52  1  0
 27 53  1  0
 28 54  1  0
M  END
>  <UniqueID>  (10) 
10

>  <SMILES>  (10) 
COc1ccc(N(C)c2nc(N3CCOCC3)nc(N3CCOCC3)n2)cc1

>  <Energy>  (10) 
63.710150898931325

>  <Genealogy>  (10) 
COc1ccc(N(C)c2nc(N3CCOCC3)nc(N3CCOCC3)n2)cc1 (3D coordinates assigned)
COc1ccc(N(C)c2nc(N3CCOCC3)nc(N3CCOCC3)n2)cc1 (nonaromatic ring conformer: 63.710150898931325 kcal/mol)

>  <smiles>  (10) 
COc1ccc(N(C)c2nc(N3CCOCC3)nc(N3CCOCC3)n2)cc1

>  <score_type>  (10) 
oracle

>  <origin>  (10) 
adgpu

>  <m_score__min__energy>  (10) 
-6.96

>  <m_primary>  (10) 
energy

$$$$
10:0
     RDKit          3D

 70 74  0  0  0  0  0  0  0  0999 V2000
   -1.9010   25.2750  -29.3160 O   0  0  0  0  0  0  0  0  0  0  0  0
   -1.1250   24.4190  -28.8160 C   0  0  0  0  0  0  0  0  0  0  0  0
   -0.9630   24.3370  -27.3450 C   0  0  0  0  0  0  0  0  0  0  0  0
   -1.2370   23.2570  -26.5980 C   0  0  0  0  0  0  0  0  0  0  0  0
   -1.4980   21.8970  -27.1090 C   0  0  0  0  0  0  0  0  0  0  0  0
   -2.7260   21.3400  -27.4170 C   0  0  0  0  0  0  0  0  0  0  0  0
   -2.4550   20.0870  -27.9230 C   0  0  0  0  0  0  0  0  0  0  0  0
   -1.0770   19.9590  -27.9060 C   0  0  0  0  0  0  0  0  0  0  0  0
   -0.2820   18.7990  -28.3740 C   0  0  0  0  0  0  0  0  0  0  0  0
   -0.0860   18.6030  -29.7520 C   0  0  0  0  0  0  0  0  0  0  0  0
    0.6480   17.5060  -30.2160 C   0  0  0  0  0  0  0  0  0  0  0  0
    0.8810   17.2730  -31.9410 Cl  0  0  0  0  0  0  0  0  0  0  0  0
    1.1940   16.5950  -29.3090 C   0  0  0  0  0  0  0  0  0  0  0  0
    1.0100   16.7810  -27.9350 C   0  0  0  0  0  0  0  0  0  0  0  0
    1.6920   15.6340  -26.7960 Cl  0  0  0  0  0  0  0  0  0  0  0  0
    0.2770   17.8770  -27.4680 C   0  0  0  0  0  0  0  0  0  0  0  0
   -0.5400   21.0570  -27.4210 O   0  0  0  0  0  0  0  0  0  0  0  0
   -0.4220   23.5340  -29.6980 N   0  0  0  0  0  0  0  0  0  0  0  0
   -1.0040   22.4730  -30.4660 C   0  0  0  0  0  0  0  0  0  0  0  0
   -0.2170   21.6550  -31.2850 C   0  0  0  0  0  0  0  0  0  0  0  0
   -0.8060   20.6430  -32.0410 C   0  0  0  0  0  0  0  0  0  0  0  0
   -2.1960   20.4430  -32.0110 C   0  0  0  0  0  0  0  0  0  0  0  0
   -2.7790   19.3360  -32.7230 N   0  0  0  0  0  0  0  0  0  0  0  0
   -2.1820   18.7590  -33.8940 C   0  0  0  0  0  0  0  0  0  0  0  0
   -1.3300   19.4100  -34.5590 O   0  0  0  0  0  0  0  0  0  0  0  0
   -2.6140   17.4010  -34.3690 C   0  0  0  0  0  0  0  0  0  0  0  0
   -4.0610   17.4310  -34.8720 C   0  0  0  0  0  0  0  0  0  0  0  0
   -4.9880   17.0500  -33.8040 N   0  0  0  0  0  0  0  0  0  0  0  0
   -6.0340   17.8940  -33.2840 C   0  0  0  0  0  0  0  0  0  0  0  0
   -6.2230   19.1700  -33.8420 C   0  0  0  0  0  0  0  0  0  0  0  0
   -7.2320   20.0130  -33.3640 C   0  0  0  0  0  0  0  0  0  0  0  0
   -8.0590   19.5930  -32.3180 C   0  0  0  0  0  0  0  0  0  0  0  0
   -7.8750   18.3320  -31.7460 C   0  0  0  0  0  0  0  0  0  0  0  0
   -6.8650   17.4860  -32.2200 C   0  0  0  0  0  0  0  0  0  0  0  0
   -2.9970   21.2780  -31.1980 C   0  0  0  0  0  0  0  0  0  0  0  0
   -4.4720   21.1360  -31.1680 C   0  0  0  0  0  0  0  0  0  0  0  0
   -4.9720   19.9880  -31.3150 O   0  0  0  0  0  0  0  0  0  0  0  0
   -5.3710   22.3070  -31.0010 C   0  0  0  0  0  0  0  0  0  0  0  0
   -5.2940   23.0960  -29.8370 C   0  0  0  0  0  0  0  0  0  0  0  0
   -6.1330   24.2020  -29.6750 C   0  0  0  0  0  0  0  0  0  0  0  0
   -7.0510   24.5390  -30.6720 C   0  0  0  0  0  0  0  0  0  0  0  0
   -7.1280   23.7740  -31.8370 C   0  0  0  0  0  0  0  0  0  0  0  0
   -6.2930   22.6650  -32.0060 C   0  0  0  0  0  0  0  0  0  0  0  0
   -2.3910   22.3050  -30.4530 C   0  0  0  0  0  0  0  0  0  0  0  0
   -0.5889   25.2314  -26.8253 H   0  0  0  0  0  0  0  0  0  0  0  0
   -1.2701   23.3974  -25.5075 H   0  0  0  0  0  0  0  0  0  0  0  0
   -3.7155   21.8021  -27.2852 H   0  0  0  0  0  0  0  0  0  0  0  0
   -3.1851   19.3408  -28.2697 H   0  0  0  0  0  0  0  0  0  0  0  0
   -0.5130   19.3176  -30.4711 H   0  0  0  0  0  0  0  0  0  0  0  0
    1.7686   15.7314  -29.6752 H   0  0  0  0  0  0  0  0  0  0  0  0
    0.1363   18.0196  -26.3864 H   0  0  0  0  0  0  0  0  0  0  0  0
    0.8708   21.8115  -31.3322 H   0  0  0  0  0  0  0  0  0  0  0  0
   -0.1760   19.9944  -32.6674 H   0  0  0  0  0  0  0  0  0  0  0  0
   -3.6820   18.9410  -32.3790 H   0  0  0  0  0  0  0  0  0  0  0  0
   -1.9546   17.0799  -35.1888 H   0  0  0  0  0  0  0  0  0  0  0  0
   -2.5502   16.6976  -33.5257 H   0  0  0  0  0  0  0  0  0  0  0  0
   -4.3032   18.4478  -35.2148 H   0  0  0  0  0  0  0  0  0  0  0  0
   -4.1624   16.7148  -35.7007 H   0  0  0  0  0  0  0  0  0  0  0  0
   -4.8690   16.0970  -33.3910 H   0  0  0  0  0  0  0  0  0  0  0  0
   -5.5721   19.5087  -34.6615 H   0  0  0  0  0  0  0  0  0  0  0  0
   -7.3748   21.0075  -33.8117 H   0  0  0  0  0  0  0  0  0  0  0  0
   -8.8543   20.2553  -31.9455 H   0  0  0  0  0  0  0  0  0  0  0  0
   -8.5248   18.0030  -30.9217 H   0  0  0  0  0  0  0  0  0  0  0  0
   -6.7188   16.4976  -31.7599 H   0  0  0  0  0  0  0  0  0  0  0  0
   -4.5689   22.8402  -29.0503 H   0  0  0  0  0  0  0  0  0  0  0  0
   -6.0701   24.8087  -28.7596 H   0  0  0  0  0  0  0  0  0  0  0  0
   -7.7133   25.4072  -30.5392 H   0  0  0  0  0  0  0  0  0  0  0  0
   -7.8473   24.0441  -32.6242 H   0  0  0  0  0  0  0  0  0  0  0  0
   -6.3558   22.0686  -32.9281 H   0  0  0  0  0  0  0  0  0  0  0  0
   -3.0156   22.9835  -29.8535 H   0  0  0  0  0  0  0  0  0  0  0  0
  1  2  2  0
  2  3  1  0
  3  4  2  3
  4  5  1  0
  5  6  2  0
  6  7  1  0
  7  8  2  0
  8  9  1  0
  9 10  2  0
 10 11  1  0
 11 12  1  0
 11 13  2  0
 13 14  1  0
 14 15  1  0
 14 16  2  0
  8 17  1  0
  2 18  1  0
 18 19  1  0
 19 20  2  0
 20 21  1  0
 21 22  2  0
 22 23  1  0
 23 24  1  0
 24 25  2  0
 24 26  1  0
 26 27  1  0
 27 28  1  0
 28 29  1  0
 29 30  2  0
 30 31  1  0
 31 32  2  0
 32 33  1  0
 33 34  2  0
 22 35  1  0
 35 36  1  0
 36 37  2  0
 36 38  1  0
 38 39  2  0
 39 40  1  0
 40 41  2  0
 41 42  1  0
 42 43  2  0
 35 44  2  0
 17  5  1  0
 44 19  1  0
 16  9  1  0
 34 29  1  0
 43 38  1  0
  3 45  1  0
  4 46  1  0
  6 47  1  0
  7 48  1  0
 10 49  1  0
 13 50  1  0
 16 51  1  0
 20 52  1  0
 21 53  1  0
 23 54  1  0
 26 55  1  0
 26 56  1  0
 27 57  1  0
 27 58  1  0
 28 59  1  0
 30 60  1  0
 31 61  1  0
 32 62  1  0
 33 63  1  0
 34 64  1  0
 39 65  1  0
 40 66  1  0
 41 67  1  0
 42 68  1  0
 43 69  1  0
 44 70  1  0
M  CHG  1  18  -1
M  END
>  <UniqueID>  (11) 
11

>  <SMILES>  (11) 
O=C(C=Cc1ccc(-c2cc(Cl)cc(Cl)c2)o1)[N-]c1ccc(NC(=O)CCNc2ccccc2)c(C(=O)c2ccccc2)c1

>  <Energy>  (11) 
125.45782311736043

>  <Genealogy>  (11) 
O=C(C=Cc1ccc(-c2cc(Cl)cc(Cl)c2)o1)[N-]c1ccc(NC(=O)CCNc2ccccc2)c(C(=O)c2ccccc2)c1 (protonated)
O=C(C=Cc1ccc(-c2cc(Cl)cc(Cl)c2)o1)[N-]c1ccc(NC(=O)CCNc2ccccc2)c(C(=O)c2ccccc2)c1 (3D coordinates assigned)
O=C(C=Cc1ccc(-c2cc(Cl)cc(Cl)c2)o1)[N-]c1ccc(NC(=O)CCNc2ccccc2)c(C(=O)c2ccccc2)c1 (optimized conformer: 125.45782311736043 kcal/mol)

>  <smiles>  (11) 
O=C(C=Cc1ccc(-c2cc(Cl)cc(Cl)c2)o1)Nc1ccc(NC(=O)CCNc2ccccc2)c(C(=O)c2ccccc2)c1

>  <score_type>  (11) 
oracle

>  <origin>  (11) 
adgpu

>  <m_score__min__energy>  (11) 
-12.529999999999999

>  <m_primary>  (11) 
energy

$$$$
11:0
     RDKit          3D

 35 37  0  0  0  0  0  0  0  0999 V2000
   -4.9048   21.1451  -30.9608 H   0  0  0  0  0  0  0  0  0  0  0  0
   -5.7290   21.7800  -31.3180 C   0  0  0  0  0  0  0  0  0  0  0  0
   -6.6330   21.2350  -32.1420 C   0  0  0  0  0  0  0  0  0  0  0  0
   -7.4504   21.8650  -32.5226 H   0  0  0  0  0  0  0  0  0  0  0  0
   -6.5730   19.8180  -32.5590 C   0  0  0  0  0  0  0  0  0  0  0  0
   -7.6510   18.9560  -32.6730 C   0  0  0  0  0  0  0  0  0  0  0  0
   -9.0790   19.2730  -32.3660 C   0  0  0  0  0  0  0  0  0  0  0  0
   -9.2214   19.3046  -31.2757 H   0  0  0  0  0  0  0  0  0  0  0  0
   -9.3387   20.2507  -32.7982 H   0  0  0  0  0  0  0  0  0  0  0  0
   -9.7279   18.4971  -32.7982 H   0  0  0  0  0  0  0  0  0  0  0  0
   -7.2410   17.7740  -33.1710 N   0  0  0  0  0  0  0  0  0  0  0  0
   -5.9330   17.8500  -33.3690 N   0  0  0  0  0  0  0  0  0  0  0  0
   -5.1650   16.7730  -33.9310 C   0  0  0  0  0  0  0  0  0  0  0  0
   -5.2680   15.4820  -33.3880 C   0  0  0  0  0  0  0  0  0  0  0  0
   -5.9471   15.2966  -32.5427 H   0  0  0  0  0  0  0  0  0  0  0  0
   -4.5120   14.4310  -33.9160 C   0  0  0  0  0  0  0  0  0  0  0  0
   -4.6067   13.4199  -33.4933 H   0  0  0  0  0  0  0  0  0  0  0  0
   -3.6370   14.6630  -34.9790 C   0  0  0  0  0  0  0  0  0  0  0  0
   -3.0458   13.8341  -35.3955 H   0  0  0  0  0  0  0  0  0  0  0  0
   -3.5120   15.9480  -35.5140 C   0  0  0  0  0  0  0  0  0  0  0  0
   -2.8188   16.1308  -36.3483 H   0  0  0  0  0  0  0  0  0  0  0  0
   -4.2670   17.0010  -34.9900 C   0  0  0  0  0  0  0  0  0  0  0  0
   -4.1587   18.0129  -35.4075 H   0  0  0  0  0  0  0  0  0  0  0  0
   -5.4910   19.0820  -33.0210 C   0  0  0  0  0  0  0  0  0  0  0  0
   -3.8860   19.7100  -33.3880 Cl  0  0  0  0  0  0  0  0  0  0  0  0
   -5.7740   23.1860  -30.8600 C   0  0  0  0  0  0  0  0  0  0  0  0
   -4.7240   23.9970  -31.1740 N   0  0  0  0  0  0  0  0  0  0  0  0
   -4.6830   25.3050  -30.8070 C   0  0  0  0  0  0  0  0  0  0  0  0
   -3.8140   25.9240  -31.0748 H   0  0  0  0  0  0  0  0  0  0  0  0
   -5.7420   25.8630  -30.0910 C   0  0  0  0  0  0  0  0  0  0  0  0
   -5.7121   26.9195  -29.7863 H   0  0  0  0  0  0  0  0  0  0  0  0
   -6.8390   25.0660  -29.7660 C   0  0  0  0  0  0  0  0  0  0  0  0
   -7.6837   25.4943  -29.2065 H   0  0  0  0  0  0  0  0  0  0  0  0
   -6.8650   23.7240  -30.1510 C   0  0  0  0  0  0  0  0  0  0  0  0
   -7.7306   23.0924  -29.9024 H   0  0  0  0  0  0  0  0  0  0  0  0
  1  2  1  0
  2  3  2  0
  3  4  1  0
  3  5  1  0
  5  6  1  0
  6  7  1  0
  7  8  1  0
  7  9  1  0
  7 10  1  0
  6 11  2  0
 11 12  1  0
 12 13  1  0
 13 14  2  0
 14 15  1  0
 14 16  1  0
 16 17  1  0
 16 18  2  0
 18 19  1  0
 18 20  1  0
 20 21  1  0
 20 22  2  0
 22 23  1  0
 12 24  1  0
 24 25  1  0
  2 26  1  0
 26 27  2  0
 27 28  1  0
 28 29  1  0
 28 30  2  0
 30 31  1  0
 30 32  1  0
 32 33  1  0
 32 34  2  0
 34 35  1  0
 24  5  2  0
 34 26  1  0
 22 13  1  0
M  END
>  <UniqueID>  (12) 
12

>  <SMILES>  (12) 
Cc1nn(-c2ccccc2)c(Cl)c1/C=C/c1ccccn1

>  <Energy>  (12) 
77.50688628892584

>  <Genealogy>  (12) 
Cc1nn(-c2ccccc2)c(Cl)c1/C=C/c1ccccn1 (cis-trans isomerization)
Cc1nn(-c2ccccc2)c(Cl)c1/C=C/c1ccccn1 (3D coordinates assigned)
Cc1nn(-c2ccccc2)c(Cl)c1/C=C/c1ccccn1 (optimized conformer: 77.50688628892584 kcal/mol)

>  <smiles>  (12) 
Cc1nn(-c2ccccc2)c(Cl)c1C=Cc1ccccn1

>  <score_type>  (12) 
oracle

>  <origin>  (12) 
adgpu

>  <m_score__min__energy>  (12) 
-7.8600000000000003

>  <m_primary>  (12) 
energy

$$$$
12:0
     RDKit          3D

 18 19  0  0  0  0  0  0  0  0999 V2000
   -2.2210   24.8600  -28.1880 S   0  0  0  0  0  0  0  0  0  0  0  0
   -3.3430   24.2940  -29.2340 C   0  0  0  0  0  0  0  0  0  0  0  0
   -3.5870   24.8370  -30.4450 N   0  0  0  0  0  0  0  0  0  0  0  0
   -4.5450   24.2120  -31.1260 N   0  0  0  0  0  0  0  0  0  0  0  0
   -5.0780   23.1580  -30.4590 C   0  0  0  0  0  0  0  0  0  0  0  0
   -6.1580   22.3060  -31.0070 C   0  0  0  0  0  0  0  0  0  0  0  0
   -5.8770   21.3740  -32.0220 C   0  0  0  0  0  0  0  0  0  0  0  0
   -6.8910   20.5660  -32.5440 C   0  0  0  0  0  0  0  0  0  0  0  0
   -8.1970   20.6790  -32.0590 C   0  0  0  0  0  0  0  0  0  0  0  0
   -9.4690   19.6640  -32.7160 Cl  0  0  0  0  0  0  0  0  0  0  0  0
   -8.4880   21.6020  -31.0510 C   0  0  0  0  0  0  0  0  0  0  0  0
   -7.4770   22.4120  -30.5260 C   0  0  0  0  0  0  0  0  0  0  0  0
   -4.3390   22.9730  -28.9460 S   0  0  0  0  0  0  0  0  0  0  0  0
   -3.0810   25.6670  -30.8270 H   0  0  0  0  0  0  0  0  0  0  0  0
   -4.8513   21.2802  -32.4081 H   0  0  0  0  0  0  0  0  0  0  0  0
   -6.6609   19.8400  -33.3377 H   0  0  0  0  0  0  0  0  0  0  0  0
   -9.5158   21.6914  -30.6695 H   0  0  0  0  0  0  0  0  0  0  0  0
   -7.7132   23.1363  -29.7326 H   0  0  0  0  0  0  0  0  0  0  0  0
  1  2  2  0
  2  3  1  0
  3  4  1  0
  4  5  2  0
  5  6  1  0
  6  7  2  0
  7  8  1  0
  8  9  2  0
  9 10  1  0
  9 11  1  0
 11 12  2  0
  5 13  1  0
 13  2  1  0
 12  6  1  0
  3 14  1  0
  7 15  1  0
  8 16  1  0
 11 17  1  0
 12 18  1  0
M  END
>  <UniqueID>  (13) 
13

>  <SMILES>  (13) 
S=c1[nH]nc(-c2ccc(Cl)cc2)s1

>  <Energy>  (13) 
53.44531325045896

>  <Genealogy>  (13) 
S=c1[nH]nc(-c2ccc(Cl)cc2)s1 (3D coordinates assigned)
S=c1[nH]nc(-c2ccc(Cl)cc2)s1 (optimized conformer: 53.44531325045896 kcal/mol)

>  <smiles>  (13) 
S=c1[nH]nc(-c2ccc(Cl)cc2)s1

>  <score_type>  (13) 
oracle

>  <origin>  (13) 
adgpu

>  <m_score__min__energy>  (13) 
-7.0899999999999999

>  <m_primary>  (13) 
energy

$$$$
13:0
     RDKit          3D

 40 42  0  0  0  0  0  0  0  0999 V2000
   -6.5540   16.1380  -33.8400 C   0  0  0  0  0  0  0  0  0  0  0  0
   -6.8460   17.5430  -33.4020 C   0  0  0  0  0  0  0  0  0  0  0  0
   -6.2250   18.6220  -34.0490 C   0  0  0  0  0  0  0  0  0  0  0  0
   -6.4710   19.9320  -33.6270 C   0  0  0  0  0  0  0  0  0  0  0  0
   -7.3390   20.1830  -32.5590 C   0  0  0  0  0  0  0  0  0  0  0  0
   -7.5450   21.5110  -32.1540 O   0  0  0  0  0  0  0  0  0  0  0  0
   -6.5500   22.3810  -31.6850 C   0  0  0  0  0  0  0  0  0  0  0  0
   -6.8570   23.5090  -30.9050 C   0  0  0  0  0  0  0  0  0  0  0  0
   -5.8370   24.3590  -30.4640 C   0  0  0  0  0  0  0  0  0  0  0  0
   -4.5040   24.1030  -30.8040 C   0  0  0  0  0  0  0  0  0  0  0  0
   -3.4890   24.9910  -30.3140 N   0  0  0  0  0  0  0  0  0  0  0  0
   -2.4450   24.6750  -28.9640 S   0  0  0  0  0  0  0  0  0  0  0  0
   -3.2900   24.5610  -27.7270 O   0  0  0  0  0  0  0  0  0  0  0  0
   -1.4990   25.8320  -28.8070 O   0  0  0  0  0  0  0  0  0  0  0  0
   -1.5490   23.1660  -29.1900 C   0  0  0  0  0  0  0  0  0  0  0  0
   -1.5500   22.5450  -30.4510 C   0  0  0  0  0  0  0  0  0  0  0  0
   -0.8350   21.3640  -30.6610 C   0  0  0  0  0  0  0  0  0  0  0  0
   -0.8300   20.5440  -32.3850 Br  0  0  0  0  0  0  0  0  0  0  0  0
   -0.1210   20.7840  -29.6100 C   0  0  0  0  0  0  0  0  0  0  0  0
   -0.1280   21.3800  -28.3480 C   0  0  0  0  0  0  0  0  0  0  0  0
   -0.8410   22.5650  -28.1270 C   0  0  0  0  0  0  0  0  0  0  0  0
   -0.8220   23.2980  -26.3540 Br  0  0  0  0  0  0  0  0  0  0  0  0
   -4.1990   22.9860  -31.6020 C   0  0  0  0  0  0  0  0  0  0  0  0
   -5.2210   22.1370  -32.0420 C   0  0  0  0  0  0  0  0  0  0  0  0
   -7.9350   19.1000  -31.8900 C   0  0  0  0  0  0  0  0  0  0  0  0
   -7.6900   17.7890  -32.3080 C   0  0  0  0  0  0  0  0  0  0  0  0
   -6.4210   15.4982  -32.9551 H   0  0  0  0  0  0  0  0  0  0  0  0
   -7.3928   15.7601  -34.4430 H   0  0  0  0  0  0  0  0  0  0  0  0
   -5.6341   16.1256  -34.4430 H   0  0  0  0  0  0  0  0  0  0  0  0
   -5.5422   18.4366  -34.8912 H   0  0  0  0  0  0  0  0  0  0  0  0
   -5.9782   20.7718  -34.1387 H   0  0  0  0  0  0  0  0  0  0  0  0
   -7.9027   23.7243  -30.6403 H   0  0  0  0  0  0  0  0  0  0  0  0
   -6.0846   25.2345  -29.8458 H   0  0  0  0  0  0  0  0  0  0  0  0
   -2.1187   22.9930  -31.2792 H   0  0  0  0  0  0  0  0  0  0  0  0
    0.4471   19.8570  -29.7770 H   0  0  0  0  0  0  0  0  0  0  0  0
    0.4302   20.9160  -27.5215 H   0  0  0  0  0  0  0  0  0  0  0  0
   -3.1553   22.7791  -31.8809 H   0  0  0  0  0  0  0  0  0  0  0  0
   -4.9762   21.2706  -32.6740 H   0  0  0  0  0  0  0  0  0  0  0  0
   -8.5983   19.2854  -31.0323 H   0  0  0  0  0  0  0  0  0  0  0  0
   -8.1601   16.9475  -31.7780 H   0  0  0  0  0  0  0  0  0  0  0  0
  1  2  1  0
  2  3  2  0
  3  4  1  0
  4  5  2  0
  5  6  1  0
  6  7  1  0
  7  8  2  0
  8  9  1  0
  9 10  2  0
 10 11  1  0
 11 12  1  0
 12 13  2  0
 12 14  2  0
 12 15  1  0
 15 16  2  0
 16 17  1  0
 17 18  1  0
 17 19  2  0
 19 20  1  0
 20 21  2  0
 21 22  1  0
 10 23  1  0
 23 24  2  0
  5 25  1  0
 25 26  2  0
 26  2  1  0
 24  7  1  0
 21 15  1  0
  1 27  1  0
  1 28  1  0
  1 29  1  0
  3 30  1  0
  4 31  1  0
  8 32  1  0
  9 33  1  0
 16 34  1  0
 19 35  1  0
 20 36  1  0
 23 37  1  0
 24 38  1  0
 25 39  1  0
 26 40  1  0
M  CHG  1  11  -1
M  END
>  <UniqueID>  (14) 
14

>  <SMILES>  (14) 
Cc1ccc(Oc2ccc([N-]S(=O)(=O)c3cc(Br)ccc3Br)cc2)cc1

>  <Energy>  (14) 
53.329415334207944

>  <Genealogy>  (14) 
Cc1ccc(Oc2ccc([N-]S(=O)(=O)c3cc(Br)ccc3Br)cc2)cc1 (protonated)
Cc1ccc(Oc2ccc([N-]S(=O)(=O)c3cc(Br)ccc3Br)cc2)cc1 (3D coordinates assigned)
Cc1ccc(Oc2ccc([N-]S(=O)(=O)c3cc(Br)ccc3Br)cc2)cc1 (optimized conformer: 53.329415334207944 kcal/mol)

>  <smiles>  (14) 
Cc1ccc(Oc2ccc(NS(=O)(=O)c3cc(Br)ccc3Br)cc2)cc1

>  <score_type>  (14) 
oracle

>  <origin>  (14) 
adgpu

>  <m_score__min__energy>  (14) 
-11.050000000000001

>  <m_primary>  (14) 
energy

$$$$
14:0
     RDKit          3D

 41 42  0  0  0  0  0  0  0  0999 V2000
   -7.5540   18.4970  -32.1680 C   0  0  0  0  0  0  0  0  0  0  0  0
   -8.4080   19.2910  -33.0580 N   0  0  0  0  0  0  0  0  0  0  0  0
   -9.0950   20.3800  -32.3430 C   0  0  0  0  0  0  0  0  0  0  0  0
   -8.1210   21.3930  -31.7900 C   0  0  0  0  0  0  0  0  0  0  0  0
   -6.9900   21.7630  -32.5330 C   0  0  0  0  0  0  0  0  0  0  0  0
   -6.0670   22.6720  -32.0090 C   0  0  0  0  0  0  0  0  0  0  0  0
   -6.2580   23.2140  -30.7300 C   0  0  0  0  0  0  0  0  0  0  0  0
   -5.0680   24.3260  -30.0490 S   0  0  0  0  0  0  0  0  0  0  0  0
   -5.7340   25.1940  -29.0170 O   0  0  0  0  0  0  0  0  0  0  0  0
   -4.5440   25.2190  -31.1390 O   0  0  0  0  0  0  0  0  0  0  0  0
   -3.7320   23.4670  -29.3160 N   0  0  0  0  0  0  0  0  0  0  0  0
   -3.1950   24.1910  -28.1390 C   0  0  0  0  0  0  0  0  0  0  0  0
   -1.8840   24.9370  -28.4510 C   0  0  0  0  0  0  0  0  0  0  0  0
   -0.8300   24.0340  -28.9790 N   0  0  0  0  0  0  0  0  0  0  0  0
    0.1200   23.6430  -27.9270 C   0  0  0  0  0  0  0  0  0  0  0  0
   -1.3630   22.8360  -29.6700 C   0  0  0  0  0  0  0  0  0  0  0  0
   -2.7120   23.1310  -30.3310 C   0  0  0  0  0  0  0  0  0  0  0  0
   -7.3930   22.8540  -29.9900 C   0  0  0  0  0  0  0  0  0  0  0  0
   -8.3160   21.9450  -30.5140 C   0  0  0  0  0  0  0  0  0  0  0  0
   -7.8014   18.7270  -31.1211 H   0  0  0  0  0  0  0  0  0  0  0  0
   -7.7217   17.4265  -32.3577 H   0  0  0  0  0  0  0  0  0  0  0  0
   -6.4986   18.7421  -32.3577 H   0  0  0  0  0  0  0  0  0  0  0  0
   -9.1320   18.6580  -33.4700 H   0  0  0  0  0  0  0  0  0  0  0  0
   -7.8290   19.6790  -33.8400 H   0  0  0  0  0  0  0  0  0  0  0  0
   -9.7784   20.8873  -33.0398 H   0  0  0  0  0  0  0  0  0  0  0  0
   -9.6450   19.9395  -31.4983 H   0  0  0  0  0  0  0  0  0  0  0  0
   -6.8289   21.3352  -33.5335 H   0  0  0  0  0  0  0  0  0  0  0  0
   -5.1875   22.9634  -32.6020 H   0  0  0  0  0  0  0  0  0  0  0  0
   -3.9450   24.9220  -27.8025 H   0  0  0  0  0  0  0  0  0  0  0  0
   -2.9773   23.4457  -27.3598 H   0  0  0  0  0  0  0  0  0  0  0  0
   -2.0903   25.7152  -29.2006 H   0  0  0  0  0  0  0  0  0  0  0  0
   -1.5133   25.3709  -27.5106 H   0  0  0  0  0  0  0  0  0  0  0  0
   -0.3292   23.8279  -26.9401 H   0  0  0  0  0  0  0  0  0  0  0  0
    0.3581   22.5737  -28.0270 H   0  0  0  0  0  0  0  0  0  0  0  0
    1.0418   24.2348  -28.0270 H   0  0  0  0  0  0  0  0  0  0  0  0
   -0.6468   22.5193  -30.4425 H   0  0  0  0  0  0  0  0  0  0  0  0
   -1.5076   22.0401  -28.9246 H   0  0  0  0  0  0  0  0  0  0  0  0
   -2.5973   23.9796  -31.0215 H   0  0  0  0  0  0  0  0  0  0  0  0
   -3.0404   22.2344  -30.8771 H   0  0  0  0  0  0  0  0  0  0  0  0
   -7.5576   23.2887  -28.9931 H   0  0  0  0  0  0  0  0  0  0  0  0
   -9.1996   21.6606  -29.9238 H   0  0  0  0  0  0  0  0  0  0  0  0
  1  2  1  0
  2  3  1  0
  3  4  1  0
  4  5  2  0
  5  6  1  0
  6  7  2  0
  7  8  1  0
  8  9  2  0
  8 10  2  0
  8 11  1  0
 11 12  1  0
 12 13  1  0
 13 14  1  0
 14 15  1  0
 14 16  1  0
 16 17  1  0
  7 18  1  0
 18 19  2  0
 19  4  1  0
 17 11  1  0
  1 20  1  0
  1 21  1  0
  1 22  1  0
  2 23  1  0
  2 24  1  0
  3 25  1  0
  3 26  1  0
  5 27  1  0
  6 28  1  0
 12 29  1  0
 12 30  1  0
 13 31  1  0
 13 32  1  0
 15 33  1  0
 15 34  1  0
 15 35  1  0
 16 36  1  0
 16 37  1  0
 17 38  1  0
 17 39  1  0
 18 40  1  0
 19 41  1  0
M  CHG  1   2   1
M  END
>  <UniqueID>  (15) 
15

>  <SMILES>  (15) 
C[NH2+]Cc1ccc(S(=O)(=O)N2CCN(C)CC2)cc1

>  <Energy>  (15) 
47.85431986585064

>  <Genealogy>  (15) 
C[NH2+]Cc1ccc(S(=O)(=O)N2CCN(C)CC2)cc1 (protonated)
C[NH2+]Cc1ccc(S(=O)(=O)N2CCN(C)CC2)cc1 (3D coordinates assigned)
C[NH2+]Cc1ccc(S(=O)(=O)N2CCN(C)CC2)cc1 (nonaromatic ring conformer: 47.85431986585064 kcal/mol)

>  <smiles>  (15) 
CNCc1ccc(S(=O)(=O)N2CCN(C)CC2)cc1

>  <score_type>  (15) 
oracle

>  <origin>  (15) 
adgpu

>  <m_score__min__energy>  (15) 
-7.5099999999999998

>  <m_primary>  (15) 
energy

$$$$
15:0
     RDKit          3D

 37 39  0  0  0  0  0  0  0  0999 V2000
   -6.8730   16.6770  -33.2990 C   0  0  0  0  0  0  0  0  0  0  0  0
   -6.4480   18.0160  -32.8680 N   0  0  0  0  0  0  0  0  0  0  0  0
   -5.1410   18.3830  -33.0110 C   0  0  0  0  0  0  0  0  0  0  0  0
   -4.6980   19.6570  -32.6290 C   0  0  0  0  0  0  0  0  0  0  0  0
   -3.2740   20.0100  -32.8410 C   0  0  0  0  0  0  0  0  0  0  0  0
   -2.9340   21.1640  -33.5640 C   0  0  0  0  0  0  0  0  0  0  0  0
   -1.5920   21.4950  -33.7740 C   0  0  0  0  0  0  0  0  0  0  0  0
   -0.5760   20.6830  -33.2610 C   0  0  0  0  0  0  0  0  0  0  0  0
    0.7560   21.0300  -33.4840 O   0  0  0  0  0  0  0  0  0  0  0  0
   -0.9090   19.5340  -32.5270 C   0  0  0  0  0  0  0  0  0  0  0  0
    0.0630   18.7370  -32.0160 F   0  0  0  0  0  0  0  0  0  0  0  0
   -2.2510   19.2030  -32.3150 C   0  0  0  0  0  0  0  0  0  0  0  0
   -5.6240   20.5680  -32.0740 C   0  0  0  0  0  0  0  0  0  0  0  0
   -5.1780   21.9010  -31.5960 C   0  0  0  0  0  0  0  0  0  0  0  0
   -4.0810   22.0100  -30.7260 C   0  0  0  0  0  0  0  0  0  0  0  0
   -3.6450   23.2670  -30.2950 C   0  0  0  0  0  0  0  0  0  0  0  0
   -4.3020   24.4230  -30.7300 C   0  0  0  0  0  0  0  0  0  0  0  0
   -3.8680   25.6720  -30.3010 O   0  0  0  0  0  0  0  0  0  0  0  0
   -5.3960   24.3220  -31.5950 C   0  0  0  0  0  0  0  0  0  0  0  0
   -5.8330   23.0670  -32.0280 C   0  0  0  0  0  0  0  0  0  0  0  0
   -6.9730   20.1760  -31.9390 C   0  0  0  0  0  0  0  0  0  0  0  0
   -7.9510   21.0660  -31.3480 C   0  0  0  0  0  0  0  0  0  0  0  0
   -8.7330   21.7770  -30.8760 N   0  0  0  0  0  0  0  0  0  0  0  0
   -7.3660   18.8910  -32.3500 C   0  0  0  0  0  0  0  0  0  0  0  0
   -8.5750   18.5420  -32.2340 O   0  0  0  0  0  0  0  0  0  0  0  0
   -7.0711   16.0530  -32.4151 H   0  0  0  0  0  0  0  0  0  0  0  0
   -7.7891   16.7596  -33.9023 H   0  0  0  0  0  0  0  0  0  0  0  0
   -6.0770   16.2161  -33.9023 H   0  0  0  0  0  0  0  0  0  0  0  0
   -4.4221   17.6658  -33.4338 H   0  0  0  0  0  0  0  0  0  0  0  0
   -3.7270   21.8109  -33.9672 H   0  0  0  0  0  0  0  0  0  0  0  0
   -1.3342   22.3987  -34.3457 H   0  0  0  0  0  0  0  0  0  0  0  0
    1.5180   20.4050  -33.2510 H   0  0  0  0  0  0  0  0  0  0  0  0
   -2.5074   18.3055  -31.7330 H   0  0  0  0  0  0  0  0  0  0  0  0
   -3.5625   21.1029  -30.3821 H   0  0  0  0  0  0  0  0  0  0  0  0
   -2.7851   23.3468  -29.6137 H   0  0  0  0  0  0  0  0  0  0  0  0
   -5.9133   25.2313  -31.9351 H   0  0  0  0  0  0  0  0  0  0  0  0
   -6.6930   22.9916  -32.7096 H   0  0  0  0  0  0  0  0  0  0  0  0
  1  2  1  0
  2  3  1  0
  3  4  2  0
  4  5  1  0
  5  6  2  0
  6  7  1  0
  7  8  2  0
  8  9  1  0
  8 10  1  0
 10 11  1  0
 10 12  2  0
  4 13  1  0
 13 14  1  0
 14 15  2  0
 15 16  1  0
 16 17  2  0
 17 18  1  0
 17 19  1  0
 19 20  2  0
 13 21  2  0
 21 22  1  0
 22 23  3  0
 21 24  1  0
 24 25  2  0
 24  2  1  0
 12  5  1  0
 20 14  1  0
  1 26  1  0
  1 27  1  0
  1 28  1  0
  3 29  1  0
  6 30  1  0
  7 31  1  0
  9 32  1  0
 12 33  1  0
 15 34  1  0
 16 35  1  0
 19 36  1  0
 20 37  1  0
M  CHG  1  18  -1
M  END
>  <UniqueID>  (16) 
16

>  <SMILES>  (16) 
Cn1cc(-c2ccc(O)c(F)c2)c(-c2ccc([O-])cc2)c(C#N)c1=O

>  <Energy>  (16) 
56.7721935138492

>  <Genealogy>  (16) 
Cn1cc(-c2ccc(O)c(F)c2)c(-c2ccc([O-])cc2)c(C#N)c1=O (protonated)
Cn1cc(-c2ccc(O)c(F)c2)c(-c2ccc([O-])cc2)c(C#N)c1=O (3D coordinates assigned)
Cn1cc(-c2ccc(O)c(F)c2)c(-c2ccc([O-])cc2)c(C#N)c1=O (optimized conformer: 56.7721935138492 kcal/mol)

>  <smiles>  (16) 
Cn1cc(-c2ccc(O)c(F)c2)c(-c2ccc(O)cc2)c(C#N)c1=O

>  <score_type>  (16) 
oracle

>  <origin>  (16) 
adgpu

>  <m_score__min__energy>  (16) 
-10.369999999999999

>  <m_primary>  (16) 
energy

$$$$
16:0
     RDKit          3D

 60 63  0  0  0  0  0  0  0  0999 V2000
   -5.4310   16.6440  -33.7420 C   0  0  0  0  0  0  0  0  0  0  0  0
   -5.6810   17.9540  -32.9850 C   0  0  1  0  0  0  0  0  0  0  0  0
   -5.9240   19.1170  -33.9760 C   0  0  0  0  0  0  0  0  0  0  0  0
   -6.7630   20.2190  -33.3210 C   0  0  0  0  0  0  0  0  0  0  0  0
   -8.1210   19.7350  -32.9730 N   0  0  2  0  0  0  0  0  0  0  0  0
   -8.8460   20.7850  -31.7740 S   0  0  0  0  0  0  0  0  0  0  0  0
  -10.1670   21.2910  -32.2820 O   0  0  0  0  0  0  0  0  0  0  0  0
   -9.0990   20.0060  -30.5130 O   0  0  0  0  0  0  0  0  0  0  0  0
   -7.7990   22.1560  -31.4050 C   0  0  0  0  0  0  0  0  0  0  0  0
   -7.3750   23.0180  -32.4270 C   0  0  0  0  0  0  0  0  0  0  0  0
   -6.4600   24.0380  -32.1540 C   0  0  0  0  0  0  0  0  0  0  0  0
   -5.9460   24.1990  -30.8580 C   0  0  0  0  0  0  0  0  0  0  0  0
   -4.9030   25.2110  -30.5900 C   0  0  0  0  0  0  0  0  0  0  0  0
   -5.2310   26.4160  -30.4360 O   0  0  0  0  0  0  0  0  0  0  0  0
   -3.5210   24.8470  -30.4690 N   0  0  0  0  0  0  0  0  0  0  0  0
   -2.9560   24.0690  -29.4010 C   0  0  0  0  0  0  0  0  0  0  0  0
   -2.8160   24.6060  -28.1070 C   0  0  0  0  0  0  0  0  0  0  0  0
   -2.2450   23.8440  -27.0850 C   0  0  0  0  0  0  0  0  0  0  0  0
   -1.8190   22.5410  -27.3390 C   0  0  0  0  0  0  0  0  0  0  0  0
   -1.9740   21.9900  -28.6130 C   0  0  0  0  0  0  0  0  0  0  0  0
   -2.5530   22.7420  -29.6440 C   0  0  0  0  0  0  0  0  0  0  0  0
   -2.6760   22.1640  -30.9500 N   0  0  0  0  0  0  0  0  0  0  0  0
   -4.0090   21.8740  -31.4770 C   0  0  0  0  0  0  0  0  0  0  0  0
   -3.9700   21.8670  -33.0080 C   0  0  0  0  0  0  0  0  0  0  0  0
   -2.9360   21.0250  -33.4820 O   0  0  0  0  0  0  0  0  0  0  0  0
   -1.6770   21.5460  -33.0960 C   0  0  0  0  0  0  0  0  0  0  0  0
   -1.5210   21.5150  -31.5730 C   0  0  0  0  0  0  0  0  0  0  0  0
   -6.4130   23.3690  -29.8250 C   0  0  0  0  0  0  0  0  0  0  0  0
   -7.3370   22.3570  -30.0980 C   0  0  0  0  0  0  0  0  0  0  0  0
   -8.1710   18.3090  -32.5470 C   0  0  0  0  0  0  0  0  0  0  0  0
   -6.8380   17.8060  -31.9670 C   0  0  0  0  0  0  0  0  0  0  0  0
   -5.2753   15.8279  -33.0211 H   0  0  0  0  0  0  0  0  0  0  0  0
   -6.3014   16.4138  -34.3740 H   0  0  0  0  0  0  0  0  0  0  0  0
   -4.5370   16.7506  -34.3740 H   0  0  0  0  0  0  0  0  0  0  0  0
   -4.7783   18.1953  -32.4046 H   0  0  0  0  0  0  0  0  0  0  0  0
   -6.4567   18.7340  -34.8589 H   0  0  0  0  0  0  0  0  0  0  0  0
   -4.9522   19.5398  -34.2708 H   0  0  0  0  0  0  0  0  0  0  0  0
   -6.8529   21.0631  -34.0206 H   0  0  0  0  0  0  0  0  0  0  0  0
   -6.2598   20.5303  -32.3937 H   0  0  0  0  0  0  0  0  0  0  0  0
   -8.7160   19.8260  -33.8300 H   0  0  0  0  0  0  0  0  0  0  0  0
   -7.7645   22.8904  -33.4478 H   0  0  0  0  0  0  0  0  0  0  0  0
   -6.1412   24.7176  -32.9581 H   0  0  0  0  0  0  0  0  0  0  0  0
   -3.1580   25.6308  -27.8998 H   0  0  0  0  0  0  0  0  0  0  0  0
   -2.1313   24.2726  -26.0783 H   0  0  0  0  0  0  0  0  0  0  0  0
   -1.3604   21.9463  -26.5352 H   0  0  0  0  0  0  0  0  0  0  0  0
   -1.6398   20.9603  -28.8081 H   0  0  0  0  0  0  0  0  0  0  0  0
   -4.3385   20.8888  -31.1154 H   0  0  0  0  0  0  0  0  0  0  0  0
   -4.7118   22.6479  -31.1346 H   0  0  0  0  0  0  0  0  0  0  0  0
   -4.9349   21.5036  -33.3914 H   0  0  0  0  0  0  0  0  0  0  0  0
   -3.7787   22.8915  -33.3598 H   0  0  0  0  0  0  0  0  0  0  0  0
   -0.8804   20.9404  -33.5528 H   0  0  0  0  0  0  0  0  0  0  0  0
   -1.6070   22.5895  -33.4370 H   0  0  0  0  0  0  0  0  0  0  0  0
   -1.4592   20.4710  -31.2321 H   0  0  0  0  0  0  0  0  0  0  0  0
   -0.6027   22.0493  -31.2879 H   0  0  0  0  0  0  0  0  0  0  0  0
   -6.0498   23.5165  -28.7972 H   0  0  0  0  0  0  0  0  0  0  0  0
   -7.7032   21.7154  -29.2830 H   0  0  0  0  0  0  0  0  0  0  0  0
   -8.4282   17.6915  -33.4202 H   0  0  0  0  0  0  0  0  0  0  0  0
   -8.9259   18.2306  -31.7507 H   0  0  0  0  0  0  0  0  0  0  0  0
   -6.9435   16.7445  -31.6985 H   0  0  0  0  0  0  0  0  0  0  0  0
   -6.5971   18.4133  -31.0820 H   0  0  0  0  0  0  0  0  0  0  0  0
  1  2  1  0
  2  3  1  0
  3  4  1  0
  4  5  1  0
  5  6  1  0
  6  7  2  0
  6  8  2  0
  6  9  1  0
  9 10  2  0
 10 11  1  0
 11 12  2  0
 12 13  1  0
 13 14  2  0
 13 15  1  0
 15 16  1  0
 16 17  2  0
 17 18  1  0
 18 19  2  0
 19 20  1  0
 20 21  2  0
 21 22  1  0
 22 23  1  0
 23 24  1  0
 24 25  1  0
 25 26  1  0
 26 27  1  0
 12 28  1  0
 28 29  2  0
  5 30  1  0
 30 31  1  0
 31  2  1  0
 29  9  1  0
 21 16  1  0
 27 22  1  0
  1 32  1  0
  1 33  1  0
  1 34  1  0
  2 35  1  1
  3 36  1  0
  3 37  1  0
  4 38  1  0
  4 39  1  0
  5 40  1  6
 10 41  1  0
 11 42  1  0
 17 43  1  0
 18 44  1  0
 19 45  1  0
 20 46  1  0
 23 47  1  0
 23 48  1  0
 24 49  1  0
 24 50  1  0
 26 51  1  0
 26 52  1  0
 27 53  1  0
 27 54  1  0
 28 55  1  0
 29 56  1  0
 30 57  1  0
 30 58  1  0
 31 59  1  0
 31 60  1  0
M  CHG  2   5   1  15  -1
M  END
>  <UniqueID>  (17) 
17

>  <SMILES>  (17) 
CC1CC[NH+](S(=O)(=O)c2ccc(C(=O)[N-]c3ccccc3N3CCOCC3)cc2)CC1

>  <Energy>  (17) 
77.01349624743223

>  <Genealogy>  (17) 
CC1CC[NH+](S(=O)(=O)c2ccc(C(=O)[N-]c3ccccc3N3CCOCC3)cc2)CC1 (protonated)
CC1CC[NH+](S(=O)(=O)c2ccc(C(=O)[N-]c3ccccc3N3CCOCC3)cc2)CC1 (3D coordinates assigned)
CC1CC[NH+](S(=O)(=O)c2ccc(C(=O)[N-]c3ccccc3N3CCOCC3)cc2)CC1 (nonaromatic ring conformer: 77.01349624743223 kcal/mol)

>  <smiles>  (17) 
CC1CCN(S(=O)(=O)c2ccc(C(=O)Nc3ccccc3N3CCOCC3)cc2)CC1

>  <score_type>  (17) 
oracle

>  <origin>  (17) 
adgpu

>  <m_score__min__energy>  (17) 
-12.51

>  <m_primary>  (17) 
energy

$$$$
17:0
     RDKit          3D

 47 49  0  0  0  0  0  0  0  0999 V2000
   -5.3570   15.9710  -32.3280 C   0  0  0  0  0  0  0  0  0  0  0  0
   -5.9580   17.3350  -32.5120 C   0  0  0  0  0  0  0  0  0  0  0  0
   -7.3220   17.5490  -32.2790 C   0  0  0  0  0  0  0  0  0  0  0  0
   -7.8700   18.8260  -32.4080 C   0  0  0  0  0  0  0  0  0  0  0  0
   -7.0570   19.9190  -32.7600 C   0  0  0  0  0  0  0  0  0  0  0  0
   -7.5940   21.2460  -32.8750 N   0  0  0  0  0  0  0  0  0  0  0  0
   -8.0070   22.2790  -31.5450 S   0  0  0  0  0  0  0  0  0  0  0  0
   -8.9590   23.3380  -32.0220 O   0  0  0  0  0  0  0  0  0  0  0  0
   -8.6730   21.4610  -30.4740 O   0  0  0  0  0  0  0  0  0  0  0  0
   -6.5540   23.0580  -30.9260 C   0  0  0  0  0  0  0  0  0  0  0  0
   -6.4970   24.4540  -30.8330 C   0  0  0  0  0  0  0  0  0  0  0  0
   -5.3420   25.0810  -30.3570 C   0  0  0  0  0  0  0  0  0  0  0  0
   -4.2250   24.3210  -29.9770 C   0  0  0  0  0  0  0  0  0  0  0  0
   -3.0550   24.9880  -29.4780 N   0  0  0  0  0  0  0  0  0  0  0  0
   -1.7690   24.3590  -29.3400 C   0  0  0  0  0  0  0  0  0  0  0  0
   -1.5290   23.2720  -29.9260 O   0  0  0  0  0  0  0  0  0  0  0  0
   -0.7130   25.0050  -28.6210 N   0  0  0  0  0  0  0  0  0  0  0  0
   -0.8270   25.5900  -27.3180 C   0  0  0  0  0  0  0  0  0  0  0  0
   -1.1110   24.7620  -26.2250 C   0  0  0  0  0  0  0  0  0  0  0  0
   -1.2570   25.3070  -24.9460 C   0  0  0  0  0  0  0  0  0  0  0  0
   -1.1340   26.6870  -24.7530 C   0  0  0  0  0  0  0  0  0  0  0  0
   -0.8700   27.5230  -25.8420 C   0  0  0  0  0  0  0  0  0  0  0  0
   -0.7710   28.8640  -25.6580 F   0  0  0  0  0  0  0  0  0  0  0  0
   -0.7220   26.9790  -27.1220 C   0  0  0  0  0  0  0  0  0  0  0  0
   -4.2980   22.9180  -30.0440 C   0  0  0  0  0  0  0  0  0  0  0  0
   -5.4540   22.2910  -30.5190 C   0  0  0  0  0  0  0  0  0  0  0  0
   -5.6810   19.7100  -32.9900 C   0  0  0  0  0  0  0  0  0  0  0  0
   -4.7840   20.8650  -33.3390 C   0  0  0  0  0  0  0  0  0  0  0  0
   -5.1400   18.4210  -32.8550 C   0  0  0  0  0  0  0  0  0  0  0  0
   -5.2615   15.7543  -31.2538 H   0  0  0  0  0  0  0  0  0  0  0  0
   -6.0066   15.2177  -32.7977 H   0  0  0  0  0  0  0  0  0  0  0  0
   -4.3628   15.9420  -32.7977 H   0  0  0  0  0  0  0  0  0  0  0  0
   -7.9661   16.7047  -31.9923 H   0  0  0  0  0  0  0  0  0  0  0  0
   -8.9452   18.9791  -32.2332 H   0  0  0  0  0  0  0  0  0  0  0  0
   -7.3642   25.0593  -31.1356 H   0  0  0  0  0  0  0  0  0  0  0  0
   -5.3083   26.1778  -30.2797 H   0  0  0  0  0  0  0  0  0  0  0  0
   -3.1130   26.0200  -29.3100 H   0  0  0  0  0  0  0  0  0  0  0  0
   -1.2197   23.6775  -26.3735 H   0  0  0  0  0  0  0  0  0  0  0  0
   -1.4690   24.6496  -24.0899 H   0  0  0  0  0  0  0  0  0  0  0  0
   -1.2449   27.1140  -23.7453 H   0  0  0  0  0  0  0  0  0  0  0  0
   -0.5228   27.6398  -27.9786 H   0  0  0  0  0  0  0  0  0  0  0  0
   -3.4402   22.3101  -29.7206 H   0  0  0  0  0  0  0  0  0  0  0  0
   -5.5001   21.1933  -30.5733 H   0  0  0  0  0  0  0  0  0  0  0  0
   -4.4176   21.3368  -32.4154 H   0  0  0  0  0  0  0  0  0  0  0  0
   -3.9297   20.5007  -33.9285 H   0  0  0  0  0  0  0  0  0  0  0  0
   -5.3484   21.6025  -33.9285 H   0  0  0  0  0  0  0  0  0  0  0  0
   -4.0641   18.2618  -33.0199 H   0  0  0  0  0  0  0  0  0  0  0  0
  1  2  1  0
  2  3  2  0
  3  4  1  0
  4  5  2  0
  5  6  1  0
  6  7  1  0
  7  8  2  0
  7  9  2  0
  7 10  1  0
 10 11  2  0
 11 12  1  0
 12 13  2  0
 13 14  1  0
 14 15  1  0
 15 16  2  0
 15 17  1  0
 17 18  1  0
 18 19  2  0
 19 20  1  0
 20 21  2  0
 21 22  1  0
 22 23  1  0
 22 24  2  0
 13 25  1  0
 25 26  2  0
  5 27  1  0
 27 28  1  0
 27 29  2  0
 29  2  1  0
 26 10  1  0
 24 18  1  0
  1 30  1  0
  1 31  1  0
  1 32  1  0
  3 33  1  0
  4 34  1  0
 11 35  1  0
 12 36  1  0
 14 37  1  0
 19 38  1  0
 20 39  1  0
 21 40  1  0
 24 41  1  0
 25 42  1  0
 26 43  1  0
 28 44  1  0
 28 45  1  0
 28 46  1  0
 29 47  1  0
M  CHG  2   6  -1  17  -1
M  END
>  <UniqueID>  (18) 
18

>  <SMILES>  (18) 
Cc1ccc([N-]S(=O)(=O)c2ccc(NC(=O)[N-]c3cccc(F)c3)cc2)c(C)c1

>  <Energy>  (18) 
58.75380425685603

>  <Genealogy>  (18) 
Cc1ccc([N-]S(=O)(=O)c2ccc(NC(=O)[N-]c3cccc(F)c3)cc2)c(C)c1 (protonated)
Cc1ccc([N-]S(=O)(=O)c2ccc(NC(=O)[N-]c3cccc(F)c3)cc2)c(C)c1 (3D coordinates assigned)
Cc1ccc([N-]S(=O)(=O)c2ccc(NC(=O)[N-]c3cccc(F)c3)cc2)c(C)c1 (optimized conformer: 58.75380425685603 kcal/mol)

>  <smiles>  (18) 
Cc1ccc(NS(=O)(=O)c2ccc(NC(=O)Nc3cccc(F)c3)cc2)c(C)c1

>  <score_type>  (18) 
oracle

>  <origin>  (18) 
adgpu

>  <m_score__min__energy>  (18) 
-11.48

>  <m_primary>  (18) 
energy

$$$$
18:0
     RDKit          3D

 47 50  0  0  0  0  0  0  0  0999 V2000
    1.0030   27.8450  -23.4490 C   0  0  0  0  0  0  0  0  0  0  0  0
   -0.3530   27.1540  -23.5420 C   0  0  0  0  0  0  0  0  0  0  0  0
   -0.6600   26.7740  -24.9640 C   0  0  0  0  0  0  0  0  0  0  0  0
   -0.0390   27.4680  -26.0380 C   0  0  0  0  0  0  0  0  0  0  0  0
   -0.3410   27.1400  -27.3730 C   0  0  0  0  0  0  0  0  0  0  0  0
   -1.2720   26.1320  -27.5930 C   0  0  0  0  0  0  0  0  0  0  0  0
   -1.7160   25.6580  -28.7250 O   0  0  0  0  0  0  0  0  0  0  0  0
   -2.5890   24.7150  -28.4040 C   0  0  0  0  0  0  0  0  0  0  0  0
   -3.3330   23.9230  -29.4040 C   0  0  0  0  0  0  0  0  0  0  0  0
   -2.9600   22.5950  -29.6720 C   0  0  0  0  0  0  0  0  0  0  0  0
   -3.6590   21.8420  -30.6190 C   0  0  0  0  0  0  0  0  0  0  0  0
   -4.7520   22.3940  -31.3030 C   0  0  0  0  0  0  0  0  0  0  0  0
   -5.4370   21.6070  -32.2910 N   0  0  0  0  0  0  0  0  0  0  0  0
   -4.7780   20.7270  -33.2150 C   0  0  0  0  0  0  0  0  0  0  0  0
   -3.5330   20.8060  -33.3990 O   0  0  0  0  0  0  0  0  0  0  0  0
   -5.5680   19.6970  -33.9620 C   0  0  0  0  0  0  0  0  0  0  0  0
   -6.7760   19.3010  -33.1580 C   0  0  0  0  0  0  0  0  0  0  0  0
   -7.9200   20.1170  -33.1450 C   0  0  0  0  0  0  0  0  0  0  0  0
   -9.0250   19.7670  -32.3620 C   0  0  0  0  0  0  0  0  0  0  0  0
   -8.9930   18.6070  -31.5820 C   0  0  0  0  0  0  0  0  0  0  0  0
   -7.8540   17.7970  -31.5810 C   0  0  0  0  0  0  0  0  0  0  0  0
   -6.7470   18.1440  -32.3610 C   0  0  0  0  0  0  0  0  0  0  0  0
   -5.1120   23.7290  -31.0520 C   0  0  0  0  0  0  0  0  0  0  0  0
   -4.4130   24.4850  -30.1060 C   0  0  0  0  0  0  0  0  0  0  0  0
   -2.7340   24.5530  -27.0590 N   0  0  0  0  0  0  0  0  0  0  0  0
   -1.8810   25.4690  -26.5720 C   0  0  0  0  0  0  0  0  0  0  0  0
   -1.6090   25.7610  -25.2390 C   0  0  0  0  0  0  0  0  0  0  0  0
    1.2727   27.9824  -22.3915 H   0  0  0  0  0  0  0  0  0  0  0  0
    1.7651   27.2253  -23.9442 H   0  0  0  0  0  0  0  0  0  0  0  0
    0.9495   28.8258  -23.9442 H   0  0  0  0  0  0  0  0  0  0  0  0
   -0.3390   26.2463  -22.9208 H   0  0  0  0  0  0  0  0  0  0  0  0
   -1.1286   27.8483  -23.1864 H   0  0  0  0  0  0  0  0  0  0  0  0
    0.6842   28.2687  -25.8238 H   0  0  0  0  0  0  0  0  0  0  0  0
    0.1423   27.6625  -28.2117 H   0  0  0  0  0  0  0  0  0  0  0  0
   -2.1128   22.1456  -29.1332 H   0  0  0  0  0  0  0  0  0  0  0  0
   -3.3495   20.8077  -30.8298 H   0  0  0  0  0  0  0  0  0  0  0  0
   -6.4720   21.7250  -32.3830 H   0  0  0  0  0  0  0  0  0  0  0  0
   -5.8920   20.1141  -34.9269 H   0  0  0  0  0  0  0  0  0  0  0  0
   -4.9393   18.8109  -34.1341 H   0  0  0  0  0  0  0  0  0  0  0  0
   -7.9466   21.0337  -33.7524 H   0  0  0  0  0  0  0  0  0  0  0  0
   -9.9207   20.4055  -32.3599 H   0  0  0  0  0  0  0  0  0  0  0  0
   -9.8641   18.3320  -30.9692 H   0  0  0  0  0  0  0  0  0  0  0  0
   -7.8286   16.8855  -30.9658 H   0  0  0  0  0  0  0  0  0  0  0  0
   -5.8492   17.5085  -32.3508 H   0  0  0  0  0  0  0  0  0  0  0  0
   -5.9491   24.1821  -31.6033 H   0  0  0  0  0  0  0  0  0  0  0  0
   -4.7102   25.5258  -29.9101 H   0  0  0  0  0  0  0  0  0  0  0  0
   -2.1155   25.2216  -24.4250 H   0  0  0  0  0  0  0  0  0  0  0  0
  1  2  1  0
  2  3  1  0
  3  4  2  0
  4  5  1  0
  5  6  2  0
  6  7  1  0
  7  8  1  0
  8  9  1  0
  9 10  2  0
 10 11  1  0
 11 12  2  0
 12 13  1  0
 13 14  1  0
 14 15  2  0
 14 16  1  0
 16 17  1  0
 17 18  2  0
 18 19  1  0
 19 20  2  0
 20 21  1  0
 21 22  2  0
 12 23  1  0
 23 24  2  0
  8 25  2  0
 25 26  1  0
 26 27  2  0
 27  3  1  0
 26  6  1  0
 24  9  1  0
 22 17  1  0
  1 28  1  0
  1 29  1  0
  1 30  1  0
  2 31  1  0
  2 32  1  0
  4 33  1  0
  5 34  1  0
 10 35  1  0
 11 36  1  0
 13 37  1  0
 16 38  1  0
 16 39  1  0
 18 40  1  0
 19 41  1  0
 20 42  1  0
 21 43  1  0
 22 44  1  0
 23 45  1  0
 24 46  1  0
 27 47  1  0
M  END
>  <UniqueID>  (19) 
19

>  <SMILES>  (19) 
CCc1ccc2oc(-c3ccc(NC(=O)Cc4ccccc4)cc3)nc2c1

>  <Energy>  (19) 
86.68132795170662

>  <Genealogy>  (19) 
CCc1ccc2oc(-c3ccc(NC(=O)Cc4ccccc4)cc3)nc2c1 (3D coordinates assigned)
CCc1ccc2oc(-c3ccc(NC(=O)Cc4ccccc4)cc3)nc2c1 (optimized conformer: 86.68132795170662 kcal/mol)

>  <smiles>  (19) 
CCc1ccc2oc(-c3ccc(NC(=O)Cc4ccccc4)cc3)nc2c1

>  <score_type>  (19) 
oracle

>  <origin>  (19) 
adgpu

>  <m_score__min__energy>  (19) 
-9.5700000000000003

>  <m_primary>  (19) 
energy

$$$$
19:0
     RDKit          3D

 51 54  0  0  0  0  0  0  0  0999 V2000
   -1.2300   21.8030  -27.2320 C   0  0  0  0  0  0  0  0  0  0  0  0
   -2.5740   21.7230  -27.6960 O   0  0  0  0  0  0  0  0  0  0  0  0
   -3.0170   22.1500  -28.9590 C   0  0  0  0  0  0  0  0  0  0  0  0
   -3.1550   21.2350  -30.0190 C   0  0  0  0  0  0  0  0  0  0  0  0
   -3.6310   21.6450  -31.2720 C   0  0  0  0  0  0  0  0  0  0  0  0
   -3.8020   20.6740  -32.3770 C   0  0  0  0  0  0  0  0  0  0  0  0
   -2.7800   20.2600  -33.1530 N   0  0  0  0  0  0  0  0  0  0  0  0
   -3.2770   19.3960  -34.0260 N   0  0  0  0  0  0  0  0  0  0  0  0
   -4.5940   19.2930  -33.7700 C   0  0  0  0  0  0  0  0  0  0  0  0
   -5.7120   18.3090  -34.7710 S   0  0  0  0  0  0  0  0  0  0  0  0
   -5.0920   16.7630  -34.1060 C   0  0  0  0  0  0  0  0  0  0  0  0
   -4.2060   15.9810  -34.8580 C   0  0  0  0  0  0  0  0  0  0  0  0
   -3.7130   14.7820  -34.3340 C   0  0  0  0  0  0  0  0  0  0  0  0
   -4.1090   14.3590  -33.0610 C   0  0  0  0  0  0  0  0  0  0  0  0
   -5.0020   15.1330  -32.3140 C   0  0  0  0  0  0  0  0  0  0  0  0
   -5.4960   16.3330  -32.8350 C   0  0  0  0  0  0  0  0  0  0  0  0
   -4.9620   20.0810  -32.7390 N   0  0  0  0  0  0  0  0  0  0  0  0
   -6.2980   20.3550  -32.2850 C   0  0  0  0  0  0  0  0  0  0  0  0
   -6.7410   21.6800  -32.1520 C   0  0  0  0  0  0  0  0  0  0  0  0
   -8.0420   21.9460  -31.7150 C   0  0  0  0  0  0  0  0  0  0  0  0
   -8.9070   20.8910  -31.4060 C   0  0  0  0  0  0  0  0  0  0  0  0
   -8.4710   19.5710  -31.5340 C   0  0  0  0  0  0  0  0  0  0  0  0
   -7.1710   19.3010  -31.9710 C   0  0  0  0  0  0  0  0  0  0  0  0
   -3.9220   22.9960  -31.4820 C   0  0  0  0  0  0  0  0  0  0  0  0
   -3.7800   23.9320  -30.4430 C   0  0  0  0  0  0  0  0  0  0  0  0
   -4.0770   25.2930  -30.6270 O   0  0  0  0  0  0  0  0  0  0  0  0
   -5.3670   25.8710  -30.4560 C   0  0  0  0  0  0  0  0  0  0  0  0
   -3.3350   23.5160  -29.1780 C   0  0  0  0  0  0  0  0  0  0  0  0
   -3.2320   24.5100  -28.1850 O   0  0  0  0  0  0  0  0  0  0  0  0
   -3.9290   24.5480  -26.9450 C   0  0  0  0  0  0  0  0  0  0  0  0
   -1.2213   21.8035  -26.1320 H   0  0  0  0  0  0  0  0  0  0  0  0
   -0.6619   20.9371  -27.6028 H   0  0  0  0  0  0  0  0  0  0  0  0
   -0.7687   22.7302  -27.6028 H   0  0  0  0  0  0  0  0  0  0  0  0
   -2.8848   20.1804  -29.8617 H   0  0  0  0  0  0  0  0  0  0  0  0
   -3.8979   16.3103  -35.8613 H   0  0  0  0  0  0  0  0  0  0  0  0
   -3.0133   14.1711  -34.9233 H   0  0  0  0  0  0  0  0  0  0  0  0
   -3.7179   13.4176  -32.6477 H   0  0  0  0  0  0  0  0  0  0  0  0
   -5.3166   14.7975  -31.3148 H   0  0  0  0  0  0  0  0  0  0  0  0
   -6.2013   16.9390  -32.2474 H   0  0  0  0  0  0  0  0  0  0  0  0
   -6.0625   22.5118  -32.3923 H   0  0  0  0  0  0  0  0  0  0  0  0
   -8.3858   22.9860  -31.6140 H   0  0  0  0  0  0  0  0  0  0  0  0
   -9.9305   21.1014  -31.0622 H   0  0  0  0  0  0  0  0  0  0  0  0
   -9.1517   18.7419  -31.2905 H   0  0  0  0  0  0  0  0  0  0  0  0
   -6.8308   18.2596  -32.0692 H   0  0  0  0  0  0  0  0  0  0  0  0
   -4.2661   23.3305  -32.4718 H   0  0  0  0  0  0  0  0  0  0  0  0
   -5.5855   25.9689  -29.3824 H   0  0  0  0  0  0  0  0  0  0  0  0
   -5.3888   26.8649  -30.9268 H   0  0  0  0  0  0  0  0  0  0  0  0
   -6.1233   25.2257  -30.9268 H   0  0  0  0  0  0  0  0  0  0  0  0
   -3.2062   24.5086  -26.1167 H   0  0  0  0  0  0  0  0  0  0  0  0
   -4.5109   25.4792  -26.8799 H   0  0  0  0  0  0  0  0  0  0  0  0
   -4.6087   23.6856  -26.8799 H   0  0  0  0  0  0  0  0  0  0  0  0
  1  2  1  0
  2  3  1  0
  3  4  2  0
  4  5  1  0
  5  6  1  0
  6  7  2  0
  7  8  1  0
  8  9  2  0
  9 10  1  0
 10 11  1  0
 11 12  2  0
 12 13  1  0
 13 14  2  0
 14 15  1  0
 15 16  2  0
  9 17  1  0
 17 18  1  0
 18 19  2  0
 19 20  1  0
 20 21  2  0
 21 22  1  0
 22 23  2  0
  5 24  2  0
 24 25  1  0
 25 26  1  0
 26 27  1  0
 25 28  2  0
 28 29  1  0
 29 30  1  0
 28  3  1  0
 17  6  1  0
 23 18  1  0
 16 11  1  0
  1 31  1  0
  1 32  1  0
  1 33  1  0
  4 34  1  0
 12 35  1  0
 13 36  1  0
 14 37  1  0
 15 38  1  0
 16 39  1  0
 19 40  1  0
 20 41  1  0
 21 42  1  0
 22 43  1  0
 23 44  1  0
 24 45  1  0
 27 46  1  0
 27 47  1  0
 27 48  1  0
 30 49  1  0
 30 50  1  0
 30 51  1  0
M  END
>  <UniqueID>  (20) 
20

>  <SMILES>  (20) 
COc1cc(-c2nnc(Sc3ccccc3)n2-c2ccccc2)cc(OC)c1OC

>  <Energy>  (20) 
94.68046841198407

>  <Genealogy>  (20) 
COc1cc(-c2nnc(Sc3ccccc3)n2-c2ccccc2)cc(OC)c1OC (3D coordinates assigned)
COc1cc(-c2nnc(Sc3ccccc3)n2-c2ccccc2)cc(OC)c1OC (optimized conformer: 94.68046841198407 kcal/mol)

>  <smiles>  (20) 
COc1cc(-c2nnc(Sc3ccccc3)n2-c2ccccc2)cc(OC)c1OC

>  <score_type>  (20) 
oracle

>  <origin>  (20) 
adgpu

>  <m_score__min__energy>  (20) 
-9.0099999999999998

>  <m_primary>  (20) 
energy

$$$$
20:0
     RDKit          3D

 33 35  0  0  0  0  0  0  0  0999 V2000
   -0.8846   19.9866  -25.0947 H   0  0  0  0  0  0  0  0  0  0  0  0
   -1.3060   20.6240  -25.8860 C   0  0  0  0  0  0  0  0  0  0  0  0
   -2.2410   20.0990  -26.7820 C   0  0  0  0  0  0  0  0  0  0  0  0
   -2.5548   19.0483  -26.6954 H   0  0  0  0  0  0  0  0  0  0  0  0
   -2.7780   20.9070  -27.7880 C   0  0  0  0  0  0  0  0  0  0  0  0
   -3.5146   20.4896  -28.4903 H   0  0  0  0  0  0  0  0  0  0  0  0
   -2.3810   22.2520  -27.9070 C   0  0  0  0  0  0  0  0  0  0  0  0
   -2.9430   23.1120  -28.9640 C   0  0  0  0  0  0  0  0  0  0  0  0
   -2.4390   24.3160  -29.3190 N   0  0  0  0  0  0  0  0  0  0  0  0
   -3.2210   24.7570  -30.2910 N   0  0  0  0  0  0  0  0  0  0  0  0
   -3.1070   25.6680  -30.7870 H   0  0  0  0  0  0  0  0  0  0  0  0
   -4.1590   23.8210  -30.4990 C   0  0  0  0  0  0  0  0  0  0  0  0
   -5.1090   23.9380  -31.3780 N   0  0  0  0  0  0  0  0  0  0  0  0
   -6.1200   22.9610  -31.6760 C   0  0  0  0  0  0  0  0  0  0  0  0
   -5.8050   21.6670  -32.1370 C   0  0  0  0  0  0  0  0  0  0  0  0
   -4.7530   21.3702  -32.2605 H   0  0  0  0  0  0  0  0  0  0  0  0
   -6.8250   20.7590  -32.4380 C   0  0  0  0  0  0  0  0  0  0  0  0
   -6.5728   19.7453  -32.7827 H   0  0  0  0  0  0  0  0  0  0  0  0
   -8.1650   21.1360  -32.3020 C   0  0  0  0  0  0  0  0  0  0  0  0
   -9.4720   19.9680  -32.6850 S   0  0  0  0  0  0  0  0  0  0  0  0
   -8.7310   18.6300  -31.6990 C   0  0  0  0  0  0  0  0  0  0  0  0
   -8.8539   18.8520  -30.6287 H   0  0  0  0  0  0  0  0  0  0  0  0
   -9.2313   17.6795  -31.9362 H   0  0  0  0  0  0  0  0  0  0  0  0
   -7.6599   18.5497  -31.9362 H   0  0  0  0  0  0  0  0  0  0  0  0
   -8.4830   22.4270  -31.8680 C   0  0  0  0  0  0  0  0  0  0  0  0
   -9.5362   22.7267  -31.7631 H   0  0  0  0  0  0  0  0  0  0  0  0
   -7.4650   23.3380  -31.5670 C   0  0  0  0  0  0  0  0  0  0  0  0
   -7.7222   24.3571  -31.2426 H   0  0  0  0  0  0  0  0  0  0  0  0
   -4.0020   22.8050  -29.6840 O   0  0  0  0  0  0  0  0  0  0  0  0
   -1.4400   22.7710  -27.0000 C   0  0  0  0  0  0  0  0  0  0  0  0
   -1.1225   23.8210  -27.0817 H   0  0  0  0  0  0  0  0  0  0  0  0
   -0.9060   21.9590  -25.9950 C   0  0  0  0  0  0  0  0  0  0  0  0
   -0.1700   22.3712  -25.2890 H   0  0  0  0  0  0  0  0  0  0  0  0
  1  2  1  0
  2  3  2  0
  3  4  1  0
  3  5  1  0
  5  6  1  0
  5  7  2  0
  7  8  1  0
  8  9  2  0
  9 10  1  0
 10 11  1  0
 10 12  1  0
 12 13  2  0
 13 14  1  0
 14 15  2  0
 15 16  1  0
 15 17  1  0
 17 18  1  0
 17 19  2  0
 19 20  1  0
 20 21  1  0
 21 22  1  0
 21 23  1  0
 21 24  1  0
 19 25  1  0
 25 26  1  0
 25 27  2  0
 27 28  1  0
 12 29  1  0
  7 30  1  0
 30 31  1  0
 30 32  2  0
 32 33  1  0
 32  2  1  0
 29  8  1  0
 27 14  1  0
M  END
>  <UniqueID>  (21) 
21

>  <SMILES>  (21) 
CSc1ccc(/N=c2/[nH]nc(-c3ccccc3)o2)cc1

>  <Energy>  (21) 
72.3106461264796

>  <Genealogy>  (21) 
CSc1ccc(/N=c2/[nH]nc(-c3ccccc3)o2)cc1 (cis-trans isomerization)
CSc1ccc(/N=c2/[nH]nc(-c3ccccc3)o2)cc1 (3D coordinates assigned)
CSc1ccc(/N=c2/[nH]nc(-c3ccccc3)o2)cc1 (optimized conformer: 72.3106461264796 kcal/mol)

>  <smiles>  (21) 
CSc1ccc(N=c2[nH]nc(-c3ccccc3)o2)cc1

>  <score_type>  (21) 
oracle

>  <origin>  (21) 
adgpu

>  <m_score__min__energy>  (21) 
-7.9500000000000002

>  <m_primary>  (21) 
energy

$$$$
21:0
     RDKit          3D

 49 52  0  0  0  0  0  0  0  0999 V2000
   -1.0170   26.8130  -28.6260 H   0  0  0  0  0  0  0  0  0  0  0  0
   -1.5740   25.9960  -28.9660 N   0  0  0  0  0  0  0  0  0  0  0  0
   -1.1340   24.7830  -28.8600 C   0  0  0  0  0  0  0  0  0  0  0  0
    0.0840   24.5670  -28.2900 N   0  0  0  0  0  0  0  0  0  0  0  0
    0.6060   23.3210  -28.1460 C   0  0  0  0  0  0  0  0  0  0  0  0
    1.5929   23.1887  -27.6785 H   0  0  0  0  0  0  0  0  0  0  0  0
   -0.1080   22.2120  -28.5900 C   0  0  0  0  0  0  0  0  0  0  0  0
    0.3108   21.2010  -28.4780 H   0  0  0  0  0  0  0  0  0  0  0  0
   -1.3590   22.3940  -29.1780 C   0  0  0  0  0  0  0  0  0  0  0  0
   -1.9284   21.5206  -29.5287 H   0  0  0  0  0  0  0  0  0  0  0  0
   -1.9000   23.6840  -29.3270 C   0  0  0  0  0  0  0  0  0  0  0  0
   -3.2370   23.8450  -29.9600 C   0  0  0  0  0  0  0  0  0  0  0  0
   -4.1030   22.8200  -30.1170 N   0  0  0  0  0  0  0  0  0  0  0  0
   -5.1720   23.3720  -30.7170 C   0  0  0  0  0  0  0  0  0  0  0  0
   -6.3920   22.6120  -31.0900 C   0  0  0  0  0  0  0  0  0  0  0  0
   -7.6370   22.9830  -30.5530 C   0  0  0  0  0  0  0  0  0  0  0  0
   -7.6990   23.8321  -29.8565 H   0  0  0  0  0  0  0  0  0  0  0  0
   -8.7960   22.2830  -30.8960 C   0  0  0  0  0  0  0  0  0  0  0  0
   -9.7646   22.5831  -30.4698 H   0  0  0  0  0  0  0  0  0  0  0  0
   -8.7280   21.2040  -31.7780 C   0  0  0  0  0  0  0  0  0  0  0  0
   -9.6441   20.6583  -32.0482 H   0  0  0  0  0  0  0  0  0  0  0  0
   -7.4960   20.8130  -32.3210 C   0  0  0  0  0  0  0  0  0  0  0  0
   -7.4240   19.6620  -33.2990 C   0  0  0  0  0  0  0  0  0  0  0  0
   -7.4817   18.7168  -32.7393 H   0  0  0  0  0  0  0  0  0  0  0  0
   -8.2643   19.7615  -34.0018 H   0  0  0  0  0  0  0  0  0  0  0  0
   -6.1770   19.6760  -34.0790 N   0  0  0  0  0  0  0  0  0  0  0  0
   -6.4020   19.5230  -35.0900 H   0  0  0  0  0  0  0  0  0  0  0  0
   -5.2420   18.6340  -33.6370 C   0  0  0  0  0  0  0  0  0  0  0  0
   -5.6006   18.1964  -32.6936 H   0  0  0  0  0  0  0  0  0  0  0  0
   -5.1786   17.8497  -34.4057 H   0  0  0  0  0  0  0  0  0  0  0  0
   -3.8810   19.2360  -33.4240 C   0  0  0  0  0  0  0  0  0  0  0  0
   -3.7250   20.6290  -33.3610 C   0  0  0  0  0  0  0  0  0  0  0  0
   -4.5982   21.2843  -33.4956 H   0  0  0  0  0  0  0  0  0  0  0  0
   -2.4650   21.1880  -33.1280 C   0  0  0  0  0  0  0  0  0  0  0  0
   -2.3493   22.2816  -33.1041 H   0  0  0  0  0  0  0  0  0  0  0  0
   -1.3450   20.3640  -32.9240 C   0  0  0  0  0  0  0  0  0  0  0  0
    0.0210   20.9670  -32.7210 C   0  0  0  0  0  0  0  0  0  0  0  0
    0.9420   19.9900  -32.3810 F   0  0  0  0  0  0  0  0  0  0  0  0
    0.4590   21.5900  -33.8770 F   0  0  0  0  0  0  0  0  0  0  0  0
   -0.0400   21.8990  -31.7020 F   0  0  0  0  0  0  0  0  0  0  0  0
   -1.5040   18.9690  -32.9960 C   0  0  0  0  0  0  0  0  0  0  0  0
   -0.6308   18.3124  -32.8675 H   0  0  0  0  0  0  0  0  0  0  0  0
   -2.7650   18.4100  -33.2300 C   0  0  0  0  0  0  0  0  0  0  0  0
   -2.8814   17.3166  -33.2619 H   0  0  0  0  0  0  0  0  0  0  0  0
   -6.3330   21.5210  -31.9780 C   0  0  0  0  0  0  0  0  0  0  0  0
   -5.3660   21.2202  -32.4074 H   0  0  0  0  0  0  0  0  0  0  0  0
   -4.9310   24.7180  -30.9120 C   0  0  0  0  0  0  0  0  0  0  0  0
   -5.6252   25.4299  -31.3824 H   0  0  0  0  0  0  0  0  0  0  0  0
   -3.7110   25.0170  -30.4340 N   0  0  0  0  0  0  0  0  0  0  0  0
  1  2  1  0
  2  3  2  0
  3  4  1  0
  4  5  1  0
  5  6  1  0
  5  7  2  0
  7  8  1  0
  7  9  1  0
  9 10  1  0
  9 11  2  0
 11 12  1  0
 12 13  2  0
 13 14  1  0
 14 15  1  0
 15 16  2  0
 16 17  1  0
 16 18  1  0
 18 19  1  0
 18 20  2  0
 20 21  1  0
 20 22  1  0
 22 23  1  0
 23 24  1  0
 23 25  1  0
 23 26  1  0
 26 27  1  0
 26 28  1  0
 28 29  1  0
 28 30  1  0
 28 31  1  0
 31 32  2  0
 32 33  1  0
 32 34  1  0
 34 35  1  0
 34 36  2  0
 36 37  1  0
 37 38  1  0
 37 39  1  0
 37 40  1  0
 36 41  1  0
 41 42  1  0
 41 43  2  0
 43 44  1  0
 22 45  2  0
 45 46  1  0
 14 47  2  0
 47 48  1  0
 47 49  1  0
 11  3  1  0
 49 12  1  0
 45 15  1  0
 43 31  1  0
M  CHG  2   4  -1  49  -1
M  END
>  <UniqueID>  (22) 
22

>  <SMILES>  (22) 
[H]/N=c1\[n-]cccc1-c1nc(-c2cccc(CNCc3ccc(C(F)(F)F)cc3)c2)c[n-]1

>  <Energy>  (22) 
85.62012800491523

>  <Genealogy>  (22) 
N=c1[n-]cccc1-c1nc(-c2cccc(CNCc3ccc(C(F)(F)F)cc3)c2)c[n-]1 (protonated)
[H]/N=c1\[n-]cccc1-c1nc(-c2cccc(CNCc3ccc(C(F)(F)F)cc3)c2)c[n-]1 (cis-trans isomerization)
[H]/N=c1\[n-]cccc1-c1nc(-c2cccc(CNCc3ccc(C(F)(F)F)cc3)c2)c[n-]1 (3D coordinates assigned)
[H]/N=c1\[n-]cccc1-c1nc(-c2cccc(CNCc3ccc(C(F)(F)F)cc3)c2)c[n-]1 (optimized conformer: 85.62012800491523 kcal/mol)

>  <smiles>  (22) 
N=c1[nH]cccc1-c1nc(-c2cccc(CNCc3ccc(C(F)(F)F)cc3)c2)c[nH]1

>  <score_type>  (22) 
oracle

>  <origin>  (22) 
adgpu

>  <m_score__min__energy>  (22) 
-12.59

>  <m_primary>  (22) 
energy

$$$$
22:0
     RDKit          3D

 37 40  0  0  0  0  0  0  0  0999 V2000
   -1.0040   25.4060  -29.2840 O   0  0  0  0  0  0  0  0  0  0  0  0
   -2.2860   24.6610  -29.0470 S   0  0  0  0  0  0  0  0  0  0  0  0
   -2.7490   24.9180  -27.6400 O   0  0  0  0  0  0  0  0  0  0  0  0
   -3.4940   25.2310  -30.1570 N   0  0  0  0  0  0  0  0  0  0  0  0
   -4.7190   24.5520  -30.4700 C   0  0  0  0  0  0  0  0  0  0  0  0
   -5.9310   25.1480  -30.1030 C   0  0  0  0  0  0  0  0  0  0  0  0
   -7.1470   24.5390  -30.4210 C   0  0  0  0  0  0  0  0  0  0  0  0
   -7.1650   23.3270  -31.1200 C   0  0  0  0  0  0  0  0  0  0  0  0
   -8.3510   22.7610  -31.4650 N   0  0  0  0  0  0  0  0  0  0  0  0
   -8.3940   21.6050  -32.1710 C   0  0  0  0  0  0  0  0  0  0  0  0
   -7.2440   20.9880  -32.5450 N   0  0  0  0  0  0  0  0  0  0  0  0
   -6.0250   21.4940  -32.2160 C   0  0  0  0  0  0  0  0  0  0  0  0
   -4.8210   20.7730  -32.6780 C   0  0  0  0  0  0  0  0  0  0  0  0
   -3.7190   21.4760  -33.1930 C   0  0  0  0  0  0  0  0  0  0  0  0
   -2.5960   20.7820  -33.6530 C   0  0  0  0  0  0  0  0  0  0  0  0
   -2.5610   19.3860  -33.5920 C   0  0  0  0  0  0  0  0  0  0  0  0
   -3.6470   18.6820  -33.0630 C   0  0  0  0  0  0  0  0  0  0  0  0
   -4.7730   19.3730  -32.6020 C   0  0  0  0  0  0  0  0  0  0  0  0
   -5.9520   22.7020  -31.4850 C   0  0  0  0  0  0  0  0  0  0  0  0
   -4.7340   23.3210  -31.1480 C   0  0  0  0  0  0  0  0  0  0  0  0
   -1.9990   22.9450  -29.2840 C   0  0  0  0  0  0  0  0  0  0  0  0
   -2.6470   21.9150  -28.6190 C   0  0  0  0  0  0  0  0  0  0  0  0
   -2.2810   20.6480  -29.0880 C   0  0  0  0  0  0  0  0  0  0  0  0
   -1.3520   20.6840  -30.1200 C   0  0  0  0  0  0  0  0  0  0  0  0
   -0.9900   22.2930  -30.4560 S   0  0  0  0  0  0  0  0  0  0  0  0
   -5.9258   26.1043  -29.5594 H   0  0  0  0  0  0  0  0  0  0  0  0
   -8.0931   25.0134  -30.1211 H   0  0  0  0  0  0  0  0  0  0  0  0
   -9.3649   21.1647  -32.4422 H   0  0  0  0  0  0  0  0  0  0  0  0
   -3.7399   22.5750  -33.2344 H   0  0  0  0  0  0  0  0  0  0  0  0
   -1.7386   21.3354  -34.0636 H   0  0  0  0  0  0  0  0  0  0  0  0
   -1.6791   18.8413  -33.9602 H   0  0  0  0  0  0  0  0  0  0  0  0
   -3.6162   17.5837  -33.0092 H   0  0  0  0  0  0  0  0  0  0  0  0
   -5.6227   18.8171  -32.1789 H   0  0  0  0  0  0  0  0  0  0  0  0
   -3.7841   22.8365  -31.4179 H   0  0  0  0  0  0  0  0  0  0  0  0
   -3.3725   22.0767  -27.8081 H   0  0  0  0  0  0  0  0  0  0  0  0
   -2.6902   19.7127  -28.6783 H   0  0  0  0  0  0  0  0  0  0  0  0
   -0.9250   19.8087  -30.6314 H   0  0  0  0  0  0  0  0  0  0  0  0
  1  2  2  0
  2  3  2  0
  2  4  1  0
  4  5  1  0
  5  6  2  0
  6  7  1  0
  7  8  2  0
  8  9  1  0
  9 10  2  0
 10 11  1  0
 11 12  2  0
 12 13  1  0
 13 14  2  0
 14 15  1  0
 15 16  2  0
 16 17  1  0
 17 18  2  0
 12 19  1  0
 19 20  2  0
  2 21  1  0
 21 22  2  0
 22 23  1  0
 23 24  2  0
 24 25  1  0
 20  5  1  0
 25 21  1  0
 19  8  1  0
 18 13  1  0
  6 26  1  0
  7 27  1  0
 10 28  1  0
 14 29  1  0
 15 30  1  0
 16 31  1  0
 17 32  1  0
 18 33  1  0
 20 34  1  0
 22 35  1  0
 23 36  1  0
 24 37  1  0
M  CHG  1   4  -1
M  END
>  <UniqueID>  (23) 
23

>  <SMILES>  (23) 
O=S(=O)([N-]c1ccc2ncnc(-c3ccccc3)c2c1)c1cccs1

>  <Energy>  (23) 
80.30677656006169

>  <Genealogy>  (23) 
O=S(=O)([N-]c1ccc2ncnc(-c3ccccc3)c2c1)c1cccs1 (protonated)
O=S(=O)([N-]c1ccc2ncnc(-c3ccccc3)c2c1)c1cccs1 (3D coordinates assigned)
O=S(=O)([N-]c1ccc2ncnc(-c3ccccc3)c2c1)c1cccs1 (optimized conformer: 80.30677656006169 kcal/mol)

>  <smiles>  (23) 
O=S(=O)(Nc1ccc2ncnc(-c3ccccc3)c2c1)c1cccs1

>  <score_type>  (23) 
oracle

>  <origin>  (23) 
adgpu

>  <m_score__min__energy>  (23) 
-10.1

>  <m_primary>  (23) 
energy

$$$$
23:0
     RDKit          3D

 24 24  0  0  0  0  0  0  0  0999 V2000
   -8.9070   22.1490  -31.2080 C   0  0  0  0  0  0  0  0  0  0  0  0
   -8.0780   23.1810  -31.9690 C   0  0  0  0  0  0  0  0  0  0  0  0
   -6.6090   23.0330  -31.6480 C   0  0  0  0  0  0  0  0  0  0  0  0
   -5.9170   24.1280  -31.1080 C   0  0  0  0  0  0  0  0  0  0  0  0
   -4.5480   24.0500  -30.8160 C   0  0  0  0  0  0  0  0  0  0  0  0
   -3.8890   25.1960  -30.2590 N   0  0  0  0  0  0  0  0  0  0  0  0
   -3.8480   22.8510  -31.0780 C   0  0  0  0  0  0  0  0  0  0  0  0
   -2.3790   22.7210  -30.7810 C   0  0  0  0  0  0  0  0  0  0  0  0
   -4.5360   21.7600  -31.6330 C   0  0  0  0  0  0  0  0  0  0  0  0
   -5.9020   21.8430  -31.9230 C   0  0  0  0  0  0  0  0  0  0  0  0
   -6.7030   20.4080  -32.6530 S   0  0  0  0  0  0  0  0  0  0  0  0
   -8.7824   22.3042  -30.1262 H   0  0  0  0  0  0  0  0  0  0  0  0
   -9.9681   22.2622  -31.4748 H   0  0  0  0  0  0  0  0  0  0  0  0
   -8.5677   21.1372  -31.4748 H   0  0  0  0  0  0  0  0  0  0  0  0
   -8.2271   23.0374  -33.0493 H   0  0  0  0  0  0  0  0  0  0  0  0
   -8.4048   24.1871  -31.6672 H   0  0  0  0  0  0  0  0  0  0  0  0
   -6.4587   25.0647  -30.9102 H   0  0  0  0  0  0  0  0  0  0  0  0
   -4.1920   25.5850  -29.3380 H   0  0  0  0  0  0  0  0  0  0  0  0
   -3.1000   25.6760  -30.7440 H   0  0  0  0  0  0  0  0  0  0  0  0
   -2.2249   22.7074  -29.6919 H   0  0  0  0  0  0  0  0  0  0  0  0
   -1.9981   21.7856  -31.2169 H   0  0  0  0  0  0  0  0  0  0  0  0
   -1.8398   23.5749  -31.2169 H   0  0  0  0  0  0  0  0  0  0  0  0
   -3.9930   20.8266  -31.8428 H   0  0  0  0  0  0  0  0  0  0  0  0
   -6.1250   20.6590  -33.9110 H   0  0  0  0  0  0  0  0  0  0  0  0
  1  2  1  0
  2  3  1  0
  3  4  2  0
  4  5  1  0
  5  6  1  0
  5  7  2  0
  7  8  1  0
  7  9  1  0
  9 10  2  0
 10 11  1  0
 10  3  1  0
  1 12  1  0
  1 13  1  0
  1 14  1  0
  2 15  1  0
  2 16  1  0
  4 17  1  0
  6 18  1  0
  6 19  1  0
  8 20  1  0
  8 21  1  0
  8 22  1  0
  9 23  1  0
 11 24  1  0
M  END
>  <UniqueID>  (24) 
24

>  <SMILES>  (24) 
CCc1cc(N)c(C)cc1S

>  <Energy>  (24) 
19.141074075553956

>  <Genealogy>  (24) 
CCc1cc(N)c(C)cc1S (3D coordinates assigned)
CCc1cc(N)c(C)cc1S (optimized conformer: 19.141074075553956 kcal/mol)

>  <smiles>  (24) 
CCc1cc(N)c(C)cc1S

>  <score_type>  (24) 
oracle

>  <origin>  (24) 
adgpu

>  <m_score__min__energy>  (24) 
-5.6500000000000004

>  <m_primary>  (24) 
energy

$$$$
24:0
     RDKit          3D

 38 40  0  0  0  0  0  0  0  0999 V2000
   -5.6440   20.5500  -31.9850 O   0  0  0  0  0  0  0  0  0  0  0  0
   -6.8890   20.7460  -31.9800 C   0  0  0  0  0  0  0  0  0  0  0  0
   -7.4060   21.9480  -31.4530 C   0  0  0  0  0  0  0  0  0  0  0  0
   -6.5220   22.9840  -30.8610 C   0  0  0  0  0  0  0  0  0  0  0  0
   -6.4780   24.2820  -31.4020 C   0  0  0  0  0  0  0  0  0  0  0  0
   -5.6370   25.2500  -30.8450 C   0  0  0  0  0  0  0  0  0  0  0  0
   -4.8320   24.9340  -29.7490 C   0  0  0  0  0  0  0  0  0  0  0  0
   -4.8620   23.6450  -29.2060 C   0  0  0  0  0  0  0  0  0  0  0  0
   -3.8490   23.2480  -27.8310 Cl  0  0  0  0  0  0  0  0  0  0  0  0
   -5.7020   22.6720  -29.7610 C   0  0  0  0  0  0  0  0  0  0  0  0
   -8.7900   22.1610  -31.5000 C   0  0  0  0  0  0  0  0  0  0  0  0
   -9.6160   21.2230  -32.0300 N   0  0  0  0  0  0  0  0  0  0  0  0
   -9.1400   20.0530  -32.5300 C   0  0  0  0  0  0  0  0  0  0  0  0
   -7.7630   19.7750  -32.5170 C   0  0  0  0  0  0  0  0  0  0  0  0
   -7.2620   18.4610  -33.1060 C   0  0  0  0  0  0  0  0  0  0  0  0
   -6.8760   17.4240  -32.0110 C   0  0  0  0  0  0  0  0  0  0  0  0
   -5.4060   16.9860  -32.0820 C   0  0  0  0  0  0  0  0  0  0  0  0
   -5.0300   16.4870  -33.4860 C   0  0  0  0  0  0  0  0  0  0  0  0
   -5.5530   17.3850  -34.6300 C   0  0  0  0  0  0  0  0  0  0  0  0
   -6.1380   18.7130  -34.1330 C   0  0  0  0  0  0  0  0  0  0  0  0
   -7.1081   24.5363  -32.2670 H   0  0  0  0  0  0  0  0  0  0  0  0
   -5.6095   26.2636  -31.2715 H   0  0  0  0  0  0  0  0  0  0  0  0
   -4.1736   25.6992  -29.3120 H   0  0  0  0  0  0  0  0  0  0  0  0
   -5.7210   21.6581  -29.3347 H   0  0  0  0  0  0  0  0  0  0  0  0
   -9.2111   23.0968  -31.1038 H   0  0  0  0  0  0  0  0  0  0  0  0
  -10.6450   21.4040  -32.0500 H   0  0  0  0  0  0  0  0  0  0  0  0
   -9.8401   19.3155  -32.9495 H   0  0  0  0  0  0  0  0  0  0  0  0
   -8.0968   17.9983  -33.6528 H   0  0  0  0  0  0  0  0  0  0  0  0
   -7.0593   17.8736  -31.0240 H   0  0  0  0  0  0  0  0  0  0  0  0
   -7.4918   16.5281  -32.1786 H   0  0  0  0  0  0  0  0  0  0  0  0
   -4.7657   17.8426  -31.8246 H   0  0  0  0  0  0  0  0  0  0  0  0
   -5.2597   16.1581  -31.3727 H   0  0  0  0  0  0  0  0  0  0  0  0
   -3.9331   16.4413  -33.5552 H   0  0  0  0  0  0  0  0  0  0  0  0
   -5.5022   15.5015  -33.6120 H   0  0  0  0  0  0  0  0  0  0  0  0
   -4.7187   17.6037  -35.3127 H   0  0  0  0  0  0  0  0  0  0  0  0
   -6.3637   16.8371  -35.1326 H   0  0  0  0  0  0  0  0  0  0  0  0
   -5.3408   19.3042  -33.6587 H   0  0  0  0  0  0  0  0  0  0  0  0
   -6.5575   19.2589  -34.9910 H   0  0  0  0  0  0  0  0  0  0  0  0
  1  2  2  0
  2  3  1  0
  3  4  1  0
  4  5  2  0
  5  6  1  0
  6  7  2  0
  7  8  1  0
  8  9  1  0
  8 10  2  0
  3 11  2  0
 11 12  1  0
 12 13  1  0
 13 14  2  0
 14 15  1  0
 15 16  1  0
 16 17  1  0
 17 18  1  0
 18 19  1  0
 19 20  1  0
 14  2  1  0
 20 15  1  0
 10  4  1  0
  5 21  1  0
  6 22  1  0
  7 23  1  0
 10 24  1  0
 11 25  1  0
 12 26  1  0
 13 27  1  0
 15 28  1  0
 16 29  1  0
 16 30  1  0
 17 31  1  0
 17 32  1  0
 18 33  1  0
 18 34  1  0
 19 35  1  0
 19 36  1  0
 20 37  1  0
 20 38  1  0
M  END
>  <UniqueID>  (25) 
25

>  <SMILES>  (25) 
O=c1c(-c2cccc(Cl)c2)c[nH]cc1C1CCCCC1

>  <Energy>  (25) 
51.580250806295155

>  <Genealogy>  (25) 
O=c1c(-c2cccc(Cl)c2)c[nH]cc1C1CCCCC1 (3D coordinates assigned)
O=c1c(-c2cccc(Cl)c2)c[nH]cc1C1CCCCC1 (nonaromatic ring conformer: 51.580250806295155 kcal/mol)

>  <smiles>  (25) 
O=c1c(-c2cccc(Cl)c2)c[nH]cc1C1CCCCC1

>  <score_type>  (25) 
oracle

>  <origin>  (25) 
adgpu

>  <m_score__min__energy>  (25) 
-8.3599999999999994

>  <m_primary>  (25) 
energy

$$$$
25:0
     RDKit          3D

 52 55  0  0  0  0  0  0  0  0999 V2000
   -1.3838   19.3531  -34.7742 H   0  0  0  0  0  0  0  0  0  0  0  0
   -1.9930   19.7200  -33.9350 C   0  0  0  0  0  0  0  0  0  0  0  0
   -1.4180   20.5450  -32.9650 C   0  0  0  0  0  0  0  0  0  0  0  0
   -0.3523   20.8092  -33.0320 H   0  0  0  0  0  0  0  0  0  0  0  0
   -2.1970   21.0390  -31.9030 C   0  0  0  0  0  0  0  0  0  0  0  0
   -1.6380   21.8650  -30.8670 N   0  0  0  0  0  0  0  0  0  0  0  0
   -2.1240   22.9850  -30.4100 C   0  0  0  0  0  0  0  0  0  0  0  0
   -3.3250   23.4540  -30.8370 N   0  0  0  0  0  0  0  0  0  0  0  0
   -3.8380   24.5990  -30.3270 C   0  0  0  0  0  0  0  0  0  0  0  0
   -5.0770   25.0580  -30.7810 O   0  0  0  0  0  0  0  0  0  0  0  0
   -6.1650   25.3300  -29.9060 C   0  0  0  0  0  0  0  0  0  0  0  0
   -5.8265   25.2454  -28.8628 H   0  0  0  0  0  0  0  0  0  0  0  0
   -6.5371   26.3488  -30.0893 H   0  0  0  0  0  0  0  0  0  0  0  0
   -6.9727   24.6061  -30.0893 H   0  0  0  0  0  0  0  0  0  0  0  0
   -3.1440   25.2840  -29.3830 N   0  0  0  0  0  0  0  0  0  0  0  0
   -1.9390   24.8360  -28.9480 C   0  0  0  0  0  0  0  0  0  0  0  0
   -1.3140   25.5220  -28.0330 N   0  0  0  0  0  0  0  0  0  0  0  0
    0.0040   25.2820  -27.5160 C   0  0  0  0  0  0  0  0  0  0  0  0
    0.3280   24.0060  -27.0410 C   0  0  0  0  0  0  0  0  0  0  0  0
   -0.4100   23.1931  -27.1090 H   0  0  0  0  0  0  0  0  0  0  0  0
    1.5860   23.7590  -26.4800 C   0  0  0  0  0  0  0  0  0  0  0  0
    1.8411   22.7495  -26.1252 H   0  0  0  0  0  0  0  0  0  0  0  0
    2.5210   24.7970  -26.3700 C   0  0  0  0  0  0  0  0  0  0  0  0
    3.8150   24.5440  -25.7920 C   0  0  0  0  0  0  0  0  0  0  0  0
    4.8550   24.3410  -25.3270 N   0  0  0  0  0  0  0  0  0  0  0  0
    2.1880   26.0840  -26.8110 C   0  0  0  0  0  0  0  0  0  0  0  0
    2.9167   26.9027  -26.7172 H   0  0  0  0  0  0  0  0  0  0  0  0
    0.9310   26.3290  -27.3700 C   0  0  0  0  0  0  0  0  0  0  0  0
    0.6656   27.3451  -27.6972 H   0  0  0  0  0  0  0  0  0  0  0  0
   -1.4380   23.6680  -29.4520 N   0  0  0  0  0  0  0  0  0  0  0  0
   -0.5470   23.2600  -29.0930 H   0  0  0  0  0  0  0  0  0  0  0  0
   -3.5380   20.6480  -31.7980 C   0  0  0  0  0  0  0  0  0  0  0  0
   -4.1438   21.0017  -30.9507 H   0  0  0  0  0  0  0  0  0  0  0  0
   -4.1170   19.8080  -32.7650 C   0  0  0  0  0  0  0  0  0  0  0  0
   -5.5460   19.4300  -32.6680 C   0  0  0  0  0  0  0  0  0  0  0  0
   -5.8720   18.0660  -32.5750 C   0  0  0  0  0  0  0  0  0  0  0  0
   -5.0689   17.3157  -32.5294 H   0  0  0  0  0  0  0  0  0  0  0  0
   -7.2040   17.6550  -32.5400 C   0  0  0  0  0  0  0  0  0  0  0  0
   -7.4467   16.5846  -32.4673 H   0  0  0  0  0  0  0  0  0  0  0  0
   -8.2280   18.5980  -32.5970 C   0  0  0  0  0  0  0  0  0  0  0  0
   -9.2780   18.2705  -32.5798 H   0  0  0  0  0  0  0  0  0  0  0  0
   -7.9230   19.9590  -32.6760 C   0  0  0  0  0  0  0  0  0  0  0  0
   -8.7377   20.6969  -32.7184 H   0  0  0  0  0  0  0  0  0  0  0  0
   -6.5840   20.3980  -32.7020 C   0  0  0  0  0  0  0  0  0  0  0  0
   -6.2760   21.8090  -32.7130 N   0  0  0  0  0  0  0  0  0  0  0  0
   -5.4740   22.1620  -33.2810 H   0  0  0  0  0  0  0  0  0  0  0  0
   -7.0430   22.8030  -31.9700 C   0  0  0  0  0  0  0  0  0  0  0  0
   -6.9131   22.6347  -30.8907 H   0  0  0  0  0  0  0  0  0  0  0  0
   -6.6860   23.8106  -32.2295 H   0  0  0  0  0  0  0  0  0  0  0  0
   -8.1082   22.7132  -32.2295 H   0  0  0  0  0  0  0  0  0  0  0  0
   -3.3390   19.3600  -33.8420 C   0  0  0  0  0  0  0  0  0  0  0  0
   -3.7906   18.7226  -34.6165 H   0  0  0  0  0  0  0  0  0  0  0  0
  1  2  1  0
  2  3  2  0
  3  4  1  0
  3  5  1  0
  5  6  1  0
  6  7  2  0
  7  8  1  0
  8  9  2  0
  9 10  1  0
 10 11  1  0
 11 12  1  0
 11 13  1  0
 11 14  1  0
  9 15  1  0
 15 16  1  0
 16 17  2  0
 17 18  1  0
 18 19  2  0
 19 20  1  0
 19 21  1  0
 21 22  1  0
 21 23  2  0
 23 24  1  0
 24 25  3  0
 23 26  1  0
 26 27  1  0
 26 28  2  0
 28 29  1  0
 16 30  1  0
 30 31  1  0
  5 32  2  0
 32 33  1  0
 32 34  1  0
 34 35  1  0
 35 36  2  0
 36 37  1  0
 36 38  1  0
 38 39  1  0
 38 40  2  0
 40 41  1  0
 40 42  1  0
 42 43  1  0
 42 44  2  0
 44 45  1  0
 45 46  1  0
 45 47  1  0
 47 48  1  0
 47 49  1  0
 47 50  1  0
 34 51  2  0
 51 52  1  0
 51  2  1  0
 30  7  1  0
 44 35  1  0
 28 18  1  0
M  CHG  1  15  -1
M  END
>  <UniqueID>  (26) 
26

>  <SMILES>  (26) 
CNc1ccccc1-c1cccc(/N=c2\nc(OC)[n-]/c(=N/c3ccc(C#N)cc3)[nH]2)c1

>  <Energy>  (26) 
76.53173356556991

>  <Genealogy>  (26) 
CNc1ccccc1-c1cccc(N=c2nc(OC)[n-]c(=Nc3ccc(C#N)cc3)[nH]2)c1 (protonated)
CNc1ccccc1-c1cccc(/N=c2\nc(OC)[n-]/c(=N/c3ccc(C#N)cc3)[nH]2)c1 (cis-trans isomerization)
CNc1ccccc1-c1cccc(/N=c2\nc(OC)[n-]/c(=N/c3ccc(C#N)cc3)[nH]2)c1 (3D coordinates assigned)
CNc1ccccc1-c1cccc(/N=c2\nc(OC)[n-]/c(=N/c3ccc(C#N)cc3)[nH]2)c1 (optimized conformer: 76.53173356556991 kcal/mol)

>  <smiles>  (26) 
CNc1ccccc1-c1cccc(N=c2nc(OC)[nH]c(=Nc3ccc(C#N)cc3)[nH]2)c1

>  <score_type>  (26) 
oracle

>  <origin>  (26) 
adgpu

>  <m_score__min__energy>  (26) 
-10.289999999999999

>  <m_primary>  (26) 
energy

$$$$
26:0
     RDKit          3D

 40 42  0  0  0  0  0  0  0  0999 V2000
    1.9550   19.7610  -33.7800 C   0  0  0  0  0  0  0  0  0  0  0  0
    1.4220   19.8730  -32.4650 O   0  0  0  0  0  0  0  0  0  0  0  0
    0.1830   20.4540  -32.1590 C   0  0  0  0  0  0  0  0  0  0  0  0
    0.0050   21.3190  -31.0660 C   0  0  0  0  0  0  0  0  0  0  0  0
   -1.2500   21.8750  -30.8040 C   0  0  0  0  0  0  0  0  0  0  0  0
   -2.3480   21.5870  -31.6330 C   0  0  0  0  0  0  0  0  0  0  0  0
   -3.6470   22.1360  -31.3420 N   0  0  0  0  0  0  0  0  0  0  0  0
   -4.8290   21.3350  -31.2000 C   0  0  0  0  0  0  0  0  0  0  0  0
   -4.7330   20.1250  -30.8610 O   0  0  0  0  0  0  0  0  0  0  0  0
   -6.1670   21.9320  -31.3570 C   0  0  0  0  0  0  0  0  0  0  0  0
   -7.4410   21.1680  -32.1470 S   0  0  0  0  0  0  0  0  0  0  0  0
   -8.5690   22.3930  -31.9360 C   0  0  0  0  0  0  0  0  0  0  0  0
   -7.9560   23.4330  -31.2520 C   0  0  0  0  0  0  0  0  0  0  0  0
   -6.6120   23.1890  -30.9310 C   0  0  0  0  0  0  0  0  0  0  0  0
   -5.6040   24.4240  -30.1790 S   0  0  0  0  0  0  0  0  0  0  0  0
   -6.4530   25.3280  -29.3300 O   0  0  0  0  0  0  0  0  0  0  0  0
   -4.9020   25.2190  -31.2450 O   0  0  0  0  0  0  0  0  0  0  0  0
   -4.4260   23.6550  -29.1670 N   0  0  0  0  0  0  0  0  0  0  0  0
   -3.2550   24.1650  -28.9530 C   0  0  0  0  0  0  0  0  0  0  0  0
   -2.8230   25.2950  -29.4620 O   0  0  0  0  0  0  0  0  0  0  0  0
   -1.6050   25.5390  -29.0660 N   0  0  0  0  0  0  0  0  0  0  0  0
   -1.2410   24.5200  -28.2580 C   0  0  0  0  0  0  0  0  0  0  0  0
    0.1060   24.3940  -27.6270 C   0  0  0  0  0  0  0  0  0  0  0  0
   -2.2750   23.6110  -28.1670 C   0  0  0  0  0  0  0  0  0  0  0  0
   -2.3240   22.1000  -27.2750 Cl  0  0  0  0  0  0  0  0  0  0  0  0
   -2.1710   20.7090  -32.7210 C   0  0  0  0  0  0  0  0  0  0  0  0
   -3.5000   20.3040  -33.8020 Cl  0  0  0  0  0  0  0  0  0  0  0  0
   -0.9110   20.1560  -32.9780 C   0  0  0  0  0  0  0  0  0  0  0  0
    3.0300   19.5351  -33.7219 H   0  0  0  0  0  0  0  0  0  0  0  0
    1.4388   18.9517  -34.3172 H   0  0  0  0  0  0  0  0  0  0  0  0
    1.8082   20.7096  -34.3172 H   0  0  0  0  0  0  0  0  0  0  0  0
    0.8574   21.5596  -30.4137 H   0  0  0  0  0  0  0  0  0  0  0  0
   -1.3799   22.5444  -29.9408 H   0  0  0  0  0  0  0  0  0  0  0  0
   -3.7330   23.1590  -31.1570 H   0  0  0  0  0  0  0  0  0  0  0  0
   -9.6135   22.3745  -32.2804 H   0  0  0  0  0  0  0  0  0  0  0  0
   -8.4766   24.3646  -30.9855 H   0  0  0  0  0  0  0  0  0  0  0  0
    0.0004   24.4039  -26.5321 H   0  0  0  0  0  0  0  0  0  0  0  0
    0.5714   23.4484  -27.9420 H   0  0  0  0  0  0  0  0  0  0  0  0
    0.7387   25.2369  -27.9420 H   0  0  0  0  0  0  0  0  0  0  0  0
   -0.7796   19.4787  -33.8347 H   0  0  0  0  0  0  0  0  0  0  0  0
  1  2  1  0
  2  3  1  0
  3  4  2  0
  4  5  1  0
  5  6  2  0
  6  7  1  0
  7  8  1  0
  8  9  2  0
  8 10  1  0
 10 11  1  0
 11 12  1  0
 12 13  2  0
 13 14  1  0
 14 15  1  0
 15 16  2  0
 15 17  2  0
 15 18  1  0
 18 19  2  3
 19 20  1  0
 20 21  1  0
 21 22  1  0
 22 23  1  0
 22 24  2  0
 24 25  1  0
  6 26  1  0
 26 27  1  0
 26 28  2  0
 28  3  1  0
 14 10  2  0
 24 19  1  0
  1 29  1  0
  1 30  1  0
  1 31  1  0
  4 32  1  0
  5 33  1  0
  7 34  1  0
 12 35  1  0
 13 36  1  0
 23 37  1  0
 23 38  1  0
 23 39  1  0
 28 40  1  0
M  CHG  1  21  -1
M  END
>  <UniqueID>  (27) 
27

>  <SMILES>  (27) 
COc1ccc(NC(=O)c2sccc2S(=O)(=O)N=c2o[n-]c(C)c2Cl)c(Cl)c1

>  <Energy>  (27) 
109.01005372038138

>  <Genealogy>  (27) 
COc1ccc(NC(=O)c2sccc2S(=O)(=O)N=c2o[n-]c(C)c2Cl)c(Cl)c1 (protonated)
COc1ccc(NC(=O)c2sccc2S(=O)(=O)N=c2o[n-]c(C)c2Cl)c(Cl)c1 (3D coordinates assigned)
COc1ccc(NC(=O)c2sccc2S(=O)(=O)N=c2o[n-]c(C)c2Cl)c(Cl)c1 (optimized conformer: 109.01005372038138 kcal/mol)

>  <smiles>  (27) 
COc1ccc(NC(=O)c2sccc2S(=O)(=O)N=c2o[nH]c(C)c2Cl)c(Cl)c1

>  <score_type>  (27) 
oracle

>  <origin>  (27) 
adgpu

>  <m_score__min__energy>  (27) 
-11.119999999999999

>  <m_primary>  (27) 
energy

$$$$
27:0
     RDKit          3D

 42 44  0  0  0  0  0  0  0  0999 V2000
   -1.2310   23.2480  -28.6610 C   0  0  0  0  0  0  0  0  0  0  0  0
   -2.5980   23.6730  -28.9840 N   0  0  0  0  0  0  0  0  0  0  0  0
   -3.0820   24.2510  -27.7160 C   0  0  0  0  0  0  0  0  0  0  0  0
   -3.4370   22.4970  -29.2150 C   0  0  0  0  0  0  0  0  0  0  0  0
   -3.3400   22.1320  -30.6480 C   0  0  0  0  0  0  0  0  0  0  0  0
   -2.3740   21.2700  -31.1260 C   0  0  0  0  0  0  0  0  0  0  0  0
   -2.2740   20.9090  -32.4580 C   0  0  0  0  0  0  0  0  0  0  0  0
   -3.1930   21.4430  -33.3480 C   0  0  0  0  0  0  0  0  0  0  0  0
   -4.1500   22.3000  -32.8580 C   0  0  0  0  0  0  0  0  0  0  0  0
   -4.2540   22.6630  -31.5320 C   0  0  0  0  0  0  0  0  0  0  0  0
   -5.3140   23.5840  -31.1550 C   0  0  0  0  0  0  0  0  0  0  0  0
   -6.6530   23.4140  -31.1280 C   0  0  0  0  0  0  0  0  0  0  0  0
   -7.4290   22.2250  -31.4620 C   0  0  0  0  0  0  0  0  0  0  0  0
   -8.8170   22.2880  -31.6410 C   0  0  0  0  0  0  0  0  0  0  0  0
   -9.5400   21.1480  -31.9680 C   0  0  0  0  0  0  0  0  0  0  0  0
   -8.8990   19.9280  -32.1210 C   0  0  0  0  0  0  0  0  0  0  0  0
   -7.5530   19.8470  -31.9510 C   0  0  0  0  0  0  0  0  0  0  0  0
   -6.6340   18.3640  -32.1180 Cl  0  0  0  0  0  0  0  0  0  0  0  0
   -6.8520   20.9850  -31.6270 C   0  0  0  0  0  0  0  0  0  0  0  0
   -7.2230   24.5640  -30.7140 N   0  0  0  0  0  0  0  0  0  0  0  0
   -6.2800   25.4760  -30.4740 N   0  0  0  0  0  0  0  0  0  0  0  0
   -5.0920   24.9040  -30.7360 C   0  0  0  0  0  0  0  0  0  0  0  0
   -3.8980   25.4350  -30.6360 N   0  0  0  0  0  0  0  0  0  0  0  0
   -1.1074   23.2096  -27.5686 H   0  0  0  0  0  0  0  0  0  0  0  0
   -1.0471   22.2503  -29.0861 H   0  0  0  0  0  0  0  0  0  0  0  0
   -0.5138   23.9656  -29.0861 H   0  0  0  0  0  0  0  0  0  0  0  0
   -2.6300   23.7112  -26.8708 H   0  0  0  0  0  0  0  0  0  0  0  0
   -2.7999   25.3130  -27.6658 H   0  0  0  0  0  0  0  0  0  0  0  0
   -4.1771   24.1598  -27.6658 H   0  0  0  0  0  0  0  0  0  0  0  0
   -3.0849   21.6607  -28.5933 H   0  0  0  0  0  0  0  0  0  0  0  0
   -4.4814   22.7178  -28.9494 H   0  0  0  0  0  0  0  0  0  0  0  0
   -1.6487   20.8497  -30.4138 H   0  0  0  0  0  0  0  0  0  0  0  0
   -1.4888   20.2189  -32.8005 H   0  0  0  0  0  0  0  0  0  0  0  0
   -3.1575   21.1879  -34.4174 H   0  0  0  0  0  0  0  0  0  0  0  0
   -4.8772   22.7219  -33.5674 H   0  0  0  0  0  0  0  0  0  0  0  0
   -9.3389   23.2489  -31.5215 H   0  0  0  0  0  0  0  0  0  0  0  0
  -10.6293   21.2135  -32.1066 H   0  0  0  0  0  0  0  0  0  0  0  0
   -9.4778   19.0289  -32.3790 H   0  0  0  0  0  0  0  0  0  0  0  0
   -5.7637   20.8998  -31.4913 H   0  0  0  0  0  0  0  0  0  0  0  0
   -8.2470   24.7840  -30.5790 H   0  0  0  0  0  0  0  0  0  0  0  0
   -6.4170   26.4720  -30.1380 H   0  0  0  0  0  0  0  0  0  0  0  0
   -3.8710   26.4270  -30.3100 H   0  0  0  0  0  0  0  0  0  0  0  0
  1  2  1  0
  2  3  1  0
  2  4  1  0
  4  5  1  0
  5  6  2  0
  6  7  1  0
  7  8  2  0
  8  9  1  0
  9 10  2  0
 10 11  1  0
 11 12  2  0
 12 13  1  0
 13 14  2  0
 14 15  1  0
 15 16  2  0
 16 17  1  0
 17 18  1  0
 17 19  2  0
 12 20  1  0
 20 21  1  0
 21 22  1  0
 22 23  2  3
 10  5  1  0
 22 11  1  0
 19 13  1  0
  1 24  1  0
  1 25  1  0
  1 26  1  0
  3 27  1  0
  3 28  1  0
  3 29  1  0
  4 30  1  0
  4 31  1  0
  6 32  1  0
  7 33  1  0
  8 34  1  0
  9 35  1  0
 14 36  1  0
 15 37  1  0
 16 38  1  0
 19 39  1  0
 20 40  1  0
 21 41  1  0
 23 42  1  0
M  END
>  <smiles>  (28) 
CN(C)Cc1ccccc1-c1c(-c2cccc(Cl)c2)[nH][nH]c1=N

>  <score_type>  (28) 
oracle

>  <origin>  (28) 
adgpu

>  <m_score__min__energy>  (28) 
-9.0099999999999998

>  <m_primary>  (28) 
energy

$$$$
28:0
     RDKit          3D

 57 61  0  0  0  0  0  0  0  0999 V2000
    2.1570   22.7590  -35.7410 C   0  0  0  0  0  0  0  0  0  0  0  0
    2.4110   21.3150  -35.3200 C   0  0  0  0  0  0  0  0  0  0  0  0
    1.1130   20.6100  -35.0240 C   0  0  0  0  0  0  0  0  0  0  0  0
    0.0570   21.3080  -34.4190 C   0  0  0  0  0  0  0  0  0  0  0  0
   -1.1610   20.6730  -34.1670 C   0  0  0  0  0  0  0  0  0  0  0  0
   -1.3520   19.3270  -34.5260 C   0  0  0  0  0  0  0  0  0  0  0  0
   -2.6460   18.6510  -34.2580 C   0  0  0  0  0  0  0  0  0  0  0  0
   -2.8100   17.2850  -34.5380 C   0  0  0  0  0  0  0  0  0  0  0  0
   -4.0260   16.6480  -34.2860 C   0  0  0  0  0  0  0  0  0  0  0  0
   -5.1090   17.3640  -33.7440 C   0  0  0  0  0  0  0  0  0  0  0  0
   -6.3440   16.7510  -33.4700 O   0  0  0  0  0  0  0  0  0  0  0  0
   -6.8600   15.6260  -34.1740 C   0  0  0  0  0  0  0  0  0  0  0  0
   -4.9520   18.7330  -33.4560 C   0  0  0  0  0  0  0  0  0  0  0  0
   -6.0750   19.5200  -32.8970 C   0  0  0  0  0  0  0  0  0  0  0  0
   -7.3790   19.0320  -33.0610 C   0  0  0  0  0  0  0  0  0  0  0  0
   -8.4620   19.7650  -32.5770 C   0  0  0  0  0  0  0  0  0  0  0  0
   -8.2590   20.9490  -31.9450 N   0  0  0  0  0  0  0  0  0  0  0  0
   -7.0120   21.4570  -31.7560 C   0  0  0  0  0  0  0  0  0  0  0  0
   -6.8580   22.6780  -31.0900 C   0  0  0  0  0  0  0  0  0  0  0  0
   -5.5810   23.2040  -30.8690 C   0  0  0  0  0  0  0  0  0  0  0  0
   -5.3780   24.7320  -30.0150 S   0  0  0  0  0  0  0  0  0  0  0  0
   -6.7120   25.3760  -29.7580 O   0  0  0  0  0  0  0  0  0  0  0  0
   -4.5420   25.6540  -30.8560 O   0  0  0  0  0  0  0  0  0  0  0  0
   -4.5830   24.4600  -28.4990 N   0  0  0  0  0  0  0  0  0  0  0  0
   -3.2980   24.5530  -28.3470 C   0  0  0  0  0  0  0  0  0  0  0  0
   -2.4410   24.8680  -29.3420 N   0  0  0  0  0  0  0  0  0  0  0  0
   -1.1570   24.9010  -28.8980 C   0  0  0  0  0  0  0  0  0  0  0  0
   -0.9930   24.6120  -27.5470 C   0  0  0  0  0  0  0  0  0  0  0  0
   -2.5110   24.3040  -26.8870 S   0  0  0  0  0  0  0  0  0  0  0  0
   -4.4540   22.5070  -31.3200 C   0  0  0  0  0  0  0  0  0  0  0  0
   -4.5970   21.2880  -31.9870 C   0  0  0  0  0  0  0  0  0  0  0  0
   -5.8780   20.7510  -32.2250 C   0  0  0  0  0  0  0  0  0  0  0  0
   -3.7280   19.3680  -33.7200 C   0  0  0  0  0  0  0  0  0  0  0  0
   -0.2980   18.6330  -35.1450 C   0  0  0  0  0  0  0  0  0  0  0  0
    0.9230   19.2670  -35.3970 C   0  0  0  0  0  0  0  0  0  0  0  0
    1.9180   18.5720  -36.0030 F   0  0  0  0  0  0  0  0  0  0  0  0
    2.0464   23.3880  -34.8454 H   0  0  0  0  0  0  0  0  0  0  0  0
    3.0053   23.1207  -36.3406 H   0  0  0  0  0  0  0  0  0  0  0  0
    1.2362   22.8096  -36.3406 H   0  0  0  0  0  0  0  0  0  0  0  0
    2.9308   20.7879  -36.1336 H   0  0  0  0  0  0  0  0  0  0  0  0
    3.0285   21.3156  -34.4097 H   0  0  0  0  0  0  0  0  0  0  0  0
    0.1895   22.3640  -34.1409 H   0  0  0  0  0  0  0  0  0  0  0  0
   -1.9773   21.2301  -33.6839 H   0  0  0  0  0  0  0  0  0  0  0  0
   -1.9718   16.7112  -34.9601 H   0  0  0  0  0  0  0  0  0  0  0  0
   -4.1385   15.5776  -34.5130 H   0  0  0  0  0  0  0  0  0  0  0  0
   -7.2066   14.8702  -33.4538 H   0  0  0  0  0  0  0  0  0  0  0  0
   -7.7024   15.9438  -34.8060 H   0  0  0  0  0  0  0  0  0  0  0  0
   -6.0696   15.1949  -34.8060 H   0  0  0  0  0  0  0  0  0  0  0  0
   -7.5476   18.0720  -33.5709 H   0  0  0  0  0  0  0  0  0  0  0  0
   -9.4849   19.3822  -32.7079 H   0  0  0  0  0  0  0  0  0  0  0  0
   -7.7447   23.2262  -30.7389 H   0  0  0  0  0  0  0  0  0  0  0  0
   -0.3098   25.1387  -29.5581 H   0  0  0  0  0  0  0  0  0  0  0  0
   -0.0367   24.5887  -27.0038 H   0  0  0  0  0  0  0  0  0  0  0  0
   -3.4497   22.9217  -31.1482 H   0  0  0  0  0  0  0  0  0  0  0  0
   -3.7041   20.7438  -32.3286 H   0  0  0  0  0  0  0  0  0  0  0  0
   -3.6146   20.4404  -33.5029 H   0  0  0  0  0  0  0  0  0  0  0  0
   -0.4348   17.5805  -35.4342 H   0  0  0  0  0  0  0  0  0  0  0  0
  1  2  1  0
  2  3  1  0
  3  4  2  0
  4  5  1  0
  5  6  2  0
  6  7  1  0
  7  8  2  0
  8  9  1  0
  9 10  2  0
 10 11  1  0
 11 12  1  0
 10 13  1  0
 13 14  1  0
 14 15  2  0
 15 16  1  0
 16 17  2  0
 17 18  1  0
 18 19  2  0
 19 20  1  0
 20 21  1  0
 21 22  2  0
 21 23  2  0
 21 24  1  0
 24 25  2  3
 25 26  1  0
 26 27  1  0
 27 28  2  0
 28 29  1  0
 20 30  2  0
 30 31  1  0
 31 32  2  0
 13 33  2  0
  6 34  1  0
 34 35  2  0
 35 36  1  0
 35  3  1  0
 33  7  1  0
 32 14  1  0
 32 18  1  0
 29 25  1  0
  1 37  1  0
  1 38  1  0
  1 39  1  0
  2 40  1  0
  2 41  1  0
  4 42  1  0
  5 43  1  0
  8 44  1  0
  9 45  1  0
 12 46  1  0
 12 47  1  0
 12 48  1  0
 15 49  1  0
 16 50  1  0
 19 51  1  0
 27 52  1  0
 28 53  1  0
 30 54  1  0
 31 55  1  0
 33 56  1  0
 34 57  1  0
M  CHG  1  26  -1
M  END
>  <UniqueID>  (29) 
28

>  <SMILES>  (29) 
CCc1ccc(-c2ccc(OC)c(-c3ccnc4cc(S(=O)(=O)N=c5[n-]ccs5)ccc34)c2)cc1F

>  <Energy>  (29) 
109.85806328603691

>  <Genealogy>  (29) 
CCc1ccc(-c2ccc(OC)c(-c3ccnc4cc(S(=O)(=O)N=c5[n-]ccs5)ccc34)c2)cc1F (protonated)
CCc1ccc(-c2ccc(OC)c(-c3ccnc4cc(S(=O)(=O)N=c5[n-]ccs5)ccc34)c2)cc1F (3D coordinates assigned)
CCc1ccc(-c2ccc(OC)c(-c3ccnc4cc(S(=O)(=O)N=c5[n-]ccs5)ccc34)c2)cc1F (optimized conformer: 109.85806328603691 kcal/mol)

>  <smiles>  (29) 
CCc1ccc(-c2ccc(OC)c(-c3ccnc4cc(S(=O)(=O)N=c5[nH]ccs5)ccc34)c2)cc1F

>  <score_type>  (29) 
oracle

>  <origin>  (29) 
adgpu

>  <m_score__min__energy>  (29) 
-12.08

>  <m_primary>  (29) 
energy

$$$$
29:0
     RDKit          3D

 38 40  0  0  0  0  0  0  0  0999 V2000
   -1.8530   24.4180  -27.0050 C   0  0  0  0  0  0  0  0  0  0  0  0
   -1.4810   24.7840  -28.4100 C   0  0  0  0  0  0  0  0  0  0  0  0
   -0.2790   24.6770  -28.7690 O   0  0  0  0  0  0  0  0  0  0  0  0
   -2.4420   25.2900  -29.3460 N   0  0  0  0  0  0  0  0  0  0  0  0
   -3.6420   24.6340  -29.7810 C   0  0  0  0  0  0  0  0  0  0  0  0
   -3.8300   23.2510  -29.6170 C   0  0  0  0  0  0  0  0  0  0  0  0
   -4.9960   22.6390  -30.0850 C   0  0  0  0  0  0  0  0  0  0  0  0
   -5.9800   23.3970  -30.7320 C   0  0  0  0  0  0  0  0  0  0  0  0
   -7.4060   22.6090  -31.4010 S   0  0  0  0  0  0  0  0  0  0  0  0
   -7.9170   21.5660  -30.4460 O   0  0  0  0  0  0  0  0  0  0  0  0
   -8.4830   23.6350  -31.6180 O   0  0  0  0  0  0  0  0  0  0  0  0
   -7.0000   21.8720  -32.9130 N   0  0  0  0  0  0  0  0  0  0  0  0
   -6.4430   20.5530  -32.9370 C   0  0  0  0  0  0  0  0  0  0  0  0
   -7.2790   19.4340  -32.8110 C   0  0  0  0  0  0  0  0  0  0  0  0
   -9.0270   19.6190  -32.6990 Cl  0  0  0  0  0  0  0  0  0  0  0  0
   -6.7030   18.1560  -32.7890 C   0  0  0  0  0  0  0  0  0  0  0  0
   -7.4300   17.1340  -32.6810 O   0  0  0  0  0  0  0  0  0  0  0  0
   -5.3850   18.0090  -32.8820 O   0  0  0  0  0  0  0  0  0  0  0  0
   -4.5540   19.0390  -33.0010 C   0  0  0  0  0  0  0  0  0  0  0  0
   -3.1760   18.8080  -33.0800 C   0  0  0  0  0  0  0  0  0  0  0  0
   -2.2890   19.8830  -33.1880 C   0  0  0  0  0  0  0  0  0  0  0  0
   -2.7740   21.1920  -33.2190 C   0  0  0  0  0  0  0  0  0  0  0  0
   -4.1490   21.4350  -33.1440 C   0  0  0  0  0  0  0  0  0  0  0  0
   -5.0520   20.3620  -33.0370 C   0  0  0  0  0  0  0  0  0  0  0  0
   -5.7790   24.7700  -30.9260 C   0  0  0  0  0  0  0  0  0  0  0  0
   -4.6130   25.3820  -30.4580 C   0  0  0  0  0  0  0  0  0  0  0  0
   -1.2510   25.0103  -26.3002 H   0  0  0  0  0  0  0  0  0  0  0  0
   -2.9204   24.6278  -26.8418 H   0  0  0  0  0  0  0  0  0  0  0  0
   -1.6606   23.3473  -26.8418 H   0  0  0  0  0  0  0  0  0  0  0  0
   -3.0567   22.6481  -29.1185 H   0  0  0  0  0  0  0  0  0  0  0  0
   -5.1415   21.5577  -29.9446 H   0  0  0  0  0  0  0  0  0  0  0  0
   -6.8620   22.4930  -33.7420 H   0  0  0  0  0  0  0  0  0  0  0  0
   -2.7900   17.7782  -33.0571 H   0  0  0  0  0  0  0  0  0  0  0  0
   -1.2065   19.6973  -33.2487 H   0  0  0  0  0  0  0  0  0  0  0  0
   -2.0721   22.0348  -33.3027 H   0  0  0  0  0  0  0  0  0  0  0  0
   -4.5255   22.4683  -33.1688 H   0  0  0  0  0  0  0  0  0  0  0  0
   -6.5408   25.3677  -31.4479 H   0  0  0  0  0  0  0  0  0  0  0  0
   -4.4570   26.4584  -30.6226 H   0  0  0  0  0  0  0  0  0  0  0  0
  1  2  1  0
  2  3  2  0
  2  4  1  0
  4  5  1  0
  5  6  2  0
  6  7  1  0
  7  8  2  0
  8  9  1  0
  9 10  2  0
  9 11  2  0
  9 12  1  0
 12 13  1  0
 13 14  2  0
 14 15  1  0
 14 16  1  0
 16 17  2  0
 16 18  1  0
 18 19  1  0
 19 20  2  0
 20 21  1  0
 21 22  2  0
 22 23  1  0
 23 24  2  0
  8 25  1  0
 25 26  2  0
 26  5  1  0
 24 13  1  0
 24 19  1  0
  1 27  1  0
  1 28  1  0
  1 29  1  0
  6 30  1  0
  7 31  1  0
 12 32  1  0
 20 33  1  0
 21 34  1  0
 22 35  1  0
 23 36  1  0
 25 37  1  0
 26 38  1  0
M  CHG  1   4  -1
M  END
>  <UniqueID>  (30) 
29

>  <SMILES>  (30) 
CC(=O)[N-]c1ccc(S(=O)(=O)Nc2c(Cl)c(=O)oc3ccccc23)cc1

>  <Energy>  (30) 
55.76998083106522

>  <Genealogy>  (30) 
CC(=O)[N-]c1ccc(S(=O)(=O)Nc2c(Cl)c(=O)oc3ccccc23)cc1 (protonated)
CC(=O)[N-]c1ccc(S(=O)(=O)Nc2c(Cl)c(=O)oc3ccccc23)cc1 (3D coordinates assigned)
CC(=O)[N-]c1ccc(S(=O)(=O)Nc2c(Cl)c(=O)oc3ccccc23)cc1 (optimized conformer: 55.76998083106522 kcal/mol)

>  <smiles>  (30) 
CC(=O)Nc1ccc(S(=O)(=O)Nc2c(Cl)c(=O)oc3ccccc23)cc1

>  <score_type>  (30) 
oracle

>  <origin>  (30) 
adgpu

>  <m_score__min__energy>  (30) 
-11

>  <m_primary>  (30) 
energy

$$$$
30:0
     RDKit          3D

 40 40  0  0  0  0  0  0  0  0999 V2000
   -5.7460   18.3700  -34.4200 C   0  0  0  0  0  0  0  0  0  0  0  0
   -6.3100   17.2810  -33.5070 C   0  0  0  0  0  0  0  0  0  0  0  0
   -7.2280   17.8510  -32.4050 C   0  0  0  0  0  0  0  0  0  0  0  0
   -7.6760   19.3050  -32.6560 C   0  0  0  0  0  0  0  0  0  0  0  0
   -8.8810   19.7780  -31.8190 C   0  0  0  0  0  0  0  0  0  0  0  0
   -9.1740   21.2900  -31.9020 C   0  0  0  0  0  0  0  0  0  0  0  0
   -8.2760   22.1590  -30.9960 C   0  0  0  0  0  0  0  0  0  0  0  0
   -7.6020   23.3320  -31.7330 C   0  0  0  0  0  0  0  0  0  0  0  0
   -6.2910   23.6910  -31.1440 N   0  0  0  0  0  0  0  0  0  0  0  0
   -5.1370   23.0320  -31.5210 C   0  0  0  0  0  0  0  0  0  0  0  0
   -5.1710   21.9860  -32.5080 N   0  0  0  0  0  0  0  0  0  0  0  0
   -3.8970   23.4140  -30.9640 C   0  0  0  0  0  0  0  0  0  0  0  0
   -2.6820   22.7110  -31.2730 N   0  0  0  0  0  0  0  0  0  0  0  0
   -3.8730   24.4800  -30.0590 C   0  0  0  0  0  0  0  0  0  0  0  0
   -2.7850   24.8590  -29.5460 O   0  0  0  0  0  0  0  0  0  0  0  0
   -5.0230   25.1060  -29.7180 N   0  0  0  0  0  0  0  0  0  0  0  0
   -6.2190   24.7240  -30.2380 C   0  0  0  0  0  0  0  0  0  0  0  0
   -7.2590   25.3440  -29.8800 O   0  0  0  0  0  0  0  0  0  0  0  0
   -5.3259   19.1811  -33.8071 H   0  0  0  0  0  0  0  0  0  0  0  0
   -4.9556   17.9432  -35.0549 H   0  0  0  0  0  0  0  0  0  0  0  0
   -6.5507   18.7693  -35.0549 H   0  0  0  0  0  0  0  0  0  0  0  0
   -6.8897   16.5735  -34.1181 H   0  0  0  0  0  0  0  0  0  0  0  0
   -5.4610   16.7866  -33.0123 H   0  0  0  0  0  0  0  0  0  0  0  0
   -8.1255   17.2183  -32.3401 H   0  0  0  0  0  0  0  0  0  0  0  0
   -6.6446   17.8528  -31.4724 H   0  0  0  0  0  0  0  0  0  0  0  0
   -6.8259   19.9659  -32.4312 H   0  0  0  0  0  0  0  0  0  0  0  0
   -8.0010   19.3457  -33.7061 H   0  0  0  0  0  0  0  0  0  0  0  0
   -9.7731   19.2371  -32.1678 H   0  0  0  0  0  0  0  0  0  0  0  0
   -8.6290   19.5691  -30.7688 H   0  0  0  0  0  0  0  0  0  0  0  0
   -9.0287   21.6129  -32.9435 H   0  0  0  0  0  0  0  0  0  0  0  0
  -10.2073   21.4315  -31.5522 H   0  0  0  0  0  0  0  0  0  0  0  0
   -8.8949   22.5688  -30.1842 H   0  0  0  0  0  0  0  0  0  0  0  0
   -7.4709   21.5088  -30.6232 H   0  0  0  0  0  0  0  0  0  0  0  0
   -7.4507   23.0480  -32.7849 H   0  0  0  0  0  0  0  0  0  0  0  0
   -8.2613   24.2079  -31.6425 H   0  0  0  0  0  0  0  0  0  0  0  0
   -4.9900   22.1880  -33.5150 H   0  0  0  0  0  0  0  0  0  0  0  0
   -5.4390   21.0060  -32.2800 H   0  0  0  0  0  0  0  0  0  0  0  0
   -1.7710   23.0030  -30.8530 H   0  0  0  0  0  0  0  0  0  0  0  0
   -2.6760   21.8330  -31.8350 H   0  0  0  0  0  0  0  0  0  0  0  0
   -4.9920   25.8980  -29.0370 H   0  0  0  0  0  0  0  0  0  0  0  0
  1  2  1  0
  2  3  1  0
  3  4  1  0
  4  5  1  0
  5  6  1  0
  6  7  1  0
  7  8  1  0
  8  9  1  0
  9 10  1  0
 10 11  1  0
 10 12  2  0
 12 13  1  0
 12 14  1  0
 14 15  2  0
 14 16  1  0
 16 17  1  0
 17 18  2  0
 17  9  1  0
  1 19  1  0
  1 20  1  0
  1 21  1  0
  2 22  1  0
  2 23  1  0
  3 24  1  0
  3 25  1  0
  4 26  1  0
  4 27  1  0
  5 28  1  0
  5 29  1  0
  6 30  1  0
  6 31  1  0
  7 32  1  0
  7 33  1  0
  8 34  1  0
  8 35  1  0
 11 36  1  0
 11 37  1  0
 13 38  1  0
 13 39  1  0
 16 40  1  0
M  END
>  <UniqueID>  (31) 
30

>  <SMILES>  (31) 
CCCCCCCCn1c(N)c(N)c(=O)[nH]c1=O

>  <Energy>  (31) 
40.16364650102723

>  <Genealogy>  (31) 
CCCCCCCCn1c(N)c(N)c(=O)[nH]c1=O (3D coordinates assigned)
CCCCCCCCn1c(N)c(N)c(=O)[nH]c1=O (optimized conformer: 40.16364650102723 kcal/mol)

>  <smiles>  (31) 
CCCCCCCCn1c(N)c(N)c(=O)[nH]c1=O

>  <score_type>  (31) 
oracle

>  <origin>  (31) 
adgpu

>  <m_score__min__energy>  (31) 
-6.0999999999999996

>  <m_primary>  (31) 
energy

$$$$
31:0
     RDKit          3D

 71 75  0  0  0  0  0  0  0  0999 V2000
   -6.4377   17.6327  -36.1411 H   0  0  0  0  0  0  0  0  0  0  0  0
   -5.8140   17.6930  -35.2370 C   0  0  0  0  0  0  0  0  0  0  0  0
   -5.2160   16.5740  -34.7500 N   0  0  0  0  0  0  0  0  0  0  0  0
   -4.4370   16.5890  -33.6300 C   0  0  0  0  0  0  0  0  0  0  0  0
   -3.8450   15.3550  -33.1560 N   0  0  0  0  0  0  0  0  0  0  0  0
   -4.6170   14.4960  -32.2490 C   0  0  0  0  0  0  0  0  0  0  0  0
   -4.3816   14.7579  -31.2069 H   0  0  0  0  0  0  0  0  0  0  0  0
   -5.6919   14.6437  -32.4304 H   0  0  0  0  0  0  0  0  0  0  0  0
   -4.3558   13.4430  -32.4304 H   0  0  0  0  0  0  0  0  0  0  0  0
   -2.4910   14.9550  -33.5600 C   0  0  0  0  0  0  0  0  0  0  0  0
   -1.8793   14.7743  -32.6638 H   0  0  0  0  0  0  0  0  0  0  0  0
   -2.5442   14.0342  -34.1594 H   0  0  0  0  0  0  0  0  0  0  0  0
   -2.0353   15.7569  -34.1594 H   0  0  0  0  0  0  0  0  0  0  0  0
   -4.2420   17.8130  -32.9560 C   0  0  0  0  0  0  0  0  0  0  0  0
   -3.6214   17.8505  -32.0485 H   0  0  0  0  0  0  0  0  0  0  0  0
   -4.8410   18.9800  -33.4460 C   0  0  0  0  0  0  0  0  0  0  0  0
   -4.6530   20.2620  -32.7340 C   0  0  0  0  0  0  0  0  0  0  0  0
   -3.3450   20.7400  -32.5760 C   0  0  0  0  0  0  0  0  0  0  0  0
   -2.5008   20.1569  -32.9725 H   0  0  0  0  0  0  0  0  0  0  0  0
   -3.1030   21.9460  -31.9220 C   0  0  0  0  0  0  0  0  0  0  0  0
   -2.0685   22.2970  -31.7931 H   0  0  0  0  0  0  0  0  0  0  0  0
   -4.1580   22.7130  -31.4290 C   0  0  0  0  0  0  0  0  0  0  0  0
   -3.8560   23.9880  -30.8500 N   0  0  0  0  0  0  0  0  0  0  0  0
   -3.3220   24.1200  -29.5300 C   0  0  0  0  0  0  0  0  0  0  0  0
   -3.5280   23.2090  -28.6850 O   0  0  0  0  0  0  0  0  0  0  0  0
   -2.6010   25.3000  -29.1560 N   0  0  0  0  0  0  0  0  0  0  0  0
   -1.4610   25.3670  -28.5300 C   0  0  0  0  0  0  0  0  0  0  0  0
   -0.9350   26.5390  -28.0380 C   0  0  0  0  0  0  0  0  0  0  0  0
   -1.3563   27.5524  -28.1119 H   0  0  0  0  0  0  0  0  0  0  0  0
    0.2490   26.1500  -27.4270 C   0  0  0  0  0  0  0  0  0  0  0  0
    1.1970   27.0430  -26.6440 C   0  0  0  0  0  0  0  0  0  0  0  0
    0.7720   28.5100  -26.8340 C   0  0  0  0  0  0  0  0  0  0  0  0
    0.6351   28.9825  -25.8501 H   0  0  0  0  0  0  0  0  0  0  0  0
    1.5512   29.0479  -27.3938 H   0  0  0  0  0  0  0  0  0  0  0  0
   -0.1741   28.5481  -27.3938 H   0  0  0  0  0  0  0  0  0  0  0  0
    2.6460   26.8560  -27.1400 C   0  0  0  0  0  0  0  0  0  0  0  0
    3.3210   26.7689  -26.2758 H   0  0  0  0  0  0  0  0  0  0  0  0
    2.7101   25.9421  -27.7489 H   0  0  0  0  0  0  0  0  0  0  0  0
    2.9400   27.7237  -27.7489 H   0  0  0  0  0  0  0  0  0  0  0  0
    1.1440   26.6880  -25.1440 C   0  0  0  0  0  0  0  0  0  0  0  0
    1.2803   27.6012  -24.5461 H   0  0  0  0  0  0  0  0  0  0  0  0
    0.1686   26.2374  -24.9081 H   0  0  0  0  0  0  0  0  0  0  0  0
    1.9452   25.9722  -24.9081 H   0  0  0  0  0  0  0  0  0  0  0  0
    0.4050   24.8130  -27.5540 N   0  0  0  0  0  0  0  0  0  0  0  0
   -0.6270   24.3380  -28.2340 N   0  0  0  0  0  0  0  0  0  0  0  0
   -0.6460   22.9890  -28.7200 C   0  0  0  0  0  0  0  0  0  0  0  0
   -0.7470   21.9220  -27.8150 C   0  0  0  0  0  0  0  0  0  0  0  0
   -0.8463   22.1243  -26.7383 H   0  0  0  0  0  0  0  0  0  0  0  0
   -0.7220   20.6030  -28.2760 C   0  0  0  0  0  0  0  0  0  0  0  0
   -0.8076   19.7710  -27.5615 H   0  0  0  0  0  0  0  0  0  0  0  0
   -0.5880   20.3360  -29.6480 C   0  0  0  0  0  0  0  0  0  0  0  0
   -0.5020   18.9180  -30.1320 C   0  0  0  0  0  0  0  0  0  0  0  0
   -0.4607   18.2377  -29.2686 H   0  0  0  0  0  0  0  0  0  0  0  0
   -1.3876   18.6841  -30.7411 H   0  0  0  0  0  0  0  0  0  0  0  0
    0.4054   18.7929  -30.7411 H   0  0  0  0  0  0  0  0  0  0  0  0
   -0.4450   21.4040  -30.5490 C   0  0  0  0  0  0  0  0  0  0  0  0
   -0.3097   21.2019  -31.6218 H   0  0  0  0  0  0  0  0  0  0  0  0
   -0.4740   22.7220  -30.0870 C   0  0  0  0  0  0  0  0  0  0  0  0
   -0.3615   23.5541  -30.7976 H   0  0  0  0  0  0  0  0  0  0  0  0
   -5.4870   22.2450  -31.5520 C   0  0  0  0  0  0  0  0  0  0  0  0
   -6.5680   22.9750  -31.0160 C   0  0  0  0  0  0  0  0  0  0  0  0
   -6.3771   23.9130  -30.4741 H   0  0  0  0  0  0  0  0  0  0  0  0
   -7.8770   22.5180  -31.1670 C   0  0  0  0  0  0  0  0  0  0  0  0
   -8.7118   23.0970  -30.7452 H   0  0  0  0  0  0  0  0  0  0  0  0
   -8.1310   21.3310  -31.8500 C   0  0  0  0  0  0  0  0  0  0  0  0
   -9.1666   20.9821  -31.9759 H   0  0  0  0  0  0  0  0  0  0  0  0
   -7.0770   20.5830  -32.3750 C   0  0  0  0  0  0  0  0  0  0  0  0
   -7.2888   19.6477  -32.9138 H   0  0  0  0  0  0  0  0  0  0  0  0
   -5.7410   21.0140  -32.2220 C   0  0  0  0  0  0  0  0  0  0  0  0
   -5.6390   18.9160  -34.5940 C   0  0  0  0  0  0  0  0  0  0  0  0
   -6.1234   19.8230  -34.9847 H   0  0  0  0  0  0  0  0  0  0  0  0
  1  2  1  0
  2  3  2  0
  3  4  1  0
  4  5  1  0
  5  6  1  0
  6  7  1  0
  6  8  1  0
  6  9  1  0
  5 10  1  0
 10 11  1  0
 10 12  1  0
 10 13  1  0
  4 14  2  0
 14 15  1  0
 14 16  1  0
 16 17  1  0
 17 18  2  0
 18 19  1  0
 18 20  1  0
 20 21  1  0
 20 22  2  0
 22 23  1  0
 23 24  1  0
 24 25  2  0
 24 26  1  0
 26 27  2  0
 27 28  1  0
 28 29  1  0
 28 30  2  0
 30 31  1  0
 31 32  1  0
 32 33  1  0
 32 34  1  0
 32 35  1  0
 31 36  1  0
 36 37  1  0
 36 38  1  0
 36 39  1  0
 31 40  1  0
 40 41  1  0
 40 42  1  0
 40 43  1  0
 30 44  1  0
 44 45  1  0
 45 46  1  0
 46 47  2  0
 47 48  1  0
 47 49  1  0
 49 50  1  0
 49 51  2  0
 51 52  1  0
 52 53  1  0
 52 54  1  0
 52 55  1  0
 51 56  1  0
 56 57  1  0
 56 58  2  0
 58 59  1  0
 22 60  1  0
 60 61  2  0
 61 62  1  0
 61 63  1  0
 63 64  1  0
 63 65  2  0
 65 66  1  0
 65 67  1  0
 67 68  1  0
 67 69  2  0
 16 70  2  0
 70 71  1  0
 70  2  1  0
 69 17  1  0
 45 27  1  0
 58 46  1  0
 69 60  1  0
M  CHG  2  23  -1  44  -1
M  END
>  <UniqueID>  (32) 
31

>  <SMILES>  (32) 
Cc1ccc(-n2[n-]c(C(C)(C)C)c/c2=N/C(=O)[N-]c2ccc(-c3ccnc(N(C)C)c3)c3ccccc23)cc1

>  <Energy>  (32) 
137.9548361580712

>  <Genealogy>  (32) 
Cc1ccc(-n2[n-]c(C(C)(C)C)cc2=NC(=O)[N-]c2ccc(-c3ccnc(N(C)C)c3)c3ccccc23)cc1 (protonated)
Cc1ccc(-n2[n-]c(C(C)(C)C)c/c2=N/C(=O)[N-]c2ccc(-c3ccnc(N(C)C)c3)c3ccccc23)cc1 (cis-trans isomerization)
Cc1ccc(-n2[n-]c(C(C)(C)C)c/c2=N/C(=O)[N-]c2ccc(-c3ccnc(N(C)C)c3)c3ccccc23)cc1 (3D coordinates assigned)
Cc1ccc(-n2[n-]c(C(C)(C)C)c/c2=N/C(=O)[N-]c2ccc(-c3ccnc(N(C)C)c3)c3ccccc23)cc1 (optimized conformer: 137.9548361580712 kcal/mol)

>  <smiles>  (32) 
Cc1ccc(-n2[nH]c(C(C)(C)C)cc2=NC(=O)Nc2ccc(-c3ccnc(N(C)C)c3)c3ccccc23)cc1

>  <score_type>  (32) 
oracle

>  <origin>  (32) 
adgpu

>  <m_score__min__energy>  (32) 
-11.390000000000001

>  <m_primary>  (32) 
energy

$$$$
32:0
     RDKit          3D

 33 35  0  0  0  0  0  0  0  0999 V2000
   -9.4760   21.4800  -31.6660 C   0  0  0  0  0  0  0  0  0  0  0  0
   -8.4000   20.9290  -32.4210 O   0  0  0  0  0  0  0  0  0  0  0  0
   -7.0720   21.3830  -32.3760 C   0  0  0  0  0  0  0  0  0  0  0  0
   -6.7610   22.7000  -31.9750 C   0  0  0  0  0  0  0  0  0  0  0  0
   -5.4350   23.1620  -31.9900 C   0  0  0  0  0  0  0  0  0  0  0  0
   -5.0850   24.4900  -31.5740 N   0  0  0  0  0  0  0  0  0  0  0  0
   -5.0610   24.9830  -30.2270 C   0  0  0  0  0  0  0  0  0  0  0  0
   -5.9260   25.8070  -29.8270 O   0  0  0  0  0  0  0  0  0  0  0  0
   -3.9880   24.5660  -29.3180 C   0  0  0  0  0  0  0  0  0  0  0  0
   -4.1320   23.7570  -28.2060 C   0  0  0  0  0  0  0  0  0  0  0  0
   -2.8690   23.6360  -27.6630 C   0  0  0  0  0  0  0  0  0  0  0  0
   -2.0430   24.3800  -28.4800 C   0  0  0  0  0  0  0  0  0  0  0  0
   -0.6270   24.5480  -28.3030 C   0  0  0  0  0  0  0  0  0  0  0  0
    0.5130   24.6840  -28.1610 N   0  0  0  0  0  0  0  0  0  0  0  0
   -2.7300   24.9230  -29.4570 O   0  0  0  0  0  0  0  0  0  0  0  0
   -4.4120   22.2900  -32.3690 C   0  0  0  0  0  0  0  0  0  0  0  0
   -4.7040   20.9850  -32.7610 C   0  0  0  0  0  0  0  0  0  0  0  0
   -6.0250   20.5120  -32.7580 C   0  0  0  0  0  0  0  0  0  0  0  0
   -6.2700   19.1100  -33.1740 C   0  0  0  0  0  0  0  0  0  0  0  0
   -7.0440   18.1500  -32.5500 C   0  0  0  0  0  0  0  0  0  0  0  0
   -6.9680   17.0050  -33.2530 N   0  0  0  0  0  0  0  0  0  0  0  0
   -6.1470   17.3110  -34.2780 C   0  0  0  0  0  0  0  0  0  0  0  0
   -5.7290   18.5550  -34.2320 O   0  0  0  0  0  0  0  0  0  0  0  0
   -9.2638   21.3713  -30.5921 H   0  0  0  0  0  0  0  0  0  0  0  0
   -9.5879   22.5464  -31.9116 H   0  0  0  0  0  0  0  0  0  0  0  0
  -10.4067   20.9475  -31.9116 H   0  0  0  0  0  0  0  0  0  0  0  0
   -7.5671   23.3727  -31.6467 H   0  0  0  0  0  0  0  0  0  0  0  0
   -5.0615   23.3034  -27.8314 H   0  0  0  0  0  0  0  0  0  0  0  0
   -2.5814   23.0662  -26.7671 H   0  0  0  0  0  0  0  0  0  0  0  0
   -3.3679   22.6359  -32.3580 H   0  0  0  0  0  0  0  0  0  0  0  0
   -3.8887   20.3174  -33.0767 H   0  0  0  0  0  0  0  0  0  0  0  0
   -7.6270   18.2977  -31.6290 H   0  0  0  0  0  0  0  0  0  0  0  0
   -5.8595   16.5981  -35.0649 H   0  0  0  0  0  0  0  0  0  0  0  0
  1  2  1  0
  2  3  1  0
  3  4  2  0
  4  5  1  0
  5  6  1  0
  6  7  1  0
  7  8  2  0
  7  9  1  0
  9 10  2  0
 10 11  1  0
 11 12  2  0
 12 13  1  0
 13 14  3  0
 12 15  1  0
  5 16  2  0
 16 17  1  0
 17 18  2  0
 18 19  1  0
 19 20  2  0
 20 21  1  0
 21 22  2  0
 22 23  1  0
 18  3  1  0
 23 19  1  0
 15  9  1  0
  1 24  1  0
  1 25  1  0
  1 26  1  0
  4 27  1  0
 10 28  1  0
 11 29  1  0
 16 30  1  0
 17 31  1  0
 20 32  1  0
 22 33  1  0
M  CHG  1   6  -1
M  END
>  <UniqueID>  (33) 
32

>  <SMILES>  (33) 
COc1cc([N-]C(=O)c2ccc(C#N)o2)ccc1-c1cnco1

>  <Energy>  (33) 
96.04959093656258

>  <Genealogy>  (33) 
COc1cc([N-]C(=O)c2ccc(C#N)o2)ccc1-c1cnco1 (protonated)
COc1cc([N-]C(=O)c2ccc(C#N)o2)ccc1-c1cnco1 (3D coordinates assigned)
COc1cc([N-]C(=O)c2ccc(C#N)o2)ccc1-c1cnco1 (optimized conformer: 96.04959093656258 kcal/mol)

>  <smiles>  (33) 
COc1cc(NC(=O)c2ccc(C#N)o2)ccc1-c1cnco1

>  <score_type>  (33) 
oracle

>  <origin>  (33) 
adgpu

>  <m_score__min__energy>  (33) 
-8.6699999999999999

>  <m_primary>  (33) 
energy

$$$$
33:0
     RDKit          3D

 36 38  0  0  0  0  0  0  0  0999 V2000
   -9.4530   21.9100  -29.9090 O   0  0  0  0  0  0  0  0  0  0  0  0
   -8.5370   21.7220  -31.0870 S   0  0  0  0  0  0  0  0  0  0  0  0
   -9.2170   22.1850  -32.3430 O   0  0  0  0  0  0  0  0  0  0  0  0
   -8.1300   20.0410  -31.2230 N   0  0  0  0  0  0  0  0  0  0  0  0
   -7.4120   19.5620  -32.1900 C   0  0  0  0  0  0  0  0  0  0  0  0
   -6.9020   20.3090  -33.1940 N   0  0  0  0  0  0  0  0  0  0  0  0
   -6.1910   19.5450  -34.0660 C   0  0  0  0  0  0  0  0  0  0  0  0
   -6.1350   18.1910  -33.7540 C   0  0  0  0  0  0  0  0  0  0  0  0
   -7.0070   17.9410  -32.3360 S   0  0  0  0  0  0  0  0  0  0  0  0
   -7.0680   22.6620  -30.8470 C   0  0  0  0  0  0  0  0  0  0  0  0
   -7.1450   24.0320  -30.5680 C   0  0  0  0  0  0  0  0  0  0  0  0
   -5.9790   24.7820  -30.3880 C   0  0  0  0  0  0  0  0  0  0  0  0
   -4.7190   24.1670  -30.4910 C   0  0  0  0  0  0  0  0  0  0  0  0
   -3.4960   24.8970  -30.3210 N   0  0  0  0  0  0  0  0  0  0  0  0
   -2.3300   24.6130  -29.0680 S   0  0  0  0  0  0  0  0  0  0  0  0
   -1.1590   25.5320  -29.2700 O   0  0  0  0  0  0  0  0  0  0  0  0
   -2.9590   24.9080  -27.7350 O   0  0  0  0  0  0  0  0  0  0  0  0
   -1.8170   22.9290  -29.0950 C   0  0  0  0  0  0  0  0  0  0  0  0
   -0.9880   22.4680  -30.1270 C   0  0  0  0  0  0  0  0  0  0  0  0
   -0.5690   21.1340  -30.1500 C   0  0  0  0  0  0  0  0  0  0  0  0
   -0.9780   20.2560  -29.1420 C   0  0  0  0  0  0  0  0  0  0  0  0
   -1.8090   20.7090  -28.1110 C   0  0  0  0  0  0  0  0  0  0  0  0
   -2.3670   19.5080  -26.7360 Br  0  0  0  0  0  0  0  0  0  0  0  0
   -2.2290   22.0440  -28.0890 C   0  0  0  0  0  0  0  0  0  0  0  0
   -4.6470   22.7970  -30.7740 C   0  0  0  0  0  0  0  0  0  0  0  0
   -5.8140   22.0480  -30.9540 C   0  0  0  0  0  0  0  0  0  0  0  0
   -5.6964   19.9672  -34.9532 H   0  0  0  0  0  0  0  0  0  0  0  0
   -5.6112   17.4168  -34.3339 H   0  0  0  0  0  0  0  0  0  0  0  0
   -8.1275   24.5204  -30.4901 H   0  0  0  0  0  0  0  0  0  0  0  0
   -6.0477   25.8570  -30.1650 H   0  0  0  0  0  0  0  0  0  0  0  0
   -0.6660   23.1576  -30.9212 H   0  0  0  0  0  0  0  0  0  0  0  0
    0.0822   20.7757  -30.9609 H   0  0  0  0  0  0  0  0  0  0  0  0
   -0.6462   19.2074  -29.1592 H   0  0  0  0  0  0  0  0  0  0  0  0
   -2.8841   22.3997  -27.2801 H   0  0  0  0  0  0  0  0  0  0  0  0
   -3.6655   22.3069  -30.8552 H   0  0  0  0  0  0  0  0  0  0  0  0
   -5.7468   20.9736  -31.1803 H   0  0  0  0  0  0  0  0  0  0  0  0
  1  2  2  0
  2  3  2  0
  2  4  1  0
  4  5  2  3
  5  6  1  0
  6  7  1  0
  7  8  2  0
  8  9  1  0
  2 10  1  0
 10 11  2  0
 11 12  1  0
 12 13  2  0
 13 14  1  0
 14 15  1  0
 15 16  2  0
 15 17  2  0
 15 18  1  0
 18 19  2  0
 19 20  1  0
 20 21  2  0
 21 22  1  0
 22 23  1  0
 22 24  2  0
 13 25  1  0
 25 26  2  0
  9  5  1  0
 26 10  1  0
 24 18  1  0
  7 27  1  0
  8 28  1  0
 11 29  1  0
 12 30  1  0
 19 31  1  0
 20 32  1  0
 21 33  1  0
 24 34  1  0
 25 35  1  0
 26 36  1  0
M  CHG  2   6  -1  14  -1
M  END
>  <UniqueID>  (34) 
33

>  <SMILES>  (34) 
O=S(=O)(N=c1[n-]ccs1)c1ccc([N-]S(=O)(=O)c2cccc(Br)c2)cc1

>  <Energy>  (34) 
74.97516382241241

>  <Genealogy>  (34) 
O=S(=O)(N=c1[n-]ccs1)c1ccc([N-]S(=O)(=O)c2cccc(Br)c2)cc1 (protonated)
O=S(=O)(N=c1[n-]ccs1)c1ccc([N-]S(=O)(=O)c2cccc(Br)c2)cc1 (3D coordinates assigned)
O=S(=O)(N=c1[n-]ccs1)c1ccc([N-]S(=O)(=O)c2cccc(Br)c2)cc1 (optimized conformer: 74.97516382241241 kcal/mol)

>  <smiles>  (34) 
O=S(=O)(N=c1[nH]ccs1)c1ccc(NS(=O)(=O)c2cccc(Br)c2)cc1

>  <score_type>  (34) 
oracle

>  <origin>  (34) 
adgpu

>  <m_score__min__energy>  (34) 
-11.289999999999999

>  <m_primary>  (34) 
energy

$$$$
34:0
     RDKit          3D

 25 27  0  0  0  0  0  0  0  0999 V2000
   -3.4530   25.2110  -30.5230 O   0  0  0  0  0  0  0  0  0  0  0  0
   -4.7040   24.5880  -30.6100 C   0  0  0  0  0  0  0  0  0  0  0  0
   -5.7790   25.2630  -30.0340 C   0  0  0  0  0  0  0  0  0  0  0  0
   -7.0570   24.7260  -30.0690 C   0  0  0  0  0  0  0  0  0  0  0  0
   -7.2880   23.4990  -30.6840 C   0  0  0  0  0  0  0  0  0  0  0  0
   -6.2340   22.7710  -31.2840 C   0  0  0  0  0  0  0  0  0  0  0  0
   -4.9160   23.3310  -31.2440 C   0  0  0  0  0  0  0  0  0  0  0  0
   -3.8530   22.6230  -31.8360 C   0  0  0  0  0  0  0  0  0  0  0  0
   -4.0630   21.3980  -32.4530 C   0  0  0  0  0  0  0  0  0  0  0  0
   -5.3370   20.8320  -32.5050 C   0  0  0  0  0  0  0  0  0  0  0  0
   -5.5110   19.5910  -33.1390 C   0  0  0  0  0  0  0  0  0  0  0  0
   -6.7720   19.0030  -33.2050 C   0  0  0  0  0  0  0  0  0  0  0  0
   -7.8690   19.6460  -32.6410 C   0  0  0  0  0  0  0  0  0  0  0  0
   -7.7150   20.8820  -32.0070 C   0  0  0  0  0  0  0  0  0  0  0  0
   -6.4450   21.5080  -31.9230 C   0  0  0  0  0  0  0  0  0  0  0  0
   -3.0930   25.6800  -29.7060 H   0  0  0  0  0  0  0  0  0  0  0  0
   -5.6114   26.2342  -29.5454 H   0  0  0  0  0  0  0  0  0  0  0  0
   -7.8928   25.2728  -29.6082 H   0  0  0  0  0  0  0  0  0  0  0  0
   -8.3082   23.0881  -30.7038 H   0  0  0  0  0  0  0  0  0  0  0  0
   -2.8388   23.0480  -31.8090 H   0  0  0  0  0  0  0  0  0  0  0  0
   -3.2138   20.8662  -32.9070 H   0  0  0  0  0  0  0  0  0  0  0  0
   -4.6458   19.0800  -33.5864 H   0  0  0  0  0  0  0  0  0  0  0  0
   -6.9003   18.0306  -33.7029 H   0  0  0  0  0  0  0  0  0  0  0  0
   -8.8635   19.1790  -32.6943 H   0  0  0  0  0  0  0  0  0  0  0  0
   -8.5927   21.3772  -31.5661 H   0  0  0  0  0  0  0  0  0  0  0  0
  1  2  1  0
  2  3  2  0
  3  4  1  0
  4  5  2  0
  5  6  1  0
  6  7  2  0
  7  8  1  0
  8  9  2  0
  9 10  1  0
 10 11  2  0
 11 12  1  0
 12 13  2  0
 13 14  1  0
 14 15  2  0
  7  2  1  0
 15 10  1  0
 15  6  1  0
  1 16  1  0
  3 17  1  0
  4 18  1  0
  5 19  1  0
  8 20  1  0
  9 21  1  0
 11 22  1  0
 12 23  1  0
 13 24  1  0
 14 25  1  0
M  END
>  <UniqueID>  (35) 
34

>  <SMILES>  (35) 
Oc1cccc2c1ccc1ccccc12

>  <Energy>  (35) 
42.91248116122267

>  <Genealogy>  (35) 
Oc1cccc2c1ccc1ccccc12 (3D coordinates assigned)
Oc1cccc2c1ccc1ccccc12 (optimized conformer: 42.91248116122267 kcal/mol)

>  <smiles>  (35) 
Oc1cccc2c1ccc1ccccc12

>  <score_type>  (35) 
oracle

>  <origin>  (35) 
adgpu

>  <m_score__min__energy>  (35) 
-8.5999999999999996

>  <m_primary>  (35) 
energy

$$$$
35:0
     RDKit          3D

 33 35  0  0  0  0  0  0  0  0999 V2000
   -0.9780   21.4760  -29.7350 O   0  0  0  0  0  0  0  0  0  0  0  0
   -1.2570   22.6840  -29.5170 C   0  0  0  0  0  0  0  0  0  0  0  0
   -2.4760   23.2120  -29.9450 C   0  0  0  0  0  0  0  0  0  0  0  0
   -2.7490   24.5620  -29.6920 C   0  0  0  0  0  0  0  0  0  0  0  0
   -4.0080   25.1280  -30.0920 N   0  0  0  0  0  0  0  0  0  0  0  0
   -5.1780   24.3500  -30.3940 C   0  0  0  0  0  0  0  0  0  0  0  0
   -5.7070   23.4310  -29.4690 C   0  0  0  0  0  0  0  0  0  0  0  0
   -6.8590   22.7020  -29.7780 C   0  0  0  0  0  0  0  0  0  0  0  0
   -7.5000   22.8890  -31.0070 C   0  0  0  0  0  0  0  0  0  0  0  0
   -8.9710   21.9460  -31.4060 S   0  0  0  0  0  0  0  0  0  0  0  0
   -8.0230   20.5400  -31.9860 C   0  0  0  0  0  0  0  0  0  0  0  0
   -8.4220   19.2380  -31.6520 C   0  0  0  0  0  0  0  0  0  0  0  0
   -7.6850   18.1410  -32.1100 C   0  0  0  0  0  0  0  0  0  0  0  0
   -6.5470   18.3420  -32.8980 C   0  0  0  0  0  0  0  0  0  0  0  0
   -6.1450   19.6400  -33.2290 C   0  0  0  0  0  0  0  0  0  0  0  0
   -6.8810   20.7380  -32.7720 C   0  0  0  0  0  0  0  0  0  0  0  0
   -6.9960   23.8230  -31.9200 C   0  0  0  0  0  0  0  0  0  0  0  0
   -5.8450   24.5540  -31.6110 C   0  0  0  0  0  0  0  0  0  0  0  0
   -1.8300   25.3130  -29.0240 N   0  0  0  0  0  0  0  0  0  0  0  0
   -0.6480   24.7820  -28.6150 C   0  0  0  0  0  0  0  0  0  0  0  0
    0.1850   25.5000  -28.0060 O   0  0  0  0  0  0  0  0  0  0  0  0
   -0.3670   23.4770  -28.8650 N   0  0  0  0  0  0  0  0  0  0  0  0
   -3.2075   22.5805  -30.4704 H   0  0  0  0  0  0  0  0  0  0  0  0
   -4.0530   26.1600  -30.2530 H   0  0  0  0  0  0  0  0  0  0  0  0
   -5.2115   23.2855  -28.4978 H   0  0  0  0  0  0  0  0  0  0  0  0
   -7.2623   21.9797  -29.0530 H   0  0  0  0  0  0  0  0  0  0  0  0
   -9.3149   19.0792  -31.0296 H   0  0  0  0  0  0  0  0  0  0  0  0
   -8.0005   17.1197  -31.8504 H   0  0  0  0  0  0  0  0  0  0  0  0
   -5.9679   17.4787  -33.2576 H   0  0  0  0  0  0  0  0  0  0  0  0
   -5.2499   19.7973  -33.8488 H   0  0  0  0  0  0  0  0  0  0  0  0
   -6.5623   21.7586  -33.0304 H   0  0  0  0  0  0  0  0  0  0  0  0
   -7.5061   23.9819  -32.8815 H   0  0  0  0  0  0  0  0  0  0  0  0
   -5.4597   25.2945  -32.3274 H   0  0  0  0  0  0  0  0  0  0  0  0
  1  2  2  0
  2  3  1  0
  3  4  2  0
  4  5  1  0
  5  6  1  0
  6  7  2  0
  7  8  1  0
  8  9  2  0
  9 10  1  0
 10 11  1  0
 11 12  2  0
 12 13  1  0
 13 14  2  0
 14 15  1  0
 15 16  2  0
  9 17  1  0
 17 18  2  0
  4 19  1  0
 19 20  1  0
 20 21  2  0
 20 22  1  0
 22  2  1  0
 18  6  1  0
 16 11  1  0
  3 23  1  0
  5 24  1  0
  7 25  1  0
  8 26  1  0
 12 27  1  0
 13 28  1  0
 14 29  1  0
 15 30  1  0
 16 31  1  0
 17 32  1  0
 18 33  1  0
M  CHG  2  19  -1  22  -1
M  END
>  <UniqueID>  (36) 
35

>  <SMILES>  (36) 
O=c1cc(Nc2ccc(Sc3ccccc3)cc2)[n-]c(=O)[n-]1

>  <Energy>  (36) 
36.283522114505764

>  <Genealogy>  (36) 
O=c1cc(Nc2ccc(Sc3ccccc3)cc2)[n-]c(=O)[n-]1 (protonated)
O=c1cc(Nc2ccc(Sc3ccccc3)cc2)[n-]c(=O)[n-]1 (3D coordinates assigned)
O=c1cc(Nc2ccc(Sc3ccccc3)cc2)[n-]c(=O)[n-]1 (optimized conformer: 36.283522114505764 kcal/mol)

>  <smiles>  (36) 
O=c1cc(Nc2ccc(Sc3ccccc3)cc2)[nH]c(=O)[nH]1

>  <score_type>  (36) 
oracle

>  <origin>  (36) 
adgpu

>  <m_score__min__energy>  (36) 
-11.73

>  <m_primary>  (36) 
energy

$$$$
36:0
     RDKit          3D

 54 56  0  0  0  0  0  0  0  0999 V2000
   -5.3220   24.8760  -29.8960 C   0  0  0  0  0  0  0  0  0  0  0  0
   -4.0420   24.5890  -30.4530 O   0  0  0  0  0  0  0  0  0  0  0  0
   -3.7340   23.4230  -31.1670 C   0  0  0  0  0  0  0  0  0  0  0  0
   -2.5810   22.6590  -30.9060 C   0  0  0  0  0  0  0  0  0  0  0  0
   -2.3190   21.4980  -31.6400 C   0  0  0  0  0  0  0  0  0  0  0  0
   -3.1970   21.0850  -32.6630 C   0  0  0  0  0  0  0  0  0  0  0  0
   -2.9980   19.7850  -33.4400 C   0  0  1  0  0  0  0  0  0  0  0  0
   -1.6220   19.1300  -33.1740 C   0  0  0  0  0  0  0  0  0  0  0  0
   -4.1660   18.8660  -33.2550 N   0  0  2  0  0  0  0  0  0  0  0  0
   -3.8130   17.4320  -33.2970 C   0  0  0  0  0  0  0  0  0  0  0  0
   -4.9500   16.5770  -32.7150 C   0  0  0  0  0  0  0  0  0  0  0  0
   -6.3610   17.0350  -33.1730 C   0  0  1  0  0  0  0  0  0  0  0  0
   -7.3050   17.4320  -32.0050 C   0  0  0  0  0  0  0  0  0  0  0  0
   -7.7330   18.8810  -31.9850 C   0  0  0  0  0  0  0  0  0  0  0  0
   -6.8380   19.8860  -31.5830 C   0  0  0  0  0  0  0  0  0  0  0  0
   -7.2270   21.2280  -31.5970 C   0  0  0  0  0  0  0  0  0  0  0  0
   -8.5260   21.5840  -31.9910 C   0  0  0  0  0  0  0  0  0  0  0  0
   -8.9520   23.0220  -32.0250 C   0  0  0  0  0  0  0  0  0  0  0  0
   -9.4290   20.5810  -32.3730 C   0  0  0  0  0  0  0  0  0  0  0  0
   -9.0390   19.2390  -32.3600 C   0  0  0  0  0  0  0  0  0  0  0  0
   -6.3270   18.0610  -34.3330 C   0  0  0  0  0  0  0  0  0  0  0  0
   -5.2600   19.1770  -34.2070 C   0  0  0  0  0  0  0  0  0  0  0  0
   -4.3500   21.8510  -32.9100 C   0  0  0  0  0  0  0  0  0  0  0  0
   -4.6110   23.0070  -32.1730 C   0  0  0  0  0  0  0  0  0  0  0  0
   -5.2558   24.8612  -28.7981 H   0  0  0  0  0  0  0  0  0  0  0  0
   -5.6526   25.8706  -30.2300 H   0  0  0  0  0  0  0  0  0  0  0  0
   -6.0456   24.1178  -30.2300 H   0  0  0  0  0  0  0  0  0  0  0  0
   -1.8813   22.9774  -30.1193 H   0  0  0  0  0  0  0  0  0  0  0  0
   -1.4213   20.9025  -31.4176 H   0  0  0  0  0  0  0  0  0  0  0  0
   -2.9704   20.0328  -34.5114 H   0  0  0  0  0  0  0  0  0  0  0  0
   -1.4569   19.0514  -32.0893 H   0  0  0  0  0  0  0  0  0  0  0  0
   -1.6014   18.1255  -33.6218 H   0  0  0  0  0  0  0  0  0  0  0  0
   -0.8293   19.7474  -33.6218 H   0  0  0  0  0  0  0  0  0  0  0  0
   -4.5440   19.0660  -32.3010 H   0  0  0  0  0  0  0  0  0  0  0  0
   -3.6348   17.1341  -34.3408 H   0  0  0  0  0  0  0  0  0  0  0  0
   -2.9061   17.2726  -32.6953 H   0  0  0  0  0  0  0  0  0  0  0  0
   -4.8010   15.5348  -33.0337 H   0  0  0  0  0  0  0  0  0  0  0  0
   -4.9118   16.6863  -31.6211 H   0  0  0  0  0  0  0  0  0  0  0  0
   -6.8271   16.1362  -33.6030 H   0  0  0  0  0  0  0  0  0  0  0  0
   -8.2104   16.8111  -32.0737 H   0  0  0  0  0  0  0  0  0  0  0  0
   -6.7299   17.2718  -31.0811 H   0  0  0  0  0  0  0  0  0  0  0  0
   -5.8237   19.6148  -31.2548 H   0  0  0  0  0  0  0  0  0  0  0  0
   -6.5121   22.0087  -31.2979 H   0  0  0  0  0  0  0  0  0  0  0  0
   -9.0628   23.3960  -30.9965 H   0  0  0  0  0  0  0  0  0  0  0  0
   -8.1916   23.6173  -32.5517 H   0  0  0  0  0  0  0  0  0  0  0  0
   -9.9139   23.1071  -32.5517 H   0  0  0  0  0  0  0  0  0  0  0  0
  -10.4487   20.8519  -32.6842 H   0  0  0  0  0  0  0  0  0  0  0  0
   -9.7591   18.4579  -32.6452 H   0  0  0  0  0  0  0  0  0  0  0  0
   -6.1334   17.5112  -35.2658 H   0  0  0  0  0  0  0  0  0  0  0  0
   -7.3011   18.5716  -34.3124 H   0  0  0  0  0  0  0  0  0  0  0  0
   -4.8166   19.3443  -35.1997 H   0  0  0  0  0  0  0  0  0  0  0  0
   -5.7765   20.0661  -33.8163 H   0  0  0  0  0  0  0  0  0  0  0  0
   -5.0546   21.5353  -33.6935 H   0  0  0  0  0  0  0  0  0  0  0  0
   -5.5152   23.5963  -32.3857 H   0  0  0  0  0  0  0  0  0  0  0  0
  1  2  1  0
  2  3  1  0
  3  4  2  0
  4  5  1  0
  5  6  2  0
  6  7  1  0
  7  8  1  0
  7  9  1  0
  9 10  1  0
 10 11  1  0
 11 12  1  0
 12 13  1  0
 13 14  1  0
 14 15  2  0
 15 16  1  0
 16 17  2  0
 17 18  1  0
 17 19  1  0
 19 20  2  0
 12 21  1  0
 21 22  1  0
  6 23  1  0
 23 24  2  0
 24  3  1  0
 22  9  1  0
 20 14  1  0
  1 25  1  0
  1 26  1  0
  1 27  1  0
  4 28  1  0
  5 29  1  0
  7 30  1  6
  8 31  1  0
  8 32  1  0
  8 33  1  0
  9 34  1  1
 10 35  1  0
 10 36  1  0
 11 37  1  0
 11 38  1  0
 12 39  1  6
 13 40  1  0
 13 41  1  0
 15 42  1  0
 16 43  1  0
 18 44  1  0
 18 45  1  0
 18 46  1  0
 19 47  1  0
 20 48  1  0
 21 49  1  0
 21 50  1  0
 22 51  1  0
 22 52  1  0
 23 53  1  0
 24 54  1  0
M  CHG  1   9   1
M  END
>  <UniqueID>  (37) 
36

>  <SMILES>  (37) 
COc1ccc([C@@H](C)[NH+]2CCC(Cc3ccc(C)cc3)CC2)cc1

>  <Energy>  (37) 
66.36497909217253

>  <Genealogy>  (37) 
COc1ccc(C(C)[NH+]2CCC(Cc3ccc(C)cc3)CC2)cc1 (protonated)
COc1ccc([C@@H](C)[NH+]2CCC(Cc3ccc(C)cc3)CC2)cc1 (chirality)
COc1ccc([C@@H](C)[NH+]2CCC(Cc3ccc(C)cc3)CC2)cc1 (3D coordinates assigned)
COc1ccc([C@@H](C)[NH+]2CCC(Cc3ccc(C)cc3)CC2)cc1 (nonaromatic ring conformer: 66.36497909217253 kcal/mol)

>  <smiles>  (37) 
COc1ccc(C(C)N2CCC(Cc3ccc(C)cc3)CC2)cc1

>  <score_type>  (37) 
oracle

>  <origin>  (37) 
adgpu

>  <m_score__min__energy>  (37) 
-8.1600000000000001

>  <m_primary>  (37) 
energy

$$$$
37:0
     RDKit          3D

 36 38  0  0  0  0  0  0  0  0999 V2000
   -3.1150   20.9230  -33.5200 C   0  0  0  0  0  0  0  0  0  0  0  0
   -3.3210   21.5330  -32.1750 C   0  0  0  0  0  0  0  0  0  0  0  0
   -2.9940   20.9480  -30.9660 C   0  0  0  0  0  0  0  0  0  0  0  0
   -3.4040   21.8710  -30.0250 C   0  0  0  0  0  0  0  0  0  0  0  0
   -3.2650   21.7150  -28.5430 C   0  0  0  0  0  0  0  0  0  0  0  0
   -3.9600   22.9240  -30.6640 N   0  0  0  0  0  0  0  0  0  0  0  0
   -4.5580   24.3950  -29.9600 S   0  0  0  0  0  0  0  0  0  0  0  0
   -4.2300   25.5690  -30.8390 O   0  0  0  0  0  0  0  0  0  0  0  0
   -3.9030   24.6010  -28.6230 O   0  0  0  0  0  0  0  0  0  0  0  0
   -6.3250   24.2820  -29.7380 C   0  0  0  0  0  0  0  0  0  0  0  0
   -6.9000   23.3170  -30.7190 C   0  0  0  0  0  0  0  0  0  0  0  0
   -7.8270   23.6310  -31.6450 N   0  0  0  0  0  0  0  0  0  0  0  0
   -8.0320   22.5280  -32.3490 N   0  0  0  0  0  0  0  0  0  0  0  0
   -7.2190   21.5870  -31.8270 C   0  0  0  0  0  0  0  0  0  0  0  0
   -7.0960   20.2070  -32.3340 C   0  0  0  0  0  0  0  0  0  0  0  0
   -6.2690   19.9350  -33.4370 C   0  0  0  0  0  0  0  0  0  0  0  0
   -6.1590   18.6320  -33.9310 C   0  0  0  0  0  0  0  0  0  0  0  0
   -6.8740   17.5910  -33.3300 C   0  0  0  0  0  0  0  0  0  0  0  0
   -6.7670   16.3280  -33.8110 F   0  0  0  0  0  0  0  0  0  0  0  0
   -7.6990   17.8540  -32.2330 C   0  0  0  0  0  0  0  0  0  0  0  0
   -7.8130   19.1560  -31.7360 C   0  0  0  0  0  0  0  0  0  0  0  0
   -6.5270   22.0660  -30.8220 O   0  0  0  0  0  0  0  0  0  0  0  0
   -3.9110   22.7260  -31.9710 N   0  0  0  0  0  0  0  0  0  0  0  0
   -2.7651   19.8867  -33.4029 H   0  0  0  0  0  0  0  0  0  0  0  0
   -4.0649   20.9288  -34.0746 H   0  0  0  0  0  0  0  0  0  0  0  0
   -2.3631   21.5035  -34.0746 H   0  0  0  0  0  0  0  0  0  0  0  0
   -2.5170   19.9719  -30.7935 H   0  0  0  0  0  0  0  0  0  0  0  0
   -3.9141   22.4435  -28.0351 H   0  0  0  0  0  0  0  0  0  0  0  0
   -3.5599   20.6959  -28.2523 H   0  0  0  0  0  0  0  0  0  0  0  0
   -2.2188   21.8909  -28.2523 H   0  0  0  0  0  0  0  0  0  0  0  0
   -6.5428   23.9368  -28.7165 H   0  0  0  0  0  0  0  0  0  0  0  0
   -6.7741   25.2731  -29.8997 H   0  0  0  0  0  0  0  0  0  0  0  0
   -5.7058   20.7508  -33.9137 H   0  0  0  0  0  0  0  0  0  0  0  0
   -5.5090   18.4250  -34.7939 H   0  0  0  0  0  0  0  0  0  0  0  0
   -8.2600   17.0348  -31.7594 H   0  0  0  0  0  0  0  0  0  0  0  0
   -8.4659   19.3586  -30.8742 H   0  0  0  0  0  0  0  0  0  0  0  0
  1  2  1  0
  2  3  1  0
  3  4  2  0
  4  5  1  0
  4  6  1  0
  6  7  1  0
  7  8  2  0
  7  9  2  0
  7 10  1  0
 10 11  1  0
 11 12  2  0
 12 13  1  0
 13 14  2  0
 14 15  1  0
 15 16  2  0
 16 17  1  0
 17 18  2  0
 18 19  1  0
 18 20  1  0
 20 21  2  0
 14 22  1  0
  6 23  1  0
 23  2  2  0
 22 11  1  0
 21 15  1  0
  1 24  1  0
  1 25  1  0
  1 26  1  0
  3 27  1  0
  5 28  1  0
  5 29  1  0
  5 30  1  0
 10 31  1  0
 10 32  1  0
 16 33  1  0
 17 34  1  0
 20 35  1  0
 21 36  1  0
M  END
>  <UniqueID>  (38) 
37

>  <SMILES>  (38) 
Cc1cc(C)n(S(=O)(=O)Cc2nnc(-c3ccc(F)cc3)o2)n1

>  <Energy>  (38) 
94.42911245717715

>  <Genealogy>  (38) 
Cc1cc(C)n(S(=O)(=O)Cc2nnc(-c3ccc(F)cc3)o2)n1 (3D coordinates assigned)
Cc1cc(C)n(S(=O)(=O)Cc2nnc(-c3ccc(F)cc3)o2)n1 (optimized conformer: 94.42911245717715 kcal/mol)

>  <smiles>  (38) 
Cc1cc(C)n(S(=O)(=O)Cc2nnc(-c3ccc(F)cc3)o2)n1

>  <score_type>  (38) 
oracle

>  <origin>  (38) 
adgpu

>  <m_score__min__energy>  (38) 
-8.6999999999999993

>  <m_primary>  (38) 
energy

$$$$
38:0
     RDKit          3D

 44 48  0  0  0  0  0  0  0  0999 V2000
   -3.9420   26.4110  -29.7240 H   0  0  0  0  0  0  0  0  0  0  0  0
   -4.2570   25.6680  -30.3850 N   0  0  0  0  0  0  0  0  0  0  0  0
   -3.6550   24.5240  -30.4770 C   0  0  0  0  0  0  0  0  0  0  0  0
   -4.1000   23.5830  -31.3530 N   0  0  0  0  0  0  0  0  0  0  0  0
   -3.4700   22.3680  -31.4570 C   0  0  0  0  0  0  0  0  0  0  0  0
   -3.9550   21.3840  -32.3950 N   0  0  0  0  0  0  0  0  0  0  0  0
   -3.0800   20.8580  -33.4560 C   0  0  0  0  0  0  0  0  0  0  0  0
   -3.3000   21.3809  -34.3984 H   0  0  0  0  0  0  0  0  0  0  0  0
   -2.0319   21.0225  -33.1654 H   0  0  0  0  0  0  0  0  0  0  0  0
   -3.3100   19.3510  -33.6490 C   0  0  0  0  0  0  0  0  0  0  0  0
   -2.8823   19.0465  -34.6156 H   0  0  0  0  0  0  0  0  0  0  0  0
   -2.8232   18.8217  -32.8166 H   0  0  0  0  0  0  0  0  0  0  0  0
   -4.7400   19.0100  -33.6330 N   0  0  0  0  0  0  0  0  0  0  0  0
   -5.1410   17.6270  -33.6480 C   0  0  0  0  0  0  0  0  0  0  0  0
   -6.3690   17.2470  -34.2180 C   0  0  0  0  0  0  0  0  0  0  0  0
   -7.0238   18.0093  -34.6654 H   0  0  0  0  0  0  0  0  0  0  0  0
   -6.7620   15.9050  -34.2190 C   0  0  0  0  0  0  0  0  0  0  0  0
   -7.7232   15.6148  -34.6683 H   0  0  0  0  0  0  0  0  0  0  0  0
   -5.9370   14.9330  -33.6510 C   0  0  0  0  0  0  0  0  0  0  0  0
   -6.2473   13.8777  -33.6552 H   0  0  0  0  0  0  0  0  0  0  0  0
   -4.7170   15.3000  -33.0770 C   0  0  0  0  0  0  0  0  0  0  0  0
   -3.9150   14.3540  -32.5270 F   0  0  0  0  0  0  0  0  0  0  0  0
   -4.3200   16.6410  -33.0720 C   0  0  0  0  0  0  0  0  0  0  0  0
   -3.3608   16.9260  -32.6152 H   0  0  0  0  0  0  0  0  0  0  0  0
   -5.7410   20.0760  -33.5220 C   0  0  0  0  0  0  0  0  0  0  0  0
   -5.7645   20.6556  -34.4566 H   0  0  0  0  0  0  0  0  0  0  0  0
   -6.7309   19.6318  -33.3408 H   0  0  0  0  0  0  0  0  0  0  0  0
   -5.3760   21.0000  -32.3580 C   0  0  0  0  0  0  0  0  0  0  0  0
   -5.9929   21.9088  -32.4168 H   0  0  0  0  0  0  0  0  0  0  0  0
   -5.5616   20.4590  -31.4184 H   0  0  0  0  0  0  0  0  0  0  0  0
   -2.3810   22.0990  -30.6730 N   0  0  0  0  0  0  0  0  0  0  0  0
   -1.9590   23.0510  -29.8100 C   0  0  0  0  0  0  0  0  0  0  0  0
   -0.9120   22.9480  -28.9730 N   0  0  0  0  0  0  0  0  0  0  0  0
   -0.9550   24.1660  -28.3660 C   0  0  0  0  0  0  0  0  0  0  0  0
   -0.0030   24.5870  -27.3330 C   0  0  0  0  0  0  0  0  0  0  0  0
    1.1070   25.2440  -27.5810 O   0  0  0  0  0  0  0  0  0  0  0  0
    1.7250   25.4650  -26.4450 C   0  0  0  0  0  0  0  0  0  0  0  0
    2.6825   25.9958  -26.3377 H   0  0  0  0  0  0  0  0  0  0  0  0
    0.9910   24.9300  -25.4040 C   0  0  0  0  0  0  0  0  0  0  0  0
    1.2473   24.9522  -24.3345 H   0  0  0  0  0  0  0  0  0  0  0  0
   -0.1270   24.3630  -25.9760 C   0  0  0  0  0  0  0  0  0  0  0  0
   -0.9465   23.8413  -25.4599 H   0  0  0  0  0  0  0  0  0  0  0  0
   -1.9640   24.9580  -28.8070 N   0  0  0  0  0  0  0  0  0  0  0  0
   -2.5760   24.2240  -29.7150 N   0  0  0  0  0  0  0  0  0  0  0  0
  1  2  1  0
  2  3  2  0
  3  4  1  0
  4  5  1  0
  5  6  1  0
  6  7  1  0
  7  8  1  0
  7  9  1  0
  7 10  1  0
 10 11  1  0
 10 12  1  0
 10 13  1  0
 13 14  1  0
 14 15  2  0
 15 16  1  0
 15 17  1  0
 17 18  1  0
 17 19  2  0
 19 20  1  0
 19 21  1  0
 21 22  1  0
 21 23  2  0
 23 24  1  0
 13 25  1  0
 25 26  1  0
 25 27  1  0
 25 28  1  0
 28 29  1  0
 28 30  1  0
  5 31  2  0
 31 32  1  0
 32 33  2  0
 33 34  1  0
 34 35  1  0
 35 36  1  0
 36 37  1  0
 37 38  1  0
 37 39  2  0
 39 40  1  0
 39 41  1  0
 41 42  1  0
 34 43  2  0
 43 44  1  0
 44  3  1  0
 28  6  1  0
 44 32  1  0
 23 14  1  0
 41 35  2  0
M  CHG  1   4  -1
M  END
>  <UniqueID>  (39) 
38

>  <SMILES>  (39) 
[H]/N=c1/[n-]c(N2CCN(c3cccc(F)c3)CC2)nc2nc(-c3ccco3)nn12

>  <Energy>  (39) 
120.57322878595237

>  <Genealogy>  (39) 
N=c1[n-]c(N2CCN(c3cccc(F)c3)CC2)nc2nc(-c3ccco3)nn12 (protonated)
[H]/N=c1/[n-]c(N2CCN(c3cccc(F)c3)CC2)nc2nc(-c3ccco3)nn12 (cis-trans isomerization)
[H]/N=c1/[n-]c(N2CCN(c3cccc(F)c3)CC2)nc2nc(-c3ccco3)nn12 (3D coordinates assigned)
[H]/N=c1/[n-]c(N2CCN(c3cccc(F)c3)CC2)nc2nc(-c3ccco3)nn12 (nonaromatic ring conformer: 120.57322878595237 kcal/mol)

>  <smiles>  (39) 
N=c1[nH]c(N2CCN(c3cccc(F)c3)CC2)nc2nc(-c3ccco3)nn12

>  <score_type>  (39) 
oracle

>  <origin>  (39) 
adgpu

>  <m_score__min__energy>  (39) 
-9.3200000000000003

>  <m_primary>  (39) 
energy

$$$$
39:0
     RDKit          3D

 35 36  0  0  0  0  0  0  0  0999 V2000
   -2.8564   19.3377  -25.4398 H   0  0  0  0  0  0  0  0  0  0  0  0
   -2.3180   19.6050  -26.3610 C   0  0  0  0  0  0  0  0  0  0  0  0
   -2.3580   20.8820  -26.8250 N   0  0  0  0  0  0  0  0  0  0  0  0
   -1.7070   21.2610  -27.9610 C   0  0  0  0  0  0  0  0  0  0  0  0
   -1.7870   22.6730  -28.3900 C   0  0  0  0  0  0  0  0  0  0  0  0
   -0.8320   23.6170  -27.9700 C   0  0  0  0  0  0  0  0  0  0  0  0
    0.4720   23.1970  -26.8640 Cl  0  0  0  0  0  0  0  0  0  0  0  0
   -0.9370   24.9360  -28.4170 C   0  0  0  0  0  0  0  0  0  0  0  0
   -0.1945   25.6827  -28.0988 H   0  0  0  0  0  0  0  0  0  0  0  0
   -1.9520   25.3010  -29.2430 N   0  0  0  0  0  0  0  0  0  0  0  0
   -2.8930   24.4210  -29.6740 C   0  0  0  0  0  0  0  0  0  0  0  0
   -3.8370   24.8590  -30.4580 N   0  0  0  0  0  0  0  0  0  0  0  0
   -4.9670   24.1060  -31.0090 C   0  0  0  0  0  0  0  0  0  0  0  0
   -4.8166   23.0352  -30.8069 H   0  0  0  0  0  0  0  0  0  0  0  0
   -5.0150   24.2949  -32.0916 H   0  0  0  0  0  0  0  0  0  0  0  0
   -6.2950   24.5520  -30.3800 C   0  0  0  0  0  0  0  0  0  0  0  0
   -6.4664   25.6122  -30.6179 H   0  0  0  0  0  0  0  0  0  0  0  0
   -6.2320   24.4037  -29.2919 H   0  0  0  0  0  0  0  0  0  0  0  0
   -7.4280   23.7520  -30.8970 N   0  0  0  0  0  0  0  0  0  0  0  0
   -7.2290   23.4040  -32.3140 C   0  0  0  0  0  0  0  0  0  0  0  0
   -6.6841   22.4511  -32.3845 H   0  0  0  0  0  0  0  0  0  0  0  0
   -8.2068   23.3046  -32.8080 H   0  0  0  0  0  0  0  0  0  0  0  0
   -6.6475   24.1963  -32.8080 H   0  0  0  0  0  0  0  0  0  0  0  0
   -7.5860   22.5220  -30.1060 C   0  0  0  0  0  0  0  0  0  0  0  0
   -7.5543   22.7686  -29.0345 H   0  0  0  0  0  0  0  0  0  0  0  0
   -8.5517   22.0532  -30.3460 H   0  0  0  0  0  0  0  0  0  0  0  0
   -6.7701   21.8244  -30.3460 H   0  0  0  0  0  0  0  0  0  0  0  0
   -2.8120   23.0760  -29.2600 C   0  0  0  0  0  0  0  0  0  0  0  0
   -3.5506   22.3437  -29.6181 H   0  0  0  0  0  0  0  0  0  0  0  0
   -0.9710   20.3030  -28.6890 C   0  0  0  0  0  0  0  0  0  0  0  0
   -0.1570   20.6970  -30.2000 Cl  0  0  0  0  0  0  0  0  0  0  0  0
   -0.9220   18.9860  -28.2210 C   0  0  0  0  0  0  0  0  0  0  0  0
   -0.3516   18.2268  -28.7761 H   0  0  0  0  0  0  0  0  0  0  0  0
   -1.5950   18.6340  -27.0520 C   0  0  0  0  0  0  0  0  0  0  0  0
   -1.5559   17.6001  -26.6785 H   0  0  0  0  0  0  0  0  0  0  0  0
  1  2  1  0
  2  3  2  0
  3  4  1  0
  4  5  1  0
  5  6  1  0
  6  7  1  0
  6  8  2  0
  8  9  1  0
  8 10  1  0
 10 11  1  0
 11 12  2  0
 12 13  1  0
 13 14  1  0
 13 15  1  0
 13 16  1  0
 16 17  1  0
 16 18  1  0
 16 19  1  0
 19 20  1  0
 20 21  1  0
 20 22  1  0
 20 23  1  0
 19 24  1  0
 24 25  1  0
 24 26  1  0
 24 27  1  0
 11 28  1  0
 28 29  1  0
  4 30  2  0
 30 31  1  0
 30 32  1  0
 32 33  1  0
 32 34  2  0
 34 35  1  0
 34  2  1  0
 28  5  2  0
M  CHG  1  10  -1
M  END
>  <UniqueID>  (40) 
39

>  <SMILES>  (40) 
CN(C)CC/N=c1\cc(-c2ncccc2Cl)c(Cl)c[n-]1

>  <Energy>  (40) 
45.45029651687094

>  <Genealogy>  (40) 
CN(C)CCN=c1cc(-c2ncccc2Cl)c(Cl)c[n-]1 (protonated)
CN(C)CC/N=c1\cc(-c2ncccc2Cl)c(Cl)c[n-]1 (cis-trans isomerization)
CN(C)CC/N=c1\cc(-c2ncccc2Cl)c(Cl)c[n-]1 (3D coordinates assigned)
CN(C)CC/N=c1\cc(-c2ncccc2Cl)c(Cl)c[n-]1 (optimized conformer: 45.45029651687094 kcal/mol)

>  <smiles>  (40) 
CN(C)CCN=c1cc(-c2ncccc2Cl)c(Cl)c[nH]1

>  <score_type>  (40) 
oracle

>  <origin>  (40) 
adgpu

>  <m_score__min__energy>  (40) 
-8.4600000000000009

>  <m_primary>  (40) 
energy

$$$$
40:0
     RDKit          3D

 38 40  0  0  0  0  0  0  0  0999 V2000
   -5.9670   25.4240  -30.2240 O   0  0  0  0  0  0  0  0  0  0  0  0
   -4.9340   24.9550  -30.7700 C   0  0  0  0  0  0  0  0  0  0  0  0
   -3.6320   25.2980  -30.2780 N   0  0  0  0  0  0  0  0  0  0  0  0
   -2.8470   24.5490  -29.3380 C   0  0  0  0  0  0  0  0  0  0  0  0
   -1.5890   25.0420  -28.9710 C   0  0  0  0  0  0  0  0  0  0  0  0
   -0.7840   24.3340  -28.0750 C   0  0  0  0  0  0  0  0  0  0  0  0
   -1.2210   23.1110  -27.5510 C   0  0  0  0  0  0  0  0  0  0  0  0
   -0.2130   22.2240  -26.4110 S   0  0  0  0  0  0  0  0  0  0  0  0
   -1.0860   21.5430  -25.3940 O   0  0  0  0  0  0  0  0  0  0  0  0
    0.5870   21.1870  -27.1490 O   0  0  0  0  0  0  0  0  0  0  0  0
    0.8540   23.3390  -25.6200 N   0  0  0  0  0  0  0  0  0  0  0  0
    0.4670   24.4680  -25.1080 C   0  0  0  0  0  0  0  0  0  0  0  0
   -0.8390   24.8510  -25.1630 N   0  0  0  0  0  0  0  0  0  0  0  0
   -1.2450   26.0320  -24.6260 C   0  0  0  0  0  0  0  0  0  0  0  0
   -0.3180   26.8690  -24.0090 C   0  0  0  0  0  0  0  0  0  0  0  0
    1.0150   26.4620  -23.9600 C   0  0  0  0  0  0  0  0  0  0  0  0
    1.3820   25.2750  -24.5080 N   0  0  0  0  0  0  0  0  0  0  0  0
   -2.4720   22.6040  -27.9270 C   0  0  0  0  0  0  0  0  0  0  0  0
   -3.2780   23.3130  -28.8230 C   0  0  0  0  0  0  0  0  0  0  0  0
   -5.0760   24.1670  -31.9560 N   0  0  0  0  0  0  0  0  0  0  0  0
   -5.8140   22.9410  -32.0720 C   0  0  0  0  0  0  0  0  0  0  0  0
   -5.2590   21.7930  -32.6660 C   0  0  0  0  0  0  0  0  0  0  0  0
   -6.0020   20.6100  -32.7410 C   0  0  0  0  0  0  0  0  0  0  0  0
   -5.3060   19.1830  -33.4890 Cl  0  0  0  0  0  0  0  0  0  0  0  0
   -7.2940   20.5600  -32.2090 C   0  0  0  0  0  0  0  0  0  0  0  0
   -7.8410   21.6900  -31.5930 C   0  0  0  0  0  0  0  0  0  0  0  0
   -9.4560   21.6220  -30.9110 Cl  0  0  0  0  0  0  0  0  0  0  0  0
   -7.0990   22.8730  -31.5170 C   0  0  0  0  0  0  0  0  0  0  0  0
   -1.2318   25.9938  -29.3912 H   0  0  0  0  0  0  0  0  0  0  0  0
    0.1957   24.7383  -27.7804 H   0  0  0  0  0  0  0  0  0  0  0  0
   -2.3036   26.3262  -24.6786 H   0  0  0  0  0  0  0  0  0  0  0  0
   -0.6301   27.8284  -23.5707 H   0  0  0  0  0  0  0  0  0  0  0  0
    1.7685   27.1020  -23.4778 H   0  0  0  0  0  0  0  0  0  0  0  0
   -2.8211   21.6452  -27.5160 H   0  0  0  0  0  0  0  0  0  0  0  0
   -4.2526   22.9028  -29.1262 H   0  0  0  0  0  0  0  0  0  0  0  0
   -4.2375   21.8256  -33.0728 H   0  0  0  0  0  0  0  0  0  0  0  0
   -7.8803   19.6316  -32.2750 H   0  0  0  0  0  0  0  0  0  0  0  0
   -7.5266   23.7554  -31.0186 H   0  0  0  0  0  0  0  0  0  0  0  0
  1  2  2  0
  2  3  1  0
  3  4  1  0
  4  5  2  0
  5  6  1  0
  6  7  2  0
  7  8  1  0
  8  9  2  0
  8 10  2  0
  8 11  1  0
 11 12  2  3
 12 13  1  0
 13 14  2  0
 14 15  1  0
 15 16  2  0
 16 17  1  0
  7 18  1  0
 18 19  2  0
  2 20  1  0
 20 21  1  0
 21 22  2  0
 22 23  1  0
 23 24  1  0
 23 25  2  0
 25 26  1  0
 26 27  1  0
 26 28  2  0
 19  4  1  0
 28 21  1  0
 17 12  1  0
  5 29  1  0
  6 30  1  0
 14 31  1  0
 15 32  1  0
 16 33  1  0
 18 34  1  0
 19 35  1  0
 22 36  1  0
 25 37  1  0
 28 38  1  0
M  CHG  3   3  -1  17  -1  20  -1
M  END
>  <UniqueID>  (41) 
40

>  <SMILES>  (41) 
O=C([N-]c1ccc(S(=O)(=O)N=c2nccc[n-]2)cc1)[N-]c1cc(Cl)cc(Cl)c1

>  <Energy>  (41) 
52.272973326188556

>  <Genealogy>  (41) 
O=C([N-]c1ccc(S(=O)(=O)N=c2nccc[n-]2)cc1)[N-]c1cc(Cl)cc(Cl)c1 (protonated)
O=C([N-]c1ccc(S(=O)(=O)N=c2nccc[n-]2)cc1)[N-]c1cc(Cl)cc(Cl)c1 (3D coordinates assigned)
O=C([N-]c1ccc(S(=O)(=O)N=c2nccc[n-]2)cc1)[N-]c1cc(Cl)cc(Cl)c1 (optimized conformer: 52.272973326188556 kcal/mol)

>  <smiles>  (41) 
O=C(Nc1ccc(S(=O)(=O)N=c2nccc[nH]2)cc1)Nc1cc(Cl)cc(Cl)c1

>  <score_type>  (41) 
oracle

>  <origin>  (41) 
adgpu

>  <m_score__min__energy>  (41) 
-12.640000000000001

>  <m_primary>  (41) 
energy

$$$$
41:0
     RDKit          3D

 59 62  0  0  0  0  0  0  0  0999 V2000
   -3.0260   21.3090  -31.5620 C   0  0  0  0  0  0  0  0  0  0  0  0
   -3.3660   22.6830  -31.6880 O   0  0  0  0  0  0  0  0  0  0  0  0
   -4.5330   23.2650  -31.1700 C   0  0  0  0  0  0  0  0  0  0  0  0
   -5.8130   22.7460  -31.4490 C   0  0  0  0  0  0  0  0  0  0  0  0
   -6.9490   23.3450  -30.9040 C   0  0  0  0  0  0  0  0  0  0  0  0
   -6.8210   24.4500  -30.0620 C   0  0  0  0  0  0  0  0  0  0  0  0
   -5.5590   24.9640  -29.7710 C   0  0  0  0  0  0  0  0  0  0  0  0
   -4.4140   24.4020  -30.3540 C   0  0  0  0  0  0  0  0  0  0  0  0
   -3.1110   24.9210  -30.0770 N   0  0  0  0  0  0  0  0  0  0  0  0
   -2.2090   24.6630  -28.6170 S   0  0  0  0  0  0  0  0  0  0  0  0
   -0.9750   25.5210  -28.6550 O   0  0  0  0  0  0  0  0  0  0  0  0
   -3.0480   25.0830  -27.4450 O   0  0  0  0  0  0  0  0  0  0  0  0
   -1.7420   22.9770  -28.4040 C   0  0  0  0  0  0  0  0  0  0  0  0
   -2.5360   22.1110  -27.6400 C   0  0  0  0  0  0  0  0  0  0  0  0
   -2.1220   20.7980  -27.4010 C   0  0  0  0  0  0  0  0  0  0  0  0
   -0.9070   20.3280  -27.9240 C   0  0  0  0  0  0  0  0  0  0  0  0
   -0.4780   18.9330  -27.6580 C   0  0  0  0  0  0  0  0  0  0  0  0
   -1.3010   18.1160  -27.1660 O   0  0  0  0  0  0  0  0  0  0  0  0
    0.8640   18.5000  -27.9310 N   0  0  0  0  0  0  0  0  0  0  0  0
    1.1990   17.1130  -28.0960 C   0  0  0  0  0  0  0  0  0  0  0  0
    1.4240   16.3280  -26.9570 C   0  0  0  0  0  0  0  0  0  0  0  0
    1.6990   14.9640  -27.0820 C   0  0  0  0  0  0  0  0  0  0  0  0
    1.7610   14.3750  -28.3460 C   0  0  0  0  0  0  0  0  0  0  0  0
    1.5670   15.1510  -29.4890 C   0  0  0  0  0  0  0  0  0  0  0  0
    1.2990   16.5240  -29.3790 C   0  0  0  0  0  0  0  0  0  0  0  0
    1.2040   17.3210  -30.5710 N   0  0  0  0  0  0  0  0  0  0  0  0
    2.3280   18.1830  -30.9590 C   0  0  0  0  0  0  0  0  0  0  0  0
    2.3670   18.3240  -32.4830 C   0  0  0  0  0  0  0  0  0  0  0  0
    1.0280   18.8160  -33.0710 C   0  0  0  0  0  0  0  0  0  0  0  0
   -0.1540   18.7320  -32.0920 C   0  0  0  0  0  0  0  0  0  0  0  0
   -0.1000   17.4660  -31.2330 C   0  0  0  0  0  0  0  0  0  0  0  0
   -0.1290   21.1950  -28.7160 C   0  0  0  0  0  0  0  0  0  0  0  0
   -0.5440   22.5080  -28.9500 C   0  0  0  0  0  0  0  0  0  0  0  0
   -2.9604   21.0437  -30.4965 H   0  0  0  0  0  0  0  0  0  0  0  0
   -3.7991   20.6941  -32.0460 H   0  0  0  0  0  0  0  0  0  0  0  0
   -2.0554   21.1256  -32.0460 H   0  0  0  0  0  0  0  0  0  0  0  0
   -5.9169   21.8649  -32.0992 H   0  0  0  0  0  0  0  0  0  0  0  0
   -7.9468   22.9456  -31.1384 H   0  0  0  0  0  0  0  0  0  0  0  0
   -7.7175   24.9161  -29.6273 H   0  0  0  0  0  0  0  0  0  0  0  0
   -5.4603   25.8147  -29.0807 H   0  0  0  0  0  0  0  0  0  0  0  0
   -3.4909   22.4671  -27.2260 H   0  0  0  0  0  0  0  0  0  0  0  0
   -2.7528   20.1277  -26.7986 H   0  0  0  0  0  0  0  0  0  0  0  0
    1.6440   19.1850  -27.8180 H   0  0  0  0  0  0  0  0  0  0  0  0
    1.3838   16.7885  -25.9588 H   0  0  0  0  0  0  0  0  0  0  0  0
    1.8670   14.3531  -26.1828 H   0  0  0  0  0  0  0  0  0  0  0  0
    1.9630   13.2979  -28.4409 H   0  0  0  0  0  0  0  0  0  0  0  0
    1.6245   14.6835  -30.4830 H   0  0  0  0  0  0  0  0  0  0  0  0
    2.2019   19.1760  -30.5029 H   0  0  0  0  0  0  0  0  0  0  0  0
    3.2695   17.7336  -30.6102 H   0  0  0  0  0  0  0  0  0  0  0  0
    3.1541   19.0447  -32.7495 H   0  0  0  0  0  0  0  0  0  0  0  0
    2.5678   17.3275  -32.9034 H   0  0  0  0  0  0  0  0  0  0  0  0
    1.1496   19.8656  -33.3770 H   0  0  0  0  0  0  0  0  0  0  0  0
    0.7890   18.1531  -33.9156 H   0  0  0  0  0  0  0  0  0  0  0  0
   -0.1303   19.6108  -31.4308 H   0  0  0  0  0  0  0  0  0  0  0  0
   -1.0818   18.7022  -32.6822 H   0  0  0  0  0  0  0  0  0  0  0  0
   -0.8865   17.5205  -30.4659 H   0  0  0  0  0  0  0  0  0  0  0  0
   -0.2532   16.5964  -31.8890 H   0  0  0  0  0  0  0  0  0  0  0  0
    0.8136   20.8349  -29.1540 H   0  0  0  0  0  0  0  0  0  0  0  0
    0.0750   23.1760  -29.5669 H   0  0  0  0  0  0  0  0  0  0  0  0
  1  2  1  0
  2  3  1  0
  3  4  2  0
  4  5  1  0
  5  6  2  0
  6  7  1  0
  7  8  2  0
  8  9  1  0
  9 10  1  0
 10 11  2  0
 10 12  2  0
 10 13  1  0
 13 14  2  0
 14 15  1  0
 15 16  2  0
 16 17  1  0
 17 18  2  0
 17 19  1  0
 19 20  1  0
 20 21  2  0
 21 22  1  0
 22 23  2  0
 23 24  1  0
 24 25  2  0
 25 26  1  0
 26 27  1  0
 27 28  1  0
 28 29  1  0
 29 30  1  0
 30 31  1  0
 16 32  1  0
 32 33  2  0
  8  3  1  0
 33 13  1  0
 25 20  1  0
 31 26  1  0
  1 34  1  0
  1 35  1  0
  1 36  1  0
  4 37  1  0
  5 38  1  0
  6 39  1  0
  7 40  1  0
 14 41  1  0
 15 42  1  0
 19 43  1  0
 21 44  1  0
 22 45  1  0
 23 46  1  0
 24 47  1  0
 27 48  1  0
 27 49  1  0
 28 50  1  0
 28 51  1  0
 29 52  1  0
 29 53  1  0
 30 54  1  0
 30 55  1  0
 31 56  1  0
 31 57  1  0
 32 58  1  0
 33 59  1  0
M  CHG  1   9  -1
M  END
>  <UniqueID>  (42) 
41

>  <SMILES>  (42) 
COc1ccccc1[N-]S(=O)(=O)c1ccc(C(=O)Nc2ccccc2N2CCCCC2)cc1

>  <Energy>  (42) 
80.99984893712218

>  <Genealogy>  (42) 
COc1ccccc1[N-]S(=O)(=O)c1ccc(C(=O)Nc2ccccc2N2CCCCC2)cc1 (protonated)
COc1ccccc1[N-]S(=O)(=O)c1ccc(C(=O)Nc2ccccc2N2CCCCC2)cc1 (3D coordinates assigned)
COc1ccccc1[N-]S(=O)(=O)c1ccc(C(=O)Nc2ccccc2N2CCCCC2)cc1 (nonaromatic ring conformer: 80.99984893712218 kcal/mol)

>  <smiles>  (42) 
COc1ccccc1NS(=O)(=O)c1ccc(C(=O)Nc2ccccc2N2CCCCC2)cc1

>  <score_type>  (42) 
oracle

>  <origin>  (42) 
adgpu

>  <m_score__min__energy>  (42) 
-10.91

>  <m_primary>  (42) 
energy

$$$$
42:0
     RDKit          3D

 24 24  0  0  0  0  0  0  0  0999 V2000
   -3.0200   22.6450  -31.1990 C   0  0  0  0  0  0  0  0  0  0  0  0
   -4.4170   23.1880  -31.0770 C   0  0  0  0  0  0  0  0  0  0  0  0
   -5.5080   22.4210  -31.5220 C   0  0  0  0  0  0  0  0  0  0  0  0
   -6.8090   22.9140  -31.4130 C   0  0  0  0  0  0  0  0  0  0  0  0
   -7.0370   24.1710  -30.8530 C   0  0  0  0  0  0  0  0  0  0  0  0
   -5.9620   24.9450  -30.4090 C   0  0  0  0  0  0  0  0  0  0  0  0
   -4.6420   24.4710  -30.5340 C   0  0  0  0  0  0  0  0  0  0  0  0
   -3.5230   25.2420  -30.0650 N   0  0  0  0  0  0  0  0  0  0  0  0
   -2.6560   24.9100  -28.9730 C   0  0  0  0  0  0  0  0  0  0  0  0
   -1.4040   24.9560  -29.1040 O   0  0  0  0  0  0  0  0  0  0  0  0
   -3.2490   24.3940  -27.6980 C   0  0  0  0  0  0  0  0  0  0  0  0
   -4.5980   24.9220  -27.5050 N   0  0  0  0  0  0  0  0  0  0  0  0
   -2.6009   22.4821  -30.1951 H   0  0  0  0  0  0  0  0  0  0  0  0
   -3.0440   21.6907  -31.7456 H   0  0  0  0  0  0  0  0  0  0  0  0
   -2.3932   23.3650  -31.7456 H   0  0  0  0  0  0  0  0  0  0  0  0
   -5.3351   21.4263  -31.9587 H   0  0  0  0  0  0  0  0  0  0  0  0
   -7.6565   22.3100  -31.7695 H   0  0  0  0  0  0  0  0  0  0  0  0
   -8.0643   24.5533  -30.7609 H   0  0  0  0  0  0  0  0  0  0  0  0
   -6.1480   25.9313  -29.9588 H   0  0  0  0  0  0  0  0  0  0  0  0
   -3.2935   23.2957  -27.7390 H   0  0  0  0  0  0  0  0  0  0  0  0
   -2.6183   24.7192  -26.8575 H   0  0  0  0  0  0  0  0  0  0  0  0
   -4.5760   25.6510  -26.7560 H   0  0  0  0  0  0  0  0  0  0  0  0
   -5.2460   24.1550  -27.2140 H   0  0  0  0  0  0  0  0  0  0  0  0
   -4.9420   25.3590  -28.3920 H   0  0  0  0  0  0  0  0  0  0  0  0
  1  2  1  0
  2  3  2  0
  3  4  1  0
  4  5  2  0
  5  6  1  0
  6  7  2  0
  7  8  1  0
  8  9  1  0
  9 10  2  0
  9 11  1  0
 11 12  1  0
  7  2  1  0
  1 13  1  0
  1 14  1  0
  1 15  1  0
  3 16  1  0
  4 17  1  0
  5 18  1  0
  6 19  1  0
 11 20  1  0
 11 21  1  0
 12 22  1  0
 12 23  1  0
 12 24  1  0
M  CHG  2   8  -1  12   1
M  END
>  <UniqueID>  (43) 
42

>  <SMILES>  (43) 
Cc1ccccc1[N-]C(=O)C[NH3+]

>  <Energy>  (43) 
22.96350992910972

>  <Genealogy>  (43) 
Cc1ccccc1[N-]C(=O)C[NH3+] (protonated)
Cc1ccccc1[N-]C(=O)C[NH3+] (3D coordinates assigned)
Cc1ccccc1[N-]C(=O)C[NH3+] (optimized conformer: 22.96350992910972 kcal/mol)

>  <smiles>  (43) 
Cc1ccccc1NC(=O)CN

>  <score_type>  (43) 
oracle

>  <origin>  (43) 
adgpu

>  <m_score__min__energy>  (43) 
-6.4000000000000004

>  <m_primary>  (43) 
energy

$$$$
43:0
     RDKit          3D

 46 48  0  0  0  0  0  0  0  0999 V2000
   -1.6078   17.5559  -27.9214 H   0  0  0  0  0  0  0  0  0  0  0  0
   -1.2320   18.5510  -27.6410 C   0  0  0  0  0  0  0  0  0  0  0  0
   -0.0620   19.0470  -28.2260 C   0  0  0  0  0  0  0  0  0  0  0  0
    0.4810   18.4431  -28.9680 H   0  0  0  0  0  0  0  0  0  0  0  0
    0.4170   20.3110  -27.8670 C   0  0  0  0  0  0  0  0  0  0  0  0
    1.3357   20.7000  -28.3304 H   0  0  0  0  0  0  0  0  0  0  0  0
   -0.2690   21.0860  -26.9180 C   0  0  0  0  0  0  0  0  0  0  0  0
    0.2150   22.4710  -26.5680 C   0  0  0  0  0  0  0  0  0  0  0  0
    0.6792   22.9216  -27.4577 H   0  0  0  0  0  0  0  0  0  0  0  0
    0.9406   22.3825  -25.7460 H   0  0  0  0  0  0  0  0  0  0  0  0
   -0.9340   23.3730  -26.0960 C   0  0  0  0  0  0  0  0  0  0  0  0
   -0.5129   24.2246  -25.5416 H   0  0  0  0  0  0  0  0  0  0  0  0
   -1.5980   22.7729  -25.4564 H   0  0  0  0  0  0  0  0  0  0  0  0
   -1.7490   23.8990  -27.2540 C   0  0  0  0  0  0  0  0  0  0  0  0
   -3.0080   23.3500  -27.5240 C   0  0  0  0  0  0  0  0  0  0  0  0
   -3.4144   22.5646  -26.8698 H   0  0  0  0  0  0  0  0  0  0  0  0
   -3.7480   23.7930  -28.6160 C   0  0  0  0  0  0  0  0  0  0  0  0
   -4.7328   23.3529  -28.8317 H   0  0  0  0  0  0  0  0  0  0  0  0
   -3.2300   24.8070  -29.4430 C   0  0  0  0  0  0  0  0  0  0  0  0
   -3.8860   25.2680  -30.4740 N   0  0  0  0  0  0  0  0  0  0  0  0
   -5.2350   24.9640  -30.8600 C   0  0  0  0  0  0  0  0  0  0  0  0
   -6.1840   25.4210  -30.1720 O   0  0  0  0  0  0  0  0  0  0  0  0
   -5.5330   24.1290  -31.9870 N   0  0  0  0  0  0  0  0  0  0  0  0
   -6.4590   23.0320  -32.0060 C   0  0  0  0  0  0  0  0  0  0  0  0
   -6.0540   21.7260  -32.3370 C   0  0  0  0  0  0  0  0  0  0  0  0
   -5.0023   21.5253  -32.5894 H   0  0  0  0  0  0  0  0  0  0  0  0
   -6.9840   20.6830  -32.3460 C   0  0  0  0  0  0  0  0  0  0  0  0
   -6.6653   19.6657  -32.6171 H   0  0  0  0  0  0  0  0  0  0  0  0
   -8.3190   20.9300  -32.0110 C   0  0  0  0  0  0  0  0  0  0  0  0
   -9.2200   19.9170  -32.0190 F   0  0  0  0  0  0  0  0  0  0  0  0
   -8.7210   22.2210  -31.6570 C   0  0  0  0  0  0  0  0  0  0  0  0
   -9.7693   22.4149  -31.3859 H   0  0  0  0  0  0  0  0  0  0  0  0
   -7.7920   23.2670  -31.6470 C   0  0  0  0  0  0  0  0  0  0  0  0
   -8.1102   24.2789  -31.3557 H   0  0  0  0  0  0  0  0  0  0  0  0
   -1.9870   25.3070  -29.1820 N   0  0  0  0  0  0  0  0  0  0  0  0
   -1.6120   26.0450  -29.8200 H   0  0  0  0  0  0  0  0  0  0  0  0
   -1.2390   24.8840  -28.1160 C   0  0  0  0  0  0  0  0  0  0  0  0
    0.0380   25.4130  -27.8630 O   0  0  0  0  0  0  0  0  0  0  0  0
    0.3040   26.4680  -26.9450 C   0  0  0  0  0  0  0  0  0  0  0  0
    0.2090   26.0912  -25.9159 H   0  0  0  0  0  0  0  0  0  0  0  0
    1.3252   26.8444  -27.1049 H   0  0  0  0  0  0  0  0  0  0  0  0
   -0.4166   27.2836  -27.1049 H   0  0  0  0  0  0  0  0  0  0  0  0
   -1.4490   20.5830  -26.3420 C   0  0  0  0  0  0  0  0  0  0  0  0
   -2.0006   21.1868  -25.6064 H   0  0  0  0  0  0  0  0  0  0  0  0
   -1.9230   19.3190  -26.7010 C   0  0  0  0  0  0  0  0  0  0  0  0
   -2.8429   18.9274  -26.2422 H   0  0  0  0  0  0  0  0  0  0  0  0
  1  2  1  0
  2  3  2  0
  3  4  1  0
  3  5  1  0
  5  6  1  0
  5  7  2  0
  7  8  1  0
  8  9  1  0
  8 10  1  0
  8 11  1  0
 11 12  1  0
 11 13  1  0
 11 14  1  0
 14 15  1  0
 15 16  1  0
 15 17  2  0
 17 18  1  0
 17 19  1  0
 19 20  2  0
 20 21  1  0
 21 22  2  0
 21 23  1  0
 23 24  1  0
 24 25  2  0
 25 26  1  0
 25 27  1  0
 27 28  1  0
 27 29  2  0
 29 30  1  0
 29 31  1  0
 31 32  1  0
 31 33  2  0
 33 34  1  0
 19 35  1  0
 35 36  1  0
 35 37  1  0
 37 38  1  0
 38 39  1  0
 39 40  1  0
 39 41  1  0
 39 42  1  0
  7 43  1  0
 43 44  1  0
 43 45  2  0
 45 46  1  0
 45  2  1  0
 37 14  2  0
 33 24  1  0
M  CHG  1  23  -1
M  END
>  <UniqueID>  (44) 
43

>  <SMILES>  (44) 
COc1[nH]/c(=N/C(=O)[N-]c2ccc(F)cc2)ccc1CCc1ccccc1

>  <Energy>  (44) 
55.49573430990754

>  <Genealogy>  (44) 
COc1[nH]c(=NC(=O)[N-]c2ccc(F)cc2)ccc1CCc1ccccc1 (protonated)
COc1[nH]/c(=N/C(=O)[N-]c2ccc(F)cc2)ccc1CCc1ccccc1 (cis-trans isomerization)
COc1[nH]/c(=N/C(=O)[N-]c2ccc(F)cc2)ccc1CCc1ccccc1 (3D coordinates assigned)
COc1[nH]/c(=N/C(=O)[N-]c2ccc(F)cc2)ccc1CCc1ccccc1 (optimized conformer: 55.49573430990754 kcal/mol)

>  <smiles>  (44) 
COc1[nH]c(=NC(=O)Nc2ccc(F)cc2)ccc1CCc1ccccc1

>  <score_type>  (44) 
oracle

>  <origin>  (44) 
adgpu

>  <m_score__min__energy>  (44) 
-10.66

>  <m_primary>  (44) 
energy

$$$$
44:0
     RDKit          3D

 33 35  0  0  0  0  0  0  0  0999 V2000
   -0.2769   28.3336  -23.7148 H   0  0  0  0  0  0  0  0  0  0  0  0
   -0.5350   27.7890  -24.6350 C   0  0  0  0  0  0  0  0  0  0  0  0
   -1.2430   26.5870  -24.5600 C   0  0  0  0  0  0  0  0  0  0  0  0
   -1.5414   26.1858  -23.5802 H   0  0  0  0  0  0  0  0  0  0  0  0
   -1.5730   25.8930  -25.7280 C   0  0  0  0  0  0  0  0  0  0  0  0
   -2.1305   24.9470  -25.6620 H   0  0  0  0  0  0  0  0  0  0  0  0
   -1.1970   26.3960  -26.9880 C   0  0  0  0  0  0  0  0  0  0  0  0
   -1.5460   25.6620  -28.2270 C   0  0  0  0  0  0  0  0  0  0  0  0
   -1.0900   26.0540  -29.3370 O   0  0  0  0  0  0  0  0  0  0  0  0
   -2.4030   24.5090  -28.1590 N   0  0  0  0  0  0  0  0  0  0  0  0
   -3.3140   24.1760  -29.0240 C   0  0  0  0  0  0  0  0  0  0  0  0
   -3.6020   24.8770  -30.1430 N   0  0  0  0  0  0  0  0  0  0  0  0
   -4.5770   24.3260  -30.8650 N   0  0  0  0  0  0  0  0  0  0  0  0
   -5.0720   23.1850  -30.3280 C   0  0  0  0  0  0  0  0  0  0  0  0
   -6.1600   22.3950  -30.9500 C   0  0  0  0  0  0  0  0  0  0  0  0
   -7.4960   22.6080  -30.5660 C   0  0  0  0  0  0  0  0  0  0  0  0
   -7.7303   23.3632  -29.8013 H   0  0  0  0  0  0  0  0  0  0  0  0
   -8.5290   21.8670  -31.1490 C   0  0  0  0  0  0  0  0  0  0  0  0
   -9.5691   22.0359  -30.8331 H   0  0  0  0  0  0  0  0  0  0  0  0
   -8.2460   20.9100  -32.1340 C   0  0  0  0  0  0  0  0  0  0  0  0
   -9.3510   20.0880  -32.7290 C   0  0  0  0  0  0  0  0  0  0  0  0
   -9.9511   19.6416  -31.9224 H   0  0  0  0  0  0  0  0  0  0  0  0
   -9.9921   20.7305  -33.3504 H   0  0  0  0  0  0  0  0  0  0  0  0
   -8.9200   19.2892  -33.3504 H   0  0  0  0  0  0  0  0  0  0  0  0
   -6.9150   20.6810  -32.5070 C   0  0  0  0  0  0  0  0  0  0  0  0
   -6.6829   19.9151  -33.2616 H   0  0  0  0  0  0  0  0  0  0  0  0
   -5.8800   21.4200  -31.9260 C   0  0  0  0  0  0  0  0  0  0  0  0
   -4.8397   21.2382  -32.2337 H   0  0  0  0  0  0  0  0  0  0  0  0
   -4.2800   22.8110  -28.8810 S   0  0  0  0  0  0  0  0  0  0  0  0
   -0.4820   27.6090  -27.0500 C   0  0  0  0  0  0  0  0  0  0  0  0
   -0.1792   28.0157  -28.0262 H   0  0  0  0  0  0  0  0  0  0  0  0
   -0.1550   28.2990  -25.8780 C   0  0  0  0  0  0  0  0  0  0  0  0
    0.4027   29.2454  -25.9357 H   0  0  0  0  0  0  0  0  0  0  0  0
  1  2  1  0
  2  3  2  0
  3  4  1  0
  3  5  1  0
  5  6  1  0
  5  7  2  0
  7  8  1  0
  8  9  2  0
  8 10  1  0
 10 11  2  0
 11 12  1  0
 12 13  1  0
 13 14  2  0
 14 15  1  0
 15 16  2  0
 16 17  1  0
 16 18  1  0
 18 19  1  0
 18 20  2  0
 20 21  1  0
 21 22  1  0
 21 23  1  0
 21 24  1  0
 20 25  1  0
 25 26  1  0
 25 27  2  0
 27 28  1  0
 14 29  1  0
  7 30  1  0
 30 31  1  0
 30 32  2  0
 32 33  1  0
 32  2  1  0
 29 11  1  0
 27 15  1  0
M  CHG  1  12  -1
M  END
>  <UniqueID>  (45) 
44

>  <SMILES>  (45) 
Cc1ccc(-c2n[n-]/c(=N\C(=O)c3ccccc3)s2)cc1

>  <Energy>  (45) 
73.20099069980975

>  <Genealogy>  (45) 
Cc1ccc(-c2n[n-]c(=NC(=O)c3ccccc3)s2)cc1 (protonated)
Cc1ccc(-c2n[n-]/c(=N\C(=O)c3ccccc3)s2)cc1 (cis-trans isomerization)
Cc1ccc(-c2n[n-]/c(=N\C(=O)c3ccccc3)s2)cc1 (3D coordinates assigned)
Cc1ccc(-c2n[n-]/c(=N\C(=O)c3ccccc3)s2)cc1 (optimized conformer: 73.20099069980975 kcal/mol)

>  <smiles>  (45) 
Cc1ccc(-c2n[nH]c(=NC(=O)c3ccccc3)s2)cc1

>  <score_type>  (45) 
oracle

>  <origin>  (45) 
adgpu

>  <m_score__min__energy>  (45) 
-10.02

>  <m_primary>  (45) 
energy

$$$$
45:0
     RDKit          3D

 31 33  0  0  0  0  0  0  0  0999 V2000
   -5.5082   18.2014  -33.4326 H   0  0  0  0  0  0  0  0  0  0  0  0
   -6.3400   17.4850  -33.3630 C   0  0  0  0  0  0  0  0  0  0  0  0
   -7.4970   17.8880  -32.9350 N   0  0  0  0  0  0  0  0  0  0  0  0
   -7.7890   19.2320  -32.5320 C   0  0  0  0  0  0  0  0  0  0  0  0
   -6.8220   20.1210  -32.2320 N   0  0  0  0  0  0  0  0  0  0  0  0
   -7.3290   21.3350  -31.8750 C   0  0  0  0  0  0  0  0  0  0  0  0
   -6.4380   22.4680  -31.5100 C   0  0  0  0  0  0  0  0  0  0  0  0
   -6.9560   23.7230  -31.1300 C   0  0  0  0  0  0  0  0  0  0  0  0
   -8.0446   23.8785  -31.1022 H   0  0  0  0  0  0  0  0  0  0  0  0
   -6.0960   24.7720  -30.7880 C   0  0  0  0  0  0  0  0  0  0  0  0
   -6.5111   25.7477  -30.4952 H   0  0  0  0  0  0  0  0  0  0  0  0
   -4.7130   24.5850  -30.8170 C   0  0  0  0  0  0  0  0  0  0  0  0
   -3.8620   25.6300  -30.4780 O   0  0  0  0  0  0  0  0  0  0  0  0
   -4.1850   23.3460  -31.1860 C   0  0  0  0  0  0  0  0  0  0  0  0
   -3.0952   23.1977  -31.2070 H   0  0  0  0  0  0  0  0  0  0  0  0
   -5.0400   22.2930  -31.5290 C   0  0  0  0  0  0  0  0  0  0  0  0
   -4.6168   21.3192  -31.8163 H   0  0  0  0  0  0  0  0  0  0  0  0
   -8.7260   21.4060  -31.8990 C   0  0  0  0  0  0  0  0  0  0  0  0
   -9.3305   22.2905  -31.6494 H   0  0  0  0  0  0  0  0  0  0  0  0
   -9.3230   19.9070  -32.3750 S   0  0  0  0  0  0  0  0  0  0  0  0
   -6.1240   16.0780  -33.7580 C   0  0  0  0  0  0  0  0  0  0  0  0
   -7.2000   15.3310  -34.2640 C   0  0  0  0  0  0  0  0  0  0  0  0
   -8.1911   15.7978  -34.3629 H   0  0  0  0  0  0  0  0  0  0  0  0
   -7.0190   13.9970  -34.6430 C   0  0  0  0  0  0  0  0  0  0  0  0
   -7.8675   13.4185  -35.0372 H   0  0  0  0  0  0  0  0  0  0  0  0
   -5.7620   13.3970  -34.5220 C   0  0  0  0  0  0  0  0  0  0  0  0
   -5.5850   12.0730  -34.8990 O   0  0  0  0  0  0  0  0  0  0  0  0
   -4.6850   14.1330  -34.0190 C   0  0  0  0  0  0  0  0  0  0  0  0
   -3.6959   13.6613  -33.9228 H   0  0  0  0  0  0  0  0  0  0  0  0
   -4.8610   15.4660  -33.6380 C   0  0  0  0  0  0  0  0  0  0  0  0
   -4.0097   16.0397  -33.2428 H   0  0  0  0  0  0  0  0  0  0  0  0
  1  2  1  0
  2  3  2  0
  3  4  1  0
  4  5  2  0
  5  6  1  0
  6  7  1  0
  7  8  2  0
  8  9  1  0
  8 10  1  0
 10 11  1  0
 10 12  2  0
 12 13  1  0
 12 14  1  0
 14 15  1  0
 14 16  2  0
 16 17  1  0
  6 18  2  0
 18 19  1  0
 18 20  1  0
  2 21  1  0
 21 22  2  0
 22 23  1  0
 22 24  1  0
 24 25  1  0
 24 26  2  0
 26 27  1  0
 26 28  1  0
 28 29  1  0
 28 30  2  0
 30 31  1  0
 20  4  1  0
 30 21  1  0
 16  7  1  0
M  CHG  2  13  -1  27  -1
M  END
>  <UniqueID>  (46) 
45

>  <SMILES>  (46) 
[O-]c1ccc(/C=N/c2nc(-c3ccc([O-])cc3)cs2)cc1

>  <Energy>  (46) 
66.7379775124358

>  <Genealogy>  (46) 
[O-]c1ccc(C=Nc2nc(-c3ccc([O-])cc3)cs2)cc1 (protonated)
[O-]c1ccc(/C=N/c2nc(-c3ccc([O-])cc3)cs2)cc1 (cis-trans isomerization)
[O-]c1ccc(/C=N/c2nc(-c3ccc([O-])cc3)cs2)cc1 (3D coordinates assigned)
[O-]c1ccc(/C=N/c2nc(-c3ccc([O-])cc3)cs2)cc1 (optimized conformer: 66.7379775124358 kcal/mol)

>  <smiles>  (46) 
Oc1ccc(C=Nc2nc(-c3ccc(O)cc3)cs2)cc1

>  <score_type>  (46) 
oracle

>  <origin>  (46) 
adgpu

>  <m_score__min__energy>  (46) 
-10.640000000000001

>  <m_primary>  (46) 
energy

$$$$
46:0
     RDKit          3D

 32 33  0  0  0  0  0  0  0  0999 V2000
   -2.7300   20.5070  -27.6910 C   0  0  0  0  0  0  0  0  0  0  0  0
   -2.3840   20.7850  -29.0440 O   0  0  0  0  0  0  0  0  0  0  0  0
   -3.1010   21.6470  -29.8900 C   0  0  0  0  0  0  0  0  0  0  0  0
   -3.9720   21.1600  -30.8820 C   0  0  0  0  0  0  0  0  0  0  0  0
   -4.6870   22.0410  -31.7010 C   0  0  0  0  0  0  0  0  0  0  0  0
   -5.5510   21.5130  -32.7230 N   0  0  0  0  0  0  0  0  0  0  0  0
   -6.7500   20.7630  -32.4650 C   0  0  0  0  0  0  0  0  0  0  0  0
   -7.9100   21.3850  -31.9680 C   0  0  0  0  0  0  0  0  0  0  0  0
   -9.0560   20.6300  -31.6980 C   0  0  0  0  0  0  0  0  0  0  0  0
   -9.0500   19.2490  -31.9090 C   0  0  0  0  0  0  0  0  0  0  0  0
   -7.8950   18.6190  -32.3820 C   0  0  0  0  0  0  0  0  0  0  0  0
   -6.7480   19.3720  -32.6510 C   0  0  0  0  0  0  0  0  0  0  0  0
   -4.4960   23.4210  -31.5530 C   0  0  0  0  0  0  0  0  0  0  0  0
   -3.6330   23.9220  -30.5730 C   0  0  0  0  0  0  0  0  0  0  0  0
   -3.4910   25.3000  -30.4670 O   0  0  0  0  0  0  0  0  0  0  0  0
   -2.9290   23.0320  -29.7260 C   0  0  0  0  0  0  0  0  0  0  0  0
   -2.0480   23.4530  -28.7120 O   0  0  0  0  0  0  0  0  0  0  0  0
   -2.4100   24.1080  -27.5020 C   0  0  0  0  0  0  0  0  0  0  0  0
   -2.0509   21.0526  -27.0193 H   0  0  0  0  0  0  0  0  0  0  0  0
   -3.7657   20.8270  -27.5042 H   0  0  0  0  0  0  0  0  0  0  0  0
   -2.6406   19.4267  -27.5042 H   0  0  0  0  0  0  0  0  0  0  0  0
   -4.0922   20.0747  -31.0152 H   0  0  0  0  0  0  0  0  0  0  0  0
   -5.2880   21.6850  -33.7190 H   0  0  0  0  0  0  0  0  0  0  0  0
   -7.9157   22.4706  -31.7909 H   0  0  0  0  0  0  0  0  0  0  0  0
   -9.9629   21.1240  -31.3192 H   0  0  0  0  0  0  0  0  0  0  0  0
   -9.9541   18.6573  -31.7030 H   0  0  0  0  0  0  0  0  0  0  0  0
   -7.8886   17.5308  -32.5425 H   0  0  0  0  0  0  0  0  0  0  0  0
   -5.8375   18.8705  -33.0110 H   0  0  0  0  0  0  0  0  0  0  0  0
   -5.0307   24.1182  -32.2149 H   0  0  0  0  0  0  0  0  0  0  0  0
   -2.0766   23.5048  -26.6446 H   0  0  0  0  0  0  0  0  0  0  0  0
   -1.9305   25.0972  -27.4629 H   0  0  0  0  0  0  0  0  0  0  0  0
   -3.5027   24.2283  -27.4629 H   0  0  0  0  0  0  0  0  0  0  0  0
  1  2  1  0
  2  3  1  0
  3  4  2  0
  4  5  1  0
  5  6  1  0
  6  7  1  0
  7  8  2  0
  8  9  1  0
  9 10  2  0
 10 11  1  0
 11 12  2  0
  5 13  2  0
 13 14  1  0
 14 15  1  0
 14 16  2  0
 16 17  1  0
 17 18  1  0
 16  3  1  0
 12  7  1  0
  1 19  1  0
  1 20  1  0
  1 21  1  0
  4 22  1  0
  6 23  1  0
  8 24  1  0
  9 25  1  0
 10 26  1  0
 11 27  1  0
 12 28  1  0
 13 29  1  0
 18 30  1  0
 18 31  1  0
 18 32  1  0
M  CHG  1  15  -1
M  END
>  <UniqueID>  (47) 
46

>  <SMILES>  (47) 
COc1cc(Nc2ccccc2)cc([O-])c1OC

>  <Energy>  (47) 
39.706170849598685

>  <Genealogy>  (47) 
COc1cc(Nc2ccccc2)cc([O-])c1OC (protonated)
COc1cc(Nc2ccccc2)cc([O-])c1OC (3D coordinates assigned)
COc1cc(Nc2ccccc2)cc([O-])c1OC (optimized conformer: 39.706170849598685 kcal/mol)

>  <smiles>  (47) 
COc1cc(Nc2ccccc2)cc(O)c1OC

>  <score_type>  (47) 
oracle

>  <origin>  (47) 
adgpu

>  <m_score__min__energy>  (47) 
-8.9600000000000009

>  <m_primary>  (47) 
energy

$$$$
47:0
     RDKit          3D

 46 49  0  0  0  0  0  0  0  0999 V2000
   -9.3840   20.7090  -32.4230 C   0  0  0  0  0  0  0  0  0  0  0  0
   -8.1930   21.4140  -31.8260 C   0  0  0  0  0  0  0  0  0  0  0  0
   -8.3810   22.6680  -31.2250 C   0  0  0  0  0  0  0  0  0  0  0  0
   -7.3020   23.3650  -30.6790 C   0  0  0  0  0  0  0  0  0  0  0  0
   -6.0080   22.8210  -30.7150 C   0  0  0  0  0  0  0  0  0  0  0  0
   -4.8510   23.5530  -30.1460 C   0  0  0  0  0  0  0  0  0  0  0  0
   -4.3040   23.4200  -28.8830 C   0  0  0  0  0  0  0  0  0  0  0  0
   -3.2760   24.2830  -28.8290 N   0  0  0  0  0  0  0  0  0  0  0  0
   -2.3590   24.4850  -27.7110 C   0  0  0  0  0  0  0  0  0  0  0  0
   -3.0530   25.2230  -26.5680 C   0  0  0  0  0  0  0  0  0  0  0  0
   -1.7620   26.0690  -25.3910 Br  0  0  0  0  0  0  0  0  0  0  0  0
   -3.1860   24.9070  -29.9920 N   0  0  0  0  0  0  0  0  0  0  0  0
   -4.1360   24.4840  -30.8130 N   0  0  0  0  0  0  0  0  0  0  0  0
   -5.8190   21.5570  -31.2980 C   0  0  0  0  0  0  0  0  0  0  0  0
   -6.8990   20.8400  -31.8400 C   0  0  0  0  0  0  0  0  0  0  0  0
   -6.6420   19.4990  -32.4140 C   0  0  0  0  0  0  0  0  0  0  0  0
   -5.8250   19.3640  -33.5470 C   0  0  0  0  0  0  0  0  0  0  0  0
   -5.5700   18.1000  -34.0860 C   0  0  0  0  0  0  0  0  0  0  0  0
   -6.1220   16.9470  -33.4990 C   0  0  0  0  0  0  0  0  0  0  0  0
   -5.8520   15.6050  -34.0740 C   0  0  0  0  0  0  0  0  0  0  0  0
   -4.5470   15.2270  -34.4340 C   0  0  0  0  0  0  0  0  0  0  0  0
   -4.3170   13.9590  -34.9720 C   0  0  0  0  0  0  0  0  0  0  0  0
   -5.3490   13.0940  -35.1470 N   0  0  0  0  0  0  0  0  0  0  0  0
   -6.6220   13.4270  -34.8100 C   0  0  0  0  0  0  0  0  0  0  0  0
   -6.8980   14.6840  -34.2670 C   0  0  0  0  0  0  0  0  0  0  0  0
   -6.9310   17.0870  -32.3570 C   0  0  0  0  0  0  0  0  0  0  0  0
   -7.1850   18.3510  -31.8170 C   0  0  0  0  0  0  0  0  0  0  0  0
  -10.0272   20.3283  -31.6160 H   0  0  0  0  0  0  0  0  0  0  0  0
   -9.9545   21.4150  -33.0444 H   0  0  0  0  0  0  0  0  0  0  0  0
   -9.0395   19.8692  -33.0444 H   0  0  0  0  0  0  0  0  0  0  0  0
   -9.3891   23.1062  -31.1838 H   0  0  0  0  0  0  0  0  0  0  0  0
   -7.4668   24.3493  -30.2164 H   0  0  0  0  0  0  0  0  0  0  0  0
   -4.6423   22.7440  -28.0839 H   0  0  0  0  0  0  0  0  0  0  0  0
   -2.0099   23.5066  -27.3494 H   0  0  0  0  0  0  0  0  0  0  0  0
   -1.5084   25.0905  -28.0571 H   0  0  0  0  0  0  0  0  0  0  0  0
   -3.7145   25.9947  -26.9886 H   0  0  0  0  0  0  0  0  0  0  0  0
   -3.6313   24.4929  -25.9828 H   0  0  0  0  0  0  0  0  0  0  0  0
   -4.8094   21.1216  -31.3307 H   0  0  0  0  0  0  0  0  0  0  0  0
   -5.3833   20.2572  -34.0130 H   0  0  0  0  0  0  0  0  0  0  0  0
   -4.9320   18.0060  -34.9771 H   0  0  0  0  0  0  0  0  0  0  0  0
   -3.7104   15.9270  -34.2926 H   0  0  0  0  0  0  0  0  0  0  0  0
   -3.2969   13.6601  -35.2548 H   0  0  0  0  0  0  0  0  0  0  0  0
   -7.4374   12.7051  -34.9651 H   0  0  0  0  0  0  0  0  0  0  0  0
   -7.9285   14.9526  -33.9915 H   0  0  0  0  0  0  0  0  0  0  0  0
   -7.3674   16.1944  -31.8849 H   0  0  0  0  0  0  0  0  0  0  0  0
   -7.8138   18.4463  -30.9195 H   0  0  0  0  0  0  0  0  0  0  0  0
  1  2  1  0
  2  3  2  0
  3  4  1  0
  4  5  2  0
  5  6  1  0
  6  7  2  0
  7  8  1  0
  8  9  1  0
  9 10  1  0
 10 11  1  0
  8 12  1  0
 12 13  2  0
  5 14  1  0
 14 15  2  0
 15 16  1  0
 16 17  2  0
 17 18  1  0
 18 19  2  0
 19 20  1  0
 20 21  2  0
 21 22  1  0
 22 23  2  0
 23 24  1  0
 24 25  2  0
 19 26  1  0
 26 27  2  0
 15  2  1  0
 27 16  1  0
 13  6  1  0
 25 20  1  0
  1 28  1  0
  1 29  1  0
  1 30  1  0
  3 31  1  0
  4 32  1  0
  7 33  1  0
  9 34  1  0
  9 35  1  0
 10 36  1  0
 10 37  1  0
 14 38  1  0
 17 39  1  0
 18 40  1  0
 21 41  1  0
 22 42  1  0
 24 43  1  0
 25 44  1  0
 26 45  1  0
 27 46  1  0
M  END
>  <UniqueID>  (48) 
47

>  <SMILES>  (48) 
Cc1ccc(-c2cn(CCBr)nn2)cc1-c1ccc(-c2ccncc2)cc1

>  <Energy>  (48) 
96.49338276325227

>  <Genealogy>  (48) 
Cc1ccc(-c2cn(CCBr)nn2)cc1-c1ccc(-c2ccncc2)cc1 (3D coordinates assigned)
Cc1ccc(-c2cn(CCBr)nn2)cc1-c1ccc(-c2ccncc2)cc1 (optimized conformer: 96.49338276325227 kcal/mol)

>  <smiles>  (48) 
Cc1ccc(-c2cn(CCBr)nn2)cc1-c1ccc(-c2ccncc2)cc1

>  <score_type>  (48) 
oracle

>  <origin>  (48) 
adgpu

>  <m_score__min__energy>  (48) 
-10.42

>  <m_primary>  (48) 
energy

$$$$
48:0
     RDKit          3D

 43 44  0  0  0  0  0  0  0  0999 V2000
   -6.1140   16.9980  -34.1800 C   0  0  0  0  0  0  0  0  0  0  0  0
   -4.8410   17.6210  -34.0630 O   0  0  0  0  0  0  0  0  0  0  0  0
   -4.6880   19.0020  -33.9010 C   0  0  0  0  0  0  0  0  0  0  0  0
   -5.7050   19.7450  -33.8300 O   0  0  0  0  0  0  0  0  0  0  0  0
   -3.3340   19.5920  -33.8150 C   0  0  0  0  0  0  0  0  0  0  0  0
   -3.0850   20.8920  -33.3570 C   0  0  0  0  0  0  0  0  0  0  0  0
   -4.0630   21.7710  -32.7760 N   0  0  0  0  0  0  0  0  0  0  0  0
   -3.8450   22.5370  -31.5780 C   0  0  0  0  0  0  0  0  0  0  0  0
   -2.7520   22.4530  -30.9550 O   0  0  0  0  0  0  0  0  0  0  0  0
   -4.9020   23.4350  -31.0610 C   0  0  0  0  0  0  0  0  0  0  0  0
   -6.2610   23.0980  -31.2450 C   0  0  0  0  0  0  0  0  0  0  0  0
   -6.5830   21.9150  -31.9320 O   0  0  0  0  0  0  0  0  0  0  0  0
   -7.8670   21.2990  -31.9270 C   0  0  0  0  0  0  0  0  0  0  0  0
   -7.2600   23.9580  -30.7520 C   0  0  0  0  0  0  0  0  0  0  0  0
   -6.9140   25.1350  -30.0910 C   0  0  0  0  0  0  0  0  0  0  0  0
   -5.5740   25.4670  -29.9000 C   0  0  0  0  0  0  0  0  0  0  0  0
   -4.5560   24.6190  -30.3720 C   0  0  0  0  0  0  0  0  0  0  0  0
   -3.1980   24.9100  -30.1510 O   0  0  0  0  0  0  0  0  0  0  0  0
   -2.4680   24.5440  -28.9850 C   0  0  0  0  0  0  0  0  0  0  0  0
   -1.4290   21.1870  -33.4080 S   0  0  0  0  0  0  0  0  0  0  0  0
   -0.9970   19.6890  -34.0300 C   0  0  0  0  0  0  0  0  0  0  0  0
    0.4100   19.2850  -34.3440 C   0  0  0  0  0  0  0  0  0  0  0  0
   -2.1520   18.9210  -34.2170 C   0  0  0  0  0  0  0  0  0  0  0  0
   -2.1290   17.5250  -34.7780 C   0  0  0  0  0  0  0  0  0  0  0  0
   -6.5189   16.7999  -33.1766 H   0  0  0  0  0  0  0  0  0  0  0  0
   -6.7987   17.6628  -34.7270 H   0  0  0  0  0  0  0  0  0  0  0  0
   -6.0091   16.0494  -34.7270 H   0  0  0  0  0  0  0  0  0  0  0  0
   -5.0000   21.8310  -33.2310 H   0  0  0  0  0  0  0  0  0  0  0  0
   -8.1943   21.1420  -30.8886 H   0  0  0  0  0  0  0  0  0  0  0  0
   -8.5877   21.9494  -32.4443 H   0  0  0  0  0  0  0  0  0  0  0  0
   -7.8107   20.3298  -32.4443 H   0  0  0  0  0  0  0  0  0  0  0  0
   -8.3204   23.6995  -30.8893 H   0  0  0  0  0  0  0  0  0  0  0  0
   -7.7024   25.8053  -29.7181 H   0  0  0  0  0  0  0  0  0  0  0  0
   -5.3109   26.3981  -29.3768 H   0  0  0  0  0  0  0  0  0  0  0  0
   -3.0393   24.8305  -28.0897 H   0  0  0  0  0  0  0  0  0  0  0  0
   -2.3028   23.4565  -28.9821 H   0  0  0  0  0  0  0  0  0  0  0  0
   -1.4977   25.0622  -28.9821 H   0  0  0  0  0  0  0  0  0  0  0  0
    0.9636   19.1260  -33.4069 H   0  0  0  0  0  0  0  0  0  0  0  0
    0.4022   18.3528  -34.9279 H   0  0  0  0  0  0  0  0  0  0  0  0
    0.8979   20.0793  -34.9279 H   0  0  0  0  0  0  0  0  0  0  0  0
   -2.1170   16.7982  -33.9524 H   0  0  0  0  0  0  0  0  0  0  0  0
   -3.0246   17.3633  -35.3959 H   0  0  0  0  0  0  0  0  0  0  0  0
   -1.2286   17.3929  -35.3959 H   0  0  0  0  0  0  0  0  0  0  0  0
  1  2  1  0
  2  3  1  0
  3  4  2  0
  3  5  1  0
  5  6  2  0
  6  7  1  0
  7  8  1  0
  8  9  2  0
  8 10  1  0
 10 11  2  0
 11 12  1  0
 12 13  1  0
 11 14  1  0
 14 15  2  0
 15 16  1  0
 16 17  2  0
 17 18  1  0
 18 19  1  0
  6 20  1  0
 20 21  1  0
 21 22  1  0
 21 23  2  0
 23 24  1  0
 23  5  1  0
 17 10  1  0
  1 25  1  0
  1 26  1  0
  1 27  1  0
  7 28  1  0
 13 29  1  0
 13 30  1  0
 13 31  1  0
 14 32  1  0
 15 33  1  0
 16 34  1  0
 19 35  1  0
 19 36  1  0
 19 37  1  0
 22 38  1  0
 22 39  1  0
 22 40  1  0
 24 41  1  0
 24 42  1  0
 24 43  1  0
M  END
>  <UniqueID>  (49) 
48

>  <SMILES>  (49) 
COC(=O)c1c(NC(=O)c2c(OC)cccc2OC)sc(C)c1C

>  <Energy>  (49) 
75.42417005105686

>  <Genealogy>  (49) 
COC(=O)c1c(NC(=O)c2c(OC)cccc2OC)sc(C)c1C (3D coordinates assigned)
COC(=O)c1c(NC(=O)c2c(OC)cccc2OC)sc(C)c1C (optimized conformer: 75.42417005105686 kcal/mol)

>  <smiles>  (49) 
COC(=O)c1c(NC(=O)c2c(OC)cccc2OC)sc(C)c1C

>  <score_type>  (49) 
oracle

>  <origin>  (49) 
adgpu

>  <m_score__min__energy>  (49) 
-6.6799999999999997

>  <m_primary>  (49) 
energy

$$$$
49:0
     RDKit          3D

 42 45  0  0  0  0  0  0  0  0999 V2000
   -7.1500   15.6895  -34.4609 H   0  0  0  0  0  0  0  0  0  0  0  0
   -6.5950   16.5740  -34.1150 C   0  0  0  0  0  0  0  0  0  0  0  0
   -6.8310   17.0920  -32.8400 C   0  0  0  0  0  0  0  0  0  0  0  0
   -7.5803   16.6218  -32.1862 H   0  0  0  0  0  0  0  0  0  0  0  0
   -6.1160   18.2080  -32.3930 C   0  0  0  0  0  0  0  0  0  0  0  0
   -6.3161   18.6206  -31.3932 H   0  0  0  0  0  0  0  0  0  0  0  0
   -5.1460   18.8040  -33.2110 C   0  0  0  0  0  0  0  0  0  0  0  0
   -4.4550   19.9680  -32.7240 N   0  0  0  0  0  0  0  0  0  0  0  0
   -4.9900   21.0280  -32.1930 C   0  0  0  0  0  0  0  0  0  0  0  0
   -4.1850   22.0200  -31.7400 N   0  0  0  0  0  0  0  0  0  0  0  0
   -4.7120   23.1500  -31.2020 C   0  0  0  0  0  0  0  0  0  0  0  0
   -3.8720   24.2090  -30.7120 N   0  0  0  0  0  0  0  0  0  0  0  0
   -3.0940   24.2090  -29.6680 C   0  0  0  0  0  0  0  0  0  0  0  0
   -2.3580   25.2970  -29.3360 N   0  0  0  0  0  0  0  0  0  0  0  0
   -1.6240   25.0670  -28.2170 C   0  0  0  0  0  0  0  0  0  0  0  0
   -0.7670   26.0010  -27.6300 C   0  0  0  0  0  0  0  0  0  0  0  0
   -0.6473   27.0039  -28.0657 H   0  0  0  0  0  0  0  0  0  0  0  0
   -0.0610   25.6340  -26.4720 C   0  0  0  0  0  0  0  0  0  0  0  0
    0.6194   26.3554  -25.9959 H   0  0  0  0  0  0  0  0  0  0  0  0
   -0.2180   24.3490  -25.9160 C   0  0  0  0  0  0  0  0  0  0  0  0
    0.3394   24.0738  -25.0085 H   0  0  0  0  0  0  0  0  0  0  0  0
   -1.0820   23.4180  -26.5140 C   0  0  0  0  0  0  0  0  0  0  0  0
   -1.2123   22.4119  -26.0889 H   0  0  0  0  0  0  0  0  0  0  0  0
   -1.7690   23.8060  -27.6610 C   0  0  0  0  0  0  0  0  0  0  0  0
   -2.8550   22.9200  -28.5840 S   0  0  0  0  0  0  0  0  0  0  0  0
   -6.0640   23.2870  -31.1220 N   0  0  0  0  0  0  0  0  0  0  0  0
   -6.4480   24.1620  -30.7030 H   0  0  0  0  0  0  0  0  0  0  0  0
   -6.8880   22.3010  -31.5840 C   0  0  0  0  0  0  0  0  0  0  0  0
   -8.3280   22.4230  -31.5140 N   0  0  0  0  0  0  0  0  0  0  0  0
   -9.1190   21.5590  -30.6300 C   0  0  0  0  0  0  0  0  0  0  0  0
   -8.8948   21.8039  -29.5813 H   0  0  0  0  0  0  0  0  0  0  0  0
  -10.1900   21.7192  -30.8230 H   0  0  0  0  0  0  0  0  0  0  0  0
   -8.8651   20.5063  -30.8230 H   0  0  0  0  0  0  0  0  0  0  0  0
   -8.9990   23.4300  -32.3430 C   0  0  0  0  0  0  0  0  0  0  0  0
   -9.4917   24.1695  -31.6947 H   0  0  0  0  0  0  0  0  0  0  0  0
   -8.2568   23.9359  -32.9780 H   0  0  0  0  0  0  0  0  0  0  0  0
   -9.7516   22.9398  -32.9780 H   0  0  0  0  0  0  0  0  0  0  0  0
   -6.3370   21.1800  -32.1210 N   0  0  0  0  0  0  0  0  0  0  0  0
   -4.9370   18.2970  -34.5100 C   0  0  0  0  0  0  0  0  0  0  0  0
   -4.2089   18.7813  -35.1774 H   0  0  0  0  0  0  0  0  0  0  0  0
   -5.6530   17.1800  -34.9520 C   0  0  0  0  0  0  0  0  0  0  0  0
   -5.4748   16.7774  -35.9600 H   0  0  0  0  0  0  0  0  0  0  0  0
  1  2  1  0
  2  3  2  0
  3  4  1  0
  3  5  1  0
  5  6  1  0
  5  7  2  0
  7  8  1  0
  8  9  2  0
  9 10  1  0
 10 11  2  0
 11 12  1  0
 12 13  2  0
 13 14  1  0
 14 15  1  0
 15 16  2  0
 16 17  1  0
 16 18  1  0
 18 19  1  0
 18 20  2  0
 20 21  1  0
 20 22  1  0
 22 23  1  0
 22 24  2  0
 24 25  1  0
 11 26  1  0
 26 27  1  0
 26 28  1  0
 28 29  1  0
 29 30  1  0
 30 31  1  0
 30 32  1  0
 30 33  1  0
 29 34  1  0
 34 35  1  0
 34 36  1  0
 34 37  1  0
 28 38  2  0
  7 39  1  0
 39 40  1  0
 39 41  2  0
 41 42  1  0
 41  2  1  0
 38  9  1  0
 25 13  1  0
 24 15  1  0
M  CHG  1  14  -1
M  END
>  <UniqueID>  (50) 
49

>  <SMILES>  (50) 
CN(C)c1n/c(=N\c2ccccc2)nc(/N=c2/[n-]c3ccccc3s2)[nH]1

>  <Energy>  (50) 
89.81781863877896

>  <Genealogy>  (50) 
CN(C)c1nc(=Nc2ccccc2)nc(N=c2[n-]c3ccccc3s2)[nH]1 (protonated)
CN(C)c1n/c(=N\c2ccccc2)nc(/N=c2/[n-]c3ccccc3s2)[nH]1 (cis-trans isomerization)
CN(C)c1n/c(=N\c2ccccc2)nc(/N=c2/[n-]c3ccccc3s2)[nH]1 (3D coordinates assigned)
CN(C)c1n/c(=N\c2ccccc2)nc(/N=c2/[n-]c3ccccc3s2)[nH]1 (optimized conformer: 89.81781863877896 kcal/mol)

>  <smiles>  (50) 
CN(C)c1nc(=Nc2ccccc2)nc(N=c2[nH]c3ccccc3s2)[nH]1

>  <score_type>  (50) 
oracle

>  <origin>  (50) 
adgpu

>  <m_score__min__energy>  (50) 
-9.6799999999999997

>  <m_primary>  (50) 
energy

$$$$
