0:0
     RDKit          3D

 51 53  0  0  0  0  0  0  0  0999 V2000
   -3.4350   18.5590  -26.0500 C   0  0  0  0  0  0  0  0  0  0  0  0
   -2.0820   18.9430  -26.2790 O   0  0  0  0  0  0  0  0  0  0  0  0
   -1.6560   20.2660  -26.4600 C   0  0  0  0  0  0  0  0  0  0  0  0
   -1.2360   20.9870  -25.3420 C   0  0  0  0  0  0  0  0  0  0  0  0
   -0.7840   22.3020  -25.4720 C   0  0  0  0  0  0  0  0  0  0  0  0
   -0.7380   22.9220  -26.7360 C   0  0  0  0  0  0  0  0  0  0  0  0
   -0.2790   24.2390  -26.8890 O   0  0  0  0  0  0  0  0  0  0  0  0
   -1.0240   25.4030  -26.5430 C   0  0  0  0  0  0  0  0  0  0  0  0
   -1.1630   22.1980  -27.8690 C   0  0  0  0  0  0  0  0  0  0  0  0
   -1.0940   22.8760  -29.5060 S   0  0  0  0  0  0  0  0  0  0  0  0
   -0.3290   24.1680  -29.4380 O   0  0  0  0  0  0  0  0  0  0  0  0
   -0.4030   21.9450  -30.4610 O   0  0  0  0  0  0  0  0  0  0  0  0
   -2.7100   23.1730  -30.0880 N   0  0  0  0  0  0  0  0  0  0  0  0
   -3.3920   24.3900  -29.7370 C   0  0  0  0  0  0  0  0  0  0  0  0
   -3.5020   24.7260  -28.5250 O   0  0  0  0  0  0  0  0  0  0  0  0
   -3.9310   25.2350  -30.7600 N   0  0  0  0  0  0  0  0  0  0  0  0
   -5.3400   25.5980  -30.8510 C   0  0  0  0  0  0  0  0  0  0  0  0
   -6.1870   24.3610  -30.9850 C   0  0  0  0  0  0  0  0  0  0  0  0
   -6.7670   23.7810  -29.8450 C   0  0  0  0  0  0  0  0  0  0  0  0
   -7.5330   22.6160  -29.9600 C   0  0  0  0  0  0  0  0  0  0  0  0
   -7.7210   22.0230  -31.2110 C   0  0  0  0  0  0  0  0  0  0  0  0
   -7.1430   22.5920  -32.3500 C   0  0  0  0  0  0  0  0  0  0  0  0
   -6.3760   23.7560  -32.2390 C   0  0  0  0  0  0  0  0  0  0  0  0
   -3.3170   22.2290  -30.9850 C   0  0  0  0  0  0  0  0  0  0  0  0
   -3.0090   22.2540  -32.3540 C   0  0  0  0  0  0  0  0  0  0  0  0
   -3.5610   21.3030  -33.2180 C   0  0  0  0  0  0  0  0  0  0  0  0
   -4.4210   20.3210  -32.7200 C   0  0  0  0  0  0  0  0  0  0  0  0
   -4.7310   20.2880  -31.3570 C   0  0  0  0  0  0  0  0  0  0  0  0
   -4.1810   21.2380  -30.4910 C   0  0  0  0  0  0  0  0  0  0  0  0
   -1.6310   20.8850  -27.7220 C   0  0  0  0  0  0  0  0  0  0  0  0
   -3.6228   18.5057  -24.9675 H   0  0  0  0  0  0  0  0  0  0  0  0
   -4.1085   19.3015  -26.5029 H   0  0  0  0  0  0  0  0  0  0  0  0
   -3.6181   17.5734  -26.5029 H   0  0  0  0  0  0  0  0  0  0  0  0
   -1.2611   20.5153  -24.3486 H   0  0  0  0  0  0  0  0  0  0  0  0
   -0.4611   22.8584  -24.5797 H   0  0  0  0  0  0  0  0  0  0  0  0
   -1.0800   25.4904  -25.4479 H   0  0  0  0  0  0  0  0  0  0  0  0
   -0.5272   26.2928  -26.9570 H   0  0  0  0  0  0  0  0  0  0  0  0
   -2.0401   25.3245  -26.9570 H   0  0  0  0  0  0  0  0  0  0  0  0
   -5.6343   26.1434  -29.9422 H   0  0  0  0  0  0  0  0  0  0  0  0
   -5.4907   26.2342  -31.7356 H   0  0  0  0  0  0  0  0  0  0  0  0
   -6.6185   24.2443  -28.8584 H   0  0  0  0  0  0  0  0  0  0  0  0
   -7.9876   22.1665  -29.0648 H   0  0  0  0  0  0  0  0  0  0  0  0
   -8.3243   21.1075  -31.3000 H   0  0  0  0  0  0  0  0  0  0  0  0
   -7.2917   22.1236  -33.3341 H   0  0  0  0  0  0  0  0  0  0  0  0
   -5.9192   24.1993  -33.1361 H   0  0  0  0  0  0  0  0  0  0  0  0
   -2.3307   23.0247  -32.7489 H   0  0  0  0  0  0  0  0  0  0  0  0
   -3.3179   21.3281  -34.2905 H   0  0  0  0  0  0  0  0  0  0  0  0
   -4.8545   19.5734  -33.4006 H   0  0  0  0  0  0  0  0  0  0  0  0
   -5.4079   19.5142  -30.9658 H   0  0  0  0  0  0  0  0  0  0  0  0
   -4.4259   21.2091  -29.4190 H   0  0  0  0  0  0  0  0  0  0  0  0
   -1.9832   20.3319  -28.6052 H   0  0  0  0  0  0  0  0  0  0  0  0
  1  2  1  0
  2  3  1  0
  3  4  2  0
  4  5  1  0
  5  6  2  0
  6  7  1  0
  7  8  1  0
  6  9  1  0
  9 10  1  0
 10 11  2  0
 10 12  2  0
 10 13  1  0
 13 14  1  0
 14 15  2  0
 14 16  1  0
 16 17  1  0
 17 18  1  0
 18 19  2  0
 19 20  1  0
 20 21  2  0
 21 22  1  0
 22 23  2  0
 13 24  1  0
 24 25  2  0
 25 26  1  0
 26 27  2  0
 27 28  1  0
 28 29  2  0
  9 30  2  0
 30  3  1  0
 23 18  1  0
 29 24  1  0
  1 31  1  0
  1 32  1  0
  1 33  1  0
  4 34  1  0
  5 35  1  0
  8 36  1  0
  8 37  1  0
  8 38  1  0
 17 39  1  0
 17 40  1  0
 19 41  1  0
 20 42  1  0
 21 43  1  0
 22 44  1  0
 23 45  1  0
 25 46  1  0
 26 47  1  0
 27 48  1  0
 28 49  1  0
 29 50  1  0
 30 51  1  0
M  CHG  1  16  -1
M  END
>  <UniqueID>  (1) 
1

>  <SMILES>  (1) 
COc1ccc(OC)c(S(=O)(=O)N(C(=O)[N-]Cc2ccccc2)c2ccccc2)c1

>  <Energy>  (1) 
56.950402105767864

>  <Genealogy>  (1) 
COc1ccc(OC)c(S(=O)(=O)N(C(=O)[N-]Cc2ccccc2)c2ccccc2)c1 (protonated)
COc1ccc(OC)c(S(=O)(=O)N(C(=O)[N-]Cc2ccccc2)c2ccccc2)c1 (3D coordinates assigned)
COc1ccc(OC)c(S(=O)(=O)N(C(=O)[N-]Cc2ccccc2)c2ccccc2)c1 (optimized conformer: 56.950402105767864 kcal/mol)

>  <smiles>  (1) 
COc1ccc(OC)c(S(=O)(=O)N(C(=O)NCc2ccccc2)c2ccccc2)c1

>  <score_type>  (1) 
oracle

>  <origin>  (1) 
adgpu

>  <m_score__min__energy>  (1) 
-10.210000000000001

>  <m_primary>  (1) 
energy

$$$$
1:0
     RDKit          3D

 45 47  0  0  0  0  0  0  0  0999 V2000
   -5.0640   17.4240  -34.2200 C   0  0  0  0  0  0  0  0  0  0  0  0
   -5.7980   18.0090  -33.0060 C   0  0  2  0  0  0  0  0  0  0  0  0
   -7.3060   17.6730  -33.0730 C   0  0  0  0  0  0  0  0  0  0  0  0
   -8.1290   18.7220  -32.3170 C   0  0  0  0  0  0  0  0  0  0  0  0
   -8.0110   20.0600  -32.9470 N   0  0  1  0  0  0  0  0  0  0  0  0
   -8.4700   21.2920  -31.7950 S   0  0  0  0  0  0  0  0  0  0  0  0
   -9.5720   22.1420  -32.3650 O   0  0  0  0  0  0  0  0  0  0  0  0
   -8.9660   20.6480  -30.5290 O   0  0  0  0  0  0  0  0  0  0  0  0
   -7.0860   22.3260  -31.4450 C   0  0  0  0  0  0  0  0  0  0  0  0
   -7.1250   23.6980  -31.7320 C   0  0  0  0  0  0  0  0  0  0  0  0
   -6.0320   24.5120  -31.4180 C   0  0  0  0  0  0  0  0  0  0  0  0
   -4.8990   23.9690  -30.8020 C   0  0  0  0  0  0  0  0  0  0  0  0
   -3.7950   24.8300  -30.4890 N   0  0  0  0  0  0  0  0  0  0  0  0
   -2.7380   24.5400  -29.5650 C   0  0  0  0  0  0  0  0  0  0  0  0
   -2.1810   25.4930  -28.9610 O   0  0  0  0  0  0  0  0  0  0  0  0
   -2.3240   23.1550  -29.2600 C   0  0  0  0  0  0  0  0  0  0  0  0
   -1.4590   22.3760  -30.0120 C   0  0  0  0  0  0  0  0  0  0  0  0
   -1.3850   21.1580  -29.3700 C   0  0  0  0  0  0  0  0  0  0  0  0
   -0.3440   19.6570  -29.9230 Br  0  0  0  0  0  0  0  0  0  0  0  0
   -2.2120   21.2380  -28.2680 C   0  0  0  0  0  0  0  0  0  0  0  0
   -2.4990   19.9620  -27.1010 Cl  0  0  0  0  0  0  0  0  0  0  0  0
   -2.7870   22.4530  -28.2070 N   0  0  0  0  0  0  0  0  0  0  0  0
   -4.8510   22.5880  -30.5410 C   0  0  0  0  0  0  0  0  0  0  0  0
   -5.9430   21.7750  -30.8550 C   0  0  0  0  0  0  0  0  0  0  0  0
   -6.6710   20.3480  -33.5290 C   0  0  0  0  0  0  0  0  0  0  0  0
   -5.5460   19.5310  -32.8740 C   0  0  0  0  0  0  0  0  0  0  0  0
   -4.2470   16.7729  -33.8757 H   0  0  0  0  0  0  0  0  0  0  0  0
   -5.7692   16.8375  -34.8273 H   0  0  0  0  0  0  0  0  0  0  0  0
   -4.6496   18.2423  -34.8273 H   0  0  0  0  0  0  0  0  0  0  0  0
   -5.3924   17.5422  -32.0963 H   0  0  0  0  0  0  0  0  0  0  0  0
   -7.6252   17.6535  -34.1255 H   0  0  0  0  0  0  0  0  0  0  0  0
   -7.4705   16.6907  -32.6060 H   0  0  0  0  0  0  0  0  0  0  0  0
   -9.1860   18.4173  -32.3194 H   0  0  0  0  0  0  0  0  0  0  0  0
   -7.7441   18.7885  -31.2887 H   0  0  0  0  0  0  0  0  0  0  0  0
   -8.7110   20.1080  -33.7240 H   0  0  0  0  0  0  0  0  0  0  0  0
   -8.0169   24.1348  -32.2050 H   0  0  0  0  0  0  0  0  0  0  0  0
   -6.0632   25.5853  -31.6567 H   0  0  0  0  0  0  0  0  0  0  0  0
   -0.9370   22.6699  -30.9345 H   0  0  0  0  0  0  0  0  0  0  0  0
   -3.4580   22.7830  -27.4770 H   0  0  0  0  0  0  0  0  0  0  0  0
   -3.9510   22.1465  -30.0882 H   0  0  0  0  0  0  0  0  0  0  0  0
   -5.9041   20.6974  -30.6375 H   0  0  0  0  0  0  0  0  0  0  0  0
   -6.6967   20.1117  -34.6030 H   0  0  0  0  0  0  0  0  0  0  0  0
   -6.4546   21.4113  -33.3487 H   0  0  0  0  0  0  0  0  0  0  0  0
   -4.5927   19.7791  -33.3636 H   0  0  0  0  0  0  0  0  0  0  0  0
   -5.5146   19.7837  -31.8039 H   0  0  0  0  0  0  0  0  0  0  0  0
  1  2  1  0
  2  3  1  0
  3  4  1  0
  4  5  1  0
  5  6  1  0
  6  7  2  0
  6  8  2  0
  6  9  1  0
  9 10  2  0
 10 11  1  0
 11 12  2  0
 12 13  1  0
 13 14  1  0
 14 15  2  0
 14 16  1  0
 16 17  2  0
 17 18  1  0
 18 19  1  0
 18 20  2  0
 20 21  1  0
 20 22  1  0
 12 23  1  0
 23 24  2  0
  5 25  1  0
 25 26  1  0
 26  2  1  0
 24  9  1  0
 22 16  1  0
  1 27  1  0
  1 28  1  0
  1 29  1  0
  2 30  1  1
  3 31  1  0
  3 32  1  0
  4 33  1  0
  4 34  1  0
  5 35  1  6
 10 36  1  0
 11 37  1  0
 17 38  1  0
 22 39  1  0
 23 40  1  0
 24 41  1  0
 25 42  1  0
 25 43  1  0
 26 44  1  0
 26 45  1  0
M  CHG  2   5   1  13  -1
M  END
>  <UniqueID>  (2) 
2

>  <SMILES>  (2) 
CC1CC[NH+](S(=O)(=O)c2ccc([N-]C(=O)c3cc(Br)c(Cl)[nH]3)cc2)CC1

>  <Energy>  (2) 
80.76910456823735

>  <Genealogy>  (2) 
CC1CC[NH+](S(=O)(=O)c2ccc([N-]C(=O)c3cc(Br)c(Cl)[nH]3)cc2)CC1 (protonated)
CC1CC[NH+](S(=O)(=O)c2ccc([N-]C(=O)c3cc(Br)c(Cl)[nH]3)cc2)CC1 (3D coordinates assigned)
CC1CC[NH+](S(=O)(=O)c2ccc([N-]C(=O)c3cc(Br)c(Cl)[nH]3)cc2)CC1 (nonaromatic ring conformer: 80.76910456823735 kcal/mol)

>  <smiles>  (2) 
CC1CCN(S(=O)(=O)c2ccc(NC(=O)c3cc(Br)c(Cl)[nH]3)cc2)CC1

>  <score_type>  (2) 
oracle

>  <origin>  (2) 
adgpu

>  <m_score__min__energy>  (2) 
-11.18

>  <m_primary>  (2) 
energy

$$$$
2:0
     RDKit          3D

 61 65  0  0  0  0  0  0  0  0999 V2000
   -7.7610   18.9230  -32.0320 O   0  0  0  0  0  0  0  0  0  0  0  0
   -6.7140   18.9890  -32.7330 C   0  0  0  0  0  0  0  0  0  0  0  0
   -6.1710   20.2750  -33.0840 N   0  0  0  0  0  0  0  0  0  0  0  0
   -6.4290   21.4830  -32.3460 C   0  0  0  0  0  0  0  0  0  0  0  0
   -7.7220   22.0300  -32.2580 C   0  0  0  0  0  0  0  0  0  0  0  0
   -7.9470   23.1890  -31.5110 C   0  0  0  0  0  0  0  0  0  0  0  0
   -6.8920   23.8080  -30.8370 C   0  0  0  0  0  0  0  0  0  0  0  0
   -5.6010   23.2670  -30.9050 C   0  0  0  0  0  0  0  0  0  0  0  0
   -4.2620   24.0500  -30.0570 S   0  0  0  0  0  0  0  0  0  0  0  0
   -3.8670   25.2960  -30.8000 O   0  0  0  0  0  0  0  0  0  0  0  0
   -4.7130   24.4520  -28.6810 O   0  0  0  0  0  0  0  0  0  0  0  0
   -2.8750   22.9920  -29.9260 N   0  0  0  0  0  0  0  0  0  0  0  0
   -3.2180   21.7190  -29.2550 C   0  0  0  0  0  0  0  0  0  0  0  0
   -2.6810   21.6600  -27.8140 C   0  0  0  0  0  0  0  0  0  0  0  0
   -1.2700   21.8150  -27.7360 O   0  0  0  0  0  0  0  0  0  0  0  0
   -0.7330   22.6910  -28.7190 C   0  0  0  0  0  0  0  0  0  0  0  0
   -1.7470   23.6970  -29.2860 C   0  0  0  0  0  0  0  0  0  0  0  0
   -5.3780   22.0990  -31.6480 C   0  0  0  0  0  0  0  0  0  0  0  0
   -6.0850   17.7410  -33.2300 C   0  0  0  0  0  0  0  0  0  0  0  0
   -6.8710   16.6000  -33.4730 C   0  0  0  0  0  0  0  0  0  0  0  0
   -6.2850   15.4250  -33.9500 C   0  0  0  0  0  0  0  0  0  0  0  0
   -4.9100   15.3700  -34.1830 C   0  0  0  0  0  0  0  0  0  0  0  0
   -4.1100   16.4910  -33.9270 C   0  0  0  0  0  0  0  0  0  0  0  0
   -2.3780   16.4450  -34.2510 S   0  0  0  0  0  0  0  0  0  0  0  0
   -2.1040   16.9390  -35.6440 O   0  0  0  0  0  0  0  0  0  0  0  0
   -1.8960   15.0260  -34.1290 O   0  0  0  0  0  0  0  0  0  0  0  0
   -1.5480   17.4460  -33.1060 N   0  0  0  0  0  0  0  0  0  0  0  0
   -0.6320   16.9540  -32.0800 C   0  0  0  0  0  0  0  0  0  0  0  0
   -0.1770   18.2040  -31.2850 C   0  0  0  0  0  0  0  0  0  0  0  0
   -0.9130   19.3200  -31.9440 C   0  0  0  0  0  0  0  0  0  0  0  0
   -0.8890   20.6780  -31.6230 C   0  0  0  0  0  0  0  0  0  0  0  0
   -1.6750   21.5600  -32.3810 C   0  0  0  0  0  0  0  0  0  0  0  0
   -2.4690   21.0740  -33.4380 C   0  0  0  0  0  0  0  0  0  0  0  0
   -2.4780   19.7020  -33.7430 C   0  0  0  0  0  0  0  0  0  0  0  0
   -1.6830   18.8480  -32.9730 C   0  0  0  0  0  0  0  0  0  0  0  0
   -4.6980   17.6710  -33.4540 C   0  0  0  0  0  0  0  0  0  0  0  0
   -5.6530   20.3580  -33.9870 H   0  0  0  0  0  0  0  0  0  0  0  0
   -8.5593   21.5432  -32.7794 H   0  0  0  0  0  0  0  0  0  0  0  0
   -8.9592   23.6157  -31.4535 H   0  0  0  0  0  0  0  0  0  0  0  0
   -7.0746   24.7214  -30.2520 H   0  0  0  0  0  0  0  0  0  0  0  0
   -4.3128   21.6153  -29.2299 H   0  0  0  0  0  0  0  0  0  0  0  0
   -2.7520   20.9007  -29.8235 H   0  0  0  0  0  0  0  0  0  0  0  0
   -3.1539   22.4643  -27.2313 H   0  0  0  0  0  0  0  0  0  0  0  0
   -2.9232   20.6639  -27.4151 H   0  0  0  0  0  0  0  0  0  0  0  0
    0.0948   23.2546  -28.2639 H   0  0  0  0  0  0  0  0  0  0  0  0
   -0.4074   22.0614  -29.5602 H   0  0  0  0  0  0  0  0  0  0  0  0
   -2.1302   24.3244  -28.4677 H   0  0  0  0  0  0  0  0  0  0  0  0
   -1.2445   24.3207  -30.0400 H   0  0  0  0  0  0  0  0  0  0  0  0
   -4.3696   21.6610  -31.6844 H   0  0  0  0  0  0  0  0  0  0  0  0
   -7.9545   16.6332  -33.2861 H   0  0  0  0  0  0  0  0  0  0  0  0
   -6.9094   14.5401  -34.1426 H   0  0  0  0  0  0  0  0  0  0  0  0
   -4.4543   14.4458  -34.5679 H   0  0  0  0  0  0  0  0  0  0  0  0
   -1.1466   16.2441  -31.4158 H   0  0  0  0  0  0  0  0  0  0  0  0
    0.2233   16.4224  -32.5224 H   0  0  0  0  0  0  0  0  0  0  0  0
   -0.4575   18.1196  -30.2247 H   0  0  0  0  0  0  0  0  0  0  0  0
    0.9139   18.3448  -31.2942 H   0  0  0  0  0  0  0  0  0  0  0  0
   -0.2679   21.0489  -30.7944 H   0  0  0  0  0  0  0  0  0  0  0  0
   -1.6708   22.6352  -32.1486 H   0  0  0  0  0  0  0  0  0  0  0  0
   -3.0841   21.7705  -34.0267 H   0  0  0  0  0  0  0  0  0  0  0  0
   -3.0943   19.3106  -34.5658 H   0  0  0  0  0  0  0  0  0  0  0  0
   -4.0691   18.5515  -33.2558 H   0  0  0  0  0  0  0  0  0  0  0  0
  1  2  2  0
  2  3  1  0
  3  4  1  0
  4  5  2  0
  5  6  1  0
  6  7  2  0
  7  8  1  0
  8  9  1  0
  9 10  2  0
  9 11  2  0
  9 12  1  0
 12 13  1  0
 13 14  1  0
 14 15  1  0
 15 16  1  0
 16 17  1  0
  8 18  2  0
  2 19  1  0
 19 20  2  0
 20 21  1  0
 21 22  2  0
 22 23  1  0
 23 24  1  0
 24 25  2  0
 24 26  2  0
 24 27  1  0
 27 28  1  0
 28 29  1  0
 29 30  1  0
 30 31  2  0
 31 32  1  0
 32 33  2  0
 33 34  1  0
 34 35  2  0
 23 36  2  0
 18  4  1  0
 36 19  1  0
 17 12  1  0
 35 27  1  0
 35 30  1  0
  3 37  1  0
  5 38  1  0
  6 39  1  0
  7 40  1  0
 13 41  1  0
 13 42  1  0
 14 43  1  0
 14 44  1  0
 16 45  1  0
 16 46  1  0
 17 47  1  0
 17 48  1  0
 18 49  1  0
 20 50  1  0
 21 51  1  0
 22 52  1  0
 28 53  1  0
 28 54  1  0
 29 55  1  0
 29 56  1  0
 31 57  1  0
 32 58  1  0
 33 59  1  0
 34 60  1  0
 36 61  1  0
M  END
>  <UniqueID>  (3) 
3

>  <SMILES>  (3) 
O=C(Nc1cccc(S(=O)(=O)N2CCOCC2)c1)c1cccc(S(=O)(=O)N2CCc3ccccc32)c1

>  <Energy>  (3) 
99.00460792150298

>  <Genealogy>  (3) 
O=C(Nc1cccc(S(=O)(=O)N2CCOCC2)c1)c1cccc(S(=O)(=O)N2CCc3ccccc32)c1 (3D coordinates assigned)
O=C(Nc1cccc(S(=O)(=O)N2CCOCC2)c1)c1cccc(S(=O)(=O)N2CCc3ccccc32)c1 (nonaromatic ring conformer: 99.00460792150298 kcal/mol)

>  <smiles>  (3) 
O=C(Nc1cccc(S(=O)(=O)N2CCOCC2)c1)c1cccc(S(=O)(=O)N2CCc3ccccc32)c1

>  <score_type>  (3) 
oracle

>  <origin>  (3) 
adgpu

>  <m_score__min__energy>  (3) 
-10.710000000000001

>  <m_primary>  (3) 
energy

$$$$
3:0
     RDKit          3D

 28 30  0  0  0  0  0  0  0  0999 V2000
   -2.8380   25.1210  -29.3200 N   0  0  0  0  0  0  0  0  0  0  0  0
   -3.4910   24.0860  -30.0600 C   0  0  0  0  0  0  0  0  0  0  0  0
   -2.7380   23.1090  -30.7160 C   0  0  0  0  0  0  0  0  0  0  0  0
   -3.3770   22.0940  -31.4280 C   0  0  0  0  0  0  0  0  0  0  0  0
   -4.7760   22.0270  -31.4980 C   0  0  0  0  0  0  0  0  0  0  0  0
   -5.5430   23.0500  -30.8800 C   0  0  0  0  0  0  0  0  0  0  0  0
   -4.8860   24.0530  -30.1450 C   0  0  0  0  0  0  0  0  0  0  0  0
   -6.9650   23.1470  -31.0270 N   0  0  0  0  0  0  0  0  0  0  0  0
   -7.6520   22.6430  -32.2010 C   0  0  0  0  0  0  0  0  0  0  0  0
   -7.7610   21.1610  -32.0940 C   0  0  0  0  0  0  0  0  0  0  0  0
   -9.0250   20.5490  -32.0260 C   0  0  0  0  0  0  0  0  0  0  0  0
   -9.1330   19.1580  -31.9680 C   0  0  0  0  0  0  0  0  0  0  0  0
   -7.9820   18.3680  -31.9850 C   0  0  0  0  0  0  0  0  0  0  0  0
   -6.7230   18.9710  -32.0490 C   0  0  0  0  0  0  0  0  0  0  0  0
   -6.5990   20.3660  -32.0840 C   0  0  0  0  0  0  0  0  0  0  0  0
   -5.3050   20.9010  -32.1590 O   0  0  0  0  0  0  0  0  0  0  0  0
   -3.1270   25.3430  -28.3410 H   0  0  0  0  0  0  0  0  0  0  0  0
   -2.0600   25.6740  -29.7450 H   0  0  0  0  0  0  0  0  0  0  0  0
   -1.6394   23.1403  -30.6709 H   0  0  0  0  0  0  0  0  0  0  0  0
   -2.7730   21.3328  -31.9436 H   0  0  0  0  0  0  0  0  0  0  0  0
   -5.4786   24.8230  -29.6293 H   0  0  0  0  0  0  0  0  0  0  0  0
   -7.5040   23.7640  -30.3760 H   0  0  0  0  0  0  0  0  0  0  0  0
   -8.6579   23.0845  -32.2588 H   0  0  0  0  0  0  0  0  0  0  0  0
   -7.0898   22.9120  -33.1074 H   0  0  0  0  0  0  0  0  0  0  0  0
   -9.9335   21.1691  -32.0185 H   0  0  0  0  0  0  0  0  0  0  0  0
  -10.1243   18.6850  -31.9090 H   0  0  0  0  0  0  0  0  0  0  0  0
   -8.0661   17.2718  -31.9480 H   0  0  0  0  0  0  0  0  0  0  0  0
   -5.8197   18.3437  -32.0721 H   0  0  0  0  0  0  0  0  0  0  0  0
  1  2  1  0
  2  3  2  0
  3  4  1  0
  4  5  2  0
  5  6  1  0
  6  7  2  0
  6  8  1  0
  8  9  1  0
  9 10  1  0
 10 11  2  0
 11 12  1  0
 12 13  2  0
 13 14  1  0
 14 15  2  0
 15 16  1  0
  7  2  1  0
 15 10  1  0
 16  5  1  0
  1 17  1  0
  1 18  1  0
  3 19  1  0
  4 20  1  0
  7 21  1  0
  8 22  1  0
  9 23  1  0
  9 24  1  0
 11 25  1  0
 12 26  1  0
 13 27  1  0
 14 28  1  0
M  END
>  <UniqueID>  (4) 
4

>  <SMILES>  (4) 
Nc1ccc2c(c1)NCc1ccccc1O2

>  <Energy>  (4) 
42.74894788229112

>  <Genealogy>  (4) 
Nc1ccc2c(c1)NCc1ccccc1O2 (3D coordinates assigned)
Nc1ccc2c(c1)NCc1ccccc1O2 (nonaromatic ring conformer: 42.74894788229112 kcal/mol)

>  <smiles>  (4) 
Nc1ccc2c(c1)NCc1ccccc1O2

>  <score_type>  (4) 
oracle

>  <origin>  (4) 
adgpu

>  <m_score__min__energy>  (4) 
-6.9500000000000002

>  <m_primary>  (4) 
energy

$$$$
4:0
     RDKit          3D

 59 63  0  0  0  0  0  0  0  0999 V2000
   -5.3880   26.3520  -30.5770 O   0  0  0  0  0  0  0  0  0  0  0  0
   -4.9160   25.1880  -30.5700 C   0  0  0  0  0  0  0  0  0  0  0  0
   -3.4980   24.9860  -30.4780 N   0  0  0  0  0  0  0  0  0  0  0  0
   -2.8400   23.7680  -30.0850 C   0  0  0  0  0  0  0  0  0  0  0  0
   -2.3970   23.5520  -28.7590 C   0  0  0  0  0  0  0  0  0  0  0  0
   -1.7610   22.3580  -28.4130 C   0  0  0  0  0  0  0  0  0  0  0  0
   -1.5710   21.3650  -29.3820 C   0  0  0  0  0  0  0  0  0  0  0  0
   -2.0170   21.5560  -30.7020 C   0  0  0  0  0  0  0  0  0  0  0  0
   -1.8160   20.5280  -31.6990 N   0  0  0  0  0  0  0  0  0  0  0  0
   -2.7870   20.3030  -32.6340 C   0  0  0  0  0  0  0  0  0  0  0  0
   -2.6430   19.2830  -33.5760 C   0  0  0  0  0  0  0  0  0  0  0  0
   -1.4960   18.4860  -33.5390 C   0  0  0  0  0  0  0  0  0  0  0  0
   -1.2970   17.4150  -34.4840 N   0  0  0  0  0  0  0  0  0  0  0  0
   -0.0240   17.0380  -35.1040 C   0  0  0  0  0  0  0  0  0  0  0  0
   -0.3840   15.9630  -36.1600 C   0  0  0  0  0  0  0  0  0  0  0  0
   -1.7920   15.7670  -36.0480 O   0  0  0  0  0  0  0  0  0  0  0  0
   -2.2940   16.6270  -35.1000 C   0  0  0  0  0  0  0  0  0  0  0  0
   -3.5260   16.6750  -34.8040 O   0  0  0  0  0  0  0  0  0  0  0  0
   -0.5360   18.7610  -32.6160 N   0  0  0  0  0  0  0  0  0  0  0  0
   -0.6840   19.7610  -31.7070 C   0  0  0  0  0  0  0  0  0  0  0  0
    0.2430   19.9720  -30.8710 O   0  0  0  0  0  0  0  0  0  0  0  0
   -2.6720   22.7570  -31.0430 C   0  0  0  0  0  0  0  0  0  0  0  0
   -5.8260   24.0230  -30.7000 C   0  0  0  0  0  0  0  0  0  0  0  0
   -6.8180   23.7750  -29.7300 C   0  0  0  0  0  0  0  0  0  0  0  0
   -7.6590   22.6630  -29.8430 C   0  0  0  0  0  0  0  0  0  0  0  0
   -7.5250   21.7880  -30.9210 C   0  0  0  0  0  0  0  0  0  0  0  0
   -6.5410   22.0180  -31.8990 C   0  0  0  0  0  0  0  0  0  0  0  0
   -6.3970   21.0830  -33.0710 C   0  0  0  0  0  0  0  0  0  0  0  0
   -6.4940   19.6730  -32.6310 N   0  0  0  0  0  0  0  0  0  0  0  0
   -5.7530   18.7580  -33.5420 C   0  0  0  0  0  0  0  0  0  0  0  0
   -6.4550   17.3950  -33.7210 C   0  0  0  0  0  0  0  0  0  0  0  0
   -6.9830   16.9500  -32.4920 O   0  0  0  0  0  0  0  0  0  0  0  0
   -7.9990   17.8150  -31.9930 C   0  0  0  0  0  0  0  0  0  0  0  0
   -7.9060   19.2760  -32.4970 C   0  0  0  0  0  0  0  0  0  0  0  0
   -5.7030   23.1430  -31.7900 C   0  0  0  0  0  0  0  0  0  0  0  0
   -2.5544   24.3289  -27.9963 H   0  0  0  0  0  0  0  0  0  0  0  0
   -1.4104   22.1979  -27.3827 H   0  0  0  0  0  0  0  0  0  0  0  0
   -1.0678   20.4260  -29.1079 H   0  0  0  0  0  0  0  0  0  0  0  0
   -3.6899   20.9312  -32.6443 H   0  0  0  0  0  0  0  0  0  0  0  0
   -3.4199   19.1095  -34.3351 H   0  0  0  0  0  0  0  0  0  0  0  0
    0.4427   17.9098  -35.5858 H   0  0  0  0  0  0  0  0  0  0  0  0
    0.6958   16.6594  -34.3634 H   0  0  0  0  0  0  0  0  0  0  0  0
   -0.1251   16.3153  -37.1694 H   0  0  0  0  0  0  0  0  0  0  0  0
    0.1703   15.0278  -35.9920 H   0  0  0  0  0  0  0  0  0  0  0  0
   -3.0530   22.9020  -32.0647 H   0  0  0  0  0  0  0  0  0  0  0  0
   -6.9317   24.4611  -28.8777 H   0  0  0  0  0  0  0  0  0  0  0  0
   -8.4286   22.4779  -29.0792 H   0  0  0  0  0  0  0  0  0  0  0  0
   -8.1904   20.9162  -31.0063 H   0  0  0  0  0  0  0  0  0  0  0  0
   -7.1959   21.2900  -33.7982 H   0  0  0  0  0  0  0  0  0  0  0  0
   -5.4108   21.2426  -33.5314 H   0  0  0  0  0  0  0  0  0  0  0  0
   -5.6635   19.2393  -34.5270 H   0  0  0  0  0  0  0  0  0  0  0  0
   -4.7684   18.5668  -33.0904 H   0  0  0  0  0  0  0  0  0  0  0  0
   -7.2722   17.5009  -34.4497 H   0  0  0  0  0  0  0  0  0  0  0  0
   -5.7207   16.6596  -34.0815 H   0  0  0  0  0  0  0  0  0  0  0  0
   -8.9751   17.4088  -32.2966 H   0  0  0  0  0  0  0  0  0  0  0  0
   -7.8681   17.8527  -30.9015 H   0  0  0  0  0  0  0  0  0  0  0  0
   -8.4015   19.3561  -33.4758 H   0  0  0  0  0  0  0  0  0  0  0  0
   -8.4010   19.9402  -31.7732 H   0  0  0  0  0  0  0  0  0  0  0  0
   -4.9454   23.3358  -32.5638 H   0  0  0  0  0  0  0  0  0  0  0  0
  1  2  2  0
  2  3  1  0
  3  4  1  0
  4  5  2  0
  5  6  1  0
  6  7  2  0
  7  8  1  0
  8  9  1  0
  9 10  1  0
 10 11  2  0
 11 12  1  0
 12 13  1  0
 13 14  1  0
 14 15  1  0
 15 16  1  0
 16 17  1  0
 17 18  2  0
 12 19  2  0
 19 20  1  0
 20 21  2  0
  8 22  2  0
  2 23  1  0
 23 24  2  0
 24 25  1  0
 25 26  2  0
 26 27  1  0
 27 28  1  0
 28 29  1  0
 29 30  1  0
 30 31  1  0
 31 32  1  0
 32 33  1  0
 33 34  1  0
 27 35  2  0
 22  4  1  0
 35 23  1  0
 20  9  1  0
 34 29  1  0
 17 13  1  0
  5 36  1  0
  6 37  1  0
  7 38  1  0
 10 39  1  0
 11 40  1  0
 14 41  1  0
 14 42  1  0
 15 43  1  0
 15 44  1  0
 22 45  1  0
 24 46  1  0
 25 47  1  0
 26 48  1  0
 28 49  1  0
 28 50  1  0
 30 51  1  0
 30 52  1  0
 31 53  1  0
 31 54  1  0
 33 55  1  0
 33 56  1  0
 34 57  1  0
 34 58  1  0
 35 59  1  0
M  CHG  1   3  -1
M  END
>  <UniqueID>  (5) 
5

>  <SMILES>  (5) 
O=C([N-]c1cccc(-n2ccc(N3CCOC3=O)nc2=O)c1)c1cccc(CN2CCOCC2)c1

>  <Energy>  (5) 
104.62538198219916

>  <Genealogy>  (5) 
O=C([N-]c1cccc(-n2ccc(N3CCOC3=O)nc2=O)c1)c1cccc(CN2CCOCC2)c1 (protonated)
O=C([N-]c1cccc(-n2ccc(N3CCOC3=O)nc2=O)c1)c1cccc(CN2CCOCC2)c1 (3D coordinates assigned)
O=C([N-]c1cccc(-n2ccc(N3CCOC3=O)nc2=O)c1)c1cccc(CN2CCOCC2)c1 (nonaromatic ring conformer: 104.62538198219916 kcal/mol)

>  <smiles>  (5) 
O=C(Nc1cccc(-n2ccc(N3CCOC3=O)nc2=O)c1)c1cccc(CN2CCOCC2)c1

>  <score_type>  (5) 
oracle

>  <origin>  (5) 
adgpu

>  <m_score__min__energy>  (5) 
-11.550000000000001

>  <m_primary>  (5) 
energy

$$$$
5:0
     RDKit          3D

 42 44  0  0  0  0  0  0  0  0999 V2000
    3.9980   23.8400  -36.4040 C   0  0  0  0  0  0  0  0  0  0  0  0
    2.6490   24.4720  -36.6180 C   0  0  0  0  0  0  0  0  0  0  0  0
    2.5220   25.5780  -37.4740 C   0  0  0  0  0  0  0  0  0  0  0  0
    1.2770   26.1760  -37.6770 C   0  0  0  0  0  0  0  0  0  0  0  0
    0.1490   25.6790  -37.0240 C   0  0  0  0  0  0  0  0  0  0  0  0
    0.2620   24.5820  -36.1650 C   0  0  0  0  0  0  0  0  0  0  0  0
    1.5100   23.9690  -35.9520 C   0  0  0  0  0  0  0  0  0  0  0  0
    1.6530   22.8430  -35.0720 N   0  0  0  0  0  0  0  0  0  0  0  0
    0.7550   21.3650  -35.1750 S   0  0  0  0  0  0  0  0  0  0  0  0
    1.6500   20.2740  -35.6930 O   0  0  0  0  0  0  0  0  0  0  0  0
   -0.4210   21.5370  -36.0950 O   0  0  0  0  0  0  0  0  0  0  0  0
    0.1670   20.9510  -33.5690 C   0  0  0  0  0  0  0  0  0  0  0  0
    0.9630   20.2170  -32.6780 C   0  0  0  0  0  0  0  0  0  0  0  0
    0.4830   19.8970  -31.4050 C   0  0  0  0  0  0  0  0  0  0  0  0
   -0.7990   20.3170  -31.0040 C   0  0  0  0  0  0  0  0  0  0  0  0
   -1.3380   19.9890  -29.7150 N   0  0  0  0  0  0  0  0  0  0  0  0
   -2.1780   20.8240  -28.9050 C   0  0  0  0  0  0  0  0  0  0  0  0
   -3.0390   20.3040  -28.1440 O   0  0  0  0  0  0  0  0  0  0  0  0
   -1.9970   22.2950  -28.9180 C   0  0  0  0  0  0  0  0  0  0  0  0
   -0.9760   22.8960  -28.1580 C   0  0  0  0  0  0  0  0  0  0  0  0
   -0.8060   24.2840  -28.1710 C   0  0  0  0  0  0  0  0  0  0  0  0
   -1.6510   25.0880  -28.9410 C   0  0  0  0  0  0  0  0  0  0  0  0
   -1.4740   26.4670  -28.9490 O   0  0  0  0  0  0  0  0  0  0  0  0
   -2.6710   24.5040  -29.6990 C   0  0  0  0  0  0  0  0  0  0  0  0
   -3.5150   25.2990  -30.4650 O   0  0  0  0  0  0  0  0  0  0  0  0
   -2.8440   23.1150  -29.6880 C   0  0  0  0  0  0  0  0  0  0  0  0
   -1.6010   21.0230  -31.9090 C   0  0  0  0  0  0  0  0  0  0  0  0
   -1.1180   21.3460  -33.1800 C   0  0  0  0  0  0  0  0  0  0  0  0
    4.1931   23.7486  -35.3253 H   0  0  0  0  0  0  0  0  0  0  0  0
    4.0124   22.8414  -36.8651 H   0  0  0  0  0  0  0  0  0  0  0  0
    4.7745   24.4681  -36.8651 H   0  0  0  0  0  0  0  0  0  0  0  0
    3.4095   25.9758  -37.9880 H   0  0  0  0  0  0  0  0  0  0  0  0
    1.1855   27.0395  -38.3522 H   0  0  0  0  0  0  0  0  0  0  0  0
   -0.8313   26.1512  -37.1853 H   0  0  0  0  0  0  0  0  0  0  0  0
   -0.6311   24.1955  -35.6521 H   0  0  0  0  0  0  0  0  0  0  0  0
    1.9689   19.8919  -32.9821 H   0  0  0  0  0  0  0  0  0  0  0  0
    1.1098   19.3145  -30.7137 H   0  0  0  0  0  0  0  0  0  0  0  0
   -0.3072   22.2695  -27.5496 H   0  0  0  0  0  0  0  0  0  0  0  0
   -0.0051   24.7442  -27.5736 H   0  0  0  0  0  0  0  0  0  0  0  0
   -3.6479   22.6605  -30.2856 H   0  0  0  0  0  0  0  0  0  0  0  0
   -2.6177   21.3253  -31.6177 H   0  0  0  0  0  0  0  0  0  0  0  0
   -1.7509   21.9135  -33.8781 H   0  0  0  0  0  0  0  0  0  0  0  0
  1  2  1  0
  2  3  2  0
  3  4  1  0
  4  5  2  0
  5  6  1  0
  6  7  2  0
  7  8  1  0
  8  9  1  0
  9 10  2  0
  9 11  2  0
  9 12  1  0
 12 13  2  0
 13 14  1  0
 14 15  2  0
 15 16  1  0
 16 17  1  0
 17 18  2  0
 17 19  1  0
 19 20  2  0
 20 21  1  0
 21 22  2  0
 22 23  1  0
 22 24  1  0
 24 25  1  0
 24 26  2  0
 15 27  1  0
 27 28  2  0
  7  2  1  0
 28 12  1  0
 26 19  1  0
  1 29  1  0
  1 30  1  0
  1 31  1  0
  3 32  1  0
  4 33  1  0
  5 34  1  0
  6 35  1  0
 13 36  1  0
 14 37  1  0
 20 38  1  0
 21 39  1  0
 26 40  1  0
 27 41  1  0
 28 42  1  0
M  CHG  4   8  -1  16  -1  23  -1  25  -1
M  END
>  <UniqueID>  (6) 
6

>  <SMILES>  (6) 
Cc1ccccc1[N-]S(=O)(=O)c1ccc([N-]C(=O)c2ccc([O-])c([O-])c2)cc1

>  <Energy>  (6) 
53.83612245015127

>  <Genealogy>  (6) 
Cc1ccccc1[N-]S(=O)(=O)c1ccc([N-]C(=O)c2ccc([O-])c([O-])c2)cc1 (protonated)
Cc1ccccc1[N-]S(=O)(=O)c1ccc([N-]C(=O)c2ccc([O-])c([O-])c2)cc1 (3D coordinates assigned)
Cc1ccccc1[N-]S(=O)(=O)c1ccc([N-]C(=O)c2ccc([O-])c([O-])c2)cc1 (optimized conformer: 53.83612245015127 kcal/mol)

>  <smiles>  (6) 
Cc1ccccc1NS(=O)(=O)c1ccc(NC(=O)c2ccc(O)c(O)c2)cc1

>  <score_type>  (6) 
oracle

>  <origin>  (6) 
adgpu

>  <m_score__min__energy>  (6) 
-13.859999999999999

>  <m_primary>  (6) 
energy

$$$$
6:0
     RDKit          3D

 47 49  0  0  0  0  0  0  0  0999 V2000
   -3.9860   16.7180  -35.0590 C   0  0  0  0  0  0  0  0  0  0  0  0
   -4.5620   17.8460  -34.3160 N   0  0  0  0  0  0  0  0  0  0  0  0
   -3.5490   18.4340  -33.4310 C   0  0  0  0  0  0  0  0  0  0  0  0
   -5.9120   17.2880  -33.3610 S   0  0  0  0  0  0  0  0  0  0  0  0
   -6.8160   16.4240  -34.1980 O   0  0  0  0  0  0  0  0  0  0  0  0
   -5.4110   16.4730  -32.2010 O   0  0  0  0  0  0  0  0  0  0  0  0
   -6.8100   18.6670  -32.7320 C   0  0  0  0  0  0  0  0  0  0  0  0
   -8.0540   18.4880  -32.1150 C   0  0  0  0  0  0  0  0  0  0  0  0
   -8.7570   19.5910  -31.6250 C   0  0  0  0  0  0  0  0  0  0  0  0
   -8.2300   20.8780  -31.7590 C   0  0  0  0  0  0  0  0  0  0  0  0
   -6.9940   21.0720  -32.4040 C   0  0  0  0  0  0  0  0  0  0  0  0
   -6.4050   22.3720  -32.5500 N   0  0  0  0  0  0  0  0  0  0  0  0
   -5.0200   22.7110  -32.3930 C   0  0  0  0  0  0  0  0  0  0  0  0
   -4.1910   22.4640  -33.3060 O   0  0  0  0  0  0  0  0  0  0  0  0
   -4.5590   23.3420  -31.1930 N   0  0  0  0  0  0  0  0  0  0  0  0
   -3.3920   22.9810  -30.4400 C   0  0  0  0  0  0  0  0  0  0  0  0
   -2.8960   21.6660  -30.4400 C   0  0  0  0  0  0  0  0  0  0  0  0
   -1.7380   21.3510  -29.7300 C   0  0  0  0  0  0  0  0  0  0  0  0
   -1.0540   22.3400  -29.0180 C   0  0  0  0  0  0  0  0  0  0  0  0
    0.1080   21.9950  -28.3370 O   0  0  0  0  0  0  0  0  0  0  0  0
   -1.5330   23.6640  -29.0090 C   0  0  0  0  0  0  0  0  0  0  0  0
   -0.6630   24.9330  -28.1310 S   0  0  0  0  0  0  0  0  0  0  0  0
   -0.8940   26.2690  -28.7830 O   0  0  0  0  0  0  0  0  0  0  0  0
    0.8130   24.6520  -28.1570 O   0  0  0  0  0  0  0  0  0  0  0  0
   -1.2270   24.9330  -26.4310 C   0  0  0  0  0  0  0  0  0  0  0  0
   -1.5970   26.2980  -25.8750 C   0  0  0  0  0  0  0  0  0  0  0  0
   -2.6890   25.3060  -26.2460 C   0  0  0  0  0  0  0  0  0  0  0  0
   -2.6920   23.9810  -29.7470 C   0  0  0  0  0  0  0  0  0  0  0  0
   -3.1550   25.2920  -29.7990 O   0  0  0  0  0  0  0  0  0  0  0  0
   -6.2830   19.9580  -32.8710 C   0  0  0  0  0  0  0  0  0  0  0  0
   -3.6035   15.9690  -34.3500 H   0  0  0  0  0  0  0  0  0  0  0  0
   -4.7614   16.2616  -35.6918 H   0  0  0  0  0  0  0  0  0  0  0  0
   -3.1616   17.0785  -35.6918 H   0  0  0  0  0  0  0  0  0  0  0  0
   -3.8367   18.2670  -32.3825 H   0  0  0  0  0  0  0  0  0  0  0  0
   -2.5747   17.9610  -33.6237 H   0  0  0  0  0  0  0  0  0  0  0  0
   -3.4765   19.5146  -33.6237 H   0  0  0  0  0  0  0  0  0  0  0  0
   -8.4781   17.4779  -32.0161 H   0  0  0  0  0  0  0  0  0  0  0  0
   -9.7294   19.4458  -31.1317 H   0  0  0  0  0  0  0  0  0  0  0  0
   -8.7821   21.7415  -31.3596 H   0  0  0  0  0  0  0  0  0  0  0  0
   -3.4237   20.8818  -31.0026 H   0  0  0  0  0  0  0  0  0  0  0  0
   -1.3606   20.3178  -29.7303 H   0  0  0  0  0  0  0  0  0  0  0  0
   -0.5831   24.1060  -26.0972 H   0  0  0  0  0  0  0  0  0  0  0  0
   -1.4028   26.5324  -24.8180 H   0  0  0  0  0  0  0  0  0  0  0  0
   -1.3654   27.3381  -26.1481 H   0  0  0  0  0  0  0  0  0  0  0  0
   -3.2845   24.8229  -25.4573 H   0  0  0  0  0  0  0  0  0  0  0  0
   -3.5742   25.3312  -26.8986 H   0  0  0  0  0  0  0  0  0  0  0  0
   -5.3031   20.0983  -33.3506 H   0  0  0  0  0  0  0  0  0  0  0  0
  1  2  1  0
  2  3  1  0
  2  4  1  0
  4  5  2  0
  4  6  2  0
  4  7  1  0
  7  8  2  0
  8  9  1  0
  9 10  2  0
 10 11  1  0
 11 12  1  0
 12 13  1  0
 13 14  2  0
 13 15  1  0
 15 16  1  0
 16 17  2  0
 17 18  1  0
 18 19  2  0
 19 20  1  0
 19 21  1  0
 21 22  1  0
 22 23  2  0
 22 24  2  0
 22 25  1  0
 25 26  1  0
 26 27  1  0
 21 28  2  0
 28 29  1  0
 11 30  2  0
 30  7  1  0
 28 16  1  0
 27 25  1  0
  1 31  1  0
  1 32  1  0
  1 33  1  0
  3 34  1  0
  3 35  1  0
  3 36  1  0
  8 37  1  0
  9 38  1  0
 10 39  1  0
 17 40  1  0
 18 41  1  0
 25 42  1  0
 26 43  1  0
 26 44  1  0
 27 45  1  0
 27 46  1  0
 30 47  1  0
M  CHG  4  12  -1  15  -1  20  -1  29  -1
M  END
>  <UniqueID>  (7) 
7

>  <SMILES>  (7) 
CN(C)S(=O)(=O)c1cccc([N-]C(=O)[N-]c2ccc([O-])c(S(=O)(=O)C3CC3)c2[O-])c1

>  <Energy>  (7) 
318.048040304848

>  <Genealogy>  (7) 
CN(C)S(=O)(=O)c1cccc([N-]C(=O)[N-]c2ccc([O-])c(S(=O)(=O)C3CC3)c2[O-])c1 (protonated)
CN(C)S(=O)(=O)c1cccc([N-]C(=O)[N-]c2ccc([O-])c(S(=O)(=O)C3CC3)c2[O-])c1 (3D coordinates assigned)
CN(C)S(=O)(=O)c1cccc([N-]C(=O)[N-]c2ccc([O-])c(S(=O)(=O)C3CC3)c2[O-])c1 (nonaromatic ring conformer: 318.048040304848 kcal/mol)

>  <smiles>  (7) 
CN(C)S(=O)(=O)c1cccc(NC(=O)Nc2ccc(O)c(S(=O)(=O)C3CC3)c2O)c1

>  <score_type>  (7) 
oracle

>  <origin>  (7) 
adgpu

>  <m_score__min__energy>  (7) 
-15.65

>  <m_primary>  (7) 
energy

$$$$
7:0
     RDKit          3D

 54 56  0  0  0  0  0  0  0  0999 V2000
   -2.2740   20.0120  -27.0640 C   0  0  0  0  0  0  0  0  0  0  0  0
   -1.5930   21.3340  -26.7230 C   0  0  0  0  0  0  0  0  0  0  0  0
   -2.0690   22.4610  -27.6190 C   0  0  0  0  0  0  0  0  0  0  0  0
   -3.3350   22.3070  -28.2080 C   0  0  0  0  0  0  0  0  0  0  0  0
   -3.8440   23.2590  -29.0820 C   0  0  0  0  0  0  0  0  0  0  0  0
   -3.0970   24.3860  -29.4090 C   0  0  0  0  0  0  0  0  0  0  0  0
   -3.6250   25.2890  -30.3870 N   0  0  0  0  0  0  0  0  0  0  0  0
   -4.9880   25.2700  -30.8220 C   0  0  0  0  0  0  0  0  0  0  0  0
   -5.8370   25.9690  -30.2090 O   0  0  0  0  0  0  0  0  0  0  0  0
   -5.3680   24.4870  -31.9640 N   0  0  0  0  0  0  0  0  0  0  0  0
   -6.0650   23.2330  -31.9540 C   0  0  0  0  0  0  0  0  0  0  0  0
   -7.4640   23.2460  -31.9470 C   0  0  0  0  0  0  0  0  0  0  0  0
   -8.1850   22.0490  -31.9610 C   0  0  0  0  0  0  0  0  0  0  0  0
   -7.5110   20.8210  -32.0000 C   0  0  0  0  0  0  0  0  0  0  0  0
   -8.4200   19.3090  -32.0330 S   0  0  0  0  0  0  0  0  0  0  0  0
   -9.1030   19.1140  -30.7060 O   0  0  0  0  0  0  0  0  0  0  0  0
   -9.4840   19.3940  -33.0930 O   0  0  0  0  0  0  0  0  0  0  0  0
   -7.3840   17.9410  -32.3590 N   0  0  0  0  0  0  0  0  0  0  0  0
   -6.4970   17.7030  -31.2130 C   0  0  0  0  0  0  0  0  0  0  0  0
   -6.5910   18.1930  -33.5690 C   0  0  0  0  0  0  0  0  0  0  0  0
   -6.1100   20.8040  -32.0320 C   0  0  0  0  0  0  0  0  0  0  0  0
   -5.3890   22.0010  -32.0160 C   0  0  0  0  0  0  0  0  0  0  0  0
   -1.8440   24.6000  -28.7960 C   0  0  0  0  0  0  0  0  0  0  0  0
   -1.1320   25.7750  -29.0490 O   0  0  0  0  0  0  0  0  0  0  0  0
   -1.3030   23.6310  -27.9140 C   0  0  0  0  0  0  0  0  0  0  0  0
    0.3530   23.9010  -27.2810 S   0  0  0  0  0  0  0  0  0  0  0  0
    1.0830   22.5880  -27.1980 O   0  0  0  0  0  0  0  0  0  0  0  0
    1.1530   24.7770  -28.1990 O   0  0  0  0  0  0  0  0  0  0  0  0
    0.3510   24.6600  -25.6520 C   0  0  0  0  0  0  0  0  0  0  0  0
   -0.9860   25.1730  -25.1350 C   0  0  0  0  0  0  0  0  0  0  0  0
   -0.4130   23.8740  -24.5960 C   0  0  0  0  0  0  0  0  0  0  0  0
   -2.5438   19.4882  -26.1351 H   0  0  0  0  0  0  0  0  0  0  0  0
   -3.1830   20.2086  -27.6514 H   0  0  0  0  0  0  0  0  0  0  0  0
   -1.5862   19.3860  -27.6514 H   0  0  0  0  0  0  0  0  0  0  0  0
   -1.8183   21.5911  -25.6775 H   0  0  0  0  0  0  0  0  0  0  0  0
   -0.5107   21.2101  -26.8756 H   0  0  0  0  0  0  0  0  0  0  0  0
   -3.9347   21.4154  -27.9725 H   0  0  0  0  0  0  0  0  0  0  0  0
   -4.8442   23.1209  -29.5184 H   0  0  0  0  0  0  0  0  0  0  0  0
   -8.0007   24.2061  -31.9303 H   0  0  0  0  0  0  0  0  0  0  0  0
   -9.2846   22.0708  -31.9414 H   0  0  0  0  0  0  0  0  0  0  0  0
   -7.0572   17.8533  -30.2783 H   0  0  0  0  0  0  0  0  0  0  0  0
   -6.1175   16.6712  -31.2511 H   0  0  0  0  0  0  0  0  0  0  0  0
   -5.6520   18.4062  -31.2511 H   0  0  0  0  0  0  0  0  0  0  0  0
   -5.5786   18.5147  -33.2835 H   0  0  0  0  0  0  0  0  0  0  0  0
   -6.5282   17.2706  -34.1649 H   0  0  0  0  0  0  0  0  0  0  0  0
   -7.0722   18.9825  -34.1649 H   0  0  0  0  0  0  0  0  0  0  0  0
   -5.5752   19.8435  -32.0699 H   0  0  0  0  0  0  0  0  0  0  0  0
   -4.2898   21.9797  -32.0520 H   0  0  0  0  0  0  0  0  0  0  0  0
   -0.1230   25.8280  -29.0210 H   0  0  0  0  0  0  0  0  0  0  0  0
    1.3556   25.0984  -25.7445 H   0  0  0  0  0  0  0  0  0  0  0  0
   -1.0215   26.0661  -24.4939 H   0  0  0  0  0  0  0  0  0  0  0  0
   -1.9377   25.4690  -25.6004 H   0  0  0  0  0  0  0  0  0  0  0  0
   -0.0337   23.8266  -23.5645 H   0  0  0  0  0  0  0  0  0  0  0  0
   -0.7783   22.8400  -24.5096 H   0  0  0  0  0  0  0  0  0  0  0  0
  1  2  1  0
  2  3  1  0
  3  4  2  0
  4  5  1  0
  5  6  2  0
  6  7  1  0
  7  8  1  0
  8  9  2  0
  8 10  1  0
 10 11  1  0
 11 12  2  0
 12 13  1  0
 13 14  2  0
 14 15  1  0
 15 16  2  0
 15 17  2  0
 15 18  1  0
 18 19  1  0
 18 20  1  0
 14 21  1  0
 21 22  2  0
  6 23  1  0
 23 24  1  0
 23 25  2  0
 25 26  1  0
 26 27  2  0
 26 28  2  0
 26 29  1  0
 29 30  1  0
 30 31  1  0
 25  3  1  0
 31 29  1  0
 22 11  1  0
  1 32  1  0
  1 33  1  0
  1 34  1  0
  2 35  1  0
  2 36  1  0
  4 37  1  0
  5 38  1  0
 12 39  1  0
 13 40  1  0
 19 41  1  0
 19 42  1  0
 19 43  1  0
 20 44  1  0
 20 45  1  0
 20 46  1  0
 21 47  1  0
 22 48  1  0
 24 49  1  0
 29 50  1  0
 30 51  1  0
 30 52  1  0
 31 53  1  0
 31 54  1  0
M  CHG  2   7  -1  10  -1
M  END
>  <UniqueID>  (8) 
8

>  <SMILES>  (8) 
CCc1ccc([N-]C(=O)[N-]c2ccc(S(=O)(=O)N(C)C)cc2)c(O)c1S(=O)(=O)C1CC1

>  <Energy>  (8) 
328.2650806259903

>  <Genealogy>  (8) 
CCc1ccc([N-]C(=O)[N-]c2ccc(S(=O)(=O)N(C)C)cc2)c(O)c1S(=O)(=O)C1CC1 (protonated)
CCc1ccc([N-]C(=O)[N-]c2ccc(S(=O)(=O)N(C)C)cc2)c(O)c1S(=O)(=O)C1CC1 (3D coordinates assigned)
CCc1ccc([N-]C(=O)[N-]c2ccc(S(=O)(=O)N(C)C)cc2)c(O)c1S(=O)(=O)C1CC1 (nonaromatic ring conformer: 328.2650806259903 kcal/mol)

>  <smiles>  (8) 
CCc1ccc(NC(=O)Nc2ccc(S(=O)(=O)N(C)C)cc2)c(O)c1S(=O)(=O)C1CC1

>  <score_type>  (8) 
oracle

>  <origin>  (8) 
adgpu

>  <m_score__min__energy>  (8) 
-13.73

>  <m_primary>  (8) 
energy

$$$$
8:0
     RDKit          3D

 27 28  0  0  0  0  0  0  0  0999 V2000
   -1.9895   20.0027  -30.7310 H   0  0  0  0  0  0  0  0  0  0  0  0
   -2.4660   20.9710  -30.9440 C   0  0  0  0  0  0  0  0  0  0  0  0
   -3.1590   21.3250  -32.0890 C   0  0  0  0  0  0  0  0  0  0  0  0
   -3.3970   20.4660  -33.2540 C   0  0  0  0  0  0  0  0  0  0  0  0
   -2.5670   20.4580  -34.2020 O   0  0  0  0  0  0  0  0  0  0  0  0
   -4.6240   19.7240  -33.3340 N   0  0  0  0  0  0  0  0  0  0  0  0
   -5.8280   20.0950  -32.9930 C   0  0  0  0  0  0  0  0  0  0  0  0
   -6.8570   19.1490  -33.0640 C   0  0  0  0  0  0  0  0  0  0  0  0
   -6.6410   18.1244  -33.4010 H   0  0  0  0  0  0  0  0  0  0  0  0
   -8.1560   19.5070  -32.7070 C   0  0  0  0  0  0  0  0  0  0  0  0
   -8.9658   18.7645  -32.7619 H   0  0  0  0  0  0  0  0  0  0  0  0
   -8.4300   20.8100  -32.2790 C   0  0  0  0  0  0  0  0  0  0  0  0
   -9.8290   21.2210  -31.9320 C   0  0  0  0  0  0  0  0  0  0  0  0
   -9.9409   21.2539  -30.8382 H   0  0  0  0  0  0  0  0  0  0  0  0
  -10.0333   22.2171  -32.3516 H   0  0  0  0  0  0  0  0  0  0  0  0
  -10.5396   20.4937  -32.3516 H   0  0  0  0  0  0  0  0  0  0  0  0
   -7.3870   21.7450  -32.2600 C   0  0  0  0  0  0  0  0  0  0  0  0
   -7.5905   22.7831  -31.9585 H   0  0  0  0  0  0  0  0  0  0  0  0
   -6.1220   21.3790  -32.6120 N   0  0  0  0  0  0  0  0  0  0  0  0
   -5.4050   22.1330  -32.6210 H   0  0  0  0  0  0  0  0  0  0  0  0
   -3.5890   22.5630  -31.9920 O   0  0  0  0  0  0  0  0  0  0  0  0
   -3.2050   23.0340  -30.8290 C   0  0  0  0  0  0  0  0  0  0  0  0
   -3.4960   24.3590  -30.3780 N   0  0  0  0  0  0  0  0  0  0  0  0
   -4.4470   25.0030  -30.8680 O   0  0  0  0  0  0  0  0  0  0  0  0
   -2.7240   24.9340  -29.3950 O   0  0  0  0  0  0  0  0  0  0  0  0
   -2.4950   22.0800  -30.1250 C   0  0  0  0  0  0  0  0  0  0  0  0
   -2.0484   22.1832  -29.1250 H   0  0  0  0  0  0  0  0  0  0  0  0
  1  2  1  0
  2  3  2  0
  3  4  1  0
  4  5  2  0
  4  6  1  0
  6  7  2  0
  7  8  1  0
  8  9  1  0
  8 10  2  0
 10 11  1  0
 10 12  1  0
 12 13  1  0
 13 14  1  0
 13 15  1  0
 13 16  1  0
 12 17  2  0
 17 18  1  0
 17 19  1  0
 19 20  1  0
  3 21  1  0
 21 22  1  0
 22 23  1  0
 23 24  2  0
 23 25  1  0
 22 26  2  0
 26 27  1  0
 26  2  1  0
 19  7  1  0
M  CHG  2  23   1  25  -1
M  END
>  <UniqueID>  (9) 
9

>  <SMILES>  (9) 
Cc1cc/c(=N/C(=O)c2ccc([N+](=O)[O-])o2)[nH]c1

>  <Energy>  (9) 
58.91838354801999

>  <Genealogy>  (9) 
Cc1cc/c(=N/C(=O)c2ccc([N+](=O)[O-])o2)[nH]c1 (cis-trans isomerization)
Cc1cc/c(=N/C(=O)c2ccc([N+](=O)[O-])o2)[nH]c1 (3D coordinates assigned)
Cc1cc/c(=N/C(=O)c2ccc([N+](=O)[O-])o2)[nH]c1 (optimized conformer: 58.91838354801999 kcal/mol)

>  <smiles>  (9) 
Cc1ccc(=NC(=O)c2ccc([N+](=O)[O-])o2)[nH]c1

>  <score_type>  (9) 
oracle

>  <origin>  (9) 
adgpu

>  <m_score__min__energy>  (9) 
-7.3399999999999999

>  <m_primary>  (9) 
energy

$$$$
9:0
     RDKit          3D

 41 43  0  0  0  0  0  0  0  0999 V2000
   -9.1200   19.0670  -31.7140 C   0  0  0  0  0  0  0  0  0  0  0  0
   -7.7070   18.9330  -32.1970 C   0  0  0  0  0  0  0  0  0  0  0  0
   -7.2680   19.6690  -33.3080 C   0  0  0  0  0  0  0  0  0  0  0  0
   -5.9630   19.5150  -33.7840 C   0  0  0  0  0  0  0  0  0  0  0  0
   -5.0850   18.6080  -33.1680 C   0  0  0  0  0  0  0  0  0  0  0  0
   -3.7100   18.4230  -33.6880 C   0  0  0  0  0  0  0  0  0  0  0  0
   -2.6610   19.3190  -33.3520 C   0  0  0  0  0  0  0  0  0  0  0  0
   -2.9020   20.5450  -32.5540 C   0  0  0  0  0  0  0  0  0  0  0  0
   -2.2160   20.7470  -31.3450 C   0  0  0  0  0  0  0  0  0  0  0  0
   -2.4580   21.8910  -30.5800 C   0  0  0  0  0  0  0  0  0  0  0  0
   -3.3780   22.8520  -31.0180 C   0  0  0  0  0  0  0  0  0  0  0  0
   -3.7070   24.2770  -30.0390 S   0  0  0  0  0  0  0  0  0  0  0  0
   -4.6440   23.7990  -28.6050 C   0  0  0  0  0  0  0  0  0  0  0  0
   -4.4900   25.2770  -30.8420 O   0  0  0  0  0  0  0  0  0  0  0  0
   -2.4150   24.9110  -29.6070 O   0  0  0  0  0  0  0  0  0  0  0  0
   -4.0580   22.6580  -32.2280 C   0  0  0  0  0  0  0  0  0  0  0  0
   -3.8160   21.5160  -32.9950 C   0  0  0  0  0  0  0  0  0  0  0  0
   -1.3590   19.0600  -33.8120 C   0  0  0  0  0  0  0  0  0  0  0  0
   -1.0970   17.9450  -34.6100 C   0  0  0  0  0  0  0  0  0  0  0  0
   -2.1280   17.0730  -34.9570 C   0  0  0  0  0  0  0  0  0  0  0  0
   -1.8650   15.9920  -35.7310 F   0  0  0  0  0  0  0  0  0  0  0  0
   -3.4280   17.3070  -34.5000 C   0  0  0  0  0  0  0  0  0  0  0  0
   -4.4080   16.4230  -34.8220 F   0  0  0  0  0  0  0  0  0  0  0  0
   -5.5300   17.8650  -32.0620 C   0  0  0  0  0  0  0  0  0  0  0  0
   -6.8340   18.0210  -31.5850 C   0  0  0  0  0  0  0  0  0  0  0  0
   -9.1330   19.0682  -30.6141 H   0  0  0  0  0  0  0  0  0  0  0  0
   -9.5471   20.0097  -32.0868 H   0  0  0  0  0  0  0  0  0  0  0  0
   -9.7167   18.2214  -32.0868 H   0  0  0  0  0  0  0  0  0  0  0  0
   -7.9537   20.3700  -33.8064 H   0  0  0  0  0  0  0  0  0  0  0  0
   -5.6216   20.1073  -34.6457 H   0  0  0  0  0  0  0  0  0  0  0  0
   -1.4851   20.0013  -30.9989 H   0  0  0  0  0  0  0  0  0  0  0  0
   -1.9237   22.0375  -29.6297 H   0  0  0  0  0  0  0  0  0  0  0  0
   -4.0923   24.0805  -27.6959 H   0  0  0  0  0  0  0  0  0  0  0  0
   -5.6178   24.3105  -28.6160 H   0  0  0  0  0  0  0  0  0  0  0  0
   -4.8015   22.7104  -28.6160 H   0  0  0  0  0  0  0  0  0  0  0  0
   -4.7846   23.4075  -32.5748 H   0  0  0  0  0  0  0  0  0  0  0  0
   -4.3442   21.3763  -33.9497 H   0  0  0  0  0  0  0  0  0  0  0  0
   -0.5392   19.7415  -33.5411 H   0  0  0  0  0  0  0  0  0  0  0  0
   -0.0740   17.7538  -34.9661 H   0  0  0  0  0  0  0  0  0  0  0  0
   -4.8482   17.1566  -31.5688 H   0  0  0  0  0  0  0  0  0  0  0  0
   -7.1776   17.4262  -30.7259 H   0  0  0  0  0  0  0  0  0  0  0  0
  1  2  1  0
  2  3  2  0
  3  4  1  0
  4  5  2  0
  5  6  1  0
  6  7  1  0
  7  8  1  0
  8  9  2  0
  9 10  1  0
 10 11  2  0
 11 12  1  0
 12 13  1  0
 12 14  2  0
 12 15  2  0
 11 16  1  0
 16 17  2  0
  7 18  2  0
 18 19  1  0
 19 20  2  0
 20 21  1  0
 20 22  1  0
 22 23  1  0
  5 24  1  0
 24 25  2  0
 25  2  1  0
 22  6  2  0
 17  8  1  0
  1 26  1  0
  1 27  1  0
  1 28  1  0
  3 29  1  0
  4 30  1  0
  9 31  1  0
 10 32  1  0
 13 33  1  0
 13 34  1  0
 13 35  1  0
 16 36  1  0
 17 37  1  0
 18 38  1  0
 19 39  1  0
 24 40  1  0
 25 41  1  0
M  END
>  <UniqueID>  (10) 
10

>  <SMILES>  (10) 
Cc1ccc(-c2c(-c3ccc(S(C)(=O)=O)cc3)ccc(F)c2F)cc1

>  <Energy>  (10) 
53.19713588721653

>  <Genealogy>  (10) 
Cc1ccc(-c2c(-c3ccc(S(C)(=O)=O)cc3)ccc(F)c2F)cc1 (3D coordinates assigned)
Cc1ccc(-c2c(-c3ccc(S(C)(=O)=O)cc3)ccc(F)c2F)cc1 (optimized conformer: 53.19713588721653 kcal/mol)

>  <smiles>  (10) 
Cc1ccc(-c2c(-c3ccc(S(C)(=O)=O)cc3)ccc(F)c2F)cc1

>  <score_type>  (10) 
oracle

>  <origin>  (10) 
adgpu

>  <m_score__min__energy>  (10) 
-8.9299999999999997

>  <m_primary>  (10) 
energy

$$$$
10:0
     RDKit          3D

 28 29  0  0  0  0  0  0  0  0999 V2000
   -7.4640   23.7840  -31.8720 N   0  0  0  0  0  0  0  0  0  0  0  0
   -6.3800   23.5030  -31.5760 C   0  0  0  0  0  0  0  0  0  0  0  0
   -5.0310   23.1530  -31.2090 C   0  0  0  0  0  0  0  0  0  0  0  0
   -4.4410   23.7910  -30.1080 C   0  0  0  0  0  0  0  0  0  0  0  0
   -3.1160   23.5120  -29.7590 C   0  0  0  0  0  0  0  0  0  0  0  0
   -2.3210   24.3820  -28.2550 Br  0  0  0  0  0  0  0  0  0  0  0  0
   -2.3690   22.6050  -30.5150 C   0  0  0  0  0  0  0  0  0  0  0  0
   -2.9500   21.9670  -31.6150 C   0  0  0  0  0  0  0  0  0  0  0  0
   -4.2850   22.2210  -31.9600 C   0  0  0  0  0  0  0  0  0  0  0  0
   -4.8580   21.5320  -33.0810 N   0  0  0  0  0  0  0  0  0  0  0  0
   -5.0390   20.0810  -33.0690 C   0  0  0  0  0  0  0  0  0  0  0  0
   -6.4510   19.7430  -32.6630 C   0  0  0  0  0  0  0  0  0  0  0  0
   -7.4170   20.7650  -32.6590 C   0  0  0  0  0  0  0  0  0  0  0  0
   -8.7450   20.4860  -32.3300 C   0  0  0  0  0  0  0  0  0  0  0  0
   -9.1270   19.1820  -32.0120 C   0  0  0  0  0  0  0  0  0  0  0  0
   -8.1830   18.1540  -32.0270 C   0  0  0  0  0  0  0  0  0  0  0  0
   -6.8480   18.4200  -32.3540 C   0  0  0  0  0  0  0  0  0  0  0  0
   -5.6230   16.9430  -32.3630 Br  0  0  0  0  0  0  0  0  0  0  0  0
   -5.0228   24.5135  -29.5169 H   0  0  0  0  0  0  0  0  0  0  0  0
   -1.3240   22.3930  -30.2448 H   0  0  0  0  0  0  0  0  0  0  0  0
   -2.3558   21.2610  -32.2138 H   0  0  0  0  0  0  0  0  0  0  0  0
   -4.7710   21.9840  -34.0190 H   0  0  0  0  0  0  0  0  0  0  0  0
   -4.8430   19.6807  -34.0747 H   0  0  0  0  0  0  0  0  0  0  0  0
   -4.3384   19.6348  -32.3479 H   0  0  0  0  0  0  0  0  0  0  0  0
   -7.1238   21.7933  -32.9173 H   0  0  0  0  0  0  0  0  0  0  0  0
   -9.4906   21.2947  -32.3215 H   0  0  0  0  0  0  0  0  0  0  0  0
  -10.1727   18.9642  -31.7494 H   0  0  0  0  0  0  0  0  0  0  0  0
   -8.4903   17.1271  -31.7800 H   0  0  0  0  0  0  0  0  0  0  0  0
  1  2  3  0
  2  3  1  0
  3  4  2  0
  4  5  1  0
  5  6  1  0
  5  7  2  0
  7  8  1  0
  8  9  2  0
  9 10  1  0
 10 11  1  0
 11 12  1  0
 12 13  2  0
 13 14  1  0
 14 15  2  0
 15 16  1  0
 16 17  2  0
 17 18  1  0
  9  3  1  0
 17 12  1  0
  4 19  1  0
  7 20  1  0
  8 21  1  0
 10 22  1  0
 11 23  1  0
 11 24  1  0
 13 25  1  0
 14 26  1  0
 15 27  1  0
 16 28  1  0
M  END
>  <UniqueID>  (11) 
11

>  <SMILES>  (11) 
N#Cc1cc(Br)ccc1NCc1ccccc1Br

>  <Energy>  (11) 
32.39816581532965

>  <Genealogy>  (11) 
N#Cc1cc(Br)ccc1NCc1ccccc1Br (3D coordinates assigned)
N#Cc1cc(Br)ccc1NCc1ccccc1Br (optimized conformer: 32.39816581532965 kcal/mol)

>  <smiles>  (11) 
N#Cc1cc(Br)ccc1NCc1ccccc1Br

>  <score_type>  (11) 
oracle

>  <origin>  (11) 
adgpu

>  <m_score__min__energy>  (11) 
-7.7699999999999996

>  <m_primary>  (11) 
energy

$$$$
11:0
     RDKit          3D

 49 52  0  0  0  0  0  0  0  0999 V2000
   -5.5270   26.0510  -30.4610 N   0  0  0  0  0  0  0  0  0  0  0  0
   -4.8590   25.1270  -30.2710 C   0  0  0  0  0  0  0  0  0  0  0  0
   -4.0250   23.9700  -30.0330 C   0  0  0  0  0  0  0  0  0  0  0  0
   -4.4940   22.6560  -30.2530 C   0  0  0  0  0  0  0  0  0  0  0  0
   -5.8300   22.3690  -30.8210 C   0  0  0  0  0  0  0  0  0  0  0  0
   -6.9960   22.5510  -30.0600 C   0  0  0  0  0  0  0  0  0  0  0  0
   -8.2510   22.3060  -30.6240 C   0  0  0  0  0  0  0  0  0  0  0  0
   -8.3530   21.8920  -31.9530 C   0  0  0  0  0  0  0  0  0  0  0  0
   -7.2010   21.7210  -32.7220 C   0  0  0  0  0  0  0  0  0  0  0  0
   -5.9440   21.9690  -32.1620 C   0  0  0  0  0  0  0  0  0  0  0  0
   -3.6930   21.6040  -29.9380 N   0  0  0  0  0  0  0  0  0  0  0  0
   -2.4470   21.7870  -29.4360 C   0  0  0  0  0  0  0  0  0  0  0  0
   -1.4060   20.3740  -29.0890 S   0  0  0  0  0  0  0  0  0  0  0  0
   -0.4590   20.4970  -30.6490 C   0  0  0  0  0  0  0  0  0  0  0  0
   -1.2540   19.9630  -31.8080 C   0  0  0  0  0  0  0  0  0  0  0  0
   -1.1940   18.6020  -32.1440 C   0  0  0  0  0  0  0  0  0  0  0  0
   -1.9690   18.1020  -33.1930 C   0  0  0  0  0  0  0  0  0  0  0  0
   -2.8160   18.9460  -33.9190 C   0  0  0  0  0  0  0  0  0  0  0  0
   -3.5750   18.3890  -34.9600 O   0  0  0  0  0  0  0  0  0  0  0  0
   -4.4800   17.2940  -34.8230 C   0  0  0  0  0  0  0  0  0  0  0  0
   -5.4370   17.5210  -33.6780 C   0  0  0  0  0  0  0  0  0  0  0  0
   -6.4870   18.4460  -33.8200 C   0  0  0  0  0  0  0  0  0  0  0  0
   -7.3680   18.6810  -32.7590 C   0  0  0  0  0  0  0  0  0  0  0  0
   -7.2060   18.0060  -31.5490 C   0  0  0  0  0  0  0  0  0  0  0  0
   -6.1590   17.0930  -31.3930 C   0  0  0  0  0  0  0  0  0  0  0  0
   -5.2720   16.8530  -32.4490 C   0  0  0  0  0  0  0  0  0  0  0  0
   -4.2570   15.9710  -32.2680 F   0  0  0  0  0  0  0  0  0  0  0  0
   -2.8710   20.3130  -33.5850 C   0  0  0  0  0  0  0  0  0  0  0  0
   -2.0970   20.8140  -32.5340 C   0  0  0  0  0  0  0  0  0  0  0  0
   -1.9740   23.0420  -29.2320 N   0  0  0  0  0  0  0  0  0  0  0  0
   -2.7300   24.1320  -29.5180 C   0  0  0  0  0  0  0  0  0  0  0  0
   -2.2600   25.2820  -29.3110 O   0  0  0  0  0  0  0  0  0  0  0  0
   -6.9213   22.8878  -29.0155 H   0  0  0  0  0  0  0  0  0  0  0  0
   -9.1601   22.4397  -30.0194 H   0  0  0  0  0  0  0  0  0  0  0  0
   -9.3421   21.7004  -32.3946 H   0  0  0  0  0  0  0  0  0  0  0  0
   -7.2818   21.3912  -33.7683 H   0  0  0  0  0  0  0  0  0  0  0  0
   -5.0390   21.8500  -32.7758 H   0  0  0  0  0  0  0  0  0  0  0  0
   -0.2131   21.5524  -30.8378 H   0  0  0  0  0  0  0  0  0  0  0  0
    0.4584   19.8984  -30.5491 H   0  0  0  0  0  0  0  0  0  0  0  0
   -0.5344   17.9266  -31.5794 H   0  0  0  0  0  0  0  0  0  0  0  0
   -1.9127   17.0341  -33.4507 H   0  0  0  0  0  0  0  0  0  0  0  0
   -5.0541   17.1835  -35.7548 H   0  0  0  0  0  0  0  0  0  0  0  0
   -3.8984   16.3832  -34.6174 H   0  0  0  0  0  0  0  0  0  0  0  0
   -6.6160   18.9868  -34.7691 H   0  0  0  0  0  0  0  0  0  0  0  0
   -8.1913   19.4005  -32.8793 H   0  0  0  0  0  0  0  0  0  0  0  0
   -7.9020   18.1921  -30.7178 H   0  0  0  0  0  0  0  0  0  0  0  0
   -6.0318   16.5619  -30.4381 H   0  0  0  0  0  0  0  0  0  0  0  0
   -3.5259   20.9896  -34.1536 H   0  0  0  0  0  0  0  0  0  0  0  0
   -2.1503   21.8820  -32.2759 H   0  0  0  0  0  0  0  0  0  0  0  0
  1  2  3  0
  2  3  1  0
  3  4  2  0
  4  5  1  0
  5  6  2  0
  6  7  1  0
  7  8  2  0
  8  9  1  0
  9 10  2  0
  4 11  1  0
 11 12  1  0
 12 13  1  0
 13 14  1  0
 14 15  1  0
 15 16  2  0
 16 17  1  0
 17 18  2  0
 18 19  1  0
 19 20  1  0
 20 21  1  0
 21 22  2  0
 22 23  1  0
 23 24  2  0
 24 25  1  0
 25 26  2  0
 26 27  1  0
 18 28  1  0
 28 29  2  0
 12 30  2  0
 30 31  1  0
 31 32  2  0
 31  3  1  0
 10  5  1  0
 29 15  1  0
 26 21  1  0
  6 33  1  0
  7 34  1  0
  8 35  1  0
  9 36  1  0
 10 37  1  0
 14 38  1  0
 14 39  1  0
 16 40  1  0
 17 41  1  0
 20 42  1  0
 20 43  1  0
 22 44  1  0
 23 45  1  0
 24 46  1  0
 25 47  1  0
 28 48  1  0
 29 49  1  0
M  CHG  1  11  -1
M  END
>  <UniqueID>  (12) 
12

>  <SMILES>  (12) 
N#Cc1c(-c2ccccc2)[n-]c(SCc2ccc(OCc3ccccc3F)cc2)nc1=O

>  <Energy>  (12) 
57.124699679013474

>  <Genealogy>  (12) 
N#Cc1c(-c2ccccc2)[n-]c(SCc2ccc(OCc3ccccc3F)cc2)nc1=O (protonated)
N#Cc1c(-c2ccccc2)[n-]c(SCc2ccc(OCc3ccccc3F)cc2)nc1=O (3D coordinates assigned)
N#Cc1c(-c2ccccc2)[n-]c(SCc2ccc(OCc3ccccc3F)cc2)nc1=O (optimized conformer: 57.124699679013474 kcal/mol)

>  <smiles>  (12) 
N#Cc1c(-c2ccccc2)[nH]c(SCc2ccc(OCc3ccccc3F)cc2)nc1=O

>  <score_type>  (12) 
oracle

>  <origin>  (12) 
adgpu

>  <m_score__min__energy>  (12) 
-10.609999999999999

>  <m_primary>  (12) 
energy

$$$$
12:0
     RDKit          3D

 22 23  0  0  0  0  0  0  0  0999 V2000
   -0.1350   24.9680  -28.0350 O   0  0  0  0  0  0  0  0  0  0  0  0
   -1.1990   24.5040  -28.5210 C   0  0  0  0  0  0  0  0  0  0  0  0
   -1.5970   23.2000  -28.2230 C   0  0  0  0  0  0  0  0  0  0  0  0
   -2.7810   22.6970  -28.7750 C   0  0  0  0  0  0  0  0  0  0  0  0
   -3.1730   21.3870  -28.5010 O   0  0  0  0  0  0  0  0  0  0  0  0
   -3.5620   23.5120  -29.6170 C   0  0  0  0  0  0  0  0  0  0  0  0
   -4.8210   23.0030  -30.2100 C   0  0  0  0  0  0  0  0  0  0  0  0
   -6.0640   23.4890  -29.7660 C   0  0  0  0  0  0  0  0  0  0  0  0
   -7.2500   23.0070  -30.3270 C   0  0  0  0  0  0  0  0  0  0  0  0
   -7.2080   22.0380  -31.3320 C   0  0  0  0  0  0  0  0  0  0  0  0
   -5.9770   21.5490  -31.7800 C   0  0  0  0  0  0  0  0  0  0  0  0
   -4.7870   22.0280  -31.2230 C   0  0  0  0  0  0  0  0  0  0  0  0
   -3.1190   24.8230  -29.8860 C   0  0  0  0  0  0  0  0  0  0  0  0
   -3.8630   25.6730  -30.6960 O   0  0  0  0  0  0  0  0  0  0  0  0
   -1.9610   25.2780  -29.3370 N   0  0  0  0  0  0  0  0  0  0  0  0
   -0.9847   22.5720  -27.5591 H   0  0  0  0  0  0  0  0  0  0  0  0
   -3.3090   20.7070  -29.2390 H   0  0  0  0  0  0  0  0  0  0  0  0
   -6.1029   24.2515  -28.9741 H   0  0  0  0  0  0  0  0  0  0  0  0
   -8.2189   23.3918  -29.9761 H   0  0  0  0  0  0  0  0  0  0  0  0
   -8.1430   21.6597  -31.7709 H   0  0  0  0  0  0  0  0  0  0  0  0
   -5.9445   20.7862  -32.5719 H   0  0  0  0  0  0  0  0  0  0  0  0
   -3.8208   21.6407  -31.5785 H   0  0  0  0  0  0  0  0  0  0  0  0
  1  2  2  0
  2  3  1  0
  3  4  2  0
  4  5  1  0
  4  6  1  0
  6  7  1  0
  7  8  2  0
  8  9  1  0
  9 10  2  0
 10 11  1  0
 11 12  2  0
  6 13  2  0
 13 14  1  0
 13 15  1  0
 15  2  1  0
 12  7  1  0
  3 16  1  0
  5 17  1  0
  8 18  1  0
  9 19  1  0
 10 20  1  0
 11 21  1  0
 12 22  1  0
M  CHG  2  14  -1  15  -1
M  END
>  <UniqueID>  (13) 
13

>  <SMILES>  (13) 
O=c1cc(O)c(-c2ccccc2)c([O-])[n-]1

>  <Energy>  (13) 
31.096592196817472

>  <Genealogy>  (13) 
O=c1cc(O)c(-c2ccccc2)c([O-])[n-]1 (protonated)
O=c1cc(O)c(-c2ccccc2)c([O-])[n-]1 (3D coordinates assigned)
O=c1cc(O)c(-c2ccccc2)c([O-])[n-]1 (optimized conformer: 31.096592196817472 kcal/mol)

>  <smiles>  (13) 
O=c1cc(O)c(-c2ccccc2)c(O)[nH]1

>  <score_type>  (13) 
oracle

>  <origin>  (13) 
adgpu

>  <m_score__min__energy>  (13) 
-10.35

>  <m_primary>  (13) 
energy

$$$$
13:0
     RDKit          3D

 48 50  0  0  0  0  0  0  0  0999 V2000
    0.6360   21.9860  -35.7670 C   0  0  0  0  0  0  0  0  0  0  0  0
   -0.1210   21.9330  -34.5630 O   0  0  0  0  0  0  0  0  0  0  0  0
   -0.8910   20.8320  -34.1580 C   0  0  0  0  0  0  0  0  0  0  0  0
   -0.5610   19.5700  -34.6630 C   0  0  0  0  0  0  0  0  0  0  0  0
   -1.2840   18.4410  -34.2740 C   0  0  0  0  0  0  0  0  0  0  0  0
   -2.3460   18.5640  -33.3760 C   0  0  0  0  0  0  0  0  0  0  0  0
   -2.7070   19.8200  -32.8650 C   0  0  0  0  0  0  0  0  0  0  0  0
   -3.7880   19.9030  -31.9170 N   0  0  0  0  0  0  0  0  0  0  0  0
   -5.3880   20.4850  -32.2730 S   0  0  0  0  0  0  0  0  0  0  0  0
   -6.3650   19.5660  -31.5950 O   0  0  0  0  0  0  0  0  0  0  0  0
   -5.6280   20.4340  -33.7560 O   0  0  0  0  0  0  0  0  0  0  0  0
   -5.6230   22.1350  -31.6630 C   0  0  0  0  0  0  0  0  0  0  0  0
   -4.4990   22.8810  -31.2790 C   0  0  0  0  0  0  0  0  0  0  0  0
   -4.6310   24.1560  -30.7100 C   0  0  0  0  0  0  0  0  0  0  0  0
   -3.4890   24.9340  -30.3180 N   0  0  0  0  0  0  0  0  0  0  0  0
   -2.4830   24.5650  -29.3640 C   0  0  0  0  0  0  0  0  0  0  0  0
   -1.6700   25.4440  -28.9740 O   0  0  0  0  0  0  0  0  0  0  0  0
   -2.4130   23.2060  -28.7850 C   0  0  0  0  0  0  0  0  0  0  0  0
   -3.1310   22.7720  -27.6850 C   0  0  0  0  0  0  0  0  0  0  0  0
   -2.8070   21.4410  -27.5060 C   0  0  0  0  0  0  0  0  0  0  0  0
   -1.9070   21.1130  -28.4990 C   0  0  0  0  0  0  0  0  0  0  0  0
   -1.6700   22.1890  -29.2750 N   0  0  0  0  0  0  0  0  0  0  0  0
   -0.7990   22.2110  -30.4480 C   0  0  0  0  0  0  0  0  0  0  0  0
   -5.9050   24.7110  -30.5750 C   0  0  0  0  0  0  0  0  0  0  0  0
   -7.0340   23.9980  -30.9820 C   0  0  0  0  0  0  0  0  0  0  0  0
   -6.9100   22.7130  -31.5370 C   0  0  0  0  0  0  0  0  0  0  0  0
   -8.1590   21.9750  -31.9410 C   0  0  0  0  0  0  0  0  0  0  0  0
   -1.9720   20.9550  -33.2620 C   0  0  0  0  0  0  0  0  0  0  0  0
    1.7063   22.0609  -35.5242 H   0  0  0  0  0  0  0  0  0  0  0  0
    0.4561   21.0731  -36.3537 H   0  0  0  0  0  0  0  0  0  0  0  0
    0.3307   22.8650  -36.3537 H   0  0  0  0  0  0  0  0  0  0  0  0
    0.2740   19.4665  -35.3716 H   0  0  0  0  0  0  0  0  0  0  0  0
   -1.0165   17.4525  -34.6757 H   0  0  0  0  0  0  0  0  0  0  0  0
   -2.9046   17.6684  -33.0664 H   0  0  0  0  0  0  0  0  0  0  0  0
   -3.6260   19.5610  -30.9430 H   0  0  0  0  0  0  0  0  0  0  0  0
   -3.4945   22.4578  -31.4270 H   0  0  0  0  0  0  0  0  0  0  0  0
   -3.8234   23.3691  -27.0734 H   0  0  0  0  0  0  0  0  0  0  0  0
   -3.1923   20.7717  -26.7227 H   0  0  0  0  0  0  0  0  0  0  0  0
   -1.4511   20.1215  -28.6367 H   0  0  0  0  0  0  0  0  0  0  0  0
    0.2518   22.2375  -30.1239 H   0  0  0  0  0  0  0  0  0  0  0  0
   -0.9739   21.3082  -31.0516 H   0  0  0  0  0  0  0  0  0  0  0  0
   -1.0193   23.1039  -31.0516 H   0  0  0  0  0  0  0  0  0  0  0  0
   -6.0199   25.7169  -30.1450 H   0  0  0  0  0  0  0  0  0  0  0  0
   -8.0316   24.4470  -30.8670 H   0  0  0  0  0  0  0  0  0  0  0  0
   -8.7026   21.6538  -31.0403 H   0  0  0  0  0  0  0  0  0  0  0  0
   -8.8002   22.6393  -32.5389 H   0  0  0  0  0  0  0  0  0  0  0  0
   -7.8865   21.0928  -32.5389 H   0  0  0  0  0  0  0  0  0  0  0  0
   -2.2444   21.9457  -32.8691 H   0  0  0  0  0  0  0  0  0  0  0  0
  1  2  1  0
  2  3  1  0
  3  4  2  0
  4  5  1  0
  5  6  2  0
  6  7  1  0
  7  8  1  0
  8  9  1  0
  9 10  2  0
  9 11  2  0
  9 12  1  0
 12 13  2  0
 13 14  1  0
 14 15  1  0
 15 16  1  0
 16 17  2  0
 16 18  1  0
 18 19  2  0
 19 20  1  0
 20 21  2  0
 21 22  1  0
 22 23  1  0
 14 24  2  0
 24 25  1  0
 25 26  2  0
 26 27  1  0
  7 28  2  0
 28  3  1  0
 26 12  1  0
 22 18  1  0
  1 29  1  0
  1 30  1  0
  1 31  1  0
  4 32  1  0
  5 33  1  0
  6 34  1  0
  8 35  1  0
 13 36  1  0
 19 37  1  0
 20 38  1  0
 21 39  1  0
 23 40  1  0
 23 41  1  0
 23 42  1  0
 24 43  1  0
 25 44  1  0
 27 45  1  0
 27 46  1  0
 27 47  1  0
 28 48  1  0
M  CHG  1  15  -1
M  END
>  <UniqueID>  (14) 
14

>  <SMILES>  (14) 
COc1cccc(NS(=O)(=O)c2cc([N-]C(=O)c3cccn3C)ccc2C)c1

>  <Energy>  (14) 
82.06997630819383

>  <Genealogy>  (14) 
COc1cccc(NS(=O)(=O)c2cc([N-]C(=O)c3cccn3C)ccc2C)c1 (protonated)
COc1cccc(NS(=O)(=O)c2cc([N-]C(=O)c3cccn3C)ccc2C)c1 (3D coordinates assigned)
COc1cccc(NS(=O)(=O)c2cc([N-]C(=O)c3cccn3C)ccc2C)c1 (optimized conformer: 82.06997630819383 kcal/mol)

>  <smiles>  (14) 
COc1cccc(NS(=O)(=O)c2cc(NC(=O)c3cccn3C)ccc2C)c1

>  <score_type>  (14) 
oracle

>  <origin>  (14) 
adgpu

>  <m_score__min__energy>  (14) 
-10.720000000000001

>  <m_primary>  (14) 
energy

$$$$
14:0
     RDKit          3D

 57 59  0  0  0  0  0  0  0  0999 V2000
   -2.1900   18.8750  -26.5300 C   0  0  0  0  0  0  0  0  0  0  0  0
   -1.6050   19.8530  -27.3830 O   0  0  0  0  0  0  0  0  0  0  0  0
   -2.3310   20.8160  -28.1050 C   0  0  0  0  0  0  0  0  0  0  0  0
   -3.1170   21.7970  -27.4660 C   0  0  0  0  0  0  0  0  0  0  0  0
   -3.8070   22.7500  -28.2170 C   0  0  0  0  0  0  0  0  0  0  0  0
   -3.7340   22.7340  -29.6130 C   0  0  0  0  0  0  0  0  0  0  0  0
   -4.5640   23.9810  -30.5420 S   0  0  0  0  0  0  0  0  0  0  0  0
   -4.6770   23.5240  -31.9700 O   0  0  0  0  0  0  0  0  0  0  0  0
   -3.7680   25.2580  -30.5130 O   0  0  0  0  0  0  0  0  0  0  0  0
   -6.1550   24.2460  -29.8590 N   0  0  0  0  0  0  0  0  0  0  0  0
   -6.2730   25.6550  -29.4540 C   0  0  0  0  0  0  0  0  0  0  0  0
   -7.2040   23.9030  -30.8420 C   0  0  0  0  0  0  0  0  0  0  0  0
   -7.4420   22.4200  -30.8950 C   0  0  0  0  0  0  0  0  0  0  0  0
   -8.2540   21.8770  -30.0930 O   0  0  0  0  0  0  0  0  0  0  0  0
   -6.7350   21.6320  -31.8690 N   0  0  0  0  0  0  0  0  0  0  0  0
   -7.0100   20.2460  -32.1450 C   0  0  0  0  0  0  0  0  0  0  0  0
   -8.3130   19.7300  -31.9900 C   0  0  0  0  0  0  0  0  0  0  0  0
   -8.5990   18.4100  -32.3450 C   0  0  0  0  0  0  0  0  0  0  0  0
   -7.5960   17.5930  -32.8740 C   0  0  0  0  0  0  0  0  0  0  0  0
   -6.3030   18.0940  -33.0480 C   0  0  0  0  0  0  0  0  0  0  0  0
   -5.9990   19.4150  -32.6840 C   0  0  0  0  0  0  0  0  0  0  0  0
   -4.6590   19.9010  -32.8490 N   0  0  0  0  0  0  0  0  0  0  0  0
   -3.4790   19.1000  -32.5650 C   0  0  0  0  0  0  0  0  0  0  0  0
   -2.3020   19.8870  -33.1290 C   0  0  0  0  0  0  0  0  0  0  0  0
   -2.8320   21.2950  -33.4160 C   0  0  0  0  0  0  0  0  0  0  0  0
   -4.3490   21.1690  -33.4830 C   0  0  0  0  0  0  0  0  0  0  0  0
   -2.9650   21.7540  -30.2570 C   0  0  0  0  0  0  0  0  0  0  0  0
   -2.2570   20.7930  -29.5070 C   0  0  0  0  0  0  0  0  0  0  0  0
   -1.4660   19.8040  -30.1180 O   0  0  0  0  0  0  0  0  0  0  0  0
   -0.0410   19.7900  -30.1040 C   0  0  0  0  0  0  0  0  0  0  0  0
   -2.0217   19.1564  -25.4800 H   0  0  0  0  0  0  0  0  0  0  0  0
   -3.2710   18.8175  -26.7254 H   0  0  0  0  0  0  0  0  0  0  0  0
   -1.7294   17.8954  -26.7254 H   0  0  0  0  0  0  0  0  0  0  0  0
   -3.1868   21.8113  -26.3683 H   0  0  0  0  0  0  0  0  0  0  0  0
   -4.4104   23.5164  -27.7086 H   0  0  0  0  0  0  0  0  0  0  0  0
   -6.2786   25.7217  -28.3560 H   0  0  0  0  0  0  0  0  0  0  0  0
   -5.4193   26.2235  -29.8515 H   0  0  0  0  0  0  0  0  0  0  0  0
   -7.2093   26.0736  -29.8515 H   0  0  0  0  0  0  0  0  0  0  0  0
   -8.1399   24.4057  -30.5568 H   0  0  0  0  0  0  0  0  0  0  0  0
   -6.8694   24.2357  -31.8357 H   0  0  0  0  0  0  0  0  0  0  0  0
   -5.9530   22.0900  -32.3910 H   0  0  0  0  0  0  0  0  0  0  0  0
   -9.1100   20.3718  -31.5865 H   0  0  0  0  0  0  0  0  0  0  0  0
   -9.6155   18.0126  -32.2080 H   0  0  0  0  0  0  0  0  0  0  0  0
   -7.8247   16.5541  -33.1538 H   0  0  0  0  0  0  0  0  0  0  0  0
   -5.5192   17.4495  -33.4726 H   0  0  0  0  0  0  0  0  0  0  0  0
   -3.3623   18.9599  -31.4802 H   0  0  0  0  0  0  0  0  0  0  0  0
   -3.5503   18.0982  -33.0136 H   0  0  0  0  0  0  0  0  0  0  0  0
   -1.4839   19.9292  -32.3949 H   0  0  0  0  0  0  0  0  0  0  0  0
   -1.9013   19.4150  -34.0382 H   0  0  0  0  0  0  0  0  0  0  0  0
   -2.5413   21.9843  -32.6095 H   0  0  0  0  0  0  0  0  0  0  0  0
   -2.4199   21.6965  -34.3535 H   0  0  0  0  0  0  0  0  0  0  0  0
   -4.8283   21.9976  -32.9410 H   0  0  0  0  0  0  0  0  0  0  0  0
   -4.7174   21.2093  -34.5187 H   0  0  0  0  0  0  0  0  0  0  0  0
   -2.9139   21.7350  -31.3556 H   0  0  0  0  0  0  0  0  0  0  0  0
    0.3154   19.7865  -29.0634 H   0  0  0  0  0  0  0  0  0  0  0  0
    0.3219   18.8882  -30.6189 H   0  0  0  0  0  0  0  0  0  0  0  0
    0.3396   20.6845  -30.6189 H   0  0  0  0  0  0  0  0  0  0  0  0
  1  2  1  0
  2  3  1  0
  3  4  2  0
  4  5  1  0
  5  6  2  0
  6  7  1  0
  7  8  2  0
  7  9  2  0
  7 10  1  0
 10 11  1  0
 10 12  1  0
 12 13  1  0
 13 14  2  0
 13 15  1  0
 15 16  1  0
 16 17  2  0
 17 18  1  0
 18 19  2  0
 19 20  1  0
 20 21  2  0
 21 22  1  0
 22 23  1  0
 23 24  1  0
 24 25  1  0
 25 26  1  0
  6 27  1  0
 27 28  2  0
 28 29  1  0
 29 30  1  0
 28  3  1  0
 21 16  1  0
 26 22  1  0
  1 31  1  0
  1 32  1  0
  1 33  1  0
  4 34  1  0
  5 35  1  0
 11 36  1  0
 11 37  1  0
 11 38  1  0
 12 39  1  0
 12 40  1  0
 15 41  1  0
 17 42  1  0
 18 43  1  0
 19 44  1  0
 20 45  1  0
 23 46  1  0
 23 47  1  0
 24 48  1  0
 24 49  1  0
 25 50  1  0
 25 51  1  0
 26 52  1  0
 26 53  1  0
 27 54  1  0
 30 55  1  0
 30 56  1  0
 30 57  1  0
M  END
>  <UniqueID>  (15) 
15

>  <SMILES>  (15) 
COc1ccc(S(=O)(=O)N(C)CC(=O)Nc2ccccc2N2CCCC2)cc1OC

>  <Energy>  (15) 
64.67431710574381

>  <Genealogy>  (15) 
COc1ccc(S(=O)(=O)N(C)CC(=O)Nc2ccccc2N2CCCC2)cc1OC (3D coordinates assigned)
COc1ccc(S(=O)(=O)N(C)CC(=O)Nc2ccccc2N2CCCC2)cc1OC (nonaromatic ring conformer: 64.67431710574381 kcal/mol)

>  <smiles>  (15) 
COc1ccc(S(=O)(=O)N(C)CC(=O)Nc2ccccc2N2CCCC2)cc1OC

>  <score_type>  (15) 
oracle

>  <origin>  (15) 
adgpu

>  <m_score__min__energy>  (15) 
-8.9800000000000004

>  <m_primary>  (15) 
energy

$$$$
15:0
     RDKit          3D

 40 43  0  0  0  0  0  0  0  0999 V2000
   -6.6560   17.2950  -33.4310 C   0  0  0  0  0  0  0  0  0  0  0  0
   -6.9900   18.6710  -32.9520 C   0  0  0  0  0  0  0  0  0  0  0  0
   -5.9590   19.6110  -32.7240 C   0  0  0  0  0  0  0  0  0  0  0  0
   -6.3000   20.8990  -32.2730 C   0  0  0  0  0  0  0  0  0  0  0  0
   -5.2930   21.8940  -32.0190 N   0  0  0  0  0  0  0  0  0  0  0  0
   -3.9550   21.4740  -31.5760 C   0  0  0  0  0  0  0  0  0  0  0  0
   -3.0800   22.6830  -31.2270 C   0  0  0  0  0  0  0  0  0  0  0  0
   -3.8640   23.6530  -30.4490 N   0  0  0  0  0  0  0  0  0  0  0  0
   -3.3990   24.1130  -29.1650 C   0  0  0  0  0  0  0  0  0  0  0  0
   -2.0670   24.5330  -28.9980 C   0  0  0  0  0  0  0  0  0  0  0  0
   -1.6140   24.9660  -27.7480 C   0  0  0  0  0  0  0  0  0  0  0  0
   -2.4840   24.9790  -26.6540 C   0  0  0  0  0  0  0  0  0  0  0  0
   -3.8070   24.5560  -26.8080 C   0  0  0  0  0  0  0  0  0  0  0  0
   -4.2640   24.1220  -28.0560 C   0  0  0  0  0  0  0  0  0  0  0  0
   -5.1720   24.1040  -30.9530 C   0  0  0  0  0  0  0  0  0  0  0  0
   -5.5950   23.3200  -32.2000 C   0  0  0  0  0  0  0  0  0  0  0  0
   -7.6170   21.1620  -32.0710 N   0  0  0  0  0  0  0  0  0  0  0  0
   -8.1730   22.2640  -31.6100 N   0  0  0  0  0  0  0  0  0  0  0  0
   -9.5000   21.9890  -31.5700 C   0  0  0  0  0  0  0  0  0  0  0  0
   -9.8000   20.7290  -31.9850 N   0  0  0  0  0  0  0  0  0  0  0  0
   -8.5760   20.2610  -32.2820 C   0  0  0  0  0  0  0  0  0  0  0  0
   -8.2940   19.0110  -32.7210 N   0  0  0  0  0  0  0  0  0  0  0  0
   -6.4957   16.6345  -32.5661 H   0  0  0  0  0  0  0  0  0  0  0  0
   -7.4861   16.9071  -34.0397 H   0  0  0  0  0  0  0  0  0  0  0  0
   -5.7405   17.3308  -34.0397 H   0  0  0  0  0  0  0  0  0  0  0  0
   -4.9071   19.3396  -32.8965 H   0  0  0  0  0  0  0  0  0  0  0  0
   -4.0560   20.8357  -30.6859 H   0  0  0  0  0  0  0  0  0  0  0  0
   -3.4741   20.9224  -32.3973 H   0  0  0  0  0  0  0  0  0  0  0  0
   -2.2163   22.3501  -30.6327 H   0  0  0  0  0  0  0  0  0  0  0  0
   -2.7285   23.1585  -32.1545 H   0  0  0  0  0  0  0  0  0  0  0  0
   -1.3780   24.5208  -29.8554 H   0  0  0  0  0  0  0  0  0  0  0  0
   -0.5721   25.2967  -27.6255 H   0  0  0  0  0  0  0  0  0  0  0  0
   -2.1272   25.3222  -25.6717 H   0  0  0  0  0  0  0  0  0  0  0  0
   -4.4900   24.5645  -25.9458 H   0  0  0  0  0  0  0  0  0  0  0  0
   -5.3051   23.7860  -28.1711 H   0  0  0  0  0  0  0  0  0  0  0  0
   -5.9273   23.9590  -30.1665 H   0  0  0  0  0  0  0  0  0  0  0  0
   -5.0888   25.1665  -31.2255 H   0  0  0  0  0  0  0  0  0  0  0  0
   -6.6757   23.4465  -32.3614 H   0  0  0  0  0  0  0  0  0  0  0  0
   -5.0423   23.6999  -33.0719 H   0  0  0  0  0  0  0  0  0  0  0  0
  -10.2581   22.7125  -31.2354 H   0  0  0  0  0  0  0  0  0  0  0  0
  1  2  1  0
  2  3  1  0
  3  4  2  0
  4  5  1  0
  5  6  1  0
  6  7  1  0
  7  8  1  0
  8  9  1  0
  9 10  2  0
 10 11  1  0
 11 12  2  0
 12 13  1  0
 13 14  2  0
  8 15  1  0
 15 16  1  0
  4 17  1  0
 17 18  1  0
 18 19  2  0
 19 20  1  0
 20 21  2  0
 21 22  1  0
 22  2  2  0
 16  5  1  0
 21 17  1  0
 14  9  1  0
  1 23  1  0
  1 24  1  0
  1 25  1  0
  3 26  1  0
  6 27  1  0
  6 28  1  0
  7 29  1  0
  7 30  1  0
 10 31  1  0
 11 32  1  0
 12 33  1  0
 13 34  1  0
 14 35  1  0
 15 36  1  0
 15 37  1  0
 16 38  1  0
 16 39  1  0
 19 40  1  0
M  END
>  <UniqueID>  (16) 
16

>  <SMILES>  (16) 
Cc1cc(N2CCN(c3ccccc3)CC2)n2ncnc2n1

>  <Energy>  (16) 
90.80671534064643

>  <Genealogy>  (16) 
Cc1cc(N2CCN(c3ccccc3)CC2)n2ncnc2n1 (3D coordinates assigned)
Cc1cc(N2CCN(c3ccccc3)CC2)n2ncnc2n1 (nonaromatic ring conformer: 90.80671534064643 kcal/mol)

>  <smiles>  (16) 
Cc1cc(N2CCN(c3ccccc3)CC2)n2ncnc2n1

>  <score_type>  (16) 
oracle

>  <origin>  (16) 
adgpu

>  <m_score__min__energy>  (16) 
-7.5800000000000001

>  <m_primary>  (16) 
energy

$$$$
16:0
     RDKit          3D

 58 61  0  0  0  0  0  0  0  0999 V2000
   -4.0910   25.6710  -30.7180 O   0  0  0  0  0  0  0  0  0  0  0  0
   -4.4950   24.4820  -30.8300 C   0  0  0  0  0  0  0  0  0  0  0  0
   -5.5810   24.1650  -31.7150 N   0  0  0  0  0  0  0  0  0  0  0  0
   -6.4960   23.0630  -31.6080 C   0  0  0  0  0  0  0  0  0  0  0  0
   -7.5950   23.0840  -30.7310 C   0  0  0  0  0  0  0  0  0  0  0  0
   -8.4370   21.9720  -30.6290 C   0  0  0  0  0  0  0  0  0  0  0  0
   -8.1800   20.8250  -31.3820 C   0  0  0  0  0  0  0  0  0  0  0  0
   -7.0720   20.7830  -32.2390 C   0  0  0  0  0  0  0  0  0  0  0  0
   -6.6980   19.3140  -33.1380 S   0  0  0  0  0  0  0  0  0  0  0  0
   -6.4630   19.6830  -34.5740 O   0  0  0  0  0  0  0  0  0  0  0  0
   -7.8670   18.3700  -33.0780 O   0  0  0  0  0  0  0  0  0  0  0  0
   -5.2590   18.5430  -32.5000 N   0  0  0  0  0  0  0  0  0  0  0  0
   -5.2920   17.0760  -32.6650 C   0  0  0  0  0  0  0  0  0  0  0  0
   -5.0650   16.6370  -34.1240 C   0  0  0  0  0  0  0  0  0  0  0  0
   -3.9820   17.4620  -34.8420 C   0  0  0  0  0  0  0  0  0  0  0  0
   -3.1320   18.2670  -33.8620 C   0  0  0  0  0  0  0  0  0  0  0  0
   -4.0160   19.1860  -33.0000 C   0  0  0  0  0  0  0  0  0  0  0  0
   -6.2330   21.9000  -32.3440 C   0  0  0  0  0  0  0  0  0  0  0  0
   -3.8190   23.4040  -30.0730 C   0  0  0  0  0  0  0  0  0  0  0  0
   -2.9900   22.4780  -30.7280 C   0  0  0  0  0  0  0  0  0  0  0  0
   -2.3690   21.4510  -30.0110 C   0  0  0  0  0  0  0  0  0  0  0  0
   -2.5670   21.3290  -28.6310 C   0  0  0  0  0  0  0  0  0  0  0  0
   -1.7730   20.0330  -27.7280 S   0  0  0  0  0  0  0  0  0  0  0  0
   -2.7930   19.3340  -26.8690 O   0  0  0  0  0  0  0  0  0  0  0  0
   -1.2150   19.0280  -28.6980 O   0  0  0  0  0  0  0  0  0  0  0  0
   -0.4750   20.6380  -26.7170 N   0  0  0  0  0  0  0  0  0  0  0  0
   -0.9760   21.6000  -25.7220 C   0  0  0  0  0  0  0  0  0  0  0  0
   -0.4020   22.9770  -26.0420 C   0  0  0  0  0  0  0  0  0  0  0  0
    0.2760   22.8330  -27.3840 C   0  0  0  0  0  0  0  0  0  0  0  0
    0.5350   21.3430  -27.5170 C   0  0  0  0  0  0  0  0  0  0  0  0
   -3.3950   22.2460  -27.9740 C   0  0  0  0  0  0  0  0  0  0  0  0
   -4.0130   23.2790  -28.6850 C   0  0  0  0  0  0  0  0  0  0  0  0
   -7.7933   23.9788  -30.1227 H   0  0  0  0  0  0  0  0  0  0  0  0
   -9.3045   22.0013  -29.9533 H   0  0  0  0  0  0  0  0  0  0  0  0
   -8.8472   19.9541  -31.3027 H   0  0  0  0  0  0  0  0  0  0  0  0
   -4.5042   16.6334  -32.0376 H   0  0  0  0  0  0  0  0  0  0  0  0
   -6.2924   16.7302  -32.3656 H   0  0  0  0  0  0  0  0  0  0  0  0
   -4.7599   15.5802  -34.1280 H   0  0  0  0  0  0  0  0  0  0  0  0
   -6.0098   16.7954  -34.6646 H   0  0  0  0  0  0  0  0  0  0  0  0
   -3.3269   16.7778  -35.4012 H   0  0  0  0  0  0  0  0  0  0  0  0
   -4.4859   18.1705  -35.5159 H   0  0  0  0  0  0  0  0  0  0  0  0
   -2.5843   17.5744  -33.2061 H   0  0  0  0  0  0  0  0  0  0  0  0
   -2.4281   18.8894  -34.4339 H   0  0  0  0  0  0  0  0  0  0  0  0
   -3.4262   19.5172  -32.1326 H   0  0  0  0  0  0  0  0  0  0  0  0
   -4.3295   20.0193  -33.6461 H   0  0  0  0  0  0  0  0  0  0  0  0
   -5.3590   21.8637  -33.0109 H   0  0  0  0  0  0  0  0  0  0  0  0
   -2.8284   22.5616  -31.8128 H   0  0  0  0  0  0  0  0  0  0  0  0
   -1.7202   20.7338  -30.5352 H   0  0  0  0  0  0  0  0  0  0  0  0
   -2.0745   21.6379  -25.7639 H   0  0  0  0  0  0  0  0  0  0  0  0
   -0.6677   21.2904  -24.7125 H   0  0  0  0  0  0  0  0  0  0  0  0
   -1.2066   23.7251  -26.0967 H   0  0  0  0  0  0  0  0  0  0  0  0
    0.3000   23.3156  -25.2657 H   0  0  0  0  0  0  0  0  0  0  0  0
   -0.3806   23.1878  -28.1921 H   0  0  0  0  0  0  0  0  0  0  0  0
    1.1990   23.4273  -27.4539 H   0  0  0  0  0  0  0  0  0  0  0  0
    0.4537   21.0419  -28.5718 H   0  0  0  0  0  0  0  0  0  0  0  0
    1.5466   21.0960  -27.1625 H   0  0  0  0  0  0  0  0  0  0  0  0
   -3.5608   22.1534  -26.8905 H   0  0  0  0  0  0  0  0  0  0  0  0
   -4.6550   23.9987  -28.1559 H   0  0  0  0  0  0  0  0  0  0  0  0
  1  2  2  0
  2  3  1  0
  3  4  1  0
  4  5  2  0
  5  6  1  0
  6  7  2  0
  7  8  1  0
  8  9  1  0
  9 10  2  0
  9 11  2  0
  9 12  1  0
 12 13  1  0
 13 14  1  0
 14 15  1  0
 15 16  1  0
 16 17  1  0
  8 18  2  0
  2 19  1  0
 19 20  2  0
 20 21  1  0
 21 22  2  0
 22 23  1  0
 23 24  2  0
 23 25  2  0
 23 26  1  0
 26 27  1  0
 27 28  1  0
 28 29  1  0
 29 30  1  0
 22 31  1  0
 31 32  2  0
 18  4  1  0
 32 19  1  0
 17 12  1  0
 30 26  1  0
  5 33  1  0
  6 34  1  0
  7 35  1  0
 13 36  1  0
 13 37  1  0
 14 38  1  0
 14 39  1  0
 15 40  1  0
 15 41  1  0
 16 42  1  0
 16 43  1  0
 17 44  1  0
 17 45  1  0
 18 46  1  0
 20 47  1  0
 21 48  1  0
 27 49  1  0
 27 50  1  0
 28 51  1  0
 28 52  1  0
 29 53  1  0
 29 54  1  0
 30 55  1  0
 30 56  1  0
 31 57  1  0
 32 58  1  0
M  CHG  1   3  -1
M  END
>  <UniqueID>  (17) 
17

>  <SMILES>  (17) 
O=C([N-]c1cccc(S(=O)(=O)N2CCCCC2)c1)c1ccc(S(=O)(=O)N2CCCC2)cc1

>  <Energy>  (17) 
72.17701288629398

>  <Genealogy>  (17) 
O=C([N-]c1cccc(S(=O)(=O)N2CCCCC2)c1)c1ccc(S(=O)(=O)N2CCCC2)cc1 (protonated)
O=C([N-]c1cccc(S(=O)(=O)N2CCCCC2)c1)c1ccc(S(=O)(=O)N2CCCC2)cc1 (3D coordinates assigned)
O=C([N-]c1cccc(S(=O)(=O)N2CCCCC2)c1)c1ccc(S(=O)(=O)N2CCCC2)cc1 (nonaromatic ring conformer: 72.17701288629398 kcal/mol)

>  <smiles>  (17) 
O=C(Nc1cccc(S(=O)(=O)N2CCCCC2)c1)c1ccc(S(=O)(=O)N2CCCC2)cc1

>  <score_type>  (17) 
oracle

>  <origin>  (17) 
adgpu

>  <m_score__min__energy>  (17) 
-13.09

>  <m_primary>  (17) 
energy

$$$$
17:0
     RDKit          3D

 48 50  0  0  0  0  0  0  0  0999 V2000
   -4.5550   13.8250  -32.2420 C   0  0  0  0  0  0  0  0  0  0  0  0
   -4.8740   15.0460  -33.1010 C   0  0  0  0  0  0  0  0  0  0  0  0
   -5.7420   14.6590  -34.2220 N   0  0  0  0  0  0  0  0  0  0  0  0
   -6.8550   15.6050  -34.4020 C   0  0  0  0  0  0  0  0  0  0  0  0
   -6.5700   16.9450  -33.7660 C   0  0  0  0  0  0  0  0  0  0  0  0
   -7.1930   17.3000  -32.5600 C   0  0  0  0  0  0  0  0  0  0  0  0
   -6.9450   18.5450  -31.9760 C   0  0  0  0  0  0  0  0  0  0  0  0
   -6.0680   19.4590  -32.5880 C   0  0  0  0  0  0  0  0  0  0  0  0
   -5.8020   20.7810  -31.9670 C   0  0  0  0  0  0  0  0  0  0  0  0
   -4.4780   21.2230  -31.7600 C   0  0  0  0  0  0  0  0  0  0  0  0
   -4.2350   22.4680  -31.1750 C   0  0  0  0  0  0  0  0  0  0  0  0
   -5.3020   23.2880  -30.7840 C   0  0  0  0  0  0  0  0  0  0  0  0
   -4.9680   24.8410  -30.0240 S   0  0  0  0  0  0  0  0  0  0  0  0
   -6.2360   25.6090  -29.7800 O   0  0  0  0  0  0  0  0  0  0  0  0
   -4.0920   25.6410  -30.9470 O   0  0  0  0  0  0  0  0  0  0  0  0
   -4.1310   24.5910  -28.5250 N   0  0  0  0  0  0  0  0  0  0  0  0
   -2.9830   23.7480  -28.3340 C   0  0  0  0  0  0  0  0  0  0  0  0
   -3.1840   22.4740  -27.7930 C   0  0  0  0  0  0  0  0  0  0  0  0
   -2.1030   21.6150  -27.5680 C   0  0  0  0  0  0  0  0  0  0  0  0
   -0.8090   22.0190  -27.8960 C   0  0  0  0  0  0  0  0  0  0  0  0
   -0.5970   23.2740  -28.4660 C   0  0  0  0  0  0  0  0  0  0  0  0
   -1.6780   24.1360  -28.7040 C   0  0  0  0  0  0  0  0  0  0  0  0
   -1.4510   25.3550  -29.3360 O   0  0  0  0  0  0  0  0  0  0  0  0
   -6.6200   22.8550  -30.9870 C   0  0  0  0  0  0  0  0  0  0  0  0
   -6.8710   21.6110  -31.5720 C   0  0  0  0  0  0  0  0  0  0  0  0
   -5.4500   19.1010  -33.8020 C   0  0  0  0  0  0  0  0  0  0  0  0
   -5.7030   17.8560  -34.3860 C   0  0  0  0  0  0  0  0  0  0  0  0
   -4.6259   14.0963  -31.1784 H   0  0  0  0  0  0  0  0  0  0  0  0
   -5.2736   13.0224  -32.4643 H   0  0  0  0  0  0  0  0  0  0  0  0
   -3.5356   13.4765  -32.4643 H   0  0  0  0  0  0  0  0  0  0  0  0
   -5.3874   15.7999  -32.4861 H   0  0  0  0  0  0  0  0  0  0  0  0
   -3.9367   15.4634  -33.4975 H   0  0  0  0  0  0  0  0  0  0  0  0
   -5.1730   14.6250  -35.0990 H   0  0  0  0  0  0  0  0  0  0  0  0
   -7.0247   15.7523  -35.4788 H   0  0  0  0  0  0  0  0  0  0  0  0
   -7.7436   15.1798  -33.9125 H   0  0  0  0  0  0  0  0  0  0  0  0
   -7.8807   16.5941  -32.0714 H   0  0  0  0  0  0  0  0  0  0  0  0
   -7.4393   18.8125  -31.0304 H   0  0  0  0  0  0  0  0  0  0  0  0
   -3.6340   20.5847  -32.0605 H   0  0  0  0  0  0  0  0  0  0  0  0
   -3.1999   22.8067  -31.0203 H   0  0  0  0  0  0  0  0  0  0  0  0
   -4.2028   22.1440  -27.5418 H   0  0  0  0  0  0  0  0  0  0  0  0
   -2.2738   20.6197  -27.1319 H   0  0  0  0  0  0  0  0  0  0  0  0
    0.0425   21.3492  -27.7055 H   0  0  0  0  0  0  0  0  0  0  0  0
    0.4230   23.5897  -28.7303 H   0  0  0  0  0  0  0  0  0  0  0  0
   -2.0340   25.6730  -30.1040 H   0  0  0  0  0  0  0  0  0  0  0  0
   -7.4601   23.4973  -30.6844 H   0  0  0  0  0  0  0  0  0  0  0  0
   -7.9080   21.2776  -31.7251 H   0  0  0  0  0  0  0  0  0  0  0  0
   -4.7636   19.8057  -34.2941 H   0  0  0  0  0  0  0  0  0  0  0  0
   -5.2191   17.5897  -35.3373 H   0  0  0  0  0  0  0  0  0  0  0  0
  1  2  1  0
  2  3  1  0
  3  4  1  0
  4  5  1  0
  5  6  2  0
  6  7  1  0
  7  8  2  0
  8  9  1  0
  9 10  2  0
 10 11  1  0
 11 12  2  0
 12 13  1  0
 13 14  2  0
 13 15  2  0
 13 16  1  0
 16 17  1  0
 17 18  2  0
 18 19  1  0
 19 20  2  0
 20 21  1  0
 21 22  2  0
 22 23  1  0
 12 24  1  0
 24 25  2  0
  8 26  1  0
 26 27  2  0
 27  5  1  0
 25  9  1  0
 22 17  1  0
  1 28  1  0
  1 29  1  0
  1 30  1  0
  2 31  1  0
  2 32  1  0
  3 33  1  0
  4 34  1  0
  4 35  1  0
  6 36  1  0
  7 37  1  0
 10 38  1  0
 11 39  1  0
 18 40  1  0
 19 41  1  0
 20 42  1  0
 21 43  1  0
 23 44  1  0
 24 45  1  0
 25 46  1  0
 26 47  1  0
 27 48  1  0
M  CHG  1  16  -1
M  END
>  <UniqueID>  (18) 
18

>  <SMILES>  (18) 
CCNCc1ccc(-c2ccc(S(=O)(=O)[N-]c3ccccc3O)cc2)cc1

>  <Energy>  (18) 
58.62177356570826

>  <Genealogy>  (18) 
CCNCc1ccc(-c2ccc(S(=O)(=O)[N-]c3ccccc3O)cc2)cc1 (protonated)
CCNCc1ccc(-c2ccc(S(=O)(=O)[N-]c3ccccc3O)cc2)cc1 (3D coordinates assigned)
CCNCc1ccc(-c2ccc(S(=O)(=O)[N-]c3ccccc3O)cc2)cc1 (optimized conformer: 58.62177356570826 kcal/mol)

>  <smiles>  (18) 
CCNCc1ccc(-c2ccc(S(=O)(=O)Nc3ccccc3O)cc2)cc1

>  <score_type>  (18) 
oracle

>  <origin>  (18) 
adgpu

>  <m_score__min__energy>  (18) 
-11.33

>  <m_primary>  (18) 
energy

$$$$
18:0
     RDKit          3D

 82 87  0  0  0  0  0  0  0  0999 V2000
   -0.1660   23.1710  -24.6450 C   0  0  0  0  0  0  0  0  0  0  0  0
   -0.1070   23.0060  -26.0590 O   0  0  0  0  0  0  0  0  0  0  0  0
   -0.8750   22.0800  -26.7800 C   0  0  0  0  0  0  0  0  0  0  0  0
   -1.3290   20.8720  -26.2190 C   0  0  0  0  0  0  0  0  0  0  0  0
   -2.0870   19.9730  -26.9750 C   0  0  0  0  0  0  0  0  0  0  0  0
   -2.5070   18.7820  -26.3640 O   0  0  0  0  0  0  0  0  0  0  0  0
   -3.8280   18.5470  -25.8830 C   0  0  0  0  0  0  0  0  0  0  0  0
   -2.4030   20.2880  -28.3100 C   0  0  0  0  0  0  0  0  0  0  0  0
   -1.9580   21.4900  -28.8850 C   0  0  0  0  0  0  0  0  0  0  0  0
   -2.3090   21.8220  -30.2490 N   0  0  0  0  0  0  0  0  0  0  0  0
   -1.5430   21.2960  -31.3570 C   0  0  0  0  0  0  0  0  0  0  0  0
   -0.3450   20.5910  -31.1370 C   0  0  0  0  0  0  0  0  0  0  0  0
    0.4010   20.1090  -32.2180 C   0  0  0  0  0  0  0  0  0  0  0  0
   -0.0390   20.3260  -33.5280 C   0  0  0  0  0  0  0  0  0  0  0  0
   -1.2250   21.0290  -33.7580 C   0  0  0  0  0  0  0  0  0  0  0  0
   -1.9730   21.5110  -32.6810 C   0  0  0  0  0  0  0  0  0  0  0  0
   -3.3780   22.7630  -30.4820 C   0  0  0  0  0  0  0  0  0  0  0  0
   -3.2300   24.0830  -30.0320 C   0  0  0  0  0  0  0  0  0  0  0  0
   -4.2630   25.0030  -30.2140 C   0  0  0  0  0  0  0  0  0  0  0  0
   -5.4140   24.6260  -30.8250 N   0  0  0  0  0  0  0  0  0  0  0  0
   -5.6060   23.3560  -31.2690 C   0  0  0  0  0  0  0  0  0  0  0  0
   -6.8170   23.0120  -31.8750 C   0  0  0  0  0  0  0  0  0  0  0  0
   -7.0310   21.7130  -32.3340 C   0  0  0  0  0  0  0  0  0  0  0  0
   -6.0360   20.7300  -32.1930 C   0  0  0  0  0  0  0  0  0  0  0  0
   -6.2380   19.3610  -32.7430 C   0  0  0  0  0  0  0  0  0  0  0  0
   -6.8760   18.3660  -31.9800 C   0  0  0  0  0  0  0  0  0  0  0  0
   -6.9820   17.0580  -32.4630 C   0  0  0  0  0  0  0  0  0  0  0  0
   -6.4730   16.7260  -33.7260 C   0  0  0  0  0  0  0  0  0  0  0  0
   -6.4900   15.2920  -34.1920 C   0  0  0  0  0  0  0  0  0  0  0  0
   -5.2050   14.6240  -33.8940 N   0  0  0  0  0  0  0  0  0  0  0  0
   -4.2090   14.8640  -34.9700 C   0  0  0  0  0  0  0  0  0  0  0  0
   -3.1400   15.8940  -34.5630 C   0  0  0  0  0  0  0  0  0  0  0  0
   -2.3700   15.4400  -33.3760 N   0  0  0  0  0  0  0  0  0  0  0  0
   -1.6980   16.6040  -32.7390 C   0  0  0  0  0  0  0  0  0  0  0  0
   -0.2690   16.8300  -33.2610 C   0  0  0  0  0  0  0  0  0  0  0  0
    0.1080   15.7950  -34.1280 O   0  0  0  0  0  0  0  0  0  0  0  0
   -3.2090   14.6800  -32.4030 C   0  0  0  0  0  0  0  0  0  0  0  0
   -4.7050   14.9920  -32.5470 C   0  0  0  0  0  0  0  0  0  0  0  0
   -5.8610   17.7200  -34.5030 C   0  0  0  0  0  0  0  0  0  0  0  0
   -5.7460   19.0250  -34.0190 C   0  0  0  0  0  0  0  0  0  0  0  0
   -4.8260   21.0710  -31.5600 C   0  0  0  0  0  0  0  0  0  0  0  0
   -4.5910   22.3830  -31.1080 C   0  0  0  0  0  0  0  0  0  0  0  0
   -1.1950   22.3790  -28.1070 C   0  0  0  0  0  0  0  0  0  0  0  0
    0.1654   22.2443  -24.1536 H   0  0  0  0  0  0  0  0  0  0  0  0
    0.4913   24.0004  -24.3449 H   0  0  0  0  0  0  0  0  0  0  0  0
   -1.2002   23.3956  -24.3449 H   0  0  0  0  0  0  0  0  0  0  0  0
   -1.0847   20.6323  -25.1736 H   0  0  0  0  0  0  0  0  0  0  0  0
   -3.8233   18.5478  -24.7830 H   0  0  0  0  0  0  0  0  0  0  0  0
   -4.4974   19.3402  -26.2474 H   0  0  0  0  0  0  0  0  0  0  0  0
   -4.1828   17.5716  -26.2474 H   0  0  0  0  0  0  0  0  0  0  0  0
   -3.0036   19.5869  -28.9082 H   0  0  0  0  0  0  0  0  0  0  0  0
    0.0068   20.4179  -30.1093 H   0  0  0  0  0  0  0  0  0  0  0  0
    1.3358   19.5581  -32.0374 H   0  0  0  0  0  0  0  0  0  0  0  0
    0.5478   19.9438  -34.3763 H   0  0  0  0  0  0  0  0  0  0  0  0
   -1.5697   21.2029  -34.7880 H   0  0  0  0  0  0  0  0  0  0  0  0
   -2.9057   22.0631  -32.8686 H   0  0  0  0  0  0  0  0  0  0  0  0
   -2.2989   24.3932  -29.5352 H   0  0  0  0  0  0  0  0  0  0  0  0
   -4.1437   26.0379  -29.8607 H   0  0  0  0  0  0  0  0  0  0  0  0
   -7.6057   23.7700  -31.9906 H   0  0  0  0  0  0  0  0  0  0  0  0
   -7.9879   21.4548  -32.8112 H   0  0  0  0  0  0  0  0  0  0  0  0
   -7.2951   18.6191  -30.9950 H   0  0  0  0  0  0  0  0  0  0  0  0
   -7.4674   16.2855  -31.8485 H   0  0  0  0  0  0  0  0  0  0  0  0
   -7.3018   14.7562  -33.6783 H   0  0  0  0  0  0  0  0  0  0  0  0
   -6.6485   15.2785  -35.2804 H   0  0  0  0  0  0  0  0  0  0  0  0
   -3.7103   13.9129  -35.2079 H   0  0  0  0  0  0  0  0  0  0  0  0
   -4.7473   15.2665  -35.8407 H   0  0  0  0  0  0  0  0  0  0  0  0
   -2.4465   16.0407  -35.4041 H   0  0  0  0  0  0  0  0  0  0  0  0
   -3.6480   16.8351  -34.3054 H   0  0  0  0  0  0  0  0  0  0  0  0
   -1.6310   14.7890  -33.7330 H   0  0  0  0  0  0  0  0  0  0  0  0
   -2.2927   17.5068  -32.9421 H   0  0  0  0  0  0  0  0  0  0  0  0
   -1.6264   16.3945  -31.6615 H   0  0  0  0  0  0  0  0  0  0  0  0
   -0.2285   17.7873  -33.8014 H   0  0  0  0  0  0  0  0  0  0  0  0
    0.4229   16.8467  -32.4060 H   0  0  0  0  0  0  0  0  0  0  0  0
    1.0550   15.5740  -33.9250 H   0  0  0  0  0  0  0  0  0  0  0  0
   -3.0555   13.6037  -32.5702 H   0  0  0  0  0  0  0  0  0  0  0  0
   -2.9011   14.9801  -31.3905 H   0  0  0  0  0  0  0  0  0  0  0  0
   -5.2642   14.4232  -31.7895 H   0  0  0  0  0  0  0  0  0  0  0  0
   -4.8492   16.0734  -32.4066 H   0  0  0  0  0  0  0  0  0  0  0  0
   -5.4690   17.4703  -35.5000 H   0  0  0  0  0  0  0  0  0  0  0  0
   -5.2672   19.7967  -34.6396 H   0  0  0  0  0  0  0  0  0  0  0  0
   -4.0533   20.3014  -31.4166 H   0  0  0  0  0  0  0  0  0  0  0  0
   -0.8450   23.3233  -28.5494 H   0  0  0  0  0  0  0  0  0  0  0  0
  1  2  1  0
  2  3  1  0
  3  4  2  0
  4  5  1  0
  5  6  1  0
  6  7  1  0
  5  8  2  0
  8  9  1  0
  9 10  1  0
 10 11  1  0
 11 12  2  0
 12 13  1  0
 13 14  2  0
 14 15  1  0
 15 16  2  0
 10 17  1  0
 17 18  2  0
 18 19  1  0
 19 20  2  0
 20 21  1  0
 21 22  2  0
 22 23  1  0
 23 24  2  0
 24 25  1  0
 25 26  2  0
 26 27  1  0
 27 28  2  0
 28 29  1  0
 29 30  1  0
 30 31  1  0
 31 32  1  0
 32 33  1  0
 33 34  1  0
 34 35  1  0
 35 36  1  0
 33 37  1  0
 37 38  1  0
 28 39  1  0
 39 40  2  0
 24 41  1  0
 41 42  2  0
  9 43  2  0
 43  3  1  0
 16 11  1  0
 42 17  1  0
 42 21  1  0
 40 25  1  0
 38 30  1  0
  1 44  1  0
  1 45  1  0
  1 46  1  0
  4 47  1  0
  7 48  1  0
  7 49  1  0
  7 50  1  0
  8 51  1  0
 12 52  1  0
 13 53  1  0
 14 54  1  0
 15 55  1  0
 16 56  1  0
 18 57  1  0
 19 58  1  0
 22 59  1  0
 23 60  1  0
 26 61  1  0
 27 62  1  0
 29 63  1  0
 29 64  1  0
 31 65  1  0
 31 66  1  0
 32 67  1  0
 32 68  1  0
 33 69  1  0
 34 70  1  0
 34 71  1  0
 35 72  1  0
 35 73  1  0
 36 74  1  0
 37 75  1  0
 37 76  1  0
 38 77  1  0
 38 78  1  0
 39 79  1  0
 40 80  1  0
 41 81  1  0
 43 82  1  0
M  CHG  1  33   1
M  END
>  <UniqueID>  (19) 
19

>  <SMILES>  (19) 
COc1cc(OC)cc(N(c2ccccc2)c2ccnc3ccc(-c4ccc(CN5CC[NH+](CCO)CC5)cc4)cc23)c1

>  <Energy>  (19) 
123.558541428154

>  <Genealogy>  (19) 
COc1cc(OC)cc(N(c2ccccc2)c2ccnc3ccc(-c4ccc(CN5CC[NH+](CCO)CC5)cc4)cc23)c1 (protonated)
COc1cc(OC)cc(N(c2ccccc2)c2ccnc3ccc(-c4ccc(CN5CC[NH+](CCO)CC5)cc4)cc23)c1 (3D coordinates assigned)
COc1cc(OC)cc(N(c2ccccc2)c2ccnc3ccc(-c4ccc(CN5CC[NH+](CCO)CC5)cc4)cc23)c1 (nonaromatic ring conformer: 123.558541428154 kcal/mol)

>  <smiles>  (19) 
COc1cc(OC)cc(N(c2ccccc2)c2ccnc3ccc(-c4ccc(CN5CCN(CCO)CC5)cc4)cc23)c1

>  <score_type>  (19) 
oracle

>  <origin>  (19) 
adgpu

>  <m_score__min__energy>  (19) 
-10.949999999999999

>  <m_primary>  (19) 
energy

$$$$
19:0
     RDKit          3D

 52 55  0  0  0  0  0  0  0  0999 V2000
   -0.1290   23.5440  -24.7280 C   0  0  0  0  0  0  0  0  0  0  0  0
   -0.4930   24.9930  -24.9160 C   0  0  0  0  0  0  0  0  0  0  0  0
   -0.4980   25.8400  -23.7900 C   0  0  0  0  0  0  0  0  0  0  0  0
   -0.8320   27.1890  -23.9190 C   0  0  0  0  0  0  0  0  0  0  0  0
   -1.1630   27.7130  -25.1740 C   0  0  0  0  0  0  0  0  0  0  0  0
   -1.1480   26.8920  -26.3060 C   0  0  0  0  0  0  0  0  0  0  0  0
   -0.8020   25.5340  -26.1990 C   0  0  0  0  0  0  0  0  0  0  0  0
   -0.8240   24.5470  -27.6700 S   0  0  0  0  0  0  0  0  0  0  0  0
   -1.1910   23.1370  -27.3000 O   0  0  0  0  0  0  0  0  0  0  0  0
    0.5310   24.5550  -28.3320 O   0  0  0  0  0  0  0  0  0  0  0  0
   -1.9770   25.1880  -28.8020 N   0  0  0  0  0  0  0  0  0  0  0  0
   -2.7500   24.3810  -29.6940 C   0  0  0  0  0  0  0  0  0  0  0  0
   -4.0480   24.7990  -30.0010 C   0  0  0  0  0  0  0  0  0  0  0  0
   -4.8620   24.0520  -30.8650 C   0  0  0  0  0  0  0  0  0  0  0  0
   -4.3760   22.8530  -31.4200 C   0  0  0  0  0  0  0  0  0  0  0  0
   -3.0640   22.4430  -31.1280 C   0  0  0  0  0  0  0  0  0  0  0  0
   -2.2390   23.2090  -30.2980 C   0  0  0  0  0  0  0  0  0  0  0  0
   -0.9090   22.8190  -30.1430 O   0  0  0  0  0  0  0  0  0  0  0  0
   -5.1800   22.0900  -32.4480 C   0  0  0  0  0  0  0  0  0  0  0  0
   -6.6300   22.3670  -32.3760 N   0  0  0  0  0  0  0  0  0  0  0  0
   -7.3020   21.6050  -31.2980 C   0  0  0  0  0  0  0  0  0  0  0  0
   -7.4780   20.1530  -31.6810 C   0  0  0  0  0  0  0  0  0  0  0  0
   -8.7570   19.5740  -31.6860 C   0  0  0  0  0  0  0  0  0  0  0  0
   -8.9150   18.2220  -32.0070 C   0  0  0  0  0  0  0  0  0  0  0  0
   -7.7980   17.4390  -32.3330 C   0  0  0  0  0  0  0  0  0  0  0  0
   -6.5210   18.0080  -32.3300 C   0  0  0  0  0  0  0  0  0  0  0  0
   -6.3580   19.3550  -31.9950 C   0  0  0  0  0  0  0  0  0  0  0  0
   -6.9040   23.8190  -32.3410 C   0  0  0  0  0  0  0  0  0  0  0  0
   -6.2730   24.5110  -31.1240 C   0  0  0  0  0  0  0  0  0  0  0  0
   -0.0719   23.3167  -23.6532 H   0  0  0  0  0  0  0  0  0  0  0  0
   -0.8957   22.9096  -25.1967 H   0  0  0  0  0  0  0  0  0  0  0  0
    0.8465   23.3472  -25.1967 H   0  0  0  0  0  0  0  0  0  0  0  0
   -0.2366   25.4348  -22.8013 H   0  0  0  0  0  0  0  0  0  0  0  0
   -0.8351   27.8412  -23.0332 H   0  0  0  0  0  0  0  0  0  0  0  0
   -1.4359   28.7743  -25.2702 H   0  0  0  0  0  0  0  0  0  0  0  0
   -1.4092   27.3126  -27.2883 H   0  0  0  0  0  0  0  0  0  0  0  0
   -4.4369   25.7278  -29.5583 H   0  0  0  0  0  0  0  0  0  0  0  0
   -2.6803   21.5062  -31.5584 H   0  0  0  0  0  0  0  0  0  0  0  0
   -0.3710   23.0370  -29.3090 H   0  0  0  0  0  0  0  0  0  0  0  0
   -4.8203   22.3680  -33.4497 H   0  0  0  0  0  0  0  0  0  0  0  0
   -5.0413   21.0184  -32.2417 H   0  0  0  0  0  0  0  0  0  0  0  0
   -6.6926   21.6634  -30.3841 H   0  0  0  0  0  0  0  0  0  0  0  0
   -8.2968   22.0435  -31.1303 H   0  0  0  0  0  0  0  0  0  0  0  0
   -9.6370   20.1852  -31.4368 H   0  0  0  0  0  0  0  0  0  0  0  0
   -9.9184   17.7713  -32.0038 H   0  0  0  0  0  0  0  0  0  0  0  0
   -7.9267   16.3774  -32.5910 H   0  0  0  0  0  0  0  0  0  0  0  0
   -5.6451   17.3959  -32.5911 H   0  0  0  0  0  0  0  0  0  0  0  0
   -5.3503   19.7956  -31.9761 H   0  0  0  0  0  0  0  0  0  0  0  0
   -6.4982   24.2760  -33.2556 H   0  0  0  0  0  0  0  0  0  0  0  0
   -7.9939   23.9503  -32.2703 H   0  0  0  0  0  0  0  0  0  0  0  0
   -6.2636   25.5966  -31.3014 H   0  0  0  0  0  0  0  0  0  0  0  0
   -6.8760   24.2498  -30.2419 H   0  0  0  0  0  0  0  0  0  0  0  0
  1  2  1  0
  2  3  2  0
  3  4  1  0
  4  5  2  0
  5  6  1  0
  6  7  2  0
  7  8  1  0
  8  9  2  0
  8 10  2  0
  8 11  1  0
 11 12  1  0
 12 13  2  0
 13 14  1  0
 14 15  2  0
 15 16  1  0
 16 17  2  0
 17 18  1  0
 15 19  1  0
 19 20  1  0
 20 21  1  0
 21 22  1  0
 22 23  2  0
 23 24  1  0
 24 25  2  0
 25 26  1  0
 26 27  2  0
 20 28  1  0
 28 29  1  0
  7  2  1  0
 17 12  1  0
 27 22  1  0
 29 14  1  0
  1 30  1  0
  1 31  1  0
  1 32  1  0
  3 33  1  0
  4 34  1  0
  5 35  1  0
  6 36  1  0
 13 37  1  0
 16 38  1  0
 18 39  1  0
 19 40  1  0
 19 41  1  0
 21 42  1  0
 21 43  1  0
 23 44  1  0
 24 45  1  0
 25 46  1  0
 26 47  1  0
 27 48  1  0
 28 49  1  0
 28 50  1  0
 29 51  1  0
 29 52  1  0
M  CHG  1  11  -1
M  END
>  <UniqueID>  (20) 
20

>  <SMILES>  (20) 
Cc1ccccc1S(=O)(=O)[N-]c1cc2c(cc1O)CN(Cc1ccccc1)CC2

>  <Energy>  (20) 
74.89730602335092

>  <Genealogy>  (20) 
Cc1ccccc1S(=O)(=O)[N-]c1cc2c(cc1O)CN(Cc1ccccc1)CC2 (protonated)
Cc1ccccc1S(=O)(=O)[N-]c1cc2c(cc1O)CN(Cc1ccccc1)CC2 (3D coordinates assigned)
Cc1ccccc1S(=O)(=O)[N-]c1cc2c(cc1O)CN(Cc1ccccc1)CC2 (nonaromatic ring conformer: 74.89730602335092 kcal/mol)

>  <smiles>  (20) 
Cc1ccccc1S(=O)(=O)Nc1cc2c(cc1O)CN(Cc1ccccc1)CC2

>  <score_type>  (20) 
oracle

>  <origin>  (20) 
adgpu

>  <m_score__min__energy>  (20) 
-10.970000000000001

>  <m_primary>  (20) 
energy

$$$$
20:0
     RDKit          3D

 62 65  0  0  0  0  0  0  0  0999 V2000
   -0.7830   27.7040  -23.7120 N   0  0  0  0  0  0  0  0  0  0  0  0
   -0.0700   26.5420  -24.1530 C   0  0  0  0  0  0  0  0  0  0  0  0
    0.8930   26.0650  -23.4210 N   0  0  0  0  0  0  0  0  0  0  0  0
   -0.4200   25.9090  -25.4490 C   0  0  0  0  0  0  0  0  0  0  0  0
    0.5750   25.3000  -26.2320 C   0  0  0  0  0  0  0  0  0  0  0  0
    0.2500   24.6910  -27.4470 C   0  0  0  0  0  0  0  0  0  0  0  0
   -1.0740   24.6880  -27.9050 C   0  0  0  0  0  0  0  0  0  0  0  0
   -1.4270   24.0130  -29.1980 C   0  0  0  0  0  0  0  0  0  0  0  0
   -2.8690   23.7810  -29.2620 N   0  0  0  0  0  0  0  0  0  0  0  0
   -3.6700   24.1030  -30.4050 C   0  0  0  0  0  0  0  0  0  0  0  0
   -3.7290   25.2980  -30.7930 O   0  0  0  0  0  0  0  0  0  0  0  0
   -4.3910   23.0560  -31.1530 C   0  0  0  0  0  0  0  0  0  0  0  0
   -5.6910   23.3260  -31.6070 C   0  0  0  0  0  0  0  0  0  0  0  0
   -6.3850   22.3860  -32.3710 C   0  0  0  0  0  0  0  0  0  0  0  0
   -5.7880   21.1660  -32.6830 C   0  0  0  0  0  0  0  0  0  0  0  0
   -4.5030   20.8760  -32.2220 C   0  0  0  0  0  0  0  0  0  0  0  0
   -3.7980   21.8100  -31.4500 C   0  0  0  0  0  0  0  0  0  0  0  0
   -2.1520   21.3520  -30.8760 S   0  0  0  0  0  0  0  0  0  0  0  0
   -1.5610   20.8060  -32.4840 C   0  0  0  0  0  0  0  0  0  0  0  0
   -0.8250   21.6730  -33.3040 C   0  0  0  0  0  0  0  0  0  0  0  0
   -0.3260   21.2260  -34.5360 C   0  0  0  0  0  0  0  0  0  0  0  0
    0.7360   22.2640  -35.4830 S   0  0  0  0  0  0  0  0  0  0  0  0
    1.8970   22.6880  -34.6250 O   0  0  0  0  0  0  0  0  0  0  0  0
    1.2560   21.5040  -36.6730 O   0  0  0  0  0  0  0  0  0  0  0  0
   -0.1130   23.6840  -36.0310 N   0  0  0  0  0  0  0  0  0  0  0  0
    0.7730   24.8520  -36.0810 C   0  0  0  0  0  0  0  0  0  0  0  0
   -0.0200   26.1320  -36.1470 C   0  0  0  0  0  0  0  0  0  0  0  0
    0.0300   27.0550  -35.0880 C   0  0  0  0  0  0  0  0  0  0  0  0
   -0.6980   28.2450  -35.1620 C   0  0  0  0  0  0  0  0  0  0  0  0
   -1.4720   28.5290  -36.2890 C   0  0  0  0  0  0  0  0  0  0  0  0
   -1.5250   27.6180  -37.3440 C   0  0  0  0  0  0  0  0  0  0  0  0
   -0.8090   26.4190  -37.2750 C   0  0  0  0  0  0  0  0  0  0  0  0
   -0.6420   19.9380  -34.9870 C   0  0  0  0  0  0  0  0  0  0  0  0
   -1.3970   19.0800  -34.1840 C   0  0  0  0  0  0  0  0  0  0  0  0
   -1.8410   19.5040  -32.9270 C   0  0  0  0  0  0  0  0  0  0  0  0
   -2.5700   18.6280  -32.1310 O   0  0  0  0  0  0  0  0  0  0  0  0
   -2.0720   25.2920  -27.1270 C   0  0  0  0  0  0  0  0  0  0  0  0
   -1.7480   25.9020  -25.9130 C   0  0  0  0  0  0  0  0  0  0  0  0
   -0.5280   28.1800  -22.8190 H   0  0  0  0  0  0  0  0  0  0  0  0
   -1.6020   28.0670  -24.2450 H   0  0  0  0  0  0  0  0  0  0  0  0
    1.1450   26.5140  -22.5130 H   0  0  0  0  0  0  0  0  0  0  0  0
    1.4580   25.2430  -23.7270 H   0  0  0  0  0  0  0  0  0  0  0  0
    1.6190   25.3026  -25.8856 H   0  0  0  0  0  0  0  0  0  0  0  0
    1.0376   24.2116  -28.0468 H   0  0  0  0  0  0  0  0  0  0  0  0
   -1.1233   24.6541  -30.0387 H   0  0  0  0  0  0  0  0  0  0  0  0
   -0.9024   23.0479  -29.2572 H   0  0  0  0  0  0  0  0  0  0  0  0
   -6.1671   24.2861  -31.3589 H   0  0  0  0  0  0  0  0  0  0  0  0
   -7.4021   22.6081  -32.7264 H   0  0  0  0  0  0  0  0  0  0  0  0
   -6.3309   20.4299  -33.2941 H   0  0  0  0  0  0  0  0  0  0  0  0
   -4.0404   19.9083  -32.4660 H   0  0  0  0  0  0  0  0  0  0  0  0
   -0.6383   22.7074  -32.9798 H   0  0  0  0  0  0  0  0  0  0  0  0
    1.4017   24.8650  -35.1784 H   0  0  0  0  0  0  0  0  0  0  0  0
    1.3957   24.7798  -36.9849 H   0  0  0  0  0  0  0  0  0  0  0  0
    0.6429   26.8401  -34.2002 H   0  0  0  0  0  0  0  0  0  0  0  0
   -0.6613   28.9618  -34.3284 H   0  0  0  0  0  0  0  0  0  0  0  0
   -2.0392   29.4699  -36.3448 H   0  0  0  0  0  0  0  0  0  0  0  0
   -2.1321   27.8436  -38.2331 H   0  0  0  0  0  0  0  0  0  0  0  0
   -0.8630   25.6988  -38.1047 H   0  0  0  0  0  0  0  0  0  0  0  0
   -0.2950   19.6017  -35.9752 H   0  0  0  0  0  0  0  0  0  0  0  0
   -1.6429   18.0689  -34.5407 H   0  0  0  0  0  0  0  0  0  0  0  0
   -3.1156   25.2854  -27.4746 H   0  0  0  0  0  0  0  0  0  0  0  0
   -2.5375   26.3807  -25.3150 H   0  0  0  0  0  0  0  0  0  0  0  0
  1  2  1  0
  2  3  2  0
  2  4  1  0
  4  5  2  0
  5  6  1  0
  6  7  2  0
  7  8  1  0
  8  9  1  0
  9 10  1  0
 10 11  2  0
 10 12  1  0
 12 13  2  0
 13 14  1  0
 14 15  2  0
 15 16  1  0
 16 17  2  0
 17 18  1  0
 18 19  1  0
 19 20  2  0
 20 21  1  0
 21 22  1  0
 22 23  2  0
 22 24  2  0
 22 25  1  0
 25 26  1  0
 26 27  1  0
 27 28  2  0
 28 29  1  0
 29 30  2  0
 30 31  1  0
 31 32  2  0
 21 33  2  0
 33 34  1  0
 34 35  2  0
 35 36  1  0
  7 37  1  0
 37 38  2  0
 38  4  1  0
 17 12  1  0
 35 19  1  0
 32 27  1  0
  1 39  1  0
  1 40  1  0
  3 41  1  0
  3 42  1  0
  5 43  1  0
  6 44  1  0
  8 45  1  0
  8 46  1  0
 13 47  1  0
 14 48  1  0
 15 49  1  0
 16 50  1  0
 20 51  1  0
 26 52  1  0
 26 53  1  0
 28 54  1  0
 29 55  1  0
 30 56  1  0
 31 57  1  0
 32 58  1  0
 33 59  1  0
 34 60  1  0
 37 61  1  0
 38 62  1  0
M  CHG  4   3   1   9  -1  25  -1  36  -1
M  END
>  <UniqueID>  (21) 
21

>  <SMILES>  (21) 
NC(=[NH2+])c1ccc(C[N-]C(=O)c2ccccc2Sc2cc(S(=O)(=O)[N-]Cc3ccccc3)ccc2[O-])cc1

>  <Energy>  (21) 
65.75311300468363

>  <Genealogy>  (21) 
NC(=[NH2+])c1ccc(C[N-]C(=O)c2ccccc2Sc2cc(S(=O)(=O)[N-]Cc3ccccc3)ccc2[O-])cc1 (protonated)
NC(=[NH2+])c1ccc(C[N-]C(=O)c2ccccc2Sc2cc(S(=O)(=O)[N-]Cc3ccccc3)ccc2[O-])cc1 (3D coordinates assigned)
NC(=[NH2+])c1ccc(C[N-]C(=O)c2ccccc2Sc2cc(S(=O)(=O)[N-]Cc3ccccc3)ccc2[O-])cc1 (optimized conformer: 65.75311300468363 kcal/mol)

>  <smiles>  (21) 
N=C(N)c1ccc(CNC(=O)c2ccccc2Sc2cc(S(=O)(=O)NCc3ccccc3)ccc2O)cc1

>  <score_type>  (21) 
oracle

>  <origin>  (21) 
adgpu

>  <m_score__min__energy>  (21) 
-15.23

>  <m_primary>  (21) 
energy

$$$$
21:0
     RDKit          3D

 50 54  0  0  0  0  0  0  0  0999 V2000
   -6.4790   26.0690  -29.4000 O   0  0  0  0  0  0  0  0  0  0  0  0
   -5.5660   24.9710  -29.8620 S   0  0  0  0  0  0  0  0  0  0  0  0
   -4.5640   25.5380  -30.8270 O   0  0  0  0  0  0  0  0  0  0  0  0
   -4.7180   24.3210  -28.4920 N   0  0  0  0  0  0  0  0  0  0  0  0
   -3.5200   23.5280  -28.5820 C   0  0  0  0  0  0  0  0  0  0  0  0
   -2.7340   23.3490  -27.4350 C   0  0  0  0  0  0  0  0  0  0  0  0
   -1.5850   22.5590  -27.4800 C   0  0  0  0  0  0  0  0  0  0  0  0
   -1.2130   21.9260  -28.6670 C   0  0  0  0  0  0  0  0  0  0  0  0
   -1.9840   22.0900  -29.8320 C   0  0  0  0  0  0  0  0  0  0  0  0
   -1.6370   21.3930  -31.0950 C   0  0  0  0  0  0  0  0  0  0  0  0
   -0.3940   20.9320  -31.4860 C   0  0  0  0  0  0  0  0  0  0  0  0
   -0.5390   20.3390  -32.6460 O   0  0  0  0  0  0  0  0  0  0  0  0
   -1.8080   20.4240  -32.9690 C   0  0  0  0  0  0  0  0  0  0  0  0
   -2.3890   19.8480  -34.2170 C   0  0  0  0  0  0  0  0  0  0  0  0
   -3.2010   18.6330  -33.8890 C   0  0  0  0  0  0  0  0  0  0  0  0
   -2.7580   17.3140  -33.8830 C   0  0  0  0  0  0  0  0  0  0  0  0
   -3.7830   16.4740  -33.6100 N   0  0  0  0  0  0  0  0  0  0  0  0
   -4.8710   17.2490  -33.4590 C   0  0  0  0  0  0  0  0  0  0  0  0
   -6.1730   16.8350  -33.1880 C   0  0  0  0  0  0  0  0  0  0  0  0
   -7.1710   17.8230  -33.0930 C   0  0  0  0  0  0  0  0  0  0  0  0
   -6.8490   19.1860  -33.2750 C   0  0  0  0  0  0  0  0  0  0  0  0
   -5.5250   19.5750  -33.5500 C   0  0  0  0  0  0  0  0  0  0  0  0
   -4.5570   18.5730  -33.6290 C   0  0  0  0  0  0  0  0  0  0  0  0
   -2.5420   21.0690  -32.0400 N   0  0  0  0  0  0  0  0  0  0  0  0
   -3.1230   22.9110  -29.7820 C   0  0  0  0  0  0  0  0  0  0  0  0
   -6.5340   23.7250  -30.6470 C   0  0  0  0  0  0  0  0  0  0  0  0
   -7.3720   22.8970  -29.8860 C   0  0  0  0  0  0  0  0  0  0  0  0
   -8.1150   21.8880  -30.5100 C   0  0  0  0  0  0  0  0  0  0  0  0
   -8.0330   21.7120  -31.8940 C   0  0  0  0  0  0  0  0  0  0  0  0
   -7.2080   22.5420  -32.6560 C   0  0  0  0  0  0  0  0  0  0  0  0
   -6.4570   23.5450  -32.0350 C   0  0  0  0  0  0  0  0  0  0  0  0
   -5.1440   24.4890  -27.5520 H   0  0  0  0  0  0  0  0  0  0  0  0
   -3.0255   23.8352  -26.4923 H   0  0  0  0  0  0  0  0  0  0  0  0
   -0.9699   22.4345  -26.5766 H   0  0  0  0  0  0  0  0  0  0  0  0
   -0.3120   21.2955  -28.6916 H   0  0  0  0  0  0  0  0  0  0  0  0
    0.5461   21.0426  -30.9256 H   0  0  0  0  0  0  0  0  0  0  0  0
   -3.0334   20.5979  -34.6990 H   0  0  0  0  0  0  0  0  0  0  0  0
   -1.5733   19.5647  -34.8985 H   0  0  0  0  0  0  0  0  0  0  0  0
   -1.7214   16.9988  -34.0732 H   0  0  0  0  0  0  0  0  0  0  0  0
   -3.7370   15.4330  -33.5400 H   0  0  0  0  0  0  0  0  0  0  0  0
   -6.4136   15.7702  -33.0526 H   0  0  0  0  0  0  0  0  0  0  0  0
   -8.2091   17.5315  -32.8755 H   0  0  0  0  0  0  0  0  0  0  0  0
   -7.6384   19.9485  -33.2013 H   0  0  0  0  0  0  0  0  0  0  0  0
   -5.2620   20.6328  -33.6977 H   0  0  0  0  0  0  0  0  0  0  0  0
   -3.7135   23.0738  -30.6956 H   0  0  0  0  0  0  0  0  0  0  0  0
   -7.4455   23.0406  -28.7979 H   0  0  0  0  0  0  0  0  0  0  0  0
   -8.7641   21.2329  -29.9104 H   0  0  0  0  0  0  0  0  0  0  0  0
   -8.6184   20.9195  -32.3832 H   0  0  0  0  0  0  0  0  0  0  0  0
   -7.1488   22.4067  -33.7460 H   0  0  0  0  0  0  0  0  0  0  0  0
   -5.8043   24.1942  -32.6371 H   0  0  0  0  0  0  0  0  0  0  0  0
  1  2  2  0
  2  3  2  0
  2  4  1  0
  4  5  1  0
  5  6  2  0
  6  7  1  0
  7  8  2  0
  8  9  1  0
  9 10  1  0
 10 11  2  0
 11 12  1  0
 12 13  1  0
 13 14  1  0
 14 15  1  0
 15 16  2  0
 16 17  1  0
 17 18  1  0
 18 19  2  0
 19 20  1  0
 20 21  2  0
 21 22  1  0
 22 23  2  0
 13 24  2  0
  9 25  2  0
  2 26  1  0
 26 27  2  0
 27 28  1  0
 28 29  2  0
 29 30  1  0
 30 31  2  0
 25  5  1  0
 31 26  1  0
 24 10  1  0
 23 15  1  0
 23 18  1  0
  4 32  1  0
  6 33  1  0
  7 34  1  0
  8 35  1  0
 11 36  1  0
 14 37  1  0
 14 38  1  0
 16 39  1  0
 17 40  1  0
 19 41  1  0
 20 42  1  0
 21 43  1  0
 22 44  1  0
 25 45  1  0
 27 46  1  0
 28 47  1  0
 29 48  1  0
 30 49  1  0
 31 50  1  0
M  END
>  <UniqueID>  (22) 
22

>  <SMILES>  (22) 
O=S(=O)(Nc1cccc(-c2coc(Cc3c[nH]c4ccccc34)n2)c1)c1ccccc1

>  <Energy>  (22) 
117.82756009817884

>  <Genealogy>  (22) 
O=S(=O)(Nc1cccc(-c2coc(Cc3c[nH]c4ccccc34)n2)c1)c1ccccc1 (3D coordinates assigned)
O=S(=O)(Nc1cccc(-c2coc(Cc3c[nH]c4ccccc34)n2)c1)c1ccccc1 (optimized conformer: 117.82756009817884 kcal/mol)

>  <smiles>  (22) 
O=S(=O)(Nc1cccc(-c2coc(Cc3c[nH]c4ccccc34)n2)c1)c1ccccc1

>  <score_type>  (22) 
oracle

>  <origin>  (22) 
adgpu

>  <m_score__min__energy>  (22) 
-10.27

>  <m_primary>  (22) 
energy

$$$$
22:0
     RDKit          3D

 36 37  0  0  0  0  0  0  0  0999 V2000
   -3.8640   25.3010  -30.5440 N   0  0  0  0  0  0  0  0  0  0  0  0
   -2.9720   24.5510  -29.2680 S   0  0  0  0  0  0  0  0  0  0  0  0
   -3.8840   24.3020  -28.1000 O   0  0  0  0  0  0  0  0  0  0  0  0
   -1.8620   25.4640  -28.8260 O   0  0  0  0  0  0  0  0  0  0  0  0
   -2.2960   23.0290  -29.8380 C   0  0  0  0  0  0  0  0  0  0  0  0
   -1.5330   22.2280  -28.9770 C   0  0  0  0  0  0  0  0  0  0  0  0
   -1.0110   21.0120  -29.4270 C   0  0  0  0  0  0  0  0  0  0  0  0
   -1.2460   20.5910  -30.7390 C   0  0  0  0  0  0  0  0  0  0  0  0
   -2.0040   21.3880  -31.6130 C   0  0  0  0  0  0  0  0  0  0  0  0
   -2.2700   20.9330  -33.0240 C   0  0  0  0  0  0  0  0  0  0  0  0
   -3.5100   21.4550  -33.5020 O   0  0  0  0  0  0  0  0  0  0  0  0
   -4.7570   21.2890  -32.8760 C   0  0  0  0  0  0  0  0  0  0  0  0
   -5.6270   20.3190  -33.3840 C   0  0  0  0  0  0  0  0  0  0  0  0
   -6.8730   20.1060  -32.7940 C   0  0  0  0  0  0  0  0  0  0  0  0
   -7.2650   20.8610  -31.6880 C   0  0  0  0  0  0  0  0  0  0  0  0
   -6.4100   21.8440  -31.1600 C   0  0  0  0  0  0  0  0  0  0  0  0
   -6.8200   22.6560  -29.9870 C   0  0  0  0  0  0  0  0  0  0  0  0
   -5.9190   23.6280  -29.4410 N   0  0  0  0  0  0  0  0  0  0  0  0
   -7.9890   22.4910  -29.4410 N   0  0  0  0  0  0  0  0  0  0  0  0
   -5.1570   22.0570  -31.7640 C   0  0  0  0  0  0  0  0  0  0  0  0
   -2.5390   22.6010  -31.1500 C   0  0  0  0  0  0  0  0  0  0  0  0
   -3.1660   25.6900  -31.2150 H   0  0  0  0  0  0  0  0  0  0  0  0
   -1.3446   22.5573  -27.9445 H   0  0  0  0  0  0  0  0  0  0  0  0
   -0.4144   20.3854  -28.7477 H   0  0  0  0  0  0  0  0  0  0  0  0
   -0.8359   19.6320  -31.0885 H   0  0  0  0  0  0  0  0  0  0  0  0
   -1.4562   21.2845  -33.6753 H   0  0  0  0  0  0  0  0  0  0  0  0
   -2.3234   19.8344  -33.0350 H   0  0  0  0  0  0  0  0  0  0  0  0
   -5.3264   19.7192  -34.2557 H   0  0  0  0  0  0  0  0  0  0  0  0
   -7.5489   19.3401  -33.2021 H   0  0  0  0  0  0  0  0  0  0  0  0
   -8.2482   20.6861  -31.2268 H   0  0  0  0  0  0  0  0  0  0  0  0
   -6.1750   24.1730  -28.5880 H   0  0  0  0  0  0  0  0  0  0  0  0
   -5.0140   23.8460  -29.9110 H   0  0  0  0  0  0  0  0  0  0  0  0
   -8.6600   21.7680  -29.7870 H   0  0  0  0  0  0  0  0  0  0  0  0
   -8.2810   23.0640  -28.6180 H   0  0  0  0  0  0  0  0  0  0  0  0
   -4.4837   22.8298  -31.3647 H   0  0  0  0  0  0  0  0  0  0  0  0
   -3.1528   23.2192  -31.8216 H   0  0  0  0  0  0  0  0  0  0  0  0
  1  2  1  0
  2  3  2  0
  2  4  2  0
  2  5  1  0
  5  6  2  0
  6  7  1  0
  7  8  2  0
  8  9  1  0
  9 10  1  0
 10 11  1  0
 11 12  1  0
 12 13  2  0
 13 14  1  0
 14 15  2  0
 15 16  1  0
 16 17  1  0
 17 18  1  0
 17 19  2  0
 16 20  2  0
  9 21  2  0
 21  5  1  0
 20 12  1  0
  1 22  1  0
  6 23  1  0
  7 24  1  0
  8 25  1  0
 10 26  1  0
 10 27  1  0
 13 28  1  0
 14 29  1  0
 15 30  1  0
 18 31  1  0
 18 32  1  0
 19 33  1  0
 19 34  1  0
 20 35  1  0
 21 36  1  0
M  CHG  2   1  -1  19   1
M  END
>  <UniqueID>  (23) 
23

>  <SMILES>  (23) 
[NH-]S(=O)(=O)c1cccc(COc2cccc(C(N)=[NH2+])c2)c1

>  <Energy>  (23) 
37.65331556430884

>  <Genealogy>  (23) 
[NH-]S(=O)(=O)c1cccc(COc2cccc(C(N)=[NH2+])c2)c1 (protonated)
[NH-]S(=O)(=O)c1cccc(COc2cccc(C(N)=[NH2+])c2)c1 (3D coordinates assigned)
[NH-]S(=O)(=O)c1cccc(COc2cccc(C(N)=[NH2+])c2)c1 (optimized conformer: 37.65331556430884 kcal/mol)

>  <smiles>  (23) 
N=C(N)c1cccc(OCc2cccc(S(N)(=O)=O)c2)c1

>  <score_type>  (23) 
oracle

>  <origin>  (23) 
adgpu

>  <m_score__min__energy>  (23) 
-8.4900000000000002

>  <m_primary>  (23) 
energy

$$$$
23:0
     RDKit          3D

 57 60  0  0  0  0  0  0  0  0999 V2000
   -9.8993   18.9697  -32.4628 H   0  0  0  0  0  0  0  0  0  0  0  0
   -9.1030   19.7180  -32.3360 C   0  0  0  0  0  0  0  0  0  0  0  0
   -9.4320   20.8800  -31.8460 N   0  0  0  0  0  0  0  0  0  0  0  0
   -8.5450   21.9320  -31.4320 C   0  0  0  0  0  0  0  0  0  0  0  0
   -8.0920   21.9570  -30.1080 C   0  0  0  0  0  0  0  0  0  0  0  0
   -8.4364   21.1916  -29.3970 H   0  0  0  0  0  0  0  0  0  0  0  0
   -7.2040   22.9500  -29.6850 C   0  0  0  0  0  0  0  0  0  0  0  0
   -6.8687   22.9747  -28.6376 H   0  0  0  0  0  0  0  0  0  0  0  0
   -6.7390   23.9140  -30.5890 C   0  0  0  0  0  0  0  0  0  0  0  0
   -5.6080   25.1520  -30.0460 S   0  0  0  0  0  0  0  0  0  0  0  0
   -6.1620   25.8570  -28.8410 O   0  0  0  0  0  0  0  0  0  0  0  0
   -5.4010   26.1710  -31.1320 O   0  0  0  0  0  0  0  0  0  0  0  0
   -4.0750   24.4250  -29.6760 N   0  0  0  0  0  0  0  0  0  0  0  0
   -3.4860   23.5490  -30.4300 C   0  0  0  0  0  0  0  0  0  0  0  0
   -3.9830   23.0770  -31.5900 N   0  0  0  0  0  0  0  0  0  0  0  0
   -3.1080   22.2250  -32.0400 O   0  0  0  0  0  0  0  0  0  0  0  0
   -2.0780   22.1320  -31.2290 C   0  0  0  0  0  0  0  0  0  0  0  0
   -0.9110   21.2280  -31.4450 C   0  0  0  0  0  0  0  0  0  0  0  0
   -0.5055   20.9139  -30.4719 H   0  0  0  0  0  0  0  0  0  0  0  0
   -1.2336   20.3418  -32.0112 H   0  0  0  0  0  0  0  0  0  0  0  0
   -0.1335   21.7618  -32.0112 H   0  0  0  0  0  0  0  0  0  0  0  0
   -2.2690   22.9710  -30.1510 C   0  0  0  0  0  0  0  0  0  0  0  0
   -1.6121   23.1367  -29.2843 H   0  0  0  0  0  0  0  0  0  0  0  0
   -7.1660   23.8710  -31.9240 C   0  0  0  0  0  0  0  0  0  0  0  0
   -6.7977   24.6189  -32.6416 H   0  0  0  0  0  0  0  0  0  0  0  0
   -8.0580   22.8810  -32.3460 C   0  0  0  0  0  0  0  0  0  0  0  0
   -8.3797   22.8450  -33.3973 H   0  0  0  0  0  0  0  0  0  0  0  0
   -7.7290   19.3390  -32.7330 C   0  0  0  0  0  0  0  0  0  0  0  0
   -7.2600   18.0550  -32.4310 C   0  0  0  0  0  0  0  0  0  0  0  0
   -7.9043   17.3529  -31.8815 H   0  0  0  0  0  0  0  0  0  0  0  0
   -5.9760   17.6590  -32.8240 C   0  0  0  0  0  0  0  0  0  0  0  0
   -5.6172   16.6491  -32.5763 H   0  0  0  0  0  0  0  0  0  0  0  0
   -5.1430   18.5390  -33.5310 C   0  0  0  0  0  0  0  0  0  0  0  0
   -3.7920   18.0720  -33.9280 C   0  0  0  0  0  0  0  0  0  0  0  0
   -3.6943   17.0565  -34.3393 H   0  0  0  0  0  0  0  0  0  0  0  0
   -2.6840   18.8170  -33.8140 C   0  0  0  0  0  0  0  0  0  0  0  0
   -2.7739   19.8331  -33.4023 H   0  0  0  0  0  0  0  0  0  0  0  0
   -1.3460   18.3340  -34.2170 C   0  0  0  0  0  0  0  0  0  0  0  0
   -1.1610   17.0890  -34.2770 O   0  0  0  0  0  0  0  0  0  0  0  0
   -0.2270   19.2430  -34.5700 C   0  0  0  0  0  0  0  0  0  0  0  0
    1.1100   18.8150  -34.4830 C   0  0  0  0  0  0  0  0  0  0  0  0
    1.3353   17.7890  -34.1566 H   0  0  0  0  0  0  0  0  0  0  0  0
    2.1550   19.6860  -34.8090 C   0  0  0  0  0  0  0  0  0  0  0  0
    3.1971   19.3410  -34.7380 H   0  0  0  0  0  0  0  0  0  0  0  0
    1.8810   20.9970  -35.2260 C   0  0  0  0  0  0  0  0  0  0  0  0
    3.0040   21.9400  -35.5370 C   0  0  0  0  0  0  0  0  0  0  0  0
    3.4435   22.3090  -34.5985 H   0  0  0  0  0  0  0  0  0  0  0  0
    3.7739   21.4137  -36.1203 H   0  0  0  0  0  0  0  0  0  0  0  0
    2.6187   22.7893  -36.1203 H   0  0  0  0  0  0  0  0  0  0  0  0
    0.5500   21.4400  -35.2720 C   0  0  0  0  0  0  0  0  0  0  0  0
    0.3281   22.4769  -35.5645 H   0  0  0  0  0  0  0  0  0  0  0  0
   -0.4950   20.5700  -34.9480 C   0  0  0  0  0  0  0  0  0  0  0  0
   -1.5348   20.9265  -34.9892 H   0  0  0  0  0  0  0  0  0  0  0  0
   -5.6350   19.8150  -33.8730 C   0  0  0  0  0  0  0  0  0  0  0  0
   -5.0046   20.5071  -34.4506 H   0  0  0  0  0  0  0  0  0  0  0  0
   -6.9180   20.2060  -33.4830 C   0  0  0  0  0  0  0  0  0  0  0  0
   -7.2957   21.1998  -33.7653 H   0  0  0  0  0  0  0  0  0  0  0  0
  1  2  1  0
  2  3  2  3
  3  4  1  0
  4  5  2  0
  5  6  1  0
  5  7  1  0
  7  8  1  0
  7  9  2  0
  9 10  1  0
 10 11  2  0
 10 12  2  0
 10 13  1  0
 13 14  2  0
 14 15  1  0
 15 16  1  0
 16 17  1  0
 17 18  1  0
 18 19  1  0
 18 20  1  0
 18 21  1  0
 17 22  2  0
 22 23  1  0
  9 24  1  0
 24 25  1  0
 24 26  2  0
 26 27  1  0
  2 28  1  0
 28 29  2  0
 29 30  1  0
 29 31  1  0
 31 32  1  0
 31 33  2  0
 33 34  1  0
 34 35  1  0
 34 36  2  0
 36 37  1  0
 36 38  1  0
 38 39  2  0
 38 40  1  0
 40 41  2  0
 41 42  1  0
 41 43  1  0
 43 44  1  0
 43 45  2  0
 45 46  1  0
 46 47  1  0
 46 48  1  0
 46 49  1  0
 45 50  1  0
 50 51  1  0
 50 52  2  0
 52 53  1  0
 33 54  1  0
 54 55  1  0
 54 56  2  0
 56 57  1  0
 26  4  1  0
 56 28  1  0
 22 14  1  0
 52 40  1  0
M  CHG  1  15  -1
M  END
>  <UniqueID>  (24) 
24

>  <SMILES>  (24) 
Cc1ccc(C(=O)/C=C/c2ccc(C=Nc3ccc(S(=O)(=O)/N=c4/cc(C)o[n-]4)cc3)cc2)cc1

>  <Energy>  (24) 
112.28884244816206

>  <Genealogy>  (24) 
Cc1ccc(C(=O)C=Cc2ccc(C=Nc3ccc(S(=O)(=O)N=c4cc(C)o[n-]4)cc3)cc2)cc1 (protonated)
Cc1ccc(C(=O)/C=C/c2ccc(C=Nc3ccc(S(=O)(=O)/N=c4/cc(C)o[n-]4)cc3)cc2)cc1 (cis-trans isomerization)
Cc1ccc(C(=O)/C=C/c2ccc(C=Nc3ccc(S(=O)(=O)/N=c4/cc(C)o[n-]4)cc3)cc2)cc1 (3D coordinates assigned)
Cc1ccc(C(=O)/C=C/c2ccc(C=Nc3ccc(S(=O)(=O)/N=c4/cc(C)o[n-]4)cc3)cc2)cc1 (optimized conformer: 112.28884244816206 kcal/mol)

>  <smiles>  (24) 
Cc1ccc(C(=O)C=Cc2ccc(C=Nc3ccc(S(=O)(=O)N=c4cc(C)o[nH]4)cc3)cc2)cc1

>  <score_type>  (24) 
oracle

>  <origin>  (24) 
adgpu

>  <m_score__min__energy>  (24) 
-12.76

>  <m_primary>  (24) 
energy

$$$$
24:0
     RDKit          3D

 37 38  0  0  0  0  0  0  0  0999 V2000
   -4.5120   21.1010  -33.0700 C   0  0  0  0  0  0  0  0  0  0  0  0
   -5.8860   21.2500  -32.5570 N   0  0  0  0  0  0  0  0  0  0  0  0
   -6.2140   22.3470  -31.8010 C   0  0  0  0  0  0  0  0  0  0  0  0
   -5.2530   23.3940  -31.5590 N   0  0  0  0  0  0  0  0  0  0  0  0
   -4.2900   23.3640  -30.4890 C   0  0  0  0  0  0  0  0  0  0  0  0
   -4.0100   22.1660  -29.8120 C   0  0  0  0  0  0  0  0  0  0  0  0
   -3.0630   22.1380  -28.7910 C   0  0  0  0  0  0  0  0  0  0  0  0
   -2.3750   23.3000  -28.4430 C   0  0  0  0  0  0  0  0  0  0  0  0
   -2.6170   24.5060  -29.1120 C   0  0  0  0  0  0  0  0  0  0  0  0
   -1.8550   25.6510  -28.6940 N   0  0  0  0  0  0  0  0  0  0  0  0
   -0.4900   25.7040  -27.6250 S   0  0  0  0  0  0  0  0  0  0  0  0
   -1.0120   25.1770  -26.0100 C   0  0  0  0  0  0  0  0  0  0  0  0
    0.5840   24.7740  -28.1140 O   0  0  0  0  0  0  0  0  0  0  0  0
    0.0390   27.1080  -27.5320 O   0  0  0  0  0  0  0  0  0  0  0  0
   -3.5860   24.5360  -30.1450 C   0  0  0  0  0  0  0  0  0  0  0  0
   -3.8740   25.7130  -30.8270 O   0  0  0  0  0  0  0  0  0  0  0  0
   -7.5100   22.4800  -31.3020 C   0  0  0  0  0  0  0  0  0  0  0  0
   -8.4540   21.5030  -31.5900 C   0  0  0  0  0  0  0  0  0  0  0  0
   -9.6160   21.6180  -31.1090 O   0  0  0  0  0  0  0  0  0  0  0  0
   -8.1260   20.4400  -32.3870 N   0  0  0  0  0  0  0  0  0  0  0  0
   -9.1280   19.4000  -32.6810 C   0  0  0  0  0  0  0  0  0  0  0  0
   -6.8420   20.3080  -32.8560 C   0  0  0  0  0  0  0  0  0  0  0  0
   -6.5400   19.3110  -33.5720 O   0  0  0  0  0  0  0  0  0  0  0  0
   -3.8115   21.0250  -32.2253 H   0  0  0  0  0  0  0  0  0  0  0  0
   -4.4465   20.1905  -33.6837 H   0  0  0  0  0  0  0  0  0  0  0  0
   -4.2528   21.9763  -33.6837 H   0  0  0  0  0  0  0  0  0  0  0  0
   -5.2780   24.2300  -32.1850 H   0  0  0  0  0  0  0  0  0  0  0  0
   -4.5418   21.2440  -30.0897 H   0  0  0  0  0  0  0  0  0  0  0  0
   -2.8575   21.1978  -28.2583 H   0  0  0  0  0  0  0  0  0  0  0  0
   -1.6323   23.2687  -27.6322 H   0  0  0  0  0  0  0  0  0  0  0  0
   -0.4565   25.7378  -25.2439 H   0  0  0  0  0  0  0  0  0  0  0  0
   -2.0894   25.3655  -25.8932 H   0  0  0  0  0  0  0  0  0  0  0  0
   -0.8132   24.1014  -25.8932 H   0  0  0  0  0  0  0  0  0  0  0  0
   -7.7815   23.3503  -30.6864 H   0  0  0  0  0  0  0  0  0  0  0  0
   -9.5208   18.9923  -31.7379 H   0  0  0  0  0  0  0  0  0  0  0  0
   -9.9523   19.8389  -33.2623 H   0  0  0  0  0  0  0  0  0  0  0  0
   -8.6587   18.5926  -33.2623 H   0  0  0  0  0  0  0  0  0  0  0  0
  1  2  1  0
  2  3  1  0
  3  4  1  0
  4  5  1  0
  5  6  2  0
  6  7  1  0
  7  8  2  0
  8  9  1  0
  9 10  1  0
 10 11  1  0
 11 12  1  0
 11 13  2  0
 11 14  2  0
  9 15  2  0
 15 16  1  0
  3 17  2  0
 17 18  1  0
 18 19  2  0
 18 20  1  0
 20 21  1  0
 20 22  1  0
 22 23  2  0
 22  2  1  0
 15  5  1  0
  1 24  1  0
  1 25  1  0
  1 26  1  0
  4 27  1  0
  6 28  1  0
  7 29  1  0
  8 30  1  0
 12 31  1  0
 12 32  1  0
 12 33  1  0
 17 34  1  0
 21 35  1  0
 21 36  1  0
 21 37  1  0
M  CHG  2  10  -1  16  -1
M  END
>  <UniqueID>  (25) 
25

>  <SMILES>  (25) 
Cn1c(Nc2cccc([N-]S(C)(=O)=O)c2[O-])cc(=O)n(C)c1=O

>  <Energy>  (25) 
53.962848329584055

>  <Genealogy>  (25) 
Cn1c(Nc2cccc([N-]S(C)(=O)=O)c2[O-])cc(=O)n(C)c1=O (protonated)
Cn1c(Nc2cccc([N-]S(C)(=O)=O)c2[O-])cc(=O)n(C)c1=O (3D coordinates assigned)
Cn1c(Nc2cccc([N-]S(C)(=O)=O)c2[O-])cc(=O)n(C)c1=O (optimized conformer: 53.962848329584055 kcal/mol)

>  <smiles>  (25) 
Cn1c(Nc2cccc(NS(C)(=O)=O)c2O)cc(=O)n(C)c1=O

>  <score_type>  (25) 
oracle

>  <origin>  (25) 
adgpu

>  <m_score__min__energy>  (25) 
-12.699999999999999

>  <m_primary>  (25) 
energy

$$$$
25:0
     RDKit          3D

 32 34  0  0  0  0  0  0  0  0999 V2000
   -5.1390   20.3150  -33.1230 C   0  0  0  0  0  0  0  0  0  0  0  0
   -6.1450   21.1990  -32.4500 C   0  0  0  0  0  0  0  0  0  0  0  0
   -7.5020   20.8400  -32.4290 C   0  0  0  0  0  0  0  0  0  0  0  0
   -8.4410   21.6760  -31.8230 C   0  0  0  0  0  0  0  0  0  0  0  0
   -8.0390   22.8860  -31.2520 C   0  0  0  0  0  0  0  0  0  0  0  0
   -6.6910   23.2800  -31.3070 C   0  0  0  0  0  0  0  0  0  0  0  0
   -6.2420   24.5040  -30.7090 N   0  0  0  0  0  0  0  0  0  0  0  0
   -4.9470   24.7350  -30.1430 C   0  0  0  0  0  0  0  0  0  0  0  0
   -4.0720   25.3000  -30.8500 O   0  0  0  0  0  0  0  0  0  0  0  0
   -4.6590   24.3600  -28.7840 N   0  0  0  0  0  0  0  0  0  0  0  0
   -3.3770   24.5320  -28.1550 C   0  0  0  0  0  0  0  0  0  0  0  0
   -3.2680   24.8230  -26.7670 C   0  0  0  0  0  0  0  0  0  0  0  0
   -2.0060   24.9640  -26.1600 C   0  0  0  0  0  0  0  0  0  0  0  0
   -0.8840   24.7940  -26.9640 C   0  0  0  0  0  0  0  0  0  0  0  0
    0.4620   24.8520  -26.6970 C   0  0  0  0  0  0  0  0  0  0  0  0
    1.1270   24.5930  -27.8480 N   0  0  0  0  0  0  0  0  0  0  0  0
    0.2490   24.3740  -28.8240 N   0  0  0  0  0  0  0  0  0  0  0  0
   -0.9770   24.4950  -28.2890 C   0  0  0  0  0  0  0  0  0  0  0  0
   -2.2060   24.3480  -28.9230 C   0  0  0  0  0  0  0  0  0  0  0  0
   -5.7480   22.4260  -31.8920 C   0  0  0  0  0  0  0  0  0  0  0  0
   -4.5431   19.7914  -32.3610 H   0  0  0  0  0  0  0  0  0  0  0  0
   -5.6607   19.5778  -33.7510 H   0  0  0  0  0  0  0  0  0  0  0  0
   -4.4749   20.9271  -33.7510 H   0  0  0  0  0  0  0  0  0  0  0  0
   -7.8264   19.8963  -32.8919 H   0  0  0  0  0  0  0  0  0  0  0  0
   -9.5004   21.3814  -31.7949 H   0  0  0  0  0  0  0  0  0  0  0  0
   -8.7796   23.5322  -30.7580 H   0  0  0  0  0  0  0  0  0  0  0  0
   -5.3970   23.8660  -28.2350 H   0  0  0  0  0  0  0  0  0  0  0  0
   -4.1792   24.9390  -26.1619 H   0  0  0  0  0  0  0  0  0  0  0  0
   -1.9107   25.1998  -25.0898 H   0  0  0  0  0  0  0  0  0  0  0  0
    0.9192   25.0703  -25.7206 H   0  0  0  0  0  0  0  0  0  0  0  0
   -2.2645   24.0956  -29.9921 H   0  0  0  0  0  0  0  0  0  0  0  0
   -4.6877   22.7181  -31.9149 H   0  0  0  0  0  0  0  0  0  0  0  0
  1  2  1  0
  2  3  2  0
  3  4  1  0
  4  5  2  0
  5  6  1  0
  6  7  1  0
  7  8  1  0
  8  9  2  0
  8 10  1  0
 10 11  1  0
 11 12  1  0
 12 13  2  0
 13 14  1  0
 14 15  2  0
 15 16  1  0
 16 17  1  0
 17 18  2  0
 18 19  1  0
  6 20  2  0
 20  2  1  0
 19 11  2  0
 18 14  1  0
  1 21  1  0
  1 22  1  0
  1 23  1  0
  3 24  1  0
  4 25  1  0
  5 26  1  0
 10 27  1  0
 12 28  1  0
 13 29  1  0
 15 30  1  0
 19 31  1  0
 20 32  1  0
M  CHG  2   7  -1  16  -1
M  END
>  <UniqueID>  (26) 
26

>  <SMILES>  (26) 
Cc1cccc([N-]C(=O)Nc2ccc3c[n-]nc3c2)c1

>  <Energy>  (26) 
79.91157718203884

>  <Genealogy>  (26) 
Cc1cccc([N-]C(=O)Nc2ccc3c[n-]nc3c2)c1 (protonated)
Cc1cccc([N-]C(=O)Nc2ccc3c[n-]nc3c2)c1 (3D coordinates assigned)
Cc1cccc([N-]C(=O)Nc2ccc3c[n-]nc3c2)c1 (optimized conformer: 79.91157718203884 kcal/mol)

>  <smiles>  (26) 
Cc1cccc(NC(=O)Nc2ccc3c[nH]nc3c2)c1

>  <score_type>  (26) 
oracle

>  <origin>  (26) 
adgpu

>  <m_score__min__energy>  (26) 
-9.6699999999999999

>  <m_primary>  (26) 
energy

$$$$
26:0
     RDKit          3D

 61 64  0  0  0  0  0  0  0  0999 V2000
    0.2440   16.9810  -29.6000 C   0  0  0  0  0  0  0  0  0  0  0  0
   -0.0840   18.4060  -29.6290 N   0  0  0  0  0  0  0  0  0  0  0  0
   -0.0410   19.1310  -30.8690 C   0  0  0  0  0  0  0  0  0  0  0  0
    1.1830   19.3600  -31.5150 C   0  0  0  0  0  0  0  0  0  0  0  0
    1.2250   20.0590  -32.7240 C   0  0  0  0  0  0  0  0  0  0  0  0
    0.0430   20.5430  -33.2980 C   0  0  0  0  0  0  0  0  0  0  0  0
    0.0840   21.2610  -34.5450 C   0  0  0  0  0  0  0  0  0  0  0  0
    0.1180   21.8390  -35.5480 N   0  0  0  0  0  0  0  0  0  0  0  0
   -1.1800   20.3290  -32.6540 C   0  0  0  0  0  0  0  0  0  0  0  0
   -1.2230   19.6290  -31.4450 C   0  0  0  0  0  0  0  0  0  0  0  0
   -0.5970   19.1910  -28.1650 S   0  0  0  0  0  0  0  0  0  0  0  0
   -1.7960   18.4900  -27.5860 O   0  0  0  0  0  0  0  0  0  0  0  0
    0.5200   19.1420  -27.1580 O   0  0  0  0  0  0  0  0  0  0  0  0
   -1.0480   20.8570  -28.5170 C   0  0  0  0  0  0  0  0  0  0  0  0
   -2.3380   21.3070  -28.2020 C   0  0  0  0  0  0  0  0  0  0  0  0
   -2.7010   22.6320  -28.4550 C   0  0  0  0  0  0  0  0  0  0  0  0
   -1.7830   23.5240  -29.0360 C   0  0  0  0  0  0  0  0  0  0  0  0
   -2.1600   24.9290  -29.3210 C   0  0  0  0  0  0  0  0  0  0  0  0
   -1.3040   25.8400  -29.1660 O   0  0  0  0  0  0  0  0  0  0  0  0
   -3.4880   25.2970  -29.7280 N   0  0  0  0  0  0  0  0  0  0  0  0
   -4.5070   24.4160  -30.2260 C   0  0  0  0  0  0  0  0  0  0  0  0
   -5.8460   24.6890  -29.9190 C   0  0  0  0  0  0  0  0  0  0  0  0
   -6.8650   23.8690  -30.4130 C   0  0  0  0  0  0  0  0  0  0  0  0
   -6.5540   22.7680  -31.2140 C   0  0  0  0  0  0  0  0  0  0  0  0
   -5.2190   22.4880  -31.5350 C   0  0  0  0  0  0  0  0  0  0  0  0
   -4.8080   21.0680  -32.4970 S   0  0  0  0  0  0  0  0  0  0  0  0
   -4.2040   20.0350  -31.5860 O   0  0  0  0  0  0  0  0  0  0  0  0
   -3.7700   21.4570  -33.5120 O   0  0  0  0  0  0  0  0  0  0  0  0
   -6.2240   20.3870  -33.2800 N   0  0  0  0  0  0  0  0  0  0  0  0
   -7.2380   19.9520  -32.2860 C   0  0  0  0  0  0  0  0  0  0  0  0
   -7.1650   18.4420  -31.9800 C   0  0  0  0  0  0  0  0  0  0  0  0
   -5.8430   17.9740  -32.1190 O   0  0  0  0  0  0  0  0  0  0  0  0
   -5.4580   18.0000  -33.4820 C   0  0  0  0  0  0  0  0  0  0  0  0
   -5.8740   19.2990  -34.2170 C   0  0  0  0  0  0  0  0  0  0  0  0
   -4.2020   23.3230  -31.0560 C   0  0  0  0  0  0  0  0  0  0  0  0
   -0.4890   23.0680  -29.3470 C   0  0  0  0  0  0  0  0  0  0  0  0
   -0.1270   21.7420  -29.0940 C   0  0  0  0  0  0  0  0  0  0  0  0
    0.3216   16.6438  -28.5558 H   0  0  0  0  0  0  0  0  0  0  0  0
   -0.5467   16.4123  -30.1112 H   0  0  0  0  0  0  0  0  0  0  0  0
    1.2038   16.8152  -30.1112 H   0  0  0  0  0  0  0  0  0  0  0  0
    2.1157   18.9868  -31.0668 H   0  0  0  0  0  0  0  0  0  0  0  0
    2.1888   20.2295  -33.2261 H   0  0  0  0  0  0  0  0  0  0  0  0
   -2.1097   20.7123  -33.0998 H   0  0  0  0  0  0  0  0  0  0  0  0
   -2.1873   19.4667  -30.9412 H   0  0  0  0  0  0  0  0  0  0  0  0
   -3.0663   20.6147  -27.7544 H   0  0  0  0  0  0  0  0  0  0  0  0
   -3.7124   22.9798  -28.1977 H   0  0  0  0  0  0  0  0  0  0  0  0
   -6.0972   25.5529  -29.2861 H   0  0  0  0  0  0  0  0  0  0  0  0
   -7.9145   24.0916  -30.1701 H   0  0  0  0  0  0  0  0  0  0  0  0
   -7.3578   22.1199  -31.5933 H   0  0  0  0  0  0  0  0  0  0  0  0
   -6.6400   21.1660  -33.8460 H   0  0  0  0  0  0  0  0  0  0  0  0
   -7.0751   20.5084  -31.3512 H   0  0  0  0  0  0  0  0  0  0  0  0
   -8.2305   20.1557  -32.7142 H   0  0  0  0  0  0  0  0  0  0  0  0
   -7.5054   18.2646  -30.9491 H   0  0  0  0  0  0  0  0  0  0  0  0
   -7.8098   17.9034  -32.6900 H   0  0  0  0  0  0  0  0  0  0  0  0
   -4.3635   17.9043  -33.5365 H   0  0  0  0  0  0  0  0  0  0  0  0
   -5.9749   17.1666  -33.9802 H   0  0  0  0  0  0  0  0  0  0  0  0
   -5.0369   19.6317  -34.8483 H   0  0  0  0  0  0  0  0  0  0  0  0
   -6.7667   19.0735  -34.8189 H   0  0  0  0  0  0  0  0  0  0  0  0
   -3.1561   23.1221  -31.3313 H   0  0  0  0  0  0  0  0  0  0  0  0
    0.2421   23.7591  -29.7919 H   0  0  0  0  0  0  0  0  0  0  0  0
    0.8842   21.3918  -29.3486 H   0  0  0  0  0  0  0  0  0  0  0  0
  1  2  1  0
  2  3  1  0
  3  4  2  0
  4  5  1  0
  5  6  2  0
  6  7  1  0
  7  8  3  0
  6  9  1  0
  9 10  2  0
  2 11  1  0
 11 12  2  0
 11 13  2  0
 11 14  1  0
 14 15  2  0
 15 16  1  0
 16 17  2  0
 17 18  1  0
 18 19  2  0
 18 20  1  0
 20 21  1  0
 21 22  2  0
 22 23  1  0
 23 24  2  0
 24 25  1  0
 25 26  1  0
 26 27  2  0
 26 28  2  0
 26 29  1  0
 29 30  1  0
 30 31  1  0
 31 32  1  0
 32 33  1  0
 33 34  1  0
 25 35  2  0
 17 36  1  0
 36 37  2  0
 10  3  1  0
 37 14  1  0
 35 21  1  0
 34 29  1  0
  1 38  1  0
  1 39  1  0
  1 40  1  0
  4 41  1  0
  5 42  1  0
  9 43  1  0
 10 44  1  0
 15 45  1  0
 16 46  1  0
 22 47  1  0
 23 48  1  0
 24 49  1  0
 29 50  1  0
 30 51  1  0
 30 52  1  0
 31 53  1  0
 31 54  1  0
 33 55  1  0
 33 56  1  0
 34 57  1  0
 34 58  1  0
 35 59  1  0
 36 60  1  0
 37 61  1  0
M  CHG  2  20  -1  29   1
M  END
>  <UniqueID>  (27) 
27

>  <SMILES>  (27) 
CN(c1ccc(C#N)cc1)S(=O)(=O)c1ccc(C(=O)[N-]c2cccc(S(=O)(=O)[NH+]3CCOCC3)c2)cc1

>  <Energy>  (27) 
84.12904822856049

>  <Genealogy>  (27) 
CN(c1ccc(C#N)cc1)S(=O)(=O)c1ccc(C(=O)[N-]c2cccc(S(=O)(=O)[NH+]3CCOCC3)c2)cc1 (protonated)
CN(c1ccc(C#N)cc1)S(=O)(=O)c1ccc(C(=O)[N-]c2cccc(S(=O)(=O)[NH+]3CCOCC3)c2)cc1 (3D coordinates assigned)
CN(c1ccc(C#N)cc1)S(=O)(=O)c1ccc(C(=O)[N-]c2cccc(S(=O)(=O)[NH+]3CCOCC3)c2)cc1 (nonaromatic ring conformer: 84.12904822856049 kcal/mol)

>  <smiles>  (27) 
CN(c1ccc(C#N)cc1)S(=O)(=O)c1ccc(C(=O)Nc2cccc(S(=O)(=O)N3CCOCC3)c2)cc1

>  <score_type>  (27) 
oracle

>  <origin>  (27) 
adgpu

>  <m_score__min__energy>  (27) 
-12.35

>  <m_primary>  (27) 
energy

$$$$
27:0
     RDKit          3D

 38 41  0  0  0  0  0  0  0  0999 V2000
   -4.7114   21.3887  -30.2284 H   0  0  0  0  0  0  0  0  0  0  0  0
   -4.6430   22.4540  -30.4940 C   0  0  0  0  0  0  0  0  0  0  0  0
   -5.6250   23.2640  -31.0390 C   0  0  0  0  0  0  0  0  0  0  0  0
   -7.0120   22.8750  -31.3930 C   0  0  0  0  0  0  0  0  0  0  0  0
   -7.4520   21.5570  -31.1630 C   0  0  0  0  0  0  0  0  0  0  0  0
   -6.7640   20.8210  -30.7213 H   0  0  0  0  0  0  0  0  0  0  0  0
   -8.7570   21.1770  -31.4920 C   0  0  0  0  0  0  0  0  0  0  0  0
   -9.0916   20.1456  -31.3068 H   0  0  0  0  0  0  0  0  0  0  0  0
   -9.6360   22.1040  -32.0550 C   0  0  0  0  0  0  0  0  0  0  0  0
  -10.6617   21.8026  -32.3141 H   0  0  0  0  0  0  0  0  0  0  0  0
   -9.2130   23.4130  -32.2890 C   0  0  0  0  0  0  0  0  0  0  0  0
   -9.9068   24.1426  -32.7321 H   0  0  0  0  0  0  0  0  0  0  0  0
   -7.9100   23.8000  -31.9620 C   0  0  0  0  0  0  0  0  0  0  0  0
   -7.5836   24.8335  -32.1501 H   0  0  0  0  0  0  0  0  0  0  0  0
   -5.1290   24.5070  -31.2110 N   0  0  0  0  0  0  0  0  0  0  0  0
   -3.8960   24.4890  -30.7970 O   0  0  0  0  0  0  0  0  0  0  0  0
   -3.5560   23.2990  -30.3620 C   0  0  0  0  0  0  0  0  0  0  0  0
   -2.2200   22.9740  -29.8300 C   0  0  0  0  0  0  0  0  0  0  0  0
   -1.5690   23.9020  -29.0800 N   0  0  0  0  0  0  0  0  0  0  0  0
   -0.3380   23.6660  -28.5540 C   0  0  0  0  0  0  0  0  0  0  0  0
    0.2290   24.6070  -27.8520 N   0  0  0  0  0  0  0  0  0  0  0  0
    1.4680   24.5250  -27.1300 C   0  0  0  0  0  0  0  0  0  0  0  0
    2.6730   24.4940  -27.8440 C   0  0  0  0  0  0  0  0  0  0  0  0
    2.6582   24.4869  -28.9439 H   0  0  0  0  0  0  0  0  0  0  0  0
    3.8940   24.4720  -27.1640 C   0  0  0  0  0  0  0  0  0  0  0  0
    4.8364   24.4263  -27.7295 H   0  0  0  0  0  0  0  0  0  0  0  0
    3.9200   24.5080  -25.7670 C   0  0  0  0  0  0  0  0  0  0  0  0
    5.1340   24.4850  -25.0920 O   0  0  0  0  0  0  0  0  0  0  0  0
    2.7220   24.5740  -25.0480 C   0  0  0  0  0  0  0  0  0  0  0  0
    2.7415   24.6086  -23.9487 H   0  0  0  0  0  0  0  0  0  0  0  0
    1.4990   24.5960  -25.7270 C   0  0  0  0  0  0  0  0  0  0  0  0
    0.5588   24.6691  -25.1608 H   0  0  0  0  0  0  0  0  0  0  0  0
    0.2830   22.4720  -28.8090 N   0  0  0  0  0  0  0  0  0  0  0  0
    1.2520   22.2770  -28.4760 H   0  0  0  0  0  0  0  0  0  0  0  0
   -0.3330   21.5150  -29.5510 C   0  0  0  0  0  0  0  0  0  0  0  0
    0.1739   20.5568  -29.7380 H   0  0  0  0  0  0  0  0  0  0  0  0
   -1.6030   21.7410  -30.0760 C   0  0  0  0  0  0  0  0  0  0  0  0
   -2.1106   20.9676  -30.6711 H   0  0  0  0  0  0  0  0  0  0  0  0
  1  2  1  0
  2  3  1  0
  3  4  1  0
  4  5  2  0
  5  6  1  0
  5  7  1  0
  7  8  1  0
  7  9  2  0
  9 10  1  0
  9 11  1  0
 11 12  1  0
 11 13  2  0
 13 14  1  0
  3 15  2  0
 15 16  1  0
 16 17  1  0
 17 18  1  0
 18 19  2  0
 19 20  1  0
 20 21  2  0
 21 22  1  0
 22 23  2  0
 23 24  1  0
 23 25  1  0
 25 26  1  0
 25 27  2  0
 27 28  1  0
 27 29  1  0
 29 30  1  0
 29 31  2  0
 31 32  1  0
 20 33  1  0
 33 34  1  0
 33 35  1  0
 35 36  1  0
 35 37  2  0
 37 38  1  0
 17  2  2  0
 37 18  1  0
 13  4  1  0
 31 22  1  0
M  CHG  1  28  -1
M  END
>  <UniqueID>  (28) 
28

>  <SMILES>  (28) 
[O-]c1ccc(/N=c2/nc(-c3cc(-c4ccccc4)no3)cc[nH]2)cc1

>  <Energy>  (28) 
84.54478256365836

>  <Genealogy>  (28) 
[O-]c1ccc(N=c2nc(-c3cc(-c4ccccc4)no3)cc[nH]2)cc1 (protonated)
[O-]c1ccc(/N=c2/nc(-c3cc(-c4ccccc4)no3)cc[nH]2)cc1 (cis-trans isomerization)
[O-]c1ccc(/N=c2/nc(-c3cc(-c4ccccc4)no3)cc[nH]2)cc1 (3D coordinates assigned)
[O-]c1ccc(/N=c2/nc(-c3cc(-c4ccccc4)no3)cc[nH]2)cc1 (optimized conformer: 84.54478256365836 kcal/mol)

>  <smiles>  (28) 
Oc1ccc(N=c2nc(-c3cc(-c4ccccc4)no3)cc[nH]2)cc1

>  <score_type>  (28) 
oracle

>  <origin>  (28) 
adgpu

>  <m_score__min__energy>  (28) 
-9.1300000000000008

>  <m_primary>  (28) 
energy

$$$$
28:0
     RDKit          3D

 53 56  0  0  0  0  0  0  0  0999 V2000
   -4.5800   24.8720  -30.9560 O   0  0  0  0  0  0  0  0  0  0  0  0
   -4.9810   23.7740  -30.4820 C   0  0  0  0  0  0  0  0  0  0  0  0
   -4.3190   23.2000  -29.3380 N   0  0  0  0  0  0  0  0  0  0  0  0
   -3.2590   23.8510  -28.6170 C   0  0  0  0  0  0  0  0  0  0  0  0
   -3.4420   24.3110  -27.3010 C   0  0  0  0  0  0  0  0  0  0  0  0
   -2.3890   24.9210  -26.6140 C   0  0  0  0  0  0  0  0  0  0  0  0
   -1.1380   25.0720  -27.2280 C   0  0  0  0  0  0  0  0  0  0  0  0
    0.1840   25.8640  -26.3680 S   0  0  0  0  0  0  0  0  0  0  0  0
    1.2120   26.3300  -27.3630 O   0  0  0  0  0  0  0  0  0  0  0  0
    0.8450   24.8690  -25.4540 O   0  0  0  0  0  0  0  0  0  0  0  0
   -0.3710   27.2330  -25.4270 N   0  0  0  0  0  0  0  0  0  0  0  0
    0.7510   27.9270  -24.7870 C   0  0  0  0  0  0  0  0  0  0  0  0
    0.8530   27.4500  -23.3450 C   0  0  0  0  0  0  0  0  0  0  0  0
   -0.4450   26.7190  -23.0590 C   0  0  0  0  0  0  0  0  0  0  0  0
   -1.2590   26.8030  -24.3410 C   0  0  0  0  0  0  0  0  0  0  0  0
   -0.9440   24.5850  -28.5270 C   0  0  0  0  0  0  0  0  0  0  0  0
   -1.9960   23.9740  -29.2140 C   0  0  0  0  0  0  0  0  0  0  0  0
   -6.1280   23.0920  -31.1270 C   0  0  0  0  0  0  0  0  0  0  0  0
   -7.3600   23.7550  -31.2340 C   0  0  0  0  0  0  0  0  0  0  0  0
   -8.4370   23.1170  -31.8480 C   0  0  0  0  0  0  0  0  0  0  0  0
   -8.2940   21.8620  -32.3450 N   0  0  0  0  0  0  0  0  0  0  0  0
   -7.1170   21.1800  -32.2710 C   0  0  0  0  0  0  0  0  0  0  0  0
   -7.0280   19.8510  -32.8270 N   0  0  0  0  0  0  0  0  0  0  0  0
   -7.9000   18.7910  -32.3050 C   0  0  0  0  0  0  0  0  0  0  0  0
   -7.2460   17.4200  -32.5010 C   0  0  0  0  0  0  0  0  0  0  0  0
   -6.8410   17.2460  -33.8450 O   0  0  0  0  0  0  0  0  0  0  0  0
   -5.8120   18.1660  -34.1500 C   0  0  0  0  0  0  0  0  0  0  0  0
   -6.3330   19.6060  -34.0980 C   0  0  0  0  0  0  0  0  0  0  0  0
   -6.0070   21.7980  -31.6640 C   0  0  0  0  0  0  0  0  0  0  0  0
   -4.5750   22.2370  -29.0310 H   0  0  0  0  0  0  0  0  0  0  0  0
   -4.4188   24.1901  -26.8098 H   0  0  0  0  0  0  0  0  0  0  0  0
   -2.5425   25.2842  -25.5871 H   0  0  0  0  0  0  0  0  0  0  0  0
    1.6842   27.6957  -25.3215 H   0  0  0  0  0  0  0  0  0  0  0  0
    0.5872   29.0144  -24.8142 H   0  0  0  0  0  0  0  0  0  0  0  0
    1.7097   26.7703  -23.2260 H   0  0  0  0  0  0  0  0  0  0  0  0
    1.0066   28.2893  -22.6507 H   0  0  0  0  0  0  0  0  0  0  0  0
   -0.2443   25.6687  -22.8008 H   0  0  0  0  0  0  0  0  0  0  0  0
   -0.9818   27.1648  -22.2086 H   0  0  0  0  0  0  0  0  0  0  0  0
   -1.6831   25.8159  -24.5769 H   0  0  0  0  0  0  0  0  0  0  0  0
   -2.0822   27.5223  -24.2191 H   0  0  0  0  0  0  0  0  0  0  0  0
    0.0403   24.6840  -29.0080 H   0  0  0  0  0  0  0  0  0  0  0  0
   -1.8324   23.5866  -30.2305 H   0  0  0  0  0  0  0  0  0  0  0  0
   -7.4756   24.7736  -30.8352 H   0  0  0  0  0  0  0  0  0  0  0  0
   -9.4054   23.6322  -31.9299 H   0  0  0  0  0  0  0  0  0  0  0  0
   -8.0741   18.9599  -31.2321 H   0  0  0  0  0  0  0  0  0  0  0  0
   -8.8553   18.8129  -32.8499 H   0  0  0  0  0  0  0  0  0  0  0  0
   -6.3657   17.3430  -31.8459 H   0  0  0  0  0  0  0  0  0  0  0  0
   -7.9791   16.6396  -32.2490 H   0  0  0  0  0  0  0  0  0  0  0  0
   -4.9978   18.0510  -33.4193 H   0  0  0  0  0  0  0  0  0  0  0  0
   -5.4472   17.9607  -35.1672 H   0  0  0  0  0  0  0  0  0  0  0  0
   -5.4859   20.3019  -34.1884 H   0  0  0  0  0  0  0  0  0  0  0  0
   -7.0385   19.7615  -34.9275 H   0  0  0  0  0  0  0  0  0  0  0  0
   -5.0445   21.2682  -31.6098 H   0  0  0  0  0  0  0  0  0  0  0  0
  1  2  2  0
  2  3  1  0
  3  4  1  0
  4  5  2  0
  5  6  1  0
  6  7  2  0
  7  8  1  0
  8  9  2  0
  8 10  2  0
  8 11  1  0
 11 12  1  0
 12 13  1  0
 13 14  1  0
 14 15  1  0
  7 16  1  0
 16 17  2  0
  2 18  1  0
 18 19  2  0
 19 20  1  0
 20 21  2  0
 21 22  1  0
 22 23  1  0
 23 24  1  0
 24 25  1  0
 25 26  1  0
 26 27  1  0
 27 28  1  0
 22 29  2  0
 17  4  1  0
 29 18  1  0
 15 11  1  0
 28 23  1  0
  3 30  1  0
  5 31  1  0
  6 32  1  0
 12 33  1  0
 12 34  1  0
 13 35  1  0
 13 36  1  0
 14 37  1  0
 14 38  1  0
 15 39  1  0
 15 40  1  0
 16 41  1  0
 17 42  1  0
 19 43  1  0
 20 44  1  0
 24 45  1  0
 24 46  1  0
 25 47  1  0
 25 48  1  0
 27 49  1  0
 27 50  1  0
 28 51  1  0
 28 52  1  0
 29 53  1  0
M  END
>  <UniqueID>  (29) 
29

>  <SMILES>  (29) 
O=C(Nc1ccc(S(=O)(=O)N2CCCC2)cc1)c1ccnc(N2CCOCC2)c1

>  <Energy>  (29) 
66.79795985422025

>  <Genealogy>  (29) 
O=C(Nc1ccc(S(=O)(=O)N2CCCC2)cc1)c1ccnc(N2CCOCC2)c1 (3D coordinates assigned)
O=C(Nc1ccc(S(=O)(=O)N2CCCC2)cc1)c1ccnc(N2CCOCC2)c1 (nonaromatic ring conformer: 66.79795985422025 kcal/mol)

>  <smiles>  (29) 
O=C(Nc1ccc(S(=O)(=O)N2CCCC2)cc1)c1ccnc(N2CCOCC2)c1

>  <score_type>  (29) 
oracle

>  <origin>  (29) 
adgpu

>  <m_score__min__energy>  (29) 
-9.5199999999999996

>  <m_primary>  (29) 
energy

$$$$
29:0
     RDKit          3D

 41 43  0  0  0  0  0  0  0  0999 V2000
   -2.7090   19.7270  -26.7350 C   0  0  0  0  0  0  0  0  0  0  0  0
   -2.6120   20.0800  -28.2210 C   0  0  0  0  0  0  0  0  0  0  0  0
   -2.4700   21.5600  -28.5450 C   0  0  0  0  0  0  0  0  0  0  0  0
   -3.5260   22.3090  -29.1090 C   0  0  0  0  0  0  0  0  0  0  0  0
   -3.3840   23.6750  -29.3850 C   0  0  0  0  0  0  0  0  0  0  0  0
   -4.7750   24.5470  -30.0430 S   0  0  0  0  0  0  0  0  0  0  0  0
   -4.2360   25.6700  -30.8850 O   0  0  0  0  0  0  0  0  0  0  0  0
   -5.6290   25.1280  -28.9520 O   0  0  0  0  0  0  0  0  0  0  0  0
   -5.7490   23.4780  -31.0200 N   0  0  0  0  0  0  0  0  0  0  0  0
   -7.2090   23.5720  -30.9680 C   0  0  0  0  0  0  0  0  0  0  0  0
   -7.7810   22.2210  -30.5440 C   0  0  0  0  0  0  0  0  0  0  0  0
   -7.3860   21.1330  -31.5510 C   0  0  0  0  0  0  0  0  0  0  0  0
   -5.9320   21.2030  -31.9610 C   0  0  0  0  0  0  0  0  0  0  0  0
   -5.3650   20.1230  -32.6550 C   0  0  0  0  0  0  0  0  0  0  0  0
   -4.0530   20.1950  -33.1260 C   0  0  0  0  0  0  0  0  0  0  0  0
   -3.3020   21.3540  -32.9290 C   0  0  0  0  0  0  0  0  0  0  0  0
   -3.8550   22.4420  -32.2480 C   0  0  0  0  0  0  0  0  0  0  0  0
   -5.1670   22.3730  -31.7420 C   0  0  0  0  0  0  0  0  0  0  0  0
   -2.1660   24.3130  -29.1010 C   0  0  0  0  0  0  0  0  0  0  0  0
   -1.9920   25.6700  -29.3430 O   0  0  0  0  0  0  0  0  0  0  0  0
   -1.1060   23.5810  -28.5640 C   0  0  0  0  0  0  0  0  0  0  0  0
   -1.2410   22.2170  -28.2900 C   0  0  0  0  0  0  0  0  0  0  0  0
   -0.1340   21.5460  -27.7660 O   0  0  0  0  0  0  0  0  0  0  0  0
   -2.4654   20.6134  -26.1309 H   0  0  0  0  0  0  0  0  0  0  0  0
   -3.7317   19.3949  -26.5030 H   0  0  0  0  0  0  0  0  0  0  0  0
   -1.9996   18.9190  -26.5030 H   0  0  0  0  0  0  0  0  0  0  0  0
   -1.7360   19.5589  -28.6346 H   0  0  0  0  0  0  0  0  0  0  0  0
   -3.5697   19.7691  -28.6638 H   0  0  0  0  0  0  0  0  0  0  0  0
   -4.4794   21.8096  -29.3362 H   0  0  0  0  0  0  0  0  0  0  0  0
   -7.5030   24.3417  -30.2393 H   0  0  0  0  0  0  0  0  0  0  0  0
   -7.5987   23.8451  -31.9597 H   0  0  0  0  0  0  0  0  0  0  0  0
   -7.3876   21.9563  -29.5515 H   0  0  0  0  0  0  0  0  0  0  0  0
   -8.8781   22.2933  -30.5089 H   0  0  0  0  0  0  0  0  0  0  0  0
   -7.5742   20.1496  -31.0955 H   0  0  0  0  0  0  0  0  0  0  0  0
   -7.9899   21.2900  -32.4569 H   0  0  0  0  0  0  0  0  0  0  0  0
   -5.9586   19.2134  -32.8290 H   0  0  0  0  0  0  0  0  0  0  0  0
   -3.6107   19.3368  -33.6532 H   0  0  0  0  0  0  0  0  0  0  0  0
   -2.2719   21.4117  -33.3106 H   0  0  0  0  0  0  0  0  0  0  0  0
   -3.2618   23.3575  -32.1066 H   0  0  0  0  0  0  0  0  0  0  0  0
   -0.1509   24.0845  -28.3534 H   0  0  0  0  0  0  0  0  0  0  0  0
    0.6930   21.3270  -28.3060 H   0  0  0  0  0  0  0  0  0  0  0  0
  1  2  1  0
  2  3  1  0
  3  4  2  0
  4  5  1  0
  5  6  1  0
  6  7  2  0
  6  8  2  0
  6  9  1  0
  9 10  1  0
 10 11  1  0
 11 12  1  0
 12 13  1  0
 13 14  2  0
 14 15  1  0
 15 16  2  0
 16 17  1  0
 17 18  2  0
  5 19  2  0
 19 20  1  0
 19 21  1  0
 21 22  2  0
 22 23  1  0
 22  3  1  0
 18  9  1  0
 18 13  1  0
  1 24  1  0
  1 25  1  0
  1 26  1  0
  2 27  1  0
  2 28  1  0
  4 29  1  0
 10 30  1  0
 10 31  1  0
 11 32  1  0
 11 33  1  0
 12 34  1  0
 12 35  1  0
 14 36  1  0
 15 37  1  0
 16 38  1  0
 17 39  1  0
 21 40  1  0
 23 41  1  0
M  CHG  1  20  -1
M  END
>  <UniqueID>  (30) 
30

>  <SMILES>  (30) 
CCc1cc(S(=O)(=O)N2CCCc3ccccc32)c([O-])cc1O

>  <Energy>  (30) 
49.80249222801325

>  <Genealogy>  (30) 
CCc1cc(S(=O)(=O)N2CCCc3ccccc32)c([O-])cc1O (protonated)
CCc1cc(S(=O)(=O)N2CCCc3ccccc32)c([O-])cc1O (3D coordinates assigned)
CCc1cc(S(=O)(=O)N2CCCc3ccccc32)c([O-])cc1O (nonaromatic ring conformer: 49.80249222801325 kcal/mol)

>  <smiles>  (30) 
CCc1cc(S(=O)(=O)N2CCCc3ccccc32)c(O)cc1O

>  <score_type>  (30) 
oracle

>  <origin>  (30) 
adgpu

>  <m_score__min__energy>  (30) 
-11.43

>  <m_primary>  (30) 
energy

$$$$
30:0
     RDKit          3D

 54 57  0  0  0  0  0  0  0  0999 V2000
   -3.3330   13.6820  -32.7520 C   0  0  0  0  0  0  0  0  0  0  0  0
   -3.0780   13.6730  -34.2550 C   0  0  0  0  0  0  0  0  0  0  0  0
   -3.6470   14.8270  -34.8730 O   0  0  0  0  0  0  0  0  0  0  0  0
   -4.5890   15.6930  -34.2860 C   0  0  0  0  0  0  0  0  0  0  0  0
   -5.9580   15.3720  -34.2140 C   0  0  0  0  0  0  0  0  0  0  0  0
   -6.8680   16.2630  -33.6410 C   0  0  0  0  0  0  0  0  0  0  0  0
   -6.4350   17.4960  -33.1350 C   0  0  0  0  0  0  0  0  0  0  0  0
   -7.4220   18.4360  -32.5560 C   0  0  0  0  0  0  0  0  0  0  0  0
   -7.5460   19.7900  -32.8110 C   0  0  0  0  0  0  0  0  0  0  0  0
   -8.6110   20.1710  -32.0230 C   0  0  0  0  0  0  0  0  0  0  0  0
   -9.2270   21.5290  -31.9790 C   0  0  0  0  0  0  0  0  0  0  0  0
   -9.0940   19.1040  -31.3590 N   0  0  0  0  0  0  0  0  0  0  0  0
   -8.3540   18.0880  -31.6960 O   0  0  0  0  0  0  0  0  0  0  0  0
   -5.0680   17.8150  -33.1950 C   0  0  0  0  0  0  0  0  0  0  0  0
   -4.1440   16.9190  -33.7560 C   0  0  0  0  0  0  0  0  0  0  0  0
   -2.4310   17.3520  -33.8330 S   0  0  0  0  0  0  0  0  0  0  0  0
   -1.6100   16.2990  -33.1410 O   0  0  0  0  0  0  0  0  0  0  0  0
   -2.0030   17.4310  -35.2710 O   0  0  0  0  0  0  0  0  0  0  0  0
   -2.1290   18.8990  -33.0410 C   0  0  0  0  0  0  0  0  0  0  0  0
   -2.8860   20.0280  -33.3810 C   0  0  0  0  0  0  0  0  0  0  0  0
   -2.6810   21.2390  -32.7130 C   0  0  0  0  0  0  0  0  0  0  0  0
   -1.7090   21.3400  -31.7110 C   0  0  0  0  0  0  0  0  0  0  0  0
   -1.5550   22.5910  -31.0250 N   0  0  0  0  0  0  0  0  0  0  0  0
   -2.4720   23.1590  -30.0780 C   0  0  0  0  0  0  0  0  0  0  0  0
   -2.0370   23.6210  -28.9890 O   0  0  0  0  0  0  0  0  0  0  0  0
   -3.9200   23.2390  -30.4060 C   0  0  0  0  0  0  0  0  0  0  0  0
   -4.6810   22.0570  -30.4940 C   0  0  0  0  0  0  0  0  0  0  0  0
   -6.0480   22.1070  -30.7870 C   0  0  0  0  0  0  0  0  0  0  0  0
   -6.6740   23.3350  -30.9960 C   0  0  0  0  0  0  0  0  0  0  0  0
   -5.9370   24.5160  -30.9160 C   0  0  0  0  0  0  0  0  0  0  0  0
   -4.5680   24.4790  -30.6260 C   0  0  0  0  0  0  0  0  0  0  0  0
   -3.8670   25.6790  -30.5620 O   0  0  0  0  0  0  0  0  0  0  0  0
   -0.9640   20.2020  -31.3570 C   0  0  0  0  0  0  0  0  0  0  0  0
   -1.1730   18.9900  -32.0210 C   0  0  0  0  0  0  0  0  0  0  0  0
   -2.3725   13.6481  -32.2169 H   0  0  0  0  0  0  0  0  0  0  0  0
   -3.8736   14.5998  -32.4773 H   0  0  0  0  0  0  0  0  0  0  0  0
   -3.9369   12.8046  -32.4773 H   0  0  0  0  0  0  0  0  0  0  0  0
   -1.9931   13.6647  -34.4366 H   0  0  0  0  0  0  0  0  0  0  0  0
   -3.5455   12.7756  -34.6864 H   0  0  0  0  0  0  0  0  0  0  0  0
   -6.3140   14.4106  -34.6127 H   0  0  0  0  0  0  0  0  0  0  0  0
   -7.9334   15.9948  -33.5864 H   0  0  0  0  0  0  0  0  0  0  0  0
   -6.9389   20.4144  -33.4830 H   0  0  0  0  0  0  0  0  0  0  0  0
   -9.3658   21.8349  -30.9315 H   0  0  0  0  0  0  0  0  0  0  0  0
   -8.5668   22.2477  -32.4865 H   0  0  0  0  0  0  0  0  0  0  0  0
  -10.2027   21.5057  -32.4865 H   0  0  0  0  0  0  0  0  0  0  0  0
   -4.7173   18.7788  -32.7975 H   0  0  0  0  0  0  0  0  0  0  0  0
   -3.6437   19.9614  -34.1757 H   0  0  0  0  0  0  0  0  0  0  0  0
   -3.2875   22.1180  -32.9766 H   0  0  0  0  0  0  0  0  0  0  0  0
   -4.1950   21.0838  -30.3305 H   0  0  0  0  0  0  0  0  0  0  0  0
   -6.6299   21.1758  -30.8526 H   0  0  0  0  0  0  0  0  0  0  0  0
   -7.7495   23.3723  -31.2240 H   0  0  0  0  0  0  0  0  0  0  0  0
   -6.4345   25.4829  -31.0818 H   0  0  0  0  0  0  0  0  0  0  0  0
   -0.2140   20.2654  -30.5548 H   0  0  0  0  0  0  0  0  0  0  0  0
   -0.5843   18.1038  -31.7415 H   0  0  0  0  0  0  0  0  0  0  0  0
  1  2  1  0
  2  3  1  0
  3  4  1  0
  4  5  2  0
  5  6  1  0
  6  7  2  0
  7  8  1  0
  8  9  2  0
  9 10  1  0
 10 11  1  0
 10 12  2  0
 12 13  1  0
  7 14  1  0
 14 15  2  0
 15 16  1  0
 16 17  2  0
 16 18  2  0
 16 19  1  0
 19 20  2  0
 20 21  1  0
 21 22  2  0
 22 23  1  0
 23 24  1  0
 24 25  2  0
 24 26  1  0
 26 27  2  0
 27 28  1  0
 28 29  2  0
 29 30  1  0
 30 31  2  0
 31 32  1  0
 22 33  1  0
 33 34  2  0
 15  4  1  0
 34 19  1  0
 13  8  1  0
 31 26  1  0
  1 35  1  0
  1 36  1  0
  1 37  1  0
  2 38  1  0
  2 39  1  0
  5 40  1  0
  6 41  1  0
  9 42  1  0
 11 43  1  0
 11 44  1  0
 11 45  1  0
 14 46  1  0
 20 47  1  0
 21 48  1  0
 27 49  1  0
 28 50  1  0
 29 51  1  0
 30 52  1  0
 33 53  1  0
 34 54  1  0
M  CHG  2  23  -1  32  -1
M  END
>  <UniqueID>  (31) 
31

>  <SMILES>  (31) 
CCOc1ccc(-c2cc(C)no2)cc1S(=O)(=O)c1ccc([N-]C(=O)c2ccccc2[O-])cc1

>  <Energy>  (31) 
95.20781998984366

>  <Genealogy>  (31) 
CCOc1ccc(-c2cc(C)no2)cc1S(=O)(=O)c1ccc([N-]C(=O)c2ccccc2[O-])cc1 (protonated)
CCOc1ccc(-c2cc(C)no2)cc1S(=O)(=O)c1ccc([N-]C(=O)c2ccccc2[O-])cc1 (3D coordinates assigned)
CCOc1ccc(-c2cc(C)no2)cc1S(=O)(=O)c1ccc([N-]C(=O)c2ccccc2[O-])cc1 (optimized conformer: 95.20781998984366 kcal/mol)

>  <smiles>  (31) 
CCOc1ccc(-c2cc(C)no2)cc1S(=O)(=O)c1ccc(NC(=O)c2ccccc2O)cc1

>  <score_type>  (31) 
oracle

>  <origin>  (31) 
adgpu

>  <m_score__min__energy>  (31) 
-13.119999999999999

>  <m_primary>  (31) 
energy

$$$$
31:0
     RDKit          3D

 61 64  0  0  0  0  0  0  0  0999 V2000
   -0.2730   18.9150  -29.2940 C   0  0  0  0  0  0  0  0  0  0  0  0
   -1.0110   20.2260  -29.3350 C   0  0  0  0  0  0  0  0  0  0  0  0
   -1.9580   20.4990  -28.3350 C   0  0  0  0  0  0  0  0  0  0  0  0
   -2.6990   21.6820  -28.3610 C   0  0  0  0  0  0  0  0  0  0  0  0
   -2.4850   22.6270  -29.3710 C   0  0  0  0  0  0  0  0  0  0  0  0
   -3.4350   24.1160  -29.4070 S   0  0  0  0  0  0  0  0  0  0  0  0
   -4.3210   24.1500  -28.1930 O   0  0  0  0  0  0  0  0  0  0  0  0
   -2.5030   25.2930  -29.3260 O   0  0  0  0  0  0  0  0  0  0  0  0
   -4.4390   24.2490  -30.8350 N   0  0  0  0  0  0  0  0  0  0  0  0
   -5.7130   24.9680  -30.5890 C   0  0  0  0  0  0  0  0  0  0  0  0
   -6.9600   24.1750  -30.9980 C   0  0  0  0  0  0  0  0  0  0  0  0
   -6.8510   22.7360  -30.5070 C   0  0  0  0  0  0  0  0  0  0  0  0
   -5.6260   22.0290  -31.1010 C   0  0  0  0  0  0  0  0  0  0  0  0
   -4.5380   22.9950  -31.6100 C   0  0  0  0  0  0  0  0  0  0  0  0
   -1.5440   22.3620  -30.3740 C   0  0  0  0  0  0  0  0  0  0  0  0
   -0.7830   21.1850  -30.3520 C   0  0  0  0  0  0  0  0  0  0  0  0
    0.1800   20.9730  -31.3940 N   0  0  0  0  0  0  0  0  0  0  0  0
   -0.0290   20.1180  -32.5250 C   0  0  0  0  0  0  0  0  0  0  0  0
    0.9710   19.6840  -33.1570 O   0  0  0  0  0  0  0  0  0  0  0  0
   -1.3880   19.7260  -32.9510 C   0  0  0  0  0  0  0  0  0  0  0  0
   -2.3790   20.7010  -33.1480 C   0  0  0  0  0  0  0  0  0  0  0  0
   -3.6880   20.3200  -33.4680 C   0  0  0  0  0  0  0  0  0  0  0  0
   -4.0080   18.9650  -33.6190 C   0  0  0  0  0  0  0  0  0  0  0  0
   -5.6640   18.4450  -33.8980 S   0  0  0  0  0  0  0  0  0  0  0  0
   -6.1460   18.9360  -35.2380 O   0  0  0  0  0  0  0  0  0  0  0  0
   -5.7190   16.9430  -33.8740 O   0  0  0  0  0  0  0  0  0  0  0  0
   -6.6650   19.0940  -32.6220 N   0  0  0  0  0  0  0  0  0  0  0  0
   -7.4790   20.2130  -33.0970 C   0  0  0  0  0  0  0  0  0  0  0  0
   -8.7200   20.2500  -32.2180 C   0  0  0  0  0  0  0  0  0  0  0  0
   -8.7720   18.8920  -31.5360 C   0  0  0  0  0  0  0  0  0  0  0  0
   -7.6180   18.1030  -32.1300 C   0  0  0  0  0  0  0  0  0  0  0  0
   -3.0040   17.9990  -33.4920 C   0  0  0  0  0  0  0  0  0  0  0  0
   -1.7050   18.3730  -33.1500 C   0  0  0  0  0  0  0  0  0  0  0  0
   -0.1071   18.6202  -28.2473 H   0  0  0  0  0  0  0  0  0  0  0  0
   -0.8689   18.1427  -29.8024 H   0  0  0  0  0  0  0  0  0  0  0  0
    0.6964   19.0239  -29.8024 H   0  0  0  0  0  0  0  0  0  0  0  0
   -2.1176   19.7739  -27.5233 H   0  0  0  0  0  0  0  0  0  0  0  0
   -3.4543   21.8722  -27.5843 H   0  0  0  0  0  0  0  0  0  0  0  0
   -5.7822   25.1933  -29.5145 H   0  0  0  0  0  0  0  0  0  0  0  0
   -5.6932   25.8763  -31.2092 H   0  0  0  0  0  0  0  0  0  0  0  0
   -7.8508   24.6440  -30.5548 H   0  0  0  0  0  0  0  0  0  0  0  0
   -7.0429   24.1755  -32.0949 H   0  0  0  0  0  0  0  0  0  0  0  0
   -6.7652   22.7383  -29.4104 H   0  0  0  0  0  0  0  0  0  0  0  0
   -7.7519   22.1930  -30.8289 H   0  0  0  0  0  0  0  0  0  0  0  0
   -5.1847   21.3876  -30.3239 H   0  0  0  0  0  0  0  0  0  0  0  0
   -5.9774   21.4543  -31.9706 H   0  0  0  0  0  0  0  0  0  0  0  0
   -3.5673   22.4800  -31.5605 H   0  0  0  0  0  0  0  0  0  0  0  0
   -4.8160   23.2758  -32.6366 H   0  0  0  0  0  0  0  0  0  0  0  0
   -1.4004   23.0865  -31.1891 H   0  0  0  0  0  0  0  0  0  0  0  0
   -2.1264   21.7672  -33.0507 H   0  0  0  0  0  0  0  0  0  0  0  0
   -4.4660   21.0862  -33.6009 H   0  0  0  0  0  0  0  0  0  0  0  0
   -6.9197   21.1557  -33.0043 H   0  0  0  0  0  0  0  0  0  0  0  0
   -7.7464   20.0880  -34.1567 H   0  0  0  0  0  0  0  0  0  0  0  0
   -8.6386   21.0531  -31.4708 H   0  0  0  0  0  0  0  0  0  0  0  0
   -9.6300   20.4492  -32.8030 H   0  0  0  0  0  0  0  0  0  0  0  0
   -8.6452   19.0013  -30.4488 H   0  0  0  0  0  0  0  0  0  0  0  0
   -9.7377   18.3895  -31.6940 H   0  0  0  0  0  0  0  0  0  0  0  0
   -7.1501   17.4718  -31.3602 H   0  0  0  0  0  0  0  0  0  0  0  0
   -7.9581   17.4359  -32.9358 H   0  0  0  0  0  0  0  0  0  0  0  0
   -3.2407   16.9385  -33.6629 H   0  0  0  0  0  0  0  0  0  0  0  0
   -0.9258   17.6051  -33.0357 H   0  0  0  0  0  0  0  0  0  0  0  0
  1  2  1  0
  2  3  2  0
  3  4  1  0
  4  5  2  0
  5  6  1  0
  6  7  2  0
  6  8  2  0
  6  9  1  0
  9 10  1  0
 10 11  1  0
 11 12  1  0
 12 13  1  0
 13 14  1  0
  5 15  1  0
 15 16  2  0
 16 17  1  0
 17 18  1  0
 18 19  2  0
 18 20  1  0
 20 21  2  0
 21 22  1  0
 22 23  2  0
 23 24  1  0
 24 25  2  0
 24 26  2  0
 24 27  1  0
 27 28  1  0
 28 29  1  0
 29 30  1  0
 30 31  1  0
 23 32  1  0
 32 33  2  0
 16  2  1  0
 33 20  1  0
 14  9  1  0
 31 27  1  0
  1 34  1  0
  1 35  1  0
  1 36  1  0
  3 37  1  0
  4 38  1  0
 10 39  1  0
 10 40  1  0
 11 41  1  0
 11 42  1  0
 12 43  1  0
 12 44  1  0
 13 45  1  0
 13 46  1  0
 14 47  1  0
 14 48  1  0
 15 49  1  0
 21 50  1  0
 22 51  1  0
 28 52  1  0
 28 53  1  0
 29 54  1  0
 29 55  1  0
 30 56  1  0
 30 57  1  0
 31 58  1  0
 31 59  1  0
 32 60  1  0
 33 61  1  0
M  CHG  1  17  -1
M  END
>  <UniqueID>  (32) 
32

>  <SMILES>  (32) 
Cc1ccc(S(=O)(=O)N2CCCCC2)cc1[N-]C(=O)c1ccc(S(=O)(=O)N2CCCC2)cc1

>  <Energy>  (32) 
76.4039298661737

>  <Genealogy>  (32) 
Cc1ccc(S(=O)(=O)N2CCCCC2)cc1[N-]C(=O)c1ccc(S(=O)(=O)N2CCCC2)cc1 (protonated)
Cc1ccc(S(=O)(=O)N2CCCCC2)cc1[N-]C(=O)c1ccc(S(=O)(=O)N2CCCC2)cc1 (3D coordinates assigned)
Cc1ccc(S(=O)(=O)N2CCCCC2)cc1[N-]C(=O)c1ccc(S(=O)(=O)N2CCCC2)cc1 (nonaromatic ring conformer: 76.4039298661737 kcal/mol)

>  <smiles>  (32) 
Cc1ccc(S(=O)(=O)N2CCCCC2)cc1NC(=O)c1ccc(S(=O)(=O)N2CCCC2)cc1

>  <score_type>  (32) 
oracle

>  <origin>  (32) 
adgpu

>  <m_score__min__energy>  (32) 
-13.369999999999999

>  <m_primary>  (32) 
energy

$$$$
32:0
     RDKit          3D

 34 36  0  0  0  0  0  0  0  0999 V2000
   -2.6412   21.5713  -29.8656 H   0  0  0  0  0  0  0  0  0  0  0  0
   -2.6190   21.5440  -30.9650 C   0  0  0  0  0  0  0  0  0  0  0  0
   -1.4510   21.1600  -31.6280 C   0  0  0  0  0  0  0  0  0  0  0  0
   -0.5612   20.8723  -31.0488 H   0  0  0  0  0  0  0  0  0  0  0  0
   -1.4090   21.1400  -33.0290 C   0  0  0  0  0  0  0  0  0  0  0  0
    0.0680   20.6710  -33.8650 S   0  0  0  0  0  0  0  0  0  0  0  0
   -0.1650   19.4040  -34.6380 O   0  0  0  0  0  0  0  0  0  0  0  0
    1.1630   20.4290  -32.8640 O   0  0  0  0  0  0  0  0  0  0  0  0
    0.5460   21.9300  -34.9490 N   0  0  0  0  0  0  0  0  0  0  0  0
    0.9660   22.6890  -34.3690 H   0  0  0  0  0  0  0  0  0  0  0  0
   -0.3280   22.3190  -35.3690 H   0  0  0  0  0  0  0  0  0  0  0  0
   -2.5370   21.5350  -33.7600 C   0  0  0  0  0  0  0  0  0  0  0  0
   -2.5026   21.5432  -34.8594 H   0  0  0  0  0  0  0  0  0  0  0  0
   -3.7070   21.9190  -33.0960 C   0  0  0  0  0  0  0  0  0  0  0  0
   -4.5846   22.2408  -33.6759 H   0  0  0  0  0  0  0  0  0  0  0  0
   -3.7670   21.8960  -31.6980 C   0  0  0  0  0  0  0  0  0  0  0  0
   -4.9740   22.3230  -31.0450 N   0  0  0  0  0  0  0  0  0  0  0  0
   -5.0410   23.1220  -30.0470 N   0  0  0  0  0  0  0  0  0  0  0  0
   -3.9160   23.6220  -29.3050 C   0  0  0  0  0  0  0  0  0  0  0  0
   -3.3530   24.8760  -29.5940 C   0  0  0  0  0  0  0  0  0  0  0  0
   -3.8630   25.6630  -30.6200 O   0  0  0  0  0  0  0  0  0  0  0  0
   -2.2850   25.3240  -28.8840 N   0  0  0  0  0  0  0  0  0  0  0  0
   -1.7120   24.5870  -27.8960 C   0  0  0  0  0  0  0  0  0  0  0  0
   -0.6120   25.0940  -27.1840 C   0  0  0  0  0  0  0  0  0  0  0  0
    0.0380   26.6880  -27.5390 Cl  0  0  0  0  0  0  0  0  0  0  0  0
   -0.0200   24.3250  -26.1760 C   0  0  0  0  0  0  0  0  0  0  0  0
    0.8404   24.7229  -25.6180 H   0  0  0  0  0  0  0  0  0  0  0  0
   -0.5160   23.0550  -25.8750 C   0  0  0  0  0  0  0  0  0  0  0  0
   -0.0444   22.4568  -25.0814 H   0  0  0  0  0  0  0  0  0  0  0  0
   -1.6080   22.5410  -26.5770 C   0  0  0  0  0  0  0  0  0  0  0  0
   -1.9924   21.5391  -26.3352 H   0  0  0  0  0  0  0  0  0  0  0  0
   -2.2190   23.3000  -27.5930 C   0  0  0  0  0  0  0  0  0  0  0  0
   -3.3250   22.8190  -28.3180 C   0  0  0  0  0  0  0  0  0  0  0  0
   -3.8000   21.6750  -28.0790 O   0  0  0  0  0  0  0  0  0  0  0  0
  1  2  1  0
  2  3  2  0
  3  4  1  0
  3  5  1  0
  5  6  1  0
  6  7  2  0
  6  8  2  0
  6  9  1  0
  9 10  1  0
  9 11  1  0
  5 12  2  0
 12 13  1  0
 12 14  1  0
 14 15  1  0
 14 16  2  0
 16 17  1  0
 17 18  2  0
 18 19  1  0
 19 20  2  0
 20 21  1  0
 20 22  1  0
 22 23  1  0
 23 24  2  0
 24 25  1  0
 24 26  1  0
 26 27  1  0
 26 28  2  0
 28 29  1  0
 28 30  1  0
 30 31  1  0
 30 32  2  0
 32 33  1  0
 33 34  2  0
 16  2  1  0
 33 19  1  0
 32 23  1  0
M  CHG  2  21  -1  22  -1
M  END
>  <UniqueID>  (33) 
33

>  <SMILES>  (33) 
NS(=O)(=O)c1ccc(/N=N\c2c([O-])[n-]c3c(Cl)cccc3c2=O)cc1

>  <Energy>  (33) 
55.315079747882095

>  <Genealogy>  (33) 
NS(=O)(=O)c1ccc(N=Nc2c([O-])[n-]c3c(Cl)cccc3c2=O)cc1 (protonated)
NS(=O)(=O)c1ccc(/N=N\c2c([O-])[n-]c3c(Cl)cccc3c2=O)cc1 (cis-trans isomerization)
NS(=O)(=O)c1ccc(/N=N\c2c([O-])[n-]c3c(Cl)cccc3c2=O)cc1 (3D coordinates assigned)
NS(=O)(=O)c1ccc(/N=N\c2c([O-])[n-]c3c(Cl)cccc3c2=O)cc1 (optimized conformer: 55.315079747882095 kcal/mol)

>  <smiles>  (33) 
NS(=O)(=O)c1ccc(N=Nc2c(O)[nH]c3c(Cl)cccc3c2=O)cc1

>  <score_type>  (33) 
oracle

>  <origin>  (33) 
adgpu

>  <m_score__min__energy>  (33) 
-11.83

>  <m_primary>  (33) 
energy

$$$$
33:0
     RDKit          3D

 22 23  0  0  0  0  0  0  0  0999 V2000
   -3.5410   23.9350  -28.7200 O   0  0  0  0  0  0  0  0  0  0  0  0
   -4.5720   23.8230  -29.4330 C   0  0  0  0  0  0  0  0  0  0  0  0
   -5.4910   22.8630  -29.1450 N   0  0  0  0  0  0  0  0  0  0  0  0
   -6.6180   22.7040  -29.8870 C   0  0  0  0  0  0  0  0  0  0  0  0
   -6.8580   23.5390  -30.9840 C   0  0  0  0  0  0  0  0  0  0  0  0
   -8.3400   23.3360  -31.9710 S   0  0  0  0  0  0  0  0  0  0  0  0
   -8.1100   21.5650  -32.1210 C   0  0  0  0  0  0  0  0  0  0  0  0
   -9.0930   20.6850  -31.6480 C   0  0  0  0  0  0  0  0  0  0  0  0
   -8.9130   19.3030  -31.7690 C   0  0  0  0  0  0  0  0  0  0  0  0
   -7.7500   18.7970  -32.3610 C   0  0  0  0  0  0  0  0  0  0  0  0
   -7.5740   17.4240  -32.4820 O   0  0  0  0  0  0  0  0  0  0  0  0
   -6.7670   19.6740  -32.8310 C   0  0  0  0  0  0  0  0  0  0  0  0
   -6.9440   21.0560  -32.7100 C   0  0  0  0  0  0  0  0  0  0  0  0
   -5.9310   24.5360  -31.2970 C   0  0  0  0  0  0  0  0  0  0  0  0
   -4.7780   24.6830  -30.5210 C   0  0  0  0  0  0  0  0  0  0  0  0
   -3.8500   25.6700  -30.8300 O   0  0  0  0  0  0  0  0  0  0  0  0
   -7.3422   21.9185  -29.6253 H   0  0  0  0  0  0  0  0  0  0  0  0
  -10.0068   21.0814  -31.1812 H   0  0  0  0  0  0  0  0  0  0  0  0
   -9.6860   18.6135  -31.3987 H   0  0  0  0  0  0  0  0  0  0  0  0
   -5.8533   19.2761  -33.2965 H   0  0  0  0  0  0  0  0  0  0  0  0
   -6.1681   21.7439  -33.0771 H   0  0  0  0  0  0  0  0  0  0  0  0
   -6.1082   25.2042  -32.1527 H   0  0  0  0  0  0  0  0  0  0  0  0
  1  2  2  0
  2  3  1  0
  3  4  1  0
  4  5  2  0
  5  6  1  0
  6  7  1  0
  7  8  2  0
  8  9  1  0
  9 10  2  0
 10 11  1  0
 10 12  1  0
 12 13  2  0
  5 14  1  0
 14 15  2  0
 15 16  1  0
 15  2  1  0
 13  7  1  0
  4 17  1  0
  8 18  1  0
  9 19  1  0
 12 20  1  0
 13 21  1  0
 14 22  1  0
M  CHG  3   3  -1  11  -1  16  -1
M  END
>  <UniqueID>  (34) 
34

>  <SMILES>  (34) 
O=c1[n-]cc(Sc2ccc([O-])cc2)cc1[O-]

>  <Energy>  (34) 
19.78192127283257

>  <Genealogy>  (34) 
O=c1[n-]cc(Sc2ccc([O-])cc2)cc1[O-] (protonated)
O=c1[n-]cc(Sc2ccc([O-])cc2)cc1[O-] (3D coordinates assigned)
O=c1[n-]cc(Sc2ccc([O-])cc2)cc1[O-] (optimized conformer: 19.78192127283257 kcal/mol)

>  <smiles>  (34) 
O=c1[nH]cc(Sc2ccc(O)cc2)cc1O

>  <score_type>  (34) 
oracle

>  <origin>  (34) 
adgpu

>  <m_score__min__energy>  (34) 
-9.5600000000000005

>  <m_primary>  (34) 
energy

$$$$
34:0
     RDKit          3D

 50 53  0  0  0  0  0  0  0  0999 V2000
   -0.1464   23.4826  -27.3643 H   0  0  0  0  0  0  0  0  0  0  0  0
   -1.0190   23.7240  -27.9890 C   0  0  0  0  0  0  0  0  0  0  0  0
   -1.1790   25.0050  -28.5190 C   0  0  0  0  0  0  0  0  0  0  0  0
   -0.2290   25.9910  -28.2250 O   0  0  0  0  0  0  0  0  0  0  0  0
   -0.2630   26.8390  -27.1080 C   0  0  0  0  0  0  0  0  0  0  0  0
   -0.1160   28.2160  -27.3090 C   0  0  0  0  0  0  0  0  0  0  0  0
    0.0226   28.6075  -28.3276 H   0  0  0  0  0  0  0  0  0  0  0  0
   -0.1440   29.0970  -26.2250 C   0  0  0  0  0  0  0  0  0  0  0  0
   -0.0139   30.1765  -26.3913 H   0  0  0  0  0  0  0  0  0  0  0  0
   -0.3370   28.6090  -24.9300 C   0  0  0  0  0  0  0  0  0  0  0  0
   -0.3423   29.3039  -24.0773 H   0  0  0  0  0  0  0  0  0  0  0  0
   -0.5240   27.2360  -24.7140 C   0  0  0  0  0  0  0  0  0  0  0  0
   -0.7120   26.7060  -23.3240 C   0  0  0  0  0  0  0  0  0  0  0  0
   -0.4366   27.4825  -22.5951 H   0  0  0  0  0  0  0  0  0  0  0  0
   -1.7651   26.4236  -23.1786 H   0  0  0  0  0  0  0  0  0  0  0  0
   -0.0722   25.8231  -23.1786 H   0  0  0  0  0  0  0  0  0  0  0  0
   -0.4790   26.3520  -25.8040 C   0  0  0  0  0  0  0  0  0  0  0  0
   -0.6132   25.2728  -25.6386 H   0  0  0  0  0  0  0  0  0  0  0  0
   -2.2720   25.2850  -29.2800 N   0  0  0  0  0  0  0  0  0  0  0  0
   -3.1990   24.3350  -29.5620 C   0  0  0  0  0  0  0  0  0  0  0  0
   -4.2340   24.6520  -30.2840 N   0  0  0  0  0  0  0  0  0  0  0  0
   -5.2810   23.7690  -30.7180 C   0  0  0  0  0  0  0  0  0  0  0  0
   -6.6260   23.9730  -30.3560 C   0  0  0  0  0  0  0  0  0  0  0  0
   -6.9019   24.8437  -29.7430 H   0  0  0  0  0  0  0  0  0  0  0  0
   -7.6130   23.0740  -30.7720 C   0  0  0  0  0  0  0  0  0  0  0  0
   -8.6635   23.2460  -30.4946 H   0  0  0  0  0  0  0  0  0  0  0  0
   -7.2680   21.9550  -31.5410 C   0  0  0  0  0  0  0  0  0  0  0  0
   -8.5070   20.8130  -32.0490 S   0  0  0  0  0  0  0  0  0  0  0  0
   -9.7830   21.5480  -32.3550 O   0  0  0  0  0  0  0  0  0  0  0  0
   -8.7720   19.8270  -30.9460 O   0  0  0  0  0  0  0  0  0  0  0  0
   -7.9680   19.9710  -33.4590 N   0  0  0  0  0  0  0  0  0  0  0  0
   -8.4600   20.3980  -34.2760 H   0  0  0  0  0  0  0  0  0  0  0  0
   -8.3150   18.9880  -33.3800 H   0  0  0  0  0  0  0  0  0  0  0  0
   -5.9250   21.7280  -31.8690 C   0  0  0  0  0  0  0  0  0  0  0  0
   -5.6462   20.8401  -32.4554 H   0  0  0  0  0  0  0  0  0  0  0  0
   -4.9380   22.6270  -31.4530 C   0  0  0  0  0  0  0  0  0  0  0  0
   -3.8844   22.4359  -31.7048 H   0  0  0  0  0  0  0  0  0  0  0  0
   -3.0510   23.0830  -29.0490 N   0  0  0  0  0  0  0  0  0  0  0  0
   -1.9900   22.7480  -28.2660 C   0  0  0  0  0  0  0  0  0  0  0  0
   -1.8830   21.3620  -27.7410 C   0  0  0  0  0  0  0  0  0  0  0  0
   -3.0260   20.6230  -27.3760 C   0  0  0  0  0  0  0  0  0  0  0  0
   -4.0235   21.0763  -27.4734 H   0  0  0  0  0  0  0  0  0  0  0  0
   -2.9010   19.3180  -26.8910 C   0  0  0  0  0  0  0  0  0  0  0  0
   -3.7987   18.7516  -26.6024 H   0  0  0  0  0  0  0  0  0  0  0  0
   -1.6400   18.7320  -26.7720 C   0  0  0  0  0  0  0  0  0  0  0  0
   -1.5446   17.7062  -26.3864 H   0  0  0  0  0  0  0  0  0  0  0  0
   -0.5000   19.4470  -27.1420 C   0  0  0  0  0  0  0  0  0  0  0  0
    0.4929   18.9820  -27.0529 H   0  0  0  0  0  0  0  0  0  0  0  0
   -0.6180   20.7540  -27.6260 C   0  0  0  0  0  0  0  0  0  0  0  0
    0.2841   21.3111  -27.9190 H   0  0  0  0  0  0  0  0  0  0  0  0
  1  2  1  0
  2  3  1  0
  3  4  1  0
  4  5  1  0
  5  6  2  0
  6  7  1  0
  6  8  1  0
  8  9  1  0
  8 10  2  0
 10 11  1  0
 10 12  1  0
 12 13  1  0
 13 14  1  0
 13 15  1  0
 13 16  1  0
 12 17  2  0
 17 18  1  0
  3 19  2  0
 19 20  1  0
 20 21  2  0
 21 22  1  0
 22 23  2  0
 23 24  1  0
 23 25  1  0
 25 26  1  0
 25 27  2  0
 27 28  1  0
 28 29  2  0
 28 30  2  0
 28 31  1  0
 31 32  1  0
 31 33  1  0
 27 34  1  0
 34 35  1  0
 34 36  2  0
 36 37  1  0
 20 38  1  0
 38 39  1  0
 39 40  1  0
 40 41  2  0
 41 42  1  0
 41 43  1  0
 43 44  1  0
 43 45  2  0
 45 46  1  0
 45 47  1  0
 47 48  1  0
 47 49  2  0
 49 50  1  0
 39  2  2  0
 49 40  1  0
 17  5  1  0
 36 22  1  0
M  CHG  1  38  -1
M  END
>  <UniqueID>  (35) 
35

>  <SMILES>  (35) 
Cc1cccc(Oc2cc(-c3ccccc3)[n-]/c(=N\c3ccc(S(N)(=O)=O)cc3)n2)c1

>  <Energy>  (35) 
67.69811231587674

>  <Genealogy>  (35) 
Cc1cccc(Oc2cc(-c3ccccc3)[n-]c(=Nc3ccc(S(N)(=O)=O)cc3)n2)c1 (protonated)
Cc1cccc(Oc2cc(-c3ccccc3)[n-]/c(=N\c3ccc(S(N)(=O)=O)cc3)n2)c1 (cis-trans isomerization)
Cc1cccc(Oc2cc(-c3ccccc3)[n-]/c(=N\c3ccc(S(N)(=O)=O)cc3)n2)c1 (3D coordinates assigned)
Cc1cccc(Oc2cc(-c3ccccc3)[n-]/c(=N\c3ccc(S(N)(=O)=O)cc3)n2)c1 (optimized conformer: 67.69811231587674 kcal/mol)

>  <smiles>  (35) 
Cc1cccc(Oc2cc(-c3ccccc3)[nH]c(=Nc3ccc(S(N)(=O)=O)cc3)n2)c1

>  <score_type>  (35) 
oracle

>  <origin>  (35) 
adgpu

>  <m_score__min__energy>  (35) 
-11.99

>  <m_primary>  (35) 
energy

$$$$
35:0
     RDKit          3D

 52 55  0  0  0  0  0  0  0  0999 V2000
   -4.2310   25.5440  -30.8310 O   0  0  0  0  0  0  0  0  0  0  0  0
   -5.3340   24.9260  -30.0200 S   0  0  0  0  0  0  0  0  0  0  0  0
   -6.3860   25.9680  -29.7610 O   0  0  0  0  0  0  0  0  0  0  0  0
   -4.6930   24.3750  -28.5040 N   0  0  0  0  0  0  0  0  0  0  0  0
   -3.3170   24.5290  -28.1110 C   0  0  0  0  0  0  0  0  0  0  0  0
   -2.9450   24.8650  -26.7970 C   0  0  0  0  0  0  0  0  0  0  0  0
   -1.5960   25.0050  -26.4660 C   0  0  0  0  0  0  0  0  0  0  0  0
   -0.6260   24.8150  -27.4500 C   0  0  0  0  0  0  0  0  0  0  0  0
   -0.9960   24.4960  -28.7180 N   0  0  0  0  0  0  0  0  0  0  0  0
   -2.3040   24.3520  -29.0660 C   0  0  0  0  0  0  0  0  0  0  0  0
   -6.0010   23.5640  -30.9140 C   0  0  0  0  0  0  0  0  0  0  0  0
   -7.3840   23.3480  -30.9160 C   0  0  0  0  0  0  0  0  0  0  0  0
   -7.9270   22.2750  -31.6290 C   0  0  0  0  0  0  0  0  0  0  0  0
   -7.0880   21.3990  -32.3400 C   0  0  0  0  0  0  0  0  0  0  0  0
   -7.5970   20.3230  -33.0800 O   0  0  0  0  0  0  0  0  0  0  0  0
   -6.9110   19.1320  -33.3560 C   0  0  0  0  0  0  0  0  0  0  0  0
   -6.0320   19.0160  -34.4500 C   0  0  0  0  0  0  0  0  0  0  0  0
   -5.3760   17.8080  -34.7000 C   0  0  0  0  0  0  0  0  0  0  0  0
   -5.5900   16.7000  -33.8690 C   0  0  0  0  0  0  0  0  0  0  0  0
   -4.7620   15.1720  -34.1900 S   0  0  0  0  0  0  0  0  0  0  0  0
   -5.7830   14.1240  -34.5360 O   0  0  0  0  0  0  0  0  0  0  0  0
   -3.8570   15.3480  -35.3770 O   0  0  0  0  0  0  0  0  0  0  0  0
   -3.8130   14.6160  -32.8310 N   0  0  0  0  0  0  0  0  0  0  0  0
   -4.6540   14.2030  -31.7100 C   0  0  0  0  0  0  0  0  0  0  0  0
   -3.8280   13.2170  -30.8990 C   0  0  0  0  0  0  0  0  0  0  0  0
   -2.7690   12.6960  -31.8600 C   0  0  0  0  0  0  0  0  0  0  0  0
   -3.0020   13.4470  -33.1640 C   0  0  0  0  0  0  0  0  0  0  0  0
   -6.4880   16.8080  -32.7970 C   0  0  0  0  0  0  0  0  0  0  0  0
   -7.1460   18.0150  -32.5460 C   0  0  0  0  0  0  0  0  0  0  0  0
   -5.7070   21.6310  -32.3500 C   0  0  0  0  0  0  0  0  0  0  0  0
   -5.1640   22.7020  -31.6340 C   0  0  0  0  0  0  0  0  0  0  0  0
   -5.3730   23.9760  -27.8200 H   0  0  0  0  0  0  0  0  0  0  0  0
   -3.7178   25.0177  -26.0292 H   0  0  0  0  0  0  0  0  0  0  0  0
   -1.3007   25.2629  -25.4382 H   0  0  0  0  0  0  0  0  0  0  0  0
    0.4396   24.9235  -27.1994 H   0  0  0  0  0  0  0  0  0  0  0  0
   -2.5687   24.0953  -30.1023 H   0  0  0  0  0  0  0  0  0  0  0  0
   -8.0455   24.0245  -30.3549 H   0  0  0  0  0  0  0  0  0  0  0  0
   -9.0154   22.1154  -31.6338 H   0  0  0  0  0  0  0  0  0  0  0  0
   -5.8613   19.8793  -35.1100 H   0  0  0  0  0  0  0  0  0  0  0  0
   -4.6876   17.7261  -35.5540 H   0  0  0  0  0  0  0  0  0  0  0  0
   -4.9217   15.0737  -31.0933 H   0  0  0  0  0  0  0  0  0  0  0  0
   -5.5918   13.7469  -32.0599 H   0  0  0  0  0  0  0  0  0  0  0  0
   -3.3567   13.7216  -30.0427 H   0  0  0  0  0  0  0  0  0  0  0  0
   -4.4453   12.4043  -30.4885 H   0  0  0  0  0  0  0  0  0  0  0  0
   -1.7611   12.9033  -31.4713 H   0  0  0  0  0  0  0  0  0  0  0  0
   -2.8408   11.6069  -31.9966 H   0  0  0  0  0  0  0  0  0  0  0  0
   -2.0415   13.7621  -33.5978 H   0  0  0  0  0  0  0  0  0  0  0  0
   -3.5078   12.8101  -33.9046 H   0  0  0  0  0  0  0  0  0  0  0  0
   -6.6753   15.9380  -32.1504 H   0  0  0  0  0  0  0  0  0  0  0  0
   -7.8531   18.0877  -31.7065 H   0  0  0  0  0  0  0  0  0  0  0  0
   -5.0453   20.9664  -32.9248 H   0  0  0  0  0  0  0  0  0  0  0  0
   -4.0766   22.8682  -31.6361 H   0  0  0  0  0  0  0  0  0  0  0  0
  1  2  2  0
  2  3  2  0
  2  4  1  0
  4  5  1  0
  5  6  2  0
  6  7  1  0
  7  8  2  0
  8  9  1  0
  9 10  2  0
  2 11  1  0
 11 12  2  0
 12 13  1  0
 13 14  2  0
 14 15  1  0
 15 16  1  0
 16 17  2  0
 17 18  1  0
 18 19  2  0
 19 20  1  0
 20 21  2  0
 20 22  2  0
 20 23  1  0
 23 24  1  0
 24 25  1  0
 25 26  1  0
 26 27  1  0
 19 28  1  0
 28 29  2  0
 14 30  1  0
 30 31  2  0
 10  5  1  0
 31 11  1  0
 29 16  1  0
 27 23  1  0
  4 32  1  0
  6 33  1  0
  7 34  1  0
  8 35  1  0
 10 36  1  0
 12 37  1  0
 13 38  1  0
 17 39  1  0
 18 40  1  0
 24 41  1  0
 24 42  1  0
 25 43  1  0
 25 44  1  0
 26 45  1  0
 26 46  1  0
 27 47  1  0
 27 48  1  0
 28 49  1  0
 29 50  1  0
 30 51  1  0
 31 52  1  0
M  END
>  <UniqueID>  (36) 
36

>  <SMILES>  (36) 
O=S(=O)(Nc1cccnc1)c1ccc(Oc2ccc(S(=O)(=O)N3CCCC3)cc2)cc1

>  <Energy>  (36) 
66.37579438871275

>  <Genealogy>  (36) 
O=S(=O)(Nc1cccnc1)c1ccc(Oc2ccc(S(=O)(=O)N3CCCC3)cc2)cc1 (3D coordinates assigned)
O=S(=O)(Nc1cccnc1)c1ccc(Oc2ccc(S(=O)(=O)N3CCCC3)cc2)cc1 (nonaromatic ring conformer: 66.37579438871275 kcal/mol)

>  <smiles>  (36) 
O=S(=O)(Nc1cccnc1)c1ccc(Oc2ccc(S(=O)(=O)N3CCCC3)cc2)cc1

>  <score_type>  (36) 
oracle

>  <origin>  (36) 
adgpu

>  <m_score__min__energy>  (36) 
-10.58

>  <m_primary>  (36) 
energy

$$$$
36:0
     RDKit          3D

 46 48  0  0  0  0  0  0  0  0999 V2000
   -6.0510   18.6370  -35.3680 O   0  0  0  0  0  0  0  0  0  0  0  0
   -6.0880   18.2050  -33.9290 S   0  0  0  0  0  0  0  0  0  0  0  0
   -6.8350   16.9020  -33.8380 O   0  0  0  0  0  0  0  0  0  0  0  0
   -6.9240   19.4400  -32.9890 C   0  0  0  0  0  0  0  0  0  0  0  0
   -8.0570   19.0990  -32.2420 C   0  0  0  0  0  0  0  0  0  0  0  0
   -8.7370   20.0760  -31.5140 C   0  0  0  0  0  0  0  0  0  0  0  0
   -8.2930   21.4010  -31.5290 C   0  0  0  0  0  0  0  0  0  0  0  0
   -7.1590   21.7620  -32.2800 C   0  0  0  0  0  0  0  0  0  0  0  0
   -6.6790   23.1200  -32.3250 N   0  0  0  0  0  0  0  0  0  0  0  0
   -6.3380   23.8910  -31.1280 C   0  0  0  0  0  0  0  0  0  0  0  0
   -4.9630   23.5270  -30.6360 C   0  0  0  0  0  0  0  0  0  0  0  0
   -4.5060   22.2030  -30.7250 C   0  0  0  0  0  0  0  0  0  0  0  0
   -3.2150   21.8720  -30.3040 C   0  0  0  0  0  0  0  0  0  0  0  0
   -2.3660   22.8630  -29.8030 C   0  0  0  0  0  0  0  0  0  0  0  0
   -2.8040   24.1900  -29.7250 C   0  0  0  0  0  0  0  0  0  0  0  0
   -1.9450   25.1680  -29.2310 O   0  0  0  0  0  0  0  0  0  0  0  0
   -4.0990   24.5220  -30.1470 C   0  0  0  0  0  0  0  0  0  0  0  0
   -6.4820   20.7700  -33.0090 C   0  0  0  0  0  0  0  0  0  0  0  0
   -4.4580   18.0020  -33.3330 N   0  0  0  0  0  0  0  0  0  0  0  0
   -3.5480   17.6780  -34.4540 C   0  0  0  0  0  0  0  0  0  0  0  0
   -2.0850   17.9370  -34.0850 C   0  0  0  0  0  0  0  0  0  0  0  0
   -1.8490   19.4250  -33.7710 C   0  0  0  0  0  0  0  0  0  0  0  0
   -3.1220   20.1380  -33.2830 C   0  0  0  0  0  0  0  0  0  0  0  0
   -4.0410   19.1720  -32.5190 C   0  0  0  0  0  0  0  0  0  0  0  0
   -8.4125   18.0581  -32.2287 H   0  0  0  0  0  0  0  0  0  0  0  0
   -9.6256   19.8023  -30.9262 H   0  0  0  0  0  0  0  0  0  0  0  0
   -8.8326   22.1656  -30.9509 H   0  0  0  0  0  0  0  0  0  0  0  0
   -6.5740   23.5740  -33.2620 H   0  0  0  0  0  0  0  0  0  0  0  0
   -6.3629   24.9638  -31.3700 H   0  0  0  0  0  0  0  0  0  0  0  0
   -7.0689   23.6613  -30.3387 H   0  0  0  0  0  0  0  0  0  0  0  0
   -5.1672   21.4218  -31.1281 H   0  0  0  0  0  0  0  0  0  0  0  0
   -2.8667   20.8305  -30.3670 H   0  0  0  0  0  0  0  0  0  0  0  0
   -1.3515   22.5994  -29.4693 H   0  0  0  0  0  0  0  0  0  0  0  0
   -1.8120   26.0490  -29.7140 H   0  0  0  0  0  0  0  0  0  0  0  0
   -4.4406   25.5663  -30.0952 H   0  0  0  0  0  0  0  0  0  0  0  0
   -5.5956   21.0400  -33.6018 H   0  0  0  0  0  0  0  0  0  0  0  0
   -3.6676   16.6163  -34.7155 H   0  0  0  0  0  0  0  0  0  0  0  0
   -3.8076   18.3240  -35.3057 H   0  0  0  0  0  0  0  0  0  0  0  0
   -1.8259   17.3374  -33.1999 H   0  0  0  0  0  0  0  0  0  0  0  0
   -1.4533   17.6555  -34.9404 H   0  0  0  0  0  0  0  0  0  0  0  0
   -1.0804   19.5018  -32.9878 H   0  0  0  0  0  0  0  0  0  0  0  0
   -1.5304   19.9148  -34.7030 H   0  0  0  0  0  0  0  0  0  0  0  0
   -2.8369   20.9651  -32.6162 H   0  0  0  0  0  0  0  0  0  0  0  0
   -3.6670   20.5174  -34.1600 H   0  0  0  0  0  0  0  0  0  0  0  0
   -3.5051   18.8076  -31.6302 H   0  0  0  0  0  0  0  0  0  0  0  0
   -4.9517   19.7274  -32.2504 H   0  0  0  0  0  0  0  0  0  0  0  0
  1  2  2  0
  2  3  2  0
  2  4  1  0
  4  5  2  0
  5  6  1  0
  6  7  2  0
  7  8  1  0
  8  9  1  0
  9 10  1  0
 10 11  1  0
 11 12  2  0
 12 13  1  0
 13 14  2  0
 14 15  1  0
 15 16  1  0
 15 17  2  0
  8 18  2  0
  2 19  1  0
 19 20  1  0
 20 21  1  0
 21 22  1  0
 22 23  1  0
 23 24  1  0
 18  4  1  0
 24 19  1  0
 17 11  1  0
  5 25  1  0
  6 26  1  0
  7 27  1  0
  9 28  1  0
 10 29  1  0
 10 30  1  0
 12 31  1  0
 13 32  1  0
 14 33  1  0
 16 34  1  0
 17 35  1  0
 18 36  1  0
 20 37  1  0
 20 38  1  0
 21 39  1  0
 21 40  1  0
 22 41  1  0
 22 42  1  0
 23 43  1  0
 23 44  1  0
 24 45  1  0
 24 46  1  0
M  END
>  <UniqueID>  (37) 
37

>  <SMILES>  (37) 
O=S(=O)(c1cccc(NCc2cccc(O)c2)c1)N1CCCCC1

>  <Energy>  (37) 
51.16404485251985

>  <Genealogy>  (37) 
O=S(=O)(c1cccc(NCc2cccc(O)c2)c1)N1CCCCC1 (3D coordinates assigned)
O=S(=O)(c1cccc(NCc2cccc(O)c2)c1)N1CCCCC1 (nonaromatic ring conformer: 51.16404485251985 kcal/mol)

>  <smiles>  (37) 
O=S(=O)(c1cccc(NCc2cccc(O)c2)c1)N1CCCCC1

>  <score_type>  (37) 
oracle

>  <origin>  (37) 
adgpu

>  <m_score__min__energy>  (37) 
-9.4600000000000009

>  <m_primary>  (37) 
energy

$$$$
37:0
     RDKit          3D

 46 48  0  0  0  0  0  0  0  0999 V2000
   -2.1200   20.7430  -27.5050 C   0  0  0  0  0  0  0  0  0  0  0  0
   -2.3530   21.7220  -28.3810 C   0  0  0  0  0  0  0  0  0  0  0  0
   -3.6630   22.4600  -28.3890 C   0  0  0  0  0  0  0  0  0  0  0  0
   -3.4440   23.9040  -28.2190 N   0  0  0  0  0  0  0  0  0  0  0  0
   -3.6970   24.5440  -26.9180 C   0  0  0  0  0  0  0  0  0  0  0  0
   -2.3970   24.8950  -26.2440 C   0  0  0  0  0  0  0  0  0  0  0  0
   -1.2270   24.1310  -26.4910 C   0  0  0  0  0  0  0  0  0  0  0  0
   -0.0250   24.4270  -25.8230 C   0  0  0  0  0  0  0  0  0  0  0  0
   -0.0270   25.4880  -24.9230 C   0  0  0  0  0  0  0  0  0  0  0  0
   -1.1400   26.2280  -24.6870 C   0  0  0  0  0  0  0  0  0  0  0  0
   -2.3480   25.9690  -25.3270 C   0  0  0  0  0  0  0  0  0  0  0  0
   -0.8530   27.2060  -23.7560 O   0  0  0  0  0  0  0  0  0  0  0  0
    0.5260   27.0720  -23.3820 C   0  0  0  0  0  0  0  0  0  0  0  0
    1.0140   25.9640  -24.1520 O   0  0  0  0  0  0  0  0  0  0  0  0
   -2.9550   24.6890  -29.3270 C   0  0  0  0  0  0  0  0  0  0  0  0
   -1.7890   25.1690  -29.2970 O   0  0  0  0  0  0  0  0  0  0  0  0
   -3.7850   24.9170  -30.4710 N   0  0  0  0  0  0  0  0  0  0  0  0
   -4.9120   24.1050  -30.8190 C   0  0  0  0  0  0  0  0  0  0  0  0
   -4.6940   22.9690  -31.6070 C   0  0  0  0  0  0  0  0  0  0  0  0
   -5.7590   22.1490  -31.9810 C   0  0  0  0  0  0  0  0  0  0  0  0
   -7.0600   22.4390  -31.5470 C   0  0  0  0  0  0  0  0  0  0  0  0
   -8.2110   21.5850  -31.9890 C   0  0  0  0  0  0  0  0  0  0  0  0
   -7.2830   23.5670  -30.7440 C   0  0  0  0  0  0  0  0  0  0  0  0
   -6.2150   24.3890  -30.3450 C   0  0  0  0  0  0  0  0  0  0  0  0
   -6.4920   25.5460  -29.4220 C   0  0  0  0  0  0  0  0  0  0  0  0
   -1.1553   20.2145  -27.5145 H   0  0  0  0  0  0  0  0  0  0  0  0
   -2.8926   20.4644  -26.7732 H   0  0  0  0  0  0  0  0  0  0  0  0
   -1.5743   21.9936  -29.1090 H   0  0  0  0  0  0  0  0  0  0  0  0
   -4.1725   22.2819  -29.3475 H   0  0  0  0  0  0  0  0  0  0  0  0
   -4.2813   22.0944  -27.5559 H   0  0  0  0  0  0  0  0  0  0  0  0
   -4.2839   25.4613  -27.0733 H   0  0  0  0  0  0  0  0  0  0  0  0
   -4.2530   23.8433  -26.2778 H   0  0  0  0  0  0  0  0  0  0  0  0
   -1.2603   23.3001  -27.2111 H   0  0  0  0  0  0  0  0  0  0  0  0
    0.8865   23.8390  -26.0061 H   0  0  0  0  0  0  0  0  0  0  0  0
   -3.2386   26.5822  -25.1251 H   0  0  0  0  0  0  0  0  0  0  0  0
    1.0836   27.9881  -23.6265 H   0  0  0  0  0  0  0  0  0  0  0  0
    0.6468   26.9087  -22.3009 H   0  0  0  0  0  0  0  0  0  0  0  0
   -3.6737   22.7204  -31.9344 H   0  0  0  0  0  0  0  0  0  0  0  0
   -5.5771   21.2715  -32.6189 H   0  0  0  0  0  0  0  0  0  0  0  0
   -8.7378   21.1941  -31.1060 H   0  0  0  0  0  0  0  0  0  0  0  0
   -8.9048   22.1886  -32.5926 H   0  0  0  0  0  0  0  0  0  0  0  0
   -7.8345   20.7460  -32.5926 H   0  0  0  0  0  0  0  0  0  0  0  0
   -8.3062   23.8114  -30.4225 H   0  0  0  0  0  0  0  0  0  0  0  0
   -6.4114   25.2095  -28.3778 H   0  0  0  0  0  0  0  0  0  0  0  0
   -5.7600   26.3460  -29.6069 H   0  0  0  0  0  0  0  0  0  0  0  0
   -7.5069   25.9277  -29.6069 H   0  0  0  0  0  0  0  0  0  0  0  0
  1  2  2  0
  2  3  1  0
  3  4  1  0
  4  5  1  0
  5  6  1  0
  6  7  2  0
  7  8  1  0
  8  9  2  0
  9 10  1  0
 10 11  2  0
 10 12  1  0
 12 13  1  0
 13 14  1  0
  4 15  1  0
 15 16  2  0
 15 17  1  0
 17 18  1  0
 18 19  2  0
 19 20  1  0
 20 21  2  0
 21 22  1  0
 21 23  1  0
 23 24  2  0
 24 25  1  0
 11  6  1  0
 24 18  1  0
 14  9  1  0
  1 26  1  0
  1 27  1  0
  2 28  1  0
  3 29  1  0
  3 30  1  0
  5 31  1  0
  5 32  1  0
  7 33  1  0
  8 34  1  0
 11 35  1  0
 13 36  1  0
 13 37  1  0
 19 38  1  0
 20 39  1  0
 22 40  1  0
 22 41  1  0
 22 42  1  0
 23 43  1  0
 25 44  1  0
 25 45  1  0
 25 46  1  0
M  CHG  1  17  -1
M  END
>  <UniqueID>  (38) 
38

>  <SMILES>  (38) 
C=CCN(Cc1ccc2c(c1)OCO2)C(=O)[N-]c1ccc(C)cc1C

>  <Energy>  (38) 
73.56231497918625

>  <Genealogy>  (38) 
C=CCN(Cc1ccc2c(c1)OCO2)C(=O)[N-]c1ccc(C)cc1C (protonated)
C=CCN(Cc1ccc2c(c1)OCO2)C(=O)[N-]c1ccc(C)cc1C (3D coordinates assigned)
C=CCN(Cc1ccc2c(c1)OCO2)C(=O)[N-]c1ccc(C)cc1C (nonaromatic ring conformer: 73.56231497918625 kcal/mol)

>  <smiles>  (38) 
C=CCN(Cc1ccc2c(c1)OCO2)C(=O)Nc1ccc(C)cc1C

>  <score_type>  (38) 
oracle

>  <origin>  (38) 
adgpu

>  <m_score__min__energy>  (38) 
-8.9199999999999999

>  <m_primary>  (38) 
energy

$$$$
38:0
     RDKit          3D

 62 66  0  0  1  0  0  0  0  0999 V2000
   -3.3730   22.1520  -30.4830 C   0  0  0  0  0  0  0  0  0  0  0  0
   -2.0930   22.3480  -29.9450 C   0  0  0  0  0  0  0  0  0  0  0  0
   -2.0470   22.9590  -28.6810 N   0  0  0  0  0  0  0  0  0  0  0  0
   -1.7330   24.1600  -28.4500 C   0  0  0  0  0  0  0  0  0  0  0  0
   -1.7070   24.6850  -27.1480 C   0  0  0  0  0  0  0  0  0  0  0  0
   -1.3220   26.0150  -27.3460 C   0  0  0  0  0  0  0  0  0  0  0  0
   -1.1310   26.9920  -26.2220 C   0  0  0  0  0  0  0  0  0  0  0  0
   -1.5720   26.5150  -24.8540 C   0  0  0  0  0  0  0  0  0  0  0  0
   -0.1170   26.6660  -25.1830 C   0  0  0  0  0  0  0  0  0  0  0  0
   -1.1520   26.1940  -28.6610 N   0  0  0  0  0  0  0  0  0  0  0  0
   -1.3970   25.0810  -29.3370 N   0  0  0  0  0  0  0  0  0  0  0  0
   -1.0330   21.9540  -30.6620 N   0  0  0  0  0  0  0  0  0  0  0  0
   -1.2140   21.3780  -31.8820 C   0  0  0  0  0  0  0  0  0  0  0  0
   -0.0880   20.9710  -32.6740 N   0  0  0  0  0  0  0  0  0  0  0  0
    0.0890   21.5500  -34.0070 C   0  0  0  0  0  0  0  0  0  0  0  0
    0.1950   20.3300  -34.9300 C   0  0  0  0  0  0  0  0  0  0  0  0
    1.3510   19.5460  -34.5810 N   0  0  0  0  0  0  0  0  0  0  0  0
    1.9330   19.8920  -33.3180 C   0  0  0  0  0  0  0  0  0  0  0  0
    0.8920   20.0320  -32.2290 C   0  0  0  0  0  0  0  0  0  0  0  0
   -2.4580   21.1900  -32.3990 N   0  0  0  0  0  0  0  0  0  0  0  0
   -3.5510   21.5680  -31.7190 C   0  0  0  0  0  0  0  0  0  0  0  0
   -4.7470   21.4280  -32.1450 N   0  0  0  0  0  0  0  0  0  0  0  0
   -5.0100   20.8200  -33.4500 C   0  0  0  0  0  0  0  0  0  0  0  0
   -6.4220   20.2820  -33.3880 C   0  0  0  0  0  0  0  0  0  0  0  0
   -6.7880   19.7710  -32.0890 N   0  0  0  0  0  0  0  0  0  0  0  0
   -7.8030   20.6800  -31.5670 C   0  0  0  0  0  0  0  0  0  0  0  0
   -9.0800   20.5860  -32.3360 C   0  0  0  0  0  0  0  0  0  0  0  0
   -9.5350   19.2260  -32.5400 N   0  0  0  0  0  0  0  0  0  0  0  0
   -8.7160   18.3770  -31.6780 C   0  0  0  0  0  0  0  0  0  0  0  0
   -7.2700   18.4100  -32.1110 C   0  0  0  0  0  0  0  0  0  0  0  0
   -4.2538   22.4710  -29.9065 H   0  0  0  0  0  0  0  0  0  0  0  0
   -1.9345   24.1738  -26.2010 H   0  0  0  0  0  0  0  0  0  0  0  0
   -1.3261   27.8706  -26.8545 H   0  0  0  0  0  0  0  0  0  0  0  0
   -2.0555   27.2133  -24.1550 H   0  0  0  0  0  0  0  0  0  0  0  0
   -2.2087   25.7013  -24.4765 H   0  0  0  0  0  0  0  0  0  0  0  0
    0.4687   27.4724  -24.7176 H   0  0  0  0  0  0  0  0  0  0  0  0
    0.7578   26.0006  -25.1395 H   0  0  0  0  0  0  0  0  0  0  0  0
   -0.8580   27.1270  -29.0690 H   0  0  0  0  0  0  0  0  0  0  0  0
   -1.3480   24.9130  -30.3760 H   0  0  0  0  0  0  0  0  0  0  0  0
   -0.0820   22.0900  -30.2700 H   0  0  0  0  0  0  0  0  0  0  0  0
   -0.7751   22.1733  -34.2805 H   0  0  0  0  0  0  0  0  0  0  0  0
    0.9694   22.2065  -34.0701 H   0  0  0  0  0  0  0  0  0  0  0  0
   -0.7093   19.7129  -34.8230 H   0  0  0  0  0  0  0  0  0  0  0  0
    0.2925   20.6726  -35.9707 H   0  0  0  0  0  0  0  0  0  0  0  0
    2.0580   19.6950  -35.3340 H   0  0  0  0  0  0  0  0  0  0  0  0
    2.6451   19.1052  -33.0285 H   0  0  0  0  0  0  0  0  0  0  0  0
    2.4354   20.8639  -33.4323 H   0  0  0  0  0  0  0  0  0  0  0  0
    0.4169   19.0582  -32.0391 H   0  0  0  0  0  0  0  0  0  0  0  0
    1.3592   20.3801  -31.2960 H   0  0  0  0  0  0  0  0  0  0  0  0
   -4.9239   21.5740  -34.2463 H   0  0  0  0  0  0  0  0  0  0  0  0
   -4.2865   20.0221  -33.6736 H   0  0  0  0  0  0  0  0  0  0  0  0
   -7.1157   21.0943  -33.6504 H   0  0  0  0  0  0  0  0  0  0  0  0
   -6.4782   19.4402  -34.0938 H   0  0  0  0  0  0  0  0  0  0  0  0
   -8.0012   20.4262  -30.5152 H   0  0  0  0  0  0  0  0  0  0  0  0
   -7.4223   21.7078  -31.6607 H   0  0  0  0  0  0  0  0  0  0  0  0
   -9.8586   21.1344  -31.7856 H   0  0  0  0  0  0  0  0  0  0  0  0
   -8.8900   21.0154  -33.3308 H   0  0  0  0  0  0  0  0  0  0  0  0
   -9.4100   18.9140  -33.5240 H   0  0  0  0  0  0  0  0  0  0  0  0
   -8.7904   18.7372  -30.6413 H   0  0  0  0  0  0  0  0  0  0  0  0
   -9.0825   17.3424  -31.7510 H   0  0  0  0  0  0  0  0  0  0  0  0
   -6.6681   17.7974  -31.4236 H   0  0  0  0  0  0  0  0  0  0  0  0
   -7.1855   18.0093  -33.1319 H   0  0  0  0  0  0  0  0  0  0  0  0
  1  2  2  0
  2  3  1  0
  3  4  2  0
  4  5  1  0
  5  6  2  0
  6  7  1  0
  7  8  1  0
  8  9  1  0
  6 10  1  0
 10 11  1  0
  2 12  1  0
 12 13  1  0
 13 14  1  0
 14 15  1  0
 15 16  1  0
 16 17  1  0
 17 18  1  0
 18 19  1  0
 13 20  2  0
 20 21  1  0
 21 22  2  0
 22 23  1  0
 23 24  1  0
 24 25  1  0
 25 26  1  0
 26 27  1  0
 27 28  1  0
 28 29  1  0
 29 30  1  0
 21  1  1  0
 30 25  1  0
 11  4  1  0
 19 14  1  0
  9  7  1  0
  1 31  1  0
  5 32  1  0
  7 33  1  0
  8 34  1  0
  8 35  1  0
  9 36  1  0
  9 37  1  0
 10 38  1  0
 11 39  1  0
 12 40  1  0
 15 41  1  0
 15 42  1  0
 16 43  1  0
 16 44  1  0
 17 45  1  0
 18 46  1  0
 18 47  1  0
 19 48  1  0
 19 49  1  0
 23 50  1  0
 23 51  1  0
 24 52  1  0
 24 53  1  0
 26 54  1  0
 26 55  1  0
 27 56  1  0
 27 57  1  0
 28 58  1  0
 29 59  1  0
 29 60  1  0
 30 61  1  0
 30 62  1  0
M  END
>  <smiles>  (39) 
c1c(N=c2cc(C3CC3)[nH][nH]2)[nH]c(N2CCNCC2)nc1=NCCN1CCNCC1

>  <score_type>  (39) 
oracle

>  <origin>  (39) 
adgpu

>  <m_score__min__energy>  (39) 
-9.3599999999999994

>  <m_primary>  (39) 
energy

$$$$
39:0
     RDKit          3D

 32 33  0  0  0  0  0  0  0  0999 V2000
    0.1570   21.8650  -26.6760 O   0  0  0  0  0  0  0  0  0  0  0  0
   -0.2940   21.5780  -27.8160 C   0  0  0  0  0  0  0  0  0  0  0  0
    0.0730   20.3220  -28.4080 N   0  0  0  0  0  0  0  0  0  0  0  0
   -0.8450   19.3910  -29.0600 C   0  0  0  0  0  0  0  0  0  0  0  0
   -0.1460   18.6480  -30.2020 C   0  0  0  0  0  0  0  0  0  0  0  0
   -0.0250   19.5360  -31.4110 C   0  0  0  0  0  0  0  0  0  0  0  0
    1.2080   19.6820  -32.0650 C   0  0  0  0  0  0  0  0  0  0  0  0
    1.3080   20.4800  -33.2080 C   0  0  0  0  0  0  0  0  0  0  0  0
    0.1760   21.1290  -33.7130 C   0  0  0  0  0  0  0  0  0  0  0  0
    0.2850   21.9210  -34.8500 O   0  0  0  0  0  0  0  0  0  0  0  0
   -1.0620   20.9790  -33.0760 C   0  0  0  0  0  0  0  0  0  0  0  0
   -2.1870   21.6230  -33.5870 O   0  0  0  0  0  0  0  0  0  0  0  0
   -1.1610   20.1790  -31.9280 C   0  0  0  0  0  0  0  0  0  0  0  0
   -1.1540   22.5540  -28.5120 C   0  0  0  0  0  0  0  0  0  0  0  0
   -2.3520   22.1300  -29.1060 C   0  0  0  0  0  0  0  0  0  0  0  0
   -3.1820   23.0500  -29.7530 C   0  0  0  0  0  0  0  0  0  0  0  0
   -2.8160   24.3970  -29.8250 C   0  0  0  0  0  0  0  0  0  0  0  0
   -3.6480   25.3080  -30.4640 O   0  0  0  0  0  0  0  0  0  0  0  0
   -1.6100   24.8240  -29.2560 C   0  0  0  0  0  0  0  0  0  0  0  0
   -1.2340   26.1590  -29.3340 O   0  0  0  0  0  0  0  0  0  0  0  0
   -0.7780   23.9040  -28.6090 C   0  0  0  0  0  0  0  0  0  0  0  0
   -1.2031   18.6600  -28.3201 H   0  0  0  0  0  0  0  0  0  0  0  0
   -1.6894   19.9610  -29.4750 H   0  0  0  0  0  0  0  0  0  0  0  0
    0.8589   18.3433  -29.8743 H   0  0  0  0  0  0  0  0  0  0  0  0
   -0.7420   17.7627  -30.4685 H   0  0  0  0  0  0  0  0  0  0  0  0
    2.0988   19.1666  -31.6767 H   0  0  0  0  0  0  0  0  0  0  0  0
    2.2788   20.5981  -33.7117 H   0  0  0  0  0  0  0  0  0  0  0  0
   -2.1570   22.1230  -34.4670 H   0  0  0  0  0  0  0  0  0  0  0  0
   -2.1340   20.0548  -31.4301 H   0  0  0  0  0  0  0  0  0  0  0  0
   -2.6395   21.0691  -29.0625 H   0  0  0  0  0  0  0  0  0  0  0  0
   -4.1257   22.7130  -30.2067 H   0  0  0  0  0  0  0  0  0  0  0  0
    0.1751   24.2394  -28.1742 H   0  0  0  0  0  0  0  0  0  0  0  0
  1  2  2  0
  2  3  1  0
  3  4  1  0
  4  5  1  0
  5  6  1  0
  6  7  2  0
  7  8  1  0
  8  9  2  0
  9 10  1  0
  9 11  1  0
 11 12  1  0
 11 13  2  0
  2 14  1  0
 14 15  2  0
 15 16  1  0
 16 17  2  0
 17 18  1  0
 17 19  1  0
 19 20  1  0
 19 21  2  0
 13  6  1  0
 21 14  1  0
  4 22  1  0
  4 23  1  0
  5 24  1  0
  5 25  1  0
  7 26  1  0
  8 27  1  0
 12 28  1  0
 13 29  1  0
 15 30  1  0
 16 31  1  0
 21 32  1  0
M  CHG  4   3  -1  10  -1  18  -1  20  -1
M  END
>  <UniqueID>  (40) 
39

>  <SMILES>  (40) 
O=C([N-]CCc1ccc([O-])c(O)c1)c1ccc([O-])c([O-])c1

>  <Energy>  (40) 
33.700368440007345

>  <Genealogy>  (40) 
O=C([N-]CCc1ccc([O-])c(O)c1)c1ccc([O-])c([O-])c1 (protonated)
O=C([N-]CCc1ccc([O-])c(O)c1)c1ccc([O-])c([O-])c1 (3D coordinates assigned)
O=C([N-]CCc1ccc([O-])c(O)c1)c1ccc([O-])c([O-])c1 (optimized conformer: 33.700368440007345 kcal/mol)

>  <smiles>  (40) 
O=C(NCCc1ccc(O)c(O)c1)c1ccc(O)c(O)c1

>  <score_type>  (40) 
oracle

>  <origin>  (40) 
adgpu

>  <m_score__min__energy>  (40) 
-12.26

>  <m_primary>  (40) 
energy

$$$$
40:0
     RDKit          3D

 38 39  0  0  0  0  0  0  0  0999 V2000
   -2.3580   24.7090  -27.7730 C   0  0  0  0  0  0  0  0  0  0  0  0
   -2.4170   24.7980  -29.1920 O   0  0  0  0  0  0  0  0  0  0  0  0
   -2.6860   23.7160  -30.0450 C   0  0  0  0  0  0  0  0  0  0  0  0
   -1.8660   22.5730  -30.0830 C   0  0  0  0  0  0  0  0  0  0  0  0
   -2.1650   21.5170  -30.9470 C   0  0  0  0  0  0  0  0  0  0  0  0
   -3.2830   21.5860  -31.7850 C   0  0  0  0  0  0  0  0  0  0  0  0
   -3.6530   20.2550  -32.8850 S   0  0  0  0  0  0  0  0  0  0  0  0
   -3.1940   18.9660  -32.2610 O   0  0  0  0  0  0  0  0  0  0  0  0
   -2.8870   20.4410  -34.1650 O   0  0  0  0  0  0  0  0  0  0  0  0
   -5.3680   20.1570  -33.2330 N   0  0  0  0  0  0  0  0  0  0  0  0
   -5.6110   19.0640  -34.1860 C   0  0  0  0  0  0  0  0  0  0  0  0
   -6.1490   19.9340  -32.0010 C   0  0  0  0  0  0  0  0  0  0  0  0
   -7.3930   20.7660  -32.0000 C   0  0  0  0  0  0  0  0  0  0  0  0
   -8.6960   20.2850  -31.9810 C   0  0  0  0  0  0  0  0  0  0  0  0
   -9.6570   21.3020  -31.9490 C   0  0  0  0  0  0  0  0  0  0  0  0
   -9.1150   22.5810  -31.9320 C   0  0  0  0  0  0  0  0  0  0  0  0
   -7.4390   22.4470  -31.9560 S   0  0  0  0  0  0  0  0  0  0  0  0
   -4.1060   22.7170  -31.7480 C   0  0  0  0  0  0  0  0  0  0  0  0
   -3.8110   23.7890  -30.8820 C   0  0  0  0  0  0  0  0  0  0  0  0
   -4.6110   24.9420  -30.8250 O   0  0  0  0  0  0  0  0  0  0  0  0
   -5.7850   25.0700  -30.0300 C   0  0  0  0  0  0  0  0  0  0  0  0
   -2.9142   25.5480  -27.3295 H   0  0  0  0  0  0  0  0  0  0  0  0
   -2.8057   23.7588  -27.4463 H   0  0  0  0  0  0  0  0  0  0  0  0
   -1.3085   24.7513  -27.4463 H   0  0  0  0  0  0  0  0  0  0  0  0
   -0.9842   22.5108  -29.4283 H   0  0  0  0  0  0  0  0  0  0  0  0
   -1.5185   20.6273  -30.9686 H   0  0  0  0  0  0  0  0  0  0  0  0
   -5.8175   18.1353  -33.6339 H   0  0  0  0  0  0  0  0  0  0  0  0
   -6.4754   19.3144  -34.8185 H   0  0  0  0  0  0  0  0  0  0  0  0
   -4.7219   18.9246  -34.8185 H   0  0  0  0  0  0  0  0  0  0  0  0
   -6.4262   18.8714  -31.9376 H   0  0  0  0  0  0  0  0  0  0  0  0
   -5.5325   20.2222  -31.1368 H   0  0  0  0  0  0  0  0  0  0  0  0
   -8.9469   19.2140  -31.9902 H   0  0  0  0  0  0  0  0  0  0  0  0
  -10.7395   21.1069  -31.9383 H   0  0  0  0  0  0  0  0  0  0  0  0
   -9.6852   23.5214  -31.9071 H   0  0  0  0  0  0  0  0  0  0  0  0
   -4.9903   22.7698  -32.4001 H   0  0  0  0  0  0  0  0  0  0  0  0
   -5.5116   25.0402  -28.9649 H   0  0  0  0  0  0  0  0  0  0  0  0
   -6.2779   26.0272  -30.2554 H   0  0  0  0  0  0  0  0  0  0  0  0
   -6.4726   24.2415  -30.2554 H   0  0  0  0  0  0  0  0  0  0  0  0
  1  2  1  0
  2  3  1  0
  3  4  2  0
  4  5  1  0
  5  6  2  0
  6  7  1  0
  7  8  2  0
  7  9  2  0
  7 10  1  0
 10 11  1  0
 10 12  1  0
 12 13  1  0
 13 14  2  0
 14 15  1  0
 15 16  2  0
 16 17  1  0
  6 18  1  0
 18 19  2  0
 19 20  1  0
 20 21  1  0
 19  3  1  0
 17 13  1  0
  1 22  1  0
  1 23  1  0
  1 24  1  0
  4 25  1  0
  5 26  1  0
 11 27  1  0
 11 28  1  0
 11 29  1  0
 12 30  1  0
 12 31  1  0
 14 32  1  0
 15 33  1  0
 16 34  1  0
 18 35  1  0
 21 36  1  0
 21 37  1  0
 21 38  1  0
M  END
>  <UniqueID>  (41) 
40

>  <SMILES>  (41) 
COc1ccc(S(=O)(=O)N(C)Cc2cccs2)cc1OC

>  <Energy>  (41) 
60.02139138959629

>  <Genealogy>  (41) 
COc1ccc(S(=O)(=O)N(C)Cc2cccs2)cc1OC (3D coordinates assigned)
COc1ccc(S(=O)(=O)N(C)Cc2cccs2)cc1OC (optimized conformer: 60.02139138959629 kcal/mol)

>  <smiles>  (41) 
COc1ccc(S(=O)(=O)N(C)Cc2cccs2)cc1OC

>  <score_type>  (41) 
oracle

>  <origin>  (41) 
adgpu

>  <m_score__min__energy>  (41) 
-8

>  <m_primary>  (41) 
energy

$$$$
41:0
     RDKit          3D

 34 36  0  0  0  0  0  0  0  0999 V2000
   -1.9220   26.4350  -25.2500 C   0  0  0  0  0  0  0  0  0  0  0  0
   -1.9900   25.5960  -26.4910 C   0  0  0  0  0  0  0  0  0  0  0  0
   -0.9660   25.6630  -27.4470 C   0  0  0  0  0  0  0  0  0  0  0  0
   -1.0090   24.8540  -28.5860 C   0  0  0  0  0  0  0  0  0  0  0  0
   -2.0630   23.9460  -28.7720 C   0  0  0  0  0  0  0  0  0  0  0  0
   -2.1000   23.1050  -29.9890 C   0  0  0  0  0  0  0  0  0  0  0  0
   -1.0230   22.4400  -30.4470 N   0  0  0  0  0  0  0  0  0  0  0  0
   -1.4510   21.8740  -31.5940 C   0  0  0  0  0  0  0  0  0  0  0  0
   -0.5950   20.9860  -32.4300 C   0  0  0  0  0  0  0  0  0  0  0  0
   -2.7470   22.1220  -31.8770 N   0  0  0  0  0  0  0  0  0  0  0  0
   -3.1590   22.9050  -30.8630 C   0  0  0  0  0  0  0  0  0  0  0  0
   -4.5630   23.3470  -30.7100 C   0  0  0  0  0  0  0  0  0  0  0  0
   -5.6100   22.4080  -30.7480 C   0  0  0  0  0  0  0  0  0  0  0  0
   -6.9380   22.8250  -30.6220 C   0  0  0  0  0  0  0  0  0  0  0  0
   -7.2350   24.1810  -30.4710 C   0  0  0  0  0  0  0  0  0  0  0  0
   -6.2050   25.1240  -30.4500 C   0  0  0  0  0  0  0  0  0  0  0  0
   -4.8730   24.7140  -30.5720 C   0  0  0  0  0  0  0  0  0  0  0  0
   -3.8640   25.6720  -30.5400 O   0  0  0  0  0  0  0  0  0  0  0  0
   -3.0900   23.8820  -27.8150 C   0  0  0  0  0  0  0  0  0  0  0  0
   -3.0460   24.6920  -26.6760 C   0  0  0  0  0  0  0  0  0  0  0  0
   -1.9747   25.7847  -24.3644 H   0  0  0  0  0  0  0  0  0  0  0  0
   -0.9755   26.9953  -25.2376 H   0  0  0  0  0  0  0  0  0  0  0  0
   -2.7659   27.1404  -25.2376 H   0  0  0  0  0  0  0  0  0  0  0  0
   -0.1245   26.3559  -27.2996 H   0  0  0  0  0  0  0  0  0  0  0  0
   -0.2124   24.9294  -29.3408 H   0  0  0  0  0  0  0  0  0  0  0  0
    0.0195   20.3486  -31.7772 H   0  0  0  0  0  0  0  0  0  0  0  0
   -1.2329   20.3536  -33.0650 H   0  0  0  0  0  0  0  0  0  0  0  0
    0.0604   21.6003  -33.0650 H   0  0  0  0  0  0  0  0  0  0  0  0
   -5.3821   21.3397  -30.8776 H   0  0  0  0  0  0  0  0  0  0  0  0
   -7.7505   22.0838  -30.6418 H   0  0  0  0  0  0  0  0  0  0  0  0
   -8.2807   24.5067  -30.3685 H   0  0  0  0  0  0  0  0  0  0  0  0
   -6.4418   26.1923  -30.3372 H   0  0  0  0  0  0  0  0  0  0  0  0
   -3.9331   23.1910  -27.9627 H   0  0  0  0  0  0  0  0  0  0  0  0
   -3.8434   24.6198  -25.9217 H   0  0  0  0  0  0  0  0  0  0  0  0
  1  2  1  0
  2  3  2  0
  3  4  1  0
  4  5  2  0
  5  6  1  0
  6  7  1  0
  7  8  2  0
  8  9  1  0
  8 10  1  0
 10 11  1  0
 11 12  1  0
 12 13  2  0
 13 14  1  0
 14 15  2  0
 15 16  1  0
 16 17  2  0
 17 18  1  0
  5 19  1  0
 19 20  2  0
 20  2  1  0
 11  6  2  0
 17 12  1  0
  1 21  1  0
  1 22  1  0
  1 23  1  0
  3 24  1  0
  4 25  1  0
  9 26  1  0
  9 27  1  0
  9 28  1  0
 13 29  1  0
 14 30  1  0
 15 31  1  0
 16 32  1  0
 19 33  1  0
 20 34  1  0
M  CHG  2  10  -1  18  -1
M  END
>  <UniqueID>  (42) 
41

>  <SMILES>  (42) 
Cc1ccc(-c2nc(C)[n-]c2-c2ccccc2[O-])cc1

>  <Energy>  (42) 
70.60049638360788

>  <Genealogy>  (42) 
Cc1ccc(-c2nc(C)[n-]c2-c2ccccc2[O-])cc1 (protonated)
Cc1ccc(-c2nc(C)[n-]c2-c2ccccc2[O-])cc1 (3D coordinates assigned)
Cc1ccc(-c2nc(C)[n-]c2-c2ccccc2[O-])cc1 (optimized conformer: 70.60049638360788 kcal/mol)

>  <smiles>  (42) 
Cc1ccc(-c2nc(C)[nH]c2-c2ccccc2O)cc1

>  <score_type>  (42) 
oracle

>  <origin>  (42) 
adgpu

>  <m_score__min__energy>  (42) 
-10.69

>  <m_primary>  (42) 
energy

$$$$
42:0
     RDKit          3D

 46 49  0  0  0  0  0  0  0  0999 V2000
   -0.8750   12.1490  -30.9820 C   0  0  0  0  0  0  0  0  0  0  0  0
   -1.7650   11.9940  -32.0790 O   0  0  0  0  0  0  0  0  0  0  0  0
   -2.4400   13.0700  -32.6630 C   0  0  0  0  0  0  0  0  0  0  0  0
   -3.4110   13.7540  -31.9250 C   0  0  0  0  0  0  0  0  0  0  0  0
   -4.0900   14.8330  -32.5050 C   0  0  0  0  0  0  0  0  0  0  0  0
   -5.0440   15.5090  -31.8100 N   0  0  0  0  0  0  0  0  0  0  0  0
   -5.7090   16.5570  -32.3660 C   0  0  0  0  0  0  0  0  0  0  0  0
   -6.6080   17.1420  -31.7020 O   0  0  0  0  0  0  0  0  0  0  0  0
   -5.4150   16.9680  -33.6400 N   0  0  0  0  0  0  0  0  0  0  0  0
   -6.1140   18.0480  -34.2170 N   0  0  0  0  0  0  0  0  0  0  0  0
   -6.3580   19.2760  -33.5120 C   0  0  0  0  0  0  0  0  0  0  0  0
   -7.6230   19.5130  -32.9530 C   0  0  0  0  0  0  0  0  0  0  0  0
   -7.8820   20.7040  -32.2680 C   0  0  0  0  0  0  0  0  0  0  0  0
   -6.8810   21.6750  -32.1390 C   0  0  0  0  0  0  0  0  0  0  0  0
   -7.1950   23.1680  -31.2600 S   0  0  0  0  0  0  0  0  0  0  0  0
   -7.3830   22.8890  -29.7940 O   0  0  0  0  0  0  0  0  0  0  0  0
   -8.4460   23.7990  -31.8030 O   0  0  0  0  0  0  0  0  0  0  0  0
   -5.8690   24.2700  -31.4610 N   0  0  0  0  0  0  0  0  0  0  0  0
   -4.9040   24.4180  -30.6040 C   0  0  0  0  0  0  0  0  0  0  0  0
   -4.7530   23.7510  -29.4020 C   0  0  0  0  0  0  0  0  0  0  0  0
   -3.5760   24.2740  -28.9100 C   0  0  0  0  0  0  0  0  0  0  0  0
   -2.9340   23.9220  -27.6110 C   0  0  0  0  0  0  0  0  0  0  0  0
   -3.1100   25.1650  -29.7560 O   0  0  0  0  0  0  0  0  0  0  0  0
   -3.8860   25.2770  -30.7950 N   0  0  0  0  0  0  0  0  0  0  0  0
   -5.6230   21.4530  -32.7140 C   0  0  0  0  0  0  0  0  0  0  0  0
   -5.3630   20.2620  -33.3980 C   0  0  0  0  0  0  0  0  0  0  0  0
   -4.4790   16.3030  -34.3810 C   0  0  0  0  0  0  0  0  0  0  0  0
   -4.2310   16.6750  -35.5620 O   0  0  0  0  0  0  0  0  0  0  0  0
   -3.7860   15.2160  -33.8240 C   0  0  0  0  0  0  0  0  0  0  0  0
   -2.8050   14.5020  -34.5320 C   0  0  0  0  0  0  0  0  0  0  0  0
   -2.1630   13.4590  -33.9400 N   0  0  0  0  0  0  0  0  0  0  0  0
   -1.4341   12.0516  -30.0397 H   0  0  0  0  0  0  0  0  0  0  0  0
   -0.0969   11.3728  -31.0286 H   0  0  0  0  0  0  0  0  0  0  0  0
   -0.4051   13.1425  -31.0286 H   0  0  0  0  0  0  0  0  0  0  0  0
   -3.6404   13.4462  -30.8942 H   0  0  0  0  0  0  0  0  0  0  0  0
   -5.2800   15.2190  -30.8330 H   0  0  0  0  0  0  0  0  0  0  0  0
   -6.3910   17.9830  -35.2240 H   0  0  0  0  0  0  0  0  0  0  0  0
   -8.4157   18.7572  -33.0543 H   0  0  0  0  0  0  0  0  0  0  0  0
   -8.8753   20.8790  -31.8289 H   0  0  0  0  0  0  0  0  0  0  0  0
   -5.4089   22.9919  -28.9507 H   0  0  0  0  0  0  0  0  0  0  0  0
   -3.5683   24.2698  -26.7824 H   0  0  0  0  0  0  0  0  0  0  0  0
   -2.8118   22.8307  -27.5462 H   0  0  0  0  0  0  0  0  0  0  0  0
   -1.9482   24.4058  -27.5462 H   0  0  0  0  0  0  0  0  0  0  0  0
   -4.8375   22.2181  -32.6270 H   0  0  0  0  0  0  0  0  0  0  0  0
   -4.3739   20.0955  -33.8496 H   0  0  0  0  0  0  0  0  0  0  0  0
   -2.5560   14.7863  -35.5650 H   0  0  0  0  0  0  0  0  0  0  0  0
  1  2  1  0
  2  3  1  0
  3  4  2  0
  4  5  1  0
  5  6  1  0
  6  7  1  0
  7  8  2  0
  7  9  1  0
  9 10  1  0
 10 11  1  0
 11 12  2  0
 12 13  1  0
 13 14  2  0
 14 15  1  0
 15 16  2  0
 15 17  2  0
 15 18  1  0
 18 19  2  3
 19 20  1  0
 20 21  2  0
 21 22  1  0
 21 23  1  0
 23 24  1  0
 14 25  1  0
 25 26  2  0
  9 27  1  0
 27 28  2  0
 27 29  1  0
 29 30  1  0
 30 31  2  0
 31  3  1  0
 29  5  2  0
 26 11  1  0
 24 19  1  0
  1 32  1  0
  1 33  1  0
  1 34  1  0
  4 35  1  0
  6 36  1  0
 10 37  1  0
 12 38  1  0
 13 39  1  0
 20 40  1  0
 22 41  1  0
 22 42  1  0
 22 43  1  0
 25 44  1  0
 26 45  1  0
 30 46  1  0
M  CHG  1  24  -1
M  END
>  <UniqueID>  (43) 
42

>  <SMILES>  (43) 
COc1cc2[nH]c(=O)n(Nc3ccc(S(=O)(=O)N=c4cc(C)o[n-]4)cc3)c(=O)c2cn1

>  <Energy>  (43) 
94.80892395177675

>  <Genealogy>  (43) 
COc1cc2[nH]c(=O)n(Nc3ccc(S(=O)(=O)N=c4cc(C)o[n-]4)cc3)c(=O)c2cn1 (protonated)
COc1cc2[nH]c(=O)n(Nc3ccc(S(=O)(=O)N=c4cc(C)o[n-]4)cc3)c(=O)c2cn1 (3D coordinates assigned)
COc1cc2[nH]c(=O)n(Nc3ccc(S(=O)(=O)N=c4cc(C)o[n-]4)cc3)c(=O)c2cn1 (optimized conformer: 94.80892395177675 kcal/mol)

>  <smiles>  (43) 
COc1cc2[nH]c(=O)n(Nc3ccc(S(=O)(=O)N=c4cc(C)o[nH]4)cc3)c(=O)c2cn1

>  <score_type>  (43) 
oracle

>  <origin>  (43) 
adgpu

>  <m_score__min__energy>  (43) 
-11.18

>  <m_primary>  (43) 
energy

$$$$
43:0
     RDKit          3D

 47 49  0  0  0  0  0  0  0  0999 V2000
   -9.4160   23.4740  -32.3420 C   0  0  0  0  0  0  0  0  0  0  0  0
   -9.5340   21.9940  -31.9510 C   0  0  0  0  0  0  0  0  0  0  0  0
   -8.2580   21.3530  -31.5410 N   0  0  0  0  0  0  0  0  0  0  0  0
   -8.3180   19.8800  -31.4180 C   0  0  0  0  0  0  0  0  0  0  0  0
   -7.4070   19.1560  -32.3810 C   0  0  0  0  0  0  0  0  0  0  0  0
   -7.0900   17.8030  -32.1890 C   0  0  0  0  0  0  0  0  0  0  0  0
   -6.2530   17.1460  -33.0930 C   0  0  0  0  0  0  0  0  0  0  0  0
   -5.7340   17.8500  -34.1810 C   0  0  0  0  0  0  0  0  0  0  0  0
   -6.0400   19.1640  -34.3500 N   0  0  0  0  0  0  0  0  0  0  0  0
   -6.8530   19.8260  -33.4840 C   0  0  0  0  0  0  0  0  0  0  0  0
   -7.5090   22.0150  -30.4520 C   0  0  0  0  0  0  0  0  0  0  0  0
   -6.1300   22.4000  -30.9040 C   0  0  0  0  0  0  0  0  0  0  0  0
   -5.2190   21.5230  -31.3680 N   0  0  0  0  0  0  0  0  0  0  0  0
   -4.1270   22.2920  -31.5870 C   0  0  0  0  0  0  0  0  0  0  0  0
   -2.8520   21.7710  -32.1200 C   0  0  0  0  0  0  0  0  0  0  0  0
   -1.6750   21.8410  -31.3580 C   0  0  0  0  0  0  0  0  0  0  0  0
   -0.4710   21.3450  -31.8670 C   0  0  0  0  0  0  0  0  0  0  0  0
   -0.4250   20.7830  -33.1510 C   0  0  0  0  0  0  0  0  0  0  0  0
    0.8580   20.2140  -33.6820 C   0  0  0  0  0  0  0  0  0  0  0  0
   -1.6030   20.6940  -33.9070 C   0  0  0  0  0  0  0  0  0  0  0  0
   -2.8070   21.1900  -33.3980 C   0  0  0  0  0  0  0  0  0  0  0  0
   -4.3240   23.5540  -31.2690 O   0  0  0  0  0  0  0  0  0  0  0  0
   -5.5540   23.6510  -30.8330 C   0  0  0  0  0  0  0  0  0  0  0  0
   -6.1850   24.9160  -30.3510 C   0  0  0  0  0  0  0  0  0  0  0  0
   -9.3668   24.0907  -31.4325 H   0  0  0  0  0  0  0  0  0  0  0  0
   -8.5030   23.6244  -32.9368 H   0  0  0  0  0  0  0  0  0  0  0  0
  -10.2936   23.7672  -32.9368 H   0  0  0  0  0  0  0  0  0  0  0  0
  -10.2404   21.9174  -31.1113 H   0  0  0  0  0  0  0  0  0  0  0  0
   -9.8714   21.4620  -32.8528 H   0  0  0  0  0  0  0  0  0  0  0  0
   -8.0300   19.6045  -30.3927 H   0  0  0  0  0  0  0  0  0  0  0  0
   -9.3479   19.5775  -31.6584 H   0  0  0  0  0  0  0  0  0  0  0  0
   -7.5011   17.2593  -31.3256 H   0  0  0  0  0  0  0  0  0  0  0  0
   -6.0050   16.0840  -32.9493 H   0  0  0  0  0  0  0  0  0  0  0  0
   -5.0771   17.3414  -34.9020 H   0  0  0  0  0  0  0  0  0  0  0  0
   -7.0776   20.8903  -33.6480 H   0  0  0  0  0  0  0  0  0  0  0  0
   -8.0513   22.9200  -30.1409 H   0  0  0  0  0  0  0  0  0  0  0  0
   -7.4185   21.3117  -29.6111 H   0  0  0  0  0  0  0  0  0  0  0  0
   -1.7002   22.2891  -30.3537 H   0  0  0  0  0  0  0  0  0  0  0  0
    0.4436   21.3958  -31.2580 H   0  0  0  0  0  0  0  0  0  0  0  0
    1.5070   19.9262  -32.8418 H   0  0  0  0  0  0  0  0  0  0  0  0
    0.6396   19.3283  -34.2967 H   0  0  0  0  0  0  0  0  0  0  0  0
    1.3679   20.9704  -34.2967 H   0  0  0  0  0  0  0  0  0  0  0  0
   -1.5795   20.2319  -34.9049 H   0  0  0  0  0  0  0  0  0  0  0  0
   -3.7242   21.1249  -34.0018 H   0  0  0  0  0  0  0  0  0  0  0  0
   -6.1905   24.9271  -29.2511 H   0  0  0  0  0  0  0  0  0  0  0  0
   -5.6109   25.7772  -30.7235 H   0  0  0  0  0  0  0  0  0  0  0  0
   -7.2183   24.9754  -30.7235 H   0  0  0  0  0  0  0  0  0  0  0  0
  1  2  1  0
  2  3  1  0
  3  4  1  0
  4  5  1  0
  5  6  2  0
  6  7  1  0
  7  8  2  0
  8  9  1  0
  9 10  2  0
  3 11  1  0
 11 12  1  0
 12 13  1  0
 13 14  2  0
 14 15  1  0
 15 16  2  0
 16 17  1  0
 17 18  2  0
 18 19  1  0
 18 20  1  0
 20 21  2  0
 14 22  1  0
 22 23  1  0
 23 24  1  0
 10  5  1  0
 23 12  2  0
 21 15  1  0
  1 25  1  0
  1 26  1  0
  1 27  1  0
  2 28  1  0
  2 29  1  0
  4 30  1  0
  4 31  1  0
  6 32  1  0
  7 33  1  0
  8 34  1  0
 10 35  1  0
 11 36  1  0
 11 37  1  0
 16 38  1  0
 17 39  1  0
 19 40  1  0
 19 41  1  0
 19 42  1  0
 20 43  1  0
 21 44  1  0
 24 45  1  0
 24 46  1  0
 24 47  1  0
M  END
>  <UniqueID>  (44) 
43

>  <SMILES>  (44) 
CCN(Cc1cccnc1)Cc1nc(-c2ccc(C)cc2)oc1C

>  <Energy>  (44) 
83.06106530395765

>  <Genealogy>  (44) 
CCN(Cc1cccnc1)Cc1nc(-c2ccc(C)cc2)oc1C (3D coordinates assigned)
CCN(Cc1cccnc1)Cc1nc(-c2ccc(C)cc2)oc1C (optimized conformer: 83.06106530395765 kcal/mol)

>  <smiles>  (44) 
CCN(Cc1cccnc1)Cc1nc(-c2ccc(C)cc2)oc1C

>  <score_type>  (44) 
oracle

>  <origin>  (44) 
adgpu

>  <m_score__min__energy>  (44) 
-7.8399999999999999

>  <m_primary>  (44) 
energy

$$$$
44:0
     RDKit          3D

 54 56  0  0  0  0  0  0  0  0999 V2000
    0.4420   23.9610  -27.7840 C   0  0  0  0  0  0  0  0  0  0  0  0
   -0.9210   24.2940  -28.2940 C   0  0  0  0  0  0  0  0  0  0  0  0
   -1.1890   25.3700  -29.0640 N   0  0  0  0  0  0  0  0  0  0  0  0
   -2.4460   25.2960  -29.3990 O   0  0  0  0  0  0  0  0  0  0  0  0
   -3.0000   24.2210  -28.8900 C   0  0  0  0  0  0  0  0  0  0  0  0
   -4.2380   23.8730  -29.0600 N   0  0  0  0  0  0  0  0  0  0  0  0
   -5.3540   24.8090  -30.0020 S   0  0  0  0  0  0  0  0  0  0  0  0
   -4.6550   25.3350  -31.2230 O   0  0  0  0  0  0  0  0  0  0  0  0
   -5.8420   25.9710  -29.1830 O   0  0  0  0  0  0  0  0  0  0  0  0
   -6.7020   23.7960  -30.5080 C   0  0  0  0  0  0  0  0  0  0  0  0
   -7.0560   23.7400  -31.8620 C   0  0  0  0  0  0  0  0  0  0  0  0
   -8.0440   22.8530  -32.2950 C   0  0  0  0  0  0  0  0  0  0  0  0
   -8.6710   21.9900  -31.3790 C   0  0  0  0  0  0  0  0  0  0  0  0
   -9.5770   20.9640  -31.8040 N   0  0  0  0  0  0  0  0  0  0  0  0
   -9.0910   19.3600  -32.2570 S   0  0  0  0  0  0  0  0  0  0  0  0
   -9.3820   18.4130  -31.1280 O   0  0  0  0  0  0  0  0  0  0  0  0
   -9.8680   18.9400  -33.4730 O   0  0  0  0  0  0  0  0  0  0  0  0
   -7.3610   19.3390  -32.5890 C   0  0  0  0  0  0  0  0  0  0  0  0
   -6.7980   20.2650  -33.4780 C   0  0  0  0  0  0  0  0  0  0  0  0
   -5.4090   20.3590  -33.6060 C   0  0  0  0  0  0  0  0  0  0  0  0
   -4.5720   19.5350  -32.8440 C   0  0  0  0  0  0  0  0  0  0  0  0
   -2.8290   19.7820  -32.8940 S   0  0  0  0  0  0  0  0  0  0  0  0
   -2.1220   18.4580  -32.7930 O   0  0  0  0  0  0  0  0  0  0  0  0
   -2.4680   20.4250  -34.2040 O   0  0  0  0  0  0  0  0  0  0  0  0
   -2.3360   20.8160  -31.5740 N   0  0  0  0  0  0  0  0  0  0  0  0
   -3.2300   21.9790  -31.4910 C   0  0  0  0  0  0  0  0  0  0  0  0
   -0.9430   21.2480  -31.7590 C   0  0  0  0  0  0  0  0  0  0  0  0
   -5.1350   18.5770  -31.9890 C   0  0  0  0  0  0  0  0  0  0  0  0
   -6.5240   18.4740  -31.8710 C   0  0  0  0  0  0  0  0  0  0  0  0
   -8.3560   22.0890  -30.0180 C   0  0  0  0  0  0  0  0  0  0  0  0
   -7.3720   22.9820  -29.5840 C   0  0  0  0  0  0  0  0  0  0  0  0
   -2.0620   23.5250  -28.1600 C   0  0  0  0  0  0  0  0  0  0  0  0
   -2.2110   22.1990  -27.4800 C   0  0  0  0  0  0  0  0  0  0  0  0
    0.4326   23.9633  -26.6840 H   0  0  0  0  0  0  0  0  0  0  0  0
    0.7357   22.9647  -28.1461 H   0  0  0  0  0  0  0  0  0  0  0  0
    1.1620   24.7097  -28.1461 H   0  0  0  0  0  0  0  0  0  0  0  0
   -6.5539   24.3972  -32.5872 H   0  0  0  0  0  0  0  0  0  0  0  0
   -8.3326   22.8294  -33.3562 H   0  0  0  0  0  0  0  0  0  0  0  0
   -7.4501   20.9187  -34.0759 H   0  0  0  0  0  0  0  0  0  0  0  0
   -4.9717   21.0837  -34.3086 H   0  0  0  0  0  0  0  0  0  0  0  0
   -2.4070   20.2720  -30.6830 H   0  0  0  0  0  0  0  0  0  0  0  0
   -3.4174   22.2228  -30.4349 H   0  0  0  0  0  0  0  0  0  0  0  0
   -2.7589   22.8398  -31.9880 H   0  0  0  0  0  0  0  0  0  0  0  0
   -4.1830   21.7451  -31.9880 H   0  0  0  0  0  0  0  0  0  0  0  0
   -0.4709   21.3944  -30.7763 H   0  0  0  0  0  0  0  0  0  0  0  0
   -0.3919   20.4786  -32.3196 H   0  0  0  0  0  0  0  0  0  0  0  0
   -0.9239   22.1943  -32.3196 H   0  0  0  0  0  0  0  0  0  0  0  0
   -4.4831   17.9059  -31.4106 H   0  0  0  0  0  0  0  0  0  0  0  0
   -6.9622   17.7104  -31.2115 H   0  0  0  0  0  0  0  0  0  0  0  0
   -8.8857   21.4608  -29.2867 H   0  0  0  0  0  0  0  0  0  0  0  0
   -7.1227   23.0462  -28.5145 H   0  0  0  0  0  0  0  0  0  0  0  0
   -2.1949   22.3423  -26.3895 H   0  0  0  0  0  0  0  0  0  0  0  0
   -3.1663   21.7407  -27.7755 H   0  0  0  0  0  0  0  0  0  0  0  0
   -1.3812   21.5401  -27.7755 H   0  0  0  0  0  0  0  0  0  0  0  0
  1  2  1  0
  2  3  1  0
  3  4  1  0
  4  5  1  0
  5  6  2  3
  6  7  1  0
  7  8  2  0
  7  9  2  0
  7 10  1  0
 10 11  2  0
 11 12  1  0
 12 13  2  0
 13 14  1  0
 14 15  1  0
 15 16  2  0
 15 17  2  0
 15 18  1  0
 18 19  2  0
 19 20  1  0
 20 21  2  0
 21 22  1  0
 22 23  2  0
 22 24  2  0
 22 25  1  0
 25 26  1  0
 25 27  1  0
 21 28  1  0
 28 29  2  0
 13 30  1  0
 30 31  2  0
  5 32  1  0
 32 33  1  0
 32  2  2  0
 31 10  1  0
 29 18  1  0
  1 34  1  0
  1 35  1  0
  1 36  1  0
 11 37  1  0
 12 38  1  0
 19 39  1  0
 20 40  1  0
 25 41  1  0
 26 42  1  0
 26 43  1  0
 26 44  1  0
 27 45  1  0
 27 46  1  0
 27 47  1  0
 28 48  1  0
 29 49  1  0
 30 50  1  0
 31 51  1  0
 33 52  1  0
 33 53  1  0
 33 54  1  0
M  CHG  3   3  -1  14  -1  25   1
M  END
>  <UniqueID>  (45) 
44

>  <SMILES>  (45) 
Cc1[n-]oc(=NS(=O)(=O)c2ccc([N-]S(=O)(=O)c3ccc(S(=O)(=O)[NH+](C)C)cc3)cc2)c1C

>  <Energy>  (45) 
85.47392416990174

>  <Genealogy>  (45) 
Cc1[n-]oc(=NS(=O)(=O)c2ccc([N-]S(=O)(=O)c3ccc(S(=O)(=O)[NH+](C)C)cc3)cc2)c1C (protonated)
Cc1[n-]oc(=NS(=O)(=O)c2ccc([N-]S(=O)(=O)c3ccc(S(=O)(=O)[NH+](C)C)cc3)cc2)c1C (3D coordinates assigned)
Cc1[n-]oc(=NS(=O)(=O)c2ccc([N-]S(=O)(=O)c3ccc(S(=O)(=O)[NH+](C)C)cc3)cc2)c1C (optimized conformer: 85.47392416990174 kcal/mol)

>  <smiles>  (45) 
Cc1[nH]oc(=NS(=O)(=O)c2ccc(NS(=O)(=O)c3ccc(S(=O)(=O)N(C)C)cc3)cc2)c1C

>  <score_type>  (45) 
oracle

>  <origin>  (45) 
adgpu

>  <m_score__min__energy>  (45) 
-12.56

>  <m_primary>  (45) 
energy

$$$$
45:0
     RDKit          3D

 47 49  0  0  0  0  0  0  0  0999 V2000
   -2.5040   21.6170  -32.6230 C   0  0  0  0  0  0  0  0  0  0  0  0
   -3.6640   21.2160  -31.7700 C   0  0  0  0  0  0  0  0  0  0  0  0
   -3.4900   21.0400  -30.5340 O   0  0  0  0  0  0  0  0  0  0  0  0
   -4.9960   21.2010  -32.3070 N   0  0  0  0  0  0  0  0  0  0  0  0
   -6.1830   21.5420  -31.5910 C   0  0  0  0  0  0  0  0  0  0  0  0
   -7.2670   20.8790  -32.1140 C   0  0  0  0  0  0  0  0  0  0  0  0
   -8.5460   21.0220  -31.5780 C   0  0  0  0  0  0  0  0  0  0  0  0
   -8.7260   21.8880  -30.4940 C   0  0  0  0  0  0  0  0  0  0  0  0
   -7.6440   22.6320  -30.0000 C   0  0  0  0  0  0  0  0  0  0  0  0
   -6.3580   22.5000  -30.5610 C   0  0  0  0  0  0  0  0  0  0  0  0
   -5.1090   23.6410  -30.0470 S   0  0  0  0  0  0  0  0  0  0  0  0
   -4.2470   24.0360  -31.2110 O   0  0  0  0  0  0  0  0  0  0  0  0
   -5.7630   24.8910  -29.5260 O   0  0  0  0  0  0  0  0  0  0  0  0
   -4.1300   22.9590  -28.7940 N   0  0  0  0  0  0  0  0  0  0  0  0
   -3.0300   23.7070  -28.2760 C   0  0  0  0  0  0  0  0  0  0  0  0
   -1.7320   23.7350  -28.7510 C   0  0  0  0  0  0  0  0  0  0  0  0
   -1.2030   23.0370  -29.9600 C   0  0  0  0  0  0  0  0  0  0  0  0
   -1.0150   24.6100  -28.0160 N   0  0  0  0  0  0  0  0  0  0  0  0
   -1.8180   25.1140  -27.0890 N   0  0  0  0  0  0  0  0  0  0  0  0
   -1.3940   26.1100  -26.1120 C   0  0  0  0  0  0  0  0  0  0  0  0
   -3.0610   24.6060  -27.2320 C   0  0  0  0  0  0  0  0  0  0  0  0
   -4.2330   24.9180  -26.3510 C   0  0  0  0  0  0  0  0  0  0  0  0
   -6.8880   20.0760  -33.3020 C   0  0  0  0  0  0  0  0  0  0  0  0
   -5.3710   20.3630  -33.4580 C   0  0  2  0  0  0  0  0  0  0  0  0
   -4.5720   19.0510  -33.5190 C   0  0  0  0  0  0  0  0  0  0  0  0
   -1.6600   21.9087  -31.9806 H   0  0  0  0  0  0  0  0  0  0  0  0
   -2.2057   20.7698  -33.2581 H   0  0  0  0  0  0  0  0  0  0  0  0
   -2.7926   22.4675  -33.2581 H   0  0  0  0  0  0  0  0  0  0  0  0
   -9.3963   20.4653  -31.9988 H   0  0  0  0  0  0  0  0  0  0  0  0
   -9.7177   21.9857  -30.0282 H   0  0  0  0  0  0  0  0  0  0  0  0
   -7.8017   23.3281  -29.1630 H   0  0  0  0  0  0  0  0  0  0  0  0
   -4.0700   21.9180  -28.7510 H   0  0  0  0  0  0  0  0  0  0  0  0
   -0.5658   22.1962  -29.6485 H   0  0  0  0  0  0  0  0  0  0  0  0
   -2.0425   22.6578  -30.5611 H   0  0  0  0  0  0  0  0  0  0  0  0
   -0.6109   23.7427  -30.5611 H   0  0  0  0  0  0  0  0  0  0  0  0
   -1.5596   25.7211  -25.0964 H   0  0  0  0  0  0  0  0  0  0  0  0
   -0.3249   26.3283  -26.2513 H   0  0  0  0  0  0  0  0  0  0  0  0
   -1.9777   27.0319  -26.2513 H   0  0  0  0  0  0  0  0  0  0  0  0
   -3.9307   24.8375  -25.2964 H   0  0  0  0  0  0  0  0  0  0  0  0
   -4.5831   25.9406  -26.5550 H   0  0  0  0  0  0  0  0  0  0  0  0
   -5.0452   24.2048  -26.5550 H   0  0  0  0  0  0  0  0  0  0  0  0
   -7.0706   19.0052  -33.1284 H   0  0  0  0  0  0  0  0  0  0  0  0
   -7.4694   20.3343  -34.1994 H   0  0  0  0  0  0  0  0  0  0  0  0
   -5.1443   20.8866  -34.3984 H   0  0  0  0  0  0  0  0  0  0  0  0
   -4.3600   18.7029  -32.4973 H   0  0  0  0  0  0  0  0  0  0  0  0
   -5.1592   18.2885  -34.0517 H   0  0  0  0  0  0  0  0  0  0  0  0
   -3.6250   19.2228  -34.0517 H   0  0  0  0  0  0  0  0  0  0  0  0
  1  2  1  0
  2  3  2  0
  2  4  1  0
  4  5  1  0
  5  6  2  0
  6  7  1  0
  7  8  2  0
  8  9  1  0
  9 10  2  0
 10 11  1  0
 11 12  2  0
 11 13  2  0
 11 14  1  0
 14 15  1  0
 15 16  1  0
 16 17  1  0
 16 18  2  0
 18 19  1  0
 19 20  1  0
 19 21  1  0
 21 22  1  0
  6 23  1  0
 23 24  1  0
 24 25  1  0
 24  4  1  0
 10  5  1  0
 21 15  2  0
  1 26  1  0
  1 27  1  0
  1 28  1  0
  7 29  1  0
  8 30  1  0
  9 31  1  0
 14 32  1  0
 17 33  1  0
 17 34  1  0
 17 35  1  0
 20 36  1  0
 20 37  1  0
 20 38  1  0
 22 39  1  0
 22 40  1  0
 22 41  1  0
 23 42  1  0
 23 43  1  0
 24 44  1  6
 25 45  1  0
 25 46  1  0
 25 47  1  0
M  END
>  <UniqueID>  (46) 
45

>  <SMILES>  (46) 
CC(=O)N1c2c(cccc2S(=O)(=O)Nc2c(C)nn(C)c2C)C[C@@H]1C

>  <Energy>  (46) 
107.28024986270073

>  <Genealogy>  (46) 
CC(=O)N1c2c(cccc2S(=O)(=O)Nc2c(C)nn(C)c2C)C[C@@H]1C (chirality)
CC(=O)N1c2c(cccc2S(=O)(=O)Nc2c(C)nn(C)c2C)C[C@@H]1C (3D coordinates assigned)
CC(=O)N1c2c(cccc2S(=O)(=O)Nc2c(C)nn(C)c2C)C[C@@H]1C (nonaromatic ring conformer: 107.28024986270073 kcal/mol)

>  <smiles>  (46) 
CC(=O)N1c2c(cccc2S(=O)(=O)Nc2c(C)nn(C)c2C)CC1C

>  <score_type>  (46) 
oracle

>  <origin>  (46) 
adgpu

>  <m_score__min__energy>  (46) 
-8.3000000000000007

>  <m_primary>  (46) 
energy

$$$$
46:0
     RDKit          3D

 40 42  0  0  0  0  0  0  0  0999 V2000
   -1.1880   25.8850  -27.7010 C   0  0  0  0  0  0  0  0  0  0  0  0
   -1.8490   25.5850  -28.9260 O   0  0  0  0  0  0  0  0  0  0  0  0
   -2.6150   24.4300  -29.1540 C   0  0  0  0  0  0  0  0  0  0  0  0
   -2.3930   23.2320  -28.4490 C   0  0  0  0  0  0  0  0  0  0  0  0
   -3.1780   22.0990  -28.7060 C   0  0  0  0  0  0  0  0  0  0  0  0
   -2.9690   20.8410  -27.9150 C   0  0  0  0  0  0  0  0  0  0  0  0
   -4.2060   22.1710  -29.6560 C   0  0  0  0  0  0  0  0  0  0  0  0
   -4.4270   23.3520  -30.3810 C   0  0  0  0  0  0  0  0  0  0  0  0
   -5.5510   23.4130  -31.3780 C   0  0  0  0  0  0  0  0  0  0  0  0
   -7.1090   22.9280  -30.5700 S   0  0  0  0  0  0  0  0  0  0  0  0
   -7.1980   21.3530  -31.4330 C   0  0  0  0  0  0  0  0  0  0  0  0
   -6.0280   20.7470  -31.7570 N   0  0  0  0  0  0  0  0  0  0  0  0
   -5.9980   19.5560  -32.4020 C   0  0  0  0  0  0  0  0  0  0  0  0
   -4.7710   18.9610  -32.7170 C   0  0  0  0  0  0  0  0  0  0  0  0
   -4.7420   17.7330  -33.3830 C   0  0  0  0  0  0  0  0  0  0  0  0
   -5.9360   17.0960  -33.7330 C   0  0  0  0  0  0  0  0  0  0  0  0
   -7.1650   17.6840  -33.4210 C   0  0  0  0  0  0  0  0  0  0  0  0
   -7.2040   18.9230  -32.7510 C   0  0  0  0  0  0  0  0  0  0  0  0
   -8.4100   19.5600  -32.4130 C   0  0  0  0  0  0  0  0  0  0  0  0
   -9.5100   19.0160  -32.7140 O   0  0  0  0  0  0  0  0  0  0  0  0
   -8.3970   20.7660  -31.7600 N   0  0  0  0  0  0  0  0  0  0  0  0
   -9.6190   21.3920  -31.4280 N   0  0  0  0  0  0  0  0  0  0  0  0
   -3.6340   24.4840  -30.1160 C   0  0  0  0  0  0  0  0  0  0  0  0
   -3.8590   25.6740  -30.8010 O   0  0  0  0  0  0  0  0  0  0  0  0
   -1.8302   25.5935  -26.8569 H   0  0  0  0  0  0  0  0  0  0  0  0
   -0.2404   25.3288  -27.6499 H   0  0  0  0  0  0  0  0  0  0  0  0
   -0.9828   26.9645  -27.6499 H   0  0  0  0  0  0  0  0  0  0  0  0
   -1.5976   23.1843  -27.6907 H   0  0  0  0  0  0  0  0  0  0  0  0
   -3.0075   21.0729  -26.8404 H   0  0  0  0  0  0  0  0  0  0  0  0
   -3.7591   20.1168  -28.1624 H   0  0  0  0  0  0  0  0  0  0  0  0
   -1.9871   20.4112  -28.1624 H   0  0  0  0  0  0  0  0  0  0  0  0
   -4.8453   21.2939  -29.8349 H   0  0  0  0  0  0  0  0  0  0  0  0
   -5.6426   24.4388  -31.7645 H   0  0  0  0  0  0  0  0  0  0  0  0
   -5.3403   22.7244  -32.2095 H   0  0  0  0  0  0  0  0  0  0  0  0
   -3.8303   19.4596  -32.4405 H   0  0  0  0  0  0  0  0  0  0  0  0
   -3.7775   17.2666  -33.6324 H   0  0  0  0  0  0  0  0  0  0  0  0
   -5.9083   16.1286  -34.2558 H   0  0  0  0  0  0  0  0  0  0  0  0
   -8.1022   17.1793  -33.6986 H   0  0  0  0  0  0  0  0  0  0  0  0
   -9.6670   22.3810  -31.0990 H   0  0  0  0  0  0  0  0  0  0  0  0
  -10.5280   20.8830  -31.5000 H   0  0  0  0  0  0  0  0  0  0  0  0
  1  2  1  0
  2  3  1  0
  3  4  2  0
  4  5  1  0
  5  6  1  0
  5  7  2  0
  7  8  1  0
  8  9  1  0
  9 10  1  0
 10 11  1  0
 11 12  2  0
 12 13  1  0
 13 14  2  0
 14 15  1  0
 15 16  2  0
 16 17  1  0
 17 18  2  0
 18 19  1  0
 19 20  2  0
 19 21  1  0
 21 22  1  0
  8 23  2  0
 23 24  1  0
 23  3  1  0
 21 11  1  0
 18 13  1  0
  1 25  1  0
  1 26  1  0
  1 27  1  0
  4 28  1  0
  6 29  1  0
  6 30  1  0
  6 31  1  0
  7 32  1  0
  9 33  1  0
  9 34  1  0
 14 35  1  0
 15 36  1  0
 16 37  1  0
 17 38  1  0
 22 39  1  0
 22 40  1  0
M  CHG  1  24  -1
M  END
>  <UniqueID>  (47) 
46

>  <SMILES>  (47) 
COc1cc(C)cc(CSc2nc3ccccc3c(=O)n2N)c1[O-]

>  <Energy>  (47) 
44.796216066698314

>  <Genealogy>  (47) 
COc1cc(C)cc(CSc2nc3ccccc3c(=O)n2N)c1[O-] (protonated)
COc1cc(C)cc(CSc2nc3ccccc3c(=O)n2N)c1[O-] (3D coordinates assigned)
COc1cc(C)cc(CSc2nc3ccccc3c(=O)n2N)c1[O-] (optimized conformer: 44.796216066698314 kcal/mol)

>  <smiles>  (47) 
COc1cc(C)cc(CSc2nc3ccccc3c(=O)n2N)c1O

>  <score_type>  (47) 
oracle

>  <origin>  (47) 
adgpu

>  <m_score__min__energy>  (47) 
-12.18

>  <m_primary>  (47) 
energy

$$$$
47:0
     RDKit          3D

 27 28  0  0  0  0  0  0  0  0999 V2000
   -9.3310   19.7920  -33.0830 N   0  0  0  0  0  0  0  0  0  0  0  0
   -8.7720   20.4750  -31.9200 C   0  0  0  0  0  0  0  0  0  0  0  0
   -7.2710   20.3320  -31.9130 C   0  0  0  0  0  0  0  0  0  0  0  0
   -6.4780   21.3610  -31.3790 C   0  0  0  0  0  0  0  0  0  0  0  0
   -5.0750   21.2660  -31.3840 C   0  0  0  0  0  0  0  0  0  0  0  0
   -4.2420   22.3540  -30.8110 C   0  0  0  0  0  0  0  0  0  0  0  0
   -3.0420   22.0570  -30.1370 C   0  0  0  0  0  0  0  0  0  0  0  0
   -2.2600   23.0830  -29.5980 C   0  0  0  0  0  0  0  0  0  0  0  0
   -2.6630   24.4140  -29.7240 C   0  0  0  0  0  0  0  0  0  0  0  0
   -1.8810   25.4290  -29.1840 O   0  0  0  0  0  0  0  0  0  0  0  0
   -3.8530   24.7230  -30.3910 C   0  0  0  0  0  0  0  0  0  0  0  0
   -4.2580   26.0470  -30.5230 O   0  0  0  0  0  0  0  0  0  0  0  0
   -4.6400   23.6990  -30.9320 C   0  0  0  0  0  0  0  0  0  0  0  0
   -4.4730   20.1260  -31.9440 C   0  0  0  0  0  0  0  0  0  0  0  0
   -5.2550   19.1080  -32.4920 C   0  0  0  0  0  0  0  0  0  0  0  0
   -6.6490   19.2080  -32.4850 C   0  0  0  0  0  0  0  0  0  0  0  0
   -7.4070   18.1880  -33.0510 O   0  0  0  0  0  0  0  0  0  0  0  0
   -9.4640   18.7870  -32.8280 H   0  0  0  0  0  0  0  0  0  0  0  0
   -8.6170   19.8130  -33.8480 H   0  0  0  0  0  0  0  0  0  0  0  0
   -9.0365   21.5419  -31.9616 H   0  0  0  0  0  0  0  0  0  0  0  0
   -9.1828   20.0254  -31.0040 H   0  0  0  0  0  0  0  0  0  0  0  0
   -6.9605   22.2523  -30.9515 H   0  0  0  0  0  0  0  0  0  0  0  0
   -2.7177   21.0110  -30.0338 H   0  0  0  0  0  0  0  0  0  0  0  0
   -1.3242   22.8409  -29.0729 H   0  0  0  0  0  0  0  0  0  0  0  0
   -5.5754   23.9471  -31.4550 H   0  0  0  0  0  0  0  0  0  0  0  0
   -3.3768   20.0354  -31.9504 H   0  0  0  0  0  0  0  0  0  0  0  0
   -4.7719   18.2229  -32.9314 H   0  0  0  0  0  0  0  0  0  0  0  0
  1  2  1  0
  2  3  1  0
  3  4  2  0
  4  5  1  0
  5  6  1  0
  6  7  2  0
  7  8  1  0
  8  9  2  0
  9 10  1  0
  9 11  1  0
 11 12  1  0
 11 13  2  0
  5 14  2  0
 14 15  1  0
 15 16  2  0
 16 17  1  0
 16  3  1  0
 13  6  1  0
  1 18  1  0
  1 19  1  0
  2 20  1  0
  2 21  1  0
  4 22  1  0
  7 23  1  0
  8 24  1  0
 13 25  1  0
 14 26  1  0
 15 27  1  0
M  CHG  3  10  -1  12  -1  17  -1
M  END
>  <UniqueID>  (48) 
47

>  <SMILES>  (48) 
NCc1cc(-c2ccc([O-])c([O-])c2)ccc1[O-]

>  <Energy>  (48) 
32.25820201661185

>  <Genealogy>  (48) 
NCc1cc(-c2ccc([O-])c([O-])c2)ccc1[O-] (protonated)
NCc1cc(-c2ccc([O-])c([O-])c2)ccc1[O-] (3D coordinates assigned)
NCc1cc(-c2ccc([O-])c([O-])c2)ccc1[O-] (optimized conformer: 32.25820201661185 kcal/mol)

>  <smiles>  (48) 
NCc1cc(-c2ccc(O)c(O)c2)ccc1O

>  <score_type>  (48) 
oracle

>  <origin>  (48) 
adgpu

>  <m_score__min__energy>  (48) 
-12.32

>  <m_primary>  (48) 
energy

$$$$
48:0
     RDKit          3D

 41 43  0  0  0  0  0  0  0  0999 V2000
   -0.2570   22.3430  -25.0550 N   0  0  0  0  0  0  0  0  0  0  0  0
   -0.8090   22.8360  -25.9440 C   0  0  0  0  0  0  0  0  0  0  0  0
   -1.4970   23.4510  -27.0490 C   0  0  0  0  0  0  0  0  0  0  0  0
   -2.5890   22.8050  -27.6420 C   0  0  0  0  0  0  0  0  0  0  0  0
   -3.2580   23.4010  -28.7160 C   0  0  0  0  0  0  0  0  0  0  0  0
   -2.8280   24.6440  -29.2160 C   0  0  0  0  0  0  0  0  0  0  0  0
   -3.4980   25.2900  -30.3080 N   0  0  0  0  0  0  0  0  0  0  0  0
   -4.9060   25.2520  -30.5780 C   0  0  0  0  0  0  0  0  0  0  0  0
   -5.5670   26.3200  -30.4800 O   0  0  0  0  0  0  0  0  0  0  0  0
   -5.5890   24.0130  -31.0180 C   0  0  0  0  0  0  0  0  0  0  0  0
   -6.9180   23.7500  -30.6420 C   0  0  0  0  0  0  0  0  0  0  0  0
   -7.5530   22.5780  -31.0620 C   0  0  0  0  0  0  0  0  0  0  0  0
   -6.8700   21.6400  -31.8520 C   0  0  0  0  0  0  0  0  0  0  0  0
   -7.5340   20.4410  -32.3000 N   0  0  0  0  0  0  0  0  0  0  0  0
   -8.7700   19.9950  -31.6460 C   0  0  0  0  0  0  0  0  0  0  0  0
   -9.0570   18.5230  -31.9770 C   0  0  0  0  0  0  0  0  0  0  0  0
   -7.8050   17.7530  -31.9880 N   0  0  0  0  0  0  0  0  0  0  0  0
   -6.8850   18.1780  -33.0650 C   0  0  0  0  0  0  0  0  0  0  0  0
   -7.0170   19.6690  -33.4360 C   0  0  0  0  0  0  0  0  0  0  0  0
   -5.5400   21.8990  -32.2210 C   0  0  0  0  0  0  0  0  0  0  0  0
   -4.9030   23.0690  -31.8010 C   0  0  0  0  0  0  0  0  0  0  0  0
   -1.7500   25.2950  -28.6030 C   0  0  0  0  0  0  0  0  0  0  0  0
   -1.0810   24.6990  -27.5290 C   0  0  0  0  0  0  0  0  0  0  0  0
   -2.9210   21.8274  -27.2625 H   0  0  0  0  0  0  0  0  0  0  0  0
   -4.1230   22.8964  -29.1712 H   0  0  0  0  0  0  0  0  0  0  0  0
   -7.4612   24.4710  -30.0135 H   0  0  0  0  0  0  0  0  0  0  0  0
   -8.5968   22.3890  -30.7710 H   0  0  0  0  0  0  0  0  0  0  0  0
   -8.6630   20.1062  -30.5569 H   0  0  0  0  0  0  0  0  0  0  0  0
   -9.6058   20.6097  -32.0114 H   0  0  0  0  0  0  0  0  0  0  0  0
   -9.7343   18.1050  -31.2177 H   0  0  0  0  0  0  0  0  0  0  0  0
   -9.5249   18.4626  -32.9707 H   0  0  0  0  0  0  0  0  0  0  0  0
   -8.0350   16.7400  -32.1160 H   0  0  0  0  0  0  0  0  0  0  0  0
   -7.3290   17.8580  -31.0600 H   0  0  0  0  0  0  0  0  0  0  0  0
   -5.8526   17.9919  -32.7342 H   0  0  0  0  0  0  0  0  0  0  0  0
   -7.1476   17.5976  -33.9618 H   0  0  0  0  0  0  0  0  0  0  0  0
   -6.0284   20.0599  -33.7186 H   0  0  0  0  0  0  0  0  0  0  0  0
   -7.7190   19.7639  -34.2776 H   0  0  0  0  0  0  0  0  0  0  0  0
   -4.9958   21.1751  -32.8454 H   0  0  0  0  0  0  0  0  0  0  0  0
   -3.8564   23.2529  -32.0853 H   0  0  0  0  0  0  0  0  0  0  0  0
   -1.4275   26.2811  -28.9685 H   0  0  0  0  0  0  0  0  0  0  0  0
   -0.2273   25.2110  -27.0610 H   0  0  0  0  0  0  0  0  0  0  0  0
  1  2  3  0
  2  3  1  0
  3  4  2  0
  4  5  1  0
  5  6  2  0
  6  7  1  0
  7  8  1  0
  8  9  2  0
  8 10  1  0
 10 11  2  0
 11 12  1  0
 12 13  2  0
 13 14  1  0
 14 15  1  0
 15 16  1  0
 16 17  1  0
 17 18  1  0
 18 19  1  0
 13 20  1  0
 20 21  2  0
  6 22  1  0
 22 23  2  0
 23  3  1  0
 21 10  1  0
 19 14  1  0
  4 24  1  0
  5 25  1  0
 11 26  1  0
 12 27  1  0
 15 28  1  0
 15 29  1  0
 16 30  1  0
 16 31  1  0
 17 32  1  0
 17 33  1  0
 18 34  1  0
 18 35  1  0
 19 36  1  0
 19 37  1  0
 20 38  1  0
 21 39  1  0
 22 40  1  0
 23 41  1  0
M  CHG  2   7  -1  17   1
M  END
>  <UniqueID>  (49) 
48

>  <SMILES>  (49) 
N#Cc1ccc([N-]C(=O)c2ccc(N3CC[NH2+]CC3)cc2)cc1

>  <Energy>  (49) 
56.74602460995039

>  <Genealogy>  (49) 
N#Cc1ccc([N-]C(=O)c2ccc(N3CC[NH2+]CC3)cc2)cc1 (protonated)
N#Cc1ccc([N-]C(=O)c2ccc(N3CC[NH2+]CC3)cc2)cc1 (3D coordinates assigned)
N#Cc1ccc([N-]C(=O)c2ccc(N3CC[NH2+]CC3)cc2)cc1 (nonaromatic ring conformer: 56.74602460995039 kcal/mol)

>  <smiles>  (49) 
N#Cc1ccc(NC(=O)c2ccc(N3CCNCC3)cc2)cc1

>  <score_type>  (49) 
oracle

>  <origin>  (49) 
adgpu

>  <m_score__min__energy>  (49) 
-9.7599999999999998

>  <m_primary>  (49) 
energy

$$$$
49:0
     RDKit          3D

 40 43  0  0  0  0  0  0  0  0999 V2000
   -2.2310   17.6440  -35.4590 H   0  0  0  0  0  0  0  0  0  0  0  0
   -3.0800   17.6590  -34.8520 N   0  0  0  0  0  0  0  0  0  0  0  0
   -3.4120   18.6990  -34.1570 C   0  0  0  0  0  0  0  0  0  0  0  0
   -4.5290   18.6590  -33.3880 N   0  0  0  0  0  0  0  0  0  0  0  0
   -4.9290   19.7270  -32.6430 C   0  0  0  0  0  0  0  0  0  0  0  0
   -6.1890   19.6080  -31.8160 C   0  0  0  0  0  0  0  0  0  0  0  0
   -6.1418   18.6826  -31.2232 H   0  0  0  0  0  0  0  0  0  0  0  0
   -6.2571   20.4887  -31.1605 H   0  0  0  0  0  0  0  0  0  0  0  0
   -7.4410   19.5690  -32.7040 C   0  0  0  0  0  0  0  0  0  0  0  0
   -6.8962   19.4259  -33.6488 H   0  0  0  0  0  0  0  0  0  0  0  0
   -8.6810   18.9440  -32.0790 C   0  0  0  0  0  0  0  0  0  0  0  0
   -9.3837   18.3731  -32.7037 H   0  0  0  0  0  0  0  0  0  0  0  0
   -8.8676   18.2563  -31.2410 H   0  0  0  0  0  0  0  0  0  0  0  0
   -8.5830   20.4540  -32.2300 C   0  0  0  0  0  0  0  0  0  0  0  0
   -9.2155   20.9753  -32.9636 H   0  0  0  0  0  0  0  0  0  0  0  0
   -8.6699   21.3108  -31.5457 H   0  0  0  0  0  0  0  0  0  0  0  0
   -4.1320   20.8950  -32.6370 C   0  0  0  0  0  0  0  0  0  0  0  0
   -4.4450   22.0750  -31.8010 C   0  0  0  0  0  0  0  0  0  0  0  0
   -3.4030   22.8060  -31.1740 C   0  0  0  0  0  0  0  0  0  0  0  0
   -2.3587   22.4880  -31.3094 H   0  0  0  0  0  0  0  0  0  0  0  0
   -3.6910   23.9400  -30.3760 C   0  0  0  0  0  0  0  0  0  0  0  0
   -2.7000   24.6890  -29.7260 O   0  0  0  0  0  0  0  0  0  0  0  0
   -1.9500   24.2230  -28.6100 C   0  0  0  0  0  0  0  0  0  0  0  0
   -2.4476   24.5322  -27.6790 H   0  0  0  0  0  0  0  0  0  0  0  0
   -1.8853   23.1254  -28.6442 H   0  0  0  0  0  0  0  0  0  0  0  0
   -0.9373   24.6512  -28.6442 H   0  0  0  0  0  0  0  0  0  0  0  0
   -5.0300   24.3080  -30.2470 C   0  0  0  0  0  0  0  0  0  0  0  0
   -6.0370   23.6120  -30.8620 C   0  0  0  0  0  0  0  0  0  0  0  0
   -5.7850   22.4940  -31.6490 C   0  0  0  0  0  0  0  0  0  0  0  0
   -6.6063   21.9510  -32.1395 H   0  0  0  0  0  0  0  0  0  0  0  0
   -7.2260   24.2290  -30.5400 C   0  0  0  0  0  0  0  0  0  0  0  0
   -8.2378   23.9394  -30.8601 H   0  0  0  0  0  0  0  0  0  0  0  0
   -6.8710   25.2970  -29.7230 C   0  0  0  0  0  0  0  0  0  0  0  0
   -7.5834   26.0085  -29.2800 H   0  0  0  0  0  0  0  0  0  0  0  0
   -5.5300   25.3420  -29.5470 N   0  0  0  0  0  0  0  0  0  0  0  0
   -4.9980   26.0390  -28.9820 H   0  0  0  0  0  0  0  0  0  0  0  0
   -2.9950   20.9180  -33.4530 C   0  0  0  0  0  0  0  0  0  0  0  0
   -2.3714   21.8232  -33.4942 H   0  0  0  0  0  0  0  0  0  0  0  0
   -2.6550   19.8310  -34.1950 N   0  0  0  0  0  0  0  0  0  0  0  0
   -1.7950   19.8750  -34.7870 H   0  0  0  0  0  0  0  0  0  0  0  0
  1  2  1  0
  2  3  2  0
  3  4  1  0
  4  5  2  0
  5  6  1  0
  6  7  1  0
  6  8  1  0
  6  9  1  0
  9 10  1  0
  9 11  1  0
 11 12  1  0
 11 13  1  0
 11 14  1  0
 14 15  1  0
 14 16  1  0
  5 17  1  0
 17 18  1  0
 18 19  2  0
 19 20  1  0
 19 21  1  0
 21 22  1  0
 22 23  1  0
 23 24  1  0
 23 25  1  0
 23 26  1  0
 21 27  2  0
 27 28  1  0
 28 29  2  0
 29 30  1  0
 28 31  1  0
 31 32  1  0
 31 33  2  0
 33 34  1  0
 33 35  1  0
 35 36  1  0
 17 37  2  0
 37 38  1  0
 37 39  1  0
 39 40  1  0
 39  3  1  0
 14  9  1  0
 29 18  1  0
 35 27  1  0
M  END
>  <UniqueID>  (50) 
49

>  <SMILES>  (50) 
[H]/N=c1/nc(CC2CC2)c(-c2cc(OC)c3[nH]ccc3c2)c[nH]1

>  <Energy>  (50) 
345.12068332261225

>  <Genealogy>  (50) 
[H]/N=c1/nc(CC2CC2)c(-c2cc(OC)c3[nH]ccc3c2)c[nH]1 (cis-trans isomerization)
[H]/N=c1/nc(CC2CC2)c(-c2cc(OC)c3[nH]ccc3c2)c[nH]1 (3D coordinates assigned)
[H]/N=c1/nc(CC2CC2)c(-c2cc(OC)c3[nH]ccc3c2)c[nH]1 (nonaromatic ring conformer: 345.12068332261225 kcal/mol)

>  <smiles>  (50) 
COc1cc(-c2c[nH]c(=N)nc2CC2CC2)cc2cc[nH]c12

>  <score_type>  (50) 
oracle

>  <origin>  (50) 
adgpu

>  <m_score__min__energy>  (50) 
-8.1899999999999995

>  <m_primary>  (50) 
energy

$$$$
