0:0
     RDKit          3D

 37 40  0  0  0  0  0  0  0  0999 V2000
   -3.4020   25.0250  -30.3880 F   0  0  0  0  0  0  0  0  0  0  0  0
   -4.6690   24.5420  -30.4640 C   0  0  0  0  0  0  0  0  0  0  0  0
   -5.7340   25.3450  -30.0480 C   0  0  0  0  0  0  0  0  0  0  0  0
   -7.0410   24.8580  -30.1000 C   0  0  0  0  0  0  0  0  0  0  0  0
   -7.2890   23.5690  -30.5740 C   0  0  0  0  0  0  0  0  0  0  0  0
   -6.2300   22.7540  -30.9910 C   0  0  0  0  0  0  0  0  0  0  0  0
   -6.5940   21.1530  -31.6280 Cl  0  0  0  0  0  0  0  0  0  0  0  0
   -4.9080   23.2360  -30.9260 C   0  0  0  0  0  0  0  0  0  0  0  0
   -3.7690   22.3920  -31.3220 C   0  0  0  0  0  0  0  0  0  0  0  0
   -3.3530   22.2950  -32.6130 N   0  0  0  0  0  0  0  0  0  0  0  0
   -2.2730   21.5010  -32.5180 C   0  0  0  0  0  0  0  0  0  0  0  0
   -1.4280   21.0820  -33.5380 C   0  0  0  0  0  0  0  0  0  0  0  0
   -0.3550   20.3030  -33.2040 N   0  0  0  0  0  0  0  0  0  0  0  0
   -0.0980   19.9370  -31.9080 C   0  0  0  0  0  0  0  0  0  0  0  0
   -0.9450   20.3610  -30.8670 C   0  0  0  0  0  0  0  0  0  0  0  0
   -2.0410   21.1480  -31.2230 C   0  0  0  0  0  0  0  0  0  0  0  0
   -2.9900   21.7000  -30.4450 N   0  0  0  0  0  0  0  0  0  0  0  0
   -3.0640   21.7110  -28.9800 C   0  0  0  0  0  0  0  0  0  0  0  0
   -2.5340   23.0130  -28.4430 C   0  0  0  0  0  0  0  0  0  0  0  0
   -3.2350   23.6990  -27.4370 C   0  0  0  0  0  0  0  0  0  0  0  0
   -2.7230   24.8850  -26.9050 C   0  0  0  0  0  0  0  0  0  0  0  0
   -1.5060   25.3940  -27.3690 C   0  0  0  0  0  0  0  0  0  0  0  0
   -0.8620   26.8810  -26.6950 Cl  0  0  0  0  0  0  0  0  0  0  0  0
   -0.8020   24.7170  -28.3690 C   0  0  0  0  0  0  0  0  0  0  0  0
   -1.3130   23.5310  -28.9050 C   0  0  0  0  0  0  0  0  0  0  0  0
   -5.5420   26.3632  -29.6787 H   0  0  0  0  0  0  0  0  0  0  0  0
   -7.8767   25.4910  -29.7669 H   0  0  0  0  0  0  0  0  0  0  0  0
   -8.3213   23.1918  -30.6201 H   0  0  0  0  0  0  0  0  0  0  0  0
   -1.6165   21.3684  -34.5832 H   0  0  0  0  0  0  0  0  0  0  0  0
    0.7754   19.3082  -31.6804 H   0  0  0  0  0  0  0  0  0  0  0  0
   -0.7518   20.0845  -29.8200 H   0  0  0  0  0  0  0  0  0  0  0  0
   -4.1118   21.5889  -28.6681 H   0  0  0  0  0  0  0  0  0  0  0  0
   -2.4556   20.8848  -28.5835 H   0  0  0  0  0  0  0  0  0  0  0  0
   -4.1911   23.3005  -27.0667 H   0  0  0  0  0  0  0  0  0  0  0  0
   -3.2781   25.4193  -26.1199 H   0  0  0  0  0  0  0  0  0  0  0  0
    0.1550   25.1177  -28.7346 H   0  0  0  0  0  0  0  0  0  0  0  0
   -0.7562   23.0013  -29.6920 H   0  0  0  0  0  0  0  0  0  0  0  0
  1  2  1  0
  2  3  2  0
  3  4  1  0
  4  5  2  0
  5  6  1  0
  6  7  1  0
  6  8  2  0
  8  9  1  0
  9 10  2  0
 10 11  1  0
 11 12  2  0
 12 13  1  0
 13 14  2  0
 14 15  1  0
 15 16  2  0
 16 17  1  0
 17 18  1  0
 18 19  1  0
 19 20  2  0
 20 21  1  0
 21 22  2  0
 22 23  1  0
 22 24  1  0
 24 25  2  0
  8  2  1  0
 17  9  1  0
 25 19  1  0
 16 11  1  0
  3 26  1  0
  4 27  1  0
  5 28  1  0
 12 29  1  0
 14 30  1  0
 15 31  1  0
 18 32  1  0
 18 33  1  0
 20 34  1  0
 21 35  1  0
 24 36  1  0
 25 37  1  0
M  END
>  <UniqueID>  (1) 
1

>  <SMILES>  (1) 
Fc1cccc(Cl)c1-c1nc2cnccc2n1Cc1ccc(Cl)cc1

>  <Energy>  (1) 
85.79494828230476

>  <Genealogy>  (1) 
Fc1cccc(Cl)c1-c1nc2cnccc2n1Cc1ccc(Cl)cc1 (3D coordinates assigned)
Fc1cccc(Cl)c1-c1nc2cnccc2n1Cc1ccc(Cl)cc1 (optimized conformer: 85.79494828230476 kcal/mol)

>  <smiles>  (1) 
Fc1cccc(Cl)c1-c1nc2cnccc2n1Cc1ccc(Cl)cc1

>  <score_type>  (1) 
oracle

>  <origin>  (1) 
adgpu

>  <m_score__min__energy>  (1) 
-7.6900000000000004

>  <m_primary>  (1) 
energy

$$$$
1:0
     RDKit          3D

 57 61  0  0  0  0  0  0  0  0999 V2000
    4.1160   27.5750  -35.5410 N   0  0  0  0  0  0  0  0  0  0  0  0
    3.2070   26.8770  -35.7060 C   0  0  0  0  0  0  0  0  0  0  0  0
    2.0820   25.9960  -35.9070 C   0  0  0  0  0  0  0  0  0  0  0  0
    2.2570   24.6390  -35.6060 C   0  0  0  0  0  0  0  0  0  0  0  0
    1.1850   23.7350  -35.7090 C   0  0  0  0  0  0  0  0  0  0  0  0
    1.3430   22.2880  -35.4040 C   0  0  0  0  0  0  0  0  0  0  0  0
    2.5950   21.6570  -35.4190 C   0  0  0  0  0  0  0  0  0  0  0  0
    2.6660   20.3010  -35.1140 C   0  0  0  0  0  0  0  0  0  0  0  0
    1.5400   19.6060  -34.8050 N   0  0  0  0  0  0  0  0  0  0  0  0
    0.3210   20.2260  -34.7980 C   0  0  0  0  0  0  0  0  0  0  0  0
   -0.7750   19.5910  -34.4850 N   0  0  0  0  0  0  0  0  0  0  0  0
   -0.9190   18.1850  -34.2420 C   0  0  0  0  0  0  0  0  0  0  0  0
   -1.4650   17.7520  -33.0280 C   0  0  0  0  0  0  0  0  0  0  0  0
   -1.6500   16.3880  -32.7830 C   0  0  0  0  0  0  0  0  0  0  0  0
   -1.3190   15.4450  -33.7660 C   0  0  0  0  0  0  0  0  0  0  0  0
   -1.5510   13.7220  -33.4750 S   0  0  0  0  0  0  0  0  0  0  0  0
   -3.0220   13.4210  -33.5380 O   0  0  0  0  0  0  0  0  0  0  0  0
   -0.8470   12.8980  -34.5170 O   0  0  0  0  0  0  0  0  0  0  0  0
   -0.9540   13.2950  -31.9000 N   0  0  0  0  0  0  0  0  0  0  0  0
    0.1720   13.6710  -31.3660 C   0  0  0  0  0  0  0  0  0  0  0  0
    1.0870   14.5130  -32.0320 C   0  0  0  0  0  0  0  0  0  0  0  0
    2.2750   14.8780  -31.3930 C   0  0  0  0  0  0  0  0  0  0  0  0
    2.5510   14.4080  -30.1100 C   0  0  0  0  0  0  0  0  0  0  0  0
    1.6280   13.5720  -29.4790 C   0  0  0  0  0  0  0  0  0  0  0  0
    0.4750   13.2290  -30.1140 N   0  0  0  0  0  0  0  0  0  0  0  0
   -0.8100   15.8780  -34.9970 C   0  0  0  0  0  0  0  0  0  0  0  0
   -0.6200   17.2410  -35.2400 C   0  0  0  0  0  0  0  0  0  0  0  0
    0.2440   21.5520  -35.0820 N   0  0  0  0  0  0  0  0  0  0  0  0
   -0.0540   24.2310  -36.1330 C   0  0  0  0  0  0  0  0  0  0  0  0
   -0.2050   25.5460  -36.4290 N   0  0  0  0  0  0  0  0  0  0  0  0
    0.8120   26.4480  -36.3440 C   0  0  0  0  0  0  0  0  0  0  0  0
    0.5390   27.8230  -36.7000 N   0  0  0  0  0  0  0  0  0  0  0  0
    0.8630   28.4470  -37.9750 C   0  0  0  0  0  0  0  0  0  0  0  0
   -0.0430   29.6660  -38.0820 C   0  0  0  0  0  0  0  0  0  0  0  0
   -0.4730   29.9760  -36.6530 C   0  0  2  0  0  0  0  0  0  0  0  0
    0.3920   30.9030  -36.0950 F   0  0  0  0  0  0  0  0  0  0  0  0
   -0.3610   28.6520  -35.9080 C   0  0  0  0  0  0  0  0  0  0  0  0
    3.2448   24.2764  -35.2853 H   0  0  0  0  0  0  0  0  0  0  0  0
    3.5046   22.2235  -35.6673 H   0  0  0  0  0  0  0  0  0  0  0  0
    3.6394   19.7888  -35.1231 H   0  0  0  0  0  0  0  0  0  0  0  0
    1.6500   18.6030  -34.5410 H   0  0  0  0  0  0  0  0  0  0  0  0
   -1.7500   18.4889  -32.2626 H   0  0  0  0  0  0  0  0  0  0  0  0
   -2.0562   16.0541  -31.8168 H   0  0  0  0  0  0  0  0  0  0  0  0
    0.8673   14.8792  -33.0457 H   0  0  0  0  0  0  0  0  0  0  0  0
    2.9931   15.5369  -31.9030 H   0  0  0  0  0  0  0  0  0  0  0  0
    3.4840   14.6922  -29.6013 H   0  0  0  0  0  0  0  0  0  0  0  0
    1.8332   13.1905  -28.4679 H   0  0  0  0  0  0  0  0  0  0  0  0
   -0.5589   15.1424  -35.7754 H   0  0  0  0  0  0  0  0  0  0  0  0
   -0.2355   17.5761  -36.2146 H   0  0  0  0  0  0  0  0  0  0  0  0
   -0.9117   23.5487  -36.2268 H   0  0  0  0  0  0  0  0  0  0  0  0
    1.9197   28.7521  -37.9946 H   0  0  0  0  0  0  0  0  0  0  0  0
    0.7104   27.7539  -38.8155 H   0  0  0  0  0  0  0  0  0  0  0  0
    0.5056   30.5169  -38.5122 H   0  0  0  0  0  0  0  0  0  0  0  0
   -0.9060   29.4785  -38.7378 H   0  0  0  0  0  0  0  0  0  0  0  0
   -1.4893   30.3942  -36.6056 H   0  0  0  0  0  0  0  0  0  0  0  0
    0.0531   28.8130  -34.9017 H   0  0  0  0  0  0  0  0  0  0  0  0
   -1.3441   28.1748  -35.7824 H   0  0  0  0  0  0  0  0  0  0  0  0
  1  2  3  0
  2  3  1  0
  3  4  2  0
  4  5  1  0
  5  6  1  0
  6  7  1  0
  7  8  2  0
  8  9  1  0
  9 10  1  0
 10 11  2  3
 11 12  1  0
 12 13  2  0
 13 14  1  0
 14 15  2  0
 15 16  1  0
 16 17  2  0
 16 18  2  0
 16 19  1  0
 19 20  2  3
 20 21  1  0
 21 22  2  0
 22 23  1  0
 23 24  2  0
 24 25  1  0
 15 26  1  0
 26 27  2  0
 10 28  1  0
  5 29  2  0
 29 30  1  0
 30 31  2  0
 31 32  1  0
 32 33  1  0
 33 34  1  0
 34 35  1  0
 35 36  1  0
 35 37  1  0
 31  3  1  0
 37 32  1  0
 28  6  2  0
 27 12  1  0
 25 20  1  0
  4 38  1  0
  7 39  1  0
  8 40  1  0
  9 41  1  0
 13 42  1  0
 14 43  1  0
 21 44  1  0
 22 45  1  0
 23 46  1  0
 24 47  1  0
 26 48  1  0
 27 49  1  0
 29 50  1  0
 33 51  1  0
 33 52  1  0
 34 53  1  0
 34 54  1  0
 35 55  1  6
 37 56  1  0
 37 57  1  0
M  CHG  1  25  -1
M  END
>  <UniqueID>  (2) 
2

>  <SMILES>  (2) 
N#Cc1cc(-c2cc[nH]c(=Nc3ccc(S(=O)(=O)N=c4cccc[n-]4)cc3)n2)cnc1N1CC[C@H](F)C1

>  <Energy>  (2) 
87.22308743340062

>  <Genealogy>  (2) 
N#Cc1cc(-c2cc[nH]c(=Nc3ccc(S(=O)(=O)N=c4cccc[n-]4)cc3)n2)cnc1N1CCC(F)C1 (protonated)
N#Cc1cc(-c2cc[nH]c(=Nc3ccc(S(=O)(=O)N=c4cccc[n-]4)cc3)n2)cnc1N1CC[C@H](F)C1 (chirality)
N#Cc1cc(-c2cc[nH]c(=Nc3ccc(S(=O)(=O)N=c4cccc[n-]4)cc3)n2)cnc1N1CC[C@H](F)C1 (3D coordinates assigned)
N#Cc1cc(-c2cc[nH]c(=Nc3ccc(S(=O)(=O)N=c4cccc[n-]4)cc3)n2)cnc1N1CC[C@H](F)C1 (nonaromatic ring conformer: 87.22308743340062 kcal/mol)

>  <smiles>  (2) 
N#Cc1cc(-c2cc[nH]c(=Nc3ccc(S(=O)(=O)N=c4cccc[nH]4)cc3)n2)cnc1N1CCC(F)C1

>  <score_type>  (2) 
oracle

>  <origin>  (2) 
adgpu

>  <m_score__min__energy>  (2) 
-8.3100000000000005

>  <m_primary>  (2) 
energy

$$$$
2:0
     RDKit          3D

 23 24  0  0  0  0  0  0  0  0999 V2000
   -5.7300   20.6660  -32.1040 C   0  0  0  0  0  0  0  0  0  0  0  0
   -5.9610   22.0600  -31.7410 N   0  0  0  0  0  0  0  0  0  0  0  0
   -7.1590   22.6720  -31.6360 C   0  0  0  0  0  0  0  0  0  0  0  0
   -7.0580   23.9470  -31.1990 N   0  0  0  0  0  0  0  0  0  0  0  0
   -5.7330   24.1260  -31.0140 C   0  0  0  0  0  0  0  0  0  0  0  0
   -5.1710   25.3560  -30.5400 N   0  0  0  0  0  0  0  0  0  0  0  0
   -5.8360   26.1360  -29.8280 O   0  0  0  0  0  0  0  0  0  0  0  0
   -3.8710   25.6750  -30.8530 O   0  0  0  0  0  0  0  0  0  0  0  0
   -5.0530   22.9650  -31.3340 C   0  0  0  0  0  0  0  0  0  0  0  0
   -3.2860   22.6630  -31.2140 S   0  0  0  0  0  0  0  0  0  0  0  0
   -3.1880   23.3800  -29.5800 C   0  0  0  0  0  0  0  0  0  0  0  0
   -2.1530   24.2010  -29.2600 N   0  0  0  0  0  0  0  0  0  0  0  0
   -2.0640   24.7620  -28.0250 C   0  0  0  0  0  0  0  0  0  0  0  0
   -3.0400   24.4920  -27.0670 C   0  0  0  0  0  0  0  0  0  0  0  0
   -4.0930   23.6440  -27.4120 C   0  0  0  0  0  0  0  0  0  0  0  0
   -4.1470   23.1040  -28.6580 N   0  0  0  0  0  0  0  0  0  0  0  0
   -5.6298   20.0611  -31.1908 H   0  0  0  0  0  0  0  0  0  0  0  0
   -6.5791   20.2961  -32.6975 H   0  0  0  0  0  0  0  0  0  0  0  0
   -4.8070   20.5898  -32.6975 H   0  0  0  0  0  0  0  0  0  0  0  0
   -8.1150   22.1856  -31.8798 H   0  0  0  0  0  0  0  0  0  0  0  0
   -1.2230   25.4281  -27.7819 H   0  0  0  0  0  0  0  0  0  0  0  0
   -2.9814   24.9370  -26.0627 H   0  0  0  0  0  0  0  0  0  0  0  0
   -4.8780   23.4130  -26.6768 H   0  0  0  0  0  0  0  0  0  0  0  0
  1  2  1  0
  2  3  1  0
  3  4  2  0
  4  5  1  0
  5  6  1  0
  6  7  2  0
  6  8  1  0
  5  9  2  0
  9 10  1  0
 10 11  1  0
 11 12  2  0
 12 13  1  0
 13 14  2  0
 14 15  1  0
 15 16  2  0
  9  2  1  0
 16 11  1  0
  1 17  1  0
  1 18  1  0
  1 19  1  0
  3 20  1  0
 13 21  1  0
 14 22  1  0
 15 23  1  0
M  CHG  2   6   1   8  -1
M  END
>  <UniqueID>  (3) 
3

>  <SMILES>  (3) 
Cn1cnc([N+](=O)[O-])c1Sc1ncccn1

>  <Energy>  (3) 
50.62432348268943

>  <Genealogy>  (3) 
Cn1cnc([N+](=O)[O-])c1Sc1ncccn1 (3D coordinates assigned)
Cn1cnc([N+](=O)[O-])c1Sc1ncccn1 (optimized conformer: 50.62432348268943 kcal/mol)

>  <smiles>  (3) 
Cn1cnc([N+](=O)[O-])c1Sc1ncccn1

>  <score_type>  (3) 
oracle

>  <origin>  (3) 
adgpu

>  <m_score__min__energy>  (3) 
-6.3499999999999996

>  <m_primary>  (3) 
energy

$$$$
3:0
     RDKit          3D

 33 36  0  0  0  0  0  0  0  0999 V2000
   -3.8010   21.3810  -29.0930 H   0  0  0  0  0  0  0  0  0  0  0  0
   -3.3610   22.3120  -28.9210 N   0  0  0  0  0  0  0  0  0  0  0  0
   -3.6020   23.3490  -29.6580 C   0  0  0  0  0  0  0  0  0  0  0  0
   -3.0160   24.5410  -29.4740 N   0  0  0  0  0  0  0  0  0  0  0  0
   -3.4890   25.2980  -30.4240 O   0  0  0  0  0  0  0  0  0  0  0  0
   -4.3360   24.6910  -31.2120 N   0  0  0  0  0  0  0  0  0  0  0  0
   -4.4320   23.4280  -30.7560 C   0  0  0  0  0  0  0  0  0  0  0  0
   -5.3400   22.3960  -31.3140 C   0  0  0  0  0  0  0  0  0  0  0  0
   -6.6760   22.5460  -31.1140 N   0  0  0  0  0  0  0  0  0  0  0  0
   -7.5800   21.6830  -31.6330 C   0  0  0  0  0  0  0  0  0  0  0  0
   -8.9460   21.8760  -31.3980 C   0  0  0  0  0  0  0  0  0  0  0  0
   -9.2846   22.7269  -30.7886 H   0  0  0  0  0  0  0  0  0  0  0  0
   -9.8800   20.9870  -31.9380 C   0  0  0  0  0  0  0  0  0  0  0  0
  -10.9535   21.1394  -31.7526 H   0  0  0  0  0  0  0  0  0  0  0  0
   -9.4530   19.9050  -32.7130 C   0  0  0  0  0  0  0  0  0  0  0  0
  -10.1910   19.2079  -33.1365 H   0  0  0  0  0  0  0  0  0  0  0  0
   -8.0890   19.7070  -32.9510 C   0  0  0  0  0  0  0  0  0  0  0  0
   -7.7560   18.8544  -33.5611 H   0  0  0  0  0  0  0  0  0  0  0  0
   -7.1420   20.5970  -32.4110 C   0  0  0  0  0  0  0  0  0  0  0  0
   -5.7600   20.4420  -32.6130 C   0  0  0  0  0  0  0  0  0  0  0  0
   -5.3340   19.4660  -33.2940 O   0  0  0  0  0  0  0  0  0  0  0  0
   -4.8760   21.3380  -32.0640 N   0  0  0  0  0  0  0  0  0  0  0  0
   -3.4610   21.1180  -32.2390 C   0  0  0  0  0  0  0  0  0  0  0  0
   -2.7080   20.5140  -31.2200 C   0  0  0  0  0  0  0  0  0  0  0  0
   -3.1992   20.2048  -30.2856 H   0  0  0  0  0  0  0  0  0  0  0  0
   -1.3370   20.3040  -31.3880 C   0  0  0  0  0  0  0  0  0  0  0  0
   -0.7509   19.8324  -30.5855 H   0  0  0  0  0  0  0  0  0  0  0  0
   -0.7090   20.6930  -32.5760 C   0  0  0  0  0  0  0  0  0  0  0  0
    1.0120   20.4310  -32.7850 Cl  0  0  0  0  0  0  0  0  0  0  0  0
   -1.4560   21.2910  -33.5980 C   0  0  0  0  0  0  0  0  0  0  0  0
   -0.9627   21.5953  -34.5329 H   0  0  0  0  0  0  0  0  0  0  0  0
   -2.8280   21.5020  -33.4320 C   0  0  0  0  0  0  0  0  0  0  0  0
   -3.4128   21.9698  -34.2377 H   0  0  0  0  0  0  0  0  0  0  0  0
  1  2  1  0
  2  3  2  0
  3  4  1  0
  4  5  1  0
  5  6  1  0
  6  7  2  0
  7  8  1  0
  8  9  2  0
  9 10  1  0
 10 11  2  0
 11 12  1  0
 11 13  1  0
 13 14  1  0
 13 15  2  0
 15 16  1  0
 15 17  1  0
 17 18  1  0
 17 19  2  0
 19 20  1  0
 20 21  2  0
 20 22  1  0
 22 23  1  0
 23 24  2  0
 24 25  1  0
 24 26  1  0
 26 27  1  0
 26 28  2  0
 28 29  1  0
 28 30  1  0
 30 31  1  0
 30 32  2  0
 32 33  1  0
  7  3  1  0
 22  8  1  0
 32 23  1  0
 19 10  1  0
M  CHG  1   4  -1
M  END
>  <UniqueID>  (4) 
4

>  <SMILES>  (4) 
[H]/N=c1/[n-]onc1-c1nc2ccccc2c(=O)n1-c1ccc(Cl)cc1

>  <Energy>  (4) 
93.08050629173343

>  <Genealogy>  (4) 
N=c1[n-]onc1-c1nc2ccccc2c(=O)n1-c1ccc(Cl)cc1 (protonated)
[H]/N=c1/[n-]onc1-c1nc2ccccc2c(=O)n1-c1ccc(Cl)cc1 (cis-trans isomerization)
[H]/N=c1/[n-]onc1-c1nc2ccccc2c(=O)n1-c1ccc(Cl)cc1 (3D coordinates assigned)
[H]/N=c1/[n-]onc1-c1nc2ccccc2c(=O)n1-c1ccc(Cl)cc1 (optimized conformer: 93.08050629173343 kcal/mol)

>  <smiles>  (4) 
N=c1[nH]onc1-c1nc2ccccc2c(=O)n1-c1ccc(Cl)cc1

>  <score_type>  (4) 
oracle

>  <origin>  (4) 
adgpu

>  <m_score__min__energy>  (4) 
-10.26

>  <m_primary>  (4) 
energy

$$$$
4:0
     RDKit          3D

 42 44  0  0  0  0  0  0  0  0999 V2000
   -6.7120   26.7650  -29.5470 H   0  0  0  0  0  0  0  0  0  0  0  0
   -5.8430   26.2110  -29.7200 N   0  0  0  0  0  0  0  0  0  0  0  0
   -5.8620   25.0680  -30.3330 C   0  0  0  0  0  0  0  0  0  0  0  0
   -4.6640   24.3680  -30.5340 C   0  0  0  0  0  0  0  0  0  0  0  0
   -3.4550   24.9250  -30.0860 O   0  0  0  0  0  0  0  0  0  0  0  0
   -2.7200   24.4870  -28.9730 C   0  0  0  0  0  0  0  0  0  0  0  0
   -3.0990   23.3510  -28.2330 C   0  0  0  0  0  0  0  0  0  0  0  0
   -3.9873   22.7745  -28.5305 H   0  0  0  0  0  0  0  0  0  0  0  0
   -2.3510   22.9530  -27.1220 C   0  0  0  0  0  0  0  0  0  0  0  0
   -2.6462   22.0596  -26.5522 H   0  0  0  0  0  0  0  0  0  0  0  0
   -1.2280   23.6890  -26.7340 C   0  0  0  0  0  0  0  0  0  0  0  0
   -0.6352   23.3700  -25.8640 H   0  0  0  0  0  0  0  0  0  0  0  0
   -0.8580   24.8300  -27.4510 C   0  0  0  0  0  0  0  0  0  0  0  0
    0.0210   25.4136  -27.1398 H   0  0  0  0  0  0  0  0  0  0  0  0
   -1.6050   25.2310  -28.5650 C   0  0  0  0  0  0  0  0  0  0  0  0
   -1.2380   26.3400  -29.2540 F   0  0  0  0  0  0  0  0  0  0  0  0
   -4.7020   23.1460  -31.2210 C   0  0  0  0  0  0  0  0  0  0  0  0
   -3.7672   22.5991  -31.4135 H   0  0  0  0  0  0  0  0  0  0  0  0
   -5.9230   22.6150  -31.6650 C   0  0  0  0  0  0  0  0  0  0  0  0
   -5.9700   21.3130  -32.3770 C   0  0  0  0  0  0  0  0  0  0  0  0
   -7.1590   20.5610  -32.4160 C   0  0  0  0  0  0  0  0  0  0  0  0
   -8.0607   20.9393  -31.9122 H   0  0  0  0  0  0  0  0  0  0  0  0
   -7.2030   19.3370  -33.0900 C   0  0  0  0  0  0  0  0  0  0  0  0
   -8.1403   18.7619  -33.1186 H   0  0  0  0  0  0  0  0  0  0  0  0
   -6.0590   18.8380  -33.7300 C   0  0  0  0  0  0  0  0  0  0  0  0
   -6.1160   17.5260  -34.4750 C   0  0  0  0  0  0  0  0  0  0  0  0
   -6.9154   17.5807  -35.2286 H   0  0  0  0  0  0  0  0  0  0  0  0
   -5.1350   17.3606  -34.9443 H   0  0  0  0  0  0  0  0  0  0  0  0
   -6.3860   16.3910  -33.5790 N   0  0  0  0  0  0  0  0  0  0  0  0
   -6.3150   15.4950  -34.1160 H   0  0  0  0  0  0  0  0  0  0  0  0
   -5.4420   16.3430  -32.4600 C   0  0  0  0  0  0  0  0  0  0  0  0
   -5.9969   16.3712  -31.5107 H   0  0  0  0  0  0  0  0  0  0  0  0
   -4.8557   15.4139  -32.5145 H   0  0  0  0  0  0  0  0  0  0  0  0
   -4.7645   17.2079  -32.5145 H   0  0  0  0  0  0  0  0  0  0  0  0
   -4.8720   19.5850  -33.6960 C   0  0  0  0  0  0  0  0  0  0  0  0
   -3.9715   19.2041  -34.2001 H   0  0  0  0  0  0  0  0  0  0  0  0
   -4.8270   20.8110  -33.0250 C   0  0  0  0  0  0  0  0  0  0  0  0
   -3.8903   21.3874  -33.0038 H   0  0  0  0  0  0  0  0  0  0  0  0
   -7.0950   23.3470  -31.4210 C   0  0  0  0  0  0  0  0  0  0  0  0
   -8.0651   22.9501  -31.7547 H   0  0  0  0  0  0  0  0  0  0  0  0
   -7.0420   24.5440  -30.7750 N   0  0  0  0  0  0  0  0  0  0  0  0
   -7.9370   25.0600  -30.6160 H   0  0  0  0  0  0  0  0  0  0  0  0
  1  2  1  0
  2  3  2  0
  3  4  1  0
  4  5  1  0
  5  6  1  0
  6  7  2  0
  7  8  1  0
  7  9  1  0
  9 10  1  0
  9 11  2  0
 11 12  1  0
 11 13  1  0
 13 14  1  0
 13 15  2  0
 15 16  1  0
  4 17  2  0
 17 18  1  0
 17 19  1  0
 19 20  1  0
 20 21  2  0
 21 22  1  0
 21 23  1  0
 23 24  1  0
 23 25  2  0
 25 26  1  0
 26 27  1  0
 26 28  1  0
 26 29  1  0
 29 30  1  0
 29 31  1  0
 31 32  1  0
 31 33  1  0
 31 34  1  0
 25 35  1  0
 35 36  1  0
 35 37  2  0
 37 38  1  0
 19 39  2  0
 39 40  1  0
 39 41  1  0
 41 42  1  0
 41  3  1  0
 15  6  1  0
 37 20  1  0
M  END
>  <UniqueID>  (5) 
5

>  <SMILES>  (5) 
[H]/N=c1\[nH]cc(-c2ccc(CNC)cc2)cc1Oc1ccccc1F

>  <Energy>  (5) 
55.775972180071086

>  <Genealogy>  (5) 
[H]/N=c1\[nH]cc(-c2ccc(CNC)cc2)cc1Oc1ccccc1F (cis-trans isomerization)
[H]/N=c1\[nH]cc(-c2ccc(CNC)cc2)cc1Oc1ccccc1F (3D coordinates assigned)
[H]/N=c1\[nH]cc(-c2ccc(CNC)cc2)cc1Oc1ccccc1F (optimized conformer: 55.775972180071086 kcal/mol)

>  <smiles>  (5) 
CNCc1ccc(-c2c[nH]c(=N)c(Oc3ccccc3F)c2)cc1

>  <score_type>  (5) 
oracle

>  <origin>  (5) 
adgpu

>  <m_score__min__energy>  (5) 
-8.4399999999999995

>  <m_primary>  (5) 
energy

$$$$
5:0
     RDKit          3D

 39 42  0  0  0  0  0  0  0  0999 V2000
  -10.0177   19.8529  -30.9356 H   0  0  0  0  0  0  0  0  0  0  0  0
   -9.1180   19.5570  -31.4950 C   0  0  0  0  0  0  0  0  0  0  0  0
   -8.2960   20.5060  -32.0100 N   0  0  0  0  0  0  0  0  0  0  0  0
   -7.1730   20.1940  -32.7160 C   0  0  0  0  0  0  0  0  0  0  0  0
   -6.3400   21.2120  -33.1990 O   0  0  0  0  0  0  0  0  0  0  0  0
   -5.6430   22.1350  -32.4070 C   0  0  0  0  0  0  0  0  0  0  0  0
   -6.2890   23.2010  -31.7530 C   0  0  0  0  0  0  0  0  0  0  0  0
   -7.3780   23.3231  -31.8492 H   0  0  0  0  0  0  0  0  0  0  0  0
   -5.5530   24.1050  -30.9820 C   0  0  0  0  0  0  0  0  0  0  0  0
   -6.0633   24.9428  -30.4843 H   0  0  0  0  0  0  0  0  0  0  0  0
   -4.1640   23.9480  -30.8400 C   0  0  0  0  0  0  0  0  0  0  0  0
   -3.3790   24.8960  -30.0990 N   0  0  0  0  0  0  0  0  0  0  0  0
   -2.3960   24.6460  -29.2800 C   0  0  0  0  0  0  0  0  0  0  0  0
   -1.8410   25.6870  -28.6000 N   0  0  0  0  0  0  0  0  0  0  0  0
   -0.8060   25.5210  -27.7350 C   0  0  0  0  0  0  0  0  0  0  0  0
   -0.3925   26.3889  -27.2004 H   0  0  0  0  0  0  0  0  0  0  0  0
   -0.2670   24.2510  -27.5240 C   0  0  0  0  0  0  0  0  0  0  0  0
    0.5659   24.1099  -26.8195 H   0  0  0  0  0  0  0  0  0  0  0  0
   -0.7970   23.1630  -28.2170 C   0  0  0  0  0  0  0  0  0  0  0  0
   -0.3783   22.1570  -28.0665 H   0  0  0  0  0  0  0  0  0  0  0  0
   -1.8610   23.3530  -29.1030 C   0  0  0  0  0  0  0  0  0  0  0  0
   -2.2783   22.5001  -29.6584 H   0  0  0  0  0  0  0  0  0  0  0  0
   -3.5150   22.9210  -31.5360 C   0  0  0  0  0  0  0  0  0  0  0  0
   -2.4210   22.8240  -31.4746 H   0  0  0  0  0  0  0  0  0  0  0  0
   -4.2520   22.0180  -32.3090 C   0  0  0  0  0  0  0  0  0  0  0  0
   -3.7338   21.2089  -32.8445 H   0  0  0  0  0  0  0  0  0  0  0  0
   -6.8260   18.8370  -32.9150 C   0  0  0  0  0  0  0  0  0  0  0  0
   -5.6070   18.4510  -33.6750 C   0  0  0  0  0  0  0  0  0  0  0  0
   -5.6250   17.8820  -34.8980 N   0  0  0  0  0  0  0  0  0  0  0  0
   -4.3730   17.6740  -35.2680 N   0  0  0  0  0  0  0  0  0  0  0  0
   -4.0910   17.2440  -36.1770 H   0  0  0  0  0  0  0  0  0  0  0  0
   -3.5400   18.0980  -34.3030 C   0  0  0  0  0  0  0  0  0  0  0  0
   -2.4416   18.0500  -34.3373 H   0  0  0  0  0  0  0  0  0  0  0  0
   -4.2900   18.6030  -33.2630 C   0  0  0  0  0  0  0  0  0  0  0  0
   -3.9262   19.0311  -32.3173 H   0  0  0  0  0  0  0  0  0  0  0  0
   -7.6760   17.8490  -32.3830 C   0  0  0  0  0  0  0  0  0  0  0  0
   -7.4344   16.7855  -32.5268 H   0  0  0  0  0  0  0  0  0  0  0  0
   -8.8220   18.2090  -31.6750 C   0  0  0  0  0  0  0  0  0  0  0  0
   -9.4859   17.4349  -31.2626 H   0  0  0  0  0  0  0  0  0  0  0  0
  1  2  1  0
  2  3  2  0
  3  4  1  0
  4  5  1  0
  5  6  1  0
  6  7  2  0
  7  8  1  0
  7  9  1  0
  9 10  1  0
  9 11  2  0
 11 12  1  0
 12 13  2  0
 13 14  1  0
 14 15  1  0
 15 16  1  0
 15 17  2  0
 17 18  1  0
 17 19  1  0
 19 20  1  0
 19 21  2  0
 21 22  1  0
 11 23  1  0
 23 24  1  0
 23 25  2  0
 25 26  1  0
  4 27  2  0
 27 28  1  0
 28 29  2  0
 29 30  1  0
 30 31  1  0
 30 32  1  0
 32 33  1  0
 32 34  2  0
 34 35  1  0
 27 36  1  0
 36 37  1  0
 36 38  2  0
 38 39  1  0
 38  2  1  0
 25  6  1  0
 34 28  1  0
 21 13  1  0
M  CHG  1  14  -1
M  END
>  <UniqueID>  (6) 
6

>  <SMILES>  (6) 
c1cc/c(=N\c2ccc(Oc3ncccc3-c3cc[nH]n3)cc2)[n-]c1

>  <Energy>  (6) 
91.76501585830437

>  <Genealogy>  (6) 
c1ccc(=Nc2ccc(Oc3ncccc3-c3cc[nH]n3)cc2)[n-]c1 (protonated)
c1cc/c(=N\c2ccc(Oc3ncccc3-c3cc[nH]n3)cc2)[n-]c1 (cis-trans isomerization)
c1cc/c(=N\c2ccc(Oc3ncccc3-c3cc[nH]n3)cc2)[n-]c1 (3D coordinates assigned)
c1cc/c(=N\c2ccc(Oc3ncccc3-c3cc[nH]n3)cc2)[n-]c1 (optimized conformer: 91.76501585830437 kcal/mol)

>  <smiles>  (6) 
c1ccc(=Nc2ccc(Oc3ncccc3-c3cc[nH]n3)cc2)[nH]c1

>  <score_type>  (6) 
oracle

>  <origin>  (6) 
adgpu

>  <m_score__min__energy>  (6) 
-10.08

>  <m_primary>  (6) 
energy

$$$$
6:0
     RDKit          3D

 48 50  0  0  0  0  0  0  0  0999 V2000
   -9.7728   21.8489  -31.7093 H   0  0  0  0  0  0  0  0  0  0  0  0
   -8.6820   21.7930  -31.5790 C   0  0  0  0  0  0  0  0  0  0  0  0
   -8.0240   22.7450  -30.7970 C   0  0  0  0  0  0  0  0  0  0  0  0
   -8.6015   23.5453  -30.3112 H   0  0  0  0  0  0  0  0  0  0  0  0
   -6.6330   22.6890  -30.6260 C   0  0  0  0  0  0  0  0  0  0  0  0
   -5.9870   23.6510  -29.7720 N   0  0  0  0  0  0  0  0  0  0  0  0
   -6.5410   24.0510  -28.9790 H   0  0  0  0  0  0  0  0  0  0  0  0
   -4.6390   24.1140  -29.9530 C   0  0  0  0  0  0  0  0  0  0  0  0
   -4.1780   24.2430  -31.1200 O   0  0  0  0  0  0  0  0  0  0  0  0
   -3.7930   24.4710  -28.7860 C   0  0  0  0  0  0  0  0  0  0  0  0
   -2.4340   24.8060  -28.9520 C   0  0  0  0  0  0  0  0  0  0  0  0
   -1.9867   24.7908  -29.9569 H   0  0  0  0  0  0  0  0  0  0  0  0
   -1.6490   25.1580  -27.8470 C   0  0  0  0  0  0  0  0  0  0  0  0
   -0.5877   25.4114  -27.9862 H   0  0  0  0  0  0  0  0  0  0  0  0
   -2.2110   25.1880  -26.5680 C   0  0  0  0  0  0  0  0  0  0  0  0
   -1.1370   25.6750  -25.0660 Br  0  0  0  0  0  0  0  0  0  0  0  0
   -3.5600   24.8660  -26.3920 C   0  0  0  0  0  0  0  0  0  0  0  0
   -4.0028   24.8918  -25.3854 H   0  0  0  0  0  0  0  0  0  0  0  0
   -4.3490   24.5110  -27.4920 C   0  0  0  0  0  0  0  0  0  0  0  0
   -5.4103   24.2615  -27.3454 H   0  0  0  0  0  0  0  0  0  0  0  0
   -5.9110   21.6520  -31.2470 C   0  0  0  0  0  0  0  0  0  0  0  0
   -4.8208   21.5916  -31.1139 H   0  0  0  0  0  0  0  0  0  0  0  0
   -6.5690   20.6950  -32.0340 C   0  0  0  0  0  0  0  0  0  0  0  0
   -5.6580   19.4040  -32.8190 S   0  0  0  0  0  0  0  0  0  0  0  0
   -6.4950   18.8140  -33.9240 O   0  0  0  0  0  0  0  0  0  0  0  0
   -5.3470   18.3120  -31.8310 O   0  0  0  0  0  0  0  0  0  0  0  0
   -4.2060   20.0500  -33.5390 N   0  0  0  0  0  0  0  0  0  0  0  0
   -4.1910   20.0390  -34.5850 H   0  0  0  0  0  0  0  0  0  0  0  0
   -3.1740   20.5480  -32.9050 C   0  0  0  0  0  0  0  0  0  0  0  0
   -2.0910   21.0820  -33.7000 N   0  0  0  0  0  0  0  0  0  0  0  0
   -2.3360   21.4590  -34.6450 H   0  0  0  0  0  0  0  0  0  0  0  0
   -0.6560   21.0630  -33.3870 C   0  0  0  0  0  0  0  0  0  0  0  0
   -0.3203   22.0987  -33.2304 H   0  0  0  0  0  0  0  0  0  0  0  0
   -0.1467   20.5825  -34.2353 H   0  0  0  0  0  0  0  0  0  0  0  0
   -0.3130   20.2480  -32.1360 C   0  0  0  0  0  0  0  0  0  0  0  0
    0.7654   20.0312  -32.1399 H   0  0  0  0  0  0  0  0  0  0  0  0
   -0.9091   19.3239  -32.1630 H   0  0  0  0  0  0  0  0  0  0  0  0
   -0.6620   20.9940  -30.8390 C   0  0  0  0  0  0  0  0  0  0  0  0
    0.0490   21.8240  -30.7140 H   0  0  0  0  0  0  0  0  0  0  0  0
   -0.6008   20.2612  -30.0209 H   0  0  0  0  0  0  0  0  0  0  0  0
   -2.0890   21.5700  -30.8200 C   0  0  0  0  0  0  0  0  0  0  0  0
   -2.1063   22.4879  -31.4259 H   0  0  0  0  0  0  0  0  0  0  0  0
   -2.3530   21.7707  -29.7712 H   0  0  0  0  0  0  0  0  0  0  0  0
   -3.1300   20.5900  -31.3820 C   0  0  0  0  0  0  0  0  0  0  0  0
   -4.1225   20.8894  -31.0142 H   0  0  0  0  0  0  0  0  0  0  0  0
   -2.8412   19.5847  -31.0414 H   0  0  0  0  0  0  0  0  0  0  0  0
   -7.9580   20.7700  -32.1960 C   0  0  0  0  0  0  0  0  0  0  0  0
   -8.4801   20.0217  -32.8104 H   0  0  0  0  0  0  0  0  0  0  0  0
  1  2  1  0
  2  3  2  0
  3  4  1  0
  3  5  1  0
  5  6  1  0
  6  7  1  0
  6  8  1  0
  8  9  2  0
  8 10  1  0
 10 11  2  0
 11 12  1  0
 11 13  1  0
 13 14  1  0
 13 15  2  0
 15 16  1  0
 15 17  1  0
 17 18  1  0
 17 19  2  0
 19 20  1  0
  5 21  2  0
 21 22  1  0
 21 23  1  0
 23 24  1  0
 24 25  2  0
 24 26  2  0
 24 27  1  0
 27 28  1  0
 27 29  2  0
 29 30  1  0
 30 31  1  0
 30 32  1  0
 32 33  1  0
 32 34  1  0
 32 35  1  0
 35 36  1  0
 35 37  1  0
 35 38  1  0
 38 39  1  0
 38 40  1  0
 38 41  1  0
 41 42  1  0
 41 43  1  0
 41 44  1  0
 44 45  1  0
 44 46  1  0
 23 47  2  0
 47 48  1  0
 47  2  1  0
 19 10  1  0
 44 29  1  0
M  CHG  1  27   1
M  END
>  <UniqueID>  (7) 
7

>  <SMILES>  (7) 
O=C(Nc1cccc(S(=O)(=O)/[NH+]=C2\CCCCCN2)c1)c1ccc(Br)cc1

>  <Energy>  (7) 
64.43794945228046

>  <Genealogy>  (7) 
O=C(Nc1cccc(S(=O)(=O)[NH+]=C2CCCCCN2)c1)c1ccc(Br)cc1 (protonated)
O=C(Nc1cccc(S(=O)(=O)/[NH+]=C2\CCCCCN2)c1)c1ccc(Br)cc1 (cis-trans isomerization)
O=C(Nc1cccc(S(=O)(=O)/[NH+]=C2\CCCCCN2)c1)c1ccc(Br)cc1 (3D coordinates assigned)
O=C(Nc1cccc(S(=O)(=O)/[NH+]=C2\CCCCCN2)c1)c1ccc(Br)cc1 (nonaromatic ring conformer: 64.43794945228046 kcal/mol)

>  <smiles>  (7) 
O=C(Nc1cccc(S(=O)(=O)N=C2CCCCCN2)c1)c1ccc(Br)cc1

>  <score_type>  (7) 
oracle

>  <origin>  (7) 
adgpu

>  <m_score__min__energy>  (7) 
-7.6900000000000004

>  <m_primary>  (7) 
energy

$$$$
7:0
     RDKit          3D

 52 56  0  0  0  0  0  0  0  0999 V2000
   -6.3845   24.4174  -28.7854 H   0  0  0  0  0  0  0  0  0  0  0  0
   -5.7370   23.7280  -29.3470 C   0  0  0  0  0  0  0  0  0  0  0  0
   -4.2780   23.8810  -29.2080 C   0  0  0  0  0  0  0  0  0  0  0  0
   -3.4520   24.7440  -29.8980 C   0  0  0  0  0  0  0  0  0  0  0  0
   -3.8580   25.6790  -30.8430 O   0  0  0  0  0  0  0  0  0  0  0  0
   -2.1650   24.5330  -29.5640 N   0  0  0  0  0  0  0  0  0  0  0  0
   -2.2480   23.5150  -28.6810 C   0  0  0  0  0  0  0  0  0  0  0  0
   -1.2370   23.0030  -28.1320 O   0  0  0  0  0  0  0  0  0  0  0  0
   -3.5050   23.0840  -28.4540 N   0  0  0  0  0  0  0  0  0  0  0  0
   -3.8090   22.3000  -27.8370 H   0  0  0  0  0  0  0  0  0  0  0  0
   -6.3230   22.8000  -30.1160 C   0  0  0  0  0  0  0  0  0  0  0  0
   -7.6890   22.5650  -30.2230 C   0  0  0  0  0  0  0  0  0  0  0  0
   -8.4685   23.1021  -29.6627 H   0  0  0  0  0  0  0  0  0  0  0  0
   -7.9170   21.5760  -31.1200 N   0  0  0  0  0  0  0  0  0  0  0  0
   -6.7410   21.1840  -31.5840 N   0  0  0  0  0  0  0  0  0  0  0  0
   -6.4560   20.2500  -32.5390 C   0  0  0  0  0  0  0  0  0  0  0  0
   -7.3580   19.5060  -33.1190 N   0  0  0  0  0  0  0  0  0  0  0  0
   -8.8000   19.4490  -32.8820 C   0  0  0  0  0  0  0  0  0  0  0  0
   -9.2958   19.0327  -33.7714 H   0  0  0  0  0  0  0  0  0  0  0  0
   -9.1657   20.4670  -32.6820 H   0  0  0  0  0  0  0  0  0  0  0  0
   -9.1150   18.5690  -31.6750 C   0  0  0  0  0  0  0  0  0  0  0  0
   -8.9143   19.1296  -30.7501 H   0  0  0  0  0  0  0  0  0  0  0  0
  -10.1744   18.2743  -31.7026 H   0  0  0  0  0  0  0  0  0  0  0  0
   -8.4832   17.6689  -31.7026 H   0  0  0  0  0  0  0  0  0  0  0  0
   -5.1530   20.0940  -32.9020 N   0  0  0  0  0  0  0  0  0  0  0  0
   -4.1600   20.8440  -32.3300 C   0  0  0  0  0  0  0  0  0  0  0  0
   -2.7880   20.6590  -32.7350 N   0  0  0  0  0  0  0  0  0  0  0  0
   -1.6880   20.8550  -31.7740 C   0  0  0  0  0  0  0  0  0  0  0  0
   -2.0404   21.4879  -30.9462 H   0  0  0  0  0  0  0  0  0  0  0  0
   -1.3705   19.8722  -31.3953 H   0  0  0  0  0  0  0  0  0  0  0  0
   -0.4890   21.5330  -32.4510 C   0  0  0  0  0  0  0  0  0  0  0  0
   -0.7022   22.6067  -32.5593 H   0  0  0  0  0  0  0  0  0  0  0  0
    0.3972   21.3660  -31.8212 H   0  0  0  0  0  0  0  0  0  0  0  0
   -0.2170   20.9670  -33.7780 N   0  0  0  0  0  0  0  0  0  0  0  0
    0.8860   21.4870  -34.5430 C   0  0  0  0  0  0  0  0  0  0  0  0
    0.7470   22.6690  -35.2070 N   0  0  0  0  0  0  0  0  0  0  0  0
    1.7470   23.1940  -35.9630 C   0  0  0  0  0  0  0  0  0  0  0  0
    1.5997   24.1536  -36.4802 H   0  0  0  0  0  0  0  0  0  0  0  0
    2.9600   22.5160  -36.0830 C   0  0  0  0  0  0  0  0  0  0  0  0
    3.7752   22.9387  -36.6886 H   0  0  0  0  0  0  0  0  0  0  0  0
    3.1290   21.2960  -35.4270 C   0  0  0  0  0  0  0  0  0  0  0  0
    4.0786   20.7483  -35.5182 H   0  0  0  0  0  0  0  0  0  0  0  0
    2.0910   20.7720  -34.6550 C   0  0  0  0  0  0  0  0  0  0  0  0
    2.2148   19.8084  -34.1390 H   0  0  0  0  0  0  0  0  0  0  0  0
   -1.0140   19.8340  -34.2640 C   0  0  0  0  0  0  0  0  0  0  0  0
   -0.8020   19.6678  -35.3305 H   0  0  0  0  0  0  0  0  0  0  0  0
   -0.7531   18.9313  -33.6921 H   0  0  0  0  0  0  0  0  0  0  0  0
   -2.5020   20.1390  -34.0820 C   0  0  0  0  0  0  0  0  0  0  0  0
   -2.8061   20.8896  -34.8264 H   0  0  0  0  0  0  0  0  0  0  0  0
   -3.0638   19.2028  -34.2157 H   0  0  0  0  0  0  0  0  0  0  0  0
   -4.4770   21.7640  -31.3750 N   0  0  0  0  0  0  0  0  0  0  0  0
   -5.7710   21.9030  -31.0090 C   0  0  0  0  0  0  0  0  0  0  0  0
  1  2  1  0
  2  3  1  0
  3  4  2  0
  4  5  1  0
  4  6  1  0
  6  7  1  0
  7  8  2  0
  7  9  1  0
  9 10  1  0
  2 11  2  0
 11 12  1  0
 12 13  1  0
 12 14  2  0
 14 15  1  0
 15 16  1  0
 16 17  2  0
 17 18  1  0
 18 19  1  0
 18 20  1  0
 18 21  1  0
 21 22  1  0
 21 23  1  0
 21 24  1  0
 16 25  1  0
 25 26  2  0
 26 27  1  0
 27 28  1  0
 28 29  1  0
 28 30  1  0
 28 31  1  0
 31 32  1  0
 31 33  1  0
 31 34  1  0
 34 35  1  0
 35 36  2  0
 36 37  1  0
 37 38  1  0
 37 39  2  0
 39 40  1  0
 39 41  1  0
 41 42  1  0
 41 43  2  0
 43 44  1  0
 34 45  1  0
 45 46  1  0
 45 47  1  0
 45 48  1  0
 48 49  1  0
 48 50  1  0
 26 51  1  0
 51 52  2  0
  9  3  1  0
 52 11  1  0
 52 15  1  0
 48 27  1  0
 43 35  1  0
M  CHG  2   5  -1   6  -1
M  END
>  <UniqueID>  (8) 
8

>  <SMILES>  (8) 
CC/N=c1/nc(N2CCN(c3ccccn3)CC2)nc2/c(=C\c3[nH]c(=O)[n-]c3[O-])cnn12

>  <Energy>  (8) 
139.14039356844427

>  <Genealogy>  (8) 
CCN=c1nc(N2CCN(c3ccccn3)CC2)nc2c(=Cc3[nH]c(=O)[n-]c3[O-])cnn12 (protonated)
CC/N=c1/nc(N2CCN(c3ccccn3)CC2)nc2/c(=C\c3[nH]c(=O)[n-]c3[O-])cnn12 (cis-trans isomerization)
CC/N=c1/nc(N2CCN(c3ccccn3)CC2)nc2/c(=C\c3[nH]c(=O)[n-]c3[O-])cnn12 (3D coordinates assigned)
CC/N=c1/nc(N2CCN(c3ccccn3)CC2)nc2/c(=C\c3[nH]c(=O)[n-]c3[O-])cnn12 (nonaromatic ring conformer: 139.14039356844427 kcal/mol)

>  <smiles>  (8) 
CCN=c1nc(N2CCN(c3ccccn3)CC2)nc2c(=Cc3[nH]c(=O)[nH]c3O)cnn12

>  <score_type>  (8) 
oracle

>  <origin>  (8) 
adgpu

>  <m_score__min__energy>  (8) 
-12.869999999999999

>  <m_primary>  (8) 
energy

$$$$
8:0
     RDKit          3D

 29 30  0  0  0  0  0  0  0  0999 V2000
   -5.7280   18.1860  -34.8390 C   0  0  0  0  0  0  0  0  0  0  0  0
   -6.2600   17.3610  -33.3070 S   0  0  0  0  0  0  0  0  0  0  0  0
   -7.1860   18.7820  -32.7240 C   0  0  0  0  0  0  0  0  0  0  0  0
   -8.3980   18.5990  -32.0490 C   0  0  0  0  0  0  0  0  0  0  0  0
   -9.1130   19.7060  -31.5840 C   0  0  0  0  0  0  0  0  0  0  0  0
   -8.6240   20.9980  -31.7990 C   0  0  0  0  0  0  0  0  0  0  0  0
   -7.4190   21.1940  -32.4920 C   0  0  0  0  0  0  0  0  0  0  0  0
   -6.9250   22.5310  -32.6890 N   0  0  0  0  0  0  0  0  0  0  0  0
   -6.3840   23.3540  -31.6380 C   0  0  0  0  0  0  0  0  0  0  0  0
   -7.2350   24.1610  -30.8600 C   0  0  0  0  0  0  0  0  0  0  0  0
   -6.7190   24.9410  -29.8220 C   0  0  0  0  0  0  0  0  0  0  0  0
   -5.3530   24.9140  -29.5400 C   0  0  0  0  0  0  0  0  0  0  0  0
   -4.4970   24.1050  -30.2910 C   0  0  0  0  0  0  0  0  0  0  0  0
   -3.1710   24.0890  -29.9980 F   0  0  0  0  0  0  0  0  0  0  0  0
   -5.0060   23.3180  -31.3370 C   0  0  0  0  0  0  0  0  0  0  0  0
   -4.1010   22.5010  -32.1090 C   0  0  0  0  0  0  0  0  0  0  0  0
   -3.3760   21.8460  -32.7280 N   0  0  0  0  0  0  0  0  0  0  0  0
   -6.6920   20.0740  -32.9340 C   0  0  0  0  0  0  0  0  0  0  0  0
   -5.1476   19.0861  -34.5882 H   0  0  0  0  0  0  0  0  0  0  0  0
   -5.1026   17.4986  -35.4275 H   0  0  0  0  0  0  0  0  0  0  0  0
   -6.6122   18.4721  -35.4275 H   0  0  0  0  0  0  0  0  0  0  0  0
   -8.7880   17.5837  -31.8844 H   0  0  0  0  0  0  0  0  0  0  0  0
  -10.0624   19.5605  -31.0478 H   0  0  0  0  0  0  0  0  0  0  0  0
   -9.1864   21.8655  -31.4232 H   0  0  0  0  0  0  0  0  0  0  0  0
   -6.9370   22.9180  -33.6600 H   0  0  0  0  0  0  0  0  0  0  0  0
   -8.3145   24.1778  -31.0707 H   0  0  0  0  0  0  0  0  0  0  0  0
   -7.3905   25.5770  -29.2265 H   0  0  0  0  0  0  0  0  0  0  0  0
   -4.9490   25.5314  -28.7242 H   0  0  0  0  0  0  0  0  0  0  0  0
   -5.7296   20.2147  -33.4477 H   0  0  0  0  0  0  0  0  0  0  0  0
  1  2  1  0
  2  3  1  0
  3  4  2  0
  4  5  1  0
  5  6  2  0
  6  7  1  0
  7  8  1  0
  8  9  1  0
  9 10  2  0
 10 11  1  0
 11 12  2  0
 12 13  1  0
 13 14  1  0
 13 15  2  0
 15 16  1  0
 16 17  3  0
  7 18  2  0
 18  3  1  0
 15  9  1  0
  1 19  1  0
  1 20  1  0
  1 21  1  0
  4 22  1  0
  5 23  1  0
  6 24  1  0
  8 25  1  0
 10 26  1  0
 11 27  1  0
 12 28  1  0
 18 29  1  0
M  END
>  <UniqueID>  (9) 
9

>  <SMILES>  (9) 
CSc1cccc(Nc2cccc(F)c2C#N)c1

>  <Energy>  (9) 
31.0986006413702

>  <Genealogy>  (9) 
CSc1cccc(Nc2cccc(F)c2C#N)c1 (3D coordinates assigned)
CSc1cccc(Nc2cccc(F)c2C#N)c1 (optimized conformer: 31.0986006413702 kcal/mol)

>  <smiles>  (9) 
CSc1cccc(Nc2cccc(F)c2C#N)c1

>  <score_type>  (9) 
oracle

>  <origin>  (9) 
adgpu

>  <m_score__min__energy>  (9) 
-7.4299999999999997

>  <m_primary>  (9) 
energy

$$$$
9:0
     RDKit          3D

 36 38  0  0  0  0  0  0  0  0999 V2000
  -10.3650   21.1430  -31.0520 H   0  0  0  0  0  0  0  0  0  0  0  0
   -9.5350   21.7270  -30.8060 N   0  0  0  0  0  0  0  0  0  0  0  0
   -8.3050   21.4030  -31.0770 C   0  0  0  0  0  0  0  0  0  0  0  0
   -7.9850   20.2000  -31.7510 C   0  0  0  0  0  0  0  0  0  0  0  0
   -9.0310   19.3060  -32.2100 C   0  0  0  0  0  0  0  0  0  0  0  0
   -9.8650   18.5930  -32.5770 N   0  0  0  0  0  0  0  0  0  0  0  0
   -6.6300   19.9030  -32.0160 C   0  0  0  0  0  0  0  0  0  0  0  0
   -6.2160   18.6530  -32.7000 C   0  0  0  0  0  0  0  0  0  0  0  0
   -5.9050   18.6690  -34.0700 C   0  0  0  0  0  0  0  0  0  0  0  0
   -5.9812   19.6082  -34.6374 H   0  0  0  0  0  0  0  0  0  0  0  0
   -5.4990   17.4970  -34.7160 C   0  0  0  0  0  0  0  0  0  0  0  0
   -5.2619   17.5175  -35.7900 H   0  0  0  0  0  0  0  0  0  0  0  0
   -5.3930   16.2970  -34.0010 C   0  0  0  0  0  0  0  0  0  0  0  0
   -4.9780   15.0980  -34.6620 N   0  0  0  0  0  0  0  0  0  0  0  0
   -4.1460   15.0970  -35.2940 H   0  0  0  0  0  0  0  0  0  0  0  0
   -5.4980   14.2030  -34.5240 H   0  0  0  0  0  0  0  0  0  0  0  0
   -5.6910   16.2800  -32.6310 C   0  0  0  0  0  0  0  0  0  0  0  0
   -5.6048   15.3418  -32.0633 H   0  0  0  0  0  0  0  0  0  0  0  0
   -6.0970   17.4500  -31.9840 C   0  0  0  0  0  0  0  0  0  0  0  0
   -6.3247   17.4291  -30.9080 H   0  0  0  0  0  0  0  0  0  0  0  0
   -5.6420   20.8130  -31.6230 C   0  0  0  0  0  0  0  0  0  0  0  0
   -4.5844   20.5987  -31.8364 H   0  0  0  0  0  0  0  0  0  0  0  0
   -5.9930   21.9940  -30.9600 C   0  0  0  0  0  0  0  0  0  0  0  0
   -4.9430   22.9530  -30.5300 C   0  0  0  0  0  0  0  0  0  0  0  0
   -5.1970   24.3360  -30.5370 C   0  0  0  0  0  0  0  0  0  0  0  0
   -6.1797   24.7092  -30.8610 H   0  0  0  0  0  0  0  0  0  0  0  0
   -4.2090   25.2400  -30.1350 C   0  0  0  0  0  0  0  0  0  0  0  0
   -4.4169   26.3201  -30.1439 H   0  0  0  0  0  0  0  0  0  0  0  0
   -2.9580   24.7740  -29.7220 C   0  0  0  0  0  0  0  0  0  0  0  0
   -1.9770   25.6730  -29.3220 O   0  0  0  0  0  0  0  0  0  0  0  0
   -2.6940   23.4020  -29.7120 C   0  0  0  0  0  0  0  0  0  0  0  0
   -1.7086   23.0353  -29.3886 H   0  0  0  0  0  0  0  0  0  0  0  0
   -3.6790   22.4940  -30.1120 C   0  0  0  0  0  0  0  0  0  0  0  0
   -3.4654   21.4150  -30.1001 H   0  0  0  0  0  0  0  0  0  0  0  0
   -7.3080   22.2530  -30.7010 N   0  0  0  0  0  0  0  0  0  0  0  0
   -7.5690   23.1460  -30.2230 H   0  0  0  0  0  0  0  0  0  0  0  0
  1  2  1  0
  2  3  2  0
  3  4  1  0
  4  5  1  0
  5  6  3  0
  4  7  2  0
  7  8  1  0
  8  9  2  0
  9 10  1  0
  9 11  1  0
 11 12  1  0
 11 13  2  0
 13 14  1  0
 14 15  1  0
 14 16  1  0
 13 17  1  0
 17 18  1  0
 17 19  2  0
 19 20  1  0
  7 21  1  0
 21 22  1  0
 21 23  2  0
 23 24  1  0
 24 25  2  0
 25 26  1  0
 25 27  1  0
 27 28  1  0
 27 29  2  0
 29 30  1  0
 29 31  1  0
 31 32  1  0
 31 33  2  0
 33 34  1  0
 23 35  1  0
 35 36  1  0
 35  3  1  0
 19  8  1  0
 33 24  1  0
M  CHG  1  30  -1
M  END
>  <UniqueID>  (10) 
10

>  <SMILES>  (10) 
[H]/N=c1/[nH]c(-c2ccc([O-])cc2)cc(-c2ccc(N)cc2)c1C#N

>  <Energy>  (10) 
53.12291415986286

>  <Genealogy>  (10) 
N#Cc1c(-c2ccc(N)cc2)cc(-c2ccc([O-])cc2)[nH]c1=N (protonated)
[H]/N=c1/[nH]c(-c2ccc([O-])cc2)cc(-c2ccc(N)cc2)c1C#N (cis-trans isomerization)
[H]/N=c1/[nH]c(-c2ccc([O-])cc2)cc(-c2ccc(N)cc2)c1C#N (3D coordinates assigned)
[H]/N=c1/[nH]c(-c2ccc([O-])cc2)cc(-c2ccc(N)cc2)c1C#N (optimized conformer: 53.12291415986286 kcal/mol)

>  <smiles>  (10) 
N#Cc1c(-c2ccc(N)cc2)cc(-c2ccc(O)cc2)[nH]c1=N

>  <score_type>  (10) 
oracle

>  <origin>  (10) 
adgpu

>  <m_score__min__energy>  (10) 
-10.32

>  <m_primary>  (10) 
energy

$$$$
10:0
     RDKit          3D

 51 54  0  0  0  0  0  0  0  0999 V2000
   -3.7920   24.6060  -27.0690 C   0  0  0  0  0  0  0  0  0  0  0  0
   -3.0450   23.4040  -27.5860 C   0  0  0  0  0  0  0  0  0  0  0  0
   -3.6670   22.1450  -27.5610 C   0  0  0  0  0  0  0  0  0  0  0  0
   -3.0070   21.0180  -28.0540 C   0  0  0  0  0  0  0  0  0  0  0  0
   -1.7190   21.1330  -28.5890 C   0  0  0  0  0  0  0  0  0  0  0  0
   -1.0720   19.9850  -29.1770 N   0  0  0  0  0  0  0  0  0  0  0  0
   -1.0950   19.7810  -30.5400 C   0  0  0  0  0  0  0  0  0  0  0  0
   -1.8820   20.6350  -31.4610 C   0  0  0  0  0  0  0  0  0  0  0  0
   -1.3460   21.6570  -31.9660 O   0  0  0  0  0  0  0  0  0  0  0  0
   -3.2080   20.2550  -31.8560 N   0  0  0  0  0  0  0  0  0  0  0  0
   -4.3380   21.1470  -31.8860 C   0  0  0  0  0  0  0  0  0  0  0  0
   -5.5010   20.8540  -32.6260 C   0  0  0  0  0  0  0  0  0  0  0  0
   -6.5480   21.7760  -32.6880 C   0  0  0  0  0  0  0  0  0  0  0  0
   -6.4470   23.0010  -32.0250 C   0  0  0  0  0  0  0  0  0  0  0  0
   -5.2980   23.3070  -31.2860 C   0  0  0  0  0  0  0  0  0  0  0  0
   -5.1570   24.8590  -30.4680 S   0  0  0  0  0  0  0  0  0  0  0  0
   -3.4890   25.2700  -30.2960 N   0  0  0  0  0  0  0  0  0  0  0  0
   -5.8570   25.9220  -31.2670 O   0  0  0  0  0  0  0  0  0  0  0  0
   -5.7980   24.7750  -29.1100 O   0  0  0  0  0  0  0  0  0  0  0  0
   -4.2470   22.3820  -31.2260 C   0  0  0  0  0  0  0  0  0  0  0  0
   -0.3860   18.7590  -31.0840 N   0  0  0  0  0  0  0  0  0  0  0  0
    0.3290   17.9000  -30.3180 C   0  0  0  0  0  0  0  0  0  0  0  0
    1.0380   16.8520  -30.9180 C   0  0  0  0  0  0  0  0  0  0  0  0
    1.7690   15.9590  -30.1280 C   0  0  0  0  0  0  0  0  0  0  0  0
    1.7940   16.1090  -28.7380 C   0  0  0  0  0  0  0  0  0  0  0  0
    2.7120   14.9860  -27.7530 Cl  0  0  0  0  0  0  0  0  0  0  0  0
    1.0870   17.1550  -28.1320 C   0  0  0  0  0  0  0  0  0  0  0  0
    0.3490   18.0590  -28.9200 C   0  0  0  0  0  0  0  0  0  0  0  0
   -0.3680   19.1320  -28.3650 C   0  0  0  0  0  0  0  0  0  0  0  0
   -0.3490   19.3170  -27.1150 O   0  0  0  0  0  0  0  0  0  0  0  0
   -1.0780   22.3790  -28.5880 C   0  0  0  0  0  0  0  0  0  0  0  0
   -1.7270   23.5200  -28.0870 C   0  0  0  0  0  0  0  0  0  0  0  0
   -1.0180   24.8490  -28.1250 C   0  0  0  0  0  0  0  0  0  0  0  0
   -3.7859   24.5963  -25.9691 H   0  0  0  0  0  0  0  0  0  0  0  0
   -3.3049   25.5237  -27.4302 H   0  0  0  0  0  0  0  0  0  0  0  0
   -4.8305   24.5756  -27.4302 H   0  0  0  0  0  0  0  0  0  0  0  0
   -4.6824   22.0462  -27.1496 H   0  0  0  0  0  0  0  0  0  0  0  0
   -3.5012   20.0358  -28.0218 H   0  0  0  0  0  0  0  0  0  0  0  0
   -3.3780   19.2370  -32.0170 H   0  0  0  0  0  0  0  0  0  0  0  0
   -5.5845   19.8944  -33.1573 H   0  0  0  0  0  0  0  0  0  0  0  0
   -7.4558   21.5365  -33.2612 H   0  0  0  0  0  0  0  0  0  0  0  0
   -7.2716   23.7267  -32.0835 H   0  0  0  0  0  0  0  0  0  0  0  0
   -3.1680   25.6380  -31.2190 H   0  0  0  0  0  0  0  0  0  0  0  0
   -3.3396   22.6270  -30.6545 H   0  0  0  0  0  0  0  0  0  0  0  0
    1.0200   16.7311  -32.0112 H   0  0  0  0  0  0  0  0  0  0  0  0
    2.3256   15.1367  -30.6012 H   0  0  0  0  0  0  0  0  0  0  0  0
    1.1082   17.2706  -27.0383 H   0  0  0  0  0  0  0  0  0  0  0  0
   -0.0553   22.4648  -28.9839 H   0  0  0  0  0  0  0  0  0  0  0  0
   -0.8332   25.1955  -27.0975 H   0  0  0  0  0  0  0  0  0  0  0  0
   -0.0592   24.7381  -28.6526 H   0  0  0  0  0  0  0  0  0  0  0  0
   -1.6441   25.5836  -28.6526 H   0  0  0  0  0  0  0  0  0  0  0  0
  1  2  1  0
  2  3  2  0
  3  4  1  0
  4  5  2  0
  5  6  1  0
  6  7  1  0
  7  8  1  0
  8  9  2  0
  8 10  1  0
 10 11  1  0
 11 12  2  0
 12 13  1  0
 13 14  2  0
 14 15  1  0
 15 16  1  0
 16 17  1  0
 16 18  2  0
 16 19  2  0
 15 20  2  0
  7 21  2  0
 21 22  1  0
 22 23  2  0
 23 24  1  0
 24 25  2  0
 25 26  1  0
 25 27  1  0
 27 28  2  0
 28 29  1  0
 29 30  2  0
  5 31  1  0
 31 32  2  0
 32 33  1  0
 32  2  1  0
 29  6  1  0
 20 11  1  0
 28 22  1  0
  1 34  1  0
  1 35  1  0
  1 36  1  0
  3 37  1  0
  4 38  1  0
 10 39  1  0
 12 40  1  0
 13 41  1  0
 14 42  1  0
 17 43  1  0
 20 44  1  0
 23 45  1  0
 24 46  1  0
 27 47  1  0
 31 48  1  0
 33 49  1  0
 33 50  1  0
 33 51  1  0
M  CHG  1  17  -1
M  END
>  <UniqueID>  (11) 
11

>  <SMILES>  (11) 
Cc1ccc(-n2c(C(=O)Nc3cccc(S([NH-])(=O)=O)c3)nc3ccc(Cl)cc3c2=O)cc1C

>  <Energy>  (11) 
73.12860835937538

>  <Genealogy>  (11) 
Cc1ccc(-n2c(C(=O)Nc3cccc(S([NH-])(=O)=O)c3)nc3ccc(Cl)cc3c2=O)cc1C (protonated)
Cc1ccc(-n2c(C(=O)Nc3cccc(S([NH-])(=O)=O)c3)nc3ccc(Cl)cc3c2=O)cc1C (3D coordinates assigned)
Cc1ccc(-n2c(C(=O)Nc3cccc(S([NH-])(=O)=O)c3)nc3ccc(Cl)cc3c2=O)cc1C (optimized conformer: 73.12860835937538 kcal/mol)

>  <smiles>  (11) 
Cc1ccc(-n2c(C(=O)Nc3cccc(S(N)(=O)=O)c3)nc3ccc(Cl)cc3c2=O)cc1C

>  <score_type>  (11) 
oracle

>  <origin>  (11) 
adgpu

>  <m_score__min__energy>  (11) 
-11.949999999999999

>  <m_primary>  (11) 
energy

$$$$
11:0
     RDKit          3D

 59 62  0  0  0  0  0  0  0  0999 V2000
   -0.1390   20.8300  -31.4560 C   0  0  0  0  0  0  0  0  0  0  0  0
   -0.3590   21.4570  -30.1970 O   0  0  0  0  0  0  0  0  0  0  0  0
   -1.0190   20.8550  -29.1130 C   0  0  0  0  0  0  0  0  0  0  0  0
   -0.8000   19.5080  -28.7640 C   0  0  0  0  0  0  0  0  0  0  0  0
   -1.4450   18.9490  -27.6590 C   0  0  0  0  0  0  0  0  0  0  0  0
   -2.3130   19.7230  -26.8890 C   0  0  0  0  0  0  0  0  0  0  0  0
   -2.5450   21.0570  -27.2260 C   0  0  0  0  0  0  0  0  0  0  0  0
   -1.9090   21.6290  -28.3400 C   0  0  0  0  0  0  0  0  0  0  0  0
   -2.1670   23.0480  -28.6710 C   0  0  0  0  0  0  0  0  0  0  0  0
   -1.3500   24.1190  -28.3110 C   0  0  0  0  0  0  0  0  0  0  0  0
   -0.0600   24.0330  -27.5900 C   0  0  0  0  0  0  0  0  0  0  0  0
    0.9940   24.0420  -28.2830 O   0  0  0  0  0  0  0  0  0  0  0  0
    0.0570   23.9440  -26.0690 C   0  0  0  0  0  0  0  0  0  0  0  0
   -0.1660   22.4870  -25.6240 C   0  0  0  0  0  0  0  0  0  0  0  0
   -1.0310   24.8300  -25.4240 C   0  0  0  0  0  0  0  0  0  0  0  0
    1.4310   24.4400  -25.5630 C   0  0  0  0  0  0  0  0  0  0  0  0
   -1.8910   25.2260  -28.9440 C   0  0  0  0  0  0  0  0  0  0  0  0
   -1.3780   26.5160  -28.9590 O   0  0  0  0  0  0  0  0  0  0  0  0
   -3.0130   24.8040  -29.6210 C   0  0  0  0  0  0  0  0  0  0  0  0
   -3.8600   25.6170  -30.3700 O   0  0  0  0  0  0  0  0  0  0  0  0
   -3.1840   23.4760  -29.4620 N   0  0  0  0  0  0  0  0  0  0  0  0
   -4.2490   22.6850  -30.0180 C   0  0  0  0  0  0  0  0  0  0  0  0
   -3.9630   21.5030  -30.7160 C   0  0  0  0  0  0  0  0  0  0  0  0
   -4.9970   20.7250  -31.2450 C   0  0  0  0  0  0  0  0  0  0  0  0
   -6.3380   21.1180  -31.0870 C   0  0  0  0  0  0  0  0  0  0  0  0
   -7.4380   20.2910  -31.6450 C   0  0  0  0  0  0  0  0  0  0  0  0
   -8.6700   20.8770  -31.9920 C   0  0  0  0  0  0  0  0  0  0  0  0
   -9.7040   20.0940  -32.5170 C   0  0  0  0  0  0  0  0  0  0  0  0
   -9.5200   18.7210  -32.7010 C   0  0  0  0  0  0  0  0  0  0  0  0
   -8.3020   18.1290  -32.3610 C   0  0  0  0  0  0  0  0  0  0  0  0
   -7.2660   18.9060  -31.8340 C   0  0  0  0  0  0  0  0  0  0  0  0
   -6.6210   22.3070  -30.3920 C   0  0  0  0  0  0  0  0  0  0  0  0
   -5.5850   23.0840  -29.8650 C   0  0  0  0  0  0  0  0  0  0  0  0
    0.2213   19.8031  -31.2962 H   0  0  0  0  0  0  0  0  0  0  0  0
   -1.0817   20.8039  -32.0223 H   0  0  0  0  0  0  0  0  0  0  0  0
    0.6133   21.3986  -32.0223 H   0  0  0  0  0  0  0  0  0  0  0  0
   -0.1160   18.8921  -29.3663 H   0  0  0  0  0  0  0  0  0  0  0  0
   -1.2682   17.8959  -27.3951 H   0  0  0  0  0  0  0  0  0  0  0  0
   -2.8150   19.2815  -26.0155 H   0  0  0  0  0  0  0  0  0  0  0  0
   -3.2299   21.6641  -26.6158 H   0  0  0  0  0  0  0  0  0  0  0  0
   -0.1738   22.4363  -24.5252 H   0  0  0  0  0  0  0  0  0  0  0  0
   -1.1296   22.1278  -26.0144 H   0  0  0  0  0  0  0  0  0  0  0  0
    0.6460   21.8560  -26.0144 H   0  0  0  0  0  0  0  0  0  0  0  0
   -0.9534   24.7668  -24.3286 H   0  0  0  0  0  0  0  0  0  0  0  0
   -0.8901   25.8736  -25.7420 H   0  0  0  0  0  0  0  0  0  0  0  0
   -2.0244   24.4807  -25.7420 H   0  0  0  0  0  0  0  0  0  0  0  0
    1.4376   24.4424  -24.4630 H   0  0  0  0  0  0  0  0  0  0  0  0
    2.2215   23.7705  -25.9330 H   0  0  0  0  0  0  0  0  0  0  0  0
    1.6116   25.4601  -25.9330 H   0  0  0  0  0  0  0  0  0  0  0  0
   -3.8670   26.6220  -30.2420 H   0  0  0  0  0  0  0  0  0  0  0  0
   -2.9181   21.1858  -30.8482 H   0  0  0  0  0  0  0  0  0  0  0  0
   -4.7600   19.7987  -31.7888 H   0  0  0  0  0  0  0  0  0  0  0  0
   -8.8208   21.9573  -31.8495 H   0  0  0  0  0  0  0  0  0  0  0  0
  -10.6635   20.5601  -32.7854 H   0  0  0  0  0  0  0  0  0  0  0  0
  -10.3342   18.1070  -33.1134 H   0  0  0  0  0  0  0  0  0  0  0  0
   -8.1572   17.0485  -32.5081 H   0  0  0  0  0  0  0  0  0  0  0  0
   -6.3102   18.4324  -31.5652 H   0  0  0  0  0  0  0  0  0  0  0  0
   -7.6650   22.6282  -30.2620 H   0  0  0  0  0  0  0  0  0  0  0  0
   -5.8192   24.0144  -29.3268 H   0  0  0  0  0  0  0  0  0  0  0  0
  1  2  1  0
  2  3  1  0
  3  4  2  0
  4  5  1  0
  5  6  2  0
  6  7  1  0
  7  8  2  0
  8  9  1  0
  9 10  2  0
 10 11  1  0
 11 12  2  0
 11 13  1  0
 13 14  1  0
 13 15  1  0
 13 16  1  0
 10 17  1  0
 17 18  1  0
 17 19  2  0
 19 20  1  0
 19 21  1  0
 21 22  1  0
 22 23  2  0
 23 24  1  0
 24 25  2  0
 25 26  1  0
 26 27  2  0
 27 28  1  0
 28 29  2  0
 29 30  1  0
 30 31  2  0
 25 32  1  0
 32 33  2  0
  8  3  1  0
 21  9  1  0
 33 22  1  0
 31 26  1  0
  1 34  1  0
  1 35  1  0
  1 36  1  0
  4 37  1  0
  5 38  1  0
  6 39  1  0
  7 40  1  0
 14 41  1  0
 14 42  1  0
 14 43  1  0
 15 44  1  0
 15 45  1  0
 15 46  1  0
 16 47  1  0
 16 48  1  0
 16 49  1  0
 20 50  1  0
 23 51  1  0
 24 52  1  0
 27 53  1  0
 28 54  1  0
 29 55  1  0
 30 56  1  0
 31 57  1  0
 32 58  1  0
 33 59  1  0
M  CHG  1  18  -1
M  END
>  <UniqueID>  (12) 
12

>  <SMILES>  (12) 
COc1ccccc1-c1c(C(=O)C(C)(C)C)c([O-])c(O)n1-c1ccc(-c2ccccc2)cc1

>  <Energy>  (12) 
108.92053718127836

>  <Genealogy>  (12) 
COc1ccccc1-c1c(C(=O)C(C)(C)C)c([O-])c(O)n1-c1ccc(-c2ccccc2)cc1 (protonated)
COc1ccccc1-c1c(C(=O)C(C)(C)C)c([O-])c(O)n1-c1ccc(-c2ccccc2)cc1 (3D coordinates assigned)
COc1ccccc1-c1c(C(=O)C(C)(C)C)c([O-])c(O)n1-c1ccc(-c2ccccc2)cc1 (optimized conformer: 108.92053718127836 kcal/mol)

>  <smiles>  (12) 
COc1ccccc1-c1c(C(=O)C(C)(C)C)c(O)c(O)n1-c1ccc(-c2ccccc2)cc1

>  <score_type>  (12) 
oracle

>  <origin>  (12) 
adgpu

>  <m_score__min__energy>  (12) 
-12.880000000000001

>  <m_primary>  (12) 
energy

$$$$
12:0
     RDKit          3D

 37 39  0  0  0  0  0  0  0  0999 V2000
   -6.4530   17.6170  -33.6230 C   0  0  0  0  0  0  0  0  0  0  0  0
   -5.9200   18.8230  -34.1610 O   0  0  0  0  0  0  0  0  0  0  0  0
   -5.4460   19.8990  -33.3920 C   0  0  0  0  0  0  0  0  0  0  0  0
   -4.0700   20.1030  -33.1690 C   0  0  0  0  0  0  0  0  0  0  0  0
   -3.6300   21.1780  -32.3950 C   0  0  0  0  0  0  0  0  0  0  0  0
   -4.5510   22.0640  -31.8200 C   0  0  0  0  0  0  0  0  0  0  0  0
   -4.0650   23.1990  -31.0050 C   0  0  0  0  0  0  0  0  0  0  0  0
   -4.4750   24.4700  -31.2010 N   0  0  0  0  0  0  0  0  0  0  0  0
   -3.8680   25.2240  -30.2970 N   0  0  0  0  0  0  0  0  0  0  0  0
   -3.0980   24.4030  -29.5600 C   0  0  0  0  0  0  0  0  0  0  0  0
   -2.0880   24.9440  -28.3880 S   0  0  0  0  0  0  0  0  0  0  0  0
   -3.1910   23.1220  -29.9740 N   0  0  0  0  0  0  0  0  0  0  0  0
   -2.4150   21.9930  -29.5350 C   0  0  0  0  0  0  0  0  0  0  0  0
   -1.2180   21.6600  -30.1870 C   0  0  0  0  0  0  0  0  0  0  0  0
   -0.4540   20.5740  -29.7500 C   0  0  0  0  0  0  0  0  0  0  0  0
   -0.8720   19.8140  -28.6470 C   0  0  0  0  0  0  0  0  0  0  0  0
   -0.0720   18.6270  -28.2000 C   0  0  0  0  0  0  0  0  0  0  0  0
   -2.0790   20.1340  -28.0060 C   0  0  0  0  0  0  0  0  0  0  0  0
   -2.8420   21.2200  -28.4450 C   0  0  0  0  0  0  0  0  0  0  0  0
   -5.9210   21.8780  -32.0610 C   0  0  0  0  0  0  0  0  0  0  0  0
   -6.3730   20.7990  -32.8340 C   0  0  0  0  0  0  0  0  0  0  0  0
   -7.7790   20.6280  -33.0520 N   0  0  0  0  0  0  0  0  0  0  0  0
   -6.4319   17.6648  -32.5242 H   0  0  0  0  0  0  0  0  0  0  0  0
   -7.4909   17.4904  -33.9646 H   0  0  0  0  0  0  0  0  0  0  0  0
   -5.8479   16.7642  -33.9646 H   0  0  0  0  0  0  0  0  0  0  0  0
   -3.3371   19.4101  -33.6080 H   0  0  0  0  0  0  0  0  0  0  0  0
   -2.5525   21.3308  -32.2352 H   0  0  0  0  0  0  0  0  0  0  0  0
   -0.8790   22.2567  -31.0466 H   0  0  0  0  0  0  0  0  0  0  0  0
    0.4783   20.3142  -30.2727 H   0  0  0  0  0  0  0  0  0  0  0  0
   -0.0492   18.5931  -27.1008 H   0  0  0  0  0  0  0  0  0  0  0  0
   -0.5348   17.7066  -28.5857 H   0  0  0  0  0  0  0  0  0  0  0  0
    0.9548   18.7106  -28.5857 H   0  0  0  0  0  0  0  0  0  0  0  0
   -2.4256   19.5284  -27.1556 H   0  0  0  0  0  0  0  0  0  0  0  0
   -3.7828   21.4699  -27.9327 H   0  0  0  0  0  0  0  0  0  0  0  0
   -6.6485   22.5868  -31.6387 H   0  0  0  0  0  0  0  0  0  0  0  0
   -8.1410   20.0290  -33.8270 H   0  0  0  0  0  0  0  0  0  0  0  0
   -8.4750   21.1010  -32.4330 H   0  0  0  0  0  0  0  0  0  0  0  0
  1  2  1  0
  2  3  1  0
  3  4  2  0
  4  5  1  0
  5  6  2  0
  6  7  1  0
  7  8  2  0
  8  9  1  0
  9 10  1  0
 10 11  2  0
 10 12  1  0
 12 13  1  0
 13 14  2  0
 14 15  1  0
 15 16  2  0
 16 17  1  0
 16 18  1  0
 18 19  2  0
  6 20  1  0
 20 21  2  0
 21 22  1  0
 21  3  1  0
 12  7  1  0
 19 13  1  0
  1 23  1  0
  1 24  1  0
  1 25  1  0
  4 26  1  0
  5 27  1  0
 14 28  1  0
 15 29  1  0
 17 30  1  0
 17 31  1  0
 17 32  1  0
 18 33  1  0
 19 34  1  0
 20 35  1  0
 22 36  1  0
 22 37  1  0
M  CHG  1   9  -1
M  END
>  <UniqueID>  (13) 
13

>  <SMILES>  (13) 
COc1ccc(-c2n[n-]c(=S)n2-c2ccc(C)cc2)cc1N

>  <Energy>  (13) 
83.00387395733514

>  <Genealogy>  (13) 
COc1ccc(-c2n[n-]c(=S)n2-c2ccc(C)cc2)cc1N (protonated)
COc1ccc(-c2n[n-]c(=S)n2-c2ccc(C)cc2)cc1N (3D coordinates assigned)
COc1ccc(-c2n[n-]c(=S)n2-c2ccc(C)cc2)cc1N (optimized conformer: 83.00387395733514 kcal/mol)

>  <smiles>  (13) 
COc1ccc(-c2n[nH]c(=S)n2-c2ccc(C)cc2)cc1N

>  <score_type>  (13) 
oracle

>  <origin>  (13) 
adgpu

>  <m_score__min__energy>  (13) 
-8.3399999999999999

>  <m_primary>  (13) 
energy

$$$$
13:0
     RDKit          3D

 49 51  0  0  0  0  0  0  0  0999 V2000
   -0.6030   25.9790  -24.1250 C   0  0  0  0  0  0  0  0  0  0  0  0
   -0.4200   24.9960  -25.1380 O   0  0  0  0  0  0  0  0  0  0  0  0
   -1.1310   24.9650  -26.3470 C   0  0  0  0  0  0  0  0  0  0  0  0
   -2.4710   24.5400  -26.4260 C   0  0  0  0  0  0  0  0  0  0  0  0
   -3.1350   24.5220  -27.6560 C   0  0  0  0  0  0  0  0  0  0  0  0
   -2.4680   24.9210  -28.8270 C   0  0  0  0  0  0  0  0  0  0  0  0
   -3.1110   24.9260  -30.1080 N   0  0  0  0  0  0  0  0  0  0  0  0
   -4.7560   24.4660  -30.4020 S   0  0  0  0  0  0  0  0  0  0  0  0
   -5.4390   25.5530  -31.1830 O   0  0  0  0  0  0  0  0  0  0  0  0
   -5.4620   24.2980  -29.0860 O   0  0  0  0  0  0  0  0  0  0  0  0
   -4.8140   22.9750  -31.3390 C   0  0  0  0  0  0  0  0  0  0  0  0
   -5.9500   22.1610  -31.3050 C   0  0  0  0  0  0  0  0  0  0  0  0
   -5.9940   20.9890  -32.0600 C   0  0  0  0  0  0  0  0  0  0  0  0
   -4.9120   20.6240  -32.8660 C   0  0  0  0  0  0  0  0  0  0  0  0
   -5.0500   19.1520  -33.8210 Cl  0  0  0  0  0  0  0  0  0  0  0  0
   -3.7620   21.4420  -32.9220 C   0  0  0  0  0  0  0  0  0  0  0  0
   -2.6490   21.0780  -33.7620 N   0  0  0  0  0  0  0  0  0  0  0  0
   -1.0670   20.7040  -33.1550 S   0  0  0  0  0  0  0  0  0  0  0  0
   -0.0630   21.6360  -33.7750 O   0  0  0  0  0  0  0  0  0  0  0  0
   -0.7130   19.2940  -33.5360 O   0  0  0  0  0  0  0  0  0  0  0  0
   -1.0470   20.8430  -31.4020 C   0  0  0  0  0  0  0  0  0  0  0  0
   -0.8540   22.0900  -30.7880 C   0  0  0  0  0  0  0  0  0  0  0  0
   -0.7800   22.1840  -29.3960 C   0  0  0  0  0  0  0  0  0  0  0  0
   -0.8960   21.0330  -28.6070 C   0  0  0  0  0  0  0  0  0  0  0  0
   -0.7370   21.1470  -26.8240 S   0  0  0  0  0  0  0  0  0  0  0  0
   -1.9950   19.8750  -26.5080 C   0  0  0  0  0  0  0  0  0  0  0  0
   -1.1040   19.7910  -29.2160 C   0  0  0  0  0  0  0  0  0  0  0  0
   -1.1790   19.6960  -30.6080 C   0  0  0  0  0  0  0  0  0  0  0  0
   -3.7220   22.6120  -32.1360 C   0  0  0  0  0  0  0  0  0  0  0  0
   -1.1390   25.3480  -28.7450 C   0  0  0  0  0  0  0  0  0  0  0  0
   -0.4770   25.3720  -27.5140 C   0  0  0  0  0  0  0  0  0  0  0  0
   -0.5151   25.5066  -23.1355 H   0  0  0  0  0  0  0  0  0  0  0  0
    0.1653   26.7594  -24.2283 H   0  0  0  0  0  0  0  0  0  0  0  0
   -1.6007   26.4307  -24.2283 H   0  0  0  0  0  0  0  0  0  0  0  0
   -2.9982   24.2204  -25.5150 H   0  0  0  0  0  0  0  0  0  0  0  0
   -4.1838   24.1942  -27.7076 H   0  0  0  0  0  0  0  0  0  0  0  0
   -6.8107   22.4453  -30.6818 H   0  0  0  0  0  0  0  0  0  0  0  0
   -6.8866   20.3474  -32.0208 H   0  0  0  0  0  0  0  0  0  0  0  0
   -2.7510   21.0980  -34.8000 H   0  0  0  0  0  0  0  0  0  0  0  0
   -0.7607   22.9962  -31.4045 H   0  0  0  0  0  0  0  0  0  0  0  0
   -0.6304   23.1639  -28.9190 H   0  0  0  0  0  0  0  0  0  0  0  0
   -2.1221   19.7465  -25.4229 H   0  0  0  0  0  0  0  0  0  0  0  0
   -2.9509   20.1857  -26.9549 H   0  0  0  0  0  0  0  0  0  0  0  0
   -1.6737   18.9226  -26.9549 H   0  0  0  0  0  0  0  0  0  0  0  0
   -1.2087   18.8872  -28.5977 H   0  0  0  0  0  0  0  0  0  0  0  0
   -1.3423   18.7171  -31.0824 H   0  0  0  0  0  0  0  0  0  0  0  0
   -2.8233   23.2461  -32.1493 H   0  0  0  0  0  0  0  0  0  0  0  0
   -0.6108   25.6672  -29.6555 H   0  0  0  0  0  0  0  0  0  0  0  0
    0.5673   25.7140  -27.4630 H   0  0  0  0  0  0  0  0  0  0  0  0
  1  2  1  0
  2  3  1  0
  3  4  2  0
  4  5  1  0
  5  6  2  0
  6  7  1  0
  7  8  1  0
  8  9  2  0
  8 10  2  0
  8 11  1  0
 11 12  2  0
 12 13  1  0
 13 14  2  0
 14 15  1  0
 14 16  1  0
 16 17  1  0
 17 18  1  0
 18 19  2  0
 18 20  2  0
 18 21  1  0
 21 22  2  0
 22 23  1  0
 23 24  2  0
 24 25  1  0
 25 26  1  0
 24 27  1  0
 27 28  2  0
 16 29  2  0
  6 30  1  0
 30 31  2  0
 31  3  1  0
 29 11  1  0
 28 21  1  0
  1 32  1  0
  1 33  1  0
  1 34  1  0
  4 35  1  0
  5 36  1  0
 12 37  1  0
 13 38  1  0
 17 39  1  0
 22 40  1  0
 23 41  1  0
 26 42  1  0
 26 43  1  0
 26 44  1  0
 27 45  1  0
 28 46  1  0
 29 47  1  0
 30 48  1  0
 31 49  1  0
M  CHG  1   7  -1
M  END
>  <UniqueID>  (14) 
14

>  <SMILES>  (14) 
COc1ccc([N-]S(=O)(=O)c2ccc(Cl)c(NS(=O)(=O)c3ccc(SC)cc3)c2)cc1

>  <Energy>  (14) 
51.5245674185326

>  <Genealogy>  (14) 
COc1ccc([N-]S(=O)(=O)c2ccc(Cl)c(NS(=O)(=O)c3ccc(SC)cc3)c2)cc1 (protonated)
COc1ccc([N-]S(=O)(=O)c2ccc(Cl)c(NS(=O)(=O)c3ccc(SC)cc3)c2)cc1 (3D coordinates assigned)
COc1ccc([N-]S(=O)(=O)c2ccc(Cl)c(NS(=O)(=O)c3ccc(SC)cc3)c2)cc1 (optimized conformer: 51.5245674185326 kcal/mol)

>  <smiles>  (14) 
COc1ccc(NS(=O)(=O)c2ccc(Cl)c(NS(=O)(=O)c3ccc(SC)cc3)c2)cc1

>  <score_type>  (14) 
oracle

>  <origin>  (14) 
adgpu

>  <m_score__min__energy>  (14) 
-11.27

>  <m_primary>  (14) 
energy

$$$$
14:0
     RDKit          3D

 32 34  0  0  0  0  0  0  0  0999 V2000
   -3.0310   25.2050  -29.7820 O   0  0  0  0  0  0  0  0  0  0  0  0
   -4.1530   24.5010  -30.2120 C   0  0  0  0  0  0  0  0  0  0  0  0
   -4.0180   23.2610  -30.8470 C   0  0  0  0  0  0  0  0  0  0  0  0
   -5.1520   22.5630  -31.2750 C   0  0  0  0  0  0  0  0  0  0  0  0
   -6.4340   23.1000  -31.0720 C   0  0  0  0  0  0  0  0  0  0  0  0
   -7.6230   22.3690  -31.5450 C   0  0  0  0  0  0  0  0  0  0  0  0
   -8.7840   22.9480  -31.9150 N   0  0  0  0  0  0  0  0  0  0  0  0
   -9.5820   21.9680  -32.3090 N   0  0  0  0  0  0  0  0  0  0  0  0
   -8.8780   20.8320  -32.1630 C   0  0  0  0  0  0  0  0  0  0  0  0
   -9.4810   19.2060  -32.6070 S   0  0  0  0  0  0  0  0  0  0  0  0
   -8.0730   18.3200  -31.8470 C   0  0  0  0  0  0  0  0  0  0  0  0
   -6.9010   18.2660  -32.7890 C   0  0  0  0  0  0  0  0  0  0  0  0
   -6.7790   17.2080  -33.7050 C   0  0  0  0  0  0  0  0  0  0  0  0
   -5.6560   17.1190  -34.5310 C   0  0  0  0  0  0  0  0  0  0  0  0
   -4.6410   18.0750  -34.4430 C   0  0  0  0  0  0  0  0  0  0  0  0
   -4.7520   19.1310  -33.5310 C   0  0  0  0  0  0  0  0  0  0  0  0
   -3.4630   20.3140  -33.3970 Cl  0  0  0  0  0  0  0  0  0  0  0  0
   -5.8810   19.2310  -32.7120 C   0  0  0  0  0  0  0  0  0  0  0  0
   -7.6810   21.0670  -31.6870 O   0  0  0  0  0  0  0  0  0  0  0  0
   -6.5630   24.3470  -30.4370 C   0  0  0  0  0  0  0  0  0  0  0  0
   -5.4270   25.0410  -30.0090 C   0  0  0  0  0  0  0  0  0  0  0  0
   -3.1130   26.1150  -29.3420 H   0  0  0  0  0  0  0  0  0  0  0  0
   -3.0173   22.8342  -31.0099 H   0  0  0  0  0  0  0  0  0  0  0  0
   -5.0393   21.5887  -31.7730 H   0  0  0  0  0  0  0  0  0  0  0  0
   -7.7722   18.8434  -30.9275 H   0  0  0  0  0  0  0  0  0  0  0  0
   -8.3875   17.2911  -31.6181 H   0  0  0  0  0  0  0  0  0  0  0  0
   -7.5705   16.4470  -33.7721 H   0  0  0  0  0  0  0  0  0  0  0  0
   -5.5706   16.2936  -35.2530 H   0  0  0  0  0  0  0  0  0  0  0  0
   -3.7549   17.9978  -35.0902 H   0  0  0  0  0  0  0  0  0  0  0  0
   -5.9717   20.0683  -32.0043 H   0  0  0  0  0  0  0  0  0  0  0  0
   -7.5617   24.7789  -30.2760 H   0  0  0  0  0  0  0  0  0  0  0  0
   -5.5358   26.0156  -29.5106 H   0  0  0  0  0  0  0  0  0  0  0  0
  1  2  1  0
  2  3  2  0
  3  4  1  0
  4  5  2  0
  5  6  1  0
  6  7  2  0
  7  8  1  0
  8  9  2  0
  9 10  1  0
 10 11  1  0
 11 12  1  0
 12 13  2  0
 13 14  1  0
 14 15  2  0
 15 16  1  0
 16 17  1  0
 16 18  2  0
  9 19  1  0
  5 20  1  0
 20 21  2  0
 21  2  1  0
 19  6  1  0
 18 12  1  0
  1 22  1  0
  3 23  1  0
  4 24  1  0
 11 25  1  0
 11 26  1  0
 13 27  1  0
 14 28  1  0
 15 29  1  0
 18 30  1  0
 20 31  1  0
 21 32  1  0
M  END
>  <UniqueID>  (15) 
15

>  <SMILES>  (15) 
Oc1ccc(-c2nnc(SCc3cccc(Cl)c3)o2)cc1

>  <Energy>  (15) 
63.05541269299631

>  <Genealogy>  (15) 
Oc1ccc(-c2nnc(SCc3cccc(Cl)c3)o2)cc1 (3D coordinates assigned)
Oc1ccc(-c2nnc(SCc3cccc(Cl)c3)o2)cc1 (optimized conformer: 63.05541269299631 kcal/mol)

>  <smiles>  (15) 
Oc1ccc(-c2nnc(SCc3cccc(Cl)c3)o2)cc1

>  <score_type>  (15) 
oracle

>  <origin>  (15) 
adgpu

>  <m_score__min__energy>  (15) 
-9.5

>  <m_primary>  (15) 
energy

$$$$
15:0
     RDKit          3D

 33 34  0  0  0  0  0  0  0  0999 V2000
   -6.5980   24.6320  -29.9680 O   0  0  0  0  0  0  0  0  0  0  0  0
   -5.4660   24.1320  -30.8250 S   0  0  0  0  0  0  0  0  0  0  0  0
   -4.6080   25.3020  -31.2160 O   0  0  0  0  0  0  0  0  0  0  0  0
   -6.0660   23.3480  -32.2640 N   0  0  0  0  0  0  0  0  0  0  0  0
   -7.5330   23.3710  -32.3410 C   0  0  0  0  0  0  0  0  0  0  0  0
   -8.1750   22.2610  -31.4910 C   0  0  0  0  0  0  0  0  0  0  0  0
   -7.8360   20.8740  -31.9850 C   0  0  0  0  0  0  0  0  0  0  0  0
   -6.7770   20.6710  -32.8880 C   0  0  0  0  0  0  0  0  0  0  0  0
   -6.4690   19.3850  -33.3400 C   0  0  0  0  0  0  0  0  0  0  0  0
   -7.2260   18.2900  -32.9090 C   0  0  0  0  0  0  0  0  0  0  0  0
   -6.8360   16.6760  -33.4730 Cl  0  0  0  0  0  0  0  0  0  0  0  0
   -8.2990   18.4860  -32.0340 C   0  0  0  0  0  0  0  0  0  0  0  0
   -8.6100   19.7710  -31.5840 C   0  0  0  0  0  0  0  0  0  0  0  0
   -4.4770   22.9910  -29.9210 C   0  0  0  0  0  0  0  0  0  0  0  0
   -3.9130   21.8720  -30.5500 C   0  0  0  0  0  0  0  0  0  0  0  0
   -3.1200   20.9820  -29.8180 C   0  0  0  0  0  0  0  0  0  0  0  0
   -2.8890   21.2050  -28.4570 C   0  0  0  0  0  0  0  0  0  0  0  0
   -3.4550   22.3160  -27.8260 C   0  0  0  0  0  0  0  0  0  0  0  0
   -4.2500   23.2070  -28.5540 C   0  0  0  0  0  0  0  0  0  0  0  0
   -5.7020   23.8940  -33.0780 H   0  0  0  0  0  0  0  0  0  0  0  0
   -7.8918   24.3463  -31.9803 H   0  0  0  0  0  0  0  0  0  0  0  0
   -7.8197   23.2030  -33.3896 H   0  0  0  0  0  0  0  0  0  0  0  0
   -7.8192   22.3616  -30.4550 H   0  0  0  0  0  0  0  0  0  0  0  0
   -9.2663   22.3797  -31.5615 H   0  0  0  0  0  0  0  0  0  0  0  0
   -6.1874   21.5300  -33.2407 H   0  0  0  0  0  0  0  0  0  0  0  0
   -5.6304   19.2334  -34.0355 H   0  0  0  0  0  0  0  0  0  0  0  0
   -8.8990   17.6268  -31.6996 H   0  0  0  0  0  0  0  0  0  0  0  0
   -9.4669   19.9212  -30.9108 H   0  0  0  0  0  0  0  0  0  0  0  0
   -4.0943   21.6938  -31.6202 H   0  0  0  0  0  0  0  0  0  0  0  0
   -2.6775   20.1054  -30.3137 H   0  0  0  0  0  0  0  0  0  0  0  0
   -2.2622   20.5063  -27.8835 H   0  0  0  0  0  0  0  0  0  0  0  0
   -3.2749   22.4900  -26.7549 H   0  0  0  0  0  0  0  0  0  0  0  0
   -4.6978   24.0783  -28.0538 H   0  0  0  0  0  0  0  0  0  0  0  0
  1  2  2  0
  2  3  2  0
  2  4  1  0
  4  5  1  0
  5  6  1  0
  6  7  1  0
  7  8  2  0
  8  9  1  0
  9 10  2  0
 10 11  1  0
 10 12  1  0
 12 13  2  0
  2 14  1  0
 14 15  2  0
 15 16  1  0
 16 17  2  0
 17 18  1  0
 18 19  2  0
 13  7  1  0
 19 14  1  0
  4 20  1  0
  5 21  1  0
  5 22  1  0
  6 23  1  0
  6 24  1  0
  8 25  1  0
  9 26  1  0
 12 27  1  0
 13 28  1  0
 15 29  1  0
 16 30  1  0
 17 31  1  0
 18 32  1  0
 19 33  1  0
M  END
>  <UniqueID>  (16) 
16

>  <SMILES>  (16) 
O=S(=O)(NCCc1ccc(Cl)cc1)c1ccccc1

>  <Energy>  (16) 
29.333804295475172

>  <Genealogy>  (16) 
O=S(=O)(NCCc1ccc(Cl)cc1)c1ccccc1 (3D coordinates assigned)
O=S(=O)(NCCc1ccc(Cl)cc1)c1ccccc1 (optimized conformer: 29.333804295475172 kcal/mol)

>  <smiles>  (16) 
O=S(=O)(NCCc1ccc(Cl)cc1)c1ccccc1

>  <score_type>  (16) 
oracle

>  <origin>  (16) 
adgpu

>  <m_score__min__energy>  (16) 
-8.4499999999999993

>  <m_primary>  (16) 
energy

$$$$
16:0
     RDKit          3D

 51 53  0  0  0  0  0  0  0  0999 V2000
   -0.8680   26.8250  -27.8880 C   0  0  0  0  0  0  0  0  0  0  0  0
   -1.5470   26.0170  -28.8420 O   0  0  0  0  0  0  0  0  0  0  0  0
   -2.0230   24.7190  -28.5980 C   0  0  0  0  0  0  0  0  0  0  0  0
   -1.4900   23.9200  -27.5650 C   0  0  0  0  0  0  0  0  0  0  0  0
   -1.9400   22.6100  -27.3810 C   0  0  0  0  0  0  0  0  0  0  0  0
   -2.9170   22.0810  -28.2240 C   0  0  0  0  0  0  0  0  0  0  0  0
   -3.4600   22.8640  -29.2420 C   0  0  0  0  0  0  0  0  0  0  0  0
   -3.0430   24.1890  -29.4200 C   0  0  0  0  0  0  0  0  0  0  0  0
   -3.6540   24.9600  -30.4680 N   0  0  0  0  0  0  0  0  0  0  0  0
   -5.0580   25.0500  -30.7470 C   0  0  0  0  0  0  0  0  0  0  0  0
   -5.6270   26.1670  -30.6200 O   0  0  0  0  0  0  0  0  0  0  0  0
   -5.8440   23.8830  -31.2120 C   0  0  0  0  0  0  0  0  0  0  0  0
   -7.2430   23.8770  -31.1190 C   0  0  0  0  0  0  0  0  0  0  0  0
   -7.9760   22.7820  -31.5810 C   0  0  0  0  0  0  0  0  0  0  0  0
   -7.3250   21.6690  -32.1460 C   0  0  0  0  0  0  0  0  0  0  0  0
   -8.0410   20.5550  -32.6090 O   0  0  0  0  0  0  0  0  0  0  0  0
   -8.3470   19.4050  -31.8270 C   0  0  0  0  0  0  0  0  0  0  0  0
   -5.9180   21.6730  -32.2400 C   0  0  0  0  0  0  0  0  0  0  0  0
   -5.0320   20.3050  -32.9300 S   0  0  0  0  0  0  0  0  0  0  0  0
   -5.7350   19.8650  -34.1840 O   0  0  0  0  0  0  0  0  0  0  0  0
   -5.0140   19.1480  -31.9700 O   0  0  0  0  0  0  0  0  0  0  0  0
   -3.3980   20.7850  -33.3210 N   0  0  0  0  0  0  0  0  0  0  0  0
   -2.7180   19.7470  -34.1390 C   0  0  0  0  0  0  0  0  0  0  0  0
   -1.7210   18.9020  -33.3320 C   0  0  0  0  0  0  0  0  0  0  0  0
   -0.6390   19.7840  -32.6880 C   0  0  0  0  0  0  0  0  0  0  0  0
   -1.1580   21.1840  -32.3110 C   0  0  0  0  0  0  0  0  0  0  0  0
   -2.6740   21.1670  -32.0880 C   0  0  0  0  0  0  0  0  0  0  0  0
   -5.1890   22.7680  -31.7550 C   0  0  0  0  0  0  0  0  0  0  0  0
   -1.1404   26.5008  -26.8728 H   0  0  0  0  0  0  0  0  0  0  0  0
    0.2183   26.7216  -28.0268 H   0  0  0  0  0  0  0  0  0  0  0  0
   -1.1569   27.8773  -28.0268 H   0  0  0  0  0  0  0  0  0  0  0  0
   -0.7156   24.3306  -26.9004 H   0  0  0  0  0  0  0  0  0  0  0  0
   -1.5230   21.9950  -26.5699 H   0  0  0  0  0  0  0  0  0  0  0  0
   -3.2596   21.0449  -28.0857 H   0  0  0  0  0  0  0  0  0  0  0  0
   -4.2221   22.4375  -29.9107 H   0  0  0  0  0  0  0  0  0  0  0  0
   -7.7659   24.7394  -30.6798 H   0  0  0  0  0  0  0  0  0  0  0  0
   -9.0732   22.7891  -31.5027 H   0  0  0  0  0  0  0  0  0  0  0  0
   -8.2793   19.6593  -30.7589 H   0  0  0  0  0  0  0  0  0  0  0  0
   -9.3670   19.0646  -32.0590 H   0  0  0  0  0  0  0  0  0  0  0  0
   -7.6311   18.6027  -32.0590 H   0  0  0  0  0  0  0  0  0  0  0  0
   -3.4822   19.0782  -34.5617 H   0  0  0  0  0  0  0  0  0  0  0  0
   -2.1480   20.2679  -34.9224 H   0  0  0  0  0  0  0  0  0  0  0  0
   -2.2641   18.3648  -32.5405 H   0  0  0  0  0  0  0  0  0  0  0  0
   -1.2313   18.1931  -34.0159 H   0  0  0  0  0  0  0  0  0  0  0  0
   -0.2762   19.2863  -31.7766 H   0  0  0  0  0  0  0  0  0  0  0  0
    0.1645   19.9163  -33.4276 H   0  0  0  0  0  0  0  0  0  0  0  0
   -0.6622   21.5143  -31.3863 H   0  0  0  0  0  0  0  0  0  0  0  0
   -0.9334   21.8748  -33.1371 H   0  0  0  0  0  0  0  0  0  0  0  0
   -2.9108   20.4423  -31.2951 H   0  0  0  0  0  0  0  0  0  0  0  0
   -2.9924   22.1797  -31.7998 H   0  0  0  0  0  0  0  0  0  0  0  0
   -4.0901   22.7524  -31.8009 H   0  0  0  0  0  0  0  0  0  0  0  0
  1  2  1  0
  2  3  1  0
  3  4  2  0
  4  5  1  0
  5  6  2  0
  6  7  1  0
  7  8  2  0
  8  9  1  0
  9 10  1  0
 10 11  2  0
 10 12  1  0
 12 13  2  0
 13 14  1  0
 14 15  2  0
 15 16  1  0
 16 17  1  0
 15 18  1  0
 18 19  1  0
 19 20  2  0
 19 21  2  0
 19 22  1  0
 22 23  1  0
 23 24  1  0
 24 25  1  0
 25 26  1  0
 26 27  1  0
 18 28  2  0
  8  3  1  0
 28 12  1  0
 27 22  1  0
  1 29  1  0
  1 30  1  0
  1 31  1  0
  4 32  1  0
  5 33  1  0
  6 34  1  0
  7 35  1  0
 13 36  1  0
 14 37  1  0
 17 38  1  0
 17 39  1  0
 17 40  1  0
 23 41  1  0
 23 42  1  0
 24 43  1  0
 24 44  1  0
 25 45  1  0
 25 46  1  0
 26 47  1  0
 26 48  1  0
 27 49  1  0
 27 50  1  0
 28 51  1  0
M  CHG  1   9  -1
M  END
>  <UniqueID>  (17) 
17

>  <SMILES>  (17) 
COc1ccccc1[N-]C(=O)c1ccc(OC)c(S(=O)(=O)N2CCCCC2)c1

>  <Energy>  (17) 
64.2830019266623

>  <Genealogy>  (17) 
COc1ccccc1[N-]C(=O)c1ccc(OC)c(S(=O)(=O)N2CCCCC2)c1 (protonated)
COc1ccccc1[N-]C(=O)c1ccc(OC)c(S(=O)(=O)N2CCCCC2)c1 (3D coordinates assigned)
COc1ccccc1[N-]C(=O)c1ccc(OC)c(S(=O)(=O)N2CCCCC2)c1 (nonaromatic ring conformer: 64.2830019266623 kcal/mol)

>  <smiles>  (17) 
COc1ccccc1NC(=O)c1ccc(OC)c(S(=O)(=O)N2CCCCC2)c1

>  <score_type>  (17) 
oracle

>  <origin>  (17) 
adgpu

>  <m_score__min__energy>  (17) 
-11.640000000000001

>  <m_primary>  (17) 
energy

$$$$
17:0
     RDKit          3D

 64 68  0  0  0  0  0  0  0  0999 V2000
   -3.5200   18.5890  -25.9150 C   0  0  0  0  0  0  0  0  0  0  0  0
   -2.3540   19.3400  -26.5560 C   0  0  0  0  0  0  0  0  0  0  0  0
   -2.7380   19.9650  -27.9060 C   0  0  0  0  0  0  0  0  0  0  0  0
   -2.5820   21.4650  -27.9100 C   0  0  0  0  0  0  0  0  0  0  0  0
   -2.0950   22.1380  -26.8470 N   0  0  0  0  0  0  0  0  0  0  0  0
   -2.0290   23.4180  -27.2560 C   0  0  0  0  0  0  0  0  0  0  0  0
   -1.5260   24.5190  -26.3770 C   0  0  0  0  0  0  0  0  0  0  0  0
   -2.4550   23.5140  -28.5730 C   0  0  0  0  0  0  0  0  0  0  0  0
   -2.4740   24.7550  -29.3940 C   0  0  0  0  0  0  0  0  0  0  0  0
   -1.6220   25.6630  -29.2110 O   0  0  0  0  0  0  0  0  0  0  0  0
   -3.4880   24.9400  -30.3850 N   0  0  0  0  0  0  0  0  0  0  0  0
   -4.8850   25.1940  -30.0560 C   0  0  0  0  0  0  0  0  0  0  0  0
   -5.7440   24.0810  -30.5900 C   0  0  0  0  0  0  0  0  0  0  0  0
   -6.7810   23.5460  -29.8060 C   0  0  0  0  0  0  0  0  0  0  0  0
   -7.5710   22.5010  -30.3000 C   0  0  0  0  0  0  0  0  0  0  0  0
   -7.3190   21.9710  -31.5710 C   0  0  0  0  0  0  0  0  0  0  0  0
   -8.3100   20.6610  -32.1890 Cl  0  0  0  0  0  0  0  0  0  0  0  0
   -6.2750   22.4850  -32.3480 C   0  0  0  0  0  0  0  0  0  0  0  0
   -5.4900   23.5340  -31.8600 C   0  0  0  0  0  0  0  0  0  0  0  0
   -2.8100   22.2690  -28.9820 N   0  0  0  0  0  0  0  0  0  0  0  0
   -3.3000   21.8380  -30.2990 C   0  0  0  0  0  0  0  0  0  0  0  0
   -2.1700   21.3110  -31.1500 C   0  0  0  0  0  0  0  0  0  0  0  0
   -0.8700   21.2280  -30.6240 C   0  0  0  0  0  0  0  0  0  0  0  0
    0.1740   20.7120  -31.3950 C   0  0  0  0  0  0  0  0  0  0  0  0
   -0.0690   20.2580  -32.7000 C   0  0  0  0  0  0  0  0  0  0  0  0
    1.0410   19.7270  -33.5240 C   0  0  0  0  0  0  0  0  0  0  0  0
    1.5070   18.4290  -33.2490 C   0  0  0  0  0  0  0  0  0  0  0  0
    2.5990   17.9020  -33.9380 C   0  0  0  0  0  0  0  0  0  0  0  0
    3.2470   18.6660  -34.9050 C   0  0  0  0  0  0  0  0  0  0  0  0
    2.7930   19.9520  -35.2030 C   0  0  0  0  0  0  0  0  0  0  0  0
    1.6780   20.4950  -34.5370 C   0  0  0  0  0  0  0  0  0  0  0  0
    1.1870   21.8310  -34.9590 C   0  0  0  0  0  0  0  0  0  0  0  0
   -0.0640   22.0960  -35.3800 N   0  0  0  0  0  0  0  0  0  0  0  0
   -0.0540   23.3810  -35.6890 N   0  0  0  0  0  0  0  0  0  0  0  0
    1.1530   23.8820  -35.4760 N   0  0  0  0  0  0  0  0  0  0  0  0
    1.9570   22.9340  -35.0240 N   0  0  0  0  0  0  0  0  0  0  0  0
   -1.3650   20.3480  -33.2300 C   0  0  0  0  0  0  0  0  0  0  0  0
   -2.4090   20.8590  -32.4580 C   0  0  0  0  0  0  0  0  0  0  0  0
   -3.4340   18.6444  -24.8198 H   0  0  0  0  0  0  0  0  0  0  0  0
   -4.4690   19.0461  -26.2319 H   0  0  0  0  0  0  0  0  0  0  0  0
   -3.4964   17.5359  -26.2319 H   0  0  0  0  0  0  0  0  0  0  0  0
   -2.0306   20.1404  -25.8743 H   0  0  0  0  0  0  0  0  0  0  0  0
   -1.5451   18.6168  -26.7367 H   0  0  0  0  0  0  0  0  0  0  0  0
   -2.0918   19.5405  -28.6884 H   0  0  0  0  0  0  0  0  0  0  0  0
   -3.7981   19.7375  -28.0916 H   0  0  0  0  0  0  0  0  0  0  0  0
   -1.6559   24.2346  -25.3224 H   0  0  0  0  0  0  0  0  0  0  0  0
   -0.4592   24.6928  -26.5811 H   0  0  0  0  0  0  0  0  0  0  0  0
   -2.0930   25.4392  -26.5811 H   0  0  0  0  0  0  0  0  0  0  0  0
   -4.9984   25.2509  -28.9633 H   0  0  0  0  0  0  0  0  0  0  0  0
   -5.1984   26.1452  -30.5109 H   0  0  0  0  0  0  0  0  0  0  0  0
   -6.9724   23.9498  -28.8009 H   0  0  0  0  0  0  0  0  0  0  0  0
   -8.3908   22.0959  -29.6886 H   0  0  0  0  0  0  0  0  0  0  0  0
   -6.0717   22.0635  -33.3435 H   0  0  0  0  0  0  0  0  0  0  0  0
   -4.6689   23.9337  -32.4733 H   0  0  0  0  0  0  0  0  0  0  0  0
   -4.0482   21.0434  -30.1622 H   0  0  0  0  0  0  0  0  0  0  0  0
   -3.7474   22.7047  -30.8076 H   0  0  0  0  0  0  0  0  0  0  0  0
   -0.6730   21.5718  -29.5978 H   0  0  0  0  0  0  0  0  0  0  0  0
    1.1904   20.6614  -30.9775 H   0  0  0  0  0  0  0  0  0  0  0  0
    1.0043   17.8223  -32.4814 H   0  0  0  0  0  0  0  0  0  0  0  0
    2.9485   16.8826  -33.7175 H   0  0  0  0  0  0  0  0  0  0  0  0
    4.1188   18.2552  -35.4354 H   0  0  0  0  0  0  0  0  0  0  0  0
    3.3128   20.5482  -35.9674 H   0  0  0  0  0  0  0  0  0  0  0  0
   -1.5591   20.0138  -34.2599 H   0  0  0  0  0  0  0  0  0  0  0  0
   -3.4251   20.9081  -32.8764 H   0  0  0  0  0  0  0  0  0  0  0  0
  1  2  1  0
  2  3  1  0
  3  4  1  0
  4  5  2  0
  5  6  1  0
  6  7  1  0
  6  8  2  0
  8  9  1  0
  9 10  2  0
  9 11  1  0
 11 12  1  0
 12 13  1  0
 13 14  2  0
 14 15  1  0
 15 16  2  0
 16 17  1  0
 16 18  1  0
 18 19  2  0
  8 20  1  0
 20 21  1  0
 21 22  1  0
 22 23  2  0
 23 24  1  0
 24 25  2  0
 25 26  1  0
 26 27  2  0
 27 28  1  0
 28 29  2  0
 29 30  1  0
 30 31  2  0
 31 32  1  0
 32 33  1  0
 33 34  2  0
 34 35  1  0
 35 36  1  0
 25 37  1  0
 37 38  2  0
 20  4  1  0
 38 22  1  0
 19 13  1  0
 31 26  1  0
 36 32  2  0
  1 39  1  0
  1 40  1  0
  1 41  1  0
  2 42  1  0
  2 43  1  0
  3 44  1  0
  3 45  1  0
  7 46  1  0
  7 47  1  0
  7 48  1  0
 12 49  1  0
 12 50  1  0
 14 51  1  0
 15 52  1  0
 18 53  1  0
 19 54  1  0
 21 55  1  0
 21 56  1  0
 23 57  1  0
 24 58  1  0
 27 59  1  0
 28 60  1  0
 29 61  1  0
 30 62  1  0
 37 63  1  0
 38 64  1  0
M  CHG  2  11  -1  35  -1
M  END
>  <UniqueID>  (18) 
18

>  <SMILES>  (18) 
CCCc1nc(C)c(C(=O)[N-]Cc2ccc(Cl)cc2)n1Cc1ccc(-c2ccccc2-c2nn[n-]n2)cc1

>  <Energy>  (18) 
143.04134007098136

>  <Genealogy>  (18) 
CCCc1nc(C)c(C(=O)[N-]Cc2ccc(Cl)cc2)n1Cc1ccc(-c2ccccc2-c2nn[n-]n2)cc1 (protonated)
CCCc1nc(C)c(C(=O)[N-]Cc2ccc(Cl)cc2)n1Cc1ccc(-c2ccccc2-c2nn[n-]n2)cc1 (3D coordinates assigned)
CCCc1nc(C)c(C(=O)[N-]Cc2ccc(Cl)cc2)n1Cc1ccc(-c2ccccc2-c2nn[n-]n2)cc1 (optimized conformer: 143.04134007098136 kcal/mol)

>  <smiles>  (18) 
CCCc1nc(C)c(C(=O)NCc2ccc(Cl)cc2)n1Cc1ccc(-c2ccccc2-c2nn[nH]n2)cc1

>  <score_type>  (18) 
oracle

>  <origin>  (18) 
adgpu

>  <m_score__min__energy>  (18) 
-13.380000000000001

>  <m_primary>  (18) 
energy

$$$$
18:0
     RDKit          3D

 27 28  0  0  0  0  0  0  0  0999 V2000
   -4.1540   25.2600  -29.9700 N   0  0  0  0  0  0  0  0  0  0  0  0
   -5.1810   24.5300  -30.3140 C   0  0  0  0  0  0  0  0  0  0  0  0
   -5.8290   23.8780  -29.3540 N   0  0  0  0  0  0  0  0  0  0  0  0
   -6.9200   23.0860  -29.6010 C   0  0  0  0  0  0  0  0  0  0  0  0
   -7.3060   23.0110  -30.9200 C   0  0  0  0  0  0  0  0  0  0  0  0
   -8.4610   22.2060  -31.3730 C   0  0  0  0  0  0  0  0  0  0  0  0
   -8.1300   20.8570  -31.8320 C   0  0  0  0  0  0  0  0  0  0  0  0
   -6.9260   20.5720  -32.4970 C   0  0  0  0  0  0  0  0  0  0  0  0
   -6.6290   19.2880  -32.9020 C   0  0  0  0  0  0  0  0  0  0  0  0
   -7.5090   18.2270  -32.6720 C   0  0  0  0  0  0  0  0  0  0  0  0
   -8.7150   18.5070  -32.0110 C   0  0  0  0  0  0  0  0  0  0  0  0
   -9.0020   19.8100  -31.6050 C   0  0  0  0  0  0  0  0  0  0  0  0
   -6.6100   23.7030  -31.9080 C   0  0  0  0  0  0  0  0  0  0  0  0
   -6.9990   23.6080  -33.0880 N   0  0  0  0  0  0  0  0  0  0  0  0
   -5.5360   24.4780  -31.6290 N   0  0  0  0  0  0  0  0  0  0  0  0
   -3.9370   25.2570  -28.9480 H   0  0  0  0  0  0  0  0  0  0  0  0
   -5.5560   23.9210  -28.3270 H   0  0  0  0  0  0  0  0  0  0  0  0
   -7.4499   22.5480  -28.8012 H   0  0  0  0  0  0  0  0  0  0  0  0
   -9.1662   22.1177  -30.5334 H   0  0  0  0  0  0  0  0  0  0  0  0
   -8.8820   22.7327  -32.2421 H   0  0  0  0  0  0  0  0  0  0  0  0
   -6.2110   21.3836  -32.6972 H   0  0  0  0  0  0  0  0  0  0  0  0
   -5.6772   19.0942  -33.4182 H   0  0  0  0  0  0  0  0  0  0  0  0
   -7.2644   17.2055  -32.9985 H   0  0  0  0  0  0  0  0  0  0  0  0
   -9.4341   17.6985  -31.8131 H   0  0  0  0  0  0  0  0  0  0  0  0
   -9.9521   20.0102  -31.0880 H   0  0  0  0  0  0  0  0  0  0  0  0
   -6.8660   23.8600  -34.0100 H   0  0  0  0  0  0  0  0  0  0  0  0
   -5.0120   24.9970  -32.3610 H   0  0  0  0  0  0  0  0  0  0  0  0
  1  2  2  3
  2  3  1  0
  3  4  1  0
  4  5  2  0
  5  6  1  0
  6  7  1  0
  7  8  2  0
  8  9  1  0
  9 10  2  0
 10 11  1  0
 11 12  2  0
  5 13  1  0
 13 14  2  3
 13 15  1  0
 15  2  1  0
 12  7  1  0
  1 16  1  0
  3 17  1  0
  4 18  1  0
  6 19  1  0
  6 20  1  0
  8 21  1  0
  9 22  1  0
 10 23  1  0
 11 24  1  0
 12 25  1  0
 14 26  1  0
 15 27  1  0
M  END
>  <smiles>  (19) 
N=c1[nH]cc(Cc2ccccc2)c(=N)[nH]1

>  <score_type>  (19) 
oracle

>  <origin>  (19) 
adgpu

>  <m_score__min__energy>  (19) 
-6.9400000000000004

>  <m_primary>  (19) 
energy

$$$$
19:0
     RDKit          3D

 55 58  0  0  0  0  0  0  0  0999 V2000
   -6.7030   17.8470  -31.1190 C   0  0  0  0  0  0  0  0  0  0  0  0
   -5.8260   16.7550  -31.7270 C   0  0  0  0  0  0  0  0  0  0  0  0
   -5.9210   16.7810  -33.2030 N   0  0  0  0  0  0  0  0  0  0  0  0
   -4.6200   16.4370  -33.8240 C   0  0  0  0  0  0  0  0  0  0  0  0
   -3.4410   17.2680  -33.2850 C   0  0  0  0  0  0  0  0  0  0  0  0
   -3.2740   18.5920  -34.0410 C   0  0  0  0  0  0  0  0  0  0  0  0
   -4.5200   19.3700  -34.0900 N   0  0  0  0  0  0  0  0  0  0  0  0
   -4.6570   20.5190  -33.2320 C   0  0  0  0  0  0  0  0  0  0  0  0
   -5.8520   20.7230  -32.5220 C   0  0  0  0  0  0  0  0  0  0  0  0
   -5.9970   21.8270  -31.6790 C   0  0  0  0  0  0  0  0  0  0  0  0
   -4.9510   22.7460  -31.5370 C   0  0  0  0  0  0  0  0  0  0  0  0
   -5.1310   24.1460  -30.4860 S   0  0  0  0  0  0  0  0  0  0  0  0
   -3.8710   25.2820  -30.8170 N   0  0  0  0  0  0  0  0  0  0  0  0
   -6.4630   24.7990  -30.7210 O   0  0  0  0  0  0  0  0  0  0  0  0
   -5.0530   23.7130  -29.0490 O   0  0  0  0  0  0  0  0  0  0  0  0
   -3.7630   22.5570  -32.2500 C   0  0  0  0  0  0  0  0  0  0  0  0
   -3.5960   21.4350  -33.0800 C   0  0  0  0  0  0  0  0  0  0  0  0
   -2.3660   21.2180  -33.7880 N   0  0  0  0  0  0  0  0  0  0  0  0
   -1.0580   21.1350  -33.2050 C   0  0  0  0  0  0  0  0  0  0  0  0
   -0.0800   21.5950  -33.8520 O   0  0  0  0  0  0  0  0  0  0  0  0
   -0.8240   20.4870  -31.8940 C   0  0  0  0  0  0  0  0  0  0  0  0
   -0.1140   19.2600  -31.8080 C   0  0  0  0  0  0  0  0  0  0  0  0
    0.0990   18.6410  -30.5630 C   0  0  0  0  0  0  0  0  0  0  0  0
   -0.3980   19.2750  -29.4290 C   0  0  0  0  0  0  0  0  0  0  0  0
   -1.0640   20.4540  -29.5000 C   0  0  0  0  0  0  0  0  0  0  0  0
   -1.2950   21.1010  -30.7100 C   0  0  0  0  0  0  0  0  0  0  0  0
   -1.4360   20.8490  -28.2290 O   0  0  0  0  0  0  0  0  0  0  0  0
   -0.9750   19.8550  -27.3040 C   0  0  0  0  0  0  0  0  0  0  0  0
   -0.3180   18.8690  -28.1120 O   0  0  0  0  0  0  0  0  0  0  0  0
   -5.7210   18.8070  -34.7240 C   0  0  0  0  0  0  0  0  0  0  0  0
   -6.5620   18.0250  -33.6990 C   0  0  0  0  0  0  0  0  0  0  0  0
   -6.6550   17.7872  -30.0217 H   0  0  0  0  0  0  0  0  0  0  0  0
   -6.3426   18.8326  -31.4486 H   0  0  0  0  0  0  0  0  0  0  0  0
   -7.7432   17.7078  -31.4486 H   0  0  0  0  0  0  0  0  0  0  0  0
   -4.7805   16.9210  -31.4279 H   0  0  0  0  0  0  0  0  0  0  0  0
   -6.1715   15.7758  -31.3639 H   0  0  0  0  0  0  0  0  0  0  0  0
   -4.4130   15.3739  -33.6315 H   0  0  0  0  0  0  0  0  0  0  0  0
   -4.7065   16.6584  -34.8980 H   0  0  0  0  0  0  0  0  0  0  0  0
   -3.6183   17.4868  -32.2217 H   0  0  0  0  0  0  0  0  0  0  0  0
   -2.5214   16.6806  -33.4241 H   0  0  0  0  0  0  0  0  0  0  0  0
   -2.5024   19.1921  -33.5364 H   0  0  0  0  0  0  0  0  0  0  0  0
   -2.9865   18.3536  -35.0756 H   0  0  0  0  0  0  0  0  0  0  0  0
   -6.6802   20.0073  -32.6309 H   0  0  0  0  0  0  0  0  0  0  0  0
   -6.9358   21.9747  -31.1251 H   0  0  0  0  0  0  0  0  0  0  0  0
   -3.9320   26.0260  -30.0870 H   0  0  0  0  0  0  0  0  0  0  0  0
   -2.9511   23.2937  -32.1604 H   0  0  0  0  0  0  0  0  0  0  0  0
    0.2730   18.7892  -32.7237 H   0  0  0  0  0  0  0  0  0  0  0  0
    0.6409   17.6867  -30.4886 H   0  0  0  0  0  0  0  0  0  0  0  0
   -1.8285   22.0623  -30.7448 H   0  0  0  0  0  0  0  0  0  0  0  0
   -0.2705   20.2954  -26.5831 H   0  0  0  0  0  0  0  0  0  0  0  0
   -1.7995   19.4241  -26.7171 H   0  0  0  0  0  0  0  0  0  0  0  0
   -6.3274   19.6254  -35.1393 H   0  0  0  0  0  0  0  0  0  0  0  0
   -5.4091   18.1191  -35.5237 H   0  0  0  0  0  0  0  0  0  0  0  0
   -6.7522   18.6815  -32.8372 H   0  0  0  0  0  0  0  0  0  0  0  0
   -7.4836   17.7194  -34.2160 H   0  0  0  0  0  0  0  0  0  0  0  0
  1  2  1  0
  2  3  1  0
  3  4  1  0
  4  5  1  0
  5  6  1  0
  6  7  1  0
  7  8  1  0
  8  9  2  0
  9 10  1  0
 10 11  2  0
 11 12  1  0
 12 13  1  0
 12 14  2  0
 12 15  2  0
 11 16  1  0
 16 17  2  0
 17 18  1  0
 18 19  1  0
 19 20  2  0
 19 21  1  0
 21 22  2  0
 22 23  1  0
 23 24  2  0
 24 25  1  0
 25 26  2  0
 25 27  1  0
 27 28  1  0
 28 29  1  0
  7 30  1  0
 30 31  1  0
 31  3  1  0
 17  8  1  0
 26 21  1  0
 29 24  1  0
  1 32  1  0
  1 33  1  0
  1 34  1  0
  2 35  1  0
  2 36  1  0
  4 37  1  0
  4 38  1  0
  5 39  1  0
  5 40  1  0
  6 41  1  0
  6 42  1  0
  9 43  1  0
 10 44  1  0
 13 45  1  0
 16 46  1  0
 22 47  1  0
 23 48  1  0
 26 49  1  0
 28 50  1  0
 28 51  1  0
 30 52  1  0
 30 53  1  0
 31 54  1  0
 31 55  1  0
M  CHG  2  13  -1  18  -1
M  END
>  <UniqueID>  (20) 
19

>  <SMILES>  (20) 
CCN1CCCN(c2ccc(S([NH-])(=O)=O)cc2[N-]C(=O)c2ccc3c(c2)OCO3)CC1

>  <Energy>  (20) 
103.98892128831139

>  <Genealogy>  (20) 
CCN1CCCN(c2ccc(S([NH-])(=O)=O)cc2[N-]C(=O)c2ccc3c(c2)OCO3)CC1 (protonated)
CCN1CCCN(c2ccc(S([NH-])(=O)=O)cc2[N-]C(=O)c2ccc3c(c2)OCO3)CC1 (3D coordinates assigned)
CCN1CCCN(c2ccc(S([NH-])(=O)=O)cc2[N-]C(=O)c2ccc3c(c2)OCO3)CC1 (nonaromatic ring conformer: 103.98892128831139 kcal/mol)

>  <smiles>  (20) 
CCN1CCCN(c2ccc(S(N)(=O)=O)cc2NC(=O)c2ccc3c(c2)OCO3)CC1

>  <score_type>  (20) 
oracle

>  <origin>  (20) 
adgpu

>  <m_score__min__energy>  (20) 
-9.2699999999999996

>  <m_primary>  (20) 
energy

$$$$
20:0
     RDKit          3D

 39 41  0  0  0  0  0  0  0  0999 V2000
   -8.0652   24.3889  -30.6861 H   0  0  0  0  0  0  0  0  0  0  0  0
   -7.2590   23.7390  -31.0570 C   0  0  0  0  0  0  0  0  0  0  0  0
   -7.6040   22.7460  -31.8930 C   0  0  0  0  0  0  0  0  0  0  0  0
   -8.6350   22.7440  -32.2763 H   0  0  0  0  0  0  0  0  0  0  0  0
   -6.7120   21.6560  -32.3400 C   0  0  0  0  0  0  0  0  0  0  0  0
   -7.2030   20.3610  -32.5760 C   0  0  0  0  0  0  0  0  0  0  0  0
   -8.2647   20.1366  -32.3958 H   0  0  0  0  0  0  0  0  0  0  0  0
   -6.3480   19.3560  -33.0390 C   0  0  0  0  0  0  0  0  0  0  0  0
   -6.7359   18.3402  -33.2052 H   0  0  0  0  0  0  0  0  0  0  0  0
   -4.9990   19.6380  -33.2920 C   0  0  0  0  0  0  0  0  0  0  0  0
   -4.1260   18.6100  -33.7660 N   0  0  0  0  0  0  0  0  0  0  0  0
   -3.1060   18.6280  -33.5390 H   0  0  0  0  0  0  0  0  0  0  0  0
   -4.4920   17.8230  -34.3450 H   0  0  0  0  0  0  0  0  0  0  0  0
   -4.5140   20.9370  -33.0870 C   0  0  0  0  0  0  0  0  0  0  0  0
   -3.4578   21.1662  -33.2918 H   0  0  0  0  0  0  0  0  0  0  0  0
   -5.3680   21.9430  -32.6230 C   0  0  0  0  0  0  0  0  0  0  0  0
   -4.9842   22.9638  -32.4793 H   0  0  0  0  0  0  0  0  0  0  0  0
   -5.8860   24.0310  -30.5940 C   0  0  0  0  0  0  0  0  0  0  0  0
   -5.0930   24.9250  -31.2420 N   0  0  0  0  0  0  0  0  0  0  0  0
   -3.8700   25.2170  -30.8000 N   0  0  0  0  0  0  0  0  0  0  0  0
   -3.3790   24.6440  -29.6720 C   0  0  0  0  0  0  0  0  0  0  0  0
   -2.1700   24.9300  -29.2860 N   0  0  0  0  0  0  0  0  0  0  0  0
   -1.5080   24.4590  -28.0990 C   0  0  0  0  0  0  0  0  0  0  0  0
   -0.7120   23.2990  -28.0970 C   0  0  0  0  0  0  0  0  0  0  0  0
   -0.5577   22.7394  -29.0314 H   0  0  0  0  0  0  0  0  0  0  0  0
   -0.1160   22.8540  -26.9130 C   0  0  0  0  0  0  0  0  0  0  0  0
    0.5086   21.9486  -26.9211 H   0  0  0  0  0  0  0  0  0  0  0  0
   -0.3110   23.5570  -25.7150 C   0  0  0  0  0  0  0  0  0  0  0  0
    0.2970   23.0560  -24.4380 C   0  0  0  0  0  0  0  0  0  0  0  0
   -0.2356   23.4949  -23.5814 H   0  0  0  0  0  0  0  0  0  0  0  0
    0.2150   21.9598  -24.3982 H   0  0  0  0  0  0  0  0  0  0  0  0
    1.3573   23.3461  -24.3982 H   0  0  0  0  0  0  0  0  0  0  0  0
   -1.1440   24.6850  -25.7070 C   0  0  0  0  0  0  0  0  0  0  0  0
   -1.3286   25.2229  -24.7654 H   0  0  0  0  0  0  0  0  0  0  0  0
   -1.7410   25.1290  -26.8910 C   0  0  0  0  0  0  0  0  0  0  0  0
   -2.3984   26.0108  -26.8737 H   0  0  0  0  0  0  0  0  0  0  0  0
   -4.1500   23.7500  -28.9940 N   0  0  0  0  0  0  0  0  0  0  0  0
   -5.3970   23.4410  -29.4250 C   0  0  0  0  0  0  0  0  0  0  0  0
   -6.0193   22.7317  -28.8596 H   0  0  0  0  0  0  0  0  0  0  0  0
  1  2  1  0
  2  3  2  0
  3  4  1  0
  3  5  1  0
  5  6  2  0
  6  7  1  0
  6  8  1  0
  8  9  1  0
  8 10  2  0
 10 11  1  0
 11 12  1  0
 11 13  1  0
 10 14  1  0
 14 15  1  0
 14 16  2  0
 16 17  1  0
  2 18  1  0
 18 19  2  0
 19 20  1  0
 20 21  1  0
 21 22  2  0
 22 23  1  0
 23 24  2  0
 24 25  1  0
 24 26  1  0
 26 27  1  0
 26 28  2  0
 28 29  1  0
 29 30  1  0
 29 31  1  0
 29 32  1  0
 28 33  1  0
 33 34  1  0
 33 35  2  0
 35 36  1  0
 21 37  1  0
 37 38  2  0
 38 39  1  0
 16  5  1  0
 38 18  1  0
 35 23  1  0
M  CHG  1  20  -1
M  END
>  <UniqueID>  (21) 
20

>  <SMILES>  (21) 
Cc1ccc(/N=c2\ncc(/C=C\c3ccc(N)cc3)n[n-]2)cc1

>  <Energy>  (21) 
56.22068193041425

>  <Genealogy>  (21) 
Cc1ccc(N=c2ncc(C=Cc3ccc(N)cc3)n[n-]2)cc1 (protonated)
Cc1ccc(/N=c2\ncc(/C=C\c3ccc(N)cc3)n[n-]2)cc1 (cis-trans isomerization)
Cc1ccc(/N=c2\ncc(/C=C\c3ccc(N)cc3)n[n-]2)cc1 (3D coordinates assigned)
Cc1ccc(/N=c2\ncc(/C=C\c3ccc(N)cc3)n[n-]2)cc1 (optimized conformer: 56.22068193041425 kcal/mol)

>  <smiles>  (21) 
Cc1ccc(N=c2ncc(C=Cc3ccc(N)cc3)n[nH]2)cc1

>  <score_type>  (21) 
oracle

>  <origin>  (21) 
adgpu

>  <m_score__min__energy>  (21) 
-9.9499999999999993

>  <m_primary>  (21) 
energy

$$$$
21:0
     RDKit          3D

 39 41  0  0  0  0  0  0  0  0999 V2000
   -2.5590   23.3830  -28.6360 C   0  0  0  0  0  0  0  0  0  0  0  0
   -2.6160   24.7060  -29.3370 C   0  0  0  0  0  0  0  0  0  0  0  0
   -1.8490   25.6330  -28.9630 O   0  0  0  0  0  0  0  0  0  0  0  0
   -3.4900   24.9370  -30.4490 N   0  0  0  0  0  0  0  0  0  0  0  0
   -4.8350   25.5010  -30.3690 C   0  0  0  0  0  0  0  0  0  0  0  0
   -5.8870   24.4040  -30.1460 C   0  0  2  0  0  0  0  0  0  0  0  0
   -5.3220   22.9680  -30.3530 C   0  0  0  0  0  0  0  0  0  0  0  0
   -6.1890   22.3550  -31.3560 N   0  0  0  0  0  0  0  0  0  0  0  0
   -6.1390   20.9780  -31.7790 C   0  0  0  0  0  0  0  0  0  0  0  0
   -4.9420   20.4100  -32.2480 C   0  0  0  0  0  0  0  0  0  0  0  0
   -4.9050   19.0770  -32.6660 C   0  0  0  0  0  0  0  0  0  0  0  0
   -6.0630   18.2800  -32.6340 C   0  0  0  0  0  0  0  0  0  0  0  0
   -5.9980   16.8640  -33.0800 C   0  0  0  0  0  0  0  0  0  0  0  0
   -6.8160   16.3070  -34.0700 C   0  0  0  0  0  0  0  0  0  0  0  0
   -6.3990   14.6870  -34.2450 S   0  0  0  0  0  0  0  0  0  0  0  0
   -5.1920   14.7580  -33.0820 C   0  0  0  0  0  0  0  0  0  0  0  0
   -4.3800   13.5950  -32.6260 C   0  0  0  0  0  0  0  0  0  0  0  0
   -5.1040   15.9890  -32.5350 N   0  0  0  0  0  0  0  0  0  0  0  0
   -7.2620   18.8530  -32.1700 C   0  0  0  0  0  0  0  0  0  0  0  0
   -7.2980   20.1870  -31.7550 C   0  0  0  0  0  0  0  0  0  0  0  0
   -7.1160   23.3480  -31.7610 C   0  0  0  0  0  0  0  0  0  0  0  0
   -7.9530   23.1990  -32.6890 O   0  0  0  0  0  0  0  0  0  0  0  0
   -6.9550   24.5290  -31.0780 O   0  0  0  0  0  0  0  0  0  0  0  0
   -2.5659   23.5440  -27.5479 H   0  0  0  0  0  0  0  0  0  0  0  0
   -3.4319   22.7782  -28.9227 H   0  0  0  0  0  0  0  0  0  0  0  0
   -1.6373   22.8555  -28.9227 H   0  0  0  0  0  0  0  0  0  0  0  0
   -4.8760   26.2127  -29.5312 H   0  0  0  0  0  0  0  0  0  0  0  0
   -5.0568   26.0070  -31.3202 H   0  0  0  0  0  0  0  0  0  0  0  0
   -6.2183   24.5382  -29.1057 H   0  0  0  0  0  0  0  0  0  0  0  0
   -4.2841   23.0105  -30.7148 H   0  0  0  0  0  0  0  0  0  0  0  0
   -5.3083   22.3930  -29.4154 H   0  0  0  0  0  0  0  0  0  0  0  0
   -4.0271   21.0195  -32.2863 H   0  0  0  0  0  0  0  0  0  0  0  0
   -3.9585   18.6460  -33.0244 H   0  0  0  0  0  0  0  0  0  0  0  0
   -7.5965   16.8371  -34.6356 H   0  0  0  0  0  0  0  0  0  0  0  0
   -4.3619   13.5690  -31.5265 H   0  0  0  0  0  0  0  0  0  0  0  0
   -4.8257   12.6645  -33.0074 H   0  0  0  0  0  0  0  0  0  0  0  0
   -3.3529   13.6928  -33.0074 H   0  0  0  0  0  0  0  0  0  0  0  0
   -8.1784   18.2457  -32.1337 H   0  0  0  0  0  0  0  0  0  0  0  0
   -8.2459   20.6221  -31.4054 H   0  0  0  0  0  0  0  0  0  0  0  0
  1  2  1  0
  2  3  2  0
  2  4  1  0
  4  5  1  0
  5  6  1  0
  6  7  1  0
  7  8  1  0
  8  9  1  0
  9 10  2  0
 10 11  1  0
 11 12  2  0
 12 13  1  0
 13 14  2  0
 14 15  1  0
 15 16  1  0
 16 17  1  0
 16 18  2  0
 12 19  1  0
 19 20  2  0
  8 21  1  0
 21 22  2  0
 21 23  1  0
 23  6  1  0
 20  9  1  0
 18 13  1  0
  1 24  1  0
  1 25  1  0
  1 26  1  0
  5 27  1  0
  5 28  1  0
  6 29  1  1
  7 30  1  0
  7 31  1  0
 10 32  1  0
 11 33  1  0
 14 34  1  0
 17 35  1  0
 17 36  1  0
 17 37  1  0
 19 38  1  0
 20 39  1  0
M  CHG  1   4  -1
M  END
>  <UniqueID>  (22) 
21

>  <SMILES>  (22) 
CC(=O)[N-]C[C@@H]1CN(c2ccc(-c3csc(C)n3)cc2)C(=O)O1

>  <Energy>  (22) 
86.34512844338455

>  <Genealogy>  (22) 
CC(=O)[N-]CC1CN(c2ccc(-c3csc(C)n3)cc2)C(=O)O1 (protonated)
CC(=O)[N-]C[C@@H]1CN(c2ccc(-c3csc(C)n3)cc2)C(=O)O1 (chirality)
CC(=O)[N-]C[C@@H]1CN(c2ccc(-c3csc(C)n3)cc2)C(=O)O1 (3D coordinates assigned)
CC(=O)[N-]C[C@@H]1CN(c2ccc(-c3csc(C)n3)cc2)C(=O)O1 (nonaromatic ring conformer: 86.34512844338455 kcal/mol)

>  <smiles>  (22) 
CC(=O)NCC1CN(c2ccc(-c3csc(C)n3)cc2)C(=O)O1

>  <score_type>  (22) 
oracle

>  <origin>  (22) 
adgpu

>  <m_score__min__energy>  (22) 
-9.7699999999999996

>  <m_primary>  (22) 
energy

$$$$
22:0
     RDKit          3D

 39 41  0  0  0  0  0  0  0  0999 V2000
   -1.5520   25.7200  -26.5000 C   0  0  0  0  0  0  0  0  0  0  0  0
   -2.3310   24.9020  -27.4900 C   0  0  0  0  0  0  0  0  0  0  0  0
   -3.2150   23.9070  -27.0440 C   0  0  0  0  0  0  0  0  0  0  0  0
   -3.9270   23.1310  -27.9630 C   0  0  0  0  0  0  0  0  0  0  0  0
   -3.7780   23.3490  -29.3380 C   0  0  0  0  0  0  0  0  0  0  0  0
   -4.4770   22.4990  -30.2590 N   0  0  0  0  0  0  0  0  0  0  0  0
   -3.9770   21.8690  -31.2890 C   0  0  0  0  0  0  0  0  0  0  0  0
   -2.6870   22.0690  -31.7040 N   0  0  0  0  0  0  0  0  0  0  0  0
   -2.1820   21.4110  -32.7820 C   0  0  0  0  0  0  0  0  0  0  0  0
   -2.9900   20.5250  -33.4910 C   0  0  0  0  0  0  0  0  0  0  0  0
   -4.2750   20.3380  -33.0990 N   0  0  0  0  0  0  0  0  0  0  0  0
   -4.7960   20.9870  -32.0230 C   0  0  0  0  0  0  0  0  0  0  0  0
   -6.0340   20.7970  -31.6710 N   0  0  0  0  0  0  0  0  0  0  0  0
   -7.1250   19.7410  -32.5100 S   0  0  0  0  0  0  0  0  0  0  0  0
   -7.5720   20.4000  -33.7830 O   0  0  0  0  0  0  0  0  0  0  0  0
   -8.3250   19.4870  -31.6400 O   0  0  0  0  0  0  0  0  0  0  0  0
   -6.3150   18.2270  -32.9020 C   0  0  0  0  0  0  0  0  0  0  0  0
   -6.0050   17.3030  -31.8930 C   0  0  0  0  0  0  0  0  0  0  0  0
   -5.3560   16.1070  -32.2130 C   0  0  0  0  0  0  0  0  0  0  0  0
   -5.0160   15.8270  -33.5390 C   0  0  0  0  0  0  0  0  0  0  0  0
   -5.3270   16.7420  -34.5490 C   0  0  0  0  0  0  0  0  0  0  0  0
   -5.9760   17.9390  -34.2320 C   0  0  0  0  0  0  0  0  0  0  0  0
   -2.8600   24.3100  -29.7880 C   0  0  0  0  0  0  0  0  0  0  0  0
   -2.1440   25.0890  -28.8720 C   0  0  0  0  0  0  0  0  0  0  0  0
   -1.2440   26.0400  -29.3410 O   0  0  0  0  0  0  0  0  0  0  0  0
   -1.8332   25.4247  -25.4784 H   0  0  0  0  0  0  0  0  0  0  0  0
   -0.4757   25.5478  -26.6483 H   0  0  0  0  0  0  0  0  0  0  0  0
   -1.7765   26.7866  -26.6483 H   0  0  0  0  0  0  0  0  0  0  0  0
   -3.3481   23.7371  -25.9654 H   0  0  0  0  0  0  0  0  0  0  0  0
   -4.6078   22.3451  -27.6042 H   0  0  0  0  0  0  0  0  0  0  0  0
   -2.0620   22.7600  -31.2320 H   0  0  0  0  0  0  0  0  0  0  0  0
   -1.1400   21.5778  -33.0926 H   0  0  0  0  0  0  0  0  0  0  0  0
   -2.5899   19.9824  -34.3602 H   0  0  0  0  0  0  0  0  0  0  0  0
   -6.2730   17.5199  -30.8484 H   0  0  0  0  0  0  0  0  0  0  0  0
   -5.1126   15.3851  -31.4196 H   0  0  0  0  0  0  0  0  0  0  0  0
   -4.5034   14.8862  -33.7882 H   0  0  0  0  0  0  0  0  0  0  0  0
   -5.0611   16.5202  -35.5931 H   0  0  0  0  0  0  0  0  0  0  0  0
   -6.2215   18.6571  -35.0282 H   0  0  0  0  0  0  0  0  0  0  0  0
   -2.7021   24.4520  -30.8673 H   0  0  0  0  0  0  0  0  0  0  0  0
  1  2  1  0
  2  3  2  0
  3  4  1  0
  4  5  2  0
  5  6  1  0
  6  7  2  3
  7  8  1  0
  8  9  1  0
  9 10  2  0
 10 11  1  0
 11 12  1  0
 12 13  2  3
 13 14  1  0
 14 15  2  0
 14 16  2  0
 14 17  1  0
 17 18  2  0
 18 19  1  0
 19 20  2  0
 20 21  1  0
 21 22  2  0
  5 23  1  0
 23 24  2  0
 24 25  1  0
 24  2  1  0
 12  7  1  0
 22 17  1  0
  1 26  1  0
  1 27  1  0
  1 28  1  0
  3 29  1  0
  4 30  1  0
  8 31  1  0
  9 32  1  0
 10 33  1  0
 18 34  1  0
 19 35  1  0
 20 36  1  0
 21 37  1  0
 22 38  1  0
 23 39  1  0
M  CHG  2  11  -1  25  -1
M  END
>  <UniqueID>  (23) 
22

>  <SMILES>  (23) 
Cc1ccc(N=c2[nH]cc[n-]c2=NS(=O)(=O)c2ccccc2)cc1[O-]

>  <Energy>  (23) 
55.748402170195206

>  <Genealogy>  (23) 
Cc1ccc(N=c2[nH]cc[n-]c2=NS(=O)(=O)c2ccccc2)cc1[O-] (protonated)
Cc1ccc(N=c2[nH]cc[n-]c2=NS(=O)(=O)c2ccccc2)cc1[O-] (3D coordinates assigned)
Cc1ccc(N=c2[nH]cc[n-]c2=NS(=O)(=O)c2ccccc2)cc1[O-] (optimized conformer: 55.748402170195206 kcal/mol)

>  <smiles>  (23) 
Cc1ccc(N=c2[nH]cc[nH]c2=NS(=O)(=O)c2ccccc2)cc1O

>  <score_type>  (23) 
oracle

>  <origin>  (23) 
adgpu

>  <m_score__min__energy>  (23) 
-10.77

>  <m_primary>  (23) 
energy

$$$$
23:0
     RDKit          3D

 37 40  0  0  0  0  0  0  0  0999 V2000
   -6.1130   26.0380  -29.7370 C   0  0  0  0  0  0  0  0  0  0  0  0
   -6.1510   24.7860  -30.6200 C   0  0  1  0  0  0  0  0  0  0  0  0
   -4.7670   24.1070  -30.6670 C   0  0  0  0  0  0  0  0  0  0  0  0
   -4.7520   22.9160  -31.6440 C   0  0  0  0  0  0  0  0  0  0  0  0
   -5.9740   22.0400  -31.4950 C   0  0  0  0  0  0  0  0  0  0  0  0
   -7.1150   22.4910  -30.8330 C   0  0  0  0  0  0  0  0  0  0  0  0
   -8.3010   21.3000  -30.8680 S   0  0  0  0  0  0  0  0  0  0  0  0
   -7.3950   20.2010  -31.7780 C   0  0  0  0  0  0  0  0  0  0  0  0
   -6.1490   20.7520  -32.0570 C   0  0  0  0  0  0  0  0  0  0  0  0
   -5.2390   20.0310  -32.8360 C   0  0  0  0  0  0  0  0  0  0  0  0
   -4.1130   20.5190  -33.1280 O   0  0  0  0  0  0  0  0  0  0  0  0
   -5.6040   18.7510  -33.2990 C   0  0  0  0  0  0  0  0  0  0  0  0
   -4.7100   17.9910  -34.0800 C   0  0  0  0  0  0  0  0  0  0  0  0
   -5.0690   16.7240  -34.5400 C   0  0  0  0  0  0  0  0  0  0  0  0
   -6.3190   16.1970  -34.2300 C   0  0  0  0  0  0  0  0  0  0  0  0
   -7.2230   16.9290  -33.4590 C   0  0  0  0  0  0  0  0  0  0  0  0
   -6.8910   18.2190  -32.9760 C   0  0  0  0  0  0  0  0  0  0  0  0
   -7.7790   18.9590  -32.2140 N   0  0  0  0  0  0  0  0  0  0  0  0
   -9.1140   18.4290  -31.8770 C   0  0  0  0  0  0  0  0  0  0  0  0
   -7.2180   23.7970  -30.1080 C   0  0  0  0  0  0  0  0  0  0  0  0
   -6.1220   25.7403  -28.6781 H   0  0  0  0  0  0  0  0  0  0  0  0
   -5.1971   26.6089  -29.9496 H   0  0  0  0  0  0  0  0  0  0  0  0
   -6.9926   26.6634  -29.9496 H   0  0  0  0  0  0  0  0  0  0  0  0
   -6.4191   25.0939  -31.6414 H   0  0  0  0  0  0  0  0  0  0  0  0
   -4.0184   24.8446  -30.9920 H   0  0  0  0  0  0  0  0  0  0  0  0
   -4.5351   23.7289  -29.6604 H   0  0  0  0  0  0  0  0  0  0  0  0
   -4.7166   23.3026  -32.6732 H   0  0  0  0  0  0  0  0  0  0  0  0
   -3.8674   22.3032  -31.4158 H   0  0  0  0  0  0  0  0  0  0  0  0
   -3.7200   18.4008  -34.3291 H   0  0  0  0  0  0  0  0  0  0  0  0
   -4.3628   16.1405  -35.1489 H   0  0  0  0  0  0  0  0  0  0  0  0
   -6.5963   15.1971  -34.5950 H   0  0  0  0  0  0  0  0  0  0  0  0
   -8.2073   16.4984  -33.2229 H   0  0  0  0  0  0  0  0  0  0  0  0
   -9.2256   18.3847  -30.7836 H   0  0  0  0  0  0  0  0  0  0  0  0
   -9.8873   19.0883  -32.2981 H   0  0  0  0  0  0  0  0  0  0  0  0
   -9.2245   17.4188  -32.2981 H   0  0  0  0  0  0  0  0  0  0  0  0
   -8.2175   24.2252  -30.2741 H   0  0  0  0  0  0  0  0  0  0  0  0
   -7.0537   23.6214  -29.0346 H   0  0  0  0  0  0  0  0  0  0  0  0
  1  2  1  0
  2  3  1  0
  3  4  1  0
  4  5  1  0
  5  6  2  0
  6  7  1  0
  7  8  1  0
  8  9  2  0
  9 10  1  0
 10 11  2  0
 10 12  1  0
 12 13  2  0
 13 14  1  0
 14 15  2  0
 15 16  1  0
 16 17  2  0
 17 18  1  0
 18 19  1  0
  6 20  1  0
 20  2  1  0
  9  5  1  0
 17 12  1  0
 18  8  1  0
  1 21  1  0
  1 22  1  0
  1 23  1  0
  2 24  1  6
  3 25  1  0
  3 26  1  0
  4 27  1  0
  4 28  1  0
 13 29  1  0
 14 30  1  0
 15 31  1  0
 16 32  1  0
 19 33  1  0
 19 34  1  0
 19 35  1  0
 20 36  1  0
 20 37  1  0
M  END
>  <UniqueID>  (24) 
23

>  <SMILES>  (24) 
C[C@H]1CCc2c(sc3c2c(=O)c2ccccc2n3C)C1

>  <Energy>  (24) 
81.08907823679947

>  <Genealogy>  (24) 
C[C@H]1CCc2c(sc3c2c(=O)c2ccccc2n3C)C1 (chirality)
C[C@H]1CCc2c(sc3c2c(=O)c2ccccc2n3C)C1 (3D coordinates assigned)
C[C@H]1CCc2c(sc3c2c(=O)c2ccccc2n3C)C1 (nonaromatic ring conformer: 81.08907823679947 kcal/mol)

>  <smiles>  (24) 
CC1CCc2c(sc3c2c(=O)c2ccccc2n3C)C1

>  <score_type>  (24) 
oracle

>  <origin>  (24) 
adgpu

>  <m_score__min__energy>  (24) 
-8.5500000000000007

>  <m_primary>  (24) 
energy

$$$$
24:0
     RDKit          3D

 37 39  0  0  0  0  0  0  0  0999 V2000
   -6.6710   24.2620  -30.4620 C   0  0  0  0  0  0  0  0  0  0  0  0
   -5.7270   25.3540  -29.9670 C   0  0  0  0  0  0  0  0  0  0  0  0
   -4.4700   25.2800  -30.6390 O   0  0  0  0  0  0  0  0  0  0  0  0
   -3.5210   24.2520  -30.4980 C   0  0  0  0  0  0  0  0  0  0  0  0
   -3.6220   23.0250  -31.1850 C   0  0  0  0  0  0  0  0  0  0  0  0
   -2.6490   22.0220  -31.0160 C   0  0  0  0  0  0  0  0  0  0  0  0
   -2.7800   20.7370  -31.7470 C   0  0  0  0  0  0  0  0  0  0  0  0
   -1.7630   19.9570  -32.2600 C   0  0  0  0  0  0  0  0  0  0  0  0
   -2.2960   18.8720  -32.8470 N   0  0  0  0  0  0  0  0  0  0  0  0
   -3.6280   19.0250  -32.6860 C   0  0  0  0  0  0  0  0  0  0  0  0
   -4.6150   18.0180  -33.1380 C   0  0  0  0  0  0  0  0  0  0  0  0
   -4.2220   16.6670  -33.1780 C   0  0  0  0  0  0  0  0  0  0  0  0
   -5.1360   15.6680  -33.5180 C   0  0  0  0  0  0  0  0  0  0  0  0
   -6.4540   16.0010  -33.8230 C   0  0  0  0  0  0  0  0  0  0  0  0
   -6.8590   17.3370  -33.8100 C   0  0  0  0  0  0  0  0  0  0  0  0
   -5.9500   18.3570  -33.4880 C   0  0  0  0  0  0  0  0  0  0  0  0
   -6.3880   19.7190  -33.5820 N   0  0  0  0  0  0  0  0  0  0  0  0
   -3.9590   20.1430  -32.0080 N   0  0  0  0  0  0  0  0  0  0  0  0
   -1.5680   22.2640  -30.1510 C   0  0  0  0  0  0  0  0  0  0  0  0
   -1.4630   23.4790  -29.4720 C   0  0  0  0  0  0  0  0  0  0  0  0
   -2.4320   24.4690  -29.6450 C   0  0  0  0  0  0  0  0  0  0  0  0
   -2.3120   25.6740  -28.9620 O   0  0  0  0  0  0  0  0  0  0  0  0
   -7.1178   23.7451  -29.5999 H   0  0  0  0  0  0  0  0  0  0  0  0
   -7.4673   24.7142  -31.0714 H   0  0  0  0  0  0  0  0  0  0  0  0
   -6.1084   23.5395  -31.0714 H   0  0  0  0  0  0  0  0  0  0  0  0
   -6.1811   26.3374  -30.1586 H   0  0  0  0  0  0  0  0  0  0  0  0
   -5.5594   25.2133  -28.8890 H   0  0  0  0  0  0  0  0  0  0  0  0
   -4.4715   22.8494  -31.8613 H   0  0  0  0  0  0  0  0  0  0  0  0
   -0.6890   20.1867  -32.1982 H   0  0  0  0  0  0  0  0  0  0  0  0
   -3.1833   16.3954  -32.9387 H   0  0  0  0  0  0  0  0  0  0  0  0
   -4.8150   14.6162  -33.5451 H   0  0  0  0  0  0  0  0  0  0  0  0
   -7.1763   15.2104  -34.0743 H   0  0  0  0  0  0  0  0  0  0  0  0
   -7.9005   17.5928  -34.0545 H   0  0  0  0  0  0  0  0  0  0  0  0
   -5.8430   20.5050  -33.1660 H   0  0  0  0  0  0  0  0  0  0  0  0
   -7.1900   19.9740  -34.2000 H   0  0  0  0  0  0  0  0  0  0  0  0
   -0.7992   21.4904  -30.0081 H   0  0  0  0  0  0  0  0  0  0  0  0
   -0.6127   23.6573  -28.7974 H   0  0  0  0  0  0  0  0  0  0  0  0
  1  2  1  0
  2  3  1  0
  3  4  1  0
  4  5  2  0
  5  6  1  0
  6  7  1  0
  7  8  2  0
  8  9  1  0
  9 10  1  0
 10 11  1  0
 11 12  2  0
 12 13  1  0
 13 14  2  0
 14 15  1  0
 15 16  2  0
 16 17  1  0
 10 18  2  0
  6 19  2  0
 19 20  1  0
 20 21  2  0
 21 22  1  0
 21  4  1  0
 18  7  1  0
 16 11  1  0
  1 23  1  0
  1 24  1  0
  1 25  1  0
  2 26  1  0
  2 27  1  0
  5 28  1  0
  8 29  1  0
 12 30  1  0
 13 31  1  0
 14 32  1  0
 15 33  1  0
 17 34  1  0
 17 35  1  0
 19 36  1  0
 20 37  1  0
M  CHG  2   9  -1  22  -1
M  END
>  <UniqueID>  (25) 
24

>  <SMILES>  (25) 
CCOc1cc(-c2c[n-]c(-c3ccccc3N)n2)ccc1[O-]

>  <Energy>  (25) 
71.68245463331183

>  <Genealogy>  (25) 
CCOc1cc(-c2c[n-]c(-c3ccccc3N)n2)ccc1[O-] (protonated)
CCOc1cc(-c2c[n-]c(-c3ccccc3N)n2)ccc1[O-] (3D coordinates assigned)
CCOc1cc(-c2c[n-]c(-c3ccccc3N)n2)ccc1[O-] (optimized conformer: 71.68245463331183 kcal/mol)

>  <smiles>  (25) 
CCOc1cc(-c2c[nH]c(-c3ccccc3N)n2)ccc1O

>  <score_type>  (25) 
oracle

>  <origin>  (25) 
adgpu

>  <m_score__min__energy>  (25) 
-9.7899999999999991

>  <m_primary>  (25) 
energy

$$$$
25:0
     RDKit          3D

 49 51  0  0  0  0  0  0  0  0999 V2000
   -1.3350   19.3490  -33.9420 C   0  0  0  0  0  0  0  0  0  0  0  0
   -1.7110   20.2130  -32.7760 C   0  0  0  0  0  0  0  0  0  0  0  0
   -2.9520   20.0510  -32.1430 C   0  0  0  0  0  0  0  0  0  0  0  0
   -3.2790   20.8220  -31.0230 C   0  0  0  0  0  0  0  0  0  0  0  0
   -2.3660   21.7620  -30.5190 C   0  0  0  0  0  0  0  0  0  0  0  0
   -2.6970   22.5420  -29.2740 C   0  0  0  0  0  0  0  0  0  0  0  0
   -2.8910   23.9550  -29.5910 N   0  0  0  0  0  0  0  0  0  0  0  0
   -3.9540   24.4840  -30.3940 C   0  0  0  0  0  0  0  0  0  0  0  0
   -3.8700   25.6660  -30.8200 O   0  0  0  0  0  0  0  0  0  0  0  0
   -5.1260   23.6710  -30.7640 C   0  0  0  0  0  0  0  0  0  0  0  0
   -6.1550   23.4410  -29.8390 C   0  0  0  0  0  0  0  0  0  0  0  0
   -7.2480   22.6430  -30.1870 C   0  0  0  0  0  0  0  0  0  0  0  0
   -7.3220   22.0640  -31.4620 C   0  0  0  0  0  0  0  0  0  0  0  0
   -8.6810   21.0380  -31.9090 S   0  0  0  0  0  0  0  0  0  0  0  0
   -9.8260   21.9200  -32.3240 O   0  0  0  0  0  0  0  0  0  0  0  0
   -9.1290   20.1940  -30.7480 O   0  0  0  0  0  0  0  0  0  0  0  0
   -8.2400   20.0150  -33.2390 N   0  0  0  0  0  0  0  0  0  0  0  0
   -7.0410   19.2110  -33.2770 C   0  0  0  0  0  0  0  0  0  0  0  0
   -6.0480   19.4450  -34.2500 C   0  0  0  0  0  0  0  0  0  0  0  0
   -4.8790   18.6850  -34.2750 C   0  0  0  0  0  0  0  0  0  0  0  0
   -4.6720   17.6860  -33.3280 C   0  0  0  0  0  0  0  0  0  0  0  0
   -5.6380   17.4390  -32.3520 C   0  0  0  0  0  0  0  0  0  0  0  0
   -6.8280   18.1850  -32.3190 C   0  0  0  0  0  0  0  0  0  0  0  0
   -7.8600   17.8670  -31.2690 C   0  0  0  0  0  0  0  0  0  0  0  0
   -6.3010   22.3040  -32.3900 C   0  0  0  0  0  0  0  0  0  0  0  0
   -5.2140   23.1130  -32.0480 C   0  0  0  0  0  0  0  0  0  0  0  0
   -1.1240   21.9230  -31.1520 C   0  0  0  0  0  0  0  0  0  0  0  0
   -0.7940   21.1410  -32.2620 C   0  0  0  0  0  0  0  0  0  0  0  0
   -0.9212   18.3981  -33.5753 H   0  0  0  0  0  0  0  0  0  0  0  0
   -2.2275   19.1491  -34.5531 H   0  0  0  0  0  0  0  0  0  0  0  0
   -0.5804   19.8659  -34.5531 H   0  0  0  0  0  0  0  0  0  0  0  0
   -3.6715   19.3140  -32.5293 H   0  0  0  0  0  0  0  0  0  0  0  0
   -4.2560   20.6914  -30.5347 H   0  0  0  0  0  0  0  0  0  0  0  0
   -3.6200   22.1407  -28.8303 H   0  0  0  0  0  0  0  0  0  0  0  0
   -1.8624   22.4484  -28.5636 H   0  0  0  0  0  0  0  0  0  0  0  0
   -6.1014   23.8903  -28.8364 H   0  0  0  0  0  0  0  0  0  0  0  0
   -8.0532   22.4684  -29.4582 H   0  0  0  0  0  0  0  0  0  0  0  0
   -8.8780   20.0420  -34.0640 H   0  0  0  0  0  0  0  0  0  0  0  0
   -6.1971   20.2369  -34.9988 H   0  0  0  0  0  0  0  0  0  0  0  0
   -4.1178   18.8756  -35.0458 H   0  0  0  0  0  0  0  0  0  0  0  0
   -3.7469   17.0913  -33.3491 H   0  0  0  0  0  0  0  0  0  0  0  0
   -5.4663   16.6532  -31.6017 H   0  0  0  0  0  0  0  0  0  0  0  0
   -7.4203   18.0025  -30.2698 H   0  0  0  0  0  0  0  0  0  0  0  0
   -8.7212   18.5415  -31.3852 H   0  0  0  0  0  0  0  0  0  0  0  0
   -8.1922   16.8248  -31.3852 H   0  0  0  0  0  0  0  0  0  0  0  0
   -6.3549   21.8539  -33.3922 H   0  0  0  0  0  0  0  0  0  0  0  0
   -4.4250   23.3128  -32.7879 H   0  0  0  0  0  0  0  0  0  0  0  0
   -0.4079   22.6672  -30.7732 H   0  0  0  0  0  0  0  0  0  0  0  0
    0.1922   21.2542  -32.7360 H   0  0  0  0  0  0  0  0  0  0  0  0
  1  2  1  0
  2  3  2  0
  3  4  1  0
  4  5  2  0
  5  6  1  0
  6  7  1  0
  7  8  1  0
  8  9  2  0
  8 10  1  0
 10 11  2  0
 11 12  1  0
 12 13  2  0
 13 14  1  0
 14 15  2  0
 14 16  2  0
 14 17  1  0
 17 18  1  0
 18 19  2  0
 19 20  1  0
 20 21  2  0
 21 22  1  0
 22 23  2  0
 23 24  1  0
 13 25  1  0
 25 26  2  0
  5 27  1  0
 27 28  2  0
 28  2  1  0
 26 10  1  0
 23 18  1  0
  1 29  1  0
  1 30  1  0
  1 31  1  0
  3 32  1  0
  4 33  1  0
  6 34  1  0
  6 35  1  0
 11 36  1  0
 12 37  1  0
 17 38  1  0
 19 39  1  0
 20 40  1  0
 21 41  1  0
 22 42  1  0
 24 43  1  0
 24 44  1  0
 24 45  1  0
 25 46  1  0
 26 47  1  0
 27 48  1  0
 28 49  1  0
M  CHG  1   7  -1
M  END
>  <UniqueID>  (26) 
25

>  <SMILES>  (26) 
Cc1ccc(C[N-]C(=O)c2ccc(S(=O)(=O)Nc3ccccc3C)cc2)cc1

>  <Energy>  (26) 
53.24933362940768

>  <Genealogy>  (26) 
Cc1ccc(C[N-]C(=O)c2ccc(S(=O)(=O)Nc3ccccc3C)cc2)cc1 (protonated)
Cc1ccc(C[N-]C(=O)c2ccc(S(=O)(=O)Nc3ccccc3C)cc2)cc1 (3D coordinates assigned)
Cc1ccc(C[N-]C(=O)c2ccc(S(=O)(=O)Nc3ccccc3C)cc2)cc1 (optimized conformer: 53.24933362940768 kcal/mol)

>  <smiles>  (26) 
Cc1ccc(CNC(=O)c2ccc(S(=O)(=O)Nc3ccccc3C)cc2)cc1

>  <score_type>  (26) 
oracle

>  <origin>  (26) 
adgpu

>  <m_score__min__energy>  (26) 
-12.470000000000001

>  <m_primary>  (26) 
energy

$$$$
26:0
     RDKit          3D

 52 55  0  0  0  0  0  0  0  0999 V2000
   -9.4910   22.2980  -31.8690 C   0  0  0  0  0  0  0  0  0  0  0  0
   -7.9930   22.2940  -31.7980 C   0  0  0  0  0  0  0  0  0  0  0  0
   -7.3050   23.4310  -31.3530 C   0  0  0  0  0  0  0  0  0  0  0  0
   -5.9030   23.4480  -31.3240 C   0  0  0  0  0  0  0  0  0  0  0  0
   -5.1740   24.6520  -30.8040 C   0  0  0  0  0  0  0  0  0  0  0  0
   -5.1890   22.3100  -31.7260 C   0  0  0  0  0  0  0  0  0  0  0  0
   -5.8630   21.1680  -32.1940 C   0  0  0  0  0  0  0  0  0  0  0  0
   -5.1020   19.9730  -32.6390 C   0  0  0  0  0  0  0  0  0  0  0  0
   -5.6420   18.6840  -32.4810 C   0  0  0  0  0  0  0  0  0  0  0  0
   -4.9250   17.5620  -32.9010 C   0  0  0  0  0  0  0  0  0  0  0  0
   -3.6650   17.7090  -33.4820 C   0  0  0  0  0  0  0  0  0  0  0  0
   -3.1060   18.9860  -33.6480 C   0  0  0  0  0  0  0  0  0  0  0  0
   -1.7710   19.1470  -34.2580 C   0  0  0  0  0  0  0  0  0  0  0  0
   -1.2350   20.3320  -34.6140 N   0  0  0  0  0  0  0  0  0  0  0  0
   -0.0410   19.9480  -35.1070 C   0  0  0  0  0  0  0  0  0  0  0  0
    0.9600   20.8780  -35.6490 C   0  0  0  0  0  0  0  0  0  0  0  0
    1.2910   20.7910  -36.8630 O   0  0  0  0  0  0  0  0  0  0  0  0
    1.5590   21.8760  -34.8080 N   0  0  0  0  0  0  0  0  0  0  0  0
    2.5300   22.8420  -35.3130 C   0  0  0  0  0  0  0  0  0  0  0  0
    1.8340   23.9170  -36.0830 C   0  0  0  0  0  0  0  0  0  0  0  0
    0.6260   24.4170  -35.7370 N   0  0  0  0  0  0  0  0  0  0  0  0
    0.3850   25.3250  -36.7020 C   0  0  0  0  0  0  0  0  0  0  0  0
   -0.8630   26.1390  -36.7910 C   0  0  0  0  0  0  0  0  0  0  0  0
    1.4360   25.3290  -37.5940 C   0  0  0  0  0  0  0  0  0  0  0  0
    1.5810   26.1710  -38.8190 C   0  0  0  0  0  0  0  0  0  0  0  0
    2.3160   24.4520  -37.1840 O   0  0  0  0  0  0  0  0  0  0  0  0
    0.1370   18.6130  -35.0530 N   0  0  0  0  0  0  0  0  0  0  0  0
   -0.9550   18.1550  -34.5220 O   0  0  0  0  0  0  0  0  0  0  0  0
   -3.8290   20.1130  -33.2250 C   0  0  0  0  0  0  0  0  0  0  0  0
   -7.2690   21.1740  -32.2350 C   0  0  0  0  0  0  0  0  0  0  0  0
   -9.9063   22.2991  -30.8504 H   0  0  0  0  0  0  0  0  0  0  0  0
   -9.8303   23.1971  -32.4043 H   0  0  0  0  0  0  0  0  0  0  0  0
   -9.8351   21.4008  -32.4043 H   0  0  0  0  0  0  0  0  0  0  0  0
   -7.8687   24.3165  -31.0241 H   0  0  0  0  0  0  0  0  0  0  0  0
   -5.1820   24.6388  -29.7041 H   0  0  0  0  0  0  0  0  0  0  0  0
   -4.1345   24.6348  -31.1633 H   0  0  0  0  0  0  0  0  0  0  0  0
   -5.6711   25.5651  -31.1633 H   0  0  0  0  0  0  0  0  0  0  0  0
   -4.0902   22.3106  -31.6747 H   0  0  0  0  0  0  0  0  0  0  0  0
   -6.6347   18.5591  -32.0240 H   0  0  0  0  0  0  0  0  0  0  0  0
   -5.3553   16.5578  -32.7733 H   0  0  0  0  0  0  0  0  0  0  0  0
   -3.1070   16.8201  -33.8115 H   0  0  0  0  0  0  0  0  0  0  0  0
    1.3070   21.9140  -33.7950 H   0  0  0  0  0  0  0  0  0  0  0  0
    3.0692   23.2921  -34.4664 H   0  0  0  0  0  0  0  0  0  0  0  0
    3.2388   22.3256  -35.9770 H   0  0  0  0  0  0  0  0  0  0  0  0
   -1.2214   26.3727  -35.7776 H   0  0  0  0  0  0  0  0  0  0  0  0
   -0.6530   27.0743  -37.3305 H   0  0  0  0  0  0  0  0  0  0  0  0
   -1.6343   25.5698  -37.3305 H   0  0  0  0  0  0  0  0  0  0  0  0
    1.7610   27.2160  -38.5265 H   0  0  0  0  0  0  0  0  0  0  0  0
    2.4295   25.8061  -39.4164 H   0  0  0  0  0  0  0  0  0  0  0  0
    0.6593   26.1110  -39.4164 H   0  0  0  0  0  0  0  0  0  0  0  0
   -3.3963   21.1162  -33.3527 H   0  0  0  0  0  0  0  0  0  0  0  0
   -7.8064   20.2920  -32.6134 H   0  0  0  0  0  0  0  0  0  0  0  0
  1  2  1  0
  2  3  2  0
  3  4  1  0
  4  5  1  0
  4  6  2  0
  6  7  1  0
  7  8  1  0
  8  9  2  0
  9 10  1  0
 10 11  2  0
 11 12  1  0
 12 13  1  0
 13 14  2  0
 14 15  1  0
 15 16  1  0
 16 17  2  0
 16 18  1  0
 18 19  1  0
 19 20  1  0
 20 21  2  0
 21 22  1  0
 22 23  1  0
 22 24  2  0
 24 25  1  0
 24 26  1  0
 15 27  2  0
 27 28  1  0
 12 29  2  0
  7 30  2  0
 30  2  1  0
 29  8  1  0
 28 13  1  0
 26 20  1  0
  1 31  1  0
  1 32  1  0
  1 33  1  0
  3 34  1  0
  5 35  1  0
  5 36  1  0
  5 37  1  0
  6 38  1  0
  9 39  1  0
 10 40  1  0
 11 41  1  0
 18 42  1  0
 19 43  1  0
 19 44  1  0
 23 45  1  0
 23 46  1  0
 23 47  1  0
 25 48  1  0
 25 49  1  0
 25 50  1  0
 29 51  1  0
 30 52  1  0
M  END
>  <UniqueID>  (27) 
26

>  <SMILES>  (27) 
Cc1cc(C)cc(-c2cccc(-c3nc(C(=O)NCc4nc(C)c(C)o4)no3)c2)c1

>  <Energy>  (27) 
115.38976943493483

>  <Genealogy>  (27) 
Cc1cc(C)cc(-c2cccc(-c3nc(C(=O)NCc4nc(C)c(C)o4)no3)c2)c1 (3D coordinates assigned)
Cc1cc(C)cc(-c2cccc(-c3nc(C(=O)NCc4nc(C)c(C)o4)no3)c2)c1 (optimized conformer: 115.38976943493483 kcal/mol)

>  <smiles>  (27) 
Cc1cc(C)cc(-c2cccc(-c3nc(C(=O)NCc4nc(C)c(C)o4)no3)c2)c1

>  <score_type>  (27) 
oracle

>  <origin>  (27) 
adgpu

>  <m_score__min__energy>  (27) 
-10.1

>  <m_primary>  (27) 
energy

$$$$
27:0
     RDKit          3D

 39 42  0  0  0  0  0  0  0  0999 V2000
   -2.4890   21.0140  -34.3480 H   0  0  0  0  0  0  0  0  0  0  0  0
   -2.1160   21.4840  -33.4920 N   0  0  0  0  0  0  0  0  0  0  0  0
   -2.8940   22.0290  -32.6130 C   0  0  0  0  0  0  0  0  0  0  0  0
   -2.3460   22.6310  -31.5100 N   0  0  0  0  0  0  0  0  0  0  0  0
   -3.1190   23.2240  -30.5510 C   0  0  0  0  0  0  0  0  0  0  0  0
   -2.4950   23.8610  -29.3790 C   0  0  0  0  0  0  0  0  0  0  0  0
   -2.1260   25.1210  -29.3270 O   0  0  0  0  0  0  0  0  0  0  0  0
   -1.6090   25.3600  -28.1440 C   0  0  0  0  0  0  0  0  0  0  0  0
   -1.2120   26.3302  -27.8107 H   0  0  0  0  0  0  0  0  0  0  0  0
   -1.6390   24.2100  -27.3820 C   0  0  0  0  0  0  0  0  0  0  0  0
   -1.2793   24.0913  -26.3493 H   0  0  0  0  0  0  0  0  0  0  0  0
   -2.2110   23.2400  -28.1770 C   0  0  0  0  0  0  0  0  0  0  0  0
   -2.4018   22.1900  -27.9104 H   0  0  0  0  0  0  0  0  0  0  0  0
   -4.4990   23.1920  -30.7350 C   0  0  0  0  0  0  0  0  0  0  0  0
   -5.4770   23.6900  -29.9540 N   0  0  0  0  0  0  0  0  0  0  0  0
   -6.6070   23.3550  -30.6340 C   0  0  0  0  0  0  0  0  0  0  0  0
   -7.6194   23.6050  -30.2838 H   0  0  0  0  0  0  0  0  0  0  0  0
   -6.3620   22.6820  -31.7870 N   0  0  0  0  0  0  0  0  0  0  0  0
   -7.3480   22.1340  -32.7200 C   0  0  0  0  0  0  0  0  0  0  0  0
   -8.3455   22.5174  -32.4592 H   0  0  0  0  0  0  0  0  0  0  0  0
   -7.0797   22.4401  -33.7419 H   0  0  0  0  0  0  0  0  0  0  0  0
   -7.3610   20.6260  -32.6490 C   0  0  0  0  0  0  0  0  0  0  0  0
   -6.2670   19.8950  -33.1470 C   0  0  0  0  0  0  0  0  0  0  0  0
   -5.4179   20.4250  -33.6032 H   0  0  0  0  0  0  0  0  0  0  0  0
   -6.2520   18.5020  -33.0660 C   0  0  0  0  0  0  0  0  0  0  0  0
   -5.3921   17.9386  -33.4573 H   0  0  0  0  0  0  0  0  0  0  0  0
   -7.3250   17.8230  -32.4900 C   0  0  0  0  0  0  0  0  0  0  0  0
   -7.3086   16.7251  -32.4247 H   0  0  0  0  0  0  0  0  0  0  0  0
   -8.4200   18.5340  -31.9960 C   0  0  0  0  0  0  0  0  0  0  0  0
   -9.2643   17.9925  -31.5444 H   0  0  0  0  0  0  0  0  0  0  0  0
   -8.4510   19.9410  -32.0720 C   0  0  0  0  0  0  0  0  0  0  0  0
   -9.5430   20.6820  -31.5900 O   0  0  0  0  0  0  0  0  0  0  0  0
   -9.4910   21.5710  -30.4800 C   0  0  0  0  0  0  0  0  0  0  0  0
   -9.5248   20.9925  -29.5450 H   0  0  0  0  0  0  0  0  0  0  0  0
   -8.5574   22.1514  -30.5185 H   0  0  0  0  0  0  0  0  0  0  0  0
  -10.3506   22.2563  -30.5185 H   0  0  0  0  0  0  0  0  0  0  0  0
   -5.0250   22.5910  -31.8280 C   0  0  0  0  0  0  0  0  0  0  0  0
   -4.2560   22.0070  -32.7800 N   0  0  0  0  0  0  0  0  0  0  0  0
   -4.6880   21.5610  -33.6200 H   0  0  0  0  0  0  0  0  0  0  0  0
  1  2  1  0
  2  3  2  0
  3  4  1  0
  4  5  2  0
  5  6  1  0
  6  7  1  0
  7  8  1  0
  8  9  1  0
  8 10  2  0
 10 11  1  0
 10 12  1  0
 12 13  1  0
  5 14  1  0
 14 15  1  0
 15 16  2  0
 16 17  1  0
 16 18  1  0
 18 19  1  0
 19 20  1  0
 19 21  1  0
 19 22  1  0
 22 23  2  0
 23 24  1  0
 23 25  1  0
 25 26  1  0
 25 27  2  0
 27 28  1  0
 27 29  1  0
 29 30  1  0
 29 31  2  0
 31 32  1  0
 32 33  1  0
 33 34  1  0
 33 35  1  0
 33 36  1  0
 18 37  1  0
 37 38  1  0
 38 39  1  0
 38  3  1  0
 12  6  2  0
 37 14  2  0
 31 22  1  0
M  END
>  <UniqueID>  (28) 
27

>  <SMILES>  (28) 
[H]/N=c1/nc(-c2ccco2)c2ncn(Cc3ccccc3OC)c2[nH]1

>  <Energy>  (28) 
107.52639834056887

>  <Genealogy>  (28) 
[H]/N=c1/nc(-c2ccco2)c2ncn(Cc3ccccc3OC)c2[nH]1 (cis-trans isomerization)
[H]/N=c1/nc(-c2ccco2)c2ncn(Cc3ccccc3OC)c2[nH]1 (3D coordinates assigned)
[H]/N=c1/nc(-c2ccco2)c2ncn(Cc3ccccc3OC)c2[nH]1 (optimized conformer: 107.52639834056887 kcal/mol)

>  <smiles>  (28) 
COc1ccccc1Cn1cnc2c(-c3ccco3)nc(=N)[nH]c21

>  <score_type>  (28) 
oracle

>  <origin>  (28) 
adgpu

>  <m_score__min__energy>  (28) 
-7.5300000000000002

>  <m_primary>  (28) 
energy

$$$$
28:0
     RDKit          3D

 44 47  0  0  0  0  0  0  0  0999 V2000
   -7.1821   25.5340  -30.7714 H   0  0  0  0  0  0  0  0  0  0  0  0
   -6.3120   24.8610  -30.7800 C   0  0  0  0  0  0  0  0  0  0  0  0
   -5.0980   25.2860  -30.2380 C   0  0  0  0  0  0  0  0  0  0  0  0
   -5.0164   26.2932  -29.8033 H   0  0  0  0  0  0  0  0  0  0  0  0
   -3.9840   24.4390  -30.2440 C   0  0  0  0  0  0  0  0  0  0  0  0
   -2.7530   24.9180  -29.6820 N   0  0  0  0  0  0  0  0  0  0  0  0
   -1.6770   23.9840  -28.6920 S   0  0  0  0  0  0  0  0  0  0  0  0
   -0.3720   24.7160  -28.5530 O   0  0  0  0  0  0  0  0  0  0  0  0
   -2.2860   23.8120  -27.3280 O   0  0  0  0  0  0  0  0  0  0  0  0
   -1.3730   22.4210  -29.4470 C   0  0  0  0  0  0  0  0  0  0  0  0
   -1.4290   21.2530  -28.6740 C   0  0  0  0  0  0  0  0  0  0  0  0
   -1.6806   21.3144  -27.6049 H   0  0  0  0  0  0  0  0  0  0  0  0
   -1.1660   20.0100  -29.2580 C   0  0  0  0  0  0  0  0  0  0  0  0
   -1.2105   19.0958  -28.6479 H   0  0  0  0  0  0  0  0  0  0  0  0
   -0.8460   19.9280  -30.6190 C   0  0  0  0  0  0  0  0  0  0  0  0
   -0.5720   18.6480  -31.2190 C   0  0  0  0  0  0  0  0  0  0  0  0
   -0.3520   17.6180  -31.7000 N   0  0  0  0  0  0  0  0  0  0  0  0
   -0.7910   21.0940  -31.3950 C   0  0  0  0  0  0  0  0  0  0  0  0
   -0.5399   21.0315  -32.4641 H   0  0  0  0  0  0  0  0  0  0  0  0
   -1.0550   22.3360  -30.8110 C   0  0  0  0  0  0  0  0  0  0  0  0
   -1.0134   23.2495  -31.4224 H   0  0  0  0  0  0  0  0  0  0  0  0
   -4.1030   23.1500  -30.7930 C   0  0  0  0  0  0  0  0  0  0  0  0
   -3.2352   22.4741  -30.7871 H   0  0  0  0  0  0  0  0  0  0  0  0
   -5.3200   22.7150  -31.3500 C   0  0  0  0  0  0  0  0  0  0  0  0
   -5.4300   21.3620  -31.9470 C   0  0  0  0  0  0  0  0  0  0  0  0
   -6.6030   20.6690  -31.8680 N   0  0  0  0  0  0  0  0  0  0  0  0
   -6.6590   19.4590  -32.4130 N   0  0  0  0  0  0  0  0  0  0  0  0
   -7.6670   18.5810  -32.4830 C   0  0  0  0  0  0  0  0  0  0  0  0
   -9.0290   18.7740  -31.9010 C   0  0  0  0  0  0  0  0  0  0  0  0
   -8.9632   18.7647  -30.8030 H   0  0  0  0  0  0  0  0  0  0  0  0
   -9.4374   19.7390  -32.2357 H   0  0  0  0  0  0  0  0  0  0  0  0
   -9.6894   17.9605  -32.2357 H   0  0  0  0  0  0  0  0  0  0  0  0
   -7.2650   17.4670  -33.1390 N   0  0  0  0  0  0  0  0  0  0  0  0
   -5.9920   17.6490  -33.4910 N   0  0  0  0  0  0  0  0  0  0  0  0
   -5.6430   18.8720  -33.0380 C   0  0  0  0  0  0  0  0  0  0  0  0
   -4.4190   19.5500  -33.1430 C   0  0  0  0  0  0  0  0  0  0  0  0
   -3.3630   19.0700  -33.7380 N   0  0  0  0  0  0  0  0  0  0  0  0
   -3.2400   17.7720  -34.3930 C   0  0  0  0  0  0  0  0  0  0  0  0
   -3.1652   16.9823  -33.6309 H   0  0  0  0  0  0  0  0  0  0  0  0
   -4.1252   17.5928  -35.0210 H   0  0  0  0  0  0  0  0  0  0  0  0
   -2.3369   17.7623  -35.0210 H   0  0  0  0  0  0  0  0  0  0  0  0
   -4.3570   20.7910  -32.5810 N   0  0  0  0  0  0  0  0  0  0  0  0
   -6.4250   23.5840  -31.3330 C   0  0  0  0  0  0  0  0  0  0  0  0
   -7.3849   23.2557  -31.7582 H   0  0  0  0  0  0  0  0  0  0  0  0
  1  2  1  0
  2  3  2  0
  3  4  1  0
  3  5  1  0
  5  6  1  0
  6  7  1  0
  7  8  2  0
  7  9  2  0
  7 10  1  0
 10 11  2  0
 11 12  1  0
 11 13  1  0
 13 14  1  0
 13 15  2  0
 15 16  1  0
 16 17  3  0
 15 18  1  0
 18 19  1  0
 18 20  2  0
 20 21  1  0
  5 22  2  0
 22 23  1  0
 22 24  1  0
 24 25  1  0
 25 26  2  0
 26 27  1  0
 27 28  1  0
 28 29  1  0
 29 30  1  0
 29 31  1  0
 29 32  1  0
 28 33  2  0
 33 34  1  0
 34 35  2  0
 35 36  1  0
 36 37  2  0
 37 38  1  0
 38 39  1  0
 38 40  1  0
 38 41  1  0
 36 42  1  0
 24 43  2  0
 43 44  1  0
 43  2  1  0
 20 10  1  0
 42 25  1  0
 35 27  1  0
M  CHG  2   6  -1  42  -1
M  END
>  <UniqueID>  (29) 
28

>  <SMILES>  (29) 
C/N=c1/[n-]c(-c2cccc([N-]S(=O)(=O)c3ccc(C#N)cc3)c2)nn2c(C)nnc12

>  <Energy>  (29) 
96.40930707081513

>  <Genealogy>  (29) 
CN=c1[n-]c(-c2cccc([N-]S(=O)(=O)c3ccc(C#N)cc3)c2)nn2c(C)nnc12 (protonated)
C/N=c1/[n-]c(-c2cccc([N-]S(=O)(=O)c3ccc(C#N)cc3)c2)nn2c(C)nnc12 (cis-trans isomerization)
C/N=c1/[n-]c(-c2cccc([N-]S(=O)(=O)c3ccc(C#N)cc3)c2)nn2c(C)nnc12 (3D coordinates assigned)
C/N=c1/[n-]c(-c2cccc([N-]S(=O)(=O)c3ccc(C#N)cc3)c2)nn2c(C)nnc12 (optimized conformer: 96.40930707081513 kcal/mol)

>  <smiles>  (29) 
CN=c1[nH]c(-c2cccc(NS(=O)(=O)c3ccc(C#N)cc3)c2)nn2c(C)nnc12

>  <score_type>  (29) 
oracle

>  <origin>  (29) 
adgpu

>  <m_score__min__energy>  (29) 
-11.35

>  <m_primary>  (29) 
energy

$$$$
29:0
     RDKit          3D

 52 55  0  0  0  0  0  0  0  0999 V2000
   -5.7360   18.8760  -34.3420 C   0  0  0  0  0  0  0  0  0  0  0  0
   -6.2380   19.8760  -33.4090 N   0  0  0  0  0  0  0  0  0  0  0  0
   -5.5090   20.8460  -32.8280 C   0  0  0  0  0  0  0  0  0  0  0  0
   -6.3640   21.6350  -32.0770 C   0  0  0  0  0  0  0  0  0  0  0  0
   -6.0150   22.8250  -31.2590 C   0  0  0  0  0  0  0  0  0  0  0  0
   -6.9620   23.8410  -31.0330 C   0  0  0  0  0  0  0  0  0  0  0  0
   -6.6360   24.9550  -30.2570 C   0  0  0  0  0  0  0  0  0  0  0  0
   -5.3620   25.0760  -29.7020 C   0  0  0  0  0  0  0  0  0  0  0  0
   -4.3960   24.0850  -29.9300 C   0  0  0  0  0  0  0  0  0  0  0  0
   -3.0920   24.1810  -29.3330 N   0  0  0  0  0  0  0  0  0  0  0  0
   -2.3800   25.2970  -29.3370 N   0  0  0  0  0  0  0  0  0  0  0  0
   -1.2060   25.0510  -28.7180 C   0  0  0  0  0  0  0  0  0  0  0  0
   -1.1670   23.7280  -28.3020 C   0  0  0  0  0  0  0  0  0  0  0  0
   -0.1280   23.0470  -27.4990 C   0  0  0  0  0  0  0  0  0  0  0  0
    1.0730   23.1270  -27.8670 O   0  0  0  0  0  0  0  0  0  0  0  0
   -0.4240   22.3260  -26.2960 N   0  0  0  0  0  0  0  0  0  0  0  0
   -0.4630   22.8880  -24.9520 C   0  0  0  0  0  0  0  0  0  0  0  0
   -0.4190   24.3860  -25.0430 C   0  0  0  0  0  0  0  0  0  0  0  0
   -1.5920   25.1130  -25.2990 C   0  0  0  0  0  0  0  0  0  0  0  0
   -1.5450   26.5040  -25.4280 C   0  0  0  0  0  0  0  0  0  0  0  0
   -0.3250   27.1830  -25.3100 C   0  0  0  0  0  0  0  0  0  0  0  0
   -0.2530   28.9320  -25.4960 S   0  0  0  0  0  0  0  0  0  0  0  0
    1.1430   29.5640  -24.5940 C   0  0  0  0  0  0  0  0  0  0  0  0
   -1.5200   29.5480  -24.9700 O   0  0  0  0  0  0  0  0  0  0  0  0
   -0.1080   29.2920  -26.9490 O   0  0  0  0  0  0  0  0  0  0  0  0
    0.8510   26.4580  -25.0740 C   0  0  0  0  0  0  0  0  0  0  0  0
    0.8050   25.0660  -24.9460 C   0  0  0  0  0  0  0  0  0  0  0  0
   -2.3910   23.2210  -28.6910 C   0  0  0  0  0  0  0  0  0  0  0  0
   -2.8260   22.0300  -28.4200 N   0  0  0  0  0  0  0  0  0  0  0  0
   -4.7330   22.9560  -30.6920 C   0  0  0  0  0  0  0  0  0  0  0  0
   -7.6190   21.0740  -32.2700 C   0  0  0  0  0  0  0  0  0  0  0  0
   -7.5140   20.0110  -33.0910 N   0  0  0  0  0  0  0  0  0  0  0  0
   -5.3117   18.0308  -33.7803 H   0  0  0  0  0  0  0  0  0  0  0  0
   -6.5613   18.5182  -34.9751 H   0  0  0  0  0  0  0  0  0  0  0  0
   -4.9560   19.3240  -34.9751 H   0  0  0  0  0  0  0  0  0  0  0  0
   -4.4231   20.9877  -32.9315 H   0  0  0  0  0  0  0  0  0  0  0  0
   -7.9674   23.7569  -31.4713 H   0  0  0  0  0  0  0  0  0  0  0  0
   -7.3865   25.7401  -30.0827 H   0  0  0  0  0  0  0  0  0  0  0  0
   -5.1142   25.9513  -29.0836 H   0  0  0  0  0  0  0  0  0  0  0  0
   -0.4028   25.7871  -28.5665 H   0  0  0  0  0  0  0  0  0  0  0  0
   -1.3908   22.5768  -24.4497 H   0  0  0  0  0  0  0  0  0  0  0  0
    0.4009   22.5268  -24.3747 H   0  0  0  0  0  0  0  0  0  0  0  0
   -2.5523   24.5859  -25.3985 H   0  0  0  0  0  0  0  0  0  0  0  0
   -2.4692   27.0678  -25.6229 H   0  0  0  0  0  0  0  0  0  0  0  0
    0.9516   29.4774  -23.5143 H   0  0  0  0  0  0  0  0  0  0  0  0
    2.0409   28.9846  -24.8549 H   0  0  0  0  0  0  0  0  0  0  0  0
    1.3001   30.6210  -24.8549 H   0  0  0  0  0  0  0  0  0  0  0  0
    1.8127   26.9852  -24.9892 H   0  0  0  0  0  0  0  0  0  0  0  0
    1.7323   24.5016  -24.7685 H   0  0  0  0  0  0  0  0  0  0  0  0
   -3.7770   21.6950  -28.6890 H   0  0  0  0  0  0  0  0  0  0  0  0
   -3.9863   22.1635  -30.8483 H   0  0  0  0  0  0  0  0  0  0  0  0
   -8.5544   21.4406  -31.8220 H   0  0  0  0  0  0  0  0  0  0  0  0
  1  2  1  0
  2  3  1  0
  3  4  2  0
  4  5  1  0
  5  6  2  0
  6  7  1  0
  7  8  2  0
  8  9  1  0
  9 10  1  0
 10 11  1  0
 11 12  1  0
 12 13  2  0
 13 14  1  0
 14 15  2  0
 14 16  1  0
 16 17  1  0
 17 18  1  0
 18 19  2  0
 19 20  1  0
 20 21  2  0
 21 22  1  0
 22 23  1  0
 22 24  2  0
 22 25  2  0
 21 26  1  0
 26 27  2  0
 13 28  1  0
 28 29  2  3
  9 30  2  0
  4 31  1  0
 31 32  2  0
 32  2  1  0
 30  5  1  0
 28 10  1  0
 27 18  1  0
  1 33  1  0
  1 34  1  0
  1 35  1  0
  3 36  1  0
  6 37  1  0
  7 38  1  0
  8 39  1  0
 12 40  1  0
 17 41  1  0
 17 42  1  0
 19 43  1  0
 20 44  1  0
 23 45  1  0
 23 46  1  0
 23 47  1  0
 26 48  1  0
 27 49  1  0
 29 50  1  0
 30 51  1  0
 31 52  1  0
M  CHG  2  11  -1  16  -1
M  END
>  <UniqueID>  (30) 
29

>  <SMILES>  (30) 
Cn1cc(-c2cccc(-n3[n-]cc(C(=O)[N-]Cc4ccc(S(C)(=O)=O)cc4)c3=N)c2)cn1

>  <Energy>  (30) 
125.0709240130714

>  <Genealogy>  (30) 
Cn1cc(-c2cccc(-n3[n-]cc(C(=O)[N-]Cc4ccc(S(C)(=O)=O)cc4)c3=N)c2)cn1 (protonated)
Cn1cc(-c2cccc(-n3[n-]cc(C(=O)[N-]Cc4ccc(S(C)(=O)=O)cc4)c3=N)c2)cn1 (3D coordinates assigned)
Cn1cc(-c2cccc(-n3[n-]cc(C(=O)[N-]Cc4ccc(S(C)(=O)=O)cc4)c3=N)c2)cn1 (optimized conformer: 125.0709240130714 kcal/mol)

>  <smiles>  (30) 
Cn1cc(-c2cccc(-n3[nH]cc(C(=O)NCc4ccc(S(C)(=O)=O)cc4)c3=N)c2)cn1

>  <score_type>  (30) 
oracle

>  <origin>  (30) 
adgpu

>  <m_score__min__energy>  (30) 
-11.75

>  <m_primary>  (30) 
energy

$$$$
30:0
     RDKit          3D

 47 49  0  0  0  0  0  0  0  0999 V2000
    1.5670   22.6240  -35.7150 C   0  0  0  0  0  0  0  0  0  0  0  0
    0.2530   22.2130  -35.3550 O   0  0  0  0  0  0  0  0  0  0  0  0
   -0.0700   21.5410  -34.1660 C   0  0  0  0  0  0  0  0  0  0  0  0
    0.8880   20.8310  -33.4170 C   0  0  0  0  0  0  0  0  0  0  0  0
    0.5190   20.1810  -32.2350 C   0  0  0  0  0  0  0  0  0  0  0  0
   -0.8100   20.2330  -31.7830 C   0  0  0  0  0  0  0  0  0  0  0  0
   -1.2260   19.6060  -30.5620 N   0  0  0  0  0  0  0  0  0  0  0  0
   -1.9620   20.4130  -29.2160 S   0  0  0  0  0  0  0  0  0  0  0  0
   -3.4370   20.1280  -29.2260 O   0  0  0  0  0  0  0  0  0  0  0  0
   -1.3880   19.8700  -27.9370 O   0  0  0  0  0  0  0  0  0  0  0  0
   -1.7240   22.1590  -29.3130 C   0  0  0  0  0  0  0  0  0  0  0  0
   -0.5160   22.7330  -28.9000 C   0  0  0  0  0  0  0  0  0  0  0  0
   -0.3550   24.1190  -28.9200 C   0  0  0  0  0  0  0  0  0  0  0  0
   -1.4080   24.9430  -29.3250 C   0  0  0  0  0  0  0  0  0  0  0  0
   -1.2360   26.3230  -29.3190 O   0  0  0  0  0  0  0  0  0  0  0  0
   -2.6310   24.3860  -29.7280 C   0  0  0  0  0  0  0  0  0  0  0  0
   -3.6980   25.2790  -30.0870 N   0  0  0  0  0  0  0  0  0  0  0  0
   -5.3660   24.8850  -30.3660 S   0  0  0  0  0  0  0  0  0  0  0  0
   -5.5940   24.8250  -31.8500 O   0  0  0  0  0  0  0  0  0  0  0  0
   -6.2700   25.9430  -29.7990 O   0  0  0  0  0  0  0  0  0  0  0  0
   -5.7600   23.2870  -29.6740 C   0  0  0  0  0  0  0  0  0  0  0  0
   -6.2740   22.3500  -30.7290 C   0  0  0  0  0  0  0  0  0  0  0  0
   -5.3750   21.6680  -31.5680 C   0  0  0  0  0  0  0  0  0  0  0  0
   -5.8510   20.7890  -32.5450 C   0  0  0  0  0  0  0  0  0  0  0  0
   -7.2260   20.5910  -32.6960 C   0  0  0  0  0  0  0  0  0  0  0  0
   -8.1250   21.2600  -31.8610 C   0  0  0  0  0  0  0  0  0  0  0  0
   -7.6530   22.1290  -30.8750 C   0  0  0  0  0  0  0  0  0  0  0  0
   -2.7730   22.9830  -29.7460 C   0  0  0  0  0  0  0  0  0  0  0  0
   -1.7610   20.9320  -32.5350 C   0  0  0  0  0  0  0  0  0  0  0  0
   -1.3930   21.5810  -33.7170 C   0  0  0  0  0  0  0  0  0  0  0  0
    2.1560   22.8082  -34.8044 H   0  0  0  0  0  0  0  0  0  0  0  0
    2.0485   21.8335  -36.3094 H   0  0  0  0  0  0  0  0  0  0  0  0
    1.5123   23.5479  -36.3094 H   0  0  0  0  0  0  0  0  0  0  0  0
    1.9312   20.7874  -33.7631 H   0  0  0  0  0  0  0  0  0  0  0  0
    1.2728   19.6266  -31.6567 H   0  0  0  0  0  0  0  0  0  0  0  0
    0.3086   22.0898  -28.5588 H   0  0  0  0  0  0  0  0  0  0  0  0
    0.6039   24.5641  -28.6160 H   0  0  0  0  0  0  0  0  0  0  0  0
   -4.8529   22.8575  -29.2237 H   0  0  0  0  0  0  0  0  0  0  0  0
   -6.5444   23.4202  -28.9144 H   0  0  0  0  0  0  0  0  0  0  0  0
   -4.2924   21.8269  -31.4550 H   0  0  0  0  0  0  0  0  0  0  0  0
   -5.1434   20.2533  -33.1948 H   0  0  0  0  0  0  0  0  0  0  0  0
   -7.6010   19.9081  -33.4726 H   0  0  0  0  0  0  0  0  0  0  0  0
   -9.2069   21.1017  -31.9807 H   0  0  0  0  0  0  0  0  0  0  0  0
   -8.3638   22.6421  -30.2105 H   0  0  0  0  0  0  0  0  0  0  0  0
   -3.7115   22.5326  -30.1015 H   0  0  0  0  0  0  0  0  0  0  0  0
   -2.8059   20.9710  -32.1933 H   0  0  0  0  0  0  0  0  0  0  0  0
   -2.1504   22.1274  -34.2982 H   0  0  0  0  0  0  0  0  0  0  0  0
  1  2  1  0
  2  3  1  0
  3  4  2  0
  4  5  1  0
  5  6  2  0
  6  7  1  0
  7  8  1  0
  8  9  2  0
  8 10  2  0
  8 11  1  0
 11 12  2  0
 12 13  1  0
 13 14  2  0
 14 15  1  0
 14 16  1  0
 16 17  1  0
 17 18  1  0
 18 19  2  0
 18 20  2  0
 18 21  1  0
 21 22  1  0
 22 23  2  0
 23 24  1  0
 24 25  2  0
 25 26  1  0
 26 27  2  0
 16 28  2  0
  6 29  1  0
 29 30  2  0
 30  3  1  0
 28 11  1  0
 27 22  1  0
  1 31  1  0
  1 32  1  0
  1 33  1  0
  4 34  1  0
  5 35  1  0
 12 36  1  0
 13 37  1  0
 21 38  1  0
 21 39  1  0
 23 40  1  0
 24 41  1  0
 25 42  1  0
 26 43  1  0
 27 44  1  0
 28 45  1  0
 29 46  1  0
 30 47  1  0
M  CHG  3   7  -1  15  -1  17  -1
M  END
>  <UniqueID>  (31) 
30

>  <SMILES>  (31) 
COc1ccc([N-]S(=O)(=O)c2ccc([O-])c([N-]S(=O)(=O)Cc3ccccc3)c2)cc1

>  <Energy>  (31) 
47.723993345035694

>  <Genealogy>  (31) 
COc1ccc([N-]S(=O)(=O)c2ccc([O-])c([N-]S(=O)(=O)Cc3ccccc3)c2)cc1 (protonated)
COc1ccc([N-]S(=O)(=O)c2ccc([O-])c([N-]S(=O)(=O)Cc3ccccc3)c2)cc1 (3D coordinates assigned)
COc1ccc([N-]S(=O)(=O)c2ccc([O-])c([N-]S(=O)(=O)Cc3ccccc3)c2)cc1 (optimized conformer: 47.723993345035694 kcal/mol)

>  <smiles>  (31) 
COc1ccc(NS(=O)(=O)c2ccc(O)c(NS(=O)(=O)Cc3ccccc3)c2)cc1

>  <score_type>  (31) 
oracle

>  <origin>  (31) 
adgpu

>  <m_score__min__energy>  (31) 
-13.75

>  <m_primary>  (31) 
energy

$$$$
31:0
     RDKit          3D

 32 33  0  0  0  0  0  0  0  0999 V2000
   -9.4980   21.9130  -31.0420 C   0  0  0  0  0  0  0  0  0  0  0  0
   -8.6710   20.8240  -31.6530 C   0  0  0  0  0  0  0  0  0  0  0  0
   -8.9890   19.5570  -31.3980 O   0  0  0  0  0  0  0  0  0  0  0  0
   -8.3090   18.5310  -31.8980 C   0  0  0  0  0  0  0  0  0  0  0  0
   -7.2110   18.7500  -32.7270 C   0  0  0  0  0  0  0  0  0  0  0  0
   -6.8370   20.0600  -33.0260 C   0  0  0  0  0  0  0  0  0  0  0  0
   -5.8450   20.2530  -33.7770 O   0  0  0  0  0  0  0  0  0  0  0  0
   -7.5770   21.1350  -32.4810 C   0  0  0  0  0  0  0  0  0  0  0  0
   -7.2840   22.4910  -32.7190 O   0  0  0  0  0  0  0  0  0  0  0  0
   -6.7670   23.4190  -31.7700 C   0  0  0  0  0  0  0  0  0  0  0  0
   -5.2780   23.2920  -31.7230 C   0  0  0  0  0  0  0  0  0  0  0  0
   -4.6070   24.1070  -31.0330 O   0  0  0  0  0  0  0  0  0  0  0  0
   -4.6240   22.2810  -32.5060 N   0  0  0  0  0  0  0  0  0  0  0  0
   -3.2370   21.9270  -32.3710 C   0  0  0  0  0  0  0  0  0  0  0  0
   -2.5580   22.0680  -31.1470 C   0  0  0  0  0  0  0  0  0  0  0  0
   -1.2160   21.6920  -31.0370 C   0  0  0  0  0  0  0  0  0  0  0  0
   -0.5430   21.1610  -32.1410 C   0  0  0  0  0  0  0  0  0  0  0  0
   -1.2160   20.9970  -33.3550 C   0  0  0  0  0  0  0  0  0  0  0  0
   -0.5680   20.4710  -34.4230 F   0  0  0  0  0  0  0  0  0  0  0  0
   -2.5590   21.3710  -33.4670 C   0  0  0  0  0  0  0  0  0  0  0  0
   -9.4446   21.8427  -29.9456 H   0  0  0  0  0  0  0  0  0  0  0  0
   -9.1131   22.8913  -31.3659 H   0  0  0  0  0  0  0  0  0  0  0  0
  -10.5437   21.8049  -31.3659 H   0  0  0  0  0  0  0  0  0  0  0  0
   -8.6148   17.5024  -31.6560 H   0  0  0  0  0  0  0  0  0  0  0  0
   -6.6465   17.9011  -33.1402 H   0  0  0  0  0  0  0  0  0  0  0  0
   -7.0402   24.4419  -32.0684 H   0  0  0  0  0  0  0  0  0  0  0  0
   -7.1887   23.2069  -30.7764 H   0  0  0  0  0  0  0  0  0  0  0  0
   -5.1750   21.8290  -33.2710 H   0  0  0  0  0  0  0  0  0  0  0  0
   -3.0856   22.4761  -30.2723 H   0  0  0  0  0  0  0  0  0  0  0  0
   -0.6885   21.8143  -30.0795 H   0  0  0  0  0  0  0  0  0  0  0  0
    0.5150   20.8725  -32.0545 H   0  0  0  0  0  0  0  0  0  0  0  0
   -3.0878   21.2284  -34.4210 H   0  0  0  0  0  0  0  0  0  0  0  0
  1  2  1  0
  2  3  1  0
  3  4  1  0
  4  5  2  0
  5  6  1  0
  6  7  2  0
  6  8  1  0
  8  9  1  0
  9 10  1  0
 10 11  1  0
 11 12  2  0
 11 13  1  0
 13 14  1  0
 14 15  2  0
 15 16  1  0
 16 17  2  0
 17 18  1  0
 18 19  1  0
 18 20  2  0
  8  2  2  0
 20 14  1  0
  1 21  1  0
  1 22  1  0
  1 23  1  0
  4 24  1  0
  5 25  1  0
 10 26  1  0
 10 27  1  0
 13 28  1  0
 15 29  1  0
 16 30  1  0
 17 31  1  0
 20 32  1  0
M  END
>  <UniqueID>  (32) 
31

>  <SMILES>  (32) 
Cc1occc(=O)c1OCC(=O)Nc1cccc(F)c1

>  <Energy>  (32) 
37.376128989174646

>  <Genealogy>  (32) 
Cc1occc(=O)c1OCC(=O)Nc1cccc(F)c1 (3D coordinates assigned)
Cc1occc(=O)c1OCC(=O)Nc1cccc(F)c1 (optimized conformer: 37.376128989174646 kcal/mol)

>  <smiles>  (32) 
Cc1occc(=O)c1OCC(=O)Nc1cccc(F)c1

>  <score_type>  (32) 
oracle

>  <origin>  (32) 
adgpu

>  <m_score__min__energy>  (32) 
-6.4199999999999999

>  <m_primary>  (32) 
energy

$$$$
32:0
     RDKit          3D

 37 39  0  0  0  0  0  0  0  0999 V2000
   -3.6280   21.5960  -27.6360 N   0  0  0  0  0  0  0  0  0  0  0  0
   -3.1610   22.6250  -28.5160 C   0  0  0  0  0  0  0  0  0  0  0  0
   -2.3420   23.6840  -28.1440 C   0  0  0  0  0  0  0  0  0  0  0  0
   -1.6410   23.8890  -26.8590 C   0  0  0  0  0  0  0  0  0  0  0  0
   -0.8510   22.8660  -26.3070 C   0  0  0  0  0  0  0  0  0  0  0  0
   -0.1780   23.0680  -25.0980 C   0  0  0  0  0  0  0  0  0  0  0  0
   -0.2820   24.2940  -24.4350 C   0  0  0  0  0  0  0  0  0  0  0  0
   -1.0580   25.3200  -24.9810 C   0  0  0  0  0  0  0  0  0  0  0  0
   -1.7320   25.1220  -26.1900 C   0  0  0  0  0  0  0  0  0  0  0  0
   -2.3170   24.5260  -29.2400 C   0  0  0  0  0  0  0  0  0  0  0  0
   -1.6120   25.7180  -29.3480 O   0  0  0  0  0  0  0  0  0  0  0  0
   -3.0980   23.9670  -30.2270 C   0  0  0  0  0  0  0  0  0  0  0  0
   -3.6090   22.8000  -29.7850 N   0  0  0  0  0  0  0  0  0  0  0  0
   -4.4610   21.9270  -30.5460 C   0  0  0  0  0  0  0  0  0  0  0  0
   -5.7790   22.3030  -30.8510 C   0  0  0  0  0  0  0  0  0  0  0  0
   -6.6110   21.4420  -31.5720 C   0  0  0  0  0  0  0  0  0  0  0  0
   -6.1410   20.1890  -31.9860 C   0  0  0  0  0  0  0  0  0  0  0  0
   -7.1830   19.1120  -32.9090 S   0  0  0  0  0  0  0  0  0  0  0  0
   -8.6350   19.9420  -33.3440 N   0  0  0  0  0  0  0  0  0  0  0  0
   -6.4730   18.6600  -34.1540 O   0  0  0  0  0  0  0  0  0  0  0  0
   -7.5250   17.9030  -32.0840 O   0  0  0  0  0  0  0  0  0  0  0  0
   -4.8280   19.8060  -31.6770 C   0  0  0  0  0  0  0  0  0  0  0  0
   -3.9960   20.6670  -30.9540 C   0  0  0  0  0  0  0  0  0  0  0  0
   -4.6360   21.5220  -27.3820 H   0  0  0  0  0  0  0  0  0  0  0  0
   -2.9970   20.8260  -27.3240 H   0  0  0  0  0  0  0  0  0  0  0  0
   -0.7617   21.9017  -26.8286 H   0  0  0  0  0  0  0  0  0  0  0  0
    0.4339   22.2612  -24.6683 H   0  0  0  0  0  0  0  0  0  0  0  0
    0.2470   24.4513  -23.4834 H   0  0  0  0  0  0  0  0  0  0  0  0
   -1.1387   26.2848  -24.4589 H   0  0  0  0  0  0  0  0  0  0  0  0
   -2.3361   25.9347  -26.6195 H   0  0  0  0  0  0  0  0  0  0  0  0
   -3.2770   24.4041  -31.2204 H   0  0  0  0  0  0  0  0  0  0  0  0
   -6.1590   23.2810  -30.5205 H   0  0  0  0  0  0  0  0  0  0  0  0
   -7.6388   21.7494  -31.8153 H   0  0  0  0  0  0  0  0  0  0  0  0
   -9.3610   19.2140  -33.5230 H   0  0  0  0  0  0  0  0  0  0  0  0
   -8.4530   20.4180  -34.2570 H   0  0  0  0  0  0  0  0  0  0  0  0
   -4.4513   18.8257  -32.0041 H   0  0  0  0  0  0  0  0  0  0  0  0
   -2.9713   20.3549  -30.7037 H   0  0  0  0  0  0  0  0  0  0  0  0
  1  2  1  0
  2  3  2  0
  3  4  1  0
  4  5  2  0
  5  6  1  0
  6  7  2  0
  7  8  1  0
  8  9  2  0
  3 10  1  0
 10 11  1  0
 10 12  2  0
 12 13  1  0
 13 14  1  0
 14 15  2  0
 15 16  1  0
 16 17  2  0
 17 18  1  0
 18 19  1  0
 18 20  2  0
 18 21  2  0
 17 22  1  0
 22 23  2  0
 13  2  1  0
 23 14  1  0
  9  4  1  0
  1 24  1  0
  1 25  1  0
  5 26  1  0
  6 27  1  0
  7 28  1  0
  8 29  1  0
  9 30  1  0
 12 31  1  0
 15 32  1  0
 16 33  1  0
 19 34  1  0
 19 35  1  0
 22 36  1  0
 23 37  1  0
M  CHG  1  11  -1
M  END
>  <UniqueID>  (33) 
32

>  <SMILES>  (33) 
Nc1c(-c2ccccc2)c([O-])cn1-c1ccc(S(N)(=O)=O)cc1

>  <Energy>  (33) 
77.06390113827163

>  <Genealogy>  (33) 
Nc1c(-c2ccccc2)c([O-])cn1-c1ccc(S(N)(=O)=O)cc1 (protonated)
Nc1c(-c2ccccc2)c([O-])cn1-c1ccc(S(N)(=O)=O)cc1 (3D coordinates assigned)
Nc1c(-c2ccccc2)c([O-])cn1-c1ccc(S(N)(=O)=O)cc1 (optimized conformer: 77.06390113827163 kcal/mol)

>  <smiles>  (33) 
Nc1c(-c2ccccc2)c(O)cn1-c1ccc(S(N)(=O)=O)cc1

>  <score_type>  (33) 
oracle

>  <origin>  (33) 
adgpu

>  <m_score__min__energy>  (33) 
-9.7799999999999994

>  <m_primary>  (33) 
energy

$$$$
33:0
     RDKit          3D

 45 47  0  0  0  0  0  0  0  0999 V2000
   -1.1739   21.1246  -30.6725 H   0  0  0  0  0  0  0  0  0  0  0  0
   -1.8420   21.9970  -30.6220 C   0  0  0  0  0  0  0  0  0  0  0  0
   -1.5850   23.0410  -29.7270 C   0  0  0  0  0  0  0  0  0  0  0  0
   -0.4050   22.9780  -28.8100 C   0  0  0  0  0  0  0  0  0  0  0  0
   -0.7506   22.9965  -27.7659 H   0  0  0  0  0  0  0  0  0  0  0  0
    0.1538   22.0487  -28.9949 H   0  0  0  0  0  0  0  0  0  0  0  0
    0.2496   23.8425  -28.9949 H   0  0  0  0  0  0  0  0  0  0  0  0
   -2.4320   24.1010  -29.6700 N   0  0  0  0  0  0  0  0  0  0  0  0
   -3.5250   24.1750  -30.4730 C   0  0  0  0  0  0  0  0  0  0  0  0
   -4.3110   25.2060  -30.3880 N   0  0  0  0  0  0  0  0  0  0  0  0
   -5.5140   25.4130  -31.1950 C   0  0  0  0  0  0  0  0  0  0  0  0
   -6.0336   26.3162  -30.8424 H   0  0  0  0  0  0  0  0  0  0  0  0
   -5.2164   25.5282  -32.2477 H   0  0  0  0  0  0  0  0  0  0  0  0
   -6.4440   24.2330  -31.0830 C   0  0  0  0  0  0  0  0  0  0  0  0
   -7.0960   23.7260  -32.2190 C   0  0  0  0  0  0  0  0  0  0  0  0
   -6.9373   24.2002  -33.1988 H   0  0  0  0  0  0  0  0  0  0  0  0
   -7.9460   22.6210  -32.1100 C   0  0  0  0  0  0  0  0  0  0  0  0
   -8.4519   22.2264  -33.0035 H   0  0  0  0  0  0  0  0  0  0  0  0
   -8.1530   22.0180  -30.8670 C   0  0  0  0  0  0  0  0  0  0  0  0
   -8.8223   21.1492  -30.7824 H   0  0  0  0  0  0  0  0  0  0  0  0
   -7.5100   22.5180  -29.7300 C   0  0  0  0  0  0  0  0  0  0  0  0
   -7.6736   22.0420  -28.7519 H   0  0  0  0  0  0  0  0  0  0  0  0
   -6.6590   23.6230  -29.8360 C   0  0  0  0  0  0  0  0  0  0  0  0
   -6.1564   24.0157  -28.9398 H   0  0  0  0  0  0  0  0  0  0  0  0
   -3.7820   23.1680  -31.3520 N   0  0  0  0  0  0  0  0  0  0  0  0
   -2.9670   22.0840  -31.4530 C   0  0  0  0  0  0  0  0  0  0  0  0
   -3.3100   21.0040  -32.4050 C   0  0  0  0  0  0  0  0  0  0  0  0
   -2.2830   20.3600  -33.1110 C   0  0  0  0  0  0  0  0  0  0  0  0
   -1.2376   20.6628  -32.9517 H   0  0  0  0  0  0  0  0  0  0  0  0
   -2.5780   19.3390  -34.0130 C   0  0  0  0  0  0  0  0  0  0  0  0
   -1.7656   18.8459  -34.5670 H   0  0  0  0  0  0  0  0  0  0  0  0
   -3.8990   18.9400  -34.2160 C   0  0  0  0  0  0  0  0  0  0  0  0
   -4.1229   18.1406  -34.9377 H   0  0  0  0  0  0  0  0  0  0  0  0
   -4.9470   19.5520  -33.5050 C   0  0  0  0  0  0  0  0  0  0  0  0
   -6.3200   19.1540  -33.6900 N   0  0  0  0  0  0  0  0  0  0  0  0
   -6.8360   19.4830  -34.5350 H   0  0  0  0  0  0  0  0  0  0  0  0
   -7.2440   18.2600  -32.5230 S   0  0  0  0  0  0  0  0  0  0  0  0
   -7.4250   16.8540  -33.0230 O   0  0  0  0  0  0  0  0  0  0  0  0
   -6.5140   18.2150  -31.2100 O   0  0  0  0  0  0  0  0  0  0  0  0
   -8.8520   18.9960  -32.3170 C   0  0  0  0  0  0  0  0  0  0  0  0
   -9.0741   19.0976  -31.2445 H   0  0  0  0  0  0  0  0  0  0  0  0
   -8.8639   19.9892  -32.7896 H   0  0  0  0  0  0  0  0  0  0  0  0
   -9.6115   18.3559  -32.7896 H   0  0  0  0  0  0  0  0  0  0  0  0
   -4.6440   20.5900  -32.6010 C   0  0  0  0  0  0  0  0  0  0  0  0
   -5.6440   21.1550  -31.8760 F   0  0  0  0  0  0  0  0  0  0  0  0
  1  2  1  0
  2  3  1  0
  3  4  1  0
  4  5  1  0
  4  6  1  0
  4  7  1  0
  3  8  2  0
  8  9  1  0
  9 10  2  0
 10 11  1  0
 11 12  1  0
 11 13  1  0
 11 14  1  0
 14 15  2  0
 15 16  1  0
 15 17  1  0
 17 18  1  0
 17 19  2  0
 19 20  1  0
 19 21  1  0
 21 22  1  0
 21 23  2  0
 23 24  1  0
  9 25  1  0
 25 26  1  0
 26 27  1  0
 27 28  2  0
 28 29  1  0
 28 30  1  0
 30 31  1  0
 30 32  2  0
 32 33  1  0
 32 34  1  0
 34 35  1  0
 35 36  1  0
 35 37  1  0
 37 38  2  0
 37 39  2  0
 37 40  1  0
 40 41  1  0
 40 42  1  0
 40 43  1  0
 34 44  2  0
 44 45  1  0
 26  2  2  0
 44 27  1  0
 23 14  1  0
M  CHG  1  25  -1
M  END
>  <UniqueID>  (34) 
33

>  <SMILES>  (34) 
Cc1cc(-c2cccc(NS(C)(=O)=O)c2F)[n-]/c(=N\Cc2ccccc2)n1

>  <Energy>  (34) 
49.4696701700161

>  <Genealogy>  (34) 
Cc1cc(-c2cccc(NS(C)(=O)=O)c2F)[n-]c(=NCc2ccccc2)n1 (protonated)
Cc1cc(-c2cccc(NS(C)(=O)=O)c2F)[n-]/c(=N\Cc2ccccc2)n1 (cis-trans isomerization)
Cc1cc(-c2cccc(NS(C)(=O)=O)c2F)[n-]/c(=N\Cc2ccccc2)n1 (3D coordinates assigned)
Cc1cc(-c2cccc(NS(C)(=O)=O)c2F)[n-]/c(=N\Cc2ccccc2)n1 (optimized conformer: 49.4696701700161 kcal/mol)

>  <smiles>  (34) 
Cc1cc(-c2cccc(NS(C)(=O)=O)c2F)[nH]c(=NCc2ccccc2)n1

>  <score_type>  (34) 
oracle

>  <origin>  (34) 
adgpu

>  <m_score__min__energy>  (34) 
-10.31

>  <m_primary>  (34) 
energy

$$$$
34:0
     RDKit          3D

 37 39  0  0  0  0  0  0  0  0999 V2000
   -5.3150   25.7800  -30.4690 C   0  0  0  0  0  0  0  0  0  0  0  0
   -3.9560   25.3600  -30.4740 O   0  0  0  0  0  0  0  0  0  0  0  0
   -3.5270   24.1700  -29.8770 C   0  0  0  0  0  0  0  0  0  0  0  0
   -2.7800   24.1950  -28.7390 N   0  0  0  0  0  0  0  0  0  0  0  0
   -2.3510   23.0560  -28.1350 C   0  0  0  0  0  0  0  0  0  0  0  0
   -2.6720   21.8020  -28.6770 C   0  0  0  0  0  0  0  0  0  0  0  0
   -2.2080   20.5560  -28.0280 C   0  0  0  0  0  0  0  0  0  0  0  0
   -2.8780   19.9330  -27.0370 N   0  0  0  0  0  0  0  0  0  0  0  0
   -2.1570   18.8930  -26.7490 O   0  0  0  0  0  0  0  0  0  0  0  0
   -1.0940   18.8700  -27.5120 C   0  0  0  0  0  0  0  0  0  0  0  0
   -0.0560   17.8010  -27.4730 C   0  0  0  0  0  0  0  0  0  0  0  0
   -1.0710   19.9120  -28.3650 N   0  0  0  0  0  0  0  0  0  0  0  0
   -3.4410   21.7570  -29.8500 C   0  0  0  0  0  0  0  0  0  0  0  0
   -3.8660   22.9410  -30.4570 C   0  0  0  0  0  0  0  0  0  0  0  0
   -4.6230   22.8900  -31.6650 N   0  0  0  0  0  0  0  0  0  0  0  0
   -6.3520   22.8740  -31.6250 S   0  0  0  0  0  0  0  0  0  0  0  0
   -6.8280   23.2320  -30.2450 O   0  0  0  0  0  0  0  0  0  0  0  0
   -6.8770   23.8960  -32.5930 O   0  0  0  0  0  0  0  0  0  0  0  0
   -6.9470   21.2790  -32.0730 C   0  0  0  0  0  0  0  0  0  0  0  0
   -8.2480   20.8910  -31.7190 C   0  0  0  0  0  0  0  0  0  0  0  0
   -8.7050   19.6060  -32.0260 C   0  0  0  0  0  0  0  0  0  0  0  0
   -7.8680   18.7030  -32.6870 C   0  0  0  0  0  0  0  0  0  0  0  0
   -6.5700   19.0840  -33.0400 C   0  0  0  0  0  0  0  0  0  0  0  0
   -6.1080   20.3680  -32.7320 C   0  0  0  0  0  0  0  0  0  0  0  0
   -5.6618   25.8872  -29.4306 H   0  0  0  0  0  0  0  0  0  0  0  0
   -5.4019   26.7469  -30.9863 H   0  0  0  0  0  0  0  0  0  0  0  0
   -5.9323   25.0307  -30.9863 H   0  0  0  0  0  0  0  0  0  0  0  0
   -1.7490   23.1172  -27.2164 H   0  0  0  0  0  0  0  0  0  0  0  0
    0.1804   17.5575  -26.4267 H   0  0  0  0  0  0  0  0  0  0  0  0
   -0.4356   16.9026  -27.9818 H   0  0  0  0  0  0  0  0  0  0  0  0
    0.8532   18.1540  -27.9818 H   0  0  0  0  0  0  0  0  0  0  0  0
   -3.7098   20.7866  -30.2927 H   0  0  0  0  0  0  0  0  0  0  0  0
   -8.9097   21.5993  -31.1989 H   0  0  0  0  0  0  0  0  0  0  0  0
   -9.7255   19.3051  -31.7467 H   0  0  0  0  0  0  0  0  0  0  0  0
   -8.2302   17.6930  -32.9294 H   0  0  0  0  0  0  0  0  0  0  0  0
   -5.9112   18.3733  -33.5605 H   0  0  0  0  0  0  0  0  0  0  0  0
   -5.0849   20.6639  -33.0071 H   0  0  0  0  0  0  0  0  0  0  0  0
  1  2  1  0
  2  3  1  0
  3  4  2  0
  4  5  1  0
  5  6  2  0
  6  7  1  0
  7  8  2  0
  8  9  1  0
  9 10  1  0
 10 11  1  0
 10 12  2  0
  6 13  1  0
 13 14  2  0
 14 15  1  0
 15 16  1  0
 16 17  2  0
 16 18  2  0
 16 19  1  0
 19 20  2  0
 20 21  1  0
 21 22  2  0
 22 23  1  0
 23 24  2  0
 14  3  1  0
 24 19  1  0
 12  7  1  0
  1 25  1  0
  1 26  1  0
  1 27  1  0
  5 28  1  0
 11 29  1  0
 11 30  1  0
 11 31  1  0
 13 32  1  0
 20 33  1  0
 21 34  1  0
 22 35  1  0
 23 36  1  0
 24 37  1  0
M  CHG  1  15  -1
M  END
>  <UniqueID>  (35) 
34

>  <SMILES>  (35) 
COc1ncc(-c2noc(C)n2)cc1[N-]S(=O)(=O)c1ccccc1

>  <Energy>  (35) 
78.12063973813622

>  <Genealogy>  (35) 
COc1ncc(-c2noc(C)n2)cc1[N-]S(=O)(=O)c1ccccc1 (protonated)
COc1ncc(-c2noc(C)n2)cc1[N-]S(=O)(=O)c1ccccc1 (3D coordinates assigned)
COc1ncc(-c2noc(C)n2)cc1[N-]S(=O)(=O)c1ccccc1 (optimized conformer: 78.12063973813622 kcal/mol)

>  <smiles>  (35) 
COc1ncc(-c2noc(C)n2)cc1NS(=O)(=O)c1ccccc1

>  <score_type>  (35) 
oracle

>  <origin>  (35) 
adgpu

>  <m_score__min__energy>  (35) 
-9.1300000000000008

>  <m_primary>  (35) 
energy

$$$$
35:0
     RDKit          3D

 52 54  0  0  0  0  0  0  0  0999 V2000
   -6.5160   16.6420  -33.8810 C   0  0  0  0  0  0  0  0  0  0  0  0
   -7.3040   17.2930  -32.8920 O   0  0  0  0  0  0  0  0  0  0  0  0
   -7.1610   18.6360  -32.5210 C   0  0  0  0  0  0  0  0  0  0  0  0
   -5.8700   19.1630  -32.4120 C   0  0  0  0  0  0  0  0  0  0  0  0
   -5.6750   20.4860  -32.0040 C   0  0  0  0  0  0  0  0  0  0  0  0
   -6.7730   21.3100  -31.7120 C   0  0  0  0  0  0  0  0  0  0  0  0
   -6.5560   22.6480  -31.2430 N   0  0  0  0  0  0  0  0  0  0  0  0
   -6.4900   23.8010  -32.1250 C   0  0  0  0  0  0  0  0  0  0  0  0
   -6.1190   24.9720  -31.2250 C   0  0  0  0  0  0  0  0  0  0  0  0
   -5.4800   24.3490  -29.9820 C   0  0  2  0  0  0  0  0  0  0  0  0
   -4.0620   24.2980  -30.1620 O   0  0  0  0  0  0  0  0  0  0  0  0
   -3.1870   23.4490  -29.4630 C   0  0  0  0  0  0  0  0  0  0  0  0
   -2.9520   23.5760  -28.0810 C   0  0  0  0  0  0  0  0  0  0  0  0
   -2.0830   22.6960  -27.4300 C   0  0  0  0  0  0  0  0  0  0  0  0
   -1.4280   21.6750  -28.1430 C   0  0  0  0  0  0  0  0  0  0  0  0
   -0.5710   20.6770  -27.3870 C   0  0  2  0  0  0  0  0  0  0  0  0
    0.0990   19.6470  -28.3020 C   0  0  0  0  0  0  0  0  0  0  0  0
   -1.3810   19.9980  -26.3710 N   0  0  0  0  0  0  0  0  0  0  0  0
   -2.6190   19.3430  -26.6840 C   0  0  0  0  0  0  0  0  0  0  0  0
   -3.3340   18.5560  -25.6330 C   0  0  0  0  0  0  0  0  0  0  0  0
   -3.1160   19.4300  -27.8370 O   0  0  0  0  0  0  0  0  0  0  0  0
   -1.6850   21.5380  -29.5220 C   0  0  0  0  0  0  0  0  0  0  0  0
   -2.5410   22.4310  -30.1740 C   0  0  0  0  0  0  0  0  0  0  0  0
   -6.0610   22.9350  -29.9080 C   0  0  0  0  0  0  0  0  0  0  0  0
   -8.0760   20.7930  -31.8420 C   0  0  0  0  0  0  0  0  0  0  0  0
   -9.4840   21.8050  -31.5690 Cl  0  0  0  0  0  0  0  0  0  0  0  0
   -8.2670   19.4650  -32.2440 C   0  0  0  0  0  0  0  0  0  0  0  0
   -5.7569   16.0149  -33.3907 H   0  0  0  0  0  0  0  0  0  0  0  0
   -7.1629   16.0114  -34.5086 H   0  0  0  0  0  0  0  0  0  0  0  0
   -6.0188   17.3962  -34.5086 H   0  0  0  0  0  0  0  0  0  0  0  0
   -5.0011   18.5315  -32.6492 H   0  0  0  0  0  0  0  0  0  0  0  0
   -4.6537   20.8839  -31.9112 H   0  0  0  0  0  0  0  0  0  0  0  0
   -5.7227   23.6512  -32.8989 H   0  0  0  0  0  0  0  0  0  0  0  0
   -7.4414   23.9716  -32.6502 H   0  0  0  0  0  0  0  0  0  0  0  0
   -5.4035   25.6352  -31.7331 H   0  0  0  0  0  0  0  0  0  0  0  0
   -6.9973   25.5826  -30.9686 H   0  0  0  0  0  0  0  0  0  0  0  0
   -5.6805   24.9195  -29.0631 H   0  0  0  0  0  0  0  0  0  0  0  0
   -3.4545   24.3713  -27.5109 H   0  0  0  0  0  0  0  0  0  0  0  0
   -1.9093   22.8027  -26.3491 H   0  0  0  0  0  0  0  0  0  0  0  0
    0.2391   21.2461  -26.9075 H   0  0  0  0  0  0  0  0  0  0  0  0
    0.5971   18.8813  -27.6892 H   0  0  0  0  0  0  0  0  0  0  0  0
   -0.6624   19.1704  -28.9369 H   0  0  0  0  0  0  0  0  0  0  0  0
    0.8434   20.1498  -28.9369 H   0  0  0  0  0  0  0  0  0  0  0  0
   -1.0470   19.9730  -25.3810 H   0  0  0  0  0  0  0  0  0  0  0  0
   -3.0191   18.9026  -24.6377 H   0  0  0  0  0  0  0  0  0  0  0  0
   -4.4192   18.6971  -25.7440 H   0  0  0  0  0  0  0  0  0  0  0  0
   -3.0897   17.4892  -25.7440 H   0  0  0  0  0  0  0  0  0  0  0  0
   -1.2095   20.7239  -30.0886 H   0  0  0  0  0  0  0  0  0  0  0  0
   -2.7084   22.3325  -31.2567 H   0  0  0  0  0  0  0  0  0  0  0  0
   -5.2809   22.2133  -29.6239 H   0  0  0  0  0  0  0  0  0  0  0  0
   -6.8574   22.8602  -29.1529 H   0  0  0  0  0  0  0  0  0  0  0  0
   -9.2872   19.0661  -32.3443 H   0  0  0  0  0  0  0  0  0  0  0  0
  1  2  1  0
  2  3  1  0
  3  4  2  0
  4  5  1  0
  5  6  2  0
  6  7  1  0
  7  8  1  0
  8  9  1  0
  9 10  1  0
 10 11  1  0
 11 12  1  0
 12 13  2  0
 13 14  1  0
 14 15  2  0
 15 16  1  0
 16 17  1  0
 16 18  1  0
 18 19  1  0
 19 20  1  0
 19 21  2  0
 15 22  1  0
 22 23  2  0
 10 24  1  0
  6 25  1  0
 25 26  1  0
 25 27  2  0
 27  3  1  0
 24  7  1  0
 23 12  1  0
  1 28  1  0
  1 29  1  0
  1 30  1  0
  4 31  1  0
  5 32  1  0
  8 33  1  0
  8 34  1  0
  9 35  1  0
  9 36  1  0
 10 37  1  1
 13 38  1  0
 14 39  1  0
 16 40  1  1
 17 41  1  0
 17 42  1  0
 17 43  1  0
 18 44  1  0
 20 45  1  0
 20 46  1  0
 20 47  1  0
 22 48  1  0
 23 49  1  0
 24 50  1  0
 24 51  1  0
 27 52  1  0
M  END
>  <UniqueID>  (36) 
35

>  <SMILES>  (36) 
COc1ccc(N2CC[C@H](Oc3ccc([C@H](C)NC(C)=O)cc3)C2)c(Cl)c1

>  <Energy>  (36) 
55.97940953969826

>  <Genealogy>  (36) 
COc1ccc(N2CC[C@H](Oc3ccc([C@H](C)NC(C)=O)cc3)C2)c(Cl)c1 (chirality)
COc1ccc(N2CC[C@H](Oc3ccc([C@H](C)NC(C)=O)cc3)C2)c(Cl)c1 (3D coordinates assigned)
COc1ccc(N2CC[C@H](Oc3ccc([C@H](C)NC(C)=O)cc3)C2)c(Cl)c1 (nonaromatic ring conformer: 55.97940953969826 kcal/mol)

>  <smiles>  (36) 
COc1ccc(N2CCC(Oc3ccc(C(C)NC(C)=O)cc3)C2)c(Cl)c1

>  <score_type>  (36) 
oracle

>  <origin>  (36) 
adgpu

>  <m_score__min__energy>  (36) 
-8.6600000000000001

>  <m_primary>  (36) 
energy

$$$$
36:0
     RDKit          3D

 53 56  0  0  0  0  0  0  0  0999 V2000
   -8.9620   21.1960  -31.9170 C   0  0  0  0  0  0  0  0  0  0  0  0
   -7.6450   21.9210  -31.6510 C   0  0  0  0  0  0  0  0  0  0  0  0
   -6.4810   21.1700  -32.2600 C   0  0  0  0  0  0  0  0  0  0  0  0
   -6.7750   20.0370  -33.0410 C   0  0  0  0  0  0  0  0  0  0  0  0
   -5.7560   19.2720  -33.6200 C   0  0  0  0  0  0  0  0  0  0  0  0
   -6.1010   18.0790  -34.4740 C   0  0  0  0  0  0  0  0  0  0  0  0
   -6.0270   16.8310  -33.6850 N   0  0  0  0  0  0  0  0  0  0  0  0
   -6.6600   15.6890  -34.3850 C   0  0  0  0  0  0  0  0  0  0  0  0
   -6.1360   14.3520  -33.8560 C   0  0  0  0  0  0  0  0  0  0  0  0
   -4.6960   14.1980  -34.1250 N   0  0  0  0  0  0  0  0  0  0  0  0
   -3.9060   15.4530  -33.9880 C   0  0  1  0  0  0  0  0  0  0  0  0
   -3.4220   15.9730  -35.3540 C   0  0  0  0  0  0  0  0  0  0  0  0
   -4.6550   16.5520  -33.1900 C   0  0  0  0  0  0  0  0  0  0  0  0
   -4.4240   19.6510  -33.4330 C   0  0  0  0  0  0  0  0  0  0  0  0
   -4.1120   20.7800  -32.6770 C   0  0  0  0  0  0  0  0  0  0  0  0
   -5.1230   21.5650  -32.0920 C   0  0  0  0  0  0  0  0  0  0  0  0
   -4.7120   22.7750  -31.3340 C   0  0  0  0  0  0  0  0  0  0  0  0
   -3.9560   22.7380  -30.2180 N   0  0  0  0  0  0  0  0  0  0  0  0
   -3.8380   24.0480  -29.9210 C   0  0  0  0  0  0  0  0  0  0  0  0
   -3.0920   24.5700  -28.7640 C   0  0  0  0  0  0  0  0  0  0  0  0
   -3.5740   24.4050  -27.4560 C   0  0  0  0  0  0  0  0  0  0  0  0
   -2.8360   24.9150  -26.3840 C   0  0  0  0  0  0  0  0  0  0  0  0
   -1.6330   25.5800  -26.6220 C   0  0  0  0  0  0  0  0  0  0  0  0
   -1.1820   25.7250  -27.9360 C   0  0  0  0  0  0  0  0  0  0  0  0
   -1.9130   25.2230  -28.9670 N   0  0  0  0  0  0  0  0  0  0  0  0
   -4.4810   24.8340  -30.8060 N   0  0  0  0  0  0  0  0  0  0  0  0
   -5.0040   24.0100  -31.6610 O   0  0  0  0  0  0  0  0  0  0  0  0
   -9.4366   20.9347  -30.9597 H   0  0  0  0  0  0  0  0  0  0  0  0
   -9.6323   21.8523  -32.4915 H   0  0  0  0  0  0  0  0  0  0  0  0
   -8.7660   20.2786  -32.4915 H   0  0  0  0  0  0  0  0  0  0  0  0
   -7.6933   22.9280  -32.0910 H   0  0  0  0  0  0  0  0  0  0  0  0
   -7.4921   21.9830  -30.5634 H   0  0  0  0  0  0  0  0  0  0  0  0
   -7.8243   19.7474  -33.1993 H   0  0  0  0  0  0  0  0  0  0  0  0
   -7.1221   18.1985  -34.8653 H   0  0  0  0  0  0  0  0  0  0  0  0
   -5.3792   18.0167  -35.3017 H   0  0  0  0  0  0  0  0  0  0  0  0
   -7.7483   15.7333  -34.2312 H   0  0  0  0  0  0  0  0  0  0  0  0
   -6.4146   15.7589  -35.4550 H   0  0  0  0  0  0  0  0  0  0  0  0
   -6.3048   14.3053  -32.7700 H   0  0  0  0  0  0  0  0  0  0  0  0
   -6.6739   13.5408  -34.3684 H   0  0  0  0  0  0  0  0  0  0  0  0
   -4.5790   13.7890  -35.0820 H   0  0  0  0  0  0  0  0  0  0  0  0
   -4.3220   13.4880  -33.4530 H   0  0  0  0  0  0  0  0  0  0  0  0
   -3.0158   15.1937  -33.3962 H   0  0  0  0  0  0  0  0  0  0  0  0
   -2.6799   16.7703  -35.2008 H   0  0  0  0  0  0  0  0  0  0  0  0
   -2.9627   15.1482  -35.9186 H   0  0  0  0  0  0  0  0  0  0  0  0
   -4.2776   16.3720  -35.9186 H   0  0  0  0  0  0  0  0  0  0  0  0
   -4.7251   16.2299  -32.1405 H   0  0  0  0  0  0  0  0  0  0  0  0
   -4.0786   17.4810  -33.3113 H   0  0  0  0  0  0  0  0  0  0  0  0
   -3.6172   19.0552  -33.8848 H   0  0  0  0  0  0  0  0  0  0  0  0
   -3.0582   21.0619  -32.5354 H   0  0  0  0  0  0  0  0  0  0  0  0
   -4.5234   23.8794  -27.2763 H   0  0  0  0  0  0  0  0  0  0  0  0
   -3.2032   24.7922  -25.3544 H   0  0  0  0  0  0  0  0  0  0  0  0
   -1.0463   25.9855  -25.7845 H   0  0  0  0  0  0  0  0  0  0  0  0
   -0.2343   26.2459  -28.1371 H   0  0  0  0  0  0  0  0  0  0  0  0
  1  2  1  0
  2  3  1  0
  3  4  2  0
  4  5  1  0
  5  6  1  0
  6  7  1  0
  7  8  1  0
  8  9  1  0
  9 10  1  0
 10 11  1  0
 11 12  1  0
 11 13  1  0
  5 14  2  0
 14 15  1  0
 15 16  2  0
 16 17  1  0
 17 18  2  0
 18 19  1  0
 19 20  1  0
 20 21  2  0
 21 22  1  0
 22 23  2  0
 23 24  1  0
 24 25  2  0
 19 26  2  0
 26 27  1  0
 16  3  1  0
 27 17  1  0
 13  7  1  0
 25 20  1  0
  1 28  1  0
  1 29  1  0
  1 30  1  0
  2 31  1  0
  2 32  1  0
  4 33  1  0
  6 34  1  0
  6 35  1  0
  8 36  1  0
  8 37  1  0
  9 38  1  0
  9 39  1  0
 10 40  1  0
 10 41  1  0
 11 42  1  1
 12 43  1  0
 12 44  1  0
 12 45  1  0
 13 46  1  0
 13 47  1  0
 14 48  1  0
 15 49  1  0
 21 50  1  0
 22 51  1  0
 23 52  1  0
 24 53  1  0
M  CHG  1  10   1
M  END
>  <UniqueID>  (37) 
36

>  <SMILES>  (37) 
CCc1cc(CN2CC[NH2+][C@@H](C)C2)ccc1-c1nc(-c2ccccn2)no1

>  <Energy>  (37) 
102.64185605591169

>  <Genealogy>  (37) 
CCc1cc(CN2CC[NH2+]C(C)C2)ccc1-c1nc(-c2ccccn2)no1 (protonated)
CCc1cc(CN2CC[NH2+][C@@H](C)C2)ccc1-c1nc(-c2ccccn2)no1 (chirality)
CCc1cc(CN2CC[NH2+][C@@H](C)C2)ccc1-c1nc(-c2ccccn2)no1 (3D coordinates assigned)
CCc1cc(CN2CC[NH2+][C@@H](C)C2)ccc1-c1nc(-c2ccccn2)no1 (nonaromatic ring conformer: 102.64185605591169 kcal/mol)

>  <smiles>  (37) 
CCc1cc(CN2CCNC(C)C2)ccc1-c1nc(-c2ccccn2)no1

>  <score_type>  (37) 
oracle

>  <origin>  (37) 
adgpu

>  <m_score__min__energy>  (37) 
-9.8800000000000008

>  <m_primary>  (37) 
energy

$$$$
37:0
     RDKit          3D

 25 27  0  0  0  0  0  0  0  0999 V2000
   -9.6930   19.0950  -33.0970 O   0  0  0  0  0  0  0  0  0  0  0  0
   -8.5740   19.7320  -32.5720 C   0  0  0  0  0  0  0  0  0  0  0  0
   -8.6870   21.0260  -32.0580 C   0  0  0  0  0  0  0  0  0  0  0  0
   -7.5670   21.6730  -31.5290 C   0  0  0  0  0  0  0  0  0  0  0  0
   -6.3160   21.0280  -31.5070 C   0  0  0  0  0  0  0  0  0  0  0  0
   -5.1120   21.6900  -30.9510 C   0  0  0  0  0  0  0  0  0  0  0  0
   -3.9940   21.0610  -30.3970 C   0  0  0  0  0  0  0  0  0  0  0  0
   -3.1630   22.0960  -30.0300 C   0  0  0  0  0  0  0  0  0  0  0  0
   -1.9060   22.0940  -29.4280 C   0  0  0  0  0  0  0  0  0  0  0  0
   -1.2720   20.9040  -29.0880 O   0  0  0  0  0  0  0  0  0  0  0  0
   -1.2940   23.3370  -29.1730 C   0  0  0  0  0  0  0  0  0  0  0  0
   -1.9500   24.5400  -29.5230 C   0  0  0  0  0  0  0  0  0  0  0  0
   -1.3340   25.7590  -29.2650 O   0  0  0  0  0  0  0  0  0  0  0  0
   -3.2200   24.5050  -30.1310 C   0  0  0  0  0  0  0  0  0  0  0  0
   -3.8810   25.6760  -30.4830 O   0  0  0  0  0  0  0  0  0  0  0  0
   -3.7980   23.2600  -30.3690 C   0  0  0  0  0  0  0  0  0  0  0  0
   -4.9600   23.0040  -30.9180 O   0  0  0  0  0  0  0  0  0  0  0  0
   -6.2130   19.7250  -32.0260 C   0  0  0  0  0  0  0  0  0  0  0  0
   -7.3360   19.0800  -32.5550 C   0  0  0  0  0  0  0  0  0  0  0  0
   -7.2180   17.7920  -33.0660 O   0  0  0  0  0  0  0  0  0  0  0  0
   -9.6608   21.5374  -32.0697 H   0  0  0  0  0  0  0  0  0  0  0  0
   -7.6636   22.6925  -31.1274 H   0  0  0  0  0  0  0  0  0  0  0  0
   -3.8173   19.9816  -30.2802 H   0  0  0  0  0  0  0  0  0  0  0  0
   -0.3017   23.3720  -28.6996 H   0  0  0  0  0  0  0  0  0  0  0  0
   -5.2416   19.2089  -32.0159 H   0  0  0  0  0  0  0  0  0  0  0  0
  1  2  1  0
  2  3  2  0
  3  4  1  0
  4  5  2  0
  5  6  1  0
  6  7  2  0
  7  8  1  0
  8  9  2  0
  9 10  1  0
  9 11  1  0
 11 12  2  0
 12 13  1  0
 12 14  1  0
 14 15  1  0
 14 16  2  0
 16 17  1  0
  5 18  1  0
 18 19  2  0
 19 20  1  0
 19  2  1  0
 17  6  1  0
 16  8  1  0
  3 21  1  0
  4 22  1  0
  7 23  1  0
 11 24  1  0
 18 25  1  0
M  CHG  5   1  -1  10  -1  13  -1  15  -1  20  -1
M  END
>  <UniqueID>  (38) 
37

>  <SMILES>  (38) 
[O-]c1ccc(-c2cc3c([O-])cc([O-])c([O-])c3o2)cc1[O-]

>  <Energy>  (38) 
63.862098678913

>  <Genealogy>  (38) 
[O-]c1ccc(-c2cc3c([O-])cc([O-])c([O-])c3o2)cc1[O-] (protonated)
[O-]c1ccc(-c2cc3c([O-])cc([O-])c([O-])c3o2)cc1[O-] (3D coordinates assigned)
[O-]c1ccc(-c2cc3c([O-])cc([O-])c([O-])c3o2)cc1[O-] (optimized conformer: 63.862098678913 kcal/mol)

>  <smiles>  (38) 
Oc1ccc(-c2cc3c(O)cc(O)c(O)c3o2)cc1O

>  <score_type>  (38) 
oracle

>  <origin>  (38) 
adgpu

>  <m_score__min__energy>  (38) 
-11.5

>  <m_primary>  (38) 
energy

$$$$
38:0
     RDKit          3D

 27 29  0  0  0  0  0  0  0  0999 V2000
   -1.7710   25.5600  -28.9670 O   0  0  0  0  0  0  0  0  0  0  0  0
   -2.5300   24.6540  -29.4040 C   0  0  0  0  0  0  0  0  0  0  0  0
   -3.5060   24.9420  -30.4150 N   0  0  0  0  0  0  0  0  0  0  0  0
   -4.6140   24.1120  -30.7950 C   0  0  0  0  0  0  0  0  0  0  0  0
   -5.8800   24.4070  -30.2810 C   0  0  0  0  0  0  0  0  0  0  0  0
   -6.9820   23.6130  -30.6090 C   0  0  0  0  0  0  0  0  0  0  0  0
   -6.8360   22.5010  -31.4540 C   0  0  0  0  0  0  0  0  0  0  0  0
   -7.9890   21.7020  -31.7820 N   0  0  0  0  0  0  0  0  0  0  0  0
   -8.0620   20.3790  -32.0160 C   0  0  0  0  0  0  0  0  0  0  0  0
   -9.3270   20.0430  -32.3320 N   0  0  0  0  0  0  0  0  0  0  0  0
  -10.0120   21.1780  -32.2860 N   0  0  0  0  0  0  0  0  0  0  0  0
   -9.2080   22.1780  -31.9620 N   0  0  0  0  0  0  0  0  0  0  0  0
   -5.5520   22.1790  -31.9400 C   0  0  0  0  0  0  0  0  0  0  0  0
   -5.3440   21.0670  -32.6880 F   0  0  0  0  0  0  0  0  0  0  0  0
   -4.4520   22.9770  -31.6080 C   0  0  0  0  0  0  0  0  0  0  0  0
   -2.4500   23.3040  -28.8340 C   0  0  0  0  0  0  0  0  0  0  0  0
   -3.3640   22.7290  -27.9580 C   0  0  0  0  0  0  0  0  0  0  0  0
   -3.0250   21.4230  -27.5840 C   0  0  0  0  0  0  0  0  0  0  0  0
   -1.8470   20.9650  -28.1630 C   0  0  0  0  0  0  0  0  0  0  0  0
   -1.2290   22.1870  -29.1400 S   0  0  0  0  0  0  0  0  0  0  0  0
   -6.0098   25.2712  -29.6129 H   0  0  0  0  0  0  0  0  0  0  0  0
   -7.9731   23.8613  -30.2015 H   0  0  0  0  0  0  0  0  0  0  0  0
   -7.2163   19.6780  -31.9579 H   0  0  0  0  0  0  0  0  0  0  0  0
   -3.4530   22.7143  -31.9860 H   0  0  0  0  0  0  0  0  0  0  0  0
   -4.2633   23.2482  -27.5952 H   0  0  0  0  0  0  0  0  0  0  0  0
   -3.6334   20.8166  -26.8969 H   0  0  0  0  0  0  0  0  0  0  0  0
   -1.3963   19.9735  -28.0087 H   0  0  0  0  0  0  0  0  0  0  0  0
  1  2  2  0
  2  3  1  0
  3  4  1  0
  4  5  2  0
  5  6  1  0
  6  7  2  0
  7  8  1  0
  8  9  1  0
  9 10  2  0
 10 11  1  0
 11 12  2  0
  7 13  1  0
 13 14  1  0
 13 15  2  0
  2 16  1  0
 16 17  2  0
 17 18  1  0
 18 19  2  0
 19 20  1  0
 15  4  1  0
 20 16  1  0
 12  8  1  0
  5 21  1  0
  6 22  1  0
  9 23  1  0
 15 24  1  0
 17 25  1  0
 18 26  1  0
 19 27  1  0
M  CHG  1   3  -1
M  END
>  <UniqueID>  (39) 
38

>  <SMILES>  (39) 
O=C([N-]c1ccc(-n2cnnn2)c(F)c1)c1cccs1

>  <Energy>  (39) 
101.90715049257169

>  <Genealogy>  (39) 
O=C([N-]c1ccc(-n2cnnn2)c(F)c1)c1cccs1 (protonated)
O=C([N-]c1ccc(-n2cnnn2)c(F)c1)c1cccs1 (3D coordinates assigned)
O=C([N-]c1ccc(-n2cnnn2)c(F)c1)c1cccs1 (optimized conformer: 101.90715049257169 kcal/mol)

>  <smiles>  (39) 
O=C(Nc1ccc(-n2cnnn2)c(F)c1)c1cccs1

>  <score_type>  (39) 
oracle

>  <origin>  (39) 
adgpu

>  <m_score__min__energy>  (39) 
-9

>  <m_primary>  (39) 
energy

$$$$
39:0
     RDKit          3D

 40 42  0  0  0  0  0  0  0  0999 V2000
   -6.1410   16.0030  -33.8710 C   0  0  0  0  0  0  0  0  0  0  0  0
   -7.0500   17.0230  -33.4680 O   0  0  0  0  0  0  0  0  0  0  0  0
   -6.6900   18.3600  -33.2410 C   0  0  0  0  0  0  0  0  0  0  0  0
   -5.3910   18.7640  -33.5620 C   0  0  0  0  0  0  0  0  0  0  0  0
   -4.9860   20.0840  -33.3520 C   0  0  0  0  0  0  0  0  0  0  0  0
   -5.8780   21.0290  -32.8230 C   0  0  0  0  0  0  0  0  0  0  0  0
   -5.4350   22.3860  -32.6450 N   0  0  0  0  0  0  0  0  0  0  0  0
   -5.6990   23.3170  -31.2010 S   0  0  0  0  0  0  0  0  0  0  0  0
   -6.0550   24.7260  -31.5930 O   0  0  0  0  0  0  0  0  0  0  0  0
   -6.8420   22.7180  -30.4360 O   0  0  0  0  0  0  0  0  0  0  0  0
   -4.2600   23.3000  -30.1770 C   0  0  0  0  0  0  0  0  0  0  0  0
   -3.8750   22.1130  -29.5370 C   0  0  0  0  0  0  0  0  0  0  0  0
   -2.7160   22.0680  -28.7410 C   0  0  0  0  0  0  0  0  0  0  0  0
   -2.3140   20.7930  -28.0970 C   0  0  0  0  0  0  0  0  0  0  0  0
   -3.0140   20.0820  -27.1390 C   0  0  0  0  0  0  0  0  0  0  0  0
   -2.3070   19.0210  -26.8390 O   0  0  0  0  0  0  0  0  0  0  0  0
   -1.2200   19.0600  -27.5730 C   0  0  0  0  0  0  0  0  0  0  0  0
   -0.1410   18.0350  -27.5060 C   0  0  0  0  0  0  0  0  0  0  0  0
   -1.1650   20.1450  -28.3710 N   0  0  0  0  0  0  0  0  0  0  0  0
   -1.9580   23.2410  -28.5750 C   0  0  0  0  0  0  0  0  0  0  0  0
   -2.3540   24.4300  -29.1910 C   0  0  0  0  0  0  0  0  0  0  0  0
   -3.4990   24.4670  -29.9880 C   0  0  0  0  0  0  0  0  0  0  0  0
   -3.8780   25.6660  -30.5810 O   0  0  0  0  0  0  0  0  0  0  0  0
   -7.1850   20.6230  -32.4960 C   0  0  0  0  0  0  0  0  0  0  0  0
   -7.5900   19.3020  -32.7080 C   0  0  0  0  0  0  0  0  0  0  0  0
   -5.7118   15.5214  -32.9800 H   0  0  0  0  0  0  0  0  0  0  0  0
   -6.6751   15.2524  -34.4721 H   0  0  0  0  0  0  0  0  0  0  0  0
   -5.3341   16.4475  -34.4721 H   0  0  0  0  0  0  0  0  0  0  0  0
   -4.6819   18.0363  -33.9835 H   0  0  0  0  0  0  0  0  0  0  0  0
   -3.9585   20.3855  -33.6036 H   0  0  0  0  0  0  0  0  0  0  0  0
   -4.9790   22.8800  -33.4450 H   0  0  0  0  0  0  0  0  0  0  0  0
   -4.4864   21.2067  -29.6589 H   0  0  0  0  0  0  0  0  0  0  0  0
   -3.9876   20.3576  -26.7075 H   0  0  0  0  0  0  0  0  0  0  0  0
    0.0908   17.8148  -26.4535 H   0  0  0  0  0  0  0  0  0  0  0  0
   -0.4771   17.1155  -28.0075 H   0  0  0  0  0  0  0  0  0  0  0  0
    0.7601   18.4178  -28.0075 H   0  0  0  0  0  0  0  0  0  0  0  0
   -1.0484   23.2217  -27.9567 H   0  0  0  0  0  0  0  0  0  0  0  0
   -1.7592   25.3440  -29.0470 H   0  0  0  0  0  0  0  0  0  0  0  0
   -7.8927   21.3499  -32.0708 H   0  0  0  0  0  0  0  0  0  0  0  0
   -8.6167   18.9972  -32.4572 H   0  0  0  0  0  0  0  0  0  0  0  0
  1  2  1  0
  2  3  1  0
  3  4  2  0
  4  5  1  0
  5  6  2  0
  6  7  1  0
  7  8  1  0
  8  9  2  0
  8 10  2  0
  8 11  1  0
 11 12  2  0
 12 13  1  0
 13 14  1  0
 14 15  2  0
 15 16  1  0
 16 17  1  0
 17 18  1  0
 17 19  2  0
 13 20  2  0
 20 21  1  0
 21 22  2  0
 22 23  1  0
  6 24  1  0
 24 25  2  0
 25  3  1  0
 22 11  1  0
 19 14  1  0
  1 26  1  0
  1 27  1  0
  1 28  1  0
  4 29  1  0
  5 30  1  0
  7 31  1  0
 12 32  1  0
 15 33  1  0
 18 34  1  0
 18 35  1  0
 18 36  1  0
 20 37  1  0
 21 38  1  0
 24 39  1  0
 25 40  1  0
M  CHG  1  23  -1
M  END
>  <UniqueID>  (40) 
39

>  <SMILES>  (40) 
COc1ccc(NS(=O)(=O)c2cc(-c3coc(C)n3)ccc2[O-])cc1

>  <Energy>  (40) 
74.40288891648896

>  <Genealogy>  (40) 
COc1ccc(NS(=O)(=O)c2cc(-c3coc(C)n3)ccc2[O-])cc1 (protonated)
COc1ccc(NS(=O)(=O)c2cc(-c3coc(C)n3)ccc2[O-])cc1 (3D coordinates assigned)
COc1ccc(NS(=O)(=O)c2cc(-c3coc(C)n3)ccc2[O-])cc1 (optimized conformer: 74.40288891648896 kcal/mol)

>  <smiles>  (40) 
COc1ccc(NS(=O)(=O)c2cc(-c3coc(C)n3)ccc2O)cc1

>  <score_type>  (40) 
oracle

>  <origin>  (40) 
adgpu

>  <m_score__min__energy>  (40) 
-11.43

>  <m_primary>  (40) 
energy

$$$$
40:0
     RDKit          3D

 25 26  0  0  0  0  0  0  0  0999 V2000
   -4.3160   26.8770  -29.9850 H   0  0  0  0  0  0  0  0  0  0  0  0
   -4.5850   26.0170  -30.5130 N   0  0  0  0  0  0  0  0  0  0  0  0
   -3.8730   24.9380  -30.4580 C   0  0  0  0  0  0  0  0  0  0  0  0
   -4.2570   23.8400  -31.1600 N   0  0  0  0  0  0  0  0  0  0  0  0
   -3.5330   22.6870  -31.1320 C   0  0  0  0  0  0  0  0  0  0  0  0
   -4.0020   21.5150  -31.9150 C   0  0  0  0  0  0  0  0  0  0  0  0
   -3.1060   20.8360  -32.7590 C   0  0  0  0  0  0  0  0  0  0  0  0
   -2.0649   21.1816  -32.8407 H   0  0  0  0  0  0  0  0  0  0  0  0
   -3.5270   19.7270  -33.4940 C   0  0  0  0  0  0  0  0  0  0  0  0
   -2.8167   19.2042  -34.1514 H   0  0  0  0  0  0  0  0  0  0  0  0
   -4.8450   19.2780  -33.3990 C   0  0  0  0  0  0  0  0  0  0  0  0
   -5.1677   18.4034  -33.9829 H   0  0  0  0  0  0  0  0  0  0  0  0
   -5.7630   19.9360  -32.5620 C   0  0  0  0  0  0  0  0  0  0  0  0
   -7.1630   19.4600  -32.4350 C   0  0  0  0  0  0  0  0  0  0  0  0
   -7.5190   18.8400  -31.3970 O   0  0  0  0  0  0  0  0  0  0  0  0
   -8.1290   19.7000  -33.4620 N   0  0  0  0  0  0  0  0  0  0  0  0
   -7.9330   20.3390  -34.2630 H   0  0  0  0  0  0  0  0  0  0  0  0
   -9.0910   19.3030  -33.3730 H   0  0  0  0  0  0  0  0  0  0  0  0
   -5.3280   21.0470  -31.8140 C   0  0  0  0  0  0  0  0  0  0  0  0
   -6.0331   21.5571  -31.1411 H   0  0  0  0  0  0  0  0  0  0  0  0
   -2.3710   22.6340  -30.3440 C   0  0  0  0  0  0  0  0  0  0  0  0
   -1.7710   21.7136  -30.2906 H   0  0  0  0  0  0  0  0  0  0  0  0
   -1.9930   23.7730  -29.6300 C   0  0  0  0  0  0  0  0  0  0  0  0
   -0.9550   23.7560  -28.9160 O   0  0  0  0  0  0  0  0  0  0  0  0
   -2.7460   24.9000  -29.7010 N   0  0  0  0  0  0  0  0  0  0  0  0
  1  2  1  0
  2  3  2  0
  3  4  1  0
  4  5  1  0
  5  6  1  0
  6  7  2  0
  7  8  1  0
  7  9  1  0
  9 10  1  0
  9 11  2  0
 11 12  1  0
 11 13  1  0
 13 14  1  0
 14 15  2  0
 14 16  1  0
 16 17  1  0
 16 18  1  0
 13 19  2  0
 19 20  1  0
  5 21  2  0
 21 22  1  0
 21 23  1  0
 23 24  2  0
 23 25  1  0
 25  3  1  0
 19  6  1  0
M  CHG  2   4  -1  25  -1
M  END
>  <UniqueID>  (41) 
40

>  <SMILES>  (41) 
[H]/N=c1/[n-]c(-c2cccc(C(N)=O)c2)cc(=O)[n-]1

>  <Energy>  (41) 
31.94131003099877

>  <Genealogy>  (41) 
N=c1[n-]c(-c2cccc(C(N)=O)c2)cc(=O)[n-]1 (protonated)
[H]/N=c1/[n-]c(-c2cccc(C(N)=O)c2)cc(=O)[n-]1 (cis-trans isomerization)
[H]/N=c1/[n-]c(-c2cccc(C(N)=O)c2)cc(=O)[n-]1 (3D coordinates assigned)
[H]/N=c1/[n-]c(-c2cccc(C(N)=O)c2)cc(=O)[n-]1 (optimized conformer: 31.94131003099877 kcal/mol)

>  <smiles>  (41) 
N=c1[nH]c(-c2cccc(C(N)=O)c2)cc(=O)[nH]1

>  <score_type>  (41) 
oracle

>  <origin>  (41) 
adgpu

>  <m_score__min__energy>  (41) 
-9.4600000000000009

>  <m_primary>  (41) 
energy

$$$$
41:0
     RDKit          3D

 42 45  0  0  1  0  0  0  0  0999 V2000
   -2.3120   24.5390  -28.2650 C   0  0  0  0  0  0  0  0  0  0  0  0
   -2.9930   25.1160  -29.3700 O   0  0  0  0  0  0  0  0  0  0  0  0
   -4.1980   24.6530  -29.8390 C   0  0  0  0  0  0  0  0  0  0  0  0
   -4.9130   25.2970  -30.8290 C   0  0  0  0  0  0  0  0  0  0  0  0
   -6.1350   24.7790  -31.2660 C   0  0  0  0  0  0  0  0  0  0  0  0
   -6.6430   23.6220  -30.7160 C   0  0  0  0  0  0  0  0  0  0  0  0
   -7.9440   23.0820  -31.1900 C   0  0  0  0  0  0  0  0  0  0  0  0
   -7.9100   21.6660  -31.4480 N   0  0  0  0  0  0  0  0  0  0  0  0
   -8.8560   20.7220  -31.2810 C   0  0  0  0  0  0  0  0  0  0  0  0
   -8.3740   19.5200  -31.6600 N   0  0  0  0  0  0  0  0  0  0  0  0
   -7.1090   19.6820  -32.0740 C   0  0  0  0  0  0  0  0  0  0  0  0
   -6.1570   18.8060  -32.5600 C   0  0  0  0  0  0  0  0  0  0  0  0
   -6.3990   17.5340  -32.6970 N   0  0  0  0  0  0  0  0  0  0  0  0
   -5.3970   16.6420  -33.2030 C   0  0  0  0  0  0  0  0  0  0  0  0
   -4.9480   16.7450  -34.5130 C   0  0  0  0  0  0  0  0  0  0  0  0
   -3.9790   15.8460  -34.9210 C   0  0  0  0  0  0  0  0  0  0  0  0
   -3.4610   14.8770  -34.0880 C   0  0  0  0  0  0  0  0  0  0  0  0
   -3.9370   14.8160  -32.7990 C   0  0  0  0  0  0  0  0  0  0  0  0
   -3.4660   13.8800  -31.9210 F   0  0  0  0  0  0  0  0  0  0  0  0
   -4.8940   15.6760  -32.3370 C   0  0  0  0  0  0  0  0  0  0  0  0
   -4.9450   19.3060  -32.8970 N   0  0  0  0  0  0  0  0  0  0  0  0
   -4.6860   20.6200  -32.7590 C   0  0  0  0  0  0  0  0  0  0  0  0
   -3.0930   21.1780  -33.2200 Cl  0  0  0  0  0  0  0  0  0  0  0  0
   -5.5890   21.4990  -32.2900 N   0  0  0  0  0  0  0  0  0  0  0  0
   -6.8070   21.0340  -31.9440 C   0  0  0  0  0  0  0  0  0  0  0  0
   -5.9200   22.9830  -29.7250 C   0  0  0  0  0  0  0  0  0  0  0  0
   -4.6950   23.4890  -29.2770 C   0  0  0  0  0  0  0  0  0  0  0  0
   -2.7517   24.9116  -27.3281 H   0  0  0  0  0  0  0  0  0  0  0  0
   -2.4090   23.4440  -28.3056 H   0  0  0  0  0  0  0  0  0  0  0  0
   -1.2478   24.8145  -28.3056 H   0  0  0  0  0  0  0  0  0  0  0  0
   -4.5190   26.2218  -31.2757 H   0  0  0  0  0  0  0  0  0  0  0  0
   -6.6964   25.2993  -32.0560 H   0  0  0  0  0  0  0  0  0  0  0  0
   -8.7054   23.2791  -30.4210 H   0  0  0  0  0  0  0  0  0  0  0  0
   -8.1785   23.5821  -32.1413 H   0  0  0  0  0  0  0  0  0  0  0  0
   -9.8694   20.9036  -30.8938 H   0  0  0  0  0  0  0  0  0  0  0  0
   -5.3459   17.5089  -35.1972 H   0  0  0  0  0  0  0  0  0  0  0  0
   -3.6058   15.9068  -35.9540 H   0  0  0  0  0  0  0  0  0  0  0  0
   -2.6918   14.1753  -34.4429 H   0  0  0  0  0  0  0  0  0  0  0  0
   -5.2590   15.6057  -31.3017 H   0  0  0  0  0  0  0  0  0  0  0  0
   -4.2410   18.6310  -33.2620 H   0  0  0  0  0  0  0  0  0  0  0  0
   -6.3162   22.0583  -29.2801 H   0  0  0  0  0  0  0  0  0  0  0  0
   -4.1332   22.9683  -28.4875 H   0  0  0  0  0  0  0  0  0  0  0  0
  1  2  1  0
  2  3  1  0
  3  4  2  0
  4  5  1  0
  5  6  2  0
  6  7  1  0
  7  8  1  0
  8  9  1  0
  9 10  2  0
 10 11  1  0
 11 12  1  0
 12 13  2  0
 13 14  1  0
 14 15  2  0
 15 16  1  0
 16 17  2  0
 17 18  1  0
 18 19  1  0
 18 20  2  0
 12 21  1  0
 21 22  1  0
 22 23  1  0
 22 24  2  0
 24 25  1  0
  6 26  1  0
 26 27  2  0
 27  3  1  0
 25  8  1  0
 25 11  2  0
 20 14  1  0
  1 28  1  0
  1 29  1  0
  1 30  1  0
  4 31  1  0
  5 32  1  0
  7 33  1  0
  7 34  1  0
  9 35  1  0
 15 36  1  0
 16 37  1  0
 17 38  1  0
 20 39  1  0
 21 40  1  0
 26 41  1  0
 27 42  1  0
M  END
>  <smiles>  (42) 
COc1ccc(Cn2cnc3c(=Nc4cccc(F)c4)[nH]c(Cl)nc32)cc1

>  <score_type>  (42) 
oracle

>  <origin>  (42) 
adgpu

>  <m_score__min__energy>  (42) 
-8.4600000000000009

>  <m_primary>  (42) 
energy

$$$$
42:0
     RDKit          3D

 54 56  0  0  0  0  0  0  0  0999 V2000
   -1.1390   13.9660  -35.3010 C   0  0  0  0  0  0  0  0  0  0  0  0
   -2.3690   14.5450  -35.7230 O   0  0  0  0  0  0  0  0  0  0  0  0
   -3.0370   15.5720  -35.0380 C   0  0  0  0  0  0  0  0  0  0  0  0
   -3.1990   15.4510  -33.6530 C   0  0  0  0  0  0  0  0  0  0  0  0
   -3.8590   16.4470  -32.9260 C   0  0  0  0  0  0  0  0  0  0  0  0
   -4.3660   17.5780  -33.5800 C   0  0  0  0  0  0  0  0  0  0  0  0
   -5.0430   18.6060  -32.8320 N   0  0  0  0  0  0  0  0  0  0  0  0
   -6.4170   18.5810  -32.7520 C   0  0  0  0  0  0  0  0  0  0  0  0
   -7.2260   17.4870  -33.4080 C   0  0  0  0  0  0  0  0  0  0  0  0
   -7.0940   19.5780  -32.0420 C   0  0  0  0  0  0  0  0  0  0  0  0
   -6.3870   20.6180  -31.4540 C   0  0  0  0  0  0  0  0  0  0  0  0
   -7.0180   21.5280  -30.8500 O   0  0  0  0  0  0  0  0  0  0  0  0
   -4.9880   20.6580  -31.5480 C   0  0  0  0  0  0  0  0  0  0  0  0
   -4.2530   21.8040  -30.9580 C   0  0  0  0  0  0  0  0  0  0  0  0
   -3.1190   21.5820  -30.1700 C   0  0  0  0  0  0  0  0  0  0  0  0
   -2.4110   22.6590  -29.6030 C   0  0  0  0  0  0  0  0  0  0  0  0
   -1.2770   22.4340  -28.8070 O   0  0  0  0  0  0  0  0  0  0  0  0
   -1.0600   21.2810  -28.0000 C   0  0  0  0  0  0  0  0  0  0  0  0
   -2.8600   23.9850  -29.8410 C   0  0  0  0  0  0  0  0  0  0  0  0
   -2.2200   25.1300  -29.3290 O   0  0  0  0  0  0  0  0  0  0  0  0
   -1.6170   25.2640  -28.0460 C   0  0  0  0  0  0  0  0  0  0  0  0
   -4.0060   24.2020  -30.6250 C   0  0  0  0  0  0  0  0  0  0  0  0
   -4.4250   25.5260  -30.8350 O   0  0  0  0  0  0  0  0  0  0  0  0
   -5.6890   26.0470  -30.4370 C   0  0  0  0  0  0  0  0  0  0  0  0
   -4.6980   23.1110  -31.1760 C   0  0  0  0  0  0  0  0  0  0  0  0
   -4.3130   19.6070  -32.2210 C   0  0  0  0  0  0  0  0  0  0  0  0
   -2.7950   19.6130  -32.2920 C   0  0  0  0  0  0  0  0  0  0  0  0
   -4.2050   17.7060  -34.9670 C   0  0  0  0  0  0  0  0  0  0  0  0
   -3.5450   16.7110  -35.6940 C   0  0  0  0  0  0  0  0  0  0  0  0
   -1.1003   13.9478  -34.2018 H   0  0  0  0  0  0  0  0  0  0  0  0
   -1.0656   12.9388  -35.6875 H   0  0  0  0  0  0  0  0  0  0  0  0
   -0.3006   14.5640  -35.6875 H   0  0  0  0  0  0  0  0  0  0  0  0
   -2.8043   14.5660  -33.1324 H   0  0  0  0  0  0  0  0  0  0  0  0
   -3.9805   16.3423  -31.8378 H   0  0  0  0  0  0  0  0  0  0  0  0
   -7.6902   16.8593  -32.6331 H   0  0  0  0  0  0  0  0  0  0  0  0
   -8.0106   17.9365  -34.0343 H   0  0  0  0  0  0  0  0  0  0  0  0
   -6.5663   16.8685  -34.0343 H   0  0  0  0  0  0  0  0  0  0  0  0
   -8.1894   19.5379  -31.9493 H   0  0  0  0  0  0  0  0  0  0  0  0
   -2.7757   20.5524  -29.9908 H   0  0  0  0  0  0  0  0  0  0  0  0
   -1.1128   21.5617  -26.9377 H   0  0  0  0  0  0  0  0  0  0  0  0
   -1.8324   20.5292  -28.2194 H   0  0  0  0  0  0  0  0  0  0  0  0
   -0.0671   20.8614  -28.2194 H   0  0  0  0  0  0  0  0  0  0  0  0
   -2.3739   25.0958  -27.2657 H   0  0  0  0  0  0  0  0  0  0  0  0
   -0.8108   24.5231  -27.9406 H   0  0  0  0  0  0  0  0  0  0  0  0
   -1.2005   26.2766  -27.9406 H   0  0  0  0  0  0  0  0  0  0  0  0
   -5.7465   26.0707  -29.3388 H   0  0  0  0  0  0  0  0  0  0  0  0
   -5.8062   27.0668  -30.8324 H   0  0  0  0  0  0  0  0  0  0  0  0
   -6.4908   25.4060  -30.8324 H   0  0  0  0  0  0  0  0  0  0  0  0
   -5.5976   23.2866  -31.7841 H   0  0  0  0  0  0  0  0  0  0  0  0
   -2.3803   19.6146  -31.2732 H   0  0  0  0  0  0  0  0  0  0  0  0
   -2.4494   18.7162  -32.8271 H   0  0  0  0  0  0  0  0  0  0  0  0
   -2.4565   20.5125  -32.8271 H   0  0  0  0  0  0  0  0  0  0  0  0
   -4.5995   18.5926  -35.4849 H   0  0  0  0  0  0  0  0  0  0  0  0
   -3.4218   16.8175  -36.7819 H   0  0  0  0  0  0  0  0  0  0  0  0
  1  2  1  0
  2  3  1  0
  3  4  2  0
  4  5  1  0
  5  6  2  0
  6  7  1  0
  7  8  1  0
  8  9  1  0
  8 10  2  0
 10 11  1  0
 11 12  2  0
 11 13  1  0
 13 14  1  0
 14 15  2  0
 15 16  1  0
 16 17  1  0
 17 18  1  0
 16 19  2  0
 19 20  1  0
 20 21  1  0
 19 22  1  0
 22 23  1  0
 23 24  1  0
 22 25  2  0
 13 26  2  0
 26 27  1  0
  6 28  1  0
 28 29  2  0
 29  3  1  0
 26  7  1  0
 25 14  1  0
  1 30  1  0
  1 31  1  0
  1 32  1  0
  4 33  1  0
  5 34  1  0
  9 35  1  0
  9 36  1  0
  9 37  1  0
 10 38  1  0
 15 39  1  0
 18 40  1  0
 18 41  1  0
 18 42  1  0
 21 43  1  0
 21 44  1  0
 21 45  1  0
 24 46  1  0
 24 47  1  0
 24 48  1  0
 25 49  1  0
 27 50  1  0
 27 51  1  0
 27 52  1  0
 28 53  1  0
 29 54  1  0
M  END
>  <UniqueID>  (43) 
41

>  <SMILES>  (43) 
COc1ccc(-n2c(C)cc(=O)c(-c3cc(OC)c(OC)c(OC)c3)c2C)cc1

>  <Energy>  (43) 
77.17558333035164

>  <Genealogy>  (43) 
COc1ccc(-n2c(C)cc(=O)c(-c3cc(OC)c(OC)c(OC)c3)c2C)cc1 (3D coordinates assigned)
COc1ccc(-n2c(C)cc(=O)c(-c3cc(OC)c(OC)c(OC)c3)c2C)cc1 (optimized conformer: 77.17558333035164 kcal/mol)

>  <smiles>  (43) 
COc1ccc(-n2c(C)cc(=O)c(-c3cc(OC)c(OC)c(OC)c3)c2C)cc1

>  <score_type>  (43) 
oracle

>  <origin>  (43) 
adgpu

>  <m_score__min__energy>  (43) 
-8.25

>  <m_primary>  (43) 
energy

$$$$
43:0
     RDKit          3D

 56 59  0  0  0  0  0  0  0  0999 V2000
   -3.4030   25.4820  -28.8630 H   0  0  0  0  0  0  0  0  0  0  0  0
   -3.1210   24.9420  -29.7120 N   0  0  0  0  0  0  0  0  0  0  0  0
   -3.9410   24.1370  -30.3070 C   0  0  0  0  0  0  0  0  0  0  0  0
   -3.5340   23.4530  -31.4090 N   0  0  0  0  0  0  0  0  0  0  0  0
   -4.3690   22.6000  -32.0620 C   0  0  0  0  0  0  0  0  0  0  0  0
   -3.9510   21.9900  -33.0830 O   0  0  0  0  0  0  0  0  0  0  0  0
   -5.6800   22.4140  -31.5940 C   0  0  0  0  0  0  0  0  0  0  0  0
   -6.5930   21.5490  -32.2250 C   0  0  0  0  0  0  0  0  0  0  0  0
   -6.2874   20.9906  -33.1221 H   0  0  0  0  0  0  0  0  0  0  0  0
   -7.8930   21.3950  -31.7150 C   0  0  0  0  0  0  0  0  0  0  0  0
   -8.8760   20.4870  -32.4080 C   0  0  0  0  0  0  0  0  0  0  0  0
   -9.8872   20.6927  -32.0269 H   0  0  0  0  0  0  0  0  0  0  0  0
   -8.8281   20.6770  -33.4904 H   0  0  0  0  0  0  0  0  0  0  0  0
   -8.5480   19.0800  -32.1640 N   0  0  0  0  0  0  0  0  0  0  0  0
   -9.2780   18.4980  -31.6940 H   0  0  0  0  0  0  0  0  0  0  0  0
   -7.2920   18.4630  -32.5060 C   0  0  0  0  0  0  0  0  0  0  0  0
   -6.7430   18.6910  -33.7770 C   0  0  0  0  0  0  0  0  0  0  0  0
   -7.2717   19.3403  -34.4904 H   0  0  0  0  0  0  0  0  0  0  0  0
   -5.5310   18.1010  -34.1450 C   0  0  0  0  0  0  0  0  0  0  0  0
   -5.1168   18.2860  -35.1471 H   0  0  0  0  0  0  0  0  0  0  0  0
   -4.8370   17.2740  -33.2470 C   0  0  0  0  0  0  0  0  0  0  0  0
   -3.5570   16.6390  -33.6400 C   0  0  0  0  0  0  0  0  0  0  0  0
   -3.5440   15.4560  -34.0800 O   0  0  0  0  0  0  0  0  0  0  0  0
   -2.3290   17.3630  -33.5190 N   0  0  0  0  0  0  0  0  0  0  0  0
   -1.3140   17.3920  -34.5640 C   0  0  0  0  0  0  0  0  0  0  0  0
   -1.0503   16.3624  -34.8477 H   0  0  0  0  0  0  0  0  0  0  0  0
   -1.7071   17.9251  -35.4422 H   0  0  0  0  0  0  0  0  0  0  0  0
   -0.0700   18.1120  -34.0460 C   0  0  0  0  0  0  0  0  0  0  0  0
    0.6785   17.3654  -33.7423 H   0  0  0  0  0  0  0  0  0  0  0  0
    0.3286   18.7492  -34.8492 H   0  0  0  0  0  0  0  0  0  0  0  0
   -0.4080   18.9800  -32.8650 C   0  0  0  0  0  0  0  0  0  0  0  0
   -0.9750   20.2510  -33.0560 C   0  0  0  0  0  0  0  0  0  0  0  0
   -1.1758   20.6141  -34.0748 H   0  0  0  0  0  0  0  0  0  0  0  0
   -1.2850   21.0560  -31.9560 C   0  0  0  0  0  0  0  0  0  0  0  0
   -1.7238   22.0523  -32.1137 H   0  0  0  0  0  0  0  0  0  0  0  0
   -1.0400   20.6010  -30.6540 C   0  0  0  0  0  0  0  0  0  0  0  0
   -1.4410   21.6310  -29.2810 S   0  0  0  0  0  0  0  0  0  0  0  0
   -0.6550   21.1870  -28.0800 O   0  0  0  0  0  0  0  0  0  0  0  0
   -2.9090   21.5350  -28.9640 O   0  0  0  0  0  0  0  0  0  0  0  0
   -1.0590   23.2740  -29.6550 N   0  0  0  0  0  0  0  0  0  0  0  0
   -1.6260   23.5410  -30.4930 H   0  0  0  0  0  0  0  0  0  0  0  0
   -1.4070   23.8570  -28.8590 H   0  0  0  0  0  0  0  0  0  0  0  0
   -0.4910   19.3240  -30.4580 C   0  0  0  0  0  0  0  0  0  0  0  0
   -0.3042   18.9572  -29.4379 H   0  0  0  0  0  0  0  0  0  0  0  0
   -0.1810   18.5170  -31.5580 C   0  0  0  0  0  0  0  0  0  0  0  0
    0.2428   17.5145  -31.3987 H   0  0  0  0  0  0  0  0  0  0  0  0
   -5.3850   17.0470  -31.9720 C   0  0  0  0  0  0  0  0  0  0  0  0
   -4.8517   16.4051  -31.2554 H   0  0  0  0  0  0  0  0  0  0  0  0
   -6.6010   17.6300  -31.6080 C   0  0  0  0  0  0  0  0  0  0  0  0
   -7.0218   17.4359  -30.6104 H   0  0  0  0  0  0  0  0  0  0  0  0
   -8.2800   22.1230  -30.5760 C   0  0  0  0  0  0  0  0  0  0  0  0
   -9.3014   22.0182  -30.1814 H   0  0  0  0  0  0  0  0  0  0  0  0
   -7.3750   22.9790  -29.9420 C   0  0  0  0  0  0  0  0  0  0  0  0
   -7.6827   23.5341  -29.0436 H   0  0  0  0  0  0  0  0  0  0  0  0
   -6.0800   23.1320  -30.4460 C   0  0  0  0  0  0  0  0  0  0  0  0
   -5.2050   23.9730  -29.8330 N   0  0  0  0  0  0  0  0  0  0  0  0
  1  2  1  0
  2  3  2  0
  3  4  1  0
  4  5  1  0
  5  6  2  0
  5  7  1  0
  7  8  2  0
  8  9  1  0
  8 10  1  0
 10 11  1  0
 11 12  1  0
 11 13  1  0
 11 14  1  0
 14 15  1  0
 14 16  1  0
 16 17  2  0
 17 18  1  0
 17 19  1  0
 19 20  1  0
 19 21  2  0
 21 22  1  0
 22 23  2  0
 22 24  1  0
 24 25  1  0
 25 26  1  0
 25 27  1  0
 25 28  1  0
 28 29  1  0
 28 30  1  0
 28 31  1  0
 31 32  2  0
 32 33  1  0
 32 34  1  0
 34 35  1  0
 34 36  2  0
 36 37  1  0
 37 38  2  0
 37 39  2  0
 37 40  1  0
 40 41  1  0
 40 42  1  0
 36 43  1  0
 43 44  1  0
 43 45  2  0
 45 46  1  0
 21 47  1  0
 47 48  1  0
 47 49  2  0
 49 50  1  0
 10 51  2  0
 51 52  1  0
 51 53  1  0
 53 54  1  0
 53 55  2  0
 55 56  1  0
 56  3  1  0
 55  7  1  0
 49 16  1  0
 45 31  1  0
M  CHG  3   4  -1  24  -1  56  -1
M  END
>  <UniqueID>  (44) 
42

>  <SMILES>  (44) 
[H]/N=c1/[n-]c(=O)c2cc(CNc3ccc(C(=O)[N-]CCc4ccc(S(N)(=O)=O)cc4)cc3)ccc2[n-]1

>  <Energy>  (44) 
58.77672825941581

>  <Genealogy>  (44) 
N=c1[n-]c(=O)c2cc(CNc3ccc(C(=O)[N-]CCc4ccc(S(N)(=O)=O)cc4)cc3)ccc2[n-]1 (protonated)
[H]/N=c1/[n-]c(=O)c2cc(CNc3ccc(C(=O)[N-]CCc4ccc(S(N)(=O)=O)cc4)cc3)ccc2[n-]1 (cis-trans isomerization)
[H]/N=c1/[n-]c(=O)c2cc(CNc3ccc(C(=O)[N-]CCc4ccc(S(N)(=O)=O)cc4)cc3)ccc2[n-]1 (3D coordinates assigned)
[H]/N=c1/[n-]c(=O)c2cc(CNc3ccc(C(=O)[N-]CCc4ccc(S(N)(=O)=O)cc4)cc3)ccc2[n-]1 (optimized conformer: 58.77672825941581 kcal/mol)

>  <smiles>  (44) 
N=c1[nH]c(=O)c2cc(CNc3ccc(C(=O)NCCc4ccc(S(N)(=O)=O)cc4)cc3)ccc2[nH]1

>  <score_type>  (44) 
oracle

>  <origin>  (44) 
adgpu

>  <m_score__min__energy>  (44) 
-11.93

>  <m_primary>  (44) 
energy

$$$$
44:0
     RDKit          3D

 63 67  0  0  0  0  0  0  0  0999 V2000
   -9.0990   20.7070  -30.8970 H   0  0  0  0  0  0  0  0  0  0  0  0
   -9.1070   19.7460  -31.3000 N   0  0  0  0  0  0  0  0  0  0  0  0
   -8.0790   19.1480  -31.8200 C   0  0  0  0  0  0  0  0  0  0  0  0
   -8.1890   17.9020  -32.3450 N   0  0  0  0  0  0  0  0  0  0  0  0
   -6.9450   17.6490  -32.7760 C   0  0  0  0  0  0  0  0  0  0  0  0
   -6.5070   16.5020  -33.4260 C   0  0  0  0  0  0  0  0  0  0  0  0
   -7.1946   15.6643  -33.6145 H   0  0  0  0  0  0  0  0  0  0  0  0
   -5.1580   16.4370  -33.8390 C   0  0  0  0  0  0  0  0  0  0  0  0
   -4.6740   15.2130  -34.5730 C   0  0  0  0  0  0  0  0  0  0  0  0
   -4.3705   14.4455  -33.8458 H   0  0  0  0  0  0  0  0  0  0  0  0
   -5.4843   14.8198  -35.2045 H   0  0  0  0  0  0  0  0  0  0  0  0
   -3.8139   15.4803  -35.2045 H   0  0  0  0  0  0  0  0  0  0  0  0
   -4.2890   17.5490  -33.5990 C   0  0  0  0  0  0  0  0  0  0  0  0
   -2.8500   17.5230  -34.0500 C   0  0  0  0  0  0  0  0  0  0  0  0
   -2.1901   17.5111  -33.1700 H   0  0  0  0  0  0  0  0  0  0  0  0
   -2.6714   16.6215  -34.6545 H   0  0  0  0  0  0  0  0  0  0  0  0
   -2.6390   18.4175  -34.6545 H   0  0  0  0  0  0  0  0  0  0  0  0
   -4.7760   18.6890  -32.9170 C   0  0  0  0  0  0  0  0  0  0  0  0
   -4.1134   19.5394  -32.6985 H   0  0  0  0  0  0  0  0  0  0  0  0
   -6.1190   18.7100  -32.5270 C   0  0  0  0  0  0  0  0  0  0  0  0
   -6.8230   19.6850  -31.9050 N   0  0  0  0  0  0  0  0  0  0  0  0
   -6.3510   21.0030  -31.4350 C   0  0  0  0  0  0  0  0  0  0  0  0
   -6.8084   21.1894  -30.4521 H   0  0  0  0  0  0  0  0  0  0  0  0
   -6.8250   22.1340  -32.3630 C   0  0  0  0  0  0  0  0  0  0  0  0
   -6.3468   22.0236  -33.3474 H   0  0  0  0  0  0  0  0  0  0  0  0
   -7.9180   22.0792  -32.4744 H   0  0  0  0  0  0  0  0  0  0  0  0
   -6.4440   23.4920  -31.7610 C   0  0  0  0  0  0  0  0  0  0  0  0
   -6.5261   24.2631  -32.5412 H   0  0  0  0  0  0  0  0  0  0  0  0
   -7.1290   23.7004  -30.9259 H   0  0  0  0  0  0  0  0  0  0  0  0
   -5.0670   23.4900  -31.2350 N   0  0  0  0  0  0  0  0  0  0  0  0
   -4.6520   24.5680  -30.3700 C   0  0  0  0  0  0  0  0  0  0  0  0
   -5.5150   25.1980  -29.7010 O   0  0  0  0  0  0  0  0  0  0  0  0
   -3.2710   24.9170  -30.2010 N   0  0  0  0  0  0  0  0  0  0  0  0
   -2.3420   24.3700  -29.2510 C   0  0  0  0  0  0  0  0  0  0  0  0
   -2.4950   23.0360  -28.8750 C   0  0  0  0  0  0  0  0  0  0  0  0
   -3.2950   22.4318  -29.3276 H   0  0  0  0  0  0  0  0  0  0  0  0
   -1.6420   22.4570  -27.9280 C   0  0  0  0  0  0  0  0  0  0  0  0
   -1.8060   21.0330  -27.5280 C   0  0  0  0  0  0  0  0  0  0  0  0
   -3.0690   20.5380  -27.1450 C   0  0  0  0  0  0  0  0  0  0  0  0
   -3.9437   21.2049  -27.1546 H   0  0  0  0  0  0  0  0  0  0  0  0
   -3.2160   19.2040  -26.7530 C   0  0  0  0  0  0  0  0  0  0  0  0
   -4.2055   18.8270  -26.4549 H   0  0  0  0  0  0  0  0  0  0  0  0
   -2.1130   18.3480  -26.7380 C   0  0  0  0  0  0  0  0  0  0  0  0
   -2.2325   17.3004  -26.4246 H   0  0  0  0  0  0  0  0  0  0  0  0
   -0.8570   18.8250  -27.1220 C   0  0  0  0  0  0  0  0  0  0  0  0
    0.0114   18.1499  -27.1161 H   0  0  0  0  0  0  0  0  0  0  0  0
   -0.7010   20.1590  -27.5140 C   0  0  0  0  0  0  0  0  0  0  0  0
    0.2911   20.5280  -27.8133 H   0  0  0  0  0  0  0  0  0  0  0  0
   -0.6330   23.2550  -27.3670 C   0  0  0  0  0  0  0  0  0  0  0  0
    0.0532   22.8182  -26.6265 H   0  0  0  0  0  0  0  0  0  0  0  0
   -0.4890   24.5670  -27.7260 N   0  0  0  0  0  0  0  0  0  0  0  0
    0.5550   25.3720  -27.0740 C   0  0  0  0  0  0  0  0  0  0  0  0
    0.4512   25.2919  -25.9818 H   0  0  0  0  0  0  0  0  0  0  0  0
    1.5458   25.0018  -27.3763 H   0  0  0  0  0  0  0  0  0  0  0  0
    0.4489   26.4243  -27.3763 H   0  0  0  0  0  0  0  0  0  0  0  0
   -1.3430   25.1430  -28.6310 C   0  0  0  0  0  0  0  0  0  0  0  0
   -1.2490   26.3750  -28.8890 O   0  0  0  0  0  0  0  0  0  0  0  0
   -4.1670   22.3710  -31.5530 C   0  0  0  0  0  0  0  0  0  0  0  0
   -3.9312   22.3944  -32.6272 H   0  0  0  0  0  0  0  0  0  0  0  0
   -3.2517   22.4788  -30.9524 H   0  0  0  0  0  0  0  0  0  0  0  0
   -4.8180   21.0180  -31.2110 C   0  0  0  0  0  0  0  0  0  0  0  0
   -4.3646   20.2419  -31.8451 H   0  0  0  0  0  0  0  0  0  0  0  0
   -4.6427   20.8326  -30.1410 H   0  0  0  0  0  0  0  0  0  0  0  0
  1  2  1  0
  2  3  2  0
  3  4  1  0
  4  5  1  0
  5  6  2  0
  6  7  1  0
  6  8  1  0
  8  9  1  0
  9 10  1  0
  9 11  1  0
  9 12  1  0
  8 13  2  0
 13 14  1  0
 14 15  1  0
 14 16  1  0
 14 17  1  0
 13 18  1  0
 18 19  1  0
 18 20  2  0
 20 21  1  0
 21 22  1  0
 22 23  1  0
 22 24  1  0
 24 25  1  0
 24 26  1  0
 24 27  1  0
 27 28  1  0
 27 29  1  0
 27 30  1  0
 30 31  1  0
 31 32  2  0
 31 33  1  0
 33 34  1  0
 34 35  2  0
 35 36  1  0
 35 37  1  0
 37 38  1  0
 38 39  2  0
 39 40  1  0
 39 41  1  0
 41 42  1  0
 41 43  2  0
 43 44  1  0
 43 45  1  0
 45 46  1  0
 45 47  2  0
 47 48  1  0
 37 49  2  0
 49 50  1  0
 49 51  1  0
 51 52  1  0
 52 53  1  0
 52 54  1  0
 52 55  1  0
 51 56  1  0
 56 57  2  0
 30 58  1  0
 58 59  1  0
 58 60  1  0
 58 61  1  0
 61 62  1  0
 61 63  1  0
 21  3  1  0
 61 22  1  0
 20  5  1  0
 56 34  1  0
 47 38  1  0
M  CHG  2   4  -1  33  -1
M  END
>  <UniqueID>  (45) 
43

>  <SMILES>  (45) 
[H]/N=c1/[n-]c2cc(C)c(C)cc2n1C1CCN(C(=O)[N-]c2cc(-c3ccccc3)cn(C)c2=O)CC1

>  <Energy>  (45) 
126.99874995385919

>  <Genealogy>  (45) 
Cc1cc2[n-]c(=N)n(C3CCN(C(=O)[N-]c4cc(-c5ccccc5)cn(C)c4=O)CC3)c2cc1C (protonated)
[H]/N=c1/[n-]c2cc(C)c(C)cc2n1C1CCN(C(=O)[N-]c2cc(-c3ccccc3)cn(C)c2=O)CC1 (cis-trans isomerization)
[H]/N=c1/[n-]c2cc(C)c(C)cc2n1C1CCN(C(=O)[N-]c2cc(-c3ccccc3)cn(C)c2=O)CC1 (3D coordinates assigned)
[H]/N=c1/[n-]c2cc(C)c(C)cc2n1C1CCN(C(=O)[N-]c2cc(-c3ccccc3)cn(C)c2=O)CC1 (nonaromatic ring conformer: 126.99874995385919 kcal/mol)

>  <smiles>  (45) 
Cc1cc2[nH]c(=N)n(C3CCN(C(=O)Nc4cc(-c5ccccc5)cn(C)c4=O)CC3)c2cc1C

>  <score_type>  (45) 
oracle

>  <origin>  (45) 
adgpu

>  <m_score__min__energy>  (45) 
-12.51

>  <m_primary>  (45) 
energy

$$$$
45:0
     RDKit          3D

 44 46  0  0  1  0  0  0  0  0999 V2000
   -4.5320   17.3930  -35.3360 C   0  0  0  0  0  0  0  0  0  0  0  0
   -5.0470   18.0000  -34.0600 C   0  0  0  0  0  0  0  0  0  0  0  0
   -6.0160   17.3000  -33.3370 C   0  0  0  0  0  0  0  0  0  0  0  0
   -6.4850   17.8590  -32.1680 C   0  0  0  0  0  0  0  0  0  0  0  0
   -5.9980   19.0780  -31.7400 C   0  0  0  0  0  0  0  0  0  0  0  0
   -5.0360   19.7560  -32.4720 C   0  0  0  0  0  0  0  0  0  0  0  0
   -4.5250   21.0260  -32.0350 N   0  0  0  0  0  0  0  0  0  0  0  0
   -3.3200   20.9920  -31.5250 C   0  0  0  0  0  0  0  0  0  0  0  0
   -2.6740   19.7950  -31.4550 N   0  0  0  0  0  0  0  0  0  0  0  0
   -1.4130   19.7260  -30.9360 C   0  0  0  0  0  0  0  0  0  0  0  0
   -0.8290   20.8550  -30.5000 N   0  0  0  0  0  0  0  0  0  0  0  0
   -1.4460   22.0620  -30.5580 C   0  0  0  0  0  0  0  0  0  0  0  0
   -0.7990   23.2340  -30.0870 N   0  0  0  0  0  0  0  0  0  0  0  0
   -2.7170   22.1640  -31.0760 C   0  0  0  0  0  0  0  0  0  0  0  0
   -3.4740   23.3900  -31.1760 C   0  0  0  0  0  0  0  0  0  0  0  0
   -3.4130   24.3610  -30.3670 N   0  0  0  0  0  0  0  0  0  0  0  0
   -4.1810   25.4750  -30.5630 O   0  0  0  0  0  0  0  0  0  0  0  0
   -5.5430   25.5210  -30.3220 C   0  0  0  0  0  0  0  0  0  0  0  0
   -6.3200   24.3450  -30.7440 C   0  0  0  0  0  0  0  0  0  0  0  0
   -6.5650   23.9890  -32.0490 C   0  0  0  0  0  0  0  0  0  0  0  0
   -7.3160   22.8690  -32.3180 C   0  0  0  0  0  0  0  0  0  0  0  0
   -7.8320   22.0890  -31.2950 C   0  0  0  0  0  0  0  0  0  0  0  0
   -7.6020   22.4230  -29.9950 C   0  0  0  0  0  0  0  0  0  0  0  0
   -6.8480   23.5480  -29.7210 C   0  0  0  0  0  0  0  0  0  0  0  0
   -4.5480   19.2090  -33.6570 C   0  0  0  0  0  0  0  0  0  0  0  0
   -3.8372   16.5741  -35.0982 H   0  0  0  0  0  0  0  0  0  0  0  0
   -5.3759   16.9994  -35.9216 H   0  0  0  0  0  0  0  0  0  0  0  0
   -4.0062   18.1615  -35.9216 H   0  0  0  0  0  0  0  0  0  0  0  0
   -6.3941   16.3296  -33.6910 H   0  0  0  0  0  0  0  0  0  0  0  0
   -7.2482   17.3335  -31.5752 H   0  0  0  0  0  0  0  0  0  0  0  0
   -6.3785   19.5168  -30.8058 H   0  0  0  0  0  0  0  0  0  0  0  0
   -0.8844   18.7632  -30.8758 H   0  0  0  0  0  0  0  0  0  0  0  0
    0.1440   20.7450  -30.1090 H   0  0  0  0  0  0  0  0  0  0  0  0
    0.1710   23.1050  -29.7080 H   0  0  0  0  0  0  0  0  0  0  0  0
   -1.2280   24.1850  -30.1020 H   0  0  0  0  0  0  0  0  0  0  0  0
   -4.1624   23.4880  -32.0283 H   0  0  0  0  0  0  0  0  0  0  0  0
   -5.6876   25.6471  -29.2389 H   0  0  0  0  0  0  0  0  0  0  0  0
   -5.9205   26.3557  -30.9309 H   0  0  0  0  0  0  0  0  0  0  0  0
   -6.1627   24.5965  -32.8731 H   0  0  0  0  0  0  0  0  0  0  0  0
   -7.5107   22.5871  -33.3633 H   0  0  0  0  0  0  0  0  0  0  0  0
   -8.4295   21.1969  -31.5341 H   0  0  0  0  0  0  0  0  0  0  0  0
   -8.0089   21.8087  -29.1783 H   0  0  0  0  0  0  0  0  0  0  0  0
   -6.6579   23.8243  -28.6734 H   0  0  0  0  0  0  0  0  0  0  0  0
   -3.7846   19.7332  -34.2507 H   0  0  0  0  0  0  0  0  0  0  0  0
  1  2  1  0
  2  3  2  0
  3  4  1  0
  4  5  2  0
  5  6  1  0
  6  7  1  0
  7  8  2  0
  8  9  1  0
  9 10  2  0
 10 11  1  0
 11 12  1  0
 12 13  1  0
 12 14  2  0
 14 15  1  0
 15 16  2  0
 16 17  1  0
 17 18  1  0
 18 19  1  0
 19 20  2  0
 20 21  1  0
 21 22  2  0
 22 23  1  0
 23 24  2  0
  6 25  2  0
 25  2  1  0
 14  8  1  0
 24 19  1  0
  1 26  1  0
  1 27  1  0
  1 28  1  0
  3 29  1  0
  4 30  1  0
  5 31  1  0
 10 32  1  0
 11 33  1  0
 13 34  1  0
 13 35  1  0
 15 36  1  0
 18 37  1  0
 18 38  1  0
 20 39  1  0
 21 40  1  0
 22 41  1  0
 23 42  1  0
 24 43  1  0
 25 44  1  0
M  END
>  <smiles>  (46) 
Cc1cccc(N=c2nc[nH]c(N)c2C=NOCc2ccccc2)c1

>  <score_type>  (46) 
oracle

>  <origin>  (46) 
adgpu

>  <m_score__min__energy>  (46) 
-8.5199999999999996

>  <m_primary>  (46) 
energy

$$$$
46:0
     RDKit          3D

 48 50  0  0  0  0  0  0  0  0999 V2000
    1.7590   15.3230  -26.5430 C   0  0  0  0  0  0  0  0  0  0  0  0
    1.4250   15.8520  -27.8570 N   0  0  0  0  0  0  0  0  0  0  0  0
    1.3860   17.2340  -28.2480 C   0  0  0  0  0  0  0  0  0  0  0  0
    2.2730   17.6400  -29.0450 O   0  0  0  0  0  0  0  0  0  0  0  0
    0.3560   18.1920  -27.7640 C   0  0  0  0  0  0  0  0  0  0  0  0
    0.5630   19.5790  -27.8830 C   0  0  0  0  0  0  0  0  0  0  0  0
   -0.4190   20.4760  -27.4270 C   0  0  0  0  0  0  0  0  0  0  0  0
   -0.2550   21.8660  -27.5050 O   0  0  0  0  0  0  0  0  0  0  0  0
   -1.0890   22.7480  -28.2080 C   0  0  0  0  0  0  0  0  0  0  0  0
   -1.5680   22.3630  -29.4640 C   0  0  0  0  0  0  0  0  0  0  0  0
   -2.4060   23.2130  -30.1930 C   0  0  0  0  0  0  0  0  0  0  0  0
   -2.7750   24.4610  -29.6770 C   0  0  0  0  0  0  0  0  0  0  0  0
   -3.6370   25.2980  -30.4580 N   0  0  0  0  0  0  0  0  0  0  0  0
   -5.0440   25.1220  -30.6740 C   0  0  0  0  0  0  0  0  0  0  0  0
   -5.7390   26.0540  -31.1560 O   0  0  0  0  0  0  0  0  0  0  0  0
   -5.6990   23.9260  -30.2370 N   0  0  0  0  0  0  0  0  0  0  0  0
   -6.0320   22.8000  -31.0610 C   0  0  0  0  0  0  0  0  0  0  0  0
   -5.0290   22.2180  -31.8400 C   0  0  0  0  0  0  0  0  0  0  0  0
   -5.3070   21.1070  -32.6370 C   0  0  0  0  0  0  0  0  0  0  0  0
   -6.5960   20.5480  -32.6610 C   0  0  0  0  0  0  0  0  0  0  0  0
   -6.8680   19.3560  -33.5400 C   0  0  0  0  0  0  0  0  0  0  0  0
   -7.6140   21.1190  -31.8610 C   0  0  0  0  0  0  0  0  0  0  0  0
   -9.0030   20.5370  -31.8320 C   0  0  0  0  0  0  0  0  0  0  0  0
   -7.3160   22.2320  -31.0550 C   0  0  0  0  0  0  0  0  0  0  0  0
   -2.2520   24.8740  -28.4360 C   0  0  0  0  0  0  0  0  0  0  0  0
   -1.4150   24.0220  -27.7090 C   0  0  0  0  0  0  0  0  0  0  0  0
   -1.5750   19.9710  -26.8280 C   0  0  0  0  0  0  0  0  0  0  0  0
   -1.7470   18.5920  -26.7180 C   0  0  0  0  0  0  0  0  0  0  0  0
   -0.7920   17.7470  -27.1840 N   0  0  0  0  0  0  0  0  0  0  0  0
    1.3432   15.9815  -25.7661 H   0  0  0  0  0  0  0  0  0  0  0  0
    1.3337   14.3143  -26.4349 H   0  0  0  0  0  0  0  0  0  0  0  0
    2.8525   15.2733  -26.4349 H   0  0  0  0  0  0  0  0  0  0  0  0
    1.4917   19.9607  -28.3321 H   0  0  0  0  0  0  0  0  0  0  0  0
   -1.2840   21.3856  -29.8813 H   0  0  0  0  0  0  0  0  0  0  0  0
   -2.7780   22.8985  -31.1793 H   0  0  0  0  0  0  0  0  0  0  0  0
   -4.0127   22.6386  -31.8250 H   0  0  0  0  0  0  0  0  0  0  0  0
   -4.5097   20.6646  -33.2523 H   0  0  0  0  0  0  0  0  0  0  0  0
   -7.0689   18.4755  -32.9120 H   0  0  0  0  0  0  0  0  0  0  0  0
   -7.7425   19.5607  -34.1751 H   0  0  0  0  0  0  0  0  0  0  0  0
   -5.9913   19.1610  -34.1751 H   0  0  0  0  0  0  0  0  0  0  0  0
   -9.3227   20.4030  -30.7880 H   0  0  0  0  0  0  0  0  0  0  0  0
   -9.6974   21.2198  -32.3434 H   0  0  0  0  0  0  0  0  0  0  0  0
   -9.0032   19.5631  -32.3434 H   0  0  0  0  0  0  0  0  0  0  0  0
   -8.0979   22.6627  -30.4123 H   0  0  0  0  0  0  0  0  0  0  0  0
   -2.5025   25.8685  -28.0382 H   0  0  0  0  0  0  0  0  0  0  0  0
   -1.0089   24.3501  -26.7408 H   0  0  0  0  0  0  0  0  0  0  0  0
   -2.3450   20.6570  -26.4454 H   0  0  0  0  0  0  0  0  0  0  0  0
   -2.6581   18.1878  -26.2528 H   0  0  0  0  0  0  0  0  0  0  0  0
  1  2  1  0
  2  3  1  0
  3  4  2  0
  3  5  1  0
  5  6  2  0
  6  7  1  0
  7  8  1  0
  8  9  1  0
  9 10  2  0
 10 11  1  0
 11 12  2  0
 12 13  1  0
 13 14  1  0
 14 15  2  0
 14 16  1  0
 16 17  1  0
 17 18  2  0
 18 19  1  0
 19 20  2  0
 20 21  1  0
 20 22  1  0
 22 23  1  0
 22 24  2  0
 12 25  1  0
 25 26  2  0
  7 27  2  0
 27 28  1  0
 28 29  2  0
 29  5  1  0
 26  9  1  0
 24 17  1  0
  1 30  1  0
  1 31  1  0
  1 32  1  0
  6 33  1  0
 10 34  1  0
 11 35  1  0
 18 36  1  0
 19 37  1  0
 21 38  1  0
 21 39  1  0
 21 40  1  0
 23 41  1  0
 23 42  1  0
 23 43  1  0
 24 44  1  0
 25 45  1  0
 26 46  1  0
 27 47  1  0
 28 48  1  0
M  CHG  3   2  -1  13  -1  16  -1
M  END
>  <UniqueID>  (47) 
44

>  <SMILES>  (47) 
C[N-]C(=O)c1cc(Oc2ccc([N-]C(=O)[N-]c3ccc(C)c(C)c3)cc2)ccn1

>  <Energy>  (47) 
64.93192768597312

>  <Genealogy>  (47) 
C[N-]C(=O)c1cc(Oc2ccc([N-]C(=O)[N-]c3ccc(C)c(C)c3)cc2)ccn1 (protonated)
C[N-]C(=O)c1cc(Oc2ccc([N-]C(=O)[N-]c3ccc(C)c(C)c3)cc2)ccn1 (3D coordinates assigned)
C[N-]C(=O)c1cc(Oc2ccc([N-]C(=O)[N-]c3ccc(C)c(C)c3)cc2)ccn1 (optimized conformer: 64.93192768597312 kcal/mol)

>  <smiles>  (47) 
CNC(=O)c1cc(Oc2ccc(NC(=O)Nc3ccc(C)c(C)c3)cc2)ccn1

>  <score_type>  (47) 
oracle

>  <origin>  (47) 
adgpu

>  <m_score__min__energy>  (47) 
-12.51

>  <m_primary>  (47) 
energy

$$$$
47:0
     RDKit          3D

 38 41  0  0  0  0  0  0  0  0999 V2000
   -7.2386   24.7012  -32.0860 H   0  0  0  0  0  0  0  0  0  0  0  0
   -6.2760   24.5300  -31.5820 C   0  0  0  0  0  0  0  0  0  0  0  0
   -5.3620   25.6930  -30.7750 S   0  0  0  0  0  0  0  0  0  0  0  0
   -4.1650   24.5970  -30.3490 C   0  0  0  0  0  0  0  0  0  0  0  0
   -3.0890   24.9240  -29.6970 N   0  0  0  0  0  0  0  0  0  0  0  0
   -2.0410   24.0310  -29.2790 C   0  0  0  0  0  0  0  0  0  0  0  0
   -1.5400   23.0160  -30.1180 C   0  0  0  0  0  0  0  0  0  0  0  0
   -1.9407   22.8978  -31.1356 H   0  0  0  0  0  0  0  0  0  0  0  0
   -0.5340   22.1580  -29.6600 C   0  0  0  0  0  0  0  0  0  0  0  0
   -0.1336   21.3779  -30.3242 H   0  0  0  0  0  0  0  0  0  0  0  0
   -0.0370   22.2900  -28.3610 C   0  0  0  0  0  0  0  0  0  0  0  0
    0.9360   21.4550  -27.9190 F   0  0  0  0  0  0  0  0  0  0  0  0
   -0.5540   23.2740  -27.5130 C   0  0  0  0  0  0  0  0  0  0  0  0
   -0.1702   23.3721  -26.4868 H   0  0  0  0  0  0  0  0  0  0  0  0
   -1.5580   24.1330  -27.9680 C   0  0  0  0  0  0  0  0  0  0  0  0
   -1.9722   24.8951  -27.2915 H   0  0  0  0  0  0  0  0  0  0  0  0
   -4.4260   23.3570  -30.8170 N   0  0  0  0  0  0  0  0  0  0  0  0
   -5.6000   23.3120  -31.5000 C   0  0  0  0  0  0  0  0  0  0  0  0
   -6.1210   22.0650  -32.0900 C   0  0  0  0  0  0  0  0  0  0  0  0
   -7.4250   21.8480  -32.3580 N   0  0  0  0  0  0  0  0  0  0  0  0
   -7.5240   20.6220  -32.8510 N   0  0  0  0  0  0  0  0  0  0  0  0
   -6.3350   20.0420  -32.9030 N   0  0  0  0  0  0  0  0  0  0  0  0
   -6.1340   18.6970  -33.3640 C   0  0  0  0  0  0  0  0  0  0  0  0
   -7.0750   17.7020  -33.0490 C   0  0  0  0  0  0  0  0  0  0  0  0
   -7.9716   17.9611  -32.4668 H   0  0  0  0  0  0  0  0  0  0  0  0
   -6.8770   16.3850  -33.4720 C   0  0  0  0  0  0  0  0  0  0  0  0
   -7.6237   15.6137  -33.2321 H   0  0  0  0  0  0  0  0  0  0  0  0
   -5.7330   16.0450  -34.1990 C   0  0  0  0  0  0  0  0  0  0  0  0
   -5.5826   15.0087  -34.5359 H   0  0  0  0  0  0  0  0  0  0  0  0
   -4.7790   17.0240  -34.4980 C   0  0  0  0  0  0  0  0  0  0  0  0
   -3.3320   16.5940  -35.3920 Cl  0  0  0  0  0  0  0  0  0  0  0  0
   -4.9740   18.3440  -34.0770 C   0  0  0  0  0  0  0  0  0  0  0  0
   -4.2170   19.1089  -34.3046 H   0  0  0  0  0  0  0  0  0  0  0  0
   -5.4180   20.9250  -32.4490 C   0  0  0  0  0  0  0  0  0  0  0  0
   -3.9320   20.7170  -32.4050 C   0  0  0  0  0  0  0  0  0  0  0  0
   -3.5991   20.6704  -31.3576 H   0  0  0  0  0  0  0  0  0  0  0  0
   -3.6785   19.7746  -32.9126 H   0  0  0  0  0  0  0  0  0  0  0  0
   -3.4295   21.5536  -32.9126 H   0  0  0  0  0  0  0  0  0  0  0  0
  1  2  1  0
  2  3  1  0
  3  4  1  0
  4  5  2  0
  5  6  1  0
  6  7  2  0
  7  8  1  0
  7  9  1  0
  9 10  1  0
  9 11  2  0
 11 12  1  0
 11 13  1  0
 13 14  1  0
 13 15  2  0
 15 16  1  0
  4 17  1  0
 17 18  1  0
 18 19  1  0
 19 20  1  0
 20 21  2  0
 21 22  1  0
 22 23  1  0
 23 24  2  0
 24 25  1  0
 24 26  1  0
 26 27  1  0
 26 28  2  0
 28 29  1  0
 28 30  1  0
 30 31  1  0
 30 32  2  0
 32 33  1  0
 22 34  1  0
 34 35  1  0
 35 36  1  0
 35 37  1  0
 35 38  1  0
 18  2  2  0
 34 19  2  0
 15  6  1  0
 32 23  1  0
M  CHG  1  17  -1
M  END
>  <UniqueID>  (48) 
45

>  <SMILES>  (48) 
Cc1c(-c2cs/c(=N/c3ccc(F)cc3)[n-]2)nnn1-c1cccc(Cl)c1

>  <Energy>  (48) 
117.93154136358062

>  <Genealogy>  (48) 
Cc1c(-c2csc(=Nc3ccc(F)cc3)[n-]2)nnn1-c1cccc(Cl)c1 (protonated)
Cc1c(-c2cs/c(=N/c3ccc(F)cc3)[n-]2)nnn1-c1cccc(Cl)c1 (cis-trans isomerization)
Cc1c(-c2cs/c(=N/c3ccc(F)cc3)[n-]2)nnn1-c1cccc(Cl)c1 (3D coordinates assigned)
Cc1c(-c2cs/c(=N/c3ccc(F)cc3)[n-]2)nnn1-c1cccc(Cl)c1 (optimized conformer: 117.93154136358062 kcal/mol)

>  <smiles>  (48) 
Cc1c(-c2csc(=Nc3ccc(F)cc3)[nH]2)nnn1-c1cccc(Cl)c1

>  <score_type>  (48) 
oracle

>  <origin>  (48) 
adgpu

>  <m_score__min__energy>  (48) 
-9.9299999999999997

>  <m_primary>  (48) 
energy

$$$$
