0:0
     RDKit          3D

 32 33  0  0  0  0  0  0  0  0999 V2000
   -2.4530   24.6140  -28.4330 C   0  0  0  0  0  0  0  0  0  0  0  0
   -3.1140   25.2900  -29.4960 O   0  0  0  0  0  0  0  0  0  0  0  0
   -4.1510   24.7090  -30.2320 C   0  0  0  0  0  0  0  0  0  0  0  0
   -5.4520   25.1930  -30.0850 C   0  0  0  0  0  0  0  0  0  0  0  0
   -6.4890   24.6150  -30.8190 C   0  0  0  0  0  0  0  0  0  0  0  0
   -6.2230   23.5500  -31.6990 C   0  0  0  0  0  0  0  0  0  0  0  0
   -7.2600   22.9170  -32.4740 N   0  0  0  0  0  0  0  0  0  0  0  0
   -8.3300   22.0970  -31.9080 C   0  0  0  0  0  0  0  0  0  0  0  0
   -8.0750   20.6410  -32.1720 C   0  0  0  0  0  0  0  0  0  0  0  0
   -8.8520   19.6500  -31.5540 C   0  0  0  0  0  0  0  0  0  0  0  0
   -8.5990   18.3070  -31.8340 C   0  0  0  0  0  0  0  0  0  0  0  0
   -7.5860   17.9620  -32.7300 C   0  0  0  0  0  0  0  0  0  0  0  0
   -6.8340   18.9750  -33.3390 C   0  0  0  0  0  0  0  0  0  0  0  0
   -5.7510   18.6320  -34.3110 C   0  0  0  0  0  0  0  0  0  0  0  0
   -7.1000   20.2780  -33.0510 N   0  0  0  0  0  0  0  0  0  0  0  0
   -4.9000   23.1000  -31.8170 C   0  0  0  0  0  0  0  0  0  0  0  0
   -3.9080   23.6800  -31.0910 N   0  0  0  0  0  0  0  0  0  0  0  0
   -2.8244   24.9938  -27.4698 H   0  0  0  0  0  0  0  0  0  0  0  0
   -2.6539   23.5348  -28.5036 H   0  0  0  0  0  0  0  0  0  0  0  0
   -1.3696   24.7907  -28.5036 H   0  0  0  0  0  0  0  0  0  0  0  0
   -5.6586   26.0245  -29.3952 H   0  0  0  0  0  0  0  0  0  0  0  0
   -7.5162   24.9929  -30.7092 H   0  0  0  0  0  0  0  0  0  0  0  0
   -7.2420   23.0290  -33.5130 H   0  0  0  0  0  0  0  0  0  0  0  0
   -8.3781   22.2646  -30.8219 H   0  0  0  0  0  0  0  0  0  0  0  0
   -9.2824   22.3817  -32.3791 H   0  0  0  0  0  0  0  0  0  0  0  0
   -9.6538   19.9294  -30.8547 H   0  0  0  0  0  0  0  0  0  0  0  0
   -9.1970   17.5211  -31.3494 H   0  0  0  0  0  0  0  0  0  0  0  0
   -7.3802   16.9053  -32.9557 H   0  0  0  0  0  0  0  0  0  0  0  0
   -4.8426   18.3443  -33.7614 H   0  0  0  0  0  0  0  0  0  0  0  0
   -6.0780   17.7934  -34.9434 H   0  0  0  0  0  0  0  0  0  0  0  0
   -5.5356   19.5059  -34.9434 H   0  0  0  0  0  0  0  0  0  0  0  0
   -4.6635   22.2721  -32.5016 H   0  0  0  0  0  0  0  0  0  0  0  0
  1  2  1  0
  2  3  1  0
  3  4  2  0
  4  5  1  0
  5  6  2  0
  6  7  1  0
  7  8  1  0
  8  9  1  0
  9 10  2  0
 10 11  1  0
 11 12  2  0
 12 13  1  0
 13 14  1  0
 13 15  2  0
  6 16  1  0
 16 17  2  0
 17  3  1  0
 15  9  1  0
  1 18  1  0
  1 19  1  0
  1 20  1  0
  4 21  1  0
  5 22  1  0
  7 23  1  0
  8 24  1  0
  8 25  1  0
 10 26  1  0
 11 27  1  0
 12 28  1  0
 14 29  1  0
 14 30  1  0
 14 31  1  0
 16 32  1  0
M  END
>  <UniqueID>  (1) 
1

>  <SMILES>  (1) 
COc1ccc(NCc2cccc(C)n2)cn1

>  <Energy>  (1) 
28.89124992018754

>  <Genealogy>  (1) 
COc1ccc(NCc2cccc(C)n2)cn1 (3D coordinates assigned)
COc1ccc(NCc2cccc(C)n2)cn1 (optimized conformer: 28.89124992018754 kcal/mol)

>  <smiles>  (1) 
COc1ccc(NCc2cccc(C)n2)cn1

>  <score_type>  (1) 
oracle

>  <origin>  (1) 
adgpu

>  <m_score__min__energy>  (1) 
-7.6600000000000001

>  <m_primary>  (1) 
energy

$$$$
1:0
     RDKit          3D

 21 22  0  0  0  0  0  0  0  0999 V2000
   -9.1090   20.2380  -32.3450 C   0  0  0  0  0  0  0  0  0  0  0  0
   -7.7810   20.0240  -32.7180 C   0  0  0  0  0  0  0  0  0  0  0  0
   -6.7930   20.9450  -32.3560 C   0  0  0  0  0  0  0  0  0  0  0  0
   -7.1270   22.0950  -31.6140 C   0  0  0  0  0  0  0  0  0  0  0  0
   -6.0800   23.0760  -31.2280 C   0  0  0  0  0  0  0  0  0  0  0  0
   -6.4250   24.3930  -30.8780 C   0  0  0  0  0  0  0  0  0  0  0  0
   -5.4230   25.2990  -30.5180 C   0  0  0  0  0  0  0  0  0  0  0  0
   -4.1220   24.9080  -30.5060 N   0  0  0  0  0  0  0  0  0  0  0  0
   -3.7560   23.6430  -30.8370 C   0  0  0  0  0  0  0  0  0  0  0  0
   -4.7240   22.7050  -31.2040 C   0  0  0  0  0  0  0  0  0  0  0  0
   -8.4700   22.2990  -31.2450 C   0  0  0  0  0  0  0  0  0  0  0  0
   -9.4530   21.3740  -31.6090 C   0  0  0  0  0  0  0  0  0  0  0  0
   -9.8844   19.5120  -32.6307 H   0  0  0  0  0  0  0  0  0  0  0  0
   -7.5111   19.1291  -33.2979 H   0  0  0  0  0  0  0  0  0  0  0  0
   -5.7482   20.7704  -32.6525 H   0  0  0  0  0  0  0  0  0  0  0  0
   -7.4785   24.7093  -30.8873 H   0  0  0  0  0  0  0  0  0  0  0  0
   -5.6886   26.3307  -30.2439 H   0  0  0  0  0  0  0  0  0  0  0  0
   -2.6943   23.3560  -30.8161 H   0  0  0  0  0  0  0  0  0  0  0  0
   -4.4267   21.6807  -31.4730 H   0  0  0  0  0  0  0  0  0  0  0  0
   -8.7479   23.1923  -30.6663 H   0  0  0  0  0  0  0  0  0  0  0  0
  -10.4997   21.5413  -31.3151 H   0  0  0  0  0  0  0  0  0  0  0  0
  1  2  2  0
  2  3  1  0
  3  4  2  0
  4  5  1  0
  5  6  2  0
  6  7  1  0
  7  8  2  0
  8  9  1  0
  9 10  2  0
  4 11  1  0
 11 12  2  0
 12  1  1  0
 10  5  1  0
  1 13  1  0
  2 14  1  0
  3 15  1  0
  6 16  1  0
  7 17  1  0
  9 18  1  0
 10 19  1  0
 11 20  1  0
 12 21  1  0
M  END
>  <UniqueID>  (2) 
2

>  <SMILES>  (2) 
c1ccc(-c2ccncc2)cc1

>  <Energy>  (2) 
27.956813103066494

>  <Genealogy>  (2) 
c1ccc(-c2ccncc2)cc1 (3D coordinates assigned)
c1ccc(-c2ccncc2)cc1 (optimized conformer: 27.956813103066494 kcal/mol)

>  <smiles>  (2) 
c1ccc(-c2ccncc2)cc1

>  <score_type>  (2) 
oracle

>  <origin>  (2) 
adgpu

>  <m_score__min__energy>  (2) 
-6.2800000000000002

>  <m_primary>  (2) 
energy

$$$$
2:0
     RDKit          3D

 27 28  0  0  0  0  0  0  0  0999 V2000
   -2.3160   24.8430  -28.5930 C   0  0  0  0  0  0  0  0  0  0  0  0
   -3.1250   25.1590  -29.7200 O   0  0  0  0  0  0  0  0  0  0  0  0
   -3.9850   24.2320  -30.3160 C   0  0  0  0  0  0  0  0  0  0  0  0
   -3.8710   22.8790  -29.9880 C   0  0  0  0  0  0  0  0  0  0  0  0
   -4.7280   21.9520  -30.5820 C   0  0  0  0  0  0  0  0  0  0  0  0
   -5.6990   22.3790  -31.5000 C   0  0  0  0  0  0  0  0  0  0  0  0
   -6.6160   21.4090  -32.1380 C   0  0  0  0  0  0  0  0  0  0  0  0
   -7.9940   21.3300  -32.0280 C   0  0  0  0  0  0  0  0  0  0  0  0
   -8.8910   22.2240  -31.2320 C   0  0  0  0  0  0  0  0  0  0  0  0
   -8.4450   20.3030  -32.7730 N   0  0  0  0  0  0  0  0  0  0  0  0
   -7.4060   19.7460  -33.3260 O   0  0  0  0  0  0  0  0  0  0  0  0
   -6.2970   20.3620  -32.9860 C   0  0  0  0  0  0  0  0  0  0  0  0
   -4.9410   19.9570  -33.4650 C   0  0  0  0  0  0  0  0  0  0  0  0
   -5.7800   23.7470  -31.8010 C   0  0  0  0  0  0  0  0  0  0  0  0
   -4.9310   24.6300  -31.2110 N   0  0  0  0  0  0  0  0  0  0  0  0
   -2.8727   25.0604  -27.6695 H   0  0  0  0  0  0  0  0  0  0  0  0
   -2.0517   23.7755  -28.6191 H   0  0  0  0  0  0  0  0  0  0  0  0
   -1.3982   25.4487  -28.6191 H   0  0  0  0  0  0  0  0  0  0  0  0
   -3.1105   22.5466  -29.2661 H   0  0  0  0  0  0  0  0  0  0  0  0
   -4.6421   20.8847  -30.3301 H   0  0  0  0  0  0  0  0  0  0  0  0
   -8.7200   22.0536  -30.1588 H   0  0  0  0  0  0  0  0  0  0  0  0
   -8.6723   23.2741  -31.4759 H   0  0  0  0  0  0  0  0  0  0  0  0
   -9.9404   22.0018  -31.4759 H   0  0  0  0  0  0  0  0  0  0  0  0
   -4.2896   19.7625  -32.6002 H   0  0  0  0  0  0  0  0  0  0  0  0
   -5.0245   19.0446  -34.0737 H   0  0  0  0  0  0  0  0  0  0  0  0
   -4.5105   20.7658  -34.0737 H   0  0  0  0  0  0  0  0  0  0  0  0
   -6.5335   24.1066  -32.5172 H   0  0  0  0  0  0  0  0  0  0  0  0
  1  2  1  0
  2  3  1  0
  3  4  2  0
  4  5  1  0
  5  6  2  0
  6  7  1  0
  7  8  1  0
  8  9  1  0
  8 10  2  0
 10 11  1  0
 11 12  1  0
 12 13  1  0
  6 14  1  0
 14 15  2  0
 15  3  1  0
 12  7  2  0
  1 16  1  0
  1 17  1  0
  1 18  1  0
  4 19  1  0
  5 20  1  0
  9 21  1  0
  9 22  1  0
  9 23  1  0
 13 24  1  0
 13 25  1  0
 13 26  1  0
 14 27  1  0
M  END
>  <UniqueID>  (3) 
3

>  <SMILES>  (3) 
COc1ccc(-c2c(C)noc2C)cn1

>  <Energy>  (3) 
59.30896350479474

>  <Genealogy>  (3) 
COc1ccc(-c2c(C)noc2C)cn1 (3D coordinates assigned)
COc1ccc(-c2c(C)noc2C)cn1 (optimized conformer: 59.30896350479474 kcal/mol)

>  <smiles>  (3) 
COc1ccc(-c2c(C)noc2C)cn1

>  <score_type>  (3) 
oracle

>  <origin>  (3) 
adgpu

>  <m_score__min__energy>  (3) 
-6.5199999999999996

>  <m_primary>  (3) 
energy

$$$$
3:0
     RDKit          3D

 27 27  0  0  0  0  0  0  0  0999 V2000
   -6.1850   18.7570  -33.6390 C   0  0  0  0  0  0  0  0  0  0  0  0
   -7.0990   19.7400  -33.0680 N   0  0  0  0  0  0  0  0  0  0  0  0
   -8.3820   19.5380  -32.7080 C   0  0  0  0  0  0  0  0  0  0  0  0
   -8.8670   20.7050  -32.1420 C   0  0  0  0  0  0  0  0  0  0  0  0
   -7.8750   21.6190  -32.1320 N   0  0  0  0  0  0  0  0  0  0  0  0
   -7.9650   23.0060  -31.6760 C   0  0  0  0  0  0  0  0  0  0  0  0
   -7.1440   23.2080  -30.4020 C   0  0  0  0  0  0  0  0  0  0  0  0
   -5.7160   23.2690  -30.7250 N   0  0  0  0  0  0  0  0  0  0  0  0
   -4.9890   24.6500  -29.9590 S   0  0  0  0  0  0  0  0  0  0  0  0
   -4.2860   24.1790  -28.3930 C   0  0  0  0  0  0  0  0  0  0  0  0
   -6.0150   25.7290  -29.7480 O   0  0  0  0  0  0  0  0  0  0  0  0
   -3.8940   25.1790  -30.8420 O   0  0  0  0  0  0  0  0  0  0  0  0
   -6.8190   21.0040  -32.7000 C   0  0  0  0  0  0  0  0  0  0  0  0
   -5.6940   21.5510  -32.8680 O   0  0  0  0  0  0  0  0  0  0  0  0
   -5.6788   18.2126  -32.8282 H   0  0  0  0  0  0  0  0  0  0  0  0
   -6.7512   18.0470  -34.2597 H   0  0  0  0  0  0  0  0  0  0  0  0
   -5.4357   19.2701  -34.2597 H   0  0  0  0  0  0  0  0  0  0  0  0
   -8.9480   18.6042  -32.8412 H   0  0  0  0  0  0  0  0  0  0  0  0
   -9.8884   20.8604  -31.7644 H   0  0  0  0  0  0  0  0  0  0  0  0
   -7.5803   23.6710  -32.4632 H   0  0  0  0  0  0  0  0  0  0  0  0
   -9.0178   23.2408  -31.4604 H   0  0  0  0  0  0  0  0  0  0  0  0
   -7.4479   24.1485  -29.9191 H   0  0  0  0  0  0  0  0  0  0  0  0
   -7.3225   22.3621  -29.7219 H   0  0  0  0  0  0  0  0  0  0  0  0
   -5.6220   23.4100  -31.7570 H   0  0  0  0  0  0  0  0  0  0  0  0
   -4.8992   24.5898  -27.5774 H   0  0  0  0  0  0  0  0  0  0  0  0
   -4.2621   23.0819  -28.3169 H   0  0  0  0  0  0  0  0  0  0  0  0
   -3.2623   24.5742  -28.3169 H   0  0  0  0  0  0  0  0  0  0  0  0
  1  2  1  0
  2  3  1  0
  3  4  2  0
  4  5  1  0
  5  6  1  0
  6  7  1  0
  7  8  1  0
  8  9  1  0
  9 10  1  0
  9 11  2  0
  9 12  2  0
  5 13  1  0
 13 14  2  0
 13  2  1  0
  1 15  1  0
  1 16  1  0
  1 17  1  0
  3 18  1  0
  4 19  1  0
  6 20  1  0
  6 21  1  0
  7 22  1  0
  7 23  1  0
  8 24  1  0
 10 25  1  0
 10 26  1  0
 10 27  1  0
M  END
>  <UniqueID>  (4) 
4

>  <SMILES>  (4) 
Cn1ccn(CCNS(C)(=O)=O)c1=O

>  <Energy>  (4) 
46.36084682479707

>  <Genealogy>  (4) 
Cn1ccn(CCNS(C)(=O)=O)c1=O (3D coordinates assigned)
Cn1ccn(CCNS(C)(=O)=O)c1=O (optimized conformer: 46.36084682479707 kcal/mol)

>  <smiles>  (4) 
Cn1ccn(CCNS(C)(=O)=O)c1=O

>  <score_type>  (4) 
oracle

>  <origin>  (4) 
adgpu

>  <m_score__min__energy>  (4) 
-5.5700000000000003

>  <m_primary>  (4) 
energy

$$$$
4:0
     RDKit          3D

 21 22  0  0  0  0  0  0  0  0999 V2000
   -4.2730   25.6370  -30.4700 F   0  0  0  0  0  0  0  0  0  0  0  0
   -4.9080   24.4990  -30.8420 C   0  0  0  0  0  0  0  0  0  0  0  0
   -6.1120   24.5570  -31.5380 C   0  0  0  0  0  0  0  0  0  0  0  0
   -6.7600   23.3790  -31.9180 C   0  0  0  0  0  0  0  0  0  0  0  0
   -6.1920   22.1220  -31.5960 C   0  0  0  0  0  0  0  0  0  0  0  0
   -6.8370   20.8070  -31.9760 C   0  0  0  0  0  0  0  0  0  0  0  0
   -6.0920   19.8100  -32.6560 C   0  0  0  0  0  0  0  0  0  0  0  0
   -6.6650   18.5880  -33.0180 C   0  0  0  0  0  0  0  0  0  0  0  0
   -5.7060   17.3830  -33.8590 Cl  0  0  0  0  0  0  0  0  0  0  0  0
   -7.9950   18.3220  -32.7130 C   0  0  0  0  0  0  0  0  0  0  0  0
   -8.7570   19.2750  -32.0470 C   0  0  0  0  0  0  0  0  0  0  0  0
   -8.2040   20.5070  -31.6750 C   0  0  0  0  0  0  0  0  0  0  0  0
   -9.3070   21.6000  -30.8380 Cl  0  0  0  0  0  0  0  0  0  0  0  0
   -5.0110   22.1210  -30.9130 N   0  0  0  0  0  0  0  0  0  0  0  0
   -4.3650   23.2550  -30.5350 C   0  0  0  0  0  0  0  0  0  0  0  0
   -6.5542   25.5323  -31.7894 H   0  0  0  0  0  0  0  0  0  0  0  0
   -7.7117   23.4277  -32.4675 H   0  0  0  0  0  0  0  0  0  0  0  0
   -5.0380   20.0033  -32.9044 H   0  0  0  0  0  0  0  0  0  0  0  0
   -8.4436   17.3590  -32.9982 H   0  0  0  0  0  0  0  0  0  0  0  0
   -9.8089   19.0586  -31.8088 H   0  0  0  0  0  0  0  0  0  0  0  0
   -3.4136   23.1898  -29.9868 H   0  0  0  0  0  0  0  0  0  0  0  0
  1  2  1  0
  2  3  2  0
  3  4  1  0
  4  5  2  0
  5  6  1  0
  6  7  2  0
  7  8  1  0
  8  9  1  0
  8 10  2  0
 10 11  1  0
 11 12  2  0
 12 13  1  0
  5 14  1  0
 14 15  2  0
 15  2  1  0
 12  6  1  0
  3 16  1  0
  4 17  1  0
  7 18  1  0
 10 19  1  0
 11 20  1  0
 15 21  1  0
M  END
>  <UniqueID>  (5) 
5

>  <SMILES>  (5) 
Fc1ccc(-c2cc(Cl)ccc2Cl)nc1

>  <Energy>  (5) 
33.42716435798175

>  <Genealogy>  (5) 
Fc1ccc(-c2cc(Cl)ccc2Cl)nc1 (3D coordinates assigned)
Fc1ccc(-c2cc(Cl)ccc2Cl)nc1 (optimized conformer: 33.42716435798175 kcal/mol)

>  <smiles>  (5) 
Fc1ccc(-c2cc(Cl)ccc2Cl)nc1

>  <score_type>  (5) 
oracle

>  <origin>  (5) 
adgpu

>  <m_score__min__energy>  (5) 
-6.8600000000000003

>  <m_primary>  (5) 
energy

$$$$
5:0
     RDKit          3D

 50 54  0  0  0  0  0  0  0  0999 V2000
   -4.5320   14.8340  -34.6240 C   0  0  0  0  0  0  0  0  0  0  0  0
   -5.8680   14.9100  -34.2270 C   0  0  0  0  0  0  0  0  0  0  0  0
   -6.3830   16.1080  -33.7200 C   0  0  0  0  0  0  0  0  0  0  0  0
   -5.5620   17.2490  -33.6100 C   0  0  0  0  0  0  0  0  0  0  0  0
   -6.1070   18.5230  -33.0810 C   0  0  0  0  0  0  0  0  0  0  0  0
   -5.2670   19.5080  -32.6630 N   0  0  0  0  0  0  0  0  0  0  0  0
   -5.7310   20.6860  -32.1670 C   0  0  0  0  0  0  0  0  0  0  0  0
   -4.7930   21.6760  -31.7380 N   0  0  0  0  0  0  0  0  0  0  0  0
   -5.0060   23.0860  -32.0860 C   0  0  0  0  0  0  0  0  0  0  0  0
   -4.7470   23.9780  -30.8640 C   0  0  0  0  0  0  0  0  0  0  0  0
   -3.5540   23.5450  -30.1160 N   0  0  0  0  0  0  0  0  0  0  0  0
   -3.2660   24.1380  -28.8340 C   0  0  0  0  0  0  0  0  0  0  0  0
   -2.0100   24.7180  -28.5840 C   0  0  0  0  0  0  0  0  0  0  0  0
   -1.7360   25.3000  -27.3420 C   0  0  0  0  0  0  0  0  0  0  0  0
   -2.7120   25.3130  -26.3430 C   0  0  0  0  0  0  0  0  0  0  0  0
   -3.9660   24.7470  -26.5850 C   0  0  0  0  0  0  0  0  0  0  0  0
   -4.2450   24.1640  -27.8240 C   0  0  0  0  0  0  0  0  0  0  0  0
   -2.7220   22.4530  -30.6380 C   0  0  0  0  0  0  0  0  0  0  0  0
   -3.6060   21.2540  -30.9840 C   0  0  0  0  0  0  0  0  0  0  0  0
   -7.1180   20.9020  -32.0810 C   0  0  0  0  0  0  0  0  0  0  0  0
   -7.6690   22.0990  -31.5880 C   0  0  0  0  0  0  0  0  0  0  0  0
   -9.0580   22.2540  -31.5210 C   0  0  0  0  0  0  0  0  0  0  0  0
   -9.9030   21.2250  -31.9470 C   0  0  0  0  0  0  0  0  0  0  0  0
   -9.3650   20.0350  -32.4450 C   0  0  0  0  0  0  0  0  0  0  0  0
   -7.9760   19.8690  -32.5150 C   0  0  0  0  0  0  0  0  0  0  0  0
   -7.4530   18.7140  -33.0000 N   0  0  0  0  0  0  0  0  0  0  0  0
   -4.2160   17.1570  -34.0130 C   0  0  0  0  0  0  0  0  0  0  0  0
   -3.7070   15.9560  -34.5170 C   0  0  0  0  0  0  0  0  0  0  0  0
   -4.1289   13.8907  -35.0211 H   0  0  0  0  0  0  0  0  0  0  0  0
   -6.5173   14.0262  -34.3129 H   0  0  0  0  0  0  0  0  0  0  0  0
   -7.4357   16.1601  -33.4050 H   0  0  0  0  0  0  0  0  0  0  0  0
   -4.3165   23.3688  -32.8951 H   0  0  0  0  0  0  0  0  0  0  0  0
   -6.0468   23.2214  -32.4153 H   0  0  0  0  0  0  0  0  0  0  0  0
   -4.5982   25.0136  -31.2038 H   0  0  0  0  0  0  0  0  0  0  0  0
   -5.6168   23.9036  -30.1948 H   0  0  0  0  0  0  0  0  0  0  0  0
   -1.2392   24.7141  -29.3688 H   0  0  0  0  0  0  0  0  0  0  0  0
   -0.7498   25.7484  -27.1516 H   0  0  0  0  0  0  0  0  0  0  0  0
   -2.4933   25.7688  -25.3660 H   0  0  0  0  0  0  0  0  0  0  0  0
   -4.7353   24.7602  -25.7988 H   0  0  0  0  0  0  0  0  0  0  0  0
   -5.2353   23.7231  -28.0106 H   0  0  0  0  0  0  0  0  0  0  0  0
   -2.1966   22.7934  -31.5425 H   0  0  0  0  0  0  0  0  0  0  0  0
   -1.9875   22.1568  -29.8746 H   0  0  0  0  0  0  0  0  0  0  0  0
   -3.0269   20.5438  -31.5925 H   0  0  0  0  0  0  0  0  0  0  0  0
   -3.9357   20.7797  -30.0478 H   0  0  0  0  0  0  0  0  0  0  0  0
   -7.0080   22.9128  -31.2553 H   0  0  0  0  0  0  0  0  0  0  0  0
   -9.4867   23.1892  -31.1316 H   0  0  0  0  0  0  0  0  0  0  0  0
  -10.9941   21.3522  -31.8901 H   0  0  0  0  0  0  0  0  0  0  0  0
  -10.0327   19.2285  -32.7821 H   0  0  0  0  0  0  0  0  0  0  0  0
   -3.5601   18.0362  -33.9308 H   0  0  0  0  0  0  0  0  0  0  0  0
   -2.6542   15.8947  -34.8300 H   0  0  0  0  0  0  0  0  0  0  0  0
  1  2  2  0
  2  3  1  0
  3  4  2  0
  4  5  1  0
  5  6  2  0
  6  7  1  0
  7  8  1  0
  8  9  1  0
  9 10  1  0
 10 11  1  0
 11 12  1  0
 12 13  2  0
 13 14  1  0
 14 15  2  0
 15 16  1  0
 16 17  2  0
 11 18  1  0
 18 19  1  0
  7 20  2  0
 20 21  1  0
 21 22  2  0
 22 23  1  0
 23 24  2  0
 24 25  1  0
 25 26  2  0
  4 27  1  0
 27 28  2  0
 28  1  1  0
 26  5  1  0
 19  8  1  0
 25 20  1  0
 17 12  1  0
  1 29  1  0
  2 30  1  0
  3 31  1  0
  9 32  1  0
  9 33  1  0
 10 34  1  0
 10 35  1  0
 13 36  1  0
 14 37  1  0
 15 38  1  0
 16 39  1  0
 17 40  1  0
 18 41  1  0
 18 42  1  0
 19 43  1  0
 19 44  1  0
 21 45  1  0
 22 46  1  0
 23 47  1  0
 24 48  1  0
 27 49  1  0
 28 50  1  0
M  END
>  <UniqueID>  (6) 
6

>  <SMILES>  (6) 
c1ccc(-c2nc(N3CCN(c4ccccc4)CC3)c3ccccc3n2)cc1

>  <Energy>  (6) 
71.35895500809652

>  <Genealogy>  (6) 
c1ccc(-c2nc(N3CCN(c4ccccc4)CC3)c3ccccc3n2)cc1 (3D coordinates assigned)
c1ccc(-c2nc(N3CCN(c4ccccc4)CC3)c3ccccc3n2)cc1 (nonaromatic ring conformer: 71.35895500809652 kcal/mol)

>  <smiles>  (6) 
c1ccc(-c2nc(N3CCN(c4ccccc4)CC3)c3ccccc3n2)cc1

>  <score_type>  (6) 
oracle

>  <origin>  (6) 
adgpu

>  <m_score__min__energy>  (6) 
-9.3300000000000001

>  <m_primary>  (6) 
energy

$$$$
6:0
     RDKit          3D

 27 29  0  0  0  0  0  0  0  0999 V2000
   -5.4210   14.9910  -34.7830 F   0  0  0  0  0  0  0  0  0  0  0  0
   -5.7600   16.2030  -34.2760 C   0  0  0  0  0  0  0  0  0  0  0  0
   -5.3920   17.3700  -34.9490 C   0  0  0  0  0  0  0  0  0  0  0  0
   -5.7400   18.6200  -34.4300 C   0  0  0  0  0  0  0  0  0  0  0  0
   -6.4630   18.7180  -33.2240 C   0  0  0  0  0  0  0  0  0  0  0  0
   -6.8350   19.9980  -32.6720 N   0  0  0  0  0  0  0  0  0  0  0  0
   -6.0060   20.9690  -32.2310 C   0  0  0  0  0  0  0  0  0  0  0  0
   -6.7750   22.0220  -31.7740 C   0  0  0  0  0  0  0  0  0  0  0  0
   -6.3280   23.3040  -31.1920 C   0  0  0  0  0  0  0  0  0  0  0  0
   -5.0350   23.8080  -31.4120 C   0  0  0  0  0  0  0  0  0  0  0  0
   -4.6740   24.9930  -30.8540 N   0  0  0  0  0  0  0  0  0  0  0  0
   -5.5400   25.7040  -30.0850 C   0  0  0  0  0  0  0  0  0  0  0  0
   -6.8240   25.2090  -29.8630 C   0  0  0  0  0  0  0  0  0  0  0  0
   -7.1880   24.0240  -30.4200 N   0  0  0  0  0  0  0  0  0  0  0  0
   -8.0830   21.6180  -31.9650 C   0  0  0  0  0  0  0  0  0  0  0  0
   -8.0920   20.3860  -32.5090 N   0  0  0  0  0  0  0  0  0  0  0  0
   -6.8340   17.5320  -32.5600 C   0  0  0  0  0  0  0  0  0  0  0  0
   -6.4820   16.2840  -33.0840 C   0  0  0  0  0  0  0  0  0  0  0  0
   -4.8266   17.3051  -35.8903 H   0  0  0  0  0  0  0  0  0  0  0  0
   -5.4474   19.5345  -34.9668 H   0  0  0  0  0  0  0  0  0  0  0  0
   -4.9068   20.9284  -32.2350 H   0  0  0  0  0  0  0  0  0  0  0  0
   -4.3200   23.2470  -32.0317 H   0  0  0  0  0  0  0  0  0  0  0  0
   -5.2304   26.6619  -29.6416 H   0  0  0  0  0  0  0  0  0  0  0  0
   -7.5363   25.7725  -29.2425 H   0  0  0  0  0  0  0  0  0  0  0  0
   -8.9755   22.2093  -31.7126 H   0  0  0  0  0  0  0  0  0  0  0  0
   -7.4053   17.5881  -31.6216 H   0  0  0  0  0  0  0  0  0  0  0  0
   -6.7746   15.3645  -32.5559 H   0  0  0  0  0  0  0  0  0  0  0  0
  1  2  1  0
  2  3  2  0
  3  4  1  0
  4  5  2  0
  5  6  1  0
  6  7  1  0
  7  8  2  0
  8  9  1  0
  9 10  2  0
 10 11  1  0
 11 12  2  0
 12 13  1  0
 13 14  2  0
  8 15  1  0
 15 16  2  0
  5 17  1  0
 17 18  2  0
 18  2  1  0
 16  6  1  0
 14  9  1  0
  3 19  1  0
  4 20  1  0
  7 21  1  0
 10 22  1  0
 12 23  1  0
 13 24  1  0
 15 25  1  0
 17 26  1  0
 18 27  1  0
M  END
>  <UniqueID>  (7) 
7

>  <SMILES>  (7) 
Fc1ccc(-n2cc(-c3cnccn3)cn2)cc1

>  <Energy>  (7) 
65.29186392343628

>  <Genealogy>  (7) 
Fc1ccc(-n2cc(-c3cnccn3)cn2)cc1 (3D coordinates assigned)
Fc1ccc(-n2cc(-c3cnccn3)cn2)cc1 (optimized conformer: 65.29186392343628 kcal/mol)

>  <smiles>  (7) 
Fc1ccc(-n2cc(-c3cnccn3)cn2)cc1

>  <score_type>  (7) 
oracle

>  <origin>  (7) 
adgpu

>  <m_score__min__energy>  (7) 
-6.6399999999999997

>  <m_primary>  (7) 
energy

$$$$
7:0
     RDKit          3D

 35 37  0  0  0  0  0  0  0  0999 V2000
   -1.0193   25.1737  -26.4431 H   0  0  0  0  0  0  0  0  0  0  0  0
   -1.8590   24.8980  -27.0980 C   0  0  0  0  0  0  0  0  0  0  0  0
   -3.1580   24.8530  -26.5870 C   0  0  0  0  0  0  0  0  0  0  0  0
   -3.3407   25.0973  -25.5302 H   0  0  0  0  0  0  0  0  0  0  0  0
   -4.2270   24.4980  -27.4160 C   0  0  0  0  0  0  0  0  0  0  0  0
   -5.2481   24.4682  -27.0080 H   0  0  0  0  0  0  0  0  0  0  0  0
   -4.0050   24.1780  -28.7710 C   0  0  0  0  0  0  0  0  0  0  0  0
   -5.1270   23.8070  -29.6720 C   0  0  0  0  0  0  0  0  0  0  0  0
   -5.8630   22.6950  -29.4020 N   0  0  0  0  0  0  0  0  0  0  0  0
   -6.8840   22.3100  -30.1700 N   0  0  0  0  0  0  0  0  0  0  0  0
   -7.3990   21.4480  -29.8900 H   0  0  0  0  0  0  0  0  0  0  0  0
   -7.2440   23.0260  -31.2790 C   0  0  0  0  0  0  0  0  0  0  0  0
   -8.2330   22.6650  -32.0490 N   0  0  0  0  0  0  0  0  0  0  0  0
   -9.0820   21.4820  -31.8970 C   0  0  0  0  0  0  0  0  0  0  0  0
   -9.9510   21.5738  -32.5651 H   0  0  0  0  0  0  0  0  0  0  0  0
   -9.4093   21.4159  -30.8489 H   0  0  0  0  0  0  0  0  0  0  0  0
   -8.3220   20.2280  -32.2450 C   0  0  0  0  0  0  0  0  0  0  0  0
   -7.2120   20.2800  -33.1050 C   0  0  0  0  0  0  0  0  0  0  0  0
   -6.8988   21.2419  -33.5371 H   0  0  0  0  0  0  0  0  0  0  0  0
   -6.5040   19.1150  -33.4140 C   0  0  0  0  0  0  0  0  0  0  0  0
   -5.6395   19.1612  -34.0926 H   0  0  0  0  0  0  0  0  0  0  0  0
   -6.8930   17.8920  -32.8620 C   0  0  0  0  0  0  0  0  0  0  0  0
   -6.3363   16.9758  -33.1083 H   0  0  0  0  0  0  0  0  0  0  0  0
   -7.9890   17.8320  -31.9970 C   0  0  0  0  0  0  0  0  0  0  0  0
   -8.2934   16.8689  -31.5613 H   0  0  0  0  0  0  0  0  0  0  0  0
   -8.6990   18.9960  -31.6850 C   0  0  0  0  0  0  0  0  0  0  0  0
   -9.5566   18.9465  -30.9979 H   0  0  0  0  0  0  0  0  0  0  0  0
   -6.5320   24.1830  -31.5960 C   0  0  0  0  0  0  0  0  0  0  0  0
   -6.8096   24.7783  -32.4784 H   0  0  0  0  0  0  0  0  0  0  0  0
   -5.4680   24.5810  -30.7900 C   0  0  0  0  0  0  0  0  0  0  0  0
   -4.9012   25.4931  -31.0282 H   0  0  0  0  0  0  0  0  0  0  0  0
   -2.6920   24.2390  -29.2740 C   0  0  0  0  0  0  0  0  0  0  0  0
   -2.5020   24.0062  -30.3322 H   0  0  0  0  0  0  0  0  0  0  0  0
   -1.6270   24.5930  -28.4400 C   0  0  0  0  0  0  0  0  0  0  0  0
   -0.6040   24.6312  -28.8425 H   0  0  0  0  0  0  0  0  0  0  0  0
  1  2  1  0
  2  3  2  0
  3  4  1  0
  3  5  1  0
  5  6  1  0
  5  7  2  0
  7  8  1  0
  8  9  2  0
  9 10  1  0
 10 11  1  0
 10 12  1  0
 12 13  2  0
 13 14  1  0
 14 15  1  0
 14 16  1  0
 14 17  1  0
 17 18  2  0
 18 19  1  0
 18 20  1  0
 20 21  1  0
 20 22  2  0
 22 23  1  0
 22 24  1  0
 24 25  1  0
 24 26  2  0
 26 27  1  0
 12 28  1  0
 28 29  1  0
 28 30  2  0
 30 31  1  0
  7 32  1  0
 32 33  1  0
 32 34  2  0
 34 35  1  0
 34  2  1  0
 30  8  1  0
 26 17  1  0
M  END
>  <UniqueID>  (8) 
8

>  <SMILES>  (8) 
c1ccc(C/N=c2/ccc(-c3ccccc3)n[nH]2)cc1

>  <Energy>  (8) 
43.44487806080977

>  <Genealogy>  (8) 
c1ccc(C/N=c2/ccc(-c3ccccc3)n[nH]2)cc1 (cis-trans isomerization)
c1ccc(C/N=c2/ccc(-c3ccccc3)n[nH]2)cc1 (3D coordinates assigned)
c1ccc(C/N=c2/ccc(-c3ccccc3)n[nH]2)cc1 (optimized conformer: 43.44487806080977 kcal/mol)

>  <smiles>  (8) 
c1ccc(CN=c2ccc(-c3ccccc3)n[nH]2)cc1

>  <score_type>  (8) 
oracle

>  <origin>  (8) 
adgpu

>  <m_score__min__energy>  (8) 
-7.5499999999999998

>  <m_primary>  (8) 
energy

$$$$
8:0
     RDKit          3D

 39 41  0  0  0  0  0  0  0  0999 V2000
   -4.6330   21.5900  -32.8300 C   0  0  0  0  0  0  0  0  0  0  0  0
   -5.7230   22.2490  -32.1110 N   0  0  0  0  0  0  0  0  0  0  0  0
   -7.0280   21.8640  -32.0230 C   0  0  0  0  0  0  0  0  0  0  0  0
   -7.6140   20.6610  -32.6500 C   0  0  0  0  0  0  0  0  0  0  0  0
   -8.7870   20.3060  -32.3600 O   0  0  0  0  0  0  0  0  0  0  0  0
   -6.8450   19.9400  -33.6300 N   0  0  0  0  0  0  0  0  0  0  0  0
   -6.3730   18.7250  -33.5740 C   0  0  0  0  0  0  0  0  0  0  0  0
   -5.7240   18.1940  -34.8250 C   0  0  0  0  0  0  0  0  0  0  0  0
   -4.8640   16.9420  -34.5970 C   0  0  0  0  0  0  0  0  0  0  0  0
   -5.4800   15.9800  -33.6630 N   0  0  0  0  0  0  0  0  0  0  0  0
   -6.7200   15.3830  -34.1960 C   0  0  0  0  0  0  0  0  0  0  0  0
   -5.6730   16.5950  -32.3370 C   0  0  0  0  0  0  0  0  0  0  0  0
   -6.5790   17.8370  -32.3640 C   0  0  0  0  0  0  0  0  0  0  0  0
   -7.7570   22.7730  -31.2510 C   0  0  0  0  0  0  0  0  0  0  0  0
   -6.8480   23.7330  -30.8660 C   0  0  0  0  0  0  0  0  0  0  0  0
   -6.9930   24.8800  -30.0940 C   0  0  0  0  0  0  0  0  0  0  0  0
   -5.8500   25.6680  -29.8850 C   0  0  0  0  0  0  0  0  0  0  0  0
   -4.6150   25.2790  -30.4510 C   0  0  0  0  0  0  0  0  0  0  0  0
   -4.5250   24.1400  -31.2040 N   0  0  0  0  0  0  0  0  0  0  0  0
   -5.6390   23.3880  -31.3990 C   0  0  0  0  0  0  0  0  0  0  0  0
   -3.9235   21.1610  -32.1071 H   0  0  0  0  0  0  0  0  0  0  0  0
   -5.0426   20.7881  -33.4618 H   0  0  0  0  0  0  0  0  0  0  0  0
   -4.1132   22.3253  -33.4618 H   0  0  0  0  0  0  0  0  0  0  0  0
   -6.5158   17.9436  -35.5464 H   0  0  0  0  0  0  0  0  0  0  0  0
   -5.0501   18.9813  -35.1938 H   0  0  0  0  0  0  0  0  0  0  0  0
   -4.7104   16.4416  -35.5645 H   0  0  0  0  0  0  0  0  0  0  0  0
   -3.9150   17.2725  -34.1496 H   0  0  0  0  0  0  0  0  0  0  0  0
   -4.7970   15.1940  -33.5400 H   0  0  0  0  0  0  0  0  0  0  0  0
   -7.3655   15.0722  -33.3613 H   0  0  0  0  0  0  0  0  0  0  0  0
   -7.2489   16.1252  -34.8120 H   0  0  0  0  0  0  0  0  0  0  0  0
   -6.4697   14.5067  -34.8120 H   0  0  0  0  0  0  0  0  0  0  0  0
   -6.1262   15.8477  -31.6690 H   0  0  0  0  0  0  0  0  0  0  0  0
   -4.6838   16.9232  -31.9850 H   0  0  0  0  0  0  0  0  0  0  0  0
   -7.6264   17.5011  -32.3560 H   0  0  0  0  0  0  0  0  0  0  0  0
   -6.3198   18.4387  -31.4804 H   0  0  0  0  0  0  0  0  0  0  0  0
   -8.8280   22.7305  -31.0038 H   0  0  0  0  0  0  0  0  0  0  0  0
   -7.9659   25.1594  -29.6634 H   0  0  0  0  0  0  0  0  0  0  0  0
   -5.9156   26.5858  -29.2822 H   0  0  0  0  0  0  0  0  0  0  0  0
   -3.7197   25.8962  -30.2851 H   0  0  0  0  0  0  0  0  0  0  0  0
  1  2  1  0
  2  3  1  0
  3  4  1  0
  4  5  2  0
  4  6  1  0
  6  7  2  3
  7  8  1  0
  8  9  1  0
  9 10  1  0
 10 11  1  0
 10 12  1  0
 12 13  1  0
  3 14  2  0
 14 15  1  0
 15 16  2  0
 16 17  1  0
 17 18  2  0
 18 19  1  0
 19 20  2  0
 20  2  1  0
 13  7  1  0
 20 15  1  0
  1 21  1  0
  1 22  1  0
  1 23  1  0
  8 24  1  0
  8 25  1  0
  9 26  1  0
  9 27  1  0
 10 28  1  0
 11 29  1  0
 11 30  1  0
 11 31  1  0
 12 32  1  0
 12 33  1  0
 13 34  1  0
 13 35  1  0
 14 36  1  0
 16 37  1  0
 17 38  1  0
 18 39  1  0
M  CHG  1  10   1
M  END
>  <UniqueID>  (9) 
9

>  <SMILES>  (9) 
Cn1c(C(=O)N=C2CC[NH+](C)CC2)cc2cccnc21

>  <Energy>  (9) 
83.32325587943984

>  <Genealogy>  (9) 
Cn1c(C(=O)N=C2CC[NH+](C)CC2)cc2cccnc21 (protonated)
Cn1c(C(=O)N=C2CC[NH+](C)CC2)cc2cccnc21 (3D coordinates assigned)
Cn1c(C(=O)N=C2CC[NH+](C)CC2)cc2cccnc21 (nonaromatic ring conformer: 83.32325587943984 kcal/mol)

>  <smiles>  (9) 
CN1CCC(=NC(=O)c2cc3cccnc3n2C)CC1

>  <score_type>  (9) 
oracle

>  <origin>  (9) 
adgpu

>  <m_score__min__energy>  (9) 
-7.4000000000000004

>  <m_primary>  (9) 
energy

$$$$
9:0
     RDKit          3D

 51 54  0  0  0  0  0  0  0  0999 V2000
   -5.8200   19.0520  -34.3150 C   0  0  0  0  0  0  0  0  0  0  0  0
   -4.9810   19.4330  -33.0650 C   0  0  1  0  0  0  0  0  0  0  0  0
   -3.6830   18.5550  -33.0710 C   0  0  0  0  0  0  0  0  0  0  0  0
   -2.5520   19.2020  -33.8790 C   0  0  0  0  0  0  0  0  0  0  0  0
   -2.1050   20.5350  -33.2390 C   0  0  1  0  0  0  0  0  0  0  0  0
   -1.5200   21.3700  -34.2070 O   0  0  0  0  0  0  0  0  0  0  0  0
   -3.2460   21.2640  -32.4860 C   0  0  0  0  0  0  0  0  0  0  0  0
   -4.6400   20.9690  -33.0970 C   0  0  2  0  0  0  0  0  0  0  0  0
   -5.7880   21.8940  -32.5430 C   0  0  2  0  0  0  0  0  0  0  0  0
   -5.4280   22.7680  -31.3300 C   0  0  0  0  0  0  0  0  0  0  0  0
   -4.9800   22.2270  -30.1070 C   0  0  0  0  0  0  0  0  0  0  0  0
   -4.6730   23.0590  -29.0280 C   0  0  0  0  0  0  0  0  0  0  0  0
   -4.8040   24.4420  -29.1470 C   0  0  0  0  0  0  0  0  0  0  0  0
   -5.2420   24.9980  -30.3490 C   0  0  0  0  0  0  0  0  0  0  0  0
   -5.3680   26.3430  -30.4680 F   0  0  0  0  0  0  0  0  0  0  0  0
   -5.5510   24.1700  -31.4320 C   0  0  0  0  0  0  0  0  0  0  0  0
   -7.0810   21.1760  -32.4000 N   0  0  0  0  0  0  0  0  0  0  0  0
   -8.2130   22.0720  -32.0570 C   0  0  0  0  0  0  0  0  0  0  0  0
   -9.5300   21.3000  -31.8380 C   0  0  0  0  0  0  0  0  0  0  0  0
   -9.4870   19.9250  -32.5000 C   0  0  0  0  0  0  0  0  0  0  0  0
   -8.3280   19.0810  -31.9460 C   0  0  0  0  0  0  0  0  0  0  0  0
   -7.0740   19.9320  -31.5950 C   0  0  1  0  0  0  0  0  0  0  0  0
   -5.7780   19.0980  -31.7800 C   0  0  0  0  0  0  0  0  0  0  0  0
   -6.7782   18.6169  -33.9948 H   0  0  0  0  0  0  0  0  0  0  0  0
   -6.0094   19.9524  -34.9178 H   0  0  0  0  0  0  0  0  0  0  0  0
   -5.2667   18.3168  -34.9178 H   0  0  0  0  0  0  0  0  0  0  0  0
   -3.3436   18.4168  -32.0338 H   0  0  0  0  0  0  0  0  0  0  0  0
   -3.9280   17.5920  -33.5428 H   0  0  0  0  0  0  0  0  0  0  0  0
   -1.6946   18.5137  -33.9120 H   0  0  0  0  0  0  0  0  0  0  0  0
   -2.9211   19.4079  -34.8946 H   0  0  0  0  0  0  0  0  0  0  0  0
   -1.3518   20.2860  -32.4770 H   0  0  0  0  0  0  0  0  0  0  0  0
   -2.2390   21.9390  -34.5880 H   0  0  0  0  0  0  0  0  0  0  0  0
   -3.2434   20.9347  -31.4364 H   0  0  0  0  0  0  0  0  0  0  0  0
   -3.0653   22.3458  -32.5694 H   0  0  0  0  0  0  0  0  0  0  0  0
   -4.5756   21.2443  -34.1600 H   0  0  0  0  0  0  0  0  0  0  0  0
   -5.9263   22.6422  -33.3374 H   0  0  0  0  0  0  0  0  0  0  0  0
   -4.8711   21.1375  -30.0017 H   0  0  0  0  0  0  0  0  0  0  0  0
   -4.3264   22.6213  -28.0802 H   0  0  0  0  0  0  0  0  0  0  0  0
   -4.5623   25.0936  -28.2944 H   0  0  0  0  0  0  0  0  0  0  0  0
   -5.8946   24.6173  -32.3764 H   0  0  0  0  0  0  0  0  0  0  0  0
   -7.9652   22.6163  -31.1338 H   0  0  0  0  0  0  0  0  0  0  0  0
   -8.3643   22.7591  -32.9026 H   0  0  0  0  0  0  0  0  0  0  0  0
   -9.6944   21.1721  -30.7579 H   0  0  0  0  0  0  0  0  0  0  0  0
  -10.3489   21.8771  -32.2921 H   0  0  0  0  0  0  0  0  0  0  0  0
  -10.4359   19.4033  -32.3068 H   0  0  0  0  0  0  0  0  0  0  0  0
   -9.3346   20.0618  -33.5808 H   0  0  0  0  0  0  0  0  0  0  0  0
   -8.6709   18.5687  -31.0350 H   0  0  0  0  0  0  0  0  0  0  0  0
   -8.0343   18.3679  -32.7303 H   0  0  0  0  0  0  0  0  0  0  0  0
   -7.1028   20.2242  -30.5349 H   0  0  0  0  0  0  0  0  0  0  0  0
   -5.1255   19.2790  -30.9132 H   0  0  0  0  0  0  0  0  0  0  0  0
   -6.0904   18.0470  -31.8687 H   0  0  0  0  0  0  0  0  0  0  0  0
  2  1  1  6
  2  3  1  0
  3  4  1  0
  4  5  1  0
  5  6  1  0
  5  7  1  0
  7  8  1  0
  8  9  1  0
  9 10  1  0
 10 11  2  0
 11 12  1  0
 12 13  2  0
 13 14  1  0
 14 15  1  0
 14 16  2  0
  9 17  1  0
 17 18  1  0
 18 19  1  0
 19 20  1  0
 20 21  1  0
 21 22  1  0
 22 23  1  0
  8  2  1  0
 16 10  1  0
 22 17  1  0
 23  2  1  0
  1 24  1  0
  1 25  1  0
  1 26  1  0
  3 27  1  0
  3 28  1  0
  4 29  1  0
  4 30  1  0
  5 31  1  1
  6 32  1  0
  7 33  1  0
  7 34  1  0
  8 35  1  6
  9 36  1  6
 11 37  1  0
 12 38  1  0
 13 39  1  0
 16 40  1  0
 18 41  1  0
 18 42  1  0
 19 43  1  0
 19 44  1  0
 20 45  1  0
 20 46  1  0
 21 47  1  0
 21 48  1  0
 22 49  1  1
 23 50  1  0
 23 51  1  0
M  END
>  <UniqueID>  (10) 
10

>  <SMILES>  (10) 
C[C@@]12CC[C@@H](O)CC1C(c1cccc(F)c1)N1CCCCC1C2

>  <Energy>  (10) 
84.30678920030219

>  <Genealogy>  (10) 
C[C@@]12CC[C@@H](O)CC1C(c1cccc(F)c1)N1CCCCC1C2 (chirality)
C[C@@]12CC[C@@H](O)CC1C(c1cccc(F)c1)N1CCCCC1C2 (3D coordinates assigned)
C[C@@]12CC[C@@H](O)CC1C(c1cccc(F)c1)N1CCCCC1C2 (nonaromatic ring conformer: 84.30678920030219 kcal/mol)

>  <smiles>  (10) 
CC12CCC(O)CC1C(c1cccc(F)c1)N1CCCCC1C2

>  <score_type>  (10) 
oracle

>  <origin>  (10) 
adgpu

>  <m_score__min__energy>  (10) 
-9.5899999999999999

>  <m_primary>  (10) 
energy

$$$$
10:0
     RDKit          3D

 55 57  0  0  0  0  0  0  0  0999 V2000
   -8.5260   22.6540  -31.6240 C   0  0  0  0  0  0  0  0  0  0  0  0
   -7.9380   21.5650  -32.3300 O   0  0  0  0  0  0  0  0  0  0  0  0
   -6.5590   21.3760  -32.5020 C   0  0  0  0  0  0  0  0  0  0  0  0
   -5.6390   22.4360  -32.3870 C   0  0  0  0  0  0  0  0  0  0  0  0
   -4.2730   22.2050  -32.5510 C   0  0  0  0  0  0  0  0  0  0  0  0
   -3.8000   20.9200  -32.8520 C   0  0  0  0  0  0  0  0  0  0  0  0
   -2.3400   20.6830  -32.9760 C   0  0  0  0  0  0  0  0  0  0  0  0
   -1.7840   20.7010  -34.2220 N   0  0  0  0  0  0  0  0  0  0  0  0
   -0.4470   20.5270  -34.4000 C   0  0  0  0  0  0  0  0  0  0  0  0
    0.2010   20.5520  -35.9010 S   0  0  0  0  0  0  0  0  0  0  0  0
    0.3630   20.3520  -33.3280 N   0  0  0  0  0  0  0  0  0  0  0  0
   -0.1250   20.3250  -32.0610 C   0  0  0  0  0  0  0  0  0  0  0  0
    0.8480   20.1080  -30.9380 C   0  0  0  0  0  0  0  0  0  0  0  0
   -1.5150   20.4490  -31.8480 C   0  0  0  0  0  0  0  0  0  0  0  0
   -2.2240   20.2960  -30.1870 S   0  0  0  0  0  0  0  0  0  0  0  0
   -1.9690   22.0220  -29.7620 C   0  0  0  0  0  0  0  0  0  0  0  0
   -2.9550   22.9700  -30.0390 C   0  0  0  0  0  0  0  0  0  0  0  0
   -2.7520   24.3240  -29.7210 C   0  0  0  0  0  0  0  0  0  0  0  0
   -3.7310   25.3000  -29.9790 O   0  0  0  0  0  0  0  0  0  0  0  0
   -5.1280   25.0420  -30.0730 C   0  0  0  0  0  0  0  0  0  0  0  0
   -1.5390   24.7350  -29.1420 C   0  0  0  0  0  0  0  0  0  0  0  0
   -1.3900   26.1130  -28.8910 O   0  0  0  0  0  0  0  0  0  0  0  0
   -0.8660   26.6960  -27.7010 C   0  0  0  0  0  0  0  0  0  0  0  0
   -0.5390   23.7730  -28.8460 C   0  0  0  0  0  0  0  0  0  0  0  0
    0.6440   24.1700  -28.2090 O   0  0  0  0  0  0  0  0  0  0  0  0
    1.0650   23.7320  -26.9200 C   0  0  0  0  0  0  0  0  0  0  0  0
   -0.7670   22.4240  -29.1820 C   0  0  0  0  0  0  0  0  0  0  0  0
   -4.7120   19.8600  -32.9510 C   0  0  0  0  0  0  0  0  0  0  0  0
   -6.0950   20.0830  -32.7900 C   0  0  0  0  0  0  0  0  0  0  0  0
   -7.0370   19.0460  -32.9020 O   0  0  0  0  0  0  0  0  0  0  0  0
   -7.9130   18.6340  -31.8540 C   0  0  0  0  0  0  0  0  0  0  0  0
   -8.4332   22.4821  -30.5415 H   0  0  0  0  0  0  0  0  0  0  0  0
   -8.0091   23.5871  -31.8927 H   0  0  0  0  0  0  0  0  0  0  0  0
   -9.5897   22.7336  -31.8927 H   0  0  0  0  0  0  0  0  0  0  0  0
   -5.9994   23.4516  -32.1667 H   0  0  0  0  0  0  0  0  0  0  0  0
   -3.5618   23.0372  -32.4433 H   0  0  0  0  0  0  0  0  0  0  0  0
   -2.3910   20.8660  -35.0590 H   0  0  0  0  0  0  0  0  0  0  0  0
    0.3286   20.2238  -29.9753 H   0  0  0  0  0  0  0  0  0  0  0  0
    1.2686   19.0940  -31.0080 H   0  0  0  0  0  0  0  0  0  0  0  0
    1.6596   20.8472  -31.0080 H   0  0  0  0  0  0  0  0  0  0  0  0
   -3.8981   22.6552  -30.5097 H   0  0  0  0  0  0  0  0  0  0  0  0
   -5.5551   24.9631  -29.0624 H   0  0  0  0  0  0  0  0  0  0  0  0
   -5.6172   25.8650  -30.6146 H   0  0  0  0  0  0  0  0  0  0  0  0
   -5.2910   24.0986  -30.6146 H   0  0  0  0  0  0  0  0  0  0  0  0
   -1.3101   26.2019  -26.8243 H   0  0  0  0  0  0  0  0  0  0  0  0
    0.2263   26.5677  -27.6800 H   0  0  0  0  0  0  0  0  0  0  0  0
   -1.1097   27.7685  -27.6800 H   0  0  0  0  0  0  0  0  0  0  0  0
    0.5232   24.2956  -26.1462 H   0  0  0  0  0  0  0  0  0  0  0  0
    0.8508   22.6587  -26.8094 H   0  0  0  0  0  0  0  0  0  0  0  0
    2.1459   23.9035  -26.8094 H   0  0  0  0  0  0  0  0  0  0  0  0
    0.0154   21.6767  -28.9836 H   0  0  0  0  0  0  0  0  0  0  0  0
   -4.3449   18.8436  -33.1564 H   0  0  0  0  0  0  0  0  0  0  0  0
   -7.4488   18.8523  -30.8810 H   0  0  0  0  0  0  0  0  0  0  0  0
   -8.8651   19.1787  -31.9365 H   0  0  0  0  0  0  0  0  0  0  0  0
   -8.1006   17.5533  -31.9365 H   0  0  0  0  0  0  0  0  0  0  0  0
  1  2  1  0
  2  3  1  0
  3  4  2  0
  4  5  1  0
  5  6  2  0
  6  7  1  0
  7  8  1  0
  8  9  1  0
  9 10  2  0
  9 11  1  0
 11 12  2  0
 12 13  1  0
 12 14  1  0
 14 15  1  0
 15 16  1  0
 16 17  2  0
 17 18  1  0
 18 19  1  0
 19 20  1  0
 18 21  2  0
 21 22  1  0
 22 23  1  0
 21 24  1  0
 24 25  1  0
 25 26  1  0
 24 27  2  0
  6 28  1  0
 28 29  2  0
 29 30  1  0
 30 31  1  0
 29  3  1  0
 14  7  2  0
 27 16  1  0
  1 32  1  0
  1 33  1  0
  1 34  1  0
  4 35  1  0
  5 36  1  0
  8 37  1  0
 13 38  1  0
 13 39  1  0
 13 40  1  0
 17 41  1  0
 20 42  1  0
 20 43  1  0
 20 44  1  0
 23 45  1  0
 23 46  1  0
 23 47  1  0
 26 48  1  0
 26 49  1  0
 26 50  1  0
 27 51  1  0
 28 52  1  0
 31 53  1  0
 31 54  1  0
 31 55  1  0
M  END
>  <UniqueID>  (11) 
11

>  <SMILES>  (11) 
COc1ccc(-c2[nH]c(=S)nc(C)c2Sc2cc(OC)c(OC)c(OC)c2)cc1OC

>  <Energy>  (11) 
59.13165458996424

>  <Genealogy>  (11) 
COc1ccc(-c2[nH]c(=S)nc(C)c2Sc2cc(OC)c(OC)c(OC)c2)cc1OC (3D coordinates assigned)
COc1ccc(-c2[nH]c(=S)nc(C)c2Sc2cc(OC)c(OC)c(OC)c2)cc1OC (optimized conformer: 59.13165458996424 kcal/mol)

>  <smiles>  (11) 
COc1ccc(-c2[nH]c(=S)nc(C)c2Sc2cc(OC)c(OC)c(OC)c2)cc1OC

>  <score_type>  (11) 
oracle

>  <origin>  (11) 
adgpu

>  <m_score__min__energy>  (11) 
-8.8599999999999994

>  <m_primary>  (11) 
energy

$$$$
11:0
     RDKit          3D

 25 26  0  0  0  0  0  0  0  0999 V2000
   -6.5390   15.3580  -34.2050 C   0  0  0  0  0  0  0  0  0  0  0  0
   -6.4040   16.8160  -33.9270 C   0  0  0  0  0  0  0  0  0  0  0  0
   -5.6560   17.6530  -34.6800 N   0  0  0  0  0  0  0  0  0  0  0  0
   -5.7510   18.9410  -34.2560 C   0  0  0  0  0  0  0  0  0  0  0  0
   -6.5970   19.1380  -33.1660 C   0  0  0  0  0  0  0  0  0  0  0  0
   -6.8890   20.4140  -32.4900 C   0  0  0  0  0  0  0  0  0  0  0  0
   -7.8920   20.4890  -31.7310 O   0  0  0  0  0  0  0  0  0  0  0  0
   -6.0710   21.5730  -32.7210 N   0  0  0  0  0  0  0  0  0  0  0  0
   -6.0670   22.7310  -31.8660 C   0  0  0  0  0  0  0  0  0  0  0  0
   -7.2510   23.2150  -31.2800 C   0  0  0  0  0  0  0  0  0  0  0  0
   -7.2150   24.3280  -30.4340 C   0  0  0  0  0  0  0  0  0  0  0  0
   -6.0010   24.9600  -30.1560 C   0  0  0  0  0  0  0  0  0  0  0  0
   -5.9710   26.0380  -29.3340 F   0  0  0  0  0  0  0  0  0  0  0  0
   -4.8160   24.4730  -30.7180 C   0  0  0  0  0  0  0  0  0  0  0  0
   -3.6340   25.0780  -30.4410 F   0  0  0  0  0  0  0  0  0  0  0  0
   -4.8480   23.3590  -31.5630 C   0  0  0  0  0  0  0  0  0  0  0  0
   -7.2360   17.6430  -32.7240 S   0  0  0  0  0  0  0  0  0  0  0  0
   -6.5900   14.8067  -33.2545 H   0  0  0  0  0  0  0  0  0  0  0  0
   -7.4576   15.1784  -34.7828 H   0  0  0  0  0  0  0  0  0  0  0  0
   -5.6690   15.0128  -34.7828 H   0  0  0  0  0  0  0  0  0  0  0  0
   -5.2023   19.7646  -34.7363 H   0  0  0  0  0  0  0  0  0  0  0  0
   -5.5280   21.6250  -33.6110 H   0  0  0  0  0  0  0  0  0  0  0  0
   -8.2089   22.7159  -31.4881 H   0  0  0  0  0  0  0  0  0  0  0  0
   -8.1456   24.7068  -29.9862 H   0  0  0  0  0  0  0  0  0  0  0  0
   -3.9123   22.9722  -31.9930 H   0  0  0  0  0  0  0  0  0  0  0  0
  1  2  1  0
  2  3  2  0
  3  4  1  0
  4  5  2  0
  5  6  1  0
  6  7  2  0
  6  8  1  0
  8  9  1  0
  9 10  2  0
 10 11  1  0
 11 12  2  0
 12 13  1  0
 12 14  1  0
 14 15  1  0
 14 16  2  0
  5 17  1  0
 17  2  1  0
 16  9  1  0
  1 18  1  0
  1 19  1  0
  1 20  1  0
  4 21  1  0
  8 22  1  0
 10 23  1  0
 11 24  1  0
 16 25  1  0
M  END
>  <UniqueID>  (12) 
12

>  <SMILES>  (12) 
Cc1ncc(C(=O)Nc2ccc(F)c(F)c2)s1

>  <Energy>  (12) 
57.296699769705945

>  <Genealogy>  (12) 
Cc1ncc(C(=O)Nc2ccc(F)c(F)c2)s1 (3D coordinates assigned)
Cc1ncc(C(=O)Nc2ccc(F)c(F)c2)s1 (optimized conformer: 57.296699769705945 kcal/mol)

>  <smiles>  (12) 
Cc1ncc(C(=O)Nc2ccc(F)c(F)c2)s1

>  <score_type>  (12) 
oracle

>  <origin>  (12) 
adgpu

>  <m_score__min__energy>  (12) 
-6.3200000000000003

>  <m_primary>  (12) 
energy

$$$$
12:0
     RDKit          3D

 24 25  0  0  0  0  0  0  0  0999 V2000
   -1.8420   25.4380  -28.9670 O   0  0  0  0  0  0  0  0  0  0  0  0
   -2.5030   24.5500  -29.5680 C   0  0  0  0  0  0  0  0  0  0  0  0
   -3.5400   24.9620  -30.4670 N   0  0  0  0  0  0  0  0  0  0  0  0
   -4.7080   24.2030  -30.8130 C   0  0  0  0  0  0  0  0  0  0  0  0
   -4.6260   23.0260  -31.5840 C   0  0  0  0  0  0  0  0  0  0  0  0
   -3.4280   22.5450  -31.9990 F   0  0  0  0  0  0  0  0  0  0  0  0
   -5.7870   22.3090  -31.8930 C   0  0  0  0  0  0  0  0  0  0  0  0
   -7.0280   22.7450  -31.4230 C   0  0  0  0  0  0  0  0  0  0  0  0
   -7.1120   23.8940  -30.6330 C   0  0  0  0  0  0  0  0  0  0  0  0
   -5.9550   24.6150  -30.3200 C   0  0  0  0  0  0  0  0  0  0  0  0
   -6.0500   25.7300  -29.5510 F   0  0  0  0  0  0  0  0  0  0  0  0
   -2.1330   23.1220  -29.4190 C   0  0  0  0  0  0  0  0  0  0  0  0
   -1.0900   22.6430  -30.1530 N   0  0  0  0  0  0  0  0  0  0  0  0
   -0.6780   21.3510  -30.0740 C   0  0  0  0  0  0  0  0  0  0  0  0
   -1.3250   20.4630  -29.2170 C   0  0  0  0  0  0  0  0  0  0  0  0
   -2.3980   20.9160  -28.4520 C   0  0  0  0  0  0  0  0  0  0  0  0
   -2.8160   22.2480  -28.5420 C   0  0  0  0  0  0  0  0  0  0  0  0
   -4.2170   22.7460  -27.5990 Cl  0  0  0  0  0  0  0  0  0  0  0  0
   -5.7223   21.3992  -32.5079 H   0  0  0  0  0  0  0  0  0  0  0  0
   -7.9396   22.1833  -31.6751 H   0  0  0  0  0  0  0  0  0  0  0  0
   -8.0888   24.2320  -30.2568 H   0  0  0  0  0  0  0  0  0  0  0  0
    0.1673   21.0054  -30.6872 H   0  0  0  0  0  0  0  0  0  0  0  0
   -0.9927   19.4169  -29.1452 H   0  0  0  0  0  0  0  0  0  0  0  0
   -2.9186   20.2233  -27.7744 H   0  0  0  0  0  0  0  0  0  0  0  0
  1  2  2  0
  2  3  1  0
  3  4  1  0
  4  5  2  0
  5  6  1  0
  5  7  1  0
  7  8  2  0
  8  9  1  0
  9 10  2  0
 10 11  1  0
  2 12  1  0
 12 13  2  0
 13 14  1  0
 14 15  2  0
 15 16  1  0
 16 17  2  0
 17 18  1  0
 10  4  1  0
 17 12  1  0
  7 19  1  0
  8 20  1  0
  9 21  1  0
 14 22  1  0
 15 23  1  0
 16 24  1  0
M  CHG  1   3  -1
M  END
>  <UniqueID>  (13) 
13

>  <SMILES>  (13) 
O=C([N-]c1c(F)cccc1F)c1ncccc1Cl

>  <Energy>  (13) 
35.358114656379676

>  <Genealogy>  (13) 
O=C([N-]c1c(F)cccc1F)c1ncccc1Cl (protonated)
O=C([N-]c1c(F)cccc1F)c1ncccc1Cl (3D coordinates assigned)
O=C([N-]c1c(F)cccc1F)c1ncccc1Cl (optimized conformer: 35.358114656379676 kcal/mol)

>  <smiles>  (13) 
O=C(Nc1c(F)cccc1F)c1ncccc1Cl

>  <score_type>  (13) 
oracle

>  <origin>  (13) 
adgpu

>  <m_score__min__energy>  (13) 
-7.9299999999999997

>  <m_primary>  (13) 
energy

$$$$
13:0
     RDKit          3D

 29 30  0  0  0  0  0  0  0  0999 V2000
    0.1360   21.5000  -28.0340 C   0  0  0  0  0  0  0  0  0  0  0  0
   -1.2670   21.3450  -26.8840 S   0  0  0  0  0  0  0  0  0  0  0  0
   -1.1870   23.0570  -26.3520 C   0  0  0  0  0  0  0  0  0  0  0  0
   -0.3390   23.5730  -24.9990 S   0  0  0  0  0  0  0  0  0  0  0  0
   -0.8140   25.1870  -25.0730 C   0  0  0  0  0  0  0  0  0  0  0  0
   -0.3970   26.2410  -24.1140 C   0  0  0  0  0  0  0  0  0  0  0  0
   -1.1540   27.4560  -24.0200 N   0  0  0  0  0  0  0  0  0  0  0  0
    0.6410   26.0800  -23.3470 N   0  0  0  0  0  0  0  0  0  0  0  0
   -1.6750   25.3320  -26.1620 C   0  0  0  0  0  0  0  0  0  0  0  0
   -1.8870   24.1430  -26.8840 C   0  0  0  0  0  0  0  0  0  0  0  0
   -2.8340   24.0660  -28.0210 C   0  0  0  0  0  0  0  0  0  0  0  0
   -2.3950   23.7030  -29.3060 C   0  0  0  0  0  0  0  0  0  0  0  0
   -3.2990   23.6410  -30.3710 C   0  0  0  0  0  0  0  0  0  0  0  0
   -4.6470   23.9460  -30.1660 C   0  0  0  0  0  0  0  0  0  0  0  0
   -5.7800   23.8680  -31.5050 Cl  0  0  0  0  0  0  0  0  0  0  0  0
   -5.0920   24.3180  -28.8940 C   0  0  0  0  0  0  0  0  0  0  0  0
   -4.1900   24.3820  -27.8270 C   0  0  0  0  0  0  0  0  0  0  0  0
    1.0696   21.6031  -27.4616 H   0  0  0  0  0  0  0  0  0  0  0  0
    0.1916   20.6025  -28.6676 H   0  0  0  0  0  0  0  0  0  0  0  0
   -0.0056   22.3880  -28.6676 H   0  0  0  0  0  0  0  0  0  0  0  0
   -1.9780   27.6330  -24.6350 H   0  0  0  0  0  0  0  0  0  0  0  0
   -0.8840   28.2000  -23.3390 H   0  0  0  0  0  0  0  0  0  0  0  0
    0.9270   26.8280  -22.6760 H   0  0  0  0  0  0  0  0  0  0  0  0
    1.2120   25.2080  -23.3560 H   0  0  0  0  0  0  0  0  0  0  0  0
   -2.1453   26.2892  -26.4314 H   0  0  0  0  0  0  0  0  0  0  0  0
   -1.3341   23.4663  -29.4748 H   0  0  0  0  0  0  0  0  0  0  0  0
   -2.9481   23.3514  -31.3725 H   0  0  0  0  0  0  0  0  0  0  0  0
   -6.1526   24.5606  -28.7321 H   0  0  0  0  0  0  0  0  0  0  0  0
   -4.5440   24.6816  -26.8295 H   0  0  0  0  0  0  0  0  0  0  0  0
  1  2  1  0
  2  3  1  0
  3  4  1  0
  4  5  1  0
  5  6  1  0
  6  7  1  0
  6  8  2  0
  5  9  2  0
  9 10  1  0
 10 11  1  0
 11 12  2  0
 12 13  1  0
 13 14  2  0
 14 15  1  0
 14 16  1  0
 16 17  2  0
 10  3  2  0
 17 11  1  0
  1 18  1  0
  1 19  1  0
  1 20  1  0
  7 21  1  0
  7 22  1  0
  8 23  1  0
  8 24  1  0
  9 25  1  0
 12 26  1  0
 13 27  1  0
 16 28  1  0
 17 29  1  0
M  CHG  1   8   1
M  END
>  <UniqueID>  (14) 
14

>  <SMILES>  (14) 
CSc1sc(C(N)=[NH2+])cc1-c1ccc(Cl)cc1

>  <Energy>  (14) 
57.11578626497927

>  <Genealogy>  (14) 
CSc1sc(C(N)=[NH2+])cc1-c1ccc(Cl)cc1 (protonated)
CSc1sc(C(N)=[NH2+])cc1-c1ccc(Cl)cc1 (3D coordinates assigned)
CSc1sc(C(N)=[NH2+])cc1-c1ccc(Cl)cc1 (optimized conformer: 57.11578626497927 kcal/mol)

>  <smiles>  (14) 
CSc1sc(C(=N)N)cc1-c1ccc(Cl)cc1

>  <score_type>  (14) 
oracle

>  <origin>  (14) 
adgpu

>  <m_score__min__energy>  (14) 
-8.0299999999999994

>  <m_primary>  (14) 
energy

$$$$
14:0
     RDKit          3D

 20 20  0  0  0  0  0  0  0  0999 V2000
   -0.2236   23.4990  -28.3950 H   0  0  0  0  0  0  0  0  0  0  0  0
   -1.1490   23.6060  -28.9800 C   0  0  0  0  0  0  0  0  0  0  0  0
   -1.5860   22.5860  -29.7630 N   0  0  0  0  0  0  0  0  0  0  0  0
   -2.7270   22.6970  -30.4940 C   0  0  0  0  0  0  0  0  0  0  0  0
   -3.0660   21.8606  -31.1229 H   0  0  0  0  0  0  0  0  0  0  0  0
   -3.4670   23.8840  -30.4400 C   0  0  0  0  0  0  0  0  0  0  0  0
   -4.5590   23.9970  -31.1350 N   0  0  0  0  0  0  0  0  0  0  0  0
   -5.4010   25.1900  -31.1470 C   0  0  0  0  0  0  0  0  0  0  0  0
   -6.0940   25.1369  -31.9996 H   0  0  0  0  0  0  0  0  0  0  0  0
   -4.7608   26.0799  -31.2378 H   0  0  0  0  0  0  0  0  0  0  0  0
   -6.2050   25.2840  -29.8470 C   0  0  0  0  0  0  0  0  0  0  0  0
   -7.0654   24.6014  -29.9087 H   0  0  0  0  0  0  0  0  0  0  0  0
   -6.5389   26.3246  -29.7222 H   0  0  0  0  0  0  0  0  0  0  0  0
   -5.3910   24.9200  -28.6850 N   0  0  0  0  0  0  0  0  0  0  0  0
   -4.8840   24.0290  -28.8900 H   0  0  0  0  0  0  0  0  0  0  0  0
   -4.6890   25.6690  -28.4850 H   0  0  0  0  0  0  0  0  0  0  0  0
   -6.0020   24.7750  -27.8480 H   0  0  0  0  0  0  0  0  0  0  0  0
   -3.0250   24.9050  -29.6530 N   0  0  0  0  0  0  0  0  0  0  0  0
   -1.8840   24.7910  -28.9240 C   0  0  0  0  0  0  0  0  0  0  0  0
   -1.5424   25.6261  -28.2947 H   0  0  0  0  0  0  0  0  0  0  0  0
  1  2  1  0
  2  3  1  0
  3  4  2  0
  4  5  1  0
  4  6  1  0
  6  7  2  0
  7  8  1  0
  8  9  1  0
  8 10  1  0
  8 11  1  0
 11 12  1  0
 11 13  1  0
 11 14  1  0
 14 15  1  0
 14 16  1  0
 14 17  1  0
  6 18  1  0
 18 19  1  0
 19 20  1  0
 19  2  2  0
M  CHG  2  14   1  18  -1
M  END
>  <UniqueID>  (15) 
15

>  <SMILES>  (15) 
[NH3+]CC/N=c1/cncc[n-]1

>  <Energy>  (15) 
16.107300619235385

>  <Genealogy>  (15) 
[NH3+]CCN=c1cncc[n-]1 (protonated)
[NH3+]CC/N=c1/cncc[n-]1 (cis-trans isomerization)
[NH3+]CC/N=c1/cncc[n-]1 (3D coordinates assigned)
[NH3+]CC/N=c1/cncc[n-]1 (optimized conformer: 16.107300619235385 kcal/mol)

>  <smiles>  (15) 
NCCN=c1cncc[nH]1

>  <score_type>  (15) 
oracle

>  <origin>  (15) 
adgpu

>  <m_score__min__energy>  (15) 
-4.8700000000000001

>  <m_primary>  (15) 
energy

$$$$
15:0
     RDKit          3D

 46 48  0  0  0  0  0  0  0  0999 V2000
   -1.3560   25.4320  -27.9330 C   0  0  0  0  0  0  0  0  0  0  0  0
   -1.9430   25.3040  -29.2240 O   0  0  0  0  0  0  0  0  0  0  0  0
   -2.5560   24.1370  -29.7070 C   0  0  0  0  0  0  0  0  0  0  0  0
   -2.0120   22.8600  -29.4820 C   0  0  0  0  0  0  0  0  0  0  0  0
   -2.6540   21.7220  -29.9730 C   0  0  0  0  0  0  0  0  0  0  0  0
   -3.8550   21.8340  -30.6820 C   0  0  0  0  0  0  0  0  0  0  0  0
   -4.4810   20.6470  -31.1950 N   0  0  0  0  0  0  0  0  0  0  0  0
   -5.6490   20.6510  -32.0340 C   0  0  0  0  0  0  0  0  0  0  0  0
   -6.1580   21.7420  -32.4090 O   0  0  0  0  0  0  0  0  0  0  0  0
   -6.2710   19.3950  -32.4900 C   0  0  0  0  0  0  0  0  0  0  0  0
   -5.5490   18.3100  -32.8350 N   0  0  0  0  0  0  0  0  0  0  0  0
   -6.4840   17.4080  -33.2070 C   0  0  0  0  0  0  0  0  0  0  0  0
   -6.1680   16.0390  -33.6630 C   0  0  0  0  0  0  0  0  0  0  0  0
   -4.8620   15.5380  -33.5400 C   0  0  0  0  0  0  0  0  0  0  0  0
   -4.5570   14.2440  -33.9720 C   0  0  0  0  0  0  0  0  0  0  0  0
   -5.5560   13.4270  -34.5200 C   0  0  0  0  0  0  0  0  0  0  0  0
   -5.2190   12.0530  -35.0180 C   0  0  0  0  0  0  0  0  0  0  0  0
   -6.8570   13.9300  -34.6610 C   0  0  0  0  0  0  0  0  0  0  0  0
   -7.1630   15.2260  -34.2310 C   0  0  0  0  0  0  0  0  0  0  0  0
   -7.7070   17.8840  -33.1220 O   0  0  0  0  0  0  0  0  0  0  0  0
   -7.6130   19.1190  -32.6940 C   0  0  0  0  0  0  0  0  0  0  0  0
   -8.7910   20.0180  -32.5040 C   0  0  0  0  0  0  0  0  0  0  0  0
   -4.3880   23.1100  -30.9330 C   0  0  0  0  0  0  0  0  0  0  0  0
   -3.7470   24.2640  -30.4400 C   0  0  0  0  0  0  0  0  0  0  0  0
   -4.2580   25.5520  -30.6610 O   0  0  0  0  0  0  0  0  0  0  0  0
   -5.6120   25.9340  -30.4370 C   0  0  0  0  0  0  0  0  0  0  0  0
   -2.1235   25.2646  -27.1630 H   0  0  0  0  0  0  0  0  0  0  0  0
   -0.5542   24.6876  -27.8194 H   0  0  0  0  0  0  0  0  0  0  0  0
   -0.9369   26.4426  -27.8194 H   0  0  0  0  0  0  0  0  0  0  0  0
   -1.0747   22.7572  -28.9155 H   0  0  0  0  0  0  0  0  0  0  0  0
   -2.2123   20.7293  -29.8012 H   0  0  0  0  0  0  0  0  0  0  0  0
   -4.0830   19.7320  -30.8880 H   0  0  0  0  0  0  0  0  0  0  0  0
   -4.0741   16.1677  -33.1010 H   0  0  0  0  0  0  0  0  0  0  0  0
   -3.5283   13.8649  -33.8816 H   0  0  0  0  0  0  0  0  0  0  0  0
   -5.0546   11.3827  -34.1615 H   0  0  0  0  0  0  0  0  0  0  0  0
   -6.0499   11.6704  -35.6289 H   0  0  0  0  0  0  0  0  0  0  0  0
   -4.3053   12.0983  -35.6289 H   0  0  0  0  0  0  0  0  0  0  0  0
   -7.6406   13.3032  -35.1116 H   0  0  0  0  0  0  0  0  0  0  0  0
   -8.1881   15.6102  -34.3383 H   0  0  0  0  0  0  0  0  0  0  0  0
   -8.9753   20.1586  -31.4287 H   0  0  0  0  0  0  0  0  0  0  0  0
   -8.5877   20.9926  -32.9717 H   0  0  0  0  0  0  0  0  0  0  0  0
   -9.6774   19.5647  -32.9717 H   0  0  0  0  0  0  0  0  0  0  0  0
   -5.3135   23.2087  -31.5193 H   0  0  0  0  0  0  0  0  0  0  0  0
   -5.8036   25.9880  -29.3552 H   0  0  0  0  0  0  0  0  0  0  0  0
   -5.7951   26.9189  -30.8914 H   0  0  0  0  0  0  0  0  0  0  0  0
   -6.2828   25.1901  -30.8914 H   0  0  0  0  0  0  0  0  0  0  0  0
  1  2  1  0
  2  3  1  0
  3  4  2  0
  4  5  1  0
  5  6  2  0
  6  7  1  0
  7  8  1  0
  8  9  2  0
  8 10  1  0
 10 11  1  0
 11 12  2  0
 12 13  1  0
 13 14  2  0
 14 15  1  0
 15 16  2  0
 16 17  1  0
 16 18  1  0
 18 19  2  0
 12 20  1  0
 20 21  1  0
 21 22  1  0
  6 23  1  0
 23 24  2  0
 24 25  1  0
 25 26  1  0
 24  3  1  0
 21 10  2  0
 19 13  1  0
  1 27  1  0
  1 28  1  0
  1 29  1  0
  4 30  1  0
  5 31  1  0
  7 32  1  0
 14 33  1  0
 15 34  1  0
 17 35  1  0
 17 36  1  0
 17 37  1  0
 18 38  1  0
 19 39  1  0
 22 40  1  0
 22 41  1  0
 22 42  1  0
 23 43  1  0
 26 44  1  0
 26 45  1  0
 26 46  1  0
M  END
>  <UniqueID>  (16) 
16

>  <SMILES>  (16) 
COc1ccc(NC(=O)c2nc(-c3ccc(C)cc3)oc2C)cc1OC

>  <Energy>  (16) 
82.01732744315782

>  <Genealogy>  (16) 
COc1ccc(NC(=O)c2nc(-c3ccc(C)cc3)oc2C)cc1OC (3D coordinates assigned)
COc1ccc(NC(=O)c2nc(-c3ccc(C)cc3)oc2C)cc1OC (optimized conformer: 82.01732744315782 kcal/mol)

>  <smiles>  (16) 
COc1ccc(NC(=O)c2nc(-c3ccc(C)cc3)oc2C)cc1OC

>  <score_type>  (16) 
oracle

>  <origin>  (16) 
adgpu

>  <m_score__min__energy>  (16) 
-8.0700000000000003

>  <m_primary>  (16) 
energy

$$$$
16:0
     RDKit          3D

 30 32  0  0  0  0  0  0  0  0999 V2000
   -7.1592   25.6905  -31.0963 H   0  0  0  0  0  0  0  0  0  0  0  0
   -6.4260   24.9160  -30.8270 C   0  0  0  0  0  0  0  0  0  0  0  0
   -5.6930   25.0310  -29.6420 C   0  0  0  0  0  0  0  0  0  0  0  0
   -5.8436   25.8994  -28.9838 H   0  0  0  0  0  0  0  0  0  0  0  0
   -4.7680   24.0410  -29.2940 C   0  0  0  0  0  0  0  0  0  0  0  0
   -3.8640   24.1730  -27.7960 Cl  0  0  0  0  0  0  0  0  0  0  0  0
   -4.5690   22.9410  -30.1370 C   0  0  0  0  0  0  0  0  0  0  0  0
   -3.8550   22.1542  -29.8521 H   0  0  0  0  0  0  0  0  0  0  0  0
   -5.2760   22.8390  -31.3420 C   0  0  0  0  0  0  0  0  0  0  0  0
   -5.0940   21.6760  -32.1620 N   0  0  0  0  0  0  0  0  0  0  0  0
   -5.8720   20.6330  -32.1960 C   0  0  0  0  0  0  0  0  0  0  0  0
   -7.1970   20.4380  -31.5920 C   0  0  0  0  0  0  0  0  0  0  0  0
   -7.8490   21.2980  -30.9430 O   0  0  0  0  0  0  0  0  0  0  0  0
   -7.7170   19.1560  -31.9550 N   0  0  0  0  0  0  0  0  0  0  0  0
   -9.1180   18.7580  -31.8620 C   0  0  0  0  0  0  0  0  0  0  0  0
   -9.4064   18.6761  -30.8037 H   0  0  0  0  0  0  0  0  0  0  0  0
   -9.7472   19.5129  -32.3561 H   0  0  0  0  0  0  0  0  0  0  0  0
   -9.2563   17.7850  -32.3561 H   0  0  0  0  0  0  0  0  0  0  0  0
   -6.7440   18.6090  -32.8510 C   0  0  0  0  0  0  0  0  0  0  0  0
   -6.8250   17.3980  -33.5440 C   0  0  0  0  0  0  0  0  0  0  0  0
   -7.6971   16.7382  -33.4254 H   0  0  0  0  0  0  0  0  0  0  0  0
   -5.7650   17.0440  -34.3960 C   0  0  0  0  0  0  0  0  0  0  0  0
   -5.8029   16.0943  -34.9497 H   0  0  0  0  0  0  0  0  0  0  0  0
   -4.6520   17.8990  -34.5460 C   0  0  0  0  0  0  0  0  0  0  0  0
   -3.8269   17.6098  -35.2135 H   0  0  0  0  0  0  0  0  0  0  0  0
   -4.5910   19.1160  -33.8490 C   0  0  0  0  0  0  0  0  0  0  0  0
   -3.7309   19.7918  -33.9651 H   0  0  0  0  0  0  0  0  0  0  0  0
   -5.6520   19.4440  -33.0050 C   0  0  0  0  0  0  0  0  0  0  0  0
   -6.2290   23.8190  -31.6700 C   0  0  0  0  0  0  0  0  0  0  0  0
   -6.8209   23.7221  -32.5921 H   0  0  0  0  0  0  0  0  0  0  0  0
  1  2  1  0
  2  3  2  0
  3  4  1  0
  3  5  1  0
  5  6  1  0
  5  7  2  0
  7  8  1  0
  7  9  1  0
  9 10  1  0
 10 11  2  0
 11 12  1  0
 12 13  2  0
 12 14  1  0
 14 15  1  0
 15 16  1  0
 15 17  1  0
 15 18  1  0
 14 19  1  0
 19 20  2  0
 20 21  1  0
 20 22  1  0
 22 23  1  0
 22 24  2  0
 24 25  1  0
 24 26  1  0
 26 27  1  0
 26 28  2  0
  9 29  2  0
 29 30  1  0
 29  2  1  0
 28 11  1  0
 28 19  1  0
M  END
>  <UniqueID>  (17) 
17

>  <SMILES>  (17) 
CN1C(=O)/C(=N\c2cccc(Cl)c2)c2ccccc21

>  <Energy>  (17) 
70.99800430565188

>  <Genealogy>  (17) 
CN1C(=O)/C(=N\c2cccc(Cl)c2)c2ccccc21 (cis-trans isomerization)
CN1C(=O)/C(=N\c2cccc(Cl)c2)c2ccccc21 (3D coordinates assigned)
CN1C(=O)/C(=N\c2cccc(Cl)c2)c2ccccc21 (nonaromatic ring conformer: 70.99800430565188 kcal/mol)

>  <smiles>  (17) 
CN1C(=O)C(=Nc2cccc(Cl)c2)c2ccccc21

>  <score_type>  (17) 
oracle

>  <origin>  (17) 
adgpu

>  <m_score__min__energy>  (17) 
-7.6900000000000004

>  <m_primary>  (17) 
energy

$$$$
17:0
     RDKit          3D

 33 34  0  0  0  0  0  0  0  0999 V2000
   -5.0503   23.1943  -32.2652 H   0  0  0  0  0  0  0  0  0  0  0  0
   -5.1700   23.2910  -31.1760 C   0  0  0  0  0  0  0  0  0  0  0  0
   -4.2000   24.1160  -30.4300 C   0  0  0  0  0  0  0  0  0  0  0  0
   -3.9800   25.2910  -30.8290 O   0  0  0  0  0  0  0  0  0  0  0  0
   -3.4680   23.5920  -29.3090 N   0  0  0  0  0  0  0  0  0  0  0  0
   -3.2660   22.5660  -29.2890 H   0  0  0  0  0  0  0  0  0  0  0  0
   -2.8550   24.4150  -28.3010 C   0  0  0  0  0  0  0  0  0  0  0  0
   -3.4230   24.5500  -27.0220 C   0  0  0  0  0  0  0  0  0  0  0  0
   -4.3642   24.0325  -26.7845 H   0  0  0  0  0  0  0  0  0  0  0  0
   -2.7990   25.3380  -26.0500 C   0  0  0  0  0  0  0  0  0  0  0  0
   -3.2502   25.4321  -25.0512 H   0  0  0  0  0  0  0  0  0  0  0  0
   -1.5990   26.0110  -26.3400 C   0  0  0  0  0  0  0  0  0  0  0  0
   -0.9000   26.8190  -25.2760 C   0  0  0  0  0  0  0  0  0  0  0  0
   -1.5730   26.7250  -24.0700 F   0  0  0  0  0  0  0  0  0  0  0  0
    0.3860   26.3410  -25.1130 F   0  0  0  0  0  0  0  0  0  0  0  0
   -0.8430   28.1540  -25.6360 F   0  0  0  0  0  0  0  0  0  0  0  0
   -1.0100   25.8350  -27.6040 C   0  0  0  0  0  0  0  0  0  0  0  0
   -0.0497   26.3212  -27.8309 H   0  0  0  0  0  0  0  0  0  0  0  0
   -1.6340   25.0480  -28.5740 C   0  0  0  0  0  0  0  0  0  0  0  0
   -1.1638   24.9235  -29.5606 H   0  0  0  0  0  0  0  0  0  0  0  0
   -6.1910   22.6540  -30.5840 C   0  0  0  0  0  0  0  0  0  0  0  0
   -6.3043   22.7561  -29.4946 H   0  0  0  0  0  0  0  0  0  0  0  0
   -7.1770   21.8190  -31.3150 C   0  0  0  0  0  0  0  0  0  0  0  0
   -6.7080   20.7170  -32.0530 C   0  0  0  0  0  0  0  0  0  0  0  0
   -5.6302   20.4990  -32.0816 H   0  0  0  0  0  0  0  0  0  0  0  0
   -7.5990   19.8970  -32.7500 C   0  0  0  0  0  0  0  0  0  0  0  0
   -7.2196   19.0429  -33.3301 H   0  0  0  0  0  0  0  0  0  0  0  0
   -8.9690   20.1590  -32.7120 C   0  0  0  0  0  0  0  0  0  0  0  0
   -9.6681   19.5158  -33.2666 H   0  0  0  0  0  0  0  0  0  0  0  0
   -9.4520   21.2390  -31.9690 C   0  0  0  0  0  0  0  0  0  0  0  0
  -10.5328   21.4403  -31.9328 H   0  0  0  0  0  0  0  0  0  0  0  0
   -8.5650   22.0650  -31.2710 C   0  0  0  0  0  0  0  0  0  0  0  0
   -8.9522   22.9112  -30.6845 H   0  0  0  0  0  0  0  0  0  0  0  0
  1  2  1  0
  2  3  1  0
  3  4  2  0
  3  5  1  0
  5  6  1  0
  5  7  1  0
  7  8  2  0
  8  9  1  0
  8 10  1  0
 10 11  1  0
 10 12  2  0
 12 13  1  0
 13 14  1  0
 13 15  1  0
 13 16  1  0
 12 17  1  0
 17 18  1  0
 17 19  2  0
 19 20  1  0
  2 21  2  0
 21 22  1  0
 21 23  1  0
 23 24  2  0
 24 25  1  0
 24 26  1  0
 26 27  1  0
 26 28  2  0
 28 29  1  0
 28 30  1  0
 30 31  1  0
 30 32  2  0
 32 33  1  0
 19  7  1  0
 32 23  1  0
M  END
>  <UniqueID>  (18) 
18

>  <SMILES>  (18) 
O=C(/C=C/c1ccccc1)Nc1ccc(C(F)(F)F)cc1

>  <Energy>  (18) 
40.312850537800216

>  <Genealogy>  (18) 
O=C(/C=C/c1ccccc1)Nc1ccc(C(F)(F)F)cc1 (cis-trans isomerization)
O=C(/C=C/c1ccccc1)Nc1ccc(C(F)(F)F)cc1 (3D coordinates assigned)
O=C(/C=C/c1ccccc1)Nc1ccc(C(F)(F)F)cc1 (optimized conformer: 40.312850537800216 kcal/mol)

>  <smiles>  (18) 
O=C(C=Cc1ccccc1)Nc1ccc(C(F)(F)F)cc1

>  <score_type>  (18) 
oracle

>  <origin>  (18) 
adgpu

>  <m_score__min__energy>  (18) 
-7.5700000000000003

>  <m_primary>  (18) 
energy

$$$$
18:0
     RDKit          3D

 14 15  0  0  0  0  0  0  0  0999 V2000
   -5.5170   25.3040  -30.0610 C   0  0  0  0  0  0  0  0  0  0  0  0
   -6.7820   24.7990  -30.0910 N   0  0  0  0  0  0  0  0  0  0  0  0
   -6.6780   23.7690  -30.9410 C   0  0  0  0  0  0  0  0  0  0  0  0
   -7.6490   22.8760  -31.3660 C   0  0  0  0  0  0  0  0  0  0  0  0
   -7.2400   21.8820  -32.2780 C   0  0  0  0  0  0  0  0  0  0  0  0
   -5.9370   21.8120  -32.7160 N   0  0  0  0  0  0  0  0  0  0  0  0
   -4.9740   22.6910  -32.2990 C   0  0  0  0  0  0  0  0  0  0  0  0
   -5.3460   23.6790  -31.4030 C   0  0  0  0  0  0  0  0  0  0  0  0
   -4.6130   24.6510  -30.8450 N   0  0  0  0  0  0  0  0  0  0  0  0
   -5.2447   26.1760  -29.4482 H   0  0  0  0  0  0  0  0  0  0  0  0
   -8.6876   22.9398  -31.0092 H   0  0  0  0  0  0  0  0  0  0  0  0
   -7.9743   21.1502  -32.6457 H   0  0  0  0  0  0  0  0  0  0  0  0
   -5.6720   21.0600  -33.3920 H   0  0  0  0  0  0  0  0  0  0  0  0
   -3.9390   22.6150  -32.6636 H   0  0  0  0  0  0  0  0  0  0  0  0
  1  2  1  0
  2  3  2  0
  3  4  1  0
  4  5  2  0
  5  6  1  0
  6  7  1  0
  7  8  2  0
  8  9  1  0
  9  1  2  0
  8  3  1  0
  1 10  1  0
  4 11  1  0
  5 12  1  0
  6 13  1  0
  7 14  1  0
M  END
>  <UniqueID>  (19) 
19

>  <SMILES>  (19) 
c1nc2cc[nH]cc-2n1

>  <Energy>  (19) 
51.653748005535284

>  <Genealogy>  (19) 
c1nc2cc[nH]cc-2n1 (3D coordinates assigned)
c1nc2cc[nH]cc-2n1 (optimized conformer: 51.653748005535284 kcal/mol)

>  <smiles>  (19) 
c1nc2cc[nH]cc-2n1

>  <score_type>  (19) 
oracle

>  <origin>  (19) 
adgpu

>  <m_score__min__energy>  (19) 
-4.0300000000000002

>  <m_primary>  (19) 
energy

$$$$
19:0
     RDKit          3D

 29 30  0  0  0  0  0  0  0  0999 V2000
   -4.2310   25.3590  -30.8460 O   0  0  0  0  0  0  0  0  0  0  0  0
   -5.1460   24.8130  -30.1710 C   0  0  0  0  0  0  0  0  0  0  0  0
   -6.5090   24.6600  -30.7720 C   0  0  0  0  0  0  0  0  0  0  0  0
   -6.6580   23.2830  -31.3580 C   0  0  0  0  0  0  0  0  0  0  0  0
   -7.9180   22.6610  -31.3940 C   0  0  0  0  0  0  0  0  0  0  0  0
   -8.0630   21.3960  -31.9730 C   0  0  0  0  0  0  0  0  0  0  0  0
   -6.9550   20.7490  -32.5260 C   0  0  0  0  0  0  0  0  0  0  0  0
   -5.7010   21.3660  -32.5060 C   0  0  0  0  0  0  0  0  0  0  0  0
   -5.5510   22.6310  -31.9290 C   0  0  0  0  0  0  0  0  0  0  0  0
   -4.8930   24.3420  -28.8380 N   0  0  0  0  0  0  0  0  0  0  0  0
   -3.5790   24.1800  -28.2770 C   0  0  0  0  0  0  0  0  0  0  0  0
   -3.2860   24.5910  -26.9620 C   0  0  0  0  0  0  0  0  0  0  0  0
   -1.9930   24.4450  -26.4500 C   0  0  0  0  0  0  0  0  0  0  0  0
   -0.9820   23.9020  -27.2450 C   0  0  0  0  0  0  0  0  0  0  0  0
   -1.2580   23.5130  -28.5580 C   0  0  0  0  0  0  0  0  0  0  0  0
   -2.5490   23.6570  -29.0740 C   0  0  0  0  0  0  0  0  0  0  0  0
   -7.2704   24.8089  -29.9922 H   0  0  0  0  0  0  0  0  0  0  0  0
   -6.6403   25.4084  -31.5674 H   0  0  0  0  0  0  0  0  0  0  0  0
   -8.7933   23.1710  -30.9652 H   0  0  0  0  0  0  0  0  0  0  0  0
   -9.0498   20.9104  -31.9930 H   0  0  0  0  0  0  0  0  0  0  0  0
   -7.0697   19.7526  -32.9778 H   0  0  0  0  0  0  0  0  0  0  0  0
   -4.8308   20.8558  -32.9448 H   0  0  0  0  0  0  0  0  0  0  0  0
   -4.5643   23.1172  -31.9219 H   0  0  0  0  0  0  0  0  0  0  0  0
   -5.7170   24.1680  -28.2190 H   0  0  0  0  0  0  0  0  0  0  0  0
   -4.0773   25.0284  -26.3355 H   0  0  0  0  0  0  0  0  0  0  0  0
   -1.7721   24.7585  -25.4190 H   0  0  0  0  0  0  0  0  0  0  0  0
    0.0324   23.7804  -26.8373 H   0  0  0  0  0  0  0  0  0  0  0  0
   -0.4587   23.0930  -29.1863 H   0  0  0  0  0  0  0  0  0  0  0  0
   -2.7591   23.3584  -30.1116 H   0  0  0  0  0  0  0  0  0  0  0  0
  1  2  2  0
  2  3  1  0
  3  4  1  0
  4  5  2  0
  5  6  1  0
  6  7  2  0
  7  8  1  0
  8  9  2  0
  2 10  1  0
 10 11  1  0
 11 12  2  0
 12 13  1  0
 13 14  2  0
 14 15  1  0
 15 16  2  0
  9  4  1  0
 16 11  1  0
  3 17  1  0
  3 18  1  0
  5 19  1  0
  6 20  1  0
  7 21  1  0
  8 22  1  0
  9 23  1  0
 10 24  1  0
 12 25  1  0
 13 26  1  0
 14 27  1  0
 15 28  1  0
 16 29  1  0
M  END
>  <UniqueID>  (20) 
20

>  <SMILES>  (20) 
O=C(Cc1ccccc1)Nc1ccccc1

>  <Energy>  (20) 
30.688992239974944

>  <Genealogy>  (20) 
O=C(Cc1ccccc1)Nc1ccccc1 (3D coordinates assigned)
O=C(Cc1ccccc1)Nc1ccccc1 (optimized conformer: 30.688992239974944 kcal/mol)

>  <smiles>  (20) 
O=C(Cc1ccccc1)Nc1ccccc1

>  <score_type>  (20) 
oracle

>  <origin>  (20) 
adgpu

>  <m_score__min__energy>  (20) 
-7.1399999999999997

>  <m_primary>  (20) 
energy

$$$$
20:0
     RDKit          3D

 26 27  0  0  0  0  0  0  0  0999 V2000
   -8.7890   19.1200  -32.3540 C   0  0  0  0  0  0  0  0  0  0  0  0
   -8.5010   20.5090  -31.8810 C   0  0  0  0  0  0  0  0  0  0  0  0
   -9.4380   21.3720  -31.4500 N   0  0  0  0  0  0  0  0  0  0  0  0
   -8.8500   22.4900  -31.1500 O   0  0  0  0  0  0  0  0  0  0  0  0
   -7.5570   22.4060  -31.3680 C   0  0  0  0  0  0  0  0  0  0  0  0
   -6.7600   23.4080  -31.1340 N   0  0  0  0  0  0  0  0  0  0  0  0
   -5.0390   23.4940  -31.3370 S   0  0  0  0  0  0  0  0  0  0  0  0
   -4.6160   24.9270  -31.1870 O   0  0  0  0  0  0  0  0  0  0  0  0
   -4.6730   23.0290  -32.7180 O   0  0  0  0  0  0  0  0  0  0  0  0
   -4.2080   22.5460  -30.1070 C   0  0  0  0  0  0  0  0  0  0  0  0
   -4.4990   22.7360  -28.7480 C   0  0  0  0  0  0  0  0  0  0  0  0
   -3.8410   21.9770  -27.7750 C   0  0  0  0  0  0  0  0  0  0  0  0
   -2.8840   21.0300  -28.1540 C   0  0  0  0  0  0  0  0  0  0  0  0
   -1.9880   19.9920  -26.8250 Br  0  0  0  0  0  0  0  0  0  0  0  0
   -2.5840   20.8440  -29.5090 C   0  0  0  0  0  0  0  0  0  0  0  0
   -3.2410   21.6020  -30.4820 C   0  0  0  0  0  0  0  0  0  0  0  0
   -7.2630   21.1280  -31.8540 C   0  0  0  0  0  0  0  0  0  0  0  0
   -5.6280   20.3020  -32.4220 Br  0  0  0  0  0  0  0  0  0  0  0  0
   -8.9262   18.4582  -31.4861 H   0  0  0  0  0  0  0  0  0  0  0  0
   -9.7058   19.1224  -32.9619 H   0  0  0  0  0  0  0  0  0  0  0  0
   -7.9469   18.7577  -32.9619 H   0  0  0  0  0  0  0  0  0  0  0  0
  -10.4640   21.1950  -31.3680 H   0  0  0  0  0  0  0  0  0  0  0  0
   -5.2470   23.4842  -28.4467 H   0  0  0  0  0  0  0  0  0  0  0  0
   -4.0763   22.1249  -26.7107 H   0  0  0  0  0  0  0  0  0  0  0  0
   -1.8304   20.1005  -29.8079 H   0  0  0  0  0  0  0  0  0  0  0  0
   -2.9989   21.4578  -31.5453 H   0  0  0  0  0  0  0  0  0  0  0  0
  1  2  1  0
  2  3  1  0
  3  4  1  0
  4  5  1  0
  5  6  2  3
  6  7  1  0
  7  8  2  0
  7  9  2  0
  7 10  1  0
 10 11  2  0
 11 12  1  0
 12 13  2  0
 13 14  1  0
 13 15  1  0
 15 16  2  0
  5 17  1  0
 17 18  1  0
 17  2  2  0
 16 10  1  0
  1 19  1  0
  1 20  1  0
  1 21  1  0
  3 22  1  0
 11 23  1  0
 12 24  1  0
 15 25  1  0
 16 26  1  0
M  END
>  <UniqueID>  (21) 
21

>  <SMILES>  (21) 
Cc1[nH]oc(=NS(=O)(=O)c2ccc(Br)cc2)c1Br

>  <Energy>  (21) 
66.10045627533205

>  <Genealogy>  (21) 
Cc1[nH]oc(=NS(=O)(=O)c2ccc(Br)cc2)c1Br (3D coordinates assigned)
Cc1[nH]oc(=NS(=O)(=O)c2ccc(Br)cc2)c1Br (optimized conformer: 66.10045627533205 kcal/mol)

>  <smiles>  (21) 
Cc1[nH]oc(=NS(=O)(=O)c2ccc(Br)cc2)c1Br

>  <score_type>  (21) 
oracle

>  <origin>  (21) 
adgpu

>  <m_score__min__energy>  (21) 
-7.6100000000000003

>  <m_primary>  (21) 
energy

$$$$
21:0
     RDKit          3D

 35 37  0  0  0  0  0  0  0  0999 V2000
   -3.0320   23.5230  -29.0400 O   0  0  0  0  0  0  0  0  0  0  0  0
   -3.5230   23.8250  -30.1600 C   0  0  0  0  0  0  0  0  0  0  0  0
   -3.8390   25.1830  -30.4700 N   0  0  0  0  0  0  0  0  0  0  0  0
   -5.2050   25.6600  -30.6470 C   0  0  0  0  0  0  0  0  0  0  0  0
   -6.1540   24.8970  -29.7230 C   0  0  0  0  0  0  0  0  0  0  0  0
   -6.8990   23.8210  -30.4680 C   0  0  0  0  0  0  0  0  0  0  0  0
   -6.8940   23.7960  -31.8740 C   0  0  0  0  0  0  0  0  0  0  0  0
   -7.5560   22.7750  -32.5630 C   0  0  0  0  0  0  0  0  0  0  0  0
   -8.2210   21.7680  -31.8560 C   0  0  0  0  0  0  0  0  0  0  0  0
   -8.8600   20.7780  -32.5270 F   0  0  0  0  0  0  0  0  0  0  0  0
   -8.2210   21.7810  -30.4580 C   0  0  0  0  0  0  0  0  0  0  0  0
   -7.5600   22.7990  -29.7650 C   0  0  0  0  0  0  0  0  0  0  0  0
   -3.7740   22.7780  -31.1520 C   0  0  0  0  0  0  0  0  0  0  0  0
   -4.7000   21.8110  -31.0070 N   0  0  0  0  0  0  0  0  0  0  0  0
   -4.5410   21.1150  -32.1550 C   0  0  0  0  0  0  0  0  0  0  0  0
   -5.3340   19.9180  -32.5060 C   0  0  0  0  0  0  0  0  0  0  0  0
   -5.3750   19.4540  -33.8310 C   0  0  0  0  0  0  0  0  0  0  0  0
   -6.1320   18.3210  -34.1430 C   0  0  0  0  0  0  0  0  0  0  0  0
   -6.8230   17.6730  -33.1690 N   0  0  0  0  0  0  0  0  0  0  0  0
   -6.8010   18.0970  -31.8780 C   0  0  0  0  0  0  0  0  0  0  0  0
   -6.0580   19.2250  -31.5230 C   0  0  0  0  0  0  0  0  0  0  0  0
   -3.5760   21.6350  -32.9390 N   0  0  0  0  0  0  0  0  0  0  0  0
   -3.1260   22.6620  -32.2840 O   0  0  0  0  0  0  0  0  0  0  0  0
   -5.2492   26.7328  -30.4078 H   0  0  0  0  0  0  0  0  0  0  0  0
   -5.5105   25.4953  -31.6908 H   0  0  0  0  0  0  0  0  0  0  0  0
   -5.5702   24.4336  -28.9140 H   0  0  0  0  0  0  0  0  0  0  0  0
   -6.8880   25.6084  -29.3165 H   0  0  0  0  0  0  0  0  0  0  0  0
   -6.3673   24.5827  -32.4340 H   0  0  0  0  0  0  0  0  0  0  0  0
   -7.5537   22.7638  -33.6629 H   0  0  0  0  0  0  0  0  0  0  0  0
   -8.7426   20.9880  -29.9020 H   0  0  0  0  0  0  0  0  0  0  0  0
   -7.5571   22.8004  -28.6650 H   0  0  0  0  0  0  0  0  0  0  0  0
   -4.8147   19.9791  -34.6186 H   0  0  0  0  0  0  0  0  0  0  0  0
   -6.1683   17.9533  -35.1791 H   0  0  0  0  0  0  0  0  0  0  0  0
   -7.3696   17.5506  -31.1111 H   0  0  0  0  0  0  0  0  0  0  0  0
   -6.0402   19.5688  -30.4782 H   0  0  0  0  0  0  0  0  0  0  0  0
  1  2  2  0
  2  3  1  0
  3  4  1  0
  4  5  1  0
  5  6  1  0
  6  7  2  0
  7  8  1  0
  8  9  2  0
  9 10  1  0
  9 11  1  0
 11 12  2  0
  2 13  1  0
 13 14  2  0
 14 15  1  0
 15 16  1  0
 16 17  2  0
 17 18  1  0
 18 19  2  0
 19 20  1  0
 20 21  2  0
 15 22  2  0
 22 23  1  0
 12  6  1  0
 23 13  1  0
 21 16  1  0
  4 24  1  0
  4 25  1  0
  5 26  1  0
  5 27  1  0
  7 28  1  0
  8 29  1  0
 11 30  1  0
 12 31  1  0
 17 32  1  0
 18 33  1  0
 20 34  1  0
 21 35  1  0
M  CHG  1   3  -1
M  END
>  <UniqueID>  (22) 
22

>  <SMILES>  (22) 
O=C([N-]CCc1ccc(F)cc1)c1nc(-c2ccncc2)no1

>  <Energy>  (22) 
65.34292092471922

>  <Genealogy>  (22) 
O=C([N-]CCc1ccc(F)cc1)c1nc(-c2ccncc2)no1 (protonated)
O=C([N-]CCc1ccc(F)cc1)c1nc(-c2ccncc2)no1 (3D coordinates assigned)
O=C([N-]CCc1ccc(F)cc1)c1nc(-c2ccncc2)no1 (optimized conformer: 65.34292092471922 kcal/mol)

>  <smiles>  (22) 
O=C(NCCc1ccc(F)cc1)c1nc(-c2ccncc2)no1

>  <score_type>  (22) 
oracle

>  <origin>  (22) 
adgpu

>  <m_score__min__energy>  (22) 
-9.3900000000000006

>  <m_primary>  (22) 
energy

$$$$
22:0
     RDKit          3D

 39 41  0  0  0  0  0  0  0  0999 V2000
   -5.6543   24.9837  -32.0017 H   0  0  0  0  0  0  0  0  0  0  0  0
   -5.0690   24.4980  -31.2070 C   0  0  0  0  0  0  0  0  0  0  0  0
   -4.0150   25.1490  -30.6490 N   0  0  0  0  0  0  0  0  0  0  0  0
   -3.2640   24.6050  -29.6530 C   0  0  0  0  0  0  0  0  0  0  0  0
   -2.2630   25.2970  -29.1840 N   0  0  0  0  0  0  0  0  0  0  0  0
   -1.4050   24.9590  -28.0830 C   0  0  0  0  0  0  0  0  0  0  0  0
   -0.5280   23.8630  -28.1520 C   0  0  0  0  0  0  0  0  0  0  0  0
   -0.4582   23.2745  -29.0787 H   0  0  0  0  0  0  0  0  0  0  0  0
    0.2560   23.5180  -27.0470 C   0  0  0  0  0  0  0  0  0  0  0  0
    0.9544   22.6707  -27.1118 H   0  0  0  0  0  0  0  0  0  0  0  0
    0.1530   24.2490  -25.8600 C   0  0  0  0  0  0  0  0  0  0  0  0
    0.7797   23.9852  -24.9953 H   0  0  0  0  0  0  0  0  0  0  0  0
   -0.7480   25.3170  -25.7720 C   0  0  0  0  0  0  0  0  0  0  0  0
   -0.8940   26.2430  -24.2420 S   0  0  0  0  0  0  0  0  0  0  0  0
   -0.9180   27.8580  -25.0810 C   0  0  0  0  0  0  0  0  0  0  0  0
   -0.9299   28.6614  -24.3297 H   0  0  0  0  0  0  0  0  0  0  0  0
   -0.0212   27.9577  -25.7102 H   0  0  0  0  0  0  0  0  0  0  0  0
   -1.8173   27.9310  -25.7102 H   0  0  0  0  0  0  0  0  0  0  0  0
   -1.5310   25.6640  -26.8790 C   0  0  0  0  0  0  0  0  0  0  0  0
   -2.2487   26.4942  -26.8033 H   0  0  0  0  0  0  0  0  0  0  0  0
   -3.5710   23.3060  -29.2000 C   0  0  0  0  0  0  0  0  0  0  0  0
   -2.9652   22.8371  -28.4107 H   0  0  0  0  0  0  0  0  0  0  0  0
   -4.6490   22.6190  -29.7600 C   0  0  0  0  0  0  0  0  0  0  0  0
   -4.8991   21.6090  -29.4032 H   0  0  0  0  0  0  0  0  0  0  0  0
   -5.4140   23.2090  -30.7740 C   0  0  0  0  0  0  0  0  0  0  0  0
   -6.5320   22.5060  -31.3520 N   0  0  0  0  0  0  0  0  0  0  0  0
   -7.8840   23.0680  -31.2640 C   0  0  0  0  0  0  0  0  0  0  0  0
   -7.9870   23.6279  -30.3228 H   0  0  0  0  0  0  0  0  0  0  0  0
   -8.0546   23.7435  -32.1152 H   0  0  0  0  0  0  0  0  0  0  0  0
   -8.9150   21.9360  -31.2990 C   0  0  0  0  0  0  0  0  0  0  0  0
   -8.8290   21.3415  -30.3775 H   0  0  0  0  0  0  0  0  0  0  0  0
   -9.9196   22.3769  -31.3784 H   0  0  0  0  0  0  0  0  0  0  0  0
   -8.7000   21.0930  -32.4170 O   0  0  0  0  0  0  0  0  0  0  0  0
   -7.4530   20.4370  -32.2890 C   0  0  0  0  0  0  0  0  0  0  0  0
   -7.4237   19.9022  -31.3282 H   0  0  0  0  0  0  0  0  0  0  0  0
   -7.3389   19.7302  -33.1241 H   0  0  0  0  0  0  0  0  0  0  0  0
   -6.3010   21.4450  -32.3380 C   0  0  0  0  0  0  0  0  0  0  0  0
   -5.3556   20.9316  -32.1084 H   0  0  0  0  0  0  0  0  0  0  0  0
   -6.2457   21.8872  -33.3437 H   0  0  0  0  0  0  0  0  0  0  0  0
  1  2  1  0
  2  3  1  0
  3  4  1  0
  4  5  2  0
  5  6  1  0
  6  7  2  0
  7  8  1  0
  7  9  1  0
  9 10  1  0
  9 11  2  0
 11 12  1  0
 11 13  1  0
 13 14  1  0
 14 15  1  0
 15 16  1  0
 15 17  1  0
 15 18  1  0
 13 19  2  0
 19 20  1  0
  4 21  1  0
 21 22  1  0
 21 23  2  0
 23 24  1  0
 23 25  1  0
 25 26  1  0
 26 27  1  0
 27 28  1  0
 27 29  1  0
 27 30  1  0
 30 31  1  0
 30 32  1  0
 30 33  1  0
 33 34  1  0
 34 35  1  0
 34 36  1  0
 34 37  1  0
 37 38  1  0
 37 39  1  0
 25  2  2  0
 37 26  1  0
 19  6  1  0
M  CHG  1   3  -1
M  END
>  <UniqueID>  (23) 
23

>  <SMILES>  (23) 
CSc1cccc(/N=c2\ccc(N3CCOCC3)c[n-]2)c1

>  <Energy>  (23) 
51.682845639667526

>  <Genealogy>  (23) 
CSc1cccc(N=c2ccc(N3CCOCC3)c[n-]2)c1 (protonated)
CSc1cccc(/N=c2\ccc(N3CCOCC3)c[n-]2)c1 (cis-trans isomerization)
CSc1cccc(/N=c2\ccc(N3CCOCC3)c[n-]2)c1 (3D coordinates assigned)
CSc1cccc(/N=c2\ccc(N3CCOCC3)c[n-]2)c1 (nonaromatic ring conformer: 51.682845639667526 kcal/mol)

>  <smiles>  (23) 
CSc1cccc(N=c2ccc(N3CCOCC3)c[nH]2)c1

>  <score_type>  (23) 
oracle

>  <origin>  (23) 
adgpu

>  <m_score__min__energy>  (23) 
-9.2699999999999996

>  <m_primary>  (23) 
energy

$$$$
23:0
     RDKit          3D

 20 21  0  0  0  0  0  0  0  0999 V2000
   -4.1650   25.6770  -30.8670 O   0  0  0  0  0  0  0  0  0  0  0  0
   -3.4870   24.8350  -29.9930 C   0  0  0  0  0  0  0  0  0  0  0  0
   -2.4040   25.1870  -29.3430 O   0  0  0  0  0  0  0  0  0  0  0  0
   -2.0370   24.1680  -28.6010 C   0  0  0  0  0  0  0  0  0  0  0  0
   -0.9140   24.1680  -27.7820 O   0  0  0  0  0  0  0  0  0  0  0  0
   -2.9060   23.1070  -28.7570 C   0  0  0  0  0  0  0  0  0  0  0  0
   -2.7200   21.3770  -27.9640 Br  0  0  0  0  0  0  0  0  0  0  0  0
   -3.8570   23.5390  -29.6710 C   0  0  0  0  0  0  0  0  0  0  0  0
   -5.0110   22.7840  -30.2060 C   0  0  0  0  0  0  0  0  0  0  0  0
   -6.3230   23.1200  -29.8270 C   0  0  0  0  0  0  0  0  0  0  0  0
   -7.4100   22.4070  -30.3400 C   0  0  0  0  0  0  0  0  0  0  0  0
   -7.2000   21.3570  -31.2370 C   0  0  0  0  0  0  0  0  0  0  0  0
   -5.9010   21.0200  -31.6250 C   0  0  0  0  0  0  0  0  0  0  0  0
   -4.8100   21.7310  -31.1150 C   0  0  0  0  0  0  0  0  0  0  0  0
   -1.0110   24.0600  -26.7800 H   0  0  0  0  0  0  0  0  0  0  0  0
   -6.4944   23.9480  -29.1234 H   0  0  0  0  0  0  0  0  0  0  0  0
   -8.4333   22.6733  -30.0367 H   0  0  0  0  0  0  0  0  0  0  0  0
   -8.0570   20.7958  -31.6376 H   0  0  0  0  0  0  0  0  0  0  0  0
   -5.7360   20.1942  -32.3327 H   0  0  0  0  0  0  0  0  0  0  0  0
   -3.7893   21.4647  -31.4269 H   0  0  0  0  0  0  0  0  0  0  0  0
  1  2  1  0
  2  3  1  0
  3  4  1  0
  4  5  1  0
  4  6  2  0
  6  7  1  0
  6  8  1  0
  8  9  1  0
  9 10  2  0
 10 11  1  0
 11 12  2  0
 12 13  1  0
 13 14  2  0
  8  2  2  0
 14  9  1  0
  5 15  1  0
 10 16  1  0
 11 17  1  0
 12 18  1  0
 13 19  1  0
 14 20  1  0
M  CHG  1   1  -1
M  END
>  <UniqueID>  (24) 
24

>  <SMILES>  (24) 
[O-]c1oc(O)c(Br)c1-c1ccccc1

>  <Energy>  (24) 
53.988008725105004

>  <Genealogy>  (24) 
[O-]c1oc(O)c(Br)c1-c1ccccc1 (protonated)
[O-]c1oc(O)c(Br)c1-c1ccccc1 (3D coordinates assigned)
[O-]c1oc(O)c(Br)c1-c1ccccc1 (optimized conformer: 53.988008725105004 kcal/mol)

>  <smiles>  (24) 
Oc1oc(O)c(-c2ccccc2)c1Br

>  <score_type>  (24) 
oracle

>  <origin>  (24) 
adgpu

>  <m_score__min__energy>  (24) 
-7.96

>  <m_primary>  (24) 
energy

$$$$
24:0
     RDKit          3D

 31 32  0  0  0  0  0  0  0  0999 V2000
   -6.0154   24.9749  -32.6725 H   0  0  0  0  0  0  0  0  0  0  0  0
   -5.7570   24.1840  -31.9530 C   0  0  0  0  0  0  0  0  0  0  0  0
   -4.9670   24.4730  -30.9610 N   0  0  0  0  0  0  0  0  0  0  0  0
   -4.5430   23.5230  -29.9370 C   0  0  0  0  0  0  0  0  0  0  0  0
   -4.7330   23.9487  -28.9407 H   0  0  0  0  0  0  0  0  0  0  0  0
   -5.1084   22.5861  -30.0493 H   0  0  0  0  0  0  0  0  0  0  0  0
   -3.4681   23.3183  -30.0493 H   0  0  0  0  0  0  0  0  0  0  0  0
   -6.3180   22.8370  -32.1480 C   0  0  0  0  0  0  0  0  0  0  0  0
   -7.6530   22.4800  -32.1430 C   0  0  0  0  0  0  0  0  0  0  0  0
   -8.8170   23.4020  -31.9740 C   0  0  0  0  0  0  0  0  0  0  0  0
   -9.0106   23.5554  -30.9021 H   0  0  0  0  0  0  0  0  0  0  0  0
   -8.5909   24.3687  -32.4478 H   0  0  0  0  0  0  0  0  0  0  0  0
   -9.7062   22.9606  -32.4478 H   0  0  0  0  0  0  0  0  0  0  0  0
   -7.7700   21.1660  -32.4130 N   0  0  0  0  0  0  0  0  0  0  0  0
   -6.5490   20.6710  -32.5590 N   0  0  0  0  0  0  0  0  0  0  0  0
   -6.3020   19.2870  -32.8600 C   0  0  0  0  0  0  0  0  0  0  0  0
   -6.0890   18.8900  -34.1890 C   0  0  0  0  0  0  0  0  0  0  0  0
   -6.0966   19.6418  -34.9920 H   0  0  0  0  0  0  0  0  0  0  0  0
   -5.8670   17.5440  -34.4990 C   0  0  0  0  0  0  0  0  0  0  0  0
   -5.6893   17.2419  -35.5417 H   0  0  0  0  0  0  0  0  0  0  0  0
   -5.8710   16.5830  -33.4840 C   0  0  0  0  0  0  0  0  0  0  0  0
   -5.5950   14.8940  -33.8730 Cl  0  0  0  0  0  0  0  0  0  0  0  0
   -6.1040   16.9670  -32.1600 C   0  0  0  0  0  0  0  0  0  0  0  0
   -6.1135   16.2097  -31.3623 H   0  0  0  0  0  0  0  0  0  0  0  0
   -6.3250   18.3120  -31.8480 C   0  0  0  0  0  0  0  0  0  0  0  0
   -6.5176   18.6082  -30.8063 H   0  0  0  0  0  0  0  0  0  0  0  0
   -5.6380   21.6660  -32.4230 C   0  0  0  0  0  0  0  0  0  0  0  0
   -4.1500   21.5240  -32.5620 C   0  0  0  0  0  0  0  0  0  0  0  0
   -3.6910   21.4802  -31.5633 H   0  0  0  0  0  0  0  0  0  0  0  0
   -3.9197   20.5998  -33.1123 H   0  0  0  0  0  0  0  0  0  0  0  0
   -3.7490   22.3880  -33.1123 H   0  0  0  0  0  0  0  0  0  0  0  0
  1  2  1  0
  2  3  2  0
  3  4  1  0
  4  5  1  0
  4  6  1  0
  4  7  1  0
  2  8  1  0
  8  9  1  0
  9 10  1  0
 10 11  1  0
 10 12  1  0
 10 13  1  0
  9 14  2  0
 14 15  1  0
 15 16  1  0
 16 17  2  0
 17 18  1  0
 17 19  1  0
 19 20  1  0
 19 21  2  0
 21 22  1  0
 21 23  1  0
 23 24  1  0
 23 25  2  0
 25 26  1  0
 15 27  1  0
 27 28  1  0
 28 29  1  0
 28 30  1  0
 28 31  1  0
 27  8  2  0
 25 16  1  0
M  END
>  <UniqueID>  (25) 
25

>  <SMILES>  (25) 
C/N=C\c1c(C)nn(-c2ccc(Cl)cc2)c1C

>  <Energy>  (25) 
71.34042455457399

>  <Genealogy>  (25) 
C/N=C\c1c(C)nn(-c2ccc(Cl)cc2)c1C (cis-trans isomerization)
C/N=C\c1c(C)nn(-c2ccc(Cl)cc2)c1C (3D coordinates assigned)
C/N=C\c1c(C)nn(-c2ccc(Cl)cc2)c1C (optimized conformer: 71.34042455457399 kcal/mol)

>  <smiles>  (25) 
CN=Cc1c(C)nn(-c2ccc(Cl)cc2)c1C

>  <score_type>  (25) 
oracle

>  <origin>  (25) 
adgpu

>  <m_score__min__energy>  (25) 
-6.8899999999999997

>  <m_primary>  (25) 
energy

$$$$
25:0
     RDKit          3D

 35 37  0  0  0  0  0  0  0  0999 V2000
   -1.7680   25.2370  -27.3800 C   0  0  0  0  0  0  0  0  0  0  0  0
   -1.7940   25.1880  -28.8030 O   0  0  0  0  0  0  0  0  0  0  0  0
   -2.3170   24.1220  -29.5520 C   0  0  0  0  0  0  0  0  0  0  0  0
   -1.8210   22.8100  -29.4370 C   0  0  0  0  0  0  0  0  0  0  0  0
   -2.3710   21.7780  -30.2030 C   0  0  0  0  0  0  0  0  0  0  0  0
   -3.4210   22.0360  -31.0980 C   0  0  0  0  0  0  0  0  0  0  0  0
   -4.0140   20.9420  -31.9050 C   0  0  0  0  0  0  0  0  0  0  0  0
   -5.2440   20.3800  -31.5300 C   0  0  0  0  0  0  0  0  0  0  0  0
   -5.7960   19.3430  -32.2860 C   0  0  0  0  0  0  0  0  0  0  0  0
   -7.0170   18.7550  -31.9350 C   0  0  0  0  0  0  0  0  0  0  0  0
   -7.5390   17.7180  -32.7120 C   0  0  0  0  0  0  0  0  0  0  0  0
   -6.8480   17.2630  -33.8380 C   0  0  0  0  0  0  0  0  0  0  0  0
   -5.6180   17.8460  -34.2040 C   0  0  0  0  0  0  0  0  0  0  0  0
   -4.8940   17.4200  -35.3280 O   0  0  0  0  0  0  0  0  0  0  0  0
   -3.6490   16.7310  -35.2710 C   0  0  0  0  0  0  0  0  0  0  0  0
   -5.0940   18.8890  -33.4230 C   0  0  0  0  0  0  0  0  0  0  0  0
   -3.9350   19.4490  -33.7570 O   0  0  0  0  0  0  0  0  0  0  0  0
   -3.3820   20.4380  -33.0610 C   0  0  0  0  0  0  0  0  0  0  0  0
   -2.2930   20.9280  -33.4620 O   0  0  0  0  0  0  0  0  0  0  0  0
   -3.9190   23.3460  -31.2050 C   0  0  0  0  0  0  0  0  0  0  0  0
   -3.3680   24.3790  -30.4400 C   0  0  0  0  0  0  0  0  0  0  0  0
   -3.8720   25.6690  -30.5670 O   0  0  0  0  0  0  0  0  0  0  0  0
   -2.2470   24.3342  -26.9732 H   0  0  0  0  0  0  0  0  0  0  0  0
   -0.7251   25.2863  -27.0338 H   0  0  0  0  0  0  0  0  0  0  0  0
   -2.3118   26.1283  -27.0338 H   0  0  0  0  0  0  0  0  0  0  0  0
   -0.9966   22.5955  -28.7410 H   0  0  0  0  0  0  0  0  0  0  0  0
   -1.9777   20.7555  -30.1035 H   0  0  0  0  0  0  0  0  0  0  0  0
   -5.7729   20.7556  -30.6417 H   0  0  0  0  0  0  0  0  0  0  0  0
   -7.5644   19.1089  -31.0489 H   0  0  0  0  0  0  0  0  0  0  0  0
   -8.4990   17.2573  -32.4360 H   0  0  0  0  0  0  0  0  0  0  0  0
   -7.2665   16.4448  -34.4425 H   0  0  0  0  0  0  0  0  0  0  0  0
   -3.3648   16.5737  -34.2201 H   0  0  0  0  0  0  0  0  0  0  0  0
   -3.7452   15.7577  -35.7745 H   0  0  0  0  0  0  0  0  0  0  0  0
   -2.8754   17.3294  -35.7745 H   0  0  0  0  0  0  0  0  0  0  0  0
   -4.7481   23.5603  -31.8954 H   0  0  0  0  0  0  0  0  0  0  0  0
  1  2  1  0
  2  3  1  0
  3  4  2  0
  4  5  1  0
  5  6  2  0
  6  7  1  0
  7  8  2  0
  8  9  1  0
  9 10  2  0
 10 11  1  0
 11 12  2  0
 12 13  1  0
 13 14  1  0
 14 15  1  0
 13 16  2  0
 16 17  1  0
 17 18  1  0
 18 19  2  0
  6 20  1  0
 20 21  2  0
 21 22  1  0
 21  3  1  0
 18  7  1  0
 16  9  1  0
  1 23  1  0
  1 24  1  0
  1 25  1  0
  4 26  1  0
  5 27  1  0
  8 28  1  0
 10 29  1  0
 11 30  1  0
 12 31  1  0
 15 32  1  0
 15 33  1  0
 15 34  1  0
 20 35  1  0
M  CHG  1  22  -1
M  END
>  <UniqueID>  (26) 
26

>  <SMILES>  (26) 
COc1ccc(-c2cc3cccc(OC)c3oc2=O)cc1[O-]

>  <Energy>  (26) 
47.658184818170334

>  <Genealogy>  (26) 
COc1ccc(-c2cc3cccc(OC)c3oc2=O)cc1[O-] (protonated)
COc1ccc(-c2cc3cccc(OC)c3oc2=O)cc1[O-] (3D coordinates assigned)
COc1ccc(-c2cc3cccc(OC)c3oc2=O)cc1[O-] (optimized conformer: 47.658184818170334 kcal/mol)

>  <smiles>  (26) 
COc1ccc(-c2cc3cccc(OC)c3oc2=O)cc1O

>  <score_type>  (26) 
oracle

>  <origin>  (26) 
adgpu

>  <m_score__min__energy>  (26) 
-10.1

>  <m_primary>  (26) 
energy

$$$$
26:0
     RDKit          3D

 24 25  0  0  0  0  0  0  0  0999 V2000
   -2.8970   25.2980  -29.7170 O   0  0  0  0  0  0  0  0  0  0  0  0
   -3.8650   24.6270  -30.4530 C   0  0  0  0  0  0  0  0  0  0  0  0
   -5.0720   25.2620  -30.7640 C   0  0  0  0  0  0  0  0  0  0  0  0
   -6.0490   24.5870  -31.5030 C   0  0  0  0  0  0  0  0  0  0  0  0
   -5.8310   23.2630  -31.9260 C   0  0  0  0  0  0  0  0  0  0  0  0
   -6.8080   22.5580  -32.7110 N   0  0  0  0  0  0  0  0  0  0  0  0
   -7.2510   21.2160  -32.4430 C   0  0  0  0  0  0  0  0  0  0  0  0
   -8.5150   21.0100  -31.8680 C   0  0  0  0  0  0  0  0  0  0  0  0
   -8.9780   19.7130  -31.6240 C   0  0  0  0  0  0  0  0  0  0  0  0
   -8.1890   18.6120  -31.9680 C   0  0  0  0  0  0  0  0  0  0  0  0
   -6.9400   18.8060  -32.5630 C   0  0  0  0  0  0  0  0  0  0  0  0
   -6.4730   20.1020  -32.8080 C   0  0  0  0  0  0  0  0  0  0  0  0
   -4.6080   22.6430  -31.6280 C   0  0  0  0  0  0  0  0  0  0  0  0
   -3.6330   23.3200  -30.8880 C   0  0  0  0  0  0  0  0  0  0  0  0
   -5.2530   26.2933  -30.4270 H   0  0  0  0  0  0  0  0  0  0  0  0
   -6.9923   25.0937  -31.7547 H   0  0  0  0  0  0  0  0  0  0  0  0
   -7.2240   23.0550  -33.5310 H   0  0  0  0  0  0  0  0  0  0  0  0
   -9.1448   21.8735  -31.6079 H   0  0  0  0  0  0  0  0  0  0  0  0
   -9.9639   19.5594  -31.1610 H   0  0  0  0  0  0  0  0  0  0  0  0
   -8.5515   17.5924  -31.7702 H   0  0  0  0  0  0  0  0  0  0  0  0
   -6.3227   17.9385  -32.8393 H   0  0  0  0  0  0  0  0  0  0  0  0
   -5.4943   20.2504  -33.2876 H   0  0  0  0  0  0  0  0  0  0  0  0
   -4.4148   21.6184  -31.9784 H   0  0  0  0  0  0  0  0  0  0  0  0
   -2.6818   22.8223  -30.6482 H   0  0  0  0  0  0  0  0  0  0  0  0
  1  2  1  0
  2  3  2  0
  3  4  1  0
  4  5  2  0
  5  6  1  0
  6  7  1  0
  7  8  2  0
  8  9  1  0
  9 10  2  0
 10 11  1  0
 11 12  2  0
  5 13  1  0
 13 14  2  0
 14  2  1  0
 12  7  1  0
  3 15  1  0
  4 16  1  0
  6 17  1  0
  8 18  1  0
  9 19  1  0
 10 20  1  0
 11 21  1  0
 12 22  1  0
 13 23  1  0
 14 24  1  0
M  CHG  1   1  -1
M  END
>  <UniqueID>  (27) 
27

>  <SMILES>  (27) 
[O-]c1ccc(Nc2ccccc2)cc1

>  <Energy>  (27) 
30.213151585120507

>  <Genealogy>  (27) 
[O-]c1ccc(Nc2ccccc2)cc1 (protonated)
[O-]c1ccc(Nc2ccccc2)cc1 (3D coordinates assigned)
[O-]c1ccc(Nc2ccccc2)cc1 (optimized conformer: 30.213151585120507 kcal/mol)

>  <smiles>  (27) 
Oc1ccc(Nc2ccccc2)cc1

>  <score_type>  (27) 
oracle

>  <origin>  (27) 
adgpu

>  <m_score__min__energy>  (27) 
-9.6400000000000006

>  <m_primary>  (27) 
energy

$$$$
27:0
     RDKit          3D

 27 27  0  0  0  0  0  0  0  0999 V2000
   -4.0040   20.6490  -33.0640 C   0  0  0  0  0  0  0  0  0  0  0  0
   -4.9760   21.7370  -33.0850 N   0  0  0  0  0  0  0  0  0  0  0  0
   -6.3360   21.6040  -32.6180 C   0  0  0  0  0  0  0  0  0  0  0  0
   -7.0170   20.3730  -32.7120 C   0  0  0  0  0  0  0  0  0  0  0  0
   -8.3390   20.2480  -32.2670 C   0  0  0  0  0  0  0  0  0  0  0  0
   -9.0380   18.9220  -32.3370 C   0  0  0  0  0  0  0  0  0  0  0  0
   -8.9800   21.3520  -31.6940 C   0  0  0  0  0  0  0  0  0  0  0  0
   -8.3200   22.5770  -31.5940 C   0  0  0  0  0  0  0  0  0  0  0  0
   -6.9940   22.7160  -32.0510 C   0  0  0  0  0  0  0  0  0  0  0  0
   -6.3030   23.9400  -31.9720 O   0  0  0  0  0  0  0  0  0  0  0  0
   -6.1430   24.7500  -30.8060 C   0  0  0  0  0  0  0  0  0  0  0  0
   -4.7600   24.5570  -30.1860 C   0  0  0  0  0  0  0  0  0  0  0  0
   -4.1650   23.4250  -30.7140 F   0  0  0  0  0  0  0  0  0  0  0  0
   -3.9700   25.6560  -30.4720 F   0  0  0  0  0  0  0  0  0  0  0  0
   -4.8530   24.4200  -28.8130 F   0  0  0  0  0  0  0  0  0  0  0  0
   -3.7697   20.3867  -32.0217 H   0  0  0  0  0  0  0  0  0  0  0  0
   -4.4246   19.7716  -33.5772 H   0  0  0  0  0  0  0  0  0  0  0  0
   -3.0850   20.9684  -33.5772 H   0  0  0  0  0  0  0  0  0  0  0  0
   -4.6500   22.6540  -33.4650 H   0  0  0  0  0  0  0  0  0  0  0  0
   -6.5034   19.4997  -33.1403 H   0  0  0  0  0  0  0  0  0  0  0  0
   -9.2314   18.5552  -31.3181 H   0  0  0  0  0  0  0  0  0  0  0  0
   -9.9920   19.0382  -32.8721 H   0  0  0  0  0  0  0  0  0  0  0  0
   -8.4030   18.2006  -32.8721 H   0  0  0  0  0  0  0  0  0  0  0  0
  -10.0099   21.2534  -31.3204 H   0  0  0  0  0  0  0  0  0  0  0  0
   -8.8389   23.4418  -31.1547 H   0  0  0  0  0  0  0  0  0  0  0  0
   -6.2677   25.8071  -31.0834 H   0  0  0  0  0  0  0  0  0  0  0  0
   -6.9012   24.4514  -30.0671 H   0  0  0  0  0  0  0  0  0  0  0  0
  1  2  1  0
  2  3  1  0
  3  4  2  0
  4  5  1  0
  5  6  1  0
  5  7  2  0
  7  8  1  0
  8  9  2  0
  9 10  1  0
 10 11  1  0
 11 12  1  0
 12 13  1  0
 12 14  1  0
 12 15  1  0
  9  3  1  0
  1 16  1  0
  1 17  1  0
  1 18  1  0
  2 19  1  0
  4 20  1  0
  6 21  1  0
  6 22  1  0
  6 23  1  0
  7 24  1  0
  8 25  1  0
 11 26  1  0
 11 27  1  0
M  END
>  <UniqueID>  (28) 
28

>  <SMILES>  (28) 
CNc1cc(C)ccc1OCC(F)(F)F

>  <Energy>  (28) 
22.756535211611734

>  <Genealogy>  (28) 
CNc1cc(C)ccc1OCC(F)(F)F (3D coordinates assigned)
CNc1cc(C)ccc1OCC(F)(F)F (optimized conformer: 22.756535211611734 kcal/mol)

>  <smiles>  (28) 
CNc1cc(C)ccc1OCC(F)(F)F

>  <score_type>  (28) 
oracle

>  <origin>  (28) 
adgpu

>  <m_score__min__energy>  (28) 
-5.0700000000000003

>  <m_primary>  (28) 
energy

$$$$
28:0
     RDKit          3D

 47 50  0  0  0  0  0  0  0  0999 V2000
   -4.5630   25.4160  -30.8190 O   0  0  0  0  0  0  0  0  0  0  0  0
   -5.1010   24.2930  -31.0280 C   0  0  0  0  0  0  0  0  0  0  0  0
   -6.1340   24.2020  -31.9640 C   0  0  0  0  0  0  0  0  0  0  0  0
   -6.7230   22.9660  -32.2220 C   0  0  0  0  0  0  0  0  0  0  0  0
   -6.2840   21.8270  -31.5390 C   0  0  0  0  0  0  0  0  0  0  0  0
   -6.8930   20.5060  -31.8170 C   0  0  0  0  0  0  0  0  0  0  0  0
   -6.0730   19.4550  -32.2620 C   0  0  0  0  0  0  0  0  0  0  0  0
   -6.6140   18.1930  -32.5200 C   0  0  0  0  0  0  0  0  0  0  0  0
   -7.9790   17.9680  -32.3400 C   0  0  0  0  0  0  0  0  0  0  0  0
   -8.8090   19.0060  -31.9100 C   0  0  0  0  0  0  0  0  0  0  0  0
   -8.2770   20.2750  -31.6490 C   0  0  0  0  0  0  0  0  0  0  0  0
   -9.3870   21.5610  -31.1780 Cl  0  0  0  0  0  0  0  0  0  0  0  0
   -5.2380   21.9550  -30.6140 C   0  0  0  0  0  0  0  0  0  0  0  0
   -4.6690   23.1740  -30.3610 N   0  0  0  0  0  0  0  0  0  0  0  0
   -3.6080   23.2560  -29.3880 C   0  0  0  0  0  0  0  0  0  0  0  0
   -2.2750   23.0440  -29.7720 C   0  0  0  0  0  0  0  0  0  0  0  0
   -1.2470   23.1120  -28.8280 C   0  0  0  0  0  0  0  0  0  0  0  0
   -1.5340   23.3950  -27.4810 C   0  0  0  0  0  0  0  0  0  0  0  0
   -0.4760   23.4520  -26.5040 N   0  0  0  0  0  0  0  0  0  0  0  0
   -0.4950   22.5530  -25.3430 C   0  0  0  0  0  0  0  0  0  0  0  0
    0.4550   23.0600  -24.2490 C   0  0  0  0  0  0  0  0  0  0  0  0
    0.3890   24.5260  -24.1600 N   0  0  0  0  0  0  0  0  0  0  0  0
    0.8810   25.1950  -25.3850 C   0  0  0  0  0  0  0  0  0  0  0  0
    0.6560   24.3700  -26.6690 C   0  0  0  0  0  0  0  0  0  0  0  0
   -2.8700   23.5930  -27.0960 C   0  0  0  0  0  0  0  0  0  0  0  0
   -3.8980   23.5250  -28.0410 C   0  0  0  0  0  0  0  0  0  0  0  0
   -6.4805   25.1012  -32.4944 H   0  0  0  0  0  0  0  0  0  0  0  0
   -7.5327   22.8859  -32.9623 H   0  0  0  0  0  0  0  0  0  0  0  0
   -4.9965   19.6274  -32.4084 H   0  0  0  0  0  0  0  0  0  0  0  0
   -5.9632   17.3762  -32.8653 H   0  0  0  0  0  0  0  0  0  0  0  0
   -8.4022   16.9720  -32.5369 H   0  0  0  0  0  0  0  0  0  0  0  0
   -9.8858   18.8258  -31.7757 H   0  0  0  0  0  0  0  0  0  0  0  0
   -4.8697   21.0639  -30.0846 H   0  0  0  0  0  0  0  0  0  0  0  0
   -2.0378   22.8228  -30.8231 H   0  0  0  0  0  0  0  0  0  0  0  0
   -0.2061   22.9430  -29.1408 H   0  0  0  0  0  0  0  0  0  0  0  0
   -1.5174   22.5053  -24.9399 H   0  0  0  0  0  0  0  0  0  0  0  0
   -0.1644   21.5541  -25.6636 H   0  0  0  0  0  0  0  0  0  0  0  0
    0.1624   22.6236  -23.2826 H   0  0  0  0  0  0  0  0  0  0  0  0
    1.4836   22.7611  -24.4995 H   0  0  0  0  0  0  0  0  0  0  0  0
   -0.6020   24.8140  -23.9780 H   0  0  0  0  0  0  0  0  0  0  0  0
    0.9660   24.8410  -23.3460 H   0  0  0  0  0  0  0  0  0  0  0  0
    0.3560   26.1557  -25.4919 H   0  0  0  0  0  0  0  0  0  0  0  0
    1.9673   25.3240  -25.2693 H   0  0  0  0  0  0  0  0  0  0  0  0
    0.4477   25.0534  -27.5054 H   0  0  0  0  0  0  0  0  0  0  0  0
    1.5620   23.7808  -26.8740 H   0  0  0  0  0  0  0  0  0  0  0  0
   -3.1093   23.8031  -26.0431 H   0  0  0  0  0  0  0  0  0  0  0  0
   -4.9404   23.6832  -27.7272 H   0  0  0  0  0  0  0  0  0  0  0  0
  1  2  2  0
  2  3  1  0
  3  4  2  0
  4  5  1  0
  5  6  1  0
  6  7  2  0
  7  8  1  0
  8  9  2  0
  9 10  1  0
 10 11  2  0
 11 12  1  0
  5 13  2  0
 13 14  1  0
 14 15  1  0
 15 16  2  0
 16 17  1  0
 17 18  2  0
 18 19  1  0
 19 20  1  0
 20 21  1  0
 21 22  1  0
 22 23  1  0
 23 24  1  0
 18 25  1  0
 25 26  2  0
 14  2  1  0
 26 15  1  0
 11  6  1  0
 24 19  1  0
  3 27  1  0
  4 28  1  0
  7 29  1  0
  8 30  1  0
  9 31  1  0
 10 32  1  0
 13 33  1  0
 16 34  1  0
 17 35  1  0
 20 36  1  0
 20 37  1  0
 21 38  1  0
 21 39  1  0
 22 40  1  0
 22 41  1  0
 23 42  1  0
 23 43  1  0
 24 44  1  0
 24 45  1  0
 25 46  1  0
 26 47  1  0
M  CHG  1  22   1
M  END
>  <UniqueID>  (29) 
29

>  <SMILES>  (29) 
O=c1ccc(-c2ccccc2Cl)cn1-c1ccc(N2CC[NH2+]CC2)cc1

>  <Energy>  (29) 
75.06151417840447

>  <Genealogy>  (29) 
O=c1ccc(-c2ccccc2Cl)cn1-c1ccc(N2CC[NH2+]CC2)cc1 (protonated)
O=c1ccc(-c2ccccc2Cl)cn1-c1ccc(N2CC[NH2+]CC2)cc1 (3D coordinates assigned)
O=c1ccc(-c2ccccc2Cl)cn1-c1ccc(N2CC[NH2+]CC2)cc1 (nonaromatic ring conformer: 75.06151417840447 kcal/mol)

>  <smiles>  (29) 
O=c1ccc(-c2ccccc2Cl)cn1-c1ccc(N2CCNCC2)cc1

>  <score_type>  (29) 
oracle

>  <origin>  (29) 
adgpu

>  <m_score__min__energy>  (29) 
-9.9600000000000009

>  <m_primary>  (29) 
energy

$$$$
29:0
     RDKit          3D

 39 41  0  0  0  0  0  0  0  0999 V2000
   -5.7450   17.9210  -34.6640 C   0  0  0  0  0  0  0  0  0  0  0  0
   -6.4610   19.0620  -34.2040 O   0  0  0  0  0  0  0  0  0  0  0  0
   -5.9050   20.0880  -33.4200 C   0  0  0  0  0  0  0  0  0  0  0  0
   -4.5230   20.3460  -33.4030 C   0  0  0  0  0  0  0  0  0  0  0  0
   -4.0060   21.3760  -32.6150 C   0  0  0  0  0  0  0  0  0  0  0  0
   -4.8580   22.1640  -31.8250 C   0  0  0  0  0  0  0  0  0  0  0  0
   -4.3060   23.2520  -30.9880 C   0  0  0  0  0  0  0  0  0  0  0  0
   -4.5320   24.5620  -31.2130 N   0  0  0  0  0  0  0  0  0  0  0  0
   -3.8880   25.1810  -30.2720 O   0  0  0  0  0  0  0  0  0  0  0  0
   -3.2910   24.3080  -29.4970 C   0  0  0  0  0  0  0  0  0  0  0  0
   -2.4680   24.6640  -28.3240 C   0  0  0  0  0  0  0  0  0  0  0  0
   -1.0730   24.7730  -28.4340 C   0  0  0  0  0  0  0  0  0  0  0  0
   -0.2980   25.1110  -27.3200 C   0  0  0  0  0  0  0  0  0  0  0  0
   -0.9090   25.3430  -26.0740 C   0  0  0  0  0  0  0  0  0  0  0  0
   -0.1810   25.6830  -24.9220 O   0  0  0  0  0  0  0  0  0  0  0  0
   -0.4190   26.8270  -24.1040 C   0  0  0  0  0  0  0  0  0  0  0  0
   -1.0640   27.8100  -24.8340 F   0  0  0  0  0  0  0  0  0  0  0  0
   -1.1860   26.4760  -23.0060 F   0  0  0  0  0  0  0  0  0  0  0  0
    0.7920   27.3220  -23.6620 F   0  0  0  0  0  0  0  0  0  0  0  0
   -2.3000   25.2330  -25.9670 C   0  0  0  0  0  0  0  0  0  0  0  0
   -3.0760   24.8980  -27.0810 C   0  0  0  0  0  0  0  0  0  0  0  0
   -3.5230   23.0460  -29.9080 N   0  0  0  0  0  0  0  0  0  0  0  0
   -6.2380   21.9040  -31.8400 C   0  0  0  0  0  0  0  0  0  0  0  0
   -6.7670   20.8700  -32.6380 C   0  0  0  0  0  0  0  0  0  0  0  0
   -8.1430   20.5920  -32.6800 O   0  0  0  0  0  0  0  0  0  0  0  0
   -8.7540   19.4450  -32.0950 C   0  0  0  0  0  0  0  0  0  0  0  0
   -5.3824   17.3432  -33.8011 H   0  0  0  0  0  0  0  0  0  0  0  0
   -6.4104   17.2916  -35.2732 H   0  0  0  0  0  0  0  0  0  0  0  0
   -4.8889   18.2464  -35.2732 H   0  0  0  0  0  0  0  0  0  0  0  0
   -3.8449   19.7325  -34.0144 H   0  0  0  0  0  0  0  0  0  0  0  0
   -2.9235   21.5715  -32.6131 H   0  0  0  0  0  0  0  0  0  0  0  0
   -0.5858   24.5913  -29.4033 H   0  0  0  0  0  0  0  0  0  0  0  0
    0.7943   25.1959  -27.4184 H   0  0  0  0  0  0  0  0  0  0  0  0
   -2.7876   25.4118  -24.9973 H   0  0  0  0  0  0  0  0  0  0  0  0
   -4.1686   24.8175  -26.9825 H   0  0  0  0  0  0  0  0  0  0  0  0
   -6.9133   22.5141  -31.2221 H   0  0  0  0  0  0  0  0  0  0  0  0
   -8.7111   19.5256  -30.9988 H   0  0  0  0  0  0  0  0  0  0  0  0
   -9.8040   19.3843  -32.4173 H   0  0  0  0  0  0  0  0  0  0  0  0
   -8.2186   18.5398  -32.4173 H   0  0  0  0  0  0  0  0  0  0  0  0
  1  2  1  0
  2  3  1  0
  3  4  2  0
  4  5  1  0
  5  6  2  0
  6  7  1  0
  7  8  2  0
  8  9  1  0
  9 10  1  0
 10 11  1  0
 11 12  2  0
 12 13  1  0
 13 14  2  0
 14 15  1  0
 15 16  1  0
 16 17  1  0
 16 18  1  0
 16 19  1  0
 14 20  1  0
 20 21  2  0
 10 22  2  0
  6 23  1  0
 23 24  2  0
 24 25  1  0
 25 26  1  0
 24  3  1  0
 22  7  1  0
 21 11  1  0
  1 27  1  0
  1 28  1  0
  1 29  1  0
  4 30  1  0
  5 31  1  0
 12 32  1  0
 13 33  1  0
 20 34  1  0
 21 35  1  0
 23 36  1  0
 26 37  1  0
 26 38  1  0
 26 39  1  0
M  END
>  <UniqueID>  (30) 
30

>  <SMILES>  (30) 
COc1ccc(-c2noc(-c3ccc(OC(F)(F)F)cc3)n2)cc1OC

>  <Energy>  (30) 
74.42606009550224

>  <Genealogy>  (30) 
COc1ccc(-c2noc(-c3ccc(OC(F)(F)F)cc3)n2)cc1OC (3D coordinates assigned)
COc1ccc(-c2noc(-c3ccc(OC(F)(F)F)cc3)n2)cc1OC (optimized conformer: 74.42606009550224 kcal/mol)

>  <smiles>  (30) 
COc1ccc(-c2noc(-c3ccc(OC(F)(F)F)cc3)n2)cc1OC

>  <score_type>  (30) 
oracle

>  <origin>  (30) 
adgpu

>  <m_score__min__energy>  (30) 
-7.6900000000000004

>  <m_primary>  (30) 
energy

$$$$
30:0
     RDKit          3D

 22 23  0  0  0  0  0  0  0  0999 V2000
   -6.0490   27.0110  -28.5860 H   0  0  0  0  0  0  0  0  0  0  0  0
   -6.4450   26.1320  -28.9890 N   0  0  0  0  0  0  0  0  0  0  0  0
   -5.7360   25.3680  -29.7550 C   0  0  0  0  0  0  0  0  0  0  0  0
   -6.1680   24.1950  -30.3300 C   0  0  0  0  0  0  0  0  0  0  0  0
   -7.1538   23.7141  -30.2461 H   0  0  0  0  0  0  0  0  0  0  0  0
   -5.0540   23.7660  -31.0430 C   0  0  0  0  0  0  0  0  0  0  0  0
   -4.9320   22.5440  -31.8690 C   0  0  0  0  0  0  0  0  0  0  0  0
   -6.0440   21.6980  -32.0240 C   0  0  0  0  0  0  0  0  0  0  0  0
   -6.9949   21.9504  -31.5320 H   0  0  0  0  0  0  0  0  0  0  0  0
   -5.9500   20.5380  -32.7990 C   0  0  0  0  0  0  0  0  0  0  0  0
   -6.8257   19.8822  -32.9133 H   0  0  0  0  0  0  0  0  0  0  0  0
   -4.7480   20.2100  -33.4280 C   0  0  0  0  0  0  0  0  0  0  0  0
   -4.6790   19.2969  -34.0375 H   0  0  0  0  0  0  0  0  0  0  0  0
   -3.6290   21.0410  -33.2850 C   0  0  0  0  0  0  0  0  0  0  0  0
   -2.3970   20.7040  -33.9300 N   0  0  0  0  0  0  0  0  0  0  0  0
   -1.9490   21.3630  -34.6040 H   0  0  0  0  0  0  0  0  0  0  0  0
   -1.9270   19.7910  -33.7390 H   0  0  0  0  0  0  0  0  0  0  0  0
   -3.7220   22.2050  -32.5070 C   0  0  0  0  0  0  0  0  0  0  0  0
   -2.8439   22.8578  -32.3942 H   0  0  0  0  0  0  0  0  0  0  0  0
   -4.0800   24.6380  -30.8720 O   0  0  0  0  0  0  0  0  0  0  0  0
   -4.4630   25.6120  -30.1010 N   0  0  0  0  0  0  0  0  0  0  0  0
   -3.8700   26.4240  -29.8180 H   0  0  0  0  0  0  0  0  0  0  0  0
  1  2  1  0
  2  3  2  0
  3  4  1  0
  4  5  1  0
  4  6  2  0
  6  7  1  0
  7  8  2  0
  8  9  1  0
  8 10  1  0
 10 11  1  0
 10 12  2  0
 12 13  1  0
 12 14  1  0
 14 15  1  0
 15 16  1  0
 15 17  1  0
 14 18  2  0
 18 19  1  0
  6 20  1  0
 20 21  1  0
 21 22  1  0
 21  3  1  0
 18  7  1  0
M  END
>  <UniqueID>  (31) 
31

>  <SMILES>  (31) 
[H]/N=c1/cc(-c2cccc(N)c2)o[nH]1

>  <Energy>  (31) 
54.54824712361604

>  <Genealogy>  (31) 
[H]/N=c1/cc(-c2cccc(N)c2)o[nH]1 (cis-trans isomerization)
[H]/N=c1/cc(-c2cccc(N)c2)o[nH]1 (3D coordinates assigned)
[H]/N=c1/cc(-c2cccc(N)c2)o[nH]1 (optimized conformer: 54.54824712361604 kcal/mol)

>  <smiles>  (31) 
N=c1cc(-c2cccc(N)c2)o[nH]1

>  <score_type>  (31) 
oracle

>  <origin>  (31) 
adgpu

>  <m_score__min__energy>  (31) 
-6.79

>  <m_primary>  (31) 
energy

$$$$
31:0
     RDKit          3D

 21 22  0  0  0  0  0  0  0  0999 V2000
   -8.7290   22.6680  -31.5960 C   0  0  0  0  0  0  0  0  0  0  0  0
   -9.4880   21.5190  -31.8130 C   0  0  0  0  0  0  0  0  0  0  0  0
   -8.8830   20.3610  -32.3100 C   0  0  0  0  0  0  0  0  0  0  0  0
   -7.5010   20.3320  -32.6030 C   0  0  0  0  0  0  0  0  0  0  0  0
   -6.8880   19.0730  -33.1340 C   0  0  0  0  0  0  0  0  0  0  0  0
   -7.0940   17.8080  -32.5410 C   0  0  0  0  0  0  0  0  0  0  0  0
   -6.4880   16.6770  -33.0950 C   0  0  0  0  0  0  0  0  0  0  0  0
   -5.6840   16.7990  -34.2260 C   0  0  0  0  0  0  0  0  0  0  0  0
   -5.4960   18.0570  -34.7940 C   0  0  0  0  0  0  0  0  0  0  0  0
   -6.0930   19.1460  -34.2430 N   0  0  0  0  0  0  0  0  0  0  0  0
   -6.7500   21.5080  -32.3750 C   0  0  0  0  0  0  0  0  0  0  0  0
   -7.3640   22.6630  -31.8780 C   0  0  0  0  0  0  0  0  0  0  0  0
   -9.2067   23.5774  -31.2027 H   0  0  0  0  0  0  0  0  0  0  0  0
  -10.5657   21.5236  -31.5926 H   0  0  0  0  0  0  0  0  0  0  0  0
   -9.4914   19.4596  -32.4753 H   0  0  0  0  0  0  0  0  0  0  0  0
   -7.7284   17.7133  -31.6474 H   0  0  0  0  0  0  0  0  0  0  0  0
   -6.6461   15.6893  -32.6374 H   0  0  0  0  0  0  0  0  0  0  0  0
   -5.2033   15.9125  -34.6654 H   0  0  0  0  0  0  0  0  0  0  0  0
   -4.8647   18.1686  -35.6879 H   0  0  0  0  0  0  0  0  0  0  0  0
   -5.6714   21.5151  -32.5906 H   0  0  0  0  0  0  0  0  0  0  0  0
   -6.7667   23.5711  -31.7091 H   0  0  0  0  0  0  0  0  0  0  0  0
  1  2  2  0
  2  3  1  0
  3  4  2  0
  4  5  1  0
  5  6  2  0
  6  7  1  0
  7  8  2  0
  8  9  1  0
  9 10  2  0
  4 11  1  0
 11 12  2  0
 12  1  1  0
 10  5  1  0
  1 13  1  0
  2 14  1  0
  3 15  1  0
  6 16  1  0
  7 17  1  0
  8 18  1  0
  9 19  1  0
 11 20  1  0
 12 21  1  0
M  END
>  <UniqueID>  (32) 
32

>  <SMILES>  (32) 
c1ccc(-c2ccccn2)cc1

>  <Energy>  (32) 
27.366216035677432

>  <Genealogy>  (32) 
c1ccc(-c2ccccn2)cc1 (3D coordinates assigned)
c1ccc(-c2ccccn2)cc1 (optimized conformer: 27.366216035677432 kcal/mol)

>  <smiles>  (32) 
c1ccc(-c2ccccn2)cc1

>  <score_type>  (32) 
oracle

>  <origin>  (32) 
adgpu

>  <m_score__min__energy>  (32) 
-5.6799999999999997

>  <m_primary>  (32) 
energy

$$$$
32:0
     RDKit          3D

 29 30  0  0  0  0  0  0  0  0999 V2000
   -4.5530   24.2120  -28.5290 C   0  0  0  0  0  0  0  0  0  0  0  0
   -5.2820   24.8980  -29.9970 S   0  0  0  0  0  0  0  0  0  0  0  0
   -6.4010   25.8270  -29.6180 O   0  0  0  0  0  0  0  0  0  0  0  0
   -4.2460   25.6770  -30.7580 O   0  0  0  0  0  0  0  0  0  0  0  0
   -5.9050   23.5940  -31.0040 C   0  0  0  0  0  0  0  0  0  0  0  0
   -5.0210   22.7430  -31.6810 C   0  0  0  0  0  0  0  0  0  0  0  0
   -5.5150   21.7170  -32.4930 C   0  0  0  0  0  0  0  0  0  0  0  0
   -6.8950   21.5240  -32.6300 C   0  0  0  0  0  0  0  0  0  0  0  0
   -7.3510   20.4920  -33.4630 O   0  0  0  0  0  0  0  0  0  0  0  0
   -6.8140   19.1970  -33.5240 C   0  0  0  0  0  0  0  0  0  0  0  0
   -5.7740   18.8720  -34.4140 C   0  0  0  0  0  0  0  0  0  0  0  0
   -5.2700   17.5690  -34.4650 C   0  0  0  0  0  0  0  0  0  0  0  0
   -5.8080   16.5770  -33.6390 C   0  0  0  0  0  0  0  0  0  0  0  0
   -5.1760   14.9420  -33.7050 Cl  0  0  0  0  0  0  0  0  0  0  0  0
   -6.8560   16.8880  -32.7670 C   0  0  0  0  0  0  0  0  0  0  0  0
   -7.3640   18.1910  -32.7120 C   0  0  0  0  0  0  0  0  0  0  0  0
   -8.6820   18.5560  -31.6100 Cl  0  0  0  0  0  0  0  0  0  0  0  0
   -7.7810   22.3960  -31.9700 C   0  0  0  0  0  0  0  0  0  0  0  0
   -7.2870   23.4220  -31.1590 C   0  0  0  0  0  0  0  0  0  0  0  0
   -5.0266   24.6576  -27.6418 H   0  0  0  0  0  0  0  0  0  0  0  0
   -4.7061   23.1228  -28.5182 H   0  0  0  0  0  0  0  0  0  0  0  0
   -3.4751   24.4309  -28.5182 H   0  0  0  0  0  0  0  0  0  0  0  0
   -3.9352   22.8824  -31.5734 H   0  0  0  0  0  0  0  0  0  0  0  0
   -4.8151   21.0577  -33.0273 H   0  0  0  0  0  0  0  0  0  0  0  0
   -5.3554   19.6469  -35.0730 H   0  0  0  0  0  0  0  0  0  0  0  0
   -4.4495   17.3238  -35.1554 H   0  0  0  0  0  0  0  0  0  0  0  0
   -7.2827   16.1058  -32.1220 H   0  0  0  0  0  0  0  0  0  0  0  0
   -8.8668   22.2697  -32.0928 H   0  0  0  0  0  0  0  0  0  0  0  0
   -7.9851   24.0961  -30.6411 H   0  0  0  0  0  0  0  0  0  0  0  0
  1  2  1  0
  2  3  2  0
  2  4  2  0
  2  5  1  0
  5  6  2  0
  6  7  1  0
  7  8  2  0
  8  9  1  0
  9 10  1  0
 10 11  2  0
 11 12  1  0
 12 13  2  0
 13 14  1  0
 13 15  1  0
 15 16  2  0
 16 17  1  0
  8 18  1  0
 18 19  2  0
 19  5  1  0
 16 10  1  0
  1 20  1  0
  1 21  1  0
  1 22  1  0
  6 23  1  0
  7 24  1  0
 11 25  1  0
 12 26  1  0
 15 27  1  0
 18 28  1  0
 19 29  1  0
M  END
>  <UniqueID>  (33) 
33

>  <SMILES>  (33) 
CS(=O)(=O)c1ccc(Oc2ccc(Cl)cc2Cl)cc1

>  <Energy>  (33) 
33.47672689965494

>  <Genealogy>  (33) 
CS(=O)(=O)c1ccc(Oc2ccc(Cl)cc2Cl)cc1 (3D coordinates assigned)
CS(=O)(=O)c1ccc(Oc2ccc(Cl)cc2Cl)cc1 (optimized conformer: 33.47672689965494 kcal/mol)

>  <smiles>  (33) 
CS(=O)(=O)c1ccc(Oc2ccc(Cl)cc2Cl)cc1

>  <score_type>  (33) 
oracle

>  <origin>  (33) 
adgpu

>  <m_score__min__energy>  (33) 
-8.7200000000000006

>  <m_primary>  (33) 
energy

$$$$
33:0
     RDKit          3D

 37 38  0  0  0  0  0  0  0  0999 V2000
   -7.8730   22.2110  -30.5720 C   0  0  0  0  0  0  0  0  0  0  0  0
   -7.2900   21.8280  -31.8630 N   0  0  0  0  0  0  0  0  0  0  0  0
   -6.6600   22.8710  -32.6860 C   0  0  0  0  0  0  0  0  0  0  0  0
   -5.6070   23.6140  -31.9070 C   0  0  0  0  0  0  0  0  0  0  0  0
   -5.7750   24.8770  -31.4660 N   0  0  0  0  0  0  0  0  0  0  0  0
   -4.6600   25.1740  -30.8190 N   0  0  0  0  0  0  0  0  0  0  0  0
   -3.8350   24.1420  -30.8490 N   0  0  0  0  0  0  0  0  0  0  0  0
   -4.4000   23.1390  -31.5060 N   0  0  0  0  0  0  0  0  0  0  0  0
   -3.7120   21.8590  -31.7960 C   0  0  0  0  0  0  0  0  0  0  0  0
   -4.3530   20.6890  -31.0160 C   0  0  0  0  0  0  0  0  0  0  0  0
   -3.7590   21.5800  -33.3090 C   0  0  0  0  0  0  0  0  0  0  0  0
   -2.2300   21.9540  -31.3640 C   0  0  0  0  0  0  0  0  0  0  0  0
   -7.2770   20.4370  -32.2730 C   0  0  0  0  0  0  0  0  0  0  0  0
   -8.0500   19.4750  -31.5920 C   0  0  0  0  0  0  0  0  0  0  0  0
   -8.0380   18.1360  -31.9960 C   0  0  0  0  0  0  0  0  0  0  0  0
   -7.2580   17.7380  -33.0820 C   0  0  0  0  0  0  0  0  0  0  0  0
   -7.2500   16.4380  -33.4690 F   0  0  0  0  0  0  0  0  0  0  0  0
   -6.4880   18.6790  -33.7700 C   0  0  0  0  0  0  0  0  0  0  0  0
   -5.7290   18.2940  -34.8250 F   0  0  0  0  0  0  0  0  0  0  0  0
   -6.4970   20.0190  -33.3710 C   0  0  0  0  0  0  0  0  0  0  0  0
   -7.2561   21.8057  -29.7564 H   0  0  0  0  0  0  0  0  0  0  0  0
   -7.9068   23.3078  -30.4959 H   0  0  0  0  0  0  0  0  0  0  0  0
   -8.8931   21.8065  -30.4959 H   0  0  0  0  0  0  0  0  0  0  0  0
   -6.1929   22.4021  -33.5646 H   0  0  0  0  0  0  0  0  0  0  0  0
   -7.4353   23.5870  -32.9963 H   0  0  0  0  0  0  0  0  0  0  0  0
   -4.2536   20.8705  -29.9356 H   0  0  0  0  0  0  0  0  0  0  0  0
   -5.4185   20.6134  -31.2786 H   0  0  0  0  0  0  0  0  0  0  0  0
   -3.8432   19.7503  -31.2786 H   0  0  0  0  0  0  0  0  0  0  0  0
   -3.9395   20.5083  -33.4788 H   0  0  0  0  0  0  0  0  0  0  0  0
   -4.5712   22.1654  -33.7647 H   0  0  0  0  0  0  0  0  0  0  0  0
   -2.7999   21.8670  -33.7647 H   0  0  0  0  0  0  0  0  0  0  0  0
   -2.1677   21.9580  -30.2658 H   0  0  0  0  0  0  0  0  0  0  0  0
   -1.6766   21.0895  -31.7595 H   0  0  0  0  0  0  0  0  0  0  0  0
   -1.7916   22.8821  -31.7595 H   0  0  0  0  0  0  0  0  0  0  0  0
   -8.6684   19.7801  -30.7350 H   0  0  0  0  0  0  0  0  0  0  0  0
   -8.6453   17.3947  -31.4559 H   0  0  0  0  0  0  0  0  0  0  0  0
   -5.8897   20.7544  -33.9190 H   0  0  0  0  0  0  0  0  0  0  0  0
  1  2  1  0
  2  3  1  0
  3  4  1  0
  4  5  2  0
  5  6  1  0
  6  7  2  0
  7  8  1  0
  8  9  1  0
  9 10  1  0
  9 11  1  0
  9 12  1  0
  2 13  1  0
 13 14  2  0
 14 15  1  0
 15 16  2  0
 16 17  1  0
 16 18  1  0
 18 19  1  0
 18 20  2  0
  8  4  1  0
 20 13  1  0
  1 21  1  0
  1 22  1  0
  1 23  1  0
  3 24  1  0
  3 25  1  0
 10 26  1  0
 10 27  1  0
 10 28  1  0
 11 29  1  0
 11 30  1  0
 11 31  1  0
 12 32  1  0
 12 33  1  0
 12 34  1  0
 14 35  1  0
 15 36  1  0
 20 37  1  0
M  END
>  <UniqueID>  (34) 
34

>  <SMILES>  (34) 
CN(Cc1nnnn1C(C)(C)C)c1ccc(F)c(F)c1

>  <Energy>  (34) 
78.39888084265912

>  <Genealogy>  (34) 
CN(Cc1nnnn1C(C)(C)C)c1ccc(F)c(F)c1 (3D coordinates assigned)
CN(Cc1nnnn1C(C)(C)C)c1ccc(F)c(F)c1 (optimized conformer: 78.39888084265912 kcal/mol)

>  <smiles>  (34) 
CN(Cc1nnnn1C(C)(C)C)c1ccc(F)c(F)c1

>  <score_type>  (34) 
oracle

>  <origin>  (34) 
adgpu

>  <m_score__min__energy>  (34) 
-7.6200000000000001

>  <m_primary>  (34) 
energy

$$$$
34:0
     RDKit          3D

 30 31  0  0  0  0  0  0  0  0999 V2000
   -3.5820   24.2880  -28.3230 C   0  0  0  0  0  0  0  0  0  0  0  0
   -4.1410   24.5070  -29.6970 C   0  0  0  0  0  0  0  0  0  0  0  0
   -3.5260   25.2850  -30.4770 O   0  0  0  0  0  0  0  0  0  0  0  0
   -5.3900   23.8370  -30.1550 C   0  0  0  0  0  0  0  0  0  0  0  0
   -6.0690   22.9190  -29.3330 C   0  0  0  0  0  0  0  0  0  0  0  0
   -7.2350   22.2960  -29.7800 C   0  0  0  0  0  0  0  0  0  0  0  0
   -7.7470   22.5690  -31.0530 C   0  0  0  0  0  0  0  0  0  0  0  0
   -9.2380   21.7100  -31.5790 S   0  0  0  0  0  0  0  0  0  0  0  0
   -8.3330   20.2490  -32.0950 C   0  0  0  0  0  0  0  0  0  0  0  0
   -8.7020   18.9890  -31.6070 C   0  0  0  0  0  0  0  0  0  0  0  0
   -7.9970   17.8480  -32.0050 C   0  0  0  0  0  0  0  0  0  0  0  0
   -6.9250   17.9640  -32.8950 C   0  0  0  0  0  0  0  0  0  0  0  0
   -6.5590   19.2200  -33.3900 C   0  0  0  0  0  0  0  0  0  0  0  0
   -7.2630   20.3610  -32.9930 C   0  0  0  0  0  0  0  0  0  0  0  0
   -7.0890   23.4990  -31.8840 C   0  0  0  0  0  0  0  0  0  0  0  0
   -7.5990   23.8350  -33.1810 N   0  0  0  0  0  0  0  0  0  0  0  0
   -5.9140   24.1190  -31.4300 C   0  0  0  0  0  0  0  0  0  0  0  0
   -4.3302   24.5811  -27.5718 H   0  0  0  0  0  0  0  0  0  0  0  0
   -3.3305   23.2249  -28.1946 H   0  0  0  0  0  0  0  0  0  0  0  0
   -2.6753   24.8974  -28.1946 H   0  0  0  0  0  0  0  0  0  0  0  0
   -5.6779   22.6906  -28.3306 H   0  0  0  0  0  0  0  0  0  0  0  0
   -7.7568   21.5830  -29.1247 H   0  0  0  0  0  0  0  0  0  0  0  0
   -9.5476   18.8964  -30.9096 H   0  0  0  0  0  0  0  0  0  0  0  0
   -8.2861   16.8598  -31.6178 H   0  0  0  0  0  0  0  0  0  0  0  0
   -6.3692   17.0672  -33.2061 H   0  0  0  0  0  0  0  0  0  0  0  0
   -5.7169   19.3102  -34.0920 H   0  0  0  0  0  0  0  0  0  0  0  0
   -6.9766   21.3477  -33.3860 H   0  0  0  0  0  0  0  0  0  0  0  0
   -6.9780   23.7990  -34.0200 H   0  0  0  0  0  0  0  0  0  0  0  0
   -8.5820   24.1520  -33.3250 H   0  0  0  0  0  0  0  0  0  0  0  0
   -5.3946   24.8370  -32.0817 H   0  0  0  0  0  0  0  0  0  0  0  0
  1  2  1  0
  2  3  2  0
  2  4  1  0
  4  5  2  0
  5  6  1  0
  6  7  2  0
  7  8  1  0
  8  9  1  0
  9 10  2  0
 10 11  1  0
 11 12  2  0
 12 13  1  0
 13 14  2  0
  7 15  1  0
 15 16  1  0
 15 17  2  0
 17  4  1  0
 14  9  1  0
  1 18  1  0
  1 19  1  0
  1 20  1  0
  5 21  1  0
  6 22  1  0
 10 23  1  0
 11 24  1  0
 12 25  1  0
 13 26  1  0
 14 27  1  0
 16 28  1  0
 16 29  1  0
 17 30  1  0
M  END
>  <UniqueID>  (35) 
35

>  <SMILES>  (35) 
CC(=O)c1ccc(Sc2ccccc2)c(N)c1

>  <Energy>  (35) 
26.85711985729189

>  <Genealogy>  (35) 
CC(=O)c1ccc(Sc2ccccc2)c(N)c1 (3D coordinates assigned)
CC(=O)c1ccc(Sc2ccccc2)c(N)c1 (optimized conformer: 26.85711985729189 kcal/mol)

>  <smiles>  (35) 
CC(=O)c1ccc(Sc2ccccc2)c(N)c1

>  <score_type>  (35) 
oracle

>  <origin>  (35) 
adgpu

>  <m_score__min__energy>  (35) 
-7.71

>  <m_primary>  (35) 
energy

$$$$
35:0
     RDKit          3D

 23 25  0  0  0  0  0  0  0  0999 V2000
   -8.7780   20.3460  -32.3880 C   0  0  0  0  0  0  0  0  0  0  0  0
   -9.1800   21.4480  -31.6310 C   0  0  0  0  0  0  0  0  0  0  0  0
   -8.2350   22.3910  -31.2200 C   0  0  0  0  0  0  0  0  0  0  0  0
   -6.8890   22.2160  -31.5750 C   0  0  0  0  0  0  0  0  0  0  0  0
   -5.8670   23.1880  -31.1600 C   0  0  0  0  0  0  0  0  0  0  0  0
   -5.1330   23.0730  -30.0360 N   0  0  0  0  0  0  0  0  0  0  0  0
   -4.3660   24.1810  -30.1080 C   0  0  0  0  0  0  0  0  0  0  0  0
   -3.3660   24.5370  -29.0980 C   0  0  0  0  0  0  0  0  0  0  0  0
   -3.3710   24.1380  -27.7750 C   0  0  0  0  0  0  0  0  0  0  0  0
   -2.2510   24.7090  -27.2130 C   0  0  0  0  0  0  0  0  0  0  0  0
   -1.6330   25.4200  -28.2230 C   0  0  0  0  0  0  0  0  0  0  0  0
   -2.3220   25.2970  -29.3350 O   0  0  0  0  0  0  0  0  0  0  0  0
   -4.6200   24.9170  -31.2070 N   0  0  0  0  0  0  0  0  0  0  0  0
   -5.5540   24.2700  -31.8320 O   0  0  0  0  0  0  0  0  0  0  0  0
   -6.5250   21.1310  -32.3140 N   0  0  0  0  0  0  0  0  0  0  0  0
   -7.4300   20.2030  -32.7240 C   0  0  0  0  0  0  0  0  0  0  0  0
   -9.5151   19.5984  -32.7163 H   0  0  0  0  0  0  0  0  0  0  0  0
  -10.2384   21.5734  -31.3589 H   0  0  0  0  0  0  0  0  0  0  0  0
   -8.5432   23.2625  -30.6237 H   0  0  0  0  0  0  0  0  0  0  0  0
   -4.1137   23.4985  -27.2756 H   0  0  0  0  0  0  0  0  0  0  0  0
   -1.9159   24.6173  -26.1693 H   0  0  0  0  0  0  0  0  0  0  0  0
   -0.7053   26.0008  -28.1132 H   0  0  0  0  0  0  0  0  0  0  0  0
   -7.1005   19.3395  -33.3204 H   0  0  0  0  0  0  0  0  0  0  0  0
  1  2  2  0
  2  3  1  0
  3  4  2  0
  4  5  1  0
  5  6  2  0
  6  7  1  0
  7  8  1  0
  8  9  2  0
  9 10  1  0
 10 11  2  0
 11 12  1  0
  7 13  2  0
 13 14  1  0
  4 15  1  0
 15 16  2  0
 16  1  1  0
 14  5  1  0
 12  8  1  0
  1 17  1  0
  2 18  1  0
  3 19  1  0
  9 20  1  0
 10 21  1  0
 11 22  1  0
 16 23  1  0
M  END
>  <UniqueID>  (36) 
36

>  <SMILES>  (36) 
c1ccc(-c2nc(-c3ccco3)no2)nc1

>  <Energy>  (36) 
83.77820373468835

>  <Genealogy>  (36) 
c1ccc(-c2nc(-c3ccco3)no2)nc1 (3D coordinates assigned)
c1ccc(-c2nc(-c3ccco3)no2)nc1 (optimized conformer: 83.77820373468835 kcal/mol)

>  <smiles>  (36) 
c1ccc(-c2nc(-c3ccco3)no2)nc1

>  <score_type>  (36) 
oracle

>  <origin>  (36) 
adgpu

>  <m_score__min__energy>  (36) 
-7.2599999999999998

>  <m_primary>  (36) 
energy

$$$$
36:0
     RDKit          3D

 43 45  0  0  0  0  0  0  0  0999 V2000
   -4.1800   22.6800  -28.2680 C   0  0  0  0  0  0  0  0  0  0  0  0
   -3.8690   24.1740  -28.2760 C   0  0  0  0  0  0  0  0  0  0  0  0
   -2.8540   24.5220  -29.3680 C   0  0  0  0  0  0  0  0  0  0  0  0
   -3.5080   25.2210  -30.4720 N   0  0  0  0  0  0  0  0  0  0  0  0
   -4.8970   25.1180  -30.8090 C   0  0  0  0  0  0  0  0  0  0  0  0
   -5.6400   26.1240  -30.6530 O   0  0  0  0  0  0  0  0  0  0  0  0
   -5.4870   23.8630  -31.3170 C   0  0  0  0  0  0  0  0  0  0  0  0
   -4.6690   22.9420  -31.9760 C   0  0  0  0  0  0  0  0  0  0  0  0
   -5.1680   21.7680  -32.4740 N   0  0  0  0  0  0  0  0  0  0  0  0
   -4.2190   20.8590  -33.1520 C   0  0  0  0  0  0  0  0  0  0  0  0
   -2.8730   20.8720  -32.4710 C   0  0  0  0  0  0  0  0  0  0  0  0
   -2.7720   20.6450  -31.0870 C   0  0  0  0  0  0  0  0  0  0  0  0
   -1.5260   20.6740  -30.4540 C   0  0  0  0  0  0  0  0  0  0  0  0
   -0.3710   20.9430  -31.1940 C   0  0  0  0  0  0  0  0  0  0  0  0
   -0.4630   21.1890  -32.5660 C   0  0  0  0  0  0  0  0  0  0  0  0
   -1.7070   21.1610  -33.2020 C   0  0  0  0  0  0  0  0  0  0  0  0
   -6.5080   21.4590  -32.3170 C   0  0  0  0  0  0  0  0  0  0  0  0
   -7.0650   20.2570  -32.8180 C   0  0  0  0  0  0  0  0  0  0  0  0
   -8.4170   19.9640  -32.6390 C   0  0  0  0  0  0  0  0  0  0  0  0
   -9.2450   20.8530  -31.9600 C   0  0  0  0  0  0  0  0  0  0  0  0
   -8.7280   22.0450  -31.4570 C   0  0  0  0  0  0  0  0  0  0  0  0
   -7.3650   22.3620  -31.6290 C   0  0  0  0  0  0  0  0  0  0  0  0
   -6.8380   23.5610  -31.1220 C   0  0  0  0  0  0  0  0  0  0  0  0
   -7.5720   24.3610  -30.4750 O   0  0  0  0  0  0  0  0  0  0  0  0
   -4.2536   22.3264  -27.2290 H   0  0  0  0  0  0  0  0  0  0  0  0
   -5.1346   22.5014  -28.7846 H   0  0  0  0  0  0  0  0  0  0  0  0
   -3.3760   22.1353  -28.7846 H   0  0  0  0  0  0  0  0  0  0  0  0
   -4.7985   24.7331  -28.4587 H   0  0  0  0  0  0  0  0  0  0  0  0
   -3.4386   24.4456  -27.3008 H   0  0  0  0  0  0  0  0  0  0  0  0
   -2.0724   25.1687  -28.9427 H   0  0  0  0  0  0  0  0  0  0  0  0
   -2.4101   23.5910  -29.7502 H   0  0  0  0  0  0  0  0  0  0  0  0
   -3.5988   23.1651  -32.0977 H   0  0  0  0  0  0  0  0  0  0  0  0
   -4.6230   19.8361  -33.1295 H   0  0  0  0  0  0  0  0  0  0  0  0
   -4.0887   21.2008  -34.1894 H   0  0  0  0  0  0  0  0  0  0  0  0
   -3.6793   20.4433  -30.4987 H   0  0  0  0  0  0  0  0  0  0  0  0
   -1.4543   20.4850  -29.3727 H   0  0  0  0  0  0  0  0  0  0  0  0
    0.6098   20.9610  -30.6962 H   0  0  0  0  0  0  0  0  0  0  0  0
    0.4457   21.4052  -33.1470 H   0  0  0  0  0  0  0  0  0  0  0  0
   -1.7745   21.3662  -34.2806 H   0  0  0  0  0  0  0  0  0  0  0  0
   -6.4224   19.5445  -33.3559 H   0  0  0  0  0  0  0  0  0  0  0  0
   -8.8308   19.0255  -33.0365 H   0  0  0  0  0  0  0  0  0  0  0  0
  -10.3096   20.6141  -31.8202 H   0  0  0  0  0  0  0  0  0  0  0  0
   -9.3879   22.7437  -30.9219 H   0  0  0  0  0  0  0  0  0  0  0  0
  1  2  1  0
  2  3  1  0
  3  4  1  0
  4  5  1  0
  5  6  2  0
  5  7  1  0
  7  8  2  0
  8  9  1  0
  9 10  1  0
 10 11  1  0
 11 12  2  0
 12 13  1  0
 13 14  2  0
 14 15  1  0
 15 16  2  0
  9 17  1  0
 17 18  2  0
 18 19  1  0
 19 20  2  0
 20 21  1  0
 21 22  2  0
 22 23  1  0
 23 24  2  0
 23  7  1  0
 16 11  1  0
 22 17  1  0
  1 25  1  0
  1 26  1  0
  1 27  1  0
  2 28  1  0
  2 29  1  0
  3 30  1  0
  3 31  1  0
  8 32  1  0
 10 33  1  0
 10 34  1  0
 12 35  1  0
 13 36  1  0
 14 37  1  0
 15 38  1  0
 16 39  1  0
 18 40  1  0
 19 41  1  0
 20 42  1  0
 21 43  1  0
M  CHG  1   4  -1
M  END
>  <UniqueID>  (37) 
37

>  <SMILES>  (37) 
CCC[N-]C(=O)c1cn(Cc2ccccc2)c2ccccc2c1=O

>  <Energy>  (37) 
54.629570160676025

>  <Genealogy>  (37) 
CCC[N-]C(=O)c1cn(Cc2ccccc2)c2ccccc2c1=O (protonated)
CCC[N-]C(=O)c1cn(Cc2ccccc2)c2ccccc2c1=O (3D coordinates assigned)
CCC[N-]C(=O)c1cn(Cc2ccccc2)c2ccccc2c1=O (optimized conformer: 54.629570160676025 kcal/mol)

>  <smiles>  (37) 
CCCNC(=O)c1cn(Cc2ccccc2)c2ccccc2c1=O

>  <score_type>  (37) 
oracle

>  <origin>  (37) 
adgpu

>  <m_score__min__energy>  (37) 
-10.109999999999999

>  <m_primary>  (37) 
energy

$$$$
37:0
     RDKit          3D

 24 25  0  0  0  0  0  0  0  0999 V2000
   -6.4240   25.6050  -29.6440 C   0  0  0  0  0  0  0  0  0  0  0  0
   -5.8530   24.3960  -30.3170 C   0  0  0  0  0  0  0  0  0  0  0  0
   -6.6850   23.4260  -30.6900 O   0  0  0  0  0  0  0  0  0  0  0  0
   -6.2860   22.3060  -31.2930 C   0  0  0  0  0  0  0  0  0  0  0  0
   -7.3050   21.2930  -31.6640 C   0  0  0  0  0  0  0  0  0  0  0  0
   -8.6410   21.6420  -31.9400 C   0  0  0  0  0  0  0  0  0  0  0  0
   -9.5640   20.6580  -32.2950 C   0  0  0  0  0  0  0  0  0  0  0  0
   -9.1510   19.3280  -32.3790 C   0  0  0  0  0  0  0  0  0  0  0  0
   -7.8580   19.0020  -32.1220 N   0  0  0  0  0  0  0  0  0  0  0  0
   -6.9380   19.9410  -31.7750 C   0  0  0  0  0  0  0  0  0  0  0  0
   -4.9210   22.1230  -31.5720 C   0  0  0  0  0  0  0  0  0  0  0  0
   -4.0140   23.1140  -31.1980 C   0  0  0  0  0  0  0  0  0  0  0  0
   -2.7860   22.9660  -31.4410 O   0  0  0  0  0  0  0  0  0  0  0  0
   -4.4710   24.2690  -30.5590 C   0  0  0  0  0  0  0  0  0  0  0  0
   -3.5550   25.2560  -30.1850 O   0  0  0  0  0  0  0  0  0  0  0  0
   -6.3647   25.4795  -28.5528 H   0  0  0  0  0  0  0  0  0  0  0  0
   -5.8513   26.4955  -29.9423 H   0  0  0  0  0  0  0  0  0  0  0  0
   -7.4756   25.7284  -29.9423 H   0  0  0  0  0  0  0  0  0  0  0  0
   -8.9577   22.6934  -31.8755 H   0  0  0  0  0  0  0  0  0  0  0  0
  -10.6089   20.9285  -32.5070 H   0  0  0  0  0  0  0  0  0  0  0  0
   -9.8722   18.5440  -32.6532 H   0  0  0  0  0  0  0  0  0  0  0  0
   -5.8982   19.6401  -31.5796 H   0  0  0  0  0  0  0  0  0  0  0  0
   -4.5728   21.2107  -32.0784 H   0  0  0  0  0  0  0  0  0  0  0  0
   -2.8990   25.6700  -30.8350 H   0  0  0  0  0  0  0  0  0  0  0  0
  1  2  1  0
  2  3  1  0
  3  4  1  0
  4  5  1  0
  5  6  2  0
  6  7  1  0
  7  8  2  0
  8  9  1  0
  9 10  2  0
  4 11  2  0
 11 12  1  0
 12 13  2  0
 12 14  1  0
 14 15  1  0
 14  2  2  0
 10  5  1  0
  1 16  1  0
  1 17  1  0
  1 18  1  0
  6 19  1  0
  7 20  1  0
  8 21  1  0
 10 22  1  0
 11 23  1  0
 15 24  1  0
M  END
>  <UniqueID>  (38) 
38

>  <SMILES>  (38) 
Cc1oc(-c2cccnc2)cc(=O)c1O

>  <Energy>  (38) 
30.44259384513867

>  <Genealogy>  (38) 
Cc1oc(-c2cccnc2)cc(=O)c1O (3D coordinates assigned)
Cc1oc(-c2cccnc2)cc(=O)c1O (optimized conformer: 30.44259384513867 kcal/mol)

>  <smiles>  (38) 
Cc1oc(-c2cccnc2)cc(=O)c1O

>  <score_type>  (38) 
oracle

>  <origin>  (38) 
adgpu

>  <m_score__min__energy>  (38) 
-7.1399999999999997

>  <m_primary>  (38) 
energy

$$$$
38:0
     RDKit          3D

 22 22  0  0  0  0  0  0  0  0999 V2000
   -9.5050   21.5500  -30.8450 C   0  0  0  0  0  0  0  0  0  0  0  0
   -8.3670   21.0800  -31.6930 C   0  0  0  0  0  0  0  0  0  0  0  0
   -8.1130   19.4870  -32.1660 S   0  0  0  0  0  0  0  0  0  0  0  0
   -6.7330   19.8520  -33.0560 C   0  0  0  0  0  0  0  0  0  0  0  0
   -6.4580   21.1740  -33.0080 N   0  0  0  0  0  0  0  0  0  0  0  0
   -7.3660   21.8660  -32.2660 C   0  0  0  0  0  0  0  0  0  0  0  0
   -7.2270   23.3440  -32.0500 C   0  0  0  0  0  0  0  0  0  0  0  0
   -5.8930   23.7800  -32.4650 N   0  0  0  0  0  0  0  0  0  0  0  0
   -4.8330   23.8470  -31.0900 S   0  0  0  0  0  0  0  0  0  0  0  0
   -5.6400   23.2050  -29.6380 C   0  0  0  0  0  0  0  0  0  0  0  0
   -3.6150   23.0150  -31.3740 O   0  0  0  0  0  0  0  0  0  0  0  0
   -4.4060   25.2680  -30.8400 O   0  0  0  0  0  0  0  0  0  0  0  0
   -9.2404   21.4407  -29.7829 H   0  0  0  0  0  0  0  0  0  0  0  0
   -9.7131   22.6077  -31.0641 H   0  0  0  0  0  0  0  0  0  0  0  0
  -10.3988   20.9474  -31.0641 H   0  0  0  0  0  0  0  0  0  0  0  0
   -6.1330   19.1114  -33.6051 H   0  0  0  0  0  0  0  0  0  0  0  0
   -7.9861   23.8734  -32.6446 H   0  0  0  0  0  0  0  0  0  0  0  0
   -7.3689   23.5711  -30.9831 H   0  0  0  0  0  0  0  0  0  0  0  0
   -5.4980   23.0600  -33.1140 H   0  0  0  0  0  0  0  0  0  0  0  0
   -5.1445   23.5992  -28.7385 H   0  0  0  0  0  0  0  0  0  0  0  0
   -6.6962   23.5125  -29.6393 H   0  0  0  0  0  0  0  0  0  0  0  0
   -5.5778   22.1068  -29.6393 H   0  0  0  0  0  0  0  0  0  0  0  0
  1  2  1  0
  2  3  1  0
  3  4  1  0
  4  5  2  0
  5  6  1  0
  6  7  1  0
  7  8  1  0
  8  9  1  0
  9 10  1  0
  9 11  2  0
  9 12  2  0
  6  2  2  0
  1 13  1  0
  1 14  1  0
  1 15  1  0
  4 16  1  0
  7 17  1  0
  7 18  1  0
  8 19  1  0
 10 20  1  0
 10 21  1  0
 10 22  1  0
M  END
>  <UniqueID>  (39) 
39

>  <SMILES>  (39) 
Cc1scnc1CNS(C)(=O)=O

>  <Energy>  (39) 
40.2655436351197

>  <Genealogy>  (39) 
Cc1scnc1CNS(C)(=O)=O (3D coordinates assigned)
Cc1scnc1CNS(C)(=O)=O (optimized conformer: 40.2655436351197 kcal/mol)

>  <smiles>  (39) 
Cc1scnc1CNS(C)(=O)=O

>  <score_type>  (39) 
oracle

>  <origin>  (39) 
adgpu

>  <m_score__min__energy>  (39) 
-6.0599999999999996

>  <m_primary>  (39) 
energy

$$$$
39:0
     RDKit          3D

 44 46  0  0  0  0  0  0  0  0999 V2000
   -8.7330   19.9280  -31.8710 C   0  0  0  0  0  0  0  0  0  0  0  0
   -7.9720   20.8140  -32.6860 O   0  0  0  0  0  0  0  0  0  0  0  0
   -7.2830   21.9410  -32.2130 C   0  0  0  0  0  0  0  0  0  0  0  0
   -7.9620   23.0490  -31.6690 C   0  0  0  0  0  0  0  0  0  0  0  0
   -7.2530   24.1490  -31.1830 C   0  0  0  0  0  0  0  0  0  0  0  0
   -5.8520   24.1720  -31.2380 C   0  0  0  0  0  0  0  0  0  0  0  0
   -5.1030   25.3240  -30.6810 C   0  0  0  0  0  0  0  0  0  0  0  0
   -5.7280   26.3600  -30.3330 O   0  0  0  0  0  0  0  0  0  0  0  0
   -3.6870   25.2720  -30.4650 N   0  0  0  0  0  0  0  0  0  0  0  0
   -3.0260   24.5570  -29.4100 C   0  0  0  0  0  0  0  0  0  0  0  0
   -3.7040   23.5090  -28.7740 C   0  0  0  0  0  0  0  0  0  0  0  0
   -3.1070   22.8250  -27.7110 C   0  0  0  0  0  0  0  0  0  0  0  0
   -1.8380   23.1970  -27.2650 C   0  0  0  0  0  0  0  0  0  0  0  0
   -1.1570   24.2470  -27.8880 C   0  0  0  0  0  0  0  0  0  0  0  0
   -1.7470   24.9270  -28.9580 C   0  0  0  0  0  0  0  0  0  0  0  0
   -5.1730   23.0710  -31.7810 C   0  0  0  0  0  0  0  0  0  0  0  0
   -5.8770   21.9640  -32.2740 C   0  0  0  0  0  0  0  0  0  0  0  0
   -4.9630   20.5950  -32.9170 S   0  0  0  0  0  0  0  0  0  0  0  0
   -3.8830   21.1150  -33.8230 O   0  0  0  0  0  0  0  0  0  0  0  0
   -4.3280   19.7940  -31.8150 O   0  0  0  0  0  0  0  0  0  0  0  0
   -6.0180   19.5590  -33.8260 N   0  0  0  0  0  0  0  0  0  0  0  0
   -5.8090   18.1440  -33.9840 C   0  0  0  0  0  0  0  0  0  0  0  0
   -6.8150   17.2050  -33.6860 C   0  0  0  0  0  0  0  0  0  0  0  0
   -6.5690   15.8360  -33.8290 C   0  0  0  0  0  0  0  0  0  0  0  0
   -5.3240   15.3910  -34.2780 C   0  0  0  0  0  0  0  0  0  0  0  0
   -4.3240   16.3140  -34.5940 C   0  0  0  0  0  0  0  0  0  0  0  0
   -2.7700   15.7560  -35.1830 Cl  0  0  0  0  0  0  0  0  0  0  0  0
   -4.5670   17.6850  -34.4500 C   0  0  0  0  0  0  0  0  0  0  0  0
   -8.5422   20.1501  -30.8107 H   0  0  0  0  0  0  0  0  0  0  0  0
   -9.8036   20.0600  -32.0864 H   0  0  0  0  0  0  0  0  0  0  0  0
   -8.4409   18.8896  -32.0864 H   0  0  0  0  0  0  0  0  0  0  0  0
   -9.0612   23.0474  -31.6268 H   0  0  0  0  0  0  0  0  0  0  0  0
   -7.7970   25.0034  -30.7540 H   0  0  0  0  0  0  0  0  0  0  0  0
   -4.7108   23.2230  -29.1126 H   0  0  0  0  0  0  0  0  0  0  0  0
   -3.6379   21.9928  -27.2257 H   0  0  0  0  0  0  0  0  0  0  0  0
   -1.3733   22.6636  -26.4226 H   0  0  0  0  0  0  0  0  0  0  0  0
   -0.1563   24.5385  -27.5363 H   0  0  0  0  0  0  0  0  0  0  0  0
   -1.2096   25.7529  -29.4470 H   0  0  0  0  0  0  0  0  0  0  0  0
   -4.0737   23.0767  -31.8203 H   0  0  0  0  0  0  0  0  0  0  0  0
   -6.8070   20.0150  -34.3340 H   0  0  0  0  0  0  0  0  0  0  0  0
   -7.8000   17.5503  -33.3388 H   0  0  0  0  0  0  0  0  0  0  0  0
   -7.3577   15.1083  -33.5873 H   0  0  0  0  0  0  0  0  0  0  0  0
   -5.1305   14.3133  -34.3830 H   0  0  0  0  0  0  0  0  0  0  0  0
   -3.7783   18.4085  -34.7041 H   0  0  0  0  0  0  0  0  0  0  0  0
  1  2  1  0
  2  3  1  0
  3  4  2  0
  4  5  1  0
  5  6  2  0
  6  7  1  0
  7  8  2  0
  7  9  1  0
  9 10  1  0
 10 11  2  0
 11 12  1  0
 12 13  2  0
 13 14  1  0
 14 15  2  0
  6 16  1  0
 16 17  2  0
 17 18  1  0
 18 19  2  0
 18 20  2  0
 18 21  1  0
 21 22  1  0
 22 23  2  0
 23 24  1  0
 24 25  2  0
 25 26  1  0
 26 27  1  0
 26 28  2  0
 17  3  1  0
 28 22  1  0
 15 10  1  0
  1 29  1  0
  1 30  1  0
  1 31  1  0
  4 32  1  0
  5 33  1  0
 11 34  1  0
 12 35  1  0
 13 36  1  0
 14 37  1  0
 15 38  1  0
 16 39  1  0
 21 40  1  0
 23 41  1  0
 24 42  1  0
 25 43  1  0
 28 44  1  0
M  CHG  1   9  -1
M  END
>  <UniqueID>  (40) 
40

>  <SMILES>  (40) 
COc1ccc(C(=O)[N-]c2ccccc2)cc1S(=O)(=O)Nc1cccc(Cl)c1

>  <Energy>  (40) 
52.051611067219

>  <Genealogy>  (40) 
COc1ccc(C(=O)[N-]c2ccccc2)cc1S(=O)(=O)Nc1cccc(Cl)c1 (protonated)
COc1ccc(C(=O)[N-]c2ccccc2)cc1S(=O)(=O)Nc1cccc(Cl)c1 (3D coordinates assigned)
COc1ccc(C(=O)[N-]c2ccccc2)cc1S(=O)(=O)Nc1cccc(Cl)c1 (optimized conformer: 52.051611067219 kcal/mol)

>  <smiles>  (40) 
COc1ccc(C(=O)Nc2ccccc2)cc1S(=O)(=O)Nc1cccc(Cl)c1

>  <score_type>  (40) 
oracle

>  <origin>  (40) 
adgpu

>  <m_score__min__energy>  (40) 
-10.68

>  <m_primary>  (40) 
energy

$$$$
40:0
     RDKit          3D

 23 24  0  0  0  0  0  0  0  0999 V2000
   -0.5952   25.0733  -27.5384 H   0  0  0  0  0  0  0  0  0  0  0  0
   -1.4970   24.7340  -28.0690 C   0  0  0  0  0  0  0  0  0  0  0  0
   -2.0030   25.3000  -29.1840 N   0  0  0  0  0  0  0  0  0  0  0  0
   -3.0840   24.5460  -29.4670 C   0  0  0  0  0  0  0  0  0  0  0  0
   -3.8640   24.8100  -30.4750 N   0  0  0  0  0  0  0  0  0  0  0  0
   -4.9920   24.0320  -30.9030 C   0  0  0  0  0  0  0  0  0  0  0  0
   -6.2820   24.5300  -30.6860 C   0  0  0  0  0  0  0  0  0  0  0  0
   -6.4179   25.4910  -30.1683 H   0  0  0  0  0  0  0  0  0  0  0  0
   -7.3980   23.8120  -31.1240 C   0  0  0  0  0  0  0  0  0  0  0  0
   -8.4097   24.1974  -30.9294 H   0  0  0  0  0  0  0  0  0  0  0  0
   -7.2310   22.6050  -31.8090 C   0  0  0  0  0  0  0  0  0  0  0  0
   -8.1120   22.0325  -32.1348 H   0  0  0  0  0  0  0  0  0  0  0  0
   -5.9420   22.1220  -32.0820 C   0  0  0  0  0  0  0  0  0  0  0  0
   -5.7610   20.8190  -32.8050 C   0  0  0  0  0  0  0  0  0  0  0  0
   -5.6481   20.0060  -32.0727 H   0  0  0  0  0  0  0  0  0  0  0  0
   -6.6408   20.6245  -33.4360 H   0  0  0  0  0  0  0  0  0  0  0  0
   -4.8615   20.8717  -33.4360 H   0  0  0  0  0  0  0  0  0  0  0  0
   -4.8250   22.8370  -31.6250 C   0  0  0  0  0  0  0  0  0  0  0  0
   -3.8125   22.4606  -31.8327 H   0  0  0  0  0  0  0  0  0  0  0  0
   -3.2890   23.5510  -28.5780 N   0  0  0  0  0  0  0  0  0  0  0  0
   -4.0730   22.8630  -28.5310 H   0  0  0  0  0  0  0  0  0  0  0  0
   -2.2830   23.6660  -27.6970 C   0  0  0  0  0  0  0  0  0  0  0  0
   -2.1147   23.0168  -26.8251 H   0  0  0  0  0  0  0  0  0  0  0  0
  1  2  1  0
  2  3  1  0
  3  4  1  0
  4  5  2  0
  5  6  1  0
  6  7  2  0
  7  8  1  0
  7  9  1  0
  9 10  1  0
  9 11  2  0
 11 12  1  0
 11 13  1  0
 13 14  1  0
 14 15  1  0
 14 16  1  0
 14 17  1  0
 13 18  2  0
 18 19  1  0
  4 20  1  0
 20 21  1  0
 20 22  1  0
 22 23  1  0
 22  2  2  0
 18  6  1  0
M  CHG  1   3  -1
M  END
>  <UniqueID>  (41) 
41

>  <SMILES>  (41) 
Cc1cccc(/N=c2/[n-]cc[nH]2)c1

>  <Energy>  (41) 
58.58402372974601

>  <Genealogy>  (41) 
Cc1cccc(N=c2[n-]cc[nH]2)c1 (protonated)
Cc1cccc(/N=c2/[n-]cc[nH]2)c1 (cis-trans isomerization)
Cc1cccc(/N=c2/[n-]cc[nH]2)c1 (3D coordinates assigned)
Cc1cccc(/N=c2/[n-]cc[nH]2)c1 (optimized conformer: 58.58402372974601 kcal/mol)

>  <smiles>  (41) 
Cc1cccc(N=c2[nH]cc[nH]2)c1

>  <score_type>  (41) 
oracle

>  <origin>  (41) 
adgpu

>  <m_score__min__energy>  (41) 
-7.0700000000000003

>  <m_primary>  (41) 
energy

$$$$
41:0
     RDKit          3D

 36 38  0  0  1  0  0  0  0  0999 V2000
   -5.1590   25.1610  -30.4630 C   0  0  0  0  0  0  0  0  0  0  0  0
   -4.6740   24.1300  -31.3190 O   0  0  0  0  0  0  0  0  0  0  0  0
   -5.4980   23.0660  -31.6640 C   0  0  0  0  0  0  0  0  0  0  0  0
   -6.8480   23.2460  -31.4860 C   0  0  0  0  0  0  0  0  0  0  0  0
   -7.6680   22.2120  -31.8210 C   0  0  0  0  0  0  0  0  0  0  0  0
   -8.9910   22.3760  -31.6520 N   0  0  0  0  0  0  0  0  0  0  0  0
   -9.8650   21.3820  -31.9660 C   0  0  0  0  0  0  0  0  0  0  0  0
   -9.3190   20.2560  -32.4450 N   0  0  0  0  0  0  0  0  0  0  0  0
   -8.0080   20.0550  -32.6290 C   0  0  0  0  0  0  0  0  0  0  0  0
   -7.6120   18.9720  -33.0800 N   0  0  0  0  0  0  0  0  0  0  0  0
   -6.3920   18.4420  -33.3820 C   0  0  0  0  0  0  0  0  0  0  0  0
   -5.7790   18.5810  -34.6530 C   0  0  0  0  0  0  0  0  0  0  0  0
   -4.6030   17.9270  -34.9410 C   0  0  0  0  0  0  0  0  0  0  0  0
   -4.0200   17.1300  -33.9770 C   0  0  0  0  0  0  0  0  0  0  0  0
   -4.5840   16.9650  -32.7230 C   0  0  0  0  0  0  0  0  0  0  0  0
   -5.7650   17.6140  -32.4180 C   0  0  0  0  0  0  0  0  0  0  0  0
   -7.1080   21.0440  -32.3180 C   0  0  0  0  0  0  0  0  0  0  0  0
   -5.7630   20.8890  -32.4850 C   0  0  0  0  0  0  0  0  0  0  0  0
   -4.9020   21.9480  -32.1450 C   0  0  0  0  0  0  0  0  0  0  0  0
   -3.5300   21.8610  -32.2880 O   0  0  0  0  0  0  0  0  0  0  0  0
   -2.9380   21.0370  -33.3000 C   0  0  0  0  0  0  0  0  0  0  0  0
   -5.0186   24.8626  -29.4136 H   0  0  0  0  0  0  0  0  0  0  0  0
   -4.6037   26.0904  -30.6573 H   0  0  0  0  0  0  0  0  0  0  0  0
   -6.2291   25.3258  -30.6573 H   0  0  0  0  0  0  0  0  0  0  0  0
   -7.2511   24.1890  -31.0882 H   0  0  0  0  0  0  0  0  0  0  0  0
  -10.9513   21.4954  -31.8350 H   0  0  0  0  0  0  0  0  0  0  0  0
  -10.0120   19.4880  -32.6890 H   0  0  0  0  0  0  0  0  0  0  0  0
   -6.2484   19.2183  -35.4168 H   0  0  0  0  0  0  0  0  0  0  0  0
   -4.1327   18.0383  -35.9291 H   0  0  0  0  0  0  0  0  0  0  0  0
   -3.0793   16.6103  -34.2116 H   0  0  0  0  0  0  0  0  0  0  0  0
   -4.0956   16.3223  -31.9757 H   0  0  0  0  0  0  0  0  0  0  0  0
   -6.2197   17.4876  -31.4244 H   0  0  0  0  0  0  0  0  0  0  0  0
   -5.3565   19.9467  -32.8810 H   0  0  0  0  0  0  0  0  0  0  0  0
   -2.3592   20.2314  -32.8247 H   0  0  0  0  0  0  0  0  0  0  0  0
   -3.7296   20.5995  -33.9261 H   0  0  0  0  0  0  0  0  0  0  0  0
   -2.2708   21.6476  -33.9261 H   0  0  0  0  0  0  0  0  0  0  0  0
  1  2  1  0
  2  3  1  0
  3  4  2  0
  4  5  1  0
  5  6  1  0
  6  7  2  0
  7  8  1  0
  8  9  1  0
  9 10  2  0
 10 11  1  0
 11 12  2  0
 12 13  1  0
 13 14  2  0
 14 15  1  0
 15 16  2  0
  9 17  1  0
 17 18  1  0
 18 19  2  0
 19 20  1  0
 20 21  1  0
 19  3  1  0
 17  5  2  0
 16 11  1  0
  1 22  1  0
  1 23  1  0
  1 24  1  0
  4 25  1  0
  7 26  1  0
  8 27  1  0
 12 28  1  0
 13 29  1  0
 14 30  1  0
 15 31  1  0
 16 32  1  0
 18 33  1  0
 21 34  1  0
 21 35  1  0
 21 36  1  0
M  END
>  <smiles>  (42) 
COc1cc2nc[nH]c(=Nc3ccccc3)c2cc1OC

>  <score_type>  (42) 
oracle

>  <origin>  (42) 
adgpu

>  <m_score__min__energy>  (42) 
-7.2300000000000004

>  <m_primary>  (42) 
energy

$$$$
42:0
     RDKit          3D

 31 32  0  0  0  0  0  0  0  0999 V2000
   -6.5580   17.4000  -33.4930 C   0  0  0  0  0  0  0  0  0  0  0  0
   -5.8600   18.7130  -33.8280 C   0  0  0  0  0  0  0  0  0  0  0  0
   -6.4700   19.8480  -33.0600 C   0  0  0  0  0  0  0  0  0  0  0  0
   -7.8550   19.9280  -32.8770 C   0  0  0  0  0  0  0  0  0  0  0  0
   -8.3760   21.0220  -32.1800 C   0  0  0  0  0  0  0  0  0  0  0  0
   -9.8500   21.1520  -31.9670 C   0  0  0  0  0  0  0  0  0  0  0  0
   -7.5360   21.9850  -31.7170 N   0  0  0  0  0  0  0  0  0  0  0  0
   -6.1900   21.9060  -31.9080 C   0  0  0  0  0  0  0  0  0  0  0  0
   -5.3230   22.9470  -31.4100 N   0  0  0  0  0  0  0  0  0  0  0  0
   -3.8620   22.8100  -31.5640 C   0  0  0  0  0  0  0  0  0  0  0  0
   -3.1210   23.5590  -30.4590 C   0  0  0  0  0  0  0  0  0  0  0  0
   -3.5560   24.9440  -30.4350 N   0  0  0  0  0  0  0  0  0  0  0  0
   -4.9370   25.2600  -30.5910 C   0  0  0  0  0  0  0  0  0  0  0  0
   -5.3190   26.4540  -30.4790 O   0  0  0  0  0  0  0  0  0  0  0  0
   -5.9390   24.1740  -30.8620 C   0  0  0  0  0  0  0  0  0  0  0  0
   -5.6740   20.8410  -32.5820 N   0  0  0  0  0  0  0  0  0  0  0  0
   -6.6189   17.2854  -32.4007 H   0  0  0  0  0  0  0  0  0  0  0  0
   -7.5725   17.4051  -33.9183 H   0  0  0  0  0  0  0  0  0  0  0  0
   -5.9864   16.5619  -33.9183 H   0  0  0  0  0  0  0  0  0  0  0  0
   -4.7943   18.6322  -33.5677 H   0  0  0  0  0  0  0  0  0  0  0  0
   -5.9758   18.9110  -34.9038 H   0  0  0  0  0  0  0  0  0  0  0  0
   -8.5198   19.1464  -33.2733 H   0  0  0  0  0  0  0  0  0  0  0  0
  -10.0643   21.1709  -30.8882 H   0  0  0  0  0  0  0  0  0  0  0  0
  -10.2062   22.0850  -32.4280 H   0  0  0  0  0  0  0  0  0  0  0  0
  -10.3640   20.2957  -32.4280 H   0  0  0  0  0  0  0  0  0  0  0  0
   -3.5941   21.7441  -31.5178 H   0  0  0  0  0  0  0  0  0  0  0  0
   -3.5707   23.2397  -32.5338 H   0  0  0  0  0  0  0  0  0  0  0  0
   -3.3391   23.0896  -29.4884 H   0  0  0  0  0  0  0  0  0  0  0  0
   -2.0388   23.5187  -30.6518 H   0  0  0  0  0  0  0  0  0  0  0  0
   -6.4463   23.9212  -29.9193 H   0  0  0  0  0  0  0  0  0  0  0  0
   -6.6432   24.5551  -31.6162 H   0  0  0  0  0  0  0  0  0  0  0  0
  1  2  1  0
  2  3  1  0
  3  4  2  0
  4  5  1  0
  5  6  1  0
  5  7  2  0
  7  8  1  0
  8  9  1  0
  9 10  1  0
 10 11  1  0
 11 12  1  0
 12 13  1  0
 13 14  2  0
 13 15  1  0
  8 16  2  0
 16  3  1  0
 15  9  1  0
  1 17  1  0
  1 18  1  0
  1 19  1  0
  2 20  1  0
  2 21  1  0
  4 22  1  0
  6 23  1  0
  6 24  1  0
  6 25  1  0
 10 26  1  0
 10 27  1  0
 11 28  1  0
 11 29  1  0
 15 30  1  0
 15 31  1  0
M  CHG  1  12  -1
M  END
>  <UniqueID>  (43) 
42

>  <SMILES>  (43) 
CCc1cc(C)nc(N2CC[N-]C(=O)C2)n1

>  <Energy>  (43) 
25.563725083319767

>  <Genealogy>  (43) 
CCc1cc(C)nc(N2CC[N-]C(=O)C2)n1 (protonated)
CCc1cc(C)nc(N2CC[N-]C(=O)C2)n1 (3D coordinates assigned)
CCc1cc(C)nc(N2CC[N-]C(=O)C2)n1 (nonaromatic ring conformer: 25.563725083319767 kcal/mol)

>  <smiles>  (43) 
CCc1cc(C)nc(N2CCNC(=O)C2)n1

>  <score_type>  (43) 
oracle

>  <origin>  (43) 
adgpu

>  <m_score__min__energy>  (43) 
-8.3599999999999994

>  <m_primary>  (43) 
energy

$$$$
43:0
     RDKit          3D

 41 43  0  0  0  0  0  0  0  0999 V2000
   -1.8386   22.8509  -26.7566 H   0  0  0  0  0  0  0  0  0  0  0  0
   -2.4010   23.3710  -27.5460 C   0  0  0  0  0  0  0  0  0  0  0  0
   -3.7150   23.0970  -27.7430 N   0  0  0  0  0  0  0  0  0  0  0  0
   -4.4310   23.7270  -28.7110 C   0  0  0  0  0  0  0  0  0  0  0  0
   -5.4954   23.4899  -28.8551 H   0  0  0  0  0  0  0  0  0  0  0  0
   -3.8010   24.6860  -29.5290 C   0  0  0  0  0  0  0  0  0  0  0  0
   -4.4330   25.3280  -30.4740 N   0  0  0  0  0  0  0  0  0  0  0  0
   -5.8470   25.2040  -30.8370 C   0  0  0  0  0  0  0  0  0  0  0  0
   -6.4640   25.3658  -29.9409 H   0  0  0  0  0  0  0  0  0  0  0  0
   -6.0790   25.9562  -31.6054 H   0  0  0  0  0  0  0  0  0  0  0  0
   -6.1420   23.8380  -31.3980 C   0  0  0  0  0  0  0  0  0  0  0  0
   -5.1170   23.0600  -31.9560 C   0  0  0  0  0  0  0  0  0  0  0  0
   -4.0873   23.4464  -31.9783 H   0  0  0  0  0  0  0  0  0  0  0  0
   -5.3970   21.7960  -32.4840 C   0  0  0  0  0  0  0  0  0  0  0  0
   -4.5839   21.1929  -32.9144 H   0  0  0  0  0  0  0  0  0  0  0  0
   -6.7070   21.2890  -32.4700 C   0  0  0  0  0  0  0  0  0  0  0  0
   -7.0000   19.9170  -33.0520 C   0  0  0  0  0  0  0  0  0  0  0  0
   -7.8255   20.0191  -33.7718 H   0  0  0  0  0  0  0  0  0  0  0  0
   -7.4790   18.9480  -31.9460 C   0  0  0  0  0  0  0  0  0  0  0  0
   -6.8011   19.0211  -31.0828 H   0  0  0  0  0  0  0  0  0  0  0  0
   -8.5019   19.2244  -31.6507 H   0  0  0  0  0  0  0  0  0  0  0  0
   -7.4860   17.5050  -32.4600 C   0  0  0  0  0  0  0  0  0  0  0  0
   -7.8541   16.8463  -31.6596 H   0  0  0  0  0  0  0  0  0  0  0  0
   -8.1387   17.4662  -33.3445 H   0  0  0  0  0  0  0  0  0  0  0  0
   -6.0830   17.0290  -32.8880 C   0  0  0  0  0  0  0  0  0  0  0  0
   -5.6612   16.4183  -32.0761 H   0  0  0  0  0  0  0  0  0  0  0  0
   -6.2082   16.4599  -33.8210 H   0  0  0  0  0  0  0  0  0  0  0  0
   -5.1030   18.1780  -33.1910 C   0  0  0  0  0  0  0  0  0  0  0  0
   -4.6588   18.5252  -32.2464 H   0  0  0  0  0  0  0  0  0  0  0  0
   -4.3308   17.7964  -33.8752 H   0  0  0  0  0  0  0  0  0  0  0  0
   -5.8030   19.3610  -33.8750 C   0  0  0  0  0  0  0  0  0  0  0  0
   -5.0694   20.1684  -34.0161 H   0  0  0  0  0  0  0  0  0  0  0  0
   -6.2029   18.9976  -34.8331 H   0  0  0  0  0  0  0  0  0  0  0  0
   -7.7360   22.0810  -31.9270 C   0  0  0  0  0  0  0  0  0  0  0  0
   -8.7689   21.7028  -31.9175 H   0  0  0  0  0  0  0  0  0  0  0  0
   -7.4550   23.3440  -31.4000 C   0  0  0  0  0  0  0  0  0  0  0  0
   -8.2691   23.9554  -30.9837 H   0  0  0  0  0  0  0  0  0  0  0  0
   -2.4780   24.9510  -29.3250 N   0  0  0  0  0  0  0  0  0  0  0  0
   -1.9900   25.6570  -29.9210 H   0  0  0  0  0  0  0  0  0  0  0  0
   -1.7690   24.3170  -28.3520 C   0  0  0  0  0  0  0  0  0  0  0  0
   -0.7043   24.5493  -28.2023 H   0  0  0  0  0  0  0  0  0  0  0  0
  1  2  1  0
  2  3  1  0
  3  4  2  0
  4  5  1  0
  4  6  1  0
  6  7  2  0
  7  8  1  0
  8  9  1  0
  8 10  1  0
  8 11  1  0
 11 12  2  0
 12 13  1  0
 12 14  1  0
 14 15  1  0
 14 16  2  0
 16 17  1  0
 17 18  1  0
 17 19  1  0
 19 20  1  0
 19 21  1  0
 19 22  1  0
 22 23  1  0
 22 24  1  0
 22 25  1  0
 25 26  1  0
 25 27  1  0
 25 28  1  0
 28 29  1  0
 28 30  1  0
 28 31  1  0
 31 32  1  0
 31 33  1  0
 16 34  1  0
 34 35  1  0
 34 36  2  0
 36 37  1  0
  6 38  1  0
 38 39  1  0
 38 40  1  0
 40 41  1  0
 40  2  2  0
 36 11  1  0
 31 17  1  0
M  END
>  <UniqueID>  (44) 
43

>  <SMILES>  (44) 
c1c[nH]/c(=N/Cc2ccc(C3CCCCC3)cc2)cn1

>  <Energy>  (44) 
48.579366196019606

>  <Genealogy>  (44) 
c1c[nH]/c(=N/Cc2ccc(C3CCCCC3)cc2)cn1 (cis-trans isomerization)
c1c[nH]/c(=N/Cc2ccc(C3CCCCC3)cc2)cn1 (3D coordinates assigned)
c1c[nH]/c(=N/Cc2ccc(C3CCCCC3)cc2)cn1 (nonaromatic ring conformer: 48.579366196019606 kcal/mol)

>  <smiles>  (44) 
c1c[nH]c(=NCc2ccc(C3CCCCC3)cc2)cn1

>  <score_type>  (44) 
oracle

>  <origin>  (44) 
adgpu

>  <m_score__min__energy>  (44) 
-9.25

>  <m_primary>  (44) 
energy

$$$$
44:0
     RDKit          3D

 33 34  0  0  0  0  0  0  0  0999 V2000
   -3.7455   22.6839  -31.9212 H   0  0  0  0  0  0  0  0  0  0  0  0
   -4.7320   23.0530  -31.6040 C   0  0  0  0  0  0  0  0  0  0  0  0
   -5.8850   22.3430  -31.9510 C   0  0  0  0  0  0  0  0  0  0  0  0
   -5.8044   21.4283  -32.5566 H   0  0  0  0  0  0  0  0  0  0  0  0
   -7.1510   22.7960  -31.5270 C   0  0  0  0  0  0  0  0  0  0  0  0
   -8.3380   22.1220  -31.8500 O   0  0  0  0  0  0  0  0  0  0  0  0
   -8.7370   20.8770  -31.2840 C   0  0  0  0  0  0  0  0  0  0  0  0
   -9.7374   20.9807  -30.8384 H   0  0  0  0  0  0  0  0  0  0  0  0
   -8.0178   20.5808  -30.5062 H   0  0  0  0  0  0  0  0  0  0  0  0
   -8.7740   19.8150  -32.3700 C   0  0  0  0  0  0  0  0  0  0  0  0
   -8.8087   18.8179  -31.9068 H   0  0  0  0  0  0  0  0  0  0  0  0
   -9.6676   19.9604  -32.9947 H   0  0  0  0  0  0  0  0  0  0  0  0
   -7.8724   19.8978  -32.9947 H   0  0  0  0  0  0  0  0  0  0  0  0
   -7.2350   23.9580  -30.7490 C   0  0  0  0  0  0  0  0  0  0  0  0
   -8.2173   24.3167  -30.4079 H   0  0  0  0  0  0  0  0  0  0  0  0
   -6.0800   24.6650  -30.4030 C   0  0  0  0  0  0  0  0  0  0  0  0
   -6.1550   25.5644  -29.7742 H   0  0  0  0  0  0  0  0  0  0  0  0
   -4.8270   24.2310  -30.8550 C   0  0  0  0  0  0  0  0  0  0  0  0
   -3.6340   24.9210  -30.4670 N   0  0  0  0  0  0  0  0  0  0  0  0
   -2.8110   24.5930  -29.5120 C   0  0  0  0  0  0  0  0  0  0  0  0
   -1.6610   25.2620  -29.3090 N   0  0  0  0  0  0  0  0  0  0  0  0
   -1.0480   24.7070  -28.2760 N   0  0  0  0  0  0  0  0  0  0  0  0
   -0.1320   25.0350  -27.8950 H   0  0  0  0  0  0  0  0  0  0  0  0
   -1.7880   23.6880  -27.8030 C   0  0  0  0  0  0  0  0  0  0  0  0
   -1.4210   22.8750  -26.6030 C   0  0  0  0  0  0  0  0  0  0  0  0
   -1.6735   23.4342  -25.6900 H   0  0  0  0  0  0  0  0  0  0  0  0
   -1.9784   21.9268  -26.6181 H   0  0  0  0  0  0  0  0  0  0  0  0
   -0.3412   22.6659  -26.6181 H   0  0  0  0  0  0  0  0  0  0  0  0
   -2.9500   23.5850  -28.5520 C   0  0  0  0  0  0  0  0  0  0  0  0
   -4.0890   22.6390  -28.3000 C   0  0  0  0  0  0  0  0  0  0  0  0
   -4.2332   22.5192  -27.2161 H   0  0  0  0  0  0  0  0  0  0  0  0
   -5.0078   23.0434  -28.7497 H   0  0  0  0  0  0  0  0  0  0  0  0
   -3.8602   21.6615  -28.7497 H   0  0  0  0  0  0  0  0  0  0  0  0
  1  2  1  0
  2  3  2  0
  3  4  1  0
  3  5  1  0
  5  6  1  0
  6  7  1  0
  7  8  1  0
  7  9  1  0
  7 10  1  0
 10 11  1  0
 10 12  1  0
 10 13  1  0
  5 14  2  0
 14 15  1  0
 14 16  1  0
 16 17  1  0
 16 18  2  0
 18 19  1  0
 19 20  2  0
 20 21  1  0
 21 22  1  0
 22 23  1  0
 22 24  1  0
 24 25  1  0
 25 26  1  0
 25 27  1  0
 25 28  1  0
 24 29  2  0
 29 30  1  0
 30 31  1  0
 30 32  1  0
 30 33  1  0
 18  2  1  0
 29 20  1  0
M  CHG  1  21  -1
M  END
>  <UniqueID>  (45) 
44

>  <SMILES>  (45) 
CCOc1ccc(/N=c2/[n-][nH]c(C)c2C)cc1

>  <Energy>  (45) 
69.68099372368663

>  <Genealogy>  (45) 
CCOc1ccc(N=c2[n-][nH]c(C)c2C)cc1 (protonated)
CCOc1ccc(/N=c2/[n-][nH]c(C)c2C)cc1 (cis-trans isomerization)
CCOc1ccc(/N=c2/[n-][nH]c(C)c2C)cc1 (3D coordinates assigned)
CCOc1ccc(/N=c2/[n-][nH]c(C)c2C)cc1 (optimized conformer: 69.68099372368663 kcal/mol)

>  <smiles>  (45) 
CCOc1ccc(N=c2[nH][nH]c(C)c2C)cc1

>  <score_type>  (45) 
oracle

>  <origin>  (45) 
adgpu

>  <m_score__min__energy>  (45) 
-8.2100000000000009

>  <m_primary>  (45) 
energy

$$$$
45:0
     RDKit          3D

 37 38  0  0  0  0  0  0  0  0999 V2000
   -9.0014   19.6641  -33.1510 H   0  0  0  0  0  0  0  0  0  0  0  0
   -8.0130   19.6040  -32.6720 C   0  0  0  0  0  0  0  0  0  0  0  0
   -7.7550   20.4370  -31.6560 C   0  0  0  0  0  0  0  0  0  0  0  0
   -6.7718   20.4045  -31.1638 H   0  0  0  0  0  0  0  0  0  0  0  0
   -8.7890   21.4140  -31.1800 C   0  0  0  0  0  0  0  0  0  0  0  0
   -8.8755   21.3474  -30.0854 H   0  0  0  0  0  0  0  0  0  0  0  0
   -9.7546   21.1718  -31.6478 H   0  0  0  0  0  0  0  0  0  0  0  0
   -8.4010   22.7910  -31.5570 N   0  0  0  0  0  0  0  0  0  0  0  0
   -9.4840   23.4410  -32.3140 C   0  0  0  0  0  0  0  0  0  0  0  0
  -10.2108   23.8772  -31.6129 H   0  0  0  0  0  0  0  0  0  0  0  0
   -9.0629   24.2358  -32.9473 H   0  0  0  0  0  0  0  0  0  0  0  0
   -9.9873   22.6956  -32.9473 H   0  0  0  0  0  0  0  0  0  0  0  0
   -7.1550   22.7960  -32.3500 C   0  0  0  0  0  0  0  0  0  0  0  0
   -6.8754   21.7603  -32.5932 H   0  0  0  0  0  0  0  0  0  0  0  0
   -7.3213   23.3682  -33.2746 H   0  0  0  0  0  0  0  0  0  0  0  0
   -6.0410   23.4410  -31.5680 C   0  0  0  0  0  0  0  0  0  0  0  0
   -6.2740   24.6390  -30.8720 C   0  0  0  0  0  0  0  0  0  0  0  0
   -7.2664   25.1117  -30.9129 H   0  0  0  0  0  0  0  0  0  0  0  0
   -5.2510   25.2330  -30.1280 C   0  0  0  0  0  0  0  0  0  0  0  0
   -5.4405   26.1701  -29.5840 H   0  0  0  0  0  0  0  0  0  0  0  0
   -3.9870   24.6380  -30.0740 C   0  0  0  0  0  0  0  0  0  0  0  0
   -2.9950   25.2160  -29.3520 F   0  0  0  0  0  0  0  0  0  0  0  0
   -3.7460   23.4460  -30.7650 C   0  0  0  0  0  0  0  0  0  0  0  0
   -2.7512   22.9783  -30.7231 H   0  0  0  0  0  0  0  0  0  0  0  0
   -4.7680   22.8480  -31.5090 C   0  0  0  0  0  0  0  0  0  0  0  0
   -4.5749   21.9100  -32.0501 H   0  0  0  0  0  0  0  0  0  0  0  0
   -7.0470   18.6050  -33.1910 C   0  0  0  0  0  0  0  0  0  0  0  0
   -7.0530   17.2560  -32.7790 C   0  0  0  0  0  0  0  0  0  0  0  0
   -7.8013   16.9099  -32.0508 H   0  0  0  0  0  0  0  0  0  0  0  0
   -6.1130   16.3560  -33.2910 C   0  0  0  0  0  0  0  0  0  0  0  0
   -6.1291   15.3041  -32.9697 H   0  0  0  0  0  0  0  0  0  0  0  0
   -5.1540   16.7890  -34.2090 C   0  0  0  0  0  0  0  0  0  0  0  0
   -4.4180   16.0781  -34.6128 H   0  0  0  0  0  0  0  0  0  0  0  0
   -5.1300   18.1250  -34.6140 C   0  0  0  0  0  0  0  0  0  0  0  0
   -4.3726   18.4668  -35.3348 H   0  0  0  0  0  0  0  0  0  0  0  0
   -6.0670   19.0290  -34.1050 C   0  0  0  0  0  0  0  0  0  0  0  0
   -6.0371   20.0817  -34.4227 H   0  0  0  0  0  0  0  0  0  0  0  0
  1  2  1  0
  2  3  2  0
  3  4  1  0
  3  5  1  0
  5  6  1  0
  5  7  1  0
  5  8  1  0
  8  9  1  0
  9 10  1  0
  9 11  1  0
  9 12  1  0
  8 13  1  0
 13 14  1  0
 13 15  1  0
 13 16  1  0
 16 17  2  0
 17 18  1  0
 17 19  1  0
 19 20  1  0
 19 21  2  0
 21 22  1  0
 21 23  1  0
 23 24  1  0
 23 25  2  0
 25 26  1  0
  2 27  1  0
 27 28  2  0
 28 29  1  0
 28 30  1  0
 30 31  1  0
 30 32  2  0
 32 33  1  0
 32 34  1  0
 34 35  1  0
 34 36  2  0
 36 37  1  0
 25 16  1  0
 36 27  1  0
M  END
>  <UniqueID>  (46) 
45

>  <SMILES>  (46) 
CN(C/C=C/c1ccccc1)Cc1ccc(F)cc1

>  <Energy>  (46) 
37.55065983141475

>  <Genealogy>  (46) 
CN(C/C=C/c1ccccc1)Cc1ccc(F)cc1 (cis-trans isomerization)
CN(C/C=C/c1ccccc1)Cc1ccc(F)cc1 (3D coordinates assigned)
CN(C/C=C/c1ccccc1)Cc1ccc(F)cc1 (optimized conformer: 37.55065983141475 kcal/mol)

>  <smiles>  (46) 
CN(CC=Cc1ccccc1)Cc1ccc(F)cc1

>  <score_type>  (46) 
oracle

>  <origin>  (46) 
adgpu

>  <m_score__min__energy>  (46) 
-7.6200000000000001

>  <m_primary>  (46) 
energy

$$$$
46:0
     RDKit          3D

 43 45  0  0  0  0  0  0  0  0999 V2000
   -0.8050   26.8960  -27.9470 C   0  0  0  0  0  0  0  0  0  0  0  0
   -1.4320   26.0300  -28.8860 O   0  0  0  0  0  0  0  0  0  0  0  0
   -1.8890   24.7340  -28.5960 C   0  0  0  0  0  0  0  0  0  0  0  0
   -1.3520   23.9810  -27.5320 C   0  0  0  0  0  0  0  0  0  0  0  0
   -1.8710   22.7210  -27.2240 C   0  0  0  0  0  0  0  0  0  0  0  0
   -2.9320   22.2010  -27.9660 C   0  0  0  0  0  0  0  0  0  0  0  0
   -3.4660   22.9320  -29.0280 C   0  0  0  0  0  0  0  0  0  0  0  0
   -2.9340   24.1820  -29.3700 C   0  0  0  0  0  0  0  0  0  0  0  0
   -3.5180   24.8940  -30.4690 N   0  0  0  0  0  0  0  0  0  0  0  0
   -4.9190   25.1390  -30.6460 C   0  0  0  0  0  0  0  0  0  0  0  0
   -5.3900   26.2870  -30.4220 O   0  0  0  0  0  0  0  0  0  0  0  0
   -5.8060   24.0440  -31.1060 C   0  0  0  0  0  0  0  0  0  0  0  0
   -7.1970   24.1810  -30.9340 C   0  0  0  0  0  0  0  0  0  0  0  0
   -8.0740   23.2180  -31.4380 C   0  0  0  0  0  0  0  0  0  0  0  0
   -7.5800   22.1100  -32.1230 C   0  0  0  0  0  0  0  0  0  0  0  0
   -6.2030   21.9480  -32.2890 C   0  0  0  0  0  0  0  0  0  0  0  0
   -5.3060   22.8910  -31.7660 C   0  0  0  0  0  0  0  0  0  0  0  0
   -3.8980   22.6410  -31.8990 N   0  0  0  0  0  0  0  0  0  0  0  0
   -3.3810   21.6480  -32.8000 C   0  0  0  0  0  0  0  0  0  0  0  0
   -4.1500   21.1120  -33.6450 O   0  0  0  0  0  0  0  0  0  0  0  0
   -1.9510   21.2560  -32.7630 C   0  0  0  0  0  0  0  0  0  0  0  0
   -1.2760   21.1630  -31.5310 C   0  0  0  0  0  0  0  0  0  0  0  0
    0.0750   20.8030  -31.4890 C   0  0  0  0  0  0  0  0  0  0  0  0
    0.7670   20.5400  -32.6720 C   0  0  0  0  0  0  0  0  0  0  0  0
    0.1110   20.6400  -33.9010 C   0  0  0  0  0  0  0  0  0  0  0  0
   -1.2400   20.9980  -33.9500 C   0  0  0  0  0  0  0  0  0  0  0  0
   -1.0448   26.5648  -26.9258 H   0  0  0  0  0  0  0  0  0  0  0  0
    0.2847   26.8696  -28.0947 H   0  0  0  0  0  0  0  0  0  0  0  0
   -1.1702   27.9230  -28.0947 H   0  0  0  0  0  0  0  0  0  0  0  0
   -0.5188   24.3882  -26.9404 H   0  0  0  0  0  0  0  0  0  0  0  0
   -1.4426   22.1381  -26.3954 H   0  0  0  0  0  0  0  0  0  0  0  0
   -3.3478   21.2143  -27.7137 H   0  0  0  0  0  0  0  0  0  0  0  0
   -4.3114   22.5235  -29.6011 H   0  0  0  0  0  0  0  0  0  0  0  0
   -7.5964   25.0545  -30.3978 H   0  0  0  0  0  0  0  0  0  0  0  0
   -9.1582   23.3347  -31.2937 H   0  0  0  0  0  0  0  0  0  0  0  0
   -8.2749   21.3625  -32.5332 H   0  0  0  0  0  0  0  0  0  0  0  0
   -5.8185   21.0736  -32.8345 H   0  0  0  0  0  0  0  0  0  0  0  0
   -3.2410   23.3570  -31.5170 H   0  0  0  0  0  0  0  0  0  0  0  0
   -1.8145   21.3748  -30.5955 H   0  0  0  0  0  0  0  0  0  0  0  0
    0.5930   20.7270  -30.5216 H   0  0  0  0  0  0  0  0  0  0  0  0
    1.8286   20.2541  -32.6366 H   0  0  0  0  0  0  0  0  0  0  0  0
    0.6586   20.4366  -34.8331 H   0  0  0  0  0  0  0  0  0  0  0  0
   -1.7497   21.0784  -34.9215 H   0  0  0  0  0  0  0  0  0  0  0  0
  1  2  1  0
  2  3  1  0
  3  4  2  0
  4  5  1  0
  5  6  2  0
  6  7  1  0
  7  8  2  0
  8  9  1  0
  9 10  1  0
 10 11  2  0
 10 12  1  0
 12 13  2  0
 13 14  1  0
 14 15  2  0
 15 16  1  0
 16 17  2  0
 17 18  1  0
 18 19  1  0
 19 20  2  0
 19 21  1  0
 21 22  2  0
 22 23  1  0
 23 24  2  0
 24 25  1  0
 25 26  2  0
  8  3  1  0
 17 12  1  0
 26 21  1  0
  1 27  1  0
  1 28  1  0
  1 29  1  0
  4 30  1  0
  5 31  1  0
  6 32  1  0
  7 33  1  0
 13 34  1  0
 14 35  1  0
 15 36  1  0
 16 37  1  0
 18 38  1  0
 22 39  1  0
 23 40  1  0
 24 41  1  0
 25 42  1  0
 26 43  1  0
M  CHG  1   9  -1
M  END
>  <UniqueID>  (47) 
46

>  <SMILES>  (47) 
COc1ccccc1[N-]C(=O)c1ccccc1NC(=O)c1ccccc1

>  <Energy>  (47) 
61.52808747497236

>  <Genealogy>  (47) 
COc1ccccc1[N-]C(=O)c1ccccc1NC(=O)c1ccccc1 (protonated)
COc1ccccc1[N-]C(=O)c1ccccc1NC(=O)c1ccccc1 (3D coordinates assigned)
COc1ccccc1[N-]C(=O)c1ccccc1NC(=O)c1ccccc1 (optimized conformer: 61.52808747497236 kcal/mol)

>  <smiles>  (47) 
COc1ccccc1NC(=O)c1ccccc1NC(=O)c1ccccc1

>  <score_type>  (47) 
oracle

>  <origin>  (47) 
adgpu

>  <m_score__min__energy>  (47) 
-10.279999999999999

>  <m_primary>  (47) 
energy

$$$$
47:0
     RDKit          3D

 36 37  0  0  0  0  0  0  0  0999 V2000
   -6.8760   16.9070  -33.4450 C   0  0  0  0  0  0  0  0  0  0  0  0
   -7.0970   18.3450  -33.0820 C   0  0  0  0  0  0  0  0  0  0  0  0
   -6.1640   19.3230  -33.4610 C   0  0  0  0  0  0  0  0  0  0  0  0
   -6.3510   20.6570  -33.0900 C   0  0  0  0  0  0  0  0  0  0  0  0
   -7.4680   21.0280  -32.3290 C   0  0  0  0  0  0  0  0  0  0  0  0
   -7.7000   22.7040  -31.8340 S   0  0  0  0  0  0  0  0  0  0  0  0
   -7.2480   23.6170  -32.9390 O   0  0  0  0  0  0  0  0  0  0  0  0
   -9.1700   22.9300  -31.6100 O   0  0  0  0  0  0  0  0  0  0  0  0
   -6.8250   23.0130  -30.3470 N   0  0  0  0  0  0  0  0  0  0  0  0
   -5.5530   22.2630  -30.2670 C   0  0  0  0  0  0  0  0  0  0  0  0
   -4.4280   22.8950  -31.1050 C   0  0  0  0  0  0  0  0  0  0  0  0
   -4.2430   24.3300  -30.8190 N   0  0  0  0  0  0  0  0  0  0  0  0
   -3.5550   24.5670  -29.5380 C   0  0  0  0  0  0  0  0  0  0  0  0
   -5.5080   25.0790  -30.9270 C   0  0  0  0  0  0  0  0  0  0  0  0
   -6.6420   24.4560  -30.0920 C   0  0  0  0  0  0  0  0  0  0  0  0
   -8.3880   20.0500  -31.9290 C   0  0  0  0  0  0  0  0  0  0  0  0
   -8.2020   18.7150  -32.3000 C   0  0  0  0  0  0  0  0  0  0  0  0
   -6.7838   16.3072  -32.5275 H   0  0  0  0  0  0  0  0  0  0  0  0
   -7.7287   16.5430  -34.0369 H   0  0  0  0  0  0  0  0  0  0  0  0
   -5.9533   16.8159  -34.0369 H   0  0  0  0  0  0  0  0  0  0  0  0
   -5.2817   19.0378  -34.0528 H   0  0  0  0  0  0  0  0  0  0  0  0
   -5.6190   21.4188  -33.3963 H   0  0  0  0  0  0  0  0  0  0  0  0
   -7.4400   22.6450  -29.5840 H   0  0  0  0  0  0  0  0  0  0  0  0
   -5.2309   22.2305  -29.2157 H   0  0  0  0  0  0  0  0  0  0  0  0
   -5.7386   21.2569  -30.6712 H   0  0  0  0  0  0  0  0  0  0  0  0
   -3.4875   22.3683  -30.8858 H   0  0  0  0  0  0  0  0  0  0  0  0
   -4.7095   22.8008  -32.1642 H   0  0  0  0  0  0  0  0  0  0  0  0
   -4.2364   24.3323  -28.7069 H   0  0  0  0  0  0  0  0  0  0  0  0
   -2.6650   23.9237  -29.4753 H   0  0  0  0  0  0  0  0  0  0  0  0
   -3.2500   25.6220  -29.4753 H   0  0  0  0  0  0  0  0  0  0  0  0
   -5.3384   26.1081  -30.5774 H   0  0  0  0  0  0  0  0  0  0  0  0
   -5.8198   25.0532  -31.9816 H   0  0  0  0  0  0  0  0  0  0  0  0
   -6.4093   24.5962  -29.0261 H   0  0  0  0  0  0  0  0  0  0  0  0
   -7.5761   24.9606  -30.3800 H   0  0  0  0  0  0  0  0  0  0  0  0
   -9.2597   20.3335  -31.3209 H   0  0  0  0  0  0  0  0  0  0  0  0
   -8.9250   17.9512  -31.9775 H   0  0  0  0  0  0  0  0  0  0  0  0
  1  2  1  0
  2  3  2  0
  3  4  1  0
  4  5  2  0
  5  6  1  0
  6  7  2  0
  6  8  2  0
  6  9  1  0
  9 10  1  0
 10 11  1  0
 11 12  1  0
 12 13  1  0
 12 14  1  0
 14 15  1  0
  5 16  1  0
 16 17  2  0
 17  2  1  0
 15  9  1  0
  1 18  1  0
  1 19  1  0
  1 20  1  0
  3 21  1  0
  4 22  1  0
  9 23  1  0
 10 24  1  0
 10 25  1  0
 11 26  1  0
 11 27  1  0
 13 28  1  0
 13 29  1  0
 13 30  1  0
 14 31  1  0
 14 32  1  0
 15 33  1  0
 15 34  1  0
 16 35  1  0
 17 36  1  0
M  CHG  1   9   1
M  END
>  <UniqueID>  (48) 
47

>  <SMILES>  (48) 
Cc1ccc(S(=O)(=O)[NH+]2CCN(C)CC2)cc1

>  <Energy>  (48) 
39.95250911615208

>  <Genealogy>  (48) 
Cc1ccc(S(=O)(=O)[NH+]2CCN(C)CC2)cc1 (protonated)
Cc1ccc(S(=O)(=O)[NH+]2CCN(C)CC2)cc1 (3D coordinates assigned)
Cc1ccc(S(=O)(=O)[NH+]2CCN(C)CC2)cc1 (nonaromatic ring conformer: 39.95250911615208 kcal/mol)

>  <smiles>  (48) 
Cc1ccc(S(=O)(=O)N2CCN(C)CC2)cc1

>  <score_type>  (48) 
oracle

>  <origin>  (48) 
adgpu

>  <m_score__min__energy>  (48) 
-6.9500000000000002

>  <m_primary>  (48) 
energy

$$$$
