0:0
     RDKit          3D

 39 41  0  0  0  0  0  0  0  0999 V2000
   -9.4650   21.8140  -29.8290 O   0  0  0  0  0  0  0  0  0  0  0  0
   -8.7390   21.6670  -31.1350 S   0  0  0  0  0  0  0  0  0  0  0  0
   -9.6430   22.1460  -32.2370 O   0  0  0  0  0  0  0  0  0  0  0  0
   -8.3710   19.9830  -31.3910 N   0  0  0  0  0  0  0  0  0  0  0  0
   -8.1290   19.6860  -32.8060 C   0  0  0  0  0  0  0  0  0  0  0  0
   -6.8170   18.9720  -33.0080 C   0  0  0  0  0  0  0  0  0  0  0  0
   -5.8180   19.5410  -33.8130 C   0  0  0  0  0  0  0  0  0  0  0  0
   -4.6050   18.8680  -33.9810 C   0  0  0  0  0  0  0  0  0  0  0  0
   -4.3990   17.6710  -33.3690 N   0  0  0  0  0  0  0  0  0  0  0  0
   -5.3520   17.0950  -32.5900 C   0  0  0  0  0  0  0  0  0  0  0  0
   -6.5800   17.7310  -32.3990 C   0  0  0  0  0  0  0  0  0  0  0  0
   -7.2760   22.6510  -31.0790 C   0  0  0  0  0  0  0  0  0  0  0  0
   -7.3810   24.0340  -30.8990 C   0  0  0  0  0  0  0  0  0  0  0  0
   -6.2310   24.8210  -30.8290 C   0  0  0  0  0  0  0  0  0  0  0  0
   -4.9620   24.2360  -30.9380 C   0  0  0  0  0  0  0  0  0  0  0  0
   -3.8200   25.0310  -30.8310 O   0  0  0  0  0  0  0  0  0  0  0  0
   -4.8450   22.8430  -31.1340 C   0  0  0  0  0  0  0  0  0  0  0  0
   -3.5190   22.1930  -31.2670 C   0  0  0  0  0  0  0  0  0  0  0  0
   -2.6640   22.0940  -30.1570 C   0  0  0  0  0  0  0  0  0  0  0  0
   -1.4180   21.4740  -30.2760 C   0  0  0  0  0  0  0  0  0  0  0  0
   -1.0110   20.9400  -31.5030 C   0  0  0  0  0  0  0  0  0  0  0  0
    0.5640   20.1660  -31.6140 Cl  0  0  0  0  0  0  0  0  0  0  0  0
   -1.8610   21.0260  -32.6170 C   0  0  0  0  0  0  0  0  0  0  0  0
   -1.3920   20.3570  -34.1740 Cl  0  0  0  0  0  0  0  0  0  0  0  0
   -3.1090   21.6470  -32.4960 C   0  0  0  0  0  0  0  0  0  0  0  0
   -6.0110   22.0590  -31.1970 C   0  0  0  0  0  0  0  0  0  0  0  0
   -8.9434   19.0487  -33.1811 H   0  0  0  0  0  0  0  0  0  0  0  0
   -8.0898   20.6384  -33.3550 H   0  0  0  0  0  0  0  0  0  0  0  0
   -5.9885   20.5087  -34.3075 H   0  0  0  0  0  0  0  0  0  0  0  0
   -3.8157   19.3069  -34.6090 H   0  0  0  0  0  0  0  0  0  0  0  0
   -5.1554   16.1255  -32.1089 H   0  0  0  0  0  0  0  0  0  0  0  0
   -7.3558   17.2624  -31.7756 H   0  0  0  0  0  0  0  0  0  0  0  0
   -8.3725   24.5024  -30.8124 H   0  0  0  0  0  0  0  0  0  0  0  0
   -6.3209   25.9081  -30.6873 H   0  0  0  0  0  0  0  0  0  0  0  0
   -3.5270   25.6430  -31.5850 H   0  0  0  0  0  0  0  0  0  0  0  0
   -2.9778   22.5076  -29.1872 H   0  0  0  0  0  0  0  0  0  0  0  0
   -0.7543   21.4055  -29.4014 H   0  0  0  0  0  0  0  0  0  0  0  0
   -3.7747   21.7085  -33.3695 H   0  0  0  0  0  0  0  0  0  0  0  0
   -5.9294   20.9714  -31.3402 H   0  0  0  0  0  0  0  0  0  0  0  0
  1  2  2  0
  2  3  2  0
  2  4  1  0
  4  5  1  0
  5  6  1  0
  6  7  2  0
  7  8  1  0
  8  9  2  0
  9 10  1  0
 10 11  2  0
  2 12  1  0
 12 13  2  0
 13 14  1  0
 14 15  2  0
 15 16  1  0
 15 17  1  0
 17 18  1  0
 18 19  2  0
 19 20  1  0
 20 21  2  0
 21 22  1  0
 21 23  1  0
 23 24  1  0
 23 25  2  0
 17 26  2  0
 11  6  1  0
 26 12  1  0
 25 18  1  0
  5 27  1  0
  5 28  1  0
  7 29  1  0
  8 30  1  0
 10 31  1  0
 11 32  1  0
 13 33  1  0
 14 34  1  0
 16 35  1  0
 19 36  1  0
 20 37  1  0
 25 38  1  0
 26 39  1  0
M  CHG  1   4  -1
M  END
>  <UniqueID>  (1) 
1

>  <SMILES>  (1) 
O=S(=O)([N-]Cc1ccncc1)c1ccc(O)c(-c2ccc(Cl)c(Cl)c2)c1

>  <Energy>  (1) 
47.245525595967095

>  <Genealogy>  (1) 
O=S(=O)([N-]Cc1ccncc1)c1ccc(O)c(-c2ccc(Cl)c(Cl)c2)c1 (protonated)
O=S(=O)([N-]Cc1ccncc1)c1ccc(O)c(-c2ccc(Cl)c(Cl)c2)c1 (3D coordinates assigned)
O=S(=O)([N-]Cc1ccncc1)c1ccc(O)c(-c2ccc(Cl)c(Cl)c2)c1 (optimized conformer: 47.245525595967095 kcal/mol)

>  <smiles>  (1) 
O=S(=O)(NCc1ccncc1)c1ccc(O)c(-c2ccc(Cl)c(Cl)c2)c1

>  <score_type>  (1) 
oracle

>  <origin>  (1) 
adgpu

>  <m_score__min__energy>  (1) 
-10.529999999999999

>  <m_primary>  (1) 
energy

$$$$
1:0
     RDKit          3D

 50 52  0  0  1  0  0  0  0  0999 V2000
   -4.0310   12.7630  -31.6080 C   0  0  0  0  0  0  0  0  0  0  0  0
   -3.9070   14.0920  -32.2960 C   0  0  0  0  0  0  0  0  0  0  0  0
   -5.0040   14.7650  -32.7920 C   0  0  0  0  0  0  0  0  0  0  0  0
   -4.9120   15.9890  -33.4290 C   0  0  0  0  0  0  0  0  0  0  0  0
   -6.0720   16.7130  -33.9590 C   0  0  0  0  0  0  0  0  0  0  0  0
   -6.8900   17.1570  -32.8700 O   0  0  0  0  0  0  0  0  0  0  0  0
   -6.9330   18.5410  -32.6100 C   0  0  0  0  0  0  0  0  0  0  0  0
   -5.8970   19.3780  -33.0180 C   0  0  0  0  0  0  0  0  0  0  0  0
   -5.9970   20.7310  -32.7330 C   0  0  0  0  0  0  0  0  0  0  0  0
   -7.0670   21.2830  -32.0670 C   0  0  0  0  0  0  0  0  0  0  0  0
   -7.1020   23.0010  -31.7520 S   0  0  0  0  0  0  0  0  0  0  0  0
   -7.7980   23.6930  -32.8920 O   0  0  0  0  0  0  0  0  0  0  0  0
   -7.8900   23.3260  -30.5040 O   0  0  0  0  0  0  0  0  0  0  0  0
   -5.5540   23.6790  -31.5600 N   0  0  0  0  0  0  0  0  0  0  0  0
   -4.9990   23.5920  -30.2470 C   0  0  1  0  0  0  0  0  0  0  0  0
   -4.4690   22.1620  -30.0840 C   0  0  0  0  0  0  0  0  0  0  0  0
   -3.8860   24.5590  -30.0320 C   0  0  0  0  0  0  0  0  0  0  0  0
   -3.8520   25.6650  -30.8790 O   0  0  0  0  0  0  0  0  0  0  0  0
   -2.9870   24.4140  -29.1250 N   0  0  0  0  0  0  0  0  0  0  0  0
   -1.9850   25.3600  -28.9900 O   0  0  0  0  0  0  0  0  0  0  0  0
   -8.0810   20.4620  -31.6680 C   0  0  0  0  0  0  0  0  0  0  0  0
   -7.9990   19.1130  -31.9440 C   0  0  0  0  0  0  0  0  0  0  0  0
   -3.6390   16.5380  -33.5580 C   0  0  0  0  0  0  0  0  0  0  0  0
   -3.4330   17.7580  -34.1790 C   0  0  0  0  0  0  0  0  0  0  0  0
   -2.1560   18.2970  -34.3010 C   0  0  0  0  0  0  0  0  0  0  0  0
   -1.0630   17.6160  -33.8020 C   0  0  0  0  0  0  0  0  0  0  0  0
   -1.2430   16.4010  -33.1800 C   0  0  0  0  0  0  0  0  0  0  0  0
   -2.5260   15.8620  -33.0580 C   0  0  0  0  0  0  0  0  0  0  0  0
   -2.6990   14.6590  -32.4430 N   0  0  0  0  0  0  0  0  0  0  0  0
   -4.0171   12.9116  -30.5182 H   0  0  0  0  0  0  0  0  0  0  0  0
   -4.9776   12.2854  -31.9009 H   0  0  0  0  0  0  0  0  0  0  0  0
   -3.1891   12.1185  -31.9009 H   0  0  0  0  0  0  0  0  0  0  0  0
   -5.9974   14.3072  -32.6756 H   0  0  0  0  0  0  0  0  0  0  0  0
   -5.7290   17.5822  -34.5394 H   0  0  0  0  0  0  0  0  0  0  0  0
   -6.6559   16.0470  -34.6113 H   0  0  0  0  0  0  0  0  0  0  0  0
   -5.0232   18.9763  -33.5519 H   0  0  0  0  0  0  0  0  0  0  0  0
   -5.1815   21.3954  -33.0549 H   0  0  0  0  0  0  0  0  0  0  0  0
   -5.4010   24.5850  -32.0560 H   0  0  0  0  0  0  0  0  0  0  0  0
   -5.7763   23.8376  -29.5085 H   0  0  0  0  0  0  0  0  0  0  0  0
   -4.3806   21.9235  -29.0138 H   0  0  0  0  0  0  0  0  0  0  0  0
   -5.1653   21.4563  -30.5606 H   0  0  0  0  0  0  0  0  0  0  0  0
   -3.4810   22.0806  -30.5606 H   0  0  0  0  0  0  0  0  0  0  0  0
   -4.3800   25.6970  -31.7470 H   0  0  0  0  0  0  0  0  0  0  0  0
   -1.7730   26.0070  -29.7450 H   0  0  0  0  0  0  0  0  0  0  0  0
   -8.9517   20.8701  -31.1337 H   0  0  0  0  0  0  0  0  0  0  0  0
   -8.8228   18.4611  -31.6177 H   0  0  0  0  0  0  0  0  0  0  0  0
   -4.2938   18.3109  -34.5830 H   0  0  0  0  0  0  0  0  0  0  0  0
   -2.0165   19.2690  -34.7967 H   0  0  0  0  0  0  0  0  0  0  0  0
   -0.0538   18.0422  -33.9010 H   0  0  0  0  0  0  0  0  0  0  0  0
   -0.3765   15.8547  -32.7791 H   0  0  0  0  0  0  0  0  0  0  0  0
  1  2  1  0
  2  3  2  0
  3  4  1  0
  4  5  1  0
  5  6  1  0
  6  7  1  0
  7  8  2  0
  8  9  1  0
  9 10  2  0
 10 11  1  0
 11 12  2  0
 11 13  2  0
 11 14  1  0
 14 15  1  0
 15 16  1  0
 15 17  1  0
 17 18  1  0
 17 19  2  0
 19 20  1  0
 10 21  1  0
 21 22  2  0
  4 23  2  0
 23 24  1  0
 24 25  2  0
 25 26  1  0
 26 27  2  0
 27 28  1  0
 28 29  2  0
 29  2  1  0
 22  7  1  0
 28 23  1  0
  1 30  1  0
  1 31  1  0
  1 32  1  0
  3 33  1  0
  5 34  1  0
  5 35  1  0
  8 36  1  0
  9 37  1  0
 14 38  1  0
 15 39  1  1
 16 40  1  0
 16 41  1  0
 16 42  1  0
 18 43  1  0
 20 44  1  0
 21 45  1  0
 22 46  1  0
 24 47  1  0
 25 48  1  0
 26 49  1  0
 27 50  1  0
M  END
>  <smiles>  (2) 
Cc1cc(COc2ccc(S(=O)(=O)NC(C)C(O)=NO)cc2)c2ccccc2n1

>  <score_type>  (2) 
oracle

>  <origin>  (2) 
adgpu

>  <m_score__min__energy>  (2) 
-10.65

>  <m_primary>  (2) 
energy

$$$$
2:0
     RDKit          3D

 45 47  0  0  0  0  0  0  0  0999 V2000
   -5.8900   17.3100  -31.9320 C   0  0  0  0  0  0  0  0  0  0  0  0
   -6.6580   18.4490  -31.2920 C   0  0  0  0  0  0  0  0  0  0  0  0
   -7.3510   19.2790  -32.2540 N   0  0  0  0  0  0  0  0  0  0  0  0
   -6.4460   20.0960  -32.9900 C   0  0  0  0  0  0  0  0  0  0  0  0
   -6.8360   21.5650  -33.0300 C   0  0  0  0  0  0  0  0  0  0  0  0
   -7.0510   21.9650  -31.6500 N   0  0  0  0  0  0  0  0  0  0  0  0
   -6.5250   23.1670  -31.0980 C   0  0  0  0  0  0  0  0  0  0  0  0
   -7.4180   24.0930  -30.6410 N   0  0  0  0  0  0  0  0  0  0  0  0
   -7.0110   25.2570  -30.1020 C   0  0  0  0  0  0  0  0  0  0  0  0
   -5.6820   25.4980  -30.0180 N   0  0  0  0  0  0  0  0  0  0  0  0
   -4.7680   24.6040  -30.4590 C   0  0  0  0  0  0  0  0  0  0  0  0
   -3.4960   24.8140  -30.3890 N   0  0  0  0  0  0  0  0  0  0  0  0
   -5.1660   23.3930  -31.0220 C   0  0  0  0  0  0  0  0  0  0  0  0
   -4.2000   22.4160  -31.5060 C   0  0  0  0  0  0  0  0  0  0  0  0
   -3.4690   21.5830  -30.7190 C   0  0  0  0  0  0  0  0  0  0  0  0
   -2.5620   20.6750  -31.2690 C   0  0  0  0  0  0  0  0  0  0  0  0
   -2.3770   20.5930  -32.6380 C   0  0  0  0  0  0  0  0  0  0  0  0
   -1.4080   19.6220  -33.2290 C   0  0  0  0  0  0  0  0  0  0  0  0
   -3.1250   21.4460  -33.4450 C   0  0  0  0  0  0  0  0  0  0  0  0
   -4.0300   22.3520  -32.8950 C   0  0  0  0  0  0  0  0  0  0  0  0
   -7.8440   21.0950  -30.7830 C   0  0  0  0  0  0  0  0  0  0  0  0
   -8.4390   20.0080  -31.6790 C   0  0  0  0  0  0  0  0  0  0  0  0
   -5.4593   16.6713  -31.1468 H   0  0  0  0  0  0  0  0  0  0  0  0
   -6.5713   16.7139  -32.5569 H   0  0  0  0  0  0  0  0  0  0  0  0
   -5.0819   17.7181  -32.5569 H   0  0  0  0  0  0  0  0  0  0  0  0
   -7.3986   18.0251  -30.5978 H   0  0  0  0  0  0  0  0  0  0  0  0
   -5.9265   19.0876  -30.7752 H   0  0  0  0  0  0  0  0  0  0  0  0
   -5.4511   20.0141  -32.5279 H   0  0  0  0  0  0  0  0  0  0  0  0
   -6.4602   19.7333  -34.0284 H   0  0  0  0  0  0  0  0  0  0  0  0
   -6.0282   22.1619  -33.4786 H   0  0  0  0  0  0  0  0  0  0  0  0
   -7.7385   21.7237  -33.6386 H   0  0  0  0  0  0  0  0  0  0  0  0
   -7.7412   25.9950  -29.7384 H   0  0  0  0  0  0  0  0  0  0  0  0
   -5.3630   26.3970  -29.6010 H   0  0  0  0  0  0  0  0  0  0  0  0
   -3.0630   25.6700  -29.9950 H   0  0  0  0  0  0  0  0  0  0  0  0
   -3.5945   21.6251  -29.6270 H   0  0  0  0  0  0  0  0  0  0  0  0
   -1.9858   20.0148  -30.6040 H   0  0  0  0  0  0  0  0  0  0  0  0
   -0.8803   19.0932  -32.4216 H   0  0  0  0  0  0  0  0  0  0  0  0
   -1.9508   18.8944  -33.8503 H   0  0  0  0  0  0  0  0  0  0  0  0
   -0.6793   20.1633  -33.8503 H   0  0  0  0  0  0  0  0  0  0  0  0
   -2.9994   21.4041  -34.5370 H   0  0  0  0  0  0  0  0  0  0  0  0
   -4.6107   23.0167  -33.5515 H   0  0  0  0  0  0  0  0  0  0  0  0
   -7.2035   20.6423  -30.0118 H   0  0  0  0  0  0  0  0  0  0  0  0
   -8.6346   21.6617  -30.2694 H   0  0  0  0  0  0  0  0  0  0  0  0
   -9.0691   19.3326  -31.0816 H   0  0  0  0  0  0  0  0  0  0  0  0
   -9.0638   20.4550  -32.4663 H   0  0  0  0  0  0  0  0  0  0  0  0
  1  2  1  0
  2  3  1  0
  3  4  1  0
  4  5  1  0
  5  6  1  0
  6  7  1  0
  7  8  1  0
  8  9  2  0
  9 10  1  0
 10 11  1  0
 11 12  2  3
 11 13  1  0
 13 14  1  0
 14 15  2  0
 15 16  1  0
 16 17  2  0
 17 18  1  0
 17 19  1  0
 19 20  2  0
  6 21  1  0
 21 22  1  0
 22  3  1  0
 13  7  2  0
 20 14  1  0
  1 23  1  0
  1 24  1  0
  1 25  1  0
  2 26  1  0
  2 27  1  0
  4 28  1  0
  4 29  1  0
  5 30  1  0
  5 31  1  0
  9 32  1  0
 10 33  1  0
 12 34  1  0
 15 35  1  0
 16 36  1  0
 18 37  1  0
 18 38  1  0
 18 39  1  0
 19 40  1  0
 20 41  1  0
 21 42  1  0
 21 43  1  0
 22 44  1  0
 22 45  1  0
M  END
>  <smiles>  (3) 
CCN1CCN(c2nc[nH]c(=N)c2-c2ccc(C)cc2)CC1

>  <score_type>  (3) 
oracle

>  <origin>  (3) 
adgpu

>  <m_score__min__energy>  (3) 
-7.6600000000000001

>  <m_primary>  (3) 
energy

$$$$
3:0
     RDKit          3D

 46 48  0  0  0  0  0  0  0  0999 V2000
   -6.1740   17.1760  -32.9140 C   0  0  0  0  0  0  0  0  0  0  0  0
   -6.2980   18.4600  -33.6290 N   0  0  0  0  0  0  0  0  0  0  0  0
   -5.6230   18.3680  -34.9370 C   0  0  0  0  0  0  0  0  0  0  0  0
   -5.8490   19.6010  -32.7760 C   0  0  2  0  0  0  0  0  0  0  0  0
   -6.7450   20.8520  -32.9380 C   0  0  0  0  0  0  0  0  0  0  0  0
   -8.0300   20.6240  -32.2690 N   0  0  0  0  0  0  0  0  0  0  0  0
   -8.5080   22.0240  -31.3600 S   0  0  0  0  0  0  0  0  0  0  0  0
   -9.1760   21.5880  -30.0860 O   0  0  0  0  0  0  0  0  0  0  0  0
   -9.4810   22.8490  -32.1570 O   0  0  0  0  0  0  0  0  0  0  0  0
   -7.0700   22.9600  -30.9670 C   0  0  0  0  0  0  0  0  0  0  0  0
   -6.8530   24.2190  -31.5450 C   0  0  0  0  0  0  0  0  0  0  0  0
   -5.6800   24.9260  -31.2730 C   0  0  0  0  0  0  0  0  0  0  0  0
   -4.7120   24.3780  -30.4250 C   0  0  0  0  0  0  0  0  0  0  0  0
   -3.5580   25.0550  -30.1760 N   0  0  0  0  0  0  0  0  0  0  0  0
   -2.5890   24.5450  -29.3690 C   0  0  0  0  0  0  0  0  0  0  0  0
   -1.5350   25.2020  -29.1640 O   0  0  0  0  0  0  0  0  0  0  0  0
   -2.7610   23.2910  -28.7710 C   0  0  0  0  0  0  0  0  0  0  0  0
   -3.9340   22.5730  -29.0070 C   0  0  0  0  0  0  0  0  0  0  0  0
   -4.9250   23.1110  -29.8380 C   0  0  0  0  0  0  0  0  0  0  0  0
   -6.1060   22.4080  -30.1130 C   0  0  0  0  0  0  0  0  0  0  0  0
   -4.3620   19.9360  -32.9300 C   0  0  0  0  0  0  0  0  0  0  0  0
   -3.9030   21.2590  -33.1000 C   0  0  0  0  0  0  0  0  0  0  0  0
   -2.5380   21.5260  -33.2440 C   0  0  0  0  0  0  0  0  0  0  0  0
   -1.6120   20.4830  -33.2080 C   0  0  0  0  0  0  0  0  0  0  0  0
   -2.0500   19.1690  -33.0400 C   0  0  0  0  0  0  0  0  0  0  0  0
   -3.4140   18.8940  -32.9070 C   0  0  0  0  0  0  0  0  0  0  0  0
   -6.1915   17.3572  -31.8292 H   0  0  0  0  0  0  0  0  0  0  0  0
   -7.0130   16.5202  -33.1898 H   0  0  0  0  0  0  0  0  0  0  0  0
   -5.2250   16.6929  -33.1898 H   0  0  0  0  0  0  0  0  0  0  0  0
   -7.3210   18.5900  -33.8200 H   0  0  0  0  0  0  0  0  0  0  0  0
   -4.5438   18.2209  -34.7831 H   0  0  0  0  0  0  0  0  0  0  0  0
   -6.0322   17.5173  -35.5017 H   0  0  0  0  0  0  0  0  0  0  0  0
   -5.7896   19.2972  -35.5017 H   0  0  0  0  0  0  0  0  0  0  0  0
   -5.9703   19.2498  -31.7406 H   0  0  0  0  0  0  0  0  0  0  0  0
   -6.2456   21.7215  -32.4858 H   0  0  0  0  0  0  0  0  0  0  0  0
   -6.9176   21.0429  -34.0075 H   0  0  0  0  0  0  0  0  0  0  0  0
   -7.6101   24.6516  -32.2156 H   0  0  0  0  0  0  0  0  0  0  0  0
   -5.5170   25.9150  -31.7261 H   0  0  0  0  0  0  0  0  0  0  0  0
   -1.9777   22.8750  -28.1203 H   0  0  0  0  0  0  0  0  0  0  0  0
   -4.0801   21.5870  -28.5417 H   0  0  0  0  0  0  0  0  0  0  0  0
   -6.2763   21.4213  -29.6576 H   0  0  0  0  0  0  0  0  0  0  0  0
   -4.6255   22.0882  -33.1195 H   0  0  0  0  0  0  0  0  0  0  0  0
   -2.1934   22.5609  -33.3860 H   0  0  0  0  0  0  0  0  0  0  0  0
   -0.5379   20.6964  -33.3119 H   0  0  0  0  0  0  0  0  0  0  0  0
   -1.3197   18.3469  -33.0121 H   0  0  0  0  0  0  0  0  0  0  0  0
   -3.7505   17.8541  -32.7832 H   0  0  0  0  0  0  0  0  0  0  0  0
  1  2  1  0
  2  3  1  0
  2  4  1  0
  4  5  1  0
  5  6  1  0
  6  7  1  0
  7  8  2  0
  7  9  2  0
  7 10  1  0
 10 11  2  0
 11 12  1  0
 12 13  2  0
 13 14  1  0
 14 15  1  0
 15 16  2  0
 15 17  1  0
 17 18  2  0
 18 19  1  0
 19 20  2  0
  4 21  1  0
 21 22  2  0
 22 23  1  0
 23 24  2  0
 24 25  1  0
 25 26  2  0
 20 10  1  0
 26 21  1  0
 19 13  1  0
  1 27  1  0
  1 28  1  0
  1 29  1  0
  2 30  1  0
  3 31  1  0
  3 32  1  0
  3 33  1  0
  4 34  1  1
  5 35  1  0
  5 36  1  0
 11 37  1  0
 12 38  1  0
 17 39  1  0
 18 40  1  0
 20 41  1  0
 22 42  1  0
 23 43  1  0
 24 44  1  0
 25 45  1  0
 26 46  1  0
M  CHG  3   2   1   6  -1  14  -1
M  END
>  <UniqueID>  (4) 
2

>  <SMILES>  (4) 
C[NH+](C)[C@H](C[N-]S(=O)(=O)c1ccc2[n-]c(=O)ccc2c1)c1ccccc1

>  <Energy>  (4) 
52.3226464486208

>  <Genealogy>  (4) 
C[NH+](C)C(C[N-]S(=O)(=O)c1ccc2[n-]c(=O)ccc2c1)c1ccccc1 (protonated)
C[NH+](C)[C@H](C[N-]S(=O)(=O)c1ccc2[n-]c(=O)ccc2c1)c1ccccc1 (chirality)
C[NH+](C)[C@H](C[N-]S(=O)(=O)c1ccc2[n-]c(=O)ccc2c1)c1ccccc1 (3D coordinates assigned)
C[NH+](C)[C@H](C[N-]S(=O)(=O)c1ccc2[n-]c(=O)ccc2c1)c1ccccc1 (optimized conformer: 52.3226464486208 kcal/mol)

>  <smiles>  (4) 
CN(C)C(CNS(=O)(=O)c1ccc2[nH]c(=O)ccc2c1)c1ccccc1

>  <score_type>  (4) 
oracle

>  <origin>  (4) 
adgpu

>  <m_score__min__energy>  (4) 
-10.06

>  <m_primary>  (4) 
energy

$$$$
4:0
     RDKit          3D

 44 47  0  0  0  0  0  0  0  0999 V2000
   -3.5250   20.9540  -29.4730 O   0  0  0  0  0  0  0  0  0  0  0  0
   -3.5320   22.2000  -29.6620 C   0  0  0  0  0  0  0  0  0  0  0  0
   -2.4270   22.9260  -29.3540 N   0  0  0  0  0  0  0  0  0  0  0  0
   -2.3900   24.2720  -29.5410 C   0  0  0  0  0  0  0  0  0  0  0  0
   -3.4720   24.9200  -30.0450 N   0  0  0  0  0  0  0  0  0  0  0  0
   -4.6040   24.2430  -30.3700 C   0  0  0  0  0  0  0  0  0  0  0  0
   -5.7060   24.9300  -30.8920 C   0  0  0  0  0  0  0  0  0  0  0  0
   -6.8700   24.2340  -31.2270 C   0  0  0  0  0  0  0  0  0  0  0  0
   -6.9460   22.8470  -31.0390 C   0  0  0  0  0  0  0  0  0  0  0  0
   -8.4110   21.9810  -31.4960 S   0  0  0  0  0  0  0  0  0  0  0  0
   -9.0050   21.3080  -30.2890 O   0  0  0  0  0  0  0  0  0  0  0  0
   -9.4100   22.9710  -32.0320 O   0  0  0  0  0  0  0  0  0  0  0  0
   -8.0480   20.7920  -32.7220 N   0  0  0  0  0  0  0  0  0  0  0  0
   -6.6260   20.8960  -33.1150 C   0  0  0  0  0  0  0  0  0  0  0  0
   -6.1430   19.6400  -33.8450 C   0  0  0  0  0  0  0  0  0  0  0  0
   -6.3340   18.4550  -32.9990 N   0  0  0  0  0  0  0  0  0  0  0  0
   -5.5300   17.2730  -33.2060 C   0  0  0  0  0  0  0  0  0  0  0  0
   -4.8430   17.0750  -34.4200 C   0  0  0  0  0  0  0  0  0  0  0  0
   -4.0690   15.9280  -34.6190 C   0  0  0  0  0  0  0  0  0  0  0  0
   -3.9670   14.9640  -33.6130 C   0  0  0  0  0  0  0  0  0  0  0  0
   -3.1910   13.8260  -33.8260 O   0  0  0  0  0  0  0  0  0  0  0  0
   -4.6460   15.1490  -32.4030 C   0  0  0  0  0  0  0  0  0  0  0  0
   -5.4230   16.2940  -32.2010 C   0  0  0  0  0  0  0  0  0  0  0  0
   -7.3110   18.5180  -31.9040 C   0  0  0  0  0  0  0  0  0  0  0  0
   -8.4780   19.4370  -32.2900 C   0  0  0  0  0  0  0  0  0  0  0  0
   -5.8420   22.1530  -30.5230 C   0  0  0  0  0  0  0  0  0  0  0  0
   -4.6670   22.8460  -30.1830 C   0  0  0  0  0  0  0  0  0  0  0  0
   -1.4821   24.8373  -29.2837 H   0  0  0  0  0  0  0  0  0  0  0  0
   -5.6555   26.0190  -31.0386 H   0  0  0  0  0  0  0  0  0  0  0  0
   -7.7321   24.7777  -31.6408 H   0  0  0  0  0  0  0  0  0  0  0  0
   -6.5033   21.7635  -33.7802 H   0  0  0  0  0  0  0  0  0  0  0  0
   -6.0265   21.0106  -32.1998 H   0  0  0  0  0  0  0  0  0  0  0  0
   -6.7164   19.5179  -34.7757 H   0  0  0  0  0  0  0  0  0  0  0  0
   -5.0725   19.7480  -34.0740 H   0  0  0  0  0  0  0  0  0  0  0  0
   -4.9162   17.8290  -35.2176 H   0  0  0  0  0  0  0  0  0  0  0  0
   -3.5381   15.7839  -35.5716 H   0  0  0  0  0  0  0  0  0  0  0  0
   -2.2520   13.7500  -33.4550 H   0  0  0  0  0  0  0  0  0  0  0  0
   -4.5682   14.3917  -31.6090 H   0  0  0  0  0  0  0  0  0  0  0  0
   -5.9552   16.4305  -31.2481 H   0  0  0  0  0  0  0  0  0  0  0  0
   -7.6955   17.5076  -31.7010 H   0  0  0  0  0  0  0  0  0  0  0  0
   -6.8191   18.9191  -31.0055 H   0  0  0  0  0  0  0  0  0  0  0  0
   -9.0321   18.9677  -33.1163 H   0  0  0  0  0  0  0  0  0  0  0  0
   -9.0990   19.5660  -31.3912 H   0  0  0  0  0  0  0  0  0  0  0  0
   -5.8956   21.0631  -30.3839 H   0  0  0  0  0  0  0  0  0  0  0  0
  1  2  2  0
  2  3  1  0
  3  4  1  0
  4  5  2  0
  5  6  1  0
  6  7  2  0
  7  8  1  0
  8  9  2  0
  9 10  1  0
 10 11  2  0
 10 12  2  0
 10 13  1  0
 13 14  1  0
 14 15  1  0
 15 16  1  0
 16 17  1  0
 17 18  2  0
 18 19  1  0
 19 20  2  0
 20 21  1  0
 20 22  1  0
 22 23  2  0
 16 24  1  0
 24 25  1  0
  9 26  1  0
 26 27  2  0
 27  2  1  0
 27  6  1  0
 25 13  1  0
 23 17  1  0
  4 28  1  0
  7 29  1  0
  8 30  1  0
 14 31  1  0
 14 32  1  0
 15 33  1  0
 15 34  1  0
 18 35  1  0
 19 36  1  0
 21 37  1  0
 22 38  1  0
 23 39  1  0
 24 40  1  0
 24 41  1  0
 25 42  1  0
 25 43  1  0
 26 44  1  0
M  CHG  1   3  -1
M  END
>  <UniqueID>  (5) 
3

>  <SMILES>  (5) 
O=c1[n-]cnc2ccc(S(=O)(=O)N3CCN(c4ccc(O)cc4)CC3)cc12

>  <Energy>  (5) 
60.70644249255178

>  <Genealogy>  (5) 
O=c1[n-]cnc2ccc(S(=O)(=O)N3CCN(c4ccc(O)cc4)CC3)cc12 (protonated)
O=c1[n-]cnc2ccc(S(=O)(=O)N3CCN(c4ccc(O)cc4)CC3)cc12 (3D coordinates assigned)
O=c1[n-]cnc2ccc(S(=O)(=O)N3CCN(c4ccc(O)cc4)CC3)cc12 (nonaromatic ring conformer: 60.70644249255178 kcal/mol)

>  <smiles>  (5) 
O=c1[nH]cnc2ccc(S(=O)(=O)N3CCN(c4ccc(O)cc4)CC3)cc12

>  <score_type>  (5) 
oracle

>  <origin>  (5) 
adgpu

>  <m_score__min__energy>  (5) 
-9.4499999999999993

>  <m_primary>  (5) 
energy

$$$$
5:0
     RDKit          3D

 59 62  0  0  0  0  0  0  0  0999 V2000
   -2.3860   23.0050  -29.5070 O   0  0  0  0  0  0  0  0  0  0  0  0
   -3.2980   22.4060  -30.1360 C   0  0  0  0  0  0  0  0  0  0  0  0
   -3.1120   21.0240  -30.4700 N   0  0  0  0  0  0  0  0  0  0  0  0
   -2.7530   20.5110  -31.7610 C   0  0  0  0  0  0  0  0  0  0  0  0
   -3.6210   19.6050  -32.3850 C   0  0  0  0  0  0  0  0  0  0  0  0
   -3.3230   19.0890  -33.6530 C   0  0  0  0  0  0  0  0  0  0  0  0
   -4.4200   17.9530  -34.4310 S   0  0  0  0  0  0  0  0  0  0  0  0
   -3.7340   17.3410  -35.6210 O   0  0  0  0  0  0  0  0  0  0  0  0
   -5.6480   18.6800  -34.9090 O   0  0  0  0  0  0  0  0  0  0  0  0
   -4.8500   16.6970  -33.2980 N   0  0  0  0  0  0  0  0  0  0  0  0
   -5.6250   15.6390  -33.9460 C   0  0  0  0  0  0  0  0  0  0  0  0
   -5.3710   14.3680  -33.1510 C   0  0  0  0  0  0  0  0  0  0  0  0
   -4.0850   14.6250  -32.3810 C   0  0  0  0  0  0  0  0  0  0  0  0
   -3.6620   16.0360  -32.7590 C   0  0  0  0  0  0  0  0  0  0  0  0
   -2.1310   19.4580  -34.2870 C   0  0  0  0  0  0  0  0  0  0  0  0
   -1.2430   20.3330  -33.6590 C   0  0  0  0  0  0  0  0  0  0  0  0
   -1.5380   20.8530  -32.3900 C   0  0  0  0  0  0  0  0  0  0  0  0
   -0.6150   21.6780  -31.7490 O   0  0  0  0  0  0  0  0  0  0  0  0
   -4.5370   23.1390  -30.4850 C   0  0  0  0  0  0  0  0  0  0  0  0
   -5.7100   22.4150  -30.7580 C   0  0  0  0  0  0  0  0  0  0  0  0
   -6.9040   23.0840  -31.0670 C   0  0  0  0  0  0  0  0  0  0  0  0
   -8.3740   22.1760  -31.4140 S   0  0  0  0  0  0  0  0  0  0  0  0
   -8.8380   21.4640  -30.1720 O   0  0  0  0  0  0  0  0  0  0  0  0
   -9.4440   23.1470  -31.8260 O   0  0  0  0  0  0  0  0  0  0  0  0
   -8.1040   21.0300  -32.7110 N   0  0  0  0  0  0  0  0  0  0  0  0
   -6.7430   20.4570  -32.6750 C   0  0  0  0  0  0  0  0  0  0  0  0
   -6.5550   19.4330  -31.5400 C   0  0  0  0  0  0  0  0  0  0  0  0
   -7.7820   18.5260  -31.3350 C   0  0  0  0  0  0  0  0  0  0  0  0
   -8.7350   18.5780  -32.5270 C   0  0  0  0  0  0  0  0  0  0  0  0
   -9.1920   20.0230  -32.7950 C   0  0  0  0  0  0  0  0  0  0  0  0
   -6.9200   24.4810  -31.1270 C   0  0  0  0  0  0  0  0  0  0  0  0
   -5.7540   25.2080  -30.8790 C   0  0  0  0  0  0  0  0  0  0  0  0
   -4.5620   24.5460  -30.5700 C   0  0  0  0  0  0  0  0  0  0  0  0
   -3.4050   25.2950  -30.3770 O   0  0  0  0  0  0  0  0  0  0  0  0
   -4.5451   19.2960  -31.8745 H   0  0  0  0  0  0  0  0  0  0  0  0
   -6.6961   15.8890  -33.9307 H   0  0  0  0  0  0  0  0  0  0  0  0
   -5.3277   15.5159  -34.9979 H   0  0  0  0  0  0  0  0  0  0  0  0
   -6.2029   14.1747  -32.4577 H   0  0  0  0  0  0  0  0  0  0  0  0
   -5.2884   13.4863  -33.8036 H   0  0  0  0  0  0  0  0  0  0  0  0
   -4.2644   14.5543  -31.2980 H   0  0  0  0  0  0  0  0  0  0  0  0
   -3.3077   13.8860  -32.6253 H   0  0  0  0  0  0  0  0  0  0  0  0
   -3.2980   16.5740  -31.8712 H   0  0  0  0  0  0  0  0  0  0  0  0
   -2.8463   16.0218  -33.4968 H   0  0  0  0  0  0  0  0  0  0  0  0
   -1.8932   19.0572  -35.2834 H   0  0  0  0  0  0  0  0  0  0  0  0
   -0.3067   20.6163  -34.1620 H   0  0  0  0  0  0  0  0  0  0  0  0
   -0.8540   22.1950  -30.9110 H   0  0  0  0  0  0  0  0  0  0  0  0
   -5.6920   21.3155  -30.7292 H   0  0  0  0  0  0  0  0  0  0  0  0
   -6.5469   19.9572  -33.6350 H   0  0  0  0  0  0  0  0  0  0  0  0
   -6.0407   21.2840  -32.4938 H   0  0  0  0  0  0  0  0  0  0  0  0
   -5.6880   18.8000  -31.7798 H   0  0  0  0  0  0  0  0  0  0  0  0
   -6.4067   19.9994  -30.6087 H   0  0  0  0  0  0  0  0  0  0  0  0
   -7.4392   17.4897  -31.1989 H   0  0  0  0  0  0  0  0  0  0  0  0
   -8.3258   18.8839  -30.4483 H   0  0  0  0  0  0  0  0  0  0  0  0
   -8.2198   18.1909  -33.4185 H   0  0  0  0  0  0  0  0  0  0  0  0
   -9.6189   17.9636  -32.3004 H   0  0  0  0  0  0  0  0  0  0  0  0
   -9.6251   20.0663  -33.8052 H   0  0  0  0  0  0  0  0  0  0  0  0
   -9.9188   20.2760  -32.0090 H   0  0  0  0  0  0  0  0  0  0  0  0
   -7.8540   25.0088  -31.3703 H   0  0  0  0  0  0  0  0  0  0  0  0
   -5.7734   26.3068  -30.9270 H   0  0  0  0  0  0  0  0  0  0  0  0
  1  2  2  0
  2  3  1  0
  3  4  1  0
  4  5  2  0
  5  6  1  0
  6  7  1  0
  7  8  2  0
  7  9  2  0
  7 10  1  0
 10 11  1  0
 11 12  1  0
 12 13  1  0
 13 14  1  0
  6 15  2  0
 15 16  1  0
 16 17  2  0
 17 18  1  0
  2 19  1  0
 19 20  2  0
 20 21  1  0
 21 22  1  0
 22 23  2  0
 22 24  2  0
 22 25  1  0
 25 26  1  0
 26 27  1  0
 27 28  1  0
 28 29  1  0
 29 30  1  0
 21 31  2  0
 31 32  1  0
 32 33  2  0
 33 34  1  0
 17  4  1  0
 33 19  1  0
 14 10  1  0
 30 25  1  0
  5 35  1  0
 11 36  1  0
 11 37  1  0
 12 38  1  0
 12 39  1  0
 13 40  1  0
 13 41  1  0
 14 42  1  0
 14 43  1  0
 15 44  1  0
 16 45  1  0
 18 46  1  0
 20 47  1  0
 26 48  1  0
 26 49  1  0
 27 50  1  0
 27 51  1  0
 28 52  1  0
 28 53  1  0
 29 54  1  0
 29 55  1  0
 30 56  1  0
 30 57  1  0
 31 58  1  0
 32 59  1  0
M  CHG  2   3  -1  34  -1
M  END
>  <UniqueID>  (6) 
4

>  <SMILES>  (6) 
O=C([N-]c1cc(S(=O)(=O)N2CCCC2)ccc1O)c1cc(S(=O)(=O)N2CCCCC2)ccc1[O-]

>  <Energy>  (6) 
77.99870812227601

>  <Genealogy>  (6) 
O=C([N-]c1cc(S(=O)(=O)N2CCCC2)ccc1O)c1cc(S(=O)(=O)N2CCCCC2)ccc1[O-] (protonated)
O=C([N-]c1cc(S(=O)(=O)N2CCCC2)ccc1O)c1cc(S(=O)(=O)N2CCCCC2)ccc1[O-] (3D coordinates assigned)
O=C([N-]c1cc(S(=O)(=O)N2CCCC2)ccc1O)c1cc(S(=O)(=O)N2CCCCC2)ccc1[O-] (nonaromatic ring conformer: 77.99870812227601 kcal/mol)

>  <smiles>  (6) 
O=C(Nc1cc(S(=O)(=O)N2CCCC2)ccc1O)c1cc(S(=O)(=O)N2CCCCC2)ccc1O

>  <score_type>  (6) 
oracle

>  <origin>  (6) 
adgpu

>  <m_score__min__energy>  (6) 
-14.81

>  <m_primary>  (6) 
energy

$$$$
6:0
     RDKit          3D

 65 68  0  0  0  0  0  0  0  0999 V2000
   -6.1700   17.2250  -33.1190 C   0  0  0  0  0  0  0  0  0  0  0  0
   -6.3110   18.5810  -32.3900 C   0  0  0  0  0  0  0  0  0  0  0  0
   -7.6900   18.7710  -31.6970 C   0  0  0  0  0  0  0  0  0  0  0  0
   -8.5970   19.7790  -32.4220 C   0  0  0  0  0  0  0  0  0  0  0  0
   -7.9520   21.1060  -32.6320 N   0  0  0  0  0  0  0  0  0  0  0  0
   -8.4610   22.2810  -31.4140 S   0  0  0  0  0  0  0  0  0  0  0  0
   -9.5240   23.1980  -31.9680 O   0  0  0  0  0  0  0  0  0  0  0  0
   -9.0420   21.5250  -30.2530 O   0  0  0  0  0  0  0  0  0  0  0  0
   -7.0650   23.1970  -30.8270 C   0  0  0  0  0  0  0  0  0  0  0  0
   -7.0450   24.5840  -30.8550 C   0  0  0  0  0  0  0  0  0  0  0  0
   -5.8610   25.2550  -30.5760 C   0  0  0  0  0  0  0  0  0  0  0  0
   -4.7020   24.5270  -30.3150 C   0  0  0  0  0  0  0  0  0  0  0  0
   -3.4810   25.2040  -30.4500 O   0  0  0  0  0  0  0  0  0  0  0  0
   -4.6870   23.1170  -30.1760 C   0  0  0  0  0  0  0  0  0  0  0  0
   -3.4970   22.2500  -30.4030 C   0  0  0  0  0  0  0  0  0  0  0  0
   -3.5020   21.1240  -29.8200 O   0  0  0  0  0  0  0  0  0  0  0  0
   -2.2520   22.7210  -30.9840 N   0  0  0  0  0  0  0  0  0  0  0  0
   -1.0940   21.8880  -31.1270 C   0  0  0  0  0  0  0  0  0  0  0  0
   -0.7930   21.3620  -32.3920 C   0  0  0  0  0  0  0  0  0  0  0  0
    0.1570   20.3390  -32.5310 C   0  0  0  0  0  0  0  0  0  0  0  0
    0.7670   19.7930  -31.4010 C   0  0  0  0  0  0  0  0  0  0  0  0
    0.4450   20.2840  -30.1270 C   0  0  0  0  0  0  0  0  0  0  0  0
    1.1260   19.5140  -28.6840 S   0  0  0  0  0  0  0  0  0  0  0  0
    2.3000   20.3070  -28.1960 O   0  0  0  0  0  0  0  0  0  0  0  0
    1.6310   18.1550  -29.0720 O   0  0  0  0  0  0  0  0  0  0  0  0
   -0.0440   19.3610  -27.3860 N   0  0  0  0  0  0  0  0  0  0  0  0
   -1.0870   18.3810  -27.7470 C   0  0  0  0  0  0  0  0  0  0  0  0
   -2.0420   18.1750  -26.5670 C   0  0  0  0  0  0  0  0  0  0  0  0
   -2.6510   19.5020  -26.1060 C   0  0  0  0  0  0  0  0  0  0  0  0
   -1.5500   20.5490  -25.8540 C   0  0  0  0  0  0  0  0  0  0  0  0
   -0.6530   20.6760  -27.0950 C   0  0  0  0  0  0  0  0  0  0  0  0
   -0.4770   21.3340  -29.9900 C   0  0  0  0  0  0  0  0  0  0  0  0
   -5.9660   22.4960  -30.2780 C   0  0  0  0  0  0  0  0  0  0  0  0
   -6.4690   21.0700  -32.7100 C   0  0  0  0  0  0  0  0  0  0  0  0
   -5.9730   19.7650  -33.3290 C   0  0  0  0  0  0  0  0  0  0  0  0
   -6.0860   16.4170  -32.3773 H   0  0  0  0  0  0  0  0  0  0  0  0
   -7.0552   17.0537  -33.7492 H   0  0  0  0  0  0  0  0  0  0  0  0
   -5.2685   17.2395  -33.7492 H   0  0  0  0  0  0  0  0  0  0  0  0
   -5.5693   18.5685  -31.5777 H   0  0  0  0  0  0  0  0  0  0  0  0
   -8.2028   17.7984  -31.6658 H   0  0  0  0  0  0  0  0  0  0  0  0
   -7.4982   19.1687  -30.6895 H   0  0  0  0  0  0  0  0  0  0  0  0
   -8.8672   19.3627  -33.4037 H   0  0  0  0  0  0  0  0  0  0  0  0
   -9.4786   19.9419  -31.7846 H   0  0  0  0  0  0  0  0  0  0  0  0
   -7.9585   25.1474  -31.0960 H   0  0  0  0  0  0  0  0  0  0  0  0
   -5.8386   26.3547  -30.5612 H   0  0  0  0  0  0  0  0  0  0  0  0
   -2.1110   23.7240  -31.2400 H   0  0  0  0  0  0  0  0  0  0  0  0
   -1.3060   21.7548  -33.2823 H   0  0  0  0  0  0  0  0  0  0  0  0
    0.4213   19.9669  -33.5319 H   0  0  0  0  0  0  0  0  0  0  0  0
    1.4990   18.9791  -31.5090 H   0  0  0  0  0  0  0  0  0  0  0  0
   -1.6532   18.7538  -28.6133 H   0  0  0  0  0  0  0  0  0  0  0  0
   -0.6105   17.4219  -27.9981 H   0  0  0  0  0  0  0  0  0  0  0  0
   -2.8516   17.4971  -26.8754 H   0  0  0  0  0  0  0  0  0  0  0  0
   -1.4721   17.7452  -25.7301 H   0  0  0  0  0  0  0  0  0  0  0  0
   -3.3331   19.8756  -26.8839 H   0  0  0  0  0  0  0  0  0  0  0  0
   -3.1985   19.3322  -25.1672 H   0  0  0  0  0  0  0  0  0  0  0  0
   -2.0151   21.5225  -25.6393 H   0  0  0  0  0  0  0  0  0  0  0  0
   -0.9383   20.2311  -24.9968 H   0  0  0  0  0  0  0  0  0  0  0  0
   -1.2572   21.0009  -27.9549 H   0  0  0  0  0  0  0  0  0  0  0  0
    0.1372   21.4179  -26.9077 H   0  0  0  0  0  0  0  0  0  0  0  0
   -0.7179   21.7249  -28.9904 H   0  0  0  0  0  0  0  0  0  0  0  0
   -6.0995   21.4622  -29.9266 H   0  0  0  0  0  0  0  0  0  0  0  0
   -6.1229   21.9125  -33.3268 H   0  0  0  0  0  0  0  0  0  0  0  0
   -6.0676   21.1420  -31.6884 H   0  0  0  0  0  0  0  0  0  0  0  0
   -6.4634   19.6120  -34.3016 H   0  0  0  0  0  0  0  0  0  0  0  0
   -4.8834   19.8192  -33.4695 H   0  0  0  0  0  0  0  0  0  0  0  0
  1  2  1  0
  2  3  1  0
  3  4  1  0
  4  5  1  0
  5  6  1  0
  6  7  2  0
  6  8  2  0
  6  9  1  0
  9 10  2  0
 10 11  1  0
 11 12  2  0
 12 13  1  0
 12 14  1  0
 14 15  1  0
 15 16  2  0
 15 17  1  0
 17 18  1  0
 18 19  2  0
 19 20  1  0
 20 21  2  0
 21 22  1  0
 22 23  1  0
 23 24  2  0
 23 25  2  0
 23 26  1  0
 26 27  1  0
 27 28  1  0
 28 29  1  0
 29 30  1  0
 30 31  1  0
 22 32  2  0
 14 33  2  0
  5 34  1  0
 34 35  1  0
 35  2  1  0
 33  9  1  0
 32 18  1  0
 31 26  1  0
  1 36  1  0
  1 37  1  0
  1 38  1  0
  2 39  1  0
  3 40  1  0
  3 41  1  0
  4 42  1  0
  4 43  1  0
 10 44  1  0
 11 45  1  0
 17 46  1  0
 19 47  1  0
 20 48  1  0
 21 49  1  0
 27 50  1  0
 27 51  1  0
 28 52  1  0
 28 53  1  0
 29 54  1  0
 29 55  1  0
 30 56  1  0
 30 57  1  0
 31 58  1  0
 31 59  1  0
 32 60  1  0
 33 61  1  0
 34 62  1  0
 34 63  1  0
 35 64  1  0
 35 65  1  0
M  CHG  1  13  -1
M  END
>  <UniqueID>  (7) 
5

>  <SMILES>  (7) 
CC1CCN(S(=O)(=O)c2ccc([O-])c(C(=O)Nc3cccc(S(=O)(=O)N4CCCCC4)c3)c2)CC1

>  <Energy>  (7) 
102.69690788718539

>  <Genealogy>  (7) 
CC1CCN(S(=O)(=O)c2ccc([O-])c(C(=O)Nc3cccc(S(=O)(=O)N4CCCCC4)c3)c2)CC1 (protonated)
CC1CCN(S(=O)(=O)c2ccc([O-])c(C(=O)Nc3cccc(S(=O)(=O)N4CCCCC4)c3)c2)CC1 (3D coordinates assigned)
CC1CCN(S(=O)(=O)c2ccc([O-])c(C(=O)Nc3cccc(S(=O)(=O)N4CCCCC4)c3)c2)CC1 (nonaromatic ring conformer: 102.69690788718539 kcal/mol)

>  <smiles>  (7) 
CC1CCN(S(=O)(=O)c2ccc(O)c(C(=O)Nc3cccc(S(=O)(=O)N4CCCCC4)c3)c2)CC1

>  <score_type>  (7) 
oracle

>  <origin>  (7) 
adgpu

>  <m_score__min__energy>  (7) 
-15.24

>  <m_primary>  (7) 
energy

$$$$
7:0
     RDKit          3D

 51 54  0  0  0  0  0  0  0  0999 V2000
   -6.7590   17.8970  -33.1110 C   0  0  0  0  0  0  0  0  0  0  0  0
   -7.2480   19.2250  -32.7510 N   0  0  0  0  0  0  0  0  0  0  0  0
   -8.4970   19.5640  -32.3470 C   0  0  0  0  0  0  0  0  0  0  0  0
   -9.4560   18.7470  -32.2960 O   0  0  0  0  0  0  0  0  0  0  0  0
   -8.6030   20.8660  -31.9890 N   0  0  0  0  0  0  0  0  0  0  0  0
   -9.7820   21.5590  -31.4820 C   0  0  0  0  0  0  0  0  0  0  0  0
   -7.3550   21.3530  -32.1370 C   0  0  0  0  0  0  0  0  0  0  0  0
   -6.8750   22.6310  -31.8460 C   0  0  0  0  0  0  0  0  0  0  0  0
   -5.5070   22.8920  -32.0620 C   0  0  0  0  0  0  0  0  0  0  0  0
   -5.0100   24.2000  -31.7490 N   0  0  0  0  0  0  0  0  0  0  0  0
   -4.7740   24.7570  -30.4470 C   0  0  0  0  0  0  0  0  0  0  0  0
   -5.3780   25.8040  -30.0850 O   0  0  0  0  0  0  0  0  0  0  0  0
   -3.8600   24.0790  -29.4980 C   0  0  0  0  0  0  0  0  0  0  0  0
   -2.8150   23.3770  -29.9530 C   0  0  0  0  0  0  0  0  0  0  0  0
   -1.9030   22.6430  -29.0190 C   0  0  0  0  0  0  0  0  0  0  0  0
   -1.7490   23.3460  -27.7360 N   0  0  0  0  0  0  0  0  0  0  0  0
   -0.8210   24.8270  -27.8770 S   0  0  0  0  0  0  0  0  0  0  0  0
   -1.4140   25.6760  -28.9650 O   0  0  0  0  0  0  0  0  0  0  0  0
    0.6120   24.5370  -28.2290 O   0  0  0  0  0  0  0  0  0  0  0  0
   -0.8780   25.7320  -26.3650 C   0  0  0  0  0  0  0  0  0  0  0  0
   -0.7980   25.0510  -25.1410 C   0  0  0  0  0  0  0  0  0  0  0  0
   -0.7700   25.7680  -23.9420 C   0  0  0  0  0  0  0  0  0  0  0  0
   -0.8210   27.1650  -23.9580 C   0  0  0  0  0  0  0  0  0  0  0  0
   -0.8990   27.8490  -25.1760 C   0  0  0  0  0  0  0  0  0  0  0  0
   -0.9240   27.1360  -26.3760 C   0  0  0  0  0  0  0  0  0  0  0  0
   -3.0590   23.5590  -27.0960 C   0  0  0  0  0  0  0  0  0  0  0  0
   -4.0960   24.2580  -28.0100 C   0  0  0  0  0  0  0  0  0  0  0  0
   -4.6550   21.8470  -32.5180 C   0  0  0  0  0  0  0  0  0  0  0  0
   -5.1720   20.5680  -32.7920 C   0  0  0  0  0  0  0  0  0  0  0  0
   -6.5350   20.3590  -32.5980 C   0  0  0  0  0  0  0  0  0  0  0  0
   -6.5479   17.3236  -32.1963 H   0  0  0  0  0  0  0  0  0  0  0  0
   -7.5232   17.3732  -33.7039 H   0  0  0  0  0  0  0  0  0  0  0  0
   -5.8376   17.9938  -33.7039 H   0  0  0  0  0  0  0  0  0  0  0  0
   -9.7676   21.5505  -30.3821 H   0  0  0  0  0  0  0  0  0  0  0  0
   -9.7787   22.5988  -31.8408 H   0  0  0  0  0  0  0  0  0  0  0  0
  -10.6889   21.0503  -31.8408 H   0  0  0  0  0  0  0  0  0  0  0  0
   -7.5456   23.4124  -31.4590 H   0  0  0  0  0  0  0  0  0  0  0  0
   -2.6221   23.3385  -31.0353 H   0  0  0  0  0  0  0  0  0  0  0  0
   -2.3193   21.6428  -28.8285 H   0  0  0  0  0  0  0  0  0  0  0  0
   -0.9122   22.5771  -29.4922 H   0  0  0  0  0  0  0  0  0  0  0  0
   -0.7573   23.9519  -25.1252 H   0  0  0  0  0  0  0  0  0  0  0  0
   -0.7077   25.2321  -22.9834 H   0  0  0  0  0  0  0  0  0  0  0  0
   -0.7998   27.7267  -23.0125 H   0  0  0  0  0  0  0  0  0  0  0  0
   -0.9406   28.9481  -25.1881 H   0  0  0  0  0  0  0  0  0  0  0  0
   -0.9799   27.6753  -27.3331 H   0  0  0  0  0  0  0  0  0  0  0  0
   -3.4630   22.5799  -26.7989 H   0  0  0  0  0  0  0  0  0  0  0  0
   -2.8907   24.2240  -26.2361 H   0  0  0  0  0  0  0  0  0  0  0  0
   -5.0903   23.8529  -27.7707 H   0  0  0  0  0  0  0  0  0  0  0  0
   -4.0053   25.3360  -27.8109 H   0  0  0  0  0  0  0  0  0  0  0  0
   -3.5814   22.0416  -32.6575 H   0  0  0  0  0  0  0  0  0  0  0  0
   -4.5195   19.7574  -33.1487 H   0  0  0  0  0  0  0  0  0  0  0  0
  1  2  1  0
  2  3  1  0
  3  4  2  0
  3  5  1  0
  5  6  1  0
  5  7  1  0
  7  8  2  0
  8  9  1  0
  9 10  1  0
 10 11  1  0
 11 12  2  0
 11 13  1  0
 13 14  2  0
 14 15  1  0
 15 16  1  0
 16 17  1  0
 17 18  2  0
 17 19  2  0
 17 20  1  0
 20 21  2  0
 21 22  1  0
 22 23  2  0
 23 24  1  0
 24 25  2  0
 16 26  1  0
 26 27  1  0
  9 28  2  0
 28 29  1  0
 29 30  2  0
 30  2  1  0
 30  7  1  0
 27 13  1  0
 25 20  1  0
  1 31  1  0
  1 32  1  0
  1 33  1  0
  6 34  1  0
  6 35  1  0
  6 36  1  0
  8 37  1  0
 14 38  1  0
 15 39  1  0
 15 40  1  0
 21 41  1  0
 22 42  1  0
 23 43  1  0
 24 44  1  0
 25 45  1  0
 26 46  1  0
 26 47  1  0
 27 48  1  0
 27 49  1  0
 28 50  1  0
 29 51  1  0
M  CHG  1  10  -1
M  END
>  <UniqueID>  (8) 
6

>  <SMILES>  (8) 
Cn1c(=O)n(C)c2cc([N-]C(=O)C3=CCN(S(=O)(=O)c4ccccc4)CC3)ccc21

>  <Energy>  (8) 
104.4371937212671

>  <Genealogy>  (8) 
Cn1c(=O)n(C)c2cc([N-]C(=O)C3=CCN(S(=O)(=O)c4ccccc4)CC3)ccc21 (protonated)
Cn1c(=O)n(C)c2cc([N-]C(=O)C3=CCN(S(=O)(=O)c4ccccc4)CC3)ccc21 (3D coordinates assigned)
Cn1c(=O)n(C)c2cc([N-]C(=O)C3=CCN(S(=O)(=O)c4ccccc4)CC3)ccc21 (nonaromatic ring conformer: 104.4371937212671 kcal/mol)

>  <smiles>  (8) 
Cn1c(=O)n(C)c2cc(NC(=O)C3=CCN(S(=O)(=O)c4ccccc4)CC3)ccc21

>  <score_type>  (8) 
oracle

>  <origin>  (8) 
adgpu

>  <m_score__min__energy>  (8) 
-11.800000000000001

>  <m_primary>  (8) 
energy

$$$$
8:0
     RDKit          3D

 69 72  0  0  0  0  0  0  0  0999 V2000
   -5.2500   25.3240  -30.7830 C   0  0  0  0  0  0  0  0  0  0  0  0
   -3.9230   24.9100  -30.4710 O   0  0  0  0  0  0  0  0  0  0  0  0
   -3.6000   23.7980  -29.6810 C   0  0  0  0  0  0  0  0  0  0  0  0
   -3.8940   23.7600  -28.3040 C   0  0  0  0  0  0  0  0  0  0  0  0
   -3.4830   22.6790  -27.5210 C   0  0  0  0  0  0  0  0  0  0  0  0
   -2.7530   21.6320  -28.0920 C   0  0  0  0  0  0  0  0  0  0  0  0
   -2.2400   20.2700  -27.0970 S   0  0  0  0  0  0  0  0  0  0  0  0
   -1.6100   20.7770  -25.8300 O   0  0  0  0  0  0  0  0  0  0  0  0
   -3.4480   19.4500  -26.7350 O   0  0  0  0  0  0  0  0  0  0  0  0
   -1.1000   19.2870  -27.9820 N   0  0  0  0  0  0  0  0  0  0  0  0
   -0.7510   18.0810  -27.1930 C   0  0  0  0  0  0  0  0  0  0  0  0
    0.5700   17.4180  -27.6440 C   0  0  0  0  0  0  0  0  0  0  0  0
    0.9240   17.7830  -29.0870 C   0  0  0  0  0  0  0  0  0  0  0  0
    1.0330   19.3060  -29.2650 C   0  0  0  0  0  0  0  0  0  0  0  0
    0.0980   20.0810  -28.3150 C   0  0  0  0  0  0  0  0  0  0  0  0
   -2.4740   21.6520  -29.4630 C   0  0  0  0  0  0  0  0  0  0  0  0
   -2.9330   22.7020  -30.2710 C   0  0  0  0  0  0  0  0  0  0  0  0
   -2.6680   22.6370  -31.6810 N   0  0  0  0  0  0  0  0  0  0  0  0
   -1.9300   21.6140  -32.3620 C   0  0  0  0  0  0  0  0  0  0  0  0
   -0.7610   21.8710  -32.7520 O   0  0  0  0  0  0  0  0  0  0  0  0
   -2.5090   20.2800  -32.6540 C   0  0  0  0  0  0  0  0  0  0  0  0
   -3.8850   20.2020  -32.9250 C   0  0  0  0  0  0  0  0  0  0  0  0
   -4.5010   18.9690  -33.1660 C   0  0  0  0  0  0  0  0  0  0  0  0
   -6.2320   18.9030  -33.5060 S   0  0  0  0  0  0  0  0  0  0  0  0
   -6.4830   19.3310  -34.9270 O   0  0  0  0  0  0  0  0  0  0  0  0
   -6.7090   17.4840  -33.3600 O   0  0  0  0  0  0  0  0  0  0  0  0
   -7.1350   19.9340  -32.4220 N   0  0  0  0  0  0  0  0  0  0  0  0
   -6.7350   21.3400  -32.6010 C   0  0  0  0  0  0  0  0  0  0  0  0
   -7.3540   22.2200  -31.4970 C   0  0  0  0  0  0  0  0  0  0  0  0
   -8.5890   21.5690  -30.8520 C   0  0  0  0  0  0  0  0  0  0  0  0
   -9.4240   20.8230  -31.8970 C   0  0  0  0  0  0  0  0  0  0  0  0
   -8.5840   19.7710  -32.6570 C   0  0  0  0  0  0  0  0  0  0  0  0
   -3.7360   17.7990  -33.1460 C   0  0  0  0  0  0  0  0  0  0  0  0
   -2.3620   17.8610  -32.9110 C   0  0  0  0  0  0  0  0  0  0  0  0
   -1.7280   19.0960  -32.6910 C   0  0  0  0  0  0  0  0  0  0  0  0
   -0.2320   19.1140  -32.5110 C   0  0  0  0  0  0  0  0  0  0  0  0
   -5.8083   25.4982  -29.8514 H   0  0  0  0  0  0  0  0  0  0  0  0
   -5.2156   26.2541  -31.3693 H   0  0  0  0  0  0  0  0  0  0  0  0
   -5.7506   24.5393  -31.3693 H   0  0  0  0  0  0  0  0  0  0  0  0
   -4.4515   24.5880  -27.8418 H   0  0  0  0  0  0  0  0  0  0  0  0
   -3.7346   22.6511  -26.4505 H   0  0  0  0  0  0  0  0  0  0  0  0
   -1.5730   18.9940  -28.8700 H   0  0  0  0  0  0  0  0  0  0  0  0
   -0.6534   18.3710  -26.1364 H   0  0  0  0  0  0  0  0  0  0  0  0
   -1.5545   17.3459  -27.3480 H   0  0  0  0  0  0  0  0  0  0  0  0
    1.3816   17.7544  -26.9821 H   0  0  0  0  0  0  0  0  0  0  0  0
    0.4418   16.3269  -27.5884 H   0  0  0  0  0  0  0  0  0  0  0  0
    1.8879   17.3215  -29.3476 H   0  0  0  0  0  0  0  0  0  0  0  0
    0.1252   17.4118  -29.7459 H   0  0  0  0  0  0  0  0  0  0  0  0
    2.0707   19.6110  -29.0647 H   0  0  0  0  0  0  0  0  0  0  0  0
    0.7328   19.5439  -30.2962 H   0  0  0  0  0  0  0  0  0  0  0  0
    0.6421   20.3157  -27.3883 H   0  0  0  0  0  0  0  0  0  0  0  0
   -0.2244   21.0039  -28.8192 H   0  0  0  0  0  0  0  0  0  0  0  0
   -1.8887   20.8357  -29.9114 H   0  0  0  0  0  0  0  0  0  0  0  0
   -4.4865   21.1227  -32.9481 H   0  0  0  0  0  0  0  0  0  0  0  0
   -5.6386   21.4140  -32.5512 H   0  0  0  0  0  0  0  0  0  0  0  0
   -7.0937   21.6910  -33.5799 H   0  0  0  0  0  0  0  0  0  0  0  0
   -6.5977   22.3924  -30.7171 H   0  0  0  0  0  0  0  0  0  0  0  0
   -7.6763   23.1636  -31.9615 H   0  0  0  0  0  0  0  0  0  0  0  0
   -8.2592   20.8578  -30.0804 H   0  0  0  0  0  0  0  0  0  0  0  0
   -9.2100   22.3600  -30.4063 H   0  0  0  0  0  0  0  0  0  0  0  0
  -10.2576   20.3148  -31.3902 H   0  0  0  0  0  0  0  0  0  0  0  0
   -9.7947   21.5576  -32.6271 H   0  0  0  0  0  0  0  0  0  0  0  0
   -8.8860   18.7678  -32.3217 H   0  0  0  0  0  0  0  0  0  0  0  0
   -8.7677   19.9074  -33.7330 H   0  0  0  0  0  0  0  0  0  0  0  0
   -4.2192   16.8256  -33.3162 H   0  0  0  0  0  0  0  0  0  0  0  0
   -1.7693   16.9344  -32.8978 H   0  0  0  0  0  0  0  0  0  0  0  0
    0.0081   19.1169  -31.4375 H   0  0  0  0  0  0  0  0  0  0  0  0
    0.2048   18.2210  -32.9820 H   0  0  0  0  0  0  0  0  0  0  0  0
    0.1831   20.0172  -32.9820 H   0  0  0  0  0  0  0  0  0  0  0  0
  1  2  1  0
  2  3  1  0
  3  4  2  0
  4  5  1  0
  5  6  2  0
  6  7  1  0
  7  8  2  0
  7  9  2  0
  7 10  1  0
 10 11  1  0
 11 12  1  0
 12 13  1  0
 13 14  1  0
 14 15  1  0
  6 16  1  0
 16 17  2  0
 17 18  1  0
 18 19  1  0
 19 20  2  0
 19 21  1  0
 21 22  2  0
 22 23  1  0
 23 24  1  0
 24 25  2  0
 24 26  2  0
 24 27  1  0
 27 28  1  0
 28 29  1  0
 29 30  1  0
 30 31  1  0
 31 32  1  0
 23 33  2  0
 33 34  1  0
 34 35  2  0
 35 36  1  0
 17  3  1  0
 35 21  1  0
 15 10  1  0
 32 27  1  0
  1 37  1  0
  1 38  1  0
  1 39  1  0
  4 40  1  0
  5 41  1  0
 10 42  1  0
 11 43  1  0
 11 44  1  0
 12 45  1  0
 12 46  1  0
 13 47  1  0
 13 48  1  0
 14 49  1  0
 14 50  1  0
 15 51  1  0
 15 52  1  0
 16 53  1  0
 22 54  1  0
 28 55  1  0
 28 56  1  0
 29 57  1  0
 29 58  1  0
 30 59  1  0
 30 60  1  0
 31 61  1  0
 31 62  1  0
 32 63  1  0
 32 64  1  0
 33 65  1  0
 34 66  1  0
 36 67  1  0
 36 68  1  0
 36 69  1  0
M  CHG  2  10   1  18  -1
M  END
>  <UniqueID>  (9) 
7

>  <SMILES>  (9) 
COc1ccc(S(=O)(=O)[NH+]2CCCCC2)cc1[N-]C(=O)c1cc(S(=O)(=O)N2CCCCC2)ccc1C

>  <Energy>  (9) 
84.370986117619

>  <Genealogy>  (9) 
COc1ccc(S(=O)(=O)[NH+]2CCCCC2)cc1[N-]C(=O)c1cc(S(=O)(=O)N2CCCCC2)ccc1C (protonated)
COc1ccc(S(=O)(=O)[NH+]2CCCCC2)cc1[N-]C(=O)c1cc(S(=O)(=O)N2CCCCC2)ccc1C (3D coordinates assigned)
COc1ccc(S(=O)(=O)[NH+]2CCCCC2)cc1[N-]C(=O)c1cc(S(=O)(=O)N2CCCCC2)ccc1C (nonaromatic ring conformer: 84.370986117619 kcal/mol)

>  <smiles>  (9) 
COc1ccc(S(=O)(=O)N2CCCCC2)cc1NC(=O)c1cc(S(=O)(=O)N2CCCCC2)ccc1C

>  <score_type>  (9) 
oracle

>  <origin>  (9) 
adgpu

>  <m_score__min__energy>  (9) 
-11.75

>  <m_primary>  (9) 
energy

$$$$
9:0
     RDKit          3D

 34 35  0  0  0  0  0  0  0  0999 V2000
   -3.8950   25.3750  -30.6770 N   0  0  0  0  0  0  0  0  0  0  0  0
   -3.6590   23.9690  -30.6150 C   0  0  0  0  0  0  0  0  0  0  0  0
   -4.4690   23.1910  -31.1870 O   0  0  0  0  0  0  0  0  0  0  0  0
   -2.4760   23.4350  -29.8880 C   0  0  0  0  0  0  0  0  0  0  0  0
   -2.2820   22.0420  -29.8010 C   0  0  0  0  0  0  0  0  0  0  0  0
   -1.1750   21.5080  -29.1220 C   0  0  0  0  0  0  0  0  0  0  0  0
   -1.0000   20.0110  -29.0150 C   0  0  0  0  0  0  0  0  0  0  0  0
    0.1490   19.5290  -29.7970 N   0  0  0  0  0  0  0  0  0  0  0  0
   -0.2590   18.5870  -30.8460 C   0  0  0  0  0  0  0  0  0  0  0  0
   -0.7790   19.3520  -32.0350 C   0  0  0  0  0  0  0  0  0  0  0  0
   -2.1160   19.1980  -32.4360 C   0  0  0  0  0  0  0  0  0  0  0  0
   -2.6180   19.9250  -33.5180 C   0  0  0  0  0  0  0  0  0  0  0  0
   -1.7940   20.8200  -34.2030 C   0  0  0  0  0  0  0  0  0  0  0  0
   -0.4620   20.9970  -33.8030 C   0  0  0  0  0  0  0  0  0  0  0  0
    0.3620   21.8970  -34.4780 O   0  0  0  0  0  0  0  0  0  0  0  0
    0.0440   20.2700  -32.7170 C   0  0  0  0  0  0  0  0  0  0  0  0
    1.3640   20.4630  -32.3200 O   0  0  0  0  0  0  0  0  0  0  0  0
   -0.2550   22.3730  -28.5160 C   0  0  0  0  0  0  0  0  0  0  0  0
   -0.4340   23.7540  -28.5940 C   0  0  0  0  0  0  0  0  0  0  0  0
   -1.5320   24.2900  -29.2730 C   0  0  0  0  0  0  0  0  0  0  0  0
   -1.6700   25.6730  -29.3260 O   0  0  0  0  0  0  0  0  0  0  0  0
   -3.8640   25.9640  -29.8150 H   0  0  0  0  0  0  0  0  0  0  0  0
   -3.0083   21.3631  -30.2718 H   0  0  0  0  0  0  0  0  0  0  0  0
   -0.8453   19.7470  -27.9584 H   0  0  0  0  0  0  0  0  0  0  0  0
   -1.9063   19.5352  -29.4178 H   0  0  0  0  0  0  0  0  0  0  0  0
    0.6300   20.3460  -30.2430 H   0  0  0  0  0  0  0  0  0  0  0  0
    0.6066   17.9803  -31.1506 H   0  0  0  0  0  0  0  0  0  0  0  0
   -1.0509   17.9288  -30.4592 H   0  0  0  0  0  0  0  0  0  0  0  0
   -2.7721   18.5005  -31.8947 H   0  0  0  0  0  0  0  0  0  0  0  0
   -3.6642   19.7921  -33.8308 H   0  0  0  0  0  0  0  0  0  0  0  0
   -2.1905   21.3872  -35.0580 H   0  0  0  0  0  0  0  0  0  0  0  0
    1.3350   22.0180  -34.2220 H   0  0  0  0  0  0  0  0  0  0  0  0
    0.6113   21.9619  -27.9770 H   0  0  0  0  0  0  0  0  0  0  0  0
    0.2945   24.4265  -28.1175 H   0  0  0  0  0  0  0  0  0  0  0  0
  1  2  1  0
  2  3  2  0
  2  4  1  0
  4  5  2  0
  5  6  1  0
  6  7  1  0
  7  8  1  0
  8  9  1  0
  9 10  1  0
 10 11  2  0
 11 12  1  0
 12 13  2  0
 13 14  1  0
 14 15  1  0
 14 16  2  0
 16 17  1  0
  6 18  2  0
 18 19  1  0
 19 20  2  0
 20 21  1  0
 20  4  1  0
 16 10  1  0
  1 22  1  0
  5 23  1  0
  7 24  1  0
  7 25  1  0
  8 26  1  0
  9 27  1  0
  9 28  1  0
 11 29  1  0
 12 30  1  0
 13 31  1  0
 15 32  1  0
 18 33  1  0
 19 34  1  0
M  CHG  3   1  -1  17  -1  21  -1
M  END
>  <UniqueID>  (10) 
8

>  <SMILES>  (10) 
[NH-]C(=O)c1cc(CNCc2cccc(O)c2[O-])ccc1[O-]

>  <Energy>  (10) 
36.07163452691325

>  <Genealogy>  (10) 
[NH-]C(=O)c1cc(CNCc2cccc(O)c2[O-])ccc1[O-] (protonated)
[NH-]C(=O)c1cc(CNCc2cccc(O)c2[O-])ccc1[O-] (3D coordinates assigned)
[NH-]C(=O)c1cc(CNCc2cccc(O)c2[O-])ccc1[O-] (optimized conformer: 36.07163452691325 kcal/mol)

>  <smiles>  (10) 
NC(=O)c1cc(CNCc2cccc(O)c2O)ccc1O

>  <score_type>  (10) 
oracle

>  <origin>  (10) 
adgpu

>  <m_score__min__energy>  (10) 
-11.140000000000001

>  <m_primary>  (10) 
energy

$$$$
10:0
     RDKit          3D

 60 63  0  0  0  0  0  0  0  0999 V2000
    0.6210   20.7770  -28.5170 O   0  0  0  0  0  0  0  0  0  0  0  0
   -0.3720   21.3790  -28.0250 C   0  0  0  0  0  0  0  0  0  0  0  0
   -0.4390   21.6250  -26.6130 N   0  0  0  0  0  0  0  0  0  0  0  0
   -0.3490   22.8980  -25.9540 C   0  0  0  0  0  0  0  0  0  0  0  0
    0.7080   23.2190  -25.0830 C   0  0  0  0  0  0  0  0  0  0  0  0
    0.7680   24.4810  -24.4850 C   0  0  0  0  0  0  0  0  0  0  0  0
   -0.2110   25.4410  -24.7590 C   0  0  0  0  0  0  0  0  0  0  0  0
   -0.1100   27.0320  -24.0090 S   0  0  0  0  0  0  0  0  0  0  0  0
   -1.2490   27.1760  -23.0370 O   0  0  0  0  0  0  0  0  0  0  0  0
   -0.2330   28.1050  -25.0560 O   0  0  0  0  0  0  0  0  0  0  0  0
    1.4120   27.1970  -23.1680 N   0  0  0  0  0  0  0  0  0  0  0  0
    1.4590   28.5010  -22.4620 C   0  0  0  0  0  0  0  0  0  0  0  0
    2.8920   28.9340  -22.0750 C   0  0  0  0  0  0  0  0  0  0  0  0
    3.8540   27.7450  -22.0320 C   0  0  0  0  0  0  0  0  0  0  0  0
    3.8880   27.0110  -23.3830 C   0  0  0  0  0  0  0  0  0  0  0  0
    2.5310   27.0540  -24.1190 C   0  0  0  0  0  0  0  0  0  0  0  0
   -1.2510   25.1330  -25.6460 C   0  0  0  0  0  0  0  0  0  0  0  0
   -1.3150   23.8700  -26.2430 C   0  0  0  0  0  0  0  0  0  0  0  0
   -1.4970   21.7830  -28.9010 C   0  0  0  0  0  0  0  0  0  0  0  0
   -1.7160   23.1380  -29.2090 C   0  0  0  0  0  0  0  0  0  0  0  0
   -2.7780   23.5160  -30.0340 C   0  0  0  0  0  0  0  0  0  0  0  0
   -3.6390   22.5490  -30.5680 C   0  0  0  0  0  0  0  0  0  0  0  0
   -4.9840   23.0300  -31.6070 S   0  0  0  0  0  0  0  0  0  0  0  0
   -4.6610   22.6720  -33.0320 O   0  0  0  0  0  0  0  0  0  0  0  0
   -5.1580   24.5200  -31.5300 O   0  0  0  0  0  0  0  0  0  0  0  0
   -6.4780   22.2530  -31.1340 N   0  0  0  0  0  0  0  0  0  0  0  0
   -7.6340   23.0310  -31.6130 C   0  0  0  0  0  0  0  0  0  0  0  0
   -8.9070   22.1680  -31.6030 C   0  0  0  0  0  0  0  0  0  0  0  0
   -8.8270   20.9910  -32.4000 O   0  0  0  0  0  0  0  0  0  0  0  0
   -7.4990   20.5990  -32.7150 C   0  0  0  0  0  0  0  0  0  0  0  0
   -6.5160   20.8340  -31.5550 C   0  0  0  0  0  0  0  0  0  0  0  0
   -3.4190   21.1960  -30.2740 C   0  0  0  0  0  0  0  0  0  0  0  0
   -2.3610   20.8160  -29.4440 C   0  0  0  0  0  0  0  0  0  0  0  0
    1.4898   22.4745  -24.8719 H   0  0  0  0  0  0  0  0  0  0  0  0
    1.5903   24.7203  -23.7947 H   0  0  0  0  0  0  0  0  0  0  0  0
    1.4600   26.4220  -22.4650 H   0  0  0  0  0  0  0  0  0  0  0  0
    1.0272   29.2700  -23.1194 H   0  0  0  0  0  0  0  0  0  0  0  0
    0.8889   28.3873  -21.5281 H   0  0  0  0  0  0  0  0  0  0  0  0
    3.2567   29.6602  -22.8164 H   0  0  0  0  0  0  0  0  0  0  0  0
    2.8544   29.3793  -21.0698 H   0  0  0  0  0  0  0  0  0  0  0  0
    4.8647   28.1090  -21.7954 H   0  0  0  0  0  0  0  0  0  0  0  0
    3.5060   27.0418  -21.2611 H   0  0  0  0  0  0  0  0  0  0  0  0
    4.6495   27.4833  -24.0210 H   0  0  0  0  0  0  0  0  0  0  0  0
    4.1235   25.9555  -23.1818 H   0  0  0  0  0  0  0  0  0  0  0  0
    2.5252   27.9091  -24.8110 H   0  0  0  0  0  0  0  0  0  0  0  0
    2.4027   26.1095  -24.6681 H   0  0  0  0  0  0  0  0  0  0  0  0
   -2.0192   25.8867  -25.8734 H   0  0  0  0  0  0  0  0  0  0  0  0
   -2.1299   23.6383  -26.9446 H   0  0  0  0  0  0  0  0  0  0  0  0
   -1.0454   23.9063  -28.7968 H   0  0  0  0  0  0  0  0  0  0  0  0
   -2.9390   24.5792  -30.2656 H   0  0  0  0  0  0  0  0  0  0  0  0
   -7.7816   23.9011  -30.9564 H   0  0  0  0  0  0  0  0  0  0  0  0
   -7.4372   23.3619  -32.6434 H   0  0  0  0  0  0  0  0  0  0  0  0
   -9.1102   21.8670  -30.5647 H   0  0  0  0  0  0  0  0  0  0  0  0
   -9.7079   22.7857  -32.0356 H   0  0  0  0  0  0  0  0  0  0  0  0
   -7.4987   19.5276  -32.9641 H   0  0  0  0  0  0  0  0  0  0  0  0
   -7.1643   21.2155  -33.5623 H   0  0  0  0  0  0  0  0  0  0  0  0
   -6.8257   20.2182  -30.6978 H   0  0  0  0  0  0  0  0  0  0  0  0
   -5.5098   20.5576  -31.9032 H   0  0  0  0  0  0  0  0  0  0  0  0
   -4.0831   20.4291  -30.6992 H   0  0  0  0  0  0  0  0  0  0  0  0
   -2.2030   19.7520  -29.2137 H   0  0  0  0  0  0  0  0  0  0  0  0
  1  2  2  0
  2  3  1  0
  3  4  1  0
  4  5  2  0
  5  6  1  0
  6  7  2  0
  7  8  1  0
  8  9  2  0
  8 10  2  0
  8 11  1  0
 11 12  1  0
 12 13  1  0
 13 14  1  0
 14 15  1  0
 15 16  1  0
  7 17  1  0
 17 18  2  0
  2 19  1  0
 19 20  2  0
 20 21  1  0
 21 22  2  0
 22 23  1  0
 23 24  2  0
 23 25  2  0
 23 26  1  0
 26 27  1  0
 27 28  1  0
 28 29  1  0
 29 30  1  0
 30 31  1  0
 22 32  1  0
 32 33  2  0
 18  4  1  0
 33 19  1  0
 16 11  1  0
 31 26  1  0
  5 34  1  0
  6 35  1  0
 11 36  1  0
 12 37  1  0
 12 38  1  0
 13 39  1  0
 13 40  1  0
 14 41  1  0
 14 42  1  0
 15 43  1  0
 15 44  1  0
 16 45  1  0
 16 46  1  0
 17 47  1  0
 18 48  1  0
 20 49  1  0
 21 50  1  0
 27 51  1  0
 27 52  1  0
 28 53  1  0
 28 54  1  0
 30 55  1  0
 30 56  1  0
 31 57  1  0
 31 58  1  0
 32 59  1  0
 33 60  1  0
M  CHG  2   3  -1  11   1
M  END
>  <UniqueID>  (11) 
9

>  <SMILES>  (11) 
O=C([N-]c1ccc(S(=O)(=O)[NH+]2CCCCC2)cc1)c1ccc(S(=O)(=O)N2CCOCC2)cc1

>  <Energy>  (11) 
81.30982415776721

>  <Genealogy>  (11) 
O=C([N-]c1ccc(S(=O)(=O)[NH+]2CCCCC2)cc1)c1ccc(S(=O)(=O)N2CCOCC2)cc1 (protonated)
O=C([N-]c1ccc(S(=O)(=O)[NH+]2CCCCC2)cc1)c1ccc(S(=O)(=O)N2CCOCC2)cc1 (3D coordinates assigned)
O=C([N-]c1ccc(S(=O)(=O)[NH+]2CCCCC2)cc1)c1ccc(S(=O)(=O)N2CCOCC2)cc1 (nonaromatic ring conformer: 81.30982415776721 kcal/mol)

>  <smiles>  (11) 
O=C(Nc1ccc(S(=O)(=O)N2CCCCC2)cc1)c1ccc(S(=O)(=O)N2CCOCC2)cc1

>  <score_type>  (11) 
oracle

>  <origin>  (11) 
adgpu

>  <m_score__min__energy>  (11) 
-13.1

>  <m_primary>  (11) 
energy

$$$$
11:0
     RDKit          3D

 54 57  0  0  0  0  0  0  0  0999 V2000
   -6.0010   24.8500  -31.6130 O   0  0  0  0  0  0  0  0  0  0  0  0
   -5.1740   24.0150  -31.1630 C   0  0  0  0  0  0  0  0  0  0  0  0
   -3.8930   24.4840  -30.7270 N   0  0  0  0  0  0  0  0  0  0  0  0
   -3.4480   24.5260  -29.3650 C   0  0  0  0  0  0  0  0  0  0  0  0
   -4.4000   24.5370  -28.3390 C   0  0  0  0  0  0  0  0  0  0  0  0
   -3.9920   24.5470  -27.0030 C   0  0  0  0  0  0  0  0  0  0  0  0
   -2.6330   24.5250  -26.6830 C   0  0  0  0  0  0  0  0  0  0  0  0
   -1.6690   24.4870  -27.7010 C   0  0  0  0  0  0  0  0  0  0  0  0
    0.0490   24.4270  -27.2950 S   0  0  0  0  0  0  0  0  0  0  0  0
    0.8580   24.5340  -28.5580 O   0  0  0  0  0  0  0  0  0  0  0  0
    0.3600   23.1020  -26.6550 O   0  0  0  0  0  0  0  0  0  0  0  0
    0.5000   25.7080  -26.1940 N   0  0  0  0  0  0  0  0  0  0  0  0
    0.5160   25.2380  -24.7860 C   0  0  0  0  0  0  0  0  0  0  0  0
   -0.7250   25.6800  -23.9940 C   0  0  0  0  0  0  0  0  0  0  0  0
   -0.8630   27.2120  -23.9840 C   0  0  0  0  0  0  0  0  0  0  0  0
   -0.2710   27.8710  -25.2420 C   0  0  0  0  0  0  0  0  0  0  0  0
   -0.3240   26.9130  -26.4350 C   0  0  0  0  0  0  0  0  0  0  0  0
   -2.0800   24.4810  -29.0420 C   0  0  0  0  0  0  0  0  0  0  0  0
   -5.4960   22.6130  -31.1110 N   0  0  0  0  0  0  0  0  0  0  0  0
   -6.7580   22.0460  -31.5070 C   0  0  0  0  0  0  0  0  0  0  0  0
   -7.9360   22.8130  -31.5590 C   0  0  0  0  0  0  0  0  0  0  0  0
   -9.1430   22.2270  -31.9510 C   0  0  0  0  0  0  0  0  0  0  0  0
   -9.1840   20.8800  -32.3190 C   0  0  0  0  0  0  0  0  0  0  0  0
   -8.0090   20.1140  -32.3190 C   0  0  0  0  0  0  0  0  0  0  0  0
   -8.0450   18.6590  -32.6900 C   0  0  0  0  0  0  0  0  0  0  0  0
   -6.7460   18.2480  -33.2100 N   0  0  0  0  0  0  0  0  0  0  0  0
   -5.8650   17.4270  -32.6170 C   0  0  0  0  0  0  0  0  0  0  0  0
   -4.7320   17.3300  -33.3390 N   0  0  0  0  0  0  0  0  0  0  0  0
   -4.9830   18.1450  -34.3880 C   0  0  0  0  0  0  0  0  0  0  0  0
   -6.2010   18.7160  -34.3170 N   0  0  0  0  0  0  0  0  0  0  0  0
   -6.8030   20.7030  -31.9090 C   0  0  0  0  0  0  0  0  0  0  0  0
   -5.4721   24.5378  -28.5853 H   0  0  0  0  0  0  0  0  0  0  0  0
   -4.7438   24.5723  -26.2004 H   0  0  0  0  0  0  0  0  0  0  0  0
   -2.3175   24.5375  -25.6293 H   0  0  0  0  0  0  0  0  0  0  0  0
    0.5611   24.1389  -24.7833 H   0  0  0  0  0  0  0  0  0  0  0  0
    1.3951   25.6848  -24.2987 H   0  0  0  0  0  0  0  0  0  0  0  0
   -1.6212   25.2422  -24.4579 H   0  0  0  0  0  0  0  0  0  0  0  0
   -0.6167   25.3336  -22.9556 H   0  0  0  0  0  0  0  0  0  0  0  0
   -1.9309   27.4685  -23.9220 H   0  0  0  0  0  0  0  0  0  0  0  0
   -0.3022   27.5899  -23.1164 H   0  0  0  0  0  0  0  0  0  0  0  0
   -0.8488   28.7761  -25.4806 H   0  0  0  0  0  0  0  0  0  0  0  0
    0.7799   28.1282  -25.0434 H   0  0  0  0  0  0  0  0  0  0  0  0
   -1.3671   26.6062  -26.6021 H   0  0  0  0  0  0  0  0  0  0  0  0
    0.0743   27.4351  -27.3174 H   0  0  0  0  0  0  0  0  0  0  0  0
   -1.3289   24.4409  -29.8447 H   0  0  0  0  0  0  0  0  0  0  0  0
   -4.7990   21.9670  -30.6810 H   0  0  0  0  0  0  0  0  0  0  0  0
   -7.9072   23.8792  -31.2899 H   0  0  0  0  0  0  0  0  0  0  0  0
  -10.0637   22.8286  -31.9698 H   0  0  0  0  0  0  0  0  0  0  0  0
  -10.1397   20.4191  -32.6094 H   0  0  0  0  0  0  0  0  0  0  0  0
   -8.2872   18.0611  -31.7990 H   0  0  0  0  0  0  0  0  0  0  0  0
   -8.8115   18.5008  -33.4630 H   0  0  0  0  0  0  0  0  0  0  0  0
   -6.0446   16.9026  -31.6668 H   0  0  0  0  0  0  0  0  0  0  0  0
   -4.2718   18.3222  -35.2082 H   0  0  0  0  0  0  0  0  0  0  0  0
   -5.8808   20.1035  -31.9028 H   0  0  0  0  0  0  0  0  0  0  0  0
  1  2  2  0
  2  3  1  0
  3  4  1  0
  4  5  2  0
  5  6  1  0
  6  7  2  0
  7  8  1  0
  8  9  1  0
  9 10  2  0
  9 11  2  0
  9 12  1  0
 12 13  1  0
 13 14  1  0
 14 15  1  0
 15 16  1  0
 16 17  1  0
  8 18  2  0
  2 19  1  0
 19 20  1  0
 20 21  2  0
 21 22  1  0
 22 23  2  0
 23 24  1  0
 24 25  1  0
 25 26  1  0
 26 27  1  0
 27 28  2  0
 28 29  1  0
 29 30  2  0
 24 31  2  0
 18  4  1  0
 31 20  1  0
 17 12  1  0
 30 26  1  0
  5 32  1  0
  6 33  1  0
  7 34  1  0
 13 35  1  0
 13 36  1  0
 14 37  1  0
 14 38  1  0
 15 39  1  0
 15 40  1  0
 16 41  1  0
 16 42  1  0
 17 43  1  0
 17 44  1  0
 18 45  1  0
 19 46  1  0
 21 47  1  0
 22 48  1  0
 23 49  1  0
 25 50  1  0
 25 51  1  0
 27 52  1  0
 29 53  1  0
 31 54  1  0
M  CHG  1   3  -1
M  END
>  <UniqueID>  (12) 
10

>  <SMILES>  (12) 
O=C([N-]c1cccc(S(=O)(=O)N2CCCCC2)c1)Nc1cccc(Cn2cncn2)c1

>  <Energy>  (12) 
97.19372663394789

>  <Genealogy>  (12) 
O=C([N-]c1cccc(S(=O)(=O)N2CCCCC2)c1)Nc1cccc(Cn2cncn2)c1 (protonated)
O=C([N-]c1cccc(S(=O)(=O)N2CCCCC2)c1)Nc1cccc(Cn2cncn2)c1 (3D coordinates assigned)
O=C([N-]c1cccc(S(=O)(=O)N2CCCCC2)c1)Nc1cccc(Cn2cncn2)c1 (nonaromatic ring conformer: 97.19372663394789 kcal/mol)

>  <smiles>  (12) 
O=C(Nc1cccc(Cn2cncn2)c1)Nc1cccc(S(=O)(=O)N2CCCCC2)c1

>  <score_type>  (12) 
oracle

>  <origin>  (12) 
adgpu

>  <m_score__min__energy>  (12) 
-11.15

>  <m_primary>  (12) 
energy

$$$$
12:0
     RDKit          3D

 54 57  0  0  0  0  0  0  0  0999 V2000
   -0.4380   22.6770  -23.7890 N   0  0  0  0  0  0  0  0  0  0  0  0
    0.1830   23.4340  -24.8320 C   0  0  0  0  0  0  0  0  0  0  0  0
    1.1860   24.3910  -24.4760 N   0  0  0  0  0  0  0  0  0  0  0  0
   -0.1310   23.2730  -26.0900 N   0  0  0  0  0  0  0  0  0  0  0  0
   -1.2610   22.1090  -26.7210 S   0  0  0  0  0  0  0  0  0  0  0  0
   -2.6500   22.6880  -26.7860 O   0  0  0  0  0  0  0  0  0  0  0  0
   -1.2880   20.9440  -25.7680 O   0  0  0  0  0  0  0  0  0  0  0  0
   -0.7560   21.5280  -28.3130 C   0  0  0  0  0  0  0  0  0  0  0  0
   -0.7080   22.3940  -29.4130 C   0  0  0  0  0  0  0  0  0  0  0  0
   -0.3310   21.9190  -30.6710 C   0  0  0  0  0  0  0  0  0  0  0  0
    0.0200   20.5720  -30.8490 C   0  0  0  0  0  0  0  0  0  0  0  0
    0.4120   20.1100  -32.1550 N   0  0  0  0  0  0  0  0  0  0  0  0
   -0.4640   20.4990  -33.6030 S   0  0  0  0  0  0  0  0  0  0  0  0
   -0.1170   21.8970  -34.0340 O   0  0  0  0  0  0  0  0  0  0  0  0
   -0.0740   19.5420  -34.6950 O   0  0  0  0  0  0  0  0  0  0  0  0
   -2.1920   20.3380  -33.3000 C   0  0  0  0  0  0  0  0  0  0  0  0
   -2.9440   19.4220  -34.0490 C   0  0  0  0  0  0  0  0  0  0  0  0
   -4.3070   19.2520  -33.7910 C   0  0  0  0  0  0  0  0  0  0  0  0
   -4.9310   19.9970  -32.7790 C   0  0  0  0  0  0  0  0  0  0  0  0
   -6.3620   19.7890  -32.4760 C   0  0  0  0  0  0  0  0  0  0  0  0
   -6.8270   18.4690  -32.3500 C   0  0  0  0  0  0  0  0  0  0  0  0
   -8.1700   18.2090  -32.0880 C   0  0  0  0  0  0  0  0  0  0  0  0
   -9.0720   19.2620  -31.9400 C   0  0  0  0  0  0  0  0  0  0  0  0
   -8.6360   20.5900  -32.0490 C   0  0  0  0  0  0  0  0  0  0  0  0
   -9.5460   21.6460  -31.8830 C   0  0  0  0  0  0  0  0  0  0  0  0
   -9.1120   22.9690  -31.9670 C   0  0  0  0  0  0  0  0  0  0  0  0
   -7.7680   23.2480  -32.2170 C   0  0  0  0  0  0  0  0  0  0  0  0
   -6.8500   22.2100  -32.3900 C   0  0  0  0  0  0  0  0  0  0  0  0
   -7.2690   20.8670  -32.3160 C   0  0  0  0  0  0  0  0  0  0  0  0
   -4.1770   20.9170  -32.0300 C   0  0  0  0  0  0  0  0  0  0  0  0
   -2.8150   21.0910  -32.2930 C   0  0  0  0  0  0  0  0  0  0  0  0
   -0.0260   19.7050  -29.7430 C   0  0  0  0  0  0  0  0  0  0  0  0
   -0.4100   20.1810  -28.4870 C   0  0  0  0  0  0  0  0  0  0  0  0
   -1.2900   22.0940  -23.9330 H   0  0  0  0  0  0  0  0  0  0  0  0
   -0.0720   22.7490  -22.8150 H   0  0  0  0  0  0  0  0  0  0  0  0
    1.4200   24.5650  -23.4740 H   0  0  0  0  0  0  0  0  0  0  0  0
    1.6970   24.9330  -25.2090 H   0  0  0  0  0  0  0  0  0  0  0  0
    0.3490   23.8630  -26.8050 H   0  0  0  0  0  0  0  0  0  0  0  0
   -0.9689   23.4549  -29.2851 H   0  0  0  0  0  0  0  0  0  0  0  0
   -0.3090   22.6064  -31.5295 H   0  0  0  0  0  0  0  0  0  0  0  0
    1.1690   19.3940  -32.2360 H   0  0  0  0  0  0  0  0  0  0  0  0
   -2.4593   18.8348  -34.8429 H   0  0  0  0  0  0  0  0  0  0  0  0
   -4.8919   18.5325  -34.3827 H   0  0  0  0  0  0  0  0  0  0  0  0
   -6.1223   17.6315  -32.4595 H   0  0  0  0  0  0  0  0  0  0  0  0
   -8.5201   17.1701  -31.9976 H   0  0  0  0  0  0  0  0  0  0  0  0
  -10.1319   19.0495  -31.7365 H   0  0  0  0  0  0  0  0  0  0  0  0
  -10.6062   21.4291  -31.6858 H   0  0  0  0  0  0  0  0  0  0  0  0
   -9.8295   23.7925  -31.8361 H   0  0  0  0  0  0  0  0  0  0  0  0
   -7.4292   24.2927  -32.2782 H   0  0  0  0  0  0  0  0  0  0  0  0
   -5.7928   22.4425  -32.5853 H   0  0  0  0  0  0  0  0  0  0  0  0
   -4.6605   21.5023  -31.2339 H   0  0  0  0  0  0  0  0  0  0  0  0
   -2.2313   21.8187  -31.7101 H   0  0  0  0  0  0  0  0  0  0  0  0
    0.2420   18.6454  -29.8675 H   0  0  0  0  0  0  0  0  0  0  0  0
   -0.4410   19.4938  -27.6286 H   0  0  0  0  0  0  0  0  0  0  0  0
  1  2  1  0
  2  3  1  0
  2  4  2  3
  4  5  1  0
  5  6  2  0
  5  7  2  0
  5  8  1  0
  8  9  2  0
  9 10  1  0
 10 11  2  0
 11 12  1  0
 12 13  1  0
 13 14  2  0
 13 15  2  0
 13 16  1  0
 16 17  2  0
 17 18  1  0
 18 19  2  0
 19 20  1  0
 20 21  2  0
 21 22  1  0
 22 23  2  0
 23 24  1  0
 24 25  2  0
 25 26  1  0
 26 27  2  0
 27 28  1  0
 28 29  2  0
 19 30  1  0
 30 31  2  0
 11 32  1  0
 32 33  2  0
 33  8  1  0
 31 16  1  0
 29 20  1  0
 29 24  1  0
  1 34  1  0
  1 35  1  0
  3 36  1  0
  3 37  1  0
  4 38  1  0
  9 39  1  0
 10 40  1  0
 12 41  1  0
 17 42  1  0
 18 43  1  0
 21 44  1  0
 22 45  1  0
 23 46  1  0
 25 47  1  0
 26 48  1  0
 27 49  1  0
 28 50  1  0
 30 51  1  0
 31 52  1  0
 32 53  1  0
 33 54  1  0
M  CHG  1   4   1
M  END
>  <UniqueID>  (13) 
11

>  <SMILES>  (13) 
NC(N)=[NH+]S(=O)(=O)c1ccc(NS(=O)(=O)c2ccc(-c3cccc4ccccc34)cc2)cc1

>  <Energy>  (13) 
76.69022601387107

>  <Genealogy>  (13) 
NC(N)=[NH+]S(=O)(=O)c1ccc(NS(=O)(=O)c2ccc(-c3cccc4ccccc34)cc2)cc1 (protonated)
NC(N)=[NH+]S(=O)(=O)c1ccc(NS(=O)(=O)c2ccc(-c3cccc4ccccc34)cc2)cc1 (3D coordinates assigned)
NC(N)=[NH+]S(=O)(=O)c1ccc(NS(=O)(=O)c2ccc(-c3cccc4ccccc34)cc2)cc1 (optimized conformer: 76.69022601387107 kcal/mol)

>  <smiles>  (13) 
NC(N)=NS(=O)(=O)c1ccc(NS(=O)(=O)c2ccc(-c3cccc4ccccc34)cc2)cc1

>  <score_type>  (13) 
oracle

>  <origin>  (13) 
adgpu

>  <m_score__min__energy>  (13) 
-12.619999999999999

>  <m_primary>  (13) 
energy

$$$$
13:0
     RDKit          3D

 46 48  0  0  0  0  0  0  0  0999 V2000
   -6.4230   25.3370  -29.7990 C   0  0  0  0  0  0  0  0  0  0  0  0
   -5.4290   24.4700  -30.5060 C   0  0  0  0  0  0  0  0  0  0  0  0
   -4.1030   24.7010  -30.4940 N   0  0  0  0  0  0  0  0  0  0  0  0
   -3.5430   23.7610  -31.2000 O   0  0  0  0  0  0  0  0  0  0  0  0
   -4.4380   22.9300  -31.6820 C   0  0  0  0  0  0  0  0  0  0  0  0
   -4.1040   21.7490  -32.5360 C   0  0  0  0  0  0  0  0  0  0  0  0
   -5.6930   23.3390  -31.2630 C   0  0  0  0  0  0  0  0  0  0  0  0
   -7.0030   22.7190  -31.5520 C   0  0  0  0  0  0  0  0  0  0  0  0
   -8.1410   23.5170  -31.7540 C   0  0  0  0  0  0  0  0  0  0  0  0
   -9.3690   22.9260  -32.0650 C   0  0  0  0  0  0  0  0  0  0  0  0
   -9.4710   21.5380  -32.1800 C   0  0  0  0  0  0  0  0  0  0  0  0
   -8.3470   20.7310  -31.9700 C   0  0  0  0  0  0  0  0  0  0  0  0
   -8.4630   18.9830  -32.1640 S   0  0  0  0  0  0  0  0  0  0  0  0
   -8.3470   18.3230  -30.8170 O   0  0  0  0  0  0  0  0  0  0  0  0
   -9.8160   18.6530  -32.7300 O   0  0  0  0  0  0  0  0  0  0  0  0
   -7.2220   18.3880  -33.2490 N   0  0  0  0  0  0  0  0  0  0  0  0
   -6.3020   19.4670  -33.6850 C   0  0  0  0  0  0  0  0  0  0  0  0
   -4.9340   18.9960  -34.2240 C   0  0  0  0  0  0  0  0  0  0  0  0
   -4.9680   17.8270  -35.2330 C   0  0  0  0  0  0  0  0  0  0  0  0
   -4.9890   16.4200  -34.5920 C   0  0  0  0  0  0  0  0  0  0  0  0
   -6.2030   16.1050  -33.6800 C   0  0  0  0  0  0  0  0  0  0  0  0
   -6.5740   17.1950  -32.6540 C   0  0  0  0  0  0  0  0  0  0  0  0
   -7.1170   21.3240  -31.6510 C   0  0  0  0  0  0  0  0  0  0  0  0
   -6.2973   25.2274  -28.7117 H   0  0  0  0  0  0  0  0  0  0  0  0
   -6.2608   26.3873  -30.0828 H   0  0  0  0  0  0  0  0  0  0  0  0
   -7.4415   25.0336  -30.0828 H   0  0  0  0  0  0  0  0  0  0  0  0
   -3.8609   20.8894  -31.8941 H   0  0  0  0  0  0  0  0  0  0  0  0
   -4.9669   21.5000  -33.1711 H   0  0  0  0  0  0  0  0  0  0  0  0
   -3.2384   21.9888  -33.1711 H   0  0  0  0  0  0  0  0  0  0  0  0
   -8.0657   24.6110  -31.6672 H   0  0  0  0  0  0  0  0  0  0  0  0
  -10.2574   23.5560  -32.2196 H   0  0  0  0  0  0  0  0  0  0  0  0
  -10.4368   21.0780  -32.4362 H   0  0  0  0  0  0  0  0  0  0  0  0
   -7.7280   18.0670  -34.1070 H   0  0  0  0  0  0  0  0  0  0  0  0
   -6.8020   20.0375  -34.4816 H   0  0  0  0  0  0  0  0  0  0  0  0
   -6.0841   20.0604  -32.7848 H   0  0  0  0  0  0  0  0  0  0  0  0
   -4.4543   19.8534  -34.7188 H   0  0  0  0  0  0  0  0  0  0  0  0
   -4.3863   18.6158  -33.3491 H   0  0  0  0  0  0  0  0  0  0  0  0
   -5.8709   17.9349  -35.8520 H   0  0  0  0  0  0  0  0  0  0  0  0
   -4.0354   17.8901  -35.8128 H   0  0  0  0  0  0  0  0  0  0  0  0
   -4.9785   15.6797  -35.4055 H   0  0  0  0  0  0  0  0  0  0  0  0
   -4.1074   16.3808  -33.9352 H   0  0  0  0  0  0  0  0  0  0  0  0
   -7.0770   15.9395  -34.3271 H   0  0  0  0  0  0  0  0  0  0  0  0
   -5.9108   15.2252  -33.0879 H   0  0  0  0  0  0  0  0  0  0  0  0
   -7.2648   16.7569  -31.9185 H   0  0  0  0  0  0  0  0  0  0  0  0
   -5.6327   17.5377  -32.1996 H   0  0  0  0  0  0  0  0  0  0  0  0
   -6.2346   20.6906  -31.4770 H   0  0  0  0  0  0  0  0  0  0  0  0
  1  2  1  0
  2  3  2  0
  3  4  1  0
  4  5  1  0
  5  6  1  0
  5  7  2  0
  7  8  1  0
  8  9  2  0
  9 10  1  0
 10 11  2  0
 11 12  1  0
 12 13  1  0
 13 14  2  0
 13 15  2  0
 13 16  1  0
 16 17  1  0
 17 18  1  0
 18 19  1  0
 19 20  1  0
 20 21  1  0
 21 22  1  0
 12 23  2  0
  7  2  1  0
 23  8  1  0
 22 16  1  0
  1 24  1  0
  1 25  1  0
  1 26  1  0
  6 27  1  0
  6 28  1  0
  6 29  1  0
  9 30  1  0
 10 31  1  0
 11 32  1  0
 16 33  1  0
 17 34  1  0
 17 35  1  0
 18 36  1  0
 18 37  1  0
 19 38  1  0
 19 39  1  0
 20 40  1  0
 20 41  1  0
 21 42  1  0
 21 43  1  0
 22 44  1  0
 22 45  1  0
 23 46  1  0
M  CHG  1  16   1
M  END
>  <UniqueID>  (14) 
12

>  <SMILES>  (14) 
Cc1noc(C)c1-c1cccc(S(=O)(=O)[NH+]2CCCCCC2)c1

>  <Energy>  (14) 
91.81028459793728

>  <Genealogy>  (14) 
Cc1noc(C)c1-c1cccc(S(=O)(=O)[NH+]2CCCCCC2)c1 (protonated)
Cc1noc(C)c1-c1cccc(S(=O)(=O)[NH+]2CCCCCC2)c1 (3D coordinates assigned)
Cc1noc(C)c1-c1cccc(S(=O)(=O)[NH+]2CCCCCC2)c1 (nonaromatic ring conformer: 91.81028459793728 kcal/mol)

>  <smiles>  (14) 
Cc1noc(C)c1-c1cccc(S(=O)(=O)N2CCCCCC2)c1

>  <score_type>  (14) 
oracle

>  <origin>  (14) 
adgpu

>  <m_score__min__energy>  (14) 
-7.7699999999999996

>  <m_primary>  (14) 
energy

$$$$
14:0
     RDKit          3D

 41 44  0  0  0  0  0  0  0  0999 V2000
   -6.3390   26.0160  -30.0450 O   0  0  0  0  0  0  0  0  0  0  0  0
   -5.2530   25.0130  -30.3170 S   0  0  0  0  0  0  0  0  0  0  0  0
   -4.2190   25.6580  -31.1970 O   0  0  0  0  0  0  0  0  0  0  0  0
   -4.5140   24.5570  -28.8150 N   0  0  0  0  0  0  0  0  0  0  0  0
   -3.3430   23.7390  -28.6820 C   0  0  0  0  0  0  0  0  0  0  0  0
   -3.4200   22.3910  -28.2930 C   0  0  0  0  0  0  0  0  0  0  0  0
   -2.2600   21.6130  -28.1630 C   0  0  0  0  0  0  0  0  0  0  0  0
   -0.9960   22.2010  -28.4040 C   0  0  0  0  0  0  0  0  0  0  0  0
   -0.9290   23.5400  -28.8140 C   0  0  0  0  0  0  0  0  0  0  0  0
   -2.0910   24.3050  -28.9460 C   0  0  0  0  0  0  0  0  0  0  0  0
   -1.9930   25.6350  -29.3400 O   0  0  0  0  0  0  0  0  0  0  0  0
    0.2770   21.3910  -28.3390 C   0  0  0  0  0  0  0  0  0  0  0  0
    0.1190   20.1070  -27.5200 C   0  0  0  0  0  0  0  0  0  0  0  0
   -1.1390   19.3530  -27.9490 C   0  0  0  0  0  0  0  0  0  0  0  0
   -2.3870   20.1920  -27.6610 C   0  0  0  0  0  0  0  0  0  0  0  0
   -5.9830   23.5840  -31.0670 C   0  0  0  0  0  0  0  0  0  0  0  0
   -7.3720   23.4280  -30.9690 C   0  0  0  0  0  0  0  0  0  0  0  0
   -8.0070   22.3140  -31.5230 C   0  0  0  0  0  0  0  0  0  0  0  0
   -7.2600   21.3350  -32.1790 C   0  0  0  0  0  0  0  0  0  0  0  0
   -5.8700   21.4670  -32.2840 C   0  0  0  0  0  0  0  0  0  0  0  0
   -5.1010   20.4880  -32.9290 C   0  0  0  0  0  0  0  0  0  0  0  0
   -3.7170   20.6370  -33.0170 C   0  0  0  0  0  0  0  0  0  0  0  0
   -3.1130   21.7660  -32.4610 C   0  0  0  0  0  0  0  0  0  0  0  0
   -3.8690   22.7090  -31.8400 N   0  0  0  0  0  0  0  0  0  0  0  0
   -5.2220   22.5970  -31.7310 C   0  0  0  0  0  0  0  0  0  0  0  0
   -4.4022   21.9402  -28.0878 H   0  0  0  0  0  0  0  0  0  0  0  0
    0.0488   23.9933  -29.0342 H   0  0  0  0  0  0  0  0  0  0  0  0
    0.5750   21.1209  -29.3629 H   0  0  0  0  0  0  0  0  0  0  0  0
    1.0396   22.0096  -27.8433 H   0  0  0  0  0  0  0  0  0  0  0  0
    0.9981   19.4652  -27.6789 H   0  0  0  0  0  0  0  0  0  0  0  0
    0.0313   20.3711  -26.4558 H   0  0  0  0  0  0  0  0  0  0  0  0
   -1.0851   19.1415  -29.0271 H   0  0  0  0  0  0  0  0  0  0  0  0
   -1.2024   18.4122  -27.3825 H   0  0  0  0  0  0  0  0  0  0  0  0
   -3.2502   19.7201  -28.1531 H   0  0  0  0  0  0  0  0  0  0  0  0
   -2.5160   20.2341  -26.5694 H   0  0  0  0  0  0  0  0  0  0  0  0
   -7.9694   24.1918  -30.4497 H   0  0  0  0  0  0  0  0  0  0  0  0
   -9.0989   22.2083  -31.4419 H   0  0  0  0  0  0  0  0  0  0  0  0
   -7.7634   20.4590  -32.6139 H   0  0  0  0  0  0  0  0  0  0  0  0
   -5.5885   19.6036  -33.3651 H   0  0  0  0  0  0  0  0  0  0  0  0
   -3.1072   19.8720  -33.5198 H   0  0  0  0  0  0  0  0  0  0  0  0
   -2.0222   21.8926  -32.5257 H   0  0  0  0  0  0  0  0  0  0  0  0
  1  2  2  0
  2  3  2  0
  2  4  1  0
  4  5  1  0
  5  6  2  0
  6  7  1  0
  7  8  2  0
  8  9  1  0
  9 10  2  0
 10 11  1  0
  8 12  1  0
 12 13  1  0
 13 14  1  0
 14 15  1  0
  2 16  1  0
 16 17  2  0
 17 18  1  0
 18 19  2  0
 19 20  1  0
 20 21  2  0
 21 22  1  0
 22 23  2  0
 23 24  1  0
 24 25  2  0
 10  5  1  0
 25 16  1  0
 15  7  1  0
 25 20  1  0
  6 26  1  0
  9 27  1  0
 12 28  1  0
 12 29  1  0
 13 30  1  0
 13 31  1  0
 14 32  1  0
 14 33  1  0
 15 34  1  0
 15 35  1  0
 17 36  1  0
 18 37  1  0
 19 38  1  0
 21 39  1  0
 22 40  1  0
 23 41  1  0
M  CHG  2   4  -1  11  -1
M  END
>  <UniqueID>  (15) 
13

>  <SMILES>  (15) 
O=S(=O)([N-]c1cc2c(cc1[O-])CCCC2)c1cccc2cccnc12

>  <Energy>  (15) 
51.82465954965119

>  <Genealogy>  (15) 
O=S(=O)([N-]c1cc2c(cc1[O-])CCCC2)c1cccc2cccnc12 (protonated)
O=S(=O)([N-]c1cc2c(cc1[O-])CCCC2)c1cccc2cccnc12 (3D coordinates assigned)
O=S(=O)([N-]c1cc2c(cc1[O-])CCCC2)c1cccc2cccnc12 (nonaromatic ring conformer: 51.82465954965119 kcal/mol)

>  <smiles>  (15) 
O=S(=O)(Nc1cc2c(cc1O)CCCC2)c1cccc2cccnc12

>  <score_type>  (15) 
oracle

>  <origin>  (15) 
adgpu

>  <m_score__min__energy>  (15) 
-14.279999999999999

>  <m_primary>  (15) 
energy

$$$$
15:0
     RDKit          3D

 47 49  0  0  0  0  0  0  0  0999 V2000
   -0.3730   20.3430  -33.0880 H   0  0  0  0  0  0  0  0  0  0  0  0
   -1.2400   20.7050  -33.4620 O   0  0  0  0  0  0  0  0  0  0  0  0
   -2.4750   20.0830  -33.2650 C   0  0  0  0  0  0  0  0  0  0  0  0
   -2.7460   18.9160  -33.9790 C   0  0  0  0  0  0  0  0  0  0  0  0
   -1.9712   18.4896  -34.6332 H   0  0  0  0  0  0  0  0  0  0  0  0
   -3.9950   18.2750  -33.8760 C   0  0  0  0  0  0  0  0  0  0  0  0
   -4.2940   17.1240  -34.6250 O   0  0  0  0  0  0  0  0  0  0  0  0
   -4.1920   15.7900  -34.1360 C   0  0  0  0  0  0  0  0  0  0  0  0
   -4.1929   15.8016  -33.0361 H   0  0  0  0  0  0  0  0  0  0  0  0
   -5.0477   15.2006  -34.4972 H   0  0  0  0  0  0  0  0  0  0  0  0
   -3.2566   15.3376  -34.4972 H   0  0  0  0  0  0  0  0  0  0  0  0
   -4.9790   18.8110  -33.0210 C   0  0  0  0  0  0  0  0  0  0  0  0
   -6.3150   18.1650  -32.9330 C   0  0  0  0  0  0  0  0  0  0  0  0
   -6.8060   17.6310  -33.9640 O   0  0  0  0  0  0  0  0  0  0  0  0
   -7.0720   18.0520  -31.6650 C   0  0  0  0  0  0  0  0  0  0  0  0
   -6.5957   17.4973  -30.8432 H   0  0  0  0  0  0  0  0  0  0  0  0
   -8.2890   18.5680  -31.4320 C   0  0  0  0  0  0  0  0  0  0  0  0
   -8.6793   18.5242  -30.4045 H   0  0  0  0  0  0  0  0  0  0  0  0
   -9.1400   19.1930  -32.4720 C   0  0  0  0  0  0  0  0  0  0  0  0
   -9.7364   18.5297  -33.1157 H   0  0  0  0  0  0  0  0  0  0  0  0
   -9.2300   20.5140  -32.6790 C   0  0  0  0  0  0  0  0  0  0  0  0
   -9.8696   20.8580  -33.5052 H   0  0  0  0  0  0  0  0  0  0  0  0
   -8.5340   21.5410  -31.8800 C   0  0  0  0  0  0  0  0  0  0  0  0
   -7.7370   22.5220  -32.4940 C   0  0  0  0  0  0  0  0  0  0  0  0
   -7.6518   22.5520  -33.5903 H   0  0  0  0  0  0  0  0  0  0  0  0
   -7.0520   23.4600  -31.7160 C   0  0  0  0  0  0  0  0  0  0  0  0
   -6.4433   24.2367  -32.2021 H   0  0  0  0  0  0  0  0  0  0  0  0
   -7.1390   23.4130  -30.3220 C   0  0  0  0  0  0  0  0  0  0  0  0
   -6.6063   24.1571  -29.7116 H   0  0  0  0  0  0  0  0  0  0  0  0
   -7.9040   22.4190  -29.7040 C   0  0  0  0  0  0  0  0  0  0  0  0
   -7.9653   22.3758  -28.6066 H   0  0  0  0  0  0  0  0  0  0  0  0
   -8.5910   21.4800  -30.4790 C   0  0  0  0  0  0  0  0  0  0  0  0
   -9.1787   20.6900  -29.9887 H   0  0  0  0  0  0  0  0  0  0  0  0
   -4.6890   19.9630  -32.2600 C   0  0  0  0  0  0  0  0  0  0  0  0
   -5.6250   20.4530  -31.3530 O   0  0  0  0  0  0  0  0  0  0  0  0
   -3.4470   20.6120  -32.3890 C   0  0  0  0  0  0  0  0  0  0  0  0
   -3.1850   21.8380  -31.6070 C   0  0  0  0  0  0  0  0  0  0  0  0
   -4.1310   22.8770  -31.5900 C   0  0  0  0  0  0  0  0  0  0  0  0
   -5.0604   22.7811  -32.1705 H   0  0  0  0  0  0  0  0  0  0  0  0
   -3.8960   24.0310  -30.8390 C   0  0  0  0  0  0  0  0  0  0  0  0
   -4.6381   24.8429  -30.8332 H   0  0  0  0  0  0  0  0  0  0  0  0
   -2.7180   24.1560  -30.0940 C   0  0  0  0  0  0  0  0  0  0  0  0
   -2.4840   25.3040  -29.3480 O   0  0  0  0  0  0  0  0  0  0  0  0
   -1.7740   23.1230  -30.1020 C   0  0  0  0  0  0  0  0  0  0  0  0
   -0.8475   23.2212  -29.5172 H   0  0  0  0  0  0  0  0  0  0  0  0
   -2.0070   21.9650  -30.8530 C   0  0  0  0  0  0  0  0  0  0  0  0
   -1.2656   21.1524  -30.8526 H   0  0  0  0  0  0  0  0  0  0  0  0
  1  2  1  0
  2  3  1  0
  3  4  2  0
  4  5  1  0
  4  6  1  0
  6  7  1  0
  7  8  1  0
  8  9  1  0
  8 10  1  0
  8 11  1  0
  6 12  2  0
 12 13  1  0
 13 14  2  0
 13 15  1  0
 15 16  1  0
 15 17  2  0
 17 18  1  0
 17 19  1  0
 19 20  1  0
 19 21  2  0
 21 22  1  0
 21 23  1  0
 23 24  2  0
 24 25  1  0
 24 26  1  0
 26 27  1  0
 26 28  2  0
 28 29  1  0
 28 30  1  0
 30 31  1  0
 30 32  2  0
 32 33  1  0
 12 34  1  0
 34 35  1  0
 34 36  2  0
 36 37  1  0
 37 38  2  0
 38 39  1  0
 38 40  1  0
 40 41  1  0
 40 42  2  0
 42 43  1  0
 42 44  1  0
 44 45  1  0
 44 46  2  0
 46 47  1  0
 36  3  1  0
 46 37  1  0
 32 23  1  0
M  CHG  2  35  -1  43  -1
M  END
>  <UniqueID>  (16) 
14

>  <SMILES>  (16) 
COc1cc(O)c(-c2ccc([O-])cc2)c([O-])c1C(=O)C=C/C=C\c1ccccc1

>  <Energy>  (16) 
73.29575400631566

>  <Genealogy>  (16) 
COc1cc(O)c(-c2ccc([O-])cc2)c([O-])c1C(=O)C=CC=Cc1ccccc1 (protonated)
COc1cc(O)c(-c2ccc([O-])cc2)c([O-])c1C(=O)C=C/C=C\c1ccccc1 (cis-trans isomerization)
COc1cc(O)c(-c2ccc([O-])cc2)c([O-])c1C(=O)C=C/C=C\c1ccccc1 (3D coordinates assigned)
COc1cc(O)c(-c2ccc([O-])cc2)c([O-])c1C(=O)C=C/C=C\c1ccccc1 (optimized conformer: 73.29575400631566 kcal/mol)

>  <smiles>  (16) 
COc1cc(O)c(-c2ccc(O)cc2)c(O)c1C(=O)C=CC=Cc1ccccc1

>  <score_type>  (16) 
oracle

>  <origin>  (16) 
adgpu

>  <m_score__min__energy>  (16) 
-11.279999999999999

>  <m_primary>  (16) 
energy

$$$$
16:0
     RDKit          3D

 56 60  0  0  0  0  0  0  0  0999 V2000
   -4.4320   14.6800  -35.3020 H   0  0  0  0  0  0  0  0  0  0  0  0
   -3.4460   14.9480  -35.1740 N   0  0  0  0  0  0  0  0  0  0  0  0
   -3.1100   16.0510  -34.5970 C   0  0  0  0  0  0  0  0  0  0  0  0
   -4.1630   16.9830  -34.0460 C   0  0  0  0  0  0  0  0  0  0  0  0
   -5.1179   16.7945  -34.5584 H   0  0  0  0  0  0  0  0  0  0  0  0
   -4.2711   16.8011  -32.9665 H   0  0  0  0  0  0  0  0  0  0  0  0
   -3.7490   18.4520  -34.2670 C   0  0  1  0  0  0  0  0  0  0  0  0
   -3.7362   18.6232  -35.3535 H   0  0  0  0  0  0  0  0  0  0  0  0
   -4.7620   19.3710  -33.6340 C   0  0  0  0  0  0  0  0  0  0  0  0
   -4.4370   20.4300  -32.8710 N   0  0  0  0  0  0  0  0  0  0  0  0
   -5.6270   20.9940  -32.5730 C   0  0  0  0  0  0  0  0  0  0  0  0
   -5.7620   22.2210  -31.7600 C   0  0  0  0  0  0  0  0  0  0  0  0
   -7.0250   22.6490  -31.3200 C   0  0  0  0  0  0  0  0  0  0  0  0
   -7.9202   22.0646  -31.5790 H   0  0  0  0  0  0  0  0  0  0  0  0
   -7.1530   23.8110  -30.5560 C   0  0  0  0  0  0  0  0  0  0  0  0
   -8.1478   24.1288  -30.2104 H   0  0  0  0  0  0  0  0  0  0  0  0
   -6.0250   24.5770  -30.2250 C   0  0  0  0  0  0  0  0  0  0  0  0
   -6.2060   25.7950  -29.3610 C   0  0  0  0  0  0  0  0  0  0  0  0
   -6.1626   25.5027  -28.3014 H   0  0  0  0  0  0  0  0  0  0  0  0
   -5.4055   26.5185  -29.5749 H   0  0  0  0  0  0  0  0  0  0  0  0
   -7.1823   26.2545  -29.5749 H   0  0  0  0  0  0  0  0  0  0  0  0
   -4.7560   24.1840  -30.7150 C   0  0  0  0  0  0  0  0  0  0  0  0
   -3.5720   24.9520  -30.4650 N   0  0  0  0  0  0  0  0  0  0  0  0
   -2.6600   24.6980  -29.3890 C   0  0  0  0  0  0  0  0  0  0  0  0
   -1.9850   25.6440  -28.9020 O   0  0  0  0  0  0  0  0  0  0  0  0
   -2.4850   23.3160  -28.8990 C   0  0  0  0  0  0  0  0  0  0  0  0
   -2.9220   22.8410  -27.6710 C   0  0  0  0  0  0  0  0  0  0  0  0
   -3.4404   23.4431  -26.9103 H   0  0  0  0  0  0  0  0  0  0  0  0
   -2.6170   21.5280  -27.5460 N   0  0  0  0  0  0  0  0  0  0  0  0
   -1.9960   21.2360  -28.7070 C   0  0  0  0  0  0  0  0  0  0  0  0
   -1.4930   19.9840  -29.0600 C   0  0  0  0  0  0  0  0  0  0  0  0
   -1.5771   19.1248  -28.3783 H   0  0  0  0  0  0  0  0  0  0  0  0
   -0.8760   19.8570  -30.3140 C   0  0  0  0  0  0  0  0  0  0  0  0
   -0.4672   18.8850  -30.6272 H   0  0  0  0  0  0  0  0  0  0  0  0
   -0.7780   20.9670  -31.1720 C   0  0  0  0  0  0  0  0  0  0  0  0
   -0.2949   20.8653  -32.1550 H   0  0  0  0  0  0  0  0  0  0  0  0
   -1.3000   22.2050  -30.7670 C   0  0  0  0  0  0  0  0  0  0  0  0
   -1.2289   23.0871  -31.4203 H   0  0  0  0  0  0  0  0  0  0  0  0
   -1.8970   22.2880  -29.5450 N   0  0  0  0  0  0  0  0  0  0  0  0
   -4.6330   22.9920  -31.4400 C   0  0  0  0  0  0  0  0  0  0  0  0
   -3.6372   22.6548  -31.7635 H   0  0  0  0  0  0  0  0  0  0  0  0
   -6.6810   20.3500  -33.1240 N   0  0  0  0  0  0  0  0  0  0  0  0
   -6.1290   19.3310  -33.8020 C   0  0  0  0  0  0  0  0  0  0  0  0
   -6.6787   18.5854  -34.3952 H   0  0  0  0  0  0  0  0  0  0  0  0
   -2.2970   18.7740  -33.7940 C   0  0  0  0  0  0  0  0  0  0  0  0
   -1.7717   19.2853  -34.6141 H   0  0  0  0  0  0  0  0  0  0  0  0
   -2.3876   19.3989  -32.8933 H   0  0  0  0  0  0  0  0  0  0  0  0
   -1.4780   17.5340  -33.3940 C   0  0  0  0  0  0  0  0  0  0  0  0
   -0.4148   17.8129  -33.3511 H   0  0  0  0  0  0  0  0  0  0  0  0
   -1.8476   17.1920  -32.4160 H   0  0  0  0  0  0  0  0  0  0  0  0
   -1.6430   16.3670  -34.3900 C   0  0  2  0  0  0  0  0  0  0  0  0
   -1.1488   15.4839  -33.9588 H   0  0  0  0  0  0  0  0  0  0  0  0
   -0.9920   16.6610  -35.6740 N   0  0  0  0  0  0  0  0  0  0  0  0
   -1.5210   16.1990  -36.4530 H   0  0  0  0  0  0  0  0  0  0  0  0
   -0.9610   17.6930  -35.8500 H   0  0  0  0  0  0  0  0  0  0  0  0
   -0.0140   16.2820  -35.6720 H   0  0  0  0  0  0  0  0  0  0  0  0
  1  2  1  0
  2  3  2  0
  3  4  1  0
  4  5  1  0
  4  6  1  0
  4  7  1  0
  7  8  1  6
  7  9  1  0
  9 10  1  0
 10 11  2  0
 11 12  1  0
 12 13  2  0
 13 14  1  0
 13 15  1  0
 15 16  1  0
 15 17  2  0
 17 18  1  0
 18 19  1  0
 18 20  1  0
 18 21  1  0
 17 22  1  0
 22 23  1  0
 23 24  1  0
 24 25  2  0
 24 26  1  0
 26 27  2  0
 27 28  1  0
 27 29  1  0
 29 30  2  0
 30 31  1  0
 31 32  1  0
 31 33  2  0
 33 34  1  0
 33 35  1  0
 35 36  1  0
 35 37  2  0
 37 38  1  0
 37 39  1  0
 22 40  2  0
 40 41  1  0
 11 42  1  0
 42 43  1  0
 43 44  1  0
  7 45  1  0
 45 46  1  0
 45 47  1  0
 45 48  1  0
 48 49  1  0
 48 50  1  0
 48 51  1  0
 51 52  1  1
 51 53  1  0
 53 54  1  0
 53 55  1  0
 53 56  1  0
 51  3  1  0
 43  9  2  0
 40 12  1  0
 39 26  1  0
 39 30  1  0
M  CHG  3  23  -1  42  -1  53   1
M  END
>  <UniqueID>  (17) 
15

>  <SMILES>  (17) 
[H]/N=C1\C[C@@H](c2c[n-]c(-c3ccc(C)c([N-]C(=O)c4cnc5ccccn45)c3)n2)CC[C@@H]1[NH3+]

>  <Energy>  (17) 
133.69284758442643

>  <Genealogy>  (17) 
Cc1ccc(-c2nc(C3CCC([NH3+])C(=N)C3)c[n-]2)cc1[N-]C(=O)c1cnc2ccccn12 (protonated)
Cc1ccc(-c2nc([C@H]3CC[C@H]([NH3+])C(=N)C3)c[n-]2)cc1[N-]C(=O)c1cnc2ccccn12 (chirality)
[H]/N=C1\C[C@@H](c2c[n-]c(-c3ccc(C)c([N-]C(=O)c4cnc5ccccn45)c3)n2)CC[C@@H]1[NH3+] (cis-trans isomerization)
[H]/N=C1\C[C@@H](c2c[n-]c(-c3ccc(C)c([N-]C(=O)c4cnc5ccccn45)c3)n2)CC[C@@H]1[NH3+] (3D coordinates assigned)
[H]/N=C1\C[C@@H](c2c[n-]c(-c3ccc(C)c([N-]C(=O)c4cnc5ccccn45)c3)n2)CC[C@@H]1[NH3+] (nonaromatic ring conformer: 133.69284758442643 kcal/mol)

>  <smiles>  (17) 
Cc1ccc(-c2nc(C3CCC(N)C(=N)C3)c[nH]2)cc1NC(=O)c1cnc2ccccn12

>  <score_type>  (17) 
oracle

>  <origin>  (17) 
adgpu

>  <m_score__min__energy>  (17) 
-12.460000000000001

>  <m_primary>  (17) 
energy

$$$$
17:0
     RDKit          3D

 53 56  0  0  1  0  0  0  0  0999 V2000
   -5.5160   25.2870  -30.5870 C   0  0  0  0  0  0  0  0  0  0  0  0
   -4.6650   24.1280  -30.8430 N   0  0  0  0  0  0  0  0  0  0  0  0
   -3.5620   23.9310  -30.2050 C   0  0  0  0  0  0  0  0  0  0  0  0
   -3.2080   24.8410  -29.2760 N   0  0  0  0  0  0  0  0  0  0  0  0
   -2.0760   24.6940  -28.5820 C   0  0  0  0  0  0  0  0  0  0  0  0
   -1.6460   25.6080  -27.5960 N   0  0  0  0  0  0  0  0  0  0  0  0
   -2.2800   25.7030  -26.2850 C   0  0  0  0  0  0  0  0  0  0  0  0
   -1.2080   25.2910  -25.2720 C   0  0  0  0  0  0  0  0  0  0  0  0
   -0.1650   26.2930  -25.3940 N   0  0  0  0  0  0  0  0  0  0  0  0
   -0.0120   27.0900  -26.5840 C   0  0  0  0  0  0  0  0  0  0  0  0
    0.5390   28.2100  -26.5180 O   0  0  0  0  0  0  0  0  0  0  0  0
   -0.5390   26.5000  -27.8480 C   0  0  0  0  0  0  0  0  0  0  0  0
   -1.3030   23.6200  -28.8310 N   0  0  0  0  0  0  0  0  0  0  0  0
   -1.5820   22.6800  -29.7280 C   0  0  0  0  0  0  0  0  0  0  0  0
   -0.7850   21.5800  -29.9800 C   0  0  0  0  0  0  0  0  0  0  0  0
   -1.1660   20.6520  -30.9400 C   0  0  0  0  0  0  0  0  0  0  0  0
   -2.3330   20.7970  -31.6620 C   0  0  0  0  0  0  0  0  0  0  0  0
   -2.7780   19.8610  -32.6750 C   0  0  0  0  0  0  0  0  0  0  0  0
   -1.8850   19.0490  -33.3270 C   0  0  0  0  0  0  0  0  0  0  0  0
   -2.2800   18.1310  -34.3130 C   0  0  0  0  0  0  0  0  0  0  0  0
   -1.4350   17.3810  -34.9120 O   0  0  0  0  0  0  0  0  0  0  0  0
   -0.5720   16.6280  -35.5200 C   0  0  0  0  0  0  0  0  0  0  0  0
   -3.6540   18.0750  -34.6120 C   0  0  0  0  0  0  0  0  0  0  0  0
   -4.0680   17.1680  -35.5900 O   0  0  0  0  0  0  0  0  0  0  0  0
   -4.5740   18.8730  -33.9780 C   0  0  0  0  0  0  0  0  0  0  0  0
   -5.9090   18.7560  -34.3320 O   0  0  0  0  0  0  0  0  0  0  0  0
   -6.8800   19.2860  -33.4530 C   0  0  0  0  0  0  0  0  0  0  0  0
   -4.1060   19.7460  -33.0240 C   0  0  0  0  0  0  0  0  0  0  0  0
   -3.1390   21.8950  -31.4180 C   0  0  0  0  0  0  0  0  0  0  0  0
   -2.7600   22.8190  -30.4620 C   0  0  0  0  0  0  0  0  0  0  0  0
   -5.6221   25.4314  -29.5017 H   0  0  0  0  0  0  0  0  0  0  0  0
   -5.0595   26.1828  -31.0332 H   0  0  0  0  0  0  0  0  0  0  0  0
   -6.5074   25.1197  -31.0332 H   0  0  0  0  0  0  0  0  0  0  0  0
   -3.8120   25.6730  -29.0870 H   0  0  0  0  0  0  0  0  0  0  0  0
   -2.6115   26.7343  -26.0937 H   0  0  0  0  0  0  0  0  0  0  0  0
   -3.1692   25.0590  -26.2178 H   0  0  0  0  0  0  0  0  0  0  0  0
   -1.6216   25.2867  -24.2527 H   0  0  0  0  0  0  0  0  0  0  0  0
   -0.8285   24.2766  -25.4642 H   0  0  0  0  0  0  0  0  0  0  0  0
    0.4810   26.4210  -24.5840 H   0  0  0  0  0  0  0  0  0  0  0  0
   -0.8781   27.3126  -28.5073 H   0  0  0  0  0  0  0  0  0  0  0  0
    0.2684   25.9219  -28.3212 H   0  0  0  0  0  0  0  0  0  0  0  0
    0.1514   21.4394  -29.4201 H   0  0  0  0  0  0  0  0  0  0  0  0
   -0.5222   19.7804  -31.1295 H   0  0  0  0  0  0  0  0  0  0  0  0
   -0.8185   19.1199  -33.0673 H   0  0  0  0  0  0  0  0  0  0  0  0
    0.0384   16.0954  -34.7759 H   0  0  0  0  0  0  0  0  0  0  0  0
   -1.1017   15.8982  -36.1499 H   0  0  0  0  0  0  0  0  0  0  0  0
    0.0793   17.2517  -36.1499 H   0  0  0  0  0  0  0  0  0  0  0  0
   -3.4170   16.6040  -36.1250 H   0  0  0  0  0  0  0  0  0  0  0  0
   -6.5657   19.1144  -32.4129 H   0  0  0  0  0  0  0  0  0  0  0  0
   -6.9848   20.3664  -33.6309 H   0  0  0  0  0  0  0  0  0  0  0  0
   -7.8454   18.7897  -33.6309 H   0  0  0  0  0  0  0  0  0  0  0  0
   -4.8343   20.3901  -32.5095 H   0  0  0  0  0  0  0  0  0  0  0  0
   -4.0744   22.0317  -31.9805 H   0  0  0  0  0  0  0  0  0  0  0  0
  1  2  1  0
  2  3  2  0
  3  4  1  0
  4  5  1  0
  5  6  1  0
  6  7  1  0
  7  8  1  0
  8  9  1  0
  9 10  1  0
 10 11  2  0
 10 12  1  0
  5 13  2  0
 13 14  1  0
 14 15  2  0
 15 16  1  0
 16 17  2  0
 17 18  1  0
 18 19  2  0
 19 20  1  0
 20 21  1  0
 21 22  1  0
 20 23  2  0
 23 24  1  0
 23 25  1  0
 25 26  1  0
 26 27  1  0
 25 28  2  0
 17 29  1  0
 29 30  2  0
 30  3  1  0
 12  6  1  0
 30 14  1  0
 28 18  1  0
  1 31  1  0
  1 32  1  0
  1 33  1  0
  4 34  1  0
  7 35  1  0
  7 36  1  0
  8 37  1  0
  8 38  1  0
  9 39  1  0
 12 40  1  0
 12 41  1  0
 15 42  1  0
 16 43  1  0
 19 44  1  0
 22 45  1  0
 22 46  1  0
 22 47  1  0
 24 48  1  0
 27 49  1  0
 27 50  1  0
 27 51  1  0
 28 52  1  0
 29 53  1  0
M  END
>  <smiles>  (18) 
CN=c1[nH]c(N2CCNC(=O)C2)nc2ccc(-c3cc(OC)c(O)c(OC)c3)cc12

>  <score_type>  (18) 
oracle

>  <origin>  (18) 
adgpu

>  <m_score__min__energy>  (18) 
-8.2799999999999994

>  <m_primary>  (18) 
energy

$$$$
18:0
     RDKit          3D

 58 61  0  0  0  0  0  0  0  0999 V2000
   -1.8800   20.6640  -32.8150 C   0  0  0  0  0  0  0  0  0  0  0  0
   -1.0460   20.3670  -31.6060 C   0  0  0  0  0  0  0  0  0  0  0  0
    0.2090   20.3870  -31.7030 O   0  0  0  0  0  0  0  0  0  0  0  0
   -1.6420   20.0720  -30.3380 N   0  0  0  0  0  0  0  0  0  0  0  0
   -2.0000   21.0740  -29.3800 C   0  0  0  0  0  0  0  0  0  0  0  0
   -2.1530   22.3980  -29.8060 C   0  0  0  0  0  0  0  0  0  0  0  0
   -2.4810   23.4120  -28.8910 C   0  0  0  0  0  0  0  0  0  0  0  0
   -2.5670   24.8210  -29.3460 C   0  0  0  0  0  0  0  0  0  0  0  0
   -1.7550   25.6680  -28.8890 O   0  0  0  0  0  0  0  0  0  0  0  0
   -3.5890   25.2690  -30.2460 N   0  0  0  0  0  0  0  0  0  0  0  0
   -4.7280   24.5000  -30.6550 C   0  0  0  0  0  0  0  0  0  0  0  0
   -5.9940   24.8480  -30.1720 C   0  0  0  0  0  0  0  0  0  0  0  0
   -7.1110   24.0780  -30.5030 C   0  0  0  0  0  0  0  0  0  0  0  0
   -6.9730   22.9620  -31.3400 C   0  0  0  0  0  0  0  0  0  0  0  0
   -8.3460   21.8990  -31.6390 S   0  0  0  0  0  0  0  0  0  0  0  0
   -8.7900   21.2860  -30.3400 O   0  0  0  0  0  0  0  0  0  0  0  0
   -9.4870   22.7180  -32.1770 O   0  0  0  0  0  0  0  0  0  0  0  0
   -7.9590   20.6280  -32.7830 N   0  0  0  0  0  0  0  0  0  0  0  0
   -6.6950   19.9320  -32.4580 C   0  0  0  0  0  0  0  0  0  0  0  0
   -6.9070   18.6250  -31.6660 C   0  0  0  0  0  0  0  0  0  0  0  0
   -8.1560   18.6180  -31.0140 O   0  0  0  0  0  0  0  0  0  0  0  0
   -9.1950   18.5790  -31.9690 C   0  0  0  0  0  0  0  0  0  0  0  0
   -9.0890   19.7090  -33.0220 C   0  0  0  0  0  0  0  0  0  0  0  0
   -5.7170   22.6500  -31.8770 C   0  0  0  0  0  0  0  0  0  0  0  0
   -4.5990   23.4150  -31.5360 C   0  0  0  0  0  0  0  0  0  0  0  0
   -2.6640   23.0760  -27.5380 C   0  0  0  0  0  0  0  0  0  0  0  0
   -2.5290   21.7520  -27.1120 C   0  0  0  0  0  0  0  0  0  0  0  0
   -2.1970   20.7450  -28.0260 C   0  0  0  0  0  0  0  0  0  0  0  0
   -1.9850   19.0590  -27.4360 S   0  0  0  0  0  0  0  0  0  0  0  0
   -0.2610   18.9760  -27.9210 C   0  0  0  0  0  0  0  0  0  0  0  0
    0.5530   20.1100  -27.8000 C   0  0  0  0  0  0  0  0  0  0  0  0
    1.8910   20.0580  -28.2010 C   0  0  0  0  0  0  0  0  0  0  0  0
    2.4150   18.8770  -28.7430 C   0  0  0  0  0  0  0  0  0  0  0  0
    1.6040   17.7450  -28.8650 C   0  0  0  0  0  0  0  0  0  0  0  0
    0.2670   17.7940  -28.4580 C   0  0  0  0  0  0  0  0  0  0  0  0
   -2.8723   21.0174  -32.4981 H   0  0  0  0  0  0  0  0  0  0  0  0
   -1.3886   21.4424  -33.4172 H   0  0  0  0  0  0  0  0  0  0  0  0
   -1.9913   19.7502  -33.4172 H   0  0  0  0  0  0  0  0  0  0  0  0
   -2.0150   22.6473  -30.8684 H   0  0  0  0  0  0  0  0  0  0  0  0
   -6.1101   25.7324  -29.5284 H   0  0  0  0  0  0  0  0  0  0  0  0
   -8.1009   24.3477  -30.1062 H   0  0  0  0  0  0  0  0  0  0  0  0
   -6.1769   19.6911  -33.3980 H   0  0  0  0  0  0  0  0  0  0  0  0
   -6.1042   20.6075  -31.8219 H   0  0  0  0  0  0  0  0  0  0  0  0
   -6.8608   17.7735  -32.3609 H   0  0  0  0  0  0  0  0  0  0  0  0
   -6.1173   18.5490  -30.9040 H   0  0  0  0  0  0  0  0  0  0  0  0
   -9.1576   17.6103  -32.4889 H   0  0  0  0  0  0  0  0  0  0  0  0
  -10.1438   18.7183  -31.4301 H   0  0  0  0  0  0  0  0  0  0  0  0
   -8.9621   19.2507  -34.0139 H   0  0  0  0  0  0  0  0  0  0  0  0
  -10.0117   20.3040  -32.9543 H   0  0  0  0  0  0  0  0  0  0  0  0
   -5.6111   21.8010  -32.5684 H   0  0  0  0  0  0  0  0  0  0  0  0
   -3.6146   23.1663  -31.9592 H   0  0  0  0  0  0  0  0  0  0  0  0
   -2.9153   23.8610  -26.8096 H   0  0  0  0  0  0  0  0  0  0  0  0
   -2.6845   21.4997  -26.0527 H   0  0  0  0  0  0  0  0  0  0  0  0
    0.1386   21.0423  -27.3889 H   0  0  0  0  0  0  0  0  0  0  0  0
    2.5328   20.9446  -28.0910 H   0  0  0  0  0  0  0  0  0  0  0  0
    3.4639   18.8406  -29.0723 H   0  0  0  0  0  0  0  0  0  0  0  0
    2.0179   16.8148  -29.2815 H   0  0  0  0  0  0  0  0  0  0  0  0
   -0.3711   16.9037  -28.5595 H   0  0  0  0  0  0  0  0  0  0  0  0
  1  2  1  0
  2  3  2  0
  2  4  1  0
  4  5  1  0
  5  6  2  0
  6  7  1  0
  7  8  1  0
  8  9  2  0
  8 10  1  0
 10 11  1  0
 11 12  2  0
 12 13  1  0
 13 14  2  0
 14 15  1  0
 15 16  2  0
 15 17  2  0
 15 18  1  0
 18 19  1  0
 19 20  1  0
 20 21  1  0
 21 22  1  0
 22 23  1  0
 14 24  1  0
 24 25  2  0
  7 26  2  0
 26 27  1  0
 27 28  2  0
 28 29  1  0
 29 30  1  0
 30 31  2  0
 31 32  1  0
 32 33  2  0
 33 34  1  0
 34 35  2  0
 28  5  1  0
 35 30  1  0
 25 11  1  0
 23 18  1  0
  1 36  1  0
  1 37  1  0
  1 38  1  0
  6 39  1  0
 12 40  1  0
 13 41  1  0
 19 42  1  0
 19 43  1  0
 20 44  1  0
 20 45  1  0
 22 46  1  0
 22 47  1  0
 23 48  1  0
 23 49  1  0
 24 50  1  0
 25 51  1  0
 26 52  1  0
 27 53  1  0
 31 54  1  0
 32 55  1  0
 33 56  1  0
 34 57  1  0
 35 58  1  0
M  CHG  2   4  -1  10  -1
M  END
>  <UniqueID>  (19) 
16

>  <SMILES>  (19) 
CC(=O)[N-]c1cc(C(=O)[N-]c2ccc(S(=O)(=O)N3CCOCC3)cc2)ccc1Sc1ccccc1

>  <Energy>  (19) 
77.1173179008687

>  <Genealogy>  (19) 
CC(=O)[N-]c1cc(C(=O)[N-]c2ccc(S(=O)(=O)N3CCOCC3)cc2)ccc1Sc1ccccc1 (protonated)
CC(=O)[N-]c1cc(C(=O)[N-]c2ccc(S(=O)(=O)N3CCOCC3)cc2)ccc1Sc1ccccc1 (3D coordinates assigned)
CC(=O)[N-]c1cc(C(=O)[N-]c2ccc(S(=O)(=O)N3CCOCC3)cc2)ccc1Sc1ccccc1 (nonaromatic ring conformer: 77.1173179008687 kcal/mol)

>  <smiles>  (19) 
CC(=O)Nc1cc(C(=O)Nc2ccc(S(=O)(=O)N3CCOCC3)cc2)ccc1Sc1ccccc1

>  <score_type>  (19) 
oracle

>  <origin>  (19) 
adgpu

>  <m_score__min__energy>  (19) 
-12.24

>  <m_primary>  (19) 
energy

$$$$
19:0
     RDKit          3D

 58 60  0  0  0  0  0  0  0  0999 V2000
   -7.0850   23.7070  -32.1130 C   0  0  0  0  0  0  0  0  0  0  0  0
   -7.7340   23.2020  -30.8960 N   0  0  0  0  0  0  0  0  0  0  0  0
   -6.7300   22.6250  -29.9940 C   0  0  0  0  0  0  0  0  0  0  0  0
   -8.9010   21.9770  -31.3240 S   0  0  0  0  0  0  0  0  0  0  0  0
   -9.8550   22.5170  -32.3530 O   0  0  0  0  0  0  0  0  0  0  0  0
   -9.6820   21.5660  -30.1050 O   0  0  0  0  0  0  0  0  0  0  0  0
   -8.0690   20.5830  -32.0110 C   0  0  0  0  0  0  0  0  0  0  0  0
   -8.3500   19.3020  -31.5230 C   0  0  0  0  0  0  0  0  0  0  0  0
   -7.7110   18.1850  -32.0680 C   0  0  0  0  0  0  0  0  0  0  0  0
   -6.7950   18.3370  -33.1200 C   0  0  0  0  0  0  0  0  0  0  0  0
   -6.1260   17.1490  -33.6880 C   0  0  0  0  0  0  0  0  0  0  0  0
   -6.8030   16.1100  -33.9050 O   0  0  0  0  0  0  0  0  0  0  0  0
   -4.7370   17.1520  -34.0410 N   0  0  0  0  0  0  0  0  0  0  0  0
   -3.6760   17.7540  -33.2370 C   0  0  0  0  0  0  0  0  0  0  0  0
   -3.2030   19.0590  -33.8790 C   0  0  0  0  0  0  0  0  0  0  0  0
   -3.2340   20.2010  -32.8960 C   0  0  0  0  0  0  0  0  0  0  0  0
   -3.8520   21.4130  -33.2400 C   0  0  0  0  0  0  0  0  0  0  0  0
   -3.8940   22.4680  -32.3250 C   0  0  0  0  0  0  0  0  0  0  0  0
   -3.3220   22.3240  -31.0540 C   0  0  0  0  0  0  0  0  0  0  0  0
   -3.3530   23.6670  -29.9070 S   0  0  0  0  0  0  0  0  0  0  0  0
   -4.2480   23.3090  -28.7530 O   0  0  0  0  0  0  0  0  0  0  0  0
   -3.9270   24.8810  -30.5820 O   0  0  0  0  0  0  0  0  0  0  0  0
   -1.7580   24.0410  -29.3010 N   0  0  0  0  0  0  0  0  0  0  0  0
   -1.8320   25.0730  -28.2570 C   0  0  0  0  0  0  0  0  0  0  0  0
   -0.4220   25.3750  -27.7070 C   0  0  0  0  0  0  0  0  0  0  0  0
    0.5650   24.5430  -28.2900 O   0  0  0  0  0  0  0  0  0  0  0  0
    0.2270   23.1840  -28.0880 C   0  0  0  0  0  0  0  0  0  0  0  0
   -1.1110   22.8290  -28.7710 C   0  0  0  0  0  0  0  0  0  0  0  0
   -2.7190   21.1090  -30.7020 C   0  0  0  0  0  0  0  0  0  0  0  0
   -2.6790   20.0520  -31.6150 C   0  0  0  0  0  0  0  0  0  0  0  0
   -6.4950   19.6250  -33.5900 C   0  0  0  0  0  0  0  0  0  0  0  0
   -7.1350   20.7420  -33.0440 C   0  0  0  0  0  0  0  0  0  0  0  0
   -6.2448   24.3608  -31.8362 H   0  0  0  0  0  0  0  0  0  0  0  0
   -6.7105   22.8604  -32.7071 H   0  0  0  0  0  0  0  0  0  0  0  0
   -7.8136   24.2780  -32.7071 H   0  0  0  0  0  0  0  0  0  0  0  0
   -7.0318   22.7984  -28.9505 H   0  0  0  0  0  0  0  0  0  0  0  0
   -6.6504   21.5434  -30.1778 H   0  0  0  0  0  0  0  0  0  0  0  0
   -5.7554   23.1008  -30.1778 H   0  0  0  0  0  0  0  0  0  0  0  0
   -9.0767   19.1737  -30.7072 H   0  0  0  0  0  0  0  0  0  0  0  0
   -7.9271   17.1823  -31.6706 H   0  0  0  0  0  0  0  0  0  0  0  0
   -4.0595   17.9637  -32.2276 H   0  0  0  0  0  0  0  0  0  0  0  0
   -2.8288   17.0547  -33.1790 H   0  0  0  0  0  0  0  0  0  0  0  0
   -2.1726   18.9265  -34.2407 H   0  0  0  0  0  0  0  0  0  0  0  0
   -3.8817   19.3006  -34.7103 H   0  0  0  0  0  0  0  0  0  0  0  0
   -4.3056   21.5330  -34.2349 H   0  0  0  0  0  0  0  0  0  0  0  0
   -4.3781   23.4156  -32.6036 H   0  0  0  0  0  0  0  0  0  0  0  0
   -2.2603   25.9919  -28.6838 H   0  0  0  0  0  0  0  0  0  0  0  0
   -2.4676   24.7091  -27.4363 H   0  0  0  0  0  0  0  0  0  0  0  0
   -0.1741   26.4247  -27.9228 H   0  0  0  0  0  0  0  0  0  0  0  0
   -0.4316   25.1827  -26.6240 H   0  0  0  0  0  0  0  0  0  0  0  0
    1.0224   22.5511  -28.5083 H   0  0  0  0  0  0  0  0  0  0  0  0
    0.1206   23.0107  -27.0070 H   0  0  0  0  0  0  0  0  0  0  0  0
   -0.9206   22.1293  -29.5982 H   0  0  0  0  0  0  0  0  0  0  0  0
   -1.7774   22.3663  -28.0282 H   0  0  0  0  0  0  0  0  0  0  0  0
   -2.2753   20.9869  -29.7029 H   0  0  0  0  0  0  0  0  0  0  0  0
   -2.2105   19.0988  -31.3288 H   0  0  0  0  0  0  0  0  0  0  0  0
   -5.7531   19.7564  -34.3915 H   0  0  0  0  0  0  0  0  0  0  0  0
   -6.9050   21.7476  -33.4260 H   0  0  0  0  0  0  0  0  0  0  0  0
  1  2  1  0
  2  3  1  0
  2  4  1  0
  4  5  2  0
  4  6  2  0
  4  7  1  0
  7  8  2  0
  8  9  1  0
  9 10  2  0
 10 11  1  0
 11 12  2  0
 11 13  1  0
 13 14  1  0
 14 15  1  0
 15 16  1  0
 16 17  2  0
 17 18  1  0
 18 19  2  0
 19 20  1  0
 20 21  2  0
 20 22  2  0
 20 23  1  0
 23 24  1  0
 24 25  1  0
 25 26  1  0
 26 27  1  0
 27 28  1  0
 19 29  1  0
 29 30  2  0
 10 31  1  0
 31 32  2  0
 32  7  1  0
 30 16  1  0
 28 23  1  0
  1 33  1  0
  1 34  1  0
  1 35  1  0
  3 36  1  0
  3 37  1  0
  3 38  1  0
  8 39  1  0
  9 40  1  0
 14 41  1  0
 14 42  1  0
 15 43  1  0
 15 44  1  0
 17 45  1  0
 18 46  1  0
 24 47  1  0
 24 48  1  0
 25 49  1  0
 25 50  1  0
 27 51  1  0
 27 52  1  0
 28 53  1  0
 28 54  1  0
 29 55  1  0
 30 56  1  0
 31 57  1  0
 32 58  1  0
M  CHG  1  13  -1
M  END
>  <UniqueID>  (20) 
17

>  <SMILES>  (20) 
CN(C)S(=O)(=O)c1ccc(C(=O)[N-]CCc2ccc(S(=O)(=O)N3CCOCC3)cc2)cc1

>  <Energy>  (20) 
64.82897840567874

>  <Genealogy>  (20) 
CN(C)S(=O)(=O)c1ccc(C(=O)[N-]CCc2ccc(S(=O)(=O)N3CCOCC3)cc2)cc1 (protonated)
CN(C)S(=O)(=O)c1ccc(C(=O)[N-]CCc2ccc(S(=O)(=O)N3CCOCC3)cc2)cc1 (3D coordinates assigned)
CN(C)S(=O)(=O)c1ccc(C(=O)[N-]CCc2ccc(S(=O)(=O)N3CCOCC3)cc2)cc1 (nonaromatic ring conformer: 64.82897840567874 kcal/mol)

>  <smiles>  (20) 
CN(C)S(=O)(=O)c1ccc(C(=O)NCCc2ccc(S(=O)(=O)N3CCOCC3)cc2)cc1

>  <score_type>  (20) 
oracle

>  <origin>  (20) 
adgpu

>  <m_score__min__energy>  (20) 
-11.550000000000001

>  <m_primary>  (20) 
energy

$$$$
20:0
     RDKit          3D

 55 58  0  0  0  0  0  0  0  0999 V2000
   -9.3520   22.2630  -31.9520 C   0  0  0  0  0  0  0  0  0  0  0  0
   -8.4490   22.3130  -30.8530 O   0  0  0  0  0  0  0  0  0  0  0  0
   -7.2490   23.0430  -30.8340 C   0  0  0  0  0  0  0  0  0  0  0  0
   -7.1730   24.3100  -30.2220 C   0  0  0  0  0  0  0  0  0  0  0  0
   -5.9560   24.9870  -30.1320 C   0  0  0  0  0  0  0  0  0  0  0  0
   -4.7880   24.3990  -30.6170 C   0  0  0  0  0  0  0  0  0  0  0  0
   -3.5400   25.0880  -30.4680 N   0  0  0  0  0  0  0  0  0  0  0  0
   -2.4400   24.5730  -29.7130 C   0  0  0  0  0  0  0  0  0  0  0  0
   -1.8440   25.3280  -28.9010 O   0  0  0  0  0  0  0  0  0  0  0  0
   -2.0410   23.2060  -29.8780 N   0  0  0  0  0  0  0  0  0  0  0  0
   -1.9010   22.1940  -28.8680 C   0  0  0  0  0  0  0  0  0  0  0  0
   -1.3320   22.4680  -27.6090 C   0  0  0  0  0  0  0  0  0  0  0  0
   -1.2580   21.4680  -26.6360 C   0  0  0  0  0  0  0  0  0  0  0  0
   -1.7770   20.2000  -26.8950 C   0  0  0  0  0  0  0  0  0  0  0  0
   -2.3720   19.9260  -28.1290 C   0  0  0  0  0  0  0  0  0  0  0  0
   -2.4270   20.9160  -29.1270 C   0  0  0  0  0  0  0  0  0  0  0  0
   -3.0480   20.6820  -30.3670 O   0  0  0  0  0  0  0  0  0  0  0  0
   -2.3940   20.5000  -31.5930 C   0  0  0  0  0  0  0  0  0  0  0  0
   -1.6290   21.5200  -32.1890 C   0  0  0  0  0  0  0  0  0  0  0  0
   -1.0020   21.3020  -33.4190 C   0  0  0  0  0  0  0  0  0  0  0  0
   -1.1430   20.0720  -34.0690 C   0  0  0  0  0  0  0  0  0  0  0  0
   -1.9230   19.0640  -33.4930 C   0  0  0  0  0  0  0  0  0  0  0  0
   -2.5520   19.2800  -32.2640 C   0  0  0  0  0  0  0  0  0  0  0  0
   -4.8580   23.1620  -31.2710 C   0  0  0  0  0  0  0  0  0  0  0  0
   -6.0820   22.4860  -31.4160 C   0  0  0  0  0  0  0  0  0  0  0  0
   -6.1040   21.2110  -32.1840 C   0  0  0  0  0  0  0  0  0  0  0  0
   -5.1760   20.9370  -33.2020 C   0  0  0  0  0  0  0  0  0  0  0  0
   -5.2160   19.7420  -33.8450 N   0  0  0  0  0  0  0  0  0  0  0  0
   -6.1240   18.7830  -33.5200 C   0  0  0  0  0  0  0  0  0  0  0  0
   -6.1100   17.4830  -34.2670 C   0  0  0  0  0  0  0  0  0  0  0  0
   -7.0270   19.0300  -32.4670 C   0  0  0  0  0  0  0  0  0  0  0  0
   -8.0040   17.9910  -31.9990 C   0  0  0  0  0  0  0  0  0  0  0  0
   -6.9920   20.2370  -31.8390 N   0  0  0  0  0  0  0  0  0  0  0  0
  -10.3842   22.2058  -31.5761 H   0  0  0  0  0  0  0  0  0  0  0  0
   -9.2345   23.1690  -32.5646 H   0  0  0  0  0  0  0  0  0  0  0  0
   -9.1352   21.3755  -32.5646 H   0  0  0  0  0  0  0  0  0  0  0  0
   -8.0832   24.7706  -29.8105 H   0  0  0  0  0  0  0  0  0  0  0  0
   -5.9178   25.9878  -29.6770 H   0  0  0  0  0  0  0  0  0  0  0  0
   -0.9441   23.4739  -27.3908 H   0  0  0  0  0  0  0  0  0  0  0  0
   -0.7895   21.6814  -25.6639 H   0  0  0  0  0  0  0  0  0  0  0  0
   -1.7179   19.4147  -26.1270 H   0  0  0  0  0  0  0  0  0  0  0  0
   -2.7997   18.9310  -28.3213 H   0  0  0  0  0  0  0  0  0  0  0  0
   -1.5242   22.4921  -31.6850 H   0  0  0  0  0  0  0  0  0  0  0  0
   -0.3970   22.0989  -33.8762 H   0  0  0  0  0  0  0  0  0  0  0  0
   -0.6411   19.8974  -35.0321 H   0  0  0  0  0  0  0  0  0  0  0  0
   -2.0415   18.0995  -34.0084 H   0  0  0  0  0  0  0  0  0  0  0  0
   -3.1743   18.4884  -31.8211 H   0  0  0  0  0  0  0  0  0  0  0  0
   -3.9402   22.7124  -31.6777 H   0  0  0  0  0  0  0  0  0  0  0  0
   -4.4201   21.6873  -33.4771 H   0  0  0  0  0  0  0  0  0  0  0  0
   -6.1010   16.6485  -33.5504 H   0  0  0  0  0  0  0  0  0  0  0  0
   -7.0075   17.4137  -34.8993 H   0  0  0  0  0  0  0  0  0  0  0  0
   -5.2113   17.4331  -34.8993 H   0  0  0  0  0  0  0  0  0  0  0  0
   -8.0211   17.9728  -30.8993 H   0  0  0  0  0  0  0  0  0  0  0  0
   -9.0077   18.2347  -32.3774 H   0  0  0  0  0  0  0  0  0  0  0  0
   -7.6991   17.0041  -32.3774 H   0  0  0  0  0  0  0  0  0  0  0  0
  1  2  1  0
  2  3  1  0
  3  4  2  0
  4  5  1  0
  5  6  2  0
  6  7  1  0
  7  8  1  0
  8  9  2  0
  8 10  1  0
 10 11  1  0
 11 12  2  0
 12 13  1  0
 13 14  2  0
 14 15  1  0
 15 16  2  0
 16 17  1  0
 17 18  1  0
 18 19  2  0
 19 20  1  0
 20 21  2  0
 21 22  1  0
 22 23  2  0
  6 24  1  0
 24 25  2  0
 25 26  1  0
 26 27  2  0
 27 28  1  0
 28 29  2  0
 29 30  1  0
 29 31  1  0
 31 32  1  0
 31 33  2  0
 25  3  1  0
 33 26  1  0
 16 11  1  0
 23 18  1  0
  1 34  1  0
  1 35  1  0
  1 36  1  0
  4 37  1  0
  5 38  1  0
 12 39  1  0
 13 40  1  0
 14 41  1  0
 15 42  1  0
 19 43  1  0
 20 44  1  0
 21 45  1  0
 22 46  1  0
 23 47  1  0
 24 48  1  0
 27 49  1  0
 30 50  1  0
 30 51  1  0
 30 52  1  0
 32 53  1  0
 32 54  1  0
 32 55  1  0
M  CHG  2   7  -1  10  -1
M  END
>  <UniqueID>  (21) 
18

>  <SMILES>  (21) 
COc1ccc([N-]C(=O)[N-]c2ccccc2Oc2ccccc2)cc1-c1cnc(C)c(C)n1

>  <Energy>  (21) 
76.41045016168405

>  <Genealogy>  (21) 
COc1ccc([N-]C(=O)[N-]c2ccccc2Oc2ccccc2)cc1-c1cnc(C)c(C)n1 (protonated)
COc1ccc([N-]C(=O)[N-]c2ccccc2Oc2ccccc2)cc1-c1cnc(C)c(C)n1 (3D coordinates assigned)
COc1ccc([N-]C(=O)[N-]c2ccccc2Oc2ccccc2)cc1-c1cnc(C)c(C)n1 (optimized conformer: 76.41045016168405 kcal/mol)

>  <smiles>  (21) 
COc1ccc(NC(=O)Nc2ccccc2Oc2ccccc2)cc1-c1cnc(C)c(C)n1

>  <score_type>  (21) 
oracle

>  <origin>  (21) 
adgpu

>  <m_score__min__energy>  (21) 
-12.880000000000001

>  <m_primary>  (21) 
energy

$$$$
21:0
     RDKit          3D

 42 43  0  0  0  0  0  0  0  0999 V2000
   -3.4763   15.0524  -35.0150 H   0  0  0  0  0  0  0  0  0  0  0  0
   -4.4800   15.0560  -34.5650 C   0  0  0  0  0  0  0  0  0  0  0  0
   -4.9350   16.3020  -33.9220 C   0  0  0  0  0  0  0  0  0  0  0  0
   -4.1040   16.9710  -33.2520 O   0  0  0  0  0  0  0  0  0  0  0  0
   -6.2860   16.7690  -34.0910 N   0  0  0  0  0  0  0  0  0  0  0  0
   -6.9520   16.1750  -34.6350 H   0  0  0  0  0  0  0  0  0  0  0  0
   -6.8130   17.9530  -33.4700 C   0  0  0  0  0  0  0  0  0  0  0  0
   -6.3010   19.2050  -33.8390 C   0  0  0  0  0  0  0  0  0  0  0  0
   -5.5184   19.2701  -34.6093 H   0  0  0  0  0  0  0  0  0  0  0  0
   -6.7790   20.3710  -33.2340 C   0  0  0  0  0  0  0  0  0  0  0  0
   -6.3785   21.3495  -33.5374 H   0  0  0  0  0  0  0  0  0  0  0  0
   -7.7660   20.2980  -32.2430 C   0  0  0  0  0  0  0  0  0  0  0  0
   -8.3450   21.7640  -31.4620 S   0  0  0  0  0  0  0  0  0  0  0  0
   -9.0910   21.4130  -30.2040 O   0  0  0  0  0  0  0  0  0  0  0  0
   -9.2910   22.4930  -32.3760 O   0  0  0  0  0  0  0  0  0  0  0  0
   -6.9700   22.7910  -31.0780 C   0  0  0  0  0  0  0  0  0  0  0  0
   -5.7130   22.2220  -30.8320 C   0  0  0  0  0  0  0  0  0  0  0  0
   -5.5828   21.1316  -30.8956 H   0  0  0  0  0  0  0  0  0  0  0  0
   -4.6240   23.0360  -30.5060 C   0  0  0  0  0  0  0  0  0  0  0  0
   -3.6386   22.5844  -30.3187 H   0  0  0  0  0  0  0  0  0  0  0  0
   -4.7840   24.4270  -30.4170 C   0  0  0  0  0  0  0  0  0  0  0  0
   -3.6720   25.2600  -30.0830 N   0  0  0  0  0  0  0  0  0  0  0  0
   -3.4390   25.4670  -29.0850 H   0  0  0  0  0  0  0  0  0  0  0  0
   -3.0720   25.6770  -30.8290 H   0  0  0  0  0  0  0  0  0  0  0  0
   -6.0450   24.9940  -30.6540 C   0  0  0  0  0  0  0  0  0  0  0  0
   -6.1778   26.0837  -30.5840 H   0  0  0  0  0  0  0  0  0  0  0  0
   -7.1340   24.1790  -30.9790 C   0  0  0  0  0  0  0  0  0  0  0  0
   -8.1219   24.6288  -31.1574 H   0  0  0  0  0  0  0  0  0  0  0  0
   -8.2560   19.0470  -31.8460 C   0  0  0  0  0  0  0  0  0  0  0  0
   -9.0181   18.9827  -31.0554 H   0  0  0  0  0  0  0  0  0  0  0  0
   -7.7800   17.8800  -32.4510 C   0  0  0  0  0  0  0  0  0  0  0  0
   -8.1633   16.9006  -32.1288 H   0  0  0  0  0  0  0  0  0  0  0  0
   -5.1980   13.9280  -34.6420 C   0  0  0  0  0  0  0  0  0  0  0  0
   -4.8003   13.1020  -35.2499 H   0  0  0  0  0  0  0  0  0  0  0  0
   -6.4960   13.7270  -33.9570 C   0  0  0  0  0  0  0  0  0  0  0  0
   -6.5657   13.9787  -32.8885 H   0  0  0  0  0  0  0  0  0  0  0  0
   -7.5890   13.2550  -34.5700 C   0  0  0  0  0  0  0  0  0  0  0  0
   -8.5020   13.1202  -33.9715 H   0  0  0  0  0  0  0  0  0  0  0  0
   -7.6390   12.9000  -36.0250 C   0  0  0  0  0  0  0  0  0  0  0  0
   -7.7917   11.8160  -36.1329 H   0  0  0  0  0  0  0  0  0  0  0  0
   -8.4704   13.4370  -36.5051 H   0  0  0  0  0  0  0  0  0  0  0  0
   -6.6916   13.1864  -36.5051 H   0  0  0  0  0  0  0  0  0  0  0  0
  1  2  1  0
  2  3  1  0
  3  4  2  0
  3  5  1  0
  5  6  1  0
  5  7  1  0
  7  8  2  0
  8  9  1  0
  8 10  1  0
 10 11  1  0
 10 12  2  0
 12 13  1  0
 13 14  2  0
 13 15  2  0
 13 16  1  0
 16 17  2  0
 17 18  1  0
 17 19  1  0
 19 20  1  0
 19 21  2  0
 21 22  1  0
 22 23  1  0
 22 24  1  0
 21 25  1  0
 25 26  1  0
 25 27  2  0
 27 28  1  0
 12 29  1  0
 29 30  1  0
 29 31  2  0
 31 32  1  0
  2 33  2  0
 33 34  1  0
 33 35  1  0
 35 36  1  0
 35 37  2  0
 37 38  1  0
 37 39  1  0
 39 40  1  0
 39 41  1  0
 39 42  1  0
 31  7  1  0
 27 16  1  0
M  END
>  <UniqueID>  (22) 
19

>  <SMILES>  (22) 
C/C=C\C=CC(=O)Nc1ccc(S(=O)(=O)c2ccc(N)cc2)cc1

>  <Energy>  (22) 
49.19109620511149

>  <Genealogy>  (22) 
C/C=C\C=CC(=O)Nc1ccc(S(=O)(=O)c2ccc(N)cc2)cc1 (cis-trans isomerization)
C/C=C\C=CC(=O)Nc1ccc(S(=O)(=O)c2ccc(N)cc2)cc1 (3D coordinates assigned)
C/C=C\C=CC(=O)Nc1ccc(S(=O)(=O)c2ccc(N)cc2)cc1 (optimized conformer: 49.19109620511149 kcal/mol)

>  <smiles>  (22) 
CC=CC=CC(=O)Nc1ccc(S(=O)(=O)c2ccc(N)cc2)cc1

>  <score_type>  (22) 
oracle

>  <origin>  (22) 
adgpu

>  <m_score__min__energy>  (22) 
-9.2899999999999991

>  <m_primary>  (22) 
energy

$$$$
22:0
     RDKit          3D

 59 62  0  0  0  0  0  0  0  0999 V2000
   -4.4390   25.6790  -30.9330 O   0  0  0  0  0  0  0  0  0  0  0  0
   -4.9460   24.5090  -30.1370 S   0  0  0  0  0  0  0  0  0  0  0  0
   -6.4360   24.6390  -29.9850 O   0  0  0  0  0  0  0  0  0  0  0  0
   -4.1920   24.5000  -28.5780 N   0  0  0  0  0  0  0  0  0  0  0  0
   -2.9510   23.8190  -28.3750 C   0  0  0  0  0  0  0  0  0  0  0  0
   -2.9510   22.5230  -27.8380 C   0  0  0  0  0  0  0  0  0  0  0  0
   -1.7450   21.8280  -27.6620 C   0  0  0  0  0  0  0  0  0  0  0  0
   -1.7450   20.1910  -27.0030 S   0  0  0  0  0  0  0  0  0  0  0  0
   -1.6490   20.2670  -25.5040 O   0  0  0  0  0  0  0  0  0  0  0  0
   -3.0450   19.5210  -27.3600 O   0  0  0  0  0  0  0  0  0  0  0  0
   -0.3970   19.2680  -27.6230 N   0  0  0  0  0  0  0  0  0  0  0  0
   -0.4090   19.2950  -29.0950 C   0  0  0  0  0  0  0  0  0  0  0  0
    0.6950   18.3820  -29.6420 C   0  0  0  0  0  0  0  0  0  0  0  0
    0.5160   17.0550  -29.1870 O   0  0  0  0  0  0  0  0  0  0  0  0
    0.6000   17.0180  -27.7750 C   0  0  0  0  0  0  0  0  0  0  0  0
   -0.4990   17.8800  -27.1410 C   0  0  0  0  0  0  0  0  0  0  0  0
   -0.5370   22.4370  -28.0290 C   0  0  0  0  0  0  0  0  0  0  0  0
   -0.5340   23.7250  -28.5690 C   0  0  0  0  0  0  0  0  0  0  0  0
   -1.7350   24.4140  -28.7530 C   0  0  0  0  0  0  0  0  0  0  0  0
   -1.7190   25.6770  -29.3360 O   0  0  0  0  0  0  0  0  0  0  0  0
   -4.5420   23.0120  -30.9650 C   0  0  0  0  0  0  0  0  0  0  0  0
   -5.5690   22.1730  -31.4140 C   0  0  0  0  0  0  0  0  0  0  0  0
   -5.2680   20.9990  -32.1060 C   0  0  0  0  0  0  0  0  0  0  0  0
   -3.9330   20.6510  -32.3570 C   0  0  0  0  0  0  0  0  0  0  0  0
   -3.5530   19.1920  -33.2760 S   0  0  0  0  0  0  0  0  0  0  0  0
   -2.5810   18.3510  -32.4960 O   0  0  0  0  0  0  0  0  0  0  0  0
   -2.8960   19.5830  -34.5710 O   0  0  0  0  0  0  0  0  0  0  0  0
   -4.9870   18.2520  -33.6110 N   0  0  0  0  0  0  0  0  0  0  0  0
   -4.6310   16.9910  -34.2910 C   0  0  0  0  0  0  0  0  0  0  0  0
   -5.8040   15.9910  -34.2500 C   0  0  0  0  0  0  0  0  0  0  0  0
   -7.0240   16.6620  -34.0060 O   0  0  0  0  0  0  0  0  0  0  0  0
   -7.0250   17.2180  -32.7010 C   0  0  0  0  0  0  0  0  0  0  0  0
   -5.7230   17.9770  -32.3700 C   0  0  0  0  0  0  0  0  0  0  0  0
   -2.9030   21.4820  -31.8960 C   0  0  0  0  0  0  0  0  0  0  0  0
   -3.2050   22.6600  -31.2050 C   0  0  0  0  0  0  0  0  0  0  0  0
   -4.4240   25.2950  -27.9420 H   0  0  0  0  0  0  0  0  0  0  0  0
   -3.9019   22.0490  -27.5533 H   0  0  0  0  0  0  0  0  0  0  0  0
   -1.3861   18.9440  -29.4584 H   0  0  0  0  0  0  0  0  0  0  0  0
   -0.2322   20.3244  -29.4401 H   0  0  0  0  0  0  0  0  0  0  0  0
    0.6624   18.3944  -30.7414 H   0  0  0  0  0  0  0  0  0  0  0  0
    1.6682   18.7504  -29.2854 H   0  0  0  0  0  0  0  0  0  0  0  0
    0.4847   15.9786  -27.4340 H   0  0  0  0  0  0  0  0  0  0  0  0
    1.5794   17.4148  -27.4696 H   0  0  0  0  0  0  0  0  0  0  0  0
   -1.4835   17.4720  -27.4134 H   0  0  0  0  0  0  0  0  0  0  0  0
   -0.3781   17.8695  -26.0477 H   0  0  0  0  0  0  0  0  0  0  0  0
    0.4122   21.8984  -27.8912 H   0  0  0  0  0  0  0  0  0  0  0  0
    0.4180   24.1987  -28.8505 H   0  0  0  0  0  0  0  0  0  0  0  0
   -6.6183   22.4405  -31.2204 H   0  0  0  0  0  0  0  0  0  0  0  0
   -6.0803   20.3448  -32.4555 H   0  0  0  0  0  0  0  0  0  0  0  0
   -4.3786   17.2066  -35.3397 H   0  0  0  0  0  0  0  0  0  0  0  0
   -3.7706   16.5436  -33.7718 H   0  0  0  0  0  0  0  0  0  0  0  0
   -5.8664   15.4678  -35.2156 H   0  0  0  0  0  0  0  0  0  0  0  0
   -5.6272   15.2715  -33.4369 H   0  0  0  0  0  0  0  0  0  0  0  0
   -7.8697   17.9177  -32.6184 H   0  0  0  0  0  0  0  0  0  0  0  0
   -7.1117   16.3851  -31.9877 H   0  0  0  0  0  0  0  0  0  0  0  0
   -5.9687   18.9263  -31.8715 H   0  0  0  0  0  0  0  0  0  0  0  0
   -5.1002   17.3628  -31.7030 H   0  0  0  0  0  0  0  0  0  0  0  0
   -1.8536   21.2069  -32.0782 H   0  0  0  0  0  0  0  0  0  0  0  0
   -2.3932   23.3115  -30.8492 H   0  0  0  0  0  0  0  0  0  0  0  0
  1  2  2  0
  2  3  2  0
  2  4  1  0
  4  5  1  0
  5  6  2  0
  6  7  1  0
  7  8  1  0
  8  9  2  0
  8 10  2  0
  8 11  1  0
 11 12  1  0
 12 13  1  0
 13 14  1  0
 14 15  1  0
 15 16  1  0
  7 17  2  0
 17 18  1  0
 18 19  2  0
 19 20  1  0
  2 21  1  0
 21 22  2  0
 22 23  1  0
 23 24  2  0
 24 25  1  0
 25 26  2  0
 25 27  2  0
 25 28  1  0
 28 29  1  0
 29 30  1  0
 30 31  1  0
 31 32  1  0
 32 33  1  0
 24 34  1  0
 34 35  2  0
 19  5  1  0
 35 21  1  0
 16 11  1  0
 33 28  1  0
  4 36  1  0
  6 37  1  0
 12 38  1  0
 12 39  1  0
 13 40  1  0
 13 41  1  0
 15 42  1  0
 15 43  1  0
 16 44  1  0
 16 45  1  0
 17 46  1  0
 18 47  1  0
 22 48  1  0
 23 49  1  0
 29 50  1  0
 29 51  1  0
 30 52  1  0
 30 53  1  0
 32 54  1  0
 32 55  1  0
 33 56  1  0
 33 57  1  0
 34 58  1  0
 35 59  1  0
M  CHG  1  20  -1
M  END
>  <UniqueID>  (23) 
20

>  <SMILES>  (23) 
O=S(=O)(Nc1cc(S(=O)(=O)N2CCOCC2)ccc1[O-])c1ccc(S(=O)(=O)N2CCOCC2)cc1

>  <Energy>  (23) 
73.67758010939008

>  <Genealogy>  (23) 
O=S(=O)(Nc1cc(S(=O)(=O)N2CCOCC2)ccc1[O-])c1ccc(S(=O)(=O)N2CCOCC2)cc1 (protonated)
O=S(=O)(Nc1cc(S(=O)(=O)N2CCOCC2)ccc1[O-])c1ccc(S(=O)(=O)N2CCOCC2)cc1 (3D coordinates assigned)
O=S(=O)(Nc1cc(S(=O)(=O)N2CCOCC2)ccc1[O-])c1ccc(S(=O)(=O)N2CCOCC2)cc1 (nonaromatic ring conformer: 73.67758010939008 kcal/mol)

>  <smiles>  (23) 
O=S(=O)(Nc1cc(S(=O)(=O)N2CCOCC2)ccc1O)c1ccc(S(=O)(=O)N2CCOCC2)cc1

>  <score_type>  (23) 
oracle

>  <origin>  (23) 
adgpu

>  <m_score__min__energy>  (23) 
-15.220000000000001

>  <m_primary>  (23) 
energy

$$$$
23:0
     RDKit          3D

 54 58  0  0  0  0  0  0  0  0999 V2000
   -4.7170   15.3020  -31.9970 C   0  0  0  0  0  0  0  0  0  0  0  0
   -5.0720   16.4380  -32.9090 C   0  0  0  0  0  0  0  0  0  0  0  0
   -5.7930   16.2020  -34.0890 C   0  0  0  0  0  0  0  0  0  0  0  0
   -6.0870   17.2580  -34.9550 C   0  0  0  0  0  0  0  0  0  0  0  0
   -5.6530   18.5520  -34.6560 C   0  0  0  0  0  0  0  0  0  0  0  0
   -4.9250   18.8040  -33.4830 C   0  0  0  0  0  0  0  0  0  0  0  0
   -4.4760   20.1360  -33.1750 N   0  0  0  0  0  0  0  0  0  0  0  0
   -3.2510   20.6660  -33.3770 C   0  0  0  0  0  0  0  0  0  0  0  0
   -1.8300   19.7860  -34.0400 S   0  0  0  0  0  0  0  0  0  0  0  0
   -0.5980   20.6950  -33.0480 C   0  0  0  0  0  0  0  0  0  0  0  0
   -0.9420   20.6530  -31.5940 C   0  0  0  0  0  0  0  0  0  0  0  0
   -0.9300   19.5200  -30.7860 C   0  0  0  0  0  0  0  0  0  0  0  0
   -1.2790   19.7500  -29.4940 N   0  0  0  0  0  0  0  0  0  0  0  0
   -1.5610   21.0490  -29.2580 C   0  0  0  0  0  0  0  0  0  0  0  0
   -1.9680   21.4730  -28.0970 N   0  0  0  0  0  0  0  0  0  0  0  0
   -2.2630   22.8320  -27.7470 C   0  0  0  0  0  0  0  0  0  0  0  0
   -1.3090   23.6250  -27.5290 O   0  0  0  0  0  0  0  0  0  0  0  0
   -3.6720   23.3530  -27.7190 C   0  0  0  0  0  0  0  0  0  0  0  0
   -4.0090   24.0050  -29.0240 C   0  0  0  0  0  0  0  0  0  0  0  0
   -5.1180   23.8170  -29.6950 O   0  0  0  0  0  0  0  0  0  0  0  0
   -5.0420   24.5860  -30.7580 C   0  0  0  0  0  0  0  0  0  0  0  0
   -5.9500   24.6500  -31.6270 O   0  0  0  0  0  0  0  0  0  0  0  0
   -3.9010   25.3060  -30.8330 N   0  0  0  0  0  0  0  0  0  0  0  0
   -3.2560   24.9240  -29.7180 C   0  0  0  0  0  0  0  0  0  0  0  0
   -2.0070   25.4060  -29.3420 O   0  0  0  0  0  0  0  0  0  0  0  0
   -1.4080   21.9770  -30.6620 S   0  0  0  0  0  0  0  0  0  0  0  0
   -3.2170   21.9740  -33.0620 N   0  0  0  0  0  0  0  0  0  0  0  0
   -4.4340   22.3050  -32.6560 N   0  0  0  0  0  0  0  0  0  0  0  0
   -5.1920   21.1930  -32.7230 C   0  0  0  0  0  0  0  0  0  0  0  0
   -6.6130   21.1670  -32.3150 C   0  0  0  0  0  0  0  0  0  0  0  0
   -7.0770   21.9630  -31.2530 C   0  0  0  0  0  0  0  0  0  0  0  0
   -8.4210   21.9180  -30.8740 C   0  0  0  0  0  0  0  0  0  0  0  0
   -9.3160   21.0920  -31.5600 C   0  0  0  0  0  0  0  0  0  0  0  0
   -8.8690   20.3160  -32.6330 C   0  0  0  0  0  0  0  0  0  0  0  0
   -7.5250   20.3590  -33.0160 C   0  0  0  0  0  0  0  0  0  0  0  0
   -4.6340   17.7380  -32.6150 C   0  0  0  0  0  0  0  0  0  0  0  0
   -4.8183   15.6263  -30.9508 H   0  0  0  0  0  0  0  0  0  0  0  0
   -5.3934   14.4553  -32.1856 H   0  0  0  0  0  0  0  0  0  0  0  0
   -3.6789   14.9911  -32.1856 H   0  0  0  0  0  0  0  0  0  0  0  0
   -6.1277   15.1829  -34.3330 H   0  0  0  0  0  0  0  0  0  0  0  0
   -6.6614   17.0704  -35.8742 H   0  0  0  0  0  0  0  0  0  0  0  0
   -5.8834   19.3785  -35.3444 H   0  0  0  0  0  0  0  0  0  0  0  0
    0.3913   20.2376  -33.1966 H   0  0  0  0  0  0  0  0  0  0  0  0
   -0.5912   21.7451  -33.3756 H   0  0  0  0  0  0  0  0  0  0  0  0
   -0.6605   18.5221  -31.1623 H   0  0  0  0  0  0  0  0  0  0  0  0
   -1.3310   19.0010  -28.7690 H   0  0  0  0  0  0  0  0  0  0  0  0
   -4.3648   22.5173  -27.5409 H   0  0  0  0  0  0  0  0  0  0  0  0
   -3.7638   24.0957  -26.9128 H   0  0  0  0  0  0  0  0  0  0  0  0
   -6.3790   22.6239  -30.7183 H   0  0  0  0  0  0  0  0  0  0  0  0
   -8.7755   22.5337  -30.0342 H   0  0  0  0  0  0  0  0  0  0  0  0
  -10.3722   21.0527  -31.2553 H   0  0  0  0  0  0  0  0  0  0  0  0
   -9.5750   19.6710  -33.1766 H   0  0  0  0  0  0  0  0  0  0  0  0
   -7.1796   19.7577  -33.8699 H   0  0  0  0  0  0  0  0  0  0  0  0
   -4.0576   17.9244  -31.6968 H   0  0  0  0  0  0  0  0  0  0  0  0
  1  2  1  0
  2  3  2  0
  3  4  1  0
  4  5  2  0
  5  6  1  0
  6  7  1  0
  7  8  1  0
  8  9  1  0
  9 10  1  0
 10 11  1  0
 11 12  2  0
 12 13  1  0
 13 14  1  0
 14 15  2  3
 15 16  1  0
 16 17  2  0
 16 18  1  0
 18 19  1  0
 19 20  1  0
 20 21  1  0
 21 22  2  0
 21 23  1  0
 23 24  1  0
 24 25  1  0
 14 26  1  0
  8 27  2  0
 27 28  1  0
 28 29  2  0
 29 30  1  0
 30 31  2  0
 31 32  1  0
 32 33  2  0
 33 34  1  0
 34 35  2  0
  6 36  2  0
 36  2  1  0
 29  7  1  0
 35 30  1  0
 26 11  1  0
 24 19  2  0
  1 37  1  0
  1 38  1  0
  1 39  1  0
  3 40  1  0
  4 41  1  0
  5 42  1  0
 10 43  1  0
 10 44  1  0
 12 45  1  0
 13 46  1  0
 18 47  1  0
 18 48  1  0
 31 49  1  0
 32 50  1  0
 33 51  1  0
 34 52  1  0
 35 53  1  0
 36 54  1  0
M  CHG  2  23  -1  25  -1
M  END
>  <UniqueID>  (24) 
21

>  <SMILES>  (24) 
Cc1cccc(-n2c(SCc3c[nH]c(=NC(=O)Cc4oc(=O)[n-]c4[O-])s3)nnc2-c2ccccc2)c1

>  <Energy>  (24) 
159.97652793650306

>  <Genealogy>  (24) 
Cc1cccc(-n2c(SCc3c[nH]c(=NC(=O)Cc4oc(=O)[n-]c4[O-])s3)nnc2-c2ccccc2)c1 (protonated)
Cc1cccc(-n2c(SCc3c[nH]c(=NC(=O)Cc4oc(=O)[n-]c4[O-])s3)nnc2-c2ccccc2)c1 (3D coordinates assigned)
Cc1cccc(-n2c(SCc3c[nH]c(=NC(=O)Cc4oc(=O)[n-]c4[O-])s3)nnc2-c2ccccc2)c1 (optimized conformer: 159.97652793650306 kcal/mol)

>  <smiles>  (24) 
Cc1cccc(-n2c(SCc3c[nH]c(=NC(=O)Cc4oc(=O)[nH]c4O)s3)nnc2-c2ccccc2)c1

>  <score_type>  (24) 
oracle

>  <origin>  (24) 
adgpu

>  <m_score__min__energy>  (24) 
-14.9

>  <m_primary>  (24) 
energy

$$$$
24:0
     RDKit          3D

 42 44  0  0  0  0  0  0  0  0999 V2000
    0.1980   25.6640  -27.6680 N   0  0  0  0  0  0  0  0  0  0  0  0
   -0.6490   25.0780  -28.1980 C   0  0  0  0  0  0  0  0  0  0  0  0
   -1.7000   24.3520  -28.8550 C   0  0  0  0  0  0  0  0  0  0  0  0
   -1.9060   22.9980  -28.7850 C   0  0  0  0  0  0  0  0  0  0  0  0
   -2.9850   22.6880  -29.5230 N   0  0  0  0  0  0  0  0  0  0  0  0
   -3.3920   23.8750  -30.0260 C   0  0  0  0  0  0  0  0  0  0  0  0
   -4.5770   24.0270  -30.8890 C   0  0  0  0  0  0  0  0  0  0  0  0
   -5.3940   24.9550  -30.6510 O   0  0  0  0  0  0  0  0  0  0  0  0
   -4.8650   23.1080  -31.9500 N   0  0  0  0  0  0  0  0  0  0  0  0
   -5.8930   22.1040  -31.9490 C   0  0  0  0  0  0  0  0  0  0  0  0
   -7.2090   22.4350  -31.5830 C   0  0  0  0  0  0  0  0  0  0  0  0
   -8.2190   21.4700  -31.6160 C   0  0  0  0  0  0  0  0  0  0  0  0
   -9.8610   21.9020  -31.1740 Cl  0  0  0  0  0  0  0  0  0  0  0  0
   -7.9220   20.1630  -32.0030 C   0  0  0  0  0  0  0  0  0  0  0  0
   -6.6130   19.8120  -32.3420 C   0  0  0  0  0  0  0  0  0  0  0  0
   -5.5820   20.7690  -32.2980 C   0  0  0  0  0  0  0  0  0  0  0  0
   -4.2030   20.3560  -32.6560 C   0  0  0  0  0  0  0  0  0  0  0  0
   -4.0190   19.2520  -33.2370 O   0  0  0  0  0  0  0  0  0  0  0  0
   -3.0760   21.1650  -32.2820 N   0  0  0  0  0  0  0  0  0  0  0  0
   -1.7890   21.0910  -32.9200 C   0  0  0  0  0  0  0  0  0  0  0  0
   -0.5980   21.2610  -32.1920 C   0  0  0  0  0  0  0  0  0  0  0  0
    0.6420   21.1580  -32.8310 C   0  0  0  0  0  0  0  0  0  0  0  0
    0.7120   20.8500  -34.1960 C   0  0  0  0  0  0  0  0  0  0  0  0
    2.0320   20.7960  -34.8580 C   0  0  0  0  0  0  0  0  0  0  0  0
    2.5840   21.7870  -35.5760 C   0  0  0  0  0  0  0  0  0  0  0  0
    1.9090   23.0340  -35.9850 C   0  0  0  0  0  0  0  0  0  0  0  0
    0.8300   23.4040  -35.4530 O   0  0  0  0  0  0  0  0  0  0  0  0
    2.4410   23.7810  -37.0270 O   0  0  0  0  0  0  0  0  0  0  0  0
   -0.4770   20.6920  -34.9270 C   0  0  0  0  0  0  0  0  0  0  0  0
   -1.7150   20.7930  -34.2890 C   0  0  0  0  0  0  0  0  0  0  0  0
   -2.6340   24.9210  -29.6320 N   0  0  0  0  0  0  0  0  0  0  0  0
   -1.2900   22.2841  -28.2185 H   0  0  0  0  0  0  0  0  0  0  0  0
   -7.4458   23.4620  -31.2680 H   0  0  0  0  0  0  0  0  0  0  0  0
   -8.7203   19.4072  -32.0413 H   0  0  0  0  0  0  0  0  0  0  0  0
   -6.3863   18.7794  -32.6458 H   0  0  0  0  0  0  0  0  0  0  0  0
   -3.1740   21.7780  -31.4410 H   0  0  0  0  0  0  0  0  0  0  0  0
   -0.6417   21.4762  -31.1141 H   0  0  0  0  0  0  0  0  0  0  0  0
    1.5673   21.3197  -32.2586 H   0  0  0  0  0  0  0  0  0  0  0  0
    2.6106   19.8663  -34.7538 H   0  0  0  0  0  0  0  0  0  0  0  0
    3.6313   21.6582  -35.8867 H   0  0  0  0  0  0  0  0  0  0  0  0
   -0.4327   20.4878  -36.0070 H   0  0  0  0  0  0  0  0  0  0  0  0
   -2.6396   20.6377  -34.8643 H   0  0  0  0  0  0  0  0  0  0  0  0
  1  2  3  0
  2  3  1  0
  3  4  2  0
  4  5  1  0
  5  6  1  0
  6  7  1  0
  7  8  2  0
  7  9  1  0
  9 10  1  0
 10 11  2  0
 11 12  1  0
 12 13  1  0
 12 14  2  0
 14 15  1  0
 15 16  2  0
 16 17  1  0
 17 18  2  0
 17 19  1  0
 19 20  1  0
 20 21  2  0
 21 22  1  0
 22 23  2  0
 23 24  1  0
 24 25  2  3
 25 26  1  0
 26 27  2  0
 26 28  1  0
 23 29  1  0
 29 30  2  0
  6 31  2  0
 31  3  1  0
 16 10  1  0
 30 20  1  0
  4 32  1  0
 11 33  1  0
 14 34  1  0
 15 35  1  0
 19 36  1  0
 21 37  1  0
 22 38  1  0
 24 39  1  0
 25 40  1  0
 29 41  1  0
 30 42  1  0
M  CHG  3   5  -1   9  -1  28  -1
M  END
>  <UniqueID>  (25) 
22

>  <SMILES>  (25) 
N#Cc1c[n-]c(C(=O)[N-]c2cc(Cl)ccc2C(=O)Nc2ccc(C=CC(=O)[O-])cc2)n1

>  <Energy>  (25) 
91.22568638835533

>  <Genealogy>  (25) 
N#Cc1c[n-]c(C(=O)[N-]c2cc(Cl)ccc2C(=O)Nc2ccc(C=CC(=O)[O-])cc2)n1 (protonated)
N#Cc1c[n-]c(C(=O)[N-]c2cc(Cl)ccc2C(=O)Nc2ccc(C=CC(=O)[O-])cc2)n1 (3D coordinates assigned)
N#Cc1c[n-]c(C(=O)[N-]c2cc(Cl)ccc2C(=O)Nc2ccc(C=CC(=O)[O-])cc2)n1 (optimized conformer: 91.22568638835533 kcal/mol)

>  <smiles>  (25) 
N#Cc1c[nH]c(C(=O)Nc2cc(Cl)ccc2C(=O)Nc2ccc(C=CC(=O)O)cc2)n1

>  <score_type>  (25) 
oracle

>  <origin>  (25) 
adgpu

>  <m_score__min__energy>  (25) 
-12.33

>  <m_primary>  (25) 
energy

$$$$
25:0
     RDKit          3D

 47 50  0  0  0  0  0  0  0  0999 V2000
    0.0410   21.5860  -34.0600 O   0  0  0  0  0  0  0  0  0  0  0  0
   -0.6460   21.1490  -33.0960 C   0  0  0  0  0  0  0  0  0  0  0  0
   -0.2110   21.3680  -31.7470 N   0  0  0  0  0  0  0  0  0  0  0  0
   -1.0420   21.4300  -30.5780 C   0  0  0  0  0  0  0  0  0  0  0  0
   -1.6610   22.6260  -30.1700 C   0  0  0  0  0  0  0  0  0  0  0  0
   -2.4880   22.6430  -29.0380 C   0  0  0  0  0  0  0  0  0  0  0  0
   -3.2730   24.1350  -28.5280 S   0  0  0  0  0  0  0  0  0  0  0  0
   -2.7860   25.2990  -29.3460 O   0  0  0  0  0  0  0  0  0  0  0  0
   -2.9500   24.3850  -27.0820 O   0  0  0  0  0  0  0  0  0  0  0  0
   -4.9910   23.9930  -28.7160 N   0  0  0  0  0  0  0  0  0  0  0  0
   -5.6280   23.7890  -29.9840 C   0  0  0  0  0  0  0  0  0  0  0  0
   -6.9560   23.3900  -30.1330 C   0  0  0  0  0  0  0  0  0  0  0  0
   -7.2680   23.2870  -31.7810 S   0  0  0  0  0  0  0  0  0  0  0  0
   -5.7180   23.7470  -32.2320 C   0  0  0  0  0  0  0  0  0  0  0  0
   -4.9500   23.9840  -31.1470 N   0  0  0  0  0  0  0  0  0  0  0  0
   -2.7040   21.4620  -28.3170 C   0  0  0  0  0  0  0  0  0  0  0  0
   -2.1130   20.2680  -28.7350 C   0  0  0  0  0  0  0  0  0  0  0  0
   -1.2920   20.2490  -29.8660 C   0  0  0  0  0  0  0  0  0  0  0  0
   -0.7270   19.0810  -30.2620 F   0  0  0  0  0  0  0  0  0  0  0  0
   -1.8740   20.3630  -33.3620 C   0  0  0  0  0  0  0  0  0  0  0  0
   -1.7920   19.0870  -33.9500 C   0  0  0  0  0  0  0  0  0  0  0  0
   -2.9490   18.3440  -34.1930 C   0  0  0  0  0  0  0  0  0  0  0  0
   -4.2010   18.8660  -33.8620 C   0  0  0  0  0  0  0  0  0  0  0  0
   -4.3050   20.1460  -33.2930 C   0  0  0  0  0  0  0  0  0  0  0  0
   -5.5430   20.6980  -32.9320 O   0  0  0  0  0  0  0  0  0  0  0  0
   -6.6700   19.9700  -32.5220 C   0  0  0  0  0  0  0  0  0  0  0  0
   -7.9300   20.3570  -32.9960 C   0  0  0  0  0  0  0  0  0  0  0  0
   -9.0750   19.6470  -32.6240 C   0  0  0  0  0  0  0  0  0  0  0  0
   -8.9660   18.5370  -31.7810 C   0  0  0  0  0  0  0  0  0  0  0  0
   -7.7110   18.1310  -31.3180 C   0  0  0  0  0  0  0  0  0  0  0  0
   -6.5650   18.8390  -31.6910 C   0  0  0  0  0  0  0  0  0  0  0  0
   -3.1410   20.8790  -33.0310 C   0  0  0  0  0  0  0  0  0  0  0  0
   -1.4954   23.5512  -30.7414 H   0  0  0  0  0  0  0  0  0  0  0  0
   -5.5820   24.0290  -27.8560 H   0  0  0  0  0  0  0  0  0  0  0  0
   -7.6682   23.1811  -29.3211 H   0  0  0  0  0  0  0  0  0  0  0  0
   -5.3739   23.8426  -33.2724 H   0  0  0  0  0  0  0  0  0  0  0  0
   -3.3403   21.4750  -27.4198 H   0  0  0  0  0  0  0  0  0  0  0  0
   -2.2940   19.3400  -28.1728 H   0  0  0  0  0  0  0  0  0  0  0  0
   -0.8097   18.6721  -34.2200 H   0  0  0  0  0  0  0  0  0  0  0  0
   -2.8739   17.3446  -34.6465 H   0  0  0  0  0  0  0  0  0  0  0  0
   -5.1087   18.2730  -34.0474 H   0  0  0  0  0  0  0  0  0  0  0  0
   -8.0189   21.2254  -33.6654 H   0  0  0  0  0  0  0  0  0  0  0  0
  -10.0618   19.9615  -32.9945 H   0  0  0  0  0  0  0  0  0  0  0  0
   -9.8680   17.9830  -31.4820 H   0  0  0  0  0  0  0  0  0  0  0  0
   -7.6253   17.2539  -30.6598 H   0  0  0  0  0  0  0  0  0  0  0  0
   -5.5776   18.5111  -31.3338 H   0  0  0  0  0  0  0  0  0  0  0  0
   -3.2178   21.8704  -32.5606 H   0  0  0  0  0  0  0  0  0  0  0  0
  1  2  2  0
  2  3  1  0
  3  4  1  0
  4  5  2  0
  5  6  1  0
  6  7  1  0
  7  8  2  0
  7  9  2  0
  7 10  1  0
 10 11  1  0
 11 12  2  0
 12 13  1  0
 13 14  1  0
 14 15  2  0
  6 16  2  0
 16 17  1  0
 17 18  2  0
 18 19  1  0
  2 20  1  0
 20 21  2  0
 21 22  1  0
 22 23  2  0
 23 24  1  0
 24 25  1  0
 25 26  1  0
 26 27  2  0
 27 28  1  0
 28 29  2  0
 29 30  1  0
 30 31  2  0
 24 32  2  0
 18  4  1  0
 32 20  1  0
 15 11  1  0
 31 26  1  0
  5 33  1  0
 10 34  1  0
 12 35  1  0
 14 36  1  0
 16 37  1  0
 17 38  1  0
 21 39  1  0
 22 40  1  0
 23 41  1  0
 27 42  1  0
 28 43  1  0
 29 44  1  0
 30 45  1  0
 31 46  1  0
 32 47  1  0
M  CHG  1   3  -1
M  END
>  <UniqueID>  (26) 
23

>  <SMILES>  (26) 
O=C([N-]c1cc(S(=O)(=O)Nc2cscn2)ccc1F)c1cccc(Oc2ccccc2)c1

>  <Energy>  (26) 
93.64233145296129

>  <Genealogy>  (26) 
O=C([N-]c1cc(S(=O)(=O)Nc2cscn2)ccc1F)c1cccc(Oc2ccccc2)c1 (protonated)
O=C([N-]c1cc(S(=O)(=O)Nc2cscn2)ccc1F)c1cccc(Oc2ccccc2)c1 (3D coordinates assigned)
O=C([N-]c1cc(S(=O)(=O)Nc2cscn2)ccc1F)c1cccc(Oc2ccccc2)c1 (optimized conformer: 93.64233145296129 kcal/mol)

>  <smiles>  (26) 
O=C(Nc1cc(S(=O)(=O)Nc2cscn2)ccc1F)c1cccc(Oc2ccccc2)c1

>  <score_type>  (26) 
oracle

>  <origin>  (26) 
adgpu

>  <m_score__min__energy>  (26) 
-11.300000000000001

>  <m_primary>  (26) 
energy

$$$$
26:0
     RDKit          3D

 45 47  0  0  0  0  0  0  0  0999 V2000
   -0.2310   23.0810  -24.3600 C   0  0  0  0  0  0  0  0  0  0  0  0
   -0.5880   23.8980  -25.5610 C   0  0  0  0  0  0  0  0  0  0  0  0
   -0.1760   25.2310  -25.6580 C   0  0  0  0  0  0  0  0  0  0  0  0
   -0.5230   25.9740  -26.7870 C   0  0  0  0  0  0  0  0  0  0  0  0
   -1.2830   25.3870  -27.8050 C   0  0  0  0  0  0  0  0  0  0  0  0
   -1.5960   26.1100  -28.9560 O   0  0  0  0  0  0  0  0  0  0  0  0
   -1.7040   24.0540  -27.6620 C   0  0  0  0  0  0  0  0  0  0  0  0
   -2.4920   23.4140  -28.6770 N   0  0  0  0  0  0  0  0  0  0  0  0
   -3.9470   23.3230  -28.4950 C   0  0  0  0  0  0  0  0  0  0  0  0
   -4.6170   22.6670  -29.7030 C   0  0  0  0  0  0  0  0  0  0  0  0
   -3.9150   23.0980  -30.9190 N   0  0  0  0  0  0  0  0  0  0  0  0
   -4.8440   22.6770  -32.3350 S   0  0  0  0  0  0  0  0  0  0  0  0
   -5.7370   23.8320  -32.6970 O   0  0  0  0  0  0  0  0  0  0  0  0
   -3.9330   22.4060  -33.5000 O   0  0  0  0  0  0  0  0  0  0  0  0
   -5.8220   21.2280  -32.0170 C   0  0  0  0  0  0  0  0  0  0  0  0
   -5.2000   19.9750  -32.1680 C   0  0  0  0  0  0  0  0  0  0  0  0
   -5.9110   18.7940  -31.9710 C   0  0  0  0  0  0  0  0  0  0  0  0
   -7.2580   18.8410  -31.6280 C   0  0  0  0  0  0  0  0  0  0  0  0
   -7.8970   20.0690  -31.4660 C   0  0  0  0  0  0  0  0  0  0  0  0
   -7.1940   21.2820  -31.6290 C   0  0  0  0  0  0  0  0  0  0  0  0
   -7.9590   22.5870  -31.4620 C   0  0  0  0  0  0  0  0  0  0  0  0
   -9.2130   22.3280  -30.9450 F   0  0  0  0  0  0  0  0  0  0  0  0
   -7.3040   23.4430  -30.5920 F   0  0  0  0  0  0  0  0  0  0  0  0
   -8.0860   23.2510  -32.6650 F   0  0  0  0  0  0  0  0  0  0  0  0
   -2.5800   22.4710  -30.9910 C   0  0  0  0  0  0  0  0  0  0  0  0
   -1.8130   22.5500  -29.6520 C   0  0  0  0  0  0  0  0  0  0  0  0
   -1.3370   23.3490  -26.5550 N   0  0  0  0  0  0  0  0  0  0  0  0
   -0.4769   23.6438  -23.4474 H   0  0  0  0  0  0  0  0  0  0  0  0
   -0.7998   22.1396  -24.3747 H   0  0  0  0  0  0  0  0  0  0  0  0
    0.8462   22.8588  -24.3747 H   0  0  0  0  0  0  0  0  0  0  0  0
    0.4159   25.6893  -24.8520 H   0  0  0  0  0  0  0  0  0  0  0  0
   -0.1991   27.0214  -26.8769 H   0  0  0  0  0  0  0  0  0  0  0  0
   -2.0410   25.6710  -29.7530 H   0  0  0  0  0  0  0  0  0  0  0  0
   -4.1593   22.7232  -27.5977 H   0  0  0  0  0  0  0  0  0  0  0  0
   -4.3480   24.3414  -28.3855 H   0  0  0  0  0  0  0  0  0  0  0  0
   -4.5592   21.5725  -29.6099 H   0  0  0  0  0  0  0  0  0  0  0  0
   -5.6747   22.9647  -29.7540 H   0  0  0  0  0  0  0  0  0  0  0  0
   -4.1367   19.9276  -32.4457 H   0  0  0  0  0  0  0  0  0  0  0  0
   -5.4069   17.8232  -32.0868 H   0  0  0  0  0  0  0  0  0  0  0  0
   -7.8205   17.9067  -31.4842 H   0  0  0  0  0  0  0  0  0  0  0  0
   -8.9658   20.0932  -31.2071 H   0  0  0  0  0  0  0  0  0  0  0  0
   -2.7022   21.4127  -31.2650 H   0  0  0  0  0  0  0  0  0  0  0  0
   -1.9944   23.0200  -31.7431 H   0  0  0  0  0  0  0  0  0  0  0  0
   -1.7292   21.5373  -29.2308 H   0  0  0  0  0  0  0  0  0  0  0  0
   -0.8214   22.9811  -29.8543 H   0  0  0  0  0  0  0  0  0  0  0  0
  1  2  1  0
  2  3  2  0
  3  4  1  0
  4  5  2  0
  5  6  1  0
  5  7  1  0
  7  8  1  0
  8  9  1  0
  9 10  1  0
 10 11  1  0
 11 12  1  0
 12 13  2  0
 12 14  2  0
 12 15  1  0
 15 16  2  0
 16 17  1  0
 17 18  2  0
 18 19  1  0
 19 20  2  0
 20 21  1  0
 21 22  1  0
 21 23  1  0
 21 24  1  0
 11 25  1  0
 25 26  1  0
  7 27  2  0
 27  2  1  0
 26  8  1  0
 20 15  1  0
  1 28  1  0
  1 29  1  0
  1 30  1  0
  3 31  1  0
  4 32  1  0
  6 33  1  0
  9 34  1  0
  9 35  1  0
 10 36  1  0
 10 37  1  0
 16 38  1  0
 17 39  1  0
 18 40  1  0
 19 41  1  0
 25 42  1  0
 25 43  1  0
 26 44  1  0
 26 45  1  0
M  END
>  <UniqueID>  (27) 
24

>  <SMILES>  (27) 
Cc1ccc(O)c(N2CCN(S(=O)(=O)c3ccccc3C(F)(F)F)CC2)n1

>  <Energy>  (27) 
58.41209984107077

>  <Genealogy>  (27) 
Cc1ccc(O)c(N2CCN(S(=O)(=O)c3ccccc3C(F)(F)F)CC2)n1 (3D coordinates assigned)
Cc1ccc(O)c(N2CCN(S(=O)(=O)c3ccccc3C(F)(F)F)CC2)n1 (nonaromatic ring conformer: 58.41209984107077 kcal/mol)

>  <smiles>  (27) 
Cc1ccc(O)c(N2CCN(S(=O)(=O)c3ccccc3C(F)(F)F)CC2)n1

>  <score_type>  (27) 
oracle

>  <origin>  (27) 
adgpu

>  <m_score__min__energy>  (27) 
-8.8000000000000007

>  <m_primary>  (27) 
energy

$$$$
27:0
     RDKit          3D

 63 66  0  0  0  0  0  0  0  0999 V2000
   -5.6730   26.0560  -30.1040 O   0  0  0  0  0  0  0  0  0  0  0  0
   -5.0250   25.0090  -30.3740 C   0  0  0  0  0  0  0  0  0  0  0  0
   -3.5930   25.0380  -30.2840 N   0  0  0  0  0  0  0  0  0  0  0  0
   -2.8450   24.7830  -29.0870 C   0  0  0  0  0  0  0  0  0  0  0  0
   -3.4140   24.0900  -28.0030 C   0  0  0  0  0  0  0  0  0  0  0  0
   -2.6390   23.7700  -26.8880 C   0  0  0  0  0  0  0  0  0  0  0  0
   -1.2930   24.1560  -26.8320 C   0  0  0  0  0  0  0  0  0  0  0  0
   -0.2710   23.6220  -25.5010 S   0  0  0  0  0  0  0  0  0  0  0  0
   -0.9410   22.4760  -24.7960 O   0  0  0  0  0  0  0  0  0  0  0  0
    1.0540   23.1510  -26.0350 O   0  0  0  0  0  0  0  0  0  0  0  0
   -0.0380   24.9440  -24.3840 N   0  0  0  0  0  0  0  0  0  0  0  0
   -1.2100   25.8440  -24.4000 C   0  0  0  0  0  0  0  0  0  0  0  0
   -0.8940   27.1960  -23.7290 C   0  0  0  0  0  0  0  0  0  0  0  0
    0.2660   27.1060  -22.9270 O   0  0  0  0  0  0  0  0  0  0  0  0
    1.4010   26.8590  -23.7380 C   0  0  0  0  0  0  0  0  0  0  0  0
    1.1870   25.6850  -24.7240 C   0  0  0  0  0  0  0  0  0  0  0  0
   -0.7390   24.8890  -27.8900 C   0  0  0  0  0  0  0  0  0  0  0  0
   -1.5170   25.2140  -29.0050 C   0  0  0  0  0  0  0  0  0  0  0  0
   -5.7480   23.8000  -30.8270 C   0  0  0  0  0  0  0  0  0  0  0  0
   -5.3000   23.0800  -31.9480 C   0  0  0  0  0  0  0  0  0  0  0  0
   -5.9430   21.9030  -32.3360 C   0  0  0  0  0  0  0  0  0  0  0  0
   -7.0490   21.4350  -31.6170 C   0  0  0  0  0  0  0  0  0  0  0  0
   -7.8280   19.9200  -32.0700 S   0  0  0  0  0  0  0  0  0  0  0  0
   -8.3450   20.0140  -33.4800 O   0  0  0  0  0  0  0  0  0  0  0  0
   -8.9950   19.6880  -31.1490 O   0  0  0  0  0  0  0  0  0  0  0  0
   -6.6980   18.5920  -31.9340 N   0  0  0  0  0  0  0  0  0  0  0  0
   -5.3900   18.9950  -32.4970 C   0  0  0  0  0  0  0  0  0  0  0  0
   -5.4290   19.3010  -34.0060 C   0  0  0  0  0  0  0  0  0  0  0  0
   -5.7820   18.0910  -34.8870 C   0  0  0  0  0  0  0  0  0  0  0  0
   -5.4220   16.7120  -34.2910 C   0  0  0  0  0  0  0  0  0  0  0  0
   -6.1520   16.3750  -32.9760 C   0  0  0  0  0  0  0  0  0  0  0  0
   -7.2550   17.3860  -32.5810 C   0  0  0  0  0  0  0  0  0  0  0  0
   -7.5110   22.1580  -30.5080 C   0  0  0  0  0  0  0  0  0  0  0  0
   -6.8720   23.3420  -30.1220 C   0  0  0  0  0  0  0  0  0  0  0  0
   -4.4744   23.7992  -28.0347 H   0  0  0  0  0  0  0  0  0  0  0  0
   -3.0855   23.2134  -26.0508 H   0  0  0  0  0  0  0  0  0  0  0  0
    0.0650   24.5280  -23.4280 H   0  0  0  0  0  0  0  0  0  0  0  0
   -1.5082   26.0239  -25.4434 H   0  0  0  0  0  0  0  0  0  0  0  0
   -2.0231   25.3616  -23.8378 H   0  0  0  0  0  0  0  0  0  0  0  0
   -0.7340   27.9555  -24.5085 H   0  0  0  0  0  0  0  0  0  0  0  0
   -1.7425   27.4746  -23.0868 H   0  0  0  0  0  0  0  0  0  0  0  0
    1.6248   27.7677  -24.3161 H   0  0  0  0  0  0  0  0  0  0  0  0
    2.2323   26.5856  -23.0715 H   0  0  0  0  0  0  0  0  0  0  0  0
    1.0981   26.0821  -25.7460 H   0  0  0  0  0  0  0  0  0  0  0  0
    2.0466   25.0020  -24.6563 H   0  0  0  0  0  0  0  0  0  0  0  0
    0.3121   25.2099  -27.8430 H   0  0  0  0  0  0  0  0  0  0  0  0
   -1.0832   25.8109  -29.8208 H   0  0  0  0  0  0  0  0  0  0  0  0
   -4.4370   23.4463  -32.5234 H   0  0  0  0  0  0  0  0  0  0  0  0
   -5.5793   21.3418  -33.2094 H   0  0  0  0  0  0  0  0  0  0  0  0
   -5.0487   19.8977  -31.9690 H   0  0  0  0  0  0  0  0  0  0  0  0
   -4.7072   18.1434  -32.3609 H   0  0  0  0  0  0  0  0  0  0  0  0
   -6.1810   20.0848  -34.1795 H   0  0  0  0  0  0  0  0  0  0  0  0
   -4.4135   19.6132  -34.2910 H   0  0  0  0  0  0  0  0  0  0  0  0
   -6.8665   18.1092  -35.0704 H   0  0  0  0  0  0  0  0  0  0  0  0
   -5.1783   18.1940  -35.8007 H   0  0  0  0  0  0  0  0  0  0  0  0
   -5.6757   15.9402  -35.0326 H   0  0  0  0  0  0  0  0  0  0  0  0
   -4.3483   16.7437  -34.0541 H   0  0  0  0  0  0  0  0  0  0  0  0
   -6.6165   15.3838  -33.0844 H   0  0  0  0  0  0  0  0  0  0  0  0
   -5.3949   16.4084  -32.1787 H   0  0  0  0  0  0  0  0  0  0  0  0
   -7.7993   17.6892  -33.4875 H   0  0  0  0  0  0  0  0  0  0  0  0
   -7.9237   16.8931  -31.8600 H   0  0  0  0  0  0  0  0  0  0  0  0
   -8.3790   21.7933  -29.9391 H   0  0  0  0  0  0  0  0  0  0  0  0
   -7.2519   23.9153  -29.2635 H   0  0  0  0  0  0  0  0  0  0  0  0
  1  2  2  0
  2  3  1  0
  3  4  1  0
  4  5  2  0
  5  6  1  0
  6  7  2  0
  7  8  1  0
  8  9  2  0
  8 10  2  0
  8 11  1  0
 11 12  1  0
 12 13  1  0
 13 14  1  0
 14 15  1  0
 15 16  1  0
  7 17  1  0
 17 18  2  0
  2 19  1  0
 19 20  2  0
 20 21  1  0
 21 22  2  0
 22 23  1  0
 23 24  2  0
 23 25  2  0
 23 26  1  0
 26 27  1  0
 27 28  1  0
 28 29  1  0
 29 30  1  0
 30 31  1  0
 31 32  1  0
 22 33  1  0
 33 34  2  0
 18  4  1  0
 34 19  1  0
 16 11  1  0
 32 26  1  0
  5 35  1  0
  6 36  1  0
 11 37  1  0
 12 38  1  0
 12 39  1  0
 13 40  1  0
 13 41  1  0
 15 42  1  0
 15 43  1  0
 16 44  1  0
 16 45  1  0
 17 46  1  0
 18 47  1  0
 20 48  1  0
 21 49  1  0
 27 50  1  0
 27 51  1  0
 28 52  1  0
 28 53  1  0
 29 54  1  0
 29 55  1  0
 30 56  1  0
 30 57  1  0
 31 58  1  0
 31 59  1  0
 32 60  1  0
 32 61  1  0
 33 62  1  0
 34 63  1  0
M  CHG  2   3  -1  11   1
M  END
>  <UniqueID>  (28) 
25

>  <SMILES>  (28) 
O=C([N-]c1ccc(S(=O)(=O)[NH+]2CCOCC2)cc1)c1ccc(S(=O)(=O)N2CCCCCC2)cc1

>  <Energy>  (28) 
83.50361600327774

>  <Genealogy>  (28) 
O=C([N-]c1ccc(S(=O)(=O)[NH+]2CCOCC2)cc1)c1ccc(S(=O)(=O)N2CCCCCC2)cc1 (protonated)
O=C([N-]c1ccc(S(=O)(=O)[NH+]2CCOCC2)cc1)c1ccc(S(=O)(=O)N2CCCCCC2)cc1 (3D coordinates assigned)
O=C([N-]c1ccc(S(=O)(=O)[NH+]2CCOCC2)cc1)c1ccc(S(=O)(=O)N2CCCCCC2)cc1 (nonaromatic ring conformer: 83.50361600327774 kcal/mol)

>  <smiles>  (28) 
O=C(Nc1ccc(S(=O)(=O)N2CCOCC2)cc1)c1ccc(S(=O)(=O)N2CCCCCC2)cc1

>  <score_type>  (28) 
oracle

>  <origin>  (28) 
adgpu

>  <m_score__min__energy>  (28) 
-11.029999999999999

>  <m_primary>  (28) 
energy

$$$$
28:0
     RDKit          3D

 47 50  0  0  0  0  0  0  0  0999 V2000
   -7.6670   25.6740  -29.6250 O   0  0  0  0  0  0  0  0  0  0  0  0
   -7.0400   24.7860  -30.2570 C   0  0  0  0  0  0  0  0  0  0  0  0
   -7.7750   23.9000  -31.1120 N   0  0  0  0  0  0  0  0  0  0  0  0
   -7.3990   22.5590  -31.4540 C   0  0  0  0  0  0  0  0  0  0  0  0
   -8.3000   21.5170  -31.2120 C   0  0  0  0  0  0  0  0  0  0  0  0
   -7.9670   20.2040  -31.5520 C   0  0  0  0  0  0  0  0  0  0  0  0
   -6.7220   19.9210  -32.1210 C   0  0  0  0  0  0  0  0  0  0  0  0
   -5.7970   20.9500  -32.3340 C   0  0  0  0  0  0  0  0  0  0  0  0
   -4.2110   20.5940  -33.0210 S   0  0  0  0  0  0  0  0  0  0  0  0
   -3.6730   21.8410  -33.6680 O   0  0  0  0  0  0  0  0  0  0  0  0
   -4.3610   19.5520  -34.0930 O   0  0  0  0  0  0  0  0  0  0  0  0
   -3.0660   20.0310  -31.8190 N   0  0  0  0  0  0  0  0  0  0  0  0
   -2.8360   21.0200  -30.7500 C   0  0  0  0  0  0  0  0  0  0  0  0
   -1.7930   22.0950  -31.1320 C   0  0  0  0  0  0  0  0  0  0  0  0
   -1.1360   21.8270  -32.3540 O   0  0  0  0  0  0  0  0  0  0  0  0
   -0.6540   20.5020  -32.3500 C   0  0  0  0  0  0  0  0  0  0  0  0
   -1.8200   19.5030  -32.4150 C   0  0  0  0  0  0  0  0  0  0  0  0
   -6.1350   22.2660  -31.9920 C   0  0  0  0  0  0  0  0  0  0  0  0
   -5.5710   24.7250  -30.1360 C   0  0  0  0  0  0  0  0  0  0  0  0
   -4.8480   24.2850  -29.0450 C   0  0  0  0  0  0  0  0  0  0  0  0
   -3.5270   24.4290  -29.4340 C   0  0  0  0  0  0  0  0  0  0  0  0
   -2.3110   24.1680  -28.6230 C   0  0  0  0  0  0  0  0  0  0  0  0
   -2.2630   23.0070  -27.8290 C   0  0  0  0  0  0  0  0  0  0  0  0
   -1.1310   22.7110  -27.0640 C   0  0  0  0  0  0  0  0  0  0  0  0
   -0.0330   23.5690  -27.0770 C   0  0  0  0  0  0  0  0  0  0  0  0
   -0.0680   24.7330  -27.8460 C   0  0  0  0  0  0  0  0  0  0  0  0
   -1.1990   25.0440  -28.6090 C   0  0  0  0  0  0  0  0  0  0  0  0
   -1.2070   26.2350  -29.3250 O   0  0  0  0  0  0  0  0  0  0  0  0
   -3.4880   24.9230  -30.6890 N   0  0  0  0  0  0  0  0  0  0  0  0
   -4.7290   25.0930  -31.1180 N   0  0  0  0  0  0  0  0  0  0  0  0
   -9.2755   21.7327  -30.7517 H   0  0  0  0  0  0  0  0  0  0  0  0
   -8.6858   19.3911  -31.3717 H   0  0  0  0  0  0  0  0  0  0  0  0
   -6.4687   18.8881  -32.4019 H   0  0  0  0  0  0  0  0  0  0  0  0
   -3.7892   21.5212  -30.5259 H   0  0  0  0  0  0  0  0  0  0  0  0
   -2.4419   20.4757  -29.8791 H   0  0  0  0  0  0  0  0  0  0  0  0
   -2.3058   23.0645  -31.2166 H   0  0  0  0  0  0  0  0  0  0  0  0
   -1.0258   22.0993  -30.3437 H   0  0  0  0  0  0  0  0  0  0  0  0
   -0.0004   20.3523  -33.2220 H   0  0  0  0  0  0  0  0  0  0  0  0
   -0.0919   20.3315  -31.4200 H   0  0  0  0  0  0  0  0  0  0  0  0
   -2.0126   19.2569  -33.4697 H   0  0  0  0  0  0  0  0  0  0  0  0
   -1.5268   18.6163  -31.8338 H   0  0  0  0  0  0  0  0  0  0  0  0
   -5.4057   23.0750  -32.1458 H   0  0  0  0  0  0  0  0  0  0  0  0
   -5.2332   23.9068  -28.0866 H   0  0  0  0  0  0  0  0  0  0  0  0
   -3.1258   22.3249  -27.8102 H   0  0  0  0  0  0  0  0  0  0  0  0
   -1.1069   21.7985  -26.4502 H   0  0  0  0  0  0  0  0  0  0  0  0
    0.8604   23.3290  -26.4817 H   0  0  0  0  0  0  0  0  0  0  0  0
    0.7988   25.4102  -27.8524 H   0  0  0  0  0  0  0  0  0  0  0  0
  1  2  2  0
  2  3  1  0
  3  4  1  0
  4  5  2  0
  5  6  1  0
  6  7  2  0
  7  8  1  0
  8  9  1  0
  9 10  2  0
  9 11  2  0
  9 12  1  0
 12 13  1  0
 13 14  1  0
 14 15  1  0
 15 16  1  0
 16 17  1  0
  8 18  2  0
  2 19  1  0
 19 20  1  0
 20 21  2  0
 21 22  1  0
 22 23  2  0
 23 24  1  0
 24 25  2  0
 25 26  1  0
 26 27  2  0
 27 28  1  0
 21 29  1  0
 29 30  1  0
 18  4  1  0
 30 19  2  0
 17 12  1  0
 27 22  1  0
  5 31  1  0
  6 32  1  0
  7 33  1  0
 13 34  1  0
 13 35  1  0
 14 36  1  0
 14 37  1  0
 16 38  1  0
 16 39  1  0
 17 40  1  0
 17 41  1  0
 18 42  1  0
 20 43  1  0
 23 44  1  0
 24 45  1  0
 25 46  1  0
 26 47  1  0
M  CHG  3   3  -1  28  -1  29  -1
M  END
>  <UniqueID>  (29) 
26

>  <SMILES>  (29) 
O=C([N-]c1cccc(S(=O)(=O)N2CCOCC2)c1)c1cc(-c2ccccc2[O-])[n-]n1

>  <Energy>  (29) 
98.82574406549716

>  <Genealogy>  (29) 
O=C([N-]c1cccc(S(=O)(=O)N2CCOCC2)c1)c1cc(-c2ccccc2[O-])[n-]n1 (protonated)
O=C([N-]c1cccc(S(=O)(=O)N2CCOCC2)c1)c1cc(-c2ccccc2[O-])[n-]n1 (3D coordinates assigned)
O=C([N-]c1cccc(S(=O)(=O)N2CCOCC2)c1)c1cc(-c2ccccc2[O-])[n-]n1 (nonaromatic ring conformer: 98.82574406549716 kcal/mol)

>  <smiles>  (29) 
O=C(Nc1cccc(S(=O)(=O)N2CCOCC2)c1)c1cc(-c2ccccc2O)[nH]n1

>  <score_type>  (29) 
oracle

>  <origin>  (29) 
adgpu

>  <m_score__min__energy>  (29) 
-15.35

>  <m_primary>  (29) 
energy

$$$$
29:0
     RDKit          3D

 54 56  0  0  0  0  0  0  0  0999 V2000
   -1.1090   25.9600  -27.8930 C   0  0  0  0  0  0  0  0  0  0  0  0
   -1.5350   24.5310  -27.9360 C   0  0  0  0  0  0  0  0  0  0  0  0
   -2.7640   24.0380  -27.5180 C   0  0  0  0  0  0  0  0  0  0  0  0
   -2.9240   22.6670  -27.7650 C   0  0  0  0  0  0  0  0  0  0  0  0
   -1.8170   22.0790  -28.3750 C   0  0  0  0  0  0  0  0  0  0  0  0
   -1.7260   20.6660  -28.7960 C   0  0  0  0  0  0  0  0  0  0  0  0
   -2.3200   19.7910  -28.1090 O   0  0  0  0  0  0  0  0  0  0  0  0
   -0.9920   20.2650  -29.9720 N   0  0  0  0  0  0  0  0  0  0  0  0
    0.3140   19.6090  -29.8630 C   0  0  0  0  0  0  0  0  0  0  0  0
   -1.5200   20.5860  -31.3040 C   0  0  0  0  0  0  0  0  0  0  0  0
   -2.9120   21.1370  -31.2160 C   0  0  0  0  0  0  0  0  0  0  0  0
   -3.8920   20.3420  -31.2190 O   0  0  0  0  0  0  0  0  0  0  0  0
   -3.1280   22.5530  -31.1200 N   0  0  0  0  0  0  0  0  0  0  0  0
   -4.4240   23.1330  -30.9100 C   0  0  0  0  0  0  0  0  0  0  0  0
   -5.5680   22.3570  -31.1400 C   0  0  0  0  0  0  0  0  0  0  0  0
   -6.8470   22.8990  -30.9630 C   0  0  0  0  0  0  0  0  0  0  0  0
   -8.2780   21.8940  -31.2100 S   0  0  0  0  0  0  0  0  0  0  0  0
   -9.1060   21.8850  -29.9540 O   0  0  0  0  0  0  0  0  0  0  0  0
   -9.1110   22.4880  -32.3120 O   0  0  0  0  0  0  0  0  0  0  0  0
   -7.8430   20.2570  -31.6380 N   0  0  0  0  0  0  0  0  0  0  0  0
   -6.9900   20.2530  -32.8460 C   0  0  0  0  0  0  0  0  0  0  0  0
   -6.8540   18.8480  -33.4720 C   0  0  0  0  0  0  0  0  0  0  0  0
   -7.2460   17.7480  -32.4820 C   0  0  0  0  0  0  0  0  0  0  0  0
   -8.6800   17.9530  -31.9660 C   0  0  0  0  0  0  0  0  0  0  0  0
   -9.0530   19.4420  -31.8390 C   0  0  0  0  0  0  0  0  0  0  0  0
   -6.9820   24.2400  -30.5740 C   0  0  0  0  0  0  0  0  0  0  0  0
   -5.8480   25.0270  -30.3650 C   0  0  0  0  0  0  0  0  0  0  0  0
   -4.5700   24.4840  -30.5390 C   0  0  0  0  0  0  0  0  0  0  0  0
   -3.4560   25.2990  -30.3690 O   0  0  0  0  0  0  0  0  0  0  0  0
   -0.6600   23.2780  -28.6390 S   0  0  0  0  0  0  0  0  0  0  0  0
   -1.0128   26.2826  -26.8458 H   0  0  0  0  0  0  0  0  0  0  0  0
   -0.1393   26.0690  -28.4008 H   0  0  0  0  0  0  0  0  0  0  0  0
   -1.8607   26.5822  -28.4008 H   0  0  0  0  0  0  0  0  0  0  0  0
   -3.5350   24.6607  -27.0408 H   0  0  0  0  0  0  0  0  0  0  0  0
   -3.8351   22.1093  -27.5027 H   0  0  0  0  0  0  0  0  0  0  0  0
    0.5718   19.4795  -28.8015 H   0  0  0  0  0  0  0  0  0  0  0  0
    0.2721   18.6250  -30.3528 H   0  0  0  0  0  0  0  0  0  0  0  0
    1.0783   20.2301  -30.3528 H   0  0  0  0  0  0  0  0  0  0  0  0
   -0.8673   21.3336  -31.7783 H   0  0  0  0  0  0  0  0  0  0  0  0
   -1.5476   19.6620  -31.9002 H   0  0  0  0  0  0  0  0  0  0  0  0
   -2.3420   23.1950  -31.3580 H   0  0  0  0  0  0  0  0  0  0  0  0
   -5.4602   21.3110  -31.4630 H   0  0  0  0  0  0  0  0  0  0  0  0
   -7.4323   20.9298  -33.5919 H   0  0  0  0  0  0  0  0  0  0  0  0
   -5.9846   20.5825  -32.5451 H   0  0  0  0  0  0  0  0  0  0  0  0
   -7.5095   18.7851  -34.3531 H   0  0  0  0  0  0  0  0  0  0  0  0
   -5.8012   18.6977  -33.7532 H   0  0  0  0  0  0  0  0  0  0  0  0
   -7.1814   16.7720  -32.9853 H   0  0  0  0  0  0  0  0  0  0  0  0
   -6.5574   17.7875  -31.6251 H   0  0  0  0  0  0  0  0  0  0  0  0
   -9.3791   17.4725  -32.6663 H   0  0  0  0  0  0  0  0  0  0  0  0
   -8.7418   17.5058  -30.9629 H   0  0  0  0  0  0  0  0  0  0  0  0
   -9.5616   19.7683  -32.7581 H   0  0  0  0  0  0  0  0  0  0  0  0
   -9.7192   19.5713  -30.9733 H   0  0  0  0  0  0  0  0  0  0  0  0
   -7.9836   24.6724  -30.4333 H   0  0  0  0  0  0  0  0  0  0  0  0
   -5.9595   26.0786  -30.0622 H   0  0  0  0  0  0  0  0  0  0  0  0
  1  2  1  0
  2  3  2  0
  3  4  1  0
  4  5  2  0
  5  6  1  0
  6  7  2  0
  6  8  1  0
  8  9  1  0
  8 10  1  0
 10 11  1  0
 11 12  2  0
 11 13  1  0
 13 14  1  0
 14 15  2  0
 15 16  1  0
 16 17  1  0
 17 18  2  0
 17 19  2  0
 17 20  1  0
 20 21  1  0
 21 22  1  0
 22 23  1  0
 23 24  1  0
 24 25  1  0
 16 26  2  0
 26 27  1  0
 27 28  2  0
 28 29  1  0
  5 30  1  0
 30  2  1  0
 28 14  1  0
 25 20  1  0
  1 31  1  0
  1 32  1  0
  1 33  1  0
  3 34  1  0
  4 35  1  0
  9 36  1  0
  9 37  1  0
  9 38  1  0
 10 39  1  0
 10 40  1  0
 13 41  1  0
 15 42  1  0
 21 43  1  0
 21 44  1  0
 22 45  1  0
 22 46  1  0
 23 47  1  0
 23 48  1  0
 24 49  1  0
 24 50  1  0
 25 51  1  0
 25 52  1  0
 26 53  1  0
 27 54  1  0
M  CHG  1  29  -1
M  END
>  <UniqueID>  (30) 
27

>  <SMILES>  (30) 
Cc1ccc(C(=O)N(C)CC(=O)Nc2cc(S(=O)(=O)N3CCCCC3)ccc2[O-])s1

>  <Energy>  (30) 
87.78685689907186

>  <Genealogy>  (30) 
Cc1ccc(C(=O)N(C)CC(=O)Nc2cc(S(=O)(=O)N3CCCCC3)ccc2[O-])s1 (protonated)
Cc1ccc(C(=O)N(C)CC(=O)Nc2cc(S(=O)(=O)N3CCCCC3)ccc2[O-])s1 (3D coordinates assigned)
Cc1ccc(C(=O)N(C)CC(=O)Nc2cc(S(=O)(=O)N3CCCCC3)ccc2[O-])s1 (nonaromatic ring conformer: 87.78685689907186 kcal/mol)

>  <smiles>  (30) 
Cc1ccc(C(=O)N(C)CC(=O)Nc2cc(S(=O)(=O)N3CCCCC3)ccc2O)s1

>  <score_type>  (30) 
oracle

>  <origin>  (30) 
adgpu

>  <m_score__min__energy>  (30) 
-13.27

>  <m_primary>  (30) 
energy

$$$$
30:0
     RDKit          3D

 59 62  0  0  0  0  0  0  0  0999 V2000
   -2.5360   16.5210  -34.1430 N   0  0  0  0  0  0  0  0  0  0  0  0
   -1.6100   17.5900  -34.3720 C   0  0  0  0  0  0  0  0  0  0  0  0
   -0.3940   17.3170  -35.0150 C   0  0  0  0  0  0  0  0  0  0  0  0
    0.4990   18.3480  -35.3130 C   0  0  0  0  0  0  0  0  0  0  0  0
    0.1860   19.6710  -34.9790 C   0  0  0  0  0  0  0  0  0  0  0  0
    1.3240   20.9710  -35.3360 S   0  0  0  0  0  0  0  0  0  0  0  0
    0.6430   22.2960  -35.1210 O   0  0  0  0  0  0  0  0  0  0  0  0
    1.7280   20.8900  -36.7820 O   0  0  0  0  0  0  0  0  0  0  0  0
    2.7550   20.8850  -34.3320 N   0  0  0  0  0  0  0  0  0  0  0  0
    3.9560   20.6540  -35.1420 C   0  0  0  0  0  0  0  0  0  0  0  0
    4.2790   19.1680  -35.1070 C   0  0  0  0  0  0  0  0  0  0  0  0
    3.4720   18.5970  -33.9590 C   0  0  0  0  0  0  0  0  0  0  0  0
    2.6770   19.7640  -33.3890 C   0  0  0  0  0  0  0  0  0  0  0  0
   -1.0280   19.9520  -34.3410 C   0  0  0  0  0  0  0  0  0  0  0  0
   -1.9170   18.9210  -34.0070 C   0  0  0  0  0  0  0  0  0  0  0  0
   -3.1220   19.2490  -33.3000 N   0  0  0  0  0  0  0  0  0  0  0  0
   -4.4240   18.9850  -33.8490 C   0  0  0  0  0  0  0  0  0  0  0  0
   -4.5280   18.2880  -34.8970 O   0  0  0  0  0  0  0  0  0  0  0  0
   -5.6480   19.5000  -33.1910 C   0  0  0  0  0  0  0  0  0  0  0  0
   -6.6890   18.6200  -32.8510 C   0  0  0  0  0  0  0  0  0  0  0  0
   -7.8480   19.0980  -32.2390 C   0  0  0  0  0  0  0  0  0  0  0  0
   -7.9930   20.4600  -31.9600 C   0  0  0  0  0  0  0  0  0  0  0  0
   -9.4850   21.0000  -31.1950 Cl  0  0  0  0  0  0  0  0  0  0  0  0
   -6.9630   21.3580  -32.3010 C   0  0  0  0  0  0  0  0  0  0  0  0
   -7.1260   23.0920  -31.9880 S   0  0  0  0  0  0  0  0  0  0  0  0
   -8.5190   23.5480  -32.3270 O   0  0  0  0  0  0  0  0  0  0  0  0
   -6.1540   23.8290  -32.8640 O   0  0  0  0  0  0  0  0  0  0  0  0
   -6.7810   23.4040  -30.2990 N   0  0  0  0  0  0  0  0  0  0  0  0
   -6.8700   24.8440  -29.9740 C   0  0  0  0  0  0  0  0  0  0  0  0
   -5.4910   25.5250  -29.9100 C   0  0  0  0  0  0  0  0  0  0  0  0
   -4.6080   24.9290  -30.8310 O   0  0  0  0  0  0  0  0  0  0  0  0
   -4.2820   23.6140  -30.4170 C   0  0  0  0  0  0  0  0  0  0  0  0
   -5.4960   22.8110  -29.8870 C   0  0  0  0  0  0  0  0  0  0  0  0
   -5.8000   20.8710  -32.9180 C   0  0  0  0  0  0  0  0  0  0  0  0
   -3.4800   16.5320  -34.5920 H   0  0  0  0  0  0  0  0  0  0  0  0
   -2.3300   15.7490  -33.4720 H   0  0  0  0  0  0  0  0  0  0  0  0
   -0.1416   16.2815  -35.2870 H   0  0  0  0  0  0  0  0  0  0  0  0
    1.4523   18.1199  -35.8122 H   0  0  0  0  0  0  0  0  0  0  0  0
    3.7711   20.9698  -36.1793 H   0  0  0  0  0  0  0  0  0  0  0  0
    4.8001   21.2342  -34.7411 H   0  0  0  0  0  0  0  0  0  0  0  0
    3.9883   18.6904  -36.0543 H   0  0  0  0  0  0  0  0  0  0  0  0
    5.3562   18.9910  -34.9720 H   0  0  0  0  0  0  0  0  0  0  0  0
    2.7926   17.8117  -34.3219 H   0  0  0  0  0  0  0  0  0  0  0  0
    4.1201   18.1386  -33.1975 H   0  0  0  0  0  0  0  0  0  0  0  0
    1.6269   19.4662  -33.2526 H   0  0  0  0  0  0  0  0  0  0  0  0
    3.0910   20.0618  -32.4144 H   0  0  0  0  0  0  0  0  0  0  0  0
   -1.2871   20.9933  -34.0991 H   0  0  0  0  0  0  0  0  0  0  0  0
   -3.0450   19.4450  -32.2770 H   0  0  0  0  0  0  0  0  0  0  0  0
   -6.5895   17.5464  -33.0689 H   0  0  0  0  0  0  0  0  0  0  0  0
   -8.6539   18.3977  -31.9740 H   0  0  0  0  0  0  0  0  0  0  0  0
   -7.4731   25.3426  -30.7471 H   0  0  0  0  0  0  0  0  0  0  0  0
   -7.3305   24.9321  -28.9789 H   0  0  0  0  0  0  0  0  0  0  0  0
   -5.6018   26.5923  -30.1522 H   0  0  0  0  0  0  0  0  0  0  0  0
   -5.0816   25.4091  -28.8956 H   0  0  0  0  0  0  0  0  0  0  0  0
   -3.8567   23.0745  -31.2761 H   0  0  0  0  0  0  0  0  0  0  0  0
   -3.5683   23.7057  -29.5850 H   0  0  0  0  0  0  0  0  0  0  0  0
   -5.4388   21.7842  -30.2774 H   0  0  0  0  0  0  0  0  0  0  0  0
   -5.4554   22.8254  -28.7878 H   0  0  0  0  0  0  0  0  0  0  0  0
   -4.9969   21.5711  -33.1916 H   0  0  0  0  0  0  0  0  0  0  0  0
  1  2  1  0
  2  3  2  0
  3  4  1  0
  4  5  2  0
  5  6  1  0
  6  7  2  0
  6  8  2  0
  6  9  1  0
  9 10  1  0
 10 11  1  0
 11 12  1  0
 12 13  1  0
  5 14  1  0
 14 15  2  0
 15 16  1  0
 16 17  1  0
 17 18  2  0
 17 19  1  0
 19 20  2  0
 20 21  1  0
 21 22  2  0
 22 23  1  0
 22 24  1  0
 24 25  1  0
 25 26  2  0
 25 27  2  0
 25 28  1  0
 28 29  1  0
 29 30  1  0
 30 31  1  0
 31 32  1  0
 32 33  1  0
 24 34  2  0
 15  2  1  0
 34 19  1  0
 13  9  1  0
 33 28  1  0
  1 35  1  0
  1 36  1  0
  3 37  1  0
  4 38  1  0
 10 39  1  0
 10 40  1  0
 11 41  1  0
 11 42  1  0
 12 43  1  0
 12 44  1  0
 13 45  1  0
 13 46  1  0
 14 47  1  0
 16 48  1  0
 20 49  1  0
 21 50  1  0
 29 51  1  0
 29 52  1  0
 30 53  1  0
 30 54  1  0
 32 55  1  0
 32 56  1  0
 33 57  1  0
 33 58  1  0
 34 59  1  0
M  END
>  <UniqueID>  (31) 
28

>  <SMILES>  (31) 
Nc1ccc(S(=O)(=O)N2CCCC2)cc1NC(=O)c1ccc(Cl)c(S(=O)(=O)N2CCOCC2)c1

>  <Energy>  (31) 
80.36730497082453

>  <Genealogy>  (31) 
Nc1ccc(S(=O)(=O)N2CCCC2)cc1NC(=O)c1ccc(Cl)c(S(=O)(=O)N2CCOCC2)c1 (3D coordinates assigned)
Nc1ccc(S(=O)(=O)N2CCCC2)cc1NC(=O)c1ccc(Cl)c(S(=O)(=O)N2CCOCC2)c1 (nonaromatic ring conformer: 80.36730497082453 kcal/mol)

>  <smiles>  (31) 
Nc1ccc(S(=O)(=O)N2CCCC2)cc1NC(=O)c1ccc(Cl)c(S(=O)(=O)N2CCOCC2)c1

>  <score_type>  (31) 
oracle

>  <origin>  (31) 
adgpu

>  <m_score__min__energy>  (31) 
-10.08

>  <m_primary>  (31) 
energy

$$$$
31:0
     RDKit          3D

 44 47  0  0  0  0  0  0  0  0999 V2000
   -5.9240   17.0680  -31.7050 C   0  0  0  0  0  0  0  0  0  0  0  0
   -6.7830   18.2510  -32.0680 C   0  0  0  0  0  0  0  0  0  0  0  0
   -8.1740   18.1620  -31.8730 C   0  0  0  0  0  0  0  0  0  0  0  0
   -9.0100   19.2260  -32.2110 C   0  0  0  0  0  0  0  0  0  0  0  0
   -8.4730   20.3910  -32.7520 C   0  0  0  0  0  0  0  0  0  0  0  0
   -7.0970   20.5000  -32.9530 C   0  0  0  0  0  0  0  0  0  0  0  0
   -6.2330   19.4430  -32.6100 C   0  0  0  0  0  0  0  0  0  0  0  0
   -4.7500   19.6350  -32.8380 C   0  0  0  0  0  0  0  0  0  0  0  0
   -4.3940   21.3150  -33.4640 S   0  0  0  0  0  0  0  0  0  0  0  0
   -3.1620   21.6840  -32.2130 C   0  0  0  0  0  0  0  0  0  0  0  0
   -1.8750   21.2990  -32.3030 N   0  0  0  0  0  0  0  0  0  0  0  0
   -1.2570   21.7750  -31.2310 N   0  0  0  0  0  0  0  0  0  0  0  0
   -2.1740   22.4450  -30.5030 C   0  0  0  0  0  0  0  0  0  0  0  0
   -1.8680   23.0820  -29.2020 C   0  0  0  0  0  0  0  0  0  0  0  0
   -1.9820   22.3600  -28.0040 C   0  0  0  0  0  0  0  0  0  0  0  0
   -1.7060   22.9740  -26.8230 N   0  0  0  0  0  0  0  0  0  0  0  0
   -1.3240   24.2760  -26.7770 C   0  0  0  0  0  0  0  0  0  0  0  0
   -1.2160   25.0000  -27.9650 C   0  0  0  0  0  0  0  0  0  0  0  0
   -1.4920   24.3890  -29.1450 N   0  0  0  0  0  0  0  0  0  0  0  0
   -3.3880   22.4040  -31.0970 N   0  0  0  0  0  0  0  0  0  0  0  0
   -4.6180   23.0310  -30.7060 C   0  0  0  0  0  0  0  0  0  0  0  0
   -5.7870   22.2620  -30.5960 C   0  0  0  0  0  0  0  0  0  0  0  0
   -6.9930   22.8630  -30.2290 C   0  0  0  0  0  0  0  0  0  0  0  0
   -7.0440   24.2360  -29.9750 C   0  0  0  0  0  0  0  0  0  0  0  0
   -5.8870   25.0120  -30.0920 C   0  0  0  0  0  0  0  0  0  0  0  0
   -4.6730   24.4160  -30.4620 C   0  0  0  0  0  0  0  0  0  0  0  0
   -3.5230   25.1930  -30.5940 O   0  0  0  0  0  0  0  0  0  0  0  0
   -5.8618   16.9823  -30.6101 H   0  0  0  0  0  0  0  0  0  0  0  0
   -6.3682   16.1512  -32.1199 H   0  0  0  0  0  0  0  0  0  0  0  0
   -4.9147   17.2066  -32.1199 H   0  0  0  0  0  0  0  0  0  0  0  0
   -8.6064   17.2435  -31.4495 H   0  0  0  0  0  0  0  0  0  0  0  0
  -10.0951   19.1446  -32.0499 H   0  0  0  0  0  0  0  0  0  0  0  0
   -9.1351   21.2271  -33.0214 H   0  0  0  0  0  0  0  0  0  0  0  0
   -6.6822   21.4228  -33.3846 H   0  0  0  0  0  0  0  0  0  0  0  0
   -4.2178   19.4855  -31.8870 H   0  0  0  0  0  0  0  0  0  0  0  0
   -4.4137   18.9037  -33.5877 H   0  0  0  0  0  0  0  0  0  0  0  0
   -2.2925   21.3048  -28.0205 H   0  0  0  0  0  0  0  0  0  0  0  0
   -1.1017   24.7556  -25.8124 H   0  0  0  0  0  0  0  0  0  0  0  0
   -0.9099   26.0564  -27.9453 H   0  0  0  0  0  0  0  0  0  0  0  0
   -5.7531   21.1816  -30.7997 H   0  0  0  0  0  0  0  0  0  0  0  0
   -7.9048   22.2541  -30.1397 H   0  0  0  0  0  0  0  0  0  0  0  0
   -7.9945   24.7064  -29.6830 H   0  0  0  0  0  0  0  0  0  0  0  0
   -5.9292   26.0931  -29.8932 H   0  0  0  0  0  0  0  0  0  0  0  0
   -3.1100   25.6700  -29.8000 H   0  0  0  0  0  0  0  0  0  0  0  0
  1  2  1  0
  2  3  2  0
  3  4  1  0
  4  5  2  0
  5  6  1  0
  6  7  2  0
  7  8  1  0
  8  9  1  0
  9 10  1  0
 10 11  2  0
 11 12  1  0
 12 13  2  0
 13 14  1  0
 14 15  2  0
 15 16  1  0
 16 17  2  0
 17 18  1  0
 18 19  2  0
 13 20  1  0
 20 21  1  0
 21 22  2  0
 22 23  1  0
 23 24  2  0
 24 25  1  0
 25 26  2  0
 26 27  1  0
  7  2  1  0
 20 10  1  0
 26 21  1  0
 19 14  1  0
  1 28  1  0
  1 29  1  0
  1 30  1  0
  3 31  1  0
  4 32  1  0
  5 33  1  0
  6 34  1  0
  8 35  1  0
  8 36  1  0
 15 37  1  0
 17 38  1  0
 18 39  1  0
 22 40  1  0
 23 41  1  0
 24 42  1  0
 25 43  1  0
 27 44  1  0
M  END
>  <UniqueID>  (32) 
29

>  <SMILES>  (32) 
Cc1ccccc1CSc1nnc(-c2cnccn2)n1-c1ccccc1O

>  <Energy>  (32) 
88.49142832489102

>  <Genealogy>  (32) 
Cc1ccccc1CSc1nnc(-c2cnccn2)n1-c1ccccc1O (3D coordinates assigned)
Cc1ccccc1CSc1nnc(-c2cnccn2)n1-c1ccccc1O (optimized conformer: 88.49142832489102 kcal/mol)

>  <smiles>  (32) 
Cc1ccccc1CSc1nnc(-c2cnccn2)n1-c1ccccc1O

>  <score_type>  (32) 
oracle

>  <origin>  (32) 
adgpu

>  <m_score__min__energy>  (32) 
-10.48

>  <m_primary>  (32) 
energy

$$$$
32:0
     RDKit          3D

 37 39  0  0  0  0  0  0  0  0999 V2000
   -3.4500   12.5150  -33.2000 N   0  0  0  0  0  0  0  0  0  0  0  0
   -4.1380   13.4460  -33.1690 C   0  0  0  0  0  0  0  0  0  0  0  0
   -4.9920   14.6030  -33.1330 C   0  0  0  0  0  0  0  0  0  0  0  0
   -5.9160   14.8260  -34.1610 C   0  0  0  0  0  0  0  0  0  0  0  0
   -6.7440   15.9520  -34.1270 C   0  0  0  0  0  0  0  0  0  0  0  0
   -6.6600   16.8620  -33.0600 C   0  0  0  0  0  0  0  0  0  0  0  0
   -7.5310   18.0880  -33.0460 C   0  0  0  0  0  0  0  0  0  0  0  0
   -6.7090   19.2850  -32.8920 N   0  0  0  0  0  0  0  0  0  0  0  0
   -5.5020   19.5850  -33.6520 C   0  0  0  0  0  0  0  0  0  0  0  0
   -4.9890   20.9390  -33.1040 C   0  0  0  0  0  0  0  0  0  0  0  0
   -5.9860   21.3860  -32.1300 N   0  0  0  0  0  0  0  0  0  0  0  0
   -5.9820   22.6640  -31.4640 C   0  0  0  0  0  0  0  0  0  0  0  0
   -7.1800   23.2050  -30.9640 C   0  0  0  0  0  0  0  0  0  0  0  0
   -7.1810   24.4410  -30.3100 C   0  0  0  0  0  0  0  0  0  0  0  0
   -5.9880   25.1470  -30.1410 C   0  0  0  0  0  0  0  0  0  0  0  0
   -4.7850   24.6140  -30.6200 C   0  0  0  0  0  0  0  0  0  0  0  0
   -3.5860   25.3020  -30.4450 O   0  0  0  0  0  0  0  0  0  0  0  0
   -4.7830   23.3780  -31.2760 C   0  0  0  0  0  0  0  0  0  0  0  0
   -6.9600   20.3650  -32.0190 C   0  0  0  0  0  0  0  0  0  0  0  0
   -7.9140   20.3850  -31.1970 O   0  0  0  0  0  0  0  0  0  0  0  0
   -5.7260   16.6370  -32.0360 C   0  0  0  0  0  0  0  0  0  0  0  0
   -4.8970   15.5110  -32.0710 C   0  0  0  0  0  0  0  0  0  0  0  0
   -5.9906   14.1144  -34.9965 H   0  0  0  0  0  0  0  0  0  0  0  0
   -7.4647   16.1262  -34.9396 H   0  0  0  0  0  0  0  0  0  0  0  0
   -8.0889   18.1489  -33.9921 H   0  0  0  0  0  0  0  0  0  0  0  0
   -8.2328   18.0218  -32.2016 H   0  0  0  0  0  0  0  0  0  0  0  0
   -4.7476   18.7990  -33.5001 H   0  0  0  0  0  0  0  0  0  0  0  0
   -5.7035   19.6338  -34.7323 H   0  0  0  0  0  0  0  0  0  0  0  0
   -4.0114   20.8081  -32.6171 H   0  0  0  0  0  0  0  0  0  0  0  0
   -4.8566   21.6751  -33.9106 H   0  0  0  0  0  0  0  0  0  0  0  0
   -8.1228   22.6520  -31.0882 H   0  0  0  0  0  0  0  0  0  0  0  0
   -8.1242   24.8584  -29.9276 H   0  0  0  0  0  0  0  0  0  0  0  0
   -5.9933   26.1219  -29.6315 H   0  0  0  0  0  0  0  0  0  0  0  0
   -3.5020   26.0570  -29.7760 H   0  0  0  0  0  0  0  0  0  0  0  0
   -3.8360   22.9603  -31.6483 H   0  0  0  0  0  0  0  0  0  0  0  0
   -5.6459   17.3498  -31.2021 H   0  0  0  0  0  0  0  0  0  0  0  0
   -4.1699   15.3385  -31.2638 H   0  0  0  0  0  0  0  0  0  0  0  0
  1  2  3  0
  2  3  1  0
  3  4  2  0
  4  5  1  0
  5  6  2  0
  6  7  1  0
  7  8  1  0
  8  9  1  0
  9 10  1  0
 10 11  1  0
 11 12  1  0
 12 13  2  0
 13 14  1  0
 14 15  2  0
 15 16  1  0
 16 17  1  0
 16 18  2  0
 11 19  1  0
 19 20  2  0
  6 21  1  0
 21 22  2  0
 22  3  1  0
 19  8  1  0
 18 12  1  0
  4 23  1  0
  5 24  1  0
  7 25  1  0
  7 26  1  0
  9 27  1  0
  9 28  1  0
 10 29  1  0
 10 30  1  0
 13 31  1  0
 14 32  1  0
 15 33  1  0
 17 34  1  0
 18 35  1  0
 21 36  1  0
 22 37  1  0
M  END
>  <UniqueID>  (33) 
30

>  <SMILES>  (33) 
N#Cc1ccc(CN2CCN(c3cccc(O)c3)C2=O)cc1

>  <Energy>  (33) 
52.35092321352561

>  <Genealogy>  (33) 
N#Cc1ccc(CN2CCN(c3cccc(O)c3)C2=O)cc1 (3D coordinates assigned)
N#Cc1ccc(CN2CCN(c3cccc(O)c3)C2=O)cc1 (nonaromatic ring conformer: 52.35092321352561 kcal/mol)

>  <smiles>  (33) 
N#Cc1ccc(CN2CCN(c3cccc(O)c3)C2=O)cc1

>  <score_type>  (33) 
oracle

>  <origin>  (33) 
adgpu

>  <m_score__min__energy>  (33) 
-9.0500000000000007

>  <m_primary>  (33) 
energy

$$$$
33:0
     RDKit          3D

 51 53  0  0  0  0  0  0  0  0999 V2000
    1.0680   21.0510  -35.4120 C   0  0  0  0  0  0  0  0  0  0  0  0
    0.5050   20.0690  -34.7080 C   0  0  0  0  0  0  0  0  0  0  0  0
   -0.8220   20.1650  -34.0460 C   0  0  0  0  0  0  0  0  0  0  0  0
   -1.3070   21.4370  -33.7000 C   0  0  0  0  0  0  0  0  0  0  0  0
   -2.5450   21.5810  -33.0680 C   0  0  0  0  0  0  0  0  0  0  0  0
   -3.3150   20.4530  -32.7630 C   0  0  0  0  0  0  0  0  0  0  0  0
   -4.8710   20.6300  -31.9610 S   0  0  0  0  0  0  0  0  0  0  0  0
   -5.9200   21.0760  -32.9410 O   0  0  0  0  0  0  0  0  0  0  0  0
   -5.2760   19.3020  -31.3840 O   0  0  0  0  0  0  0  0  0  0  0  0
   -4.7490   21.8070  -30.6910 N   0  0  0  0  0  0  0  0  0  0  0  0
   -5.8170   22.6110  -30.2090 C   0  0  0  0  0  0  0  0  0  0  0  0
   -7.2740   22.3110  -30.4240 C   0  0  0  0  0  0  0  0  0  0  0  0
   -7.8030   23.0670  -31.6370 C   0  0  0  0  0  0  0  0  0  0  0  0
   -5.3790   23.5900  -29.4370 C   0  0  0  0  0  0  0  0  0  0  0  0
   -3.8860   23.5640  -29.3340 C   0  0  2  0  0  0  0  0  0  0  0  0
   -3.2920   24.8470  -29.8410 C   0  0  0  0  0  0  0  0  0  0  0  0
   -3.8750   25.5160  -30.7360 O   0  0  0  0  0  0  0  0  0  0  0  0
   -2.0710   25.2870  -29.3450 O   0  0  0  0  0  0  0  0  0  0  0  0
   -3.4820   22.3450  -30.2080 C   0  0  1  0  0  0  0  0  0  0  0  0
   -2.7310   21.3030  -29.4090 C   0  0  0  0  0  0  0  0  0  0  0  0
   -3.1080   20.9940  -28.0910 C   0  0  0  0  0  0  0  0  0  0  0  0
   -2.3980   20.0380  -27.3570 C   0  0  0  0  0  0  0  0  0  0  0  0
   -1.3000   19.3810  -27.9220 C   0  0  0  0  0  0  0  0  0  0  0  0
   -0.6240   18.4280  -27.1450 O   0  0  0  0  0  0  0  0  0  0  0  0
    0.4140   17.5840  -27.6340 C   0  0  0  0  0  0  0  0  0  0  0  0
   -0.9120   19.6970  -29.2370 C   0  0  0  0  0  0  0  0  0  0  0  0
   -1.6200   20.6530  -29.9700 C   0  0  0  0  0  0  0  0  0  0  0  0
   -2.8390   19.1800  -33.0990 C   0  0  0  0  0  0  0  0  0  0  0  0
   -1.6000   19.0330  -33.7300 C   0  0  0  0  0  0  0  0  0  0  0  0
    2.0557   20.9013  -35.8724 H   0  0  0  0  0  0  0  0  0  0  0  0
    0.5448   22.0111  -35.5326 H   0  0  0  0  0  0  0  0  0  0  0  0
    1.0599   19.1242  -34.6105 H   0  0  0  0  0  0  0  0  0  0  0  0
   -0.7059   22.3293  -33.9290 H   0  0  0  0  0  0  0  0  0  0  0  0
   -2.9153   22.5840  -32.8095 H   0  0  0  0  0  0  0  0  0  0  0  0
   -7.4005   21.2306  -30.5877 H   0  0  0  0  0  0  0  0  0  0  0  0
   -7.8371   22.6290  -29.5341 H   0  0  0  0  0  0  0  0  0  0  0  0
   -8.4035   23.9252  -31.3009 H   0  0  0  0  0  0  0  0  0  0  0  0
   -6.9578   23.4257  -32.2428 H   0  0  0  0  0  0  0  0  0  0  0  0
   -8.4295   22.3958  -32.2428 H   0  0  0  0  0  0  0  0  0  0  0  0
   -6.0255   24.3260  -28.9367 H   0  0  0  0  0  0  0  0  0  0  0  0
   -3.5213   23.4714  -28.3004 H   0  0  0  0  0  0  0  0  0  0  0  0
   -2.8038   22.6378  -31.0231 H   0  0  0  0  0  0  0  0  0  0  0  0
   -3.9668   21.5071  -27.6336 H   0  0  0  0  0  0  0  0  0  0  0  0
   -2.7055   19.8011  -26.3278 H   0  0  0  0  0  0  0  0  0  0  0  0
    0.9574   17.1421  -26.7858 H   0  0  0  0  0  0  0  0  0  0  0  0
   -0.0235   16.7822  -28.2469 H   0  0  0  0  0  0  0  0  0  0  0  0
    1.1097   18.1759  -28.2469 H   0  0  0  0  0  0  0  0  0  0  0  0
   -0.0477   19.1893  -29.6900 H   0  0  0  0  0  0  0  0  0  0  0  0
   -1.3044   20.8984  -30.9948 H   0  0  0  0  0  0  0  0  0  0  0  0
   -3.4429   18.2908  -32.8653 H   0  0  0  0  0  0  0  0  0  0  0  0
   -1.2302   18.0280  -33.9813 H   0  0  0  0  0  0  0  0  0  0  0  0
  1  2  2  0
  2  3  1  0
  3  4  2  0
  4  5  1  0
  5  6  2  0
  6  7  1  0
  7  8  2  0
  7  9  2  0
  7 10  1  0
 10 11  1  0
 11 12  1  0
 12 13  1  0
 11 14  2  0
 14 15  1  0
 15 16  1  0
 16 17  2  0
 16 18  1  0
 15 19  1  0
 19 20  1  0
 20 21  2  0
 21 22  1  0
 22 23  2  0
 23 24  1  0
 24 25  1  0
 23 26  1  0
 26 27  2  0
  6 28  1  0
 28 29  2  0
 29  3  1  0
 19 10  1  0
 27 20  1  0
  1 30  1  0
  1 31  1  0
  2 32  1  0
  4 33  1  0
  5 34  1  0
 12 35  1  0
 12 36  1  0
 13 37  1  0
 13 38  1  0
 13 39  1  0
 14 40  1  0
 15 41  1  1
 19 42  1  6
 21 43  1  0
 22 44  1  0
 25 45  1  0
 25 46  1  0
 25 47  1  0
 26 48  1  0
 27 49  1  0
 28 50  1  0
 29 51  1  0
M  CHG  1  18  -1
M  END
>  <UniqueID>  (34) 
31

>  <SMILES>  (34) 
C=Cc1ccc(S(=O)(=O)N2C(CC)=C[C@H](C(=O)[O-])[C@H]2c2ccc(OC)cc2)cc1

>  <Energy>  (34) 
59.369978783322

>  <Genealogy>  (34) 
C=Cc1ccc(S(=O)(=O)N2C(CC)=CC(C(=O)[O-])C2c2ccc(OC)cc2)cc1 (protonated)
C=Cc1ccc(S(=O)(=O)N2C(CC)=C[C@H](C(=O)[O-])[C@H]2c2ccc(OC)cc2)cc1 (chirality)
C=Cc1ccc(S(=O)(=O)N2C(CC)=C[C@H](C(=O)[O-])[C@H]2c2ccc(OC)cc2)cc1 (3D coordinates assigned)
C=Cc1ccc(S(=O)(=O)N2C(CC)=C[C@H](C(=O)[O-])[C@H]2c2ccc(OC)cc2)cc1 (nonaromatic ring conformer: 59.369978783322 kcal/mol)

>  <smiles>  (34) 
C=Cc1ccc(S(=O)(=O)N2C(CC)=CC(C(=O)O)C2c2ccc(OC)cc2)cc1

>  <score_type>  (34) 
oracle

>  <origin>  (34) 
adgpu

>  <m_score__min__energy>  (34) 
-10.720000000000001

>  <m_primary>  (34) 
energy

$$$$
34:0
     RDKit          3D

 63 67  0  0  0  0  0  0  0  0999 V2000
   -1.4140   22.4490  -34.6440 H   0  0  0  0  0  0  0  0  0  0  0  0
   -0.5330   21.8900  -34.5850 N   0  0  0  0  0  0  0  0  0  0  0  0
   -0.9480   20.3680  -33.8760 S   0  0  0  0  0  0  0  0  0  0  0  0
   -2.4430   20.2470  -33.7750 O   0  0  0  0  0  0  0  0  0  0  0  0
   -0.3610   20.3070  -32.4940 O   0  0  0  0  0  0  0  0  0  0  0  0
   -0.3150   19.0490  -34.8710 C   0  0  0  0  0  0  0  0  0  0  0  0
   -1.0300   17.8430  -34.9560 C   0  0  0  0  0  0  0  0  0  0  0  0
   -1.9825   17.7356  -34.4163 H   0  0  0  0  0  0  0  0  0  0  0  0
   -0.5400   16.7700  -35.7250 C   0  0  0  0  0  0  0  0  0  0  0  0
   -1.2620   15.5340  -35.8580 N   0  0  0  0  0  0  0  0  0  0  0  0
   -2.3990   15.2390  -35.3000 C   0  0  0  0  0  0  0  0  0  0  0  0
   -3.0410   16.0300  -34.4130 N   0  0  0  0  0  0  0  0  0  0  0  0
   -4.2020   15.4660  -33.9860 C   0  0  0  0  0  0  0  0  0  0  0  0
   -5.0750   16.1510  -33.0180 C   0  0  0  0  0  0  0  0  0  0  0  0
   -5.0690   15.7610  -31.8190 O   0  0  0  0  0  0  0  0  0  0  0  0
   -5.8870   17.2800  -33.3980 N   0  0  0  0  0  0  0  0  0  0  0  0
   -5.3380   18.2830  -34.3310 C   0  0  0  0  0  0  0  0  0  0  0  0
   -5.5238   17.9505  -35.3629 H   0  0  0  0  0  0  0  0  0  0  0  0
   -4.2593   18.3790  -34.1383 H   0  0  0  0  0  0  0  0  0  0  0  0
   -5.9870   19.6570  -34.1260 C   0  0  0  0  0  0  0  0  0  0  0  0
   -6.9643   19.6791  -34.6304 H   0  0  0  0  0  0  0  0  0  0  0  0
   -5.3359   20.4355  -34.5503 H   0  0  0  0  0  0  0  0  0  0  0  0
   -6.1720   19.9050  -32.6920 N   0  0  0  0  0  0  0  0  0  0  0  0
   -5.4430   20.9640  -32.0590 C   0  0  0  0  0  0  0  0  0  0  0  0
   -5.9230   22.2720  -32.1040 C   0  0  0  0  0  0  0  0  0  0  0  0
   -7.0890   22.5490  -32.7400 F   0  0  0  0  0  0  0  0  0  0  0  0
   -5.1990   23.3000  -31.5050 C   0  0  0  0  0  0  0  0  0  0  0  0
   -5.5803   24.3308  -31.5496 H   0  0  0  0  0  0  0  0  0  0  0  0
   -3.9830   23.0350  -30.8420 C   0  0  0  0  0  0  0  0  0  0  0  0
   -3.2430   24.0770  -30.2550 C   0  0  0  0  0  0  0  0  0  0  0  0
   -3.6720   25.2630  -30.3140 O   0  0  0  0  0  0  0  0  0  0  0  0
   -2.0260   23.7980  -29.6110 C   0  0  0  0  0  0  0  0  0  0  0  0
   -1.2000   24.8700  -28.9900 C   0  0  0  0  0  0  0  0  0  0  0  0
   -1.6140   26.0600  -28.9620 O   0  0  0  0  0  0  0  0  0  0  0  0
    0.0390   24.5880  -28.4300 O   0  0  0  0  0  0  0  0  0  0  0  0
   -1.5880   22.4670  -29.5570 C   0  0  0  0  0  0  0  0  0  0  0  0
   -0.6335   22.2393  -29.0599 H   0  0  0  0  0  0  0  0  0  0  0  0
   -2.3120   21.4430  -30.1040 N   0  0  0  0  0  0  0  0  0  0  0  0
   -1.7560   20.0810  -29.9720 C   0  0  0  0  0  0  0  0  0  0  0  0
   -1.5714   19.6678  -30.9746 H   0  0  0  0  0  0  0  0  0  0  0  0
   -2.4791   19.4554  -29.4281 H   0  0  0  0  0  0  0  0  0  0  0  0
   -0.4440   20.1060  -29.1910 C   0  0  0  0  0  0  0  0  0  0  0  0
   -0.6593   20.1019  -28.1123 H   0  0  0  0  0  0  0  0  0  0  0  0
    0.1533   19.2191  -29.4491 H   0  0  0  0  0  0  0  0  0  0  0  0
    0.1191   21.0150  -29.4491 H   0  0  0  0  0  0  0  0  0  0  0  0
   -3.4930   21.7040  -30.7720 C   0  0  0  0  0  0  0  0  0  0  0  0
   -4.2420   20.6820  -31.4020 C   0  0  0  0  0  0  0  0  0  0  0  0
   -3.8722   19.6464  -31.3742 H   0  0  0  0  0  0  0  0  0  0  0  0
   -6.8580   18.9120  -31.8510 C   0  0  0  0  0  0  0  0  0  0  0  0
   -7.8275   19.3201  -31.5291 H   0  0  0  0  0  0  0  0  0  0  0  0
   -6.2261   18.6926  -30.9778 H   0  0  0  0  0  0  0  0  0  0  0  0
   -7.0930   17.6110  -32.6270 C   0  0  0  0  0  0  0  0  0  0  0  0
   -7.9432   17.7408  -33.3128 H   0  0  0  0  0  0  0  0  0  0  0  0
   -7.3141   16.7964  -31.9216 H   0  0  0  0  0  0  0  0  0  0  0  0
   -4.4710   14.2020  -34.5140 C   0  0  0  0  0  0  0  0  0  0  0  0
   -5.3496   13.5803  -34.2870 H   0  0  0  0  0  0  0  0  0  0  0  0
   -3.2150   13.7960  -35.5590 S   0  0  0  0  0  0  0  0  0  0  0  0
    0.6430   16.9360  -36.4510 C   0  0  0  0  0  0  0  0  0  0  0  0
    1.0158   16.1158  -37.0822 H   0  0  0  0  0  0  0  0  0  0  0  0
    1.3550   18.1350  -36.3810 C   0  0  0  0  0  0  0  0  0  0  0  0
    2.2897   18.2491  -36.9495 H   0  0  0  0  0  0  0  0  0  0  0  0
    0.8880   19.1920  -35.5930 C   0  0  0  0  0  0  0  0  0  0  0  0
    1.8220   20.6820  -35.5630 Cl  0  0  0  0  0  0  0  0  0  0  0  0
  1  2  1  0
  2  3  1  0
  3  4  2  0
  3  5  2  0
  3  6  1  0
  6  7  2  0
  7  8  1  0
  7  9  1  0
  9 10  1  0
 10 11  2  0
 11 12  1  0
 12 13  1  0
 13 14  1  0
 14 15  2  0
 14 16  1  0
 16 17  1  0
 17 18  1  0
 17 19  1  0
 17 20  1  0
 20 21  1  0
 20 22  1  0
 20 23  1  0
 23 24  1  0
 24 25  2  0
 25 26  1  0
 25 27  1  0
 27 28  1  0
 27 29  2  0
 29 30  1  0
 30 31  2  0
 30 32  1  0
 32 33  1  0
 33 34  2  0
 33 35  1  0
 32 36  2  0
 36 37  1  0
 36 38  1  0
 38 39  1  0
 39 40  1  0
 39 41  1  0
 39 42  1  0
 42 43  1  0
 42 44  1  0
 42 45  1  0
 38 46  1  0
 46 47  2  0
 47 48  1  0
 23 49  1  0
 49 50  1  0
 49 51  1  0
 49 52  1  0
 52 53  1  0
 52 54  1  0
 13 55  2  0
 55 56  1  0
 55 57  1  0
  9 58  2  0
 58 59  1  0
 58 60  1  0
 60 61  1  0
 60 62  2  0
 62 63  1  0
 62  6  1  0
 57 11  1  0
 52 16  1  0
 47 24  1  0
 46 29  1  0
M  CHG  3   2  -1  12  -1  35  -1
M  END
>  <UniqueID>  (35) 
32

>  <SMILES>  (35) 
CCn1cc(C(=O)[O-])c(=O)c2cc(F)c(N3CCN(C(=O)c4cs/c(=N/c5ccc(Cl)c(S([NH-])(=O)=O)c5)[n-]4)CC3)cc21

>  <Energy>  (35) 
124.89538106458022

>  <Genealogy>  (35) 
CCn1cc(C(=O)[O-])c(=O)c2cc(F)c(N3CCN(C(=O)c4csc(=Nc5ccc(Cl)c(S([NH-])(=O)=O)c5)[n-]4)CC3)cc21 (protonated)
CCn1cc(C(=O)[O-])c(=O)c2cc(F)c(N3CCN(C(=O)c4cs/c(=N/c5ccc(Cl)c(S([NH-])(=O)=O)c5)[n-]4)CC3)cc21 (cis-trans isomerization)
CCn1cc(C(=O)[O-])c(=O)c2cc(F)c(N3CCN(C(=O)c4cs/c(=N/c5ccc(Cl)c(S([NH-])(=O)=O)c5)[n-]4)CC3)cc21 (3D coordinates assigned)
CCn1cc(C(=O)[O-])c(=O)c2cc(F)c(N3CCN(C(=O)c4cs/c(=N/c5ccc(Cl)c(S([NH-])(=O)=O)c5)[n-]4)CC3)cc21 (nonaromatic ring conformer: 124.89538106458022 kcal/mol)

>  <smiles>  (35) 
CCn1cc(C(=O)O)c(=O)c2cc(F)c(N3CCN(C(=O)c4csc(=Nc5ccc(Cl)c(S(N)(=O)=O)c5)[nH]4)CC3)cc21

>  <score_type>  (35) 
oracle

>  <origin>  (35) 
adgpu

>  <m_score__min__energy>  (35) 
-12.43

>  <m_primary>  (35) 
energy

$$$$
35:0
     RDKit          3D

 55 57  0  0  0  0  0  0  0  0999 V2000
   -0.8140   19.8490  -34.5100 C   0  0  0  0  0  0  0  0  0  0  0  0
   -1.2570   19.0660  -33.3450 N   0  0  0  0  0  0  0  0  0  0  0  0
   -2.1240   17.9350  -33.7350 C   0  0  0  0  0  0  0  0  0  0  0  0
   -3.5280   18.3820  -34.1930 C   0  0  0  0  0  0  0  0  0  0  0  0
   -4.0440   19.6260  -33.4380 C   0  0  0  0  0  0  0  0  0  0  0  0
   -5.8330   19.6040  -33.2590 S   0  0  0  0  0  0  0  0  0  0  0  0
   -6.2360   18.3230  -32.5870 O   0  0  0  0  0  0  0  0  0  0  0  0
   -6.4560   19.6010  -34.6280 O   0  0  0  0  0  0  0  0  0  0  0  0
   -6.4280   21.0170  -32.3480 C   0  0  0  0  0  0  0  0  0  0  0  0
   -7.6530   20.9880  -31.6340 C   0  0  0  0  0  0  0  0  0  0  0  0
   -8.7080   19.5800  -31.5810 Cl  0  0  0  0  0  0  0  0  0  0  0  0
   -8.0760   22.1180  -30.9310 C   0  0  0  0  0  0  0  0  0  0  0  0
   -7.3040   23.2750  -30.9130 C   0  0  0  0  0  0  0  0  0  0  0  0
   -6.0790   23.3210  -31.5910 C   0  0  0  0  0  0  0  0  0  0  0  0
   -5.2860   24.5190  -31.6010 N   0  0  0  0  0  0  0  0  0  0  0  0
   -5.0530   25.3810  -30.4830 C   0  0  0  0  0  0  0  0  0  0  0  0
   -5.3570   26.6000  -30.5750 O   0  0  0  0  0  0  0  0  0  0  0  0
   -4.3810   24.8900  -29.3150 N   0  0  0  0  0  0  0  0  0  0  0  0
   -3.2370   24.0280  -29.3100 C   0  0  0  0  0  0  0  0  0  0  0  0
   -3.4440   22.6470  -29.4000 C   0  0  0  0  0  0  0  0  0  0  0  0
   -2.3610   21.7680  -29.3920 C   0  0  0  0  0  0  0  0  0  0  0  0
   -1.0600   22.2590  -29.2720 C   0  0  0  0  0  0  0  0  0  0  0  0
   -0.8320   23.6410  -29.1370 C   0  0  0  0  0  0  0  0  0  0  0  0
    0.4530   24.1810  -28.9800 O   0  0  0  0  0  0  0  0  0  0  0  0
    1.1780   24.5570  -27.4750 S   0  0  0  0  0  0  0  0  0  0  0  0
    0.0670   25.5810  -26.5380 C   0  0  0  0  0  0  0  0  0  0  0  0
    1.4540   23.2940  -26.7100 O   0  0  0  0  0  0  0  0  0  0  0  0
    2.4630   25.3020  -27.7020 O   0  0  0  0  0  0  0  0  0  0  0  0
   -1.9260   24.5220  -29.1490 C   0  0  0  0  0  0  0  0  0  0  0  0
   -1.7010   25.8820  -28.9620 O   0  0  0  0  0  0  0  0  0  0  0  0
   -5.6510   22.2000  -32.3260 C   0  0  0  0  0  0  0  0  0  0  0  0
   -4.4460   22.2460  -33.0320 O   0  0  0  0  0  0  0  0  0  0  0  0
   -3.3490   19.7680  -32.0810 C   0  0  0  0  0  0  0  0  0  0  0  0
   -1.8260   19.9170  -32.2670 C   0  0  0  0  0  0  0  0  0  0  0  0
   -0.2994   20.7585  -34.1663 H   0  0  0  0  0  0  0  0  0  0  0  0
   -0.1240   19.2446  -35.1171 H   0  0  0  0  0  0  0  0  0  0  0  0
   -1.6875   20.1291  -35.1171 H   0  0  0  0  0  0  0  0  0  0  0  0
   -1.6418   17.3924  -34.5615 H   0  0  0  0  0  0  0  0  0  0  0  0
   -2.2544   17.2988  -32.8471 H   0  0  0  0  0  0  0  0  0  0  0  0
   -3.4878   18.6161  -35.2671 H   0  0  0  0  0  0  0  0  0  0  0  0
   -4.2218   17.5561  -33.9770 H   0  0  0  0  0  0  0  0  0  0  0  0
   -3.7920   20.5094  -34.0431 H   0  0  0  0  0  0  0  0  0  0  0  0
   -9.0307   22.0929  -30.3852 H   0  0  0  0  0  0  0  0  0  0  0  0
   -7.6577   24.1595  -30.3629 H   0  0  0  0  0  0  0  0  0  0  0  0
   -4.4677   22.2519  -29.4776 H   0  0  0  0  0  0  0  0  0  0  0  0
   -2.5327   20.6851  -29.4805 H   0  0  0  0  0  0  0  0  0  0  0  0
   -0.2088   21.5623  -29.2830 H   0  0  0  0  0  0  0  0  0  0  0  0
    0.2398   25.4218  -25.4634 H   0  0  0  0  0  0  0  0  0  0  0  0
    0.2456   26.6378  -26.7854 H   0  0  0  0  0  0  0  0  0  0  0  0
   -0.9718   25.3170  -26.7854 H   0  0  0  0  0  0  0  0  0  0  0  0
   -4.3090   22.8330  -33.8440 H   0  0  0  0  0  0  0  0  0  0  0  0
   -3.7395   20.6580  -31.5658 H   0  0  0  0  0  0  0  0  0  0  0  0
   -3.5477   18.8660  -31.4836 H   0  0  0  0  0  0  0  0  0  0  0  0
   -1.6091   20.9684  -32.5069 H   0  0  0  0  0  0  0  0  0  0  0  0
   -1.3594   19.5892  -31.3264 H   0  0  0  0  0  0  0  0  0  0  0  0
  1  2  1  0
  2  3  1  0
  3  4  1  0
  4  5  1  0
  5  6  1  0
  6  7  2  0
  6  8  2  0
  6  9  1  0
  9 10  2  0
 10 11  1  0
 10 12  1  0
 12 13  2  0
 13 14  1  0
 14 15  1  0
 15 16  1  0
 16 17  2  0
 16 18  1  0
 18 19  1  0
 19 20  2  0
 20 21  1  0
 21 22  2  0
 22 23  1  0
 23 24  1  0
 24 25  1  0
 25 26  1  0
 25 27  2  0
 25 28  2  0
 23 29  2  0
 29 30  1  0
 14 31  2  0
 31 32  1  0
  5 33  1  0
 33 34  1  0
 34  2  1  0
 31  9  1  0
 29 19  1  0
  1 35  1  0
  1 36  1  0
  1 37  1  0
  3 38  1  0
  3 39  1  0
  4 40  1  0
  4 41  1  0
  5 42  1  0
 12 43  1  0
 13 44  1  0
 20 45  1  0
 21 46  1  0
 22 47  1  0
 26 48  1  0
 26 49  1  0
 26 50  1  0
 32 51  1  0
 33 52  1  0
 33 53  1  0
 34 54  1  0
 34 55  1  0
M  CHG  3  15  -1  18  -1  30  -1
M  END
>  <UniqueID>  (36) 
33

>  <SMILES>  (36) 
CN1CCC(S(=O)(=O)c2c(Cl)ccc([N-]C(=O)[N-]c3cccc(OS(C)(=O)=O)c3[O-])c2O)CC1

>  <Energy>  (36) 
71.31481262341877

>  <Genealogy>  (36) 
CN1CCC(S(=O)(=O)c2c(Cl)ccc([N-]C(=O)[N-]c3cccc(OS(C)(=O)=O)c3[O-])c2O)CC1 (protonated)
CN1CCC(S(=O)(=O)c2c(Cl)ccc([N-]C(=O)[N-]c3cccc(OS(C)(=O)=O)c3[O-])c2O)CC1 (3D coordinates assigned)
CN1CCC(S(=O)(=O)c2c(Cl)ccc([N-]C(=O)[N-]c3cccc(OS(C)(=O)=O)c3[O-])c2O)CC1 (nonaromatic ring conformer: 71.31481262341877 kcal/mol)

>  <smiles>  (36) 
CN1CCC(S(=O)(=O)c2c(Cl)ccc(NC(=O)Nc3cccc(OS(C)(=O)=O)c3O)c2O)CC1

>  <score_type>  (36) 
oracle

>  <origin>  (36) 
adgpu

>  <m_score__min__energy>  (36) 
-15.050000000000001

>  <m_primary>  (36) 
energy

$$$$
36:0
     RDKit          3D

 64 67  0  0  0  0  0  0  0  0999 V2000
   -6.3470   19.3340  -32.0650 C   0  0  0  0  0  0  0  0  0  0  0  0
   -7.1180   20.5860  -32.1380 N   0  0  0  0  0  0  0  0  0  0  0  0
   -6.3150   21.6760  -32.7410 C   0  0  0  0  0  0  0  0  0  0  0  0
   -5.5090   22.4630  -31.6970 C   0  0  0  0  0  0  0  0  0  0  0  0
   -6.3880   22.9410  -30.6250 N   0  0  0  0  0  0  0  0  0  0  0  0
   -5.9540   24.0040  -29.7590 C   0  0  0  0  0  0  0  0  0  0  0  0
   -6.7490   24.9380  -29.4670 O   0  0  0  0  0  0  0  0  0  0  0  0
   -4.5880   24.0110  -29.2020 C   0  0  0  0  0  0  0  0  0  0  0  0
   -4.2600   23.1520  -28.1420 C   0  0  0  0  0  0  0  0  0  0  0  0
   -2.9640   23.1410  -27.6190 C   0  0  0  0  0  0  0  0  0  0  0  0
   -1.9770   23.9730  -28.1630 C   0  0  0  0  0  0  0  0  0  0  0  0
   -0.6360   23.9460  -27.6720 N   0  0  0  0  0  0  0  0  0  0  0  0
   -0.0930   22.8110  -26.4820 S   0  0  0  0  0  0  0  0  0  0  0  0
    1.3690   23.0110  -26.1940 O   0  0  0  0  0  0  0  0  0  0  0  0
   -0.8590   23.0170  -25.2070 O   0  0  0  0  0  0  0  0  0  0  0  0
   -0.3870   21.1840  -27.0950 C   0  0  0  0  0  0  0  0  0  0  0  0
    0.0330   20.8340  -28.3870 C   0  0  0  0  0  0  0  0  0  0  0  0
   -0.2380   19.5590  -28.8970 C   0  0  0  0  0  0  0  0  0  0  0  0
    0.2500   19.1570  -30.5420 S   0  0  0  0  0  0  0  0  0  0  0  0
    0.2600   17.6620  -30.7170 O   0  0  0  0  0  0  0  0  0  0  0  0
    1.6410   19.6770  -30.7740 O   0  0  0  0  0  0  0  0  0  0  0  0
   -0.8450   19.8850  -31.6910 N   0  0  0  0  0  0  0  0  0  0  0  0
   -0.1360   20.1510  -32.9610 C   0  0  0  0  0  0  0  0  0  0  0  0
   -0.9120   21.1150  -33.8870 C   0  0  0  0  0  0  0  0  0  0  0  0
   -2.3840   21.2230  -33.4860 C   0  0  0  0  0  0  0  0  0  0  0  0
   -2.5300   21.6650  -32.0230 C   0  0  0  0  0  0  0  0  0  0  0  0
   -1.4020   21.1240  -31.1260 C   0  0  0  0  0  0  0  0  0  0  0  0
   -0.9370   18.6310  -28.1150 C   0  0  0  0  0  0  0  0  0  0  0  0
   -1.3620   18.9760  -26.8310 C   0  0  0  0  0  0  0  0  0  0  0  0
   -1.0960   20.2520  -26.3170 C   0  0  0  0  0  0  0  0  0  0  0  0
   -1.5430   20.5970  -25.0430 O   0  0  0  0  0  0  0  0  0  0  0  0
   -2.2920   24.8070  -29.2400 C   0  0  0  0  0  0  0  0  0  0  0  0
   -3.5920   24.8380  -29.7550 C   0  0  0  0  0  0  0  0  0  0  0  0
   -3.8770   25.6740  -30.8300 O   0  0  0  0  0  0  0  0  0  0  0  0
   -7.7520   22.4190  -30.5230 C   0  0  0  0  0  0  0  0  0  0  0  0
   -7.7330   20.9160  -30.8230 C   0  0  0  0  0  0  0  0  0  0  0  0
   -6.1819   19.0660  -31.0110 H   0  0  0  0  0  0  0  0  0  0  0  0
   -6.9063   18.5293  -32.5647 H   0  0  0  0  0  0  0  0  0  0  0  0
   -5.3767   19.4712  -32.5647 H   0  0  0  0  0  0  0  0  0  0  0  0
   -5.6160   21.2376  -33.4684 H   0  0  0  0  0  0  0  0  0  0  0  0
   -7.0131   22.3776  -33.2210 H   0  0  0  0  0  0  0  0  0  0  0  0
   -4.7364   21.8085  -31.2672 H   0  0  0  0  0  0  0  0  0  0  0  0
   -5.0412   23.3295  -32.1872 H   0  0  0  0  0  0  0  0  0  0  0  0
   -5.0262   22.4844  -27.7209 H   0  0  0  0  0  0  0  0  0  0  0  0
   -2.7182   22.4768  -26.7773 H   0  0  0  0  0  0  0  0  0  0  0  0
    0.5779   21.5651  -29.0022 H   0  0  0  0  0  0  0  0  0  0  0  0
    0.8432   20.5962  -32.7308 H   0  0  0  0  0  0  0  0  0  0  0  0
   -0.0328   19.1926  -33.4908 H   0  0  0  0  0  0  0  0  0  0  0  0
   -0.4525   22.1127  -33.8283 H   0  0  0  0  0  0  0  0  0  0  0  0
   -0.8642   20.7184  -34.9119 H   0  0  0  0  0  0  0  0  0  0  0  0
   -2.8794   21.9604  -34.1347 H   0  0  0  0  0  0  0  0  0  0  0  0
   -2.8492   20.2326  -33.5987 H   0  0  0  0  0  0  0  0  0  0  0  0
   -2.5148   22.7642  -31.9838 H   0  0  0  0  0  0  0  0  0  0  0  0
   -3.4799   21.2588  -31.6454 H   0  0  0  0  0  0  0  0  0  0  0  0
   -0.6050   21.8785  -31.0517 H   0  0  0  0  0  0  0  0  0  0  0  0
   -1.8128   20.9075  -30.1288 H   0  0  0  0  0  0  0  0  0  0  0  0
   -1.1515   17.6284  -28.5134 H   0  0  0  0  0  0  0  0  0  0  0  0
   -1.9084   18.2426  -26.2197 H   0  0  0  0  0  0  0  0  0  0  0  0
   -1.3560   21.5100  -24.6430 H   0  0  0  0  0  0  0  0  0  0  0  0
   -1.5125   25.4428  -29.6851 H   0  0  0  0  0  0  0  0  0  0  0  0
   -8.1367   22.5876  -29.5063 H   0  0  0  0  0  0  0  0  0  0  0  0
   -8.4029   22.9345  -31.2445 H   0  0  0  0  0  0  0  0  0  0  0  0
   -7.1599   20.4094  -30.0325 H   0  0  0  0  0  0  0  0  0  0  0  0
   -8.7790   20.5774  -30.8582 H   0  0  0  0  0  0  0  0  0  0  0  0
  1  2  1  0
  2  3  1  0
  3  4  1  0
  4  5  1  0
  5  6  1  0
  6  7  2  0
  6  8  1  0
  8  9  2  0
  9 10  1  0
 10 11  2  0
 11 12  1  0
 12 13  1  0
 13 14  2  0
 13 15  2  0
 13 16  1  0
 16 17  2  0
 17 18  1  0
 18 19  1  0
 19 20  2  0
 19 21  2  0
 19 22  1  0
 22 23  1  0
 23 24  1  0
 24 25  1  0
 25 26  1  0
 26 27  1  0
 18 28  2  0
 28 29  1  0
 29 30  2  0
 30 31  1  0
 11 32  1  0
 32 33  2  0
 33 34  1  0
  5 35  1  0
 35 36  1  0
 36  2  1  0
 33  8  1  0
 30 16  1  0
 27 22  1  0
  1 37  1  0
  1 38  1  0
  1 39  1  0
  3 40  1  0
  3 41  1  0
  4 42  1  0
  4 43  1  0
  9 44  1  0
 10 45  1  0
 17 46  1  0
 23 47  1  0
 23 48  1  0
 24 49  1  0
 24 50  1  0
 25 51  1  0
 25 52  1  0
 26 53  1  0
 26 54  1  0
 27 55  1  0
 27 56  1  0
 28 57  1  0
 29 58  1  0
 31 59  1  0
 32 60  1  0
 35 61  1  0
 35 62  1  0
 36 63  1  0
 36 64  1  0
M  CHG  2  12  -1  34  -1
M  END
>  <UniqueID>  (37) 
34

>  <SMILES>  (37) 
CN1CCN(C(=O)c2ccc([N-]S(=O)(=O)c3cc(S(=O)(=O)N4CCCCC4)ccc3O)cc2[O-])CC1

>  <Energy>  (37) 
87.57034178628385

>  <Genealogy>  (37) 
CN1CCN(C(=O)c2ccc([N-]S(=O)(=O)c3cc(S(=O)(=O)N4CCCCC4)ccc3O)cc2[O-])CC1 (protonated)
CN1CCN(C(=O)c2ccc([N-]S(=O)(=O)c3cc(S(=O)(=O)N4CCCCC4)ccc3O)cc2[O-])CC1 (3D coordinates assigned)
CN1CCN(C(=O)c2ccc([N-]S(=O)(=O)c3cc(S(=O)(=O)N4CCCCC4)ccc3O)cc2[O-])CC1 (nonaromatic ring conformer: 87.57034178628385 kcal/mol)

>  <smiles>  (37) 
CN1CCN(C(=O)c2ccc(NS(=O)(=O)c3cc(S(=O)(=O)N4CCCCC4)ccc3O)cc2O)CC1

>  <score_type>  (37) 
oracle

>  <origin>  (37) 
adgpu

>  <m_score__min__energy>  (37) 
-13.27

>  <m_primary>  (37) 
energy

$$$$
37:0
     RDKit          3D

 64 68  0  0  0  0  0  0  0  0999 V2000
   -4.2240   16.1660  -33.3120 C   0  0  0  0  0  0  0  0  0  0  0  0
   -4.8110   17.5220  -33.0030 C   0  0  0  0  0  0  0  0  0  0  0  0
   -5.9710   17.5460  -32.2120 C   0  0  0  0  0  0  0  0  0  0  0  0
   -6.5840   18.7500  -31.8710 C   0  0  0  0  0  0  0  0  0  0  0  0
   -6.0590   19.9660  -32.3250 C   0  0  0  0  0  0  0  0  0  0  0  0
   -6.6930   21.2520  -31.9400 C   0  0  0  0  0  0  0  0  0  0  0  0
   -8.0740   21.4510  -32.1180 C   0  0  0  0  0  0  0  0  0  0  0  0
   -8.6600   22.6770  -31.7920 C   0  0  0  0  0  0  0  0  0  0  0  0
   -7.8780   23.7180  -31.2890 C   0  0  0  0  0  0  0  0  0  0  0  0
   -6.5010   23.5310  -31.0960 C   0  0  0  0  0  0  0  0  0  0  0  0
   -5.4970   24.8290  -30.4630 S   0  0  0  0  0  0  0  0  0  0  0  0
   -5.8370   25.0640  -29.0180 O   0  0  0  0  0  0  0  0  0  0  0  0
   -5.7610   26.0990  -31.2260 O   0  0  0  0  0  0  0  0  0  0  0  0
   -3.8260   24.4050  -30.6500 N   0  0  0  0  0  0  0  0  0  0  0  0
   -3.0640   23.7410  -29.6370 C   0  0  0  0  0  0  0  0  0  0  0  0
   -3.3440   22.4000  -29.3460 C   0  0  0  0  0  0  0  0  0  0  0  0
   -2.5870   21.7040  -28.3910 C   0  0  0  0  0  0  0  0  0  0  0  0
   -1.5360   22.3570  -27.7190 C   0  0  0  0  0  0  0  0  0  0  0  0
   -1.2360   23.6890  -28.0370 C   0  0  0  0  0  0  0  0  0  0  0  0
   -1.9840   24.3770  -28.9990 C   0  0  0  0  0  0  0  0  0  0  0  0
   -1.6170   25.6720  -29.3420 O   0  0  0  0  0  0  0  0  0  0  0  0
   -0.6380   21.5790  -26.7860 C   0  0  0  0  0  0  0  0  0  0  0  0
   -1.3960   20.4720  -26.0420 C   0  0  0  0  0  0  0  0  0  0  0  0
   -2.2560   19.6800  -26.9830 C   0  0  0  0  0  0  0  0  0  0  0  0
   -2.4930   18.4640  -26.7490 O   0  0  0  0  0  0  0  0  0  0  0  0
   -2.8730   20.3290  -28.1000 N   0  0  0  0  0  0  0  0  0  0  0  0
   -5.9140   22.3020  -31.4210 C   0  0  0  0  0  0  0  0  0  0  0  0
   -4.9020   19.9540  -33.1190 C   0  0  0  0  0  0  0  0  0  0  0  0
   -4.2300   18.7550  -33.4230 C   0  0  0  0  0  0  0  0  0  0  0  0
   -2.9370   18.8610  -34.2240 C   0  0  0  0  0  0  0  0  0  0  0  0
   -1.7490   19.2390  -33.4200 N   0  0  0  0  0  0  0  0  0  0  0  0
   -0.4290   19.1480  -34.0790 C   0  0  0  0  0  0  0  0  0  0  0  0
    0.0130   20.4800  -34.7350 C   0  0  0  0  0  0  0  0  0  0  0  0
   -0.6460   21.6670  -34.1640 N   0  0  0  0  0  0  0  0  0  0  0  0
   -0.9060   21.5040  -32.7330 C   0  0  0  0  0  0  0  0  0  0  0  0
   -1.9150   20.3700  -32.4830 C   0  0  0  0  0  0  0  0  0  0  0  0
   -3.9971   15.6418  -32.3719 H   0  0  0  0  0  0  0  0  0  0  0  0
   -4.9478   15.5772  -33.8946 H   0  0  0  0  0  0  0  0  0  0  0  0
   -3.2994   16.2908  -33.8946 H   0  0  0  0  0  0  0  0  0  0  0  0
   -6.4027   16.5990  -31.8558 H   0  0  0  0  0  0  0  0  0  0  0  0
   -7.4859   18.7451  -31.2413 H   0  0  0  0  0  0  0  0  0  0  0  0
   -8.6967   20.6364  -32.5163 H   0  0  0  0  0  0  0  0  0  0  0  0
   -9.7413   22.8222  -31.9323 H   0  0  0  0  0  0  0  0  0  0  0  0
   -8.3414   24.6851  -31.0439 H   0  0  0  0  0  0  0  0  0  0  0  0
   -4.1642   21.8879  -29.8704 H   0  0  0  0  0  0  0  0  0  0  0  0
   -0.4054   24.1978  -27.5259 H   0  0  0  0  0  0  0  0  0  0  0  0
    0.1715   21.1210  -27.3733 H   0  0  0  0  0  0  0  0  0  0  0  0
   -0.2415   22.2796  -26.0364 H   0  0  0  0  0  0  0  0  0  0  0  0
   -0.6698   19.7975  -25.5649 H   0  0  0  0  0  0  0  0  0  0  0  0
   -2.0439   20.9395  -25.2859 H   0  0  0  0  0  0  0  0  0  0  0  0
   -3.5630   19.8000  -28.6830 H   0  0  0  0  0  0  0  0  0  0  0  0
   -4.8343   22.1563  -31.2691 H   0  0  0  0  0  0  0  0  0  0  0  0
   -4.5111   20.9037  -33.5130 H   0  0  0  0  0  0  0  0  0  0  0  0
   -2.7402   17.8847  -34.6910 H   0  0  0  0  0  0  0  0  0  0  0  0
   -3.0877   19.6648  -34.9597 H   0  0  0  0  0  0  0  0  0  0  0  0
    0.3200   18.8628  -33.3256 H   0  0  0  0  0  0  0  0  0  0  0  0
   -0.5119   18.3984  -34.8798 H   0  0  0  0  0  0  0  0  0  0  0  0
    1.0996   20.5886  -34.6030 H   0  0  0  0  0  0  0  0  0  0  0  0
   -0.2774   20.4290  -35.7948 H   0  0  0  0  0  0  0  0  0  0  0  0
   -1.5490   21.8420  -34.6590 H   0  0  0  0  0  0  0  0  0  0  0  0
    0.0377   21.2656  -32.2206 H   0  0  0  0  0  0  0  0  0  0  0  0
   -1.3287   22.4421  -32.3440 H   0  0  0  0  0  0  0  0  0  0  0  0
   -1.7794   19.9988  -31.4564 H   0  0  0  0  0  0  0  0  0  0  0  0
   -2.9227   20.7831  -32.6376 H   0  0  0  0  0  0  0  0  0  0  0  0
  1  2  1  0
  2  3  2  0
  3  4  1  0
  4  5  2  0
  5  6  1  0
  6  7  2  0
  7  8  1  0
  8  9  2  0
  9 10  1  0
 10 11  1  0
 11 12  2  0
 11 13  2  0
 11 14  1  0
 14 15  1  0
 15 16  2  0
 16 17  1  0
 17 18  2  0
 18 19  1  0
 19 20  2  0
 20 21  1  0
 18 22  1  0
 22 23  1  0
 23 24  1  0
 24 25  2  0
 24 26  1  0
 10 27  2  0
  5 28  1  0
 28 29  2  0
 29 30  1  0
 30 31  1  0
 31 32  1  0
 32 33  1  0
 33 34  1  0
 34 35  1  0
 35 36  1  0
 29  2  1  0
 36 31  1  0
 27  6  1  0
 20 15  1  0
 26 17  1  0
  1 37  1  0
  1 38  1  0
  1 39  1  0
  3 40  1  0
  4 41  1  0
  7 42  1  0
  8 43  1  0
  9 44  1  0
 16 45  1  0
 19 46  1  0
 22 47  1  0
 22 48  1  0
 23 49  1  0
 23 50  1  0
 26 51  1  0
 27 52  1  0
 28 53  1  0
 30 54  1  0
 30 55  1  0
 32 56  1  0
 32 57  1  0
 33 58  1  0
 33 59  1  0
 34 60  1  0
 35 61  1  0
 35 62  1  0
 36 63  1  0
 36 64  1  0
M  CHG  2  14  -1  21  -1
M  END
>  <UniqueID>  (38) 
35

>  <SMILES>  (38) 
Cc1ccc(-c2cccc(S(=O)(=O)[N-]c3cc4c(cc3[O-])CCC(=O)N4)c2)cc1CN1CCNCC1

>  <Energy>  (38) 
98.41585237829085

>  <Genealogy>  (38) 
Cc1ccc(-c2cccc(S(=O)(=O)[N-]c3cc4c(cc3[O-])CCC(=O)N4)c2)cc1CN1CCNCC1 (protonated)
Cc1ccc(-c2cccc(S(=O)(=O)[N-]c3cc4c(cc3[O-])CCC(=O)N4)c2)cc1CN1CCNCC1 (3D coordinates assigned)
Cc1ccc(-c2cccc(S(=O)(=O)[N-]c3cc4c(cc3[O-])CCC(=O)N4)c2)cc1CN1CCNCC1 (nonaromatic ring conformer: 98.41585237829085 kcal/mol)

>  <smiles>  (38) 
Cc1ccc(-c2cccc(S(=O)(=O)Nc3cc4c(cc3O)CCC(=O)N4)c2)cc1CN1CCNCC1

>  <score_type>  (38) 
oracle

>  <origin>  (38) 
adgpu

>  <m_score__min__energy>  (38) 
-16.25

>  <m_primary>  (38) 
energy

$$$$
38:0
     RDKit          3D

 61 65  0  0  0  0  0  0  0  0999 V2000
   -0.9740   22.0760  -26.5620 C   0  0  0  0  0  0  0  0  0  0  0  0
   -2.0070   22.7180  -27.4370 C   0  0  0  0  0  0  0  0  0  0  0  0
   -1.7520   23.9420  -28.0760 C   0  0  0  0  0  0  0  0  0  0  0  0
   -2.7210   24.5250  -28.8960 C   0  0  0  0  0  0  0  0  0  0  0  0
   -3.9590   23.9000  -29.0710 C   0  0  0  0  0  0  0  0  0  0  0  0
   -5.1740   24.6320  -30.1140 S   0  0  0  0  0  0  0  0  0  0  0  0
   -6.0420   25.5800  -29.3370 O   0  0  0  0  0  0  0  0  0  0  0  0
   -4.4900   25.4040  -31.2050 O   0  0  0  0  0  0  0  0  0  0  0  0
   -6.1540   23.3830  -30.8070 N   0  0  0  0  0  0  0  0  0  0  0  0
   -7.6110   23.4530  -30.9020 C   0  0  0  0  0  0  0  0  0  0  0  0
   -8.0290   22.2860  -31.8290 C   0  0  0  0  0  0  0  0  0  0  0  0
   -6.7270   21.6800  -32.2340 C   0  0  0  0  0  0  0  0  0  0  0  0
   -6.5060   20.6040  -33.0980 C   0  0  0  0  0  0  0  0  0  0  0  0
   -5.1870   20.1970  -33.3460 C   0  0  0  0  0  0  0  0  0  0  0  0
   -4.9690   19.1080  -34.1970 O   0  0  0  0  0  0  0  0  0  0  0  0
   -4.9420   17.7630  -33.7860 C   0  0  0  0  0  0  0  0  0  0  0  0
   -5.4430   17.3680  -32.5340 C   0  0  0  0  0  0  0  0  0  0  0  0
   -5.3490   16.0350  -32.1300 C   0  0  0  0  0  0  0  0  0  0  0  0
   -4.7620   15.0810  -32.9730 C   0  0  0  0  0  0  0  0  0  0  0  0
   -4.5300   13.4270  -32.4160 S   0  0  0  0  0  0  0  0  0  0  0  0
   -4.9790   13.3160  -30.9870 O   0  0  0  0  0  0  0  0  0  0  0  0
   -3.0690   13.0900  -32.4720 O   0  0  0  0  0  0  0  0  0  0  0  0
   -5.4300   12.2910  -33.3970 N   0  0  0  0  0  0  0  0  0  0  0  0
   -6.6800   12.9090  -33.8850 C   0  0  0  0  0  0  0  0  0  0  0  0
   -7.2000   12.1830  -35.1360 C   0  0  0  0  0  0  0  0  0  0  0  0
   -6.2920   12.1810  -36.2290 O   0  0  0  0  0  0  0  0  0  0  0  0
   -4.9340   12.3410  -35.8500 C   0  0  0  0  0  0  0  0  0  0  0  0
   -4.6010   11.7200  -34.4800 C   0  0  0  0  0  0  0  0  0  0  0  0
   -4.3230   15.4650  -34.2470 C   0  0  0  0  0  0  0  0  0  0  0  0
   -4.4190   16.7990  -34.6510 C   0  0  0  0  0  0  0  0  0  0  0  0
   -4.1130   20.9100  -32.7540 C   0  0  0  0  0  0  0  0  0  0  0  0
   -4.3640   21.9820  -31.8860 C   0  0  0  0  0  0  0  0  0  0  0  0
   -5.6910   22.3380  -31.6360 C   0  0  0  0  0  0  0  0  0  0  0  0
   -4.2130   22.6770  -28.4360 C   0  0  0  0  0  0  0  0  0  0  0  0
   -3.2410   22.0880  -27.6240 C   0  0  0  0  0  0  0  0  0  0  0  0
   -1.2356   22.2386  -25.5060 H   0  0  0  0  0  0  0  0  0  0  0  0
   -0.9381   20.9962  -26.7688 H   0  0  0  0  0  0  0  0  0  0  0  0
    0.0101   22.5219  -26.7688 H   0  0  0  0  0  0  0  0  0  0  0  0
   -0.7843   24.4443  -27.9301 H   0  0  0  0  0  0  0  0  0  0  0  0
   -2.5096   25.4771  -29.4047 H   0  0  0  0  0  0  0  0  0  0  0  0
   -8.0660   23.3343  -29.9076 H   0  0  0  0  0  0  0  0  0  0  0  0
   -7.9451   24.4238  -31.2970 H   0  0  0  0  0  0  0  0  0  0  0  0
   -8.6506   21.5573  -31.2880 H   0  0  0  0  0  0  0  0  0  0  0  0
   -8.6337   22.6154  -32.6868 H   0  0  0  0  0  0  0  0  0  0  0  0
   -7.3511   20.0858  -33.5748 H   0  0  0  0  0  0  0  0  0  0  0  0
   -5.9103   18.1108  -31.8707 H   0  0  0  0  0  0  0  0  0  0  0  0
   -5.7371   15.7320  -31.1463 H   0  0  0  0  0  0  0  0  0  0  0  0
   -7.4420   12.8532  -33.0936 H   0  0  0  0  0  0  0  0  0  0  0  0
   -6.4741   13.9572  -34.1476 H   0  0  0  0  0  0  0  0  0  0  0  0
   -7.4149   11.1389  -34.8644 H   0  0  0  0  0  0  0  0  0  0  0  0
   -8.0943   12.7299  -35.4695 H   0  0  0  0  0  0  0  0  0  0  0  0
   -4.3012   11.8628  -36.6121 H   0  0  0  0  0  0  0  0  0  0  0  0
   -4.7457   13.4218  -35.7697 H   0  0  0  0  0  0  0  0  0  0  0  0
   -4.7785   10.6355  -34.5290 H   0  0  0  0  0  0  0  0  0  0  0  0
   -3.5474   11.9408  -34.2539 H   0  0  0  0  0  0  0  0  0  0  0  0
   -3.9015   14.7139  -34.9312 H   0  0  0  0  0  0  0  0  0  0  0  0
   -4.0808   17.0918  -35.6559 H   0  0  0  0  0  0  0  0  0  0  0  0
   -3.0758   20.6197  -32.9776 H   0  0  0  0  0  0  0  0  0  0  0  0
   -3.5354   22.5296  -31.4132 H   0  0  0  0  0  0  0  0  0  0  0  0
   -5.1831   22.1781  -28.5777 H   0  0  0  0  0  0  0  0  0  0  0  0
   -3.4468   21.1266  -27.1307 H   0  0  0  0  0  0  0  0  0  0  0  0
  1  2  1  0
  2  3  2  0
  3  4  1  0
  4  5  2  0
  5  6  1  0
  6  7  2  0
  6  8  2  0
  6  9  1  0
  9 10  1  0
 10 11  1  0
 11 12  1  0
 12 13  2  0
 13 14  1  0
 14 15  1  0
 15 16  1  0
 16 17  2  0
 17 18  1  0
 18 19  2  0
 19 20  1  0
 20 21  2  0
 20 22  2  0
 20 23  1  0
 23 24  1  0
 24 25  1  0
 25 26  1  0
 26 27  1  0
 27 28  1  0
 19 29  1  0
 29 30  2  0
 14 31  2  0
 31 32  1  0
 32 33  2  0
  5 34  1  0
 34 35  2  0
 35  2  1  0
 33  9  1  0
 33 12  1  0
 30 16  1  0
 28 23  1  0
  1 36  1  0
  1 37  1  0
  1 38  1  0
  3 39  1  0
  4 40  1  0
 10 41  1  0
 10 42  1  0
 11 43  1  0
 11 44  1  0
 13 45  1  0
 17 46  1  0
 18 47  1  0
 24 48  1  0
 24 49  1  0
 25 50  1  0
 25 51  1  0
 27 52  1  0
 27 53  1  0
 28 54  1  0
 28 55  1  0
 29 56  1  0
 30 57  1  0
 31 58  1  0
 32 59  1  0
 34 60  1  0
 35 61  1  0
M  END
>  <UniqueID>  (39) 
36

>  <SMILES>  (39) 
Cc1ccc(S(=O)(=O)N2CCc3cc(Oc4ccc(S(=O)(=O)N5CCOCC5)cc4)ccc32)cc1

>  <Energy>  (39) 
99.03165752713254

>  <Genealogy>  (39) 
Cc1ccc(S(=O)(=O)N2CCc3cc(Oc4ccc(S(=O)(=O)N5CCOCC5)cc4)ccc32)cc1 (3D coordinates assigned)
Cc1ccc(S(=O)(=O)N2CCc3cc(Oc4ccc(S(=O)(=O)N5CCOCC5)cc4)ccc32)cc1 (nonaromatic ring conformer: 99.03165752713254 kcal/mol)

>  <smiles>  (39) 
Cc1ccc(S(=O)(=O)N2CCc3cc(Oc4ccc(S(=O)(=O)N5CCOCC5)cc4)ccc32)cc1

>  <score_type>  (39) 
oracle

>  <origin>  (39) 
adgpu

>  <m_score__min__energy>  (39) 
-11.73

>  <m_primary>  (39) 
energy

$$$$
39:0
     RDKit          3D

 57 60  0  0  0  0  0  0  0  0999 V2000
   -1.3350   20.4800  -32.1610 C   0  0  0  0  0  0  0  0  0  0  0  0
   -2.0000   19.4520  -33.0480 C   0  0  0  0  0  0  0  0  0  0  0  0
   -1.1910   18.5100  -33.7090 C   0  0  0  0  0  0  0  0  0  0  0  0
   -1.7640   17.4740  -34.4510 C   0  0  0  0  0  0  0  0  0  0  0  0
   -0.7390   16.2780  -35.2280 Cl  0  0  0  0  0  0  0  0  0  0  0  0
   -3.1490   17.3810  -34.5680 C   0  0  0  0  0  0  0  0  0  0  0  0
   -3.9870   18.3590  -34.0010 C   0  0  0  0  0  0  0  0  0  0  0  0
   -5.7540   18.2340  -34.2350 S   0  0  0  0  0  0  0  0  0  0  0  0
   -6.1440   16.7890  -34.3540 O   0  0  0  0  0  0  0  0  0  0  0  0
   -6.1050   18.9180  -35.5280 O   0  0  0  0  0  0  0  0  0  0  0  0
   -6.7210   18.8860  -32.9200 N   0  0  0  0  0  0  0  0  0  0  0  0
   -7.6900   17.9100  -32.3900 C   0  0  0  0  0  0  0  0  0  0  0  0
   -8.4950   18.5490  -31.2430 C   0  0  0  0  0  0  0  0  0  0  0  0
   -9.1320   19.7370  -31.6730 O   0  0  0  0  0  0  0  0  0  0  0  0
   -8.1590   20.6890  -32.0900 C   0  0  0  0  0  0  0  0  0  0  0  0
   -7.3720   20.1540  -33.2970 C   0  0  0  0  0  0  0  0  0  0  0  0
   -3.4130   19.3930  -33.2110 C   0  0  0  0  0  0  0  0  0  0  0  0
   -4.2780   20.2920  -32.4980 N   0  0  0  0  0  0  0  0  0  0  0  0
   -4.2690   21.7240  -32.5510 C   0  0  0  0  0  0  0  0  0  0  0  0
   -3.4360   22.2900  -33.3080 O   0  0  0  0  0  0  0  0  0  0  0  0
   -5.1460   22.5470  -31.6730 C   0  0  0  0  0  0  0  0  0  0  0  0
   -6.2870   23.1740  -32.2140 C   0  0  0  0  0  0  0  0  0  0  0  0
   -7.0800   24.0130  -31.4320 C   0  0  0  0  0  0  0  0  0  0  0  0
   -6.7550   24.2430  -30.0980 C   0  0  0  0  0  0  0  0  0  0  0  0
   -5.6450   23.6160  -29.5330 C   0  0  0  0  0  0  0  0  0  0  0  0
   -4.8460   22.7470  -30.2960 C   0  0  0  0  0  0  0  0  0  0  0  0
   -3.5320   21.8820  -29.4680 S   0  0  0  0  0  0  0  0  0  0  0  0
   -3.8130   21.7330  -27.9930 O   0  0  0  0  0  0  0  0  0  0  0  0
   -3.4010   20.5110  -30.0810 O   0  0  0  0  0  0  0  0  0  0  0  0
   -2.0190   22.7120  -29.6680 N   0  0  0  0  0  0  0  0  0  0  0  0
   -1.5680   23.7330  -28.9930 C   0  0  0  0  0  0  0  0  0  0  0  0
   -0.4050   24.2810  -29.2600 O   0  0  0  0  0  0  0  0  0  0  0  0
   -0.1660   25.2940  -28.4710 N   0  0  0  0  0  0  0  0  0  0  0  0
   -1.2250   25.4100  -27.6390 C   0  0  0  0  0  0  0  0  0  0  0  0
   -1.3660   26.4910  -26.6070 C   0  0  0  0  0  0  0  0  0  0  0  0
   -2.1590   24.4340  -27.9360 C   0  0  0  0  0  0  0  0  0  0  0  0
   -3.7010   24.2250  -27.1120 Cl  0  0  0  0  0  0  0  0  0  0  0  0
   -1.5042   20.2184  -31.1060 H   0  0  0  0  0  0  0  0  0  0  0  0
   -0.2544   20.4969  -32.3658 H   0  0  0  0  0  0  0  0  0  0  0  0
   -1.7626   21.4726  -32.3658 H   0  0  0  0  0  0  0  0  0  0  0  0
   -0.0960   18.5898  -33.6410 H   0  0  0  0  0  0  0  0  0  0  0  0
   -3.5929   16.5330  -35.1101 H   0  0  0  0  0  0  0  0  0  0  0  0
   -8.3770   17.6038  -33.1927 H   0  0  0  0  0  0  0  0  0  0  0  0
   -7.1503   17.0299  -32.0104 H   0  0  0  0  0  0  0  0  0  0  0  0
   -9.2582   17.8359  -30.8980 H   0  0  0  0  0  0  0  0  0  0  0  0
   -7.8033   18.7979  -30.4247 H   0  0  0  0  0  0  0  0  0  0  0  0
   -8.6643   21.6245  -32.3721 H   0  0  0  0  0  0  0  0  0  0  0  0
   -7.4603   20.8732  -31.2606 H   0  0  0  0  0  0  0  0  0  0  0  0
   -8.0593   19.9802  -34.1381 H   0  0  0  0  0  0  0  0  0  0  0  0
   -6.6105   20.8878  -33.5997 H   0  0  0  0  0  0  0  0  0  0  0  0
   -6.5551   22.9991  -33.2664 H   0  0  0  0  0  0  0  0  0  0  0  0
   -7.9660   24.4951  -31.8709 H   0  0  0  0  0  0  0  0  0  0  0  0
   -7.3737   24.9192  -29.4898 H   0  0  0  0  0  0  0  0  0  0  0  0
   -5.3920   23.8034  -28.4790 H   0  0  0  0  0  0  0  0  0  0  0  0
   -1.3082   26.0481  -25.6018 H   0  0  0  0  0  0  0  0  0  0  0  0
   -0.5559   27.2247  -26.7315 H   0  0  0  0  0  0  0  0  0  0  0  0
   -2.3371   26.9924  -26.7315 H   0  0  0  0  0  0  0  0  0  0  0  0
  1  2  1  0
  2  3  2  0
  3  4  1  0
  4  5  1  0
  4  6  2  0
  6  7  1  0
  7  8  1  0
  8  9  2  0
  8 10  2  0
  8 11  1  0
 11 12  1  0
 12 13  1  0
 13 14  1  0
 14 15  1  0
 15 16  1  0
  7 17  2  0
 17 18  1  0
 18 19  1  0
 19 20  2  0
 19 21  1  0
 21 22  2  0
 22 23  1  0
 23 24  2  0
 24 25  1  0
 25 26  2  0
 26 27  1  0
 27 28  2  0
 27 29  2  0
 27 30  1  0
 30 31  2  3
 31 32  1  0
 32 33  1  0
 33 34  1  0
 34 35  1  0
 34 36  2  0
 36 37  1  0
 17  2  1  0
 26 21  1  0
 36 31  1  0
 16 11  1  0
  1 38  1  0
  1 39  1  0
  1 40  1  0
  3 41  1  0
  6 42  1  0
 12 43  1  0
 12 44  1  0
 13 45  1  0
 13 46  1  0
 15 47  1  0
 15 48  1  0
 16 49  1  0
 16 50  1  0
 22 51  1  0
 23 52  1  0
 24 53  1  0
 25 54  1  0
 35 55  1  0
 35 56  1  0
 35 57  1  0
M  CHG  2  18  -1  33  -1
M  END
>  <UniqueID>  (40) 
37

>  <SMILES>  (40) 
Cc1cc(Cl)cc(S(=O)(=O)N2CCOCC2)c1[N-]C(=O)c1ccccc1S(=O)(=O)N=c1o[n-]c(C)c1Cl

>  <Energy>  (40) 
124.70997974984574

>  <Genealogy>  (40) 
Cc1cc(Cl)cc(S(=O)(=O)N2CCOCC2)c1[N-]C(=O)c1ccccc1S(=O)(=O)N=c1o[n-]c(C)c1Cl (protonated)
Cc1cc(Cl)cc(S(=O)(=O)N2CCOCC2)c1[N-]C(=O)c1ccccc1S(=O)(=O)N=c1o[n-]c(C)c1Cl (3D coordinates assigned)
Cc1cc(Cl)cc(S(=O)(=O)N2CCOCC2)c1[N-]C(=O)c1ccccc1S(=O)(=O)N=c1o[n-]c(C)c1Cl (nonaromatic ring conformer: 124.70997974984574 kcal/mol)

>  <smiles>  (40) 
Cc1cc(Cl)cc(S(=O)(=O)N2CCOCC2)c1NC(=O)c1ccccc1S(=O)(=O)N=c1o[nH]c(C)c1Cl

>  <score_type>  (40) 
oracle

>  <origin>  (40) 
adgpu

>  <m_score__min__energy>  (40) 
-12.77

>  <m_primary>  (40) 
energy

$$$$
40:0
     RDKit          3D

 39 41  0  0  0  0  0  0  0  0999 V2000
   -1.9470   26.4650  -28.9640 H   0  0  0  0  0  0  0  0  0  0  0  0
   -1.2400   25.7790  -29.3120 N   0  0  0  0  0  0  0  0  0  0  0  0
   -1.7270   24.2220  -28.7450 S   0  0  0  0  0  0  0  0  0  0  0  0
   -1.7780   24.2330  -27.2420 O   0  0  0  0  0  0  0  0  0  0  0  0
   -0.7260   23.1910  -29.1840 O   0  0  0  0  0  0  0  0  0  0  0  0
   -3.3140   23.8280  -29.3960 C   0  0  0  0  0  0  0  0  0  0  0  0
   -4.2110   24.8490  -29.7400 C   0  0  0  0  0  0  0  0  0  0  0  0
   -3.9260   25.9015  -29.5949 H   0  0  0  0  0  0  0  0  0  0  0  0
   -5.4670   24.5330  -30.2670 C   0  0  0  0  0  0  0  0  0  0  0  0
   -6.1736   25.3389  -30.5145 H   0  0  0  0  0  0  0  0  0  0  0  0
   -5.8320   23.1990  -30.4820 C   0  0  0  0  0  0  0  0  0  0  0  0
   -7.1430   22.9210  -31.0040 N   0  0  0  0  0  0  0  0  0  0  0  0
   -7.5290   21.8230  -31.5820 C   0  0  0  0  0  0  0  0  0  0  0  0
   -6.7160   20.7840  -31.8670 N   0  0  0  0  0  0  0  0  0  0  0  0
   -7.3730   19.7790  -32.5120 C   0  0  0  0  0  0  0  0  0  0  0  0
   -6.6690   18.5340  -32.9190 C   0  0  0  0  0  0  0  0  0  0  0  0
   -6.2170   18.3360  -34.2390 C   0  0  0  0  0  0  0  0  0  0  0  0
   -6.3827   19.1177  -34.9950 H   0  0  0  0  0  0  0  0  0  0  0  0
   -5.5600   17.1550  -34.5960 C   0  0  0  0  0  0  0  0  0  0  0  0
   -5.2068   17.0166  -35.6285 H   0  0  0  0  0  0  0  0  0  0  0  0
   -5.3490   16.1480  -33.6480 C   0  0  0  0  0  0  0  0  0  0  0  0
   -4.5060   14.6690  -34.0970 S   0  0  0  0  0  0  0  0  0  0  0  0
   -3.8620   14.0610  -32.8830 O   0  0  0  0  0  0  0  0  0  0  0  0
   -5.4830   13.6810  -34.6710 O   0  0  0  0  0  0  0  0  0  0  0  0
   -3.2590   15.0450  -35.3070 C   0  0  0  0  0  0  0  0  0  0  0  0
   -2.3260   15.3263  -34.7968 H   0  0  0  0  0  0  0  0  0  0  0  0
   -3.0804   14.1608  -35.9365 H   0  0  0  0  0  0  0  0  0  0  0  0
   -3.5990   15.8806  -35.9365 H   0  0  0  0  0  0  0  0  0  0  0  0
   -5.7910   16.3350  -32.3330 C   0  0  0  0  0  0  0  0  0  0  0  0
   -5.6198   15.5509  -31.5808 H   0  0  0  0  0  0  0  0  0  0  0  0
   -6.4490   17.5140  -31.9720 C   0  0  0  0  0  0  0  0  0  0  0  0
   -6.7989   17.6471  -30.9376 H   0  0  0  0  0  0  0  0  0  0  0  0
   -8.7280   20.0420  -32.7510 C   0  0  0  0  0  0  0  0  0  0  0  0
   -9.4351   19.3678  -33.2565 H   0  0  0  0  0  0  0  0  0  0  0  0
   -9.0900   21.5650  -32.1330 S   0  0  0  0  0  0  0  0  0  0  0  0
   -4.9390   22.1740  -30.1150 C   0  0  0  0  0  0  0  0  0  0  0  0
   -5.2299   21.1210  -30.2439 H   0  0  0  0  0  0  0  0  0  0  0  0
   -3.6830   22.4910  -29.5870 C   0  0  0  0  0  0  0  0  0  0  0  0
   -2.9821   21.6862  -29.3207 H   0  0  0  0  0  0  0  0  0  0  0  0
  1  2  1  0
  2  3  1  0
  3  4  2  0
  3  5  2  0
  3  6  1  0
  6  7  2  0
  7  8  1  0
  7  9  1  0
  9 10  1  0
  9 11  2  0
 11 12  1  0
 12 13  2  0
 13 14  1  0
 14 15  1  0
 15 16  1  0
 16 17  2  0
 17 18  1  0
 17 19  1  0
 19 20  1  0
 19 21  2  0
 21 22  1  0
 22 23  2  0
 22 24  2  0
 22 25  1  0
 25 26  1  0
 25 27  1  0
 25 28  1  0
 21 29  1  0
 29 30  1  0
 29 31  2  0
 31 32  1  0
 15 33  2  0
 33 34  1  0
 33 35  1  0
 11 36  1  0
 36 37  1  0
 36 38  2  0
 38 39  1  0
 38  6  1  0
 35 13  1  0
 31 16  1  0
M  CHG  2   2  -1  14  -1
M  END
>  <UniqueID>  (41) 
38

>  <SMILES>  (41) 
CS(=O)(=O)c1ccc(-c2cs/c(=N/c3ccc(S([NH-])(=O)=O)cc3)[n-]2)cc1

>  <Energy>  (41) 
76.29647458047097

>  <Genealogy>  (41) 
CS(=O)(=O)c1ccc(-c2csc(=Nc3ccc(S([NH-])(=O)=O)cc3)[n-]2)cc1 (protonated)
CS(=O)(=O)c1ccc(-c2cs/c(=N/c3ccc(S([NH-])(=O)=O)cc3)[n-]2)cc1 (cis-trans isomerization)
CS(=O)(=O)c1ccc(-c2cs/c(=N/c3ccc(S([NH-])(=O)=O)cc3)[n-]2)cc1 (3D coordinates assigned)
CS(=O)(=O)c1ccc(-c2cs/c(=N/c3ccc(S([NH-])(=O)=O)cc3)[n-]2)cc1 (optimized conformer: 76.29647458047097 kcal/mol)

>  <smiles>  (41) 
CS(=O)(=O)c1ccc(-c2csc(=Nc3ccc(S(N)(=O)=O)cc3)[nH]2)cc1

>  <score_type>  (41) 
oracle

>  <origin>  (41) 
adgpu

>  <m_score__min__energy>  (41) 
-11.08

>  <m_primary>  (41) 
energy

$$$$
41:0
     RDKit          3D

 45 47  0  0  0  0  0  0  0  0999 V2000
   -1.9390   24.7830  -27.1380 O   0  0  0  0  0  0  0  0  0  0  0  0
   -2.0890   24.9400  -28.3790 C   0  0  0  0  0  0  0  0  0  0  0  0
   -1.5510   26.0750  -28.9760 O   0  0  0  0  0  0  0  0  0  0  0  0
   -2.8240   23.9400  -29.1950 C   0  0  0  0  0  0  0  0  0  0  0  0
   -2.6710   22.5720  -28.9100 C   0  0  0  0  0  0  0  0  0  0  0  0
   -3.3470   21.6060  -29.6590 C   0  0  0  0  0  0  0  0  0  0  0  0
   -4.1930   21.9810  -30.7140 C   0  0  0  0  0  0  0  0  0  0  0  0
   -4.8920   20.9800  -31.4860 N   0  0  0  0  0  0  0  0  0  0  0  0
   -4.4340   19.5850  -31.4990 C   0  0  0  0  0  0  0  0  0  0  0  0
   -5.6270   18.6420  -31.7050 C   0  0  0  0  0  0  0  0  0  0  0  0
   -6.4300   18.9600  -32.9190 N   0  0  0  0  0  0  0  0  0  0  0  0
   -6.1190   17.8000  -34.1900 S   0  0  0  0  0  0  0  0  0  0  0  0
   -7.2390   16.7980  -34.2540 O   0  0  0  0  0  0  0  0  0  0  0  0
   -6.0300   18.5070  -35.5130 O   0  0  0  0  0  0  0  0  0  0  0  0
   -4.6160   16.9420  -33.8570 C   0  0  0  0  0  0  0  0  0  0  0  0
   -4.6290   15.7090  -33.1930 C   0  0  0  0  0  0  0  0  0  0  0  0
   -3.4300   15.0390  -32.9340 C   0  0  0  0  0  0  0  0  0  0  0  0
   -3.4530   13.3670  -32.0110 Br  0  0  0  0  0  0  0  0  0  0  0  0
   -2.2140   15.5910  -33.3480 C   0  0  0  0  0  0  0  0  0  0  0  0
   -2.1890   16.8130  -34.0430 C   0  0  0  0  0  0  0  0  0  0  0  0
   -0.8750   17.4330  -34.4510 C   0  0  0  0  0  0  0  0  0  0  0  0
    0.0930   17.2000  -33.4900 F   0  0  0  0  0  0  0  0  0  0  0  0
   -0.4640   16.8790  -35.6490 F   0  0  0  0  0  0  0  0  0  0  0  0
   -1.0070   18.8020  -34.6100 F   0  0  0  0  0  0  0  0  0  0  0  0
   -3.3970   17.4930  -34.2740 C   0  0  0  0  0  0  0  0  0  0  0  0
   -6.2330   20.3320  -33.4460 C   0  0  0  0  0  0  0  0  0  0  0  0
   -6.0410   21.3550  -32.3220 C   0  0  0  0  0  0  0  0  0  0  0  0
   -4.3510   23.3480  -31.0010 C   0  0  0  0  0  0  0  0  0  0  0  0
   -3.6770   24.3210  -30.2540 C   0  0  0  0  0  0  0  0  0  0  0  0
   -3.8700   25.6600  -30.5780 O   0  0  0  0  0  0  0  0  0  0  0  0
   -2.0112   22.2586  -28.0875 H   0  0  0  0  0  0  0  0  0  0  0  0
   -3.2149   20.5406  -29.4195 H   0  0  0  0  0  0  0  0  0  0  0  0
   -3.7140   19.4458  -32.3189 H   0  0  0  0  0  0  0  0  0  0  0  0
   -3.9536   19.3541  -30.5368 H   0  0  0  0  0  0  0  0  0  0  0  0
   -5.2468   17.6140  -31.7979 H   0  0  0  0  0  0  0  0  0  0  0  0
   -6.2904   18.7631  -30.8360 H   0  0  0  0  0  0  0  0  0  0  0  0
   -7.4430   18.8600  -32.6690 H   0  0  0  0  0  0  0  0  0  0  0  0
   -5.5847   15.2670  -32.8747 H   0  0  0  0  0  0  0  0  0  0  0  0
   -1.2722   15.0667  -33.1289 H   0  0  0  0  0  0  0  0  0  0  0  0
   -3.3855   18.4662  -34.7866 H   0  0  0  0  0  0  0  0  0  0  0  0
   -5.3416   20.3406  -34.0904 H   0  0  0  0  0  0  0  0  0  0  0  0
   -7.1343   20.6122  -34.0110 H   0  0  0  0  0  0  0  0  0  0  0  0
   -5.8626   22.3478  -32.7607 H   0  0  0  0  0  0  0  0  0  0  0  0
   -6.9468   21.3776  -31.6983 H   0  0  0  0  0  0  0  0  0  0  0  0
   -5.0130   23.6570  -31.8234 H   0  0  0  0  0  0  0  0  0  0  0  0
  1  2  2  0
  2  3  1  0
  2  4  1  0
  4  5  2  0
  5  6  1  0
  6  7  2  0
  7  8  1  0
  8  9  1  0
  9 10  1  0
 10 11  1  0
 11 12  1  0
 12 13  2  0
 12 14  2  0
 12 15  1  0
 15 16  2  0
 16 17  1  0
 17 18  1  0
 17 19  2  0
 19 20  1  0
 20 21  1  0
 21 22  1  0
 21 23  1  0
 21 24  1  0
 20 25  2  0
 11 26  1  0
 26 27  1  0
  7 28  1  0
 28 29  2  0
 29 30  1  0
 29  4  1  0
 27  8  1  0
 25 15  1  0
  5 31  1  0
  6 32  1  0
  9 33  1  0
  9 34  1  0
 10 35  1  0
 10 36  1  0
 11 37  1  0
 16 38  1  0
 19 39  1  0
 25 40  1  0
 26 41  1  0
 26 42  1  0
 27 43  1  0
 27 44  1  0
 28 45  1  0
M  CHG  3   3  -1  11   1  30  -1
M  END
>  <UniqueID>  (42) 
39

>  <SMILES>  (42) 
O=C([O-])c1ccc(N2CC[NH+](S(=O)(=O)c3cc(Br)cc(C(F)(F)F)c3)CC2)cc1[O-]

>  <Energy>  (42) 
57.54545055102507

>  <Genealogy>  (42) 
O=C([O-])c1ccc(N2CC[NH+](S(=O)(=O)c3cc(Br)cc(C(F)(F)F)c3)CC2)cc1[O-] (protonated)
O=C([O-])c1ccc(N2CC[NH+](S(=O)(=O)c3cc(Br)cc(C(F)(F)F)c3)CC2)cc1[O-] (3D coordinates assigned)
O=C([O-])c1ccc(N2CC[NH+](S(=O)(=O)c3cc(Br)cc(C(F)(F)F)c3)CC2)cc1[O-] (nonaromatic ring conformer: 57.54545055102507 kcal/mol)

>  <smiles>  (42) 
O=C(O)c1ccc(N2CCN(S(=O)(=O)c3cc(Br)cc(C(F)(F)F)c3)CC2)cc1O

>  <score_type>  (42) 
oracle

>  <origin>  (42) 
adgpu

>  <m_score__min__energy>  (42) 
-11.779999999999999

>  <m_primary>  (42) 
energy

$$$$
42:0
     RDKit          3D

 42 44  0  0  0  0  0  0  0  0999 V2000
    0.1650   26.9980  -23.7010 C   0  0  0  0  0  0  0  0  0  0  0  0
    0.8110   25.6800  -23.6960 N   0  0  0  0  0  0  0  0  0  0  0  0
    1.3090   25.3010  -25.0370 C   0  0  0  0  0  0  0  0  0  0  0  0
    1.0270   23.8280  -25.3850 C   0  0  0  0  0  0  0  0  0  0  0  0
   -0.4380   23.5790  -25.7640 C   0  0  0  0  0  0  0  0  0  0  0  0
   -0.5150   22.8450  -27.0350 N   0  0  0  0  0  0  0  0  0  0  0  0
   -0.2940   23.5470  -28.2790 C   0  0  0  0  0  0  0  0  0  0  0  0
    0.2290   24.6950  -28.2750 O   0  0  0  0  0  0  0  0  0  0  0  0
   -0.6690   22.9180  -29.5970 C   0  0  2  0  0  0  0  0  0  0  0  0
   -2.1840   22.9070  -29.8340 C   0  0  0  0  0  0  0  0  0  0  0  0
   -2.8480   21.7470  -30.2950 C   0  0  0  0  0  0  0  0  0  0  0  0
   -4.2260   21.7500  -30.5210 C   0  0  0  0  0  0  0  0  0  0  0  0
   -4.9660   22.9160  -30.3290 C   0  0  0  0  0  0  0  0  0  0  0  0
   -4.3240   24.0880  -29.9340 C   0  0  0  0  0  0  0  0  0  0  0  0
   -2.9430   24.0980  -29.7080 C   0  0  0  0  0  0  0  0  0  0  0  0
   -2.3400   25.3050  -29.3750 O   0  0  0  0  0  0  0  0  0  0  0  0
    0.1350   21.2720  -29.6160 S   0  0  0  0  0  0  0  0  0  0  0  0
   -0.7720   20.6630  -28.1860 C   0  0  0  0  0  0  0  0  0  0  0  0
   -1.3150   19.3760  -28.2110 C   0  0  0  0  0  0  0  0  0  0  0  0
   -1.9920   18.8850  -27.0950 C   0  0  0  0  0  0  0  0  0  0  0  0
   -2.1260   19.6950  -25.9670 C   0  0  0  0  0  0  0  0  0  0  0  0
   -1.6190   20.9560  -25.9720 N   0  0  0  0  0  0  0  0  0  0  0  0
   -0.9540   21.4690  -27.0460 C   0  0  0  0  0  0  0  0  0  0  0  0
    0.0021   27.3304  -22.6652 H   0  0  0  0  0  0  0  0  0  0  0  0
    0.8109   27.7209  -24.2208 H   0  0  0  0  0  0  0  0  0  0  0  0
   -0.8021   26.9304  -24.2208 H   0  0  0  0  0  0  0  0  0  0  0  0
    0.1370   24.9730  -23.3190 H   0  0  0  0  0  0  0  0  0  0  0  0
    1.6190   25.7260  -23.0320 H   0  0  0  0  0  0  0  0  0  0  0  0
    0.8188   25.9392  -25.7870 H   0  0  0  0  0  0  0  0  0  0  0  0
    2.4005   25.4373  -25.0351 H   0  0  0  0  0  0  0  0  0  0  0  0
    1.6641   23.5388  -26.2339 H   0  0  0  0  0  0  0  0  0  0  0  0
    1.2450   23.2276  -24.4895 H   0  0  0  0  0  0  0  0  0  0  0  0
   -0.9227   22.9879  -24.9730 H   0  0  0  0  0  0  0  0  0  0  0  0
   -0.9494   24.5464  -25.8763 H   0  0  0  0  0  0  0  0  0  0  0  0
   -0.3067   23.5072  -30.4524 H   0  0  0  0  0  0  0  0  0  0  0  0
   -2.2707   20.8288  -30.4783 H   0  0  0  0  0  0  0  0  0  0  0  0
   -4.7293   20.8295  -30.8516 H   0  0  0  0  0  0  0  0  0  0  0  0
   -6.0543   22.9107  -30.4890 H   0  0  0  0  0  0  0  0  0  0  0  0
   -4.9065   25.0113  -29.7990 H   0  0  0  0  0  0  0  0  0  0  0  0
   -1.2087   18.7508  -29.1098 H   0  0  0  0  0  0  0  0  0  0  0  0
   -2.4158   17.8700  -27.1040 H   0  0  0  0  0  0  0  0  0  0  0  0
   -2.6419   19.3131  -25.0737 H   0  0  0  0  0  0  0  0  0  0  0  0
  1  2  1  0
  2  3  1  0
  3  4  1  0
  4  5  1  0
  5  6  1  0
  6  7  1  0
  7  8  2  0
  7  9  1  0
  9 10  1  0
 10 11  2  0
 11 12  1  0
 12 13  2  0
 13 14  1  0
 14 15  2  0
 15 16  1  0
  9 17  1  0
 17 18  1  0
 18 19  2  0
 19 20  1  0
 20 21  2  0
 21 22  1  0
 22 23  2  0
 23  6  1  0
 15 10  1  0
 23 18  1  0
  1 24  1  0
  1 25  1  0
  1 26  1  0
  2 27  1  0
  2 28  1  0
  3 29  1  0
  3 30  1  0
  4 31  1  0
  4 32  1  0
  5 33  1  0
  5 34  1  0
  9 35  1  6
 11 36  1  0
 12 37  1  0
 13 38  1  0
 14 39  1  0
 19 40  1  0
 20 41  1  0
 21 42  1  0
M  CHG  2   2   1  16  -1
M  END
>  <UniqueID>  (43) 
40

>  <SMILES>  (43) 
C[NH2+]CCCN1C(=O)[C@H](c2ccccc2[O-])Sc2cccnc21

>  <Energy>  (43) 
53.25525890913381

>  <Genealogy>  (43) 
C[NH2+]CCCN1C(=O)C(c2ccccc2[O-])Sc2cccnc21 (protonated)
C[NH2+]CCCN1C(=O)[C@H](c2ccccc2[O-])Sc2cccnc21 (chirality)
C[NH2+]CCCN1C(=O)[C@H](c2ccccc2[O-])Sc2cccnc21 (3D coordinates assigned)
C[NH2+]CCCN1C(=O)[C@H](c2ccccc2[O-])Sc2cccnc21 (nonaromatic ring conformer: 53.25525890913381 kcal/mol)

>  <smiles>  (43) 
CNCCCN1C(=O)C(c2ccccc2O)Sc2cccnc21

>  <score_type>  (43) 
oracle

>  <origin>  (43) 
adgpu

>  <m_score__min__energy>  (43) 
-10.25

>  <m_primary>  (43) 
energy

$$$$
43:0
     RDKit          3D

 69 73  0  0  0  0  0  0  0  0999 V2000
   -6.1260   25.3130  -30.1860 C   0  0  0  0  0  0  0  0  0  0  0  0
   -7.1100   24.1800  -30.4800 C   0  0  0  0  0  0  0  0  0  0  0  0
   -7.1260   23.7950  -31.9630 C   0  0  0  0  0  0  0  0  0  0  0  0
   -6.9490   22.3160  -32.1700 C   0  0  0  0  0  0  0  0  0  0  0  0
   -7.9990   21.4500  -32.1200 N   0  0  0  0  0  0  0  0  0  0  0  0
   -7.4210   20.2540  -32.3490 C   0  0  0  0  0  0  0  0  0  0  0  0
   -8.0220   18.9950  -32.4390 C   0  0  0  0  0  0  0  0  0  0  0  0
   -9.4910   18.8040  -32.2110 C   0  0  0  0  0  0  0  0  0  0  0  0
   -7.1700   17.8980  -32.6900 C   0  0  0  0  0  0  0  0  0  0  0  0
   -5.7770   18.1060  -32.8710 C   0  0  0  0  0  0  0  0  0  0  0  0
   -4.8750   16.9450  -33.1480 C   0  0  0  0  0  0  0  0  0  0  0  0
   -5.2540   19.3670  -32.7820 N   0  0  0  0  0  0  0  0  0  0  0  0
   -6.0830   20.4070  -32.5210 C   0  0  0  0  0  0  0  0  0  0  0  0
   -5.7530   21.7010  -32.4070 N   0  0  0  0  0  0  0  0  0  0  0  0
   -4.4250   22.2930  -32.5940 C   0  0  0  0  0  0  0  0  0  0  0  0
   -3.7420   22.4950  -31.2680 C   0  0  0  0  0  0  0  0  0  0  0  0
   -4.4920   22.5280  -30.0820 C   0  0  0  0  0  0  0  0  0  0  0  0
   -3.8490   22.6260  -28.8440 C   0  0  0  0  0  0  0  0  0  0  0  0
   -2.4510   22.6990  -28.7830 C   0  0  0  0  0  0  0  0  0  0  0  0
   -1.7630   22.6660  -27.4790 C   0  0  0  0  0  0  0  0  0  0  0  0
   -1.2390   23.8590  -26.9580 C   0  0  0  0  0  0  0  0  0  0  0  0
   -0.5460   23.8550  -25.7460 C   0  0  0  0  0  0  0  0  0  0  0  0
   -0.3690   22.6610  -25.0460 C   0  0  0  0  0  0  0  0  0  0  0  0
   -0.9000   21.4710  -25.5440 C   0  0  0  0  0  0  0  0  0  0  0  0
   -1.6090   21.4580  -26.7550 C   0  0  0  0  0  0  0  0  0  0  0  0
   -2.2980   19.9330  -27.3370 S   0  0  0  0  0  0  0  0  0  0  0  0
   -2.5450   20.0480  -28.8140 O   0  0  0  0  0  0  0  0  0  0  0  0
   -3.5960   19.6670  -26.6310 O   0  0  0  0  0  0  0  0  0  0  0  0
   -1.1630   18.6680  -26.9940 N   0  0  0  0  0  0  0  0  0  0  0  0
   -0.0140   18.4090  -27.5500 C   0  0  0  0  0  0  0  0  0  0  0  0
    0.7360   17.4170  -27.1330 O   0  0  0  0  0  0  0  0  0  0  0  0
    1.8380   17.3520  -27.8180 N   0  0  0  0  0  0  0  0  0  0  0  0
    1.8310   18.3460  -28.7210 C   0  0  0  0  0  0  0  0  0  0  0  0
    2.9280   18.5850  -29.7110 C   0  0  0  0  0  0  0  0  0  0  0  0
    0.6380   19.0500  -28.6110 C   0  0  0  0  0  0  0  0  0  0  0  0
    0.2230   20.2130  -29.4600 C   0  0  0  0  0  0  0  0  0  0  0  0
   -1.7050   22.7330  -29.9690 C   0  0  0  0  0  0  0  0  0  0  0  0
   -2.3460   22.6280  -31.2040 C   0  0  0  0  0  0  0  0  0  0  0  0
   -6.0208   25.4341  -29.0978 H   0  0  0  0  0  0  0  0  0  0  0  0
   -5.1466   25.0710  -30.6244 H   0  0  0  0  0  0  0  0  0  0  0  0
   -6.5028   26.2489  -30.6244 H   0  0  0  0  0  0  0  0  0  0  0  0
   -6.8216   23.2985  -29.8886 H   0  0  0  0  0  0  0  0  0  0  0  0
   -8.1175   24.5309  -30.2122 H   0  0  0  0  0  0  0  0  0  0  0  0
   -8.0893   24.1003  -32.3975 H   0  0  0  0  0  0  0  0  0  0  0  0
   -6.2845   24.3067  -32.4529 H   0  0  0  0  0  0  0  0  0  0  0  0
   -9.6939   18.7776  -31.1302 H   0  0  0  0  0  0  0  0  0  0  0  0
  -10.0444   19.6378  -32.6677 H   0  0  0  0  0  0  0  0  0  0  0  0
   -9.8128   17.8565  -32.6677 H   0  0  0  0  0  0  0  0  0  0  0  0
   -7.5855   16.8810  -32.7455 H   0  0  0  0  0  0  0  0  0  0  0  0
   -4.5361   16.5088  -32.1967 H   0  0  0  0  0  0  0  0  0  0  0  0
   -5.4221   16.1852  -33.7255 H   0  0  0  0  0  0  0  0  0  0  0  0
   -4.0036   17.2873  -33.7255 H   0  0  0  0  0  0  0  0  0  0  0  0
   -3.8147   21.6219  -33.2162 H   0  0  0  0  0  0  0  0  0  0  0  0
   -4.5391   23.2702  -33.0860 H   0  0  0  0  0  0  0  0  0  0  0  0
   -5.5899   22.4766  -30.1265 H   0  0  0  0  0  0  0  0  0  0  0  0
   -4.4412   22.6458  -27.9173 H   0  0  0  0  0  0  0  0  0  0  0  0
   -1.3750   24.8022  -27.5074 H   0  0  0  0  0  0  0  0  0  0  0  0
   -0.1392   24.7940  -25.3425 H   0  0  0  0  0  0  0  0  0  0  0  0
    0.1907   22.6581  -24.0990 H   0  0  0  0  0  0  0  0  0  0  0  0
   -0.7618   20.5351  -24.9828 H   0  0  0  0  0  0  0  0  0  0  0  0
    2.5900   16.6410  -27.6720 H   0  0  0  0  0  0  0  0  0  0  0  0
    3.8669   18.7896  -29.1756 H   0  0  0  0  0  0  0  0  0  0  0  0
    3.0528   17.6930  -30.3424 H   0  0  0  0  0  0  0  0  0  0  0  0
    2.6704   19.4481  -30.3424 H   0  0  0  0  0  0  0  0  0  0  0  0
   -0.0760   21.0510  -28.8131 H   0  0  0  0  0  0  0  0  0  0  0  0
    1.0661   20.5227  -30.0950 H   0  0  0  0  0  0  0  0  0  0  0  0
   -0.6257   19.9190  -30.0950 H   0  0  0  0  0  0  0  0  0  0  0  0
   -0.6113   22.8427  -29.9262 H   0  0  0  0  0  0  0  0  0  0  0  0
   -1.7549   22.6495  -32.1314 H   0  0  0  0  0  0  0  0  0  0  0  0
  1  2  1  0
  2  3  1  0
  3  4  1  0
  4  5  2  0
  5  6  1  0
  6  7  2  0
  7  8  1  0
  7  9  1  0
  9 10  2  0
 10 11  1  0
 10 12  1  0
 12 13  2  0
 13 14  1  0
 14 15  1  0
 15 16  1  0
 16 17  2  0
 17 18  1  0
 18 19  2  0
 19 20  1  0
 20 21  2  0
 21 22  1  0
 22 23  2  0
 23 24  1  0
 24 25  2  0
 25 26  1  0
 26 27  2  0
 26 28  2  0
 26 29  1  0
 29 30  2  3
 30 31  1  0
 31 32  1  0
 32 33  1  0
 33 34  1  0
 33 35  2  0
 35 36  1  0
 19 37  1  0
 37 38  2  0
 14  4  1  0
 38 16  1  0
 13  6  1  0
 25 20  1  0
 35 30  1  0
  1 39  1  0
  1 40  1  0
  1 41  1  0
  2 42  1  0
  2 43  1  0
  3 44  1  0
  3 45  1  0
  8 46  1  0
  8 47  1  0
  8 48  1  0
  9 49  1  0
 11 50  1  0
 11 51  1  0
 11 52  1  0
 15 53  1  0
 15 54  1  0
 17 55  1  0
 18 56  1  0
 21 57  1  0
 22 58  1  0
 23 59  1  0
 24 60  1  0
 32 61  1  0
 34 62  1  0
 34 63  1  0
 34 64  1  0
 36 65  1  0
 36 66  1  0
 36 67  1  0
 37 68  1  0
 38 69  1  0
M  END
>  <UniqueID>  (44) 
41

>  <SMILES>  (44) 
CCCc1nc2c(C)cc(C)nc2n1Cc1ccc(-c2ccccc2S(=O)(=O)N=c2o[nH]c(C)c2C)cc1

>  <Energy>  (44) 
149.6753663501491

>  <Genealogy>  (44) 
CCCc1nc2c(C)cc(C)nc2n1Cc1ccc(-c2ccccc2S(=O)(=O)N=c2o[nH]c(C)c2C)cc1 (3D coordinates assigned)
CCCc1nc2c(C)cc(C)nc2n1Cc1ccc(-c2ccccc2S(=O)(=O)N=c2o[nH]c(C)c2C)cc1 (optimized conformer: 149.6753663501491 kcal/mol)

>  <smiles>  (44) 
CCCc1nc2c(C)cc(C)nc2n1Cc1ccc(-c2ccccc2S(=O)(=O)N=c2o[nH]c(C)c2C)cc1

>  <score_type>  (44) 
oracle

>  <origin>  (44) 
adgpu

>  <m_score__min__energy>  (44) 
-11.199999999999999

>  <m_primary>  (44) 
energy

$$$$
44:0
     RDKit          3D

 63 66  0  0  0  0  0  0  0  0999 V2000
   -1.5510   22.2240  -26.6020 C   0  0  0  0  0  0  0  0  0  0  0  0
   -1.3690   23.6990  -26.8510 C   0  0  0  0  0  0  0  0  0  0  0  0
   -1.0930   24.5540  -25.7700 C   0  0  0  0  0  0  0  0  0  0  0  0
   -0.9210   25.9300  -25.9700 C   0  0  0  0  0  0  0  0  0  0  0  0
   -0.5960   26.9950  -24.5980 S   0  0  0  0  0  0  0  0  0  0  0  0
   -1.2110   28.3420  -24.8640 O   0  0  0  0  0  0  0  0  0  0  0  0
   -1.2450   26.4250  -23.3660 O   0  0  0  0  0  0  0  0  0  0  0  0
    1.1190   27.1820  -24.3170 N   0  0  0  0  0  0  0  0  0  0  0  0
    1.3400   27.9970  -23.1170 C   0  0  0  0  0  0  0  0  0  0  0  0
    1.7450   25.8620  -24.1550 C   0  0  0  0  0  0  0  0  0  0  0  0
   -1.0070   26.4580  -27.2630 C   0  0  0  0  0  0  0  0  0  0  0  0
   -1.2880   25.6220  -28.3480 C   0  0  0  0  0  0  0  0  0  0  0  0
   -1.4920   24.2470  -28.1500 C   0  0  0  0  0  0  0  0  0  0  0  0
   -1.8610   23.4100  -29.3090 C   0  0  0  0  0  0  0  0  0  0  0  0
   -3.1320   23.5320  -29.8910 C   0  0  0  0  0  0  0  0  0  0  0  0
   -3.4750   22.7590  -31.0010 C   0  0  0  0  0  0  0  0  0  0  0  0
   -2.5570   21.8490  -31.5460 C   0  0  0  0  0  0  0  0  0  0  0  0
   -2.9340   21.0390  -32.6740 N   0  0  0  0  0  0  0  0  0  0  0  0
   -4.3000   21.1730  -33.1940 C   0  0  0  0  0  0  0  0  0  0  0  0
   -5.0480   19.8860  -33.0160 C   0  0  0  0  0  0  0  0  0  0  0  0
   -5.2410   19.0140  -34.0990 C   0  0  0  0  0  0  0  0  0  0  0  0
   -5.9020   17.7970  -33.9090 C   0  0  0  0  0  0  0  0  0  0  0  0
   -6.3680   17.4670  -32.6370 C   0  0  0  0  0  0  0  0  0  0  0  0
   -6.1700   18.3220  -31.5960 N   0  0  0  0  0  0  0  0  0  0  0  0
   -5.5260   19.5110  -31.7530 C   0  0  0  0  0  0  0  0  0  0  0  0
   -2.0560   19.9930  -33.1460 C   0  0  0  0  0  0  0  0  0  0  0  0
   -2.1560   18.8290  -32.6740 O   0  0  0  0  0  0  0  0  0  0  0  0
   -1.0010   20.2590  -34.1460 C   0  0  0  0  0  0  0  0  0  0  0  0
   -0.5030   21.5640  -34.2970 C   0  0  0  0  0  0  0  0  0  0  0  0
    0.5310   21.8370  -35.2010 C   0  0  0  0  0  0  0  0  0  0  0  0
    1.0590   20.8040  -35.9820 C   0  0  0  0  0  0  0  0  0  0  0  0
    2.0830   21.0730  -36.8840 O   0  0  0  0  0  0  0  0  0  0  0  0
    0.5620   19.5010  -35.8460 C   0  0  0  0  0  0  0  0  0  0  0  0
   -0.4740   19.2270  -34.9390 C   0  0  0  0  0  0  0  0  0  0  0  0
   -0.9920   17.9350  -34.8370 O   0  0  0  0  0  0  0  0  0  0  0  0
   -1.2880   21.7160  -30.9530 C   0  0  0  0  0  0  0  0  0  0  0  0
   -0.9380   22.4990  -29.8470 C   0  0  0  0  0  0  0  0  0  0  0  0
   -1.5743   22.0352  -25.5186 H   0  0  0  0  0  0  0  0  0  0  0  0
   -2.4972   21.8900  -27.0528 H   0  0  0  0  0  0  0  0  0  0  0  0
   -0.7144   21.6701  -27.0528 H   0  0  0  0  0  0  0  0  0  0  0  0
   -1.0111   24.1379  -24.7551 H   0  0  0  0  0  0  0  0  0  0  0  0
    1.1733   27.3821  -22.2203 H   0  0  0  0  0  0  0  0  0  0  0  0
    2.3731   28.3749  -23.1156 H   0  0  0  0  0  0  0  0  0  0  0  0
    0.6394   28.8450  -23.1156 H   0  0  0  0  0  0  0  0  0  0  0  0
    1.8522   25.6360  -23.0838 H   0  0  0  0  0  0  0  0  0  0  0  0
    1.1141   25.0962  -24.6300 H   0  0  0  0  0  0  0  0  0  0  0  0
    2.7372   25.8659  -24.6300 H   0  0  0  0  0  0  0  0  0  0  0  0
   -0.8530   27.5348  -27.4265 H   0  0  0  0  0  0  0  0  0  0  0  0
   -1.3496   26.0438  -29.3621 H   0  0  0  0  0  0  0  0  0  0  0  0
   -3.8612   24.2401  -29.4704 H   0  0  0  0  0  0  0  0  0  0  0  0
   -4.4728   22.8640  -31.4520 H   0  0  0  0  0  0  0  0  0  0  0  0
   -4.8199   21.9743  -32.6485 H   0  0  0  0  0  0  0  0  0  0  0  0
   -4.2548   21.4177  -34.2655 H   0  0  0  0  0  0  0  0  0  0  0  0
   -4.8717   19.2886  -35.0981 H   0  0  0  0  0  0  0  0  0  0  0  0
   -6.0527   17.1079  -34.7530 H   0  0  0  0  0  0  0  0  0  0  0  0
   -6.8957   16.5157  -32.4744 H   0  0  0  0  0  0  0  0  0  0  0  0
   -5.3809   20.1768  -30.8895 H   0  0  0  0  0  0  0  0  0  0  0  0
   -0.9306   22.3813  -33.6977 H   0  0  0  0  0  0  0  0  0  0  0  0
    0.9261   22.8592  -35.2964 H   0  0  0  0  0  0  0  0  0  0  0  0
    0.9861   18.6879  -36.4535 H   0  0  0  0  0  0  0  0  0  0  0  0
   -1.4580   17.6150  -33.9990 H   0  0  0  0  0  0  0  0  0  0  0  0
   -0.5669   20.9925  -31.3610 H   0  0  0  0  0  0  0  0  0  0  0  0
    0.0616   22.4005  -29.3986 H   0  0  0  0  0  0  0  0  0  0  0  0
  1  2  1  0
  2  3  2  0
  3  4  1  0
  4  5  1  0
  5  6  2  0
  5  7  2  0
  5  8  1  0
  8  9  1  0
  8 10  1  0
  4 11  2  0
 11 12  1  0
 12 13  2  0
 13 14  1  0
 14 15  2  0
 15 16  1  0
 16 17  2  0
 17 18  1  0
 18 19  1  0
 19 20  1  0
 20 21  2  0
 21 22  1  0
 22 23  2  0
 23 24  1  0
 24 25  2  0
 18 26  1  0
 26 27  2  0
 26 28  1  0
 28 29  2  0
 29 30  1  0
 30 31  2  0
 31 32  1  0
 31 33  1  0
 33 34  2  0
 34 35  1  0
 17 36  1  0
 36 37  2  0
 13  2  1  0
 37 14  1  0
 25 20  1  0
 34 28  1  0
  1 38  1  0
  1 39  1  0
  1 40  1  0
  3 41  1  0
  9 42  1  0
  9 43  1  0
  9 44  1  0
 10 45  1  0
 10 46  1  0
 10 47  1  0
 11 48  1  0
 12 49  1  0
 15 50  1  0
 16 51  1  0
 19 52  1  0
 19 53  1  0
 21 54  1  0
 22 55  1  0
 23 56  1  0
 25 57  1  0
 29 58  1  0
 30 59  1  0
 33 60  1  0
 35 61  1  0
 36 62  1  0
 37 63  1  0
M  CHG  1  32  -1
M  END
>  <UniqueID>  (45) 
42

>  <SMILES>  (45) 
Cc1cc(S(=O)(=O)N(C)C)ccc1-c1ccc(N(Cc2cccnc2)C(=O)c2ccc([O-])cc2O)cc1

>  <Energy>  (45) 
84.35382689999685

>  <Genealogy>  (45) 
Cc1cc(S(=O)(=O)N(C)C)ccc1-c1ccc(N(Cc2cccnc2)C(=O)c2ccc([O-])cc2O)cc1 (protonated)
Cc1cc(S(=O)(=O)N(C)C)ccc1-c1ccc(N(Cc2cccnc2)C(=O)c2ccc([O-])cc2O)cc1 (3D coordinates assigned)
Cc1cc(S(=O)(=O)N(C)C)ccc1-c1ccc(N(Cc2cccnc2)C(=O)c2ccc([O-])cc2O)cc1 (optimized conformer: 84.35382689999685 kcal/mol)

>  <smiles>  (45) 
Cc1cc(S(=O)(=O)N(C)C)ccc1-c1ccc(N(Cc2cccnc2)C(=O)c2ccc(O)cc2O)cc1

>  <score_type>  (45) 
oracle

>  <origin>  (45) 
adgpu

>  <m_score__min__energy>  (45) 
-10.18

>  <m_primary>  (45) 
energy

$$$$
45:0
     RDKit          3D

 53 58  0  0  0  0  0  0  0  0999 V2000
    4.2640   24.3440  -25.2590 O   0  0  0  0  0  0  0  0  0  0  0  0
    3.0850   24.5340  -25.6570 C   0  0  0  0  0  0  0  0  0  0  0  0
    2.5650   23.6820  -26.6870 N   0  0  0  0  0  0  0  0  0  0  0  0
    1.2600   23.7680  -27.2780 C   0  0  0  0  0  0  0  0  0  0  0  0
    0.5570   22.5870  -27.5390 C   0  0  0  0  0  0  0  0  0  0  0  0
   -0.7210   22.6330  -28.1070 C   0  0  0  0  0  0  0  0  0  0  0  0
   -1.3200   23.8660  -28.4070 C   0  0  0  0  0  0  0  0  0  0  0  0
   -2.6670   23.9110  -29.0110 C   0  0  0  0  0  0  0  0  0  0  0  0
   -3.5800   22.9090  -28.8840 N   0  0  0  0  0  0  0  0  0  0  0  0
   -4.6240   23.3920  -29.5780 C   0  0  0  0  0  0  0  0  0  0  0  0
   -5.8590   22.7870  -29.7940 C   0  0  0  0  0  0  0  0  0  0  0  0
   -6.8200   23.5000  -30.5520 C   0  0  0  0  0  0  0  0  0  0  0  0
   -8.1120   22.9460  -30.8330 N   0  0  0  0  0  0  0  0  0  0  0  0
   -8.3720   21.6090  -31.2830 C   0  0  0  0  0  0  0  0  0  0  0  0
   -9.4830   21.0840  -31.0030 O   0  0  0  0  0  0  0  0  0  0  0  0
   -7.3460   20.8160  -31.9890 C   0  0  0  0  0  0  0  0  0  0  0  0
   -5.8800   21.4390  -32.5670 S   0  0  0  0  0  0  0  0  0  0  0  0
   -5.3090   19.9790  -33.1610 C   0  0  0  0  0  0  0  0  0  0  0  0
   -4.1040   19.7280  -33.8120 C   0  0  0  0  0  0  0  0  0  0  0  0
   -3.8370   18.4150  -34.2280 C   0  0  0  0  0  0  0  0  0  0  0  0
   -4.7700   17.3890  -33.9870 C   0  0  0  0  0  0  0  0  0  0  0  0
   -5.9800   17.6670  -33.3290 C   0  0  0  0  0  0  0  0  0  0  0  0
   -6.2410   18.9790  -32.9160 C   0  0  0  0  0  0  0  0  0  0  0  0
   -7.3890   19.4380  -32.2510 C   0  0  0  0  0  0  0  0  0  0  0  0
   -8.7470   18.3970  -31.8370 Cl  0  0  0  0  0  0  0  0  0  0  0  0
   -6.4890   24.7670  -31.0930 C   0  0  0  0  0  0  0  0  0  0  0  0
   -5.2270   25.3440  -30.8540 C   0  0  0  0  0  0  0  0  0  0  0  0
   -4.3240   24.6170  -30.0850 C   0  0  0  0  0  0  0  0  0  0  0  0
   -3.1090   24.9330  -29.7290 O   0  0  0  0  0  0  0  0  0  0  0  0
   -0.6240   25.0530  -28.1200 C   0  0  0  0  0  0  0  0  0  0  0  0
    0.6530   25.0040  -27.5540 C   0  0  0  0  0  0  0  0  0  0  0  0
    2.3020   25.6660  -25.1060 C   0  0  0  0  0  0  0  0  0  0  0  0
    1.1770   25.4160  -24.2980 C   0  0  0  0  0  0  0  0  0  0  0  0
    0.4290   26.4760  -23.7760 C   0  0  0  0  0  0  0  0  0  0  0  0
    0.7860   27.7940  -24.0630 C   0  0  0  0  0  0  0  0  0  0  0  0
    1.8940   28.0570  -24.8720 C   0  0  0  0  0  0  0  0  0  0  0  0
    2.6520   27.0030  -25.3950 C   0  0  0  0  0  0  0  0  0  0  0  0
    3.7590   27.2940  -26.1850 O   0  0  0  0  0  0  0  0  0  0  0  0
    1.0120   21.6155  -27.2960 H   0  0  0  0  0  0  0  0  0  0  0  0
   -1.2591   21.6974  -28.3195 H   0  0  0  0  0  0  0  0  0  0  0  0
   -6.0812   21.7885  -29.3895 H   0  0  0  0  0  0  0  0  0  0  0  0
   -3.3813   20.5369  -33.9951 H   0  0  0  0  0  0  0  0  0  0  0  0
   -2.8936   18.1861  -34.7452 H   0  0  0  0  0  0  0  0  0  0  0  0
   -4.5504   16.3626  -34.3160 H   0  0  0  0  0  0  0  0  0  0  0  0
   -6.7107   16.8664  -33.1413 H   0  0  0  0  0  0  0  0  0  0  0  0
   -7.2261   25.3058  -31.7065 H   0  0  0  0  0  0  0  0  0  0  0  0
   -4.9650   26.3322  -31.2600 H   0  0  0  0  0  0  0  0  0  0  0  0
   -1.0869   26.0258  -28.3421 H   0  0  0  0  0  0  0  0  0  0  0  0
    1.1854   25.9385  -27.3235 H   0  0  0  0  0  0  0  0  0  0  0  0
    0.8840   24.3793  -24.0755 H   0  0  0  0  0  0  0  0  0  0  0  0
   -0.4429   26.2703  -23.1376 H   0  0  0  0  0  0  0  0  0  0  0  0
    0.1950   28.6259  -23.6522 H   0  0  0  0  0  0  0  0  0  0  0  0
    2.1720   29.0968  -25.0990 H   0  0  0  0  0  0  0  0  0  0  0  0
  1  2  2  0
  2  3  1  0
  3  4  1  0
  4  5  2  0
  5  6  1  0
  6  7  2  0
  7  8  1  0
  8  9  2  0
  9 10  1  0
 10 11  2  0
 11 12  1  0
 12 13  1  0
 13 14  1  0
 14 15  2  0
 14 16  1  0
 16 17  1  0
 17 18  1  0
 18 19  2  0
 19 20  1  0
 20 21  2  0
 21 22  1  0
 22 23  2  0
 23 24  1  0
 24 25  1  0
 12 26  2  0
 26 27  1  0
 27 28  2  0
 28 29  1  0
  7 30  1  0
 30 31  2  0
  2 32  1  0
 32 33  2  0
 33 34  1  0
 34 35  2  0
 35 36  1  0
 36 37  2  0
 37 38  1  0
 31  4  1  0
 37 32  1  0
 29  8  1  0
 28 10  1  0
 24 16  2  0
 23 18  1  0
  5 39  1  0
  6 40  1  0
 11 41  1  0
 19 42  1  0
 20 43  1  0
 21 44  1  0
 22 45  1  0
 26 46  1  0
 27 47  1  0
 30 48  1  0
 31 49  1  0
 33 50  1  0
 34 51  1  0
 35 52  1  0
 36 53  1  0
M  CHG  3   3  -1  13  -1  38  -1
M  END
>  <UniqueID>  (46) 
43

>  <SMILES>  (46) 
O=C([N-]c1ccc(-c2nc3cc([N-]C(=O)c4sc5ccccc5c4Cl)ccc3o2)cc1)c1ccccc1[O-]

>  <Energy>  (46) 
145.52225322259685

>  <Genealogy>  (46) 
O=C([N-]c1ccc(-c2nc3cc([N-]C(=O)c4sc5ccccc5c4Cl)ccc3o2)cc1)c1ccccc1[O-] (protonated)
O=C([N-]c1ccc(-c2nc3cc([N-]C(=O)c4sc5ccccc5c4Cl)ccc3o2)cc1)c1ccccc1[O-] (3D coordinates assigned)
O=C([N-]c1ccc(-c2nc3cc([N-]C(=O)c4sc5ccccc5c4Cl)ccc3o2)cc1)c1ccccc1[O-] (optimized conformer: 145.52225322259685 kcal/mol)

>  <smiles>  (46) 
O=C(Nc1ccc(-c2nc3cc(NC(=O)c4sc5ccccc5c4Cl)ccc3o2)cc1)c1ccccc1O

>  <score_type>  (46) 
oracle

>  <origin>  (46) 
adgpu

>  <m_score__min__energy>  (46) 
-11.59

>  <m_primary>  (46) 
energy

$$$$
46:0
     RDKit          3D

 45 48  0  0  0  0  0  0  0  0999 V2000
   -7.0930   25.2700  -29.7300 C   0  0  0  0  0  0  0  0  0  0  0  0
   -5.7180   25.7970  -30.1220 C   0  0  0  0  0  0  0  0  0  0  0  0
   -4.8050   24.6660  -30.4990 C   0  0  0  0  0  0  0  0  0  0  0  0
   -3.6640   24.4030  -29.8100 N   0  0  0  0  0  0  0  0  0  0  0  0
   -3.1350   23.3640  -30.4810 C   0  0  0  0  0  0  0  0  0  0  0  0
   -1.9590   22.6830  -30.1900 C   0  0  0  0  0  0  0  0  0  0  0  0
   -1.5840   21.6050  -31.0250 C   0  0  0  0  0  0  0  0  0  0  0  0
   -0.3150   20.8530  -30.7250 C   0  0  0  0  0  0  0  0  0  0  0  0
   -2.4180   21.2370  -32.1270 C   0  0  0  0  0  0  0  0  0  0  0  0
   -2.0490   20.0940  -33.0340 C   0  0  0  0  0  0  0  0  0  0  0  0
   -3.6020   21.9660  -32.3860 C   0  0  0  0  0  0  0  0  0  0  0  0
   -3.9240   23.0240  -31.5370 C   0  0  0  0  0  0  0  0  0  0  0  0
   -4.9840   23.8500  -31.5760 N   0  0  0  0  0  0  0  0  0  0  0  0
   -6.1230   23.7990  -32.4980 C   0  0  0  0  0  0  0  0  0  0  0  0
   -6.9390   22.5670  -32.2370 C   0  0  0  0  0  0  0  0  0  0  0  0
   -8.2490   22.6540  -31.7640 C   0  0  0  0  0  0  0  0  0  0  0  0
   -8.9810   21.4810  -31.5730 C   0  0  0  0  0  0  0  0  0  0  0  0
  -10.1650   21.5660  -31.1440 O   0  0  0  0  0  0  0  0  0  0  0  0
   -8.4150   20.2600  -31.8500 N   0  0  0  0  0  0  0  0  0  0  0  0
   -9.1240   19.0990  -31.6680 C   0  0  0  0  0  0  0  0  0  0  0  0
   -8.5490   17.8580  -31.9550 C   0  0  0  0  0  0  0  0  0  0  0  0
   -7.2430   17.8000  -32.4300 C   0  0  0  0  0  0  0  0  0  0  0  0
   -6.5210   18.9770  -32.6140 C   0  0  0  0  0  0  0  0  0  0  0  0
   -7.1190   20.2050  -32.3200 C   0  0  0  0  0  0  0  0  0  0  0  0
   -6.4090   21.3480  -32.5070 N   0  0  0  0  0  0  0  0  0  0  0  0
   -7.1747   25.2387  -28.6335 H   0  0  0  0  0  0  0  0  0  0  0  0
   -7.8699   25.9341  -30.1368 H   0  0  0  0  0  0  0  0  0  0  0  0
   -7.2270   24.2568  -30.1368 H   0  0  0  0  0  0  0  0  0  0  0  0
   -5.8230   26.4778  -30.9796 H   0  0  0  0  0  0  0  0  0  0  0  0
   -5.2850   26.3303  -29.2629 H   0  0  0  0  0  0  0  0  0  0  0  0
   -1.3357   22.9751  -29.3320 H   0  0  0  0  0  0  0  0  0  0  0  0
   -0.1837   20.7752  -29.6356 H   0  0  0  0  0  0  0  0  0  0  0  0
   -0.3749   19.8445  -31.1601 H   0  0  0  0  0  0  0  0  0  0  0  0
    0.5409   21.3898  -31.1601 H   0  0  0  0  0  0  0  0  0  0  0  0
   -1.7671   19.2208  -32.4273 H   0  0  0  0  0  0  0  0  0  0  0  0
   -2.9098   19.8370  -33.6688 H   0  0  0  0  0  0  0  0  0  0  0  0
   -1.2004   20.3888  -33.6688 H   0  0  0  0  0  0  0  0  0  0  0  0
   -4.2515   21.7052  -33.2346 H   0  0  0  0  0  0  0  0  0  0  0  0
   -6.7511   24.6900  -32.3509 H   0  0  0  0  0  0  0  0  0  0  0  0
   -5.7497   23.7727  -33.5324 H   0  0  0  0  0  0  0  0  0  0  0  0
   -8.6986   23.6337  -31.5447 H   0  0  0  0  0  0  0  0  0  0  0  0
  -10.1567   19.1458  -31.2919 H   0  0  0  0  0  0  0  0  0  0  0  0
   -9.1255   16.9331  -31.8062 H   0  0  0  0  0  0  0  0  0  0  0  0
   -6.7819   16.8281  -32.6596 H   0  0  0  0  0  0  0  0  0  0  0  0
   -5.4873   18.9399  -32.9882 H   0  0  0  0  0  0  0  0  0  0  0  0
  1  2  1  0
  2  3  1  0
  3  4  2  0
  4  5  1  0
  5  6  2  0
  6  7  1  0
  7  8  1  0
  7  9  2  0
  9 10  1  0
  9 11  1  0
 11 12  2  0
 12 13  1  0
 13 14  1  0
 14 15  1  0
 15 16  2  0
 16 17  1  0
 17 18  2  0
 17 19  1  0
 19 20  1  0
 20 21  2  0
 21 22  1  0
 22 23  2  0
 23 24  1  0
 24 25  2  0
 13  3  1  0
 25 15  1  0
 12  5  1  0
 24 19  1  0
  1 26  1  0
  1 27  1  0
  1 28  1  0
  2 29  1  0
  2 30  1  0
  6 31  1  0
  8 32  1  0
  8 33  1  0
  8 34  1  0
 10 35  1  0
 10 36  1  0
 10 37  1  0
 11 38  1  0
 14 39  1  0
 14 40  1  0
 16 41  1  0
 20 42  1  0
 21 43  1  0
 22 44  1  0
 23 45  1  0
M  END
>  <UniqueID>  (47) 
44

>  <SMILES>  (47) 
CCc1nc2cc(C)c(C)cc2n1Cc1cc(=O)n2ccccc2n1

>  <Energy>  (47) 
86.09506501073339

>  <Genealogy>  (47) 
CCc1nc2cc(C)c(C)cc2n1Cc1cc(=O)n2ccccc2n1 (3D coordinates assigned)
CCc1nc2cc(C)c(C)cc2n1Cc1cc(=O)n2ccccc2n1 (optimized conformer: 86.09506501073339 kcal/mol)

>  <smiles>  (47) 
CCc1nc2cc(C)c(C)cc2n1Cc1cc(=O)n2ccccc2n1

>  <score_type>  (47) 
oracle

>  <origin>  (47) 
adgpu

>  <m_score__min__energy>  (47) 
-8.7599999999999998

>  <m_primary>  (47) 
energy

$$$$
47:0
     RDKit          3D

 26 27  0  0  0  0  0  0  0  0999 V2000
   -5.3630   26.4390  -30.4670 O   0  0  0  0  0  0  0  0  0  0  0  0
   -5.0930   25.2200  -30.6210 C   0  0  0  0  0  0  0  0  0  0  0  0
   -3.8150   24.7870  -30.4670 N   0  0  0  0  0  0  0  0  0  0  0  0
   -3.4930   23.4780  -30.6310 C   0  0  0  0  0  0  0  0  0  0  0  0
   -2.2980   23.1110  -30.4880 O   0  0  0  0  0  0  0  0  0  0  0  0
   -4.4880   22.5500  -30.9590 C   0  0  0  0  0  0  0  0  0  0  0  0
   -4.0800   20.8570  -31.2230 Cl  0  0  0  0  0  0  0  0  0  0  0  0
   -5.8050   23.0120  -31.1060 C   0  0  0  0  0  0  0  0  0  0  0  0
   -6.8630   22.1050  -31.4410 N   0  0  0  0  0  0  0  0  0  0  0  0
   -6.8310   21.4100  -32.7310 C   0  0  0  0  0  0  0  0  0  0  0  0
   -7.3560   19.9720  -32.5900 C   0  0  0  0  0  0  0  0  0  0  0  0
   -8.5170   19.8270  -31.5800 C   0  0  0  0  0  0  0  0  0  0  0  0
   -9.1480   21.1700  -31.2030 C   0  0  0  0  0  0  0  0  0  0  0  0
   -8.0860   22.1110  -30.6260 C   0  0  0  0  0  0  0  0  0  0  0  0
   -6.0780   24.3360  -30.9420 N   0  0  0  0  0  0  0  0  0  0  0  0
   -7.4606   21.9549  -33.4498 H   0  0  0  0  0  0  0  0  0  0  0  0
   -5.7903   21.3721  -33.0851 H   0  0  0  0  0  0  0  0  0  0  0  0
   -7.7094   19.6338  -33.5753 H   0  0  0  0  0  0  0  0  0  0  0  0
   -6.5228   19.3631  -32.2093 H   0  0  0  0  0  0  0  0  0  0  0  0
   -9.2928   19.1873  -32.0260 H   0  0  0  0  0  0  0  0  0  0  0  0
   -8.1028   19.3866  -30.6610 H   0  0  0  0  0  0  0  0  0  0  0  0
   -9.5903   21.6280  -32.1000 H   0  0  0  0  0  0  0  0  0  0  0  0
   -9.9266   21.0001  -30.4448 H   0  0  0  0  0  0  0  0  0  0  0  0
   -8.4915   23.1331  -30.5970 H   0  0  0  0  0  0  0  0  0  0  0  0
   -7.8291   21.7636  -29.6144 H   0  0  0  0  0  0  0  0  0  0  0  0
   -7.0590   24.6780  -31.0570 H   0  0  0  0  0  0  0  0  0  0  0  0
  1  2  2  0
  2  3  1  0
  3  4  1  0
  4  5  2  0
  4  6  1  0
  6  7  1  0
  6  8  2  0
  8  9  1  0
  9 10  1  0
 10 11  1  0
 11 12  1  0
 12 13  1  0
 13 14  1  0
  8 15  1  0
 15  2  1  0
 14  9  1  0
 10 16  1  0
 10 17  1  0
 11 18  1  0
 11 19  1  0
 12 20  1  0
 12 21  1  0
 13 22  1  0
 13 23  1  0
 14 24  1  0
 14 25  1  0
 15 26  1  0
M  CHG  1   3  -1
M  END
>  <UniqueID>  (48) 
45

>  <SMILES>  (48) 
O=c1[n-]c(=O)c(Cl)c(N2CCCCC2)[nH]1

>  <Energy>  (48) 
32.92378825867179

>  <Genealogy>  (48) 
O=c1[n-]c(=O)c(Cl)c(N2CCCCC2)[nH]1 (protonated)
O=c1[n-]c(=O)c(Cl)c(N2CCCCC2)[nH]1 (3D coordinates assigned)
O=c1[n-]c(=O)c(Cl)c(N2CCCCC2)[nH]1 (nonaromatic ring conformer: 32.92378825867179 kcal/mol)

>  <smiles>  (48) 
O=c1[nH]c(N2CCCCC2)c(Cl)c(=O)[nH]1

>  <score_type>  (48) 
oracle

>  <origin>  (48) 
adgpu

>  <m_score__min__energy>  (48) 
-7.1399999999999997

>  <m_primary>  (48) 
energy

$$$$
48:0
     RDKit          3D

 59 61  0  0  0  0  0  0  0  0999 V2000
   -3.9820   25.6820  -30.3840 O   0  0  0  0  0  0  0  0  0  0  0  0
   -4.2270   24.5350  -30.8370 C   0  0  0  0  0  0  0  0  0  0  0  0
   -5.4440   24.3100  -31.5560 N   0  0  0  0  0  0  0  0  0  0  0  0
   -6.0010   23.0130  -31.8100 C   0  0  0  0  0  0  0  0  0  0  0  0
   -7.3160   22.7460  -31.4140 C   0  0  0  0  0  0  0  0  0  0  0  0
   -7.8810   21.4940  -31.6550 C   0  0  0  0  0  0  0  0  0  0  0  0
   -7.1430   20.5020  -32.3080 C   0  0  0  0  0  0  0  0  0  0  0  0
   -5.8320   20.7600  -32.7510 C   0  0  0  0  0  0  0  0  0  0  0  0
   -5.0660   19.7530  -33.4610 N   0  0  0  0  0  0  0  0  0  0  0  0
   -3.5930   19.8130  -33.4630 C   0  0  0  0  0  0  0  0  0  0  0  0
   -3.0480   19.9400  -32.0410 C   0  0  0  0  0  0  0  0  0  0  0  0
   -1.3510   20.4740  -32.0730 Cl  0  0  0  0  0  0  0  0  0  0  0  0
   -5.7280   18.6030  -34.1040 C   0  0  0  0  0  0  0  0  0  0  0  0
   -6.2460   17.5870  -33.0840 C   0  0  0  0  0  0  0  0  0  0  0  0
   -5.0490   16.3140  -32.7540 Cl  0  0  0  0  0  0  0  0  0  0  0  0
   -5.2750   22.0270  -32.5020 C   0  0  0  0  0  0  0  0  0  0  0  0
   -3.3270   23.4520  -30.5890 N   0  0  0  0  0  0  0  0  0  0  0  0
   -2.6560   23.1710  -29.3560 C   0  0  0  0  0  0  0  0  0  0  0  0
   -2.7460   21.8750  -28.8380 C   0  0  0  0  0  0  0  0  0  0  0  0
   -2.0250   21.5080  -27.6950 C   0  0  0  0  0  0  0  0  0  0  0  0
   -2.0990   19.8470  -27.0930 S   0  0  0  0  0  0  0  0  0  0  0  0
   -3.5230   19.3680  -27.1400 O   0  0  0  0  0  0  0  0  0  0  0  0
   -1.6490   19.8140  -25.6580 O   0  0  0  0  0  0  0  0  0  0  0  0
   -1.0700   18.7760  -28.0210 N   0  0  0  0  0  0  0  0  0  0  0  0
   -0.1690   19.5180  -28.9400 C   0  0  0  0  0  0  0  0  0  0  0  0
    1.3180   19.3950  -28.5700 C   0  0  0  0  0  0  0  0  0  0  0  0
    1.7360   17.9210  -28.5390 C   0  0  0  0  0  0  0  0  0  0  0  0
    0.6770   17.0110  -27.8770 C   0  0  0  0  0  0  0  0  0  0  0  0
   -0.3900   17.8180  -27.1240 C   0  0  0  0  0  0  0  0  0  0  0  0
   -1.2200   22.4590  -27.0550 C   0  0  0  0  0  0  0  0  0  0  0  0
   -1.1260   23.7560  -27.5630 C   0  0  0  0  0  0  0  0  0  0  0  0
   -1.8200   24.1150  -28.7250 C   0  0  0  0  0  0  0  0  0  0  0  0
   -1.6480   25.3900  -29.2630 O   0  0  0  0  0  0  0  0  0  0  0  0
   -7.9062   23.5261  -30.9109 H   0  0  0  0  0  0  0  0  0  0  0  0
   -8.9112   21.2861  -31.3301 H   0  0  0  0  0  0  0  0  0  0  0  0
   -7.5907   19.5115  -32.4770 H   0  0  0  0  0  0  0  0  0  0  0  0
   -3.1962   18.8942  -33.9196 H   0  0  0  0  0  0  0  0  0  0  0  0
   -3.2791   20.6962  -34.0387 H   0  0  0  0  0  0  0  0  0  0  0  0
   -3.6492   20.6758  -31.4867 H   0  0  0  0  0  0  0  0  0  0  0  0
   -3.1040   18.9582  -31.5482 H   0  0  0  0  0  0  0  0  0  0  0  0
   -6.5767   18.9708  -34.6994 H   0  0  0  0  0  0  0  0  0  0  0  0
   -4.9838   18.0962  -34.7360 H   0  0  0  0  0  0  0  0  0  0  0  0
   -6.4765   18.1112  -32.1448 H   0  0  0  0  0  0  0  0  0  0  0  0
   -7.1453   17.1109  -33.5019 H   0  0  0  0  0  0  0  0  0  0  0  0
   -4.2568   22.2501  -32.8535 H   0  0  0  0  0  0  0  0  0  0  0  0
   -3.3910   21.1350  -29.3344 H   0  0  0  0  0  0  0  0  0  0  0  0
   -0.3086   19.1247  -29.9577 H   0  0  0  0  0  0  0  0  0  0  0  0
   -0.4348   20.5828  -28.8651 H   0  0  0  0  0  0  0  0  0  0  0  0
    1.9236   19.9287  -29.3173 H   0  0  0  0  0  0  0  0  0  0  0  0
    1.4773   19.8341  -27.5741 H   0  0  0  0  0  0  0  0  0  0  0  0
    1.8961   17.5795  -29.5723 H   0  0  0  0  0  0  0  0  0  0  0  0
    2.6548   17.8503  -27.9383 H   0  0  0  0  0  0  0  0  0  0  0  0
    0.1841   16.4141  -28.6585 H   0  0  0  0  0  0  0  0  0  0  0  0
    1.1918   16.3679  -27.1480 H   0  0  0  0  0  0  0  0  0  0  0  0
   -1.1361   17.1251  -26.7077 H   0  0  0  0  0  0  0  0  0  0  0  0
    0.1048   18.3845  -26.3214 H   0  0  0  0  0  0  0  0  0  0  0  0
   -0.6601   22.1830  -26.1493 H   0  0  0  0  0  0  0  0  0  0  0  0
   -0.5025   24.5010  -27.0469 H   0  0  0  0  0  0  0  0  0  0  0  0
   -2.1070   25.6740  -30.1190 H   0  0  0  0  0  0  0  0  0  0  0  0
  1  2  2  0
  2  3  1  0
  3  4  1  0
  4  5  2  0
  5  6  1  0
  6  7  2  0
  7  8  1  0
  8  9  1  0
  9 10  1  0
 10 11  1  0
 11 12  1  0
  9 13  1  0
 13 14  1  0
 14 15  1  0
  8 16  2  0
  2 17  1  0
 17 18  1  0
 18 19  2  0
 19 20  1  0
 20 21  1  0
 21 22  2  0
 21 23  2  0
 21 24  1  0
 24 25  1  0
 25 26  1  0
 26 27  1  0
 27 28  1  0
 28 29  1  0
 20 30  2  0
 30 31  1  0
 31 32  2  0
 32 33  1  0
 16  4  1  0
 32 18  1  0
 29 24  1  0
  5 34  1  0
  6 35  1  0
  7 36  1  0
 10 37  1  0
 10 38  1  0
 11 39  1  0
 11 40  1  0
 13 41  1  0
 13 42  1  0
 14 43  1  0
 14 44  1  0
 16 45  1  0
 19 46  1  0
 25 47  1  0
 25 48  1  0
 26 49  1  0
 26 50  1  0
 27 51  1  0
 27 52  1  0
 28 53  1  0
 28 54  1  0
 29 55  1  0
 29 56  1  0
 30 57  1  0
 31 58  1  0
 33 59  1  0
M  CHG  2   3  -1  17  -1
M  END
>  <UniqueID>  (49) 
46

>  <SMILES>  (49) 
O=C([N-]c1cccc(N(CCCl)CCCl)c1)[N-]c1cc(S(=O)(=O)N2CCCCC2)ccc1O

>  <Energy>  (49) 
67.66892690546014

>  <Genealogy>  (49) 
O=C([N-]c1cccc(N(CCCl)CCCl)c1)[N-]c1cc(S(=O)(=O)N2CCCCC2)ccc1O (protonated)
O=C([N-]c1cccc(N(CCCl)CCCl)c1)[N-]c1cc(S(=O)(=O)N2CCCCC2)ccc1O (3D coordinates assigned)
O=C([N-]c1cccc(N(CCCl)CCCl)c1)[N-]c1cc(S(=O)(=O)N2CCCCC2)ccc1O (nonaromatic ring conformer: 67.66892690546014 kcal/mol)

>  <smiles>  (49) 
O=C(Nc1cccc(N(CCCl)CCCl)c1)Nc1cc(S(=O)(=O)N2CCCCC2)ccc1O

>  <score_type>  (49) 
oracle

>  <origin>  (49) 
adgpu

>  <m_score__min__energy>  (49) 
-12.140000000000001

>  <m_primary>  (49) 
energy

$$$$
49:0
     RDKit          3D

 55 58  0  0  0  0  0  0  0  0999 V2000
   -1.8490   15.8130  -33.5740 C   0  0  0  0  0  0  0  0  0  0  0  0
   -2.7110   17.0330  -33.7310 C   0  0  0  0  0  0  0  0  0  0  0  0
   -3.9780   16.8530  -34.1960 N   0  0  0  0  0  0  0  0  0  0  0  0
   -4.8320   17.8840  -34.4090 C   0  0  0  0  0  0  0  0  0  0  0  0
   -6.0290   17.6400  -34.8400 N   0  0  0  0  0  0  0  0  0  0  0  0
   -4.4060   19.1930  -34.1760 C   0  0  0  0  0  0  0  0  0  0  0  0
   -3.1130   19.4310  -33.7080 C   0  0  0  0  0  0  0  0  0  0  0  0
   -2.7150   20.7610  -33.5480 O   0  0  0  0  0  0  0  0  0  0  0  0
   -2.2510   18.3410  -33.4250 C   0  0  0  0  0  0  0  0  0  0  0  0
   -0.8760   18.5840  -32.8260 C   0  0  0  0  0  0  0  0  0  0  0  0
   -0.8000   19.9010  -32.1980 N   0  0  0  0  0  0  0  0  0  0  0  0
   -1.4080   20.2740  -30.9550 C   0  0  0  0  0  0  0  0  0  0  0  0
   -2.6370   20.0470  -30.7930 O   0  0  0  0  0  0  0  0  0  0  0  0
   -0.6100   20.9160  -29.8510 C   0  0  0  0  0  0  0  0  0  0  0  0
   -1.3380   22.0450  -29.2450 N   0  0  0  0  0  0  0  0  0  0  0  0
   -1.3220   22.1830  -27.8840 C   0  0  0  0  0  0  0  0  0  0  0  0
   -2.0130   23.2200  -27.2660 C   0  0  0  0  0  0  0  0  0  0  0  0
   -2.7260   24.1260  -28.0430 C   0  0  0  0  0  0  0  0  0  0  0  0
   -2.7540   23.9980  -29.4330 C   0  0  0  0  0  0  0  0  0  0  0  0
   -3.5130   24.9690  -30.1740 N   0  0  0  0  0  0  0  0  0  0  0  0
   -5.2390   25.0790  -30.3220 S   0  0  0  0  0  0  0  0  0  0  0  0
   -5.5880   26.2510  -31.1950 O   0  0  0  0  0  0  0  0  0  0  0  0
   -5.8670   25.2380  -28.9660 O   0  0  0  0  0  0  0  0  0  0  0  0
   -5.8400   23.5930  -31.0490 C   0  0  0  0  0  0  0  0  0  0  0  0
   -4.9710   22.7400  -31.7440 C   0  0  0  0  0  0  0  0  0  0  0  0
   -5.4500   21.5640  -32.3280 C   0  0  0  0  0  0  0  0  0  0  0  0
   -6.8090   21.2310  -32.2280 C   0  0  0  0  0  0  0  0  0  0  0  0
   -7.3020   20.0540  -32.8120 C   0  0  0  0  0  0  0  0  0  0  0  0
   -8.6600   19.7350  -32.7090 C   0  0  0  0  0  0  0  0  0  0  0  0
   -9.5320   20.5860  -32.0240 C   0  0  0  0  0  0  0  0  0  0  0  0
   -9.0530   21.7610  -31.4380 C   0  0  0  0  0  0  0  0  0  0  0  0
   -7.6930   22.0930  -31.5340 C   0  0  0  0  0  0  0  0  0  0  0  0
   -7.2000   23.2700  -30.9510 C   0  0  0  0  0  0  0  0  0  0  0  0
   -2.0560   22.9190  -30.0280 C   0  0  0  0  0  0  0  0  0  0  0  0
   -2.1070   22.7400  -31.2750 O   0  0  0  0  0  0  0  0  0  0  0  0
   -1.7011   15.6037  -32.5043 H   0  0  0  0  0  0  0  0  0  0  0  0
   -2.3408   14.9526  -34.0514 H   0  0  0  0  0  0  0  0  0  0  0  0
   -0.8738   15.9892  -34.0514 H   0  0  0  0  0  0  0  0  0  0  0  0
   -6.7250   18.3970  -35.0250 H   0  0  0  0  0  0  0  0  0  0  0  0
   -5.0886   20.0355  -34.3610 H   0  0  0  0  0  0  0  0  0  0  0  0
   -2.3500   21.1360  -32.6840 H   0  0  0  0  0  0  0  0  0  0  0  0
   -0.6729   17.8127  -32.0684 H   0  0  0  0  0  0  0  0  0  0  0  0
   -0.1306   18.5390  -33.6337 H   0  0  0  0  0  0  0  0  0  0  0  0
   -0.4053   20.1645  -29.0743 H   0  0  0  0  0  0  0  0  0  0  0  0
    0.3269   21.3001  -30.2807 H   0  0  0  0  0  0  0  0  0  0  0  0
   -0.7562   21.4657  -27.2714 H   0  0  0  0  0  0  0  0  0  0  0  0
   -1.9955   23.3225  -26.1709 H   0  0  0  0  0  0  0  0  0  0  0  0
   -3.2719   24.9494  -27.5592 H   0  0  0  0  0  0  0  0  0  0  0  0
   -3.9052   22.9980  -31.8302 H   0  0  0  0  0  0  0  0  0  0  0  0
   -4.7599   20.8983  -32.8671 H   0  0  0  0  0  0  0  0  0  0  0  0
   -6.6193   19.3812  -33.3517 H   0  0  0  0  0  0  0  0  0  0  0  0
   -9.0428   18.8118  -33.1684 H   0  0  0  0  0  0  0  0  0  0  0  0
  -10.5989   20.3300  -31.9459 H   0  0  0  0  0  0  0  0  0  0  0  0
   -9.7438   22.4271  -30.9003 H   0  0  0  0  0  0  0  0  0  0  0  0
   -7.8848   23.9429  -30.4141 H   0  0  0  0  0  0  0  0  0  0  0  0
  1  2  1  0
  2  3  1  0
  3  4  1  0
  4  5  2  3
  4  6  1  0
  6  7  2  0
  7  8  1  0
  7  9  1  0
  9 10  1  0
 10 11  1  0
 11 12  1  0
 12 13  2  0
 12 14  1  0
 14 15  1  0
 15 16  1  0
 16 17  2  0
 17 18  1  0
 18 19  2  0
 19 20  1  0
 20 21  1  0
 21 22  2  0
 21 23  2  0
 21 24  1  0
 24 25  2  0
 25 26  1  0
 26 27  2  0
 27 28  1  0
 28 29  2  0
 29 30  1  0
 30 31  2  0
 31 32  1  0
 32 33  2  0
 19 34  1  0
 34 35  2  0
  9  2  2  0
 34 15  1  0
 33 24  1  0
 32 27  1  0
  1 36  1  0
  1 37  1  0
  1 38  1  0
  5 39  1  0
  6 40  1  0
  8 41  1  0
 10 42  1  0
 10 43  1  0
 14 44  1  0
 14 45  1  0
 16 46  1  0
 17 47  1  0
 18 48  1  0
 25 49  1  0
 26 50  1  0
 28 51  1  0
 29 52  1  0
 30 53  1  0
 31 54  1  0
 33 55  1  0
M  CHG  3   3  -1  11  -1  20  -1
M  END
>  <UniqueID>  (50) 
47

>  <SMILES>  (50) 
Cc1[n-]c(=N)cc(O)c1C[N-]C(=O)Cn1cccc([N-]S(=O)(=O)c2ccc3ccccc3c2)c1=O

>  <Energy>  (50) 
74.36038030583596

>  <Genealogy>  (50) 
Cc1[n-]c(=N)cc(O)c1C[N-]C(=O)Cn1cccc([N-]S(=O)(=O)c2ccc3ccccc3c2)c1=O (protonated)
Cc1[n-]c(=N)cc(O)c1C[N-]C(=O)Cn1cccc([N-]S(=O)(=O)c2ccc3ccccc3c2)c1=O (3D coordinates assigned)
Cc1[n-]c(=N)cc(O)c1C[N-]C(=O)Cn1cccc([N-]S(=O)(=O)c2ccc3ccccc3c2)c1=O (optimized conformer: 74.36038030583596 kcal/mol)

>  <smiles>  (50) 
Cc1[nH]c(=N)cc(O)c1CNC(=O)Cn1cccc(NS(=O)(=O)c2ccc3ccccc3c2)c1=O

>  <score_type>  (50) 
oracle

>  <origin>  (50) 
adgpu

>  <m_score__min__energy>  (50) 
-11.300000000000001

>  <m_primary>  (50) 
energy

$$$$
