0:0
     RDKit          3D

 50 53  0  0  0  0  0  0  0  0999 V2000
    0.1850   22.1490  -27.6860 C   0  0  0  0  0  0  0  0  0  0  0  0
   -0.8770   22.9170  -28.4280 C   0  0  0  0  0  0  0  0  0  0  0  0
   -1.2160   24.2030  -27.9730 C   0  0  0  0  0  0  0  0  0  0  0  0
   -2.1980   24.9520  -28.6220 C   0  0  0  0  0  0  0  0  0  0  0  0
   -2.8450   24.4400  -29.7510 C   0  0  0  0  0  0  0  0  0  0  0  0
   -3.8860   25.1750  -30.4050 N   0  0  0  0  0  0  0  0  0  0  0  0
   -5.2650   24.7900  -30.4780 C   0  0  0  0  0  0  0  0  0  0  0  0
   -5.9110   24.6560  -29.4060 O   0  0  0  0  0  0  0  0  0  0  0  0
   -5.8970   24.3710  -31.7810 C   0  0  0  0  0  0  0  0  0  0  0  0
   -5.8120   22.9200  -31.9670 N   0  0  0  0  0  0  0  0  0  0  0  0
   -4.7460   22.1850  -32.3740 C   0  0  0  0  0  0  0  0  0  0  0  0
   -3.6170   22.6750  -32.6340 O   0  0  0  0  0  0  0  0  0  0  0  0
   -5.0080   20.8920  -32.4580 O   0  0  0  0  0  0  0  0  0  0  0  0
   -6.2630   20.7630  -32.1020 C   0  0  0  0  0  0  0  0  0  0  0  0
   -7.0270   19.6030  -32.0180 C   0  0  0  0  0  0  0  0  0  0  0  0
   -8.3640   19.7320  -31.6010 C   0  0  0  0  0  0  0  0  0  0  0  0
   -8.8960   21.0040  -31.2790 C   0  0  0  0  0  0  0  0  0  0  0  0
   -8.0960   22.1580  -31.3730 C   0  0  0  0  0  0  0  0  0  0  0  0
   -6.7750   21.9940  -31.7940 C   0  0  0  0  0  0  0  0  0  0  0  0
   -2.5290   23.1560  -30.2020 C   0  0  0  0  0  0  0  0  0  0  0  0
   -1.5340   22.3920  -29.5720 C   0  0  0  0  0  0  0  0  0  0  0  0
   -1.1810   20.7780  -30.2340 S   0  0  0  0  0  0  0  0  0  0  0  0
    0.3080   20.6650  -30.4000 O   0  0  0  0  0  0  0  0  0  0  0  0
   -1.5940   19.7160  -29.2520 O   0  0  0  0  0  0  0  0  0  0  0  0
   -1.9260   20.5100  -31.8010 N   0  0  0  0  0  0  0  0  0  0  0  0
   -1.9700   19.1010  -32.1970 C   0  0  0  0  0  0  0  0  0  0  0  0
   -2.1340   19.0920  -33.7080 C   0  0  0  0  0  0  0  0  0  0  0  0
   -1.5890   20.4360  -34.1720 C   0  0  0  0  0  0  0  0  0  0  0  0
   -1.2310   21.1910  -32.8960 C   0  0  0  0  0  0  0  0  0  0  0  0
    0.0295   22.2614  -26.6029 H   0  0  0  0  0  0  0  0  0  0  0  0
    0.1243   21.0845  -27.9566 H   0  0  0  0  0  0  0  0  0  0  0  0
    1.1769   22.5401  -27.9566 H   0  0  0  0  0  0  0  0  0  0  0  0
   -0.7017   24.6232  -27.0961 H   0  0  0  0  0  0  0  0  0  0  0  0
   -2.4645   25.9500  -28.2438 H   0  0  0  0  0  0  0  0  0  0  0  0
   -6.9552   24.6715  -31.7799 H   0  0  0  0  0  0  0  0  0  0  0  0
   -5.3564   24.8607  -32.6044 H   0  0  0  0  0  0  0  0  0  0  0  0
   -6.6006   18.6205  -32.2687 H   0  0  0  0  0  0  0  0  0  0  0  0
   -9.0009   18.8384  -31.5245 H   0  0  0  0  0  0  0  0  0  0  0  0
   -9.9429   21.0909  -30.9528 H   0  0  0  0  0  0  0  0  0  0  0  0
   -8.4964   23.1518  -31.1241 H   0  0  0  0  0  0  0  0  0  0  0  0
   -3.0684   22.7371  -31.0643 H   0  0  0  0  0  0  0  0  0  0  0  0
   -2.9090   20.8710  -31.7570 H   0  0  0  0  0  0  0  0  0  0  0  0
   -1.0360   18.5950  -31.9115 H   0  0  0  0  0  0  0  0  0  0  0  0
   -2.7954   18.5699  -31.7003 H   0  0  0  0  0  0  0  0  0  0  0  0
   -1.5594   18.2670  -34.1543 H   0  0  0  0  0  0  0  0  0  0  0  0
   -3.1818   18.9451  -34.0088 H   0  0  0  0  0  0  0  0  0  0  0  0
   -0.6959   20.2936  -34.7982 H   0  0  0  0  0  0  0  0  0  0  0  0
   -2.3217   20.9862  -34.7806 H   0  0  0  0  0  0  0  0  0  0  0  0
   -0.1438   21.1643  -32.7310 H   0  0  0  0  0  0  0  0  0  0  0  0
   -1.5307   22.2474  -32.9614 H   0  0  0  0  0  0  0  0  0  0  0  0
  1  2  1  0
  2  3  2  0
  3  4  1  0
  4  5  2  0
  5  6  1  0
  6  7  1  0
  7  8  2  0
  7  9  1  0
  9 10  1  0
 10 11  1  0
 11 12  2  0
 11 13  1  0
 13 14  1  0
 14 15  2  0
 15 16  1  0
 16 17  2  0
 17 18  1  0
 18 19  2  0
  5 20  1  0
 20 21  2  0
 21 22  1  0
 22 23  2  0
 22 24  2  0
 22 25  1  0
 25 26  1  0
 26 27  1  0
 27 28  1  0
 28 29  1  0
 21  2  1  0
 29 25  1  0
 19 10  1  0
 19 14  1  0
  1 30  1  0
  1 31  1  0
  1 32  1  0
  3 33  1  0
  4 34  1  0
  9 35  1  0
  9 36  1  0
 15 37  1  0
 16 38  1  0
 17 39  1  0
 18 40  1  0
 20 41  1  0
 25 42  1  0
 26 43  1  0
 26 44  1  0
 27 45  1  0
 27 46  1  0
 28 47  1  0
 28 48  1  0
 29 49  1  0
 29 50  1  0
M  CHG  2   6  -1  25   1
M  END
>  <UniqueID>  (1) 
1

>  <SMILES>  (1) 
Cc1ccc([N-]C(=O)Cn2c(=O)oc3ccccc32)cc1S(=O)(=O)[NH+]1CCCC1

>  <Energy>  (1) 
105.91144547409402

>  <Genealogy>  (1) 
Cc1ccc([N-]C(=O)Cn2c(=O)oc3ccccc32)cc1S(=O)(=O)[NH+]1CCCC1 (protonated)
Cc1ccc([N-]C(=O)Cn2c(=O)oc3ccccc32)cc1S(=O)(=O)[NH+]1CCCC1 (3D coordinates assigned)
Cc1ccc([N-]C(=O)Cn2c(=O)oc3ccccc32)cc1S(=O)(=O)[NH+]1CCCC1 (nonaromatic ring conformer: 105.91144547409402 kcal/mol)

>  <smiles>  (1) 
Cc1ccc(NC(=O)Cn2c(=O)oc3ccccc32)cc1S(=O)(=O)N1CCCC1

>  <score_type>  (1) 
oracle

>  <origin>  (1) 
adgpu

>  <m_score__min__energy>  (1) 
-11.27

>  <m_primary>  (1) 
energy

$$$$
1:0
     RDKit          3D

 74 78  0  0  0  0  0  0  0  0999 V2000
   -0.9250   21.2150  -26.9490 C   0  0  0  0  0  0  0  0  0  0  0  0
   -1.5860   22.5560  -26.7860 C   0  0  0  0  0  0  0  0  0  0  0  0
   -0.9770   23.5510  -26.0080 C   0  0  0  0  0  0  0  0  0  0  0  0
   -1.5630   24.8150  -25.8960 C   0  0  0  0  0  0  0  0  0  0  0  0
   -0.9380   25.8310  -25.0900 C   0  0  0  0  0  0  0  0  0  0  0  0
   -0.4350   26.6470  -24.4400 N   0  0  0  0  0  0  0  0  0  0  0  0
   -2.7450   25.1030  -26.5870 C   0  0  0  0  0  0  0  0  0  0  0  0
   -3.3570   24.1270  -27.3870 C   0  0  0  0  0  0  0  0  0  0  0  0
   -4.5950   24.4930  -28.1580 C   0  0  0  0  0  0  0  0  0  0  0  0
   -2.8010   22.8280  -27.4440 C   0  0  0  0  0  0  0  0  0  0  0  0
   -3.4070   21.8040  -28.1840 O   0  0  0  0  0  0  0  0  0  0  0  0
   -3.4850   21.7530  -29.5850 C   0  0  0  0  0  0  0  0  0  0  0  0
   -2.3940   21.2290  -30.2800 C   0  0  0  0  0  0  0  0  0  0  0  0
   -2.4110   21.1480  -31.6710 C   0  0  0  0  0  0  0  0  0  0  0  0
   -3.5130   21.6150  -32.4000 C   0  0  0  0  0  0  0  0  0  0  0  0
   -3.4380   21.6180  -33.8310 N   0  0  0  0  0  0  0  0  0  0  0  0
   -4.6370   22.1310  -31.7100 C   0  0  0  0  0  0  0  0  0  0  0  0
   -5.7920   22.6300  -32.4080 N   0  0  0  0  0  0  0  0  0  0  0  0
   -7.1200   22.1410  -32.1640 C   0  0  0  0  0  0  0  0  0  0  0  0
   -8.1040   23.0390  -31.7240 C   0  0  0  0  0  0  0  0  0  0  0  0
   -9.4300   22.6220  -31.5870 C   0  0  0  0  0  0  0  0  0  0  0  0
   -9.7800   21.3010  -31.8660 C   0  0  0  0  0  0  0  0  0  0  0  0
   -8.8000   20.3820  -32.2470 C   0  0  0  0  0  0  0  0  0  0  0  0
   -7.4590   20.7860  -32.3750 C   0  0  0  0  0  0  0  0  0  0  0  0
   -6.4150   19.7590  -32.5610 C   0  0  0  0  0  0  0  0  0  0  0  0
   -5.6990   19.4420  -31.5750 O   0  0  0  0  0  0  0  0  0  0  0  0
   -6.2660   19.0860  -33.8230 N   0  0  0  0  0  0  0  0  0  0  0  0
   -5.5040   17.8800  -34.0160 C   0  0  0  0  0  0  0  0  0  0  0  0
   -4.5640   17.7480  -35.0560 C   0  0  0  0  0  0  0  0  0  0  0  0
   -3.8150   16.5750  -35.1900 C   0  0  0  0  0  0  0  0  0  0  0  0
   -4.0160   15.5020  -34.3100 C   0  0  0  0  0  0  0  0  0  0  0  0
   -3.2410   14.2230  -34.4730 C   0  0  0  0  0  0  0  0  0  0  0  0
   -2.0400   14.2410  -33.6140 N   0  0  0  0  0  0  0  0  0  0  0  0
   -2.1910   13.2960  -32.4910 C   0  0  0  0  0  0  0  0  0  0  0  0
   -1.0580   13.4770  -31.4590 C   0  0  0  0  0  0  0  0  0  0  0  0
   -0.0190   14.2770  -31.9860 O   0  0  0  0  0  0  0  0  0  0  0  0
   -0.4970   15.5880  -32.2230 C   0  0  0  0  0  0  0  0  0  0  0  0
   -1.7690   15.5960  -33.0970 C   0  0  0  0  0  0  0  0  0  0  0  0
   -4.9840   15.6130  -33.3020 C   0  0  0  0  0  0  0  0  0  0  0  0
   -5.7200   16.7920  -33.1570 C   0  0  0  0  0  0  0  0  0  0  0  0
   -4.6130   22.1930  -30.3060 C   0  0  0  0  0  0  0  0  0  0  0  0
   -0.7141   20.7872  -25.9578 H   0  0  0  0  0  0  0  0  0  0  0  0
   -1.5943   20.5414  -27.5042 H   0  0  0  0  0  0  0  0  0  0  0  0
    0.0169   21.3356  -27.5042 H   0  0  0  0  0  0  0  0  0  0  0  0
   -0.0342   23.3359  -25.4837 H   0  0  0  0  0  0  0  0  0  0  0  0
   -3.1975   26.1020  -26.5022 H   0  0  0  0  0  0  0  0  0  0  0  0
   -5.4068   24.7330  -27.4556 H   0  0  0  0  0  0  0  0  0  0  0  0
   -4.3873   25.3682  -28.7912 H   0  0  0  0  0  0  0  0  0  0  0  0
   -4.8965   23.6456  -28.7912 H   0  0  0  0  0  0  0  0  0  0  0  0
   -1.5124   20.8766  -29.7245 H   0  0  0  0  0  0  0  0  0  0  0  0
   -1.5512   20.7134  -32.2019 H   0  0  0  0  0  0  0  0  0  0  0  0
   -2.5270   21.4480  -34.3140 H   0  0  0  0  0  0  0  0  0  0  0  0
   -4.2440   21.9050  -34.4220 H   0  0  0  0  0  0  0  0  0  0  0  0
   -5.6700   23.4220  -33.0790 H   0  0  0  0  0  0  0  0  0  0  0  0
   -7.8297   24.0772  -31.4856 H   0  0  0  0  0  0  0  0  0  0  0  0
  -10.1993   23.3364  -31.2586 H   0  0  0  0  0  0  0  0  0  0  0  0
  -10.8298   20.9825  -31.7858 H   0  0  0  0  0  0  0  0  0  0  0  0
   -9.0783   19.3369  -32.4480 H   0  0  0  0  0  0  0  0  0  0  0  0
   -6.8890   19.3930  -34.6060 H   0  0  0  0  0  0  0  0  0  0  0  0
   -4.4179   18.5736  -35.7681 H   0  0  0  0  0  0  0  0  0  0  0  0
   -3.0642   16.4935  -35.9898 H   0  0  0  0  0  0  0  0  0  0  0  0
   -3.8786   13.3731  -34.1882 H   0  0  0  0  0  0  0  0  0  0  0  0
   -2.9294   14.1237  -35.5233 H   0  0  0  0  0  0  0  0  0  0  0  0
   -3.1581   13.4746  -31.9983 H   0  0  0  0  0  0  0  0  0  0  0  0
   -2.1434   12.2709  -32.8871 H   0  0  0  0  0  0  0  0  0  0  0  0
   -1.4646   13.9616  -30.5591 H   0  0  0  0  0  0  0  0  0  0  0  0
   -0.6477   12.4872  -31.2102 H   0  0  0  0  0  0  0  0  0  0  0  0
   -0.7280   16.0608  -31.2570 H   0  0  0  0  0  0  0  0  0  0  0  0
    0.2865   16.1406  -32.7622 H   0  0  0  0  0  0  0  0  0  0  0  0
   -2.6238   15.9317  -32.4916 H   0  0  0  0  0  0  0  0  0  0  0  0
   -1.6178   16.2803  -33.9449 H   0  0  0  0  0  0  0  0  0  0  0  0
   -5.1651   14.7677  -32.6218 H   0  0  0  0  0  0  0  0  0  0  0  0
   -6.4761   16.8678  -32.3616 H   0  0  0  0  0  0  0  0  0  0  0  0
   -5.4843   22.5894  -29.7641 H   0  0  0  0  0  0  0  0  0  0  0  0
  1  2  1  0
  2  3  2  0
  3  4  1  0
  4  5  1  0
  5  6  3  0
  4  7  2  0
  7  8  1  0
  8  9  1  0
  8 10  2  0
 10 11  1  0
 11 12  1  0
 12 13  2  0
 13 14  1  0
 14 15  2  0
 15 16  1  0
 15 17  1  0
 17 18  1  0
 18 19  1  0
 19 20  2  0
 20 21  1  0
 21 22  2  0
 22 23  1  0
 23 24  2  0
 24 25  1  0
 25 26  2  0
 25 27  1  0
 27 28  1  0
 28 29  2  0
 29 30  1  0
 30 31  2  0
 31 32  1  0
 32 33  1  0
 33 34  1  0
 34 35  1  0
 35 36  1  0
 36 37  1  0
 37 38  1  0
 31 39  1  0
 39 40  2  0
 17 41  2  0
 10  2  1  0
 41 12  1  0
 24 19  1  0
 40 28  1  0
 38 33  1  0
  1 42  1  0
  1 43  1  0
  1 44  1  0
  3 45  1  0
  7 46  1  0
  9 47  1  0
  9 48  1  0
  9 49  1  0
 13 50  1  0
 14 51  1  0
 16 52  1  0
 16 53  1  0
 18 54  1  0
 20 55  1  0
 21 56  1  0
 22 57  1  0
 23 58  1  0
 27 59  1  0
 29 60  1  0
 30 61  1  0
 32 62  1  0
 32 63  1  0
 34 64  1  0
 34 65  1  0
 35 66  1  0
 35 67  1  0
 37 68  1  0
 37 69  1  0
 38 70  1  0
 38 71  1  0
 39 72  1  0
 40 73  1  0
 41 74  1  0
M  END
>  <UniqueID>  (2) 
2

>  <SMILES>  (2) 
Cc1cc(C#N)cc(C)c1Oc1ccc(N)c(Nc2ccccc2C(=O)Nc2ccc(CN3CCOCC3)cc2)c1

>  <Energy>  (2) 
112.33203067003295

>  <Genealogy>  (2) 
Cc1cc(C#N)cc(C)c1Oc1ccc(N)c(Nc2ccccc2C(=O)Nc2ccc(CN3CCOCC3)cc2)c1 (3D coordinates assigned)
Cc1cc(C#N)cc(C)c1Oc1ccc(N)c(Nc2ccccc2C(=O)Nc2ccc(CN3CCOCC3)cc2)c1 (nonaromatic ring conformer: 112.33203067003295 kcal/mol)

>  <smiles>  (2) 
Cc1cc(C#N)cc(C)c1Oc1ccc(N)c(Nc2ccccc2C(=O)Nc2ccc(CN3CCOCC3)cc2)c1

>  <score_type>  (2) 
oracle

>  <origin>  (2) 
adgpu

>  <m_score__min__energy>  (2) 
-10.98

>  <m_primary>  (2) 
energy

$$$$
2:0
     RDKit          3D

 46 48  0  0  0  0  0  0  0  0999 V2000
   -6.1330   17.1130  -30.8660 C   0  0  0  0  0  0  0  0  0  0  0  0
   -5.6510   17.6390  -32.1910 C   0  0  0  0  0  0  0  0  0  0  0  0
   -4.2660   17.7100  -32.4220 C   0  0  0  0  0  0  0  0  0  0  0  0
   -3.7620   18.2600  -33.6150 C   0  0  0  0  0  0  0  0  0  0  0  0
   -2.3860   18.3670  -33.8800 O   0  0  0  0  0  0  0  0  0  0  0  0
   -1.6600   19.5910  -34.0010 C   0  0  0  0  0  0  0  0  0  0  0  0
   -2.2490   20.6530  -33.1110 C   0  0  0  0  0  0  0  0  0  0  0  0
   -1.6590   20.9390  -31.8700 C   0  0  0  0  0  0  0  0  0  0  0  0
   -2.2050   21.9220  -31.0400 C   0  0  0  0  0  0  0  0  0  0  0  0
   -3.3480   22.6280  -31.4370 C   0  0  0  0  0  0  0  0  0  0  0  0
   -4.0400   23.8560  -30.3830 S   0  0  0  0  0  0  0  0  0  0  0  0
   -2.7780   24.8560  -29.7560 N   0  0  0  0  0  0  0  0  0  0  0  0
   -4.7690   23.1990  -29.2460 O   0  0  0  0  0  0  0  0  0  0  0  0
   -5.0130   24.7000  -31.1560 O   0  0  0  0  0  0  0  0  0  0  0  0
   -3.9520   22.3290  -32.6660 C   0  0  0  0  0  0  0  0  0  0  0  0
   -3.4080   21.3460  -33.4980 C   0  0  0  0  0  0  0  0  0  0  0  0
   -4.6550   18.7290  -34.5800 C   0  0  0  0  0  0  0  0  0  0  0  0
   -6.0330   18.6410  -34.3730 C   0  0  0  0  0  0  0  0  0  0  0  0
   -6.5430   18.0670  -33.2040 C   0  0  0  0  0  0  0  0  0  0  0  0
   -7.9680   17.9680  -33.0670 N   0  0  0  0  0  0  0  0  0  0  0  0
   -8.7890   18.7650  -32.2000 C   0  0  0  0  0  0  0  0  0  0  0  0
   -9.7280   18.2030  -31.5780 O   0  0  0  0  0  0  0  0  0  0  0  0
   -8.5490   20.2130  -31.9950 C   0  0  0  0  0  0  0  0  0  0  0  0
   -9.6120   21.1250  -32.1260 C   0  0  0  0  0  0  0  0  0  0  0  0
   -9.3950   22.4940  -31.9410 C   0  0  0  0  0  0  0  0  0  0  0  0
   -8.1220   22.9640  -31.6120 C   0  0  0  0  0  0  0  0  0  0  0  0
   -7.0640   22.0660  -31.4580 C   0  0  0  0  0  0  0  0  0  0  0  0
   -7.2750   20.6960  -31.6420 C   0  0  0  0  0  0  0  0  0  0  0  0
   -5.6335   17.6581  -30.0515 H   0  0  0  0  0  0  0  0  0  0  0  0
   -7.2211   17.2550  -30.7890 H   0  0  0  0  0  0  0  0  0  0  0  0
   -5.8967   16.0414  -30.7890 H   0  0  0  0  0  0  0  0  0  0  0  0
   -3.5680   17.3310  -31.6609 H   0  0  0  0  0  0  0  0  0  0  0  0
   -0.6126   19.4189  -33.7124 H   0  0  0  0  0  0  0  0  0  0  0  0
   -1.7186   19.9337  -35.0446 H   0  0  0  0  0  0  0  0  0  0  0  0
   -0.7631   20.3871  -31.5493 H   0  0  0  0  0  0  0  0  0  0  0  0
   -1.7349   22.1424  -30.0702 H   0  0  0  0  0  0  0  0  0  0  0  0
   -3.2350   25.6940  -29.3330 H   0  0  0  0  0  0  0  0  0  0  0  0
   -4.8578   22.8700  -32.9771 H   0  0  0  0  0  0  0  0  0  0  0  0
   -3.8895   21.1143  -34.4595 H   0  0  0  0  0  0  0  0  0  0  0  0
   -4.2701   19.1713  -35.5107 H   0  0  0  0  0  0  0  0  0  0  0  0
   -6.7242   19.0269  -35.1367 H   0  0  0  0  0  0  0  0  0  0  0  0
  -10.6191   20.7594  -32.3752 H   0  0  0  0  0  0  0  0  0  0  0  0
  -10.2290   23.2022  -32.0549 H   0  0  0  0  0  0  0  0  0  0  0  0
   -7.9526   24.0421  -31.4741 H   0  0  0  0  0  0  0  0  0  0  0  0
   -6.0632   22.4367  -31.1916 H   0  0  0  0  0  0  0  0  0  0  0  0
   -6.4404   19.9917  -31.5101 H   0  0  0  0  0  0  0  0  0  0  0  0
  1  2  1  0
  2  3  2  0
  3  4  1  0
  4  5  1  0
  5  6  1  0
  6  7  1  0
  7  8  2  0
  8  9  1  0
  9 10  2  0
 10 11  1  0
 11 12  1  0
 11 13  2  0
 11 14  2  0
 10 15  1  0
 15 16  2  0
  4 17  2  0
 17 18  1  0
 18 19  2  0
 19 20  1  0
 20 21  1  0
 21 22  2  0
 21 23  1  0
 23 24  2  0
 24 25  1  0
 25 26  2  0
 26 27  1  0
 27 28  2  0
 19  2  1  0
 28 23  1  0
 16  7  1  0
  1 29  1  0
  1 30  1  0
  1 31  1  0
  3 32  1  0
  6 33  1  0
  6 34  1  0
  8 35  1  0
  9 36  1  0
 12 37  1  0
 15 38  1  0
 16 39  1  0
 17 40  1  0
 18 41  1  0
 24 42  1  0
 25 43  1  0
 26 44  1  0
 27 45  1  0
 28 46  1  0
M  CHG  2  12  -1  20  -1
M  END
>  <UniqueID>  (3) 
3

>  <SMILES>  (3) 
Cc1cc(OCc2ccc(S([NH-])(=O)=O)cc2)ccc1[N-]C(=O)c1ccccc1

>  <Energy>  (3) 
57.39690409733389

>  <Genealogy>  (3) 
Cc1cc(OCc2ccc(S([NH-])(=O)=O)cc2)ccc1[N-]C(=O)c1ccccc1 (protonated)
Cc1cc(OCc2ccc(S([NH-])(=O)=O)cc2)ccc1[N-]C(=O)c1ccccc1 (3D coordinates assigned)
Cc1cc(OCc2ccc(S([NH-])(=O)=O)cc2)ccc1[N-]C(=O)c1ccccc1 (optimized conformer: 57.39690409733389 kcal/mol)

>  <smiles>  (3) 
Cc1cc(OCc2ccc(S(N)(=O)=O)cc2)ccc1NC(=O)c1ccccc1

>  <score_type>  (3) 
oracle

>  <origin>  (3) 
adgpu

>  <m_score__min__energy>  (3) 
-11.57

>  <m_primary>  (3) 
energy

$$$$
3:0
     RDKit          3D

 52 54  0  0  0  0  0  0  0  0999 V2000
   -5.7370   16.5870  -31.5460 C   0  0  0  0  0  0  0  0  0  0  0  0
   -6.8720   16.8730  -32.9390 S   0  0  0  0  0  0  0  0  0  0  0  0
   -6.7110   18.6660  -32.8610 C   0  0  0  0  0  0  0  0  0  0  0  0
   -5.5180   19.2890  -33.2700 C   0  0  0  0  0  0  0  0  0  0  0  0
   -4.4010   18.5070  -33.7200 N   0  0  0  0  0  0  0  0  0  0  0  0
   -3.0660   18.8480  -33.2340 C   0  0  0  0  0  0  0  0  0  0  0  0
   -4.5200   17.7410  -34.9590 C   0  0  0  0  0  0  0  0  0  0  0  0
   -5.4130   20.6830  -33.2240 C   0  0  0  0  0  0  0  0  0  0  0  0
   -6.4690   21.4680  -32.7410 C   0  0  0  0  0  0  0  0  0  0  0  0
   -6.3290   22.8990  -32.6790 N   0  0  0  0  0  0  0  0  0  0  0  0
   -5.9860   23.6160  -31.4790 C   0  0  0  0  0  0  0  0  0  0  0  0
   -6.9770   24.3390  -30.8000 C   0  0  0  0  0  0  0  0  0  0  0  0
   -6.6780   24.9980  -29.6040 C   0  0  0  0  0  0  0  0  0  0  0  0
   -5.3890   24.9290  -29.0680 C   0  0  0  0  0  0  0  0  0  0  0  0
   -4.3890   24.2020  -29.7300 C   0  0  0  0  0  0  0  0  0  0  0  0
   -2.7750   24.0580  -29.0340 S   0  0  0  0  0  0  0  0  0  0  0  0
   -2.8870   23.9170  -27.5410 O   0  0  0  0  0  0  0  0  0  0  0  0
   -1.9630   25.2870  -29.3220 O   0  0  0  0  0  0  0  0  0  0  0  0
   -1.9960   22.6370  -29.6570 N   0  0  0  0  0  0  0  0  0  0  0  0
   -1.6880   21.4450  -28.9190 C   0  0  0  0  0  0  0  0  0  0  0  0
   -0.4160   20.8780  -29.0710 C   0  0  0  0  0  0  0  0  0  0  0  0
   -0.0610   19.7310  -28.3550 C   0  0  0  0  0  0  0  0  0  0  0  0
   -0.9790   19.1340  -27.4880 C   0  0  0  0  0  0  0  0  0  0  0  0
   -2.2600   19.6750  -27.3500 C   0  0  0  0  0  0  0  0  0  0  0  0
   -3.4190   18.9130  -26.2760 Cl  0  0  0  0  0  0  0  0  0  0  0  0
   -2.6190   20.8210  -28.0680 C   0  0  0  0  0  0  0  0  0  0  0  0
   -4.6910   23.5500  -30.9310 C   0  0  0  0  0  0  0  0  0  0  0  0
   -7.6670   20.8460  -32.3350 C   0  0  0  0  0  0  0  0  0  0  0  0
   -8.7550   21.6480  -31.8250 C   0  0  0  0  0  0  0  0  0  0  0  0
   -9.6270   22.2890  -31.4150 N   0  0  0  0  0  0  0  0  0  0  0  0
   -7.7850   19.4400  -32.3950 C   0  0  0  0  0  0  0  0  0  0  0  0
   -8.9570   18.7900  -31.9930 O   0  0  0  0  0  0  0  0  0  0  0  0
   -6.2782   16.7234  -30.5981 H   0  0  0  0  0  0  0  0  0  0  0  0
   -5.3428   15.5614  -31.5989 H   0  0  0  0  0  0  0  0  0  0  0  0
   -4.9038   17.3033  -31.5989 H   0  0  0  0  0  0  0  0  0  0  0  0
   -3.0652   18.8482  -32.1340 H   0  0  0  0  0  0  0  0  0  0  0  0
   -2.3416   18.1061  -33.6011 H   0  0  0  0  0  0  0  0  0  0  0  0
   -2.7861   19.8465  -33.6011 H   0  0  0  0  0  0  0  0  0  0  0  0
   -4.6848   16.6801  -34.7198 H   0  0  0  0  0  0  0  0  0  0  0  0
   -5.3699   18.1211  -35.5449 H   0  0  0  0  0  0  0  0  0  0  0  0
   -3.5949   17.8453  -35.5449 H   0  0  0  0  0  0  0  0  0  0  0  0
   -4.4897   21.1696  -33.5714 H   0  0  0  0  0  0  0  0  0  0  0  0
   -6.5450   23.4510  -33.5400 H   0  0  0  0  0  0  0  0  0  0  0  0
   -7.9962   24.3880  -31.2110 H   0  0  0  0  0  0  0  0  0  0  0  0
   -7.4588   25.5721  -29.0836 H   0  0  0  0  0  0  0  0  0  0  0  0
   -5.1584   25.4461  -28.1249 H   0  0  0  0  0  0  0  0  0  0  0  0
    0.3086   21.3386  -29.7586 H   0  0  0  0  0  0  0  0  0  0  0  0
    0.9430   19.2979  -28.4746 H   0  0  0  0  0  0  0  0  0  0  0  0
   -0.6941   18.2394  -26.9148 H   0  0  0  0  0  0  0  0  0  0  0  0
   -3.6328   21.2358  -27.9669 H   0  0  0  0  0  0  0  0  0  0  0  0
   -3.9080   22.9798  -31.4524 H   0  0  0  0  0  0  0  0  0  0  0  0
   -8.9570   17.9570  -31.4190 H   0  0  0  0  0  0  0  0  0  0  0  0
  1  2  1  0
  2  3  1  0
  3  4  2  0
  4  5  1  0
  5  6  1  0
  5  7  1  0
  4  8  1  0
  8  9  2  0
  9 10  1  0
 10 11  1  0
 11 12  2  0
 12 13  1  0
 13 14  2  0
 14 15  1  0
 15 16  1  0
 16 17  2  0
 16 18  2  0
 16 19  1  0
 19 20  1  0
 20 21  2  0
 21 22  1  0
 22 23  2  0
 23 24  1  0
 24 25  1  0
 24 26  2  0
 15 27  2  0
  9 28  1  0
 28 29  1  0
 29 30  3  0
 28 31  2  0
 31 32  1  0
 31  3  1  0
 27 11  1  0
 26 20  1  0
  1 33  1  0
  1 34  1  0
  1 35  1  0
  6 36  1  0
  6 37  1  0
  6 38  1  0
  7 39  1  0
  7 40  1  0
  7 41  1  0
  8 42  1  0
 10 43  1  0
 12 44  1  0
 13 45  1  0
 14 46  1  0
 21 47  1  0
 22 48  1  0
 23 49  1  0
 26 50  1  0
 27 51  1  0
 32 52  1  0
M  CHG  1  19  -1
M  END
>  <UniqueID>  (4) 
4

>  <SMILES>  (4) 
CSc1c(N(C)C)cc(Nc2cccc(S(=O)(=O)[N-]c3cccc(Cl)c3)c2)c(C#N)c1O

>  <Energy>  (4) 
63.09345035357275

>  <Genealogy>  (4) 
CSc1c(N(C)C)cc(Nc2cccc(S(=O)(=O)[N-]c3cccc(Cl)c3)c2)c(C#N)c1O (protonated)
CSc1c(N(C)C)cc(Nc2cccc(S(=O)(=O)[N-]c3cccc(Cl)c3)c2)c(C#N)c1O (3D coordinates assigned)
CSc1c(N(C)C)cc(Nc2cccc(S(=O)(=O)[N-]c3cccc(Cl)c3)c2)c(C#N)c1O (optimized conformer: 63.09345035357275 kcal/mol)

>  <smiles>  (4) 
CSc1c(N(C)C)cc(Nc2cccc(S(=O)(=O)Nc3cccc(Cl)c3)c2)c(C#N)c1O

>  <score_type>  (4) 
oracle

>  <origin>  (4) 
adgpu

>  <m_score__min__energy>  (4) 
-11.23

>  <m_primary>  (4) 
energy

$$$$
4:0
     RDKit          3D

 56 59  0  0  0  0  0  0  0  0999 V2000
    0.1954   21.0533  -27.9340 H   0  0  0  0  0  0  0  0  0  0  0  0
   -0.1360   20.6470  -28.9010 C   0  0  0  0  0  0  0  0  0  0  0  0
    0.1170   19.4010  -29.3460 N   0  0  0  0  0  0  0  0  0  0  0  0
   -0.4790   19.3520  -30.5580 C   0  0  0  0  0  0  0  0  0  0  0  0
   -0.4640   18.1180  -31.4060 C   0  0  0  0  0  0  0  0  0  0  0  0
   -0.4532   17.2285  -30.7589 H   0  0  0  0  0  0  0  0  0  0  0  0
   -1.3620   18.0986  -32.0410 H   0  0  0  0  0  0  0  0  0  0  0  0
    0.4342   18.1204  -32.0410 H   0  0  0  0  0  0  0  0  0  0  0  0
   -1.0980   20.5090  -30.8910 N   0  0  0  0  0  0  0  0  0  0  0  0
   -1.8290   20.7820  -32.1350 C   0  0  0  0  0  0  0  0  0  0  0  0
   -2.5410   21.6030  -31.9645 H   0  0  0  0  0  0  0  0  0  0  0  0
   -2.3674   19.8725  -32.4398 H   0  0  0  0  0  0  0  0  0  0  0  0
   -0.8600   21.1790  -33.2440 C   0  0  0  0  0  0  0  0  0  0  0  0
    0.0707   21.5603  -32.7986 H   0  0  0  0  0  0  0  0  0  0  0  0
   -0.6354   20.3004  -33.8666 H   0  0  0  0  0  0  0  0  0  0  0  0
   -1.3164   21.9626  -33.8666 H   0  0  0  0  0  0  0  0  0  0  0  0
   -0.8750   21.3380  -29.8430 C   0  0  0  0  0  0  0  0  0  0  0  0
   -1.3870   22.7240  -29.6820 C   0  0  0  0  0  0  0  0  0  0  0  0
   -2.6100   23.0760  -30.1680 N   0  0  0  0  0  0  0  0  0  0  0  0
   -3.1110   24.3330  -29.9940 C   0  0  0  0  0  0  0  0  0  0  0  0
   -4.2990   24.6520  -30.4150 N   0  0  0  0  0  0  0  0  0  0  0  0
   -5.1670   23.8210  -31.1970 C   0  0  0  0  0  0  0  0  0  0  0  0
   -6.5570   24.0150  -31.1910 C   0  0  0  0  0  0  0  0  0  0  0  0
   -6.9930   24.8413  -30.6104 H   0  0  0  0  0  0  0  0  0  0  0  0
   -7.3880   23.1620  -31.9200 C   0  0  0  0  0  0  0  0  0  0  0  0
   -8.4758   23.3252  -31.9216 H   0  0  0  0  0  0  0  0  0  0  0  0
   -6.8410   22.1010  -32.6480 C   0  0  0  0  0  0  0  0  0  0  0  0
   -7.4985   21.4419  -33.2338 H   0  0  0  0  0  0  0  0  0  0  0  0
   -5.4510   21.8730  -32.6340 C   0  0  0  0  0  0  0  0  0  0  0  0
   -4.8420   20.8170  -33.3330 O   0  0  0  0  0  0  0  0  0  0  0  0
   -5.1350   19.4270  -33.1710 C   0  0  1  0  0  0  0  0  0  0  0  0
   -4.1953   18.8588  -33.1067 H   0  0  0  0  0  0  0  0  0  0  0  0
   -5.9510   19.2370  -31.8730 C   0  0  0  0  0  0  0  0  0  0  0  0
   -6.6647   20.0699  -31.7893 H   0  0  0  0  0  0  0  0  0  0  0  0
   -5.2267   19.2112  -31.0455 H   0  0  0  0  0  0  0  0  0  0  0  0
   -6.7140   17.9610  -31.8130 N   0  0  0  0  0  0  0  0  0  0  0  0
   -8.1670   18.1720  -31.9160 C   0  0  0  0  0  0  0  0  0  0  0  0
   -8.6008   18.2350  -30.9071 H   0  0  0  0  0  0  0  0  0  0  0  0
   -8.3640   19.1082  -32.4589 H   0  0  0  0  0  0  0  0  0  0  0  0
   -8.6221   17.3305  -32.4589 H   0  0  0  0  0  0  0  0  0  0  0  0
   -6.2360   16.9320  -32.7590 C   0  0  0  0  0  0  0  0  0  0  0  0
   -6.8757   16.0421  -32.6650 H   0  0  0  0  0  0  0  0  0  0  0  0
   -5.1894   16.7066  -32.5065 H   0  0  0  0  0  0  0  0  0  0  0  0
   -6.2710   17.4130  -34.2220 C   0  0  0  0  0  0  0  0  0  0  0  0
   -7.2808   17.2412  -34.6229 H   0  0  0  0  0  0  0  0  0  0  0  0
   -5.5070   16.8444  -34.7725 H   0  0  0  0  0  0  0  0  0  0  0  0
   -5.9310   18.9050  -34.3750 C   0  0  0  0  0  0  0  0  0  0  0  0
   -6.8662   19.4777  -34.4606 H   0  0  0  0  0  0  0  0  0  0  0  0
   -5.3128   19.0274  -35.2766 H   0  0  0  0  0  0  0  0  0  0  0  0
   -4.6270   22.7350  -31.8980 C   0  0  0  0  0  0  0  0  0  0  0  0
   -3.5419   22.5565  -31.8704 H   0  0  0  0  0  0  0  0  0  0  0  0
   -2.3810   25.2600  -29.3210 N   0  0  0  0  0  0  0  0  0  0  0  0
   -1.1490   24.9660  -28.8380 C   0  0  0  0  0  0  0  0  0  0  0  0
   -0.5665   25.7358  -28.3106 H   0  0  0  0  0  0  0  0  0  0  0  0
   -0.6210   23.6880  -29.0100 C   0  0  0  0  0  0  0  0  0  0  0  0
    0.3792   23.4394  -28.6255 H   0  0  0  0  0  0  0  0  0  0  0  0
  1  2  1  0
  2  3  1  0
  3  4  2  0
  4  5  1  0
  5  6  1  0
  5  7  1  0
  5  8  1  0
  4  9  1  0
  9 10  1  0
 10 11  1  0
 10 12  1  0
 10 13  1  0
 13 14  1  0
 13 15  1  0
 13 16  1  0
  9 17  1  0
 17 18  1  0
 18 19  2  0
 19 20  1  0
 20 21  2  0
 21 22  1  0
 22 23  2  0
 23 24  1  0
 23 25  1  0
 25 26  1  0
 25 27  2  0
 27 28  1  0
 27 29  1  0
 29 30  1  0
 30 31  1  0
 31 32  1  1
 31 33  1  0
 33 34  1  0
 33 35  1  0
 33 36  1  0
 36 37  1  0
 37 38  1  0
 37 39  1  0
 37 40  1  0
 36 41  1  0
 41 42  1  0
 41 43  1  0
 41 44  1  0
 44 45  1  0
 44 46  1  0
 44 47  1  0
 47 48  1  0
 47 49  1  0
 29 50  2  0
 50 51  1  0
 20 52  1  0
 52 53  1  0
 53 54  1  0
 53 55  2  0
 55 56  1  0
 17  2  2  0
 55 18  1  0
 50 22  1  0
 47 31  1  0
M  CHG  1  52  -1
M  END
>  <UniqueID>  (5) 
5

>  <SMILES>  (5) 
CCn1c(-c2cc[n-]/c(=N/c3cccc(O[C@@H]4CCCN(C)C4)c3)n2)cnc1C

>  <Energy>  (5) 
102.61701521518458

>  <Genealogy>  (5) 
CCn1c(-c2cc[n-]c(=Nc3cccc(OC4CCCN(C)C4)c3)n2)cnc1C (protonated)
CCn1c(-c2cc[n-]c(=Nc3cccc(O[C@@H]4CCCN(C)C4)c3)n2)cnc1C (chirality)
CCn1c(-c2cc[n-]/c(=N/c3cccc(O[C@@H]4CCCN(C)C4)c3)n2)cnc1C (cis-trans isomerization)
CCn1c(-c2cc[n-]/c(=N/c3cccc(O[C@@H]4CCCN(C)C4)c3)n2)cnc1C (3D coordinates assigned)
CCn1c(-c2cc[n-]/c(=N/c3cccc(O[C@@H]4CCCN(C)C4)c3)n2)cnc1C (nonaromatic ring conformer: 102.61701521518458 kcal/mol)

>  <smiles>  (5) 
CCn1c(-c2cc[nH]c(=Nc3cccc(OC4CCCN(C)C4)c3)n2)cnc1C

>  <score_type>  (5) 
oracle

>  <origin>  (5) 
adgpu

>  <m_score__min__energy>  (5) 
-10.57

>  <m_primary>  (5) 
energy

$$$$
5:0
     RDKit          3D

 56 59  0  0  0  0  0  0  0  0999 V2000
   -3.9580   22.2750  -27.9280 O   0  0  0  0  0  0  0  0  0  0  0  0
   -3.9850   23.4530  -28.3800 C   0  0  0  0  0  0  0  0  0  0  0  0
   -4.9080   23.7970  -29.4310 N   0  0  0  0  0  0  0  0  0  0  0  0
   -5.7530   22.8450  -30.0990 C   0  0  0  0  0  0  0  0  0  0  0  0
   -5.1690   21.8150  -30.8490 C   0  0  0  0  0  0  0  0  0  0  0  0
   -5.9680   20.8630  -31.4880 C   0  0  0  0  0  0  0  0  0  0  0  0
   -7.3640   20.9120  -31.3650 C   0  0  0  0  0  0  0  0  0  0  0  0
   -8.3740   19.7120  -32.1770 S   0  0  0  0  0  0  0  0  0  0  0  0
   -9.1100   18.9100  -31.1400 O   0  0  0  0  0  0  0  0  0  0  0  0
   -9.3940   20.4220  -33.0230 O   0  0  0  0  0  0  0  0  0  0  0  0
   -7.4560   18.6240  -33.1900 N   0  0  0  0  0  0  0  0  0  0  0  0
   -6.4770   19.3310  -34.0130 C   0  0  0  0  0  0  0  0  0  0  0  0
   -5.3800   18.3270  -34.3310 C   0  0  0  0  0  0  0  0  0  0  0  0
   -5.5160   17.2340  -33.2800 C   0  0  0  0  0  0  0  0  0  0  0  0
   -6.6860   17.6610  -32.4060 C   0  0  0  0  0  0  0  0  0  0  0  0
   -7.9510   21.9330  -30.6030 C   0  0  0  0  0  0  0  0  0  0  0  0
   -7.1530   22.8860  -29.9650 C   0  0  0  0  0  0  0  0  0  0  0  0
   -3.0630   24.4620  -27.8040 C   0  0  0  0  0  0  0  0  0  0  0  0
   -3.1870   24.8930  -26.4700 C   0  0  0  0  0  0  0  0  0  0  0  0
   -2.3020   25.8410  -25.9470 C   0  0  0  0  0  0  0  0  0  0  0  0
   -1.2810   26.3700  -26.7450 C   0  0  0  0  0  0  0  0  0  0  0  0
   -0.1490   27.5450  -26.0810 S   0  0  0  0  0  0  0  0  0  0  0  0
    0.2180   28.5360  -27.1500 O   0  0  0  0  0  0  0  0  0  0  0  0
   -0.7960   28.2860  -24.9420 O   0  0  0  0  0  0  0  0  0  0  0  0
    1.2880   26.7170  -25.5350 N   0  0  0  0  0  0  0  0  0  0  0  0
    1.8590   25.8880  -26.5950 C   0  0  0  0  0  0  0  0  0  0  0  0
    2.6080   24.7590  -25.9050 C   0  0  0  0  0  0  0  0  0  0  0  0
    2.0360   24.6970  -24.4960 C   0  0  0  0  0  0  0  0  0  0  0  0
    0.9900   25.7990  -24.4380 C   0  0  0  0  0  0  0  0  0  0  0  0
   -1.1370   25.9290  -28.0650 C   0  0  0  0  0  0  0  0  0  0  0  0
   -2.0190   24.9820  -28.5910 C   0  0  0  0  0  0  0  0  0  0  0  0
   -5.0180   24.7980  -29.7050 H   0  0  0  0  0  0  0  0  0  0  0  0
   -4.0740   21.7555  -30.9353 H   0  0  0  0  0  0  0  0  0  0  0  0
   -5.4993   20.0710  -32.0906 H   0  0  0  0  0  0  0  0  0  0  0  0
   -6.9470   19.6880  -34.9413 H   0  0  0  0  0  0  0  0  0  0  0  0
   -6.0741   20.2096  -33.4879 H   0  0  0  0  0  0  0  0  0  0  0  0
   -5.5197   17.9108  -35.3396 H   0  0  0  0  0  0  0  0  0  0  0  0
   -4.3827   18.7908  -34.3125 H   0  0  0  0  0  0  0  0  0  0  0  0
   -5.7247   16.2649  -33.7567 H   0  0  0  0  0  0  0  0  0  0  0  0
   -4.5921   17.1091  -32.6962 H   0  0  0  0  0  0  0  0  0  0  0  0
   -7.3096   16.7908  -32.1532 H   0  0  0  0  0  0  0  0  0  0  0  0
   -6.3376   18.1035  -31.4611 H   0  0  0  0  0  0  0  0  0  0  0  0
   -9.0457   21.9836  -30.5072 H   0  0  0  0  0  0  0  0  0  0  0  0
   -7.6216   23.6723  -29.3549 H   0  0  0  0  0  0  0  0  0  0  0  0
   -3.9852   24.4815  -25.8347 H   0  0  0  0  0  0  0  0  0  0  0  0
   -2.4087   26.1725  -24.9036 H   0  0  0  0  0  0  0  0  0  0  0  0
    1.0593   25.4804  -27.2309 H   0  0  0  0  0  0  0  0  0  0  0  0
    2.5300   26.4742  -27.2401 H   0  0  0  0  0  0  0  0  0  0  0  0
    2.4398   23.8076  -26.4309 H   0  0  0  0  0  0  0  0  0  0  0  0
    3.6942   24.9324  -25.8985 H   0  0  0  0  0  0  0  0  0  0  0  0
    1.5731   23.7164  -24.3110 H   0  0  0  0  0  0  0  0  0  0  0  0
    2.8151   24.8309  -23.7311 H   0  0  0  0  0  0  0  0  0  0  0  0
   -0.0167   25.3734  -24.5623 H   0  0  0  0  0  0  0  0  0  0  0  0
    1.0150   26.3185  -23.4687 H   0  0  0  0  0  0  0  0  0  0  0  0
   -0.3261   26.3296  -28.6910 H   0  0  0  0  0  0  0  0  0  0  0  0
   -1.8963   24.6399  -29.6292 H   0  0  0  0  0  0  0  0  0  0  0  0
  1  2  2  0
  2  3  1  0
  3  4  1  0
  4  5  2  0
  5  6  1  0
  6  7  2  0
  7  8  1  0
  8  9  2  0
  8 10  2  0
  8 11  1  0
 11 12  1  0
 12 13  1  0
 13 14  1  0
 14 15  1  0
  7 16  1  0
 16 17  2  0
  2 18  1  0
 18 19  2  0
 19 20  1  0
 20 21  2  0
 21 22  1  0
 22 23  2  0
 22 24  2  0
 22 25  1  0
 25 26  1  0
 26 27  1  0
 27 28  1  0
 28 29  1  0
 21 30  1  0
 30 31  2  0
 17  4  1  0
 31 18  1  0
 15 11  1  0
 29 25  1  0
  3 32  1  0
  5 33  1  0
  6 34  1  0
 12 35  1  0
 12 36  1  0
 13 37  1  0
 13 38  1  0
 14 39  1  0
 14 40  1  0
 15 41  1  0
 15 42  1  0
 16 43  1  0
 17 44  1  0
 19 45  1  0
 20 46  1  0
 26 47  1  0
 26 48  1  0
 27 49  1  0
 27 50  1  0
 28 51  1  0
 28 52  1  0
 29 53  1  0
 29 54  1  0
 30 55  1  0
 31 56  1  0
M  END
>  <UniqueID>  (6) 
6

>  <SMILES>  (6) 
O=C(Nc1ccc(S(=O)(=O)N2CCCC2)cc1)c1ccc(S(=O)(=O)N2CCCC2)cc1

>  <Energy>  (6) 
66.48669531865701

>  <Genealogy>  (6) 
O=C(Nc1ccc(S(=O)(=O)N2CCCC2)cc1)c1ccc(S(=O)(=O)N2CCCC2)cc1 (3D coordinates assigned)
O=C(Nc1ccc(S(=O)(=O)N2CCCC2)cc1)c1ccc(S(=O)(=O)N2CCCC2)cc1 (nonaromatic ring conformer: 66.48669531865701 kcal/mol)

>  <smiles>  (6) 
O=C(Nc1ccc(S(=O)(=O)N2CCCC2)cc1)c1ccc(S(=O)(=O)N2CCCC2)cc1

>  <score_type>  (6) 
oracle

>  <origin>  (6) 
adgpu

>  <m_score__min__energy>  (6) 
-10.130000000000001

>  <m_primary>  (6) 
energy

$$$$
6:0
     RDKit          3D

 73 76  0  0  0  0  0  0  0  0999 V2000
   -2.8540   21.2830  -33.5340 C   0  0  0  0  0  0  0  0  0  0  0  0
   -2.0580   20.9860  -32.2880 C   0  0  0  0  0  0  0  0  0  0  0  0
   -1.8020   22.0430  -31.4010 C   0  0  0  0  0  0  0  0  0  0  0  0
   -1.0460   21.8390  -30.2510 C   0  0  0  0  0  0  0  0  0  0  0  0
   -0.5080   20.5800  -29.9710 C   0  0  0  0  0  0  0  0  0  0  0  0
    0.2810   20.3730  -28.7910 N   0  0  0  0  0  0  0  0  0  0  0  0
    0.3260   21.2990  -27.6980 C   0  0  0  0  0  0  0  0  0  0  0  0
    1.3920   21.9190  -27.4510 O   0  0  0  0  0  0  0  0  0  0  0  0
   -0.8560   21.5870  -26.9460 N   0  0  0  0  0  0  0  0  0  0  0  0
   -1.9520   22.3640  -27.4440 C   0  0  0  0  0  0  0  0  0  0  0  0
   -3.1860   21.7740  -27.7700 C   0  0  0  0  0  0  0  0  0  0  0  0
   -4.1590   22.5140  -28.4460 C   0  0  0  0  0  0  0  0  0  0  0  0
   -3.9070   23.8450  -28.8080 C   0  0  0  0  0  0  0  0  0  0  0  0
   -5.0100   24.6950  -29.8890 S   0  0  0  0  0  0  0  0  0  0  0  0
   -5.8720   25.6350  -29.0910 O   0  0  0  0  0  0  0  0  0  0  0  0
   -4.2150   25.5090  -30.8710 O   0  0  0  0  0  0  0  0  0  0  0  0
   -6.0190   23.5610  -30.7590 N   0  0  0  0  0  0  0  0  0  0  0  0
   -7.0980   23.0640  -29.8770 C   0  0  0  0  0  0  0  0  0  0  0  0
   -7.8280   21.8330  -30.4610 C   0  0  0  0  0  0  0  0  0  0  0  0
   -7.5470   21.6780  -31.9660 C   0  0  0  0  0  0  0  0  0  0  0  0
   -8.3690   20.5890  -32.5630 N   0  0  0  0  0  0  0  0  0  0  0  0
   -7.9100   19.2610  -32.1270 C   0  0  0  0  0  0  0  0  0  0  0  0
   -9.8240   20.7160  -32.3650 C   0  0  0  0  0  0  0  0  0  0  0  0
   -6.0220   21.5510  -32.2240 C   0  0  0  0  0  0  0  0  0  0  0  0
   -5.2000   22.4510  -31.2770 C   0  0  0  0  0  0  0  0  0  0  0  0
   -2.7100   24.4550  -28.4070 C   0  0  0  0  0  0  0  0  0  0  0  0
   -1.7410   23.7190  -27.7210 C   0  0  0  0  0  0  0  0  0  0  0  0
   -0.7820   19.5030  -30.8240 C   0  0  0  0  0  0  0  0  0  0  0  0
   -0.2860   18.2470  -30.4900 O   0  0  0  0  0  0  0  0  0  0  0  0
   -1.5380   19.6940  -32.0040 C   0  0  0  0  0  0  0  0  0  0  0  0
   -1.8540   18.3060  -33.0790 S   0  0  0  0  0  0  0  0  0  0  0  0
   -1.1520   17.0770  -32.5690 O   0  0  0  0  0  0  0  0  0  0  0  0
   -1.3260   18.5910  -34.4560 O   0  0  0  0  0  0  0  0  0  0  0  0
   -3.6180   17.9850  -33.1650 C   0  0  0  0  0  0  0  0  0  0  0  0
   -3.9200   16.4790  -33.0270 C   0  0  0  0  0  0  0  0  0  0  0  0
   -5.2800   16.0920  -33.6460 C   0  0  0  0  0  0  0  0  0  0  0  0
   -6.2170   17.2230  -33.6600 N   0  0  0  0  0  0  0  0  0  0  0  0
   -5.7410   18.3270  -34.5150 C   0  0  0  0  0  0  0  0  0  0  0  0
   -4.2100   18.5340  -34.4690 C   0  0  0  0  0  0  0  0  0  0  0  0
   -3.8503   21.6547  -33.2527 H   0  0  0  0  0  0  0  0  0  0  0  0
   -2.3322   22.0469  -34.1291 H   0  0  0  0  0  0  0  0  0  0  0  0
   -2.9601   20.3640  -34.1291 H   0  0  0  0  0  0  0  0  0  0  0  0
   -2.2036   23.0440  -31.6174 H   0  0  0  0  0  0  0  0  0  0  0  0
   -0.8705   22.6745  -29.5574 H   0  0  0  0  0  0  0  0  0  0  0  0
   -3.3854   20.7285  -27.4924 H   0  0  0  0  0  0  0  0  0  0  0  0
   -5.1254   22.0514  -28.6950 H   0  0  0  0  0  0  0  0  0  0  0  0
   -6.6594   22.7855  -28.9074 H   0  0  0  0  0  0  0  0  0  0  0  0
   -7.8389   23.8703  -29.7725 H   0  0  0  0  0  0  0  0  0  0  0  0
   -7.4824   20.9296  -29.9371 H   0  0  0  0  0  0  0  0  0  0  0  0
   -8.9102   21.9733  -30.3226 H   0  0  0  0  0  0  0  0  0  0  0  0
   -7.8648   22.5902  -32.4922 H   0  0  0  0  0  0  0  0  0  0  0  0
   -7.8960   19.2205  -31.0278 H   0  0  0  0  0  0  0  0  0  0  0  0
   -8.5943   18.4914  -32.5136 H   0  0  0  0  0  0  0  0  0  0  0  0
   -6.8965   19.0782  -32.5136 H   0  0  0  0  0  0  0  0  0  0  0  0
  -10.0472   20.7355  -31.2881 H   0  0  0  0  0  0  0  0  0  0  0  0
  -10.1773   21.6484  -32.8296 H   0  0  0  0  0  0  0  0  0  0  0  0
  -10.3335   19.8589  -32.8296 H   0  0  0  0  0  0  0  0  0  0  0  0
   -5.7213   20.5042  -32.0695 H   0  0  0  0  0  0  0  0  0  0  0  0
   -5.8235   21.8728  -33.2570 H   0  0  0  0  0  0  0  0  0  0  0  0
   -4.8371   21.8472  -30.4322 H   0  0  0  0  0  0  0  0  0  0  0  0
   -4.3550   22.8729  -31.8408 H   0  0  0  0  0  0  0  0  0  0  0  0
   -2.5333   25.5169  -28.6334 H   0  0  0  0  0  0  0  0  0  0  0  0
   -0.8093   24.2062  -27.3976 H   0  0  0  0  0  0  0  0  0  0  0  0
   -4.0929   18.5060  -32.3206 H   0  0  0  0  0  0  0  0  0  0  0  0
   -3.1264   15.9116  -33.5352 H   0  0  0  0  0  0  0  0  0  0  0  0
   -3.9608   16.2423  -31.9535 H   0  0  0  0  0  0  0  0  0  0  0  0
   -5.1167   15.7527  -34.6795 H   0  0  0  0  0  0  0  0  0  0  0  0
   -5.7194   15.2928  -33.0310 H   0  0  0  0  0  0  0  0  0  0  0  0
   -6.3380   17.5720  -32.6810 H   0  0  0  0  0  0  0  0  0  0  0  0
   -6.0310   18.1113  -35.5539 H   0  0  0  0  0  0  0  0  0  0  0  0
   -6.2014   19.2502  -34.1333 H   0  0  0  0  0  0  0  0  0  0  0  0
   -3.7509   18.0104  -35.3205 H   0  0  0  0  0  0  0  0  0  0  0  0
   -4.0014   19.6128  -34.5207 H   0  0  0  0  0  0  0  0  0  0  0  0
  1  2  1  0
  2  3  2  0
  3  4  1  0
  4  5  2  0
  5  6  1  0
  6  7  1  0
  7  8  2  0
  7  9  1  0
  9 10  1  0
 10 11  2  0
 11 12  1  0
 12 13  2  0
 13 14  1  0
 14 15  2  0
 14 16  2  0
 14 17  1  0
 17 18  1  0
 18 19  1  0
 19 20  1  0
 20 21  1  0
 21 22  1  0
 21 23  1  0
 20 24  1  0
 24 25  1  0
 13 26  1  0
 26 27  2  0
  5 28  1  0
 28 29  1  0
 28 30  2  0
 30 31  1  0
 31 32  2  0
 31 33  2  0
 31 34  1  0
 34 35  1  0
 35 36  1  0
 36 37  1  0
 37 38  1  0
 38 39  1  0
 30  2  1  0
 39 34  1  0
 27 10  1  0
 25 17  1  0
  1 40  1  0
  1 41  1  0
  1 42  1  0
  3 43  1  0
  4 44  1  0
 11 45  1  0
 12 46  1  0
 18 47  1  0
 18 48  1  0
 19 49  1  0
 19 50  1  0
 20 51  1  0
 22 52  1  0
 22 53  1  0
 22 54  1  0
 23 55  1  0
 23 56  1  0
 23 57  1  0
 24 58  1  0
 24 59  1  0
 25 60  1  0
 25 61  1  0
 26 62  1  0
 27 63  1  0
 34 64  1  0
 35 65  1  0
 35 66  1  0
 36 67  1  0
 36 68  1  0
 37 69  1  0
 38 70  1  0
 38 71  1  0
 39 72  1  0
 39 73  1  0
M  CHG  3   6  -1   9  -1  29  -1
M  END
>  <UniqueID>  (7) 
7

>  <SMILES>  (7) 
Cc1ccc([N-]C(=O)[N-]c2ccc(S(=O)(=O)N3CCC(N(C)C)CC3)cc2)c([O-])c1S(=O)(=O)C1CCNCC1

>  <Energy>  (7) 
101.87705997321268

>  <Genealogy>  (7) 
Cc1ccc([N-]C(=O)[N-]c2ccc(S(=O)(=O)N3CCC(N(C)C)CC3)cc2)c([O-])c1S(=O)(=O)C1CCNCC1 (protonated)
Cc1ccc([N-]C(=O)[N-]c2ccc(S(=O)(=O)N3CCC(N(C)C)CC3)cc2)c([O-])c1S(=O)(=O)C1CCNCC1 (3D coordinates assigned)
Cc1ccc([N-]C(=O)[N-]c2ccc(S(=O)(=O)N3CCC(N(C)C)CC3)cc2)c([O-])c1S(=O)(=O)C1CCNCC1 (nonaromatic ring conformer: 101.87705997321268 kcal/mol)

>  <smiles>  (7) 
Cc1ccc(NC(=O)Nc2ccc(S(=O)(=O)N3CCC(N(C)C)CC3)cc2)c(O)c1S(=O)(=O)C1CCNCC1

>  <score_type>  (7) 
oracle

>  <origin>  (7) 
adgpu

>  <m_score__min__energy>  (7) 
-19.23

>  <m_primary>  (7) 
energy

$$$$
7:0
     RDKit          3D

 67 70  0  0  0  0  0  0  0  0999 V2000
   -1.5320   21.5460  -26.5410 C   0  0  0  0  0  0  0  0  0  0  0  0
   -2.1250   22.5080  -27.5360 C   0  0  0  0  0  0  0  0  0  0  0  0
   -3.3950   22.2200  -28.0610 C   0  0  0  0  0  0  0  0  0  0  0  0
   -3.9950   23.0670  -28.9890 C   0  0  0  0  0  0  0  0  0  0  0  0
   -3.3470   24.2410  -29.3980 C   0  0  0  0  0  0  0  0  0  0  0  0
   -3.9150   25.1220  -30.3820 N   0  0  0  0  0  0  0  0  0  0  0  0
   -5.2290   25.6830  -30.4050 C   0  0  0  0  0  0  0  0  0  0  0  0
   -5.3960   26.9300  -30.4640 O   0  0  0  0  0  0  0  0  0  0  0  0
   -6.3550   24.7970  -30.3620 N   0  0  0  0  0  0  0  0  0  0  0  0
   -6.4720   23.5170  -30.9990 C   0  0  0  0  0  0  0  0  0  0  0  0
   -5.4350   23.0910  -31.8390 C   0  0  0  0  0  0  0  0  0  0  0  0
   -5.5120   21.8580  -32.4910 C   0  0  0  0  0  0  0  0  0  0  0  0
   -6.6310   21.0370  -32.3160 C   0  0  0  0  0  0  0  0  0  0  0  0
   -6.7190   19.4760  -33.1300 S   0  0  0  0  0  0  0  0  0  0  0  0
   -6.5050   19.6680  -34.6080 O   0  0  0  0  0  0  0  0  0  0  0  0
   -8.0900   18.8940  -32.9180 O   0  0  0  0  0  0  0  0  0  0  0  0
   -5.5160   18.3850  -32.4820 N   0  0  0  0  0  0  0  0  0  0  0  0
   -4.3290   18.3640  -33.3640 C   0  0  0  0  0  0  0  0  0  0  0  0
   -3.4740   17.1130  -33.1160 C   0  0  0  0  0  0  0  0  0  0  0  0
   -4.2270   15.8570  -33.3650 N   0  0  0  0  0  0  0  0  0  0  0  0
   -3.8320   15.2390  -34.6410 C   0  0  0  0  0  0  0  0  0  0  0  0
   -5.6960   16.0210  -33.3070 C   0  0  0  0  0  0  0  0  0  0  0  0
   -6.0970   17.0430  -32.2340 C   0  0  0  0  0  0  0  0  0  0  0  0
   -7.6870   21.4720  -31.5030 C   0  0  0  0  0  0  0  0  0  0  0  0
   -7.6140   22.7070  -30.8540 C   0  0  0  0  0  0  0  0  0  0  0  0
   -2.0750   24.5380  -28.8890 C   0  0  0  0  0  0  0  0  0  0  0  0
   -1.4250   25.6800  -29.3500 O   0  0  0  0  0  0  0  0  0  0  0  0
   -1.4590   23.6960  -27.9390 C   0  0  0  0  0  0  0  0  0  0  0  0
    0.1600   24.1160  -27.3200 S   0  0  0  0  0  0  0  0  0  0  0  0
    1.0630   24.5190  -28.4530 O   0  0  0  0  0  0  0  0  0  0  0  0
    0.7840   22.9230  -26.6480 O   0  0  0  0  0  0  0  0  0  0  0  0
    0.0380   25.4660  -26.1430 C   0  0  0  0  0  0  0  0  0  0  0  0
   -0.5700   24.9690  -24.8200 C   0  0  0  0  0  0  0  0  0  0  0  0
   -0.7760   26.1400  -23.8480 C   0  0  0  0  0  0  0  0  0  0  0  0
   -1.6110   27.1920  -24.4440 N   0  0  0  0  0  0  0  0  0  0  0  0
   -0.9990   27.7190  -25.6710 C   0  0  0  0  0  0  0  0  0  0  0  0
   -0.8050   26.6130  -26.7190 C   0  0  0  0  0  0  0  0  0  0  0  0
   -1.7472   21.8951  -25.5203 H   0  0  0  0  0  0  0  0  0  0  0  0
   -1.9723   20.5487  -26.6879 H   0  0  0  0  0  0  0  0  0  0  0  0
   -0.4432   21.4913  -26.6879 H   0  0  0  0  0  0  0  0  0  0  0  0
   -3.9235   21.3122  -27.7345 H   0  0  0  0  0  0  0  0  0  0  0  0
   -4.9821   22.8138  -29.4032 H   0  0  0  0  0  0  0  0  0  0  0  0
   -4.5535   23.7323  -31.9863 H   0  0  0  0  0  0  0  0  0  0  0  0
   -4.6896   21.5314  -33.1445 H   0  0  0  0  0  0  0  0  0  0  0  0
   -4.6612   18.3693  -34.4126 H   0  0  0  0  0  0  0  0  0  0  0  0
   -3.7177   19.2521  -33.1459 H   0  0  0  0  0  0  0  0  0  0  0  0
   -2.6024   17.1417  -33.7864 H   0  0  0  0  0  0  0  0  0  0  0  0
   -3.1685   17.1183  -32.0593 H   0  0  0  0  0  0  0  0  0  0  0  0
   -3.2494   14.3274  -34.4421 H   0  0  0  0  0  0  0  0  0  0  0  0
   -4.7325   14.9801  -35.2173 H   0  0  0  0  0  0  0  0  0  0  0  0
   -3.2189   15.9475  -35.2173 H   0  0  0  0  0  0  0  0  0  0  0  0
   -6.0575   16.3679  -34.2863 H   0  0  0  0  0  0  0  0  0  0  0  0
   -6.1456   15.0505  -33.0500 H   0  0  0  0  0  0  0  0  0  0  0  0
   -7.1935   17.1301  -32.2221 H   0  0  0  0  0  0  0  0  0  0  0  0
   -5.7091   16.6841  -31.2692 H   0  0  0  0  0  0  0  0  0  0  0  0
   -8.5769   20.8382  -31.3755 H   0  0  0  0  0  0  0  0  0  0  0  0
   -8.4517   23.0475  -30.2276 H   0  0  0  0  0  0  0  0  0  0  0  0
    1.0514   25.8455  -25.9454 H   0  0  0  0  0  0  0  0  0  0  0  0
   -1.5405   24.4932  -25.0241 H   0  0  0  0  0  0  0  0  0  0  0  0
    0.1194   24.2444  -24.3622 H   0  0  0  0  0  0  0  0  0  0  0  0
   -1.2669   25.7667  -22.9371 H   0  0  0  0  0  0  0  0  0  0  0  0
    0.2081   26.5714  -23.6127 H   0  0  0  0  0  0  0  0  0  0  0  0
   -2.5460   26.7880  -24.6810 H   0  0  0  0  0  0  0  0  0  0  0  0
   -1.6516   28.4990  -26.0902 H   0  0  0  0  0  0  0  0  0  0  0  0
   -0.0119   28.1321  -25.4162 H   0  0  0  0  0  0  0  0  0  0  0  0
   -1.7886   26.2232  -27.0199 H   0  0  0  0  0  0  0  0  0  0  0  0
   -0.2816   27.0361  -27.5891 H   0  0  0  0  0  0  0  0  0  0  0  0
  1  2  1  0
  2  3  2  0
  3  4  1  0
  4  5  2  0
  5  6  1  0
  6  7  1  0
  7  8  2  0
  7  9  1  0
  9 10  1  0
 10 11  2  0
 11 12  1  0
 12 13  2  0
 13 14  1  0
 14 15  2  0
 14 16  2  0
 14 17  1  0
 17 18  1  0
 18 19  1  0
 19 20  1  0
 20 21  1  0
 20 22  1  0
 22 23  1  0
 13 24  1  0
 24 25  2  0
  5 26  1  0
 26 27  1  0
 26 28  2  0
 28 29  1  0
 29 30  2  0
 29 31  2  0
 29 32  1  0
 32 33  1  0
 33 34  1  0
 34 35  1  0
 35 36  1  0
 36 37  1  0
 28  2  1  0
 37 32  1  0
 25 10  1  0
 23 17  1  0
  1 38  1  0
  1 39  1  0
  1 40  1  0
  3 41  1  0
  4 42  1  0
 11 43  1  0
 12 44  1  0
 18 45  1  0
 18 46  1  0
 19 47  1  0
 19 48  1  0
 21 49  1  0
 21 50  1  0
 21 51  1  0
 22 52  1  0
 22 53  1  0
 23 54  1  0
 23 55  1  0
 24 56  1  0
 25 57  1  0
 32 58  1  0
 33 59  1  0
 33 60  1  0
 34 61  1  0
 34 62  1  0
 35 63  1  0
 36 64  1  0
 36 65  1  0
 37 66  1  0
 37 67  1  0
M  CHG  3   6  -1   9  -1  27  -1
M  END
>  <UniqueID>  (8) 
8

>  <SMILES>  (8) 
Cc1ccc([N-]C(=O)[N-]c2ccc(S(=O)(=O)N3CCN(C)CC3)cc2)c([O-])c1S(=O)(=O)C1CCNCC1

>  <Energy>  (8) 
83.04725182527663

>  <Genealogy>  (8) 
Cc1ccc([N-]C(=O)[N-]c2ccc(S(=O)(=O)N3CCN(C)CC3)cc2)c([O-])c1S(=O)(=O)C1CCNCC1 (protonated)
Cc1ccc([N-]C(=O)[N-]c2ccc(S(=O)(=O)N3CCN(C)CC3)cc2)c([O-])c1S(=O)(=O)C1CCNCC1 (3D coordinates assigned)
Cc1ccc([N-]C(=O)[N-]c2ccc(S(=O)(=O)N3CCN(C)CC3)cc2)c([O-])c1S(=O)(=O)C1CCNCC1 (nonaromatic ring conformer: 83.04725182527663 kcal/mol)

>  <smiles>  (8) 
Cc1ccc(NC(=O)Nc2ccc(S(=O)(=O)N3CCN(C)CC3)cc2)c(O)c1S(=O)(=O)C1CCNCC1

>  <score_type>  (8) 
oracle

>  <origin>  (8) 
adgpu

>  <m_score__min__energy>  (8) 
-17.879999999999999

>  <m_primary>  (8) 
energy

$$$$
8:0
     RDKit          3D

 48 51  0  0  1  0  0  0  0  0999 V2000
   -0.2750   23.3590  -28.8530 C   0  0  0  0  0  0  0  0  0  0  0  0
   -1.6240   23.5380  -29.4620 C   0  0  0  0  0  0  0  0  0  0  0  0
   -2.5150   24.4790  -28.9940 C   0  0  0  0  0  0  0  0  0  0  0  0
   -3.7150   24.5880  -29.5880 N   0  0  0  0  0  0  0  0  0  0  0  0
   -4.1270   23.8390  -30.6220 C   0  0  0  0  0  0  0  0  0  0  0  0
   -5.3100   23.9020  -31.2580 O   0  0  0  0  0  0  0  0  0  0  0  0
   -6.3820   23.1220  -31.4290 C   0  0  0  0  0  0  0  0  0  0  0  0
   -7.5780   23.1580  -30.7510 C   0  0  0  0  0  0  0  0  0  0  0  0
   -8.6330   22.2980  -31.0140 C   0  0  0  0  0  0  0  0  0  0  0  0
   -8.5210   21.3420  -31.9950 C   0  0  0  0  0  0  0  0  0  0  0  0
   -7.3380   21.2740  -32.6940 C   0  0  0  0  0  0  0  0  0  0  0  0
   -7.2350   20.3010  -33.6840 O   0  0  0  0  0  0  0  0  0  0  0  0
   -6.2980   22.1300  -32.4270 C   0  0  0  0  0  0  0  0  0  0  0  0
   -3.2450   22.8930  -31.1020 N   0  0  0  0  0  0  0  0  0  0  0  0
   -2.0500   22.7700  -30.5260 C   0  0  0  0  0  0  0  0  0  0  0  0
   -1.1960   21.8830  -30.9590 N   0  0  0  0  0  0  0  0  0  0  0  0
   -1.5830   21.0630  -32.0560 C   0  0  0  0  0  0  0  0  0  0  0  0
   -2.7960   20.3820  -31.9320 C   0  0  0  0  0  0  0  0  0  0  0  0
   -3.2820   19.5600  -32.9160 C   0  0  0  0  0  0  0  0  0  0  0  0
   -4.5640   18.8460  -32.7720 C   0  0  0  0  0  0  0  0  0  0  0  0
   -5.0190   18.0870  -33.8340 C   0  0  0  0  0  0  0  0  0  0  0  0
   -6.2250   17.3890  -33.7600 C   0  0  0  0  0  0  0  0  0  0  0  0
   -6.9750   17.4610  -32.6010 C   0  0  0  0  0  0  0  0  0  0  0  0
   -6.5150   18.2130  -31.5650 C   0  0  0  0  0  0  0  0  0  0  0  0
   -5.3120   18.9190  -31.6160 C   0  0  0  0  0  0  0  0  0  0  0  0
   -2.5530   19.3980  -34.0660 C   0  0  0  0  0  0  0  0  0  0  0  0
   -1.3340   20.0690  -34.2190 C   0  0  0  0  0  0  0  0  0  0  0  0
   -0.8680   20.8990  -33.1960 C   0  0  0  0  0  0  0  0  0  0  0  0
    0.3360   21.5690  -33.3330 O   0  0  0  0  0  0  0  0  0  0  0  0
   -0.3632   23.3707  -27.7566 H   0  0  0  0  0  0  0  0  0  0  0  0
    0.1486   22.3968  -29.1765 H   0  0  0  0  0  0  0  0  0  0  0  0
    0.3849   24.1775  -29.1765 H   0  0  0  0  0  0  0  0  0  0  0  0
   -2.2483   25.1300  -28.1483 H   0  0  0  0  0  0  0  0  0  0  0  0
   -4.3450   25.3220  -29.2050 H   0  0  0  0  0  0  0  0  0  0  0  0
   -7.7042   23.9094  -29.9576 H   0  0  0  0  0  0  0  0  0  0  0  0
   -9.5644   22.3812  -30.4347 H   0  0  0  0  0  0  0  0  0  0  0  0
   -9.3504   20.6535  -32.2142 H   0  0  0  0  0  0  0  0  0  0  0  0
   -7.6610   20.3680  -34.5970 H   0  0  0  0  0  0  0  0  0  0  0  0
   -5.3699   22.0387  -33.0104 H   0  0  0  0  0  0  0  0  0  0  0  0
   -3.3833   20.5098  -31.0107 H   0  0  0  0  0  0  0  0  0  0  0  0
   -4.4192   18.0323  -34.7545 H   0  0  0  0  0  0  0  0  0  0  0  0
   -6.5745   16.7890  -34.6132 H   0  0  0  0  0  0  0  0  0  0  0  0
   -7.9285   16.9189  -32.5178 H   0  0  0  0  0  0  0  0  0  0  0  0
   -7.1177   18.2671  -30.6464 H   0  0  0  0  0  0  0  0  0  0  0  0
   -4.9703   19.5168  -30.7581 H   0  0  0  0  0  0  0  0  0  0  0  0
   -2.9253   18.7421  -34.8667 H   0  0  0  0  0  0  0  0  0  0  0  0
   -0.7458   19.9435  -35.1400 H   0  0  0  0  0  0  0  0  0  0  0  0
    0.6490   22.0710  -32.4980 H   0  0  0  0  0  0  0  0  0  0  0  0
  1  2  1  0
  2  3  2  0
  3  4  1  0
  4  5  1  0
  5  6  1  0
  6  7  1  0
  7  8  2  0
  8  9  1  0
  9 10  2  0
 10 11  1  0
 11 12  1  0
 11 13  2  0
  5 14  2  0
 14 15  1  0
 15 16  2  0
 16 17  1  0
 17 18  2  0
 18 19  1  0
 19 20  1  0
 20 21  2  0
 21 22  1  0
 22 23  2  0
 23 24  1  0
 24 25  2  0
 19 26  2  0
 26 27  1  0
 27 28  2  0
 28 29  1  0
 15  2  1  0
 28 17  1  0
 13  7  1  0
 25 20  1  0
  1 30  1  0
  1 31  1  0
  1 32  1  0
  3 33  1  0
  4 34  1  0
  8 35  1  0
  9 36  1  0
 10 37  1  0
 12 38  1  0
 13 39  1  0
 18 40  1  0
 21 41  1  0
 22 42  1  0
 23 43  1  0
 24 44  1  0
 25 45  1  0
 26 46  1  0
 27 47  1  0
 29 48  1  0
M  END
>  <smiles>  (9) 
Cc1c[nH]c(Oc2cccc(O)c2)nc1=Nc1cc(-c2ccccc2)ccc1O

>  <score_type>  (9) 
oracle

>  <origin>  (9) 
adgpu

>  <m_score__min__energy>  (9) 
-10.039999999999999

>  <m_primary>  (9) 
energy

$$$$
9:0
     RDKit          3D

 58 61  0  0  0  0  0  0  0  0999 V2000
   -3.3610   17.1580  -34.1720 C   0  0  0  0  0  0  0  0  0  0  0  0
   -4.4790   18.1450  -34.4950 C   0  0  0  0  0  0  0  0  0  0  0  0
   -4.5120   19.2230  -33.4990 N   0  0  0  0  0  0  0  0  0  0  0  0
   -5.7900   19.7170  -33.0560 C   0  0  0  0  0  0  0  0  0  0  0  0
   -6.9030   18.8720  -33.0290 C   0  0  0  0  0  0  0  0  0  0  0  0
   -8.1450   19.3570  -32.6190 C   0  0  0  0  0  0  0  0  0  0  0  0
   -8.3010   20.7010  -32.2390 C   0  0  0  0  0  0  0  0  0  0  0  0
   -9.6630   21.1700  -31.7920 C   0  0  0  0  0  0  0  0  0  0  0  0
   -7.1730   21.5600  -32.2490 C   0  0  0  0  0  0  0  0  0  0  0  0
   -7.2670   23.2780  -31.8090 S   0  0  0  0  0  0  0  0  0  0  0  0
   -8.6740   23.7660  -32.0340 O   0  0  0  0  0  0  0  0  0  0  0  0
   -6.3620   24.0730  -32.7090 O   0  0  0  0  0  0  0  0  0  0  0  0
   -6.7960   23.5330  -30.1370 N   0  0  0  0  0  0  0  0  0  0  0  0
   -5.5100   22.8610  -29.8270 C   0  0  0  0  0  0  0  0  0  0  0  0
   -4.3100   23.8260  -29.8750 C   0  0  0  0  0  0  0  0  0  0  0  0
   -4.5270   24.8340  -30.8370 O   0  0  0  0  0  0  0  0  0  0  0  0
   -5.5590   25.7040  -30.4080 C   0  0  0  0  0  0  0  0  0  0  0  0
   -6.7700   24.9660  -29.7830 C   0  0  0  0  0  0  0  0  0  0  0  0
   -5.9290   21.0540  -32.6650 C   0  0  0  0  0  0  0  0  0  0  0  0
   -3.3010   19.9110  -33.1180 C   0  0  0  0  0  0  0  0  0  0  0  0
   -3.0910   20.2720  -31.8250 N   0  0  0  0  0  0  0  0  0  0  0  0
   -1.9540   20.9140  -31.4460 C   0  0  0  0  0  0  0  0  0  0  0  0
   -1.7500   21.2830  -30.0110 C   0  0  0  0  0  0  0  0  0  0  0  0
   -0.9720   21.2040  -32.3980 C   0  0  0  0  0  0  0  0  0  0  0  0
   -1.1990   20.8350  -33.7300 C   0  0  0  0  0  0  0  0  0  0  0  0
   -0.2230   21.1040  -34.7490 N   0  0  0  0  0  0  0  0  0  0  0  0
    0.3130   20.1970  -35.5890 C   0  0  0  0  0  0  0  0  0  0  0  0
    1.2070   20.8440  -36.4150 C   0  0  0  0  0  0  0  0  0  0  0  0
    1.1620   22.1670  -36.0140 C   0  0  0  0  0  0  0  0  0  0  0  0
    0.2870   22.3020  -35.0010 N   0  0  0  0  0  0  0  0  0  0  0  0
   -2.3580   20.2030  -34.0550 N   0  0  0  0  0  0  0  0  0  0  0  0
   -3.2569   17.0661  -33.0808 H   0  0  0  0  0  0  0  0  0  0  0  0
   -3.6045   16.1749  -34.6012 H   0  0  0  0  0  0  0  0  0  0  0  0
   -2.4157   17.5215  -34.6012 H   0  0  0  0  0  0  0  0  0  0  0  0
   -4.3046   18.5771  -35.4914 H   0  0  0  0  0  0  0  0  0  0  0  0
   -5.4415   17.6128  -34.4776 H   0  0  0  0  0  0  0  0  0  0  0  0
   -6.7991   17.8198  -33.3324 H   0  0  0  0  0  0  0  0  0  0  0  0
   -9.0117   18.6801  -32.5928 H   0  0  0  0  0  0  0  0  0  0  0  0
   -9.7035   21.1839  -30.6928 H   0  0  0  0  0  0  0  0  0  0  0  0
   -9.8470   22.1833  -32.1786 H   0  0  0  0  0  0  0  0  0  0  0  0
  -10.4318   20.4848  -32.1786 H   0  0  0  0  0  0  0  0  0  0  0  0
   -7.5370   23.0830  -29.5500 H   0  0  0  0  0  0  0  0  0  0  0  0
   -5.5733   22.4277  -28.8179 H   0  0  0  0  0  0  0  0  0  0  0  0
   -5.3459   22.0873  -30.5915 H   0  0  0  0  0  0  0  0  0  0  0  0
   -4.1790   24.2907  -28.8866 H   0  0  0  0  0  0  0  0  0  0  0  0
   -3.4078   23.2596  -30.1494 H   0  0  0  0  0  0  0  0  0  0  0  0
   -5.1445   26.3917  -29.6561 H   0  0  0  0  0  0  0  0  0  0  0  0
   -5.9274   26.2330  -31.2993 H   0  0  0  0  0  0  0  0  0  0  0  0
   -6.7145   25.0591  -28.6883 H   0  0  0  0  0  0  0  0  0  0  0  0
   -7.6866   25.4274  -30.1793 H   0  0  0  0  0  0  0  0  0  0  0  0
   -5.0523   21.7182  -32.6835 H   0  0  0  0  0  0  0  0  0  0  0  0
   -2.1814   20.5026  -29.3668 H   0  0  0  0  0  0  0  0  0  0  0  0
   -0.6733   21.3743  -29.8054 H   0  0  0  0  0  0  0  0  0  0  0  0
   -2.2453   22.2434  -29.8054 H   0  0  0  0  0  0  0  0  0  0  0  0
   -0.0404   21.7114  -32.1070 H   0  0  0  0  0  0  0  0  0  0  0  0
    0.0772   19.1228  -35.6117 H   0  0  0  0  0  0  0  0  0  0  0  0
    1.8204   20.4053  -37.2158 H   0  0  0  0  0  0  0  0  0  0  0  0
    1.7515   22.9839  -36.4558 H   0  0  0  0  0  0  0  0  0  0  0  0
  1  2  1  0
  2  3  1  0
  3  4  1  0
  4  5  2  0
  5  6  1  0
  6  7  2  0
  7  8  1  0
  7  9  1  0
  9 10  1  0
 10 11  2  0
 10 12  2  0
 10 13  1  0
 13 14  1  0
 14 15  1  0
 15 16  1  0
 16 17  1  0
 17 18  1  0
  9 19  2  0
  3 20  1  0
 20 21  2  0
 21 22  1  0
 22 23  1  0
 22 24  2  0
 24 25  1  0
 25 26  1  0
 26 27  1  0
 27 28  2  0
 28 29  1  0
 29 30  2  0
 25 31  2  0
 19  4  1  0
 31 20  1  0
 18 13  1  0
 30 26  1  0
  1 32  1  0
  1 33  1  0
  1 34  1  0
  2 35  1  0
  2 36  1  0
  5 37  1  0
  6 38  1  0
  8 39  1  0
  8 40  1  0
  8 41  1  0
 13 42  1  0
 14 43  1  0
 14 44  1  0
 15 45  1  0
 15 46  1  0
 17 47  1  0
 17 48  1  0
 18 49  1  0
 18 50  1  0
 19 51  1  0
 23 52  1  0
 23 53  1  0
 23 54  1  0
 24 55  1  0
 27 56  1  0
 28 57  1  0
 29 58  1  0
M  CHG  1  13   1
M  END
>  <UniqueID>  (10) 
9

>  <SMILES>  (10) 
CCN(c1ccc(C)c(S(=O)(=O)[NH+]2CCOCC2)c1)c1nc(C)cc(-n2cccn2)n1

>  <Energy>  (10) 
103.8872285823965

>  <Genealogy>  (10) 
CCN(c1ccc(C)c(S(=O)(=O)[NH+]2CCOCC2)c1)c1nc(C)cc(-n2cccn2)n1 (protonated)
CCN(c1ccc(C)c(S(=O)(=O)[NH+]2CCOCC2)c1)c1nc(C)cc(-n2cccn2)n1 (3D coordinates assigned)
CCN(c1ccc(C)c(S(=O)(=O)[NH+]2CCOCC2)c1)c1nc(C)cc(-n2cccn2)n1 (nonaromatic ring conformer: 103.8872285823965 kcal/mol)

>  <smiles>  (10) 
CCN(c1ccc(C)c(S(=O)(=O)N2CCOCC2)c1)c1nc(C)cc(-n2cccn2)n1

>  <score_type>  (10) 
oracle

>  <origin>  (10) 
adgpu

>  <m_score__min__energy>  (10) 
-10.029999999999999

>  <m_primary>  (10) 
energy

$$$$
10:0
     RDKit          3D

 68 71  0  0  0  0  0  0  0  0999 V2000
    0.6940   16.5610  -28.5920 C   0  0  0  0  0  0  0  0  0  0  0  0
    0.5950   17.9590  -27.9710 C   0  0  0  0  0  0  0  0  0  0  0  0
    1.0230   19.0480  -28.9730 C   0  0  0  0  0  0  0  0  0  0  0  0
    0.9050   20.4650  -28.3740 C   0  0  0  0  0  0  0  0  0  0  0  0
    0.1500   20.4810  -27.1030 N   0  0  0  0  0  0  0  0  0  0  0  0
   -0.1780   22.1250  -26.6070 S   0  0  0  0  0  0  0  0  0  0  0  0
    1.1070   22.8980  -26.5060 O   0  0  0  0  0  0  0  0  0  0  0  0
   -0.8190   22.1100  -25.2450 O   0  0  0  0  0  0  0  0  0  0  0  0
   -1.2650   22.9400  -27.7380 C   0  0  0  0  0  0  0  0  0  0  0  0
   -1.1480   22.7180  -29.1220 C   0  0  0  0  0  0  0  0  0  0  0  0
   -1.9730   23.4080  -30.0160 C   0  0  0  0  0  0  0  0  0  0  0  0
   -2.9280   24.3180  -29.5380 C   0  0  0  0  0  0  0  0  0  0  0  0
   -3.6580   25.1380  -30.4500 N   0  0  0  0  0  0  0  0  0  0  0  0
   -5.0650   25.0310  -30.7550 C   0  0  0  0  0  0  0  0  0  0  0  0
   -5.7360   26.0960  -30.8570 O   0  0  0  0  0  0  0  0  0  0  0  0
   -5.7280   23.7460  -31.0840 C   0  0  0  0  0  0  0  0  0  0  0  0
   -5.3890   23.0960  -32.2870 C   0  0  0  0  0  0  0  0  0  0  0  0
   -6.0160   21.9030  -32.6510 C   0  0  0  0  0  0  0  0  0  0  0  0
   -6.9990   21.3450  -31.8230 C   0  0  0  0  0  0  0  0  0  0  0  0
   -7.8320   19.8660  -32.3030 S   0  0  0  0  0  0  0  0  0  0  0  0
   -9.0880   20.2310  -33.0430 O   0  0  0  0  0  0  0  0  0  0  0  0
   -8.2110   19.0750  -31.0810 O   0  0  0  0  0  0  0  0  0  0  0  0
   -6.7970   18.9140  -33.3380 N   0  0  0  0  0  0  0  0  0  0  0  0
   -5.3870   19.0680  -32.9280 C   0  0  0  0  0  0  0  0  0  0  0  0
   -4.5120   17.9060  -33.4640 C   0  0  2  0  0  0  0  0  0  0  0  0
   -3.1050   18.3910  -33.8190 C   0  0  0  0  0  0  0  0  0  0  0  0
   -5.1000   17.3180  -34.6100 O   0  0  0  0  0  0  0  0  0  0  0  0
   -6.3490   16.7050  -34.3090 C   0  0  1  0  0  0  0  0  0  0  0  0
   -6.1540   15.2460  -33.8830 C   0  0  0  0  0  0  0  0  0  0  0  0
   -7.1920   17.5010  -33.2810 C   0  0  0  0  0  0  0  0  0  0  0  0
   -7.3600   21.9960  -30.6340 C   0  0  0  0  0  0  0  0  0  0  0  0
   -6.7330   23.1930  -30.2690 C   0  0  0  0  0  0  0  0  0  0  0  0
   -3.0390   24.5460  -28.1570 C   0  0  0  0  0  0  0  0  0  0  0  0
   -2.2270   23.8460  -27.2600 C   0  0  0  0  0  0  0  0  0  0  0  0
   -1.1140   19.7360  -27.2400 C   0  0  0  0  0  0  0  0  0  0  0  0
   -0.8360   18.2310  -27.4480 C   0  0  0  0  0  0  0  0  0  0  0  0
    0.7474   15.8075  -27.7924 H   0  0  0  0  0  0  0  0  0  0  0  0
   -0.1931   16.3727  -29.2146 H   0  0  0  0  0  0  0  0  0  0  0  0
    1.5987   16.4996  -29.2146 H   0  0  0  0  0  0  0  0  0  0  0  0
    1.2877   17.9939  -27.1172 H   0  0  0  0  0  0  0  0  0  0  0  0
    2.0691   18.8715  -29.2636 H   0  0  0  0  0  0  0  0  0  0  0  0
    0.3526   18.9907  -29.8432 H   0  0  0  0  0  0  0  0  0  0  0  0
    1.9167   20.8549  -28.1883 H   0  0  0  0  0  0  0  0  0  0  0  0
    0.3575   21.0887  -29.0960 H   0  0  0  0  0  0  0  0  0  0  0  0
   -0.4061   22.0002  -29.5020 H   0  0  0  0  0  0  0  0  0  0  0  0
   -1.8728   23.2366  -31.0979 H   0  0  0  0  0  0  0  0  0  0  0  0
   -4.6234   23.5324  -32.9454 H   0  0  0  0  0  0  0  0  0  0  0  0
   -5.7380   21.4004  -33.5891 H   0  0  0  0  0  0  0  0  0  0  0  0
   -5.0009   20.0189  -33.3240 H   0  0  0  0  0  0  0  0  0  0  0  0
   -5.3428   19.0562  -31.8290 H   0  0  0  0  0  0  0  0  0  0  0  0
   -4.4428   17.1557  -32.6626 H   0  0  0  0  0  0  0  0  0  0  0  0
   -2.5403   18.5856  -32.8953 H   0  0  0  0  0  0  0  0  0  0  0  0
   -2.5889   17.6189  -34.4085 H   0  0  0  0  0  0  0  0  0  0  0  0
   -3.1743   19.3171  -34.4085 H   0  0  0  0  0  0  0  0  0  0  0  0
   -6.9360   16.7149  -35.2392 H   0  0  0  0  0  0  0  0  0  0  0  0
   -6.1455   15.1827  -32.7849 H   0  0  0  0  0  0  0  0  0  0  0  0
   -6.9785   14.6350  -34.2792 H   0  0  0  0  0  0  0  0  0  0  0  0
   -5.1980   14.8730  -34.2792 H   0  0  0  0  0  0  0  0  0  0  0  0
   -8.2602   17.4056  -33.5258 H   0  0  0  0  0  0  0  0  0  0  0  0
   -7.0192   17.1051  -32.2694 H   0  0  0  0  0  0  0  0  0  0  0  0
   -8.1379   21.5646  -29.9868 H   0  0  0  0  0  0  0  0  0  0  0  0
   -7.0274   23.7040  -29.3404 H   0  0  0  0  0  0  0  0  0  0  0  0
   -3.7678   25.2783  -27.7795 H   0  0  0  0  0  0  0  0  0  0  0  0
   -2.3413   24.0047  -26.1775 H   0  0  0  0  0  0  0  0  0  0  0  0
   -1.7140   19.8705  -26.3279 H   0  0  0  0  0  0  0  0  0  0  0  0
   -1.6603   20.1206  -28.1138 H   0  0  0  0  0  0  0  0  0  0  0  0
   -0.9646   17.7124  -26.4865 H   0  0  0  0  0  0  0  0  0  0  0  0
   -1.5440   17.8619  -28.2047 H   0  0  0  0  0  0  0  0  0  0  0  0
  1  2  1  0
  2  3  1  0
  3  4  1  0
  4  5  1  0
  5  6  1  0
  6  7  2  0
  6  8  2  0
  6  9  1  0
  9 10  2  0
 10 11  1  0
 11 12  2  0
 12 13  1  0
 13 14  1  0
 14 15  2  0
 14 16  1  0
 16 17  2  0
 17 18  1  0
 18 19  2  0
 19 20  1  0
 20 21  2  0
 20 22  2  0
 20 23  1  0
 23 24  1  0
 24 25  1  0
 25 26  1  0
 25 27  1  0
 27 28  1  0
 28 29  1  0
 28 30  1  0
 19 31  1  0
 31 32  2  0
 12 33  1  0
 33 34  2  0
  5 35  1  0
 35 36  1  0
 36  2  1  0
 34  9  1  0
 32 16  1  0
 30 23  1  0
  1 37  1  0
  1 38  1  0
  1 39  1  0
  2 40  1  0
  3 41  1  0
  3 42  1  0
  4 43  1  0
  4 44  1  0
 10 45  1  0
 11 46  1  0
 17 47  1  0
 18 48  1  0
 24 49  1  0
 24 50  1  0
 25 51  1  1
 26 52  1  0
 26 53  1  0
 26 54  1  0
 28 55  1  6
 29 56  1  0
 29 57  1  0
 29 58  1  0
 30 59  1  0
 30 60  1  0
 31 61  1  0
 32 62  1  0
 33 63  1  0
 34 64  1  0
 35 65  1  0
 35 66  1  0
 36 67  1  0
 36 68  1  0
M  CHG  1  13  -1
M  END
>  <UniqueID>  (11) 
10

>  <SMILES>  (11) 
CC1CCN(S(=O)(=O)c2ccc([N-]C(=O)c3ccc(S(=O)(=O)N4C[C@H](C)O[C@@H](C)C4)cc3)cc2)CC1

>  <Energy>  (11) 
90.98451180596935

>  <Genealogy>  (11) 
CC1CCN(S(=O)(=O)c2ccc([N-]C(=O)c3ccc(S(=O)(=O)N4CC(C)OC(C)C4)cc3)cc2)CC1 (protonated)
CC1CCN(S(=O)(=O)c2ccc([N-]C(=O)c3ccc(S(=O)(=O)N4C[C@H](C)O[C@@H](C)C4)cc3)cc2)CC1 (chirality)
CC1CCN(S(=O)(=O)c2ccc([N-]C(=O)c3ccc(S(=O)(=O)N4C[C@H](C)O[C@@H](C)C4)cc3)cc2)CC1 (3D coordinates assigned)
CC1CCN(S(=O)(=O)c2ccc([N-]C(=O)c3ccc(S(=O)(=O)N4C[C@H](C)O[C@@H](C)C4)cc3)cc2)CC1 (nonaromatic ring conformer: 90.98451180596935 kcal/mol)

>  <smiles>  (11) 
CC1CCN(S(=O)(=O)c2ccc(NC(=O)c3ccc(S(=O)(=O)N4CC(C)OC(C)C4)cc3)cc2)CC1

>  <score_type>  (11) 
oracle

>  <origin>  (11) 
adgpu

>  <m_score__min__energy>  (11) 
-13.18

>  <m_primary>  (11) 
energy

$$$$
11:0
     RDKit          3D

 46 48  0  0  0  0  0  0  0  0999 V2000
    1.5160   23.7490  -27.8494 H   0  0  0  0  0  0  0  0  0  0  0  0
    0.5520   24.1960  -27.5650 C   0  0  0  0  0  0  0  0  0  0  0  0
   -0.4530   24.3540  -28.5240 C   0  0  0  0  0  0  0  0  0  0  0  0
   -0.2813   24.0187  -29.5575 H   0  0  0  0  0  0  0  0  0  0  0  0
   -1.6830   24.9400  -28.1730 C   0  0  0  0  0  0  0  0  0  0  0  0
   -2.7410   25.0850  -29.1340 N   0  0  0  0  0  0  0  0  0  0  0  0
   -3.0880   26.0490  -29.3410 H   0  0  0  0  0  0  0  0  0  0  0  0
   -3.3670   23.9850  -29.8110 C   0  0  0  0  0  0  0  0  0  0  0  0
   -4.9680   24.0930  -30.1600 S   0  0  0  0  0  0  0  0  0  0  0  0
   -2.5980   22.8170  -30.1670 N   0  0  0  0  0  0  0  0  0  0  0  0
   -1.6290   22.7220  -29.7900 H   0  0  0  0  0  0  0  0  0  0  0  0
   -3.0890   21.7310  -30.9650 C   0  0  0  0  0  0  0  0  0  0  0  0
   -2.6020   21.5560  -32.2670 C   0  0  0  0  0  0  0  0  0  0  0  0
   -1.8372   22.2413  -32.6613 H   0  0  0  0  0  0  0  0  0  0  0  0
   -3.0820   20.5160  -33.0680 C   0  0  0  0  0  0  0  0  0  0  0  0
   -2.6868   20.3793  -34.0854 H   0  0  0  0  0  0  0  0  0  0  0  0
   -4.0660   19.6470  -32.5770 C   0  0  0  0  0  0  0  0  0  0  0  0
   -4.6550   18.3200  -33.5700 S   0  0  0  0  0  0  0  0  0  0  0  0
   -4.9520   18.8690  -34.9370 O   0  0  0  0  0  0  0  0  0  0  0  0
   -3.6240   17.2350  -33.7110 O   0  0  0  0  0  0  0  0  0  0  0  0
   -6.1200   17.6510  -32.9230 N   0  0  0  0  0  0  0  0  0  0  0  0
   -7.2300   18.2410  -32.5750 C   0  0  0  0  0  0  0  0  0  0  0  0
   -8.2420   17.5540  -32.0960 O   0  0  0  0  0  0  0  0  0  0  0  0
   -9.2450   18.3340  -31.8330 N   0  0  0  0  0  0  0  0  0  0  0  0
  -10.1630   18.0160  -31.4510 H   0  0  0  0  0  0  0  0  0  0  0  0
   -8.8950   19.5920  -32.1520 C   0  0  0  0  0  0  0  0  0  0  0  0
   -9.8040   20.7730  -32.0140 C   0  0  0  0  0  0  0  0  0  0  0  0
   -9.9684   20.9865  -30.9475 H   0  0  0  0  0  0  0  0  0  0  0  0
   -9.3441   21.6480  -32.4965 H   0  0  0  0  0  0  0  0  0  0  0  0
  -10.7676   20.5524  -32.4965 H   0  0  0  0  0  0  0  0  0  0  0  0
   -7.5890   19.5950  -32.6240 C   0  0  0  0  0  0  0  0  0  0  0  0
   -6.8650   20.7990  -33.1520 C   0  0  0  0  0  0  0  0  0  0  0  0
   -6.5001   21.4058  -32.3102 H   0  0  0  0  0  0  0  0  0  0  0  0
   -6.0124   20.4740  -33.7664 H   0  0  0  0  0  0  0  0  0  0  0  0
   -7.5518   21.3997  -33.7664 H   0  0  0  0  0  0  0  0  0  0  0  0
   -4.5880   19.8470  -31.2930 C   0  0  0  0  0  0  0  0  0  0  0  0
   -5.3804   19.1846  -30.9143 H   0  0  0  0  0  0  0  0  0  0  0  0
   -4.1060   20.8850  -30.4910 C   0  0  0  0  0  0  0  0  0  0  0  0
   -4.5240   21.0403  -29.4855 H   0  0  0  0  0  0  0  0  0  0  0  0
   -1.9020   25.3260  -26.8410 C   0  0  0  0  0  0  0  0  0  0  0  0
   -2.8716   25.7555  -26.5488 H   0  0  0  0  0  0  0  0  0  0  0  0
   -0.8960   25.1680  -25.8840 C   0  0  0  0  0  0  0  0  0  0  0  0
   -1.0712   25.4864  -24.8458 H   0  0  0  0  0  0  0  0  0  0  0  0
    0.3350   24.6050  -26.2440 C   0  0  0  0  0  0  0  0  0  0  0  0
    1.3700   24.4410  -25.2570 C   0  0  0  0  0  0  0  0  0  0  0  0
    2.2030   24.3080  -24.4640 N   0  0  0  0  0  0  0  0  0  0  0  0
  1  2  1  0
  2  3  2  0
  3  4  1  0
  3  5  1  0
  5  6  1  0
  6  7  1  0
  6  8  1  0
  8  9  2  0
  8 10  1  0
 10 11  1  0
 10 12  1  0
 12 13  2  0
 13 14  1  0
 13 15  1  0
 15 16  1  0
 15 17  2  0
 17 18  1  0
 18 19  2  0
 18 20  2  0
 18 21  1  0
 21 22  2  0
 22 23  1  0
 23 24  1  0
 24 25  1  0
 24 26  1  0
 26 27  1  0
 27 28  1  0
 27 29  1  0
 27 30  1  0
 26 31  2  0
 31 32  1  0
 32 33  1  0
 32 34  1  0
 32 35  1  0
 17 36  1  0
 36 37  1  0
 36 38  2  0
 38 39  1  0
  5 40  2  0
 40 41  1  0
 40 42  1  0
 42 43  1  0
 42 44  2  0
 44 45  1  0
 45 46  3  0
 44  2  1  0
 38 12  1  0
 31 22  1  0
M  END
>  <UniqueID>  (12) 
11

>  <SMILES>  (12) 
Cc1[nH]o/c(=N/S(=O)(=O)c2ccc(NC(=S)Nc3ccc(C#N)cc3)cc2)c1C

>  <Energy>  (12) 
97.5134009201753

>  <Genealogy>  (12) 
Cc1[nH]o/c(=N/S(=O)(=O)c2ccc(NC(=S)Nc3ccc(C#N)cc3)cc2)c1C (cis-trans isomerization)
Cc1[nH]o/c(=N/S(=O)(=O)c2ccc(NC(=S)Nc3ccc(C#N)cc3)cc2)c1C (3D coordinates assigned)
Cc1[nH]o/c(=N/S(=O)(=O)c2ccc(NC(=S)Nc3ccc(C#N)cc3)cc2)c1C (optimized conformer: 97.5134009201753 kcal/mol)

>  <smiles>  (12) 
Cc1[nH]oc(=NS(=O)(=O)c2ccc(NC(=S)Nc3ccc(C#N)cc3)cc2)c1C

>  <score_type>  (12) 
oracle

>  <origin>  (12) 
adgpu

>  <m_score__min__energy>  (12) 
-9.6199999999999992

>  <m_primary>  (12) 
energy

$$$$
12:0
     RDKit          3D

 66 69  0  0  0  0  0  0  0  0999 V2000
   -8.9230   23.0910  -32.0910 C   0  0  0  0  0  0  0  0  0  0  0  0
   -8.5580   21.6550  -31.8920 C   0  0  0  0  0  0  0  0  0  0  0  0
   -9.4280   20.6390  -32.0500 N   0  0  0  0  0  0  0  0  0  0  0  0
   -8.7700   19.5110  -31.8360 N   0  0  0  0  0  0  0  0  0  0  0  0
   -9.3770   18.1890  -31.9600 C   0  0  0  0  0  0  0  0  0  0  0  0
   -7.4750   19.7770  -31.5630 C   0  0  0  0  0  0  0  0  0  0  0  0
   -6.4270   18.7320  -31.3160 C   0  0  0  0  0  0  0  0  0  0  0  0
   -7.3010   21.1540  -31.5820 C   0  0  0  0  0  0  0  0  0  0  0  0
   -6.0230   21.9350  -31.3710 C   0  0  0  0  0  0  0  0  0  0  0  0
   -4.7560   21.2240  -31.7300 N   0  0  0  0  0  0  0  0  0  0  0  0
   -4.4310   21.1590  -33.1810 C   0  0  0  0  0  0  0  0  0  0  0  0
   -4.5320   19.7510  -33.7460 C   0  0  0  0  0  0  0  0  0  0  0  0
   -5.7850   19.3220  -34.2260 C   0  0  0  0  0  0  0  0  0  0  0  0
   -5.9410   18.0560  -34.7850 C   0  0  0  0  0  0  0  0  0  0  0  0
   -4.8540   17.1940  -34.8700 C   0  0  0  0  0  0  0  0  0  0  0  0
   -3.6040   17.5910  -34.3970 C   0  0  0  0  0  0  0  0  0  0  0  0
   -3.4140   18.8700  -33.8320 C   0  0  0  0  0  0  0  0  0  0  0  0
   -2.0410   19.2570  -33.3080 C   0  0  0  0  0  0  0  0  0  0  0  0
   -1.6710   20.4870  -33.8250 F   0  0  0  0  0  0  0  0  0  0  0  0
   -1.1070   18.3050  -33.6660 F   0  0  0  0  0  0  0  0  0  0  0  0
   -2.0290   19.3580  -31.9260 F   0  0  0  0  0  0  0  0  0  0  0  0
   -3.5970   21.5690  -30.8540 C   0  0  0  0  0  0  0  0  0  0  0  0
   -2.4250   22.2420  -31.6120 C   0  0  0  0  0  0  0  0  0  0  0  0
   -1.2520   22.4740  -30.6530 C   0  0  0  0  0  0  0  0  0  0  0  0
   -1.6890   23.1270  -29.4110 N   0  0  0  0  0  0  0  0  0  0  0  0
   -0.7250   23.3440  -28.3600 C   0  0  0  0  0  0  0  0  0  0  0  0
    0.2190   22.5210  -28.2060 O   0  0  0  0  0  0  0  0  0  0  0  0
   -0.8010   24.5250  -27.4700 C   0  0  0  0  0  0  0  0  0  0  0  0
   -0.6110   24.3740  -26.0860 C   0  0  0  0  0  0  0  0  0  0  0  0
   -0.6900   25.4800  -25.2360 C   0  0  0  0  0  0  0  0  0  0  0  0
   -0.9640   26.7460  -25.7570 C   0  0  0  0  0  0  0  0  0  0  0  0
   -1.1570   26.9080  -27.1310 C   0  0  0  0  0  0  0  0  0  0  0  0
   -1.0750   25.8060  -27.9900 C   0  0  0  0  0  0  0  0  0  0  0  0
   -1.2380   25.9980  -29.3590 O   0  0  0  0  0  0  0  0  0  0  0  0
   -3.0920   23.5340  -29.2460 C   0  0  0  0  0  0  0  0  0  0  0  0
   -4.0400   22.3770  -29.5970 C   0  0  0  0  0  0  0  0  0  0  0  0
   -9.0465   23.5770  -31.1119 H   0  0  0  0  0  0  0  0  0  0  0  0
   -8.1251   23.5976  -32.6537 H   0  0  0  0  0  0  0  0  0  0  0  0
   -9.8660   23.1551  -32.6537 H   0  0  0  0  0  0  0  0  0  0  0  0
   -9.5662   17.7769  -30.9578 H   0  0  0  0  0  0  0  0  0  0  0  0
  -10.3273   18.2718  -32.5078 H   0  0  0  0  0  0  0  0  0  0  0  0
   -8.6949   17.5222  -32.5078 H   0  0  0  0  0  0  0  0  0  0  0  0
   -6.2918   18.5972  -30.2327 H   0  0  0  0  0  0  0  0  0  0  0  0
   -6.7446   17.7804  -31.7671 H   0  0  0  0  0  0  0  0  0  0  0  0
   -5.4763   19.0524  -31.7671 H   0  0  0  0  0  0  0  0  0  0  0  0
   -6.0815   22.8484  -31.9812 H   0  0  0  0  0  0  0  0  0  0  0  0
   -5.9633   22.1217  -30.2886 H   0  0  0  0  0  0  0  0  0  0  0  0
   -5.1315   21.8078  -33.7273 H   0  0  0  0  0  0  0  0  0  0  0  0
   -3.3889   21.4898  -33.3016 H   0  0  0  0  0  0  0  0  0  0  0  0
   -6.6517   19.9959  -34.1584 H   0  0  0  0  0  0  0  0  0  0  0  0
   -6.9252   17.7380  -35.1595 H   0  0  0  0  0  0  0  0  0  0  0  0
   -4.9804   16.1947  -35.3121 H   0  0  0  0  0  0  0  0  0  0  0  0
   -2.7533   16.8969  -34.4653 H   0  0  0  0  0  0  0  0  0  0  0  0
   -3.1931   20.6104  -30.4963 H   0  0  0  0  0  0  0  0  0  0  0  0
   -2.0999   21.5892  -32.4355 H   0  0  0  0  0  0  0  0  0  0  0  0
   -2.7608   23.2085  -32.0158 H   0  0  0  0  0  0  0  0  0  0  0  0
   -0.7965   21.5039  -30.4050 H   0  0  0  0  0  0  0  0  0  0  0  0
   -0.5259   23.1333  -31.1511 H   0  0  0  0  0  0  0  0  0  0  0  0
   -0.3987   23.3785  -25.6690 H   0  0  0  0  0  0  0  0  0  0  0  0
   -0.5360   25.3531  -24.1542 H   0  0  0  0  0  0  0  0  0  0  0  0
   -1.0279   27.6153  -25.0860 H   0  0  0  0  0  0  0  0  0  0  0  0
   -1.3743   27.9059  -27.5396 H   0  0  0  0  0  0  0  0  0  0  0  0
   -3.2601   23.8338  -28.2011 H   0  0  0  0  0  0  0  0  0  0  0  0
   -3.2971   24.3761  -29.9234 H   0  0  0  0  0  0  0  0  0  0  0  0
   -4.0832   21.6900  -28.7390 H   0  0  0  0  0  0  0  0  0  0  0  0
   -5.0201   22.8204  -29.8266 H   0  0  0  0  0  0  0  0  0  0  0  0
  1  2  1  0
  2  3  2  0
  3  4  1  0
  4  5  1  0
  4  6  1  0
  6  7  1  0
  6  8  2  0
  8  9  1  0
  9 10  1  0
 10 11  1  0
 11 12  1  0
 12 13  2  0
 13 14  1  0
 14 15  2  0
 15 16  1  0
 16 17  2  0
 17 18  1  0
 18 19  1  0
 18 20  1  0
 18 21  1  0
 10 22  1  0
 22 23  1  0
 23 24  1  0
 24 25  1  0
 25 26  1  0
 26 27  2  0
 26 28  1  0
 28 29  2  0
 29 30  1  0
 30 31  2  0
 31 32  1  0
 32 33  2  0
 33 34  1  0
 25 35  1  0
 35 36  1  0
  8  2  1  0
 17 12  1  0
 36 22  1  0
 33 28  1  0
  1 37  1  0
  1 38  1  0
  1 39  1  0
  5 40  1  0
  5 41  1  0
  5 42  1  0
  7 43  1  0
  7 44  1  0
  7 45  1  0
  9 46  1  0
  9 47  1  0
 11 48  1  0
 11 49  1  0
 13 50  1  0
 14 51  1  0
 15 52  1  0
 16 53  1  0
 22 54  1  0
 23 55  1  0
 23 56  1  0
 24 57  1  0
 24 58  1  0
 29 59  1  0
 30 60  1  0
 31 61  1  0
 32 62  1  0
 35 63  1  0
 35 64  1  0
 36 65  1  0
 36 66  1  0
M  CHG  1  34  -1
M  END
>  <UniqueID>  (13) 
12

>  <SMILES>  (13) 
Cc1nn(C)c(C)c1CN(Cc1ccccc1C(F)(F)F)C1CCN(C(=O)c2ccccc2[O-])CC1

>  <Energy>  (13) 
121.58064577354536

>  <Genealogy>  (13) 
Cc1nn(C)c(C)c1CN(Cc1ccccc1C(F)(F)F)C1CCN(C(=O)c2ccccc2[O-])CC1 (protonated)
Cc1nn(C)c(C)c1CN(Cc1ccccc1C(F)(F)F)C1CCN(C(=O)c2ccccc2[O-])CC1 (3D coordinates assigned)
Cc1nn(C)c(C)c1CN(Cc1ccccc1C(F)(F)F)C1CCN(C(=O)c2ccccc2[O-])CC1 (nonaromatic ring conformer: 121.58064577354536 kcal/mol)

>  <smiles>  (13) 
Cc1nn(C)c(C)c1CN(Cc1ccccc1C(F)(F)F)C1CCN(C(=O)c2ccccc2O)CC1

>  <score_type>  (13) 
oracle

>  <origin>  (13) 
adgpu

>  <m_score__min__energy>  (13) 
-12.300000000000001

>  <m_primary>  (13) 
energy

$$$$
13:0
     RDKit          3D

 45 47  0  0  0  0  0  0  0  0999 V2000
    0.7420   26.6680  -37.0110 C   0  0  0  0  0  0  0  0  0  0  0  0
    1.4170   25.4910  -37.6450 C   0  0  0  0  0  0  0  0  0  0  0  0
    1.3340   25.3400  -38.8930 O   0  0  0  0  0  0  0  0  0  0  0  0
    2.1900   24.5530  -36.8840 N   0  0  0  0  0  0  0  0  0  0  0  0
    1.7480   23.2800  -36.3910 C   0  0  0  0  0  0  0  0  0  0  0  0
    0.4610   23.1740  -35.8490 C   0  0  0  0  0  0  0  0  0  0  0  0
    0.0080   21.9560  -35.3330 C   0  0  0  0  0  0  0  0  0  0  0  0
    0.8450   20.8330  -35.3420 C   0  0  0  0  0  0  0  0  0  0  0  0
    0.2860   19.3080  -34.6660 S   0  0  0  0  0  0  0  0  0  0  0  0
    1.3810   18.6760  -33.8520 O   0  0  0  0  0  0  0  0  0  0  0  0
   -0.0770   18.3600  -35.7750 O   0  0  0  0  0  0  0  0  0  0  0  0
   -1.1170   19.6120  -33.6510 C   0  0  0  0  0  0  0  0  0  0  0  0
   -2.2730   18.8320  -33.7920 C   0  0  0  0  0  0  0  0  0  0  0  0
   -3.3940   19.0870  -32.9970 C   0  0  0  0  0  0  0  0  0  0  0  0
   -3.3840   20.1380  -32.0710 C   0  0  0  0  0  0  0  0  0  0  0  0
   -4.5510   20.3520  -31.2630 N   0  0  0  0  0  0  0  0  0  0  0  0
   -5.7150   21.1070  -31.6230 C   0  0  0  0  0  0  0  0  0  0  0  0
   -6.6610   20.5610  -32.2540 O   0  0  0  0  0  0  0  0  0  0  0  0
   -5.8100   22.5390  -31.2710 C   0  0  0  0  0  0  0  0  0  0  0  0
   -4.6200   23.2630  -31.0720 C   0  0  0  0  0  0  0  0  0  0  0  0
   -4.6580   24.5980  -30.6620 C   0  0  0  0  0  0  0  0  0  0  0  0
   -3.4740   25.2970  -30.4600 O   0  0  0  0  0  0  0  0  0  0  0  0
   -5.8850   25.2280  -30.4490 C   0  0  0  0  0  0  0  0  0  0  0  0
   -7.0750   24.5310  -30.6620 C   0  0  0  0  0  0  0  0  0  0  0  0
   -7.0540   23.1980  -31.0920 C   0  0  0  0  0  0  0  0  0  0  0  0
   -8.2760   22.5810  -31.3650 O   0  0  0  0  0  0  0  0  0  0  0  0
   -2.2190   20.9110  -31.9210 C   0  0  0  0  0  0  0  0  0  0  0  0
   -1.0960   20.6530  -32.7140 C   0  0  0  0  0  0  0  0  0  0  0  0
    2.1460   20.9450  -35.8470 C   0  0  0  0  0  0  0  0  0  0  0  0
    2.6000   22.1620  -36.3640 C   0  0  0  0  0  0  0  0  0  0  0  0
    0.7952   26.5753  -35.9162 H   0  0  0  0  0  0  0  0  0  0  0  0
    1.2466   27.5934  -37.3256 H   0  0  0  0  0  0  0  0  0  0  0  0
   -0.3116   26.6998  -37.3256 H   0  0  0  0  0  0  0  0  0  0  0  0
   -0.1978   24.0547  -35.8291 H   0  0  0  0  0  0  0  0  0  0  0  0
   -1.0082   21.8795  -34.9190 H   0  0  0  0  0  0  0  0  0  0  0  0
   -2.2981   18.0170  -34.5303 H   0  0  0  0  0  0  0  0  0  0  0  0
   -4.2905   18.4578  -33.0993 H   0  0  0  0  0  0  0  0  0  0  0  0
   -3.6499   22.7728  -31.2410 H   0  0  0  0  0  0  0  0  0  0  0  0
   -5.9141   26.2750  -30.1129 H   0  0  0  0  0  0  0  0  0  0  0  0
   -8.0386   25.0331  -30.4906 H   0  0  0  0  0  0  0  0  0  0  0  0
   -8.3540   21.6660  -31.7870 H   0  0  0  0  0  0  0  0  0  0  0  0
   -2.1907   21.7213  -31.1776 H   0  0  0  0  0  0  0  0  0  0  0  0
   -0.1925   21.2702  -32.6013 H   0  0  0  0  0  0  0  0  0  0  0  0
    2.8142   20.0712  -35.8369 H   0  0  0  0  0  0  0  0  0  0  0  0
    3.6265   22.2450  -36.7506 H   0  0  0  0  0  0  0  0  0  0  0  0
  1  2  1  0
  2  3  2  0
  2  4  1  0
  4  5  1  0
  5  6  2  0
  6  7  1  0
  7  8  2  0
  8  9  1  0
  9 10  2  0
  9 11  2  0
  9 12  1  0
 12 13  2  0
 13 14  1  0
 14 15  2  0
 15 16  1  0
 16 17  1  0
 17 18  2  0
 17 19  1  0
 19 20  2  0
 20 21  1  0
 21 22  1  0
 21 23  2  0
 23 24  1  0
 24 25  2  0
 25 26  1  0
 15 27  1  0
 27 28  2  0
  8 29  1  0
 29 30  2  0
 30  5  1  0
 28 12  1  0
 25 19  1  0
  1 31  1  0
  1 32  1  0
  1 33  1  0
  6 34  1  0
  7 35  1  0
 13 36  1  0
 14 37  1  0
 20 38  1  0
 23 39  1  0
 24 40  1  0
 26 41  1  0
 27 42  1  0
 28 43  1  0
 29 44  1  0
 30 45  1  0
M  CHG  3   4  -1  16  -1  22  -1
M  END
>  <UniqueID>  (14) 
13

>  <SMILES>  (14) 
CC(=O)[N-]c1ccc(S(=O)(=O)c2ccc([N-]C(=O)c3cc([O-])ccc3O)cc2)cc1

>  <Energy>  (14) 
62.51755423030869

>  <Genealogy>  (14) 
CC(=O)[N-]c1ccc(S(=O)(=O)c2ccc([N-]C(=O)c3cc([O-])ccc3O)cc2)cc1 (protonated)
CC(=O)[N-]c1ccc(S(=O)(=O)c2ccc([N-]C(=O)c3cc([O-])ccc3O)cc2)cc1 (3D coordinates assigned)
CC(=O)[N-]c1ccc(S(=O)(=O)c2ccc([N-]C(=O)c3cc([O-])ccc3O)cc2)cc1 (optimized conformer: 62.51755423030869 kcal/mol)

>  <smiles>  (14) 
CC(=O)Nc1ccc(S(=O)(=O)c2ccc(NC(=O)c3cc(O)ccc3O)cc2)cc1

>  <score_type>  (14) 
oracle

>  <origin>  (14) 
adgpu

>  <m_score__min__energy>  (14) 
-11.48

>  <m_primary>  (14) 
energy

$$$$
14:0
     RDKit          3D

 45 46  0  0  0  0  0  0  0  0999 V2000
   -6.1130   17.0910  -30.9860 C   0  0  0  0  0  0  0  0  0  0  0  0
   -5.6120   18.0940  -32.0300 C   0  0  0  0  0  0  0  0  0  0  0  0
   -6.6730   18.4940  -32.9860 N   0  0  0  0  0  0  0  0  0  0  0  0
   -6.1190   18.9420  -34.2870 C   0  0  0  0  0  0  0  0  0  0  0  0
   -5.2570   17.8980  -35.0080 C   0  0  0  0  0  0  0  0  0  0  0  0
   -7.8130   19.6510  -32.3060 S   0  0  0  0  0  0  0  0  0  0  0  0
   -8.8040   20.0540  -33.3640 O   0  0  0  0  0  0  0  0  0  0  0  0
   -8.5860   18.9850  -31.2030 O   0  0  0  0  0  0  0  0  0  0  0  0
   -7.0670   21.1140  -31.6410 C   0  0  0  0  0  0  0  0  0  0  0  0
   -5.7460   21.4490  -31.9760 C   0  0  0  0  0  0  0  0  0  0  0  0
   -5.1430   22.5830  -31.4270 C   0  0  0  0  0  0  0  0  0  0  0  0
   -5.8420   23.3830  -30.5150 C   0  0  0  0  0  0  0  0  0  0  0  0
   -5.0710   24.8020  -29.8010 S   0  0  0  0  0  0  0  0  0  0  0  0
   -4.2310   25.4830  -30.8470 O   0  0  0  0  0  0  0  0  0  0  0  0
   -6.1320   25.7700  -29.3590 O   0  0  0  0  0  0  0  0  0  0  0  0
   -4.0610   24.3850  -28.4330 N   0  0  0  0  0  0  0  0  0  0  0  0
   -2.6380   24.5210  -28.7610 C   0  0  0  0  0  0  0  0  0  0  0  0
   -2.0920   23.1440  -29.1120 C   0  0  0  0  0  0  0  0  0  0  0  0
   -3.1380   22.1520  -28.6440 C   0  0  0  0  0  0  0  0  0  0  0  0
   -4.2570   22.9860  -28.0360 C   0  0  0  0  0  0  0  0  0  0  0  0
   -7.1520   23.0380  -30.1590 C   0  0  0  0  0  0  0  0  0  0  0  0
   -7.7560   21.9050  -30.7080 C   0  0  0  0  0  0  0  0  0  0  0  0
   -5.9171   17.4832  -29.9771 H   0  0  0  0  0  0  0  0  0  0  0  0
   -7.1943   16.9361  -31.1156 H   0  0  0  0  0  0  0  0  0  0  0  0
   -5.5873   16.1335  -31.1156 H   0  0  0  0  0  0  0  0  0  0  0  0
   -5.2481   18.9925  -31.5102 H   0  0  0  0  0  0  0  0  0  0  0  0
   -4.8099   17.6072  -32.6042 H   0  0  0  0  0  0  0  0  0  0  0  0
   -7.2390   17.6410  -33.2100 H   0  0  0  0  0  0  0  0  0  0  0  0
   -6.9599   19.2062  -34.9451 H   0  0  0  0  0  0  0  0  0  0  0  0
   -5.4583   19.7937  -34.0676 H   0  0  0  0  0  0  0  0  0  0  0  0
   -4.7406   17.2725  -34.2650 H   0  0  0  0  0  0  0  0  0  0  0  0
   -5.8987   17.2646  -35.6380 H   0  0  0  0  0  0  0  0  0  0  0  0
   -4.5136   18.4082  -35.6380 H   0  0  0  0  0  0  0  0  0  0  0  0
   -5.1819   20.8145  -32.6754 H   0  0  0  0  0  0  0  0  0  0  0  0
   -4.1144   22.8487  -31.7124 H   0  0  0  0  0  0  0  0  0  0  0  0
   -2.5177   25.1982  -29.6194 H   0  0  0  0  0  0  0  0  0  0  0  0
   -2.0904   24.9371  -27.9025 H   0  0  0  0  0  0  0  0  0  0  0  0
   -1.9412   23.0574  -30.1982 H   0  0  0  0  0  0  0  0  0  0  0  0
   -1.1185   22.9610  -28.6336 H   0  0  0  0  0  0  0  0  0  0  0  0
   -3.5162   21.5646  -29.4936 H   0  0  0  0  0  0  0  0  0  0  0  0
   -2.7231   21.4388  -27.9165 H   0  0  0  0  0  0  0  0  0  0  0  0
   -5.2295   22.6280  -28.4049 H   0  0  0  0  0  0  0  0  0  0  0  0
   -4.2402   22.8986  -26.9396 H   0  0  0  0  0  0  0  0  0  0  0  0
   -7.7075   23.6624  -29.4437 H   0  0  0  0  0  0  0  0  0  0  0  0
   -8.7780   21.6306  -30.4076 H   0  0  0  0  0  0  0  0  0  0  0  0
  1  2  1  0
  2  3  1  0
  3  4  1  0
  4  5  1  0
  3  6  1  0
  6  7  2  0
  6  8  2  0
  6  9  1  0
  9 10  2  0
 10 11  1  0
 11 12  2  0
 12 13  1  0
 13 14  2  0
 13 15  2  0
 13 16  1  0
 16 17  1  0
 17 18  1  0
 18 19  1  0
 19 20  1  0
 12 21  1  0
 21 22  2  0
 22  9  1  0
 20 16  1  0
  1 23  1  0
  1 24  1  0
  1 25  1  0
  2 26  1  0
  2 27  1  0
  3 28  1  0
  4 29  1  0
  4 30  1  0
  5 31  1  0
  5 32  1  0
  5 33  1  0
 10 34  1  0
 11 35  1  0
 17 36  1  0
 17 37  1  0
 18 38  1  0
 18 39  1  0
 19 40  1  0
 19 41  1  0
 20 42  1  0
 20 43  1  0
 21 44  1  0
 22 45  1  0
M  CHG  1   3   1
M  END
>  <UniqueID>  (15) 
14

>  <SMILES>  (15) 
CC[NH+](CC)S(=O)(=O)c1ccc(S(=O)(=O)N2CCCC2)cc1

>  <Energy>  (15) 
45.25414328788495

>  <Genealogy>  (15) 
CC[NH+](CC)S(=O)(=O)c1ccc(S(=O)(=O)N2CCCC2)cc1 (protonated)
CC[NH+](CC)S(=O)(=O)c1ccc(S(=O)(=O)N2CCCC2)cc1 (3D coordinates assigned)
CC[NH+](CC)S(=O)(=O)c1ccc(S(=O)(=O)N2CCCC2)cc1 (nonaromatic ring conformer: 45.25414328788495 kcal/mol)

>  <smiles>  (15) 
CCN(CC)S(=O)(=O)c1ccc(S(=O)(=O)N2CCCC2)cc1

>  <score_type>  (15) 
oracle

>  <origin>  (15) 
adgpu

>  <m_score__min__energy>  (15) 
-8.3900000000000006

>  <m_primary>  (15) 
energy

$$$$
15:0
     RDKit          3D

 61 64  0  0  0  0  0  0  0  0999 V2000
   -3.8790   25.6360  -30.8540 O   0  0  0  0  0  0  0  0  0  0  0  0
   -4.8680   24.5670  -30.4650 S   0  0  0  0  0  0  0  0  0  0  0  0
   -5.9100   25.1700  -29.5610 O   0  0  0  0  0  0  0  0  0  0  0  0
   -5.6500   23.9810  -31.9070 N   0  0  0  0  0  0  0  0  0  0  0  0
   -6.6920   23.0000  -31.9280 C   0  0  0  0  0  0  0  0  0  0  0  0
   -8.0250   23.4260  -31.9390 C   0  0  0  0  0  0  0  0  0  0  0  0
   -9.0620   22.4910  -31.9200 C   0  0  0  0  0  0  0  0  0  0  0  0
   -8.7740   21.1260  -31.9130 C   0  0  0  0  0  0  0  0  0  0  0  0
   -7.4430   20.6870  -31.9370 C   0  0  0  0  0  0  0  0  0  0  0  0
   -7.0960   18.9630  -31.9700 S   0  0  0  0  0  0  0  0  0  0  0  0
   -5.8850   18.6770  -31.1260 O   0  0  0  0  0  0  0  0  0  0  0  0
   -8.2750   18.2320  -31.3850 O   0  0  0  0  0  0  0  0  0  0  0  0
   -6.8280   18.4670  -33.6300 N   0  0  0  0  0  0  0  0  0  0  0  0
   -5.6180   19.1210  -34.2060 C   0  0  0  0  0  0  0  0  0  0  0  0
   -4.4820   18.1450  -34.5730 C   0  0  0  0  0  0  0  0  0  0  0  0
   -4.2790   17.1090  -33.4690 C   0  0  0  0  0  0  0  0  0  0  0  0
   -5.5730   16.3370  -33.1610 C   0  0  0  0  0  0  0  0  0  0  0  0
   -6.8330   16.9930  -33.7600 C   0  0  0  0  0  0  0  0  0  0  0  0
   -6.4030   21.6260  -31.9620 C   0  0  0  0  0  0  0  0  0  0  0  0
   -4.0440   23.2900  -29.5650 C   0  0  0  0  0  0  0  0  0  0  0  0
   -3.7830   23.4410  -28.1950 C   0  0  0  0  0  0  0  0  0  0  0  0
   -3.1990   22.3970  -27.4710 C   0  0  0  0  0  0  0  0  0  0  0  0
   -2.8520   21.1990  -28.1110 C   0  0  0  0  0  0  0  0  0  0  0  0
   -2.2370   19.8410  -27.1630 S   0  0  0  0  0  0  0  0  0  0  0  0
   -3.3710   18.9050  -26.8450 O   0  0  0  0  0  0  0  0  0  0  0  0
   -1.6940   20.3660  -25.8640 O   0  0  0  0  0  0  0  0  0  0  0  0
   -0.9820   18.9550  -27.9920 N   0  0  0  0  0  0  0  0  0  0  0  0
    0.0890   19.8590  -28.4370 C   0  0  0  0  0  0  0  0  0  0  0  0
    1.2990   19.0530  -28.9530 C   0  0  0  0  0  0  0  0  0  0  0  0
    0.9530   17.6970  -29.1650 O   0  0  0  0  0  0  0  0  0  0  0  0
    0.6070   17.0790  -27.9340 C   0  0  0  0  0  0  0  0  0  0  0  0
   -0.4310   17.8960  -27.1390 C   0  0  0  0  0  0  0  0  0  0  0  0
   -3.0760   21.0620  -29.4890 C   0  0  0  0  0  0  0  0  0  0  0  0
   -3.6810   22.0980  -30.2100 C   0  0  0  0  0  0  0  0  0  0  0  0
   -8.2567   24.5011  -31.9627 H   0  0  0  0  0  0  0  0  0  0  0  0
  -10.1080   22.8314  -31.9105 H   0  0  0  0  0  0  0  0  0  0  0  0
   -9.5934   20.3925  -31.8886 H   0  0  0  0  0  0  0  0  0  0  0  0
   -7.6620   18.8110  -34.1640 H   0  0  0  0  0  0  0  0  0  0  0  0
   -5.9181   19.6585  -35.1176 H   0  0  0  0  0  0  0  0  0  0  0  0
   -5.2202   19.7882  -33.4272 H   0  0  0  0  0  0  0  0  0  0  0  0
   -4.7389   17.6284  -35.5095 H   0  0  0  0  0  0  0  0  0  0  0  0
   -3.5507   18.7177  -34.6946 H   0  0  0  0  0  0  0  0  0  0  0  0
   -3.5066   16.3945  -33.7897 H   0  0  0  0  0  0  0  0  0  0  0  0
   -3.9737   17.6402  -32.5554 H   0  0  0  0  0  0  0  0  0  0  0  0
   -5.4795   15.3211  -33.5722 H   0  0  0  0  0  0  0  0  0  0  0  0
   -5.6969   16.3326  -32.0680 H   0  0  0  0  0  0  0  0  0  0  0  0
   -6.8903   16.7344  -34.8276 H   0  0  0  0  0  0  0  0  0  0  0  0
   -7.7015   16.6139  -33.2015 H   0  0  0  0  0  0  0  0  0  0  0  0
   -5.3579   21.2861  -32.0084 H   0  0  0  0  0  0  0  0  0  0  0  0
   -4.0385   24.3836  -27.6887 H   0  0  0  0  0  0  0  0  0  0  0  0
   -3.0109   22.5163  -26.3938 H   0  0  0  0  0  0  0  0  0  0  0  0
   -0.2911   20.4991  -29.2468 H   0  0  0  0  0  0  0  0  0  0  0  0
    0.4104   20.4754  -27.5845 H   0  0  0  0  0  0  0  0  0  0  0  0
    1.6430   19.4890  -29.9025 H   0  0  0  0  0  0  0  0  0  0  0  0
    2.0969   19.0967  -28.1970 H   0  0  0  0  0  0  0  0  0  0  0  0
    0.1881   16.0837  -28.1436 H   0  0  0  0  0  0  0  0  0  0  0  0
    1.5198   17.0111  -27.3239 H   0  0  0  0  0  0  0  0  0  0  0  0
   -1.2436   17.2325  -26.8082 H   0  0  0  0  0  0  0  0  0  0  0  0
    0.0546   18.3490  -26.2621 H   0  0  0  0  0  0  0  0  0  0  0  0
   -2.7754   20.1379  -30.0044 H   0  0  0  0  0  0  0  0  0  0  0  0
   -3.8726   21.9772  -31.2864 H   0  0  0  0  0  0  0  0  0  0  0  0
  1  2  2  0
  2  3  2  0
  2  4  1  0
  4  5  1  0
  5  6  2  0
  6  7  1  0
  7  8  2  0
  8  9  1  0
  9 10  1  0
 10 11  2  0
 10 12  2  0
 10 13  1  0
 13 14  1  0
 14 15  1  0
 15 16  1  0
 16 17  1  0
 17 18  1  0
  9 19  2  0
  2 20  1  0
 20 21  2  0
 21 22  1  0
 22 23  2  0
 23 24  1  0
 24 25  2  0
 24 26  2  0
 24 27  1  0
 27 28  1  0
 28 29  1  0
 29 30  1  0
 30 31  1  0
 31 32  1  0
 23 33  1  0
 33 34  2  0
 19  5  1  0
 34 20  1  0
 18 13  1  0
 32 27  1  0
  6 35  1  0
  7 36  1  0
  8 37  1  0
 13 38  1  0
 14 39  1  0
 14 40  1  0
 15 41  1  0
 15 42  1  0
 16 43  1  0
 16 44  1  0
 17 45  1  0
 17 46  1  0
 18 47  1  0
 18 48  1  0
 19 49  1  0
 21 50  1  0
 22 51  1  0
 28 52  1  0
 28 53  1  0
 29 54  1  0
 29 55  1  0
 31 56  1  0
 31 57  1  0
 32 58  1  0
 32 59  1  0
 33 60  1  0
 34 61  1  0
M  CHG  2   4  -1  13   1
M  END
>  <UniqueID>  (16) 
15

>  <SMILES>  (16) 
O=S(=O)([N-]c1cccc(S(=O)(=O)[NH+]2CCCCC2)c1)c1ccc(S(=O)(=O)N2CCOCC2)cc1

>  <Energy>  (16) 
80.09133665933918

>  <Genealogy>  (16) 
O=S(=O)([N-]c1cccc(S(=O)(=O)[NH+]2CCCCC2)c1)c1ccc(S(=O)(=O)N2CCOCC2)cc1 (protonated)
O=S(=O)([N-]c1cccc(S(=O)(=O)[NH+]2CCCCC2)c1)c1ccc(S(=O)(=O)N2CCOCC2)cc1 (3D coordinates assigned)
O=S(=O)([N-]c1cccc(S(=O)(=O)[NH+]2CCCCC2)c1)c1ccc(S(=O)(=O)N2CCOCC2)cc1 (nonaromatic ring conformer: 80.09133665933918 kcal/mol)

>  <smiles>  (16) 
O=S(=O)(Nc1cccc(S(=O)(=O)N2CCCCC2)c1)c1ccc(S(=O)(=O)N2CCOCC2)cc1

>  <score_type>  (16) 
oracle

>  <origin>  (16) 
adgpu

>  <m_score__min__energy>  (16) 
-11.949999999999999

>  <m_primary>  (16) 
energy

$$$$
16:0
     RDKit          3D

 34 35  0  0  0  0  0  0  0  0999 V2000
   -6.7480   24.9770  -29.9060 C   0  0  0  0  0  0  0  0  0  0  0  0
   -6.6240   23.7280  -30.7370 C   0  0  0  0  0  0  0  0  0  0  0  0
   -7.7990   23.1120  -31.2080 C   0  0  0  0  0  0  0  0  0  0  0  0
   -7.7330   21.9400  -31.9620 C   0  0  0  0  0  0  0  0  0  0  0  0
   -6.4980   21.3630  -32.2510 C   0  0  0  0  0  0  0  0  0  0  0  0
   -5.3240   21.9500  -31.7780 C   0  0  0  0  0  0  0  0  0  0  0  0
   -5.3700   23.1270  -31.0110 C   0  0  0  0  0  0  0  0  0  0  0  0
   -3.8490   23.8120  -30.4130 S   0  0  0  0  0  0  0  0  0  0  0  0
   -2.6750   23.2490  -31.1660 O   0  0  0  0  0  0  0  0  0  0  0  0
   -3.8750   25.3010  -30.6130 O   0  0  0  0  0  0  0  0  0  0  0  0
   -3.6480   23.4650  -28.7270 N   0  0  0  0  0  0  0  0  0  0  0  0
   -2.7610   22.4790  -28.1770 C   0  0  0  0  0  0  0  0  0  0  0  0
   -3.1200   21.1190  -28.1190 C   0  0  0  0  0  0  0  0  0  0  0  0
   -2.2440   20.1810  -27.5680 C   0  0  0  0  0  0  0  0  0  0  0  0
   -1.0040   20.5840  -27.0740 C   0  0  0  0  0  0  0  0  0  0  0  0
   -0.6340   21.9280  -27.1320 C   0  0  0  0  0  0  0  0  0  0  0  0
   -1.5030   22.8830  -27.6810 C   0  0  0  0  0  0  0  0  0  0  0  0
   -1.0190   24.5810  -27.7410 S   0  0  0  0  0  0  0  0  0  0  0  0
   -1.9150   25.3910  -28.9780 N   0  0  0  0  0  0  0  0  0  0  0  0
    0.4500   24.6960  -28.0450 O   0  0  0  0  0  0  0  0  0  0  0  0
   -1.2930   25.2260  -26.4130 O   0  0  0  0  0  0  0  0  0  0  0  0
   -6.7216   24.7115  -28.8388 H   0  0  0  0  0  0  0  0  0  0  0  0
   -5.9127   25.6548  -30.1360 H   0  0  0  0  0  0  0  0  0  0  0  0
   -7.7002   25.4774  -30.1360 H   0  0  0  0  0  0  0  0  0  0  0  0
   -8.7779   23.5587  -30.9795 H   0  0  0  0  0  0  0  0  0  0  0  0
   -8.6576   21.4706  -32.3290 H   0  0  0  0  0  0  0  0  0  0  0  0
   -6.4486   20.4436  -32.8528 H   0  0  0  0  0  0  0  0  0  0  0  0
   -4.3529   21.4872  -32.0076 H   0  0  0  0  0  0  0  0  0  0  0  0
   -4.0954   20.7934  -28.5096 H   0  0  0  0  0  0  0  0  0  0  0  0
   -2.5334   19.1207  -27.5236 H   0  0  0  0  0  0  0  0  0  0  0  0
   -0.3177   19.8426  -26.6387 H   0  0  0  0  0  0  0  0  0  0  0  0
    0.3466   22.2413  -26.7443 H   0  0  0  0  0  0  0  0  0  0  0  0
   -2.8950   25.4920  -28.6290 H   0  0  0  0  0  0  0  0  0  0  0  0
   -1.9510   24.7500  -29.8010 H   0  0  0  0  0  0  0  0  0  0  0  0
  1  2  1  0
  2  3  2  0
  3  4  1  0
  4  5  2  0
  5  6  1  0
  6  7  2  0
  7  8  1  0
  8  9  2  0
  8 10  2  0
  8 11  1  0
 11 12  1  0
 12 13  2  0
 13 14  1  0
 14 15  2  0
 15 16  1  0
 16 17  2  0
 17 18  1  0
 18 19  1  0
 18 20  2  0
 18 21  2  0
  7  2  1  0
 17 12  1  0
  1 22  1  0
  1 23  1  0
  1 24  1  0
  3 25  1  0
  4 26  1  0
  5 27  1  0
  6 28  1  0
 13 29  1  0
 14 30  1  0
 15 31  1  0
 16 32  1  0
 19 33  1  0
 19 34  1  0
M  CHG  1  11  -1
M  END
>  <UniqueID>  (17) 
16

>  <SMILES>  (17) 
Cc1ccccc1S(=O)(=O)[N-]c1ccccc1S(N)(=O)=O

>  <Energy>  (17) 
37.73616132693395

>  <Genealogy>  (17) 
Cc1ccccc1S(=O)(=O)[N-]c1ccccc1S(N)(=O)=O (protonated)
Cc1ccccc1S(=O)(=O)[N-]c1ccccc1S(N)(=O)=O (3D coordinates assigned)
Cc1ccccc1S(=O)(=O)[N-]c1ccccc1S(N)(=O)=O (optimized conformer: 37.73616132693395 kcal/mol)

>  <smiles>  (17) 
Cc1ccccc1S(=O)(=O)Nc1ccccc1S(N)(=O)=O

>  <score_type>  (17) 
oracle

>  <origin>  (17) 
adgpu

>  <m_score__min__energy>  (17) 
-8.4700000000000006

>  <m_primary>  (17) 
energy

$$$$
17:0
     RDKit          3D

 43 45  0  0  0  0  0  0  0  0999 V2000
   -3.9500   17.6180  -33.6200 C   0  0  0  0  0  0  0  0  0  0  0  0
   -5.2020   17.5800  -32.8100 C   0  0  0  0  0  0  0  0  0  0  0  0
   -5.3900   16.7530  -31.7640 N   0  0  0  0  0  0  0  0  0  0  0  0
   -6.5520   17.0480  -31.2530 O   0  0  0  0  0  0  0  0  0  0  0  0
   -7.1320   18.0260  -31.9090 C   0  0  0  0  0  0  0  0  0  0  0  0
   -8.4610   18.6060  -31.5570 C   0  0  0  0  0  0  0  0  0  0  0  0
   -6.3020   18.4110  -32.9430 C   0  0  0  0  0  0  0  0  0  0  0  0
   -6.4840   19.5490  -33.9030 C   0  0  0  0  0  0  0  0  0  0  0  0
   -7.2690   20.5780  -33.3060 O   0  0  0  0  0  0  0  0  0  0  0  0
   -6.7250   21.6910  -32.6460 C   0  0  0  0  0  0  0  0  0  0  0  0
   -7.5240   22.7460  -32.1620 C   0  0  0  0  0  0  0  0  0  0  0  0
   -6.9510   23.8080  -31.4610 C   0  0  0  0  0  0  0  0  0  0  0  0
   -5.5650   23.8490  -31.2340 C   0  0  0  0  0  0  0  0  0  0  0  0
   -4.9680   24.9730  -30.4780 C   0  0  0  0  0  0  0  0  0  0  0  0
   -5.7150   25.7620  -29.8340 O   0  0  0  0  0  0  0  0  0  0  0  0
   -3.5450   25.1580  -30.4620 N   0  0  0  0  0  0  0  0  0  0  0  0
   -2.7170   24.9000  -29.2870 C   0  0  0  0  0  0  0  0  0  0  0  0
   -2.5190   23.4130  -29.1530 C   0  0  0  0  0  0  0  0  0  0  0  0
   -3.2000   22.6920  -28.1610 C   0  0  0  0  0  0  0  0  0  0  0  0
   -3.1180   21.2970  -28.1300 C   0  0  0  0  0  0  0  0  0  0  0  0
   -2.3610   20.6370  -29.0980 C   0  0  0  0  0  0  0  0  0  0  0  0
   -1.7120   21.3520  -30.0610 N   0  0  0  0  0  0  0  0  0  0  0  0
   -1.7740   22.7070  -30.1070 C   0  0  0  0  0  0  0  0  0  0  0  0
   -4.7640   22.8140  -31.7340 C   0  0  0  0  0  0  0  0  0  0  0  0
   -5.3430   21.7420  -32.4220 C   0  0  0  0  0  0  0  0  0  0  0  0
   -3.0793   17.6444  -32.9482 H   0  0  0  0  0  0  0  0  0  0  0  0
   -3.8964   16.7211  -34.2545 H   0  0  0  0  0  0  0  0  0  0  0  0
   -3.9509   18.5165  -34.2545 H   0  0  0  0  0  0  0  0  0  0  0  0
   -8.5633   18.6507  -30.4627 H   0  0  0  0  0  0  0  0  0  0  0  0
   -8.5404   19.6206  -31.9744 H   0  0  0  0  0  0  0  0  0  0  0  0
   -9.2589   17.9743  -31.9744 H   0  0  0  0  0  0  0  0  0  0  0  0
   -5.4988   19.9556  -34.1750 H   0  0  0  0  0  0  0  0  0  0  0  0
   -7.0003   19.1804  -34.8017 H   0  0  0  0  0  0  0  0  0  0  0  0
   -8.6097   22.7323  -32.3384 H   0  0  0  0  0  0  0  0  0  0  0  0
   -7.5898   24.6198  -31.0830 H   0  0  0  0  0  0  0  0  0  0  0  0
   -1.7414   25.3941  -29.4059 H   0  0  0  0  0  0  0  0  0  0  0  0
   -3.2104   25.2951  -28.3867 H   0  0  0  0  0  0  0  0  0  0  0  0
   -3.7987   23.2245  -27.4073 H   0  0  0  0  0  0  0  0  0  0  0  0
   -3.6445   20.7261  -27.3510 H   0  0  0  0  0  0  0  0  0  0  0  0
   -2.2875   19.5395  -29.0846 H   0  0  0  0  0  0  0  0  0  0  0  0
   -1.2372   23.2533  -30.8965 H   0  0  0  0  0  0  0  0  0  0  0  0
   -3.6746   22.8443  -31.5850 H   0  0  0  0  0  0  0  0  0  0  0  0
   -4.7036   20.9272  -32.7925 H   0  0  0  0  0  0  0  0  0  0  0  0
  1  2  1  0
  2  3  2  0
  3  4  1  0
  4  5  1  0
  5  6  1  0
  5  7  2  0
  7  8  1  0
  8  9  1  0
  9 10  1  0
 10 11  2  0
 11 12  1  0
 12 13  2  0
 13 14  1  0
 14 15  2  0
 14 16  1  0
 16 17  1  0
 17 18  1  0
 18 19  2  0
 19 20  1  0
 20 21  2  0
 21 22  1  0
 22 23  2  0
 13 24  1  0
 24 25  2  0
  7  2  1  0
 25 10  1  0
 23 18  1  0
  1 26  1  0
  1 27  1  0
  1 28  1  0
  6 29  1  0
  6 30  1  0
  6 31  1  0
  8 32  1  0
  8 33  1  0
 11 34  1  0
 12 35  1  0
 17 36  1  0
 17 37  1  0
 19 38  1  0
 20 39  1  0
 21 40  1  0
 23 41  1  0
 24 42  1  0
 25 43  1  0
M  CHG  1  16  -1
M  END
>  <UniqueID>  (18) 
17

>  <SMILES>  (18) 
Cc1noc(C)c1COc1ccc(C(=O)[N-]Cc2cccnc2)cc1

>  <Energy>  (18) 
75.6126253465441

>  <Genealogy>  (18) 
Cc1noc(C)c1COc1ccc(C(=O)[N-]Cc2cccnc2)cc1 (protonated)
Cc1noc(C)c1COc1ccc(C(=O)[N-]Cc2cccnc2)cc1 (3D coordinates assigned)
Cc1noc(C)c1COc1ccc(C(=O)[N-]Cc2cccnc2)cc1 (optimized conformer: 75.6126253465441 kcal/mol)

>  <smiles>  (18) 
Cc1noc(C)c1COc1ccc(C(=O)NCc2cccnc2)cc1

>  <score_type>  (18) 
oracle

>  <origin>  (18) 
adgpu

>  <m_score__min__energy>  (18) 
-10.01

>  <m_primary>  (18) 
energy

$$$$
18:0
     RDKit          3D

 35 37  0  0  0  0  0  0  0  0999 V2000
   -5.7440   24.1640  -28.5410 H   0  0  0  0  0  0  0  0  0  0  0  0
   -4.9440   23.6570  -28.1820 O   0  0  0  0  0  0  0  0  0  0  0  0
   -3.6600   24.1970  -28.2090 C   0  0  0  0  0  0  0  0  0  0  0  0
   -2.8260   24.0310  -27.0950 C   0  0  0  0  0  0  0  0  0  0  0  0
   -3.2112   23.5343  -26.1923 H   0  0  0  0  0  0  0  0  0  0  0  0
   -1.5110   24.4920  -27.1250 C   0  0  0  0  0  0  0  0  0  0  0  0
   -0.8569   24.3649  -26.2498 H   0  0  0  0  0  0  0  0  0  0  0  0
   -1.0350   25.1150  -28.2750 C   0  0  0  0  0  0  0  0  0  0  0  0
    0.0058   25.4684  -28.3178 H   0  0  0  0  0  0  0  0  0  0  0  0
   -1.8550   25.2870  -29.3450 N   0  0  0  0  0  0  0  0  0  0  0  0
   -3.1530   24.8750  -29.3510 C   0  0  0  0  0  0  0  0  0  0  0  0
   -3.8550   25.1060  -30.4270 N   0  0  0  0  0  0  0  0  0  0  0  0
   -5.2580   24.9000  -30.6360 C   0  0  0  0  0  0  0  0  0  0  0  0
   -6.0720   25.7110  -30.1210 O   0  0  0  0  0  0  0  0  0  0  0  0
   -5.7480   23.6710  -31.3070 C   0  0  0  0  0  0  0  0  0  0  0  0
   -7.0520   23.6290  -31.6980 N   0  0  0  0  0  0  0  0  0  0  0  0
   -7.5850   22.5580  -32.3420 C   0  0  0  0  0  0  0  0  0  0  0  0
   -8.6434   22.5676  -32.6415 H   0  0  0  0  0  0  0  0  0  0  0  0
   -6.7930   21.4490  -32.6230 C   0  0  0  0  0  0  0  0  0  0  0  0
   -7.2181   20.5814  -33.1489 H   0  0  0  0  0  0  0  0  0  0  0  0
   -5.4550   21.4490  -32.2310 C   0  0  0  0  0  0  0  0  0  0  0  0
   -4.8235   20.5730  -32.4401 H   0  0  0  0  0  0  0  0  0  0  0  0
   -4.9100   22.5610  -31.5710 C   0  0  0  0  0  0  0  0  0  0  0  0
   -3.5590   22.5130  -31.0830 N   0  0  0  0  0  0  0  0  0  0  0  0
   -3.3510   22.9840  -30.1730 H   0  0  0  0  0  0  0  0  0  0  0  0
   -2.4960   21.7920  -31.7340 C   0  0  0  0  0  0  0  0  0  0  0  0
   -1.3950   21.2910  -31.0160 C   0  0  0  0  0  0  0  0  0  0  0  0
   -1.3220   21.4645  -29.9322 H   0  0  0  0  0  0  0  0  0  0  0  0
   -0.4210   20.5930  -31.6580 N   0  0  0  0  0  0  0  0  0  0  0  0
   -0.4750   20.3530  -32.9950 C   0  0  0  0  0  0  0  0  0  0  0  0
    0.3344   19.7929  -33.4861 H   0  0  0  0  0  0  0  0  0  0  0  0
   -1.5570   20.8170  -33.7450 C   0  0  0  0  0  0  0  0  0  0  0  0
   -1.6084   20.6211  -34.8262 H   0  0  0  0  0  0  0  0  0  0  0  0
   -2.5730   21.5320  -33.1090 C   0  0  0  0  0  0  0  0  0  0  0  0
   -3.4360   21.8922  -33.6882 H   0  0  0  0  0  0  0  0  0  0  0  0
  1  2  1  0
  2  3  1  0
  3  4  2  0
  4  5  1  0
  4  6  1  0
  6  7  1  0
  6  8  2  0
  8  9  1  0
  8 10  1  0
 10 11  1  0
 11 12  2  0
 12 13  1  0
 13 14  2  0
 13 15  1  0
 15 16  2  0
 16 17  1  0
 17 18  1  0
 17 19  2  0
 19 20  1  0
 19 21  1  0
 21 22  1  0
 21 23  2  0
 23 24  1  0
 24 25  1  0
 24 26  1  0
 26 27  2  0
 27 28  1  0
 27 29  1  0
 29 30  2  0
 30 31  1  0
 30 32  1  0
 32 33  1  0
 32 34  2  0
 34 35  1  0
 11  3  1  0
 23 15  1  0
 34 26  1  0
M  CHG  1  10  -1
M  END
>  <UniqueID>  (19) 
18

>  <SMILES>  (19) 
O=C(/N=c1/[n-]cccc1O)c1ncccc1Nc1cccnc1

>  <Energy>  (19) 
60.599649196521376

>  <Genealogy>  (19) 
O=C(N=c1[n-]cccc1O)c1ncccc1Nc1cccnc1 (protonated)
O=C(/N=c1/[n-]cccc1O)c1ncccc1Nc1cccnc1 (cis-trans isomerization)
O=C(/N=c1/[n-]cccc1O)c1ncccc1Nc1cccnc1 (3D coordinates assigned)
O=C(/N=c1/[n-]cccc1O)c1ncccc1Nc1cccnc1 (optimized conformer: 60.599649196521376 kcal/mol)

>  <smiles>  (19) 
O=C(N=c1[nH]cccc1O)c1ncccc1Nc1cccnc1

>  <score_type>  (19) 
oracle

>  <origin>  (19) 
adgpu

>  <m_score__min__energy>  (19) 
-8.4800000000000004

>  <m_primary>  (19) 
energy

$$$$
19:0
     RDKit          3D

 51 53  0  0  0  0  0  0  0  0999 V2000
   -1.1430   21.8090  -29.5430 C   0  0  0  0  0  0  0  0  0  0  0  0
   -2.1710   21.3800  -30.5480 C   0  0  0  0  0  0  0  0  0  0  0  0
   -3.5200   21.3060  -30.1870 C   0  0  0  0  0  0  0  0  0  0  0  0
   -4.4810   20.9480  -31.1320 C   0  0  0  0  0  0  0  0  0  0  0  0
   -4.1250   20.6720  -32.4640 C   0  0  0  0  0  0  0  0  0  0  0  0
   -5.1770   20.2750  -33.3730 N   0  0  0  0  0  0  0  0  0  0  0  0
   -5.6140   18.9230  -33.5610 C   0  0  0  0  0  0  0  0  0  0  0  0
   -4.8120   18.0660  -34.3380 C   0  0  0  0  0  0  0  0  0  0  0  0
   -5.1920   16.7470  -34.5690 C   0  0  0  0  0  0  0  0  0  0  0  0
   -6.3880   16.2650  -34.0430 C   0  0  0  0  0  0  0  0  0  0  0  0
   -7.2100   17.1060  -33.2920 C   0  0  0  0  0  0  0  0  0  0  0  0
   -6.8530   18.4450  -33.0390 C   0  0  0  0  0  0  0  0  0  0  0  0
   -7.7880   19.2380  -32.2620 N   0  0  0  0  0  0  0  0  0  0  0  0
   -8.3460   20.5600  -32.5640 C   0  0  0  0  0  0  0  0  0  0  0  0
   -7.5800   21.6690  -31.8900 C   0  0  0  0  0  0  0  0  0  0  0  0
   -6.8640   22.5980  -32.6620 C   0  0  0  0  0  0  0  0  0  0  0  0
   -6.1710   23.6430  -32.0470 C   0  0  0  0  0  0  0  0  0  0  0  0
   -6.2120   23.7940  -30.6550 C   0  0  0  0  0  0  0  0  0  0  0  0
   -5.3270   25.1130  -29.8960 S   0  0  0  0  0  0  0  0  0  0  0  0
   -4.5500   24.5290  -28.4040 C   0  0  0  0  0  0  0  0  0  0  0  0
   -4.2780   25.6200  -30.8460 O   0  0  0  0  0  0  0  0  0  0  0  0
   -6.2650   26.2410  -29.5630 O   0  0  0  0  0  0  0  0  0  0  0  0
   -6.9590   22.8930  -29.8830 C   0  0  0  0  0  0  0  0  0  0  0  0
   -7.6500   21.8450  -30.4980 C   0  0  0  0  0  0  0  0  0  0  0  0
   -2.7490   20.7340  -32.8330 C   0  0  0  0  0  0  0  0  0  0  0  0
   -2.2500   20.4190  -34.2180 C   0  0  0  0  0  0  0  0  0  0  0  0
   -1.7970   21.1190  -31.8730 C   0  0  0  0  0  0  0  0  0  0  0  0
   -1.5329   21.6463  -28.5274 H   0  0  0  0  0  0  0  0  0  0  0  0
   -0.2253   21.2188  -29.6824 H   0  0  0  0  0  0  0  0  0  0  0  0
   -0.9171   22.8765  -29.6824 H   0  0  0  0  0  0  0  0  0  0  0  0
   -3.8241   21.5310  -29.1541 H   0  0  0  0  0  0  0  0  0  0  0  0
   -5.5365   20.8803  -30.8299 H   0  0  0  0  0  0  0  0  0  0  0  0
   -5.3920   20.9240  -34.1600 H   0  0  0  0  0  0  0  0  0  0  0  0
   -3.8727   18.4436  -34.7683 H   0  0  0  0  0  0  0  0  0  0  0  0
   -4.5478   16.0855  -35.1669 H   0  0  0  0  0  0  0  0  0  0  0  0
   -6.6849   15.2207  -34.2197 H   0  0  0  0  0  0  0  0  0  0  0  0
   -8.1562   16.7154  -32.8893 H   0  0  0  0  0  0  0  0  0  0  0  0
   -8.0750   18.8500  -31.3330 H   0  0  0  0  0  0  0  0  0  0  0  0
   -8.3139   20.7179  -33.6521 H   0  0  0  0  0  0  0  0  0  0  0  0
   -9.3787   20.5849  -32.1860 H   0  0  0  0  0  0  0  0  0  0  0  0
   -6.8488   22.5021  -33.7577 H   0  0  0  0  0  0  0  0  0  0  0  0
   -5.5908   24.3501  -32.6580 H   0  0  0  0  0  0  0  0  0  0  0  0
   -5.0846   24.9308  -27.5307 H   0  0  0  0  0  0  0  0  0  0  0  0
   -4.5823   23.4297  -28.3798 H   0  0  0  0  0  0  0  0  0  0  0  0
   -3.5031   24.8657  -28.3798 H   0  0  0  0  0  0  0  0  0  0  0  0
   -7.0014   23.0111  -28.7902 H   0  0  0  0  0  0  0  0  0  0  0  0
   -8.2517   21.1545  -29.8888 H   0  0  0  0  0  0  0  0  0  0  0  0
   -1.3217   19.8330  -34.1488 H   0  0  0  0  0  0  0  0  0  0  0  0
   -3.0113   19.8374  -34.7586 H   0  0  0  0  0  0  0  0  0  0  0  0
   -2.0524   21.3564  -34.7586 H   0  0  0  0  0  0  0  0  0  0  0  0
   -0.7415   21.2170  -32.1666 H   0  0  0  0  0  0  0  0  0  0  0  0
  1  2  1  0
  2  3  2  0
  3  4  1  0
  4  5  2  0
  5  6  1  0
  6  7  1  0
  7  8  2  0
  8  9  1  0
  9 10  2  0
 10 11  1  0
 11 12  2  0
 12 13  1  0
 13 14  1  0
 14 15  1  0
 15 16  2  0
 16 17  1  0
 17 18  2  0
 18 19  1  0
 19 20  1  0
 19 21  2  0
 19 22  2  0
 18 23  1  0
 23 24  2  0
  5 25  1  0
 25 26  1  0
 25 27  2  0
 27  2  1  0
 12  7  1  0
 24 15  1  0
  1 28  1  0
  1 29  1  0
  1 30  1  0
  3 31  1  0
  4 32  1  0
  6 33  1  0
  8 34  1  0
  9 35  1  0
 10 36  1  0
 11 37  1  0
 13 38  1  0
 14 39  1  0
 14 40  1  0
 16 41  1  0
 17 42  1  0
 20 43  1  0
 20 44  1  0
 20 45  1  0
 23 46  1  0
 24 47  1  0
 26 48  1  0
 26 49  1  0
 26 50  1  0
 27 51  1  0
M  END
>  <UniqueID>  (20) 
19

>  <SMILES>  (20) 
Cc1ccc(Nc2ccccc2NCc2ccc(S(C)(=O)=O)cc2)c(C)c1

>  <Energy>  (20) 
60.048799453122605

>  <Genealogy>  (20) 
Cc1ccc(Nc2ccccc2NCc2ccc(S(C)(=O)=O)cc2)c(C)c1 (3D coordinates assigned)
Cc1ccc(Nc2ccccc2NCc2ccc(S(C)(=O)=O)cc2)c(C)c1 (optimized conformer: 60.048799453122605 kcal/mol)

>  <smiles>  (20) 
Cc1ccc(Nc2ccccc2NCc2ccc(S(C)(=O)=O)cc2)c(C)c1

>  <score_type>  (20) 
oracle

>  <origin>  (20) 
adgpu

>  <m_score__min__energy>  (20) 
-10.31

>  <m_primary>  (20) 
energy

$$$$
20:0
     RDKit          3D

 64 68  0  0  1  0  0  0  0  0999 V2000
   -6.4970   25.9610  -29.4280 C   0  0  0  0  0  0  0  0  0  0  0  0
   -5.6740   24.7700  -29.2770 N   0  0  0  0  0  0  0  0  0  0  0  0
   -4.4880   24.5590  -30.0070 C   0  0  0  0  0  0  0  0  0  0  0  0
   -4.1000   25.4410  -30.8440 O   0  0  0  0  0  0  0  0  0  0  0  0
   -3.6420   23.3790  -29.8820 C   0  0  0  0  0  0  0  0  0  0  0  0
   -3.2800   22.6770  -31.0110 C   0  0  0  0  0  0  0  0  0  0  0  0
   -2.4860   21.5530  -30.9940 C   0  0  0  0  0  0  0  0  0  0  0  0
   -2.0110   21.0850  -29.7630 C   0  0  0  0  0  0  0  0  0  0  0  0
   -1.1760   19.9120  -29.7500 C   0  0  0  0  0  0  0  0  0  0  0  0
   -0.4810   18.9190  -29.7580 C   0  0  0  0  0  0  0  0  0  0  0  0
    0.3620   17.7570  -29.7670 C   0  0  0  0  0  0  0  0  0  0  0  0
    1.2760   17.5420  -28.7850 C   0  0  0  0  0  0  0  0  0  0  0  0
    2.1370   16.4720  -28.7110 C   0  0  0  0  0  0  0  0  0  0  0  0
    2.0610   15.5450  -29.7220 C   0  0  0  0  0  0  0  0  0  0  0  0
    2.9020   14.5020  -29.6620 N   0  0  0  0  0  0  0  0  0  0  0  0
    2.8650   13.5790  -30.6330 C   0  0  0  0  0  0  0  0  0  0  0  0
    2.0050   13.6960  -31.6430 N   0  0  0  0  0  0  0  0  0  0  0  0
    1.1510   14.7490  -31.7090 C   0  0  0  0  0  0  0  0  0  0  0  0
    0.3750   14.8090  -32.6670 N   0  0  0  0  0  0  0  0  0  0  0  0
   -0.5980   15.6650  -33.0860 C   0  0  0  0  0  0  0  0  0  0  0  0
   -0.3800   16.7620  -33.9550 C   0  0  0  0  0  0  0  0  0  0  0  0
   -1.4550   17.4930  -34.4160 C   0  0  0  0  0  0  0  0  0  0  0  0
   -2.7700   17.2020  -34.0640 C   0  0  0  0  0  0  0  0  0  0  0  0
   -3.7870   17.8610  -34.4770 O   0  0  0  0  0  0  0  0  0  0  0  0
   -5.1260   17.9660  -34.6770 C   0  0  0  0  0  0  0  0  0  0  0  0
   -5.7190   19.0350  -33.8040 C   0  0  0  0  0  0  0  0  0  0  0  0
   -4.9880   20.1770  -33.4640 C   0  0  0  0  0  0  0  0  0  0  0  0
   -5.6070   21.1210  -32.6560 C   0  0  0  0  0  0  0  0  0  0  0  0
   -6.8920   20.9770  -32.1830 C   0  0  0  0  0  0  0  0  0  0  0  0
   -7.6180   19.8450  -32.5190 C   0  0  0  0  0  0  0  0  0  0  0  0
   -9.0120   19.6850  -32.0050 C   0  0  0  0  0  0  0  0  0  0  0  0
   -9.0070   18.5880  -31.1610 F   0  0  0  0  0  0  0  0  0  0  0  0
   -9.8320   19.3390  -33.0880 F   0  0  0  0  0  0  0  0  0  0  0  0
   -9.4980   20.8150  -31.4020 F   0  0  0  0  0  0  0  0  0  0  0  0
   -7.0090   18.9030  -33.3210 C   0  0  0  0  0  0  0  0  0  0  0  0
   -2.9380   16.1070  -33.1990 C   0  0  0  0  0  0  0  0  0  0  0  0
   -4.5910   15.6970  -32.7220 Cl  0  0  0  0  0  0  0  0  0  0  0  0
   -1.9330   15.3580  -32.7160 C   0  0  0  0  0  0  0  0  0  0  0  0
    1.1390   15.7270  -30.7450 C   0  0  0  0  0  0  0  0  0  0  0  0
    0.2960   16.7990  -30.7930 C   0  0  0  0  0  0  0  0  0  0  0  0
   -2.3530   21.7650  -28.6000 C   0  0  0  0  0  0  0  0  0  0  0  0
   -3.1670   22.9060  -28.6780 C   0  0  0  0  0  0  0  0  0  0  0  0
   -6.7655   26.3495  -28.4345 H   0  0  0  0  0  0  0  0  0  0  0  0
   -5.9348   26.7274  -29.9818 H   0  0  0  0  0  0  0  0  0  0  0  0
   -7.4126   25.7062  -29.9818 H   0  0  0  0  0  0  0  0  0  0  0  0
   -5.9980   24.0550  -28.5890 H   0  0  0  0  0  0  0  0  0  0  0  0
   -3.6474   23.0362  -31.9836 H   0  0  0  0  0  0  0  0  0  0  0  0
   -2.2298   21.0328  -31.9288 H   0  0  0  0  0  0  0  0  0  0  0  0
    1.3323   18.2886  -27.9791 H   0  0  0  0  0  0  0  0  0  0  0  0
    2.8521   16.3637  -27.8822 H   0  0  0  0  0  0  0  0  0  0  0  0
    3.5990   14.3650  -28.8850 H   0  0  0  0  0  0  0  0  0  0  0  0
    3.5497   12.7189  -30.5954 H   0  0  0  0  0  0  0  0  0  0  0  0
    0.6421   17.0298  -34.2609 H   0  0  0  0  0  0  0  0  0  0  0  0
   -1.2653   18.3414  -35.0900 H   0  0  0  0  0  0  0  0  0  0  0  0
   -5.3135   18.2176  -35.7313 H   0  0  0  0  0  0  0  0  0  0  0  0
   -5.5949   17.0045  -34.4207 H   0  0  0  0  0  0  0  0  0  0  0  0
   -3.9588   20.3225  -33.8239 H   0  0  0  0  0  0  0  0  0  0  0  0
   -5.0450   22.0257  -32.3810 H   0  0  0  0  0  0  0  0  0  0  0  0
   -7.3385   21.7533  -31.5442 H   0  0  0  0  0  0  0  0  0  0  0  0
   -7.5776   18.0007  -33.5905 H   0  0  0  0  0  0  0  0  0  0  0  0
   -2.1427   14.5154  -32.0407 H   0  0  0  0  0  0  0  0  0  0  0  0
   -0.4216   16.9111  -31.6191 H   0  0  0  0  0  0  0  0  0  0  0  0
   -1.9880   21.4112  -27.6245 H   0  0  0  0  0  0  0  0  0  0  0  0
   -3.4331   23.4373  -27.7523 H   0  0  0  0  0  0  0  0  0  0  0  0
  1  2  1  0
  2  3  1  0
  3  4  2  0
  3  5  1  0
  5  6  2  0
  6  7  1  0
  7  8  2  0
  8  9  1  0
  9 10  3  0
 10 11  1  0
 11 12  2  0
 12 13  1  0
 13 14  2  0
 14 15  1  0
 15 16  1  0
 16 17  2  0
 17 18  1  0
 18 19  2  0
 19 20  1  0
 20 21  2  0
 21 22  1  0
 22 23  2  0
 23 24  1  0
 24 25  1  0
 25 26  1  0
 26 27  2  0
 27 28  1  0
 28 29  2  0
 29 30  1  0
 30 31  1  0
 31 32  1  0
 31 33  1  0
 31 34  1  0
 30 35  2  0
 23 36  1  0
 36 37  1  0
 36 38  2  0
 18 39  1  0
 39 40  2  0
  8 41  1  0
 41 42  2  0
 42  5  1  0
 40 11  1  0
 39 14  1  0
 38 20  1  0
 35 26  1  0
  1 43  1  0
  1 44  1  0
  1 45  1  0
  2 46  1  0
  6 47  1  0
  7 48  1  0
 12 49  1  0
 13 50  1  0
 15 51  1  0
 16 52  1  0
 21 53  1  0
 22 54  1  0
 25 55  1  0
 25 56  1  0
 27 57  1  0
 28 58  1  0
 29 59  1  0
 35 60  1  0
 38 61  1  0
 40 62  1  0
 41 63  1  0
 42 64  1  0
M  END
>  <smiles>  (21) 
CNC(=O)c1ccc(C#Cc2ccc3[nH]cnc(=Nc4ccc(OCc5cccc(C(F)(F)F)c5)c(Cl)c4)c3c2)cc1

>  <score_type>  (21) 
oracle

>  <origin>  (21) 
adgpu

>  <m_score__min__energy>  (21) 
-10.109999999999999

>  <m_primary>  (21) 
energy

$$$$
21:0
     RDKit          3D

 39 40  0  0  0  0  0  0  0  0999 V2000
   -9.1080   20.4260  -31.9720 C   0  0  0  0  0  0  0  0  0  0  0  0
   -9.2920   21.5480  -30.9540 C   0  0  0  0  0  0  0  0  0  0  0  0
   -7.9600   22.2510  -30.6570 C   0  0  0  0  0  0  0  0  0  0  0  0
   -7.3460   22.9020  -31.9100 C   0  0  0  0  0  0  0  0  0  0  0  0
   -5.8450   23.0510  -31.7900 C   0  0  0  0  0  0  0  0  0  0  0  0
   -5.2120   24.1250  -31.1680 C   0  0  0  0  0  0  0  0  0  0  0  0
   -5.8630   25.4210  -30.7540 C   0  0  0  0  0  0  0  0  0  0  0  0
   -6.4870   25.3470  -29.3610 C   0  0  0  0  0  0  0  0  0  0  0  0
   -3.9110   23.8360  -30.9550 N   0  0  0  0  0  0  0  0  0  0  0  0
   -3.7740   22.5960  -31.4600 C   0  0  0  0  0  0  0  0  0  0  0  0
   -2.5930   21.8680  -31.4260 C   0  0  0  0  0  0  0  0  0  0  0  0
   -2.6010   20.5790  -31.9560 C   0  0  0  0  0  0  0  0  0  0  0  0
   -3.7660   20.0490  -32.5460 C   0  0  0  0  0  0  0  0  0  0  0  0
   -3.7080   18.6590  -33.1270 C   0  0  0  0  0  0  0  0  0  0  0  0
   -4.9390   20.8580  -32.6170 C   0  0  0  0  0  0  0  0  0  0  0  0
   -6.1190   20.4330  -33.4610 C   0  0  0  0  0  0  0  0  0  0  0  0
   -4.9050   22.0880  -31.9990 N   0  0  0  0  0  0  0  0  0  0  0  0
   -8.9518   19.4738  -31.4439 H   0  0  0  0  0  0  0  0  0  0  0  0
  -10.0061   20.3524  -32.6029 H   0  0  0  0  0  0  0  0  0  0  0  0
   -8.2335   20.6431  -32.6029 H   0  0  0  0  0  0  0  0  0  0  0  0
  -10.0044   22.2837  -31.3555 H   0  0  0  0  0  0  0  0  0  0  0  0
   -9.6719   21.1113  -30.0186 H   0  0  0  0  0  0  0  0  0  0  0  0
   -8.1338   23.0323  -29.9025 H   0  0  0  0  0  0  0  0  0  0  0  0
   -7.2533   21.4899  -30.2948 H   0  0  0  0  0  0  0  0  0  0  0  0
   -7.5723   22.2740  -32.7843 H   0  0  0  0  0  0  0  0  0  0  0  0
   -7.7807   23.9064  -32.0203 H   0  0  0  0  0  0  0  0  0  0  0  0
   -5.1012   26.2145  -30.7570 H   0  0  0  0  0  0  0  0  0  0  0  0
   -6.6711   25.6313  -31.4701 H   0  0  0  0  0  0  0  0  0  0  0  0
   -5.6979   25.4406  -28.6003 H   0  0  0  0  0  0  0  0  0  0  0  0
   -7.2119   26.1655  -29.2400 H   0  0  0  0  0  0  0  0  0  0  0  0
   -7.0003   24.3817  -29.2400 H   0  0  0  0  0  0  0  0  0  0  0  0
   -1.6768   22.2960  -30.9931 H   0  0  0  0  0  0  0  0  0  0  0  0
   -1.6872   19.9681  -31.9133 H   0  0  0  0  0  0  0  0  0  0  0  0
   -3.6772   17.9216  -32.3113 H   0  0  0  0  0  0  0  0  0  0  0  0
   -4.5996   18.4832  -33.7468 H   0  0  0  0  0  0  0  0  0  0  0  0
   -2.8049   18.5580  -33.7468 H   0  0  0  0  0  0  0  0  0  0  0  0
   -6.9499   20.1337  -32.8053 H   0  0  0  0  0  0  0  0  0  0  0  0
   -6.4372   21.2730  -34.0959 H   0  0  0  0  0  0  0  0  0  0  0  0
   -5.8285   19.5830  -34.0959 H   0  0  0  0  0  0  0  0  0  0  0  0
  1  2  1  0
  2  3  1  0
  3  4  1  0
  4  5  1  0
  5  6  2  0
  6  7  1  0
  7  8  1  0
  6  9  1  0
  9 10  2  0
 10 11  1  0
 11 12  2  0
 12 13  1  0
 13 14  1  0
 13 15  2  0
 15 16  1  0
 15 17  1  0
 17  5  1  0
 17 10  1  0
  1 18  1  0
  1 19  1  0
  1 20  1  0
  2 21  1  0
  2 22  1  0
  3 23  1  0
  3 24  1  0
  4 25  1  0
  4 26  1  0
  7 27  1  0
  7 28  1  0
  8 29  1  0
  8 30  1  0
  8 31  1  0
 11 32  1  0
 12 33  1  0
 14 34  1  0
 14 35  1  0
 14 36  1  0
 16 37  1  0
 16 38  1  0
 16 39  1  0
M  END
>  <UniqueID>  (22) 
20

>  <SMILES>  (22) 
CCCCc1c(CC)nc2ccc(C)c(C)n12

>  <Energy>  (22) 
71.0154337366818

>  <Genealogy>  (22) 
CCCCc1c(CC)nc2ccc(C)c(C)n12 (3D coordinates assigned)
CCCCc1c(CC)nc2ccc(C)c(C)n12 (optimized conformer: 71.0154337366818 kcal/mol)

>  <smiles>  (22) 
CCCCc1c(CC)nc2ccc(C)c(C)n12

>  <score_type>  (22) 
oracle

>  <origin>  (22) 
adgpu

>  <m_score__min__energy>  (22) 
-6.8899999999999997

>  <m_primary>  (22) 
energy

$$$$
22:0
     RDKit          3D

 38 39  0  0  0  0  0  0  0  0999 V2000
   -2.7850   22.5170  -28.3450 C   0  0  0  0  0  0  0  0  0  0  0  0
   -2.9590   22.3390  -29.8700 C   0  0  0  0  0  0  0  0  0  0  0  0
   -1.6340   22.6770  -30.5920 C   0  0  0  0  0  0  0  0  0  0  0  0
   -3.2350   20.8330  -30.1230 C   0  0  0  0  0  0  0  0  0  0  0  0
   -4.0940   23.2630  -30.3880 C   0  0  0  0  0  0  0  0  0  0  0  0
   -5.2670   22.7320  -30.9840 C   0  0  0  0  0  0  0  0  0  0  0  0
   -6.2630   23.5670  -31.5230 C   0  0  0  0  0  0  0  0  0  0  0  0
   -7.4190   23.0420  -32.1900 N   0  0  0  0  0  0  0  0  0  0  0  0
   -8.4670   21.8100  -31.5590 S   0  0  0  0  0  0  0  0  0  0  0  0
   -8.5010   21.9190  -30.0600 O   0  0  0  0  0  0  0  0  0  0  0  0
   -9.8540   22.0160  -32.0990 O   0  0  0  0  0  0  0  0  0  0  0  0
   -7.8940   20.2200  -32.0550 C   0  0  0  0  0  0  0  0  0  0  0  0
   -8.5610   19.0600  -31.6370 C   0  0  0  0  0  0  0  0  0  0  0  0
   -8.0650   17.8010  -31.9880 C   0  0  0  0  0  0  0  0  0  0  0  0
   -6.9060   17.6940  -32.7620 C   0  0  0  0  0  0  0  0  0  0  0  0
   -6.4220   16.4360  -33.1060 O   0  0  0  0  0  0  0  0  0  0  0  0
   -6.2390   18.8510  -33.1890 C   0  0  0  0  0  0  0  0  0  0  0  0
   -4.7840   18.7380  -34.1670 Cl  0  0  0  0  0  0  0  0  0  0  0  0
   -6.7350   20.1110  -32.8370 C   0  0  0  0  0  0  0  0  0  0  0  0
   -6.1240   24.9500  -31.4240 C   0  0  0  0  0  0  0  0  0  0  0  0
   -5.0000   25.5010  -30.8140 C   0  0  0  0  0  0  0  0  0  0  0  0
   -3.9910   24.6800  -30.3040 C   0  0  0  0  0  0  0  0  0  0  0  0
   -2.8930   25.2980  -29.7170 O   0  0  0  0  0  0  0  0  0  0  0  0
   -3.4592   21.8273  -27.8161 H   0  0  0  0  0  0  0  0  0  0  0  0
   -1.7437   22.2974  -28.0667 H   0  0  0  0  0  0  0  0  0  0  0  0
   -3.0282   23.5530  -28.0667 H   0  0  0  0  0  0  0  0  0  0  0  0
   -0.8506   22.8768  -29.8461 H   0  0  0  0  0  0  0  0  0  0  0  0
   -1.3324   21.8270  -31.2218 H   0  0  0  0  0  0  0  0  0  0  0  0
   -1.7764   23.5676  -31.2218 H   0  0  0  0  0  0  0  0  0  0  0  0
   -3.3307   20.3109  -29.1596 H   0  0  0  0  0  0  0  0  0  0  0  0
   -4.1684   20.7222  -30.6944 H   0  0  0  0  0  0  0  0  0  0  0  0
   -2.4015   20.3984  -30.6944 H   0  0  0  0  0  0  0  0  0  0  0  0
   -5.4010   21.6410  -31.0257 H   0  0  0  0  0  0  0  0  0  0  0  0
   -9.4761   19.1406  -31.0319 H   0  0  0  0  0  0  0  0  0  0  0  0
   -8.5879   16.8926  -31.6544 H   0  0  0  0  0  0  0  0  0  0  0  0
   -6.2142   21.0191  -33.1747 H   0  0  0  0  0  0  0  0  0  0  0  0
   -6.9056   25.6093  -31.8295 H   0  0  0  0  0  0  0  0  0  0  0  0
   -4.9055   26.5939  -30.7328 H   0  0  0  0  0  0  0  0  0  0  0  0
  1  2  1  0
  2  3  1  0
  2  4  1  0
  2  5  1  0
  5  6  2  0
  6  7  1  0
  7  8  1  0
  8  9  1  0
  9 10  2  0
  9 11  2  0
  9 12  1  0
 12 13  2  0
 13 14  1  0
 14 15  2  0
 15 16  1  0
 15 17  1  0
 17 18  1  0
 17 19  2  0
  7 20  2  0
 20 21  1  0
 21 22  2  0
 22 23  1  0
 22  5  1  0
 19 12  1  0
  1 24  1  0
  1 25  1  0
  1 26  1  0
  3 27  1  0
  3 28  1  0
  3 29  1  0
  4 30  1  0
  4 31  1  0
  4 32  1  0
  6 33  1  0
 13 34  1  0
 14 35  1  0
 19 36  1  0
 20 37  1  0
 21 38  1  0
M  CHG  3   8  -1  16  -1  23  -1
M  END
>  <UniqueID>  (23) 
21

>  <SMILES>  (23) 
CC(C)(C)c1cc([N-]S(=O)(=O)c2ccc([O-])c(Cl)c2)ccc1[O-]

>  <Energy>  (23) 
45.262497465657106

>  <Genealogy>  (23) 
CC(C)(C)c1cc([N-]S(=O)(=O)c2ccc([O-])c(Cl)c2)ccc1[O-] (protonated)
CC(C)(C)c1cc([N-]S(=O)(=O)c2ccc([O-])c(Cl)c2)ccc1[O-] (3D coordinates assigned)
CC(C)(C)c1cc([N-]S(=O)(=O)c2ccc([O-])c(Cl)c2)ccc1[O-] (optimized conformer: 45.262497465657106 kcal/mol)

>  <smiles>  (23) 
CC(C)(C)c1cc(NS(=O)(=O)c2ccc(O)c(Cl)c2)ccc1O

>  <score_type>  (23) 
oracle

>  <origin>  (23) 
adgpu

>  <m_score__min__energy>  (23) 
-11.550000000000001

>  <m_primary>  (23) 
energy

$$$$
23:0
     RDKit          3D

 48 49  0  0  0  0  0  0  0  0999 V2000
   -1.9960   22.9700  -29.0740 C   0  0  0  0  0  0  0  0  0  0  0  0
   -2.6720   24.3280  -28.8050 C   0  0  0  0  0  0  0  0  0  0  0  0
   -3.8530   24.1580  -27.8320 C   0  0  0  0  0  0  0  0  0  0  0  0
   -1.6430   25.2860  -28.1850 C   0  0  0  0  0  0  0  0  0  0  0  0
   -3.1350   24.9240  -30.0640 N   0  0  0  0  0  0  0  0  0  0  0  0
   -4.4940   25.0740  -30.5020 C   0  0  0  0  0  0  0  0  0  0  0  0
   -5.0660   26.1940  -30.4230 O   0  0  0  0  0  0  0  0  0  0  0  0
   -5.2260   23.9090  -31.0540 C   0  0  0  0  0  0  0  0  0  0  0  0
   -6.5090   24.0650  -31.6090 C   0  0  0  0  0  0  0  0  0  0  0  0
   -7.1970   22.9640  -32.1260 C   0  0  0  0  0  0  0  0  0  0  0  0
   -6.6170   21.6890  -32.0980 C   0  0  0  0  0  0  0  0  0  0  0  0
   -7.3200   20.5610  -32.6450 N   0  0  0  0  0  0  0  0  0  0  0  0
   -6.8040   19.8840  -33.8380 C   0  0  0  0  0  0  0  0  0  0  0  0
   -6.2360   18.5430  -33.4630 C   0  0  0  0  0  0  0  0  0  0  0  0
   -5.7950   17.6550  -34.4590 C   0  0  0  0  0  0  0  0  0  0  0  0
   -5.3210   16.3870  -34.1110 C   0  0  0  0  0  0  0  0  0  0  0  0
   -5.2900   15.9940  -32.7700 C   0  0  0  0  0  0  0  0  0  0  0  0
   -5.7390   16.8670  -31.7740 C   0  0  0  0  0  0  0  0  0  0  0  0
   -6.2160   18.1360  -32.1180 C   0  0  0  0  0  0  0  0  0  0  0  0
   -8.8710   20.1080  -31.9950 S   0  0  0  0  0  0  0  0  0  0  0  0
   -9.7320   21.5470  -31.3940 C   0  0  0  0  0  0  0  0  0  0  0  0
   -9.6910   19.4420  -33.0630 O   0  0  0  0  0  0  0  0  0  0  0  0
   -8.6870   19.1600  -30.8440 O   0  0  0  0  0  0  0  0  0  0  0  0
   -5.3380   21.5280  -31.5500 C   0  0  0  0  0  0  0  0  0  0  0  0
   -4.6490   22.6260  -31.0300 C   0  0  0  0  0  0  0  0  0  0  0  0
   -1.7544   22.4847  -28.1169 H   0  0  0  0  0  0  0  0  0  0  0  0
   -2.6795   22.3276  -29.6486 H   0  0  0  0  0  0  0  0  0  0  0  0
   -1.0714   23.1281  -29.6486 H   0  0  0  0  0  0  0  0  0  0  0  0
   -3.4855   24.2109  -26.7965 H   0  0  0  0  0  0  0  0  0  0  0  0
   -4.5866   24.9598  -28.0021 H   0  0  0  0  0  0  0  0  0  0  0  0
   -4.3307   23.1818  -28.0021 H   0  0  0  0  0  0  0  0  0  0  0  0
   -1.7037   25.2295  -27.0881 H   0  0  0  0  0  0  0  0  0  0  0  0
   -0.6323   24.9998  -28.5115 H   0  0  0  0  0  0  0  0  0  0  0  0
   -1.8563   26.3145  -28.5115 H   0  0  0  0  0  0  0  0  0  0  0  0
   -6.9744   25.0613  -31.6363 H   0  0  0  0  0  0  0  0  0  0  0  0
   -8.1998   23.0992  -32.5575 H   0  0  0  0  0  0  0  0  0  0  0  0
   -7.6220   19.7442  -34.5600 H   0  0  0  0  0  0  0  0  0  0  0  0
   -6.0107   20.4992  -34.2877 H   0  0  0  0  0  0  0  0  0  0  0  0
   -5.8229   17.9588  -35.5158 H   0  0  0  0  0  0  0  0  0  0  0  0
   -4.9718   15.6974  -34.8936 H   0  0  0  0  0  0  0  0  0  0  0  0
   -4.9122   14.9974  -32.4979 H   0  0  0  0  0  0  0  0  0  0  0  0
   -5.7170   16.5554  -30.7193 H   0  0  0  0  0  0  0  0  0  0  0  0
   -6.5766   18.8175  -31.3334 H   0  0  0  0  0  0  0  0  0  0  0  0
   -9.7296   21.5429  -30.2940 H   0  0  0  0  0  0  0  0  0  0  0  0
   -9.2283   22.4545  -31.7584 H   0  0  0  0  0  0  0  0  0  0  0  0
  -10.7698   21.5322  -31.7584 H   0  0  0  0  0  0  0  0  0  0  0  0
   -4.8736   20.5311  -31.5291 H   0  0  0  0  0  0  0  0  0  0  0  0
   -3.6470   22.4865  -30.5981 H   0  0  0  0  0  0  0  0  0  0  0  0
  1  2  1  0
  2  3  1  0
  2  4  1  0
  2  5  1  0
  5  6  1  0
  6  7  2  0
  6  8  1  0
  8  9  2  0
  9 10  1  0
 10 11  2  0
 11 12  1  0
 12 13  1  0
 13 14  1  0
 14 15  2  0
 15 16  1  0
 16 17  2  0
 17 18  1  0
 18 19  2  0
 12 20  1  0
 20 21  1  0
 20 22  2  0
 20 23  2  0
 11 24  1  0
 24 25  2  0
 25  8  1  0
 19 14  1  0
  1 26  1  0
  1 27  1  0
  1 28  1  0
  3 29  1  0
  3 30  1  0
  3 31  1  0
  4 32  1  0
  4 33  1  0
  4 34  1  0
  9 35  1  0
 10 36  1  0
 13 37  1  0
 13 38  1  0
 15 39  1  0
 16 40  1  0
 17 41  1  0
 18 42  1  0
 19 43  1  0
 21 44  1  0
 21 45  1  0
 21 46  1  0
 24 47  1  0
 25 48  1  0
M  CHG  1   5  -1
M  END
>  <UniqueID>  (24) 
22

>  <SMILES>  (24) 
CC(C)(C)[N-]C(=O)c1ccc(N(Cc2ccccc2)S(C)(=O)=O)cc1

>  <Energy>  (24) 
42.2149498594097

>  <Genealogy>  (24) 
CC(C)(C)[N-]C(=O)c1ccc(N(Cc2ccccc2)S(C)(=O)=O)cc1 (protonated)
CC(C)(C)[N-]C(=O)c1ccc(N(Cc2ccccc2)S(C)(=O)=O)cc1 (3D coordinates assigned)
CC(C)(C)[N-]C(=O)c1ccc(N(Cc2ccccc2)S(C)(=O)=O)cc1 (optimized conformer: 42.2149498594097 kcal/mol)

>  <smiles>  (24) 
CC(C)(C)NC(=O)c1ccc(N(Cc2ccccc2)S(C)(=O)=O)cc1

>  <score_type>  (24) 
oracle

>  <origin>  (24) 
adgpu

>  <m_score__min__energy>  (24) 
-11.050000000000001

>  <m_primary>  (24) 
energy

$$$$
24:0
     RDKit          3D

 32 34  0  0  0  0  0  0  0  0999 V2000
   -2.5480   19.8600  -27.1990 C   0  0  0  0  0  0  0  0  0  0  0  0
   -2.2260   20.2570  -28.5280 O   0  0  0  0  0  0  0  0  0  0  0  0
   -2.5750   21.4920  -29.0950 C   0  0  0  0  0  0  0  0  0  0  0  0
   -2.0370   22.6520  -28.5340 C   0  0  0  0  0  0  0  0  0  0  0  0
   -2.3460   23.9100  -29.0550 C   0  0  0  0  0  0  0  0  0  0  0  0
   -1.5610   25.4460  -28.2190 Br  0  0  0  0  0  0  0  0  0  0  0  0
   -3.2130   24.0230  -30.1610 C   0  0  0  0  0  0  0  0  0  0  0  0
   -3.5330   25.2740  -30.6930 O   0  0  0  0  0  0  0  0  0  0  0  0
   -3.7660   22.8550  -30.7400 C   0  0  0  0  0  0  0  0  0  0  0  0
   -4.7040   22.9110  -31.9320 C   0  0  0  0  0  0  0  0  0  0  0  0
   -5.2370   21.5550  -32.3100 C   0  0  0  0  0  0  0  0  0  0  0  0
   -4.5280   20.5740  -32.6570 O   0  0  0  0  0  0  0  0  0  0  0  0
   -6.6930   21.5440  -32.2410 C   0  0  0  0  0  0  0  0  0  0  0  0
   -7.5870   20.5050  -32.5050 C   0  0  0  0  0  0  0  0  0  0  0  0
   -8.9610   20.7550  -32.3510 C   0  0  0  0  0  0  0  0  0  0  0  0
   -9.4110   22.0270  -31.9370 C   0  0  0  0  0  0  0  0  0  0  0  0
   -8.4900   23.0550  -31.6750 C   0  0  0  0  0  0  0  0  0  0  0  0
   -7.1320   22.7820  -31.8380 C   0  0  0  0  0  0  0  0  0  0  0  0
   -5.9800   23.6490  -31.6280 C   0  0  0  0  0  0  0  0  0  0  0  0
   -6.0440   24.8540  -31.2650 O   0  0  0  0  0  0  0  0  0  0  0  0
   -3.4390   21.5990  -30.1980 C   0  0  0  0  0  0  0  0  0  0  0  0
   -2.0212   20.5095  -26.4845 H   0  0  0  0  0  0  0  0  0  0  0  0
   -3.6333   19.9477  -27.0429 H   0  0  0  0  0  0  0  0  0  0  0  0
   -2.2382   18.8161  -27.0429 H   0  0  0  0  0  0  0  0  0  0  0  0
   -1.3607   22.5737  -27.6700 H   0  0  0  0  0  0  0  0  0  0  0  0
   -3.9770   25.3970  -31.5920 H   0  0  0  0  0  0  0  0  0  0  0  0
   -4.0868   23.3839  -32.7101 H   0  0  0  0  0  0  0  0  0  0  0  0
   -7.2254   19.5167  -32.8251 H   0  0  0  0  0  0  0  0  0  0  0  0
   -9.6891   19.9559  -32.5540 H   0  0  0  0  0  0  0  0  0  0  0  0
  -10.4885   22.2145  -31.8189 H   0  0  0  0  0  0  0  0  0  0  0  0
   -8.8309   24.0490  -31.3499 H   0  0  0  0  0  0  0  0  0  0  0  0
   -3.8654   20.6881  -30.6436 H   0  0  0  0  0  0  0  0  0  0  0  0
  1  2  1  0
  2  3  1  0
  3  4  2  0
  4  5  1  0
  5  6  1  0
  5  7  2  0
  7  8  1  0
  7  9  1  0
  9 10  1  0
 10 11  1  0
 11 12  2  0
 11 13  1  0
 13 14  2  0
 14 15  1  0
 15 16  2  0
 16 17  1  0
 17 18  2  0
 18 19  1  0
 19 20  2  0
  9 21  2  0
 21  3  1  0
 19 10  1  0
 18 13  1  0
  1 22  1  0
  1 23  1  0
  1 24  1  0
  4 25  1  0
  8 26  1  0
 10 27  1  0
 14 28  1  0
 15 29  1  0
 16 30  1  0
 17 31  1  0
 21 32  1  0
M  END
>  <UniqueID>  (25) 
23

>  <SMILES>  (25) 
COc1cc(Br)c(O)c(C2C(=O)c3ccccc3C2=O)c1

>  <Energy>  (25) 
56.555534979930385

>  <Genealogy>  (25) 
COc1cc(Br)c(O)c(C2C(=O)c3ccccc3C2=O)c1 (3D coordinates assigned)
COc1cc(Br)c(O)c(C2C(=O)c3ccccc3C2=O)c1 (nonaromatic ring conformer: 56.555534979930385 kcal/mol)

>  <smiles>  (25) 
COc1cc(Br)c(O)c(C2C(=O)c3ccccc3C2=O)c1

>  <score_type>  (25) 
oracle

>  <origin>  (25) 
adgpu

>  <m_score__min__energy>  (25) 
-9.3800000000000008

>  <m_primary>  (25) 
energy

$$$$
25:0
     RDKit          3D

 68 71  0  0  0  0  0  0  0  0999 V2000
   -9.0640   23.0920  -32.0350 C   0  0  0  0  0  0  0  0  0  0  0  0
   -8.1510   21.9780  -31.7800 N   0  0  0  0  0  0  0  0  0  0  0  0
   -8.6940   20.6760  -31.3890 C   0  0  0  0  0  0  0  0  0  0  0  0
   -6.7290   22.1620  -31.8810 C   0  0  0  0  0  0  0  0  0  0  0  0
   -6.1100   23.2190  -31.1930 C   0  0  0  0  0  0  0  0  0  0  0  0
   -4.7150   23.3870  -31.2330 C   0  0  0  0  0  0  0  0  0  0  0  0
   -4.0610   24.4660  -30.4540 C   0  0  0  0  0  0  0  0  0  0  0  0
   -4.1910   25.6700  -30.8000 O   0  0  0  0  0  0  0  0  0  0  0  0
   -3.2800   24.1480  -29.2990 N   0  0  0  0  0  0  0  0  0  0  0  0
   -1.8330   23.9490  -29.3430 C   0  0  0  0  0  0  0  0  0  0  0  0
   -1.4590   22.6060  -29.9800 C   0  0  0  0  0  0  0  0  0  0  0  0
   -0.4900   21.8210  -29.0830 C   0  0  0  0  0  0  0  0  0  0  0  0
   -1.2230   20.8580  -28.2660 N   0  0  0  0  0  0  0  0  0  0  0  0
   -2.6640   20.8500  -28.0880 C   0  0  0  0  0  0  0  0  0  0  0  0
   -2.9570   19.7080  -27.0990 C   0  0  0  0  0  0  0  0  0  0  0  0
   -1.6690   18.8760  -26.9740 C   0  0  0  0  0  0  0  0  0  0  0  0
   -0.6640   19.7060  -27.6650 C   0  0  0  0  0  0  0  0  0  0  0  0
    0.5590   19.4030  -27.7510 O   0  0  0  0  0  0  0  0  0  0  0  0
   -3.9420   22.4790  -31.9740 C   0  0  0  0  0  0  0  0  0  0  0  0
   -4.5480   21.4350  -32.6820 C   0  0  0  0  0  0  0  0  0  0  0  0
   -3.7550   20.5350  -33.4590 N   0  0  0  0  0  0  0  0  0  0  0  0
   -2.4590   19.6240  -32.7540 S   0  0  0  0  0  0  0  0  0  0  0  0
   -2.4730   19.8190  -31.2640 O   0  0  0  0  0  0  0  0  0  0  0  0
   -2.6610   18.1630  -33.0540 O   0  0  0  0  0  0  0  0  0  0  0  0
   -0.9010   20.1480  -33.3910 C   0  0  0  0  0  0  0  0  0  0  0  0
   -0.8380   21.0650  -34.4520 C   0  0  0  0  0  0  0  0  0  0  0  0
    0.4040   21.4740  -34.9560 C   0  0  0  0  0  0  0  0  0  0  0  0
    1.5830   20.9690  -34.4020 C   0  0  0  0  0  0  0  0  0  0  0  0
    1.5240   20.0450  -33.3550 C   0  0  0  0  0  0  0  0  0  0  0  0
    0.2870   19.6340  -32.8480 C   0  0  0  0  0  0  0  0  0  0  0  0
   -5.9380   21.2760  -32.6440 C   0  0  0  0  0  0  0  0  0  0  0  0
   -6.5200   20.2430  -33.3890 O   0  0  0  0  0  0  0  0  0  0  0  0
   -6.1800   18.8900  -33.2490 C   0  0  0  0  0  0  0  0  0  0  0  0
   -5.8150   18.1710  -34.3940 C   0  0  0  0  0  0  0  0  0  0  0  0
   -5.4580   16.8220  -34.2960 C   0  0  0  0  0  0  0  0  0  0  0  0
   -5.4620   16.1840  -33.0510 C   0  0  0  0  0  0  0  0  0  0  0  0
   -5.8390   16.8890  -31.9060 C   0  0  0  0  0  0  0  0  0  0  0  0
   -6.2060   18.2330  -32.0010 C   0  0  0  0  0  0  0  0  0  0  0  0
   -9.4075   23.5111  -31.0777 H   0  0  0  0  0  0  0  0  0  0  0  0
   -8.5409   23.8706  -32.6095 H   0  0  0  0  0  0  0  0  0  0  0  0
   -9.9302   22.7320  -32.6095 H   0  0  0  0  0  0  0  0  0  0  0  0
   -8.7234   20.6055  -30.2917 H   0  0  0  0  0  0  0  0  0  0  0  0
   -9.7123   20.5678  -31.7908 H   0  0  0  0  0  0  0  0  0  0  0  0
   -8.0544   19.8763  -31.7908 H   0  0  0  0  0  0  0  0  0  0  0  0
   -6.7252   23.9245  -30.6153 H   0  0  0  0  0  0  0  0  0  0  0  0
   -1.3804   24.7602  -29.9322 H   0  0  0  0  0  0  0  0  0  0  0  0
   -1.4573   23.9519  -28.3092 H   0  0  0  0  0  0  0  0  0  0  0  0
   -2.3727   22.0118  -30.1288 H   0  0  0  0  0  0  0  0  0  0  0  0
   -0.9645   22.8010  -30.9430 H   0  0  0  0  0  0  0  0  0  0  0  0
    0.2345   21.2848  -29.7135 H   0  0  0  0  0  0  0  0  0  0  0  0
    0.0351   22.5254  -28.4211 H   0  0  0  0  0  0  0  0  0  0  0  0
   -3.0045   21.8111  -27.6753 H   0  0  0  0  0  0  0  0  0  0  0  0
   -3.1895   20.7037  -29.0432 H   0  0  0  0  0  0  0  0  0  0  0  0
   -3.2363   20.1206  -26.1183 H   0  0  0  0  0  0  0  0  0  0  0  0
   -3.7916   19.0862  -27.4551 H   0  0  0  0  0  0  0  0  0  0  0  0
   -1.3978   18.7248  -25.9187 H   0  0  0  0  0  0  0  0  0  0  0  0
   -1.7636   17.8671  -27.4019 H   0  0  0  0  0  0  0  0  0  0  0  0
   -2.8478   22.5894  -31.9983 H   0  0  0  0  0  0  0  0  0  0  0  0
   -1.7656   21.4634  -34.8888 H   0  0  0  0  0  0  0  0  0  0  0  0
    0.4506   22.1925  -35.7876 H   0  0  0  0  0  0  0  0  0  0  0  0
    2.5581   21.2987  -34.7900 H   0  0  0  0  0  0  0  0  0  0  0  0
    2.4534   19.6398  -32.9284 H   0  0  0  0  0  0  0  0  0  0  0  0
    0.2450   18.9075  -32.0232 H   0  0  0  0  0  0  0  0  0  0  0  0
   -5.8090   18.6692  -35.3747 H   0  0  0  0  0  0  0  0  0  0  0  0
   -5.1737   16.2621  -35.1992 H   0  0  0  0  0  0  0  0  0  0  0  0
   -5.1681   15.1268  -32.9739 H   0  0  0  0  0  0  0  0  0  0  0  0
   -5.8469   16.3851  -30.9282 H   0  0  0  0  0  0  0  0  0  0  0  0
   -6.5165   18.7813  -31.0994 H   0  0  0  0  0  0  0  0  0  0  0  0
  1  2  1  0
  2  3  1  0
  2  4  1  0
  4  5  2  0
  5  6  1  0
  6  7  1  0
  7  8  2  0
  7  9  1  0
  9 10  1  0
 10 11  1  0
 11 12  1  0
 12 13  1  0
 13 14  1  0
 14 15  1  0
 15 16  1  0
 16 17  1  0
 17 18  2  0
  6 19  2  0
 19 20  1  0
 20 21  1  0
 21 22  1  0
 22 23  2  0
 22 24  2  0
 22 25  1  0
 25 26  2  0
 26 27  1  0
 27 28  2  0
 28 29  1  0
 29 30  2  0
 20 31  2  0
 31 32  1  0
 32 33  1  0
 33 34  2  0
 34 35  1  0
 35 36  2  0
 36 37  1  0
 37 38  2  0
 31  4  1  0
 38 33  1  0
 17 13  1  0
 30 25  1  0
  1 39  1  0
  1 40  1  0
  1 41  1  0
  3 42  1  0
  3 43  1  0
  3 44  1  0
  5 45  1  0
 10 46  1  0
 10 47  1  0
 11 48  1  0
 11 49  1  0
 12 50  1  0
 12 51  1  0
 14 52  1  0
 14 53  1  0
 15 54  1  0
 15 55  1  0
 16 56  1  0
 16 57  1  0
 19 58  1  0
 26 59  1  0
 27 60  1  0
 28 61  1  0
 29 62  1  0
 30 63  1  0
 34 64  1  0
 35 65  1  0
 36 66  1  0
 37 67  1  0
 38 68  1  0
M  CHG  2   9  -1  21  -1
M  END
>  <UniqueID>  (26) 
24

>  <SMILES>  (26) 
CN(C)c1cc(C(=O)[N-]CCCN2CCCC2=O)cc([N-]S(=O)(=O)c2ccccc2)c1Oc1ccccc1

>  <Energy>  (26) 
94.70782364255412

>  <Genealogy>  (26) 
CN(C)c1cc(C(=O)[N-]CCCN2CCCC2=O)cc([N-]S(=O)(=O)c2ccccc2)c1Oc1ccccc1 (protonated)
CN(C)c1cc(C(=O)[N-]CCCN2CCCC2=O)cc([N-]S(=O)(=O)c2ccccc2)c1Oc1ccccc1 (3D coordinates assigned)
CN(C)c1cc(C(=O)[N-]CCCN2CCCC2=O)cc([N-]S(=O)(=O)c2ccccc2)c1Oc1ccccc1 (nonaromatic ring conformer: 94.70782364255412 kcal/mol)

>  <smiles>  (26) 
CN(C)c1cc(C(=O)NCCCN2CCCC2=O)cc(NS(=O)(=O)c2ccccc2)c1Oc1ccccc1

>  <score_type>  (26) 
oracle

>  <origin>  (26) 
adgpu

>  <m_score__min__energy>  (26) 
-11.699999999999999

>  <m_primary>  (26) 
energy

$$$$
26:0
     RDKit          3D

 39 41  0  0  0  0  0  0  0  0999 V2000
   -4.8990   23.8788  -32.9228 H   0  0  0  0  0  0  0  0  0  0  0  0
   -5.5130   23.4410  -32.1220 C   0  0  0  0  0  0  0  0  0  0  0  0
   -6.6590   22.7080  -32.4460 C   0  0  0  0  0  0  0  0  0  0  0  0
   -6.9380   22.5643  -33.5003 H   0  0  0  0  0  0  0  0  0  0  0  0
   -7.4530   22.1560  -31.4320 C   0  0  0  0  0  0  0  0  0  0  0  0
   -8.8570   21.1680  -31.8410 S   0  0  0  0  0  0  0  0  0  0  0  0
   -9.8990   22.0350  -32.4920 O   0  0  0  0  0  0  0  0  0  0  0  0
   -9.4470   20.6020  -30.5790 O   0  0  0  0  0  0  0  0  0  0  0  0
   -8.4320   19.8590  -32.9260 N   0  0  0  0  0  0  0  0  0  0  0  0
   -8.9590   20.0040  -33.8190 H   0  0  0  0  0  0  0  0  0  0  0  0
   -6.9890   19.8310  -33.1980 C   0  0  0  0  0  0  0  0  0  0  0  0
   -6.8122   19.5527  -34.2474 H   0  0  0  0  0  0  0  0  0  0  0  0
   -6.5472   20.8227  -33.0208 H   0  0  0  0  0  0  0  0  0  0  0  0
   -6.3570   18.7980  -32.2760 C   0  0  0  0  0  0  0  0  0  0  0  0
   -5.6434   18.1731  -32.8330 H   0  0  0  0  0  0  0  0  0  0  0  0
   -5.7993   19.2744  -31.4562 H   0  0  0  0  0  0  0  0  0  0  0  0
   -7.5040   17.9530  -31.7540 C   0  0  0  0  0  0  0  0  0  0  0  0
   -7.3847   16.9071  -32.0733 H   0  0  0  0  0  0  0  0  0  0  0  0
   -7.5393   17.9557  -30.6546 H   0  0  0  0  0  0  0  0  0  0  0  0
   -8.7700   18.5490  -32.3550 C   0  0  0  0  0  0  0  0  0  0  0  0
   -9.1555   17.8867  -33.1442 H   0  0  0  0  0  0  0  0  0  0  0  0
   -9.5436   18.6593  -31.5808 H   0  0  0  0  0  0  0  0  0  0  0  0
   -7.1110   22.3720  -30.0910 C   0  0  0  0  0  0  0  0  0  0  0  0
   -7.7480   21.9669  -29.2909 H   0  0  0  0  0  0  0  0  0  0  0  0
   -5.9640   23.1000  -29.7660 C   0  0  0  0  0  0  0  0  0  0  0  0
   -5.7026   23.2665  -28.7105 H   0  0  0  0  0  0  0  0  0  0  0  0
   -5.1420   23.6210  -30.7800 C   0  0  0  0  0  0  0  0  0  0  0  0
   -3.9090   24.3660  -30.4410 C   0  0  0  0  0  0  0  0  0  0  0  0
   -3.8750   25.6120  -30.6230 O   0  0  0  0  0  0  0  0  0  0  0  0
   -2.7590   23.7230  -29.8700 N   0  0  0  0  0  0  0  0  0  0  0  0
   -1.8320   24.3100  -29.1720 C   0  0  0  0  0  0  0  0  0  0  0  0
   -1.8610   25.6120  -28.8070 N   0  0  0  0  0  0  0  0  0  0  0  0
   -0.8120   25.9670  -28.0680 N   0  0  0  0  0  0  0  0  0  0  0  0
    0.0530   24.9520  -27.8490 C   0  0  0  0  0  0  0  0  0  0  0  0
    1.2670   25.0750  -26.9950 C   0  0  0  0  0  0  0  0  0  0  0  0
    0.9742   25.0453  -25.9351 H   0  0  0  0  0  0  0  0  0  0  0  0
    1.9522   24.2417  -27.2096 H   0  0  0  0  0  0  0  0  0  0  0  0
    1.7712   26.0288  -27.2096 H   0  0  0  0  0  0  0  0  0  0  0  0
   -0.4820   23.5180  -28.5590 S   0  0  0  0  0  0  0  0  0  0  0  0
  1  2  1  0
  2  3  2  0
  3  4  1  0
  3  5  1  0
  5  6  1  0
  6  7  2  0
  6  8  2  0
  6  9  1  0
  9 10  1  0
  9 11  1  0
 11 12  1  0
 11 13  1  0
 11 14  1  0
 14 15  1  0
 14 16  1  0
 14 17  1  0
 17 18  1  0
 17 19  1  0
 17 20  1  0
 20 21  1  0
 20 22  1  0
  5 23  2  0
 23 24  1  0
 23 25  1  0
 25 26  1  0
 25 27  2  0
 27 28  1  0
 28 29  2  0
 28 30  1  0
 30 31  2  0
 31 32  1  0
 32 33  1  0
 33 34  2  0
 34 35  1  0
 35 36  1  0
 35 37  1  0
 35 38  1  0
 34 39  1  0
 27  2  1  0
 39 31  1  0
 20  9  1  0
M  CHG  2   9   1  32  -1
M  END
>  <UniqueID>  (27) 
25

>  <SMILES>  (27) 
Cc1n[n-]/c(=N\C(=O)c2ccc(S(=O)(=O)[NH+]3CCCC3)cc2)s1

>  <Energy>  (27) 
79.93831318339684

>  <Genealogy>  (27) 
Cc1n[n-]c(=NC(=O)c2ccc(S(=O)(=O)[NH+]3CCCC3)cc2)s1 (protonated)
Cc1n[n-]/c(=N\C(=O)c2ccc(S(=O)(=O)[NH+]3CCCC3)cc2)s1 (cis-trans isomerization)
Cc1n[n-]/c(=N\C(=O)c2ccc(S(=O)(=O)[NH+]3CCCC3)cc2)s1 (3D coordinates assigned)
Cc1n[n-]/c(=N\C(=O)c2ccc(S(=O)(=O)[NH+]3CCCC3)cc2)s1 (nonaromatic ring conformer: 79.93831318339684 kcal/mol)

>  <smiles>  (27) 
Cc1n[nH]c(=NC(=O)c2ccc(S(=O)(=O)N3CCCC3)cc2)s1

>  <score_type>  (27) 
oracle

>  <origin>  (27) 
adgpu

>  <m_score__min__energy>  (27) 
-10.539999999999999

>  <m_primary>  (27) 
energy

$$$$
27:0
     RDKit          3D

 45 48  0  0  0  0  0  0  0  0999 V2000
   -0.9150   23.2370  -25.3990 O   0  0  0  0  0  0  0  0  0  0  0  0
   -0.7780   22.8870  -26.6000 C   0  0  0  0  0  0  0  0  0  0  0  0
    0.1430   21.8350  -26.9110 N   0  0  0  0  0  0  0  0  0  0  0  0
   -0.2180   20.5710  -27.5420 C   0  0  0  0  0  0  0  0  0  0  0  0
   -1.0600   20.8440  -28.7540 C   0  0  0  0  0  0  0  0  0  0  0  0
   -0.5780   21.6720  -29.7790 C   0  0  0  0  0  0  0  0  0  0  0  0
   -1.3480   21.8990  -30.9250 C   0  0  0  0  0  0  0  0  0  0  0  0
   -2.6030   21.2920  -31.0610 C   0  0  0  0  0  0  0  0  0  0  0  0
   -3.5490   21.5650  -32.5200 S   0  0  0  0  0  0  0  0  0  0  0  0
   -4.2920   22.8700  -32.4320 O   0  0  0  0  0  0  0  0  0  0  0  0
   -2.6180   21.6250  -33.6990 O   0  0  0  0  0  0  0  0  0  0  0  0
   -4.7070   20.2530  -32.7080 C   0  0  0  0  0  0  0  0  0  0  0  0
   -4.2780   19.0200  -33.2120 C   0  0  0  0  0  0  0  0  0  0  0  0
   -5.1830   17.9680  -33.3610 C   0  0  0  0  0  0  0  0  0  0  0  0
   -6.5260   18.1430  -33.0150 C   0  0  0  0  0  0  0  0  0  0  0  0
   -6.9800   19.3830  -32.5320 C   0  0  0  0  0  0  0  0  0  0  0  0
   -8.4190   19.5530  -32.1120 C   0  0  0  0  0  0  0  0  0  0  0  0
   -9.1330   20.2500  -33.0730 F   0  0  0  0  0  0  0  0  0  0  0  0
   -9.0230   18.3210  -31.9340 F   0  0  0  0  0  0  0  0  0  0  0  0
   -8.4660   20.2540  -30.9220 F   0  0  0  0  0  0  0  0  0  0  0  0
   -6.0560   20.4300  -32.3600 C   0  0  0  0  0  0  0  0  0  0  0  0
   -3.0780   20.4460  -30.0480 C   0  0  0  0  0  0  0  0  0  0  0  0
   -2.3100   20.2210  -28.9030 C   0  0  0  0  0  0  0  0  0  0  0  0
   -1.5970   23.5470  -27.6360 C   0  0  0  0  0  0  0  0  0  0  0  0
   -1.0880   24.6460  -28.3800 C   0  0  0  0  0  0  0  0  0  0  0  0
   -1.8580   25.2680  -29.3240 N   0  0  0  0  0  0  0  0  0  0  0  0
   -3.1200   24.8200  -29.5350 C   0  0  0  0  0  0  0  0  0  0  0  0
   -4.0070   25.3110  -30.4140 N   0  0  0  0  0  0  0  0  0  0  0  0
   -5.1160   24.5870  -30.2790 N   0  0  0  0  0  0  0  0  0  0  0  0
   -4.9280   23.6480  -29.3190 C   0  0  0  0  0  0  0  0  0  0  0  0
   -3.6520   23.7870  -28.8350 C   0  0  0  0  0  0  0  0  0  0  0  0
   -2.9240   23.1180  -27.8590 C   0  0  0  0  0  0  0  0  0  0  0  0
    0.6952   20.0361  -27.8420 H   0  0  0  0  0  0  0  0  0  0  0  0
   -0.7856   19.9531  -26.8307 H   0  0  0  0  0  0  0  0  0  0  0  0
    0.4102   22.1451  -29.6812 H   0  0  0  0  0  0  0  0  0  0  0  0
   -0.9669   22.5557  -31.7210 H   0  0  0  0  0  0  0  0  0  0  0  0
   -3.2235   18.8794  -33.4918 H   0  0  0  0  0  0  0  0  0  0  0  0
   -4.8387   16.9990  -33.7516 H   0  0  0  0  0  0  0  0  0  0  0  0
   -7.2317   17.3059  -33.1212 H   0  0  0  0  0  0  0  0  0  0  0  0
   -6.3925   21.3937  -31.9502 H   0  0  0  0  0  0  0  0  0  0  0  0
   -4.0581   19.9583  -30.1555 H   0  0  0  0  0  0  0  0  0  0  0  0
   -2.6860   19.5527  -28.1143 H   0  0  0  0  0  0  0  0  0  0  0  0
   -0.0633   25.0003  -28.1945 H   0  0  0  0  0  0  0  0  0  0  0  0
   -5.6684   22.9054  -28.9868 H   0  0  0  0  0  0  0  0  0  0  0  0
   -3.3627   22.2891  -27.2841 H   0  0  0  0  0  0  0  0  0  0  0  0
  1  2  2  0
  2  3  1  0
  3  4  1  0
  4  5  1  0
  5  6  2  0
  6  7  1  0
  7  8  2  0
  8  9  1  0
  9 10  2  0
  9 11  2  0
  9 12  1  0
 12 13  2  0
 13 14  1  0
 14 15  2  0
 15 16  1  0
 16 17  1  0
 17 18  1  0
 17 19  1  0
 17 20  1  0
 16 21  2  0
  8 22  1  0
 22 23  2  0
  2 24  1  0
 24 25  2  0
 25 26  1  0
 26 27  2  0
 27 28  1  0
 28 29  1  0
 29 30  2  0
 30 31  1  0
 31 32  2  0
 23  5  1  0
 32 24  1  0
 21 12  1  0
 31 27  1  0
  4 33  1  0
  4 34  1  0
  6 35  1  0
  7 36  1  0
 13 37  1  0
 14 38  1  0
 15 39  1  0
 21 40  1  0
 22 41  1  0
 23 42  1  0
 25 43  1  0
 30 44  1  0
 32 45  1  0
M  CHG  2   3  -1  28  -1
M  END
>  <UniqueID>  (28) 
26

>  <SMILES>  (28) 
O=C([N-]Cc1ccc(S(=O)(=O)c2cccc(C(F)(F)F)c2)cc1)c1cnc2[n-]ncc2c1

>  <Energy>  (28) 
95.86046739354356

>  <Genealogy>  (28) 
O=C([N-]Cc1ccc(S(=O)(=O)c2cccc(C(F)(F)F)c2)cc1)c1cnc2[n-]ncc2c1 (protonated)
O=C([N-]Cc1ccc(S(=O)(=O)c2cccc(C(F)(F)F)c2)cc1)c1cnc2[n-]ncc2c1 (3D coordinates assigned)
O=C([N-]Cc1ccc(S(=O)(=O)c2cccc(C(F)(F)F)c2)cc1)c1cnc2[n-]ncc2c1 (optimized conformer: 95.86046739354356 kcal/mol)

>  <smiles>  (28) 
O=C(NCc1ccc(S(=O)(=O)c2cccc(C(F)(F)F)c2)cc1)c1cnc2[nH]ncc2c1

>  <score_type>  (28) 
oracle

>  <origin>  (28) 
adgpu

>  <m_score__min__energy>  (28) 
-11.970000000000001

>  <m_primary>  (28) 
energy

$$$$
28:0
     RDKit          3D

 48 51  0  0  0  0  0  0  0  0999 V2000
   -3.3540   17.6680  -34.4580 C   0  0  0  0  0  0  0  0  0  0  0  0
   -3.5050   18.9010  -33.6180 C   0  0  0  0  0  0  0  0  0  0  0  0
   -2.7470   20.0470  -33.9030 C   0  0  0  0  0  0  0  0  0  0  0  0
   -2.8650   21.1870  -33.1030 C   0  0  0  0  0  0  0  0  0  0  0  0
   -3.7410   21.1940  -32.0070 C   0  0  0  0  0  0  0  0  0  0  0  0
   -3.8930   22.3980  -31.1710 C   0  0  0  0  0  0  0  0  0  0  0  0
   -3.1590   22.6160  -30.0600 N   0  0  0  0  0  0  0  0  0  0  0  0
   -3.6800   23.7740  -29.5930 C   0  0  0  0  0  0  0  0  0  0  0  0
   -3.2100   24.4490  -28.3640 C   0  0  0  0  0  0  0  0  0  0  0  0
   -4.0480   24.5450  -27.2430 C   0  0  0  0  0  0  0  0  0  0  0  0
   -3.6060   25.1820  -26.0830 C   0  0  0  0  0  0  0  0  0  0  0  0
   -2.3220   25.7330  -26.0170 C   0  0  0  0  0  0  0  0  0  0  0  0
   -1.9300   26.3590  -24.8320 O   0  0  0  0  0  0  0  0  0  0  0  0
   -1.4650   25.6440  -27.1370 C   0  0  0  0  0  0  0  0  0  0  0  0
   -0.0790   26.2260  -27.1020 C   0  0  0  0  0  0  0  0  0  0  0  0
   -1.9200   25.0010  -28.3030 C   0  0  0  0  0  0  0  0  0  0  0  0
   -4.6910   24.2300  -30.3590 N   0  0  0  0  0  0  0  0  0  0  0  0
   -4.8170   23.3660  -31.3500 N   0  0  0  0  0  0  0  0  0  0  0  0
   -5.8990   23.4210  -32.3340 C   0  0  0  0  0  0  0  0  0  0  0  0
   -6.9490   22.3880  -32.0200 C   0  0  0  0  0  0  0  0  0  0  0  0
   -7.0240   21.2080  -32.7790 C   0  0  0  0  0  0  0  0  0  0  0  0
   -8.0190   20.2630  -32.5160 C   0  0  0  0  0  0  0  0  0  0  0  0
   -8.9460   20.4870  -31.4940 C   0  0  0  0  0  0  0  0  0  0  0  0
   -8.8760   21.6560  -30.7310 C   0  0  0  0  0  0  0  0  0  0  0  0
   -7.8800   22.6020  -30.9890 C   0  0  0  0  0  0  0  0  0  0  0  0
   -4.4650   20.0340  -31.6970 C   0  0  0  0  0  0  0  0  0  0  0  0
   -4.3490   18.8950  -32.4980 C   0  0  0  0  0  0  0  0  0  0  0  0
   -3.2465   16.7899  -33.8043 H   0  0  0  0  0  0  0  0  0  0  0  0
   -4.2439   17.5456  -35.0929 H   0  0  0  0  0  0  0  0  0  0  0  0
   -2.4609   17.7640  -35.0929 H   0  0  0  0  0  0  0  0  0  0  0  0
   -2.0570   20.0482  -34.7597 H   0  0  0  0  0  0  0  0  0  0  0  0
   -2.2688   22.0822  -33.3335 H   0  0  0  0  0  0  0  0  0  0  0  0
   -5.0600   24.1153  -27.2788 H   0  0  0  0  0  0  0  0  0  0  0  0
   -4.2739   25.2516  -25.2117 H   0  0  0  0  0  0  0  0  0  0  0  0
   -2.4300   27.1430  -24.4320 H   0  0  0  0  0  0  0  0  0  0  0  0
    0.2367   26.3586  -26.0567 H   0  0  0  0  0  0  0  0  0  0  0  0
    0.6178   25.5445  -27.6119 H   0  0  0  0  0  0  0  0  0  0  0  0
   -0.0776   27.2007  -27.6119 H   0  0  0  0  0  0  0  0  0  0  0  0
   -1.2569   24.9298  -29.1778 H   0  0  0  0  0  0  0  0  0  0  0  0
   -6.3570   24.4209  -32.3132 H   0  0  0  0  0  0  0  0  0  0  0  0
   -5.4840   23.2153  -33.3317 H   0  0  0  0  0  0  0  0  0  0  0  0
   -6.2962   21.0274  -33.5838 H   0  0  0  0  0  0  0  0  0  0  0  0
   -8.0729   19.3414  -33.1141 H   0  0  0  0  0  0  0  0  0  0  0  0
   -9.7305   19.7433  -31.2903 H   0  0  0  0  0  0  0  0  0  0  0  0
   -9.6055   21.8317  -29.9267 H   0  0  0  0  0  0  0  0  0  0  0  0
   -7.8245   23.5180  -30.3825 H   0  0  0  0  0  0  0  0  0  0  0  0
   -5.1275   20.0205  -30.8190 H   0  0  0  0  0  0  0  0  0  0  0  0
   -4.9221   17.9897  -32.2490 H   0  0  0  0  0  0  0  0  0  0  0  0
  1  2  1  0
  2  3  2  0
  3  4  1  0
  4  5  2  0
  5  6  1  0
  6  7  2  0
  7  8  1  0
  8  9  1  0
  9 10  2  0
 10 11  1  0
 11 12  2  0
 12 13  1  0
 12 14  1  0
 14 15  1  0
 14 16  2  0
  8 17  2  0
 17 18  1  0
 18 19  1  0
 19 20  1  0
 20 21  2  0
 21 22  1  0
 22 23  2  0
 23 24  1  0
 24 25  2  0
  5 26  1  0
 26 27  2  0
 27  2  1  0
 18  6  1  0
 25 20  1  0
 16  9  1  0
  1 28  1  0
  1 29  1  0
  1 30  1  0
  3 31  1  0
  4 32  1  0
 10 33  1  0
 11 34  1  0
 13 35  1  0
 15 36  1  0
 15 37  1  0
 15 38  1  0
 16 39  1  0
 19 40  1  0
 19 41  1  0
 21 42  1  0
 22 43  1  0
 23 44  1  0
 24 45  1  0
 25 46  1  0
 26 47  1  0
 27 48  1  0
M  END
>  <UniqueID>  (29) 
27

>  <SMILES>  (29) 
Cc1ccc(-c2nc(-c3ccc(O)c(C)c3)nn2Cc2ccccc2)cc1

>  <Energy>  (29) 
88.2785796035563

>  <Genealogy>  (29) 
Cc1ccc(-c2nc(-c3ccc(O)c(C)c3)nn2Cc2ccccc2)cc1 (3D coordinates assigned)
Cc1ccc(-c2nc(-c3ccc(O)c(C)c3)nn2Cc2ccccc2)cc1 (optimized conformer: 88.2785796035563 kcal/mol)

>  <smiles>  (29) 
Cc1ccc(-c2nc(-c3ccc(O)c(C)c3)nn2Cc2ccccc2)cc1

>  <score_type>  (29) 
oracle

>  <origin>  (29) 
adgpu

>  <m_score__min__energy>  (29) 
-8.5899999999999999

>  <m_primary>  (29) 
energy

$$$$
29:0
     RDKit          3D

 45 46  0  0  0  0  0  0  0  0999 V2000
   -5.2510   19.3720  -31.6230 C   0  0  0  0  0  0  0  0  0  0  0  0
   -6.3400   19.5860  -32.5770 N   0  0  0  0  0  0  0  0  0  0  0  0
   -6.1590   19.1210  -33.9500 C   0  0  0  0  0  0  0  0  0  0  0  0
   -7.2760   20.6440  -32.3260 C   0  0  0  0  0  0  0  0  0  0  0  0
   -8.5680   20.3270  -32.0290 N   0  0  0  0  0  0  0  0  0  0  0  0
   -9.5080   21.2770  -31.7870 C   0  0  0  0  0  0  0  0  0  0  0  0
   -9.1640   22.6270  -31.8350 C   0  0  0  0  0  0  0  0  0  0  0  0
   -7.8500   22.9870  -32.1260 C   0  0  0  0  0  0  0  0  0  0  0  0
   -6.8830   22.0000  -32.3740 C   0  0  0  0  0  0  0  0  0  0  0  0
   -5.4500   22.4210  -32.6090 C   0  0  0  0  0  0  0  0  0  0  0  0
   -5.0690   23.4910  -31.6770 N   0  0  0  0  0  0  0  0  0  0  0  0
   -5.3460   23.1100  -30.2860 C   0  0  0  0  0  0  0  0  0  0  0  0
   -4.0730   23.1690  -29.4820 C   0  0  0  0  0  0  0  0  0  0  0  0
   -3.7890   22.1450  -28.5660 C   0  0  0  0  0  0  0  0  0  0  0  0
   -2.6350   22.1990  -27.7860 C   0  0  0  0  0  0  0  0  0  0  0  0
   -1.7580   23.2780  -27.9020 C   0  0  0  0  0  0  0  0  0  0  0  0
   -2.0250   24.3240  -28.8050 C   0  0  0  0  0  0  0  0  0  0  0  0
   -1.1400   25.4550  -28.9250 N   0  0  0  0  0  0  0  0  0  0  0  0
   -0.4320   26.2880  -27.5760 S   0  0  0  0  0  0  0  0  0  0  0  0
   -1.3000   25.8810  -26.0760 C   0  0  0  0  0  0  0  0  0  0  0  0
   -0.4590   27.7710  -27.8130 O   0  0  0  0  0  0  0  0  0  0  0  0
    0.9970   25.8470  -27.4310 O   0  0  0  0  0  0  0  0  0  0  0  0
   -3.1980   24.2690  -29.5860 C   0  0  0  0  0  0  0  0  0  0  0  0
   -3.4910   25.3040  -30.4690 O   0  0  0  0  0  0  0  0  0  0  0  0
   -5.6415   19.4487  -30.5975 H   0  0  0  0  0  0  0  0  0  0  0  0
   -4.8197   18.3719  -31.7772 H   0  0  0  0  0  0  0  0  0  0  0  0
   -4.4733   20.1345  -31.7772 H   0  0  0  0  0  0  0  0  0  0  0  0
   -5.7600   18.0960  -33.9404 H   0  0  0  0  0  0  0  0  0  0  0  0
   -7.1273   19.1327  -34.4717 H   0  0  0  0  0  0  0  0  0  0  0  0
   -5.4534   19.7842  -34.4717 H   0  0  0  0  0  0  0  0  0  0  0  0
  -10.5413   20.9810  -31.5530 H   0  0  0  0  0  0  0  0  0  0  0  0
   -9.9227   23.4005  -31.6450 H   0  0  0  0  0  0  0  0  0  0  0  0
   -7.5688   24.0499  -32.1616 H   0  0  0  0  0  0  0  0  0  0  0  0
   -4.7886   21.5554  -32.4563 H   0  0  0  0  0  0  0  0  0  0  0  0
   -5.3532   22.7949  -33.6390 H   0  0  0  0  0  0  0  0  0  0  0  0
   -4.0350   23.6320  -31.7690 H   0  0  0  0  0  0  0  0  0  0  0  0
   -6.0829   23.8045  -29.8561 H   0  0  0  0  0  0  0  0  0  0  0  0
   -5.7465   22.0858  -30.2609 H   0  0  0  0  0  0  0  0  0  0  0  0
   -4.4802   21.2955  -28.4628 H   0  0  0  0  0  0  0  0  0  0  0  0
   -2.4149   21.3879  -27.0763 H   0  0  0  0  0  0  0  0  0  0  0  0
   -0.8499   23.3114  -27.2822 H   0  0  0  0  0  0  0  0  0  0  0  0
   -0.8170   25.7540  -29.8720 H   0  0  0  0  0  0  0  0  0  0  0  0
   -0.6876   26.1682  -25.2085 H   0  0  0  0  0  0  0  0  0  0  0  0
   -2.2557   26.4249  -26.0463 H   0  0  0  0  0  0  0  0  0  0  0  0
   -1.4931   24.7985  -26.0463 H   0  0  0  0  0  0  0  0  0  0  0  0
  1  2  1  0
  2  3  1  0
  2  4  1  0
  4  5  2  0
  5  6  1  0
  6  7  2  0
  7  8  1  0
  8  9  2  0
  9 10  1  0
 10 11  1  0
 11 12  1  0
 12 13  1  0
 13 14  2  0
 14 15  1  0
 15 16  2  0
 16 17  1  0
 17 18  1  0
 18 19  1  0
 19 20  1  0
 19 21  2  0
 19 22  2  0
 17 23  2  0
 23 24  1  0
  9  4  1  0
 23 13  1  0
  1 25  1  0
  1 26  1  0
  1 27  1  0
  3 28  1  0
  3 29  1  0
  3 30  1  0
  6 31  1  0
  7 32  1  0
  8 33  1  0
 10 34  1  0
 10 35  1  0
 11 36  1  0
 12 37  1  0
 12 38  1  0
 14 39  1  0
 15 40  1  0
 16 41  1  0
 18 42  1  0
 20 43  1  0
 20 44  1  0
 20 45  1  0
M  CHG  1  24  -1
M  END
>  <UniqueID>  (30) 
28

>  <SMILES>  (30) 
CN(C)c1ncccc1CNCc1cccc(NS(C)(=O)=O)c1[O-]

>  <Energy>  (30) 
48.12043393107253

>  <Genealogy>  (30) 
CN(C)c1ncccc1CNCc1cccc(NS(C)(=O)=O)c1[O-] (protonated)
CN(C)c1ncccc1CNCc1cccc(NS(C)(=O)=O)c1[O-] (3D coordinates assigned)
CN(C)c1ncccc1CNCc1cccc(NS(C)(=O)=O)c1[O-] (optimized conformer: 48.12043393107253 kcal/mol)

>  <smiles>  (30) 
CN(C)c1ncccc1CNCc1cccc(NS(C)(=O)=O)c1O

>  <score_type>  (30) 
oracle

>  <origin>  (30) 
adgpu

>  <m_score__min__energy>  (30) 
-12.27

>  <m_primary>  (30) 
energy

$$$$
30:0
     RDKit          3D

 41 43  0  0  0  0  0  0  0  0999 V2000
   -7.8160   19.9730  -33.8930 H   0  0  0  0  0  0  0  0  0  0  0  0
   -6.9590   20.0410  -33.3610 O   0  0  0  0  0  0  0  0  0  0  0  0
   -6.5750   21.1950  -32.6790 C   0  0  0  0  0  0  0  0  0  0  0  0
   -5.2310   21.5760  -32.7320 C   0  0  0  0  0  0  0  0  0  0  0  0
   -4.5056   20.9404  -33.2610 H   0  0  0  0  0  0  0  0  0  0  0  0
   -4.8000   22.7540  -32.1210 C   0  0  0  0  0  0  0  0  0  0  0  0
   -3.7396   23.0413  -32.1756 H   0  0  0  0  0  0  0  0  0  0  0  0
   -5.7090   23.5740  -31.4380 C   0  0  0  0  0  0  0  0  0  0  0  0
   -5.2420   24.8310  -30.8050 C   0  0  0  0  0  0  0  0  0  0  0  0
   -6.0870   25.7060  -30.4760 O   0  0  0  0  0  0  0  0  0  0  0  0
   -3.8590   25.0670  -30.4990 N   0  0  0  0  0  0  0  0  0  0  0  0
   -3.0710   24.3520  -29.5370 C   0  0  0  0  0  0  0  0  0  0  0  0
   -1.9700   24.9470  -28.8970 C   0  0  0  0  0  0  0  0  0  0  0  0
   -1.7055   25.9916  -29.1181 H   0  0  0  0  0  0  0  0  0  0  0  0
   -1.2110   24.2150  -27.9810 C   0  0  0  0  0  0  0  0  0  0  0  0
   -0.3428   24.6814  -27.4924 H   0  0  0  0  0  0  0  0  0  0  0  0
   -1.5510   22.8890  -27.6820 C   0  0  0  0  0  0  0  0  0  0  0  0
   -0.5550   21.9630  -26.5650 S   0  0  0  0  0  0  0  0  0  0  0  0
    0.8940   22.2280  -26.8640 O   0  0  0  0  0  0  0  0  0  0  0  0
   -0.8430   22.3610  -25.1440 O   0  0  0  0  0  0  0  0  0  0  0  0
   -0.8800   20.2710  -26.7550 N   0  0  0  0  0  0  0  0  0  0  0  0
   -0.1590   19.4940  -27.5040 C   0  0  0  0  0  0  0  0  0  0  0  0
    0.9100   19.8980  -28.2170 N   0  0  0  0  0  0  0  0  0  0  0  0
    1.3620   18.8380  -28.8230 O   0  0  0  0  0  0  0  0  0  0  0  0
    0.6350   17.7820  -28.5340 C   0  0  0  0  0  0  0  0  0  0  0  0
    0.8890   16.4110  -29.0620 C   0  0  0  0  0  0  0  0  0  0  0  0
    1.0184   15.7127  -28.2220 H   0  0  0  0  0  0  0  0  0  0  0  0
    0.0349   16.0908  -29.6768 H   0  0  0  0  0  0  0  0  0  0  0  0
    1.8011   16.4180  -29.6768 H   0  0  0  0  0  0  0  0  0  0  0  0
   -0.3780   18.1460  -27.6730 C   0  0  0  0  0  0  0  0  0  0  0  0
   -1.1646   17.5165  -27.2315 H   0  0  0  0  0  0  0  0  0  0  0  0
   -2.6720   22.3090  -28.2900 C   0  0  0  0  0  0  0  0  0  0  0  0
   -2.9550   21.2746  -28.0451 H   0  0  0  0  0  0  0  0  0  0  0  0
   -3.4320   23.0410  -29.2070 C   0  0  0  0  0  0  0  0  0  0  0  0
   -4.3183   22.5841  -29.6715 H   0  0  0  0  0  0  0  0  0  0  0  0
   -7.0620   23.1950  -31.3820 C   0  0  0  0  0  0  0  0  0  0  0  0
   -7.7866   23.8440  -30.8684 H   0  0  0  0  0  0  0  0  0  0  0  0
   -7.5010   21.9970  -31.9740 C   0  0  0  0  0  0  0  0  0  0  0  0
   -8.8750   21.6040  -31.8340 N   0  0  0  0  0  0  0  0  0  0  0  0
   -9.5250   21.9450  -30.8250 O   0  0  0  0  0  0  0  0  0  0  0  0
   -9.4200   20.6780  -32.6930 O   0  0  0  0  0  0  0  0  0  0  0  0
  1  2  1  0
  2  3  1  0
  3  4  2  0
  4  5  1  0
  4  6  1  0
  6  7  1  0
  6  8  2  0
  8  9  1  0
  9 10  2  0
  9 11  1  0
 11 12  1  0
 12 13  2  0
 13 14  1  0
 13 15  1  0
 15 16  1  0
 15 17  2  0
 17 18  1  0
 18 19  2  0
 18 20  2  0
 18 21  1  0
 21 22  2  0
 22 23  1  0
 23 24  1  0
 24 25  1  0
 25 26  1  0
 26 27  1  0
 26 28  1  0
 26 29  1  0
 25 30  2  0
 30 31  1  0
 17 32  1  0
 32 33  1  0
 32 34  2  0
 34 35  1  0
  8 36  1  0
 36 37  1  0
 36 38  2  0
 38 39  1  0
 39 40  2  0
 39 41  1  0
 38  3  1  0
 34 12  1  0
 30 22  1  0
M  CHG  4  11  -1  23  -1  39   1  41  -1
M  END
>  <UniqueID>  (31) 
29

>  <SMILES>  (31) 
Cc1c/c(=N/S(=O)(=O)c2ccc([N-]C(=O)c3ccc(O)c([N+](=O)[O-])c3)cc2)[n-]o1

>  <Energy>  (31) 
87.06891299903148

>  <Genealogy>  (31) 
Cc1cc(=NS(=O)(=O)c2ccc([N-]C(=O)c3ccc(O)c([N+](=O)[O-])c3)cc2)[n-]o1 (protonated)
Cc1c/c(=N/S(=O)(=O)c2ccc([N-]C(=O)c3ccc(O)c([N+](=O)[O-])c3)cc2)[n-]o1 (cis-trans isomerization)
Cc1c/c(=N/S(=O)(=O)c2ccc([N-]C(=O)c3ccc(O)c([N+](=O)[O-])c3)cc2)[n-]o1 (3D coordinates assigned)
Cc1c/c(=N/S(=O)(=O)c2ccc([N-]C(=O)c3ccc(O)c([N+](=O)[O-])c3)cc2)[n-]o1 (optimized conformer: 87.06891299903148 kcal/mol)

>  <smiles>  (31) 
Cc1cc(=NS(=O)(=O)c2ccc(NC(=O)c3ccc(O)c([N+](=O)[O-])c3)cc2)[nH]o1

>  <score_type>  (31) 
oracle

>  <origin>  (31) 
adgpu

>  <m_score__min__energy>  (31) 
-10.94

>  <m_primary>  (31) 
energy

$$$$
31:0
     RDKit          3D

 49 51  0  0  0  0  0  0  0  0999 V2000
   -7.7650   20.1880  -32.9540 C   0  0  0  0  0  0  0  0  0  0  0  0
   -7.1040   21.3400  -32.2620 C   0  0  0  0  0  0  0  0  0  0  0  0
   -7.8710   22.3110  -31.6090 C   0  0  0  0  0  0  0  0  0  0  0  0
   -7.2520   23.3830  -30.9660 C   0  0  0  0  0  0  0  0  0  0  0  0
   -5.8540   23.4940  -30.9430 C   0  0  0  0  0  0  0  0  0  0  0  0
   -5.1230   24.8770  -30.1060 S   0  0  0  0  0  0  0  0  0  0  0  0
   -6.0790   26.0380  -30.0770 O   0  0  0  0  0  0  0  0  0  0  0  0
   -3.8830   25.3010  -30.8460 O   0  0  0  0  0  0  0  0  0  0  0  0
   -4.7550   24.4100  -28.4760 N   0  0  0  0  0  0  0  0  0  0  0  0
   -3.6770   23.5250  -28.1390 C   0  0  0  0  0  0  0  0  0  0  0  0
   -3.8890   22.1400  -28.1720 C   0  0  0  0  0  0  0  0  0  0  0  0
   -2.8460   21.2590  -27.8770 C   0  0  0  0  0  0  0  0  0  0  0  0
   -1.5890   21.7570  -27.5290 C   0  0  0  0  0  0  0  0  0  0  0  0
   -1.3730   23.1400  -27.4570 C   0  0  0  0  0  0  0  0  0  0  0  0
    0.2150   23.7580  -27.0180 S   0  0  0  0  0  0  0  0  0  0  0  0
    0.5580   24.8850  -27.9490 O   0  0  0  0  0  0  0  0  0  0  0  0
    1.2510   22.6800  -27.1480 O   0  0  0  0  0  0  0  0  0  0  0  0
    0.2180   24.3570  -25.3860 N   0  0  0  0  0  0  0  0  0  0  0  0
   -0.1260   25.5730  -25.0570 C   0  0  0  0  0  0  0  0  0  0  0  0
   -0.0990   26.0730  -23.6630 C   0  0  0  0  0  0  0  0  0  0  0  0
   -0.5330   27.5400  -23.7940 C   0  0  0  0  0  0  0  0  0  0  0  0
   -0.7740   27.8150  -25.2910 C   0  0  0  0  0  0  0  0  0  0  0  0
   -0.5350   26.5610  -25.9810 N   0  0  0  0  0  0  0  0  0  0  0  0
   -2.4200   24.0210  -27.7580 C   0  0  0  0  0  0  0  0  0  0  0  0
   -5.0670   22.4830  -31.5550 C   0  0  0  0  0  0  0  0  0  0  0  0
   -3.5610   22.5380  -31.5650 C   0  0  0  0  0  0  0  0  0  0  0  0
   -5.7080   21.4230  -32.2210 C   0  0  0  0  0  0  0  0  0  0  0  0
   -8.1653   19.4903  -32.2037 H   0  0  0  0  0  0  0  0  0  0  0  0
   -8.5866   20.5608  -33.5833 H   0  0  0  0  0  0  0  0  0  0  0  0
   -7.0286   19.6668  -33.5833 H   0  0  0  0  0  0  0  0  0  0  0  0
   -8.9679   22.2286  -31.6026 H   0  0  0  0  0  0  0  0  0  0  0  0
   -7.8669   24.1495  -30.4717 H   0  0  0  0  0  0  0  0  0  0  0  0
   -5.5140   24.5560  -27.7720 H   0  0  0  0  0  0  0  0  0  0  0  0
   -4.8821   21.7446  -28.4316 H   0  0  0  0  0  0  0  0  0  0  0  0
   -3.0150   20.1729  -27.9189 H   0  0  0  0  0  0  0  0  0  0  0  0
   -0.7652   21.0615  -27.3105 H   0  0  0  0  0  0  0  0  0  0  0  0
    0.5150   23.6930  -24.6370 H   0  0  0  0  0  0  0  0  0  0  0  0
   -0.8022   25.5108  -23.0310 H   0  0  0  0  0  0  0  0  0  0  0  0
    0.8873   25.9610  -23.1890 H   0  0  0  0  0  0  0  0  0  0  0  0
   -1.4595   27.7106  -23.2261 H   0  0  0  0  0  0  0  0  0  0  0  0
    0.2407   28.2121  -23.3944 H   0  0  0  0  0  0  0  0  0  0  0  0
   -1.8095   28.1482  -25.4548 H   0  0  0  0  0  0  0  0  0  0  0  0
   -0.1089   28.6082  -25.6631 H   0  0  0  0  0  0  0  0  0  0  0  0
   -0.6570   26.4340  -27.0140 H   0  0  0  0  0  0  0  0  0  0  0  0
   -2.2563   25.1070  -27.6955 H   0  0  0  0  0  0  0  0  0  0  0  0
   -3.1877   22.5516  -30.5304 H   0  0  0  0  0  0  0  0  0  0  0  0
   -3.1652   21.6537  -32.0860 H   0  0  0  0  0  0  0  0  0  0  0  0
   -3.2308   23.4488  -32.0860 H   0  0  0  0  0  0  0  0  0  0  0  0
   -5.1036   20.6488  -32.7163 H   0  0  0  0  0  0  0  0  0  0  0  0
  1  2  1  0
  2  3  2  0
  3  4  1  0
  4  5  2  0
  5  6  1  0
  6  7  2  0
  6  8  2  0
  6  9  1  0
  9 10  1  0
 10 11  2  0
 11 12  1  0
 12 13  2  0
 13 14  1  0
 14 15  1  0
 15 16  2  0
 15 17  2  0
 15 18  1  0
 18 19  2  3
 19 20  1  0
 20 21  1  0
 21 22  1  0
 22 23  1  0
 14 24  2  0
  5 25  1  0
 25 26  1  0
 25 27  2  0
 27  2  1  0
 24 10  1  0
 23 19  1  0
  1 28  1  0
  1 29  1  0
  1 30  1  0
  3 31  1  0
  4 32  1  0
  9 33  1  0
 11 34  1  0
 12 35  1  0
 13 36  1  0
 18 37  1  0
 20 38  1  0
 20 39  1  0
 21 40  1  0
 21 41  1  0
 22 42  1  0
 22 43  1  0
 23 44  1  0
 24 45  1  0
 26 46  1  0
 26 47  1  0
 26 48  1  0
 27 49  1  0
M  CHG  1  18   1
M  END
>  <UniqueID>  (32) 
30

>  <SMILES>  (32) 
Cc1ccc(S(=O)(=O)Nc2cccc(S(=O)(=O)[NH+]=C3CCCN3)c2)c(C)c1

>  <Energy>  (32) 
63.52258167976898

>  <Genealogy>  (32) 
Cc1ccc(S(=O)(=O)Nc2cccc(S(=O)(=O)[NH+]=C3CCCN3)c2)c(C)c1 (protonated)
Cc1ccc(S(=O)(=O)Nc2cccc(S(=O)(=O)[NH+]=C3CCCN3)c2)c(C)c1 (3D coordinates assigned)
Cc1ccc(S(=O)(=O)Nc2cccc(S(=O)(=O)[NH+]=C3CCCN3)c2)c(C)c1 (nonaromatic ring conformer: 63.52258167976898 kcal/mol)

>  <smiles>  (32) 
Cc1ccc(S(=O)(=O)Nc2cccc(S(=O)(=O)N=C3CCCN3)c2)c(C)c1

>  <score_type>  (32) 
oracle

>  <origin>  (32) 
adgpu

>  <m_score__min__energy>  (32) 
-9.9299999999999997

>  <m_primary>  (32) 
energy

$$$$
32:0
     RDKit          3D

 31 32  0  0  0  0  0  0  0  0999 V2000
   -1.5410   20.8740  -26.3050 C   0  0  0  0  0  0  0  0  0  0  0  0
   -1.5800   22.1540  -27.0860 C   0  0  0  0  0  0  0  0  0  0  0  0
   -1.2750   23.3720  -26.4650 C   0  0  0  0  0  0  0  0  0  0  0  0
   -1.2920   24.5700  -27.1970 C   0  0  0  0  0  0  0  0  0  0  0  0
   -0.9710   25.8730  -26.5230 C   0  0  0  0  0  0  0  0  0  0  0  0
   -1.5780   24.5360  -28.5740 C   0  0  0  0  0  0  0  0  0  0  0  0
   -1.5870   25.7140  -29.3140 O   0  0  0  0  0  0  0  0  0  0  0  0
   -1.8440   23.3160  -29.2120 C   0  0  0  0  0  0  0  0  0  0  0  0
   -2.1370   23.3130  -30.6190 N   0  0  0  0  0  0  0  0  0  0  0  0
   -3.3520   22.8580  -31.2300 C   0  0  0  0  0  0  0  0  0  0  0  0
   -3.2840   21.9480  -32.0980 O   0  0  0  0  0  0  0  0  0  0  0  0
   -4.6790   23.3800  -30.8220 C   0  0  0  0  0  0  0  0  0  0  0  0
   -5.7500   22.4910  -30.6120 C   0  0  0  0  0  0  0  0  0  0  0  0
   -7.0050   22.9720  -30.2290 C   0  0  0  0  0  0  0  0  0  0  0  0
   -7.2090   24.3410  -30.0600 C   0  0  0  0  0  0  0  0  0  0  0  0
   -6.1590   25.2350  -30.2770 C   0  0  0  0  0  0  0  0  0  0  0  0
   -4.8970   24.7640  -30.6570 C   0  0  0  0  0  0  0  0  0  0  0  0
   -3.8650   25.6760  -30.8500 O   0  0  0  0  0  0  0  0  0  0  0  0
   -1.8600   22.1290  -28.4600 C   0  0  0  0  0  0  0  0  0  0  0  0
   -1.5479   21.1008  -25.2287 H   0  0  0  0  0  0  0  0  0  0  0  0
   -2.4210   20.2639  -26.5568 H   0  0  0  0  0  0  0  0  0  0  0  0
   -0.6255   20.3186  -26.5568 H   0  0  0  0  0  0  0  0  0  0  0  0
   -1.0201   23.3900  -25.3951 H   0  0  0  0  0  0  0  0  0  0  0  0
   -1.0040   25.7392  -25.4317 H   0  0  0  0  0  0  0  0  0  0  0  0
    0.0351   26.2023  -26.8218 H   0  0  0  0  0  0  0  0  0  0  0  0
   -1.7090   26.6320  -26.8218 H   0  0  0  0  0  0  0  0  0  0  0  0
   -5.5981   21.4104  -30.7503 H   0  0  0  0  0  0  0  0  0  0  0  0
   -7.8340   22.2689  -30.0604 H   0  0  0  0  0  0  0  0  0  0  0  0
   -8.1972   24.7165  -29.7557 H   0  0  0  0  0  0  0  0  0  0  0  0
   -6.3243   26.3149  -30.1487 H   0  0  0  0  0  0  0  0  0  0  0  0
   -2.0938   21.1736  -28.9525 H   0  0  0  0  0  0  0  0  0  0  0  0
  1  2  1  0
  2  3  2  0
  3  4  1  0
  4  5  1  0
  4  6  2  0
  6  7  1  0
  6  8  1  0
  8  9  1  0
  9 10  1  0
 10 11  2  0
 10 12  1  0
 12 13  2  0
 13 14  1  0
 14 15  2  0
 15 16  1  0
 16 17  2  0
 17 18  1  0
  8 19  2  0
 19  2  1  0
 17 12  1  0
  1 20  1  0
  1 21  1  0
  1 22  1  0
  3 23  1  0
  5 24  1  0
  5 25  1  0
  5 26  1  0
 13 27  1  0
 14 28  1  0
 15 29  1  0
 16 30  1  0
 19 31  1  0
M  CHG  3   7  -1   9  -1  18  -1
M  END
>  <UniqueID>  (33) 
31

>  <SMILES>  (33) 
Cc1cc(C)c([O-])c([N-]C(=O)c2ccccc2[O-])c1

>  <Energy>  (33) 
38.884636778318786

>  <Genealogy>  (33) 
Cc1cc(C)c([O-])c([N-]C(=O)c2ccccc2[O-])c1 (protonated)
Cc1cc(C)c([O-])c([N-]C(=O)c2ccccc2[O-])c1 (3D coordinates assigned)
Cc1cc(C)c([O-])c([N-]C(=O)c2ccccc2[O-])c1 (optimized conformer: 38.884636778318786 kcal/mol)

>  <smiles>  (33) 
Cc1cc(C)c(O)c(NC(=O)c2ccccc2O)c1

>  <score_type>  (33) 
oracle

>  <origin>  (33) 
adgpu

>  <m_score__min__energy>  (33) 
-13.119999999999999

>  <m_primary>  (33) 
energy

$$$$
33:0
     RDKit          3D

 38 40  0  0  0  0  0  0  0  0999 V2000
   -2.2810   15.5820  -37.0200 H   0  0  0  0  0  0  0  0  0  0  0  0
   -1.7460   14.7840  -36.6090 N   0  0  0  0  0  0  0  0  0  0  0  0
   -2.7770   14.0340  -35.4420 S   0  0  0  0  0  0  0  0  0  0  0  0
   -1.9560   13.5660  -34.2730 O   0  0  0  0  0  0  0  0  0  0  0  0
   -3.4530   12.8450  -36.0640 O   0  0  0  0  0  0  0  0  0  0  0  0
   -3.9860   15.1910  -34.8960 C   0  0  0  0  0  0  0  0  0  0  0  0
   -5.1170   14.7540  -34.1950 C   0  0  0  0  0  0  0  0  0  0  0  0
   -5.2462   13.6837  -33.9765 H   0  0  0  0  0  0  0  0  0  0  0  0
   -6.0820   15.6720  -33.7720 C   0  0  0  0  0  0  0  0  0  0  0  0
   -6.9725   15.3196  -33.2309 H   0  0  0  0  0  0  0  0  0  0  0  0
   -5.9200   17.0460  -34.0350 C   0  0  0  0  0  0  0  0  0  0  0  0
   -6.9060   18.0190  -33.6500 N   0  0  0  0  0  0  0  0  0  0  0  0
   -6.7030   19.1120  -32.9740 C   0  0  0  0  0  0  0  0  0  0  0  0
   -7.7620   19.8950  -32.6500 N   0  0  0  0  0  0  0  0  0  0  0  0
   -7.5770   21.0570  -31.9710 C   0  0  0  0  0  0  0  0  0  0  0  0
   -8.7520   21.8880  -31.5670 C   0  0  0  0  0  0  0  0  0  0  0  0
   -8.8380   21.9220  -30.1880 F   0  0  0  0  0  0  0  0  0  0  0  0
   -9.9170   21.3460  -32.0820 F   0  0  0  0  0  0  0  0  0  0  0  0
   -8.6110   23.1780  -32.0470 F   0  0  0  0  0  0  0  0  0  0  0  0
   -6.3240   21.4230  -31.5970 N   0  0  0  0  0  0  0  0  0  0  0  0
   -5.2520   20.6570  -31.9350 C   0  0  0  0  0  0  0  0  0  0  0  0
   -4.0450   20.9850  -31.5780 N   0  0  0  0  0  0  0  0  0  0  0  0
   -3.6420   22.1840  -30.8930 C   0  0  0  0  0  0  0  0  0  0  0  0
   -4.4200   23.3590  -30.9230 C   0  0  0  0  0  0  0  0  0  0  0  0
   -5.3802   23.3677  -31.4596 H   0  0  0  0  0  0  0  0  0  0  0  0
   -3.9740   24.5140  -30.2720 C   0  0  0  0  0  0  0  0  0  0  0  0
   -4.5925   25.4236  -30.2830 H   0  0  0  0  0  0  0  0  0  0  0  0
   -2.7450   24.5150  -29.6080 C   0  0  0  0  0  0  0  0  0  0  0  0
   -2.3040   25.6630  -28.9620 O   0  0  0  0  0  0  0  0  0  0  0  0
   -1.9550   23.3610  -29.6010 C   0  0  0  0  0  0  0  0  0  0  0  0
   -0.9840   23.3631  -29.0842 H   0  0  0  0  0  0  0  0  0  0  0  0
   -2.3980   22.2050  -30.2500 C   0  0  0  0  0  0  0  0  0  0  0  0
   -1.7650   21.3054  -30.2557 H   0  0  0  0  0  0  0  0  0  0  0  0
   -5.4490   19.5020  -32.6190 N   0  0  0  0  0  0  0  0  0  0  0  0
   -4.8070   17.4720  -34.7720 C   0  0  0  0  0  0  0  0  0  0  0  0
   -4.6918   18.5374  -35.0203 H   0  0  0  0  0  0  0  0  0  0  0  0
   -3.8420   16.5530  -35.1940 C   0  0  0  0  0  0  0  0  0  0  0  0
   -2.9663   16.9000  -35.7621 H   0  0  0  0  0  0  0  0  0  0  0  0
  1  2  1  0
  2  3  1  0
  3  4  2  0
  3  5  2  0
  3  6  1  0
  6  7  2  0
  7  8  1  0
  7  9  1  0
  9 10  1  0
  9 11  2  0
 11 12  1  0
 12 13  2  0
 13 14  1  0
 14 15  1  0
 15 16  1  0
 16 17  1  0
 16 18  1  0
 16 19  1  0
 15 20  2  0
 20 21  1  0
 21 22  2  3
 22 23  1  0
 23 24  2  0
 24 25  1  0
 24 26  1  0
 26 27  1  0
 26 28  2  0
 28 29  1  0
 28 30  1  0
 30 31  1  0
 30 32  2  0
 32 33  1  0
 21 34  1  0
 11 35  1  0
 35 36  1  0
 35 37  2  0
 37 38  1  0
 37  6  1  0
 34 13  1  0
 32 23  1  0
M  CHG  4   2  -1  14  -1  29  -1  34  -1
M  END
>  <UniqueID>  (34) 
32

>  <SMILES>  (34) 
[NH-]S(=O)(=O)c1ccc(/N=c2/[n-]c(C(F)(F)F)nc(=Nc3ccc([O-])cc3)[n-]2)cc1

>  <Energy>  (34) 
52.71325286534033

>  <Genealogy>  (34) 
[NH-]S(=O)(=O)c1ccc(N=c2[n-]c(C(F)(F)F)nc(=Nc3ccc([O-])cc3)[n-]2)cc1 (protonated)
[NH-]S(=O)(=O)c1ccc(/N=c2/[n-]c(C(F)(F)F)nc(=Nc3ccc([O-])cc3)[n-]2)cc1 (cis-trans isomerization)
[NH-]S(=O)(=O)c1ccc(/N=c2/[n-]c(C(F)(F)F)nc(=Nc3ccc([O-])cc3)[n-]2)cc1 (3D coordinates assigned)
[NH-]S(=O)(=O)c1ccc(/N=c2/[n-]c(C(F)(F)F)nc(=Nc3ccc([O-])cc3)[n-]2)cc1 (optimized conformer: 52.71325286534033 kcal/mol)

>  <smiles>  (34) 
NS(=O)(=O)c1ccc(N=c2[nH]c(C(F)(F)F)nc(=Nc3ccc(O)cc3)[nH]2)cc1

>  <score_type>  (34) 
oracle

>  <origin>  (34) 
adgpu

>  <m_score__min__energy>  (34) 
-9.7899999999999991

>  <m_primary>  (34) 
energy

$$$$
34:0
     RDKit          3D

 43 46  0  0  0  0  0  0  0  0999 V2000
   -1.1930   19.7420  -30.9940 C   0  0  0  0  0  0  0  0  0  0  0  0
   -1.1040   20.0900  -32.4080 N   0  0  0  0  0  0  0  0  0  0  0  0
   -0.3750   21.0970  -32.8610 N   0  0  0  0  0  0  0  0  0  0  0  0
   -0.5350   21.1520  -34.1980 C   0  0  0  0  0  0  0  0  0  0  0  0
   -1.4010   20.1550  -34.6040 C   0  0  0  0  0  0  0  0  0  0  0  0
   -1.7440   19.4990  -33.4400 C   0  0  0  0  0  0  0  0  0  0  0  0
   -2.6700   18.3510  -33.3410 C   0  0  0  0  0  0  0  0  0  0  0  0
   -2.1560   17.0840  -33.0280 C   0  0  0  0  0  0  0  0  0  0  0  0
   -2.9920   16.0340  -32.8220 N   0  0  0  0  0  0  0  0  0  0  0  0
   -4.3410   16.1680  -32.9050 C   0  0  0  0  0  0  0  0  0  0  0  0
   -4.9030   17.4050  -33.2170 C   0  0  0  0  0  0  0  0  0  0  0  0
   -4.0730   18.5030  -33.4660 C   0  0  0  0  0  0  0  0  0  0  0  0
   -4.6800   19.7160  -33.8300 O   0  0  0  0  0  0  0  0  0  0  0  0
   -4.8780   20.8060  -32.9700 C   0  0  0  0  0  0  0  0  0  0  0  0
   -3.7520   21.4930  -32.5050 C   0  0  0  0  0  0  0  0  0  0  0  0
   -3.8890   22.6280  -31.7010 C   0  0  0  0  0  0  0  0  0  0  0  0
   -2.7730   23.2790  -31.2880 F   0  0  0  0  0  0  0  0  0  0  0  0
   -5.1680   23.0770  -31.3330 C   0  0  0  0  0  0  0  0  0  0  0  0
   -5.3910   24.4990  -30.3120 S   0  0  0  0  0  0  0  0  0  0  0  0
   -6.8560   24.8260  -30.2480 O   0  0  0  0  0  0  0  0  0  0  0  0
   -4.6620   25.6910  -30.8660 O   0  0  0  0  0  0  0  0  0  0  0  0
   -4.8110   24.1610  -28.7150 N   0  0  0  0  0  0  0  0  0  0  0  0
   -3.4130   24.0520  -28.4290 C   0  0  0  0  0  0  0  0  0  0  0  0
   -2.9000   23.0760  -27.5810 C   0  0  0  0  0  0  0  0  0  0  0  0
   -1.2340   23.2900  -27.5200 S   0  0  0  0  0  0  0  0  0  0  0  0
   -1.2370   24.6060  -28.5650 C   0  0  0  0  0  0  0  0  0  0  0  0
   -2.4920   24.8960  -28.9710 N   0  0  0  0  0  0  0  0  0  0  0  0
   -6.2960   22.3580  -31.7480 C   0  0  0  0  0  0  0  0  0  0  0  0
   -6.1620   21.2220  -32.5540 C   0  0  0  0  0  0  0  0  0  0  0  0
   -7.6110   20.3020  -32.9380 Cl  0  0  0  0  0  0  0  0  0  0  0  0
   -0.9663   20.6284  -30.3833 H   0  0  0  0  0  0  0  0  0  0  0  0
   -2.2100   19.3902  -30.7663 H   0  0  0  0  0  0  0  0  0  0  0  0
   -0.4698   18.9451  -30.7663 H   0  0  0  0  0  0  0  0  0  0  0  0
   -0.0498   21.8801  -34.8647 H   0  0  0  0  0  0  0  0  0  0  0  0
   -1.7409   19.9338  -35.6265 H   0  0  0  0  0  0  0  0  0  0  0  0
   -1.0683   16.9400  -32.9489 H   0  0  0  0  0  0  0  0  0  0  0  0
   -4.9912   15.2990  -32.7257 H   0  0  0  0  0  0  0  0  0  0  0  0
   -5.9961   17.5173  -33.2672 H   0  0  0  0  0  0  0  0  0  0  0  0
   -2.7472   21.1360  -32.7751 H   0  0  0  0  0  0  0  0  0  0  0  0
   -5.5070   24.0100  -27.9530 H   0  0  0  0  0  0  0  0  0  0  0  0
   -3.4779   22.3062  -27.0486 H   0  0  0  0  0  0  0  0  0  0  0  0
   -0.3375   25.1572  -28.8765 H   0  0  0  0  0  0  0  0  0  0  0  0
   -7.2976   22.6897  -31.4371 H   0  0  0  0  0  0  0  0  0  0  0  0
  1  2  1  0
  2  3  1  0
  3  4  2  0
  4  5  1  0
  5  6  2  0
  6  7  1  0
  7  8  2  0
  8  9  1  0
  9 10  2  0
 10 11  1  0
 11 12  2  0
 12 13  1  0
 13 14  1  0
 14 15  2  0
 15 16  1  0
 16 17  1  0
 16 18  2  0
 18 19  1  0
 19 20  2  0
 19 21  2  0
 19 22  1  0
 22 23  1  0
 23 24  2  0
 24 25  1  0
 25 26  1  0
 26 27  2  0
 18 28  1  0
 28 29  2  0
 29 30  1  0
  6  2  1  0
 12  7  1  0
 29 14  1  0
 27 23  1  0
  1 31  1  0
  1 32  1  0
  1 33  1  0
  4 34  1  0
  5 35  1  0
  8 36  1  0
 10 37  1  0
 11 38  1  0
 15 39  1  0
 22 40  1  0
 24 41  1  0
 26 42  1  0
 28 43  1  0
M  END
>  <UniqueID>  (35) 
33

>  <SMILES>  (35) 
Cn1nccc1-c1cnccc1Oc1cc(F)c(S(=O)(=O)Nc2cscn2)cc1Cl

>  <Energy>  (35) 
122.86488407059039

>  <Genealogy>  (35) 
Cn1nccc1-c1cnccc1Oc1cc(F)c(S(=O)(=O)Nc2cscn2)cc1Cl (3D coordinates assigned)
Cn1nccc1-c1cnccc1Oc1cc(F)c(S(=O)(=O)Nc2cscn2)cc1Cl (optimized conformer: 122.86488407059039 kcal/mol)

>  <smiles>  (35) 
Cn1nccc1-c1cnccc1Oc1cc(F)c(S(=O)(=O)Nc2cscn2)cc1Cl

>  <score_type>  (35) 
oracle

>  <origin>  (35) 
adgpu

>  <m_score__min__energy>  (35) 
-8.8800000000000008

>  <m_primary>  (35) 
energy

$$$$
35:0
     RDKit          3D

 47 51  0  0  0  0  0  0  0  0999 V2000
   -6.4360   17.0000  -34.4960 C   0  0  0  0  0  0  0  0  0  0  0  0
   -5.4890   17.7620  -35.1840 C   0  0  0  0  0  0  0  0  0  0  0  0
   -4.6280   18.6120  -34.4810 C   0  0  0  0  0  0  0  0  0  0  0  0
   -4.7100   18.7040  -33.0810 C   0  0  0  0  0  0  0  0  0  0  0  0
   -3.7970   19.5990  -32.3430 C   0  0  0  0  0  0  0  0  0  0  0  0
   -2.8760   20.3950  -32.9210 N   0  0  0  0  0  0  0  0  0  0  0  0
   -2.2680   21.0380  -31.9370 N   0  0  0  0  0  0  0  0  0  0  0  0
   -2.8420   20.6090  -30.8000 C   0  0  0  0  0  0  0  0  0  0  0  0
   -2.3880   21.1850  -29.1700 S   0  0  0  0  0  0  0  0  0  0  0  0
   -3.0520   22.8180  -29.4830 C   0  0  0  0  0  0  0  0  0  0  0  0
   -2.4890   24.0290  -29.1010 C   0  0  0  0  0  0  0  0  0  0  0  0
   -3.2770   25.0550  -29.4950 N   0  0  0  0  0  0  0  0  0  0  0  0
   -4.3300   24.4960  -30.1200 C   0  0  0  0  0  0  0  0  0  0  0  0
   -5.4160   25.1500  -30.6940 C   0  0  0  0  0  0  0  0  0  0  0  0
   -6.4190   24.3630  -31.2900 C   0  0  0  0  0  0  0  0  0  0  0  0
   -6.3260   22.9470  -31.2950 C   0  0  0  0  0  0  0  0  0  0  0  0
   -7.3580   22.1520  -31.9120 N   0  0  0  0  0  0  0  0  0  0  0  0
   -8.7780   22.4530  -31.6840 C   0  0  0  0  0  0  0  0  0  0  0  0
   -9.4970   21.2300  -31.0950 C   0  0  0  0  0  0  0  0  0  0  0  0
   -8.9850   19.8860  -31.6610 C   0  0  0  0  0  0  0  0  0  0  0  0
   -8.1900   20.0570  -32.9620 C   0  0  0  0  0  0  0  0  0  0  0  0
   -6.9900   20.9910  -32.7370 C   0  0  0  0  0  0  0  0  0  0  0  0
   -5.2010   22.3210  -30.7090 C   0  0  0  0  0  0  0  0  0  0  0  0
   -4.2270   23.1310  -30.1310 C   0  0  0  0  0  0  0  0  0  0  0  0
   -3.7800   19.7270  -31.0380 O   0  0  0  0  0  0  0  0  0  0  0  0
   -5.6660   17.9320  -32.3970 C   0  0  0  0  0  0  0  0  0  0  0  0
   -6.5250   17.0850  -33.1040 C   0  0  0  0  0  0  0  0  0  0  0  0
   -7.1122   16.3325  -35.0503 H   0  0  0  0  0  0  0  0  0  0  0  0
   -5.4199   17.6939  -36.2797 H   0  0  0  0  0  0  0  0  0  0  0  0
   -3.8838   19.2108  -35.0265 H   0  0  0  0  0  0  0  0  0  0  0  0
   -1.5394   24.1378  -28.5566 H   0  0  0  0  0  0  0  0  0  0  0  0
   -3.1020   26.0720  -29.3410 H   0  0  0  0  0  0  0  0  0  0  0  0
   -5.4882   26.2476  -30.6822 H   0  0  0  0  0  0  0  0  0  0  0  0
   -7.2862   24.8518  -31.7580 H   0  0  0  0  0  0  0  0  0  0  0  0
   -8.8617   23.2956  -30.9818 H   0  0  0  0  0  0  0  0  0  0  0  0
   -9.2461   22.7136  -32.6447 H   0  0  0  0  0  0  0  0  0  0  0  0
   -9.3477   21.2290  -30.0052 H   0  0  0  0  0  0  0  0  0  0  0  0
  -10.5590   21.3144  -31.3688 H   0  0  0  0  0  0  0  0  0  0  0  0
   -8.3347   19.4128  -30.9106 H   0  0  0  0  0  0  0  0  0  0  0  0
   -9.8636   19.2640  -31.8873 H   0  0  0  0  0  0  0  0  0  0  0  0
   -7.8267   19.0742  -33.2968 H   0  0  0  0  0  0  0  0  0  0  0  0
   -8.8468   20.4973  -33.7267 H   0  0  0  0  0  0  0  0  0  0  0  0
   -6.1911   20.4306  -32.2294 H   0  0  0  0  0  0  0  0  0  0  0  0
   -6.6495   21.3576  -33.7166 H   0  0  0  0  0  0  0  0  0  0  0  0
   -5.0985   21.2258  -30.7099 H   0  0  0  0  0  0  0  0  0  0  0  0
   -5.7383   17.9948  -31.3012 H   0  0  0  0  0  0  0  0  0  0  0  0
   -7.2719   16.4848  -32.5637 H   0  0  0  0  0  0  0  0  0  0  0  0
  1  2  2  0
  2  3  1  0
  3  4  2  0
  4  5  1  0
  5  6  2  0
  6  7  1  0
  7  8  2  0
  8  9  1  0
  9 10  1  0
 10 11  2  0
 11 12  1  0
 12 13  1  0
 13 14  2  0
 14 15  1  0
 15 16  2  0
 16 17  1  0
 17 18  1  0
 18 19  1  0
 19 20  1  0
 20 21  1  0
 21 22  1  0
 16 23  1  0
 23 24  2  0
  8 25  1  0
  4 26  1  0
 26 27  2  0
 27  1  1  0
 25  5  1  0
 24 10  1  0
 24 13  1  0
 22 17  1  0
  1 28  1  0
  2 29  1  0
  3 30  1  0
 11 31  1  0
 12 32  1  0
 14 33  1  0
 15 34  1  0
 18 35  1  0
 18 36  1  0
 19 37  1  0
 19 38  1  0
 20 39  1  0
 20 40  1  0
 21 41  1  0
 21 42  1  0
 22 43  1  0
 22 44  1  0
 23 45  1  0
 26 46  1  0
 27 47  1  0
M  END
>  <UniqueID>  (36) 
34

>  <SMILES>  (36) 
c1ccc(-c2nnc(Sc3c[nH]c4ccc(N5CCCCC5)cc34)o2)cc1

>  <Energy>  (36) 
120.89296638094962

>  <Genealogy>  (36) 
c1ccc(-c2nnc(Sc3c[nH]c4ccc(N5CCCCC5)cc34)o2)cc1 (3D coordinates assigned)
c1ccc(-c2nnc(Sc3c[nH]c4ccc(N5CCCCC5)cc34)o2)cc1 (nonaromatic ring conformer: 120.89296638094962 kcal/mol)

>  <smiles>  (36) 
c1ccc(-c2nnc(Sc3c[nH]c4ccc(N5CCCCC5)cc34)o2)cc1

>  <score_type>  (36) 
oracle

>  <origin>  (36) 
adgpu

>  <m_score__min__energy>  (36) 
-9.4399999999999995

>  <m_primary>  (36) 
energy

$$$$
36:0
     RDKit          3D

 59 62  0  0  0  0  0  0  0  0999 V2000
   -0.7570   16.7140  -35.3700 C   0  0  0  0  0  0  0  0  0  0  0  0
   -1.9120   16.6270  -34.4850 N   0  0  0  0  0  0  0  0  0  0  0  0
   -2.7170   17.7770  -34.1880 C   0  0  0  0  0  0  0  0  0  0  0  0
   -2.3480   18.9160  -34.5820 O   0  0  0  0  0  0  0  0  0  0  0  0
   -3.9790   17.6370  -33.4280 C   0  0  0  0  0  0  0  0  0  0  0  0
   -4.9240   18.6790  -33.3980 C   0  0  0  0  0  0  0  0  0  0  0  0
   -6.1230   18.5090  -32.6800 C   0  0  0  0  0  0  0  0  0  0  0  0
   -7.1120   19.5040  -32.6330 O   0  0  0  0  0  0  0  0  0  0  0  0
   -6.8990   20.8470  -32.2970 C   0  0  0  0  0  0  0  0  0  0  0  0
   -5.7550   21.5460  -32.7210 C   0  0  0  0  0  0  0  0  0  0  0  0
   -5.5740   22.8870  -32.3640 C   0  0  0  0  0  0  0  0  0  0  0  0
   -6.5410   23.5520  -31.5900 C   0  0  0  0  0  0  0  0  0  0  0  0
   -6.4140   24.9300  -31.2110 N   0  0  0  0  0  0  0  0  0  0  0  0
   -5.2370   25.5980  -30.7420 C   0  0  0  0  0  0  0  0  0  0  0  0
   -5.3340   26.7840  -30.3290 O   0  0  0  0  0  0  0  0  0  0  0  0
   -3.9520   24.9730  -30.8350 N   0  0  0  0  0  0  0  0  0  0  0  0
   -3.3670   24.0870  -29.8690 C   0  0  0  0  0  0  0  0  0  0  0  0
   -4.0190   22.8830  -29.6050 C   0  0  0  0  0  0  0  0  0  0  0  0
   -3.5070   21.9910  -28.6680 C   0  0  0  0  0  0  0  0  0  0  0  0
   -2.3260   22.2820  -27.9640 C   0  0  0  0  0  0  0  0  0  0  0  0
   -1.8340   21.2720  -26.9620 C   0  0  0  0  0  0  0  0  0  0  0  0
   -1.6690   23.5230  -28.1930 C   0  0  0  0  0  0  0  0  0  0  0  0
   -0.1570   23.9950  -27.3710 S   0  0  0  0  0  0  0  0  0  0  0  0
    0.6500   22.7620  -27.0760 O   0  0  0  0  0  0  0  0  0  0  0  0
    0.6950   24.9170  -28.1990 O   0  0  0  0  0  0  0  0  0  0  0  0
   -0.5810   24.7930  -25.8210 C   0  0  0  0  0  0  0  0  0  0  0  0
   -0.0660   26.2270  -25.7180 C   0  0  0  0  0  0  0  0  0  0  0  0
   -1.5020   26.7350  -25.6830 C   0  0  0  0  0  0  0  0  0  0  0  0
   -2.0180   25.3040  -25.7750 C   0  0  0  0  0  0  0  0  0  0  0  0
   -2.2130   24.4250  -29.1350 C   0  0  0  0  0  0  0  0  0  0  0  0
   -1.6180   25.6700  -29.3150 O   0  0  0  0  0  0  0  0  0  0  0  0
   -7.6530   22.8350  -31.1280 C   0  0  0  0  0  0  0  0  0  0  0  0
   -7.8290   21.4920  -31.4780 C   0  0  0  0  0  0  0  0  0  0  0  0
   -6.3660   17.2940  -32.0340 C   0  0  0  0  0  0  0  0  0  0  0  0
   -5.4050   16.2830  -32.0840 C   0  0  0  0  0  0  0  0  0  0  0  0
   -4.2460   16.4750  -32.7690 N   0  0  0  0  0  0  0  0  0  0  0  0
    0.1614   16.7832  -34.7685 H   0  0  0  0  0  0  0  0  0  0  0  0
   -0.7129   15.8166  -36.0047 H   0  0  0  0  0  0  0  0  0  0  0  0
   -0.8479   17.6078  -36.0047 H   0  0  0  0  0  0  0  0  0  0  0  0
   -2.1530   15.6980  -34.0720 H   0  0  0  0  0  0  0  0  0  0  0  0
   -4.7273   19.6203  -33.9321 H   0  0  0  0  0  0  0  0  0  0  0  0
   -4.9988   21.0364  -33.3362 H   0  0  0  0  0  0  0  0  0  0  0  0
   -4.6708   23.4233  -32.6906 H   0  0  0  0  0  0  0  0  0  0  0  0
   -4.9465   22.6362  -30.1424 H   0  0  0  0  0  0  0  0  0  0  0  0
   -4.0339   21.0448  -28.4755 H   0  0  0  0  0  0  0  0  0  0  0  0
   -2.0165   21.6466  -25.9440 H   0  0  0  0  0  0  0  0  0  0  0  0
   -2.3704   20.3224  -27.1049 H   0  0  0  0  0  0  0  0  0  0  0  0
   -0.7556   21.1090  -27.1049 H   0  0  0  0  0  0  0  0  0  0  0  0
   -0.2399   24.0250  -25.1112 H   0  0  0  0  0  0  0  0  0  0  0  0
    0.5070   26.4345  -24.8022 H   0  0  0  0  0  0  0  0  0  0  0  0
    0.6470   26.6188  -26.4584 H   0  0  0  0  0  0  0  0  0  0  0  0
   -1.7725   27.2497  -24.7492 H   0  0  0  0  0  0  0  0  0  0  0  0
   -1.8395   27.4935  -26.4047 H   0  0  0  0  0  0  0  0  0  0  0  0
   -2.5850   24.9728  -24.8925 H   0  0  0  0  0  0  0  0  0  0  0  0
   -2.7369   25.0192  -26.5574 H   0  0  0  0  0  0  0  0  0  0  0  0
   -8.3937   23.3325  -30.4847 H   0  0  0  0  0  0  0  0  0  0  0  0
   -8.7051   20.9405  -31.1060 H   0  0  0  0  0  0  0  0  0  0  0  0
   -7.3086   17.1353  -31.4896 H   0  0  0  0  0  0  0  0  0  0  0  0
   -5.5856   15.3285  -31.5680 H   0  0  0  0  0  0  0  0  0  0  0  0
  1  2  1  0
  2  3  1  0
  3  4  2  0
  3  5  1  0
  5  6  2  0
  6  7  1  0
  7  8  1  0
  8  9  1  0
  9 10  2  0
 10 11  1  0
 11 12  2  0
 12 13  1  0
 13 14  1  0
 14 15  2  0
 14 16  1  0
 16 17  1  0
 17 18  2  0
 18 19  1  0
 19 20  2  0
 20 21  1  0
 20 22  1  0
 22 23  1  0
 23 24  2  0
 23 25  2  0
 23 26  1  0
 26 27  1  0
 27 28  1  0
 28 29  1  0
 22 30  2  0
 30 31  1  0
 12 32  1  0
 32 33  2  0
  7 34  2  0
 34 35  1  0
 35 36  2  0
 36  5  1  0
 33  9  1  0
 30 17  1  0
 29 26  1  0
  1 37  1  0
  1 38  1  0
  1 39  1  0
  2 40  1  0
  6 41  1  0
 10 42  1  0
 11 43  1  0
 18 44  1  0
 19 45  1  0
 21 46  1  0
 21 47  1  0
 21 48  1  0
 26 49  1  0
 27 50  1  0
 27 51  1  0
 28 52  1  0
 28 53  1  0
 29 54  1  0
 29 55  1  0
 32 56  1  0
 33 57  1  0
 34 58  1  0
 35 59  1  0
M  CHG  3  13  -1  16  -1  31  -1
M  END
>  <UniqueID>  (37) 
35

>  <SMILES>  (37) 
CNC(=O)c1cc(Oc2ccc([N-]C(=O)[N-]c3ccc(C)c(S(=O)(=O)C4CCC4)c3[O-])cc2)ccn1

>  <Energy>  (37) 
137.65082590439704

>  <Genealogy>  (37) 
CNC(=O)c1cc(Oc2ccc([N-]C(=O)[N-]c3ccc(C)c(S(=O)(=O)C4CCC4)c3[O-])cc2)ccn1 (protonated)
CNC(=O)c1cc(Oc2ccc([N-]C(=O)[N-]c3ccc(C)c(S(=O)(=O)C4CCC4)c3[O-])cc2)ccn1 (3D coordinates assigned)
CNC(=O)c1cc(Oc2ccc([N-]C(=O)[N-]c3ccc(C)c(S(=O)(=O)C4CCC4)c3[O-])cc2)ccn1 (nonaromatic ring conformer: 137.65082590439704 kcal/mol)

>  <smiles>  (37) 
CNC(=O)c1cc(Oc2ccc(NC(=O)Nc3ccc(C)c(S(=O)(=O)C4CCC4)c3O)cc2)ccn1

>  <score_type>  (37) 
oracle

>  <origin>  (37) 
adgpu

>  <m_score__min__energy>  (37) 
-16.280000000000001

>  <m_primary>  (37) 
energy

$$$$
37:0
     RDKit          3D

 42 44  0  0  0  0  0  0  0  0999 V2000
   -1.0060   21.6960  -26.7940 C   0  0  0  0  0  0  0  0  0  0  0  0
   -1.6850   22.6500  -27.7450 C   0  0  0  0  0  0  0  0  0  0  0  0
   -2.7730   22.1730  -28.4920 C   0  0  0  0  0  0  0  0  0  0  0  0
   -3.4500   23.0030  -29.3800 C   0  0  0  0  0  0  0  0  0  0  0  0
   -3.0720   24.3420  -29.5240 C   0  0  0  0  0  0  0  0  0  0  0  0
   -3.7290   25.2160  -30.4560 N   0  0  0  0  0  0  0  0  0  0  0  0
   -5.1220   25.2170  -30.7950 C   0  0  0  0  0  0  0  0  0  0  0  0
   -5.9470   25.8820  -30.1160 O   0  0  0  0  0  0  0  0  0  0  0  0
   -5.5750   24.5470  -31.9750 N   0  0  0  0  0  0  0  0  0  0  0  0
   -6.3370   23.3330  -31.9910 C   0  0  0  0  0  0  0  0  0  0  0  0
   -7.6690   23.3690  -31.5560 C   0  0  0  0  0  0  0  0  0  0  0  0
   -8.4440   22.2060  -31.5540 C   0  0  0  0  0  0  0  0  0  0  0  0
   -7.8880   20.9940  -31.9690 C   0  0  0  0  0  0  0  0  0  0  0  0
   -6.5520   20.9380  -32.3720 C   0  0  0  0  0  0  0  0  0  0  0  0
   -6.0120   19.7520  -32.7470 F   0  0  0  0  0  0  0  0  0  0  0  0
   -5.7680   22.0990  -32.3700 C   0  0  0  0  0  0  0  0  0  0  0  0
   -4.4220   22.0080  -32.7110 O   0  0  0  0  0  0  0  0  0  0  0  0
   -1.9840   24.8350  -28.7910 C   0  0  0  0  0  0  0  0  0  0  0  0
   -1.6110   26.1640  -28.9680 O   0  0  0  0  0  0  0  0  0  0  0  0
   -1.2820   24.0070  -27.8870 C   0  0  0  0  0  0  0  0  0  0  0  0
    0.1000   24.6840  -26.9800 S   0  0  0  0  0  0  0  0  0  0  0  0
    1.2740   24.8930  -27.8930 O   0  0  0  0  0  0  0  0  0  0  0  0
    0.5330   23.7010  -25.9280 O   0  0  0  0  0  0  0  0  0  0  0  0
   -0.2810   26.2520  -26.1750 C   0  0  0  0  0  0  0  0  0  0  0  0
   -1.6780   26.3470  -25.5640 C   0  0  0  0  0  0  0  0  0  0  0  0
   -1.0600   26.4840  -24.1790 C   0  0  0  0  0  0  0  0  0  0  0  0
    0.3320   26.3960  -24.7860 C   0  0  0  0  0  0  0  0  0  0  0  0
   -1.2201   21.9968  -25.7578 H   0  0  0  0  0  0  0  0  0  0  0  0
   -1.3831   20.6770  -26.9654 H   0  0  0  0  0  0  0  0  0  0  0  0
    0.0803   21.7186  -26.9654 H   0  0  0  0  0  0  0  0  0  0  0  0
   -3.0952   21.1279  -28.3738 H   0  0  0  0  0  0  0  0  0  0  0  0
   -4.2869   22.6041  -29.9720 H   0  0  0  0  0  0  0  0  0  0  0  0
   -8.1070   24.3184  -31.2141 H   0  0  0  0  0  0  0  0  0  0  0  0
   -9.4930   22.2453  -31.2252 H   0  0  0  0  0  0  0  0  0  0  0  0
   -8.5032   20.0822  -31.9785 H   0  0  0  0  0  0  0  0  0  0  0  0
    0.0046   26.9279  -26.9945 H   0  0  0  0  0  0  0  0  0  0  0  0
   -2.2519   27.2273  -25.8892 H   0  0  0  0  0  0  0  0  0  0  0  0
   -2.4287   25.5686  -25.7651 H   0  0  0  0  0  0  0  0  0  0  0  0
   -1.2741   27.4435  -23.6854 H   0  0  0  0  0  0  0  0  0  0  0  0
   -1.3565   25.8015  -23.3689 H   0  0  0  0  0  0  0  0  0  0  0  0
    0.9373   27.3051  -24.6546 H   0  0  0  0  0  0  0  0  0  0  0  0
    1.0538   25.6525  -24.4168 H   0  0  0  0  0  0  0  0  0  0  0  0
  1  2  1  0
  2  3  2  0
  3  4  1  0
  4  5  2  0
  5  6  1  0
  6  7  1  0
  7  8  2  0
  7  9  1  0
  9 10  1  0
 10 11  2  0
 11 12  1  0
 12 13  2  0
 13 14  1  0
 14 15  1  0
 14 16  2  0
 16 17  1  0
  5 18  1  0
 18 19  1  0
 18 20  2  0
 20 21  1  0
 21 22  2  0
 21 23  2  0
 21 24  1  0
 24 25  1  0
 25 26  1  0
 26 27  1  0
 20  2  1  0
 27 24  1  0
 16 10  1  0
  1 28  1  0
  1 29  1  0
  1 30  1  0
  3 31  1  0
  4 32  1  0
 11 33  1  0
 12 34  1  0
 13 35  1  0
 24 36  1  0
 25 37  1  0
 25 38  1  0
 26 39  1  0
 26 40  1  0
 27 41  1  0
 27 42  1  0
M  CHG  4   6  -1   9  -1  17  -1  19  -1
M  END
>  <UniqueID>  (38) 
36

>  <SMILES>  (38) 
Cc1ccc([N-]C(=O)[N-]c2cccc(F)c2[O-])c([O-])c1S(=O)(=O)C1CCC1

>  <Energy>  (38) 
114.88245517660906

>  <Genealogy>  (38) 
Cc1ccc([N-]C(=O)[N-]c2cccc(F)c2[O-])c([O-])c1S(=O)(=O)C1CCC1 (protonated)
Cc1ccc([N-]C(=O)[N-]c2cccc(F)c2[O-])c([O-])c1S(=O)(=O)C1CCC1 (3D coordinates assigned)
Cc1ccc([N-]C(=O)[N-]c2cccc(F)c2[O-])c([O-])c1S(=O)(=O)C1CCC1 (nonaromatic ring conformer: 114.88245517660906 kcal/mol)

>  <smiles>  (38) 
Cc1ccc(NC(=O)Nc2cccc(F)c2O)c(O)c1S(=O)(=O)C1CCC1

>  <score_type>  (38) 
oracle

>  <origin>  (38) 
adgpu

>  <m_score__min__energy>  (38) 
-15.01

>  <m_primary>  (38) 
energy

$$$$
38:0
     RDKit          3D

 39 41  0  0  0  0  0  0  0  0999 V2000
   -3.4870   22.4500  -31.8500 C   0  0  0  0  0  0  0  0  0  0  0  0
   -4.9510   22.1680  -31.9390 C   0  0  0  0  0  0  0  0  0  0  0  0
   -5.4720   21.1350  -32.6300 N   0  0  0  0  0  0  0  0  0  0  0  0
   -6.7930   21.2120  -32.5670 N   0  0  0  0  0  0  0  0  0  0  0  0
   -7.1260   22.2970  -31.8420 C   0  0  0  0  0  0  0  0  0  0  0  0
   -8.5360   22.7240  -31.5940 C   0  0  0  0  0  0  0  0  0  0  0  0
   -5.9760   22.9430  -31.4330 C   0  0  0  0  0  0  0  0  0  0  0  0
   -5.8260   24.4470  -30.5240 S   0  0  0  0  0  0  0  0  0  0  0  0
   -4.9580   25.4350  -31.2510 O   0  0  0  0  0  0  0  0  0  0  0  0
   -7.1950   25.0400  -30.3490 O   0  0  0  0  0  0  0  0  0  0  0  0
   -5.1350   24.1270  -28.9650 N   0  0  0  0  0  0  0  0  0  0  0  0
   -3.8950   23.4180  -28.7760 C   0  0  0  0  0  0  0  0  0  0  0  0
   -3.8720   22.1230  -28.2280 C   0  0  0  0  0  0  0  0  0  0  0  0
   -2.6610   21.4440  -28.0310 C   0  0  0  0  0  0  0  0  0  0  0  0
   -1.4440   22.0790  -28.3660 C   0  0  0  0  0  0  0  0  0  0  0  0
   -1.4710   23.3570  -28.9410 C   0  0  0  0  0  0  0  0  0  0  0  0
   -2.6820   24.0240  -29.1410 C   0  0  0  0  0  0  0  0  0  0  0  0
   -2.6680   25.2980  -29.6980 O   0  0  0  0  0  0  0  0  0  0  0  0
   -0.1160   21.3710  -28.2220 C   0  0  0  0  0  0  0  0  0  0  0  0
   -0.1790   20.1940  -27.2450 C   0  0  0  0  0  0  0  0  0  0  0  0
   -1.3840   19.3080  -27.5570 C   0  0  0  0  0  0  0  0  0  0  0  0
   -2.6860   20.0890  -27.3600 C   0  0  0  0  0  0  0  0  0  0  0  0
   -3.1883   22.5075  -30.7929 H   0  0  0  0  0  0  0  0  0  0  0  0
   -2.9274   21.6431  -32.3458 H   0  0  0  0  0  0  0  0  0  0  0  0
   -3.2671   23.4070  -32.3458 H   0  0  0  0  0  0  0  0  0  0  0  0
   -8.7173   22.7789  -30.5104 H   0  0  0  0  0  0  0  0  0  0  0  0
   -8.7041   23.7133  -32.0445 H   0  0  0  0  0  0  0  0  0  0  0  0
   -9.2248   21.9942  -32.0445 H   0  0  0  0  0  0  0  0  0  0  0  0
   -5.7220   24.3680  -28.1360 H   0  0  0  0  0  0  0  0  0  0  0  0
   -4.8180   21.6355  -27.9498 H   0  0  0  0  0  0  0  0  0  0  0  0
   -0.5284   23.8400  -29.2380 H   0  0  0  0  0  0  0  0  0  0  0  0
    0.1909   20.9938  -29.2087 H   0  0  0  0  0  0  0  0  0  0  0  0
    0.6071   22.0973  -27.8224 H   0  0  0  0  0  0  0  0  0  0  0  0
    0.7417   19.5987  -27.3345 H   0  0  0  0  0  0  0  0  0  0  0  0
   -0.2781   20.5843  -26.2214 H   0  0  0  0  0  0  0  0  0  0  0  0
   -1.3213   18.9652  -28.6003 H   0  0  0  0  0  0  0  0  0  0  0  0
   -1.3787   18.4452  -26.8746 H   0  0  0  0  0  0  0  0  0  0  0  0
   -3.5154   19.5026  -27.7820 H   0  0  0  0  0  0  0  0  0  0  0  0
   -2.8135   20.2553  -26.2801 H   0  0  0  0  0  0  0  0  0  0  0  0
  1  2  1  0
  2  3  2  0
  3  4  1  0
  4  5  1  0
  5  6  1  0
  5  7  2  0
  7  8  1  0
  8  9  2  0
  8 10  2  0
  8 11  1  0
 11 12  1  0
 12 13  2  0
 13 14  1  0
 14 15  2  0
 15 16  1  0
 16 17  2  0
 17 18  1  0
 15 19  1  0
 19 20  1  0
 20 21  1  0
 21 22  1  0
  7  2  1  0
 17 12  1  0
 22 14  1  0
  1 23  1  0
  1 24  1  0
  1 25  1  0
  6 26  1  0
  6 27  1  0
  6 28  1  0
 11 29  1  0
 13 30  1  0
 16 31  1  0
 19 32  1  0
 19 33  1  0
 20 34  1  0
 20 35  1  0
 21 36  1  0
 21 37  1  0
 22 38  1  0
 22 39  1  0
M  CHG  2   4  -1  18  -1
M  END
>  <UniqueID>  (39) 
37

>  <SMILES>  (39) 
Cc1n[n-]c(C)c1S(=O)(=O)Nc1cc2c(cc1[O-])CCCC2

>  <Energy>  (39) 
69.60383760673493

>  <Genealogy>  (39) 
Cc1n[n-]c(C)c1S(=O)(=O)Nc1cc2c(cc1[O-])CCCC2 (protonated)
Cc1n[n-]c(C)c1S(=O)(=O)Nc1cc2c(cc1[O-])CCCC2 (3D coordinates assigned)
Cc1n[n-]c(C)c1S(=O)(=O)Nc1cc2c(cc1[O-])CCCC2 (nonaromatic ring conformer: 69.60383760673493 kcal/mol)

>  <smiles>  (39) 
Cc1n[nH]c(C)c1S(=O)(=O)Nc1cc2c(cc1O)CCCC2

>  <score_type>  (39) 
oracle

>  <origin>  (39) 
adgpu

>  <m_score__min__energy>  (39) 
-11.289999999999999

>  <m_primary>  (39) 
energy

$$$$
39:0
     RDKit          3D

 44 46  0  0  0  0  0  0  0  0999 V2000
   -5.4130   18.2460  -32.9240 C   0  0  0  0  0  0  0  0  0  0  0  0
   -3.9370   18.4530  -33.9670 S   0  0  0  0  0  0  0  0  0  0  0  0
   -3.3980   19.9360  -33.1150 C   0  0  0  0  0  0  0  0  0  0  0  0
   -2.0370   20.1400  -32.8580 C   0  0  0  0  0  0  0  0  0  0  0  0
   -1.6170   21.3010  -32.2030 C   0  0  0  0  0  0  0  0  0  0  0  0
   -2.5530   22.2590  -31.8040 C   0  0  0  0  0  0  0  0  0  0  0  0
   -3.9210   22.0590  -32.0490 C   0  0  0  0  0  0  0  0  0  0  0  0
   -4.8780   23.0650  -31.6740 N   0  0  0  0  0  0  0  0  0  0  0  0
   -6.1230   23.2280  -32.4310 C   0  0  0  0  0  0  0  0  0  0  0  0
   -7.1420   22.2110  -31.9880 C   0  0  0  0  0  0  0  0  0  0  0  0
   -7.3160   21.0180  -32.7110 C   0  0  0  0  0  0  0  0  0  0  0  0
   -8.3020   20.1020  -32.3320 C   0  0  0  0  0  0  0  0  0  0  0  0
   -9.1230   20.3720  -31.2340 C   0  0  0  0  0  0  0  0  0  0  0  0
   -8.9610   21.5590  -30.5140 C   0  0  0  0  0  0  0  0  0  0  0  0
   -7.9770   22.4780  -30.8900 C   0  0  0  0  0  0  0  0  0  0  0  0
   -4.5850   24.0760  -30.2900 S   0  0  0  0  0  0  0  0  0  0  0  0
   -5.8850   24.4490  -29.6310 O   0  0  0  0  0  0  0  0  0  0  0  0
   -3.9060   25.3410  -30.7350 O   0  0  0  0  0  0  0  0  0  0  0  0
   -3.5700   23.2220  -29.1320 C   0  0  0  0  0  0  0  0  0  0  0  0
   -3.8630   21.8950  -28.7810 C   0  0  0  0  0  0  0  0  0  0  0  0
   -3.0780   21.2300  -27.8330 C   0  0  0  0  0  0  0  0  0  0  0  0
   -2.0010   21.8860  -27.2310 C   0  0  0  0  0  0  0  0  0  0  0  0
   -1.7060   23.2080  -27.5780 C   0  0  0  0  0  0  0  0  0  0  0  0
   -2.4870   23.8750  -28.5270 C   0  0  0  0  0  0  0  0  0  0  0  0
   -4.3370   20.8900  -32.7060 C   0  0  0  0  0  0  0  0  0  0  0  0
   -5.1216   18.2869  -31.8641 H   0  0  0  0  0  0  0  0  0  0  0  0
   -6.1297   19.0524  -33.1386 H   0  0  0  0  0  0  0  0  0  0  0  0
   -5.8802   17.2735  -33.1386 H   0  0  0  0  0  0  0  0  0  0  0  0
   -1.2988   19.3871  -33.1713 H   0  0  0  0  0  0  0  0  0  0  0  0
   -0.5476   21.4610  -32.0011 H   0  0  0  0  0  0  0  0  0  0  0  0
   -2.2163   23.1744  -31.2954 H   0  0  0  0  0  0  0  0  0  0  0  0
   -6.5216   24.2389  -32.2604 H   0  0  0  0  0  0  0  0  0  0  0  0
   -5.9129   23.0810  -33.5007 H   0  0  0  0  0  0  0  0  0  0  0  0
   -6.6739   20.8043  -33.5782 H   0  0  0  0  0  0  0  0  0  0  0  0
   -8.4315   19.1681  -32.8986 H   0  0  0  0  0  0  0  0  0  0  0  0
   -9.8974   19.6498  -30.9360 H   0  0  0  0  0  0  0  0  0  0  0  0
   -9.6087   21.7703  -29.6503 H   0  0  0  0  0  0  0  0  0  0  0  0
   -7.8560   23.4135  -30.3242 H   0  0  0  0  0  0  0  0  0  0  0  0
   -4.7113   21.3770  -29.2521 H   0  0  0  0  0  0  0  0  0  0  0  0
   -3.3089   20.1894  -27.5611 H   0  0  0  0  0  0  0  0  0  0  0  0
   -1.3856   21.3626  -26.4845 H   0  0  0  0  0  0  0  0  0  0  0  0
   -0.8583   23.7241  -27.1037 H   0  0  0  0  0  0  0  0  0  0  0  0
   -2.2511   24.9143  -28.7994 H   0  0  0  0  0  0  0  0  0  0  0  0
   -5.4067   20.7230  -32.9004 H   0  0  0  0  0  0  0  0  0  0  0  0
  1  2  1  0
  2  3  1  0
  3  4  2  0
  4  5  1  0
  5  6  2  0
  6  7  1  0
  7  8  1  0
  8  9  1  0
  9 10  1  0
 10 11  2  0
 11 12  1  0
 12 13  2  0
 13 14  1  0
 14 15  2  0
  8 16  1  0
 16 17  2  0
 16 18  2  0
 16 19  1  0
 19 20  2  0
 20 21  1  0
 21 22  2  0
 22 23  1  0
 23 24  2  0
  7 25  2  0
 25  3  1  0
 15 10  1  0
 24 19  1  0
  1 26  1  0
  1 27  1  0
  1 28  1  0
  4 29  1  0
  5 30  1  0
  6 31  1  0
  9 32  1  0
  9 33  1  0
 11 34  1  0
 12 35  1  0
 13 36  1  0
 14 37  1  0
 15 38  1  0
 20 39  1  0
 21 40  1  0
 22 41  1  0
 23 42  1  0
 24 43  1  0
 25 44  1  0
M  END
>  <UniqueID>  (40) 
38

>  <SMILES>  (40) 
CSc1cccc(N(Cc2ccccc2)S(=O)(=O)c2ccccc2)c1

>  <Energy>  (40) 
44.020007191768705

>  <Genealogy>  (40) 
CSc1cccc(N(Cc2ccccc2)S(=O)(=O)c2ccccc2)c1 (3D coordinates assigned)
CSc1cccc(N(Cc2ccccc2)S(=O)(=O)c2ccccc2)c1 (optimized conformer: 44.020007191768705 kcal/mol)

>  <smiles>  (40) 
CSc1cccc(N(Cc2ccccc2)S(=O)(=O)c2ccccc2)c1

>  <score_type>  (40) 
oracle

>  <origin>  (40) 
adgpu

>  <m_score__min__energy>  (40) 
-8.9399999999999995

>  <m_primary>  (40) 
energy

$$$$
40:0
     RDKit          3D

 51 54  0  0  0  0  0  0  0  0999 V2000
   -9.8410   22.6790  -30.7780 H   0  0  0  0  0  0  0  0  0  0  0  0
   -9.8400   21.6370  -30.8080 N   0  0  0  0  0  0  0  0  0  0  0  0
   -8.9570   20.9530  -31.4680 C   0  0  0  0  0  0  0  0  0  0  0  0
   -8.9650   19.6000  -31.5000 N   0  0  0  0  0  0  0  0  0  0  0  0
   -9.6340   18.9480  -31.0340 H   0  0  0  0  0  0  0  0  0  0  0  0
   -7.9040   19.2880  -32.2610 C   0  0  0  0  0  0  0  0  0  0  0  0
   -7.4420   18.0210  -32.6060 C   0  0  0  0  0  0  0  0  0  0  0  0
   -7.9611   17.1158  -32.2579 H   0  0  0  0  0  0  0  0  0  0  0  0
   -6.2860   17.9300  -33.4170 C   0  0  0  0  0  0  0  0  0  0  0  0
   -5.7510   16.6030  -33.8140 C   0  0  0  0  0  0  0  0  0  0  0  0
   -6.5940   15.4790  -33.8670 C   0  0  0  0  0  0  0  0  0  0  0  0
   -7.6596   15.5840  -33.6153 H   0  0  0  0  0  0  0  0  0  0  0  0
   -6.0890   14.2290  -34.2370 C   0  0  0  0  0  0  0  0  0  0  0  0
   -6.7569   13.3554  -34.2648 H   0  0  0  0  0  0  0  0  0  0  0  0
   -4.7350   14.0830  -34.5730 C   0  0  0  0  0  0  0  0  0  0  0  0
   -4.1850   12.7310  -34.9350 C   0  0  0  0  0  0  0  0  0  0  0  0
   -3.8321   12.2252  -34.0242 H   0  0  0  0  0  0  0  0  0  0  0  0
   -4.9772   12.1333  -35.4095 H   0  0  0  0  0  0  0  0  0  0  0  0
   -3.0730   12.8800  -35.8670 N   0  0  0  0  0  0  0  0  0  0  0  0
   -2.3710   12.1380  -35.6460 H   0  0  0  0  0  0  0  0  0  0  0  0
   -3.4260   12.6780  -36.8310 H   0  0  0  0  0  0  0  0  0  0  0  0
   -3.8870   15.1980  -34.5060 C   0  0  0  0  0  0  0  0  0  0  0  0
   -2.8195   15.0882  -34.7477 H   0  0  0  0  0  0  0  0  0  0  0  0
   -4.3900   16.4480  -34.1340 C   0  0  0  0  0  0  0  0  0  0  0  0
   -3.7167   17.3168  -34.0912 H   0  0  0  0  0  0  0  0  0  0  0  0
   -5.6410   19.1220  -33.8480 C   0  0  0  0  0  0  0  0  0  0  0  0
   -4.7434   19.0547  -34.4802 H   0  0  0  0  0  0  0  0  0  0  0  0
   -6.1350   20.3860  -33.4770 C   0  0  0  0  0  0  0  0  0  0  0  0
   -5.6367   21.3096  -33.8067 H   0  0  0  0  0  0  0  0  0  0  0  0
   -7.2780   20.4300  -32.6770 C   0  0  0  0  0  0  0  0  0  0  0  0
   -7.9380   21.5030  -32.1870 N   0  0  0  0  0  0  0  0  0  0  0  0
   -7.5790   22.9200  -32.3180 C   0  0  0  0  0  0  0  0  0  0  0  0
   -7.3169   23.1325  -33.3650 H   0  0  0  0  0  0  0  0  0  0  0  0
   -8.4373   23.5360  -32.0115 H   0  0  0  0  0  0  0  0  0  0  0  0
   -6.4020   23.2460  -31.4350 C   0  0  0  0  0  0  0  0  0  0  0  0
   -5.1210   22.7780  -31.7670 C   0  0  0  0  0  0  0  0  0  0  0  0
   -4.9748   22.1877  -32.6836 H   0  0  0  0  0  0  0  0  0  0  0  0
   -4.0300   23.0580  -30.9390 C   0  0  0  0  0  0  0  0  0  0  0  0
   -3.0305   22.6824  -31.2035 H   0  0  0  0  0  0  0  0  0  0  0  0
   -4.2050   23.8150  -29.7740 C   0  0  0  0  0  0  0  0  0  0  0  0
   -2.8330   24.1430  -28.7210 S   0  0  0  0  0  0  0  0  0  0  0  0
   -1.9430   22.9330  -28.6530 O   0  0  0  0  0  0  0  0  0  0  0  0
   -2.0360   25.2980  -29.2620 O   0  0  0  0  0  0  0  0  0  0  0  0
   -3.4220   24.5430  -27.0920 C   0  0  0  0  0  0  0  0  0  0  0  0
   -2.7573   24.0916  -26.3407 H   0  0  0  0  0  0  0  0  0  0  0  0
   -3.4320   25.6354  -26.9637 H   0  0  0  0  0  0  0  0  0  0  0  0
   -4.4411   24.1494  -26.9637 H   0  0  0  0  0  0  0  0  0  0  0  0
   -5.4820   24.2810  -29.4360 C   0  0  0  0  0  0  0  0  0  0  0  0
   -5.6261   24.8688  -28.5175 H   0  0  0  0  0  0  0  0  0  0  0  0
   -6.5740   24.0010  -30.2630 C   0  0  0  0  0  0  0  0  0  0  0  0
   -7.5734   24.3740  -29.9944 H   0  0  0  0  0  0  0  0  0  0  0  0
  1  2  1  0
  2  3  2  0
  3  4  1  0
  4  5  1  0
  4  6  1  0
  6  7  2  0
  7  8  1  0
  7  9  1  0
  9 10  1  0
 10 11  2  0
 11 12  1  0
 11 13  1  0
 13 14  1  0
 13 15  2  0
 15 16  1  0
 16 17  1  0
 16 18  1  0
 16 19  1  0
 19 20  1  0
 19 21  1  0
 15 22  1  0
 22 23  1  0
 22 24  2  0
 24 25  1  0
  9 26  2  0
 26 27  1  0
 26 28  1  0
 28 29  1  0
 28 30  2  0
 30 31  1  0
 31 32  1  0
 32 33  1  0
 32 34  1  0
 32 35  1  0
 35 36  2  0
 36 37  1  0
 36 38  1  0
 38 39  1  0
 38 40  2  0
 40 41  1  0
 41 42  2  0
 41 43  2  0
 41 44  1  0
 44 45  1  0
 44 46  1  0
 44 47  1  0
 40 48  1  0
 48 49  1  0
 48 50  2  0
 50 51  1  0
 31  3  1  0
 50 35  1  0
 30  6  1  0
 24 10  1  0
M  END
>  <UniqueID>  (41) 
39

>  <SMILES>  (41) 
[H]/N=c1/[nH]c2cc(-c3ccc(CN)cc3)ccc2n1Cc1ccc(S(C)(=O)=O)cc1

>  <Energy>  (41) 
95.12603818424262

>  <Genealogy>  (41) 
[H]/N=c1/[nH]c2cc(-c3ccc(CN)cc3)ccc2n1Cc1ccc(S(C)(=O)=O)cc1 (cis-trans isomerization)
[H]/N=c1/[nH]c2cc(-c3ccc(CN)cc3)ccc2n1Cc1ccc(S(C)(=O)=O)cc1 (3D coordinates assigned)
[H]/N=c1/[nH]c2cc(-c3ccc(CN)cc3)ccc2n1Cc1ccc(S(C)(=O)=O)cc1 (optimized conformer: 95.12603818424262 kcal/mol)

>  <smiles>  (41) 
CS(=O)(=O)c1ccc(Cn2c(=N)[nH]c3cc(-c4ccc(CN)cc4)ccc32)cc1

>  <score_type>  (41) 
oracle

>  <origin>  (41) 
adgpu

>  <m_score__min__energy>  (41) 
-9

>  <m_primary>  (41) 
energy

$$$$
41:0
     RDKit          3D

 45 47  0  0  0  0  0  0  0  0999 V2000
   -2.9760   14.2130  -32.3700 C   0  0  0  0  0  0  0  0  0  0  0  0
   -3.9240   14.8840  -33.1940 O   0  0  0  0  0  0  0  0  0  0  0  0
   -5.1110   14.3090  -33.6730 C   0  0  0  0  0  0  0  0  0  0  0  0
   -5.3060   12.9130  -33.6960 C   0  0  0  0  0  0  0  0  0  0  0  0
   -6.5040   12.3740  -34.1680 C   0  0  0  0  0  0  0  0  0  0  0  0
   -7.5170   13.2150  -34.6290 C   0  0  0  0  0  0  0  0  0  0  0  0
   -7.3360   14.5990  -34.6160 C   0  0  0  0  0  0  0  0  0  0  0  0
   -6.1410   15.1570  -34.1320 C   0  0  0  0  0  0  0  0  0  0  0  0
   -5.9550   16.5830  -34.1450 N   0  0  0  0  0  0  0  0  0  0  0  0
   -5.7250   17.2840  -35.2450 N   0  0  0  0  0  0  0  0  0  0  0  0
   -5.6090   18.5730  -34.9620 N   0  0  0  0  0  0  0  0  0  0  0  0
   -5.7750   18.7040  -33.6310 C   0  0  0  0  0  0  0  0  0  0  0  0
   -5.7030   19.9980  -32.9290 C   0  0  0  0  0  0  0  0  0  0  0  0
   -6.3860   20.9650  -33.3620 O   0  0  0  0  0  0  0  0  0  0  0  0
   -4.9340   20.1440  -31.7250 N   0  0  0  0  0  0  0  0  0  0  0  0
   -4.4630   21.4080  -31.2250 C   0  0  0  0  0  0  0  0  0  0  0  0
   -3.1000   21.6280  -30.9570 C   0  0  0  0  0  0  0  0  0  0  0  0
   -2.6710   22.8580  -30.4490 C   0  0  0  0  0  0  0  0  0  0  0  0
   -3.5870   23.8860  -30.2080 C   0  0  0  0  0  0  0  0  0  0  0  0
   -3.1130   25.1230  -29.6590 N   0  0  0  0  0  0  0  0  0  0  0  0
   -2.0630   25.2860  -28.6970 C   0  0  0  0  0  0  0  0  0  0  0  0
   -2.0490   24.5380  -27.3980 C   0  0  0  0  0  0  0  0  0  0  0  0
   -1.1430   26.1120  -28.9340 O   0  0  0  0  0  0  0  0  0  0  0  0
   -4.9550   23.6520  -30.4280 C   0  0  0  0  0  0  0  0  0  0  0  0
   -5.3870   22.4230  -30.9350 C   0  0  0  0  0  0  0  0  0  0  0  0
   -5.9780   17.4390  -33.1020 C   0  0  0  0  0  0  0  0  0  0  0  0
   -6.0890   17.0540  -31.6540 C   0  0  0  0  0  0  0  0  0  0  0  0
   -3.2217   14.3869  -31.3120 H   0  0  0  0  0  0  0  0  0  0  0  0
   -3.0059   13.1338  -32.5808 H   0  0  0  0  0  0  0  0  0  0  0  0
   -1.9681   14.6000  -32.5808 H   0  0  0  0  0  0  0  0  0  0  0  0
   -4.5088   12.2440  -33.3396 H   0  0  0  0  0  0  0  0  0  0  0  0
   -6.6496   11.2837  -34.1764 H   0  0  0  0  0  0  0  0  0  0  0  0
   -8.4589   12.7873  -35.0030 H   0  0  0  0  0  0  0  0  0  0  0  0
   -8.1349   15.2576  -34.9875 H   0  0  0  0  0  0  0  0  0  0  0  0
   -4.8040   19.2980  -31.1250 H   0  0  0  0  0  0  0  0  0  0  0  0
   -2.3684   20.8291  -31.1478 H   0  0  0  0  0  0  0  0  0  0  0  0
   -1.6035   23.0181  -30.2372 H   0  0  0  0  0  0  0  0  0  0  0  0
   -2.0624   25.2536  -26.5627 H   0  0  0  0  0  0  0  0  0  0  0  0
   -2.9352   23.8890  -27.3391 H   0  0  0  0  0  0  0  0  0  0  0  0
   -1.1392   23.9226  -27.3391 H   0  0  0  0  0  0  0  0  0  0  0  0
   -5.6889   24.4391  -30.2003 H   0  0  0  0  0  0  0  0  0  0  0  0
   -6.4595   22.2505  -31.1079 H   0  0  0  0  0  0  0  0  0  0  0  0
   -5.8392   17.9205  -31.0240 H   0  0  0  0  0  0  0  0  0  0  0  0
   -7.1175   16.7286  -31.4389 H   0  0  0  0  0  0  0  0  0  0  0  0
   -5.3915   16.2310  -31.4389 H   0  0  0  0  0  0  0  0  0  0  0  0
  1  2  1  0
  2  3  1  0
  3  4  2  0
  4  5  1  0
  5  6  2  0
  6  7  1  0
  7  8  2  0
  8  9  1  0
  9 10  1  0
 10 11  2  0
 11 12  1  0
 12 13  1  0
 13 14  2  0
 13 15  1  0
 15 16  1  0
 16 17  2  0
 17 18  1  0
 18 19  2  0
 19 20  1  0
 20 21  1  0
 21 22  1  0
 21 23  2  0
 19 24  1  0
 24 25  2  0
 12 26  2  0
 26 27  1  0
  8  3  1  0
 26  9  1  0
 25 16  1  0
  1 28  1  0
  1 29  1  0
  1 30  1  0
  4 31  1  0
  5 32  1  0
  6 33  1  0
  7 34  1  0
 15 35  1  0
 17 36  1  0
 18 37  1  0
 22 38  1  0
 22 39  1  0
 22 40  1  0
 24 41  1  0
 25 42  1  0
 27 43  1  0
 27 44  1  0
 27 45  1  0
M  CHG  1  20  -1
M  END
>  <UniqueID>  (42) 
40

>  <SMILES>  (42) 
COc1ccccc1-n1nnc(C(=O)Nc2ccc([N-]C(C)=O)cc2)c1C

>  <Energy>  (42) 
95.31165032662068

>  <Genealogy>  (42) 
COc1ccccc1-n1nnc(C(=O)Nc2ccc([N-]C(C)=O)cc2)c1C (protonated)
COc1ccccc1-n1nnc(C(=O)Nc2ccc([N-]C(C)=O)cc2)c1C (3D coordinates assigned)
COc1ccccc1-n1nnc(C(=O)Nc2ccc([N-]C(C)=O)cc2)c1C (optimized conformer: 95.31165032662068 kcal/mol)

>  <smiles>  (42) 
COc1ccccc1-n1nnc(C(=O)Nc2ccc(NC(C)=O)cc2)c1C

>  <score_type>  (42) 
oracle

>  <origin>  (42) 
adgpu

>  <m_score__min__energy>  (42) 
-8.6199999999999992

>  <m_primary>  (42) 
energy

$$$$
42:0
     RDKit          3D

 37 38  0  0  0  0  0  0  0  0999 V2000
   -6.0700   17.5170  -33.9190 C   0  0  0  0  0  0  0  0  0  0  0  0
   -6.1110   18.9640  -34.3990 C   0  0  0  0  0  0  0  0  0  0  0  0
   -6.6040   19.8470  -33.3310 N   0  0  0  0  0  0  0  0  0  0  0  0
   -8.0470   19.9740  -33.0810 C   0  0  0  0  0  0  0  0  0  0  0  0
   -8.4970   18.9610  -32.0330 C   0  0  0  0  0  0  0  0  0  0  0  0
   -5.6670   20.5880  -32.5270 C   0  0  0  0  0  0  0  0  0  0  0  0
   -6.1240   21.4660  -31.5320 C   0  0  0  0  0  0  0  0  0  0  0  0
   -5.2140   22.1860  -30.7530 C   0  0  0  0  0  0  0  0  0  0  0  0
   -3.8340   22.0310  -30.9430 C   0  0  0  0  0  0  0  0  0  0  0  0
   -2.9200   22.8000  -30.1420 N   0  0  0  0  0  0  0  0  0  0  0  0
   -3.0920   24.1980  -29.8540 C   0  0  0  0  0  0  0  0  0  0  0  0
   -3.8750   24.8980  -30.5500 O   0  0  0  0  0  0  0  0  0  0  0  0
   -2.3270   24.8470  -28.7750 C   0  0  0  0  0  0  0  0  0  0  0  0
   -2.3150   24.4910  -27.4400 C   0  0  0  0  0  0  0  0  0  0  0  0
   -1.4670   25.3850  -26.8240 C   0  0  0  0  0  0  0  0  0  0  0  0
   -1.0150   26.2300  -27.8160 C   0  0  0  0  0  0  0  0  0  0  0  0
   -1.5450   25.8850  -28.9670 O   0  0  0  0  0  0  0  0  0  0  0  0
   -3.3770   21.1670  -31.9540 C   0  0  0  0  0  0  0  0  0  0  0  0
   -4.2860   20.4480  -32.7340 C   0  0  0  0  0  0  0  0  0  0  0  0
   -6.0694   17.4954  -32.8192 H   0  0  0  0  0  0  0  0  0  0  0  0
   -6.9533   16.9805  -34.2958 H   0  0  0  0  0  0  0  0  0  0  0  0
   -5.1577   17.0314  -34.2958 H   0  0  0  0  0  0  0  0  0  0  0  0
   -5.0975   19.2780  -34.6893 H   0  0  0  0  0  0  0  0  0  0  0  0
   -6.7910   19.0339  -35.2608 H   0  0  0  0  0  0  0  0  0  0  0  0
   -8.2641   20.9900  -32.7195 H   0  0  0  0  0  0  0  0  0  0  0  0
   -8.5895   19.7820  -34.0185 H   0  0  0  0  0  0  0  0  0  0  0  0
   -8.3159   19.3687  -31.0275 H   0  0  0  0  0  0  0  0  0  0  0  0
   -9.5706   18.7566  -32.1579 H   0  0  0  0  0  0  0  0  0  0  0  0
   -7.9290   18.0273  -32.1579 H   0  0  0  0  0  0  0  0  0  0  0  0
   -7.2043   21.5881  -31.3644 H   0  0  0  0  0  0  0  0  0  0  0  0
   -5.5840   22.8803  -29.9842 H   0  0  0  0  0  0  0  0  0  0  0  0
   -2.0330   22.3380  -29.8400 H   0  0  0  0  0  0  0  0  0  0  0  0
   -2.8675   23.6656  -26.9674 H   0  0  0  0  0  0  0  0  0  0  0  0
   -1.2036   25.4182  -25.7565 H   0  0  0  0  0  0  0  0  0  0  0  0
   -0.3164   27.0663  -27.6658 H   0  0  0  0  0  0  0  0  0  0  0  0
   -2.2971   21.0566  -32.1318 H   0  0  0  0  0  0  0  0  0  0  0  0
   -3.9169   19.7676  -33.5156 H   0  0  0  0  0  0  0  0  0  0  0  0
  1  2  1  0
  2  3  1  0
  3  4  1  0
  4  5  1  0
  3  6  1  0
  6  7  2  0
  7  8  1  0
  8  9  2  0
  9 10  1  0
 10 11  1  0
 11 12  2  0
 11 13  1  0
 13 14  2  0
 14 15  1  0
 15 16  2  0
 16 17  1  0
  9 18  1  0
 18 19  2  0
 19  6  1  0
 17 13  1  0
  1 20  1  0
  1 21  1  0
  1 22  1  0
  2 23  1  0
  2 24  1  0
  4 25  1  0
  4 26  1  0
  5 27  1  0
  5 28  1  0
  5 29  1  0
  7 30  1  0
  8 31  1  0
 10 32  1  0
 14 33  1  0
 15 34  1  0
 16 35  1  0
 18 36  1  0
 19 37  1  0
M  END
>  <UniqueID>  (43) 
41

>  <SMILES>  (43) 
CCN(CC)c1ccc(NC(=O)c2ccco2)cc1

>  <Energy>  (43) 
63.1055115607837

>  <Genealogy>  (43) 
CCN(CC)c1ccc(NC(=O)c2ccco2)cc1 (3D coordinates assigned)
CCN(CC)c1ccc(NC(=O)c2ccco2)cc1 (optimized conformer: 63.1055115607837 kcal/mol)

>  <smiles>  (43) 
CCN(CC)c1ccc(NC(=O)c2ccco2)cc1

>  <score_type>  (43) 
oracle

>  <origin>  (43) 
adgpu

>  <m_score__min__energy>  (43) 
-6.9000000000000004

>  <m_primary>  (43) 
energy

$$$$
43:0
     RDKit          3D

 37 39  0  0  0  0  0  0  0  0999 V2000
   -9.2970   21.8000  -31.2500 C   0  0  0  0  0  0  0  0  0  0  0  0
   -7.8910   21.5800  -31.7500 C   0  0  0  0  0  0  0  0  0  0  0  0
   -7.6340   20.5190  -32.6290 C   0  0  0  0  0  0  0  0  0  0  0  0
   -6.3360   20.3210  -33.1070 C   0  0  0  0  0  0  0  0  0  0  0  0
   -6.0930   19.3690  -33.8930 O   0  0  0  0  0  0  0  0  0  0  0  0
   -5.3520   21.1340  -32.7390 O   0  0  0  0  0  0  0  0  0  0  0  0
   -5.5380   22.1570  -31.9100 C   0  0  0  0  0  0  0  0  0  0  0  0
   -4.4550   22.9800  -31.5850 C   0  0  0  0  0  0  0  0  0  0  0  0
   -4.6310   24.0830  -30.7440 C   0  0  0  0  0  0  0  0  0  0  0  0
   -3.5120   24.9360  -30.4730 N   0  0  0  0  0  0  0  0  0  0  0  0
   -2.5090   24.6500  -29.4950 C   0  0  0  0  0  0  0  0  0  0  0  0
   -1.8980   25.6010  -28.9440 O   0  0  0  0  0  0  0  0  0  0  0  0
   -2.2260   23.3060  -29.0890 N   0  0  0  0  0  0  0  0  0  0  0  0
   -3.0990   22.4850  -28.2520 C   0  0  0  0  0  0  0  0  0  0  0  0
   -2.4330   21.1890  -27.8680 C   0  0  0  0  0  0  0  0  0  0  0  0
   -3.1400   20.2210  -27.1310 C   0  0  0  0  0  0  0  0  0  0  0  0
   -2.5200   19.0210  -26.7630 C   0  0  0  0  0  0  0  0  0  0  0  0
   -1.1900   18.7840  -27.1160 C   0  0  0  0  0  0  0  0  0  0  0  0
   -0.4720   19.7520  -27.8230 C   0  0  0  0  0  0  0  0  0  0  0  0
   -1.0840   20.9550  -28.1890 C   0  0  0  0  0  0  0  0  0  0  0  0
   -5.8920   24.3260  -30.1750 C   0  0  0  0  0  0  0  0  0  0  0  0
   -6.9790   23.5050  -30.4850 C   0  0  0  0  0  0  0  0  0  0  0  0
   -6.8200   22.4200  -31.3690 C   0  0  0  0  0  0  0  0  0  0  0  0
   -9.2991   21.8003  -30.1500 H   0  0  0  0  0  0  0  0  0  0  0  0
   -9.6698   22.7674  -31.6177 H   0  0  0  0  0  0  0  0  0  0  0  0
   -9.9474   20.9927  -31.6177 H   0  0  0  0  0  0  0  0  0  0  0  0
   -8.4477   19.8474  -32.9401 H   0  0  0  0  0  0  0  0  0  0  0  0
   -3.4581   22.7581  -31.9937 H   0  0  0  0  0  0  0  0  0  0  0  0
   -3.3476   23.0441  -27.3379 H   0  0  0  0  0  0  0  0  0  0  0  0
   -4.0078   22.2504  -28.8256 H   0  0  0  0  0  0  0  0  0  0  0  0
   -4.1849   20.4081  -26.8426 H   0  0  0  0  0  0  0  0  0  0  0  0
   -3.0811   18.2641  -26.1953 H   0  0  0  0  0  0  0  0  0  0  0  0
   -0.7076   17.8354  -26.8376 H   0  0  0  0  0  0  0  0  0  0  0  0
    0.5783   19.5672  -28.0926 H   0  0  0  0  0  0  0  0  0  0  0  0
   -0.5083   21.7207  -28.7297 H   0  0  0  0  0  0  0  0  0  0  0  0
   -6.0246   25.1686  -29.4805 H   0  0  0  0  0  0  0  0  0  0  0  0
   -7.9631   23.7067  -30.0369 H   0  0  0  0  0  0  0  0  0  0  0  0
  1  2  1  0
  2  3  2  0
  3  4  1  0
  4  5  2  0
  4  6  1  0
  6  7  1  0
  7  8  2  0
  8  9  1  0
  9 10  1  0
 10 11  1  0
 11 12  2  0
 11 13  1  0
 13 14  1  0
 14 15  1  0
 15 16  2  0
 16 17  1  0
 17 18  2  0
 18 19  1  0
 19 20  2  0
  9 21  2  0
 21 22  1  0
 22 23  2  0
 23  2  1  0
 23  7  1  0
 20 15  1  0
  1 24  1  0
  1 25  1  0
  1 26  1  0
  3 27  1  0
  8 28  1  0
 14 29  1  0
 14 30  1  0
 16 31  1  0
 17 32  1  0
 18 33  1  0
 19 34  1  0
 20 35  1  0
 21 36  1  0
 22 37  1  0
M  CHG  2  10  -1  13  -1
M  END
>  <UniqueID>  (44) 
42

>  <SMILES>  (44) 
Cc1cc(=O)oc2cc([N-]C(=O)[N-]Cc3ccccc3)ccc12

>  <Energy>  (44) 
47.280581970971795

>  <Genealogy>  (44) 
Cc1cc(=O)oc2cc([N-]C(=O)[N-]Cc3ccccc3)ccc12 (protonated)
Cc1cc(=O)oc2cc([N-]C(=O)[N-]Cc3ccccc3)ccc12 (3D coordinates assigned)
Cc1cc(=O)oc2cc([N-]C(=O)[N-]Cc3ccccc3)ccc12 (optimized conformer: 47.280581970971795 kcal/mol)

>  <smiles>  (44) 
Cc1cc(=O)oc2cc(NC(=O)NCc3ccccc3)ccc12

>  <score_type>  (44) 
oracle

>  <origin>  (44) 
adgpu

>  <m_score__min__energy>  (44) 
-11.470000000000001

>  <m_primary>  (44) 
energy

$$$$
44:0
     RDKit          3D

 27 28  0  0  0  0  0  0  0  0999 V2000
   -4.8210   25.6650  -30.9790 O   0  0  0  0  0  0  0  0  0  0  0  0
   -5.6770   24.6760  -30.2390 S   0  0  0  0  0  0  0  0  0  0  0  0
   -7.0420   25.2710  -30.0280 O   0  0  0  0  0  0  0  0  0  0  0  0
   -4.9600   24.3400  -28.6940 N   0  0  0  0  0  0  0  0  0  0  0  0
   -3.7560   23.5670  -28.5210 C   0  0  0  0  0  0  0  0  0  0  0  0
   -3.7710   22.3200  -27.8650 C   0  0  0  0  0  0  0  0  0  0  0  0
   -2.5920   21.5850  -27.7120 C   0  0  0  0  0  0  0  0  0  0  0  0
   -1.3860   22.0850  -28.2040 C   0  0  0  0  0  0  0  0  0  0  0  0
   -1.3550   23.3230  -28.8480 C   0  0  0  0  0  0  0  0  0  0  0  0
   -2.5300   24.0650  -29.0060 C   0  0  0  0  0  0  0  0  0  0  0  0
   -2.4730   25.2930  -29.6560 O   0  0  0  0  0  0  0  0  0  0  0  0
   -5.7820   23.1980  -31.1910 C   0  0  0  0  0  0  0  0  0  0  0  0
   -4.6700   22.7370  -31.9120 C   0  0  0  0  0  0  0  0  0  0  0  0
   -4.7660   21.5700  -32.6750 C   0  0  0  0  0  0  0  0  0  0  0  0
   -5.9680   20.8580  -32.7220 C   0  0  0  0  0  0  0  0  0  0  0  0
   -7.0780   21.3110  -32.0000 C   0  0  0  0  0  0  0  0  0  0  0  0
   -8.7210   20.3400  -32.0640 Br  0  0  0  0  0  0  0  0  0  0  0  0
   -6.9840   22.4780  -31.2330 C   0  0  0  0  0  0  0  0  0  0  0  0
   -5.3970   24.8050  -27.8680 H   0  0  0  0  0  0  0  0  0  0  0  0
   -4.7175   21.9220  -27.4704 H   0  0  0  0  0  0  0  0  0  0  0  0
   -2.6150   20.6103  -27.2026 H   0  0  0  0  0  0  0  0  0  0  0  0
   -0.4598   21.5037  -28.0844 H   0  0  0  0  0  0  0  0  0  0  0  0
   -0.4026   23.7166  -29.2328 H   0  0  0  0  0  0  0  0  0  0  0  0
   -3.7223   23.2943  -31.8767 H   0  0  0  0  0  0  0  0  0  0  0  0
   -3.8933   21.2108  -33.2401 H   0  0  0  0  0  0  0  0  0  0  0  0
   -6.0414   19.9418  -33.3264 H   0  0  0  0  0  0  0  0  0  0  0  0
   -7.8553   22.8310  -30.6619 H   0  0  0  0  0  0  0  0  0  0  0  0
  1  2  2  0
  2  3  2  0
  2  4  1  0
  4  5  1  0
  5  6  2  0
  6  7  1  0
  7  8  2  0
  8  9  1  0
  9 10  2  0
 10 11  1  0
  2 12  1  0
 12 13  2  0
 13 14  1  0
 14 15  2  0
 15 16  1  0
 16 17  1  0
 16 18  2  0
 10  5  1  0
 18 12  1  0
  4 19  1  0
  6 20  1  0
  7 21  1  0
  8 22  1  0
  9 23  1  0
 13 24  1  0
 14 25  1  0
 15 26  1  0
 18 27  1  0
M  CHG  1  11  -1
M  END
>  <UniqueID>  (45) 
43

>  <SMILES>  (45) 
O=S(=O)(Nc1ccccc1[O-])c1cccc(Br)c1

>  <Energy>  (45) 
30.940329823668787

>  <Genealogy>  (45) 
O=S(=O)(Nc1ccccc1[O-])c1cccc(Br)c1 (protonated)
O=S(=O)(Nc1ccccc1[O-])c1cccc(Br)c1 (3D coordinates assigned)
O=S(=O)(Nc1ccccc1[O-])c1cccc(Br)c1 (optimized conformer: 30.940329823668787 kcal/mol)

>  <smiles>  (45) 
O=S(=O)(Nc1ccccc1O)c1cccc(Br)c1

>  <score_type>  (45) 
oracle

>  <origin>  (45) 
adgpu

>  <m_score__min__energy>  (45) 
-11.460000000000001

>  <m_primary>  (45) 
energy

$$$$
45:0
     RDKit          3D

 29 30  0  0  0  0  0  0  0  0999 V2000
   -3.4990   25.2800  -30.5010 N   0  0  0  0  0  0  0  0  0  0  0  0
   -5.1560   24.9200  -30.1650 S   0  0  0  0  0  0  0  0  0  0  0  0
   -6.0300   25.9780  -30.7760 O   0  0  0  0  0  0  0  0  0  0  0  0
   -5.3770   24.9120  -28.6780 O   0  0  0  0  0  0  0  0  0  0  0  0
   -5.5620   23.3450  -30.8380 C   0  0  0  0  0  0  0  0  0  0  0  0
   -4.6040   22.6140  -31.5530 C   0  0  0  0  0  0  0  0  0  0  0  0
   -4.9240   21.3590  -32.0790 C   0  0  0  0  0  0  0  0  0  0  0  0
   -6.2050   20.8090  -31.8870 C   0  0  0  0  0  0  0  0  0  0  0  0
   -6.5370   19.4790  -32.4540 C   0  0  0  0  0  0  0  0  0  0  0  0
   -7.6930   19.0030  -32.2830 O   0  0  0  0  0  0  0  0  0  0  0  0
   -5.5760   18.7510  -33.2370 N   0  0  0  0  0  0  0  0  0  0  0  0
   -5.6440   17.3330  -33.4680 C   0  0  0  0  0  0  0  0  0  0  0  0
   -6.7890   16.7260  -34.0110 C   0  0  0  0  0  0  0  0  0  0  0  0
   -6.8240   15.3430  -34.1970 C   0  0  0  0  0  0  0  0  0  0  0  0
   -5.7190   14.5740  -33.8290 C   0  0  0  0  0  0  0  0  0  0  0  0
   -4.6250   15.1700  -33.2880 N   0  0  0  0  0  0  0  0  0  0  0  0
   -4.5670   16.5160  -33.0960 C   0  0  0  0  0  0  0  0  0  0  0  0
   -7.1620   21.5510  -31.1700 C   0  0  0  0  0  0  0  0  0  0  0  0
   -6.8400   22.8060  -30.6460 C   0  0  0  0  0  0  0  0  0  0  0  0
   -3.4920   26.0350  -31.2230 H   0  0  0  0  0  0  0  0  0  0  0  0
   -3.5962   23.0293  -31.7010 H   0  0  0  0  0  0  0  0  0  0  0  0
   -4.1685   20.7969  -32.6475 H   0  0  0  0  0  0  0  0  0  0  0  0
   -4.8530   19.2960  -33.7580 H   0  0  0  0  0  0  0  0  0  0  0  0
   -7.6577   17.3406  -34.2895 H   0  0  0  0  0  0  0  0  0  0  0  0
   -7.7145   14.8636  -34.6297 H   0  0  0  0  0  0  0  0  0  0  0  0
   -5.7341   13.4841  -33.9772 H   0  0  0  0  0  0  0  0  0  0  0  0
   -3.6696   16.9658  -32.6462 H   0  0  0  0  0  0  0  0  0  0  0  0
   -8.1714   21.1400  -31.0208 H   0  0  0  0  0  0  0  0  0  0  0  0
   -7.5940   23.3729  -30.0802 H   0  0  0  0  0  0  0  0  0  0  0  0
  1  2  1  0
  2  3  2  0
  2  4  2  0
  2  5  1  0
  5  6  2  0
  6  7  1  0
  7  8  2  0
  8  9  1  0
  9 10  2  0
  9 11  1  0
 11 12  1  0
 12 13  2  0
 13 14  1  0
 14 15  2  0
 15 16  1  0
 16 17  2  0
  8 18  1  0
 18 19  2  0
 19  5  1  0
 17 12  1  0
  1 20  1  0
  6 21  1  0
  7 22  1  0
 11 23  1  0
 13 24  1  0
 14 25  1  0
 15 26  1  0
 17 27  1  0
 18 28  1  0
 19 29  1  0
M  CHG  1   1  -1
M  END
>  <UniqueID>  (46) 
44

>  <SMILES>  (46) 
[NH-]S(=O)(=O)c1ccc(C(=O)Nc2cccnc2)cc1

>  <Energy>  (46) 
35.86089392094324

>  <Genealogy>  (46) 
[NH-]S(=O)(=O)c1ccc(C(=O)Nc2cccnc2)cc1 (protonated)
[NH-]S(=O)(=O)c1ccc(C(=O)Nc2cccnc2)cc1 (3D coordinates assigned)
[NH-]S(=O)(=O)c1ccc(C(=O)Nc2cccnc2)cc1 (optimized conformer: 35.86089392094324 kcal/mol)

>  <smiles>  (46) 
NS(=O)(=O)c1ccc(C(=O)Nc2cccnc2)cc1

>  <score_type>  (46) 
oracle

>  <origin>  (46) 
adgpu

>  <m_score__min__energy>  (46) 
-9.0199999999999996

>  <m_primary>  (46) 
energy

$$$$
46:0
     RDKit          3D

 40 42  0  0  0  0  0  0  0  0999 V2000
   -2.9930   21.1260  -33.4680 C   0  0  0  0  0  0  0  0  0  0  0  0
   -4.1480   20.8740  -32.5030 C   0  0  0  0  0  0  0  0  0  0  0  0
   -4.7430   22.1580  -31.9550 C   0  0  0  0  0  0  0  0  0  0  0  0
   -6.0460   22.5550  -32.3240 C   0  0  0  0  0  0  0  0  0  0  0  0
   -6.8670   21.7210  -33.0860 O   0  0  0  0  0  0  0  0  0  0  0  0
   -7.4300   20.5290  -32.6040 C   0  0  0  0  0  0  0  0  0  0  0  0
   -6.8980   19.2690  -32.9320 C   0  0  0  0  0  0  0  0  0  0  0  0
   -7.4930   18.1080  -32.4360 C   0  0  0  0  0  0  0  0  0  0  0  0
   -8.6150   18.2130  -31.6150 C   0  0  0  0  0  0  0  0  0  0  0  0
   -9.1130   19.4350  -31.2970 N   0  0  0  0  0  0  0  0  0  0  0  0
   -8.5500   20.5870  -31.7550 C   0  0  0  0  0  0  0  0  0  0  0  0
   -9.1620   21.9030  -31.3860 C   0  0  0  0  0  0  0  0  0  0  0  0
   -6.5130   23.7770  -31.9610 N   0  0  0  0  0  0  0  0  0  0  0  0
   -5.7540   24.6300  -31.2340 C   0  0  0  0  0  0  0  0  0  0  0  0
   -4.5100   24.2650  -30.8390 N   0  0  0  0  0  0  0  0  0  0  0  0
   -3.9920   23.0500  -31.1590 C   0  0  0  0  0  0  0  0  0  0  0  0
   -2.3460   22.6450  -30.5560 S   0  0  0  0  0  0  0  0  0  0  0  0
   -2.5380   23.5980  -29.0430 C   0  0  0  0  0  0  0  0  0  0  0  0
   -1.5450   24.5160  -28.6750 C   0  0  0  0  0  0  0  0  0  0  0  0
   -1.6810   25.2650  -27.5020 C   0  0  0  0  0  0  0  0  0  0  0  0
   -2.8040   25.0920  -26.6870 C   0  0  0  0  0  0  0  0  0  0  0  0
   -3.7910   24.1700  -27.0450 C   0  0  0  0  0  0  0  0  0  0  0  0
   -3.6590   23.4220  -28.2200 C   0  0  0  0  0  0  0  0  0  0  0  0
   -2.0747   21.3263  -32.8965 H   0  0  0  0  0  0  0  0  0  0  0  0
   -2.8444   20.2391  -34.1016 H   0  0  0  0  0  0  0  0  0  0  0  0
   -3.2273   21.9942  -34.1016 H   0  0  0  0  0  0  0  0  0  0  0  0
   -4.9358   20.3194  -33.0339 H   0  0  0  0  0  0  0  0  0  0  0  0
   -3.7513   20.3014  -31.6517 H   0  0  0  0  0  0  0  0  0  0  0  0
   -6.0120   19.1985  -33.5801 H   0  0  0  0  0  0  0  0  0  0  0  0
   -7.0810   17.1203  -32.6902 H   0  0  0  0  0  0  0  0  0  0  0  0
   -9.0971   17.3046  -31.2246 H   0  0  0  0  0  0  0  0  0  0  0  0
   -9.2041   21.9935  -30.2905 H   0  0  0  0  0  0  0  0  0  0  0  0
   -8.5513   22.7198  -31.7982 H   0  0  0  0  0  0  0  0  0  0  0  0
  -10.1801   21.9624  -31.7982 H   0  0  0  0  0  0  0  0  0  0  0  0
   -6.1475   25.6209  -30.9634 H   0  0  0  0  0  0  0  0  0  0  0  0
   -0.6567   24.6476  -29.3103 H   0  0  0  0  0  0  0  0  0  0  0  0
   -0.9040   25.9908  -27.2202 H   0  0  0  0  0  0  0  0  0  0  0  0
   -2.9104   25.6815  -25.7644 H   0  0  0  0  0  0  0  0  0  0  0  0
   -4.6729   24.0321  -26.4022 H   0  0  0  0  0  0  0  0  0  0  0  0
   -4.4360   22.6948  -28.4983 H   0  0  0  0  0  0  0  0  0  0  0  0
  1  2  1  0
  2  3  1  0
  3  4  2  0
  4  5  1  0
  5  6  1  0
  6  7  2  0
  7  8  1  0
  8  9  2  0
  9 10  1  0
 10 11  2  0
 11 12  1  0
  4 13  1  0
 13 14  2  0
 14 15  1  0
 15 16  2  0
 16 17  1  0
 17 18  1  0
 18 19  2  0
 19 20  1  0
 20 21  2  0
 21 22  1  0
 22 23  2  0
 16  3  1  0
 23 18  1  0
 11  6  1  0
  1 24  1  0
  1 25  1  0
  1 26  1  0
  2 27  1  0
  2 28  1  0
  7 29  1  0
  8 30  1  0
  9 31  1  0
 12 32  1  0
 12 33  1  0
 12 34  1  0
 14 35  1  0
 19 36  1  0
 20 37  1  0
 21 38  1  0
 22 39  1  0
 23 40  1  0
M  END
>  <UniqueID>  (47) 
45

>  <SMILES>  (47) 
CCc1c(Oc2cccnc2C)ncnc1Sc1ccccc1

>  <Energy>  (47) 
49.68190747209381

>  <Genealogy>  (47) 
CCc1c(Oc2cccnc2C)ncnc1Sc1ccccc1 (3D coordinates assigned)
CCc1c(Oc2cccnc2C)ncnc1Sc1ccccc1 (optimized conformer: 49.68190747209381 kcal/mol)

>  <smiles>  (47) 
CCc1c(Oc2cccnc2C)ncnc1Sc1ccccc1

>  <score_type>  (47) 
oracle

>  <origin>  (47) 
adgpu

>  <m_score__min__energy>  (47) 
-8.4800000000000004

>  <m_primary>  (47) 
energy

$$$$
47:0
     RDKit          3D

 64 68  0  0  0  0  0  0  0  0999 V2000
   -0.3600   23.3730  -24.2730 C   0  0  0  0  0  0  0  0  0  0  0  0
   -0.4500   22.7480  -25.6330 C   0  0  0  0  0  0  0  0  0  0  0  0
   -1.2190   21.5910  -25.8370 C   0  0  0  0  0  0  0  0  0  0  0  0
   -1.3190   21.0300  -27.1120 C   0  0  0  0  0  0  0  0  0  0  0  0
   -0.6570   21.6200  -28.2000 C   0  0  0  0  0  0  0  0  0  0  0  0
   -0.7810   21.0280  -29.5480 C   0  0  0  0  0  0  0  0  0  0  0  0
   -1.4190   21.6090  -30.6360 C   0  0  0  0  0  0  0  0  0  0  0  0
   -2.1920   22.8710  -30.6590 C   0  0  0  0  0  0  0  0  0  0  0  0
   -1.9200   23.7720  -29.8250 O   0  0  0  0  0  0  0  0  0  0  0  0
   -3.2650   23.0920  -31.5840 N   0  0  0  0  0  0  0  0  0  0  0  0
   -4.5960   23.5110  -31.2500 C   0  0  0  0  0  0  0  0  0  0  0  0
   -5.6470   22.6040  -31.4490 C   0  0  0  0  0  0  0  0  0  0  0  0
   -6.9730   22.9860  -31.2070 C   0  0  0  0  0  0  0  0  0  0  0  0
   -8.2880   21.8440  -31.4750 S   0  0  0  0  0  0  0  0  0  0  0  0
   -8.8970   21.4570  -30.1550 O   0  0  0  0  0  0  0  0  0  0  0  0
   -9.3490   22.5030  -32.3120 O   0  0  0  0  0  0  0  0  0  0  0  0
   -7.6850   20.4350  -32.3110 N   0  0  0  0  0  0  0  0  0  0  0  0
   -6.5930   19.7970  -31.5750 C   0  0  0  0  0  0  0  0  0  0  0  0
   -6.6310   18.3160  -31.9280 C   0  0  0  0  0  0  0  0  0  0  0  0
   -8.0010   18.0790  -32.5420 C   0  0  0  0  0  0  0  0  0  0  0  0
   -8.7230   19.4120  -32.4310 C   0  0  0  0  0  0  0  0  0  0  0  0
   -7.2480   24.2860  -30.7660 C   0  0  0  0  0  0  0  0  0  0  0  0
   -6.2040   25.1800  -30.5200 C   0  0  0  0  0  0  0  0  0  0  0  0
   -4.8750   24.7910  -30.7200 C   0  0  0  0  0  0  0  0  0  0  0  0
   -3.8640   25.6740  -30.3420 O   0  0  0  0  0  0  0  0  0  0  0  0
   -1.0920   20.7850  -31.7060 C   0  0  0  0  0  0  0  0  0  0  0  0
   -1.5070   20.9390  -33.1330 C   0  0  0  0  0  0  0  0  0  0  0  0
   -0.2830   19.7950  -31.2850 N   0  0  0  0  0  0  0  0  0  0  0  0
   -0.0970   19.9420  -29.9830 N   0  0  0  0  0  0  0  0  0  0  0  0
    0.7300   19.0540  -29.2110 C   0  0  0  0  0  0  0  0  0  0  0  0
    0.1530   17.9520  -28.5570 C   0  0  0  0  0  0  0  0  0  0  0  0
    0.9430   17.0900  -27.7920 C   0  0  0  0  0  0  0  0  0  0  0  0
    2.3150   17.3250  -27.6630 C   0  0  0  0  0  0  0  0  0  0  0  0
    3.3040   16.2420  -26.7000 Cl  0  0  0  0  0  0  0  0  0  0  0  0
    2.8960   18.4280  -28.2960 C   0  0  0  0  0  0  0  0  0  0  0  0
    2.1080   19.2930  -29.0600 C   0  0  0  0  0  0  0  0  0  0  0  0
    0.0870   22.7900  -28.0010 C   0  0  0  0  0  0  0  0  0  0  0  0
    0.1890   23.3520  -26.7250 C   0  0  0  0  0  0  0  0  0  0  0  0
   -0.4721   22.5948  -23.5037 H   0  0  0  0  0  0  0  0  0  0  0  0
    0.6180   23.8633  -24.1588 H   0  0  0  0  0  0  0  0  0  0  0  0
   -1.1599   24.1194  -24.1588 H   0  0  0  0  0  0  0  0  0  0  0  0
   -1.7442   21.1252  -24.9901 H   0  0  0  0  0  0  0  0  0  0  0  0
   -1.9196   20.1211  -27.2644 H   0  0  0  0  0  0  0  0  0  0  0  0
   -5.4284   21.5840  -31.7981 H   0  0  0  0  0  0  0  0  0  0  0  0
   -5.6287   20.2332  -31.8747 H   0  0  0  0  0  0  0  0  0  0  0  0
   -6.7064   19.9476  -30.4913 H   0  0  0  0  0  0  0  0  0  0  0  0
   -5.8385   18.0729  -32.6511 H   0  0  0  0  0  0  0  0  0  0  0  0
   -6.4649   17.6819  -31.0446 H   0  0  0  0  0  0  0  0  0  0  0  0
   -7.9048   17.7789  -33.5959 H   0  0  0  0  0  0  0  0  0  0  0  0
   -8.5466   17.2719  -32.0312 H   0  0  0  0  0  0  0  0  0  0  0  0
   -9.3315   19.5911  -33.3297 H   0  0  0  0  0  0  0  0  0  0  0  0
   -9.4004   19.4277  -31.5645 H   0  0  0  0  0  0  0  0  0  0  0  0
   -8.2898   24.6041  -30.6128 H   0  0  0  0  0  0  0  0  0  0  0  0
   -6.4280   26.1973  -30.1665 H   0  0  0  0  0  0  0  0  0  0  0  0
   -2.9460   25.6650  -30.7640 H   0  0  0  0  0  0  0  0  0  0  0  0
   -2.5375   21.3214  -33.1759 H   0  0  0  0  0  0  0  0  0  0  0  0
   -0.8321   21.6465  -33.6368 H   0  0  0  0  0  0  0  0  0  0  0  0
   -1.4570   19.9625  -33.6368 H   0  0  0  0  0  0  0  0  0  0  0  0
   -0.9275   17.7669  -28.6479 H   0  0  0  0  0  0  0  0  0  0  0  0
    0.4846   16.2250  -27.2904 H   0  0  0  0  0  0  0  0  0  0  0  0
    3.9750   18.6152  -28.1925 H   0  0  0  0  0  0  0  0  0  0  0  0
    2.5680   20.1659  -29.5462 H   0  0  0  0  0  0  0  0  0  0  0  0
    0.5931   23.2686  -28.8523 H   0  0  0  0  0  0  0  0  0  0  0  0
    0.7732   24.2722  -26.5771 H   0  0  0  0  0  0  0  0  0  0  0  0
  1  2  1  0
  2  3  2  0
  3  4  1  0
  4  5  2  0
  5  6  1  0
  6  7  2  0
  7  8  1  0
  8  9  2  0
  8 10  1  0
 10 11  1  0
 11 12  2  0
 12 13  1  0
 13 14  1  0
 14 15  2  0
 14 16  2  0
 14 17  1  0
 17 18  1  0
 18 19  1  0
 19 20  1  0
 20 21  1  0
 13 22  2  0
 22 23  1  0
 23 24  2  0
 24 25  1  0
  7 26  1  0
 26 27  1  0
 26 28  2  0
 28 29  1  0
 29 30  1  0
 30 31  2  0
 31 32  1  0
 32 33  2  0
 33 34  1  0
 33 35  1  0
 35 36  2  0
  5 37  1  0
 37 38  2  0
 38  2  1  0
 29  6  1  0
 36 30  1  0
 24 11  1  0
 21 17  1  0
  1 39  1  0
  1 40  1  0
  1 41  1  0
  3 42  1  0
  4 43  1  0
 12 44  1  0
 18 45  1  0
 18 46  1  0
 19 47  1  0
 19 48  1  0
 20 49  1  0
 20 50  1  0
 21 51  1  0
 21 52  1  0
 22 53  1  0
 23 54  1  0
 25 55  1  0
 27 56  1  0
 27 57  1  0
 27 58  1  0
 31 59  1  0
 32 60  1  0
 35 61  1  0
 36 62  1  0
 37 63  1  0
 38 64  1  0
M  CHG  1  10  -1
M  END
>  <UniqueID>  (48) 
46

>  <SMILES>  (48) 
Cc1ccc(-c2c(C(=O)[N-]c3cc(S(=O)(=O)N4CCCC4)ccc3O)c(C)nn2-c2ccc(Cl)cc2)cc1

>  <Energy>  (48) 
117.67833243478964

>  <Genealogy>  (48) 
Cc1ccc(-c2c(C(=O)[N-]c3cc(S(=O)(=O)N4CCCC4)ccc3O)c(C)nn2-c2ccc(Cl)cc2)cc1 (protonated)
Cc1ccc(-c2c(C(=O)[N-]c3cc(S(=O)(=O)N4CCCC4)ccc3O)c(C)nn2-c2ccc(Cl)cc2)cc1 (3D coordinates assigned)
Cc1ccc(-c2c(C(=O)[N-]c3cc(S(=O)(=O)N4CCCC4)ccc3O)c(C)nn2-c2ccc(Cl)cc2)cc1 (nonaromatic ring conformer: 117.67833243478964 kcal/mol)

>  <smiles>  (48) 
Cc1ccc(-c2c(C(=O)Nc3cc(S(=O)(=O)N4CCCC4)ccc3O)c(C)nn2-c2ccc(Cl)cc2)cc1

>  <score_type>  (48) 
oracle

>  <origin>  (48) 
adgpu

>  <m_score__min__energy>  (48) 
-13.65

>  <m_primary>  (48) 
energy

$$$$
48:0
     RDKit          3D

 39 41  0  0  0  0  0  0  0  0999 V2000
   -1.4690   20.0140  -26.9530 C   0  0  0  0  0  0  0  0  0  0  0  0
   -1.9550   20.6090  -28.2420 C   0  0  0  0  0  0  0  0  0  0  0  0
   -1.3280   20.2780  -29.4540 C   0  0  0  0  0  0  0  0  0  0  0  0
   -1.8060   20.8010  -30.6590 C   0  0  0  0  0  0  0  0  0  0  0  0
   -2.9230   21.6440  -30.6650 C   0  0  0  0  0  0  0  0  0  0  0  0
   -3.5440   22.3010  -32.2150 S   0  0  0  0  0  0  0  0  0  0  0  0
   -4.8190   23.2720  -31.4000 C   0  0  0  0  0  0  0  0  0  0  0  0
   -4.4560   24.4610  -30.8460 N   0  0  0  0  0  0  0  0  0  0  0  0
   -5.3560   25.2900  -30.2580 C   0  0  0  0  0  0  0  0  0  0  0  0
   -6.7030   24.9400  -30.2160 C   0  0  0  0  0  0  0  0  0  0  0  0
   -7.1110   23.7290  -30.7750 C   0  0  0  0  0  0  0  0  0  0  0  0
   -6.1740   22.8680  -31.3680 C   0  0  0  0  0  0  0  0  0  0  0  0
   -6.6340   21.5810  -31.9360 C   0  0  0  0  0  0  0  0  0  0  0  0
   -7.8100   21.4730  -32.3760 O   0  0  0  0  0  0  0  0  0  0  0  0
   -5.7490   20.4470  -31.9570 N   0  0  0  0  0  0  0  0  0  0  0  0
   -6.0240   19.2290  -32.6670 C   0  0  0  0  0  0  0  0  0  0  0  0
   -6.8340   18.2510  -32.0680 C   0  0  0  0  0  0  0  0  0  0  0  0
   -7.1000   17.0490  -32.7310 C   0  0  0  0  0  0  0  0  0  0  0  0
   -6.5480   16.8090  -33.9920 C   0  0  0  0  0  0  0  0  0  0  0  0
   -5.7230   17.7650  -34.5870 C   0  0  0  0  0  0  0  0  0  0  0  0
   -5.4560   18.9680  -33.9270 C   0  0  0  0  0  0  0  0  0  0  0  0
   -3.5580   21.9680  -29.4600 C   0  0  0  0  0  0  0  0  0  0  0  0
   -3.0820   21.4450  -28.2540 C   0  0  0  0  0  0  0  0  0  0  0  0
   -1.9138   20.5586  -26.1071 H   0  0  0  0  0  0  0  0  0  0  0  0
   -1.7641   18.9555  -26.9035 H   0  0  0  0  0  0  0  0  0  0  0  0
   -0.3729   20.0918  -26.9035 H   0  0  0  0  0  0  0  0  0  0  0  0
   -0.4579   19.6050  -29.4552 H   0  0  0  0  0  0  0  0  0  0  0  0
   -1.3031   20.5494  -31.6044 H   0  0  0  0  0  0  0  0  0  0  0  0
   -5.0208   26.2391  -29.8143 H   0  0  0  0  0  0  0  0  0  0  0  0
   -7.4375   25.6113  -29.7470 H   0  0  0  0  0  0  0  0  0  0  0  0
   -8.1739   23.4467  -30.7511 H   0  0  0  0  0  0  0  0  0  0  0  0
   -4.9210   20.4660  -31.3190 H   0  0  0  0  0  0  0  0  0  0  0  0
   -7.2620   18.4315  -31.0709 H   0  0  0  0  0  0  0  0  0  0  0  0
   -7.7441   16.2920  -32.2597 H   0  0  0  0  0  0  0  0  0  0  0  0
   -6.7637   15.8662  -34.5161 H   0  0  0  0  0  0  0  0  0  0  0  0
   -5.2825   17.5715  -35.5762 H   0  0  0  0  0  0  0  0  0  0  0  0
   -4.7980   19.7146  -34.3956 H   0  0  0  0  0  0  0  0  0  0  0  0
   -4.4327   22.6350  -29.4622 H   0  0  0  0  0  0  0  0  0  0  0  0
   -3.5928   21.6897  -27.3110 H   0  0  0  0  0  0  0  0  0  0  0  0
  1  2  1  0
  2  3  2  0
  3  4  1  0
  4  5  2  0
  5  6  1  0
  6  7  1  0
  7  8  2  0
  8  9  1  0
  9 10  2  0
 10 11  1  0
 11 12  2  0
 12 13  1  0
 13 14  2  0
 13 15  1  0
 15 16  1  0
 16 17  2  0
 17 18  1  0
 18 19  2  0
 19 20  1  0
 20 21  2  0
  5 22  1  0
 22 23  2  0
 23  2  1  0
 12  7  1  0
 21 16  1  0
  1 24  1  0
  1 25  1  0
  1 26  1  0
  3 27  1  0
  4 28  1  0
  9 29  1  0
 10 30  1  0
 11 31  1  0
 15 32  1  0
 17 33  1  0
 18 34  1  0
 19 35  1  0
 20 36  1  0
 21 37  1  0
 22 38  1  0
 23 39  1  0
M  END
>  <UniqueID>  (49) 
47

>  <SMILES>  (49) 
Cc1ccc(Sc2ncccc2C(=O)Nc2ccccc2)cc1

>  <Energy>  (49) 
44.91246339938983

>  <Genealogy>  (49) 
Cc1ccc(Sc2ncccc2C(=O)Nc2ccccc2)cc1 (3D coordinates assigned)
Cc1ccc(Sc2ncccc2C(=O)Nc2ccccc2)cc1 (optimized conformer: 44.91246339938983 kcal/mol)

>  <smiles>  (49) 
Cc1ccc(Sc2ncccc2C(=O)Nc2ccccc2)cc1

>  <score_type>  (49) 
oracle

>  <origin>  (49) 
adgpu

>  <m_score__min__energy>  (49) 
-8.5399999999999991

>  <m_primary>  (49) 
energy

$$$$
49:0
     RDKit          3D

 49 52  0  0  1  0  0  0  0  0999 V2000
   -8.7290   18.5630  -31.3380 C   0  0  0  0  0  0  0  0  0  0  0  0
   -7.9850   18.3110  -32.6190 C   0  0  0  0  0  0  0  0  0  0  0  0
   -7.4140   19.5160  -33.0670 O   0  0  0  0  0  0  0  0  0  0  0  0
   -6.0660   19.7170  -32.9980 C   0  0  0  0  0  0  0  0  0  0  0  0
   -5.3960   20.4070  -32.0170 C   0  0  0  0  0  0  0  0  0  0  0  0
   -4.0240   20.5440  -32.0520 C   0  0  0  0  0  0  0  0  0  0  0  0
   -3.3670   21.2420  -31.0600 C   0  0  0  0  0  0  0  0  0  0  0  0
   -4.0140   21.7910  -30.0640 N   0  0  0  0  0  0  0  0  0  0  0  0
   -3.2920   22.5120  -29.0450 C   0  0  0  0  0  0  0  0  0  0  0  0
   -2.5510   21.7890  -28.1330 C   0  0  0  0  0  0  0  0  0  0  0  0
   -1.8500   22.4520  -27.1450 C   0  0  0  0  0  0  0  0  0  0  0  0
   -1.9050   23.8320  -27.0900 C   0  0  0  0  0  0  0  0  0  0  0  0
   -2.6530   24.5340  -28.0150 C   0  0  0  0  0  0  0  0  0  0  0  0
   -3.3580   23.8640  -29.0070 C   0  0  0  0  0  0  0  0  0  0  0  0
   -4.3030   24.8290  -30.1670 S   0  0  0  0  0  0  0  0  0  0  0  0
   -5.7530   23.8850  -30.6560 C   0  0  0  0  0  0  0  0  0  0  0  0
   -6.0880   23.8050  -31.9890 C   0  0  0  0  0  0  0  0  0  0  0  0
   -7.1890   23.0980  -32.4380 C   0  0  0  0  0  0  0  0  0  0  0  0
   -7.9810   22.4460  -31.5020 C   0  0  0  0  0  0  0  0  0  0  0  0
   -9.1220   21.7110  -31.9530 N   0  0  0  0  0  0  0  0  0  0  0  0
   -7.6510   22.5210  -30.1470 C   0  0  0  0  0  0  0  0  0  0  0  0
   -6.5360   23.2400  -29.7220 C   0  0  0  0  0  0  0  0  0  0  0  0
   -2.0120   21.3930  -31.0670 N   0  0  0  0  0  0  0  0  0  0  0  0
   -1.2660   20.8510  -32.0700 C   0  0  0  0  0  0  0  0  0  0  0  0
   -1.9170   20.1660  -33.0440 N   0  0  0  0  0  0  0  0  0  0  0  0
   -3.2530   20.0010  -33.0620 C   0  0  0  0  0  0  0  0  0  0  0  0
   -3.9160   19.3050  -34.0510 C   0  0  0  0  0  0  0  0  0  0  0  0
   -5.2900   19.1630  -34.0240 C   0  0  0  0  0  0  0  0  0  0  0  0
   -5.8850   18.4480  -35.0550 O   0  0  0  0  0  0  0  0  0  0  0  0
   -8.0732   18.3409  -30.4833 H   0  0  0  0  0  0  0  0  0  0  0  0
   -9.0411   19.6170  -31.2965 H   0  0  0  0  0  0  0  0  0  0  0  0
   -9.6174   17.9156  -31.2965 H   0  0  0  0  0  0  0  0  0  0  0  0
   -7.1908   17.5704  -32.4436 H   0  0  0  0  0  0  0  0  0  0  0  0
   -8.6795   17.9257  -33.3801 H   0  0  0  0  0  0  0  0  0  0  0  0
   -5.9634   20.8579  -31.1895 H   0  0  0  0  0  0  0  0  0  0  0  0
   -2.5188   20.6911  -28.1925 H   0  0  0  0  0  0  0  0  0  0  0  0
   -1.2552   21.8888  -26.4108 H   0  0  0  0  0  0  0  0  0  0  0  0
   -1.3518   24.3725  -26.3078 H   0  0  0  0  0  0  0  0  0  0  0  0
   -2.6908   25.6322  -27.9658 H   0  0  0  0  0  0  0  0  0  0  0  0
   -5.4559   24.3231  -32.7252 H   0  0  0  0  0  0  0  0  0  0  0  0
   -7.4312   23.0534  -33.5101 H   0  0  0  0  0  0  0  0  0  0  0  0
  -10.0540   22.1300  -31.6660 H   0  0  0  0  0  0  0  0  0  0  0  0
   -9.0520   20.8450  -32.5120 H   0  0  0  0  0  0  0  0  0  0  0  0
   -8.2796   22.0057  -29.4058 H   0  0  0  0  0  0  0  0  0  0  0  0
   -6.2829   23.2926  -28.6528 H   0  0  0  0  0  0  0  0  0  0  0  0
   -1.5290   21.9120  -30.3280 H   0  0  0  0  0  0  0  0  0  0  0  0
   -0.1721   20.9649  -32.0897 H   0  0  0  0  0  0  0  0  0  0  0  0
   -3.3416   18.8557  -34.8745 H   0  0  0  0  0  0  0  0  0  0  0  0
   -6.8660   18.4940  -35.3000 H   0  0  0  0  0  0  0  0  0  0  0  0
  1  2  1  0
  2  3  1  0
  3  4  1  0
  4  5  2  0
  5  6  1  0
  6  7  1  0
  7  8  2  0
  8  9  1  0
  9 10  2  0
 10 11  1  0
 11 12  2  0
 12 13  1  0
 13 14  2  0
 14 15  1  0
 15 16  1  0
 16 17  2  0
 17 18  1  0
 18 19  2  0
 19 20  1  0
 19 21  1  0
 21 22  2  0
  7 23  1  0
 23 24  1  0
 24 25  2  0
 25 26  1  0
 26 27  1  0
 27 28  2  0
 28 29  1  0
 28  4  1  0
 26  6  2  0
 14  9  1  0
 22 16  1  0
  1 30  1  0
  1 31  1  0
  1 32  1  0
  2 33  1  0
  2 34  1  0
  5 35  1  0
 10 36  1  0
 11 37  1  0
 12 38  1  0
 13 39  1  0
 17 40  1  0
 18 41  1  0
 20 42  1  0
 20 43  1  0
 21 44  1  0
 22 45  1  0
 23 46  1  0
 24 47  1  0
 27 48  1  0
 29 49  1  0
M  END
>  <smiles>  (50) 
CCOc1cc2c(=Nc3ccccc3Sc3ccc(N)cc3)[nH]cnc2cc1O

>  <score_type>  (50) 
oracle

>  <origin>  (50) 
adgpu

>  <m_score__min__energy>  (50) 
-9.4499999999999993

>  <m_primary>  (50) 
energy

$$$$
