0:0
     RDKit          3D

 49 51  0  0  0  0  0  0  0  0999 V2000
   -2.5060   19.6650  -26.9680 C   0  0  0  0  0  0  0  0  0  0  0  0
   -1.6230   20.6150  -27.5590 O   0  0  0  0  0  0  0  0  0  0  0  0
   -2.0420   21.7560  -28.2590 C   0  0  0  0  0  0  0  0  0  0  0  0
   -3.4010   21.8880  -28.5630 C   0  0  0  0  0  0  0  0  0  0  0  0
   -3.8680   23.0090  -29.2580 C   0  0  0  0  0  0  0  0  0  0  0  0
   -2.9840   24.0240  -29.6420 C   0  0  0  0  0  0  0  0  0  0  0  0
   -3.4990   25.1490  -30.3680 N   0  0  0  0  0  0  0  0  0  0  0  0
   -4.8400   25.3030  -30.8460 C   0  0  0  0  0  0  0  0  0  0  0  0
   -5.5620   26.2080  -30.3510 O   0  0  0  0  0  0  0  0  0  0  0  0
   -5.3490   24.4430  -31.8750 N   0  0  0  0  0  0  0  0  0  0  0  0
   -6.1920   23.2940  -31.7020 C   0  0  0  0  0  0  0  0  0  0  0  0
   -7.3790   23.3570  -30.9630 C   0  0  0  0  0  0  0  0  0  0  0  0
   -8.1840   22.2300  -30.8300 C   0  0  0  0  0  0  0  0  0  0  0  0
   -7.8430   21.0200  -31.4570 C   0  0  0  0  0  0  0  0  0  0  0  0
   -8.7470   19.8350  -31.2310 C   0  0  0  0  0  0  0  0  0  0  0  0
   -6.6550   20.9490  -32.2380 C   0  0  0  0  0  0  0  0  0  0  0  0
   -6.1640   19.4620  -33.1050 S   0  0  0  0  0  0  0  0  0  0  0  0
   -6.0330   19.7220  -34.5780 O   0  0  0  0  0  0  0  0  0  0  0  0
   -7.2400   18.4240  -32.9440 O   0  0  0  0  0  0  0  0  0  0  0  0
   -4.6420   18.8200  -32.5170 N   0  0  0  0  0  0  0  0  0  0  0  0
   -3.8350   18.2730  -33.6230 C   0  0  0  0  0  0  0  0  0  0  0  0
   -2.3670   18.1220  -33.1950 C   0  0  0  0  0  0  0  0  0  0  0  0
   -1.7450   19.3440  -32.8120 O   0  0  0  0  0  0  0  0  0  0  0  0
   -2.6630   20.3510  -32.4060 C   0  0  0  0  0  0  0  0  0  0  0  0
   -3.8970   19.7870  -31.6790 C   0  0  0  0  0  0  0  0  0  0  0  0
   -5.8410   22.0990  -32.3430 C   0  0  0  0  0  0  0  0  0  0  0  0
   -4.6610   22.0660  -33.0790 O   0  0  0  0  0  0  0  0  0  0  0  0
   -1.6130   23.8820  -29.3630 C   0  0  0  0  0  0  0  0  0  0  0  0
   -1.1450   22.7610  -28.6690 C   0  0  0  0  0  0  0  0  0  0  0  0
   -2.4404   19.7356  -25.8722 H   0  0  0  0  0  0  0  0  0  0  0  0
   -3.5374   19.8746  -27.2878 H   0  0  0  0  0  0  0  0  0  0  0  0
   -2.2217   18.6517  -27.2878 H   0  0  0  0  0  0  0  0  0  0  0  0
   -4.1081   21.1044  -28.2532 H   0  0  0  0  0  0  0  0  0  0  0  0
   -4.9368   23.0932  -29.5042 H   0  0  0  0  0  0  0  0  0  0  0  0
   -7.6768   24.3020  -30.4851 H   0  0  0  0  0  0  0  0  0  0  0  0
   -9.1009   22.2873  -30.2250 H   0  0  0  0  0  0  0  0  0  0  0  0
   -8.8726   19.6704  -30.1507 H   0  0  0  0  0  0  0  0  0  0  0  0
   -9.7281   20.0297  -31.6887 H   0  0  0  0  0  0  0  0  0  0  0  0
   -8.3000   18.9402  -31.6887 H   0  0  0  0  0  0  0  0  0  0  0  0
   -4.2321   17.2875  -33.9079 H   0  0  0  0  0  0  0  0  0  0  0  0
   -3.8871   18.9643  -34.4770 H   0  0  0  0  0  0  0  0  0  0  0  0
   -2.3256   17.4306  -32.3405 H   0  0  0  0  0  0  0  0  0  0  0  0
   -1.8178   17.7474  -34.0714 H   0  0  0  0  0  0  0  0  0  0  0  0
   -2.1442   21.0447  -31.7280 H   0  0  0  0  0  0  0  0  0  0  0  0
   -3.0208   20.8543  -33.3163 H   0  0  0  0  0  0  0  0  0  0  0  0
   -3.5668   19.2800  -30.7604 H   0  0  0  0  0  0  0  0  0  0  0  0
   -4.5696   20.6269  -31.4508 H   0  0  0  0  0  0  0  0  0  0  0  0
   -0.9047   24.6565  -29.6922 H   0  0  0  0  0  0  0  0  0  0  0  0
   -0.0728   22.6644  -28.4429 H   0  0  0  0  0  0  0  0  0  0  0  0
  1  2  1  0
  2  3  1  0
  3  4  2  0
  4  5  1  0
  5  6  2  0
  6  7  1  0
  7  8  1  0
  8  9  2  0
  8 10  1  0
 10 11  1  0
 11 12  2  0
 12 13  1  0
 13 14  2  0
 14 15  1  0
 14 16  1  0
 16 17  1  0
 17 18  2  0
 17 19  2  0
 17 20  1  0
 20 21  1  0
 21 22  1  0
 22 23  1  0
 23 24  1  0
 24 25  1  0
 16 26  2  0
 26 27  1  0
  6 28  1  0
 28 29  2  0
 29  3  1  0
 26 11  1  0
 25 20  1  0
  1 30  1  0
  1 31  1  0
  1 32  1  0
  4 33  1  0
  5 34  1  0
 12 35  1  0
 13 36  1  0
 15 37  1  0
 15 38  1  0
 15 39  1  0
 21 40  1  0
 21 41  1  0
 22 42  1  0
 22 43  1  0
 24 44  1  0
 24 45  1  0
 25 46  1  0
 25 47  1  0
 28 48  1  0
 29 49  1  0
M  CHG  3   7  -1  10  -1  27  -1
M  END
>  <UniqueID>  (1) 
1

>  <SMILES>  (1) 
COc1ccc([N-]C(=O)[N-]c2ccc(C)c(S(=O)(=O)N3CCOCC3)c2[O-])cc1

>  <Energy>  (1) 
74.30988155344784

>  <Genealogy>  (1) 
COc1ccc([N-]C(=O)[N-]c2ccc(C)c(S(=O)(=O)N3CCOCC3)c2[O-])cc1 (protonated)
COc1ccc([N-]C(=O)[N-]c2ccc(C)c(S(=O)(=O)N3CCOCC3)c2[O-])cc1 (3D coordinates assigned)
COc1ccc([N-]C(=O)[N-]c2ccc(C)c(S(=O)(=O)N3CCOCC3)c2[O-])cc1 (nonaromatic ring conformer: 74.30988155344784 kcal/mol)

>  <smiles>  (1) 
COc1ccc(NC(=O)Nc2ccc(C)c(S(=O)(=O)N3CCOCC3)c2O)cc1

>  <score_type>  (1) 
oracle

>  <origin>  (1) 
adgpu

>  <m_score__min__energy>  (1) 
-14.539999999999999

>  <m_primary>  (1) 
energy

$$$$
1:0
     RDKit          3D

 44 47  0  0  0  0  0  0  0  0999 V2000
    1.2130   24.1470  -28.1170 O   0  0  0  0  0  0  0  0  0  0  0  0
   -0.0370   24.0920  -28.2810 C   0  0  0  0  0  0  0  0  0  0  0  0
   -0.8330   23.2730  -27.5410 N   0  0  0  0  0  0  0  0  0  0  0  0
   -2.0510   23.5380  -28.0460 C   0  0  0  0  0  0  0  0  0  0  0  0
   -3.2700   22.9820  -27.6650 C   0  0  0  0  0  0  0  0  0  0  0  0
   -4.4270   23.4130  -28.3440 C   0  0  0  0  0  0  0  0  0  0  0  0
   -4.3360   24.3790  -29.3790 C   0  0  0  0  0  0  0  0  0  0  0  0
   -5.7880   24.8910  -30.2340 S   0  0  0  0  0  0  0  0  0  0  0  0
   -7.0110   24.6590  -29.3820 O   0  0  0  0  0  0  0  0  0  0  0  0
   -5.6920   26.3660  -30.5240 O   0  0  0  0  0  0  0  0  0  0  0  0
   -5.9700   24.0230  -31.7260 N   0  0  0  0  0  0  0  0  0  0  0  0
   -6.3360   22.6390  -31.8010 C   0  0  0  0  0  0  0  0  0  0  0  0
   -5.3830   21.6660  -31.4660 C   0  0  0  0  0  0  0  0  0  0  0  0
   -5.6990   20.3050  -31.5370 C   0  0  0  0  0  0  0  0  0  0  0  0
   -6.9900   19.9060  -31.9250 C   0  0  0  0  0  0  0  0  0  0  0  0
   -7.4090   18.1990  -32.0520 S   0  0  0  0  0  0  0  0  0  0  0  0
   -6.8110   17.4350  -30.9010 O   0  0  0  0  0  0  0  0  0  0  0  0
   -8.9060   18.0580  -32.0070 O   0  0  0  0  0  0  0  0  0  0  0  0
   -6.8060   17.5640  -33.5620 N   0  0  0  0  0  0  0  0  0  0  0  0
   -5.8920   16.4390  -33.3540 C   0  0  0  0  0  0  0  0  0  0  0  0
   -4.9770   16.4000  -34.5690 C   0  0  0  0  0  0  0  0  0  0  0  0
   -4.9890   17.8190  -35.1230 C   0  0  0  0  0  0  0  0  0  0  0  0
   -6.0420   18.5690  -34.3100 C   0  0  0  0  0  0  0  0  0  0  0  0
   -7.9470   20.8750  -32.2250 C   0  0  0  0  0  0  0  0  0  0  0  0
   -7.6230   22.2360  -32.1730 C   0  0  0  0  0  0  0  0  0  0  0  0
   -3.0810   24.9160  -29.7340 C   0  0  0  0  0  0  0  0  0  0  0  0
   -1.9610   24.4690  -29.0360 C   0  0  0  0  0  0  0  0  0  0  0  0
   -0.6830   24.8450  -29.2120 N   0  0  0  0  0  0  0  0  0  0  0  0
   -3.3274   22.2325  -26.8619 H   0  0  0  0  0  0  0  0  0  0  0  0
   -5.4078   22.9975  -28.0696 H   0  0  0  0  0  0  0  0  0  0  0  0
   -4.3777   21.9759  -31.1444 H   0  0  0  0  0  0  0  0  0  0  0  0
   -4.9392   19.5489  -31.2898 H   0  0  0  0  0  0  0  0  0  0  0  0
   -7.6170   17.2390  -34.1400 H   0  0  0  0  0  0  0  0  0  0  0  0
   -5.3023   16.5920  -32.4381 H   0  0  0  0  0  0  0  0  0  0  0  0
   -6.4424   15.4936  -33.2382 H   0  0  0  0  0  0  0  0  0  0  0  0
   -3.9577   16.1091  -34.2752 H   0  0  0  0  0  0  0  0  0  0  0  0
   -5.3140   15.6645  -35.3143 H   0  0  0  0  0  0  0  0  0  0  0  0
   -4.0019   18.2881  -34.9984 H   0  0  0  0  0  0  0  0  0  0  0  0
   -5.2189   17.8338  -36.1986 H   0  0  0  0  0  0  0  0  0  0  0  0
   -5.5544   19.2673  -33.6139 H   0  0  0  0  0  0  0  0  0  0  0  0
   -6.7023   19.1527  -34.9682 H   0  0  0  0  0  0  0  0  0  0  0  0
   -8.9653   20.5673  -32.5049 H   0  0  0  0  0  0  0  0  0  0  0  0
   -8.3825   22.9906  -32.4254 H   0  0  0  0  0  0  0  0  0  0  0  0
   -2.9894   25.6634  -30.5359 H   0  0  0  0  0  0  0  0  0  0  0  0
  1  2  2  0
  2  3  1  0
  3  4  1  0
  4  5  2  0
  5  6  1  0
  6  7  2  0
  7  8  1  0
  8  9  2  0
  8 10  2  0
  8 11  1  0
 11 12  1  0
 12 13  2  0
 13 14  1  0
 14 15  2  0
 15 16  1  0
 16 17  2  0
 16 18  2  0
 16 19  1  0
 19 20  1  0
 20 21  1  0
 21 22  1  0
 22 23  1  0
 15 24  1  0
 24 25  2  0
  7 26  1  0
 26 27  2  0
 27 28  1  0
 28  2  1  0
 27  4  1  0
 25 12  1  0
 23 19  1  0
  5 29  1  0
  6 30  1  0
 13 31  1  0
 14 32  1  0
 19 33  1  0
 20 34  1  0
 20 35  1  0
 21 36  1  0
 21 37  1  0
 22 38  1  0
 22 39  1  0
 23 40  1  0
 23 41  1  0
 24 42  1  0
 25 43  1  0
 26 44  1  0
M  CHG  4   3  -1  11  -1  19   1  28  -1
M  END
>  <UniqueID>  (2) 
2

>  <SMILES>  (2) 
O=c1[n-]c2ccc(S(=O)(=O)[N-]c3ccc(S(=O)(=O)[NH+]4CCCC4)cc3)cc2[n-]1

>  <Energy>  (2) 
89.00648808589824

>  <Genealogy>  (2) 
O=c1[n-]c2ccc(S(=O)(=O)[N-]c3ccc(S(=O)(=O)[NH+]4CCCC4)cc3)cc2[n-]1 (protonated)
O=c1[n-]c2ccc(S(=O)(=O)[N-]c3ccc(S(=O)(=O)[NH+]4CCCC4)cc3)cc2[n-]1 (3D coordinates assigned)
O=c1[n-]c2ccc(S(=O)(=O)[N-]c3ccc(S(=O)(=O)[NH+]4CCCC4)cc3)cc2[n-]1 (nonaromatic ring conformer: 89.00648808589824 kcal/mol)

>  <smiles>  (2) 
O=c1[nH]c2ccc(S(=O)(=O)Nc3ccc(S(=O)(=O)N4CCCC4)cc3)cc2[nH]1

>  <score_type>  (2) 
oracle

>  <origin>  (2) 
adgpu

>  <m_score__min__energy>  (2) 
-10.81

>  <m_primary>  (2) 
energy

$$$$
2:0
     RDKit          3D

 57 60  0  0  0  0  0  0  0  0999 V2000
   -9.2070   19.8370  -32.0050 C   0  0  0  0  0  0  0  0  0  0  0  0
   -8.1780   20.9360  -31.9560 C   0  0  0  0  0  0  0  0  0  0  0  0
   -8.6470   22.2540  -31.8410 C   0  0  0  0  0  0  0  0  0  0  0  0
   -7.7670   23.3300  -31.8480 C   0  0  0  0  0  0  0  0  0  0  0  0
   -6.3930   23.1210  -32.0000 C   0  0  0  0  0  0  0  0  0  0  0  0
   -5.4790   24.2280  -32.0010 N   0  0  0  0  0  0  0  0  0  0  0  0
   -5.2070   25.0940  -30.8920 C   0  0  0  0  0  0  0  0  0  0  0  0
   -6.1320   25.7680  -30.3640 O   0  0  0  0  0  0  0  0  0  0  0  0
   -3.8640   25.2780  -30.4380 N   0  0  0  0  0  0  0  0  0  0  0  0
   -3.1960   24.3990  -29.5240 C   0  0  0  0  0  0  0  0  0  0  0  0
   -3.6530   23.0860  -29.4030 C   0  0  0  0  0  0  0  0  0  0  0  0
   -3.0410   22.2100  -28.5080 C   0  0  0  0  0  0  0  0  0  0  0  0
   -1.9470   22.6240  -27.7450 C   0  0  0  0  0  0  0  0  0  0  0  0
   -1.2820   21.4780  -26.5840 Cl  0  0  0  0  0  0  0  0  0  0  0  0
   -1.4280   23.9280  -27.9010 C   0  0  0  0  0  0  0  0  0  0  0  0
   -0.0070   24.4520  -26.9670 S   0  0  0  0  0  0  0  0  0  0  0  0
    0.8310   23.2490  -26.6360 O   0  0  0  0  0  0  0  0  0  0  0  0
    0.8490   25.3870  -27.7750 O   0  0  0  0  0  0  0  0  0  0  0  0
   -0.4740   25.2630  -25.4350 C   0  0  0  0  0  0  0  0  0  0  0  0
   -1.9040   25.7750  -25.3370 C   0  0  0  0  0  0  0  0  0  0  0  0
   -0.7680   26.7460  -25.5980 C   0  0  0  0  0  0  0  0  0  0  0  0
   -2.0690   24.8190  -28.7900 C   0  0  0  0  0  0  0  0  0  0  0  0
   -1.5800   26.1090  -28.9660 O   0  0  0  0  0  0  0  0  0  0  0  0
   -5.8960   21.8080  -32.1010 C   0  0  0  0  0  0  0  0  0  0  0  0
   -4.5240   21.5990  -32.2560 O   0  0  0  0  0  0  0  0  0  0  0  0
   -6.7770   20.6970  -32.0670 C   0  0  0  0  0  0  0  0  0  0  0  0
   -6.0930   19.0480  -32.2410 S   0  0  0  0  0  0  0  0  0  0  0  0
   -6.7320   18.1570  -31.2110 O   0  0  0  0  0  0  0  0  0  0  0  0
   -4.6210   19.0530  -31.9400 O   0  0  0  0  0  0  0  0  0  0  0  0
   -6.3260   18.3280  -33.8260 N   0  0  0  0  0  0  0  0  0  0  0  0
   -6.8500   16.9530  -33.7880 C   0  0  0  0  0  0  0  0  0  0  0  0
   -5.7460   15.8960  -33.5680 C   0  0  0  0  0  0  0  0  0  0  0  0
   -4.4410   16.2660  -34.1420 N   0  0  0  0  0  0  0  0  0  0  0  0
   -4.5670   17.2190  -35.2460 C   0  0  0  0  0  0  0  0  0  0  0  0
   -5.2010   18.5340  -34.7640 C   0  0  0  0  0  0  0  0  0  0  0  0
   -9.4805   19.5449  -30.9804 H   0  0  0  0  0  0  0  0  0  0  0  0
  -10.1016   20.1957  -32.5352 H   0  0  0  0  0  0  0  0  0  0  0  0
   -8.7903   18.9679  -32.5352 H   0  0  0  0  0  0  0  0  0  0  0  0
   -9.7271   22.4381  -31.7439 H   0  0  0  0  0  0  0  0  0  0  0  0
   -8.1544   24.3531  -31.7331 H   0  0  0  0  0  0  0  0  0  0  0  0
   -4.4989   22.7412  -30.0159 H   0  0  0  0  0  0  0  0  0  0  0  0
   -3.4230   21.1839  -28.4018 H   0  0  0  0  0  0  0  0  0  0  0  0
    0.1584   24.6399  -24.7856 H   0  0  0  0  0  0  0  0  0  0  0  0
   -2.6259   25.5461  -26.1348 H   0  0  0  0  0  0  0  0  0  0  0  0
   -2.7069   25.7007  -24.5888 H   0  0  0  0  0  0  0  0  0  0  0  0
   -0.6669   27.2211  -26.5849 H   0  0  0  0  0  0  0  0  0  0  0  0
   -0.4072   27.6671  -25.1170 H   0  0  0  0  0  0  0  0  0  0  0  0
   -3.9690   21.0730  -31.5940 H   0  0  0  0  0  0  0  0  0  0  0  0
   -7.5776   16.8771  -32.9665 H   0  0  0  0  0  0  0  0  0  0  0  0
   -7.3132   16.7487  -34.7646 H   0  0  0  0  0  0  0  0  0  0  0  0
   -5.6187   15.7487  -32.4854 H   0  0  0  0  0  0  0  0  0  0  0  0
   -6.0732   14.9812  -34.0838 H   0  0  0  0  0  0  0  0  0  0  0  0
   -3.8430   16.6950  -33.3990 H   0  0  0  0  0  0  0  0  0  0  0  0
   -3.5683   17.4295  -35.6562 H   0  0  0  0  0  0  0  0  0  0  0  0
   -5.2141   16.7788  -36.0190 H   0  0  0  0  0  0  0  0  0  0  0  0
   -4.4277   19.1300  -34.2572 H   0  0  0  0  0  0  0  0  0  0  0  0
   -5.6033   19.0474  -35.6498 H   0  0  0  0  0  0  0  0  0  0  0  0
  1  2  1  0
  2  3  2  0
  3  4  1  0
  4  5  2  0
  5  6  1  0
  6  7  1  0
  7  8  2  0
  7  9  1  0
  9 10  1  0
 10 11  2  0
 11 12  1  0
 12 13  2  0
 13 14  1  0
 13 15  1  0
 15 16  1  0
 16 17  2  0
 16 18  2  0
 16 19  1  0
 19 20  1  0
 20 21  1  0
 15 22  2  0
 22 23  1  0
  5 24  1  0
 24 25  1  0
 24 26  2  0
 26 27  1  0
 27 28  2  0
 27 29  2  0
 27 30  1  0
 30 31  1  0
 31 32  1  0
 32 33  1  0
 33 34  1  0
 34 35  1  0
 26  2  1  0
 35 30  1  0
 22 10  1  0
 21 19  1  0
  1 36  1  0
  1 37  1  0
  1 38  1  0
  3 39  1  0
  4 40  1  0
 11 41  1  0
 12 42  1  0
 19 43  1  0
 20 44  1  0
 20 45  1  0
 21 46  1  0
 21 47  1  0
 25 48  1  0
 31 49  1  0
 31 50  1  0
 32 51  1  0
 32 52  1  0
 33 53  1  0
 34 54  1  0
 34 55  1  0
 35 56  1  0
 35 57  1  0
M  CHG  3   6  -1   9  -1  23  -1
M  END
>  <UniqueID>  (3) 
3

>  <SMILES>  (3) 
Cc1ccc([N-]C(=O)[N-]c2ccc(Cl)c(S(=O)(=O)C3CC3)c2[O-])c(O)c1S(=O)(=O)N1CCNCC1

>  <Energy>  (3) 
348.877597318078

>  <Genealogy>  (3) 
Cc1ccc([N-]C(=O)[N-]c2ccc(Cl)c(S(=O)(=O)C3CC3)c2[O-])c(O)c1S(=O)(=O)N1CCNCC1 (protonated)
Cc1ccc([N-]C(=O)[N-]c2ccc(Cl)c(S(=O)(=O)C3CC3)c2[O-])c(O)c1S(=O)(=O)N1CCNCC1 (3D coordinates assigned)
Cc1ccc([N-]C(=O)[N-]c2ccc(Cl)c(S(=O)(=O)C3CC3)c2[O-])c(O)c1S(=O)(=O)N1CCNCC1 (nonaromatic ring conformer: 348.877597318078 kcal/mol)

>  <smiles>  (3) 
Cc1ccc(NC(=O)Nc2ccc(Cl)c(S(=O)(=O)C3CC3)c2O)c(O)c1S(=O)(=O)N1CCNCC1

>  <score_type>  (3) 
oracle

>  <origin>  (3) 
adgpu

>  <m_score__min__energy>  (3) 
-16.579999999999998

>  <m_primary>  (3) 
energy

$$$$
3:0
     RDKit          3D

 57 60  0  0  0  0  0  0  0  0999 V2000
   -5.5100   26.3130  -30.1410 O   0  0  0  0  0  0  0  0  0  0  0  0
   -5.0200   25.2260  -30.5500 C   0  0  0  0  0  0  0  0  0  0  0  0
   -3.5980   25.0400  -30.5550 N   0  0  0  0  0  0  0  0  0  0  0  0
   -2.8310   24.3850  -29.5340 C   0  0  0  0  0  0  0  0  0  0  0  0
   -2.9870   23.0040  -29.3680 C   0  0  0  0  0  0  0  0  0  0  0  0
   -2.2530   22.3160  -28.3920 C   0  0  0  0  0  0  0  0  0  0  0  0
   -2.4280   20.5740  -28.1910 S   0  0  0  0  0  0  0  0  0  0  0  0
   -3.4790   20.0480  -29.1310 O   0  0  0  0  0  0  0  0  0  0  0  0
   -2.8620   20.2920  -26.7790 O   0  0  0  0  0  0  0  0  0  0  0  0
   -0.9010   19.7900  -28.5060 N   0  0  0  0  0  0  0  0  0  0  0  0
   -0.7240   19.6020  -29.9620 C   0  0  0  0  0  0  0  0  0  0  0  0
    0.4310   18.6330  -30.2990 C   0  0  0  0  0  0  0  0  0  0  0  0
    1.3560   18.4190  -29.0990 C   0  0  0  0  0  0  0  0  0  0  0  0
    0.5710   17.9030  -27.8820 C   0  0  0  0  0  0  0  0  0  0  0  0
   -0.8460   18.5000  -27.7990 C   0  0  0  0  0  0  0  0  0  0  0  0
   -1.3400   23.0140  -27.5930 C   0  0  0  0  0  0  0  0  0  0  0  0
   -1.1530   24.3850  -27.7740 C   0  0  0  0  0  0  0  0  0  0  0  0
   -1.8780   25.0720  -28.7530 C   0  0  0  0  0  0  0  0  0  0  0  0
   -1.6140   26.4210  -28.9640 O   0  0  0  0  0  0  0  0  0  0  0  0
   -5.9150   24.1250  -30.9780 C   0  0  0  0  0  0  0  0  0  0  0  0
   -6.7680   23.4970  -30.0510 C   0  0  0  0  0  0  0  0  0  0  0  0
   -7.6130   22.4580  -30.4550 C   0  0  0  0  0  0  0  0  0  0  0  0
   -7.6100   22.0280  -31.7860 C   0  0  0  0  0  0  0  0  0  0  0  0
   -8.6740   20.6770  -32.3020 S   0  0  0  0  0  0  0  0  0  0  0  0
   -7.5940   19.3550  -31.6440 C   0  0  0  0  0  0  0  0  0  0  0  0
   -6.2240   19.4120  -32.2630 C   0  0  0  0  0  0  0  0  0  0  0  0
   -5.1700   20.0650  -31.6030 C   0  0  0  0  0  0  0  0  0  0  0  0
   -3.9100   20.1540  -32.2020 C   0  0  0  0  0  0  0  0  0  0  0  0
   -3.6930   19.5910  -33.4650 C   0  0  0  0  0  0  0  0  0  0  0  0
   -2.1130   19.7060  -34.2170 Cl  0  0  0  0  0  0  0  0  0  0  0  0
   -4.7380   18.9390  -34.1280 C   0  0  0  0  0  0  0  0  0  0  0  0
   -6.0000   18.8500  -33.5310 C   0  0  0  0  0  0  0  0  0  0  0  0
   -6.7720   22.6530  -32.7170 C   0  0  0  0  0  0  0  0  0  0  0  0
   -5.9280   23.6920  -32.3170 C   0  0  0  0  0  0  0  0  0  0  0  0
   -3.6917   22.4539  -30.0090 H   0  0  0  0  0  0  0  0  0  0  0  0
   -1.6571   19.1975  -30.3811 H   0  0  0  0  0  0  0  0  0  0  0  0
   -0.4754   20.5813  -30.3969 H   0  0  0  0  0  0  0  0  0  0  0  0
    0.0072   17.6636  -30.6002 H   0  0  0  0  0  0  0  0  0  0  0  0
    1.0227   19.0740  -31.1148 H   0  0  0  0  0  0  0  0  0  0  0  0
    2.1283   17.6830  -29.3671 H   0  0  0  0  0  0  0  0  0  0  0  0
    1.8163   19.3827  -28.8356 H   0  0  0  0  0  0  0  0  0  0  0  0
    0.4892   16.8084  -27.9531 H   0  0  0  0  0  0  0  0  0  0  0  0
    1.1167   18.2094  -26.9774 H   0  0  0  0  0  0  0  0  0  0  0  0
   -1.5607   17.8028  -28.2606 H   0  0  0  0  0  0  0  0  0  0  0  0
   -1.1043   18.6609  -26.7419 H   0  0  0  0  0  0  0  0  0  0  0  0
   -0.7680   22.4801  -26.8199 H   0  0  0  0  0  0  0  0  0  0  0  0
   -0.4325   24.9275  -27.1442 H   0  0  0  0  0  0  0  0  0  0  0  0
   -6.7701   23.8257  -29.0012 H   0  0  0  0  0  0  0  0  0  0  0  0
   -8.2811   21.9782  -29.7246 H   0  0  0  0  0  0  0  0  0  0  0  0
   -7.5008   19.4770  -30.5548 H   0  0  0  0  0  0  0  0  0  0  0  0
   -8.0461   18.3825  -31.8885 H   0  0  0  0  0  0  0  0  0  0  0  0
   -5.3368   20.5084  -30.6102 H   0  0  0  0  0  0  0  0  0  0  0  0
   -3.0885   20.6669  -31.6804 H   0  0  0  0  0  0  0  0  0  0  0  0
   -4.5672   18.4957  -35.1201 H   0  0  0  0  0  0  0  0  0  0  0  0
   -6.8199   18.3382  -34.0562 H   0  0  0  0  0  0  0  0  0  0  0  0
   -6.7781   22.3250  -33.7669 H   0  0  0  0  0  0  0  0  0  0  0  0
   -5.2691   24.1749  -33.0537 H   0  0  0  0  0  0  0  0  0  0  0  0
  1  2  2  0
  2  3  1  0
  3  4  1  0
  4  5  2  0
  5  6  1  0
  6  7  1  0
  7  8  2  0
  7  9  2  0
  7 10  1  0
 10 11  1  0
 11 12  1  0
 12 13  1  0
 13 14  1  0
 14 15  1  0
  6 16  2  0
 16 17  1  0
 17 18  2  0
 18 19  1  0
  2 20  1  0
 20 21  2  0
 21 22  1  0
 22 23  2  0
 23 24  1  0
 24 25  1  0
 25 26  1  0
 26 27  2  0
 27 28  1  0
 28 29  2  0
 29 30  1  0
 29 31  1  0
 31 32  2  0
 23 33  1  0
 33 34  2  0
 18  4  1  0
 34 20  1  0
 15 10  1  0
 32 26  1  0
  5 35  1  0
 11 36  1  0
 11 37  1  0
 12 38  1  0
 12 39  1  0
 13 40  1  0
 13 41  1  0
 14 42  1  0
 14 43  1  0
 15 44  1  0
 15 45  1  0
 16 46  1  0
 17 47  1  0
 21 48  1  0
 22 49  1  0
 25 50  1  0
 25 51  1  0
 27 52  1  0
 28 53  1  0
 31 54  1  0
 32 55  1  0
 33 56  1  0
 34 57  1  0
M  CHG  2   3  -1  19  -1
M  END
>  <UniqueID>  (4) 
4

>  <SMILES>  (4) 
O=C([N-]c1cc(S(=O)(=O)N2CCCCC2)ccc1[O-])c1ccc(SCc2ccc(Cl)cc2)cc1

>  <Energy>  (4) 
63.97788970780723

>  <Genealogy>  (4) 
O=C([N-]c1cc(S(=O)(=O)N2CCCCC2)ccc1[O-])c1ccc(SCc2ccc(Cl)cc2)cc1 (protonated)
O=C([N-]c1cc(S(=O)(=O)N2CCCCC2)ccc1[O-])c1ccc(SCc2ccc(Cl)cc2)cc1 (3D coordinates assigned)
O=C([N-]c1cc(S(=O)(=O)N2CCCCC2)ccc1[O-])c1ccc(SCc2ccc(Cl)cc2)cc1 (nonaromatic ring conformer: 63.97788970780723 kcal/mol)

>  <smiles>  (4) 
O=C(Nc1cc(S(=O)(=O)N2CCCCC2)ccc1O)c1ccc(SCc2ccc(Cl)cc2)cc1

>  <score_type>  (4) 
oracle

>  <origin>  (4) 
adgpu

>  <m_score__min__energy>  (4) 
-15.82

>  <m_primary>  (4) 
energy

$$$$
4:0
     RDKit          3D

 54 57  0  0  0  0  0  0  0  0999 V2000
   -5.3980   24.1270  -29.4330 O   0  0  0  0  0  0  0  0  0  0  0  0
   -4.1400   24.0620  -30.2480 S   0  0  0  0  0  0  0  0  0  0  0  0
   -3.8720   25.4200  -30.8260 O   0  0  0  0  0  0  0  0  0  0  0  0
   -4.3250   22.9360  -31.5540 N   0  0  0  0  0  0  0  0  0  0  0  0
   -5.5540   22.2500  -31.8020 C   0  0  0  0  0  0  0  0  0  0  0  0
   -5.5200   20.8710  -32.0480 C   0  0  0  0  0  0  0  0  0  0  0  0
   -6.7070   20.1470  -32.2230 C   0  0  0  0  0  0  0  0  0  0  0  0
   -7.9460   20.8130  -32.1550 C   0  0  0  0  0  0  0  0  0  0  0  0
   -7.9760   22.2040  -31.9730 C   0  0  0  0  0  0  0  0  0  0  0  0
   -6.7890   22.9290  -31.8080 C   0  0  0  0  0  0  0  0  0  0  0  0
   -6.8640   24.3190  -31.6780 O   0  0  0  0  0  0  0  0  0  0  0  0
   -9.2310   20.0520  -32.3670 C   0  0  0  0  0  0  0  0  0  0  0  0
   -9.0770   18.5740  -31.9950 C   0  0  0  0  0  0  0  0  0  0  0  0
   -7.8740   17.9630  -32.7160 C   0  0  0  0  0  0  0  0  0  0  0  0
   -6.6630   18.7270  -32.4270 N   0  0  0  0  0  0  0  0  0  0  0  0
   -2.8190   23.5230  -29.2080 C   0  0  0  0  0  0  0  0  0  0  0  0
   -2.8580   22.2180  -28.6980 C   0  0  0  0  0  0  0  0  0  0  0  0
   -1.8310   21.7440  -27.8710 C   0  0  0  0  0  0  0  0  0  0  0  0
   -1.8920   20.0970  -27.2380 S   0  0  0  0  0  0  0  0  0  0  0  0
   -3.3270   19.6590  -27.1310 O   0  0  0  0  0  0  0  0  0  0  0  0
   -1.2960   20.0790  -25.8570 O   0  0  0  0  0  0  0  0  0  0  0  0
   -1.0150   18.9820  -28.2590 N   0  0  0  0  0  0  0  0  0  0  0  0
   -0.4530   19.6950  -29.4230 C   0  0  0  0  0  0  0  0  0  0  0  0
    0.5300   18.8140  -30.2350 C   0  0  0  0  0  0  0  0  0  0  0  0
    0.4460   17.3410  -29.8260 C   0  0  0  0  0  0  0  0  0  0  0  0
    0.6750   17.1720  -28.3130 C   0  0  0  0  0  0  0  0  0  0  0  0
    0.0480   18.3150  -27.4880 C   0  0  0  0  0  0  0  0  0  0  0  0
   -0.7600   22.5850  -27.5460 C   0  0  0  0  0  0  0  0  0  0  0  0
   -0.7190   23.8900  -28.0400 C   0  0  0  0  0  0  0  0  0  0  0  0
   -1.7420   24.3660  -28.8670 C   0  0  0  0  0  0  0  0  0  0  0  0
   -1.6760   25.6720  -29.3350 O   0  0  0  0  0  0  0  0  0  0  0  0
   -4.5520   20.3516  -32.1043 H   0  0  0  0  0  0  0  0  0  0  0  0
   -8.9417   22.7305  -31.9598 H   0  0  0  0  0  0  0  0  0  0  0  0
   -6.0880   24.8820  -31.3390 H   0  0  0  0  0  0  0  0  0  0  0  0
  -10.0178   20.4979  -31.7408 H   0  0  0  0  0  0  0  0  0  0  0  0
   -9.4963   20.1135  -33.4328 H   0  0  0  0  0  0  0  0  0  0  0  0
   -8.9300   18.4876  -30.9083 H   0  0  0  0  0  0  0  0  0  0  0  0
   -9.9859   18.0340  -32.2987 H   0  0  0  0  0  0  0  0  0  0  0  0
   -7.7372   16.9255  -32.3769 H   0  0  0  0  0  0  0  0  0  0  0  0
   -8.0593   17.9860  -33.8000 H   0  0  0  0  0  0  0  0  0  0  0  0
   -5.7420   18.2360  -32.4620 H   0  0  0  0  0  0  0  0  0  0  0  0
   -3.7028   21.5598  -28.9493 H   0  0  0  0  0  0  0  0  0  0  0  0
   -1.2786   20.0027  -30.0815 H   0  0  0  0  0  0  0  0  0  0  0  0
    0.1067   20.5640  -29.0468 H   0  0  0  0  0  0  0  0  0  0  0  0
    0.2858   18.9009  -31.3040 H   0  0  0  0  0  0  0  0  0  0  0  0
    1.5520   19.1669  -30.0323 H   0  0  0  0  0  0  0  0  0  0  0  0
   -0.5503   16.9527  -30.0841 H   0  0  0  0  0  0  0  0  0  0  0  0
    1.2287   16.7843  -30.3622 H   0  0  0  0  0  0  0  0  0  0  0  0
    0.2273   16.2196  -27.9929 H   0  0  0  0  0  0  0  0  0  0  0  0
    1.7605   17.1892  -28.1358 H   0  0  0  0  0  0  0  0  0  0  0  0
   -0.3803   17.9015  -26.5630 H   0  0  0  0  0  0  0  0  0  0  0  0
    0.8292   19.0510  -27.2471 H   0  0  0  0  0  0  0  0  0  0  0  0
    0.0507   22.2168  -26.9002 H   0  0  0  0  0  0  0  0  0  0  0  0
    0.1226   24.5479  -27.7775 H   0  0  0  0  0  0  0  0  0  0  0  0
  1  2  2  0
  2  3  2  0
  2  4  1  0
  4  5  1  0
  5  6  2  0
  6  7  1  0
  7  8  2  0
  8  9  1  0
  9 10  2  0
 10 11  1  0
  8 12  1  0
 12 13  1  0
 13 14  1  0
 14 15  1  0
  2 16  1  0
 16 17  2  0
 17 18  1  0
 18 19  1  0
 19 20  2  0
 19 21  2  0
 19 22  1  0
 22 23  1  0
 23 24  1  0
 24 25  1  0
 25 26  1  0
 26 27  1  0
 18 28  2  0
 28 29  1  0
 29 30  2  0
 30 31  1  0
 10  5  1  0
 30 16  1  0
 15  7  1  0
 27 22  1  0
  6 32  1  0
  9 33  1  0
 11 34  1  0
 12 35  1  0
 12 36  1  0
 13 37  1  0
 13 38  1  0
 14 39  1  0
 14 40  1  0
 15 41  1  0
 17 42  1  0
 23 43  1  0
 23 44  1  0
 24 45  1  0
 24 46  1  0
 25 47  1  0
 25 48  1  0
 26 49  1  0
 26 50  1  0
 27 51  1  0
 27 52  1  0
 28 53  1  0
 29 54  1  0
M  CHG  2   4  -1  31  -1
M  END
>  <UniqueID>  (5) 
5

>  <SMILES>  (5) 
O=S(=O)([N-]c1cc2c(cc1O)CCCN2)c1cc(S(=O)(=O)N2CCCCC2)ccc1[O-]

>  <Energy>  (5) 
66.69217188639642

>  <Genealogy>  (5) 
O=S(=O)([N-]c1cc2c(cc1O)CCCN2)c1cc(S(=O)(=O)N2CCCCC2)ccc1[O-] (protonated)
O=S(=O)([N-]c1cc2c(cc1O)CCCN2)c1cc(S(=O)(=O)N2CCCCC2)ccc1[O-] (3D coordinates assigned)
O=S(=O)([N-]c1cc2c(cc1O)CCCN2)c1cc(S(=O)(=O)N2CCCCC2)ccc1[O-] (nonaromatic ring conformer: 66.69217188639642 kcal/mol)

>  <smiles>  (5) 
O=S(=O)(Nc1cc2c(cc1O)CCCN2)c1cc(S(=O)(=O)N2CCCCC2)ccc1O

>  <score_type>  (5) 
oracle

>  <origin>  (5) 
adgpu

>  <m_score__min__energy>  (5) 
-13.970000000000001

>  <m_primary>  (5) 
energy

$$$$
5:0
     RDKit          3D

 49 51  0  0  0  0  0  0  0  0999 V2000
   -3.6020   19.6700  -33.4500 C   0  0  0  0  0  0  0  0  0  0  0  0
   -5.1210   19.5670  -33.5510 C   0  0  0  0  0  0  0  0  0  0  0  0
   -5.7450   19.6590  -32.1910 C   0  0  0  0  0  0  0  0  0  0  0  0
   -5.6670   18.6800  -31.4020 O   0  0  0  0  0  0  0  0  0  0  0  0
   -6.4810   20.8300  -31.8050 N   0  0  0  0  0  0  0  0  0  0  0  0
   -7.9320   20.8160  -32.0330 C   0  0  0  0  0  0  0  0  0  0  0  0
   -8.6320   21.8920  -31.2030 C   0  0  0  0  0  0  0  0  0  0  0  0
   -8.0290   23.2640  -31.5030 C   0  0  0  0  0  0  0  0  0  0  0  0
   -6.5380   23.2560  -31.2990 C   0  0  0  0  0  0  0  0  0  0  0  0
   -5.8760   24.4530  -30.9910 C   0  0  0  0  0  0  0  0  0  0  0  0
   -4.4940   24.4720  -30.8020 C   0  0  0  0  0  0  0  0  0  0  0  0
   -3.8630   25.6690  -30.4810 O   0  0  0  0  0  0  0  0  0  0  0  0
   -3.7480   23.2940  -30.9280 C   0  0  0  0  0  0  0  0  0  0  0  0
   -2.3330   23.3450  -30.6950 N   0  0  0  0  0  0  0  0  0  0  0  0
   -1.5780   23.5390  -29.1440 S   0  0  0  0  0  0  0  0  0  0  0  0
   -2.1400   24.7570  -28.4680 O   0  0  0  0  0  0  0  0  0  0  0  0
   -0.0960   23.6930  -29.3440 O   0  0  0  0  0  0  0  0  0  0  0  0
   -1.8860   22.1150  -28.1360 C   0  0  0  0  0  0  0  0  0  0  0  0
   -2.7770   21.1330  -28.6000 C   0  0  0  0  0  0  0  0  0  0  0  0
   -3.0320   19.9880  -27.8450 C   0  0  0  0  0  0  0  0  0  0  0  0
   -2.3930   19.7960  -26.6140 C   0  0  0  0  0  0  0  0  0  0  0  0
   -2.6880   18.5780  -25.7900 C   0  0  0  0  0  0  0  0  0  0  0  0
   -1.5260   20.7830  -26.1270 C   0  0  0  0  0  0  0  0  0  0  0  0
   -1.2660   21.9470  -26.8730 C   0  0  0  0  0  0  0  0  0  0  0  0
   -0.3080   22.9680  -26.3180 C   0  0  0  0  0  0  0  0  0  0  0  0
   -4.4010   22.0970  -31.2710 C   0  0  0  0  0  0  0  0  0  0  0  0
   -5.7960   22.0660  -31.4750 C   0  0  0  0  0  0  0  0  0  0  0  0
   -3.3055   19.6901  -32.3909 H   0  0  0  0  0  0  0  0  0  0  0  0
   -3.1420   18.8010  -33.9431 H   0  0  0  0  0  0  0  0  0  0  0  0
   -3.2635   20.5932  -33.9431 H   0  0  0  0  0  0  0  0  0  0  0  0
   -5.4985   20.3876  -34.1788 H   0  0  0  0  0  0  0  0  0  0  0  0
   -5.3829   18.5965  -33.9977 H   0  0  0  0  0  0  0  0  0  0  0  0
   -8.1295   21.0002  -33.0993 H   0  0  0  0  0  0  0  0  0  0  0  0
   -8.3228   19.8333  -31.7305 H   0  0  0  0  0  0  0  0  0  0  0  0
   -9.7034   21.9035  -31.4519 H   0  0  0  0  0  0  0  0  0  0  0  0
   -8.4975   21.6661  -30.1349 H   0  0  0  0  0  0  0  0  0  0  0  0
   -8.2474   23.5320  -32.5472 H   0  0  0  0  0  0  0  0  0  0  0  0
   -8.4722   23.9988  -30.8148 H   0  0  0  0  0  0  0  0  0  0  0  0
   -6.4517   25.3857  -30.8975 H   0  0  0  0  0  0  0  0  0  0  0  0
   -3.2791   21.2684  -29.5693 H   0  0  0  0  0  0  0  0  0  0  0  0
   -3.7386   19.2322  -28.2186 H   0  0  0  0  0  0  0  0  0  0  0  0
   -2.6260   18.8340  -24.7220 H   0  0  0  0  0  0  0  0  0  0  0  0
   -3.7001   18.2148  -26.0218 H   0  0  0  0  0  0  0  0  0  0  0  0
   -1.9543   17.7919  -26.0218 H   0  0  0  0  0  0  0  0  0  0  0  0
   -1.0423   20.6460  -25.1486 H   0  0  0  0  0  0  0  0  0  0  0  0
   -0.3363   22.9379  -25.2188 H   0  0  0  0  0  0  0  0  0  0  0  0
    0.7110   22.7414  -26.6649 H   0  0  0  0  0  0  0  0  0  0  0  0
   -0.5990   23.9705  -26.6649 H   0  0  0  0  0  0  0  0  0  0  0  0
   -3.8158   21.1722  -31.3817 H   0  0  0  0  0  0  0  0  0  0  0  0
  1  2  1  0
  2  3  1  0
  3  4  2  0
  3  5  1  0
  5  6  1  0
  6  7  1  0
  7  8  1  0
  8  9  1  0
  9 10  2  0
 10 11  1  0
 11 12  1  0
 11 13  2  0
 13 14  1  0
 14 15  1  0
 15 16  2  0
 15 17  2  0
 15 18  1  0
 18 19  2  0
 19 20  1  0
 20 21  2  0
 21 22  1  0
 21 23  1  0
 23 24  2  0
 24 25  1  0
 13 26  1  0
 26 27  2  0
 27  5  1  0
 27  9  1  0
 24 18  1  0
  1 28  1  0
  1 29  1  0
  1 30  1  0
  2 31  1  0
  2 32  1  0
  6 33  1  0
  6 34  1  0
  7 35  1  0
  7 36  1  0
  8 37  1  0
  8 38  1  0
 10 39  1  0
 19 40  1  0
 20 41  1  0
 22 42  1  0
 22 43  1  0
 22 44  1  0
 23 45  1  0
 25 46  1  0
 25 47  1  0
 25 48  1  0
 26 49  1  0
M  CHG  2  12  -1  14  -1
M  END
>  <UniqueID>  (6) 
6

>  <SMILES>  (6) 
CCC(=O)N1CCCc2cc([O-])c([N-]S(=O)(=O)c3ccc(C)cc3C)cc21

>  <Energy>  (6) 
57.86283074365617

>  <Genealogy>  (6) 
CCC(=O)N1CCCc2cc([O-])c([N-]S(=O)(=O)c3ccc(C)cc3C)cc21 (protonated)
CCC(=O)N1CCCc2cc([O-])c([N-]S(=O)(=O)c3ccc(C)cc3C)cc21 (3D coordinates assigned)
CCC(=O)N1CCCc2cc([O-])c([N-]S(=O)(=O)c3ccc(C)cc3C)cc21 (nonaromatic ring conformer: 57.86283074365617 kcal/mol)

>  <smiles>  (6) 
CCC(=O)N1CCCc2cc(O)c(NS(=O)(=O)c3ccc(C)cc3C)cc21

>  <score_type>  (6) 
oracle

>  <origin>  (6) 
adgpu

>  <m_score__min__energy>  (6) 
-13.17

>  <m_primary>  (6) 
energy

$$$$
6:0
     RDKit          3D

 60 64  0  0  0  0  0  0  0  0999 V2000
   -9.4410   21.2920  -31.9380 C   0  0  0  0  0  0  0  0  0  0  0  0
   -8.1270   21.7700  -31.5070 N   0  0  0  0  0  0  0  0  0  0  0  0
   -7.9880   22.2530  -30.1340 C   0  0  0  0  0  0  0  0  0  0  0  0
   -6.9540   21.2890  -32.1860 C   0  0  0  0  0  0  0  0  0  0  0  0
   -6.8990   19.9350  -32.5480 C   0  0  0  0  0  0  0  0  0  0  0  0
   -5.7640   19.4160  -33.1790 C   0  0  0  0  0  0  0  0  0  0  0  0
   -5.6810   17.9900  -33.5860 C   0  0  0  0  0  0  0  0  0  0  0  0
   -6.7540   17.1010  -33.4000 C   0  0  0  0  0  0  0  0  0  0  0  0
   -6.6190   15.7700  -33.7950 C   0  0  0  0  0  0  0  0  0  0  0  0
   -5.4270   15.3250  -34.3650 C   0  0  0  0  0  0  0  0  0  0  0  0
   -4.3640   16.2280  -34.5330 C   0  0  0  0  0  0  0  0  0  0  0  0
   -3.1090   15.8130  -35.1070 N   0  0  0  0  0  0  0  0  0  0  0  0
   -2.9720   14.6020  -35.8960 C   0  0  0  0  0  0  0  0  0  0  0  0
   -1.5510   14.6240  -36.4420 C   0  0  0  0  0  0  0  0  0  0  0  0
   -0.7940   15.6450  -35.5970 C   0  0  0  0  0  0  0  0  0  0  0  0
   -1.8560   16.5350  -34.9640 C   0  0  0  0  0  0  0  0  0  0  0  0
   -4.5250   17.5220  -34.1370 N   0  0  0  0  0  0  0  0  0  0  0  0
   -4.6960   20.2800  -33.4420 C   0  0  0  0  0  0  0  0  0  0  0  0
   -4.7690   21.6240  -33.0700 C   0  0  0  0  0  0  0  0  0  0  0  0
   -3.7720   22.3620  -33.3000 O   0  0  0  0  0  0  0  0  0  0  0  0
   -5.8940   22.1260  -32.4580 N   0  0  0  0  0  0  0  0  0  0  0  0
   -5.9790   23.5680  -32.1370 C   0  0  0  0  0  0  0  0  0  0  0  0
   -4.8710   23.9800  -31.2110 C   0  0  0  0  0  0  0  0  0  0  0  0
   -4.4710   25.2580  -31.0420 N   0  0  0  0  0  0  0  0  0  0  0  0
   -3.5000   25.2900  -30.1390 N   0  0  0  0  0  0  0  0  0  0  0  0
   -3.2880   24.0290  -29.7200 C   0  0  0  0  0  0  0  0  0  0  0  0
   -4.1110   23.1650  -30.3960 C   0  0  0  0  0  0  0  0  0  0  0  0
   -4.2270   21.7020  -30.0840 C   0  0  0  0  0  0  0  0  0  0  0  0
   -2.9920   21.2200  -29.2970 C   0  0  0  0  0  0  0  0  0  0  0  0
   -2.6120   22.2000  -28.1660 C   0  0  0  0  0  0  0  0  0  0  0  0
   -2.2640   23.5970  -28.7170 C   0  0  0  0  0  0  0  0  0  0  0  0
  -10.0574   21.0678  -31.0549 H   0  0  0  0  0  0  0  0  0  0  0  0
   -9.9338   22.0685  -32.5415 H   0  0  0  0  0  0  0  0  0  0  0  0
   -9.3197   20.3804  -32.5415 H   0  0  0  0  0  0  0  0  0  0  0  0
   -8.2225   21.4382  -29.4332 H   0  0  0  0  0  0  0  0  0  0  0  0
   -6.9554   22.5937  -29.9679 H   0  0  0  0  0  0  0  0  0  0  0  0
   -8.6816   23.0905  -29.9679 H   0  0  0  0  0  0  0  0  0  0  0  0
   -7.7542   19.2771  -32.3342 H   0  0  0  0  0  0  0  0  0  0  0  0
   -7.6926   17.4522  -32.9466 H   0  0  0  0  0  0  0  0  0  0  0  0
   -7.4556   15.0694  -33.6563 H   0  0  0  0  0  0  0  0  0  0  0  0
   -5.3199   14.2766  -34.6802 H   0  0  0  0  0  0  0  0  0  0  0  0
   -3.1268   13.7140  -35.2655 H   0  0  0  0  0  0  0  0  0  0  0  0
   -3.7167   14.5579  -36.7044 H   0  0  0  0  0  0  0  0  0  0  0  0
   -1.0889   13.6303  -36.3464 H   0  0  0  0  0  0  0  0  0  0  0  0
   -1.5325   14.8898  -37.5092 H   0  0  0  0  0  0  0  0  0  0  0  0
   -0.2072   15.1366  -34.8178 H   0  0  0  0  0  0  0  0  0  0  0  0
   -0.0890   16.2295  -36.2064 H   0  0  0  0  0  0  0  0  0  0  0  0
   -1.6303   16.7050  -33.9009 H   0  0  0  0  0  0  0  0  0  0  0  0
   -1.8987   17.5227  -35.4464 H   0  0  0  0  0  0  0  0  0  0  0  0
   -3.7945   19.8991  -33.9441 H   0  0  0  0  0  0  0  0  0  0  0  0
   -5.9041   24.1487  -33.0682 H   0  0  0  0  0  0  0  0  0  0  0  0
   -6.9410   23.7598  -31.6392 H   0  0  0  0  0  0  0  0  0  0  0  0
   -5.1306   21.5308  -29.4806 H   0  0  0  0  0  0  0  0  0  0  0  0
   -4.2900   21.1401  -31.0276 H   0  0  0  0  0  0  0  0  0  0  0  0
   -3.2126   20.2366  -28.8563 H   0  0  0  0  0  0  0  0  0  0  0  0
   -2.1444   21.1602  -29.9956 H   0  0  0  0  0  0  0  0  0  0  0  0
   -3.4612   22.2913  -27.4728 H   0  0  0  0  0  0  0  0  0  0  0  0
   -1.7247   21.8030  -27.6512 H   0  0  0  0  0  0  0  0  0  0  0  0
   -2.2412   24.3191  -27.8875 H   0  0  0  0  0  0  0  0  0  0  0  0
   -1.2796   23.5541  -29.2060 H   0  0  0  0  0  0  0  0  0  0  0  0
  1  2  1  0
  2  3  1  0
  2  4  1  0
  4  5  2  0
  5  6  1  0
  6  7  1  0
  7  8  2  0
  8  9  1  0
  9 10  2  0
 10 11  1  0
 11 12  1  0
 12 13  1  0
 13 14  1  0
 14 15  1  0
 15 16  1  0
 11 17  2  0
  6 18  2  0
 18 19  1  0
 19 20  2  0
 19 21  1  0
 21 22  1  0
 22 23  1  0
 23 24  2  0
 24 25  1  0
 25 26  1  0
 26 27  2  0
 27 28  1  0
 28 29  1  0
 29 30  1  0
 30 31  1  0
 21  4  1  0
 27 23  1  0
 17  7  1  0
 31 26  1  0
 16 12  1  0
  1 32  1  0
  1 33  1  0
  1 34  1  0
  3 35  1  0
  3 36  1  0
  3 37  1  0
  5 38  1  0
  8 39  1  0
  9 40  1  0
 10 41  1  0
 13 42  1  0
 13 43  1  0
 14 44  1  0
 14 45  1  0
 15 46  1  0
 15 47  1  0
 16 48  1  0
 16 49  1  0
 18 50  1  0
 22 51  1  0
 22 52  1  0
 28 53  1  0
 28 54  1  0
 29 55  1  0
 29 56  1  0
 30 57  1  0
 30 58  1  0
 31 59  1  0
 31 60  1  0
M  CHG  1  25  -1
M  END
>  <UniqueID>  (7) 
7

>  <SMILES>  (7) 
CN(C)c1cc(-c2cccc(N3CCCC3)n2)cc(=O)n1Cc1n[n-]c2c1CCCC2

>  <Energy>  (7) 
104.89919823717587

>  <Genealogy>  (7) 
CN(C)c1cc(-c2cccc(N3CCCC3)n2)cc(=O)n1Cc1n[n-]c2c1CCCC2 (protonated)
CN(C)c1cc(-c2cccc(N3CCCC3)n2)cc(=O)n1Cc1n[n-]c2c1CCCC2 (3D coordinates assigned)
CN(C)c1cc(-c2cccc(N3CCCC3)n2)cc(=O)n1Cc1n[n-]c2c1CCCC2 (nonaromatic ring conformer: 104.89919823717587 kcal/mol)

>  <smiles>  (7) 
CN(C)c1cc(-c2cccc(N3CCCC3)n2)cc(=O)n1Cc1n[nH]c2c1CCCC2

>  <score_type>  (7) 
oracle

>  <origin>  (7) 
adgpu

>  <m_score__min__energy>  (7) 
-11.029999999999999

>  <m_primary>  (7) 
energy

$$$$
7:0
     RDKit          3D

 42 45  0  0  0  0  0  0  0  0999 V2000
   -5.5040   25.3410  -28.8650 O   0  0  0  0  0  0  0  0  0  0  0  0
   -5.2290   25.0210  -30.3080 S   0  0  0  0  0  0  0  0  0  0  0  0
   -5.7390   26.1450  -31.1650 O   0  0  0  0  0  0  0  0  0  0  0  0
   -3.5170   24.8540  -30.5350 N   0  0  0  0  0  0  0  0  0  0  0  0
   -2.6740   24.1050  -29.6390 C   0  0  0  0  0  0  0  0  0  0  0  0
   -2.9590   22.7610  -29.3280 C   0  0  0  0  0  0  0  0  0  0  0  0
   -2.1040   22.0290  -28.4930 C   0  0  0  0  0  0  0  0  0  0  0  0
   -0.9710   22.6420  -27.9370 C   0  0  0  0  0  0  0  0  0  0  0  0
   -0.7060   23.9900  -28.2090 C   0  0  0  0  0  0  0  0  0  0  0  0
   -1.5460   24.7160  -29.0600 C   0  0  0  0  0  0  0  0  0  0  0  0
   -1.2460   26.0470  -29.3330 O   0  0  0  0  0  0  0  0  0  0  0  0
   -0.1110   21.8490  -26.9910 C   0  0  0  0  0  0  0  0  0  0  0  0
    0.1160   20.4060  -27.4900 C   0  0  0  0  0  0  0  0  0  0  0  0
   -1.0790   19.7770  -28.2530 C   0  0  0  0  0  0  0  0  0  0  0  0
   -2.3780   20.5900  -28.1580 C   0  0  0  0  0  0  0  0  0  0  0  0
   -6.0430   23.5330  -30.7830 C   0  0  0  0  0  0  0  0  0  0  0  0
   -7.2220   23.1290  -30.1470 C   0  0  0  0  0  0  0  0  0  0  0  0
   -7.8340   21.9230  -30.5000 C   0  0  0  0  0  0  0  0  0  0  0  0
   -7.2780   21.1020  -31.4990 C   0  0  0  0  0  0  0  0  0  0  0  0
   -7.9180   19.8570  -31.8460 N   0  0  0  0  0  0  0  0  0  0  0  0
   -7.3660   18.6430  -32.0330 C   0  0  0  0  0  0  0  0  0  0  0  0
   -8.3240   17.7500  -32.3420 N   0  0  0  0  0  0  0  0  0  0  0  0
   -9.4580   18.4370  -32.3390 N   0  0  0  0  0  0  0  0  0  0  0  0
   -9.2170   19.7040  -32.0410 N   0  0  0  0  0  0  0  0  0  0  0  0
   -6.0970   21.5210  -32.1390 C   0  0  0  0  0  0  0  0  0  0  0  0
   -5.4870   22.7270  -31.7840 C   0  0  0  0  0  0  0  0  0  0  0  0
   -3.1260   25.2040  -31.4370 H   0  0  0  0  0  0  0  0  0  0  0  0
   -3.8585   22.2829  -29.7432 H   0  0  0  0  0  0  0  0  0  0  0  0
    0.1662   24.4799  -27.7516 H   0  0  0  0  0  0  0  0  0  0  0  0
    0.8640   22.3488  -26.8932 H   0  0  0  0  0  0  0  0  0  0  0  0
   -0.6293   21.7967  -26.0222 H   0  0  0  0  0  0  0  0  0  0  0  0
    0.9854   20.4115  -28.1638 H   0  0  0  0  0  0  0  0  0  0  0  0
    0.2624   19.7906  -26.5901 H   0  0  0  0  0  0  0  0  0  0  0  0
   -0.8035   19.6879  -29.3142 H   0  0  0  0  0  0  0  0  0  0  0  0
   -1.2785   18.8022  -27.7840 H   0  0  0  0  0  0  0  0  0  0  0  0
   -3.1153   20.1842  -28.8663 H   0  0  0  0  0  0  0  0  0  0  0  0
   -2.7730   20.5247  -27.1335 H   0  0  0  0  0  0  0  0  0  0  0  0
   -7.6687   23.7626  -29.3666 H   0  0  0  0  0  0  0  0  0  0  0  0
   -8.7591   21.6125  -29.9922 H   0  0  0  0  0  0  0  0  0  0  0  0
   -6.2933   18.4156  -31.9462 H   0  0  0  0  0  0  0  0  0  0  0  0
   -5.6504   20.8942  -32.9250 H   0  0  0  0  0  0  0  0  0  0  0  0
   -4.5654   23.0448  -32.2935 H   0  0  0  0  0  0  0  0  0  0  0  0
  1  2  2  0
  2  3  2  0
  2  4  1  0
  4  5  1  0
  5  6  2  0
  6  7  1  0
  7  8  2  0
  8  9  1  0
  9 10  2  0
 10 11  1  0
  8 12  1  0
 12 13  1  0
 13 14  1  0
 14 15  1  0
  2 16  1  0
 16 17  2  0
 17 18  1  0
 18 19  2  0
 19 20  1  0
 20 21  1  0
 21 22  2  0
 22 23  1  0
 23 24  2  0
 19 25  1  0
 25 26  2  0
 10  5  1  0
 26 16  1  0
 15  7  1  0
 24 20  1  0
  4 27  1  0
  6 28  1  0
  9 29  1  0
 12 30  1  0
 12 31  1  0
 13 32  1  0
 13 33  1  0
 14 34  1  0
 14 35  1  0
 15 36  1  0
 15 37  1  0
 17 38  1  0
 18 39  1  0
 21 40  1  0
 25 41  1  0
 26 42  1  0
M  CHG  1  11  -1
M  END
>  <UniqueID>  (8) 
8

>  <SMILES>  (8) 
O=S(=O)(Nc1cc2c(cc1[O-])CCCC2)c1ccc(-n2cnnn2)cc1

>  <Energy>  (8) 
94.615494128166

>  <Genealogy>  (8) 
O=S(=O)(Nc1cc2c(cc1[O-])CCCC2)c1ccc(-n2cnnn2)cc1 (protonated)
O=S(=O)(Nc1cc2c(cc1[O-])CCCC2)c1ccc(-n2cnnn2)cc1 (3D coordinates assigned)
O=S(=O)(Nc1cc2c(cc1[O-])CCCC2)c1ccc(-n2cnnn2)cc1 (nonaromatic ring conformer: 94.615494128166 kcal/mol)

>  <smiles>  (8) 
O=S(=O)(Nc1cc2c(cc1O)CCCC2)c1ccc(-n2cnnn2)cc1

>  <score_type>  (8) 
oracle

>  <origin>  (8) 
adgpu

>  <m_score__min__energy>  (8) 
-13.779999999999999

>  <m_primary>  (8) 
energy

$$$$
8:0
     RDKit          3D

 46 48  0  0  0  0  0  0  0  0999 V2000
   -3.2130   24.8050  -30.0970 O   0  0  0  0  0  0  0  0  0  0  0  0
   -2.2960   24.1050  -29.5920 C   0  0  0  0  0  0  0  0  0  0  0  0
   -1.7520   23.0280  -30.3670 N   0  0  0  0  0  0  0  0  0  0  0  0
   -2.5000   21.9920  -31.0210 C   0  0  0  0  0  0  0  0  0  0  0  0
   -3.2330   21.0370  -30.2920 C   0  0  0  0  0  0  0  0  0  0  0  0
   -3.9620   20.0510  -30.9620 C   0  0  0  0  0  0  0  0  0  0  0  0
   -3.9770   20.0110  -32.3610 C   0  0  0  0  0  0  0  0  0  0  0  0
   -4.9240   18.7760  -33.1880 S   0  0  0  0  0  0  0  0  0  0  0  0
   -4.5050   18.6860  -34.6310 O   0  0  0  0  0  0  0  0  0  0  0  0
   -4.6590   17.4520  -32.5280 O   0  0  0  0  0  0  0  0  0  0  0  0
   -6.6260   19.1570  -33.0860 N   0  0  0  0  0  0  0  0  0  0  0  0
   -7.3870   17.9200  -32.8120 C   0  0  0  0  0  0  0  0  0  0  0  0
   -8.5900   18.1260  -31.8720 C   0  0  0  0  0  0  0  0  0  0  0  0
   -9.6460   19.1100  -32.4060 C   0  0  0  0  0  0  0  0  0  0  0  0
   -9.4140   20.5960  -32.0430 C   0  0  0  0  0  0  0  0  0  0  0  0
   -8.0270   21.1370  -32.4410 C   0  0  0  0  0  0  0  0  0  0  0  0
   -6.8490   20.2030  -32.0650 C   0  0  0  0  0  0  0  0  0  0  0  0
   -3.2730   20.9810  -33.0890 C   0  0  0  0  0  0  0  0  0  0  0  0
   -2.5440   21.9680  -32.4200 C   0  0  0  0  0  0  0  0  0  0  0  0
   -1.7610   24.4570  -28.2540 C   0  0  0  0  0  0  0  0  0  0  0  0
   -1.7050   23.4830  -27.2400 C   0  0  0  0  0  0  0  0  0  0  0  0
   -1.1990   23.8020  -25.9770 C   0  0  0  0  0  0  0  0  0  0  0  0
   -0.7350   25.0920  -25.7140 C   0  0  0  0  0  0  0  0  0  0  0  0
   -0.7740   26.0660  -26.7140 C   0  0  0  0  0  0  0  0  0  0  0  0
   -1.2840   25.7570  -27.9810 C   0  0  0  0  0  0  0  0  0  0  0  0
   -1.3250   26.7510  -28.9530 O   0  0  0  0  0  0  0  0  0  0  0  0
   -3.2320   21.0668  -29.1924 H   0  0  0  0  0  0  0  0  0  0  0  0
   -4.5269   19.3025  -30.3871 H   0  0  0  0  0  0  0  0  0  0  0  0
   -7.7579   17.5220  -33.7680 H   0  0  0  0  0  0  0  0  0  0  0  0
   -6.6997   17.2263  -32.3057 H   0  0  0  0  0  0  0  0  0  0  0  0
   -9.0751   17.1515  -31.7138 H   0  0  0  0  0  0  0  0  0  0  0  0
   -8.1942   18.5606  -30.9423 H   0  0  0  0  0  0  0  0  0  0  0  0
   -9.6625   19.0274  -33.5028 H   0  0  0  0  0  0  0  0  0  0  0  0
  -10.5942   18.8259  -31.9262 H   0  0  0  0  0  0  0  0  0  0  0  0
  -10.1787   21.1990  -32.5545 H   0  0  0  0  0  0  0  0  0  0  0  0
   -9.4768   20.6660  -30.9470 H   0  0  0  0  0  0  0  0  0  0  0  0
   -8.0146   21.2862  -33.5308 H   0  0  0  0  0  0  0  0  0  0  0  0
   -7.8800   22.0723  -31.8810 H   0  0  0  0  0  0  0  0  0  0  0  0
   -5.9341   20.8061  -31.9682 H   0  0  0  0  0  0  0  0  0  0  0  0
   -7.0985   19.7052  -31.1164 H   0  0  0  0  0  0  0  0  0  0  0  0
   -3.2946   20.9650  -34.1887 H   0  0  0  0  0  0  0  0  0  0  0  0
   -2.0010   22.7313  -32.9967 H   0  0  0  0  0  0  0  0  0  0  0  0
   -2.0623   22.4626  -27.4430 H   0  0  0  0  0  0  0  0  0  0  0  0
   -1.1663   23.0353  -25.1889 H   0  0  0  0  0  0  0  0  0  0  0  0
   -0.3385   25.3414  -24.7187 H   0  0  0  0  0  0  0  0  0  0  0  0
   -0.4025   27.0802  -26.5055 H   0  0  0  0  0  0  0  0  0  0  0  0
  1  2  2  0
  2  3  1  0
  3  4  1  0
  4  5  2  0
  5  6  1  0
  6  7  2  0
  7  8  1  0
  8  9  2  0
  8 10  2  0
  8 11  1  0
 11 12  1  0
 12 13  1  0
 13 14  1  0
 14 15  1  0
 15 16  1  0
 16 17  1  0
  7 18  1  0
 18 19  2  0
  2 20  1  0
 20 21  2  0
 21 22  1  0
 22 23  2  0
 23 24  1  0
 24 25  2  0
 25 26  1  0
 19  4  1  0
 25 20  1  0
 17 11  1  0
  5 27  1  0
  6 28  1  0
 12 29  1  0
 12 30  1  0
 13 31  1  0
 13 32  1  0
 14 33  1  0
 14 34  1  0
 15 35  1  0
 15 36  1  0
 16 37  1  0
 16 38  1  0
 17 39  1  0
 17 40  1  0
 18 41  1  0
 19 42  1  0
 21 43  1  0
 22 44  1  0
 23 45  1  0
 24 46  1  0
M  CHG  2   3  -1  26  -1
M  END
>  <UniqueID>  (9) 
9

>  <SMILES>  (9) 
O=C([N-]c1ccc(S(=O)(=O)N2CCCCCC2)cc1)c1ccccc1[O-]

>  <Energy>  (9) 
62.543707431156015

>  <Genealogy>  (9) 
O=C([N-]c1ccc(S(=O)(=O)N2CCCCCC2)cc1)c1ccccc1[O-] (protonated)
O=C([N-]c1ccc(S(=O)(=O)N2CCCCCC2)cc1)c1ccccc1[O-] (3D coordinates assigned)
O=C([N-]c1ccc(S(=O)(=O)N2CCCCCC2)cc1)c1ccccc1[O-] (nonaromatic ring conformer: 62.543707431156015 kcal/mol)

>  <smiles>  (9) 
O=C(Nc1ccc(S(=O)(=O)N2CCCCCC2)cc1)c1ccccc1O

>  <score_type>  (9) 
oracle

>  <origin>  (9) 
adgpu

>  <m_score__min__energy>  (9) 
-10.630000000000001

>  <m_primary>  (9) 
energy

$$$$
9:0
     RDKit          3D

 58 60  0  0  0  0  0  0  0  0999 V2000
   -8.8960   19.7110  -32.2700 C   0  0  0  0  0  0  0  0  0  0  0  0
   -7.9300   20.8440  -32.0500 C   0  0  0  0  0  0  0  0  0  0  0  0
   -8.4060   22.0190  -31.4420 C   0  0  0  0  0  0  0  0  0  0  0  0
   -7.5670   23.1170  -31.2550 C   0  0  0  0  0  0  0  0  0  0  0  0
   -6.2310   23.0610  -31.6660 C   0  0  0  0  0  0  0  0  0  0  0  0
   -5.3610   24.1890  -31.5230 N   0  0  0  0  0  0  0  0  0  0  0  0
   -4.5360   24.4840  -30.3880 C   0  0  0  0  0  0  0  0  0  0  0  0
   -3.5790   25.2890  -30.5360 O   0  0  0  0  0  0  0  0  0  0  0  0
   -4.6700   23.7250  -29.0920 C   0  0  0  0  0  0  0  0  0  0  0  0
   -3.4180   22.9510  -28.7680 C   0  0  0  0  0  0  0  0  0  0  0  0
   -2.1660   23.3910  -29.2250 C   0  0  0  0  0  0  0  0  0  0  0  0
   -1.0120   22.6540  -28.9430 C   0  0  0  0  0  0  0  0  0  0  0  0
   -1.0950   21.4730  -28.1980 C   0  0  0  0  0  0  0  0  0  0  0  0
    0.3790   20.5730  -27.8620 Cl  0  0  0  0  0  0  0  0  0  0  0  0
   -2.3430   21.0270  -27.7310 C   0  0  0  0  0  0  0  0  0  0  0  0
   -2.4900   19.5450  -26.7930 Cl  0  0  0  0  0  0  0  0  0  0  0  0
   -3.4960   21.7650  -28.0170 C   0  0  0  0  0  0  0  0  0  0  0  0
   -5.7590   21.9180  -32.3160 C   0  0  0  0  0  0  0  0  0  0  0  0
   -6.5870   20.7990  -32.5100 C   0  0  0  0  0  0  0  0  0  0  0  0
   -5.9120   19.3840  -33.3500 S   0  0  0  0  0  0  0  0  0  0  0  0
   -6.3190   18.1280  -32.6340 O   0  0  0  0  0  0  0  0  0  0  0  0
   -6.4620   19.3190  -34.7470 O   0  0  0  0  0  0  0  0  0  0  0  0
   -4.1750   19.4350  -33.4100 N   0  0  0  0  0  0  0  0  0  0  0  0
   -3.6680   18.3320  -34.2310 C   0  0  0  0  0  0  0  0  0  0  0  0
   -2.1410   18.2420  -34.1230 C   0  0  0  0  0  0  0  0  0  0  0  0
   -1.6440   18.3690  -32.6760 C   0  0  0  0  0  0  0  0  0  0  0  0
   -1.7130   19.7770  -32.2210 N   0  0  0  0  0  0  0  0  0  0  0  0
   -0.8280   20.0360  -31.0690 C   0  0  0  0  0  0  0  0  0  0  0  0
    0.6630   20.0130  -31.4790 C   0  0  0  0  0  0  0  0  0  0  0  0
    0.8570   20.1130  -32.8790 O   0  0  0  0  0  0  0  0  0  0  0  0
    0.0390   21.1330  -33.4110 C   0  0  0  0  0  0  0  0  0  0  0  0
   -1.4510   20.7420  -33.3160 C   0  0  0  0  0  0  0  0  0  0  0  0
   -9.2297   19.3196  -31.2976 H   0  0  0  0  0  0  0  0  0  0  0  0
   -9.7656   20.0754  -32.8366 H   0  0  0  0  0  0  0  0  0  0  0  0
   -8.3987   18.9099  -32.8366 H   0  0  0  0  0  0  0  0  0  0  0  0
   -9.4532   22.0728  -31.1097 H   0  0  0  0  0  0  0  0  0  0  0  0
   -7.9571   24.0306  -30.7826 H   0  0  0  0  0  0  0  0  0  0  0  0
   -4.8680   24.4393  -28.2792 H   0  0  0  0  0  0  0  0  0  0  0  0
   -5.4984   23.0090  -29.1977 H   0  0  0  0  0  0  0  0  0  0  0  0
   -2.0924   24.3208  -29.8082 H   0  0  0  0  0  0  0  0  0  0  0  0
   -0.0353   23.0041  -29.3083 H   0  0  0  0  0  0  0  0  0  0  0  0
   -4.4724   21.4145  -27.6512 H   0  0  0  0  0  0  0  0  0  0  0  0
   -4.7220   21.8934  -32.6821 H   0  0  0  0  0  0  0  0  0  0  0  0
   -3.8140   19.3240  -32.4360 H   0  0  0  0  0  0  0  0  0  0  0  0
   -4.1121   17.3876  -33.8832 H   0  0  0  0  0  0  0  0  0  0  0  0
   -3.9409   18.5145  -35.2809 H   0  0  0  0  0  0  0  0  0  0  0  0
   -1.8160   17.2704  -34.5233 H   0  0  0  0  0  0  0  0  0  0  0  0
   -1.7161   19.0791  -34.6964 H   0  0  0  0  0  0  0  0  0  0  0  0
   -2.2729   17.7469  -32.0222 H   0  0  0  0  0  0  0  0  0  0  0  0
   -0.5975   18.0332  -32.6305 H   0  0  0  0  0  0  0  0  0  0  0  0
   -1.0677   21.0245  -30.6501 H   0  0  0  0  0  0  0  0  0  0  0  0
   -0.9920   19.2430  -30.3245 H   0  0  0  0  0  0  0  0  0  0  0  0
    1.1724   20.8587  -30.9939 H   0  0  0  0  0  0  0  0  0  0  0  0
    1.0757   19.0447  -31.1594 H   0  0  0  0  0  0  0  0  0  0  0  0
    0.2055   22.0615  -32.8452 H   0  0  0  0  0  0  0  0  0  0  0  0
    0.2996   21.2795  -34.4696 H   0  0  0  0  0  0  0  0  0  0  0  0
   -2.0440   21.6507  -33.1355 H   0  0  0  0  0  0  0  0  0  0  0  0
   -1.7323   20.2590  -34.2634 H   0  0  0  0  0  0  0  0  0  0  0  0
  1  2  1  0
  2  3  2  0
  3  4  1  0
  4  5  2  0
  5  6  1  0
  6  7  1  0
  7  8  2  0
  7  9  1  0
  9 10  1  0
 10 11  2  0
 11 12  1  0
 12 13  2  0
 13 14  1  0
 13 15  1  0
 15 16  1  0
 15 17  2  0
  5 18  1  0
 18 19  2  0
 19 20  1  0
 20 21  2  0
 20 22  2  0
 20 23  1  0
 23 24  1  0
 24 25  1  0
 25 26  1  0
 26 27  1  0
 27 28  1  0
 28 29  1  0
 29 30  1  0
 30 31  1  0
 31 32  1  0
 19  2  1  0
 32 27  1  0
 17 10  1  0
  1 33  1  0
  1 34  1  0
  1 35  1  0
  3 36  1  0
  4 37  1  0
  9 38  1  0
  9 39  1  0
 11 40  1  0
 12 41  1  0
 17 42  1  0
 18 43  1  0
 23 44  1  0
 24 45  1  0
 24 46  1  0
 25 47  1  0
 25 48  1  0
 26 49  1  0
 26 50  1  0
 28 51  1  0
 28 52  1  0
 29 53  1  0
 29 54  1  0
 31 55  1  0
 31 56  1  0
 32 57  1  0
 32 58  1  0
M  CHG  1   6  -1
M  END
>  <UniqueID>  (10) 
10

>  <SMILES>  (10) 
Cc1ccc([N-]C(=O)Cc2ccc(Cl)c(Cl)c2)cc1S(=O)(=O)NCCCN1CCOCC1

>  <Energy>  (10) 
72.67388732677367

>  <Genealogy>  (10) 
Cc1ccc([N-]C(=O)Cc2ccc(Cl)c(Cl)c2)cc1S(=O)(=O)NCCCN1CCOCC1 (protonated)
Cc1ccc([N-]C(=O)Cc2ccc(Cl)c(Cl)c2)cc1S(=O)(=O)NCCCN1CCOCC1 (3D coordinates assigned)
Cc1ccc([N-]C(=O)Cc2ccc(Cl)c(Cl)c2)cc1S(=O)(=O)NCCCN1CCOCC1 (nonaromatic ring conformer: 72.67388732677367 kcal/mol)

>  <smiles>  (10) 
Cc1ccc(NC(=O)Cc2ccc(Cl)c(Cl)c2)cc1S(=O)(=O)NCCCN1CCOCC1

>  <score_type>  (10) 
oracle

>  <origin>  (10) 
adgpu

>  <m_score__min__energy>  (10) 
-12.41

>  <m_primary>  (10) 
energy

$$$$
10:0
     RDKit          3D

 37 39  0  0  0  0  0  0  0  0999 V2000
   -8.9010   18.7820  -32.6790 N   0  0  0  0  0  0  0  0  0  0  0  0
   -8.3660   19.7370  -32.3060 C   0  0  0  0  0  0  0  0  0  0  0  0
   -7.7010   20.9260  -31.8410 C   0  0  0  0  0  0  0  0  0  0  0  0
   -8.2560   21.6810  -30.7990 C   0  0  0  0  0  0  0  0  0  0  0  0
   -7.6110   22.8360  -30.3500 C   0  0  0  0  0  0  0  0  0  0  0  0
   -6.4090   23.2480  -30.9400 C   0  0  0  0  0  0  0  0  0  0  0  0
   -5.6210   24.7220  -30.3850 S   0  0  0  0  0  0  0  0  0  0  0  0
   -6.0650   25.8640  -31.2550 O   0  0  0  0  0  0  0  0  0  0  0  0
   -5.9910   25.0200  -28.9590 O   0  0  0  0  0  0  0  0  0  0  0  0
   -3.8960   24.5500  -30.4990 N   0  0  0  0  0  0  0  0  0  0  0  0
   -3.1070   23.8070  -29.5510 C   0  0  0  0  0  0  0  0  0  0  0  0
   -3.4630   22.5010  -29.1660 C   0  0  0  0  0  0  0  0  0  0  0  0
   -2.6780   21.7840  -28.2540 C   0  0  0  0  0  0  0  0  0  0  0  0
   -1.5140   22.3690  -27.7180 C   0  0  0  0  0  0  0  0  0  0  0  0
   -1.1760   23.6810  -28.0740 C   0  0  0  0  0  0  0  0  0  0  0  0
   -1.9600   24.3950  -28.9840 C   0  0  0  0  0  0  0  0  0  0  0  0
   -1.5870   25.6890  -29.3290 O   0  0  0  0  0  0  0  0  0  0  0  0
   -0.6800   21.6220  -26.7070 C   0  0  0  0  0  0  0  0  0  0  0  0
   -0.8430   20.1030  -26.8480 C   0  0  0  0  0  0  0  0  0  0  0  0
   -2.3250   19.7210  -26.8400 C   0  0  0  0  0  0  0  0  0  0  0  0
   -3.0400   20.4430  -27.8900 N   0  0  0  0  0  0  0  0  0  0  0  0
   -5.8520   22.4900  -31.9800 C   0  0  0  0  0  0  0  0  0  0  0  0
   -6.4960   21.3330  -32.4300 C   0  0  0  0  0  0  0  0  0  0  0  0
   -9.2010   21.3637  -30.3339 H   0  0  0  0  0  0  0  0  0  0  0  0
   -8.0486   23.4243  -29.5300 H   0  0  0  0  0  0  0  0  0  0  0  0
   -3.4460   24.9250  -31.3630 H   0  0  0  0  0  0  0  0  0  0  0  0
   -4.3681   22.0380  -29.5861 H   0  0  0  0  0  0  0  0  0  0  0  0
   -0.2856   24.1533  -27.6333 H   0  0  0  0  0  0  0  0  0  0  0  0
    0.3783   21.8823  -26.8559 H   0  0  0  0  0  0  0  0  0  0  0  0
   -1.0195   21.9114  -25.7015 H   0  0  0  0  0  0  0  0  0  0  0  0
   -0.3899   19.7765  -27.7957 H   0  0  0  0  0  0  0  0  0  0  0  0
   -0.3437   19.6110  -26.0003 H   0  0  0  0  0  0  0  0  0  0  0  0
   -2.4219   18.6390  -27.0129 H   0  0  0  0  0  0  0  0  0  0  0  0
   -2.7579   19.9867  -25.8643 H   0  0  0  0  0  0  0  0  0  0  0  0
   -3.8670   19.9870  -28.3370 H   0  0  0  0  0  0  0  0  0  0  0  0
   -4.9058   22.8064  -32.4432 H   0  0  0  0  0  0  0  0  0  0  0  0
   -6.0565   20.7419  -33.2469 H   0  0  0  0  0  0  0  0  0  0  0  0
  1  2  3  0
  2  3  1  0
  3  4  2  0
  4  5  1  0
  5  6  2  0
  6  7  1  0
  7  8  2  0
  7  9  2  0
  7 10  1  0
 10 11  1  0
 11 12  2  0
 12 13  1  0
 13 14  2  0
 14 15  1  0
 15 16  2  0
 16 17  1  0
 14 18  1  0
 18 19  1  0
 19 20  1  0
 20 21  1  0
  6 22  1  0
 22 23  2  0
 23  3  1  0
 16 11  1  0
 21 13  1  0
  4 24  1  0
  5 25  1  0
 10 26  1  0
 12 27  1  0
 15 28  1  0
 18 29  1  0
 18 30  1  0
 19 31  1  0
 19 32  1  0
 20 33  1  0
 20 34  1  0
 21 35  1  0
 22 36  1  0
 23 37  1  0
M  CHG  1  17  -1
M  END
>  <UniqueID>  (11) 
11

>  <SMILES>  (11) 
N#Cc1ccc(S(=O)(=O)Nc2cc3c(cc2[O-])CCCN3)cc1

>  <Energy>  (11) 
39.704080982763685

>  <Genealogy>  (11) 
N#Cc1ccc(S(=O)(=O)Nc2cc3c(cc2[O-])CCCN3)cc1 (protonated)
N#Cc1ccc(S(=O)(=O)Nc2cc3c(cc2[O-])CCCN3)cc1 (3D coordinates assigned)
N#Cc1ccc(S(=O)(=O)Nc2cc3c(cc2[O-])CCCN3)cc1 (nonaromatic ring conformer: 39.704080982763685 kcal/mol)

>  <smiles>  (11) 
N#Cc1ccc(S(=O)(=O)Nc2cc3c(cc2O)CCCN3)cc1

>  <score_type>  (11) 
oracle

>  <origin>  (11) 
adgpu

>  <m_score__min__energy>  (11) 
-12.6

>  <m_primary>  (11) 
energy

$$$$
11:0
     RDKit          3D

 47 50  0  0  0  0  0  0  0  0999 V2000
   -7.0690   24.1630  -32.7070 O   0  0  0  0  0  0  0  0  0  0  0  0
   -6.6540   23.5830  -31.6690 C   0  0  0  0  0  0  0  0  0  0  0  0
   -7.4270   22.5470  -31.0500 N   0  0  0  0  0  0  0  0  0  0  0  0
   -7.6580   21.2270  -31.5640 C   0  0  0  0  0  0  0  0  0  0  0  0
   -8.9360   20.6400  -31.5640 C   0  0  0  0  0  0  0  0  0  0  0  0
   -9.1230   19.3640  -32.1040 C   0  0  0  0  0  0  0  0  0  0  0  0
   -8.0430   18.6690  -32.6550 C   0  0  0  0  0  0  0  0  0  0  0  0
   -6.7690   19.2510  -32.6740 C   0  0  0  0  0  0  0  0  0  0  0  0
   -5.4170   18.3910  -33.4050 S   0  0  0  0  0  0  0  0  0  0  0  0
   -5.8540   17.8080  -34.7190 O   0  0  0  0  0  0  0  0  0  0  0  0
   -4.9860   17.2670  -32.5040 O   0  0  0  0  0  0  0  0  0  0  0  0
   -4.1000   19.5050  -33.6730 N   0  0  0  0  0  0  0  0  0  0  0  0
   -3.6500   20.1080  -32.4190 C   0  0  0  0  0  0  0  0  0  0  0  0
   -2.1890   20.4790  -32.6180 C   0  0  0  0  0  0  0  0  0  0  0  0
   -1.7120   19.6250  -33.7830 C   0  0  0  0  0  0  0  0  0  0  0  0
   -2.9280   18.8210  -34.2190 C   0  0  0  0  0  0  0  0  0  0  0  0
   -6.5850   20.5340  -32.1390 C   0  0  0  0  0  0  0  0  0  0  0  0
   -5.3910   24.0110  -31.0570 C   0  0  0  0  0  0  0  0  0  0  0  0
   -4.4940   23.2040  -30.3900 C   0  0  0  0  0  0  0  0  0  0  0  0
   -3.4750   24.0660  -30.0240 C   0  0  0  0  0  0  0  0  0  0  0  0
   -2.2220   23.7220  -29.3070 C   0  0  0  0  0  0  0  0  0  0  0  0
   -1.8760   22.3670  -29.1510 C   0  0  0  0  0  0  0  0  0  0  0  0
   -0.7110   22.0000  -28.4720 C   0  0  0  0  0  0  0  0  0  0  0  0
   -0.3980   20.6500  -28.3240 O   0  0  0  0  0  0  0  0  0  0  0  0
    0.1290   22.9880  -27.9450 C   0  0  0  0  0  0  0  0  0  0  0  0
   -0.1930   24.3360  -28.1050 C   0  0  0  0  0  0  0  0  0  0  0  0
   -1.3550   24.7110  -28.7890 C   0  0  0  0  0  0  0  0  0  0  0  0
   -1.6180   26.0650  -28.9640 O   0  0  0  0  0  0  0  0  0  0  0  0
   -3.7620   25.3070  -30.4660 N   0  0  0  0  0  0  0  0  0  0  0  0
   -4.9280   25.2750  -31.0920 N   0  0  0  0  0  0  0  0  0  0  0  0
   -9.7906   21.1861  -31.1381 H   0  0  0  0  0  0  0  0  0  0  0  0
  -10.1230   18.9058  -32.0951 H   0  0  0  0  0  0  0  0  0  0  0  0
   -8.1936   17.6633  -33.0744 H   0  0  0  0  0  0  0  0  0  0  0  0
   -4.2432   21.0069  -32.1952 H   0  0  0  0  0  0  0  0  0  0  0  0
   -3.7723   19.4115  -31.5764 H   0  0  0  0  0  0  0  0  0  0  0  0
   -2.0925   21.5479  -32.8592 H   0  0  0  0  0  0  0  0  0  0  0  0
   -1.5940   20.3022  -31.7098 H   0  0  0  0  0  0  0  0  0  0  0  0
   -1.3561   20.2616  -34.6065 H   0  0  0  0  0  0  0  0  0  0  0  0
   -0.8726   18.9744  -33.4966 H   0  0  0  0  0  0  0  0  0  0  0  0
   -2.9862   18.7864  -35.3169 H   0  0  0  0  0  0  0  0  0  0  0  0
   -2.8689   17.7845  -33.8555 H   0  0  0  0  0  0  0  0  0  0  0  0
   -5.5893   21.0004  -32.1711 H   0  0  0  0  0  0  0  0  0  0  0  0
   -4.5706   22.1243  -30.1940 H   0  0  0  0  0  0  0  0  0  0  0  0
   -2.5303   21.5874  -29.5684 H   0  0  0  0  0  0  0  0  0  0  0  0
   -0.2610   20.0470  -29.1290 H   0  0  0  0  0  0  0  0  0  0  0  0
    1.0432   22.7015  -27.4046 H   0  0  0  0  0  0  0  0  0  0  0  0
    0.4708   25.1092  -27.6908 H   0  0  0  0  0  0  0  0  0  0  0  0
  1  2  2  0
  2  3  1  0
  3  4  1  0
  4  5  2  0
  5  6  1  0
  6  7  2  0
  7  8  1  0
  8  9  1  0
  9 10  2  0
  9 11  2  0
  9 12  1  0
 12 13  1  0
 13 14  1  0
 14 15  1  0
 15 16  1  0
  8 17  2  0
  2 18  1  0
 18 19  1  0
 19 20  2  0
 20 21  1  0
 21 22  2  0
 22 23  1  0
 23 24  1  0
 23 25  2  0
 25 26  1  0
 26 27  2  0
 27 28  1  0
 20 29  1  0
 29 30  1  0
 17  4  1  0
 30 18  2  0
 16 12  1  0
 27 21  1  0
  5 31  1  0
  6 32  1  0
  7 33  1  0
 13 34  1  0
 13 35  1  0
 14 36  1  0
 14 37  1  0
 15 38  1  0
 15 39  1  0
 16 40  1  0
 16 41  1  0
 17 42  1  0
 19 43  1  0
 22 44  1  0
 24 45  1  0
 25 46  1  0
 26 47  1  0
M  CHG  3   3  -1  28  -1  29  -1
M  END
>  <UniqueID>  (12) 
12

>  <SMILES>  (12) 
O=C([N-]c1cccc(S(=O)(=O)N2CCCC2)c1)c1cc(-c2cc(O)ccc2[O-])[n-]n1

>  <Energy>  (12) 
86.52551711094345

>  <Genealogy>  (12) 
O=C([N-]c1cccc(S(=O)(=O)N2CCCC2)c1)c1cc(-c2cc(O)ccc2[O-])[n-]n1 (protonated)
O=C([N-]c1cccc(S(=O)(=O)N2CCCC2)c1)c1cc(-c2cc(O)ccc2[O-])[n-]n1 (3D coordinates assigned)
O=C([N-]c1cccc(S(=O)(=O)N2CCCC2)c1)c1cc(-c2cc(O)ccc2[O-])[n-]n1 (nonaromatic ring conformer: 86.52551711094345 kcal/mol)

>  <smiles>  (12) 
O=C(Nc1cccc(S(=O)(=O)N2CCCC2)c1)c1cc(-c2cc(O)ccc2O)[nH]n1

>  <score_type>  (12) 
oracle

>  <origin>  (12) 
adgpu

>  <m_score__min__energy>  (12) 
-14.91

>  <m_primary>  (12) 
energy

$$$$
12:0
     RDKit          3D

 50 53  0  0  0  0  0  0  0  0999 V2000
   -4.1950   25.6540  -30.8480 O   0  0  0  0  0  0  0  0  0  0  0  0
   -3.8450   24.9110  -29.8940 C   0  0  0  0  0  0  0  0  0  0  0  0
   -4.8600   23.9850  -29.2830 C   0  0  0  0  0  0  0  0  0  0  0  0
   -6.5150   24.2420  -30.0160 S   0  0  0  0  0  0  0  0  0  0  0  0
   -6.5070   22.7330  -30.9790 C   0  0  0  0  0  0  0  0  0  0  0  0
   -5.4650   22.4640  -31.8080 N   0  0  0  0  0  0  0  0  0  0  0  0
   -5.4260   21.3260  -32.5490 C   0  0  0  0  0  0  0  0  0  0  0  0
   -4.4410   21.1170  -33.3080 O   0  0  0  0  0  0  0  0  0  0  0  0
   -6.4790   20.4010  -32.4580 C   0  0  0  0  0  0  0  0  0  0  0  0
   -6.5000   19.2050  -33.1980 C   0  0  0  0  0  0  0  0  0  0  0  0
   -7.5760   18.3200  -33.0650 C   0  0  0  0  0  0  0  0  0  0  0  0
   -8.6320   18.6200  -32.1990 C   0  0  0  0  0  0  0  0  0  0  0  0
   -8.6190   19.8060  -31.4590 C   0  0  0  0  0  0  0  0  0  0  0  0
   -7.5480   20.6980  -31.5850 C   0  0  0  0  0  0  0  0  0  0  0  0
   -7.5340   21.8510  -30.8680 N   0  0  0  0  0  0  0  0  0  0  0  0
   -2.4660   24.9020  -29.5000 N   0  0  0  0  0  0  0  0  0  0  0  0
   -1.9300   25.3170  -28.2380 C   0  0  0  0  0  0  0  0  0  0  0  0
   -2.3960   24.7790  -27.0280 C   0  0  0  0  0  0  0  0  0  0  0  0
   -1.8760   25.2260  -25.8100 C   0  0  0  0  0  0  0  0  0  0  0  0
   -0.8960   26.2280  -25.7870 C   0  0  0  0  0  0  0  0  0  0  0  0
   -0.2680   26.8020  -24.2450 S   0  0  0  0  0  0  0  0  0  0  0  0
   -0.0180   28.2820  -24.3450 O   0  0  0  0  0  0  0  0  0  0  0  0
   -1.2810   26.5620  -23.1600 O   0  0  0  0  0  0  0  0  0  0  0  0
    1.2230   25.9760  -23.8700 N   0  0  0  0  0  0  0  0  0  0  0  0
    1.6220   25.1110  -24.9980 C   0  0  0  0  0  0  0  0  0  0  0  0
    3.0640   24.5900  -24.8240 C   0  0  0  0  0  0  0  0  0  0  0  0
    3.5470   24.8390  -23.5190 O   0  0  0  0  0  0  0  0  0  0  0  0
    3.6300   26.2360  -23.3020 C   0  0  0  0  0  0  0  0  0  0  0  0
    2.2830   26.9500  -23.5570 C   0  0  0  0  0  0  0  0  0  0  0  0
   -0.4570   26.7920  -26.9920 C   0  0  0  0  0  0  0  0  0  0  0  0
   -0.9780   26.3440  -28.2090 C   0  0  0  0  0  0  0  0  0  0  0  0
   -4.5478   22.9448  -29.4577 H   0  0  0  0  0  0  0  0  0  0  0  0
   -4.9198   24.1961  -28.2051 H   0  0  0  0  0  0  0  0  0  0  0  0
   -5.6714   18.9655  -33.8807 H   0  0  0  0  0  0  0  0  0  0  0  0
   -7.5910   17.3848  -33.6440 H   0  0  0  0  0  0  0  0  0  0  0  0
   -9.4754   17.9208  -32.0997 H   0  0  0  0  0  0  0  0  0  0  0  0
   -9.4507   20.0381  -30.7776 H   0  0  0  0  0  0  0  0  0  0  0  0
   -3.1743   24.0017  -27.0385 H   0  0  0  0  0  0  0  0  0  0  0  0
   -2.2369   24.7902  -24.8667 H   0  0  0  0  0  0  0  0  0  0  0  0
    1.0460   25.3780  -23.0260 H   0  0  0  0  0  0  0  0  0  0  0  0
    0.9354   24.2533  -25.0518 H   0  0  0  0  0  0  0  0  0  0  0  0
    1.5772   25.7048  -25.9229 H   0  0  0  0  0  0  0  0  0  0  0  0
    3.0781   23.5060  -25.0103 H   0  0  0  0  0  0  0  0  0  0  0  0
    3.7119   25.1169  -25.5400 H   0  0  0  0  0  0  0  0  0  0  0  0
    3.9335   26.4148  -22.2599 H   0  0  0  0  0  0  0  0  0  0  0  0
    4.3664   26.6435  -24.0102 H   0  0  0  0  0  0  0  0  0  0  0  0
    1.9987   27.5149  -22.6570 H   0  0  0  0  0  0  0  0  0  0  0  0
    2.4015   27.6284  -24.4148 H   0  0  0  0  0  0  0  0  0  0  0  0
    0.3001   27.5899  -26.9802 H   0  0  0  0  0  0  0  0  0  0  0  0
   -0.6382   26.8009  -29.1502 H   0  0  0  0  0  0  0  0  0  0  0  0
  1  2  2  0
  2  3  1  0
  3  4  1  0
  4  5  1  0
  5  6  2  0
  6  7  1  0
  7  8  2  0
  7  9  1  0
  9 10  2  0
 10 11  1  0
 11 12  2  0
 12 13  1  0
 13 14  2  0
 14 15  1  0
  2 16  1  0
 16 17  1  0
 17 18  2  0
 18 19  1  0
 19 20  2  0
 20 21  1  0
 21 22  2  0
 21 23  2  0
 21 24  1  0
 24 25  1  0
 25 26  1  0
 26 27  1  0
 27 28  1  0
 28 29  1  0
 20 30  1  0
 30 31  2  0
 15  5  1  0
 31 17  1  0
 14  9  1  0
 29 24  1  0
  3 32  1  0
  3 33  1  0
 10 34  1  0
 11 35  1  0
 12 36  1  0
 13 37  1  0
 18 38  1  0
 19 39  1  0
 24 40  1  0
 25 41  1  0
 25 42  1  0
 26 43  1  0
 26 44  1  0
 28 45  1  0
 28 46  1  0
 29 47  1  0
 29 48  1  0
 30 49  1  0
 31 50  1  0
M  CHG  3  15  -1  16  -1  24   1
M  END
>  <UniqueID>  (13) 
13

>  <SMILES>  (13) 
O=C(CSc1nc(=O)c2ccccc2[n-]1)[N-]c1ccc(S(=O)(=O)[NH+]2CCOCC2)cc1

>  <Energy>  (13) 
66.77777288771556

>  <Genealogy>  (13) 
O=C(CSc1nc(=O)c2ccccc2[n-]1)[N-]c1ccc(S(=O)(=O)[NH+]2CCOCC2)cc1 (protonated)
O=C(CSc1nc(=O)c2ccccc2[n-]1)[N-]c1ccc(S(=O)(=O)[NH+]2CCOCC2)cc1 (3D coordinates assigned)
O=C(CSc1nc(=O)c2ccccc2[n-]1)[N-]c1ccc(S(=O)(=O)[NH+]2CCOCC2)cc1 (nonaromatic ring conformer: 66.77777288771556 kcal/mol)

>  <smiles>  (13) 
O=C(CSc1nc(=O)c2ccccc2[nH]1)Nc1ccc(S(=O)(=O)N2CCOCC2)cc1

>  <score_type>  (13) 
oracle

>  <origin>  (13) 
adgpu

>  <m_score__min__energy>  (13) 
-12.390000000000001

>  <m_primary>  (13) 
energy

$$$$
13:0
     RDKit          3D

 41 43  0  0  0  0  0  0  0  0999 V2000
   -5.8310   26.3720  -30.4560 O   0  0  0  0  0  0  0  0  0  0  0  0
   -5.2000   25.2960  -30.6330 C   0  0  0  0  0  0  0  0  0  0  0  0
   -3.7740   25.2950  -30.4640 N   0  0  0  0  0  0  0  0  0  0  0  0
   -3.0450   24.4760  -29.5370 C   0  0  0  0  0  0  0  0  0  0  0  0
   -3.5580   23.2160  -29.2050 C   0  0  0  0  0  0  0  0  0  0  0  0
   -2.8950   22.4040  -28.2800 C   0  0  0  0  0  0  0  0  0  0  0  0
   -1.7040   22.8400  -27.6920 C   0  0  0  0  0  0  0  0  0  0  0  0
   -1.1660   24.0810  -28.0420 C   0  0  0  0  0  0  0  0  0  0  0  0
   -1.8200   24.8950  -28.9740 C   0  0  0  0  0  0  0  0  0  0  0  0
   -1.2320   26.0970  -29.3510 O   0  0  0  0  0  0  0  0  0  0  0  0
   -5.9370   24.0770  -31.0320 C   0  0  0  0  0  0  0  0  0  0  0  0
   -5.5320   23.3300  -32.1510 C   0  0  0  0  0  0  0  0  0  0  0  0
   -6.1760   22.1330  -32.4720 C   0  0  0  0  0  0  0  0  0  0  0  0
   -7.2310   21.6660  -31.6780 C   0  0  0  0  0  0  0  0  0  0  0  0
   -7.9580   20.0950  -32.0070 S   0  0  0  0  0  0  0  0  0  0  0  0
   -8.5460   20.1010  -33.3910 O   0  0  0  0  0  0  0  0  0  0  0  0
   -9.0790   19.8630  -31.0330 O   0  0  0  0  0  0  0  0  0  0  0  0
   -6.7960   18.7900  -31.8740 N   0  0  0  0  0  0  0  0  0  0  0  0
   -6.8980   17.8210  -32.9830 C   0  0  0  0  0  0  0  0  0  0  0  0
   -6.1300   18.2620  -34.2520 C   0  0  0  0  0  0  0  0  0  0  0  0
   -5.3330   19.4110  -34.0510 O   0  0  0  0  0  0  0  0  0  0  0  0
   -4.5430   19.2410  -32.8980 C   0  0  0  0  0  0  0  0  0  0  0  0
   -5.4190   19.2720  -31.6350 C   0  0  0  0  0  0  0  0  0  0  0  0
   -7.6740   22.4360  -30.5950 C   0  0  0  0  0  0  0  0  0  0  0  0
   -7.0350   23.6380  -30.2770 C   0  0  0  0  0  0  0  0  0  0  0  0
   -4.4880   22.8631  -29.6747 H   0  0  0  0  0  0  0  0  0  0  0  0
   -3.3110   21.4209  -28.0146 H   0  0  0  0  0  0  0  0  0  0  0  0
   -1.1906   22.2062  -26.9540 H   0  0  0  0  0  0  0  0  0  0  0  0
   -0.2252   24.4195  -27.5835 H   0  0  0  0  0  0  0  0  0  0  0  0
   -4.7029   23.6900  -32.7779 H   0  0  0  0  0  0  0  0  0  0  0  0
   -5.8537   21.5554  -33.3509 H   0  0  0  0  0  0  0  0  0  0  0  0
   -6.4889   16.8578  -32.6441 H   0  0  0  0  0  0  0  0  0  0  0  0
   -7.9614   17.7464  -33.2545 H   0  0  0  0  0  0  0  0  0  0  0  0
   -5.4775   17.4356  -34.5702 H   0  0  0  0  0  0  0  0  0  0  0  0
   -6.8801   18.5150  -35.0157 H   0  0  0  0  0  0  0  0  0  0  0  0
   -4.0238   18.2729  -32.9546 H   0  0  0  0  0  0  0  0  0  0  0  0
   -3.8120   20.0612  -32.8438 H   0  0  0  0  0  0  0  0  0  0  0  0
   -4.9526   18.6345  -30.8694 H   0  0  0  0  0  0  0  0  0  0  0  0
   -5.4896   20.3204  -31.3097 H   0  0  0  0  0  0  0  0  0  0  0  0
   -8.5281   22.0935  -29.9923 H   0  0  0  0  0  0  0  0  0  0  0  0
   -7.3946   24.2423  -29.4311 H   0  0  0  0  0  0  0  0  0  0  0  0
  1  2  2  0
  2  3  1  0
  3  4  1  0
  4  5  2  0
  5  6  1  0
  6  7  2  0
  7  8  1  0
  8  9  2  0
  9 10  1  0
  2 11  1  0
 11 12  2  0
 12 13  1  0
 13 14  2  0
 14 15  1  0
 15 16  2  0
 15 17  2  0
 15 18  1  0
 18 19  1  0
 19 20  1  0
 20 21  1  0
 21 22  1  0
 22 23  1  0
 14 24  1  0
 24 25  2  0
  9  4  1  0
 25 11  1  0
 23 18  1  0
  5 26  1  0
  6 27  1  0
  7 28  1  0
  8 29  1  0
 12 30  1  0
 13 31  1  0
 19 32  1  0
 19 33  1  0
 20 34  1  0
 20 35  1  0
 22 36  1  0
 22 37  1  0
 23 38  1  0
 23 39  1  0
 24 40  1  0
 25 41  1  0
M  CHG  2   3  -1  10  -1
M  END
>  <UniqueID>  (14) 
14

>  <SMILES>  (14) 
O=C([N-]c1ccccc1[O-])c1ccc(S(=O)(=O)N2CCOCC2)cc1

>  <Energy>  (14) 
60.665242785281364

>  <Genealogy>  (14) 
O=C([N-]c1ccccc1[O-])c1ccc(S(=O)(=O)N2CCOCC2)cc1 (protonated)
O=C([N-]c1ccccc1[O-])c1ccc(S(=O)(=O)N2CCOCC2)cc1 (3D coordinates assigned)
O=C([N-]c1ccccc1[O-])c1ccc(S(=O)(=O)N2CCOCC2)cc1 (nonaromatic ring conformer: 60.665242785281364 kcal/mol)

>  <smiles>  (14) 
O=C(Nc1ccccc1O)c1ccc(S(=O)(=O)N2CCOCC2)cc1

>  <score_type>  (14) 
oracle

>  <origin>  (14) 
adgpu

>  <m_score__min__energy>  (14) 
-14.42

>  <m_primary>  (14) 
energy

$$$$
14:0
     RDKit          3D

 22 23  0  0  0  0  0  0  0  0999 V2000
   -4.6210   19.7560  -33.4490 C   0  0  0  0  0  0  0  0  0  0  0  0
   -5.7190   18.5370  -34.2350 S   0  0  0  0  0  0  0  0  0  0  0  0
   -7.0540   18.8340  -33.0840 C   0  0  0  0  0  0  0  0  0  0  0  0
   -7.6710   17.8070  -32.4360 N   0  0  0  0  0  0  0  0  0  0  0  0
   -8.8340   18.5330  -31.4980 S   0  0  0  0  0  0  0  0  0  0  0  0
   -8.5140   20.0990  -31.9410 C   0  0  0  0  0  0  0  0  0  0  0  0
   -9.3820   21.5560  -31.3780 S   0  0  0  0  0  0  0  0  0  0  0  0
   -7.8640   22.4940  -31.2120 C   0  0  0  0  0  0  0  0  0  0  0  0
   -7.2570   23.0530  -32.3440 C   0  0  0  0  0  0  0  0  0  0  0  0
   -6.0780   23.7930  -32.2120 C   0  0  0  0  0  0  0  0  0  0  0  0
   -5.5010   23.9740  -30.9500 C   0  0  0  0  0  0  0  0  0  0  0  0
   -4.3580   24.6920  -30.8230 F   0  0  0  0  0  0  0  0  0  0  0  0
   -6.1050   23.4130  -29.8190 C   0  0  0  0  0  0  0  0  0  0  0  0
   -7.2840   22.6740  -29.9490 C   0  0  0  0  0  0  0  0  0  0  0  0
   -7.4990   20.1030  -32.8280 N   0  0  0  0  0  0  0  0  0  0  0  0
   -4.6996   19.6688  -32.3553 H   0  0  0  0  0  0  0  0  0  0  0  0
   -3.5824   19.5671  -33.7582 H   0  0  0  0  0  0  0  0  0  0  0  0
   -4.9171   20.7693  -33.7582 H   0  0  0  0  0  0  0  0  0  0  0  0
   -7.7080   22.9097  -33.3370 H   0  0  0  0  0  0  0  0  0  0  0  0
   -5.6034   24.2334  -33.1013 H   0  0  0  0  0  0  0  0  0  0  0  0
   -5.6513   23.5539  -28.8269 H   0  0  0  0  0  0  0  0  0  0  0  0
   -7.7572   22.2332  -29.0592 H   0  0  0  0  0  0  0  0  0  0  0  0
  1  2  1  0
  2  3  1  0
  3  4  2  0
  4  5  1  0
  5  6  1  0
  6  7  1  0
  7  8  1  0
  8  9  2  0
  9 10  1  0
 10 11  2  0
 11 12  1  0
 11 13  1  0
 13 14  2  0
  6 15  2  0
 15  3  1  0
 14  8  1  0
  1 16  1  0
  1 17  1  0
  1 18  1  0
  9 19  1  0
 10 20  1  0
 13 21  1  0
 14 22  1  0
M  END
>  <UniqueID>  (15) 
15

>  <SMILES>  (15) 
CSc1nsc(Sc2ccc(F)cc2)n1

>  <Energy>  (15) 
50.964605141219266

>  <Genealogy>  (15) 
CSc1nsc(Sc2ccc(F)cc2)n1 (3D coordinates assigned)
CSc1nsc(Sc2ccc(F)cc2)n1 (optimized conformer: 50.964605141219266 kcal/mol)

>  <smiles>  (15) 
CSc1nsc(Sc2ccc(F)cc2)n1

>  <score_type>  (15) 
oracle

>  <origin>  (15) 
adgpu

>  <m_score__min__energy>  (15) 
-6.5999999999999996

>  <m_primary>  (15) 
energy

$$$$
15:0
     RDKit          3D

 26 28  0  0  0  0  0  0  0  0999 V2000
   -1.6120   25.6740  -29.3420 O   0  0  0  0  0  0  0  0  0  0  0  0
   -1.5130   24.3000  -29.1460 C   0  0  0  0  0  0  0  0  0  0  0  0
   -0.4460   23.7920  -28.3980 C   0  0  0  0  0  0  0  0  0  0  0  0
   -0.3190   22.4120  -28.1930 C   0  0  0  0  0  0  0  0  0  0  0  0
    0.7490   21.9070  -27.4520 O   0  0  0  0  0  0  0  0  0  0  0  0
   -1.2700   21.5380  -28.7330 C   0  0  0  0  0  0  0  0  0  0  0  0
   -1.1380   19.8050  -28.4810 Cl  0  0  0  0  0  0  0  0  0  0  0  0
   -2.3430   22.0440  -29.4770 C   0  0  0  0  0  0  0  0  0  0  0  0
   -2.4650   23.4260  -29.7020 C   0  0  0  0  0  0  0  0  0  0  0  0
   -3.6110   23.9530  -30.4750 C   0  0  0  0  0  0  0  0  0  0  0  0
   -3.9670   25.2520  -30.4650 N   0  0  0  0  0  0  0  0  0  0  0  0
   -5.0780   25.3940  -31.1720 N   0  0  0  0  0  0  0  0  0  0  0  0
   -5.4490   24.1870  -31.6370 C   0  0  0  0  0  0  0  0  0  0  0  0
   -4.5360   23.2370  -31.2230 C   0  0  0  0  0  0  0  0  0  0  0  0
   -4.5370   21.8100  -31.6010 C   0  0  0  0  0  0  0  0  0  0  0  0
   -3.5060   21.1910  -32.3300 C   0  0  0  0  0  0  0  0  0  0  0  0
   -3.7380   19.8480  -32.5910 C   0  0  0  0  0  0  0  0  0  0  0  0
   -5.2270   19.4380  -31.9330 S   0  0  0  0  0  0  0  0  0  0  0  0
   -5.5950   20.9540  -31.3110 C   0  0  0  0  0  0  0  0  0  0  0  0
    0.2974   24.4796  -27.9684 H   0  0  0  0  0  0  0  0  0  0  0  0
    1.3470   21.1730  -27.8140 H   0  0  0  0  0  0  0  0  0  0  0  0
   -3.0956   21.3551  -29.8882 H   0  0  0  0  0  0  0  0  0  0  0  0
   -6.3399   23.9881  -32.2507 H   0  0  0  0  0  0  0  0  0  0  0  0
   -2.6012   21.7213  -32.6619 H   0  0  0  0  0  0  0  0  0  0  0  0
   -3.0635   19.1700  -33.1345 H   0  0  0  0  0  0  0  0  0  0  0  0
   -6.5132   21.2235  -30.7685 H   0  0  0  0  0  0  0  0  0  0  0  0
  1  2  1  0
  2  3  2  0
  3  4  1  0
  4  5  1  0
  4  6  2  0
  6  7  1  0
  6  8  1  0
  8  9  2  0
  9 10  1  0
 10 11  1  0
 11 12  1  0
 12 13  2  0
 13 14  1  0
 14 15  1  0
 15 16  1  0
 16 17  2  0
 17 18  1  0
 18 19  1  0
  9  2  1  0
 14 10  2  0
 19 15  2  0
  3 20  1  0
  5 21  1  0
  8 22  1  0
 13 23  1  0
 16 24  1  0
 17 25  1  0
 19 26  1  0
M  CHG  2   1  -1  11  -1
M  END
>  <UniqueID>  (16) 
16

>  <SMILES>  (16) 
[O-]c1cc(O)c(Cl)cc1-c1[n-]ncc1-c1ccsc1

>  <Energy>  (16) 
91.66984134104774

>  <Genealogy>  (16) 
[O-]c1cc(O)c(Cl)cc1-c1[n-]ncc1-c1ccsc1 (protonated)
[O-]c1cc(O)c(Cl)cc1-c1[n-]ncc1-c1ccsc1 (3D coordinates assigned)
[O-]c1cc(O)c(Cl)cc1-c1[n-]ncc1-c1ccsc1 (optimized conformer: 91.66984134104774 kcal/mol)

>  <smiles>  (16) 
Oc1cc(O)c(-c2[nH]ncc2-c2ccsc2)cc1Cl

>  <score_type>  (16) 
oracle

>  <origin>  (16) 
adgpu

>  <m_score__min__energy>  (16) 
-10.94

>  <m_primary>  (16) 
energy

$$$$
16:0
     RDKit          3D

 34 36  0  0  0  0  0  0  0  0999 V2000
   -8.7780   18.6430  -33.4350 H   0  0  0  0  0  0  0  0  0  0  0  0
   -8.9510   19.6110  -33.0880 N   0  0  0  0  0  0  0  0  0  0  0  0
   -8.0210   20.3360  -32.5540 C   0  0  0  0  0  0  0  0  0  0  0  0
   -8.1930   21.6190  -32.0860 C   0  0  0  0  0  0  0  0  0  0  0  0
   -9.1121   22.2233  -32.0807 H   0  0  0  0  0  0  0  0  0  0  0  0
   -6.9290   21.9710  -31.6210 C   0  0  0  0  0  0  0  0  0  0  0  0
   -6.5370   23.2570  -30.9970 C   0  0  0  0  0  0  0  0  0  0  0  0
   -7.4800   24.0750  -30.3470 C   0  0  0  0  0  0  0  0  0  0  0  0
   -8.5328   23.7603  -30.2970 H   0  0  0  0  0  0  0  0  0  0  0  0
   -7.0890   25.2850  -29.7640 C   0  0  0  0  0  0  0  0  0  0  0  0
   -7.8336   25.9160  -29.2567 H   0  0  0  0  0  0  0  0  0  0  0  0
   -5.7550   25.6930  -29.8250 C   0  0  0  0  0  0  0  0  0  0  0  0
   -5.4499   26.6451  -29.3663 H   0  0  0  0  0  0  0  0  0  0  0  0
   -4.8080   24.8930  -30.4680 C   0  0  0  0  0  0  0  0  0  0  0  0
   -3.4810   25.2990  -30.5270 O   0  0  0  0  0  0  0  0  0  0  0  0
   -5.1940   23.6810  -31.0510 C   0  0  0  0  0  0  0  0  0  0  0  0
   -4.4436   23.0544  -31.5553 H   0  0  0  0  0  0  0  0  0  0  0  0
   -6.0720   20.9430  -31.8110 N   0  0  0  0  0  0  0  0  0  0  0  0
   -6.7430   19.9530  -32.3760 N   0  0  0  0  0  0  0  0  0  0  0  0
   -6.0270   18.4290  -32.7900 S   0  0  0  0  0  0  0  0  0  0  0  0
   -6.0040   17.5280  -31.5870 O   0  0  0  0  0  0  0  0  0  0  0  0
   -6.8400   17.7810  -33.8750 O   0  0  0  0  0  0  0  0  0  0  0  0
   -4.3650   18.6880  -33.3470 C   0  0  0  0  0  0  0  0  0  0  0  0
   -3.8180   19.9820  -33.3110 C   0  0  0  0  0  0  0  0  0  0  0  0
   -4.4271   20.8226  -32.9473 H   0  0  0  0  0  0  0  0  0  0  0  0
   -2.5060   20.2080  -33.7340 C   0  0  0  0  0  0  0  0  0  0  0  0
   -2.0871   21.2247  -33.7043 H   0  0  0  0  0  0  0  0  0  0  0  0
   -1.7260   19.1470  -34.1940 C   0  0  0  0  0  0  0  0  0  0  0  0
   -0.6937   19.3284  -34.5280 H   0  0  0  0  0  0  0  0  0  0  0  0
   -2.2540   17.8550  -34.2310 C   0  0  0  0  0  0  0  0  0  0  0  0
   -1.6348   17.0207  -34.5923 H   0  0  0  0  0  0  0  0  0  0  0  0
   -3.5690   17.6160  -33.8100 C   0  0  0  0  0  0  0  0  0  0  0  0
   -4.0760   16.2650  -33.8530 C   0  0  0  0  0  0  0  0  0  0  0  0
   -4.4820   15.1820  -33.8870 N   0  0  0  0  0  0  0  0  0  0  0  0
  1  2  1  0
  2  3  2  0
  3  4  1  0
  4  5  1  0
  4  6  2  0
  6  7  1  0
  7  8  2  0
  8  9  1  0
  8 10  1  0
 10 11  1  0
 10 12  2  0
 12 13  1  0
 12 14  1  0
 14 15  1  0
 14 16  2  0
 16 17  1  0
  6 18  1  0
 18 19  1  0
 19 20  1  0
 20 21  2  0
 20 22  2  0
 20 23  1  0
 23 24  2  0
 24 25  1  0
 24 26  1  0
 26 27  1  0
 26 28  2  0
 28 29  1  0
 28 30  1  0
 30 31  1  0
 30 32  2  0
 32 33  1  0
 33 34  3  0
 19  3  1  0
 32 23  1  0
 16  7  1  0
M  CHG  2  15  -1  18  -1
M  END
>  <UniqueID>  (17) 
17

>  <SMILES>  (17) 
[H]/N=c1/cc(-c2cccc([O-])c2)[n-]n1S(=O)(=O)c1ccccc1C#N

>  <Energy>  (17) 
73.11448242104616

>  <Genealogy>  (17) 
N#Cc1ccccc1S(=O)(=O)n1[n-]c(-c2cccc([O-])c2)cc1=N (protonated)
[H]/N=c1/cc(-c2cccc([O-])c2)[n-]n1S(=O)(=O)c1ccccc1C#N (cis-trans isomerization)
[H]/N=c1/cc(-c2cccc([O-])c2)[n-]n1S(=O)(=O)c1ccccc1C#N (3D coordinates assigned)
[H]/N=c1/cc(-c2cccc([O-])c2)[n-]n1S(=O)(=O)c1ccccc1C#N (optimized conformer: 73.11448242104616 kcal/mol)

>  <smiles>  (17) 
N#Cc1ccccc1S(=O)(=O)n1[nH]c(-c2cccc(O)c2)cc1=N

>  <score_type>  (17) 
oracle

>  <origin>  (17) 
adgpu

>  <m_score__min__energy>  (17) 
-11.029999999999999

>  <m_primary>  (17) 
energy

$$$$
17:0
     RDKit          3D

 58 61  0  0  0  0  0  0  0  0999 V2000
   -5.3280   26.3210  -30.4740 O   0  0  0  0  0  0  0  0  0  0  0  0
   -4.8970   25.1380  -30.4300 C   0  0  0  0  0  0  0  0  0  0  0  0
   -3.5340   24.9150  -30.0420 N   0  0  0  0  0  0  0  0  0  0  0  0
   -2.6890   23.7990  -30.4680 C   0  0  0  0  0  0  0  0  0  0  0  0
   -2.5450   22.7620  -29.3720 C   0  0  0  0  0  0  0  0  0  0  0  0
   -2.2390   23.1630  -28.0550 C   0  0  0  0  0  0  0  0  0  0  0  0
   -2.1070   22.2180  -27.0350 C   0  0  0  0  0  0  0  0  0  0  0  0
   -2.2580   20.8610  -27.3140 C   0  0  0  0  0  0  0  0  0  0  0  0
   -2.5210   20.4420  -28.6170 C   0  0  0  0  0  0  0  0  0  0  0  0
   -2.6480   21.3770  -29.6550 C   0  0  0  0  0  0  0  0  0  0  0  0
   -2.8410   20.9000  -30.9970 N   0  0  0  0  0  0  0  0  0  0  0  0
   -1.7340   20.3220  -31.7580 C   0  0  0  0  0  0  0  0  0  0  0  0
   -1.6340   21.0320  -33.1120 C   0  0  0  0  0  0  0  0  0  0  0  0
   -2.8830   21.0180  -33.7820 O   0  0  0  0  0  0  0  0  0  0  0  0
   -3.8370   21.7650  -33.0480 C   0  0  0  0  0  0  0  0  0  0  0  0
   -4.1140   21.1090  -31.6910 C   0  0  0  0  0  0  0  0  0  0  0  0
   -5.8050   24.0320  -30.7880 C   0  0  0  0  0  0  0  0  0  0  0  0
   -6.3240   23.9460  -32.0890 C   0  0  0  0  0  0  0  0  0  0  0  0
   -7.1890   22.9040  -32.4360 C   0  0  0  0  0  0  0  0  0  0  0  0
   -7.5550   21.9440  -31.4810 C   0  0  0  0  0  0  0  0  0  0  0  0
   -8.6550   20.6360  -31.9060 S   0  0  0  0  0  0  0  0  0  0  0  0
   -9.8560   21.2180  -32.5990 O   0  0  0  0  0  0  0  0  0  0  0  0
   -9.1170   19.9350  -30.6570 O   0  0  0  0  0  0  0  0  0  0  0  0
   -7.8510   19.5080  -32.9660 N   0  0  0  0  0  0  0  0  0  0  0  0
   -7.5680   18.2530  -32.2480 C   0  0  0  0  0  0  0  0  0  0  0  0
   -6.8150   17.2580  -33.1610 C   0  0  0  0  0  0  0  0  0  0  0  0
   -6.4270   17.8400  -34.3930 O   0  0  0  0  0  0  0  0  0  0  0  0
   -5.7070   19.0310  -34.1510 C   0  0  0  0  0  0  0  0  0  0  0  0
   -6.6070   20.1010  -33.4970 C   0  0  0  0  0  0  0  0  0  0  0  0
   -7.0660   22.0490  -30.1730 C   0  0  0  0  0  0  0  0  0  0  0  0
   -6.2000   23.0910  -29.8270 C   0  0  0  0  0  0  0  0  0  0  0  0
   -3.1414   23.3250  -31.3515 H   0  0  0  0  0  0  0  0  0  0  0  0
   -1.6895   24.1931  -30.7040 H   0  0  0  0  0  0  0  0  0  0  0  0
   -2.1029   24.2308  -27.8288 H   0  0  0  0  0  0  0  0  0  0  0  0
   -1.8833   22.5457  -26.0090 H   0  0  0  0  0  0  0  0  0  0  0  0
   -2.1696   20.1203  -26.5056 H   0  0  0  0  0  0  0  0  0  0  0  0
   -2.6299   19.3690  -28.8333 H   0  0  0  0  0  0  0  0  0  0  0  0
   -0.7946   20.4556  -31.2014 H   0  0  0  0  0  0  0  0  0  0  0  0
   -1.9118   19.2478  -31.9143 H   0  0  0  0  0  0  0  0  0  0  0  0
   -1.3234   22.0748  -32.9502 H   0  0  0  0  0  0  0  0  0  0  0  0
   -0.8953   20.5040  -33.7329 H   0  0  0  0  0  0  0  0  0  0  0  0
   -3.4508   22.7820  -32.8849 H   0  0  0  0  0  0  0  0  0  0  0  0
   -4.7751   21.7993  -33.6213 H   0  0  0  0  0  0  0  0  0  0  0  0
   -4.7597   21.7649  -31.0886 H   0  0  0  0  0  0  0  0  0  0  0  0
   -4.6205   20.1439  -31.8397 H   0  0  0  0  0  0  0  0  0  0  0  0
   -6.0489   24.7020  -32.8392 H   0  0  0  0  0  0  0  0  0  0  0  0
   -7.5836   22.8368  -33.4606 H   0  0  0  0  0  0  0  0  0  0  0  0
   -8.5030   19.3060  -33.7610 H   0  0  0  0  0  0  0  0  0  0  0  0
   -6.9486   18.4735  -31.3661 H   0  0  0  0  0  0  0  0  0  0  0  0
   -8.5217   17.7987  -31.9411 H   0  0  0  0  0  0  0  0  0  0  0  0
   -5.9134   16.9099  -32.6357 H   0  0  0  0  0  0  0  0  0  0  0  0
   -7.4989   16.4260  -33.3847 H   0  0  0  0  0  0  0  0  0  0  0  0
   -4.8641   18.8111  -33.4793 H   0  0  0  0  0  0  0  0  0  0  0  0
   -5.3431   19.4210  -35.1130 H   0  0  0  0  0  0  0  0  0  0  0  0
   -6.0563   20.5759  -32.6717 H   0  0  0  0  0  0  0  0  0  0  0  0
   -6.8768   20.8420  -34.2639 H   0  0  0  0  0  0  0  0  0  0  0  0
   -7.3641   21.3094  -29.4153 H   0  0  0  0  0  0  0  0  0  0  0  0
   -5.8268   23.1727  -28.7955 H   0  0  0  0  0  0  0  0  0  0  0  0
  1  2  2  0
  2  3  1  0
  3  4  1  0
  4  5  1  0
  5  6  2  0
  6  7  1  0
  7  8  2  0
  8  9  1  0
  9 10  2  0
 10 11  1  0
 11 12  1  0
 12 13  1  0
 13 14  1  0
 14 15  1  0
 15 16  1  0
  2 17  1  0
 17 18  2  0
 18 19  1  0
 19 20  2  0
 20 21  1  0
 21 22  2  0
 21 23  2  0
 21 24  1  0
 24 25  1  0
 25 26  1  0
 26 27  1  0
 27 28  1  0
 28 29  1  0
 20 30  1  0
 30 31  2  0
 10  5  1  0
 16 11  1  0
 31 17  1  0
 29 24  1  0
  4 32  1  0
  4 33  1  0
  6 34  1  0
  7 35  1  0
  8 36  1  0
  9 37  1  0
 12 38  1  0
 12 39  1  0
 13 40  1  0
 13 41  1  0
 15 42  1  0
 15 43  1  0
 16 44  1  0
 16 45  1  0
 18 46  1  0
 19 47  1  0
 24 48  1  0
 25 49  1  0
 25 50  1  0
 26 51  1  0
 26 52  1  0
 28 53  1  0
 28 54  1  0
 29 55  1  0
 29 56  1  0
 30 57  1  0
 31 58  1  0
M  CHG  2   3  -1  24   1
M  END
>  <UniqueID>  (18) 
18

>  <SMILES>  (18) 
O=C([N-]Cc1ccccc1N1CCOCC1)c1ccc(S(=O)(=O)[NH+]2CCOCC2)cc1

>  <Energy>  (18) 
81.69756710052823

>  <Genealogy>  (18) 
O=C([N-]Cc1ccccc1N1CCOCC1)c1ccc(S(=O)(=O)[NH+]2CCOCC2)cc1 (protonated)
O=C([N-]Cc1ccccc1N1CCOCC1)c1ccc(S(=O)(=O)[NH+]2CCOCC2)cc1 (3D coordinates assigned)
O=C([N-]Cc1ccccc1N1CCOCC1)c1ccc(S(=O)(=O)[NH+]2CCOCC2)cc1 (nonaromatic ring conformer: 81.69756710052823 kcal/mol)

>  <smiles>  (18) 
O=C(NCc1ccccc1N1CCOCC1)c1ccc(S(=O)(=O)N2CCOCC2)cc1

>  <score_type>  (18) 
oracle

>  <origin>  (18) 
adgpu

>  <m_score__min__energy>  (18) 
-11.609999999999999

>  <m_primary>  (18) 
energy

$$$$
18:0
     RDKit          3D

 66 69  0  0  0  0  0  0  0  0999 V2000
    0.7250   16.2760  -26.9270 N   0  0  0  0  0  0  0  0  0  0  0  0
    1.0740   17.4710  -28.1260 S   0  0  0  0  0  0  0  0  0  0  0  0
    1.0450   16.8370  -29.4890 O   0  0  0  0  0  0  0  0  0  0  0  0
    2.4450   18.0410  -27.8860 O   0  0  0  0  0  0  0  0  0  0  0  0
   -0.1260   18.7550  -28.0340 C   0  0  0  0  0  0  0  0  0  0  0  0
   -1.2290   18.6220  -27.1780 C   0  0  0  0  0  0  0  0  0  0  0  0
   -2.1980   19.6280  -27.1170 C   0  0  0  0  0  0  0  0  0  0  0  0
   -2.0720   20.7820  -27.9070 C   0  0  0  0  0  0  0  0  0  0  0  0
   -3.1480   21.8340  -27.8900 C   0  0  0  0  0  0  0  0  0  0  0  0
   -3.8160   21.9300  -29.2630 C   0  0  0  0  0  0  0  0  0  0  0  0
   -4.6180   23.1510  -29.3490 N   0  0  0  0  0  0  0  0  0  0  0  0
   -5.0390   23.4580  -31.0080 S   0  0  0  0  0  0  0  0  0  0  0  0
   -3.9340   22.9780  -31.9080 O   0  0  0  0  0  0  0  0  0  0  0  0
   -5.2050   24.9380  -31.2100 O   0  0  0  0  0  0  0  0  0  0  0  0
   -6.5440   22.6390  -31.4230 C   0  0  0  0  0  0  0  0  0  0  0  0
   -7.7510   23.3490  -31.4340 C   0  0  0  0  0  0  0  0  0  0  0  0
   -8.9500   22.6910  -31.7140 C   0  0  0  0  0  0  0  0  0  0  0  0
   -8.9540   21.3160  -31.9660 C   0  0  0  0  0  0  0  0  0  0  0  0
   -7.7540   20.5860  -31.9360 C   0  0  0  0  0  0  0  0  0  0  0  0
   -7.7560   19.1280  -32.1840 C   0  0  0  0  0  0  0  0  0  0  0  0
   -8.7080   18.4290  -31.7420 O   0  0  0  0  0  0  0  0  0  0  0  0
   -6.6840   18.4910  -32.9010 N   0  0  0  0  0  0  0  0  0  0  0  0
   -6.1800   17.1970  -32.4330 C   0  0  0  0  0  0  0  0  0  0  0  0
   -5.1310   16.6170  -33.3980 C   0  0  0  0  0  0  0  0  0  0  0  0
   -4.1390   17.6240  -33.8410 N   0  0  0  0  0  0  0  0  0  0  0  0
   -2.8610   17.6340  -33.0920 C   0  0  0  0  0  0  0  0  0  0  0  0
   -2.1650   18.9800  -33.0960 C   0  0  0  0  0  0  0  0  0  0  0  0
   -1.3420   19.3610  -34.1720 C   0  0  0  0  0  0  0  0  0  0  0  0
   -0.7260   20.6170  -34.1800 C   0  0  0  0  0  0  0  0  0  0  0  0
   -0.9090   21.4950  -33.1090 C   0  0  0  0  0  0  0  0  0  0  0  0
   -1.6970   21.1140  -32.0210 C   0  0  0  0  0  0  0  0  0  0  0  0
   -2.3160   19.8590  -32.0090 C   0  0  0  0  0  0  0  0  0  0  0  0
   -4.6620   18.9680  -34.1920 C   0  0  0  0  0  0  0  0  0  0  0  0
   -6.1920   19.0420  -34.1660 C   0  0  0  0  0  0  0  0  0  0  0  0
   -6.5480   21.2600  -31.6820 C   0  0  0  0  0  0  0  0  0  0  0  0
   -0.9740   20.9050  -28.7750 C   0  0  0  0  0  0  0  0  0  0  0  0
   -0.0060   19.8980  -28.8360 C   0  0  0  0  0  0  0  0  0  0  0  0
   -0.2980   16.3380  -26.7230 H   0  0  0  0  0  0  0  0  0  0  0  0
   -1.3321   17.7231  -26.5525 H   0  0  0  0  0  0  0  0  0  0  0  0
   -3.0631   19.5150  -26.4470 H   0  0  0  0  0  0  0  0  0  0  0  0
   -3.9038   21.5684  -27.1362 H   0  0  0  0  0  0  0  0  0  0  0  0
   -2.6956   22.8057  -27.6426 H   0  0  0  0  0  0  0  0  0  0  0  0
   -3.0414   21.9480  -30.0438 H   0  0  0  0  0  0  0  0  0  0  0  0
   -4.4717   21.0584  -29.4056 H   0  0  0  0  0  0  0  0  0  0  0  0
   -5.5160   22.9880  -28.8370 H   0  0  0  0  0  0  0  0  0  0  0  0
   -7.7544   24.4283  -31.2214 H   0  0  0  0  0  0  0  0  0  0  0  0
   -9.8937   23.2558  -31.7364 H   0  0  0  0  0  0  0  0  0  0  0  0
   -9.9013   20.8031  -32.1889 H   0  0  0  0  0  0  0  0  0  0  0  0
   -5.7198   17.3298  -31.4428 H   0  0  0  0  0  0  0  0  0  0  0  0
   -7.0259   16.4958  -32.3813 H   0  0  0  0  0  0  0  0  0  0  0  0
   -4.5989   15.8000  -32.8888 H   0  0  0  0  0  0  0  0  0  0  0  0
   -5.6643   16.2621  -34.2922 H   0  0  0  0  0  0  0  0  0  0  0  0
   -3.0673   17.3525  -32.0488 H   0  0  0  0  0  0  0  0  0  0  0  0
   -2.1885   16.9221  -33.5928 H   0  0  0  0  0  0  0  0  0  0  0  0
   -1.1822   18.6678  -35.0110 H   0  0  0  0  0  0  0  0  0  0  0  0
   -0.0961   20.9139  -35.0315 H   0  0  0  0  0  0  0  0  0  0  0  0
   -0.4324   22.4863  -33.1227 H   0  0  0  0  0  0  0  0  0  0  0  0
   -1.8313   21.8010  -31.1725 H   0  0  0  0  0  0  0  0  0  0  0  0
   -2.9247   19.5582  -31.1435 H   0  0  0  0  0  0  0  0  0  0  0  0
   -4.2637   19.6979  -33.4718 H   0  0  0  0  0  0  0  0  0  0  0  0
   -4.3400   19.1874  -35.2207 H   0  0  0  0  0  0  0  0  0  0  0  0
   -6.5104   20.0909  -34.2580 H   0  0  0  0  0  0  0  0  0  0  0  0
   -6.6024   18.4604  -35.0046 H   0  0  0  0  0  0  0  0  0  0  0  0
   -5.5997   20.7026  -31.6862 H   0  0  0  0  0  0  0  0  0  0  0  0
   -0.8755   21.7980  -29.4097 H   0  0  0  0  0  0  0  0  0  0  0  0
    0.8525   20.0032  -29.5156 H   0  0  0  0  0  0  0  0  0  0  0  0
  1  2  1  0
  2  3  2  0
  2  4  2  0
  2  5  1  0
  5  6  2  0
  6  7  1  0
  7  8  2  0
  8  9  1  0
  9 10  1  0
 10 11  1  0
 11 12  1  0
 12 13  2  0
 12 14  2  0
 12 15  1  0
 15 16  2  0
 16 17  1  0
 17 18  2  0
 18 19  1  0
 19 20  1  0
 20 21  2  0
 20 22  1  0
 22 23  1  0
 23 24  1  0
 24 25  1  0
 25 26  1  0
 26 27  1  0
 27 28  2  0
 28 29  1  0
 29 30  2  0
 30 31  1  0
 31 32  2  0
 25 33  1  0
 33 34  1  0
 19 35  2  0
  8 36  1  0
 36 37  2  0
 37  5  1  0
 35 15  1  0
 34 22  1  0
 32 27  1  0
  1 38  1  0
  6 39  1  0
  7 40  1  0
  9 41  1  0
  9 42  1  0
 10 43  1  0
 10 44  1  0
 11 45  1  0
 16 46  1  0
 17 47  1  0
 18 48  1  0
 23 49  1  0
 23 50  1  0
 24 51  1  0
 24 52  1  0
 26 53  1  0
 26 54  1  0
 28 55  1  0
 29 56  1  0
 30 57  1  0
 31 58  1  0
 32 59  1  0
 33 60  1  0
 33 61  1  0
 34 62  1  0
 34 63  1  0
 35 64  1  0
 36 65  1  0
 37 66  1  0
M  CHG  1   1  -1
M  END
>  <UniqueID>  (19) 
19

>  <SMILES>  (19) 
[NH-]S(=O)(=O)c1ccc(CCNS(=O)(=O)c2cccc(C(=O)N3CCN(Cc4ccccc4)CC3)c2)cc1

>  <Energy>  (19) 
77.78645933991372

>  <Genealogy>  (19) 
[NH-]S(=O)(=O)c1ccc(CCNS(=O)(=O)c2cccc(C(=O)N3CCN(Cc4ccccc4)CC3)c2)cc1 (protonated)
[NH-]S(=O)(=O)c1ccc(CCNS(=O)(=O)c2cccc(C(=O)N3CCN(Cc4ccccc4)CC3)c2)cc1 (3D coordinates assigned)
[NH-]S(=O)(=O)c1ccc(CCNS(=O)(=O)c2cccc(C(=O)N3CCN(Cc4ccccc4)CC3)c2)cc1 (nonaromatic ring conformer: 77.78645933991372 kcal/mol)

>  <smiles>  (19) 
NS(=O)(=O)c1ccc(CCNS(=O)(=O)c2cccc(C(=O)N3CCN(Cc4ccccc4)CC3)c2)cc1

>  <score_type>  (19) 
oracle

>  <origin>  (19) 
adgpu

>  <m_score__min__energy>  (19) 
-13.210000000000001

>  <m_primary>  (19) 
energy

$$$$
19:0
     RDKit          3D

 47 50  0  0  0  0  0  0  0  0999 V2000
   -1.9330   18.6420  -26.7900 C   0  0  0  0  0  0  0  0  0  0  0  0
   -0.6390   18.2900  -27.4990 C   0  0  0  0  0  0  0  0  0  0  0  0
   -0.4060   19.1800  -28.5940 O   0  0  0  0  0  0  0  0  0  0  0  0
   -0.8540   20.5080  -28.6710 C   0  0  0  0  0  0  0  0  0  0  0  0
   -0.5900   21.4640  -27.6670 C   0  0  0  0  0  0  0  0  0  0  0  0
   -1.0870   22.7670  -27.7830 C   0  0  0  0  0  0  0  0  0  0  0  0
   -1.8700   23.1260  -28.8890 C   0  0  0  0  0  0  0  0  0  0  0  0
   -2.5960   24.7320  -28.9680 S   0  0  0  0  0  0  0  0  0  0  0  0
   -3.5350   24.8770  -27.8140 O   0  0  0  0  0  0  0  0  0  0  0  0
   -1.5450   25.7930  -28.8850 O   0  0  0  0  0  0  0  0  0  0  0  0
   -3.4820   24.9210  -30.4450 N   0  0  0  0  0  0  0  0  0  0  0  0
   -4.6870   24.2110  -30.7530 C   0  0  0  0  0  0  0  0  0  0  0  0
   -4.6680   23.0840  -31.5890 C   0  0  0  0  0  0  0  0  0  0  0  0
   -5.8170   22.3080  -31.7580 C   0  0  0  0  0  0  0  0  0  0  0  0
   -7.0140   22.6800  -31.1200 C   0  0  0  0  0  0  0  0  0  0  0  0
   -7.0510   23.8490  -30.3490 C   0  0  0  0  0  0  0  0  0  0  0  0
   -5.8960   24.6100  -30.1560 C   0  0  0  0  0  0  0  0  0  0  0  0
   -5.9700   25.7400  -29.3410 O   0  0  0  0  0  0  0  0  0  0  0  0
   -8.2760   21.8840  -31.3110 C   0  0  0  0  0  0  0  0  0  0  0  0
   -8.0280   20.4790  -31.8150 C   0  0  0  0  0  0  0  0  0  0  0  0
   -9.0410   19.5130  -31.7000 C   0  0  0  0  0  0  0  0  0  0  0  0
   -8.8480   18.2270  -32.2120 C   0  0  0  0  0  0  0  0  0  0  0  0
   -7.6510   17.9000  -32.8610 C   0  0  0  0  0  0  0  0  0  0  0  0
   -6.6440   18.8580  -32.9910 C   0  0  0  0  0  0  0  0  0  0  0  0
   -6.8220   20.1470  -32.4640 C   0  0  0  0  0  0  0  0  0  0  0  0
   -5.7560   21.1060  -32.5280 N   0  0  0  0  0  0  0  0  0  0  0  0
   -2.1090   22.1870  -29.9010 C   0  0  0  0  0  0  0  0  0  0  0  0
   -1.6020   20.8870  -29.7930 C   0  0  0  0  0  0  0  0  0  0  0  0
   -1.7780   18.5998  -25.7018 H   0  0  0  0  0  0  0  0  0  0  0  0
   -2.2439   19.6574  -27.0770 H   0  0  0  0  0  0  0  0  0  0  0  0
   -2.7154   17.9241  -27.0770 H   0  0  0  0  0  0  0  0  0  0  0  0
    0.1958   18.3670  -26.7868 H   0  0  0  0  0  0  0  0  0  0  0  0
   -0.7154   17.2635  -27.8868 H   0  0  0  0  0  0  0  0  0  0  0  0
    0.0097   21.1834  -26.7885 H   0  0  0  0  0  0  0  0  0  0  0  0
   -0.8628   23.5112  -27.0046 H   0  0  0  0  0  0  0  0  0  0  0  0
   -3.7416   22.8098  -32.1149 H   0  0  0  0  0  0  0  0  0  0  0  0
   -7.9983   24.1704  -29.8915 H   0  0  0  0  0  0  0  0  0  0  0  0
   -5.3680   25.8680  -28.5360 H   0  0  0  0  0  0  0  0  0  0  0  0
   -8.7985   21.8211  -30.3450 H   0  0  0  0  0  0  0  0  0  0  0  0
   -8.8753   22.4023  -32.0740 H   0  0  0  0  0  0  0  0  0  0  0  0
   -9.9894   19.7695  -31.2053 H   0  0  0  0  0  0  0  0  0  0  0  0
   -9.6385   17.4696  -32.1049 H   0  0  0  0  0  0  0  0  0  0  0  0
   -7.5043   16.8887  -33.2682 H   0  0  0  0  0  0  0  0  0  0  0  0
   -5.7076   18.6020  -33.5083 H   0  0  0  0  0  0  0  0  0  0  0  0
   -4.8810   20.8780  -33.0520 H   0  0  0  0  0  0  0  0  0  0  0  0
   -2.6981   22.4730  -30.7849 H   0  0  0  0  0  0  0  0  0  0  0  0
   -1.7922   20.1580  -30.5945 H   0  0  0  0  0  0  0  0  0  0  0  0
  1  2  1  0
  2  3  1  0
  3  4  1  0
  4  5  2  0
  5  6  1  0
  6  7  2  0
  7  8  1  0
  8  9  2  0
  8 10  2  0
  8 11  1  0
 11 12  1  0
 12 13  2  0
 13 14  1  0
 14 15  2  0
 15 16  1  0
 16 17  2  0
 17 18  1  0
 15 19  1  0
 19 20  1  0
 20 21  2  0
 21 22  1  0
 22 23  2  0
 23 24  1  0
 24 25  2  0
 25 26  1  0
  7 27  1  0
 27 28  2  0
 28  4  1  0
 17 12  1  0
 25 20  1  0
 26 14  1  0
  1 29  1  0
  1 30  1  0
  1 31  1  0
  2 32  1  0
  2 33  1  0
  5 34  1  0
  6 35  1  0
 13 36  1  0
 16 37  1  0
 18 38  1  0
 19 39  1  0
 19 40  1  0
 21 41  1  0
 22 42  1  0
 23 43  1  0
 24 44  1  0
 26 45  1  0
 27 46  1  0
 28 47  1  0
M  CHG  1  11  -1
M  END
>  <UniqueID>  (20) 
20

>  <SMILES>  (20) 
CCOc1ccc(S(=O)(=O)[N-]c2cc3c(cc2O)Cc2ccccc2N3)cc1

>  <Energy>  (20) 
57.31406848347821

>  <Genealogy>  (20) 
CCOc1ccc(S(=O)(=O)[N-]c2cc3c(cc2O)Cc2ccccc2N3)cc1 (protonated)
CCOc1ccc(S(=O)(=O)[N-]c2cc3c(cc2O)Cc2ccccc2N3)cc1 (3D coordinates assigned)
CCOc1ccc(S(=O)(=O)[N-]c2cc3c(cc2O)Cc2ccccc2N3)cc1 (nonaromatic ring conformer: 57.31406848347821 kcal/mol)

>  <smiles>  (20) 
CCOc1ccc(S(=O)(=O)Nc2cc3c(cc2O)Cc2ccccc2N3)cc1

>  <score_type>  (20) 
oracle

>  <origin>  (20) 
adgpu

>  <m_score__min__energy>  (20) 
-11.33

>  <m_primary>  (20) 
energy

$$$$
20:0
     RDKit          3D

 42 44  0  0  0  0  0  0  0  0999 V2000
   -6.8950   24.6620  -29.8490 C   0  0  0  0  0  0  0  0  0  0  0  0
   -7.5300   24.1620  -31.0200 O   0  0  0  0  0  0  0  0  0  0  0  0
   -7.6270   22.8020  -31.3570 C   0  0  0  0  0  0  0  0  0  0  0  0
   -8.8240   22.0780  -31.1850 C   0  0  0  0  0  0  0  0  0  0  0  0
   -8.9060   20.7420  -31.5830 C   0  0  0  0  0  0  0  0  0  0  0  0
   -7.8000   20.1140  -32.1610 C   0  0  0  0  0  0  0  0  0  0  0  0
   -7.9090   18.4400  -32.6730 Cl  0  0  0  0  0  0  0  0  0  0  0  0
   -6.6050   20.8190  -32.3270 C   0  0  0  0  0  0  0  0  0  0  0  0
   -6.5030   22.1510  -31.9080 C   0  0  0  0  0  0  0  0  0  0  0  0
   -5.2830   22.8120  -32.0880 O   0  0  0  0  0  0  0  0  0  0  0  0
   -4.0310   22.2560  -31.7920 C   0  0  0  0  0  0  0  0  0  0  0  0
   -3.6760   21.0390  -32.2950 N   0  0  0  0  0  0  0  0  0  0  0  0
   -2.4760   20.4670  -32.0180 C   0  0  0  0  0  0  0  0  0  0  0  0
   -1.5630   21.1250  -31.1930 C   0  0  0  0  0  0  0  0  0  0  0  0
   -1.8920   22.3760  -30.6720 C   0  0  0  0  0  0  0  0  0  0  0  0
   -3.1240   22.9640  -30.9840 C   0  0  0  0  0  0  0  0  0  0  0  0
   -3.4430   24.3060  -30.4660 C   0  0  0  0  0  0  0  0  0  0  0  0
   -4.3800   24.9600  -30.9950 O   0  0  0  0  0  0  0  0  0  0  0  0
   -2.7480   24.8710  -29.3440 N   0  0  0  0  0  0  0  0  0  0  0  0
   -3.0110   24.5580  -27.9410 C   0  0  0  0  0  0  0  0  0  0  0  0
   -2.4530   23.2160  -27.5860 C   0  0  0  0  0  0  0  0  0  0  0  0
   -1.1780   22.9710  -27.1090 C   0  0  0  0  0  0  0  0  0  0  0  0
   -1.0970   21.6050  -26.9460 C   0  0  0  0  0  0  0  0  0  0  0  0
   -2.3260   21.1080  -27.3340 C   0  0  0  0  0  0  0  0  0  0  0  0
   -2.7280   19.6720  -27.3160 C   0  0  0  0  0  0  0  0  0  0  0  0
   -3.1170   22.0890  -27.7060 O   0  0  0  0  0  0  0  0  0  0  0  0
   -7.4020   24.2628  -28.9581 H   0  0  0  0  0  0  0  0  0  0  0  0
   -5.8404   24.3492  -29.8418 H   0  0  0  0  0  0  0  0  0  0  0  0
   -6.9517   25.7605  -29.8418 H   0  0  0  0  0  0  0  0  0  0  0  0
   -9.6993   22.5686  -30.7343 H   0  0  0  0  0  0  0  0  0  0  0  0
   -9.8428   20.1832  -31.4412 H   0  0  0  0  0  0  0  0  0  0  0  0
   -5.7386   20.3241  -32.7900 H   0  0  0  0  0  0  0  0  0  0  0  0
   -2.2236   19.4848  -32.4440 H   0  0  0  0  0  0  0  0  0  0  0  0
   -0.5938   20.6617  -30.9561 H   0  0  0  0  0  0  0  0  0  0  0  0
   -1.1830   22.9014  -30.0153 H   0  0  0  0  0  0  0  0  0  0  0  0
   -2.5418   25.3238  -27.3059 H   0  0  0  0  0  0  0  0  0  0  0  0
   -4.0990   24.5431  -27.7795 H   0  0  0  0  0  0  0  0  0  0  0  0
   -0.3920   23.7124  -26.9027 H   0  0  0  0  0  0  0  0  0  0  0  0
   -0.2328   21.0297  -26.5823 H   0  0  0  0  0  0  0  0  0  0  0  0
   -2.8235   19.3310  -26.2746 H   0  0  0  0  0  0  0  0  0  0  0  0
   -3.6934   19.5550  -27.8301 H   0  0  0  0  0  0  0  0  0  0  0  0
   -1.9636   19.0708  -27.8301 H   0  0  0  0  0  0  0  0  0  0  0  0
  1  2  1  0
  2  3  1  0
  3  4  2  0
  4  5  1  0
  5  6  2  0
  6  7  1  0
  6  8  1  0
  8  9  2  0
  9 10  1  0
 10 11  1  0
 11 12  2  0
 12 13  1  0
 13 14  2  0
 14 15  1  0
 15 16  2  0
 16 17  1  0
 17 18  2  0
 17 19  1  0
 19 20  1  0
 20 21  1  0
 21 22  2  0
 22 23  1  0
 23 24  2  0
 24 25  1  0
 24 26  1  0
  9  3  1  0
 16 11  1  0
 26 21  1  0
  1 27  1  0
  1 28  1  0
  1 29  1  0
  4 30  1  0
  5 31  1  0
  8 32  1  0
 13 33  1  0
 14 34  1  0
 15 35  1  0
 20 36  1  0
 20 37  1  0
 22 38  1  0
 23 39  1  0
 25 40  1  0
 25 41  1  0
 25 42  1  0
M  CHG  1  19  -1
M  END
>  <UniqueID>  (21) 
21

>  <SMILES>  (21) 
COc1ccc(Cl)cc1Oc1ncccc1C(=O)[N-]Cc1ccc(C)o1

>  <Energy>  (21) 
76.89630165501713

>  <Genealogy>  (21) 
COc1ccc(Cl)cc1Oc1ncccc1C(=O)[N-]Cc1ccc(C)o1 (protonated)
COc1ccc(Cl)cc1Oc1ncccc1C(=O)[N-]Cc1ccc(C)o1 (3D coordinates assigned)
COc1ccc(Cl)cc1Oc1ncccc1C(=O)[N-]Cc1ccc(C)o1 (optimized conformer: 76.89630165501713 kcal/mol)

>  <smiles>  (21) 
COc1ccc(Cl)cc1Oc1ncccc1C(=O)NCc1ccc(C)o1

>  <score_type>  (21) 
oracle

>  <origin>  (21) 
adgpu

>  <m_score__min__energy>  (21) 
-9.7400000000000002

>  <m_primary>  (21) 
energy

$$$$
21:0
     RDKit          3D

 46 49  0  0  0  0  0  0  0  0999 V2000
   -0.4440   24.7740  -26.3290 C   0  0  0  0  0  0  0  0  0  0  0  0
    0.4190   24.1990  -27.7760 S   0  0  0  0  0  0  0  0  0  0  0  0
    1.7430   24.9080  -27.8420 O   0  0  0  0  0  0  0  0  0  0  0  0
    0.6680   22.7190  -27.6930 O   0  0  0  0  0  0  0  0  0  0  0  0
   -0.4800   24.5810  -29.2100 N   0  0  0  0  0  0  0  0  0  0  0  0
   -1.4220   23.7330  -29.8840 C   0  0  0  0  0  0  0  0  0  0  0  0
   -0.9790   22.4740  -30.3090 C   0  0  0  0  0  0  0  0  0  0  0  0
   -1.8390   21.6000  -30.9790 C   0  0  0  0  0  0  0  0  0  0  0  0
   -3.1690   21.9710  -31.2220 C   0  0  0  0  0  0  0  0  0  0  0  0
   -3.6260   23.2190  -30.7770 C   0  0  0  0  0  0  0  0  0  0  0  0
   -2.7700   24.0930  -30.0980 C   0  0  0  0  0  0  0  0  0  0  0  0
   -3.2880   25.2890  -29.6220 O   0  0  0  0  0  0  0  0  0  0  0  0
   -4.1060   21.0610  -31.9750 C   0  0  0  0  0  0  0  0  0  0  0  0
   -3.5360   19.6980  -32.3170 C   0  0  0  0  0  0  0  0  0  0  0  0
   -2.1800   19.4170  -32.0290 C   0  0  0  0  0  0  0  0  0  0  0  0
   -1.6260   18.1790  -32.3610 C   0  0  0  0  0  0  0  0  0  0  0  0
   -2.4050   17.2030  -32.9740 C   0  0  0  0  0  0  0  0  0  0  0  0
   -3.7440   17.4580  -33.2620 C   0  0  0  0  0  0  0  0  0  0  0  0
   -4.3260   18.6960  -32.9510 C   0  0  0  0  0  0  0  0  0  0  0  0
   -6.0490   18.8840  -33.3480 S   0  0  0  0  0  0  0  0  0  0  0  0
   -6.4900   17.6390  -34.0680 O   0  0  0  0  0  0  0  0  0  0  0  0
   -6.3090   20.0540  -34.2550 O   0  0  0  0  0  0  0  0  0  0  0  0
   -6.9800   19.0450  -31.8730 N   0  0  0  0  0  0  0  0  0  0  0  0
   -7.3490   20.4440  -31.6380 C   0  0  0  0  0  0  0  0  0  0  0  0
   -8.7060   20.6830  -32.2800 C   0  0  0  0  0  0  0  0  0  0  0  0
   -9.3170   19.3060  -32.4520 C   0  0  0  0  0  0  0  0  0  0  0  0
   -8.2500   18.3220  -31.9880 C   0  0  0  0  0  0  0  0  0  0  0  0
   -1.3650   20.3580  -31.3970 O   0  0  0  0  0  0  0  0  0  0  0  0
    0.0798   24.4250  -25.4268 H   0  0  0  0  0  0  0  0  0  0  0  0
   -0.4745   25.8736  -26.3330 H   0  0  0  0  0  0  0  0  0  0  0  0
   -1.4705   24.3787  -26.3330 H   0  0  0  0  0  0  0  0  0  0  0  0
    0.0596   22.1693  -30.1127 H   0  0  0  0  0  0  0  0  0  0  0  0
   -4.6690   23.5146  -30.9636 H   0  0  0  0  0  0  0  0  0  0  0  0
   -5.0047   20.9106  -31.3588 H   0  0  0  0  0  0  0  0  0  0  0  0
   -4.3134   21.5578  -32.9343 H   0  0  0  0  0  0  0  0  0  0  0  0
   -0.5687   17.9746  -32.1368 H   0  0  0  0  0  0  0  0  0  0  0  0
   -1.9634   16.2290  -33.2315 H   0  0  0  0  0  0  0  0  0  0  0  0
   -4.3538   16.6773  -33.7402 H   0  0  0  0  0  0  0  0  0  0  0  0
   -7.4074   20.6387  -30.5569 H   0  0  0  0  0  0  0  0  0  0  0  0
   -6.5955   21.1174  -32.0724 H   0  0  0  0  0  0  0  0  0  0  0  0
   -9.3364   21.3052  -31.6277 H   0  0  0  0  0  0  0  0  0  0  0  0
   -8.6174   21.2144  -33.2390 H   0  0  0  0  0  0  0  0  0  0  0  0
  -10.2230   19.2085  -31.8358 H   0  0  0  0  0  0  0  0  0  0  0  0
   -9.6150   19.1208  -33.4946 H   0  0  0  0  0  0  0  0  0  0  0  0
   -8.5298   17.9028  -31.0103 H   0  0  0  0  0  0  0  0  0  0  0  0
   -8.1540   17.4972  -32.7094 H   0  0  0  0  0  0  0  0  0  0  0  0
  1  2  1  0
  2  3  2  0
  2  4  2  0
  2  5  1  0
  5  6  1  0
  6  7  2  0
  7  8  1  0
  8  9  2  0
  9 10  1  0
 10 11  2  0
 11 12  1  0
  9 13  1  0
 13 14  1  0
 14 15  2  0
 15 16  1  0
 16 17  2  0
 17 18  1  0
 18 19  2  0
 19 20  1  0
 20 21  2  0
 20 22  2  0
 20 23  1  0
 23 24  1  0
 24 25  1  0
 25 26  1  0
 26 27  1  0
 15 28  1  0
 11  6  1  0
 19 14  1  0
 27 23  1  0
 28  8  1  0
  1 29  1  0
  1 30  1  0
  1 31  1  0
  7 32  1  0
 10 33  1  0
 13 34  1  0
 13 35  1  0
 16 36  1  0
 17 37  1  0
 18 38  1  0
 24 39  1  0
 24 40  1  0
 25 41  1  0
 25 42  1  0
 26 43  1  0
 26 44  1  0
 27 45  1  0
 27 46  1  0
M  CHG  2   5  -1  12  -1
M  END
>  <UniqueID>  (22) 
22

>  <SMILES>  (22) 
CS(=O)(=O)[N-]c1cc2c(cc1[O-])Cc1c(cccc1S(=O)(=O)N1CCCC1)O2

>  <Energy>  (22) 
59.49051060752835

>  <Genealogy>  (22) 
CS(=O)(=O)[N-]c1cc2c(cc1[O-])Cc1c(cccc1S(=O)(=O)N1CCCC1)O2 (protonated)
CS(=O)(=O)[N-]c1cc2c(cc1[O-])Cc1c(cccc1S(=O)(=O)N1CCCC1)O2 (3D coordinates assigned)
CS(=O)(=O)[N-]c1cc2c(cc1[O-])Cc1c(cccc1S(=O)(=O)N1CCCC1)O2 (nonaromatic ring conformer: 59.49051060752835 kcal/mol)

>  <smiles>  (22) 
CS(=O)(=O)Nc1cc2c(cc1O)Cc1c(cccc1S(=O)(=O)N1CCCC1)O2

>  <score_type>  (22) 
oracle

>  <origin>  (22) 
adgpu

>  <m_score__min__energy>  (22) 
-12.119999999999999

>  <m_primary>  (22) 
energy

$$$$
22:0
     RDKit          3D

 38 40  0  0  0  0  0  0  0  0999 V2000
   -9.6267   20.6065  -30.6434 H   0  0  0  0  0  0  0  0  0  0  0  0
   -9.0550   21.4760  -31.0000 C   0  0  0  0  0  0  0  0  0  0  0  0
   -7.5100   21.9190  -30.4930 S   0  0  0  0  0  0  0  0  0  0  0  0
   -7.4540   23.2690  -31.5020 C   0  0  0  0  0  0  0  0  0  0  0  0
   -6.4690   24.1100  -31.6040 N   0  0  0  0  0  0  0  0  0  0  0  0
   -4.9950   24.0000  -30.6950 S   0  0  0  0  0  0  0  0  0  0  0  0
   -5.3240   23.7890  -29.2450 O   0  0  0  0  0  0  0  0  0  0  0  0
   -4.2310   25.2860  -30.8410 O   0  0  0  0  0  0  0  0  0  0  0  0
   -4.0330   22.6390  -31.2640 C   0  0  0  0  0  0  0  0  0  0  0  0
   -3.2920   21.8650  -30.3610 C   0  0  0  0  0  0  0  0  0  0  0  0
   -3.3144   22.1030  -29.2873 H   0  0  0  0  0  0  0  0  0  0  0  0
   -2.5250   20.7920  -30.8210 C   0  0  0  0  0  0  0  0  0  0  0  0
   -1.9427   20.1926  -30.1057 H   0  0  0  0  0  0  0  0  0  0  0  0
   -2.4900   20.4710  -32.1880 C   0  0  0  0  0  0  0  0  0  0  0  0
   -1.6910   19.3550  -32.6270 N   0  0  0  0  0  0  0  0  0  0  0  0
   -0.6760   19.5160  -32.8250 H   0  0  0  0  0  0  0  0  0  0  0  0
   -2.1860   17.9840  -32.7590 C   0  0  0  0  0  0  0  0  0  0  0  0
   -1.4922   17.4088  -33.3897 H   0  0  0  0  0  0  0  0  0  0  0  0
   -2.2534   17.5345  -31.7573 H   0  0  0  0  0  0  0  0  0  0  0  0
   -3.5540   17.9700  -33.3890 C   0  0  0  0  0  0  0  0  0  0  0  0
   -3.7050   17.7180  -34.7630 C   0  0  0  0  0  0  0  0  0  0  0  0
   -2.8181   17.5318  -35.3865 H   0  0  0  0  0  0  0  0  0  0  0  0
   -4.9780   17.7030  -35.3410 C   0  0  0  0  0  0  0  0  0  0  0  0
   -5.0891   17.5128  -36.4187 H   0  0  0  0  0  0  0  0  0  0  0  0
   -6.1090   17.9290  -34.5530 C   0  0  0  0  0  0  0  0  0  0  0  0
   -7.1093   17.9190  -35.0105 H   0  0  0  0  0  0  0  0  0  0  0  0
   -5.9690   18.1680  -33.1820 C   0  0  0  0  0  0  0  0  0  0  0  0
   -7.5160   18.4730  -32.1030 Br  0  0  0  0  0  0  0  0  0  0  0  0
   -4.6970   18.1840  -32.6010 C   0  0  0  0  0  0  0  0  0  0  0  0
   -4.5910   18.3651  -31.5212 H   0  0  0  0  0  0  0  0  0  0  0  0
   -3.2350   21.2550  -33.0900 C   0  0  0  0  0  0  0  0  0  0  0  0
   -3.2124   21.0221  -34.1648 H   0  0  0  0  0  0  0  0  0  0  0  0
   -4.0020   22.3260  -32.6280 C   0  0  0  0  0  0  0  0  0  0  0  0
   -4.5856   22.9277  -33.3403 H   0  0  0  0  0  0  0  0  0  0  0  0
   -8.5890   23.3900  -32.2210 N   0  0  0  0  0  0  0  0  0  0  0  0
   -8.7690   24.1560  -32.9090 H   0  0  0  0  0  0  0  0  0  0  0  0
   -9.4820   22.4010  -31.9480 C   0  0  0  0  0  0  0  0  0  0  0  0
  -10.4647   22.3373  -32.4381 H   0  0  0  0  0  0  0  0  0  0  0  0
  1  2  1  0
  2  3  1  0
  3  4  1  0
  4  5  2  0
  5  6  1  0
  6  7  2  0
  6  8  2  0
  6  9  1  0
  9 10  2  0
 10 11  1  0
 10 12  1  0
 12 13  1  0
 12 14  2  0
 14 15  1  0
 15 16  1  0
 15 17  1  0
 17 18  1  0
 17 19  1  0
 17 20  1  0
 20 21  2  0
 21 22  1  0
 21 23  1  0
 23 24  1  0
 23 25  2  0
 25 26  1  0
 25 27  1  0
 27 28  1  0
 27 29  2  0
 29 30  1  0
 14 31  1  0
 31 32  1  0
 31 33  2  0
 33 34  1  0
  4 35  1  0
 35 36  1  0
 35 37  1  0
 37 38  1  0
 37  2  2  0
 33  9  1  0
 29 20  1  0
M  END
>  <UniqueID>  (23) 
23

>  <SMILES>  (23) 
O=S(=O)(/N=c1/[nH]ccs1)c1ccc(NCc2cccc(Br)c2)cc1

>  <Energy>  (23) 
72.51828905057823

>  <Genealogy>  (23) 
O=S(=O)(/N=c1/[nH]ccs1)c1ccc(NCc2cccc(Br)c2)cc1 (cis-trans isomerization)
O=S(=O)(/N=c1/[nH]ccs1)c1ccc(NCc2cccc(Br)c2)cc1 (3D coordinates assigned)
O=S(=O)(/N=c1/[nH]ccs1)c1ccc(NCc2cccc(Br)c2)cc1 (optimized conformer: 72.51828905057823 kcal/mol)

>  <smiles>  (23) 
O=S(=O)(N=c1[nH]ccs1)c1ccc(NCc2cccc(Br)c2)cc1

>  <score_type>  (23) 
oracle

>  <origin>  (23) 
adgpu

>  <m_score__min__energy>  (23) 
-9.4399999999999995

>  <m_primary>  (23) 
energy

$$$$
23:0
     RDKit          3D

 42 44  0  0  0  0  0  0  0  0999 V2000
   -2.5130   23.4310  -28.5500 C   0  0  0  0  0  0  0  0  0  0  0  0
   -2.5650   24.7460  -29.2670 C   0  0  0  0  0  0  0  0  0  0  0  0
   -1.7390   25.6460  -28.9590 O   0  0  0  0  0  0  0  0  0  0  0  0
   -3.4940   24.9940  -30.3300 N   0  0  0  0  0  0  0  0  0  0  0  0
   -4.7130   24.2790  -30.5520 C   0  0  0  0  0  0  0  0  0  0  0  0
   -5.9000   24.7870  -30.0180 C   0  0  0  0  0  0  0  0  0  0  0  0
   -7.1120   24.1380  -30.2540 C   0  0  0  0  0  0  0  0  0  0  0  0
   -7.1450   22.9590  -31.0070 C   0  0  0  0  0  0  0  0  0  0  0  0
   -8.7000   22.2690  -31.4660 S   0  0  0  0  0  0  0  0  0  0  0  0
   -9.5830   23.3700  -31.9770 O   0  0  0  0  0  0  0  0  0  0  0  0
   -9.3640   21.6070  -30.2940 O   0  0  0  0  0  0  0  0  0  0  0  0
   -8.4460   21.1010  -32.7250 N   0  0  0  0  0  0  0  0  0  0  0  0
   -7.5930   19.9610  -32.5900 C   0  0  0  0  0  0  0  0  0  0  0  0
   -6.4580   19.8070  -33.4040 C   0  0  0  0  0  0  0  0  0  0  0  0
   -5.7050   18.6300  -33.3600 C   0  0  0  0  0  0  0  0  0  0  0  0
   -6.0770   17.5950  -32.4830 C   0  0  0  0  0  0  0  0  0  0  0  0
   -7.1610   17.7790  -31.6150 C   0  0  0  0  0  0  0  0  0  0  0  0
   -7.9220   18.9510  -31.6660 C   0  0  0  0  0  0  0  0  0  0  0  0
   -9.0130   19.0810  -30.8050 O   0  0  0  0  0  0  0  0  0  0  0  0
   -5.2770   16.3160  -32.4290 C   0  0  0  0  0  0  0  0  0  0  0  0
   -4.5820   16.0420  -33.7690 C   0  0  0  0  0  0  0  0  0  0  0  0
   -3.7500   17.2580  -34.1960 C   0  0  0  0  0  0  0  0  0  0  0  0
   -4.5880   18.4570  -34.2470 N   0  0  0  0  0  0  0  0  0  0  0  0
   -5.9470   22.4090  -31.4830 C   0  0  0  0  0  0  0  0  0  0  0  0
   -4.7360   23.0660  -31.2590 C   0  0  0  0  0  0  0  0  0  0  0  0
   -2.5199   23.6051  -27.4639 H   0  0  0  0  0  0  0  0  0  0  0  0
   -3.3879   22.8259  -28.8299 H   0  0  0  0  0  0  0  0  0  0  0  0
   -1.5930   22.8969  -28.8299 H   0  0  0  0  0  0  0  0  0  0  0  0
   -5.8787   25.7027  -29.4089 H   0  0  0  0  0  0  0  0  0  0  0  0
   -8.0451   24.5545  -29.8467 H   0  0  0  0  0  0  0  0  0  0  0  0
   -6.1593   20.6200  -34.0820 H   0  0  0  0  0  0  0  0  0  0  0  0
   -7.4158   16.9947  -30.8870 H   0  0  0  0  0  0  0  0  0  0  0  0
   -9.4940   19.9640  -30.6740 H   0  0  0  0  0  0  0  0  0  0  0  0
   -4.5152   16.4018  -31.6402 H   0  0  0  0  0  0  0  0  0  0  0  0
   -5.9633   15.4835  -32.2149 H   0  0  0  0  0  0  0  0  0  0  0  0
   -3.9210   15.1692  -33.6631 H   0  0  0  0  0  0  0  0  0  0  0  0
   -5.3467   15.8450  -34.5348 H   0  0  0  0  0  0  0  0  0  0  0  0
   -2.9377   17.4141  -33.4709 H   0  0  0  0  0  0  0  0  0  0  0  0
   -3.3328   17.0714  -35.1966 H   0  0  0  0  0  0  0  0  0  0  0  0
   -4.3050   19.2350  -34.8890 H   0  0  0  0  0  0  0  0  0  0  0  0
   -5.9611   21.4573  -32.0344 H   0  0  0  0  0  0  0  0  0  0  0  0
   -3.7982   22.6328  -31.6369 H   0  0  0  0  0  0  0  0  0  0  0  0
  1  2  1  0
  2  3  2  0
  2  4  1  0
  4  5  1  0
  5  6  2  0
  6  7  1  0
  7  8  2  0
  8  9  1  0
  9 10  2  0
  9 11  2  0
  9 12  1  0
 12 13  1  0
 13 14  2  0
 14 15  1  0
 15 16  2  0
 16 17  1  0
 17 18  2  0
 18 19  1  0
 16 20  1  0
 20 21  1  0
 21 22  1  0
 22 23  1  0
  8 24  1  0
 24 25  2  0
 25  5  1  0
 18 13  1  0
 23 15  1  0
  1 26  1  0
  1 27  1  0
  1 28  1  0
  6 29  1  0
  7 30  1  0
 14 31  1  0
 17 32  1  0
 19 33  1  0
 20 34  1  0
 20 35  1  0
 21 36  1  0
 21 37  1  0
 22 38  1  0
 22 39  1  0
 23 40  1  0
 24 41  1  0
 25 42  1  0
M  CHG  2   4  -1  12  -1
M  END
>  <UniqueID>  (24) 
24

>  <SMILES>  (24) 
CC(=O)[N-]c1ccc(S(=O)(=O)[N-]c2cc3c(cc2O)CCCN3)cc1

>  <Energy>  (24) 
49.28294627849983

>  <Genealogy>  (24) 
CC(=O)[N-]c1ccc(S(=O)(=O)[N-]c2cc3c(cc2O)CCCN3)cc1 (protonated)
CC(=O)[N-]c1ccc(S(=O)(=O)[N-]c2cc3c(cc2O)CCCN3)cc1 (3D coordinates assigned)
CC(=O)[N-]c1ccc(S(=O)(=O)[N-]c2cc3c(cc2O)CCCN3)cc1 (nonaromatic ring conformer: 49.28294627849983 kcal/mol)

>  <smiles>  (24) 
CC(=O)Nc1ccc(S(=O)(=O)Nc2cc3c(cc2O)CCCN3)cc1

>  <score_type>  (24) 
oracle

>  <origin>  (24) 
adgpu

>  <m_score__min__energy>  (24) 
-11.34

>  <m_primary>  (24) 
energy

$$$$
24:0
     RDKit          3D

 39 41  0  0  0  0  0  0  0  0999 V2000
   -0.6466   22.8506  -29.1908 H   0  0  0  0  0  0  0  0  0  0  0  0
   -1.5360   22.9020  -29.8360 C   0  0  0  0  0  0  0  0  0  0  0  0
   -2.4010   23.9420  -29.7180 N   0  0  0  0  0  0  0  0  0  0  0  0
   -3.5040   24.0300  -30.5060 C   0  0  0  0  0  0  0  0  0  0  0  0
   -4.3060   25.0440  -30.3710 N   0  0  0  0  0  0  0  0  0  0  0  0
   -5.5050   25.2770  -31.1770 C   0  0  0  0  0  0  0  0  0  0  0  0
   -6.0001   26.1942  -30.8254 H   0  0  0  0  0  0  0  0  0  0  0  0
   -5.2011   25.3768  -32.2295 H   0  0  0  0  0  0  0  0  0  0  0  0
   -6.4720   24.1250  -31.0690 C   0  0  0  0  0  0  0  0  0  0  0  0
   -7.2460   23.7420  -32.1780 C   0  0  0  0  0  0  0  0  0  0  0  0
   -7.1251   24.2654  -33.1379 H   0  0  0  0  0  0  0  0  0  0  0  0
   -8.1700   22.6970  -32.0650 C   0  0  0  0  0  0  0  0  0  0  0  0
   -8.7795   22.4062  -32.9333 H   0  0  0  0  0  0  0  0  0  0  0  0
   -8.3190   22.0230  -30.8510 C   0  0  0  0  0  0  0  0  0  0  0  0
   -9.0397   21.1963  -30.7664 H   0  0  0  0  0  0  0  0  0  0  0  0
   -7.5530   22.3980  -29.7430 C   0  0  0  0  0  0  0  0  0  0  0  0
   -7.6703   21.8650  -28.7880 H   0  0  0  0  0  0  0  0  0  0  0  0
   -6.6380   23.4500  -29.8480 C   0  0  0  0  0  0  0  0  0  0  0  0
   -6.0457   23.7504  -28.9711 H   0  0  0  0  0  0  0  0  0  0  0  0
   -3.7540   23.0570  -31.4260 N   0  0  0  0  0  0  0  0  0  0  0  0
   -2.9170   21.9960  -31.5800 C   0  0  0  0  0  0  0  0  0  0  0  0
   -3.2390   20.9660  -32.5290 N   0  0  0  0  0  0  0  0  0  0  0  0
   -4.5620   20.3860  -32.5250 C   0  0  0  0  0  0  0  0  0  0  0  0
   -4.8970   19.3950  -31.5830 C   0  0  0  0  0  0  0  0  0  0  0  0
   -4.1560   19.0834  -30.8321 H   0  0  0  0  0  0  0  0  0  0  0  0
   -6.1630   18.8040  -31.5940 C   0  0  0  0  0  0  0  0  0  0  0  0
   -6.4114   18.0240  -30.8593 H   0  0  0  0  0  0  0  0  0  0  0  0
   -7.1130   19.2020  -32.5360 C   0  0  0  0  0  0  0  0  0  0  0  0
   -8.1094   18.7360  -32.5434 H   0  0  0  0  0  0  0  0  0  0  0  0
   -6.7980   20.1920  -33.4690 C   0  0  0  0  0  0  0  0  0  0  0  0
   -7.5500   20.5101  -34.2061 H   0  0  0  0  0  0  0  0  0  0  0  0
   -5.5300   20.7800  -33.4690 C   0  0  0  0  0  0  0  0  0  0  0  0
   -5.2867   21.5551  -34.2107 H   0  0  0  0  0  0  0  0  0  0  0  0
   -2.2940   20.6620  -33.6080 C   0  0  0  0  0  0  0  0  0  0  0  0
   -1.3311   20.3522  -33.1757 H   0  0  0  0  0  0  0  0  0  0  0  0
   -2.6960   19.8478  -34.2289 H   0  0  0  0  0  0  0  0  0  0  0  0
   -2.1459   21.5578  -34.2289 H   0  0  0  0  0  0  0  0  0  0  0  0
   -1.7750   21.8990  -30.7750 C   0  0  0  0  0  0  0  0  0  0  0  0
   -1.0824   21.0510  -30.8810 H   0  0  0  0  0  0  0  0  0  0  0  0
  1  2  1  0
  2  3  1  0
  3  4  1  0
  4  5  2  0
  5  6  1  0
  6  7  1  0
  6  8  1  0
  6  9  1  0
  9 10  2  0
 10 11  1  0
 10 12  1  0
 12 13  1  0
 12 14  2  0
 14 15  1  0
 14 16  1  0
 16 17  1  0
 16 18  2  0
 18 19  1  0
  4 20  1  0
 20 21  2  0
 21 22  1  0
 22 23  1  0
 23 24  2  0
 24 25  1  0
 24 26  1  0
 26 27  1  0
 26 28  2  0
 28 29  1  0
 28 30  1  0
 30 31  1  0
 30 32  2  0
 32 33  1  0
 22 34  1  0
 34 35  1  0
 34 36  1  0
 34 37  1  0
 21 38  1  0
 38 39  1  0
 38  2  2  0
 18  9  1  0
 32 23  1  0
M  CHG  1   3  -1
M  END
>  <UniqueID>  (25) 
25

>  <SMILES>  (25) 
CN(c1ccccc1)c1cc[n-]/c(=N/Cc2ccccc2)n1

>  <Energy>  (25) 
46.57124068055811

>  <Genealogy>  (25) 
CN(c1ccccc1)c1cc[n-]c(=NCc2ccccc2)n1 (protonated)
CN(c1ccccc1)c1cc[n-]/c(=N/Cc2ccccc2)n1 (cis-trans isomerization)
CN(c1ccccc1)c1cc[n-]/c(=N/Cc2ccccc2)n1 (3D coordinates assigned)
CN(c1ccccc1)c1cc[n-]/c(=N/Cc2ccccc2)n1 (optimized conformer: 46.57124068055811 kcal/mol)

>  <smiles>  (25) 
CN(c1ccccc1)c1cc[nH]c(=NCc2ccccc2)n1

>  <score_type>  (25) 
oracle

>  <origin>  (25) 
adgpu

>  <m_score__min__energy>  (25) 
-9.1699999999999999

>  <m_primary>  (25) 
energy

$$$$
25:0
     RDKit          3D

 48 50  0  0  0  0  0  0  0  0999 V2000
   -6.8100   17.2040  -33.4950 C   0  0  0  0  0  0  0  0  0  0  0  0
   -7.3790   18.4960  -32.4110 S   0  0  0  0  0  0  0  0  0  0  0  0
   -6.4810   18.5400  -31.2080 O   0  0  0  0  0  0  0  0  0  0  0  0
   -8.7830   18.2180  -31.9510 O   0  0  0  0  0  0  0  0  0  0  0  0
   -7.3090   20.0300  -33.2200 N   0  0  0  0  0  0  0  0  0  0  0  0
   -6.8230   21.2490  -32.6270 C   0  0  0  0  0  0  0  0  0  0  0  0
   -5.4440   21.5140  -32.6500 C   0  0  0  0  0  0  0  0  0  0  0  0
   -4.9330   22.6820  -32.0770 C   0  0  0  0  0  0  0  0  0  0  0  0
   -5.7900   23.6050  -31.4580 C   0  0  0  0  0  0  0  0  0  0  0  0
   -5.2380   24.8340  -30.8390 C   0  0  0  0  0  0  0  0  0  0  0  0
   -6.0140   25.7780  -30.5400 O   0  0  0  0  0  0  0  0  0  0  0  0
   -3.8440   24.9640  -30.5230 N   0  0  0  0  0  0  0  0  0  0  0  0
   -3.1140   24.1610  -29.5850 C   0  0  0  0  0  0  0  0  0  0  0  0
   -2.0350   23.3950  -30.0410 C   0  0  0  0  0  0  0  0  0  0  0  0
   -1.2940   22.6170  -29.1480 C   0  0  0  0  0  0  0  0  0  0  0  0
   -1.6380   22.5810  -27.7900 C   0  0  0  0  0  0  0  0  0  0  0  0
   -0.6630   21.6350  -26.6680 S   0  0  0  0  0  0  0  0  0  0  0  0
    0.0970   20.6010  -27.4510 O   0  0  0  0  0  0  0  0  0  0  0  0
   -1.5520   20.9310  -25.6790 O   0  0  0  0  0  0  0  0  0  0  0  0
    0.4600   22.6870  -25.8330 N   0  0  0  0  0  0  0  0  0  0  0  0
    0.6630   23.9280  -26.5870 C   0  0  0  0  0  0  0  0  0  0  0  0
   -0.3210   24.9650  -26.0660 C   0  0  0  0  0  0  0  0  0  0  0  0
   -0.8040   24.4310  -24.7310 C   0  0  0  0  0  0  0  0  0  0  0  0
   -0.0910   23.1010  -24.5390 C   0  0  0  0  0  0  0  0  0  0  0  0
   -2.7370   23.3210  -27.3350 C   0  0  0  0  0  0  0  0  0  0  0  0
   -3.4780   24.1010  -28.2280 C   0  0  0  0  0  0  0  0  0  0  0  0
   -7.1710   23.3530  -31.4540 C   0  0  0  0  0  0  0  0  0  0  0  0
   -7.6830   22.1840  -32.0250 C   0  0  0  0  0  0  0  0  0  0  0  0
   -6.4382   16.3598  -32.8957 H   0  0  0  0  0  0  0  0  0  0  0  0
   -7.6420   16.8649  -34.1296 H   0  0  0  0  0  0  0  0  0  0  0  0
   -5.9981   17.5889  -34.1296 H   0  0  0  0  0  0  0  0  0  0  0  0
   -7.6490   20.0520  -34.2080 H   0  0  0  0  0  0  0  0  0  0  0  0
   -4.7592   20.7952  -33.1237 H   0  0  0  0  0  0  0  0  0  0  0  0
   -3.8514   22.8792  -32.1115 H   0  0  0  0  0  0  0  0  0  0  0  0
   -1.7690   23.4056  -31.1083 H   0  0  0  0  0  0  0  0  0  0  0  0
   -0.4375   22.0306  -29.5121 H   0  0  0  0  0  0  0  0  0  0  0  0
    1.6930   24.2867  -26.4441 H   0  0  0  0  0  0  0  0  0  0  0  0
    0.4985   23.7526  -27.6604 H   0  0  0  0  0  0  0  0  0  0  0  0
    0.1782   25.9362  -25.9336 H   0  0  0  0  0  0  0  0  0  0  0  0
   -1.1537   25.1254  -26.7666 H   0  0  0  0  0  0  0  0  0  0  0  0
   -0.5414   25.1277  -23.9213 H   0  0  0  0  0  0  0  0  0  0  0  0
   -1.8974   24.3126  -24.7120 H   0  0  0  0  0  0  0  0  0  0  0  0
    0.7223   23.2165  -23.8075 H   0  0  0  0  0  0  0  0  0  0  0  0
   -0.7945   22.3427  -24.1649 H   0  0  0  0  0  0  0  0  0  0  0  0
   -3.0178   23.2883  -26.2720 H   0  0  0  0  0  0  0  0  0  0  0  0
   -4.3483   24.6694  -27.8680 H   0  0  0  0  0  0  0  0  0  0  0  0
   -7.8566   24.0820  -30.9974 H   0  0  0  0  0  0  0  0  0  0  0  0
   -8.7663   21.9946  -32.0030 H   0  0  0  0  0  0  0  0  0  0  0  0
  1  2  1  0
  2  3  2  0
  2  4  2  0
  2  5  1  0
  5  6  1  0
  6  7  2  0
  7  8  1  0
  8  9  2  0
  9 10  1  0
 10 11  2  0
 10 12  1  0
 12 13  1  0
 13 14  2  0
 14 15  1  0
 15 16  2  0
 16 17  1  0
 17 18  2  0
 17 19  2  0
 17 20  1  0
 20 21  1  0
 21 22  1  0
 22 23  1  0
 23 24  1  0
 16 25  1  0
 25 26  2  0
  9 27  1  0
 27 28  2  0
 28  6  1  0
 26 13  1  0
 24 20  1  0
  1 29  1  0
  1 30  1  0
  1 31  1  0
  5 32  1  0
  7 33  1  0
  8 34  1  0
 14 35  1  0
 15 36  1  0
 21 37  1  0
 21 38  1  0
 22 39  1  0
 22 40  1  0
 23 41  1  0
 23 42  1  0
 24 43  1  0
 24 44  1  0
 25 45  1  0
 26 46  1  0
 27 47  1  0
 28 48  1  0
M  CHG  1  12  -1
M  END
>  <UniqueID>  (26) 
26

>  <SMILES>  (26) 
CS(=O)(=O)Nc1ccc(C(=O)[N-]c2ccc(S(=O)(=O)N3CCCC3)cc2)cc1

>  <Energy>  (26) 
55.389712912678554

>  <Genealogy>  (26) 
CS(=O)(=O)Nc1ccc(C(=O)[N-]c2ccc(S(=O)(=O)N3CCCC3)cc2)cc1 (protonated)
CS(=O)(=O)Nc1ccc(C(=O)[N-]c2ccc(S(=O)(=O)N3CCCC3)cc2)cc1 (3D coordinates assigned)
CS(=O)(=O)Nc1ccc(C(=O)[N-]c2ccc(S(=O)(=O)N3CCCC3)cc2)cc1 (nonaromatic ring conformer: 55.389712912678554 kcal/mol)

>  <smiles>  (26) 
CS(=O)(=O)Nc1ccc(C(=O)Nc2ccc(S(=O)(=O)N3CCCC3)cc2)cc1

>  <score_type>  (26) 
oracle

>  <origin>  (26) 
adgpu

>  <m_score__min__energy>  (26) 
-11.52

>  <m_primary>  (26) 
energy

$$$$
26:0
     RDKit          3D

 49 51  0  0  0  0  0  0  0  0999 V2000
   -3.0860   18.5760  -25.7340 C   0  0  0  0  0  0  0  0  0  0  0  0
   -3.4560   19.4340  -26.9400 C   0  0  0  0  0  0  0  0  0  0  0  0
   -2.2370   20.0550  -27.5690 C   0  0  0  0  0  0  0  0  0  0  0  0
   -1.3560   19.3090  -28.0770 O   0  0  0  0  0  0  0  0  0  0  0  0
   -2.0420   21.4770  -27.5770 N   0  0  0  0  0  0  0  0  0  0  0  0
   -1.0900   22.1670  -26.7070 C   0  0  0  0  0  0  0  0  0  0  0  0
   -1.2250   23.6740  -27.0330 C   0  0  0  0  0  0  0  0  0  0  0  0
   -2.1940   23.6940  -28.1640 C   0  0  0  0  0  0  0  0  0  0  0  0
   -2.5970   24.7910  -28.9210 C   0  0  0  0  0  0  0  0  0  0  0  0
   -3.4660   24.5820  -30.0050 C   0  0  0  0  0  0  0  0  0  0  0  0
   -3.8700   25.6740  -30.7650 O   0  0  0  0  0  0  0  0  0  0  0  0
   -3.9120   23.2760  -30.3280 C   0  0  0  0  0  0  0  0  0  0  0  0
   -4.7740   23.0770  -31.4670 N   0  0  0  0  0  0  0  0  0  0  0  0
   -6.4510   22.6380  -31.3530 S   0  0  0  0  0  0  0  0  0  0  0  0
   -6.8650   22.6660  -29.9090 O   0  0  0  0  0  0  0  0  0  0  0  0
   -7.2760   23.6320  -32.1200 O   0  0  0  0  0  0  0  0  0  0  0  0
   -6.7130   21.0360  -32.0390 C   0  0  0  0  0  0  0  0  0  0  0  0
   -7.7980   20.2600  -31.6210 C   0  0  0  0  0  0  0  0  0  0  0  0
   -7.9790   18.9720  -32.1300 C   0  0  0  0  0  0  0  0  0  0  0  0
   -7.0680   18.4420  -33.0640 C   0  0  0  0  0  0  0  0  0  0  0  0
   -7.2110   17.1490  -33.5920 O   0  0  0  0  0  0  0  0  0  0  0  0
   -6.2190   16.1310  -33.5090 C   0  0  0  0  0  0  0  0  0  0  0  0
   -5.9780   19.2190  -33.4880 C   0  0  0  0  0  0  0  0  0  0  0  0
   -5.0820   18.6620  -34.4140 O   0  0  0  0  0  0  0  0  0  0  0  0
   -3.6880   18.4850  -34.1800 C   0  0  0  0  0  0  0  0  0  0  0  0
   -5.8100   20.5200  -32.9750 C   0  0  0  0  0  0  0  0  0  0  0  0
   -3.4830   22.1880  -29.5310 C   0  0  0  0  0  0  0  0  0  0  0  0
   -2.6380   22.4320  -28.4440 C   0  0  0  0  0  0  0  0  0  0  0  0
   -3.3217   19.1226  -24.8090 H   0  0  0  0  0  0  0  0  0  0  0  0
   -3.6595   17.6377  -25.7617 H   0  0  0  0  0  0  0  0  0  0  0  0
   -2.0100   18.3490  -25.7617 H   0  0  0  0  0  0  0  0  0  0  0  0
   -3.9614   18.8032  -27.6861 H   0  0  0  0  0  0  0  0  0  0  0  0
   -4.1186   20.2428  -26.5984 H   0  0  0  0  0  0  0  0  0  0  0  0
   -1.3344   21.9815  -25.6507 H   0  0  0  0  0  0  0  0  0  0  0  0
   -0.0627   21.8104  -26.8727 H   0  0  0  0  0  0  0  0  0  0  0  0
   -1.6164   24.2307  -26.1688 H   0  0  0  0  0  0  0  0  0  0  0  0
   -0.2641   24.1488  -27.2807 H   0  0  0  0  0  0  0  0  0  0  0  0
   -2.2416   25.8025  -28.6749 H   0  0  0  0  0  0  0  0  0  0  0  0
   -4.3840   23.1750  -32.4300 H   0  0  0  0  0  0  0  0  0  0  0  0
   -8.5118   20.6652  -30.8886 H   0  0  0  0  0  0  0  0  0  0  0  0
   -8.8374   18.3686  -31.7997 H   0  0  0  0  0  0  0  0  0  0  0  0
   -6.0057   15.9121  -32.4523 H   0  0  0  0  0  0  0  0  0  0  0  0
   -6.5857   15.2204  -34.0053 H   0  0  0  0  0  0  0  0  0  0  0  0
   -5.2992   16.4740  -34.0053 H   0  0  0  0  0  0  0  0  0  0  0  0
   -3.4982   18.4609  -33.0968 H   0  0  0  0  0  0  0  0  0  0  0  0
   -3.3578   17.5377  -34.6313 H   0  0  0  0  0  0  0  0  0  0  0  0
   -3.1316   19.3197  -34.6313 H   0  0  0  0  0  0  0  0  0  0  0  0
   -4.9627   21.1349  -33.3127 H   0  0  0  0  0  0  0  0  0  0  0  0
   -3.8100   21.1638  -29.7636 H   0  0  0  0  0  0  0  0  0  0  0  0
  1  2  1  0
  2  3  1  0
  3  4  2  0
  3  5  1  0
  5  6  1  0
  6  7  1  0
  7  8  1  0
  8  9  2  0
  9 10  1  0
 10 11  1  0
 10 12  2  0
 12 13  1  0
 13 14  1  0
 14 15  2  0
 14 16  2  0
 14 17  1  0
 17 18  2  0
 18 19  1  0
 19 20  2  0
 20 21  1  0
 21 22  1  0
 20 23  1  0
 23 24  1  0
 24 25  1  0
 23 26  2  0
 12 27  1  0
 27 28  2  0
 28  5  1  0
 28  8  1  0
 26 17  1  0
  1 29  1  0
  1 30  1  0
  1 31  1  0
  2 32  1  0
  2 33  1  0
  6 34  1  0
  6 35  1  0
  7 36  1  0
  7 37  1  0
  9 38  1  0
 13 39  1  0
 18 40  1  0
 19 41  1  0
 22 42  1  0
 22 43  1  0
 22 44  1  0
 25 45  1  0
 25 46  1  0
 25 47  1  0
 26 48  1  0
 27 49  1  0
M  CHG  1  11  -1
M  END
>  <UniqueID>  (27) 
27

>  <SMILES>  (27) 
CCC(=O)N1CCc2cc([O-])c(NS(=O)(=O)c3ccc(OC)c(OC)c3)cc21

>  <Energy>  (27) 
66.26796395007402

>  <Genealogy>  (27) 
CCC(=O)N1CCc2cc([O-])c(NS(=O)(=O)c3ccc(OC)c(OC)c3)cc21 (protonated)
CCC(=O)N1CCc2cc([O-])c(NS(=O)(=O)c3ccc(OC)c(OC)c3)cc21 (3D coordinates assigned)
CCC(=O)N1CCc2cc([O-])c(NS(=O)(=O)c3ccc(OC)c(OC)c3)cc21 (nonaromatic ring conformer: 66.26796395007402 kcal/mol)

>  <smiles>  (27) 
CCC(=O)N1CCc2cc(O)c(NS(=O)(=O)c3ccc(OC)c(OC)c3)cc21

>  <score_type>  (27) 
oracle

>  <origin>  (27) 
adgpu

>  <m_score__min__energy>  (27) 
-11.76

>  <m_primary>  (27) 
energy

$$$$
27:0
     RDKit          3D

 56 59  0  0  0  0  0  0  0  0999 V2000
   -2.5970   21.9500  -32.1630 O   0  0  0  0  0  0  0  0  0  0  0  0
   -2.7730   22.6260  -31.1150 C   0  0  0  0  0  0  0  0  0  0  0  0
   -1.6820   22.7640  -30.1930 N   0  0  0  0  0  0  0  0  0  0  0  0
   -1.5780   22.1380  -28.9060 C   0  0  0  0  0  0  0  0  0  0  0  0
   -2.0760   20.8450  -28.6700 C   0  0  0  0  0  0  0  0  0  0  0  0
   -1.9720   20.2730  -27.3990 C   0  0  0  0  0  0  0  0  0  0  0  0
   -1.3820   20.9880  -26.3540 C   0  0  0  0  0  0  0  0  0  0  0  0
   -0.8960   22.2830  -26.5750 C   0  0  0  0  0  0  0  0  0  0  0  0
   -0.1840   23.1950  -25.2470 S   0  0  0  0  0  0  0  0  0  0  0  0
    1.2390   23.5490  -25.5800 O   0  0  0  0  0  0  0  0  0  0  0  0
   -0.1860   22.3430  -24.0080 O   0  0  0  0  0  0  0  0  0  0  0  0
   -1.1270   24.6360  -24.9650 N   0  0  0  0  0  0  0  0  0  0  0  0
   -1.2780   25.4220  -26.1880 C   0  0  0  0  0  0  0  0  0  0  0  0
   -1.4670   26.8670  -25.7550 C   0  0  0  0  0  0  0  0  0  0  0  0
   -0.9380   26.9340  -24.3310 C   0  0  0  0  0  0  0  0  0  0  0  0
   -0.4670   25.5240  -24.0080 C   0  0  0  0  0  0  0  0  0  0  0  0
   -1.0090   22.8590  -27.8480 C   0  0  0  0  0  0  0  0  0  0  0  0
   -4.1030   23.2220  -30.8540 C   0  0  0  0  0  0  0  0  0  0  0  0
   -5.2580   22.4590  -31.0950 C   0  0  0  0  0  0  0  0  0  0  0  0
   -6.5310   23.0030  -30.8770 C   0  0  0  0  0  0  0  0  0  0  0  0
   -7.9770   22.0400  -31.1720 S   0  0  0  0  0  0  0  0  0  0  0  0
   -8.8110   22.0200  -29.9210 O   0  0  0  0  0  0  0  0  0  0  0  0
   -8.7870   22.6630  -32.2760 O   0  0  0  0  0  0  0  0  0  0  0  0
   -7.5230   20.4100  -31.6010 N   0  0  0  0  0  0  0  0  0  0  0  0
   -6.8490   20.4020  -32.9110 C   0  0  0  0  0  0  0  0  0  0  0  0
   -6.7170   18.9650  -33.4550 C   0  0  0  0  0  0  0  0  0  0  0  0
   -6.9690   18.0150  -32.4390 O   0  0  0  0  0  0  0  0  0  0  0  0
   -8.3200   18.1100  -32.0190 C   0  0  0  0  0  0  0  0  0  0  0  0
   -8.7160   19.5520  -31.6340 C   0  0  0  0  0  0  0  0  0  0  0  0
   -6.6510   24.3110  -30.3910 C   0  0  0  0  0  0  0  0  0  0  0  0
   -5.5100   25.0700  -30.1300 C   0  0  0  0  0  0  0  0  0  0  0  0
   -4.2380   24.5310  -30.3500 C   0  0  0  0  0  0  0  0  0  0  0  0
   -3.1180   25.2960  -30.0390 O   0  0  0  0  0  0  0  0  0  0  0  0
   -2.5489   20.2817  -29.4879 H   0  0  0  0  0  0  0  0  0  0  0  0
   -2.3556   19.2575  -27.2212 H   0  0  0  0  0  0  0  0  0  0  0  0
   -1.2989   20.5333  -25.3558 H   0  0  0  0  0  0  0  0  0  0  0  0
   -0.3779   25.3278  -26.8133 H   0  0  0  0  0  0  0  0  0  0  0  0
   -2.1344   25.0706  -26.7822 H   0  0  0  0  0  0  0  0  0  0  0  0
   -0.8969   27.5427  -26.4096 H   0  0  0  0  0  0  0  0  0  0  0  0
   -2.5205   27.1778  -25.8152 H   0  0  0  0  0  0  0  0  0  0  0  0
   -0.1006   27.6441  -24.2646 H   0  0  0  0  0  0  0  0  0  0  0  0
   -1.7071   27.2801  -23.6248 H   0  0  0  0  0  0  0  0  0  0  0  0
    0.6255   25.4543  -24.1159 H   0  0  0  0  0  0  0  0  0  0  0  0
   -0.7164   25.2488  -22.9726 H   0  0  0  0  0  0  0  0  0  0  0  0
   -0.6484   23.8843  -28.0175 H   0  0  0  0  0  0  0  0  0  0  0  0
   -5.1621   21.4251  -31.4581 H   0  0  0  0  0  0  0  0  0  0  0  0
   -7.4357   21.0032  -33.6212 H   0  0  0  0  0  0  0  0  0  0  0  0
   -5.8409   20.8250  -32.7894 H   0  0  0  0  0  0  0  0  0  0  0  0
   -7.4412   18.8208  -34.2703 H   0  0  0  0  0  0  0  0  0  0  0  0
   -5.6902   18.8218  -33.8227 H   0  0  0  0  0  0  0  0  0  0  0  0
   -8.9698   17.7723  -32.8398 H   0  0  0  0  0  0  0  0  0  0  0  0
   -8.4389   17.4793  -31.1256 H   0  0  0  0  0  0  0  0  0  0  0  0
   -9.4267   19.9449  -32.3760 H   0  0  0  0  0  0  0  0  0  0  0  0
   -9.1824   19.5442  -30.6378 H   0  0  0  0  0  0  0  0  0  0  0  0
   -7.6479   24.7411  -30.2146 H   0  0  0  0  0  0  0  0  0  0  0  0
   -5.6110   26.0971  -29.7494 H   0  0  0  0  0  0  0  0  0  0  0  0
  1  2  2  0
  2  3  1  0
  3  4  1  0
  4  5  2  0
  5  6  1  0
  6  7  2  0
  7  8  1  0
  8  9  1  0
  9 10  2  0
  9 11  2  0
  9 12  1  0
 12 13  1  0
 13 14  1  0
 14 15  1  0
 15 16  1  0
  8 17  2  0
  2 18  1  0
 18 19  2  0
 19 20  1  0
 20 21  1  0
 21 22  2  0
 21 23  2  0
 21 24  1  0
 24 25  1  0
 25 26  1  0
 26 27  1  0
 27 28  1  0
 28 29  1  0
 20 30  2  0
 30 31  1  0
 31 32  2  0
 32 33  1  0
 17  4  1  0
 32 18  1  0
 16 12  1  0
 29 24  1  0
  5 34  1  0
  6 35  1  0
  7 36  1  0
 13 37  1  0
 13 38  1  0
 14 39  1  0
 14 40  1  0
 15 41  1  0
 15 42  1  0
 16 43  1  0
 16 44  1  0
 17 45  1  0
 19 46  1  0
 25 47  1  0
 25 48  1  0
 26 49  1  0
 26 50  1  0
 28 51  1  0
 28 52  1  0
 29 53  1  0
 29 54  1  0
 30 55  1  0
 31 56  1  0
M  CHG  2   3  -1  33  -1
M  END
>  <UniqueID>  (28) 
28

>  <SMILES>  (28) 
O=C([N-]c1cccc(S(=O)(=O)N2CCCC2)c1)c1cc(S(=O)(=O)N2CCOCC2)ccc1[O-]

>  <Energy>  (28) 
74.0636409790779

>  <Genealogy>  (28) 
O=C([N-]c1cccc(S(=O)(=O)N2CCCC2)c1)c1cc(S(=O)(=O)N2CCOCC2)ccc1[O-] (protonated)
O=C([N-]c1cccc(S(=O)(=O)N2CCCC2)c1)c1cc(S(=O)(=O)N2CCOCC2)ccc1[O-] (3D coordinates assigned)
O=C([N-]c1cccc(S(=O)(=O)N2CCCC2)c1)c1cc(S(=O)(=O)N2CCOCC2)ccc1[O-] (nonaromatic ring conformer: 74.0636409790779 kcal/mol)

>  <smiles>  (28) 
O=C(Nc1cccc(S(=O)(=O)N2CCCC2)c1)c1cc(S(=O)(=O)N2CCOCC2)ccc1O

>  <score_type>  (28) 
oracle

>  <origin>  (28) 
adgpu

>  <m_score__min__energy>  (28) 
-15.119999999999999

>  <m_primary>  (28) 
energy

$$$$
28:0
     RDKit          3D

 41 43  0  0  0  0  0  0  0  0999 V2000
   -1.0710   21.6450  -29.1740 O   0  0  0  0  0  0  0  0  0  0  0  0
   -1.5110   22.8250  -29.2090 C   0  0  0  0  0  0  0  0  0  0  0  0
   -2.0870   23.3110  -30.4280 N   0  0  0  0  0  0  0  0  0  0  0  0
   -3.4730   23.1820  -30.7700 C   0  0  0  0  0  0  0  0  0  0  0  0
   -3.9540   21.9240  -31.1520 C   0  0  0  0  0  0  0  0  0  0  0  0
   -5.2620   21.7780  -31.6310 C   0  0  0  0  0  0  0  0  0  0  0  0
   -5.8180   20.2150  -32.2390 S   0  0  0  0  0  0  0  0  0  0  0  0
   -5.6500   20.1820  -33.7320 O   0  0  0  0  0  0  0  0  0  0  0  0
   -4.9640   19.1260  -31.6500 O   0  0  0  0  0  0  0  0  0  0  0  0
   -7.4920   19.8990  -31.8430 N   0  0  0  0  0  0  0  0  0  0  0  0
   -8.3700   20.0410  -33.0020 C   0  0  0  0  0  0  0  0  0  0  0  0
   -9.5860   19.1700  -32.7320 C   0  0  0  0  0  0  0  0  0  0  0  0
   -9.1380   18.1710  -31.6770 C   0  0  0  0  0  0  0  0  0  0  0  0
   -7.6940   18.5330  -31.3630 C   0  0  0  0  0  0  0  0  0  0  0  0
   -6.1150   22.8890  -31.6560 C   0  0  0  0  0  0  0  0  0  0  0  0
   -5.6580   24.1370  -31.2290 C   0  0  0  0  0  0  0  0  0  0  0  0
   -4.3420   24.2950  -30.7810 C   0  0  0  0  0  0  0  0  0  0  0  0
   -3.9350   25.5540  -30.3390 O   0  0  0  0  0  0  0  0  0  0  0  0
   -1.4030   23.6800  -28.0020 C   0  0  0  0  0  0  0  0  0  0  0  0
   -1.2670   23.0920  -26.7310 C   0  0  0  0  0  0  0  0  0  0  0  0
   -1.1550   23.8890  -25.5890 C   0  0  0  0  0  0  0  0  0  0  0  0
   -1.1910   25.2800  -25.7020 C   0  0  0  0  0  0  0  0  0  0  0  0
   -1.3410   25.8760  -26.9560 C   0  0  0  0  0  0  0  0  0  0  0  0
   -1.4480   25.0850  -28.1050 C   0  0  0  0  0  0  0  0  0  0  0  0
   -1.5830   25.7030  -29.3440 O   0  0  0  0  0  0  0  0  0  0  0  0
   -3.2995   21.0432  -31.0753 H   0  0  0  0  0  0  0  0  0  0  0  0
   -8.6740   21.0913  -33.1219 H   0  0  0  0  0  0  0  0  0  0  0  0
   -7.8596   19.7355  -33.9273 H   0  0  0  0  0  0  0  0  0  0  0  0
  -10.4206   19.7796  -32.3555 H   0  0  0  0  0  0  0  0  0  0  0  0
   -9.9431   18.6702  -33.6445 H   0  0  0  0  0  0  0  0  0  0  0  0
   -9.7614   18.2587  -30.7749 H   0  0  0  0  0  0  0  0  0  0  0  0
   -9.2314   17.1337  -32.0309 H   0  0  0  0  0  0  0  0  0  0  0  0
   -7.5171   18.4817  -30.2785 H   0  0  0  0  0  0  0  0  0  0  0  0
   -6.9956   17.8349  -31.8477 H   0  0  0  0  0  0  0  0  0  0  0  0
   -7.1493   22.7775  -32.0136 H   0  0  0  0  0  0  0  0  0  0  0  0
   -6.3372   25.0021  -31.2449 H   0  0  0  0  0  0  0  0  0  0  0  0
   -3.1220   25.6910  -29.7520 H   0  0  0  0  0  0  0  0  0  0  0  0
   -1.2487   21.9963  -26.6357 H   0  0  0  0  0  0  0  0  0  0  0  0
   -1.0384   23.4204  -24.6007 H   0  0  0  0  0  0  0  0  0  0  0  0
   -1.1012   25.9070  -24.8027 H   0  0  0  0  0  0  0  0  0  0  0  0
   -1.3752   26.9722  -27.0407 H   0  0  0  0  0  0  0  0  0  0  0  0
  1  2  2  0
  2  3  1  0
  3  4  1  0
  4  5  2  0
  5  6  1  0
  6  7  1  0
  7  8  2  0
  7  9  2  0
  7 10  1  0
 10 11  1  0
 11 12  1  0
 12 13  1  0
 13 14  1  0
  6 15  2  0
 15 16  1  0
 16 17  2  0
 17 18  1  0
  2 19  1  0
 19 20  2  0
 20 21  1  0
 21 22  2  0
 22 23  1  0
 23 24  2  0
 24 25  1  0
 17  4  1  0
 24 19  1  0
 14 10  1  0
  5 26  1  0
 11 27  1  0
 11 28  1  0
 12 29  1  0
 12 30  1  0
 13 31  1  0
 13 32  1  0
 14 33  1  0
 14 34  1  0
 15 35  1  0
 16 36  1  0
 18 37  1  0
 20 38  1  0
 21 39  1  0
 22 40  1  0
 23 41  1  0
M  CHG  2   3  -1  25  -1
M  END
>  <UniqueID>  (29) 
29

>  <SMILES>  (29) 
O=C([N-]c1cc(S(=O)(=O)N2CCCC2)ccc1O)c1ccccc1[O-]

>  <Energy>  (29) 
53.457927264624495

>  <Genealogy>  (29) 
O=C([N-]c1cc(S(=O)(=O)N2CCCC2)ccc1O)c1ccccc1[O-] (protonated)
O=C([N-]c1cc(S(=O)(=O)N2CCCC2)ccc1O)c1ccccc1[O-] (3D coordinates assigned)
O=C([N-]c1cc(S(=O)(=O)N2CCCC2)ccc1O)c1ccccc1[O-] (nonaromatic ring conformer: 53.457927264624495 kcal/mol)

>  <smiles>  (29) 
O=C(Nc1cc(S(=O)(=O)N2CCCC2)ccc1O)c1ccccc1O

>  <score_type>  (29) 
oracle

>  <origin>  (29) 
adgpu

>  <m_score__min__energy>  (29) 
-12.83

>  <m_primary>  (29) 
energy

$$$$
29:0
     RDKit          3D

 61 64  0  0  0  0  0  0  0  0999 V2000
    3.2480   26.0760  -27.0810 C   0  0  0  0  0  0  0  0  0  0  0  0
    1.9260   25.5630  -27.4230 N   0  0  0  0  0  0  0  0  0  0  0  0
    1.6120   24.1650  -27.3200 C   0  0  0  0  0  0  0  0  0  0  0  0
    2.5330   23.3320  -27.1020 O   0  0  0  0  0  0  0  0  0  0  0  0
    0.2210   23.6790  -27.5010 C   0  0  0  0  0  0  0  0  0  0  0  0
   -0.1460   22.4370  -26.9670 C   0  0  0  0  0  0  0  0  0  0  0  0
   -1.4140   21.9410  -27.1100 N   0  0  0  0  0  0  0  0  0  0  0  0
   -1.7130   20.6260  -26.5170 C   0  0  0  0  0  0  0  0  0  0  0  0
   -2.3730   22.6600  -27.7910 C   0  0  0  0  0  0  0  0  0  0  0  0
   -3.6870   22.1660  -27.9700 C   0  0  0  0  0  0  0  0  0  0  0  0
   -4.6480   22.9150  -28.6480 C   0  0  0  0  0  0  0  0  0  0  0  0
   -4.3330   24.1760  -29.1590 C   0  0  0  0  0  0  0  0  0  0  0  0
   -5.5680   25.1110  -29.9990 S   0  0  0  0  0  0  0  0  0  0  0  0
   -4.9900   26.4200  -30.4670 O   0  0  0  0  0  0  0  0  0  0  0  0
   -6.6870   25.4000  -29.0370 O   0  0  0  0  0  0  0  0  0  0  0  0
   -6.1770   24.2090  -31.3660 N   0  0  0  0  0  0  0  0  0  0  0  0
   -7.4530   23.5270  -31.0290 C   0  0  0  0  0  0  0  0  0  0  0  0
   -7.2850   22.0300  -30.7390 C   0  0  0  0  0  0  0  0  0  0  0  0
   -6.5970   21.3800  -31.8580 N   0  0  0  0  0  0  0  0  0  0  0  0
   -6.8090   19.9830  -32.1190 C   0  0  0  0  0  0  0  0  0  0  0  0
   -8.1200   19.4850  -32.2980 C   0  0  0  0  0  0  0  0  0  0  0  0
   -9.3170   20.3970  -32.2580 C   0  0  0  0  0  0  0  0  0  0  0  0
   -8.3090   18.1210  -32.5740 C   0  0  0  0  0  0  0  0  0  0  0  0
   -7.2200   17.2520  -32.6360 C   0  0  0  0  0  0  0  0  0  0  0  0
   -5.9260   17.7360  -32.4410 C   0  0  0  0  0  0  0  0  0  0  0  0
   -5.7040   19.1010  -32.2010 C   0  0  0  0  0  0  0  0  0  0  0  0
   -4.2960   19.5880  -31.9840 C   0  0  0  0  0  0  0  0  0  0  0  0
   -5.6770   22.1510  -32.6970 C   0  0  0  0  0  0  0  0  0  0  0  0
   -5.1120   23.3260  -31.8930 C   0  0  0  0  0  0  0  0  0  0  0  0
   -3.0380   24.6810  -29.0040 C   0  0  0  0  0  0  0  0  0  0  0  0
   -2.0520   23.9350  -28.3280 C   0  0  0  0  0  0  0  0  0  0  0  0
   -0.7500   24.4430  -28.1680 C   0  0  0  0  0  0  0  0  0  0  0  0
   -0.4620   25.5940  -28.6010 O   0  0  0  0  0  0  0  0  0  0  0  0
    3.3536   26.1170  -25.9868 H   0  0  0  0  0  0  0  0  0  0  0  0
    4.0186   25.4116  -27.4991 H   0  0  0  0  0  0  0  0  0  0  0  0
    3.3687   27.0862  -27.4991 H   0  0  0  0  0  0  0  0  0  0  0  0
    1.2140   26.2310  -27.7970 H   0  0  0  0  0  0  0  0  0  0  0  0
    0.6029   21.8459  -26.4195 H   0  0  0  0  0  0  0  0  0  0  0  0
   -1.6949   20.7058  -25.4200 H   0  0  0  0  0  0  0  0  0  0  0  0
   -2.7095   20.2943  -26.8441 H   0  0  0  0  0  0  0  0  0  0  0  0
   -0.9579   19.8960  -26.8441 H   0  0  0  0  0  0  0  0  0  0  0  0
   -3.9540   21.1773  -27.5686 H   0  0  0  0  0  0  0  0  0  0  0  0
   -5.6618   22.5096  -28.7814 H   0  0  0  0  0  0  0  0  0  0  0  0
   -7.8813   24.0090  -30.1378 H   0  0  0  0  0  0  0  0  0  0  0  0
   -8.1107   23.6163  -31.9062 H   0  0  0  0  0  0  0  0  0  0  0  0
   -6.6923   21.9004  -29.8214 H   0  0  0  0  0  0  0  0  0  0  0  0
   -8.2768   21.5726  -30.6083 H   0  0  0  0  0  0  0  0  0  0  0  0
   -9.5866   20.6024  -31.2115 H   0  0  0  0  0  0  0  0  0  0  0  0
   -9.0752   21.3419  -32.7666 H   0  0  0  0  0  0  0  0  0  0  0  0
  -10.1638   19.9131  -32.7666 H   0  0  0  0  0  0  0  0  0  0  0  0
   -9.3250   17.7347  -32.7428 H   0  0  0  0  0  0  0  0  0  0  0  0
   -7.3815   16.1830  -32.8390 H   0  0  0  0  0  0  0  0  0  0  0  0
   -5.0730   17.0423  -32.4756 H   0  0  0  0  0  0  0  0  0  0  0  0
   -4.0944   19.6577  -30.9049 H   0  0  0  0  0  0  0  0  0  0  0  0
   -3.5889   18.8822  -32.4443 H   0  0  0  0  0  0  0  0  0  0  0  0
   -4.1760   20.5798  -32.4443 H   0  0  0  0  0  0  0  0  0  0  0  0
   -4.8519   21.5028  -33.0272 H   0  0  0  0  0  0  0  0  0  0  0  0
   -6.2172   22.5348  -33.5750 H   0  0  0  0  0  0  0  0  0  0  0  0
   -4.5307   22.9293  -31.0476 H   0  0  0  0  0  0  0  0  0  0  0  0
   -4.4820   23.9240  -32.5679 H   0  0  0  0  0  0  0  0  0  0  0  0
   -2.7867   25.6704  -29.4139 H   0  0  0  0  0  0  0  0  0  0  0  0
  1  2  1  0
  2  3  1  0
  3  4  2  0
  3  5  1  0
  5  6  2  0
  6  7  1  0
  7  8  1  0
  7  9  1  0
  9 10  2  0
 10 11  1  0
 11 12  2  0
 12 13  1  0
 13 14  2  0
 13 15  2  0
 13 16  1  0
 16 17  1  0
 17 18  1  0
 18 19  1  0
 19 20  1  0
 20 21  2  0
 21 22  1  0
 21 23  1  0
 23 24  2  0
 24 25  1  0
 25 26  2  0
 26 27  1  0
 19 28  1  0
 28 29  1  0
 12 30  1  0
 30 31  2  0
 31 32  1  0
 32 33  2  0
 32  5  1  0
 31  9  1  0
 29 16  1  0
 26 20  1  0
  1 34  1  0
  1 35  1  0
  1 36  1  0
  2 37  1  0
  6 38  1  0
  8 39  1  0
  8 40  1  0
  8 41  1  0
 10 42  1  0
 11 43  1  0
 17 44  1  0
 17 45  1  0
 18 46  1  0
 18 47  1  0
 22 48  1  0
 22 49  1  0
 22 50  1  0
 23 51  1  0
 24 52  1  0
 25 53  1  0
 27 54  1  0
 27 55  1  0
 27 56  1  0
 28 57  1  0
 28 58  1  0
 29 59  1  0
 29 60  1  0
 30 61  1  0
M  END
>  <UniqueID>  (30) 
30

>  <SMILES>  (30) 
CNC(=O)c1cn(C)c2ccc(S(=O)(=O)N3CCN(c4c(C)cccc4C)CC3)cc2c1=O

>  <Energy>  (30) 
84.88153872682061

>  <Genealogy>  (30) 
CNC(=O)c1cn(C)c2ccc(S(=O)(=O)N3CCN(c4c(C)cccc4C)CC3)cc2c1=O (3D coordinates assigned)
CNC(=O)c1cn(C)c2ccc(S(=O)(=O)N3CCN(c4c(C)cccc4C)CC3)cc2c1=O (nonaromatic ring conformer: 84.88153872682061 kcal/mol)

>  <smiles>  (30) 
CNC(=O)c1cn(C)c2ccc(S(=O)(=O)N3CCN(c4c(C)cccc4C)CC3)cc2c1=O

>  <score_type>  (30) 
oracle

>  <origin>  (30) 
adgpu

>  <m_score__min__energy>  (30) 
-10.33

>  <m_primary>  (30) 
energy

$$$$
30:0
     RDKit          3D

 58 61  0  0  0  0  0  0  0  0999 V2000
   -3.4850   21.9920  -33.4210 O   0  0  0  0  0  0  0  0  0  0  0  0
   -2.4560   21.4980  -32.9160 N   0  0  0  0  0  0  0  0  0  0  0  0
   -2.0170   21.9920  -31.7090 O   0  0  0  0  0  0  0  0  0  0  0  0
   -1.7640   20.4040  -33.5530 C   0  0  0  0  0  0  0  0  0  0  0  0
   -2.2260   19.0880  -33.3670 C   0  0  0  0  0  0  0  0  0  0  0  0
   -1.5800   18.0010  -33.9760 C   0  0  0  0  0  0  0  0  0  0  0  0
   -2.0760   16.5850  -33.7660 C   0  0  0  0  0  0  0  0  0  0  0  0
   -3.3320   16.2810  -34.4890 N   0  0  0  0  0  0  0  0  0  0  0  0
   -3.8450   17.3730  -35.3520 C   0  0  0  0  0  0  0  0  0  0  0  0
   -5.3440   17.6260  -35.1760 C   0  0  0  0  0  0  0  0  0  0  0  0
   -5.6760   17.5920  -33.7510 N   0  0  0  0  0  0  0  0  0  0  0  0
   -6.2460   18.7360  -33.0850 C   0  0  0  0  0  0  0  0  0  0  0  0
   -7.2780   18.5760  -32.1450 C   0  0  0  0  0  0  0  0  0  0  0  0
   -7.8390   19.6880  -31.5130 C   0  0  0  0  0  0  0  0  0  0  0  0
   -7.3790   20.9780  -31.8120 C   0  0  0  0  0  0  0  0  0  0  0  0
   -8.0800   22.3840  -31.0050 S   0  0  0  0  0  0  0  0  0  0  0  0
   -8.7030   23.2850  -32.0350 O   0  0  0  0  0  0  0  0  0  0  0  0
   -9.1640   21.9270  -30.0700 O   0  0  0  0  0  0  0  0  0  0  0  0
   -6.8800   23.2770  -30.1000 N   0  0  0  0  0  0  0  0  0  0  0  0
   -5.5430   22.6520  -30.1970 C   0  0  0  0  0  0  0  0  0  0  0  0
   -4.6020   23.4440  -31.1240 C   0  0  0  0  0  0  0  0  0  0  0  0
   -4.4100   24.7880  -30.7070 O   0  0  0  0  0  0  0  0  0  0  0  0
   -5.5620   25.3720  -30.1060 C   0  0  0  0  0  0  0  0  0  0  0  0
   -6.8860   24.6970  -30.4990 C   0  0  0  0  0  0  0  0  0  0  0  0
   -6.3510   21.1420  -32.7510 C   0  0  0  0  0  0  0  0  0  0  0  0
   -5.7950   20.0310  -33.3890 C   0  0  0  0  0  0  0  0  0  0  0  0
   -5.3460   16.3880  -32.9830 C   0  0  0  0  0  0  0  0  0  0  0  0
   -4.3370   15.4970  -33.7350 C   0  0  0  0  0  0  0  0  0  0  0  0
   -0.4760   18.2390  -34.8070 C   0  0  0  0  0  0  0  0  0  0  0  0
    0.0010   19.5400  -34.9980 C   0  0  0  0  0  0  0  0  0  0  0  0
    1.1120   19.7690  -35.8080 O   0  0  0  0  0  0  0  0  0  0  0  0
   -0.6340   20.6190  -34.3730 C   0  0  0  0  0  0  0  0  0  0  0  0
   -0.1330   21.9010  -34.5800 O   0  0  0  0  0  0  0  0  0  0  0  0
   -3.1076   18.9083  -32.7342 H   0  0  0  0  0  0  0  0  0  0  0  0
   -1.2980   15.8894  -34.1137 H   0  0  0  0  0  0  0  0  0  0  0  0
   -2.2883   16.4746  -32.6923 H   0  0  0  0  0  0  0  0  0  0  0  0
   -3.3029   18.2978  -35.1052 H   0  0  0  0  0  0  0  0  0  0  0  0
   -3.6853   17.0670  -36.3964 H   0  0  0  0  0  0  0  0  0  0  0  0
   -5.6013   18.6122  -35.5899 H   0  0  0  0  0  0  0  0  0  0  0  0
   -5.9138   16.8484  -35.7059 H   0  0  0  0  0  0  0  0  0  0  0  0
   -7.6467   17.5678  -31.9051 H   0  0  0  0  0  0  0  0  0  0  0  0
   -8.6453   19.5509  -30.7774 H   0  0  0  0  0  0  0  0  0  0  0  0
   -5.0976   22.6083  -29.1921 H   0  0  0  0  0  0  0  0  0  0  0  0
   -5.6687   21.6446  -30.6206 H   0  0  0  0  0  0  0  0  0  0  0  0
   -3.6242   22.9404  -31.1432 H   0  0  0  0  0  0  0  0  0  0  0  0
   -5.0701   23.4731  -32.1190 H   0  0  0  0  0  0  0  0  0  0  0  0
   -5.4521   25.3068  -29.0134 H   0  0  0  0  0  0  0  0  0  0  0  0
   -5.6160   26.4098  -30.4667 H   0  0  0  0  0  0  0  0  0  0  0  0
   -7.7179   25.2111  -29.9954 H   0  0  0  0  0  0  0  0  0  0  0  0
   -7.0070   24.7594  -31.5905 H   0  0  0  0  0  0  0  0  0  0  0  0
   -5.9805   22.1506  -32.9864 H   0  0  0  0  0  0  0  0  0  0  0  0
   -4.9985   20.1711  -34.1346 H   0  0  0  0  0  0  0  0  0  0  0  0
   -4.9092   16.6875  -32.0189 H   0  0  0  0  0  0  0  0  0  0  0  0
   -6.2702   15.8110  -32.8317 H   0  0  0  0  0  0  0  0  0  0  0  0
   -3.8130   14.8643  -33.0035 H   0  0  0  0  0  0  0  0  0  0  0  0
   -4.9026   14.8958  -34.4621 H   0  0  0  0  0  0  0  0  0  0  0  0
    0.0186   17.3964  -35.3124 H   0  0  0  0  0  0  0  0  0  0  0  0
    1.4910   20.6990  -35.9390 H   0  0  0  0  0  0  0  0  0  0  0  0
  1  2  2  0
  2  3  1  0
  2  4  1  0
  4  5  2  0
  5  6  1  0
  6  7  1  0
  7  8  1  0
  8  9  1  0
  9 10  1  0
 10 11  1  0
 11 12  1  0
 12 13  2  0
 13 14  1  0
 14 15  2  0
 15 16  1  0
 16 17  2  0
 16 18  2  0
 16 19  1  0
 19 20  1  0
 20 21  1  0
 21 22  1  0
 22 23  1  0
 23 24  1  0
 15 25  1  0
 25 26  2  0
 11 27  1  0
 27 28  1  0
  6 29  2  0
 29 30  1  0
 30 31  1  0
 30 32  2  0
 32 33  1  0
 32  4  1  0
 28  8  1  0
 26 12  1  0
 24 19  1  0
  5 34  1  0
  7 35  1  0
  7 36  1  0
  9 37  1  0
  9 38  1  0
 10 39  1  0
 10 40  1  0
 13 41  1  0
 14 42  1  0
 20 43  1  0
 20 44  1  0
 21 45  1  0
 21 46  1  0
 23 47  1  0
 23 48  1  0
 24 49  1  0
 24 50  1  0
 25 51  1  0
 26 52  1  0
 27 53  1  0
 27 54  1  0
 28 55  1  0
 28 56  1  0
 29 57  1  0
 31 58  1  0
M  CHG  3   2   1   3  -1  33  -1
M  END
>  <UniqueID>  (31) 
31

>  <SMILES>  (31) 
O=[N+]([O-])c1cc(CN2CCN(c3ccc(S(=O)(=O)N4CCOCC4)cc3)CC2)cc(O)c1[O-]

>  <Energy>  (31) 
85.47566471927456

>  <Genealogy>  (31) 
O=[N+]([O-])c1cc(CN2CCN(c3ccc(S(=O)(=O)N4CCOCC4)cc3)CC2)cc(O)c1[O-] (protonated)
O=[N+]([O-])c1cc(CN2CCN(c3ccc(S(=O)(=O)N4CCOCC4)cc3)CC2)cc(O)c1[O-] (3D coordinates assigned)
O=[N+]([O-])c1cc(CN2CCN(c3ccc(S(=O)(=O)N4CCOCC4)cc3)CC2)cc(O)c1[O-] (nonaromatic ring conformer: 85.47566471927456 kcal/mol)

>  <smiles>  (31) 
O=[N+]([O-])c1cc(CN2CCN(c3ccc(S(=O)(=O)N4CCOCC4)cc3)CC2)cc(O)c1O

>  <score_type>  (31) 
oracle

>  <origin>  (31) 
adgpu

>  <m_score__min__energy>  (31) 
-10.949999999999999

>  <m_primary>  (31) 
energy

$$$$
31:0
     RDKit          3D

 52 55  0  0  0  0  0  0  0  0999 V2000
    0.3050   23.3110  -25.4820 C   0  0  0  0  0  0  0  0  0  0  0  0
   -0.7050   23.6990  -26.5300 C   0  0  0  0  0  0  0  0  0  0  0  0
   -1.7470   22.8000  -26.8100 C   0  0  0  0  0  0  0  0  0  0  0  0
   -2.6920   23.0900  -27.7890 C   0  0  0  0  0  0  0  0  0  0  0  0
   -2.6080   24.2730  -28.5250 C   0  0  0  0  0  0  0  0  0  0  0  0
   -3.5890   24.5310  -29.5400 N   0  0  0  0  0  0  0  0  0  0  0  0
   -3.7810   23.6700  -30.6740 C   0  0  0  0  0  0  0  0  0  0  0  0
   -2.9910   22.7120  -30.8870 O   0  0  0  0  0  0  0  0  0  0  0  0
   -4.8450   23.9050  -31.6040 N   0  0  0  0  0  0  0  0  0  0  0  0
   -6.0410   23.1220  -31.7240 C   0  0  0  0  0  0  0  0  0  0  0  0
   -7.2700   23.5810  -31.2260 C   0  0  0  0  0  0  0  0  0  0  0  0
   -8.4140   22.7870  -31.3350 C   0  0  0  0  0  0  0  0  0  0  0  0
   -8.3450   21.5200  -31.9350 C   0  0  0  0  0  0  0  0  0  0  0  0
   -7.1020   21.0330  -32.3870 C   0  0  0  0  0  0  0  0  0  0  0  0
   -5.9610   21.8440  -32.2860 C   0  0  0  0  0  0  0  0  0  0  0  0
   -6.9980   19.6890  -33.0740 C   0  0  0  0  0  0  0  0  0  0  0  0
   -8.1150   18.7830  -32.7430 N   0  0  0  0  0  0  0  0  0  0  0  0
   -7.9580   18.1770  -31.4090 C   0  0  0  0  0  0  0  0  0  0  0  0
   -9.4200   19.4530  -32.9140 C   0  0  0  0  0  0  0  0  0  0  0  0
   -9.5840   20.6650  -31.9850 C   0  0  0  0  0  0  0  0  0  0  0  0
   -1.6040   25.2100  -28.2240 C   0  0  0  0  0  0  0  0  0  0  0  0
   -1.5680   26.4120  -28.9240 O   0  0  0  0  0  0  0  0  0  0  0  0
   -0.6530   24.9430  -27.2130 C   0  0  0  0  0  0  0  0  0  0  0  0
    0.6010   26.1570  -26.8550 S   0  0  0  0  0  0  0  0  0  0  0  0
    0.2460   27.4830  -27.4670 O   0  0  0  0  0  0  0  0  0  0  0  0
    1.9170   25.7270  -27.4410 O   0  0  0  0  0  0  0  0  0  0  0  0
    0.7820   26.2830  -25.0760 C   0  0  0  0  0  0  0  0  0  0  0  0
    0.2780   27.5970  -24.5010 C   0  0  0  0  0  0  0  0  0  0  0  0
   -0.5060   26.3150  -24.2690 C   0  0  0  0  0  0  0  0  0  0  0  0
   -0.1227   23.4753  -24.4820 H   0  0  0  0  0  0  0  0  0  0  0  0
    0.5656   22.2488  -25.5994 H   0  0  0  0  0  0  0  0  0  0  0  0
    1.2097   23.9256  -25.5994 H   0  0  0  0  0  0  0  0  0  0  0  0
   -1.8167   21.8563  -26.2491 H   0  0  0  0  0  0  0  0  0  0  0  0
   -3.5110   22.3821  -27.9844 H   0  0  0  0  0  0  0  0  0  0  0  0
   -4.2620   25.3110  -29.3720 H   0  0  0  0  0  0  0  0  0  0  0  0
   -7.3327   24.5697  -30.7480 H   0  0  0  0  0  0  0  0  0  0  0  0
   -9.3750   23.1570  -30.9482 H   0  0  0  0  0  0  0  0  0  0  0  0
   -4.9936   21.4704  -32.6528 H   0  0  0  0  0  0  0  0  0  0  0  0
   -6.9893   19.8514  -34.1619 H   0  0  0  0  0  0  0  0  0  0  0  0
   -6.0719   19.2110  -32.7221 H   0  0  0  0  0  0  0  0  0  0  0  0
   -8.1544   18.9351  -30.6365 H   0  0  0  0  0  0  0  0  0  0  0  0
   -8.6706   17.3465  -31.2974 H   0  0  0  0  0  0  0  0  0  0  0  0
   -6.9318   17.7970  -31.2974 H   0  0  0  0  0  0  0  0  0  0  0  0
   -9.5084   19.7928  -33.9565 H   0  0  0  0  0  0  0  0  0  0  0  0
  -10.2053   18.7265  -32.6580 H   0  0  0  0  0  0  0  0  0  0  0  0
  -10.4221   21.2779  -32.3481 H   0  0  0  0  0  0  0  0  0  0  0  0
   -9.7726   20.2869  -30.9694 H   0  0  0  0  0  0  0  0  0  0  0  0
    1.7084   25.6930  -25.0157 H   0  0  0  0  0  0  0  0  0  0  0  0
    0.8130   28.0732  -23.6662 H   0  0  0  0  0  0  0  0  0  0  0  0
    0.0429   28.5883  -24.9158 H   0  0  0  0  0  0  0  0  0  0  0  0
   -0.5382   25.8638  -23.2663 H   0  0  0  0  0  0  0  0  0  0  0  0
   -1.5433   25.9946  -24.4464 H   0  0  0  0  0  0  0  0  0  0  0  0
  1  2  1  0
  2  3  2  0
  3  4  1  0
  4  5  2  0
  5  6  1  0
  6  7  1  0
  7  8  2  0
  7  9  1  0
  9 10  1  0
 10 11  2  0
 11 12  1  0
 12 13  2  0
 13 14  1  0
 14 15  2  0
 14 16  1  0
 16 17  1  0
 17 18  1  0
 17 19  1  0
 19 20  1  0
  5 21  1  0
 21 22  1  0
 21 23  2  0
 23 24  1  0
 24 25  2  0
 24 26  2  0
 24 27  1  0
 27 28  1  0
 28 29  1  0
 23  2  1  0
 29 27  1  0
 15 10  1  0
 20 13  1  0
  1 30  1  0
  1 31  1  0
  1 32  1  0
  3 33  1  0
  4 34  1  0
  6 35  1  0
 11 36  1  0
 12 37  1  0
 15 38  1  0
 16 39  1  0
 16 40  1  0
 18 41  1  0
 18 42  1  0
 18 43  1  0
 19 44  1  0
 19 45  1  0
 20 46  1  0
 20 47  1  0
 27 48  1  0
 28 49  1  0
 28 50  1  0
 29 51  1  0
 29 52  1  0
M  CHG  2   9  -1  22  -1
M  END
>  <UniqueID>  (32) 
32

>  <SMILES>  (32) 
Cc1ccc(NC(=O)[N-]c2ccc3c(c2)CN(C)CC3)c([O-])c1S(=O)(=O)C1CC1

>  <Energy>  (32) 
335.8423382115793

>  <Genealogy>  (32) 
Cc1ccc(NC(=O)[N-]c2ccc3c(c2)CN(C)CC3)c([O-])c1S(=O)(=O)C1CC1 (protonated)
Cc1ccc(NC(=O)[N-]c2ccc3c(c2)CN(C)CC3)c([O-])c1S(=O)(=O)C1CC1 (3D coordinates assigned)
Cc1ccc(NC(=O)[N-]c2ccc3c(c2)CN(C)CC3)c([O-])c1S(=O)(=O)C1CC1 (nonaromatic ring conformer: 335.8423382115793 kcal/mol)

>  <smiles>  (32) 
Cc1ccc(NC(=O)Nc2ccc3c(c2)CN(C)CC3)c(O)c1S(=O)(=O)C1CC1

>  <score_type>  (32) 
oracle

>  <origin>  (32) 
adgpu

>  <m_score__min__energy>  (32) 
-14.31

>  <m_primary>  (32) 
energy

$$$$
32:0
     RDKit          3D

 57 60  0  0  0  0  0  0  0  0999 V2000
   -2.2530   25.3070  -26.8810 C   0  0  0  0  0  0  0  0  0  0  0  0
   -1.8540   25.2360  -28.2470 O   0  0  0  0  0  0  0  0  0  0  0  0
   -1.7460   24.0450  -28.9830 C   0  0  0  0  0  0  0  0  0  0  0  0
   -0.8300   23.0350  -28.6360 C   0  0  0  0  0  0  0  0  0  0  0  0
   -0.7380   21.8710  -29.4020 C   0  0  0  0  0  0  0  0  0  0  0  0
   -1.5660   21.6830  -30.5160 C   0  0  0  0  0  0  0  0  0  0  0  0
   -1.4050   20.4650  -31.3410 C   0  0  0  0  0  0  0  0  0  0  0  0
   -1.8780   20.3680  -32.6000 N   0  0  0  0  0  0  0  0  0  0  0  0
   -1.5750   19.1550  -33.0390 N   0  0  0  0  0  0  0  0  0  0  0  0
   -0.9140   18.5280  -32.0470 C   0  0  0  0  0  0  0  0  0  0  0  0
   -0.7820   19.3230  -30.9720 N   0  0  0  0  0  0  0  0  0  0  0  0
   -0.1260   18.9820  -29.7150 C   0  0  0  0  0  0  0  0  0  0  0  0
   -2.4780   22.6930  -30.8680 C   0  0  0  0  0  0  0  0  0  0  0  0
   -2.5830   23.8650  -30.0960 C   0  0  0  0  0  0  0  0  0  0  0  0
   -3.4830   24.9230  -30.4580 N   0  0  0  0  0  0  0  0  0  0  0  0
   -5.1640   25.0160  -30.0300 S   0  0  0  0  0  0  0  0  0  0  0  0
   -5.2690   24.9210  -28.5340 O   0  0  0  0  0  0  0  0  0  0  0  0
   -5.7680   26.3210  -30.4630 O   0  0  0  0  0  0  0  0  0  0  0  0
   -6.0260   23.6690  -30.7710 C   0  0  0  0  0  0  0  0  0  0  0  0
   -7.2960   23.2870  -30.3130 C   0  0  0  0  0  0  0  0  0  0  0  0
   -7.9390   22.1770  -30.8690 C   0  0  0  0  0  0  0  0  0  0  0  0
   -7.3150   21.4350  -31.8760 C   0  0  0  0  0  0  0  0  0  0  0  0
   -6.0550   21.8180  -32.3540 C   0  0  0  0  0  0  0  0  0  0  0  0
   -5.4020   21.0040  -33.3370 N   0  0  0  0  0  0  0  0  0  0  0  0
   -5.5780   19.5880  -33.4320 C   0  0  0  0  0  0  0  0  0  0  0  0
   -6.6330   19.1280  -33.9470 O   0  0  0  0  0  0  0  0  0  0  0  0
   -4.5310   18.7140  -32.9910 N   0  0  0  0  0  0  0  0  0  0  0  0
   -4.4030   17.3550  -33.4410 C   0  0  0  0  0  0  0  0  0  0  0  0
   -3.6400   17.0800  -34.5840 C   0  0  0  0  0  0  0  0  0  0  0  0
   -3.4980   15.7660  -35.0440 C   0  0  0  0  0  0  0  0  0  0  0  0
   -4.1000   14.7060  -34.3530 C   0  0  0  0  0  0  0  0  0  0  0  0
   -3.9600   13.3010  -34.8560 C   0  0  0  0  0  0  0  0  0  0  0  0
   -4.8670   14.9780  -33.2110 C   0  0  0  0  0  0  0  0  0  0  0  0
   -5.0080   16.2920  -32.7510 C   0  0  0  0  0  0  0  0  0  0  0  0
   -5.4150   22.9370  -31.7950 C   0  0  0  0  0  0  0  0  0  0  0  0
   -1.3768   25.1511  -26.2345 H   0  0  0  0  0  0  0  0  0  0  0  0
   -2.6878   26.2966  -26.6770 H   0  0  0  0  0  0  0  0  0  0  0  0
   -3.0025   24.5281  -26.6770 H   0  0  0  0  0  0  0  0  0  0  0  0
   -0.1824   23.1630  -27.7561 H   0  0  0  0  0  0  0  0  0  0  0  0
   -0.0085   21.0946  -29.1280 H   0  0  0  0  0  0  0  0  0  0  0  0
   -0.5318   17.4984  -32.1090 H   0  0  0  0  0  0  0  0  0  0  0  0
   -0.7542   19.3086  -28.8732 H   0  0  0  0  0  0  0  0  0  0  0  0
    0.0213   17.8932  -29.6618 H   0  0  0  0  0  0  0  0  0  0  0  0
    0.8498   19.4870  -29.6618 H   0  0  0  0  0  0  0  0  0  0  0  0
   -3.1157   22.5661  -31.7553 H   0  0  0  0  0  0  0  0  0  0  0  0
   -7.7871   23.8624  -29.5144 H   0  0  0  0  0  0  0  0  0  0  0  0
   -8.9386   21.8868  -30.5131 H   0  0  0  0  0  0  0  0  0  0  0  0
   -7.8143   20.5485  -32.2940 H   0  0  0  0  0  0  0  0  0  0  0  0
   -3.6880   19.1650  -32.5660 H   0  0  0  0  0  0  0  0  0  0  0  0
   -3.1490   17.9033  -35.1236 H   0  0  0  0  0  0  0  0  0  0  0  0
   -2.9111   15.5643  -35.9522 H   0  0  0  0  0  0  0  0  0  0  0  0
   -3.8912   12.6110  -34.0021 H   0  0  0  0  0  0  0  0  0  0  0  0
   -4.8367   13.0414  -35.4675 H   0  0  0  0  0  0  0  0  0  0  0  0
   -3.0493   13.2195  -35.4675 H   0  0  0  0  0  0  0  0  0  0  0  0
   -5.3603   14.1543  -32.6741 H   0  0  0  0  0  0  0  0  0  0  0  0
   -5.5962   16.4935  -31.8436 H   0  0  0  0  0  0  0  0  0  0  0  0
   -4.4248   23.2403  -32.1657 H   0  0  0  0  0  0  0  0  0  0  0  0
  1  2  1  0
  2  3  1  0
  3  4  2  0
  4  5  1  0
  5  6  2  0
  6  7  1  0
  7  8  2  0
  8  9  1  0
  9 10  2  0
 10 11  1  0
 11 12  1  0
  6 13  1  0
 13 14  2  0
 14 15  1  0
 15 16  1  0
 16 17  2  0
 16 18  2  0
 16 19  1  0
 19 20  2  0
 20 21  1  0
 21 22  2  0
 22 23  1  0
 23 24  1  0
 24 25  1  0
 25 26  2  0
 25 27  1  0
 27 28  1  0
 28 29  2  0
 29 30  1  0
 30 31  2  0
 31 32  1  0
 31 33  1  0
 33 34  2  0
 23 35  2  0
 14  3  1  0
 35 19  1  0
 11  7  1  0
 34 28  1  0
  1 36  1  0
  1 37  1  0
  1 38  1  0
  4 39  1  0
  5 40  1  0
 10 41  1  0
 12 42  1  0
 12 43  1  0
 12 44  1  0
 13 45  1  0
 20 46  1  0
 21 47  1  0
 22 48  1  0
 27 49  1  0
 29 50  1  0
 30 51  1  0
 32 52  1  0
 32 53  1  0
 32 54  1  0
 33 55  1  0
 34 56  1  0
 35 57  1  0
M  CHG  2  15  -1  24  -1
M  END
>  <UniqueID>  (33) 
33

>  <SMILES>  (33) 
COc1ccc(-c2nncn2C)cc1[N-]S(=O)(=O)c1cccc([N-]C(=O)Nc2ccc(C)cc2)c1

>  <Energy>  (33) 
107.6935081185234

>  <Genealogy>  (33) 
COc1ccc(-c2nncn2C)cc1[N-]S(=O)(=O)c1cccc([N-]C(=O)Nc2ccc(C)cc2)c1 (protonated)
COc1ccc(-c2nncn2C)cc1[N-]S(=O)(=O)c1cccc([N-]C(=O)Nc2ccc(C)cc2)c1 (3D coordinates assigned)
COc1ccc(-c2nncn2C)cc1[N-]S(=O)(=O)c1cccc([N-]C(=O)Nc2ccc(C)cc2)c1 (optimized conformer: 107.6935081185234 kcal/mol)

>  <smiles>  (33) 
COc1ccc(-c2nncn2C)cc1NS(=O)(=O)c1cccc(NC(=O)Nc2ccc(C)cc2)c1

>  <score_type>  (33) 
oracle

>  <origin>  (33) 
adgpu

>  <m_score__min__energy>  (33) 
-11.640000000000001

>  <m_primary>  (33) 
energy

$$$$
33:0
     RDKit          3D

 55 59  0  0  0  0  0  0  0  0999 V2000
   -0.8790   26.9890  -23.5360 C   0  0  0  0  0  0  0  0  0  0  0  0
   -1.1280   26.5380  -24.9450 C   0  0  0  0  0  0  0  0  0  0  0  0
   -0.2190   26.8640  -25.9620 C   0  0  0  0  0  0  0  0  0  0  0  0
   -0.4710   26.4760  -27.2820 C   0  0  0  0  0  0  0  0  0  0  0  0
   -1.6310   25.7570  -27.6040 C   0  0  0  0  0  0  0  0  0  0  0  0
   -1.8790   25.3890  -28.9720 N   0  0  0  0  0  0  0  0  0  0  0  0
   -2.3540   24.0920  -29.3730 C   0  0  0  0  0  0  0  0  0  0  0  0
   -3.2810   23.9970  -30.3610 N   0  0  0  0  0  0  0  0  0  0  0  0
   -3.8080   22.8150  -30.7620 C   0  0  0  0  0  0  0  0  0  0  0  0
   -4.7450   22.7990  -31.8000 C   0  0  0  0  0  0  0  0  0  0  0  0
   -5.2880   21.5900  -32.2390 C   0  0  0  0  0  0  0  0  0  0  0  0
   -4.9060   20.3840  -31.6370 C   0  0  0  0  0  0  0  0  0  0  0  0
   -5.4540   19.0830  -32.1430 C   0  0  0  0  0  0  0  0  0  0  0  0
   -3.9530   20.3940  -30.6060 C   0  0  0  0  0  0  0  0  0  0  0  0
   -3.4060   21.6110  -30.1440 C   0  0  0  0  0  0  0  0  0  0  0  0
   -2.4530   21.6680  -29.0970 C   0  0  0  0  0  0  0  0  0  0  0  0
   -1.9880   20.4310  -28.4250 C   0  0  0  0  0  0  0  0  0  0  0  0
   -0.7990   19.8070  -28.8350 C   0  0  0  0  0  0  0  0  0  0  0  0
   -0.3470   18.6560  -28.1810 C   0  0  0  0  0  0  0  0  0  0  0  0
   -1.0800   18.1230  -27.1170 C   0  0  0  0  0  0  0  0  0  0  0  0
   -2.2640   18.7400  -26.7040 C   0  0  0  0  0  0  0  0  0  0  0  0
   -2.7180   19.8910  -27.3540 C   0  0  0  0  0  0  0  0  0  0  0  0
   -1.9210   22.9230  -28.7080 C   0  0  0  0  0  0  0  0  0  0  0  0
   -0.9070   23.0170  -27.6310 C   0  0  0  0  0  0  0  0  0  0  0  0
    0.4050   23.4210  -27.9240 C   0  0  0  0  0  0  0  0  0  0  0  0
    1.3550   23.5240  -26.9030 C   0  0  0  0  0  0  0  0  0  0  0  0
    1.0010   23.2190  -25.5860 C   0  0  0  0  0  0  0  0  0  0  0  0
   -0.3020   22.8110  -25.2870 C   0  0  0  0  0  0  0  0  0  0  0  0
   -1.2540   22.7100  -26.3060 C   0  0  0  0  0  0  0  0  0  0  0  0
   -2.5610   25.4660  -26.5880 C   0  0  0  0  0  0  0  0  0  0  0  0
   -2.3090   25.8540  -25.2690 C   0  0  0  0  0  0  0  0  0  0  0  0
   -1.2889   26.2465  -22.8355 H   0  0  0  0  0  0  0  0  0  0  0  0
    0.2035   27.0915  -23.3697 H   0  0  0  0  0  0  0  0  0  0  0  0
   -1.3690   27.9597  -23.3697 H   0  0  0  0  0  0  0  0  0  0  0  0
    0.6950   27.4266  -25.7208 H   0  0  0  0  0  0  0  0  0  0  0  0
    0.2466   26.7370  -28.0738 H   0  0  0  0  0  0  0  0  0  0  0  0
   -1.6150   26.0760  -29.7150 H   0  0  0  0  0  0  0  0  0  0  0  0
   -5.0554   23.7426  -32.2724 H   0  0  0  0  0  0  0  0  0  0  0  0
   -6.0189   21.5843  -33.0611 H   0  0  0  0  0  0  0  0  0  0  0  0
   -5.7238   18.4424  -31.2904 H   0  0  0  0  0  0  0  0  0  0  0  0
   -6.3478   19.2748  -32.7549 H   0  0  0  0  0  0  0  0  0  0  0  0
   -4.6924   18.5775  -32.7549 H   0  0  0  0  0  0  0  0  0  0  0  0
   -3.6294   19.4448  -30.1539 H   0  0  0  0  0  0  0  0  0  0  0  0
   -0.2212   20.2244  -29.6729 H   0  0  0  0  0  0  0  0  0  0  0  0
    0.5855   18.1703  -28.5042 H   0  0  0  0  0  0  0  0  0  0  0  0
   -0.7246   17.2170  -26.6042 H   0  0  0  0  0  0  0  0  0  0  0  0
   -2.8394   18.3192  -25.8662 H   0  0  0  0  0  0  0  0  0  0  0  0
   -3.6496   20.3751  -27.0257 H   0  0  0  0  0  0  0  0  0  0  0  0
    0.6869   23.6575  -28.9606 H   0  0  0  0  0  0  0  0  0  0  0  0
    2.3808   23.8451  -27.1365 H   0  0  0  0  0  0  0  0  0  0  0  0
    1.7489   23.3001  -24.7834 H   0  0  0  0  0  0  0  0  0  0  0  0
   -0.5784   22.5694  -24.2501 H   0  0  0  0  0  0  0  0  0  0  0  0
   -2.2789   22.3887  -26.0684 H   0  0  0  0  0  0  0  0  0  0  0  0
   -3.4902   24.9308  -26.8332 H   0  0  0  0  0  0  0  0  0  0  0  0
   -3.0406   25.6218  -24.4810 H   0  0  0  0  0  0  0  0  0  0  0  0
  1  2  1  0
  2  3  2  0
  3  4  1  0
  4  5  2  0
  5  6  1  0
  6  7  1  0
  7  8  2  0
  8  9  1  0
  9 10  2  0
 10 11  1  0
 11 12  2  0
 12 13  1  0
 12 14  1  0
 14 15  2  0
 15 16  1  0
 16 17  1  0
 17 18  2  0
 18 19  1  0
 19 20  2  0
 20 21  1  0
 21 22  2  0
 16 23  2  0
 23 24  1  0
 24 25  2  0
 25 26  1  0
 26 27  2  0
 27 28  1  0
 28 29  2  0
  5 30  1  0
 30 31  2  0
 31  2  1  0
 23  7  1  0
 29 24  1  0
 15  9  1  0
 22 17  1  0
  1 32  1  0
  1 33  1  0
  1 34  1  0
  3 35  1  0
  4 36  1  0
  6 37  1  0
 10 38  1  0
 11 39  1  0
 13 40  1  0
 13 41  1  0
 13 42  1  0
 14 43  1  0
 18 44  1  0
 19 45  1  0
 20 46  1  0
 21 47  1  0
 22 48  1  0
 25 49  1  0
 26 50  1  0
 27 51  1  0
 28 52  1  0
 29 53  1  0
 30 54  1  0
 31 55  1  0
M  END
>  <UniqueID>  (34) 
34

>  <SMILES>  (34) 
Cc1ccc(Nc2nc3ccc(C)cc3c(-c3ccccc3)c2-c2ccccc2)cc1

>  <Energy>  (34) 
83.36328189226816

>  <Genealogy>  (34) 
Cc1ccc(Nc2nc3ccc(C)cc3c(-c3ccccc3)c2-c2ccccc2)cc1 (3D coordinates assigned)
Cc1ccc(Nc2nc3ccc(C)cc3c(-c3ccccc3)c2-c2ccccc2)cc1 (optimized conformer: 83.36328189226816 kcal/mol)

>  <smiles>  (34) 
Cc1ccc(Nc2nc3ccc(C)cc3c(-c3ccccc3)c2-c2ccccc2)cc1

>  <score_type>  (34) 
oracle

>  <origin>  (34) 
adgpu

>  <m_score__min__energy>  (34) 
-10.17

>  <m_primary>  (34) 
energy

$$$$
34:0
     RDKit          3D

 49 51  0  0  0  0  0  0  0  0999 V2000
   -6.5370   17.9400  -33.3230 C   0  0  0  0  0  0  0  0  0  0  0  0
   -6.7410   18.5930  -32.0740 O   0  0  0  0  0  0  0  0  0  0  0  0
   -7.4640   19.7850  -31.9140 C   0  0  0  0  0  0  0  0  0  0  0  0
   -6.8400   21.0070  -31.5910 C   0  0  0  0  0  0  0  0  0  0  0  0
   -7.6000   22.1770  -31.4360 C   0  0  0  0  0  0  0  0  0  0  0  0
   -6.9290   23.4880  -31.1160 C   0  0  0  0  0  0  0  0  0  0  0  0
   -5.7800   23.7760  -32.0840 C   0  0  0  0  0  0  0  0  0  0  0  0
   -4.5050   23.4280  -31.4700 N   0  0  0  0  0  0  0  0  0  0  0  0
   -3.8430   24.2650  -30.5180 C   0  0  0  0  0  0  0  0  0  0  0  0
   -4.0620   25.5070  -30.5280 O   0  0  0  0  0  0  0  0  0  0  0  0
   -2.9120   23.6700  -29.5240 C   0  0  0  0  0  0  0  0  0  0  0  0
   -3.0990   22.3380  -29.1060 C   0  0  0  0  0  0  0  0  0  0  0  0
   -2.2480   21.7530  -28.1540 C   0  0  0  0  0  0  0  0  0  0  0  0
   -2.4910   20.3430  -27.6850 C   0  0  0  0  0  0  0  0  0  0  0  0
   -1.2930   19.4820  -27.9790 C   0  0  0  0  0  0  0  0  0  0  0  0
   -0.9810   18.3960  -27.1450 C   0  0  0  0  0  0  0  0  0  0  0  0
    0.1120   17.5760  -27.4370 C   0  0  0  0  0  0  0  0  0  0  0  0
    0.8950   17.8240  -28.5690 C   0  0  0  0  0  0  0  0  0  0  0  0
    1.9800   17.0030  -28.8520 O   0  0  0  0  0  0  0  0  0  0  0  0
    0.5840   18.8960  -29.4150 C   0  0  0  0  0  0  0  0  0  0  0  0
    1.3640   19.1350  -30.5460 O   0  0  0  0  0  0  0  0  0  0  0  0
   -0.5110   19.7210  -29.1210 C   0  0  0  0  0  0  0  0  0  0  0  0
   -1.2080   22.5110  -27.6030 C   0  0  0  0  0  0  0  0  0  0  0  0
   -1.0040   23.8280  -28.0140 C   0  0  0  0  0  0  0  0  0  0  0  0
   -1.8450   24.4120  -28.9660 C   0  0  0  0  0  0  0  0  0  0  0  0
   -1.6130   25.7320  -29.3380 O   0  0  0  0  0  0  0  0  0  0  0  0
   -8.9900   22.1260  -31.6240 C   0  0  0  0  0  0  0  0  0  0  0  0
   -9.6120   20.9180  -31.9420 C   0  0  0  0  0  0  0  0  0  0  0  0
   -8.8560   19.7520  -32.0830 C   0  0  0  0  0  0  0  0  0  0  0  0
   -9.4900   18.5550  -32.3990 O   0  0  0  0  0  0  0  0  0  0  0  0
   -6.2132   16.9037  -33.1464 H   0  0  0  0  0  0  0  0  0  0  0  0
   -7.4774   17.9382  -33.8937 H   0  0  0  0  0  0  0  0  0  0  0  0
   -5.7628   18.4738  -33.8937 H   0  0  0  0  0  0  0  0  0  0  0  0
   -5.7485   21.0441  -31.4593 H   0  0  0  0  0  0  0  0  0  0  0  0
   -7.6705   24.2972  -31.1894 H   0  0  0  0  0  0  0  0  0  0  0  0
   -6.5177   23.4277  -30.0976 H   0  0  0  0  0  0  0  0  0  0  0  0
   -5.9174   23.1803  -32.9985 H   0  0  0  0  0  0  0  0  0  0  0  0
   -5.7787   24.8480  -32.3305 H   0  0  0  0  0  0  0  0  0  0  0  0
   -3.9236   21.7472  -29.5314 H   0  0  0  0  0  0  0  0  0  0  0  0
   -2.6771   20.3480  -26.6009 H   0  0  0  0  0  0  0  0  0  0  0  0
   -3.3642   19.9348  -28.2150 H   0  0  0  0  0  0  0  0  0  0  0  0
   -1.5993   18.1902  -26.2588 H   0  0  0  0  0  0  0  0  0  0  0  0
    0.3574   16.7328  -26.7745 H   0  0  0  0  0  0  0  0  0  0  0  0
    2.1630   18.5550  -30.7700 H   0  0  0  0  0  0  0  0  0  0  0  0
   -0.7589   20.5597  -29.7882 H   0  0  0  0  0  0  0  0  0  0  0  0
   -0.5491   22.0661  -26.8428 H   0  0  0  0  0  0  0  0  0  0  0  0
   -0.1755   24.4115  -27.5861 H   0  0  0  0  0  0  0  0  0  0  0  0
   -9.5911   23.0414  -31.5203 H   0  0  0  0  0  0  0  0  0  0  0  0
  -10.7025   20.8839  -32.0822 H   0  0  0  0  0  0  0  0  0  0  0  0
  1  2  1  0
  2  3  1  0
  3  4  2  0
  4  5  1  0
  5  6  1  0
  6  7  1  0
  7  8  1  0
  8  9  1  0
  9 10  2  0
  9 11  1  0
 11 12  2  0
 12 13  1  0
 13 14  1  0
 14 15  1  0
 15 16  2  0
 16 17  1  0
 17 18  2  0
 18 19  1  0
 18 20  1  0
 20 21  1  0
 20 22  2  0
 13 23  2  0
 23 24  1  0
 24 25  2  0
 25 26  1  0
  5 27  2  0
 27 28  1  0
 28 29  2  0
 29 30  1  0
 29  3  1  0
 25 11  1  0
 22 15  1  0
  1 31  1  0
  1 32  1  0
  1 33  1  0
  4 34  1  0
  6 35  1  0
  6 36  1  0
  7 37  1  0
  7 38  1  0
 12 39  1  0
 14 40  1  0
 14 41  1  0
 16 42  1  0
 17 43  1  0
 21 44  1  0
 22 45  1  0
 23 46  1  0
 24 47  1  0
 27 48  1  0
 28 49  1  0
M  CHG  4   8  -1  19  -1  26  -1  30  -1
M  END
>  <UniqueID>  (35) 
35

>  <SMILES>  (35) 
COc1cc(CC[N-]C(=O)c2cc(Cc3ccc([O-])c(O)c3)ccc2[O-])ccc1[O-]

>  <Energy>  (35) 
44.812860442439366

>  <Genealogy>  (35) 
COc1cc(CC[N-]C(=O)c2cc(Cc3ccc([O-])c(O)c3)ccc2[O-])ccc1[O-] (protonated)
COc1cc(CC[N-]C(=O)c2cc(Cc3ccc([O-])c(O)c3)ccc2[O-])ccc1[O-] (3D coordinates assigned)
COc1cc(CC[N-]C(=O)c2cc(Cc3ccc([O-])c(O)c3)ccc2[O-])ccc1[O-] (optimized conformer: 44.812860442439366 kcal/mol)

>  <smiles>  (35) 
COc1cc(CCNC(=O)c2cc(Cc3ccc(O)c(O)c3)ccc2O)ccc1O

>  <score_type>  (35) 
oracle

>  <origin>  (35) 
adgpu

>  <m_score__min__energy>  (35) 
-12.890000000000001

>  <m_primary>  (35) 
energy

$$$$
35:0
     RDKit          3D

 59 62  0  0  0  0  0  0  0  0999 V2000
   -1.2253   27.5902  -22.8275 H   0  0  0  0  0  0  0  0  0  0  0  0
   -0.8830   27.1420  -23.7720 C   0  0  0  0  0  0  0  0  0  0  0  0
   -0.7970   27.9250  -24.9270 C   0  0  0  0  0  0  0  0  0  0  0  0
   -1.0658   28.9910  -24.8894 H   0  0  0  0  0  0  0  0  0  0  0  0
   -0.3700   27.3550  -26.1290 C   0  0  0  0  0  0  0  0  0  0  0  0
   -0.2940   27.9775  -27.0327 H   0  0  0  0  0  0  0  0  0  0  0  0
   -0.0380   25.9950  -26.1900 C   0  0  0  0  0  0  0  0  0  0  0  0
    0.3980   25.4620  -27.4120 O   0  0  0  0  0  0  0  0  0  0  0  0
   -0.3510   24.6150  -28.2430 C   0  0  0  0  0  0  0  0  0  0  0  0
    0.1140   23.3200  -28.4750 C   0  0  0  0  0  0  0  0  0  0  0  0
    1.0466   22.9817  -27.9999 H   0  0  0  0  0  0  0  0  0  0  0  0
   -0.5950   22.4510  -29.3050 C   0  0  0  0  0  0  0  0  0  0  0  0
   -0.2189   21.4312  -29.4739 H   0  0  0  0  0  0  0  0  0  0  0  0
   -1.7860   22.8660  -29.9280 C   0  0  0  0  0  0  0  0  0  0  0  0
   -2.5180   21.9300  -30.8190 C   0  0  0  0  0  0  0  0  0  0  0  0
   -1.9680   21.5540  -32.0050 N   0  0  0  0  0  0  0  0  0  0  0  0
   -2.6000   20.6970  -32.8460 C   0  0  0  0  0  0  0  0  0  0  0  0
   -2.1303   20.4121  -33.7990 H   0  0  0  0  0  0  0  0  0  0  0  0
   -3.8510   20.1770  -32.4970 C   0  0  0  0  0  0  0  0  0  0  0  0
   -4.4410   19.3530  -33.3170 N   0  0  0  0  0  0  0  0  0  0  0  0
   -5.7300   18.6880  -33.1300 C   0  0  0  0  0  0  0  0  0  0  0  0
   -5.6806   17.6767  -33.5600 H   0  0  0  0  0  0  0  0  0  0  0  0
   -5.9477   18.6339  -32.0531 H   0  0  0  0  0  0  0  0  0  0  0  0
   -6.8510   19.4760  -33.8220 C   0  0  0  0  0  0  0  0  0  0  0  0
   -6.4018   20.2841  -34.4179 H   0  0  0  0  0  0  0  0  0  0  0  0
   -7.4141   18.7785  -34.4595 H   0  0  0  0  0  0  0  0  0  0  0  0
   -7.8300   20.0910  -32.8090 C   0  0  0  0  0  0  0  0  0  0  0  0
   -8.5787   20.6842  -33.3546 H   0  0  0  0  0  0  0  0  0  0  0  0
   -8.3014   19.2683  -32.2514 H   0  0  0  0  0  0  0  0  0  0  0  0
   -7.1440   20.9690  -31.8330 N   0  0  0  0  0  0  0  0  0  0  0  0
   -6.5050   22.1290  -32.5000 C   0  0  0  0  0  0  0  0  0  0  0  0
   -5.5254   22.3121  -32.0344 H   0  0  0  0  0  0  0  0  0  0  0  0
   -6.3970   21.8918  -33.5687 H   0  0  0  0  0  0  0  0  0  0  0  0
   -7.3610   23.4030  -32.3770 C   0  0  0  0  0  0  0  0  0  0  0  0
   -6.8367   24.2241  -32.8878 H   0  0  0  0  0  0  0  0  0  0  0  0
   -8.3368   23.1793  -32.8329 H   0  0  0  0  0  0  0  0  0  0  0  0
   -7.6110   23.7970  -31.0350 O   0  0  0  0  0  0  0  0  0  0  0  0
   -7.6090   22.7150  -30.1130 C   0  0  0  0  0  0  0  0  0  0  0  0
   -6.5889   22.5951  -29.7192 H   0  0  0  0  0  0  0  0  0  0  0  0
   -8.3348   22.9612  -29.3239 H   0  0  0  0  0  0  0  0  0  0  0  0
   -8.0510   21.3800  -30.7330 C   0  0  0  0  0  0  0  0  0  0  0  0
   -8.0439   20.6035  -29.9539 H   0  0  0  0  0  0  0  0  0  0  0  0
   -9.0622   21.5076  -31.1467 H   0  0  0  0  0  0  0  0  0  0  0  0
   -4.4150   20.5570  -31.3090 N   0  0  0  0  0  0  0  0  0  0  0  0
   -5.3530   20.2110  -31.0150 H   0  0  0  0  0  0  0  0  0  0  0  0
   -3.7760   21.4160  -30.4690 C   0  0  0  0  0  0  0  0  0  0  0  0
   -4.2447   21.7069  -29.5173 H   0  0  0  0  0  0  0  0  0  0  0  0
   -2.2560   24.1810  -29.7150 C   0  0  0  0  0  0  0  0  0  0  0  0
   -3.4520   24.5890  -30.3290 O   0  0  0  0  0  0  0  0  0  0  0  0
   -4.7370   24.5440  -29.7150 C   0  0  0  0  0  0  0  0  0  0  0  0
   -4.6210   24.5481  -28.6211 H   0  0  0  0  0  0  0  0  0  0  0  0
   -5.3224   25.4222  -30.0249 H   0  0  0  0  0  0  0  0  0  0  0  0
   -5.2596   23.6270  -30.0249 H   0  0  0  0  0  0  0  0  0  0  0  0
   -1.5260   25.0500  -28.8800 C   0  0  0  0  0  0  0  0  0  0  0  0
   -1.8795   26.0800  -28.7250 H   0  0  0  0  0  0  0  0  0  0  0  0
   -0.1070   25.2160  -25.0190 C   0  0  0  0  0  0  0  0  0  0  0  0
    0.1757   24.1534  -25.0494 H   0  0  0  0  0  0  0  0  0  0  0  0
   -0.5340   25.7900  -23.8180 C   0  0  0  0  0  0  0  0  0  0  0  0
   -0.5953   25.1760  -22.9074 H   0  0  0  0  0  0  0  0  0  0  0  0
  1  2  1  0
  2  3  2  0
  3  4  1  0
  3  5  1  0
  5  6  1  0
  5  7  2  0
  7  8  1  0
  8  9  1  0
  9 10  2  0
 10 11  1  0
 10 12  1  0
 12 13  1  0
 12 14  2  0
 14 15  1  0
 15 16  1  0
 16 17  2  0
 17 18  1  0
 17 19  1  0
 19 20  2  0
 20 21  1  0
 21 22  1  0
 21 23  1  0
 21 24  1  0
 24 25  1  0
 24 26  1  0
 24 27  1  0
 27 28  1  0
 27 29  1  0
 27 30  1  0
 30 31  1  0
 31 32  1  0
 31 33  1  0
 31 34  1  0
 34 35  1  0
 34 36  1  0
 34 37  1  0
 37 38  1  0
 38 39  1  0
 38 40  1  0
 38 41  1  0
 41 42  1  0
 41 43  1  0
 19 44  1  0
 44 45  1  0
 44 46  1  0
 46 47  1  0
 14 48  1  0
 48 49  1  0
 49 50  1  0
 50 51  1  0
 50 52  1  0
 50 53  1  0
 48 54  2  0
 54 55  1  0
  7 56  1  0
 56 57  1  0
 56 58  2  0
 58 59  1  0
 58  2  1  0
 54  9  1  0
 46 15  2  0
 41 30  1  0
M  END
>  <UniqueID>  (36) 
36

>  <SMILES>  (36) 
COc1cc(Oc2ccccc2)ccc1-c1c[nH]/c(=N\CCCN2CCOCC2)cn1

>  <Energy>  (36) 
87.28796089337713

>  <Genealogy>  (36) 
COc1cc(Oc2ccccc2)ccc1-c1c[nH]/c(=N\CCCN2CCOCC2)cn1 (cis-trans isomerization)
COc1cc(Oc2ccccc2)ccc1-c1c[nH]/c(=N\CCCN2CCOCC2)cn1 (3D coordinates assigned)
COc1cc(Oc2ccccc2)ccc1-c1c[nH]/c(=N\CCCN2CCOCC2)cn1 (nonaromatic ring conformer: 87.28796089337713 kcal/mol)

>  <smiles>  (36) 
COc1cc(Oc2ccccc2)ccc1-c1c[nH]c(=NCCCN2CCOCC2)cn1

>  <score_type>  (36) 
oracle

>  <origin>  (36) 
adgpu

>  <m_score__min__energy>  (36) 
-9.0299999999999994

>  <m_primary>  (36) 
energy

$$$$
36:0
     RDKit          3D

 68 71  0  0  0  0  0  0  0  0999 V2000
   -9.1380   22.7820  -31.9730 C   0  0  0  0  0  0  0  0  0  0  0  0
   -7.6650   22.6280  -31.7420 C   0  0  0  0  0  0  0  0  0  0  0  0
   -6.8940   23.5330  -31.0350 C   0  0  0  0  0  0  0  0  0  0  0  0
   -5.5860   23.0970  -31.1370 C   0  0  0  0  0  0  0  0  0  0  0  0
   -4.3960   23.7790  -30.5900 C   0  0  0  0  0  0  0  0  0  0  0  0
   -4.2250   25.0030  -30.8400 O   0  0  0  0  0  0  0  0  0  0  0  0
   -3.4230   23.0770  -29.7910 N   0  0  0  0  0  0  0  0  0  0  0  0
   -3.8160   21.9750  -28.9040 C   0  0  0  0  0  0  0  0  0  0  0  0
   -3.2290   22.1550  -27.4860 C   0  0  0  0  0  0  0  0  0  0  0  0
   -1.9600   22.9330  -27.4400 N   0  0  0  0  0  0  0  0  0  0  0  0
   -2.1990   24.3290  -27.0180 C   0  0  0  0  0  0  0  0  0  0  0  0
   -1.2050   22.8660  -28.7120 C   0  0  0  0  0  0  0  0  0  0  0  0
   -2.0090   23.4540  -29.8820 C   0  0  0  0  0  0  0  0  0  0  0  0
   -5.6120   21.9400  -31.9010 C   0  0  0  0  0  0  0  0  0  0  0  0
   -4.4220   21.2040  -32.3630 C   0  0  0  0  0  0  0  0  0  0  0  0
   -4.1970   19.8840  -31.9450 C   0  0  0  0  0  0  0  0  0  0  0  0
   -3.0420   19.2080  -32.3480 C   0  0  0  0  0  0  0  0  0  0  0  0
   -2.1080   19.8430  -33.1770 C   0  0  0  0  0  0  0  0  0  0  0  0
   -0.6120   19.0280  -33.6220 S   0  0  0  0  0  0  0  0  0  0  0  0
   -0.9420   17.6390  -34.0910 O   0  0  0  0  0  0  0  0  0  0  0  0
    0.0630   19.7800  -34.7370 O   0  0  0  0  0  0  0  0  0  0  0  0
    0.4470   18.9330  -32.2360 N   0  0  0  0  0  0  0  0  0  0  0  0
    0.1680   17.7490  -31.4250 C   0  0  0  0  0  0  0  0  0  0  0  0
    0.6240   18.0800  -30.0140 C   0  0  0  0  0  0  0  0  0  0  0  0
    0.6240   19.6020  -29.9420 C   0  0  0  0  0  0  0  0  0  0  0  0
    0.2540   20.0740  -31.3410 C   0  0  0  0  0  0  0  0  0  0  0  0
   -2.3360   21.1620  -33.5940 C   0  0  0  0  0  0  0  0  0  0  0  0
   -3.4910   21.8370  -33.1960 C   0  0  0  0  0  0  0  0  0  0  0  0
   -6.8800   21.6670  -32.2890 N   0  0  0  0  0  0  0  0  0  0  0  0
   -7.3090   20.5470  -33.1390 C   0  0  0  0  0  0  0  0  0  0  0  0
   -7.1640   19.2050  -32.4100 C   0  0  0  0  0  0  0  0  0  0  0  0
   -6.7880   18.0650  -33.3560 C   0  0  0  0  0  0  0  0  0  0  0  0
   -6.1230   18.5860  -34.4720 O   0  0  0  0  0  0  0  0  0  0  0  0
   -9.6573   22.8363  -31.0048 H   0  0  0  0  0  0  0  0  0  0  0  0
   -9.3255   23.7046  -32.5419 H   0  0  0  0  0  0  0  0  0  0  0  0
   -9.5122   21.9181  -32.5419 H   0  0  0  0  0  0  0  0  0  0  0  0
   -7.2511   24.4239  -30.4976 H   0  0  0  0  0  0  0  0  0  0  0  0
   -4.9135   21.9447  -28.8357 H   0  0  0  0  0  0  0  0  0  0  0  0
   -3.4246   21.0366  -29.3238 H   0  0  0  0  0  0  0  0  0  0  0  0
   -3.9750   22.6766  -26.8684 H   0  0  0  0  0  0  0  0  0  0  0  0
   -2.9932   21.1472  -27.1135 H   0  0  0  0  0  0  0  0  0  0  0  0
   -1.3510   22.5040  -26.7020 H   0  0  0  0  0  0  0  0  0  0  0  0
   -2.2083   24.3835  -25.9194 H   0  0  0  0  0  0  0  0  0  0  0  0
   -1.3980   24.9729  -27.4103 H   0  0  0  0  0  0  0  0  0  0  0  0
   -3.1685   24.6698  -27.4103 H   0  0  0  0  0  0  0  0  0  0  0  0
   -0.2694   23.4338  -28.6015 H   0  0  0  0  0  0  0  0  0  0  0  0
   -1.0005   21.8082  -28.9339 H   0  0  0  0  0  0  0  0  0  0  0  0
   -1.9271   24.5507  -29.8593 H   0  0  0  0  0  0  0  0  0  0  0  0
   -1.6004   23.0560  -30.8226 H   0  0  0  0  0  0  0  0  0  0  0  0
   -4.9309   19.3801  -31.2989 H   0  0  0  0  0  0  0  0  0  0  0  0
   -2.8659   18.1750  -32.0135 H   0  0  0  0  0  0  0  0  0  0  0  0
   -0.9092   17.5263  -31.4345 H   0  0  0  0  0  0  0  0  0  0  0  0
    0.6915   16.8643  -31.8166 H   0  0  0  0  0  0  0  0  0  0  0  0
   -0.0728   17.6587  -29.2744 H   0  0  0  0  0  0  0  0  0  0  0  0
    1.6151   17.6575  -29.7920 H   0  0  0  0  0  0  0  0  0  0  0  0
   -0.1177   19.9524  -29.2091 H   0  0  0  0  0  0  0  0  0  0  0  0
    1.6001   19.9960  -29.6227 H   0  0  0  0  0  0  0  0  0  0  0  0
   -0.7960   20.4010  -31.3651 H   0  0  0  0  0  0  0  0  0  0  0  0
    0.8774   20.9267  -31.6480 H   0  0  0  0  0  0  0  0  0  0  0  0
   -1.6011   21.6673  -34.2379 H   0  0  0  0  0  0  0  0  0  0  0  0
   -3.6702   22.8673  -33.5370 H   0  0  0  0  0  0  0  0  0  0  0  0
   -8.3635   20.6916  -33.4166 H   0  0  0  0  0  0  0  0  0  0  0  0
   -6.6697   20.5263  -34.0339 H   0  0  0  0  0  0  0  0  0  0  0  0
   -6.3800   19.3018  -31.6445 H   0  0  0  0  0  0  0  0  0  0  0  0
   -8.1380   18.9605  -31.9611 H   0  0  0  0  0  0  0  0  0  0  0  0
   -6.1281   17.3570  -32.8332 H   0  0  0  0  0  0  0  0  0  0  0  0
   -7.6996   17.5432  -33.6825 H   0  0  0  0  0  0  0  0  0  0  0  0
   -6.8290   18.9130  -35.0850 H   0  0  0  0  0  0  0  0  0  0  0  0
  1  2  1  0
  2  3  2  0
  3  4  1  0
  4  5  1  0
  5  6  2  0
  5  7  1  0
  7  8  1  0
  8  9  1  0
  9 10  1  0
 10 11  1  0
 10 12  1  0
 12 13  1  0
  4 14  2  0
 14 15  1  0
 15 16  2  0
 16 17  1  0
 17 18  2  0
 18 19  1  0
 19 20  2  0
 19 21  2  0
 19 22  1  0
 22 23  1  0
 23 24  1  0
 24 25  1  0
 25 26  1  0
 18 27  1  0
 27 28  2  0
 14 29  1  0
 29 30  1  0
 30 31  1  0
 31 32  1  0
 32 33  1  0
 29  2  1  0
 13  7  1  0
 28 15  1  0
 26 22  1  0
  1 34  1  0
  1 35  1  0
  1 36  1  0
  3 37  1  0
  8 38  1  0
  8 39  1  0
  9 40  1  0
  9 41  1  0
 10 42  1  0
 11 43  1  0
 11 44  1  0
 11 45  1  0
 12 46  1  0
 12 47  1  0
 13 48  1  0
 13 49  1  0
 16 50  1  0
 17 51  1  0
 23 52  1  0
 23 53  1  0
 24 54  1  0
 24 55  1  0
 25 56  1  0
 25 57  1  0
 26 58  1  0
 26 59  1  0
 27 60  1  0
 28 61  1  0
 30 62  1  0
 30 63  1  0
 31 64  1  0
 31 65  1  0
 32 66  1  0
 32 67  1  0
 33 68  1  0
M  CHG  1  10   1
M  END
>  <UniqueID>  (37) 
37

>  <SMILES>  (37) 
Cc1cc(C(=O)N2CC[NH+](C)CC2)c(-c2ccc(S(=O)(=O)N3CCCC3)cc2)n1CCCO

>  <Energy>  (37) 
108.63196058795958

>  <Genealogy>  (37) 
Cc1cc(C(=O)N2CC[NH+](C)CC2)c(-c2ccc(S(=O)(=O)N3CCCC3)cc2)n1CCCO (protonated)
Cc1cc(C(=O)N2CC[NH+](C)CC2)c(-c2ccc(S(=O)(=O)N3CCCC3)cc2)n1CCCO (3D coordinates assigned)
Cc1cc(C(=O)N2CC[NH+](C)CC2)c(-c2ccc(S(=O)(=O)N3CCCC3)cc2)n1CCCO (nonaromatic ring conformer: 108.63196058795958 kcal/mol)

>  <smiles>  (37) 
Cc1cc(C(=O)N2CCN(C)CC2)c(-c2ccc(S(=O)(=O)N3CCCC3)cc2)n1CCCO

>  <score_type>  (37) 
oracle

>  <origin>  (37) 
adgpu

>  <m_score__min__energy>  (37) 
-9.8300000000000001

>  <m_primary>  (37) 
energy

$$$$
37:0
     RDKit          3D

 25 26  0  0  0  0  0  0  0  0999 V2000
   -4.7836   19.3485  -33.8056 H   0  0  0  0  0  0  0  0  0  0  0  0
   -5.7490   19.5700  -33.3270 C   0  0  0  0  0  0  0  0  0  0  0  0
   -5.9970   20.8470  -32.8120 C   0  0  0  0  0  0  0  0  0  0  0  0
   -5.2272   21.6289  -32.8889 H   0  0  0  0  0  0  0  0  0  0  0  0
   -7.2250   21.1320  -32.1980 C   0  0  0  0  0  0  0  0  0  0  0  0
   -7.5440   22.7350  -31.5420 S   0  0  0  0  0  0  0  0  0  0  0  0
   -8.6200   23.4260  -32.3330 O   0  0  0  0  0  0  0  0  0  0  0  0
   -7.9950   22.5970  -30.1150 O   0  0  0  0  0  0  0  0  0  0  0  0
   -6.1010   23.6960  -31.5930 N   0  0  0  0  0  0  0  0  0  0  0  0
   -5.2800   23.8110  -30.5950 C   0  0  0  0  0  0  0  0  0  0  0  0
   -4.1620   24.5940  -30.7010 N   0  0  0  0  0  0  0  0  0  0  0  0
   -3.4480   24.5820  -29.5560 C   0  0  0  0  0  0  0  0  0  0  0  0
   -2.2580   25.2780  -29.3450 O   0  0  0  0  0  0  0  0  0  0  0  0
   -1.3620   24.9420  -28.2920 C   0  0  0  0  0  0  0  0  0  0  0  0
   -1.8497   25.1249  -27.3232 H   0  0  0  0  0  0  0  0  0  0  0  0
   -1.0871   23.8797  -28.3694 H   0  0  0  0  0  0  0  0  0  0  0  0
   -0.4564   25.5616  -28.3694 H   0  0  0  0  0  0  0  0  0  0  0  0
   -4.2090   23.6130  -28.4480 S   0  0  0  0  0  0  0  0  0  0  0  0
   -5.4910   23.1710  -29.4080 N   0  0  0  0  0  0  0  0  0  0  0  0
   -8.2050   20.1330  -32.1120 C   0  0  0  0  0  0  0  0  0  0  0  0
   -9.1729   20.3532  -31.6381 H   0  0  0  0  0  0  0  0  0  0  0  0
   -7.9550   18.8580  -32.6270 C   0  0  0  0  0  0  0  0  0  0  0  0
   -8.7251   18.0759  -32.5549 H   0  0  0  0  0  0  0  0  0  0  0  0
   -6.7270   18.5750  -33.2340 C   0  0  0  0  0  0  0  0  0  0  0  0
   -6.4860   17.3380  -33.7340 F   0  0  0  0  0  0  0  0  0  0  0  0
  1  2  1  0
  2  3  2  0
  3  4  1  0
  3  5  1  0
  5  6  1  0
  6  7  2  0
  6  8  2  0
  6  9  1  0
  9 10  2  0
 10 11  1  0
 11 12  2  0
 12 13  1  0
 13 14  1  0
 14 15  1  0
 14 16  1  0
 14 17  1  0
 12 18  1  0
 18 19  1  0
  5 20  2  0
 20 21  1  0
 20 22  1  0
 22 23  1  0
 22 24  2  0
 24 25  1  0
 24  2  1  0
 19 10  1  0
M  CHG  1  19  -1
M  END
>  <UniqueID>  (38) 
38

>  <SMILES>  (38) 
COc1n/c(=N/S(=O)(=O)c2ccc(F)cc2)[n-]s1

>  <Energy>  (38) 
63.3349448255607

>  <Genealogy>  (38) 
COc1nc(=NS(=O)(=O)c2ccc(F)cc2)[n-]s1 (protonated)
COc1n/c(=N/S(=O)(=O)c2ccc(F)cc2)[n-]s1 (cis-trans isomerization)
COc1n/c(=N/S(=O)(=O)c2ccc(F)cc2)[n-]s1 (3D coordinates assigned)
COc1n/c(=N/S(=O)(=O)c2ccc(F)cc2)[n-]s1 (optimized conformer: 63.3349448255607 kcal/mol)

>  <smiles>  (38) 
COc1nc(=NS(=O)(=O)c2ccc(F)cc2)[nH]s1

>  <score_type>  (38) 
oracle

>  <origin>  (38) 
adgpu

>  <m_score__min__energy>  (38) 
-8.2599999999999998

>  <m_primary>  (38) 
energy

$$$$
38:0
     RDKit          3D

 53 56  0  0  0  0  0  0  0  0999 V2000
   -3.0640   19.6830  -33.8200 C   0  0  0  0  0  0  0  0  0  0  0  0
   -2.1800   19.8900  -32.6750 N   0  0  0  0  0  0  0  0  0  0  0  0
   -1.1200   19.1330  -32.2970 C   0  0  0  0  0  0  0  0  0  0  0  0
   -0.7800   18.0700  -32.8840 O   0  0  0  0  0  0  0  0  0  0  0  0
   -0.4490   19.6500  -31.2370 N   0  0  0  0  0  0  0  0  0  0  0  0
    0.7900   19.1590  -30.6350 C   0  0  0  0  0  0  0  0  0  0  0  0
   -1.0970   20.8020  -30.9680 C   0  0  0  0  0  0  0  0  0  0  0  0
   -0.7870   21.7780  -30.0220 C   0  0  0  0  0  0  0  0  0  0  0  0
   -1.6050   22.9260  -29.9600 C   0  0  0  0  0  0  0  0  0  0  0  0
   -1.2400   24.1840  -28.7720 S   0  0  0  0  0  0  0  0  0  0  0  0
   -1.5970   25.5290  -29.3400 O   0  0  0  0  0  0  0  0  0  0  0  0
    0.2380   24.1710  -28.4970 O   0  0  0  0  0  0  0  0  0  0  0  0
   -2.1210   23.8730  -27.2870 N   0  0  0  0  0  0  0  0  0  0  0  0
   -2.5720   25.1190  -26.6290 C   0  0  0  0  0  0  0  0  0  0  0  0
   -1.4550   25.7830  -25.8100 C   0  0  0  0  0  0  0  0  0  0  0  0
   -0.9190   24.8780  -24.8700 O   0  0  0  0  0  0  0  0  0  0  0  0
   -0.3170   23.7940  -25.5480 C   0  0  0  0  0  0  0  0  0  0  0  0
   -1.3580   23.0080  -26.3630 C   0  0  0  0  0  0  0  0  0  0  0  0
   -2.7020   23.0710  -30.8580 C   0  0  0  0  0  0  0  0  0  0  0  0
   -3.5170   24.2480  -30.8070 N   0  0  0  0  0  0  0  0  0  0  0  0
   -5.0390   24.3040  -29.9770 S   0  0  0  0  0  0  0  0  0  0  0  0
   -5.5520   25.7170  -29.9940 O   0  0  0  0  0  0  0  0  0  0  0  0
   -4.8340   23.8930  -28.5430 O   0  0  0  0  0  0  0  0  0  0  0  0
   -6.2280   23.2540  -30.7450 C   0  0  0  0  0  0  0  0  0  0  0  0
   -7.4460   23.7850  -31.1980 C   0  0  0  0  0  0  0  0  0  0  0  0
   -8.3640   22.9660  -31.8650 C   0  0  0  0  0  0  0  0  0  0  0  0
   -8.0690   21.6170  -32.0880 C   0  0  0  0  0  0  0  0  0  0  0  0
   -6.8550   21.0810  -31.6400 C   0  0  0  0  0  0  0  0  0  0  0  0
   -6.4390   19.2460  -31.9700 Br  0  0  0  0  0  0  0  0  0  0  0  0
   -5.9380   21.8970  -30.9650 C   0  0  0  0  0  0  0  0  0  0  0  0
   -2.9540   22.0790  -31.8290 C   0  0  0  0  0  0  0  0  0  0  0  0
   -2.1420   20.9480  -31.8380 C   0  0  0  0  0  0  0  0  0  0  0  0
   -4.0770   19.4458  -33.4629 H   0  0  0  0  0  0  0  0  0  0  0  0
   -3.0950   20.5982  -34.4295 H   0  0  0  0  0  0  0  0  0  0  0  0
   -2.6854   18.8492  -34.4295 H   0  0  0  0  0  0  0  0  0  0  0  0
    0.7038   19.1932  -29.5389 H   0  0  0  0  0  0  0  0  0  0  0  0
    0.9682   18.1223  -30.9566 H   0  0  0  0  0  0  0  0  0  0  0  0
    1.6300   19.7922  -30.9566 H   0  0  0  0  0  0  0  0  0  0  0  0
    0.0704   21.6566  -29.3436 H   0  0  0  0  0  0  0  0  0  0  0  0
   -2.9790   23.3430  -27.5710 H   0  0  0  0  0  0  0  0  0  0  0  0
   -2.9111   25.8244  -27.4019 H   0  0  0  0  0  0  0  0  0  0  0  0
   -3.3869   24.8585  -25.9375 H   0  0  0  0  0  0  0  0  0  0  0  0
   -0.6557   26.1123  -26.4903 H   0  0  0  0  0  0  0  0  0  0  0  0
   -1.8767   26.6439  -25.2706 H   0  0  0  0  0  0  0  0  0  0  0  0
    0.4562   24.1800  -26.2286 H   0  0  0  0  0  0  0  0  0  0  0  0
    0.1284   23.1182  -24.8031 H   0  0  0  0  0  0  0  0  0  0  0  0
   -0.8379   22.2366  -26.9498 H   0  0  0  0  0  0  0  0  0  0  0  0
   -2.0718   22.5628  -25.6543 H   0  0  0  0  0  0  0  0  0  0  0  0
   -7.6792   24.8465  -31.0284 H   0  0  0  0  0  0  0  0  0  0  0  0
   -9.3195   23.3840  -32.2146 H   0  0  0  0  0  0  0  0  0  0  0  0
   -8.7911   20.9765  -32.6157 H   0  0  0  0  0  0  0  0  0  0  0  0
   -4.9881   21.4741  -30.6061 H   0  0  0  0  0  0  0  0  0  0  0  0
   -3.7690   22.1958  -32.5584 H   0  0  0  0  0  0  0  0  0  0  0  0
  1  2  1  0
  2  3  1  0
  3  4  2  0
  3  5  1  0
  5  6  1  0
  5  7  1  0
  7  8  2  0
  8  9  1  0
  9 10  1  0
 10 11  2  0
 10 12  2  0
 10 13  1  0
 13 14  1  0
 14 15  1  0
 15 16  1  0
 16 17  1  0
 17 18  1  0
  9 19  2  0
 19 20  1  0
 20 21  1  0
 21 22  2  0
 21 23  2  0
 21 24  1  0
 24 25  2  0
 25 26  1  0
 26 27  2  0
 27 28  1  0
 28 29  1  0
 28 30  2  0
 19 31  1  0
 31 32  2  0
 32  2  1  0
 32  7  1  0
 18 13  1  0
 30 24  1  0
  1 33  1  0
  1 34  1  0
  1 35  1  0
  6 36  1  0
  6 37  1  0
  6 38  1  0
  8 39  1  0
 13 40  1  0
 14 41  1  0
 14 42  1  0
 15 43  1  0
 15 44  1  0
 17 45  1  0
 17 46  1  0
 18 47  1  0
 18 48  1  0
 25 49  1  0
 26 50  1  0
 27 51  1  0
 30 52  1  0
 31 53  1  0
M  CHG  2  13   1  20  -1
M  END
>  <UniqueID>  (39) 
39

>  <SMILES>  (39) 
Cn1c(=O)n(C)c2cc(S(=O)(=O)[NH+]3CCOCC3)c([N-]S(=O)(=O)c3cccc(Br)c3)cc21

>  <Energy>  (39) 
107.65285799067316

>  <Genealogy>  (39) 
Cn1c(=O)n(C)c2cc(S(=O)(=O)[NH+]3CCOCC3)c([N-]S(=O)(=O)c3cccc(Br)c3)cc21 (protonated)
Cn1c(=O)n(C)c2cc(S(=O)(=O)[NH+]3CCOCC3)c([N-]S(=O)(=O)c3cccc(Br)c3)cc21 (3D coordinates assigned)
Cn1c(=O)n(C)c2cc(S(=O)(=O)[NH+]3CCOCC3)c([N-]S(=O)(=O)c3cccc(Br)c3)cc21 (nonaromatic ring conformer: 107.65285799067316 kcal/mol)

>  <smiles>  (39) 
Cn1c(=O)n(C)c2cc(S(=O)(=O)N3CCOCC3)c(NS(=O)(=O)c3cccc(Br)c3)cc21

>  <score_type>  (39) 
oracle

>  <origin>  (39) 
adgpu

>  <m_score__min__energy>  (39) 
-10.51

>  <m_primary>  (39) 
energy

$$$$
39:0
     RDKit          3D

 42 44  0  0  0  0  0  0  0  0999 V2000
   -5.4580   17.9950  -32.5000 C   0  0  0  0  0  0  0  0  0  0  0  0
   -4.8420   19.2250  -32.0050 N   0  0  0  0  0  0  0  0  0  0  0  0
   -5.2130   20.5420  -33.0760 S   0  0  0  0  0  0  0  0  0  0  0  0
   -3.9480   21.0370  -33.7240 O   0  0  0  0  0  0  0  0  0  0  0  0
   -6.1410   20.0600  -34.1540 O   0  0  0  0  0  0  0  0  0  0  0  0
   -5.9920   21.8510  -32.1890 C   0  0  0  0  0  0  0  0  0  0  0  0
   -7.2880   21.6770  -31.6910 C   0  0  0  0  0  0  0  0  0  0  0  0
   -7.8910   22.6830  -30.9330 C   0  0  0  0  0  0  0  0  0  0  0  0
   -7.1960   23.8620  -30.6550 C   0  0  0  0  0  0  0  0  0  0  0  0
   -5.8900   24.0460  -31.1400 C   0  0  0  0  0  0  0  0  0  0  0  0
   -5.1290   25.2680  -30.8040 C   0  0  0  0  0  0  0  0  0  0  0  0
   -5.7210   26.3800  -30.7830 O   0  0  0  0  0  0  0  0  0  0  0  0
   -3.7350   25.2200  -30.4690 N   0  0  0  0  0  0  0  0  0  0  0  0
   -3.0740   24.1390  -29.7950 C   0  0  0  0  0  0  0  0  0  0  0  0
   -2.9520   24.1820  -28.4020 C   0  0  0  0  0  0  0  0  0  0  0  0
   -2.3280   23.1380  -27.7170 C   0  0  0  0  0  0  0  0  0  0  0  0
   -1.8060   22.0490  -28.4200 C   0  0  0  0  0  0  0  0  0  0  0  0
   -1.8820   22.0020  -29.8230 C   0  0  0  0  0  0  0  0  0  0  0  0
   -1.3300   20.8320  -30.5560 C   0  0  0  0  0  0  0  0  0  0  0  0
   -0.0840   20.2710  -30.2260 C   0  0  0  0  0  0  0  0  0  0  0  0
    0.3760   19.1810  -30.9630 C   0  0  0  0  0  0  0  0  0  0  0  0
   -0.3780   18.6750  -31.9720 N   0  0  0  0  0  0  0  0  0  0  0  0
   -1.5840   19.2160  -32.2780 C   0  0  0  0  0  0  0  0  0  0  0  0
   -2.2870   18.7150  -33.2400 N   0  0  0  0  0  0  0  0  0  0  0  0
   -2.0490   20.2810  -31.5720 N   0  0  0  0  0  0  0  0  0  0  0  0
   -2.5140   23.0600  -30.5050 C   0  0  0  0  0  0  0  0  0  0  0  0
   -5.2990   23.0400  -31.9210 C   0  0  0  0  0  0  0  0  0  0  0  0
   -5.7697   17.3726  -31.6483 H   0  0  0  0  0  0  0  0  0  0  0  0
   -6.3369   18.2457  -33.1121 H   0  0  0  0  0  0  0  0  0  0  0  0
   -4.7308   17.4413  -33.1121 H   0  0  0  0  0  0  0  0  0  0  0  0
   -3.8050   19.0930  -32.0270 H   0  0  0  0  0  0  0  0  0  0  0  0
   -7.8338   20.7445  -31.8973 H   0  0  0  0  0  0  0  0  0  0  0  0
   -8.9147   22.5466  -30.5544 H   0  0  0  0  0  0  0  0  0  0  0  0
   -7.6730   24.6500  -30.0538 H   0  0  0  0  0  0  0  0  0  0  0  0
   -3.3496   25.0425  -27.8439 H   0  0  0  0  0  0  0  0  0  0  0  0
   -2.2470   23.1727  -26.6205 H   0  0  0  0  0  0  0  0  0  0  0  0
   -1.3318   21.2219  -27.8713 H   0  0  0  0  0  0  0  0  0  0  0  0
    0.5164   20.6842  -29.4021 H   0  0  0  0  0  0  0  0  0  0  0  0
    1.3512   18.7303  -30.7267 H   0  0  0  0  0  0  0  0  0  0  0  0
   -3.2190   19.1100  -33.4990 H   0  0  0  0  0  0  0  0  0  0  0  0
   -2.5706   23.0430  -31.6034 H   0  0  0  0  0  0  0  0  0  0  0  0
   -4.2863   23.1855  -32.3250 H   0  0  0  0  0  0  0  0  0  0  0  0
  1  2  1  0
  2  3  1  0
  3  4  2  0
  3  5  2  0
  3  6  1  0
  6  7  2  0
  7  8  1  0
  8  9  2  0
  9 10  1  0
 10 11  1  0
 11 12  2  0
 11 13  1  0
 13 14  1  0
 14 15  2  0
 15 16  1  0
 16 17  2  0
 17 18  1  0
 18 19  1  0
 19 20  1  0
 20 21  2  0
 21 22  1  0
 22 23  1  0
 23 24  2  3
 23 25  1  0
 18 26  2  0
 10 27  2  0
 27  6  1  0
 26 14  1  0
 25 19  2  0
  1 28  1  0
  1 29  1  0
  1 30  1  0
  2 31  1  0
  7 32  1  0
  8 33  1  0
  9 34  1  0
 15 35  1  0
 16 36  1  0
 17 37  1  0
 20 38  1  0
 21 39  1  0
 24 40  1  0
 26 41  1  0
 27 42  1  0
M  CHG  2  13  -1  22  -1
M  END
>  <UniqueID>  (40) 
40

>  <SMILES>  (40) 
CNS(=O)(=O)c1cccc(C(=O)[N-]c2cccc(-c3cc[n-]c(=N)n3)c2)c1

>  <Energy>  (40) 
51.542636642914374

>  <Genealogy>  (40) 
CNS(=O)(=O)c1cccc(C(=O)[N-]c2cccc(-c3cc[n-]c(=N)n3)c2)c1 (protonated)
CNS(=O)(=O)c1cccc(C(=O)[N-]c2cccc(-c3cc[n-]c(=N)n3)c2)c1 (3D coordinates assigned)
CNS(=O)(=O)c1cccc(C(=O)[N-]c2cccc(-c3cc[n-]c(=N)n3)c2)c1 (optimized conformer: 51.542636642914374 kcal/mol)

>  <smiles>  (40) 
CNS(=O)(=O)c1cccc(C(=O)Nc2cccc(-c3cc[nH]c(=N)n3)c2)c1

>  <score_type>  (40) 
oracle

>  <origin>  (40) 
adgpu

>  <m_score__min__energy>  (40) 
-10.039999999999999

>  <m_primary>  (40) 
energy

$$$$
40:0
     RDKit          3D

 59 62  0  0  0  0  0  0  0  0999 V2000
   -0.2700   21.1340  -33.1130 C   0  0  0  0  0  0  0  0  0  0  0  0
   -1.4620   20.8830  -32.2370 C   0  0  0  0  0  0  0  0  0  0  0  0
   -1.3470   20.9760  -30.8420 C   0  0  0  0  0  0  0  0  0  0  0  0
   -2.4450   20.6820  -30.0180 C   0  0  0  0  0  0  0  0  0  0  0  0
   -2.3300   20.8230  -28.5290 C   0  0  0  0  0  0  0  0  0  0  0  0
   -3.6670   20.3140  -30.5990 C   0  0  0  0  0  0  0  0  0  0  0  0
   -3.7880   20.2110  -31.9900 C   0  0  0  0  0  0  0  0  0  0  0  0
   -5.3170   19.7010  -32.7020 S   0  0  0  0  0  0  0  0  0  0  0  0
   -5.6100   18.2840  -32.2930 O   0  0  0  0  0  0  0  0  0  0  0  0
   -5.1660   19.7560  -34.1970 O   0  0  0  0  0  0  0  0  0  0  0  0
   -6.6510   20.7520  -32.1870 C   0  0  0  0  0  0  0  0  0  0  0  0
   -7.9050   20.1650  -31.9360 C   0  0  0  0  0  0  0  0  0  0  0  0
   -8.9680   20.9310  -31.4570 C   0  0  0  0  0  0  0  0  0  0  0  0
   -8.7990   22.2930  -31.2210 C   0  0  0  0  0  0  0  0  0  0  0  0
   -7.5690   22.8990  -31.4790 C   0  0  0  0  0  0  0  0  0  0  0  0
   -6.4870   22.1500  -31.9800 C   0  0  0  0  0  0  0  0  0  0  0  0
   -5.2270   22.8710  -32.2770 C   0  0  0  0  0  0  0  0  0  0  0  0
   -4.5230   22.5390  -33.2660 O   0  0  0  0  0  0  0  0  0  0  0  0
   -4.8140   23.9480  -31.4220 N   0  0  0  0  0  0  0  0  0  0  0  0
   -4.3240   23.8480  -30.0770 C   0  0  0  0  0  0  0  0  0  0  0  0
   -4.9410   23.0310  -29.1110 C   0  0  0  0  0  0  0  0  0  0  0  0
   -4.4270   22.9700  -27.8120 C   0  0  0  0  0  0  0  0  0  0  0  0
   -3.2920   23.7070  -27.4690 C   0  0  0  0  0  0  0  0  0  0  0  0
   -2.6540   24.5060  -28.4280 C   0  0  0  0  0  0  0  0  0  0  0  0
   -1.2230   25.4460  -27.9950 S   0  0  0  0  0  0  0  0  0  0  0  0
   -1.3340   25.8790  -26.5600 O   0  0  0  0  0  0  0  0  0  0  0  0
   -1.1670   26.6820  -28.8500 O   0  0  0  0  0  0  0  0  0  0  0  0
    0.2530   24.5290  -28.2110 N   0  0  0  0  0  0  0  0  0  0  0  0
   -0.0340   23.1360  -28.5880 C   0  0  0  0  0  0  0  0  0  0  0  0
    0.3820   22.2240  -27.4380 C   0  0  0  0  0  0  0  0  0  0  0  0
    0.7770   23.1440  -26.3070 C   0  0  0  0  0  0  0  0  0  0  0  0
    1.0370   24.4810  -26.9720 C   0  0  0  0  0  0  0  0  0  0  0  0
   -3.1640   24.5560  -29.7340 C   0  0  0  0  0  0  0  0  0  0  0  0
   -2.6810   20.4830  -32.8060 C   0  0  0  0  0  0  0  0  0  0  0  0
    0.6138   21.3201  -32.4851 H   0  0  0  0  0  0  0  0  0  0  0  0
   -0.0899   20.2541  -33.7481 H   0  0  0  0  0  0  0  0  0  0  0  0
   -0.4600   22.0118  -33.7481 H   0  0  0  0  0  0  0  0  0  0  0  0
   -0.3911   21.2810  -30.3912 H   0  0  0  0  0  0  0  0  0  0  0  0
   -2.9525   20.0597  -28.0393 H   0  0  0  0  0  0  0  0  0  0  0  0
   -1.2806   20.6887  -28.2279 H   0  0  0  0  0  0  0  0  0  0  0  0
   -2.6726   21.8240  -28.2279 H   0  0  0  0  0  0  0  0  0  0  0  0
   -4.5360   20.1049  -29.9578 H   0  0  0  0  0  0  0  0  0  0  0  0
   -8.0487   19.0900  -32.1196 H   0  0  0  0  0  0  0  0  0  0  0  0
   -9.9423   20.4579  -31.2652 H   0  0  0  0  0  0  0  0  0  0  0  0
   -9.6356   22.8913  -30.8310 H   0  0  0  0  0  0  0  0  0  0  0  0
   -7.4430   23.9751  -31.2887 H   0  0  0  0  0  0  0  0  0  0  0  0
   -5.8290   22.4395  -29.3784 H   0  0  0  0  0  0  0  0  0  0  0  0
   -4.9189   22.3388  -27.0573 H   0  0  0  0  0  0  0  0  0  0  0  0
   -2.8972   23.6606  -26.4433 H   0  0  0  0  0  0  0  0  0  0  0  0
   -1.1103   23.0192  -28.7827 H   0  0  0  0  0  0  0  0  0  0  0  0
    0.5240   22.8708  -29.4981 H   0  0  0  0  0  0  0  0  0  0  0  0
   -0.4583   21.5824  -27.1344 H   0  0  0  0  0  0  0  0  0  0  0  0
    1.2090   21.5587  -27.7270 H   0  0  0  0  0  0  0  0  0  0  0  0
   -0.0376   23.2279  -25.5726 H   0  0  0  0  0  0  0  0  0  0  0  0
    1.6553   22.7746  -25.7573 H   0  0  0  0  0  0  0  0  0  0  0  0
    0.7283   25.2975  -26.3027 H   0  0  0  0  0  0  0  0  0  0  0  0
    2.1085   24.5973  -27.1921 H   0  0  0  0  0  0  0  0  0  0  0  0
   -2.6480   25.1573  -30.4970 H   0  0  0  0  0  0  0  0  0  0  0  0
   -2.7683   20.3824  -33.8979 H   0  0  0  0  0  0  0  0  0  0  0  0
  1  2  1  0
  2  3  2  0
  3  4  1  0
  4  5  1  0
  4  6  2  0
  6  7  1  0
  7  8  1  0
  8  9  2  0
  8 10  2  0
  8 11  1  0
 11 12  2  0
 12 13  1  0
 13 14  2  0
 14 15  1  0
 15 16  2  0
 16 17  1  0
 17 18  2  0
 17 19  1  0
 19 20  1  0
 20 21  2  0
 21 22  1  0
 22 23  2  0
 23 24  1  0
 24 25  1  0
 25 26  2  0
 25 27  2  0
 25 28  1  0
 28 29  1  0
 29 30  1  0
 30 31  1  0
 31 32  1  0
 24 33  2  0
  7 34  2  0
 34  2  1  0
 16 11  1  0
 33 20  1  0
 32 28  1  0
  1 35  1  0
  1 36  1  0
  1 37  1  0
  3 38  1  0
  5 39  1  0
  5 40  1  0
  5 41  1  0
  6 42  1  0
 12 43  1  0
 13 44  1  0
 14 45  1  0
 15 46  1  0
 21 47  1  0
 22 48  1  0
 23 49  1  0
 29 50  1  0
 29 51  1  0
 30 52  1  0
 30 53  1  0
 31 54  1  0
 31 55  1  0
 32 56  1  0
 32 57  1  0
 33 58  1  0
 34 59  1  0
M  CHG  1  19  -1
M  END
>  <UniqueID>  (41) 
41

>  <SMILES>  (41) 
Cc1cc(C)cc(S(=O)(=O)c2ccccc2C(=O)[N-]c2cccc(S(=O)(=O)N3CCCC3)c2)c1

>  <Energy>  (41) 
73.1905401993012

>  <Genealogy>  (41) 
Cc1cc(C)cc(S(=O)(=O)c2ccccc2C(=O)[N-]c2cccc(S(=O)(=O)N3CCCC3)c2)c1 (protonated)
Cc1cc(C)cc(S(=O)(=O)c2ccccc2C(=O)[N-]c2cccc(S(=O)(=O)N3CCCC3)c2)c1 (3D coordinates assigned)
Cc1cc(C)cc(S(=O)(=O)c2ccccc2C(=O)[N-]c2cccc(S(=O)(=O)N3CCCC3)c2)c1 (nonaromatic ring conformer: 73.1905401993012 kcal/mol)

>  <smiles>  (41) 
Cc1cc(C)cc(S(=O)(=O)c2ccccc2C(=O)Nc2cccc(S(=O)(=O)N3CCCC3)c2)c1

>  <score_type>  (41) 
oracle

>  <origin>  (41) 
adgpu

>  <m_score__min__energy>  (41) 
-12.16

>  <m_primary>  (41) 
energy

$$$$
41:0
     RDKit          3D

 58 61  0  0  0  0  0  0  0  0999 V2000
   -0.5930   23.5780  -25.6490 C   0  0  0  0  0  0  0  0  0  0  0  0
   -0.6760   22.9260  -26.9590 N   0  0  0  0  0  0  0  0  0  0  0  0
   -0.6030   21.4910  -27.0680 C   0  0  0  0  0  0  0  0  0  0  0  0
   -1.6050   20.6810  -26.5050 C   0  0  0  0  0  0  0  0  0  0  0  0
   -1.5350   19.2900  -26.6120 C   0  0  0  0  0  0  0  0  0  0  0  0
   -0.4600   18.6880  -27.2770 C   0  0  0  0  0  0  0  0  0  0  0  0
   -0.3850   17.3010  -27.3920 O   0  0  0  0  0  0  0  0  0  0  0  0
    0.5470   19.4850  -27.8270 C   0  0  0  0  0  0  0  0  0  0  0  0
    0.4820   20.8760  -27.7200 C   0  0  0  0  0  0  0  0  0  0  0  0
   -0.8400   23.9210  -28.3810 S   0  0  0  0  0  0  0  0  0  0  0  0
    0.5200   24.1780  -28.9680 O   0  0  0  0  0  0  0  0  0  0  0  0
   -1.4530   25.2380  -27.9920 O   0  0  0  0  0  0  0  0  0  0  0  0
   -1.8570   23.1360  -29.5860 C   0  0  0  0  0  0  0  0  0  0  0  0
   -1.4270   21.9810  -30.2520 C   0  0  0  0  0  0  0  0  0  0  0  0
   -2.2530   21.3700  -31.1970 C   0  0  0  0  0  0  0  0  0  0  0  0
   -3.5060   21.9170  -31.4950 C   0  0  0  0  0  0  0  0  0  0  0  0
   -3.9330   23.0930  -30.8590 C   0  0  0  0  0  0  0  0  0  0  0  0
   -5.2460   23.6800  -31.2050 C   0  0  0  0  0  0  0  0  0  0  0  0
   -5.3650   24.9410  -31.1570 O   0  0  0  0  0  0  0  0  0  0  0  0
   -6.3820   22.8710  -31.5890 N   0  0  0  0  0  0  0  0  0  0  0  0
   -7.6400   23.0230  -30.8290 C   0  0  0  0  0  0  0  0  0  0  0  0
   -8.6150   21.8580  -31.0530 C   0  0  0  0  0  0  0  0  0  0  0  0
   -7.8270   20.5610  -31.2380 C   0  0  1  0  0  0  0  0  0  0  0  0
   -8.7420   19.3130  -31.2150 C   0  0  0  0  0  0  0  0  0  0  0  0
   -8.1450   18.1140  -31.9900 C   0  0  0  0  0  0  0  0  0  0  0  0
   -6.6080   18.1410  -31.9900 C   0  0  0  0  0  0  0  0  0  0  0  0
   -6.0400   19.4370  -32.6190 C   0  0  0  0  0  0  0  0  0  0  0  0
   -7.0270   20.6260  -32.5500 C   0  0  2  0  0  0  0  0  0  0  0  0
   -6.3280   21.9940  -32.7730 C   0  0  0  0  0  0  0  0  0  0  0  0
   -3.1150   23.6800  -29.8820 C   0  0  0  0  0  0  0  0  0  0  0  0
   -0.6893   22.8216  -24.8562 H   0  0  0  0  0  0  0  0  0  0  0  0
    0.3772   24.0875  -25.5538 H   0  0  0  0  0  0  0  0  0  0  0  0
   -1.4047   24.3143  -25.5538 H   0  0  0  0  0  0  0  0  0  0  0  0
   -2.4502   21.1461  -25.9764 H   0  0  0  0  0  0  0  0  0  0  0  0
   -2.3269   18.6657  -26.1725 H   0  0  0  0  0  0  0  0  0  0  0  0
   -0.4990   16.6940  -26.5860 H   0  0  0  0  0  0  0  0  0  0  0  0
    1.3949   19.0149  -28.3467 H   0  0  0  0  0  0  0  0  0  0  0  0
    1.2842   21.4950  -28.1482 H   0  0  0  0  0  0  0  0  0  0  0  0
   -0.4374   21.5551  -30.0301 H   0  0  0  0  0  0  0  0  0  0  0  0
   -1.9179   20.4558  -31.7089 H   0  0  0  0  0  0  0  0  0  0  0  0
   -4.1586   21.4236  -32.2303 H   0  0  0  0  0  0  0  0  0  0  0  0
   -7.3986   23.0782  -29.7572 H   0  0  0  0  0  0  0  0  0  0  0  0
   -8.1327   23.9402  -31.1841 H   0  0  0  0  0  0  0  0  0  0  0  0
   -9.2785   21.7625  -30.1808 H   0  0  0  0  0  0  0  0  0  0  0  0
   -9.2171   22.0522  -31.9528 H   0  0  0  0  0  0  0  0  0  0  0  0
   -7.1335   20.4614  -30.3900 H   0  0  0  0  0  0  0  0  0  0  0  0
   -8.8984   19.0117  -30.1687 H   0  0  0  0  0  0  0  0  0  0  0  0
   -9.6865   19.5871  -31.7077 H   0  0  0  0  0  0  0  0  0  0  0  0
   -8.4845   17.1804  -31.5176 H   0  0  0  0  0  0  0  0  0  0  0  0
   -8.4876   18.1772  -33.0334 H   0  0  0  0  0  0  0  0  0  0  0  0
   -6.2535   18.0678  -30.9513 H   0  0  0  0  0  0  0  0  0  0  0  0
   -6.2578   17.2927  -32.5964 H   0  0  0  0  0  0  0  0  0  0  0  0
   -5.1205   19.7133  -32.0821 H   0  0  0  0  0  0  0  0  0  0  0  0
   -5.8486   19.2299  -33.6822 H   0  0  0  0  0  0  0  0  0  0  0  0
   -7.7394   20.5378  -33.3835 H   0  0  0  0  0  0  0  0  0  0  0  0
   -5.2731   21.8111  -33.0253 H   0  0  0  0  0  0  0  0  0  0  0  0
   -6.8630   22.5070  -33.5858 H   0  0  0  0  0  0  0  0  0  0  0  0
   -3.4632   24.5740  -29.3440 H   0  0  0  0  0  0  0  0  0  0  0  0
  1  2  1  0
  2  3  1  0
  3  4  2  0
  4  5  1  0
  5  6  2  0
  6  7  1  0
  6  8  1  0
  8  9  2  0
  2 10  1  0
 10 11  2  0
 10 12  2  0
 10 13  1  0
 13 14  2  0
 14 15  1  0
 15 16  2  0
 16 17  1  0
 17 18  1  0
 18 19  2  0
 18 20  1  0
 20 21  1  0
 21 22  1  0
 22 23  1  0
 23 24  1  0
 24 25  1  0
 25 26  1  0
 26 27  1  0
 27 28  1  0
 28 29  1  0
 17 30  2  0
  9  3  1  0
 30 13  1  0
 29 20  1  0
 28 23  1  0
  1 31  1  0
  1 32  1  0
  1 33  1  0
  4 34  1  0
  5 35  1  0
  7 36  1  0
  8 37  1  0
  9 38  1  0
 14 39  1  0
 15 40  1  0
 16 41  1  0
 21 42  1  0
 21 43  1  0
 22 44  1  0
 22 45  1  0
 23 46  1  1
 24 47  1  0
 24 48  1  0
 25 49  1  0
 25 50  1  0
 26 51  1  0
 26 52  1  0
 27 53  1  0
 27 54  1  0
 28 55  1  6
 29 56  1  0
 29 57  1  0
 30 58  1  0
M  END
>  <UniqueID>  (42) 
42

>  <SMILES>  (42) 
CN(c1ccc(O)cc1)S(=O)(=O)c1cccc(C(=O)N2CC[C@H]3CCCC[C@@H]3C2)c1

>  <Energy>  (42) 
78.26164094795556

>  <Genealogy>  (42) 
CN(c1ccc(O)cc1)S(=O)(=O)c1cccc(C(=O)N2CC[C@H]3CCCC[C@@H]3C2)c1 (chirality)
CN(c1ccc(O)cc1)S(=O)(=O)c1cccc(C(=O)N2CC[C@H]3CCCC[C@@H]3C2)c1 (3D coordinates assigned)
CN(c1ccc(O)cc1)S(=O)(=O)c1cccc(C(=O)N2CC[C@H]3CCCC[C@@H]3C2)c1 (nonaromatic ring conformer: 78.26164094795556 kcal/mol)

>  <smiles>  (42) 
CN(c1ccc(O)cc1)S(=O)(=O)c1cccc(C(=O)N2CCC3CCCCC3C2)c1

>  <score_type>  (42) 
oracle

>  <origin>  (42) 
adgpu

>  <m_score__min__energy>  (42) 
-11.220000000000001

>  <m_primary>  (42) 
energy

$$$$
42:0
     RDKit          3D

 39 41  0  0  0  0  0  0  0  0999 V2000
    3.7890   20.0890  -33.8330 H   0  0  0  0  0  0  0  0  0  0  0  0
    2.9820   20.5130  -34.2750 O   0  0  0  0  0  0  0  0  0  0  0  0
    1.7340   19.8940  -34.2590 C   0  0  0  0  0  0  0  0  0  0  0  0
    1.6140   18.5730  -34.6980 C   0  0  0  0  0  0  0  0  0  0  0  0
    2.5022   18.0298  -35.0530 H   0  0  0  0  0  0  0  0  0  0  0  0
    0.3690   17.9410  -34.6870 C   0  0  0  0  0  0  0  0  0  0  0  0
    0.2786   16.9008  -35.0332 H   0  0  0  0  0  0  0  0  0  0  0  0
   -0.7630   18.6270  -34.2370 C   0  0  0  0  0  0  0  0  0  0  0  0
   -1.7410   18.1236  -34.2305 H   0  0  0  0  0  0  0  0  0  0  0  0
   -0.6580   19.9590  -33.7920 C   0  0  0  0  0  0  0  0  0  0  0  0
   -1.8420   20.7070  -33.3110 C   0  0  0  0  0  0  0  0  0  0  0  0
   -1.8090   21.6030  -32.3540 O   0  0  0  0  0  0  0  0  0  0  0  0
   -3.0350   22.0430  -32.2060 C   0  0  0  0  0  0  0  0  0  0  0  0
   -3.3500   22.9610  -31.3410 N   0  0  0  0  0  0  0  0  0  0  0  0
   -4.6780   23.4530  -31.1030 C   0  0  0  0  0  0  0  0  0  0  0  0
   -5.7660   22.6130  -31.3730 C   0  0  0  0  0  0  0  0  0  0  0  0
   -5.5885   21.5938  -31.7468 H   0  0  0  0  0  0  0  0  0  0  0  0
   -7.0780   23.0600  -31.1710 C   0  0  0  0  0  0  0  0  0  0  0  0
   -8.4310   21.9710  -31.4700 S   0  0  0  0  0  0  0  0  0  0  0  0
   -9.0490   21.5460  -30.1670 O   0  0  0  0  0  0  0  0  0  0  0  0
   -9.4720   22.6880  -32.2810 O   0  0  0  0  0  0  0  0  0  0  0  0
   -7.8700   20.5320  -32.3660 C   0  0  0  0  0  0  0  0  0  0  0  0
   -6.7737   20.5654  -32.4492 H   0  0  0  0  0  0  0  0  0  0  0  0
   -8.3337   20.5386  -33.3635 H   0  0  0  0  0  0  0  0  0  0  0  0
   -8.2760   19.2490  -31.6520 C   0  0  0  0  0  0  0  0  0  0  0  0
   -8.2271   19.4036  -30.5640 H   0  0  0  0  0  0  0  0  0  0  0  0
   -9.3033   18.9795  -31.9382 H   0  0  0  0  0  0  0  0  0  0  0  0
   -7.5908   18.4375  -31.9382 H   0  0  0  0  0  0  0  0  0  0  0  0
   -7.3030   24.3600  -30.7010 C   0  0  0  0  0  0  0  0  0  0  0  0
   -8.3306   24.7077  -30.5189 H   0  0  0  0  0  0  0  0  0  0  0  0
   -6.2250   25.2160  -30.4630 C   0  0  0  0  0  0  0  0  0  0  0  0
   -6.4075   26.2405  -30.1065 H   0  0  0  0  0  0  0  0  0  0  0  0
   -4.9150   24.7760  -30.6760 C   0  0  0  0  0  0  0  0  0  0  0  0
   -3.8610   25.6640  -30.4900 O   0  0  0  0  0  0  0  0  0  0  0  0
   -3.9150   21.4680  -33.0540 N   0  0  0  0  0  0  0  0  0  0  0  0
   -3.1480   20.6120  -33.7560 C   0  0  0  0  0  0  0  0  0  0  0  0
   -3.5032   19.9445  -34.5549 H   0  0  0  0  0  0  0  0  0  0  0  0
    0.6010   20.5860  -33.8070 C   0  0  0  0  0  0  0  0  0  0  0  0
    0.6976   21.6260  -33.4619 H   0  0  0  0  0  0  0  0  0  0  0  0
  1  2  1  0
  2  3  1  0
  3  4  2  0
  4  5  1  0
  4  6  1  0
  6  7  1  0
  6  8  2  0
  8  9  1  0
  8 10  1  0
 10 11  1  0
 11 12  1  0
 12 13  1  0
 13 14  2  0
 14 15  1  0
 15 16  2  0
 16 17  1  0
 16 18  1  0
 18 19  1  0
 19 20  2  0
 19 21  2  0
 19 22  1  0
 22 23  1  0
 22 24  1  0
 22 25  1  0
 25 26  1  0
 25 27  1  0
 25 28  1  0
 18 29  2  0
 29 30  1  0
 29 31  1  0
 31 32  1  0
 31 33  2  0
 33 34  1  0
 13 35  1  0
 35 36  1  0
 36 37  1  0
 10 38  2  0
 38 39  1  0
 38  3  1  0
 36 11  2  0
 33 15  1  0
M  CHG  2  34  -1  35  -1
M  END
>  <UniqueID>  (43) 
43

>  <SMILES>  (43) 
CCS(=O)(=O)c1ccc([O-])c(/N=c2\[n-]cc(-c3cccc(O)c3)o2)c1

>  <Energy>  (43) 
74.29063747153006

>  <Genealogy>  (43) 
CCS(=O)(=O)c1ccc([O-])c(N=c2[n-]cc(-c3cccc(O)c3)o2)c1 (protonated)
CCS(=O)(=O)c1ccc([O-])c(/N=c2\[n-]cc(-c3cccc(O)c3)o2)c1 (cis-trans isomerization)
CCS(=O)(=O)c1ccc([O-])c(/N=c2\[n-]cc(-c3cccc(O)c3)o2)c1 (3D coordinates assigned)
CCS(=O)(=O)c1ccc([O-])c(/N=c2\[n-]cc(-c3cccc(O)c3)o2)c1 (optimized conformer: 74.29063747153006 kcal/mol)

>  <smiles>  (43) 
CCS(=O)(=O)c1ccc(O)c(N=c2[nH]cc(-c3cccc(O)c3)o2)c1

>  <score_type>  (43) 
oracle

>  <origin>  (43) 
adgpu

>  <m_score__min__energy>  (43) 
-11.029999999999999

>  <m_primary>  (43) 
energy

$$$$
43:0
     RDKit          3D

 65 68  0  0  0  0  0  0  0  0999 V2000
   -4.6560   21.3960  -33.1320 O   0  0  0  0  0  0  0  0  0  0  0  0
   -3.9270   20.9210  -32.2210 C   0  0  0  0  0  0  0  0  0  0  0  0
   -3.8430   19.4960  -32.0770 N   0  0  0  0  0  0  0  0  0  0  0  0
   -3.2310   18.5810  -32.9990 C   0  0  0  0  0  0  0  0  0  0  0  0
   -1.8320   18.4150  -33.0210 C   0  0  0  0  0  0  0  0  0  0  0  0
   -1.2360   17.5350  -33.9250 C   0  0  0  0  0  0  0  0  0  0  0  0
   -2.0240   16.8240  -34.8290 C   0  0  0  0  0  0  0  0  0  0  0  0
   -3.4100   16.9980  -34.8370 C   0  0  0  0  0  0  0  0  0  0  0  0
   -4.0250   17.8860  -33.9390 C   0  0  0  0  0  0  0  0  0  0  0  0
   -5.7850   18.0990  -34.0210 S   0  0  0  0  0  0  0  0  0  0  0  0
   -6.1330   18.7470  -35.3330 O   0  0  0  0  0  0  0  0  0  0  0  0
   -6.4680   16.7610  -33.9830 O   0  0  0  0  0  0  0  0  0  0  0  0
   -6.3850   19.1020  -32.7160 N   0  0  0  0  0  0  0  0  0  0  0  0
   -7.2690   20.1680  -33.2500 C   0  0  0  0  0  0  0  0  0  0  0  0
   -8.1160   20.7990  -32.1400 C   0  0  0  0  0  0  0  0  0  0  0  0
   -9.0650   19.7560  -31.5180 C   0  0  0  0  0  0  0  0  0  0  0  0
   -8.5430   18.3140  -31.6630 C   0  0  0  0  0  0  0  0  0  0  0  0
   -7.0060   18.2770  -31.6390 C   0  0  0  0  0  0  0  0  0  0  0  0
   -3.2160   21.8400  -31.3060 C   0  0  0  0  0  0  0  0  0  0  0  0
   -1.8210   21.7600  -31.1690 C   0  0  0  0  0  0  0  0  0  0  0  0
   -1.1490   22.6050  -30.2810 C   0  0  0  0  0  0  0  0  0  0  0  0
   -1.8590   23.5610  -29.5410 C   0  0  0  0  0  0  0  0  0  0  0  0
   -1.0130   24.6170  -28.4050 S   0  0  0  0  0  0  0  0  0  0  0  0
   -1.2580   26.0510  -28.7930 O   0  0  0  0  0  0  0  0  0  0  0  0
    0.4670   24.3610  -28.4880 O   0  0  0  0  0  0  0  0  0  0  0  0
   -1.5480   24.3450  -26.7620 N   0  0  0  0  0  0  0  0  0  0  0  0
   -2.2630   25.5410  -26.2690 C   0  0  0  0  0  0  0  0  0  0  0  0
   -1.3490   26.7660  -26.0720 C   0  0  0  0  0  0  0  0  0  0  0  0
   -0.3280   26.6160  -24.9320 C   0  0  0  0  0  0  0  0  0  0  0  0
   -0.6750   25.5540  -23.8610 C   0  0  0  0  0  0  0  0  0  0  0  0
   -0.7630   24.1080  -24.3910 C   0  0  0  0  0  0  0  0  0  0  0  0
   -0.4140   23.9600  -25.8950 C   0  0  0  0  0  0  0  0  0  0  0  0
   -3.2480   23.6620  -29.6960 C   0  0  0  0  0  0  0  0  0  0  0  0
   -3.9240   22.8040  -30.5670 C   0  0  0  0  0  0  0  0  0  0  0  0
   -1.2043   18.9841  -32.3195 H   0  0  0  0  0  0  0  0  0  0  0  0
   -0.1440   17.4022  -33.9244 H   0  0  0  0  0  0  0  0  0  0  0  0
   -1.5539   16.1253  -35.5367 H   0  0  0  0  0  0  0  0  0  0  0  0
   -4.0257   16.4343  -35.5533 H   0  0  0  0  0  0  0  0  0  0  0  0
   -5.5440   19.5730  -32.3060 H   0  0  0  0  0  0  0  0  0  0  0  0
   -6.6484   20.9485  -33.7144 H   0  0  0  0  0  0  0  0  0  0  0  0
   -7.9472   19.7175  -33.9897 H   0  0  0  0  0  0  0  0  0  0  0  0
   -7.4504   21.1931  -31.3579 H   0  0  0  0  0  0  0  0  0  0  0  0
   -8.7186   21.6107  -32.5736 H   0  0  0  0  0  0  0  0  0  0  0  0
   -9.1825   19.9815  -30.4478 H   0  0  0  0  0  0  0  0  0  0  0  0
  -10.0231   19.8174  -32.0550 H   0  0  0  0  0  0  0  0  0  0  0  0
   -8.9301   17.7064  -30.8317 H   0  0  0  0  0  0  0  0  0  0  0  0
   -8.8873   17.9130  -32.6277 H   0  0  0  0  0  0  0  0  0  0  0  0
   -6.6616   18.6554  -30.6652 H   0  0  0  0  0  0  0  0  0  0  0  0
   -6.6998   17.2338  -31.8064 H   0  0  0  0  0  0  0  0  0  0  0  0
   -1.2539   21.0286  -31.7635 H   0  0  0  0  0  0  0  0  0  0  0  0
   -0.0588   22.5195  -30.1624 H   0  0  0  0  0  0  0  0  0  0  0  0
   -3.0451   25.8036  -26.9965 H   0  0  0  0  0  0  0  0  0  0  0  0
   -2.6789   25.2858  -25.2832 H   0  0  0  0  0  0  0  0  0  0  0  0
   -0.7976   26.9387  -27.0080 H   0  0  0  0  0  0  0  0  0  0  0  0
   -2.0035   27.6074  -25.8004 H   0  0  0  0  0  0  0  0  0  0  0  0
    0.6400   26.3437  -25.3779 H   0  0  0  0  0  0  0  0  0  0  0  0
   -0.3185   27.5823  -24.4065 H   0  0  0  0  0  0  0  0  0  0  0  0
    0.1011   25.5867  -23.0822 H   0  0  0  0  0  0  0  0  0  0  0  0
   -1.6770   25.8083  -23.4849 H   0  0  0  0  0  0  0  0  0  0  0  0
   -0.0652   23.4853  -23.8120 H   0  0  0  0  0  0  0  0  0  0  0  0
   -1.8106   23.7927  -24.2770 H   0  0  0  0  0  0  0  0  0  0  0  0
    0.4462   24.6055  -26.1262 H   0  0  0  0  0  0  0  0  0  0  0  0
   -0.1785   22.9032  -26.0891 H   0  0  0  0  0  0  0  0  0  0  0  0
   -3.8085   24.4201  -29.1294 H   0  0  0  0  0  0  0  0  0  0  0  0
   -5.0158   22.8831  -30.6752 H   0  0  0  0  0  0  0  0  0  0  0  0
  1  2  2  0
  2  3  1  0
  3  4  1  0
  4  5  2  0
  5  6  1  0
  6  7  2  0
  7  8  1  0
  8  9  2  0
  9 10  1  0
 10 11  2  0
 10 12  2  0
 10 13  1  0
 13 14  1  0
 14 15  1  0
 15 16  1  0
 16 17  1  0
 17 18  1  0
  2 19  1  0
 19 20  2  0
 20 21  1  0
 21 22  2  0
 22 23  1  0
 23 24  2  0
 23 25  2  0
 23 26  1  0
 26 27  1  0
 27 28  1  0
 28 29  1  0
 29 30  1  0
 30 31  1  0
 31 32  1  0
 22 33  1  0
 33 34  2  0
  9  4  1  0
 18 13  1  0
 34 19  1  0
 32 26  1  0
  5 35  1  0
  6 36  1  0
  7 37  1  0
  8 38  1  0
 13 39  1  0
 14 40  1  0
 14 41  1  0
 15 42  1  0
 15 43  1  0
 16 44  1  0
 16 45  1  0
 17 46  1  0
 17 47  1  0
 18 48  1  0
 18 49  1  0
 20 50  1  0
 21 51  1  0
 27 52  1  0
 27 53  1  0
 28 54  1  0
 28 55  1  0
 29 56  1  0
 29 57  1  0
 30 58  1  0
 30 59  1  0
 31 60  1  0
 31 61  1  0
 32 62  1  0
 32 63  1  0
 33 64  1  0
 34 65  1  0
M  CHG  2   3  -1  13   1
M  END
>  <UniqueID>  (44) 
44

>  <SMILES>  (44) 
O=C([N-]c1ccccc1S(=O)(=O)[NH+]1CCCCC1)c1ccc(S(=O)(=O)N2CCCCCC2)cc1

>  <Energy>  (44) 
86.59608950427382

>  <Genealogy>  (44) 
O=C([N-]c1ccccc1S(=O)(=O)[NH+]1CCCCC1)c1ccc(S(=O)(=O)N2CCCCCC2)cc1 (protonated)
O=C([N-]c1ccccc1S(=O)(=O)[NH+]1CCCCC1)c1ccc(S(=O)(=O)N2CCCCCC2)cc1 (3D coordinates assigned)
O=C([N-]c1ccccc1S(=O)(=O)[NH+]1CCCCC1)c1ccc(S(=O)(=O)N2CCCCCC2)cc1 (nonaromatic ring conformer: 86.59608950427382 kcal/mol)

>  <smiles>  (44) 
O=C(Nc1ccccc1S(=O)(=O)N1CCCCC1)c1ccc(S(=O)(=O)N2CCCCCC2)cc1

>  <score_type>  (44) 
oracle

>  <origin>  (44) 
adgpu

>  <m_score__min__energy>  (44) 
-8.8499999999999996

>  <m_primary>  (44) 
energy

$$$$
44:0
     RDKit          3D

 38 40  0  0  0  0  0  0  0  0999 V2000
   -5.6010   15.2370  -33.9820 C   0  0  0  0  0  0  0  0  0  0  0  0
   -6.1930   16.6070  -33.9230 C   0  0  0  0  0  0  0  0  0  0  0  0
   -6.1570   17.3390  -34.9480 O   0  0  0  0  0  0  0  0  0  0  0  0
   -6.8780   17.0380  -32.7380 N   0  0  0  0  0  0  0  0  0  0  0  0
   -7.2910   18.3930  -32.4900 C   0  0  0  0  0  0  0  0  0  0  0  0
   -6.3170   19.3890  -32.3180 C   0  0  0  0  0  0  0  0  0  0  0  0
   -6.6910   20.7220  -32.1250 C   0  0  0  0  0  0  0  0  0  0  0  0
   -8.0440   21.0760  -32.1210 C   0  0  0  0  0  0  0  0  0  0  0  0
   -8.5240   22.7940  -31.9260 S   0  0  0  0  0  0  0  0  0  0  0  0
   -6.9840   23.4740  -32.6460 C   0  0  0  0  0  0  0  0  0  0  0  0
   -6.0350   23.9670  -31.5850 C   0  0  0  0  0  0  0  0  0  0  0  0
   -5.7810   25.1990  -31.5090 O   0  0  0  0  0  0  0  0  0  0  0  0
   -5.2680   23.0570  -30.7860 N   0  0  0  0  0  0  0  0  0  0  0  0
   -3.9560   23.2940  -30.2630 C   0  0  0  0  0  0  0  0  0  0  0  0
   -2.9490   22.3170  -30.4550 C   0  0  0  0  0  0  0  0  0  0  0  0
   -1.6390   22.5350  -29.9860 C   0  0  0  0  0  0  0  0  0  0  0  0
   -1.3710   23.7430  -29.3490 C   0  0  0  0  0  0  0  0  0  0  0  0
   -0.2030   24.1630  -28.8410 N   0  0  0  0  0  0  0  0  0  0  0  0
   -0.5250   25.3980  -28.3760 C   0  0  0  0  0  0  0  0  0  0  0  0
    0.3150   26.1440  -27.8110 O   0  0  0  0  0  0  0  0  0  0  0  0
   -1.8160   25.7710  -28.5660 N   0  0  0  0  0  0  0  0  0  0  0  0
   -2.3280   24.6970  -29.1840 C   0  0  0  0  0  0  0  0  0  0  0  0
   -3.6310   24.5180  -29.6360 C   0  0  0  0  0  0  0  0  0  0  0  0
   -9.0230   20.0910  -32.2890 C   0  0  0  0  0  0  0  0  0  0  0  0
   -8.6500   18.7580  -32.4860 C   0  0  0  0  0  0  0  0  0  0  0  0
   -5.4394   14.8631  -32.9602 H   0  0  0  0  0  0  0  0  0  0  0  0
   -6.2883   14.5632  -34.5146 H   0  0  0  0  0  0  0  0  0  0  0  0
   -4.6393   15.2757  -34.5146 H   0  0  0  0  0  0  0  0  0  0  0  0
   -7.1510   16.3060  -32.0420 H   0  0  0  0  0  0  0  0  0  0  0  0
   -5.2509   19.1184  -32.3352 H   0  0  0  0  0  0  0  0  0  0  0  0
   -5.9207   21.4930  -31.9762 H   0  0  0  0  0  0  0  0  0  0  0  0
   -6.4861   22.6853  -33.2292 H   0  0  0  0  0  0  0  0  0  0  0  0
   -7.2552   24.3287  -33.2831 H   0  0  0  0  0  0  0  0  0  0  0  0
   -3.1923   21.3789  -30.9754 H   0  0  0  0  0  0  0  0  0  0  0  0
   -0.8540   21.7759  -30.1187 H   0  0  0  0  0  0  0  0  0  0  0  0
   -4.3871   25.3068  -29.5090 H   0  0  0  0  0  0  0  0  0  0  0  0
  -10.0879   20.3656  -32.2661 H   0  0  0  0  0  0  0  0  0  0  0  0
   -9.4230   17.9905  -32.6387 H   0  0  0  0  0  0  0  0  0  0  0  0
  1  2  1  0
  2  3  2  0
  2  4  1  0
  4  5  1  0
  5  6  2  0
  6  7  1  0
  7  8  2  0
  8  9  1  0
  9 10  1  0
 10 11  1  0
 11 12  2  0
 11 13  1  0
 13 14  1  0
 14 15  2  0
 15 16  1  0
 16 17  2  0
 17 18  1  0
 18 19  1  0
 19 20  2  0
 19 21  1  0
 21 22  1  0
 22 23  2  0
  8 24  1  0
 24 25  2  0
 25  5  1  0
 23 14  1  0
 22 17  1  0
  1 26  1  0
  1 27  1  0
  1 28  1  0
  4 29  1  0
  6 30  1  0
  7 31  1  0
 10 32  1  0
 10 33  1  0
 15 34  1  0
 16 35  1  0
 23 36  1  0
 24 37  1  0
 25 38  1  0
M  CHG  3  13  -1  18  -1  21  -1
M  END
>  <UniqueID>  (45) 
45

>  <SMILES>  (45) 
CC(=O)Nc1ccc(SCC(=O)[N-]c2ccc3[n-]c(=O)[n-]c3c2)cc1

>  <Energy>  (45) 
76.71015526952365

>  <Genealogy>  (45) 
CC(=O)Nc1ccc(SCC(=O)[N-]c2ccc3[n-]c(=O)[n-]c3c2)cc1 (protonated)
CC(=O)Nc1ccc(SCC(=O)[N-]c2ccc3[n-]c(=O)[n-]c3c2)cc1 (3D coordinates assigned)
CC(=O)Nc1ccc(SCC(=O)[N-]c2ccc3[n-]c(=O)[n-]c3c2)cc1 (optimized conformer: 76.71015526952365 kcal/mol)

>  <smiles>  (45) 
CC(=O)Nc1ccc(SCC(=O)Nc2ccc3[nH]c(=O)[nH]c3c2)cc1

>  <score_type>  (45) 
oracle

>  <origin>  (45) 
adgpu

>  <m_score__min__energy>  (45) 
-11.140000000000001

>  <m_primary>  (45) 
energy

$$$$
45:0
     RDKit          3D

 44 47  0  0  0  0  0  0  0  0999 V2000
   -6.4820   18.4550  -34.3390 N   0  0  0  0  0  0  0  0  0  0  0  0
   -6.8900   19.4020  -33.3460 C   0  0  0  0  0  0  0  0  0  0  0  0
   -8.2520   19.6170  -33.0920 C   0  0  0  0  0  0  0  0  0  0  0  0
   -8.6500   20.5460  -32.1260 C   0  0  0  0  0  0  0  0  0  0  0  0
   -7.6930   21.2710  -31.4110 C   0  0  0  0  0  0  0  0  0  0  0  0
   -6.3230   21.0640  -31.6540 C   0  0  0  0  0  0  0  0  0  0  0  0
   -5.3320   21.7960  -30.9150 N   0  0  0  0  0  0  0  0  0  0  0  0
   -5.2740   23.2130  -30.7310 C   0  0  0  0  0  0  0  0  0  0  0  0
   -6.1800   24.0130  -31.0780 O   0  0  0  0  0  0  0  0  0  0  0  0
   -3.9950   23.5920  -30.1400 C   0  0  0  0  0  0  0  0  0  0  0  0
   -3.4720   24.8400  -29.8190 C   0  0  0  0  0  0  0  0  0  0  0  0
   -2.1760   24.8980  -29.2760 C   0  0  0  0  0  0  0  0  0  0  0  0
   -1.6280   26.1320  -28.9540 O   0  0  0  0  0  0  0  0  0  0  0  0
   -1.4270   23.7160  -29.0620 C   0  0  0  0  0  0  0  0  0  0  0  0
   -0.1130   23.8240  -28.4930 N   0  0  0  0  0  0  0  0  0  0  0  0
    0.5200   22.8160  -27.2370 S   0  0  0  0  0  0  0  0  0  0  0  0
    2.0060   22.6860  -27.4080 O   0  0  0  0  0  0  0  0  0  0  0  0
    0.2430   23.4500  -25.9030 O   0  0  0  0  0  0  0  0  0  0  0  0
   -0.2080   21.2160  -27.3370 C   0  0  0  0  0  0  0  0  0  0  0  0
    0.2550   20.2750  -28.2680 C   0  0  0  0  0  0  0  0  0  0  0  0
   -0.3160   18.9990  -28.3180 C   0  0  0  0  0  0  0  0  0  0  0  0
   -1.3530   18.6580  -27.4440 C   0  0  0  0  0  0  0  0  0  0  0  0
   -1.8270   19.5940  -26.5140 C   0  0  0  0  0  0  0  0  0  0  0  0
   -2.8890   19.2470  -25.6210 N   0  0  0  0  0  0  0  0  0  0  0  0
   -1.2490   20.8740  -26.4640 C   0  0  0  0  0  0  0  0  0  0  0  0
   -1.9830   22.4650  -29.4150 C   0  0  0  0  0  0  0  0  0  0  0  0
   -3.2650   22.4410  -29.9580 C   0  0  0  0  0  0  0  0  0  0  0  0
   -4.0650   21.3230  -30.4500 C   0  0  0  0  0  0  0  0  0  0  0  0
   -3.6990   20.1170  -30.4810 O   0  0  0  0  0  0  0  0  0  0  0  0
   -5.9290   20.1260  -32.6220 C   0  0  0  0  0  0  0  0  0  0  0  0
   -5.8170   17.6840  -34.1030 H   0  0  0  0  0  0  0  0  0  0  0  0
   -6.8300   18.5240  -35.3200 H   0  0  0  0  0  0  0  0  0  0  0  0
   -9.0102   19.0527  -33.6548 H   0  0  0  0  0  0  0  0  0  0  0  0
   -9.7200   20.7068  -31.9281 H   0  0  0  0  0  0  0  0  0  0  0  0
   -8.0117   22.0052  -30.6564 H   0  0  0  0  0  0  0  0  0  0  0  0
   -4.0563   25.7570  -29.9853 H   0  0  0  0  0  0  0  0  0  0  0  0
    1.0680   20.5406  -28.9597 H   0  0  0  0  0  0  0  0  0  0  0  0
    0.0517   18.2618  -29.0469 H   0  0  0  0  0  0  0  0  0  0  0  0
   -1.7979   17.6529  -27.4863 H   0  0  0  0  0  0  0  0  0  0  0  0
   -2.7330   18.5650  -24.8490 H   0  0  0  0  0  0  0  0  0  0  0  0
   -3.8400   19.6640  -25.7320 H   0  0  0  0  0  0  0  0  0  0  0  0
   -1.6161   21.6116  -25.7352 H   0  0  0  0  0  0  0  0  0  0  0  0
   -1.4170   21.5339  -29.2645 H   0  0  0  0  0  0  0  0  0  0  0  0
   -4.8592   19.9571  -32.8146 H   0  0  0  0  0  0  0  0  0  0  0  0
  1  2  1  0
  2  3  2  0
  3  4  1  0
  4  5  2  0
  5  6  1  0
  6  7  1  0
  7  8  1  0
  8  9  2  0
  8 10  1  0
 10 11  2  0
 11 12  1  0
 12 13  1  0
 12 14  2  0
 14 15  1  0
 15 16  1  0
 16 17  2  0
 16 18  2  0
 16 19  1  0
 19 20  2  0
 20 21  1  0
 21 22  2  0
 22 23  1  0
 23 24  1  0
 23 25  2  0
 14 26  1  0
 26 27  2  0
 27 28  1  0
 28 29  2  0
  6 30  2  0
 30  2  1  0
 28  7  1  0
 27 10  1  0
 25 19  1  0
  1 31  1  0
  1 32  1  0
  3 33  1  0
  4 34  1  0
  5 35  1  0
 11 36  1  0
 20 37  1  0
 21 38  1  0
 22 39  1  0
 24 40  1  0
 24 41  1  0
 25 42  1  0
 26 43  1  0
 30 44  1  0
M  CHG  2  13  -1  15  -1
M  END
>  <UniqueID>  (46) 
46

>  <SMILES>  (46) 
Nc1cccc(N2C(=O)c3cc([O-])c([N-]S(=O)(=O)c4cccc(N)c4)cc3C2=O)c1

>  <Energy>  (46) 
87.45778735034351

>  <Genealogy>  (46) 
Nc1cccc(N2C(=O)c3cc([O-])c([N-]S(=O)(=O)c4cccc(N)c4)cc3C2=O)c1 (protonated)
Nc1cccc(N2C(=O)c3cc([O-])c([N-]S(=O)(=O)c4cccc(N)c4)cc3C2=O)c1 (3D coordinates assigned)
Nc1cccc(N2C(=O)c3cc([O-])c([N-]S(=O)(=O)c4cccc(N)c4)cc3C2=O)c1 (nonaromatic ring conformer: 87.45778735034351 kcal/mol)

>  <smiles>  (46) 
Nc1cccc(N2C(=O)c3cc(O)c(NS(=O)(=O)c4cccc(N)c4)cc3C2=O)c1

>  <score_type>  (46) 
oracle

>  <origin>  (46) 
adgpu

>  <m_score__min__energy>  (46) 
-12.26

>  <m_primary>  (46) 
energy

$$$$
46:0
     RDKit          3D

 47 49  0  0  0  0  0  0  0  0999 V2000
   -3.8620   25.4590  -30.4540 N   0  0  0  0  0  0  0  0  0  0  0  0
   -4.4710   24.1890  -30.6850 C   0  0  0  0  0  0  0  0  0  0  0  0
   -5.6940   24.0390  -30.4210 O   0  0  0  0  0  0  0  0  0  0  0  0
   -3.6780   23.0610  -31.2270 C   0  0  0  0  0  0  0  0  0  0  0  0
   -2.5270   22.6100  -30.5560 C   0  0  0  0  0  0  0  0  0  0  0  0
   -1.7800   21.5450  -31.0660 C   0  0  0  0  0  0  0  0  0  0  0  0
   -2.1710   20.9020  -32.2440 C   0  0  0  0  0  0  0  0  0  0  0  0
   -1.3600   19.8280  -32.7440 N   0  0  0  0  0  0  0  0  0  0  0  0
   -1.5890   19.0660  -33.9380 C   0  0  0  0  0  0  0  0  0  0  0  0
   -0.8400   19.2340  -34.9390 O   0  0  0  0  0  0  0  0  0  0  0  0
   -2.7400   18.1270  -34.0310 C   0  0  0  0  0  0  0  0  0  0  0  0
   -3.9220   18.4130  -33.3170 C   0  0  0  0  0  0  0  0  0  0  0  0
   -5.0260   17.5530  -33.3770 C   0  0  0  0  0  0  0  0  0  0  0  0
   -6.4740   17.9260  -32.4460 S   0  0  0  0  0  0  0  0  0  0  0  0
   -7.5790   17.0040  -32.8830 O   0  0  0  0  0  0  0  0  0  0  0  0
   -6.2150   17.7040  -30.9810 O   0  0  0  0  0  0  0  0  0  0  0  0
   -6.9500   19.5840  -32.7220 N   0  0  0  0  0  0  0  0  0  0  0  0
   -6.4330   20.4440  -31.6330 C   0  0  0  0  0  0  0  0  0  0  0  0
   -7.1800   21.7800  -31.5690 C   0  0  0  0  0  0  0  0  0  0  0  0
   -8.6720   21.5650  -31.2610 C   0  0  0  0  0  0  0  0  0  0  0  0
   -9.1780   20.1840  -31.7110 C   0  0  0  0  0  0  0  0  0  0  0  0
   -8.4150   19.6880  -32.9470 C   0  0  0  0  0  0  0  0  0  0  0  0
   -4.9560   16.3890  -34.1480 C   0  0  0  0  0  0  0  0  0  0  0  0
   -3.7970   16.0930  -34.8640 C   0  0  0  0  0  0  0  0  0  0  0  0
   -2.6890   16.9520  -34.8180 C   0  0  0  0  0  0  0  0  0  0  0  0
   -1.5510   16.6340  -35.5590 O   0  0  0  0  0  0  0  0  0  0  0  0
   -3.3060   21.3630  -32.9340 C   0  0  0  0  0  0  0  0  0  0  0  0
   -4.0550   22.4290  -32.4250 C   0  0  0  0  0  0  0  0  0  0  0  0
   -3.4870   26.0270  -31.2450 H   0  0  0  0  0  0  0  0  0  0  0  0
   -2.2125   23.0995  -29.6225 H   0  0  0  0  0  0  0  0  0  0  0  0
   -0.8764   21.2096  -30.5359 H   0  0  0  0  0  0  0  0  0  0  0  0
   -3.9778   19.3247  -32.7041 H   0  0  0  0  0  0  0  0  0  0  0  0
   -6.5565   19.9193  -30.6741 H   0  0  0  0  0  0  0  0  0  0  0  0
   -5.3713   20.6518  -31.8322 H   0  0  0  0  0  0  0  0  0  0  0  0
   -6.7359   22.4026  -30.7784 H   0  0  0  0  0  0  0  0  0  0  0  0
   -7.0927   22.2768  -32.5465 H   0  0  0  0  0  0  0  0  0  0  0  0
   -8.8244   21.6591  -30.1757 H   0  0  0  0  0  0  0  0  0  0  0  0
   -9.2392   22.3246  -31.8188 H   0  0  0  0  0  0  0  0  0  0  0  0
   -9.0369   19.4654  -30.8902 H   0  0  0  0  0  0  0  0  0  0  0  0
  -10.2431   20.2717  -31.9716 H   0  0  0  0  0  0  0  0  0  0  0  0
   -8.7990   18.6942  -33.2205 H   0  0  0  0  0  0  0  0  0  0  0  0
   -8.5732   20.4244  -33.7487 H   0  0  0  0  0  0  0  0  0  0  0  0
   -5.8169   15.7055  -34.1898 H   0  0  0  0  0  0  0  0  0  0  0  0
   -3.7509   15.1768  -35.4710 H   0  0  0  0  0  0  0  0  0  0  0  0
   -0.8750   17.3390  -35.8280 H   0  0  0  0  0  0  0  0  0  0  0  0
   -3.6060   20.8836  -33.8775 H   0  0  0  0  0  0  0  0  0  0  0  0
   -4.9471   22.7760  -32.9669 H   0  0  0  0  0  0  0  0  0  0  0  0
  1  2  1  0
  2  3  2  0
  2  4  1  0
  4  5  2  0
  5  6  1  0
  6  7  2  0
  7  8  1  0
  8  9  1  0
  9 10  2  0
  9 11  1  0
 11 12  2  0
 12 13  1  0
 13 14  1  0
 14 15  2  0
 14 16  2  0
 14 17  1  0
 17 18  1  0
 18 19  1  0
 19 20  1  0
 20 21  1  0
 21 22  1  0
 13 23  2  0
 23 24  1  0
 24 25  2  0
 25 26  1  0
  7 27  1  0
 27 28  2  0
 28  4  1  0
 25 11  1  0
 22 17  1  0
  1 29  1  0
  5 30  1  0
  6 31  1  0
 12 32  1  0
 18 33  1  0
 18 34  1  0
 19 35  1  0
 19 36  1  0
 20 37  1  0
 20 38  1  0
 21 39  1  0
 21 40  1  0
 22 41  1  0
 22 42  1  0
 23 43  1  0
 24 44  1  0
 26 45  1  0
 27 46  1  0
 28 47  1  0
M  CHG  2   1  -1   8  -1
M  END
>  <UniqueID>  (47) 
47

>  <SMILES>  (47) 
[NH-]C(=O)c1ccc([N-]C(=O)c2cc(S(=O)(=O)N3CCCCC3)ccc2O)cc1

>  <Energy>  (47) 
59.793494301367645

>  <Genealogy>  (47) 
[NH-]C(=O)c1ccc([N-]C(=O)c2cc(S(=O)(=O)N3CCCCC3)ccc2O)cc1 (protonated)
[NH-]C(=O)c1ccc([N-]C(=O)c2cc(S(=O)(=O)N3CCCCC3)ccc2O)cc1 (3D coordinates assigned)
[NH-]C(=O)c1ccc([N-]C(=O)c2cc(S(=O)(=O)N3CCCCC3)ccc2O)cc1 (nonaromatic ring conformer: 59.793494301367645 kcal/mol)

>  <smiles>  (47) 
NC(=O)c1ccc(NC(=O)c2cc(S(=O)(=O)N3CCCCC3)ccc2O)cc1

>  <score_type>  (47) 
oracle

>  <origin>  (47) 
adgpu

>  <m_score__min__energy>  (47) 
-10.75

>  <m_primary>  (47) 
energy

$$$$
47:0
     RDKit          3D

 46 49  0  0  1  0  0  0  0  0999 V2000
   -4.9840   24.0420  -28.7430 N   0  0  0  0  0  0  0  0  0  0  0  0
   -4.9070   24.3010  -30.4440 S   0  0  0  0  0  0  0  0  0  0  0  0
   -3.8750   25.3450  -30.7660 O   0  0  0  0  0  0  0  0  0  0  0  0
   -6.2630   24.7980  -30.8710 O   0  0  0  0  0  0  0  0  0  0  0  0
   -4.5360   22.7830  -31.2310 C   0  0  0  0  0  0  0  0  0  0  0  0
   -4.2540   21.6470  -30.4830 C   0  0  0  0  0  0  0  0  0  0  0  0
   -3.9590   20.4420  -31.1260 C   0  0  0  0  0  0  0  0  0  0  0  0
   -3.9480   20.3700  -32.5100 C   0  0  0  0  0  0  0  0  0  0  0  0
   -3.6460   19.1300  -33.1810 N   0  0  0  0  0  0  0  0  0  0  0  0
   -4.5500   18.2130  -33.1610 C   0  0  0  0  0  0  0  0  0  0  0  0
   -5.7050   18.4700  -32.5200 N   0  0  0  0  0  0  0  0  0  0  0  0
   -6.6570   17.5090  -32.4980 C   0  0  0  0  0  0  0  0  0  0  0  0
   -7.9120   17.8370  -31.7800 C   0  0  0  0  0  0  0  0  0  0  0  0
   -8.2410   19.2720  -31.7940 C   0  0  0  0  0  0  0  0  0  0  0  0
   -9.4050   19.7790  -32.3310 C   0  0  0  0  0  0  0  0  0  0  0  0
   -9.6370   21.1340  -32.3050 C   0  0  0  0  0  0  0  0  0  0  0  0
   -8.6970   21.9980  -31.7360 C   0  0  0  0  0  0  0  0  0  0  0  0
   -7.5180   21.5100  -31.1900 C   0  0  0  0  0  0  0  0  0  0  0  0
   -7.3040   20.1370  -31.2270 C   0  0  0  0  0  0  0  0  0  0  0  0
   -6.4580   16.3080  -33.1050 N   0  0  0  0  0  0  0  0  0  0  0  0
   -5.3030   16.0370  -33.7520 C   0  0  0  0  0  0  0  0  0  0  0  0
   -5.1130   14.8240  -34.3600 C   0  0  0  0  0  0  0  0  0  0  0  0
   -3.9270   14.5660  -35.0140 C   0  0  0  0  0  0  0  0  0  0  0  0
   -2.9440   15.5570  -35.0390 C   0  0  0  0  0  0  0  0  0  0  0  0
   -3.1200   16.7800  -34.4330 C   0  0  0  0  0  0  0  0  0  0  0  0
   -4.3100   17.0060  -33.7900 C   0  0  0  0  0  0  0  0  0  0  0  0
   -4.2340   21.5180  -33.2550 C   0  0  0  0  0  0  0  0  0  0  0  0
   -4.5200   22.6900  -32.6080 C   0  0  0  0  0  0  0  0  0  0  0  0
   -5.9920   24.0130  -28.4740 H   0  0  0  0  0  0  0  0  0  0  0  0
   -4.5530   24.8660  -28.2660 H   0  0  0  0  0  0  0  0  0  0  0  0
   -4.2629   21.6960  -29.3841 H   0  0  0  0  0  0  0  0  0  0  0  0
   -3.7341   19.5451  -30.5301 H   0  0  0  0  0  0  0  0  0  0  0  0
   -8.7379   17.2862  -32.2538 H   0  0  0  0  0  0  0  0  0  0  0  0
   -7.7666   17.5495  -30.7282 H   0  0  0  0  0  0  0  0  0  0  0  0
  -10.1464   19.1012  -32.7792 H   0  0  0  0  0  0  0  0  0  0  0  0
  -10.5655   21.5395  -32.7334 H   0  0  0  0  0  0  0  0  0  0  0  0
   -8.8945   23.0800  -31.7207 H   0  0  0  0  0  0  0  0  0  0  0  0
   -6.7766   22.1881  -30.7423 H   0  0  0  0  0  0  0  0  0  0  0  0
   -6.3777   19.7241  -30.8009 H   0  0  0  0  0  0  0  0  0  0  0  0
   -7.2180   15.5770  -33.0700 H   0  0  0  0  0  0  0  0  0  0  0  0
   -5.9031   14.0594  -34.3265 H   0  0  0  0  0  0  0  0  0  0  0  0
   -3.7584   13.5972  -35.5070 H   0  0  0  0  0  0  0  0  0  0  0  0
   -1.9971   15.3535  -35.5605 H   0  0  0  0  0  0  0  0  0  0  0  0
   -2.3340   17.5490  -34.4633 H   0  0  0  0  0  0  0  0  0  0  0  0
   -4.2292   21.4797  -34.3543 H   0  0  0  0  0  0  0  0  0  0  0  0
   -4.7443   23.5865  -33.2047 H   0  0  0  0  0  0  0  0  0  0  0  0
  1  2  1  0
  2  3  2  0
  2  4  2  0
  2  5  1  0
  5  6  2  0
  6  7  1  0
  7  8  2  0
  8  9  1  0
  9 10  2  0
 10 11  1  0
 11 12  2  0
 12 13  1  0
 13 14  1  0
 14 15  2  0
 15 16  1  0
 16 17  2  0
 17 18  1  0
 18 19  2  0
 12 20  1  0
 20 21  1  0
 21 22  2  0
 22 23  1  0
 23 24  2  0
 24 25  1  0
 25 26  2  0
  8 27  1  0
 27 28  2  0
 28  5  1  0
 26 10  1  0
 19 14  1  0
 26 21  1  0
  1 29  1  0
  1 30  1  0
  6 31  1  0
  7 32  1  0
 13 33  1  0
 13 34  1  0
 15 35  1  0
 16 36  1  0
 17 37  1  0
 18 38  1  0
 19 39  1  0
 20 40  1  0
 22 41  1  0
 23 42  1  0
 24 43  1  0
 25 44  1  0
 27 45  1  0
 28 46  1  0
M  END
>  <smiles>  (48) 
NS(=O)(=O)c1ccc(N=c2nc(Cc3ccccc3)[nH]c3ccccc23)cc1

>  <score_type>  (48) 
oracle

>  <origin>  (48) 
adgpu

>  <m_score__min__energy>  (48) 
-10.300000000000001

>  <m_primary>  (48) 
energy

$$$$
48:0
     RDKit          3D

 68 72  0  0  0  0  0  0  0  0999 V2000
   -0.4870   20.9850  -32.1330 C   0  0  0  0  0  0  0  0  0  0  0  0
   -1.9780   21.1400  -32.1480 C   0  0  0  0  0  0  0  0  0  0  0  0
   -2.6170   21.5610  -33.3220 C   0  0  0  0  0  0  0  0  0  0  0  0
   -4.0100   21.6560  -33.3700 C   0  0  0  0  0  0  0  0  0  0  0  0
   -4.7840   21.3390  -32.2450 C   0  0  0  0  0  0  0  0  0  0  0  0
   -6.2220   21.4090  -32.3120 N   0  0  0  0  0  0  0  0  0  0  0  0
   -7.0250   22.4550  -32.0090 C   0  0  0  0  0  0  0  0  0  0  0  0
   -6.4560   24.1200  -31.6490 S   0  0  0  0  0  0  0  0  0  0  0  0
   -5.2910   23.6330  -30.3330 C   0  0  0  0  0  0  0  0  0  0  0  0
   -4.0440   24.4490  -30.4580 C   0  0  0  0  0  0  0  0  0  0  0  0
   -4.1340   25.6670  -30.7740 O   0  0  0  0  0  0  0  0  0  0  0  0
   -2.7740   23.8530  -30.1550 N   0  0  0  0  0  0  0  0  0  0  0  0
   -2.0550   23.9170  -28.9120 C   0  0  0  0  0  0  0  0  0  0  0  0
   -2.6850   24.5110  -27.8100 C   0  0  0  0  0  0  0  0  0  0  0  0
   -2.0370   24.5820  -26.5770 C   0  0  0  0  0  0  0  0  0  0  0  0
   -0.7480   24.0530  -26.4250 C   0  0  0  0  0  0  0  0  0  0  0  0
    0.1000   24.1650  -24.8880 S   0  0  0  0  0  0  0  0  0  0  0  0
    1.1290   23.0660  -24.8320 O   0  0  0  0  0  0  0  0  0  0  0  0
   -0.8640   23.9780  -23.7470 O   0  0  0  0  0  0  0  0  0  0  0  0
    0.8800   25.7290  -24.7820 N   0  0  0  0  0  0  0  0  0  0  0  0
    0.9790   26.3970  -26.1040 C   0  0  0  0  0  0  0  0  0  0  0  0
    0.2320   27.7420  -26.1850 C   0  0  0  0  0  0  0  0  0  0  0  0
   -1.1510   27.6220  -25.5430 C   0  0  0  0  0  0  0  0  0  0  0  0
   -1.0710   27.1510  -24.0800 C   0  0  0  0  0  0  0  0  0  0  0  0
    0.3030   26.5640  -23.7070 C   0  0  0  0  0  0  0  0  0  0  0  0
   -0.1200   23.4420  -27.5160 C   0  0  0  0  0  0  0  0  0  0  0  0
   -0.7720   23.3600  -28.7500 C   0  0  0  0  0  0  0  0  0  0  0  0
   -8.3230   22.0930  -31.9780 N   0  0  0  0  0  0  0  0  0  0  0  0
   -8.3700   20.7940  -32.2420 N   0  0  0  0  0  0  0  0  0  0  0  0
   -7.1000   20.3920  -32.4470 C   0  0  0  0  0  0  0  0  0  0  0  0
   -6.7450   19.0560  -32.8310 N   0  0  0  0  0  0  0  0  0  0  0  0
   -7.2630   17.8760  -32.1610 C   0  0  0  0  0  0  0  0  0  0  0  0
   -6.9750   16.7080  -33.0980 C   0  0  0  0  0  0  0  0  0  0  0  0
   -5.9670   17.2320  -34.1270 C   0  0  0  0  0  0  0  0  0  0  0  0
   -6.0720   18.7500  -34.0820 C   0  0  0  0  0  0  0  0  0  0  0  0
   -4.1420   20.9500  -31.0570 C   0  0  0  0  0  0  0  0  0  0  0  0
   -2.7470   20.8410  -31.0120 C   0  0  0  0  0  0  0  0  0  0  0  0
   -0.1326   20.9482  -31.0923 H   0  0  0  0  0  0  0  0  0  0  0  0
   -0.2100   20.0532  -32.6479 H   0  0  0  0  0  0  0  0  0  0  0  0
   -0.0243   21.8399  -32.6479 H   0  0  0  0  0  0  0  0  0  0  0  0
   -2.0195   21.8177  -34.2092 H   0  0  0  0  0  0  0  0  0  0  0  0
   -4.5032   21.9820  -34.2976 H   0  0  0  0  0  0  0  0  0  0  0  0
   -5.7507   23.8107  -29.3496 H   0  0  0  0  0  0  0  0  0  0  0  0
   -5.0467   22.5649  -30.4304 H   0  0  0  0  0  0  0  0  0  0  0  0
   -3.6986   24.9245  -27.9184 H   0  0  0  0  0  0  0  0  0  0  0  0
   -2.5395   25.0550  -25.7204 H   0  0  0  0  0  0  0  0  0  0  0  0
    2.0420   26.5783  -26.3210 H   0  0  0  0  0  0  0  0  0  0  0  0
    0.5053   25.7258  -26.8355 H   0  0  0  0  0  0  0  0  0  0  0  0
    0.8123   28.5116  -25.6550 H   0  0  0  0  0  0  0  0  0  0  0  0
    0.1121   28.0210  -27.2423 H   0  0  0  0  0  0  0  0  0  0  0  0
   -1.6424   28.6057  -25.5726 H   0  0  0  0  0  0  0  0  0  0  0  0
   -1.7236   26.8727  -26.1093 H   0  0  0  0  0  0  0  0  0  0  0  0
   -1.2739   28.0105  -23.4242 H   0  0  0  0  0  0  0  0  0  0  0  0
   -1.8145   26.3503  -23.9528 H   0  0  0  0  0  0  0  0  0  0  0  0
    0.9943   27.3935  -23.4968 H   0  0  0  0  0  0  0  0  0  0  0  0
    0.1600   25.9192  -22.8273 H   0  0  0  0  0  0  0  0  0  0  0  0
    0.8912   23.0243  -27.4022 H   0  0  0  0  0  0  0  0  0  0  0  0
   -0.2811   22.8587  -29.5972 H   0  0  0  0  0  0  0  0  0  0  0  0
   -6.7544   17.7284  -31.1969 H   0  0  0  0  0  0  0  0  0  0  0  0
   -8.3382   17.9696  -31.9484 H   0  0  0  0  0  0  0  0  0  0  0  0
   -6.5456   15.8647  -32.5372 H   0  0  0  0  0  0  0  0  0  0  0  0
   -7.8930   16.3434  -33.5821 H   0  0  0  0  0  0  0  0  0  0  0  0
   -4.9487   16.9113  -33.8621 H   0  0  0  0  0  0  0  0  0  0  0  0
   -6.1799   16.8431  -35.1337 H   0  0  0  0  0  0  0  0  0  0  0  0
   -5.0708   19.2053  -34.1012 H   0  0  0  0  0  0  0  0  0  0  0  0
   -6.6214   19.1468  -34.9485 H   0  0  0  0  0  0  0  0  0  0  0  0
   -4.7379   20.7303  -30.1589 H   0  0  0  0  0  0  0  0  0  0  0  0
   -2.2518   20.5201  -30.0837 H   0  0  0  0  0  0  0  0  0  0  0  0
  1  2  1  0
  2  3  2  0
  3  4  1  0
  4  5  2  0
  5  6  1  0
  6  7  1  0
  7  8  1  0
  8  9  1  0
  9 10  1  0
 10 11  2  0
 10 12  1  0
 12 13  1  0
 13 14  2  0
 14 15  1  0
 15 16  2  0
 16 17  1  0
 17 18  2  0
 17 19  2  0
 17 20  1  0
 20 21  1  0
 21 22  1  0
 22 23  1  0
 23 24  1  0
 24 25  1  0
 16 26  1  0
 26 27  2  0
  7 28  2  0
 28 29  1  0
 29 30  2  0
 30 31  1  0
 31 32  1  0
 32 33  1  0
 33 34  1  0
 34 35  1  0
  5 36  1  0
 36 37  2  0
 37  2  1  0
 30  6  1  0
 35 31  1  0
 27 13  1  0
 25 20  1  0
  1 38  1  0
  1 39  1  0
  1 40  1  0
  3 41  1  0
  4 42  1  0
  9 43  1  0
  9 44  1  0
 14 45  1  0
 15 46  1  0
 21 47  1  0
 21 48  1  0
 22 49  1  0
 22 50  1  0
 23 51  1  0
 23 52  1  0
 24 53  1  0
 24 54  1  0
 25 55  1  0
 25 56  1  0
 26 57  1  0
 27 58  1  0
 32 59  1  0
 32 60  1  0
 33 61  1  0
 33 62  1  0
 34 63  1  0
 34 64  1  0
 35 65  1  0
 35 66  1  0
 36 67  1  0
 37 68  1  0
M  CHG  1  12  -1
M  END
>  <UniqueID>  (49) 
48

>  <SMILES>  (49) 
Cc1ccc(-n2c(SCC(=O)[N-]c3ccc(S(=O)(=O)N4CCCCC4)cc3)nnc2N2CCCC2)cc1

>  <Energy>  (49) 
122.33387487654008

>  <Genealogy>  (49) 
Cc1ccc(-n2c(SCC(=O)[N-]c3ccc(S(=O)(=O)N4CCCCC4)cc3)nnc2N2CCCC2)cc1 (protonated)
Cc1ccc(-n2c(SCC(=O)[N-]c3ccc(S(=O)(=O)N4CCCCC4)cc3)nnc2N2CCCC2)cc1 (3D coordinates assigned)
Cc1ccc(-n2c(SCC(=O)[N-]c3ccc(S(=O)(=O)N4CCCCC4)cc3)nnc2N2CCCC2)cc1 (nonaromatic ring conformer: 122.33387487654008 kcal/mol)

>  <smiles>  (49) 
Cc1ccc(-n2c(SCC(=O)Nc3ccc(S(=O)(=O)N4CCCCC4)cc3)nnc2N2CCCC2)cc1

>  <score_type>  (49) 
oracle

>  <origin>  (49) 
adgpu

>  <m_score__min__energy>  (49) 
-12.33

>  <m_primary>  (49) 
energy

$$$$
