0:0
     RDKit          3D

 54 58  0  0  0  0  0  0  0  0999 V2000
   -1.1560   23.4250  -25.2660 O   0  0  0  0  0  0  0  0  0  0  0  0
   -0.3850   23.2010  -26.2400 C   0  0  0  0  0  0  0  0  0  0  0  0
   -0.3760   21.8630  -26.8750 C   0  0  0  0  0  0  0  0  0  0  0  0
   -1.5640   21.1130  -26.9190 C   0  0  0  0  0  0  0  0  0  0  0  0
   -1.5780   19.8400  -27.4970 C   0  0  0  0  0  0  0  0  0  0  0  0
   -0.4110   19.3090  -28.0500 C   0  0  0  0  0  0  0  0  0  0  0  0
   -0.4260   18.0430  -28.6200 O   0  0  0  0  0  0  0  0  0  0  0  0
    0.7730   20.0530  -28.0300 C   0  0  0  0  0  0  0  0  0  0  0  0
    0.7960   21.3260  -27.4500 C   0  0  0  0  0  0  0  0  0  0  0  0
    1.9830   22.0500  -27.4670 O   0  0  0  0  0  0  0  0  0  0  0  0
    0.5160   24.2340  -26.6780 N   0  0  0  0  0  0  0  0  0  0  0  0
    1.6940   24.5090  -25.8420 C   0  0  0  0  0  0  0  0  0  0  0  0
    2.3460   25.8540  -26.1990 C   0  0  0  0  0  0  0  0  0  0  0  0
    1.2860   26.9580  -26.3430 C   0  0  0  0  0  0  0  0  0  0  0  0
    0.1260   26.5870  -27.3000 C   0  0  0  0  0  0  0  0  0  0  0  0
    0.2090   25.1350  -27.8060 C   0  0  2  0  0  0  0  0  0  0  0  0
   -1.0220   24.7280  -28.5780 C   0  0  0  0  0  0  0  0  0  0  0  0
   -1.2460   23.4870  -29.0560 N   0  0  0  0  0  0  0  0  0  0  0  0
   -2.4090   23.6500  -29.7190 C   0  0  0  0  0  0  0  0  0  0  0  0
   -3.1020   22.5660  -30.4470 C   0  0  0  0  0  0  0  0  0  0  0  0
   -4.5000   22.5770  -30.5830 C   0  0  0  0  0  0  0  0  0  0  0  0
   -5.1550   21.5440  -31.2590 C   0  0  0  0  0  0  0  0  0  0  0  0
   -4.4250   20.4820  -31.8210 C   0  0  0  0  0  0  0  0  0  0  0  0
   -5.1210   19.3810  -32.5370 C   0  0  0  0  0  0  0  0  0  0  0  0
   -6.4030   18.9600  -32.1350 C   0  0  0  0  0  0  0  0  0  0  0  0
   -7.0530   17.9210  -32.8090 C   0  0  0  0  0  0  0  0  0  0  0  0
   -6.4320   17.2890  -33.8890 C   0  0  0  0  0  0  0  0  0  0  0  0
   -7.0780   16.2540  -34.5550 O   0  0  0  0  0  0  0  0  0  0  0  0
   -5.1590   17.6940  -34.2950 C   0  0  0  0  0  0  0  0  0  0  0  0
   -4.5050   18.7330  -33.6260 C   0  0  0  0  0  0  0  0  0  0  0  0
   -3.0250   20.4750  -31.6890 C   0  0  0  0  0  0  0  0  0  0  0  0
   -2.3710   21.5050  -31.0080 C   0  0  0  0  0  0  0  0  0  0  0  0
   -2.8600   24.9180  -29.6570 N   0  0  0  0  0  0  0  0  0  0  0  0
   -1.9810   25.5990  -28.9430 N   0  0  0  0  0  0  0  0  0  0  0  0
   -2.4894   21.5306  -26.4956 H   0  0  0  0  0  0  0  0  0  0  0  0
   -2.5099   19.2558  -27.5161 H   0  0  0  0  0  0  0  0  0  0  0  0
    1.6898   19.6357  -28.4720 H   0  0  0  0  0  0  0  0  0  0  0  0
    1.3841   24.5325  -24.7868 H   0  0  0  0  0  0  0  0  0  0  0  0
    2.4325   23.7133  -26.0196 H   0  0  0  0  0  0  0  0  0  0  0  0
    3.0518   26.1343  -25.4032 H   0  0  0  0  0  0  0  0  0  0  0  0
    2.8718   25.7451  -27.1590 H   0  0  0  0  0  0  0  0  0  0  0  0
    0.8632   27.1651  -25.3489 H   0  0  0  0  0  0  0  0  0  0  0  0
    1.7914   27.8342  -26.7753 H   0  0  0  0  0  0  0  0  0  0  0  0
   -0.8262   26.7186  -26.7652 H   0  0  0  0  0  0  0  0  0  0  0  0
    0.1970   27.2472  -28.1770 H   0  0  0  0  0  0  0  0  0  0  0  0
    1.0333   25.0568  -28.5301 H   0  0  0  0  0  0  0  0  0  0  0  0
   -5.0836   23.4049  -30.1542 H   0  0  0  0  0  0  0  0  0  0  0  0
   -6.2509   21.5620  -31.3522 H   0  0  0  0  0  0  0  0  0  0  0  0
   -6.8972   19.4520  -31.2843 H   0  0  0  0  0  0  0  0  0  0  0  0
   -8.0552   17.6009  -32.4880 H   0  0  0  0  0  0  0  0  0  0  0  0
   -4.6692   17.1942  -35.1437 H   0  0  0  0  0  0  0  0  0  0  0  0
   -3.5024   19.0468  -33.9522 H   0  0  0  0  0  0  0  0  0  0  0  0
   -2.4400   19.6520  -32.1254 H   0  0  0  0  0  0  0  0  0  0  0  0
   -1.2755   21.4852  -30.9103 H   0  0  0  0  0  0  0  0  0  0  0  0
  1  2  2  0
  2  3  1  0
  3  4  2  0
  4  5  1  0
  5  6  2  0
  6  7  1  0
  6  8  1  0
  8  9  2  0
  9 10  1  0
  2 11  1  0
 11 12  1  0
 12 13  1  0
 13 14  1  0
 14 15  1  0
 15 16  1  0
 16 17  1  0
 17 18  2  0
 18 19  1  0
 19 20  1  0
 20 21  2  0
 21 22  1  0
 22 23  2  0
 23 24  1  0
 24 25  2  0
 25 26  1  0
 26 27  2  0
 27 28  1  0
 27 29  1  0
 29 30  2  0
 23 31  1  0
 31 32  2  0
 19 33  2  0
 33 34  1  0
  9  3  1  0
 16 11  1  0
 34 17  1  0
 32 20  1  0
 30 24  1  0
  4 35  1  0
  5 36  1  0
  8 37  1  0
 12 38  1  0
 12 39  1  0
 13 40  1  0
 13 41  1  0
 14 42  1  0
 14 43  1  0
 15 44  1  0
 15 45  1  0
 16 46  1  6
 21 47  1  0
 22 48  1  0
 25 49  1  0
 26 50  1  0
 29 51  1  0
 30 52  1  0
 31 53  1  0
 32 54  1  0
M  CHG  4   7  -1  10  -1  28  -1  34  -1
M  END
>  <UniqueID>  (1) 
1

>  <SMILES>  (1) 
O=C(c1ccc([O-])cc1[O-])N1CCCC[C@@H]1c1nc(-c2ccc(-c3ccc([O-])cc3)cc2)n[n-]1

>  <Energy>  (1) 
109.55740172859423

>  <Genealogy>  (1) 
O=C(c1ccc([O-])cc1[O-])N1CCCCC1c1nc(-c2ccc(-c3ccc([O-])cc3)cc2)n[n-]1 (protonated)
O=C(c1ccc([O-])cc1[O-])N1CCCC[C@@H]1c1nc(-c2ccc(-c3ccc([O-])cc3)cc2)n[n-]1 (chirality)
O=C(c1ccc([O-])cc1[O-])N1CCCC[C@@H]1c1nc(-c2ccc(-c3ccc([O-])cc3)cc2)n[n-]1 (3D coordinates assigned)
O=C(c1ccc([O-])cc1[O-])N1CCCC[C@@H]1c1nc(-c2ccc(-c3ccc([O-])cc3)cc2)n[n-]1 (nonaromatic ring conformer: 109.55740172859423 kcal/mol)

>  <smiles>  (1) 
O=C(c1ccc(O)cc1O)N1CCCCC1c1nc(-c2ccc(-c3ccc(O)cc3)cc2)n[nH]1

>  <score_type>  (1) 
oracle

>  <origin>  (1) 
adgpu

>  <m_score__min__energy>  (1) 
-12.09

>  <m_primary>  (1) 
energy

$$$$
1:0
     RDKit          3D

 43 45  0  0  0  0  0  0  0  0999 V2000
   -0.1810   19.0660  -29.0420 C   0  0  0  0  0  0  0  0  0  0  0  0
   -0.7630   20.4490  -29.0450 C   0  0  0  0  0  0  0  0  0  0  0  0
   -1.5630   20.8710  -27.9730 C   0  0  0  0  0  0  0  0  0  0  0  0
   -2.0980   22.1630  -27.9620 C   0  0  0  0  0  0  0  0  0  0  0  0
   -1.8320   23.0460  -29.0140 C   0  0  0  0  0  0  0  0  0  0  0  0
   -2.4890   24.6790  -28.9660 S   0  0  0  0  0  0  0  0  0  0  0  0
   -1.3520   25.6600  -28.9870 O   0  0  0  0  0  0  0  0  0  0  0  0
   -3.2970   24.8990  -27.7170 O   0  0  0  0  0  0  0  0  0  0  0  0
   -3.4970   24.9430  -30.3520 N   0  0  0  0  0  0  0  0  0  0  0  0
   -4.4780   24.0210  -30.8460 C   0  0  0  0  0  0  0  0  0  0  0  0
   -5.8590   24.2720  -30.7450 C   0  0  0  0  0  0  0  0  0  0  0  0
   -6.7800   23.3430  -31.2370 C   0  0  0  0  0  0  0  0  0  0  0  0
   -6.3400   22.1500  -31.8310 C   0  0  0  0  0  0  0  0  0  0  0  0
   -7.2920   21.2050  -32.3520 N   0  0  0  0  0  0  0  0  0  0  0  0
   -6.8640   20.1010  -33.2180 C   0  0  0  0  0  0  0  0  0  0  0  0
   -7.3780   18.7550  -32.6700 C   0  0  0  0  0  0  0  0  0  0  0  0
   -8.6340   18.8590  -31.8990 N   0  0  0  0  0  0  0  0  0  0  0  0
   -9.4540   20.0120  -32.2960 C   0  0  0  0  0  0  0  0  0  0  0  0
   -8.7130   21.3250  -32.0040 C   0  0  0  0  0  0  0  0  0  0  0  0
   -4.9620   21.9100  -31.9450 C   0  0  0  0  0  0  0  0  0  0  0  0
   -4.0410   22.8400  -31.4550 C   0  0  0  0  0  0  0  0  0  0  0  0
   -1.0280   22.6260  -30.0830 C   0  0  0  0  0  0  0  0  0  0  0  0
   -0.4920   21.3370  -30.0970 C   0  0  0  0  0  0  0  0  0  0  0  0
   -0.0396   18.7300  -28.0042 H   0  0  0  0  0  0  0  0  0  0  0  0
   -0.8662   18.3787  -29.5598 H   0  0  0  0  0  0  0  0  0  0  0  0
    0.7895   19.0755  -29.5598 H   0  0  0  0  0  0  0  0  0  0  0  0
   -1.7700   20.1842  -27.1391 H   0  0  0  0  0  0  0  0  0  0  0  0
   -2.7308   22.4864  -27.1224 H   0  0  0  0  0  0  0  0  0  0  0  0
   -6.2146   25.2020  -30.2775 H   0  0  0  0  0  0  0  0  0  0  0  0
   -7.8578   23.5484  -31.1581 H   0  0  0  0  0  0  0  0  0  0  0  0
   -7.2665   20.2575  -34.2297 H   0  0  0  0  0  0  0  0  0  0  0  0
   -5.7646   20.0770  -33.2470 H   0  0  0  0  0  0  0  0  0  0  0  0
   -7.5493   18.0784  -33.5202 H   0  0  0  0  0  0  0  0  0  0  0  0
   -6.6102   18.3799  -31.9774 H   0  0  0  0  0  0  0  0  0  0  0  0
   -8.4010   18.9560  -30.8820 H   0  0  0  0  0  0  0  0  0  0  0  0
   -9.6691   19.9495  -33.3729 H   0  0  0  0  0  0  0  0  0  0  0  0
  -10.3913   19.9969  -31.7205 H   0  0  0  0  0  0  0  0  0  0  0  0
   -9.1635   22.1340  -32.5977 H   0  0  0  0  0  0  0  0  0  0  0  0
   -8.7974   21.5485  -30.9303 H   0  0  0  0  0  0  0  0  0  0  0  0
   -4.6051   20.9855  -32.4223 H   0  0  0  0  0  0  0  0  0  0  0  0
   -2.9631   22.6415  -31.5491 H   0  0  0  0  0  0  0  0  0  0  0  0
   -0.8186   23.3152  -30.9144 H   0  0  0  0  0  0  0  0  0  0  0  0
    0.1445   21.0167  -30.9350 H   0  0  0  0  0  0  0  0  0  0  0  0
  1  2  1  0
  2  3  2  0
  3  4  1  0
  4  5  2  0
  5  6  1  0
  6  7  2  0
  6  8  2  0
  6  9  1  0
  9 10  1  0
 10 11  2  0
 11 12  1  0
 12 13  2  0
 13 14  1  0
 14 15  1  0
 15 16  1  0
 16 17  1  0
 17 18  1  0
 18 19  1  0
 13 20  1  0
 20 21  2  0
  5 22  1  0
 22 23  2  0
 23  2  1  0
 21 10  1  0
 19 14  1  0
  1 24  1  0
  1 25  1  0
  1 26  1  0
  3 27  1  0
  4 28  1  0
 11 29  1  0
 12 30  1  0
 15 31  1  0
 15 32  1  0
 16 33  1  0
 16 34  1  0
 17 35  1  0
 18 36  1  0
 18 37  1  0
 19 38  1  0
 19 39  1  0
 20 40  1  0
 21 41  1  0
 22 42  1  0
 23 43  1  0
M  CHG  1   9  -1
M  END
>  <UniqueID>  (2) 
2

>  <SMILES>  (2) 
Cc1ccc(S(=O)(=O)[N-]c2ccc(N3CCNCC3)cc2)cc1

>  <Energy>  (2) 
55.006228284239384

>  <Genealogy>  (2) 
Cc1ccc(S(=O)(=O)[N-]c2ccc(N3CCNCC3)cc2)cc1 (protonated)
Cc1ccc(S(=O)(=O)[N-]c2ccc(N3CCNCC3)cc2)cc1 (3D coordinates assigned)
Cc1ccc(S(=O)(=O)[N-]c2ccc(N3CCNCC3)cc2)cc1 (nonaromatic ring conformer: 55.006228284239384 kcal/mol)

>  <smiles>  (2) 
Cc1ccc(S(=O)(=O)Nc2ccc(N3CCNCC3)cc2)cc1

>  <score_type>  (2) 
oracle

>  <origin>  (2) 
adgpu

>  <m_score__min__energy>  (2) 
-9.7400000000000002

>  <m_primary>  (2) 
energy

$$$$
2:0
     RDKit          3D

 26 28  0  0  0  0  0  0  0  0999 V2000
   -1.1570   21.5740  -28.1200 O   0  0  0  0  0  0  0  0  0  0  0  0
   -1.7920   22.5120  -28.6680 C   0  0  0  0  0  0  0  0  0  0  0  0
   -2.9050   22.2430  -29.3950 N   0  0  0  0  0  0  0  0  0  0  0  0
   -3.6200   23.2310  -30.0020 C   0  0  0  0  0  0  0  0  0  0  0  0
   -4.8210   22.8410  -30.7760 C   0  0  0  0  0  0  0  0  0  0  0  0
   -5.1000   21.5540  -31.0800 N   0  0  0  0  0  0  0  0  0  0  0  0
   -6.2510   21.4090  -31.7980 C   0  0  0  0  0  0  0  0  0  0  0  0
   -6.7280   20.0660  -32.2290 C   0  0  0  0  0  0  0  0  0  0  0  0
   -6.0090   19.3510  -33.2070 C   0  0  0  0  0  0  0  0  0  0  0  0
   -6.4380   18.0880  -33.6270 C   0  0  0  0  0  0  0  0  0  0  0  0
   -7.5900   17.5220  -33.0800 C   0  0  0  0  0  0  0  0  0  0  0  0
   -8.3140   18.2160  -32.1100 C   0  0  0  0  0  0  0  0  0  0  0  0
   -7.8900   19.4800  -31.6850 C   0  0  0  0  0  0  0  0  0  0  0  0
   -6.9080   22.6130  -32.0730 C   0  0  0  0  0  0  0  0  0  0  0  0
   -6.0100   23.8600  -31.3940 S   0  0  0  0  0  0  0  0  0  0  0  0
   -3.1850   24.5650  -29.8660 C   0  0  0  0  0  0  0  0  0  0  0  0
   -3.8640   25.6240  -30.4580 O   0  0  0  0  0  0  0  0  0  0  0  0
   -2.0350   24.8180  -29.1110 C   0  0  0  0  0  0  0  0  0  0  0  0
   -1.6160   25.9970  -28.9660 O   0  0  0  0  0  0  0  0  0  0  0  0
   -1.3640   23.7920  -28.5290 N   0  0  0  0  0  0  0  0  0  0  0  0
   -5.1007   19.7907  -33.6448 H   0  0  0  0  0  0  0  0  0  0  0  0
   -5.8661   17.5397  -34.3901 H   0  0  0  0  0  0  0  0  0  0  0  0
   -7.9272   16.5294  -33.4132 H   0  0  0  0  0  0  0  0  0  0  0  0
   -9.2210   17.7681  -31.6780 H   0  0  0  0  0  0  0  0  0  0  0  0
   -8.4674   20.0208  -30.9207 H   0  0  0  0  0  0  0  0  0  0  0  0
   -7.8472   22.7238  -32.6349 H   0  0  0  0  0  0  0  0  0  0  0  0
  1  2  2  0
  2  3  1  0
  3  4  1  0
  4  5  1  0
  5  6  2  0
  6  7  1  0
  7  8  1  0
  8  9  2  0
  9 10  1  0
 10 11  2  0
 11 12  1  0
 12 13  2  0
  7 14  2  0
 14 15  1  0
  4 16  2  0
 16 17  1  0
 16 18  1  0
 18 19  2  0
 18 20  1  0
 20  2  1  0
 15  5  1  0
 13  8  1  0
  9 21  1  0
 10 22  1  0
 11 23  1  0
 12 24  1  0
 13 25  1  0
 14 26  1  0
M  CHG  3   3  -1  17  -1  20  -1
M  END
>  <UniqueID>  (3) 
3

>  <SMILES>  (3) 
O=c1[n-]c(-c2nc(-c3ccccc3)cs2)c([O-])c(=O)[n-]1

>  <Energy>  (3) 
64.98525546932086

>  <Genealogy>  (3) 
O=c1[n-]c(-c2nc(-c3ccccc3)cs2)c([O-])c(=O)[n-]1 (protonated)
O=c1[n-]c(-c2nc(-c3ccccc3)cs2)c([O-])c(=O)[n-]1 (3D coordinates assigned)
O=c1[n-]c(-c2nc(-c3ccccc3)cs2)c([O-])c(=O)[n-]1 (optimized conformer: 64.98525546932086 kcal/mol)

>  <smiles>  (3) 
O=c1[nH]c(-c2nc(-c3ccccc3)cs2)c(O)c(=O)[nH]1

>  <score_type>  (3) 
oracle

>  <origin>  (3) 
adgpu

>  <m_score__min__energy>  (3) 
-11.57

>  <m_primary>  (3) 
energy

$$$$
3:0
     RDKit          3D

 36 37  0  0  0  0  0  0  0  0999 V2000
   -0.4480   21.1270  -33.3350 C   0  0  0  0  0  0  0  0  0  0  0  0
   -1.5620   20.1390  -33.2250 C   0  0  0  0  0  0  0  0  0  0  0  0
   -1.4690   19.1920  -32.3970 O   0  0  0  0  0  0  0  0  0  0  0  0
   -2.6800   20.2190  -34.1240 N   0  0  0  0  0  0  0  0  0  0  0  0
   -3.8800   19.4390  -33.9870 C   0  0  0  0  0  0  0  0  0  0  0  0
   -3.9360   18.1570  -34.5540 C   0  0  0  0  0  0  0  0  0  0  0  0
   -5.0930   17.3810  -34.4370 C   0  0  0  0  0  0  0  0  0  0  0  0
   -6.2100   17.8840  -33.7660 C   0  0  0  0  0  0  0  0  0  0  0  0
   -6.1810   19.1760  -33.2240 C   0  0  0  0  0  0  0  0  0  0  0  0
   -7.5750   19.8220  -32.3660 S   0  0  0  0  0  0  0  0  0  0  0  0
   -8.7880   19.7610  -33.2530 O   0  0  0  0  0  0  0  0  0  0  0  0
   -7.8530   19.0080  -31.1330 O   0  0  0  0  0  0  0  0  0  0  0  0
   -7.2410   21.4910  -31.9180 C   0  0  0  0  0  0  0  0  0  0  0  0
   -8.2610   22.4520  -31.9530 C   0  0  0  0  0  0  0  0  0  0  0  0
   -7.9960   23.7690  -31.5710 C   0  0  0  0  0  0  0  0  0  0  0  0
   -6.7160   24.1310  -31.1400 C   0  0  0  0  0  0  0  0  0  0  0  0
   -5.6960   23.1730  -31.0850 C   0  0  0  0  0  0  0  0  0  0  0  0
   -4.0810   23.6180  -30.5400 S   0  0  0  0  0  0  0  0  0  0  0  0
   -3.8710   25.3260  -30.6940 N   0  0  0  0  0  0  0  0  0  0  0  0
   -3.8970   23.2200  -29.1030 O   0  0  0  0  0  0  0  0  0  0  0  0
   -3.0520   22.9080  -31.3740 O   0  0  0  0  0  0  0  0  0  0  0  0
   -5.9600   21.8550  -31.4820 C   0  0  0  0  0  0  0  0  0  0  0  0
   -5.0200   19.9520  -33.3420 C   0  0  0  0  0  0  0  0  0  0  0  0
   -0.1173   21.4203  -32.3277 H   0  0  0  0  0  0  0  0  0  0  0  0
    0.3929   20.6723  -33.8791 H   0  0  0  0  0  0  0  0  0  0  0  0
   -0.7990   22.0162  -33.8791 H   0  0  0  0  0  0  0  0  0  0  0  0
   -2.5780   20.8200  -34.9730 H   0  0  0  0  0  0  0  0  0  0  0  0
   -3.0639   17.7598  -35.0941 H   0  0  0  0  0  0  0  0  0  0  0  0
   -5.1237   16.3721  -34.8743 H   0  0  0  0  0  0  0  0  0  0  0  0
   -7.1136   17.2652  -33.6629 H   0  0  0  0  0  0  0  0  0  0  0  0
   -9.2717   22.1684  -32.2818 H   0  0  0  0  0  0  0  0  0  0  0  0
   -8.7959   24.5231  -31.6093 H   0  0  0  0  0  0  0  0  0  0  0  0
   -6.5099   25.1701  -30.8436 H   0  0  0  0  0  0  0  0  0  0  0  0
   -3.5170   25.6740  -29.7740 H   0  0  0  0  0  0  0  0  0  0  0  0
   -5.1579   21.1029  -31.4512 H   0  0  0  0  0  0  0  0  0  0  0  0
   -5.0000   20.9705  -32.9269 H   0  0  0  0  0  0  0  0  0  0  0  0
  1  2  1  0
  2  3  2  0
  2  4  1  0
  4  5  1  0
  5  6  2  0
  6  7  1  0
  7  8  2  0
  8  9  1  0
  9 10  1  0
 10 11  2  0
 10 12  2  0
 10 13  1  0
 13 14  2  0
 14 15  1  0
 15 16  2  0
 16 17  1  0
 17 18  1  0
 18 19  1  0
 18 20  2  0
 18 21  2  0
 17 22  2  0
  9 23  2  0
 23  5  1  0
 22 13  1  0
  1 24  1  0
  1 25  1  0
  1 26  1  0
  4 27  1  0
  6 28  1  0
  7 29  1  0
  8 30  1  0
 14 31  1  0
 15 32  1  0
 16 33  1  0
 19 34  1  0
 22 35  1  0
 23 36  1  0
M  CHG  1  19  -1
M  END
>  <UniqueID>  (4) 
4

>  <SMILES>  (4) 
CC(=O)Nc1cccc(S(=O)(=O)c2cccc(S([NH-])(=O)=O)c2)c1

>  <Energy>  (4) 
38.947908958338665

>  <Genealogy>  (4) 
CC(=O)Nc1cccc(S(=O)(=O)c2cccc(S([NH-])(=O)=O)c2)c1 (protonated)
CC(=O)Nc1cccc(S(=O)(=O)c2cccc(S([NH-])(=O)=O)c2)c1 (3D coordinates assigned)
CC(=O)Nc1cccc(S(=O)(=O)c2cccc(S([NH-])(=O)=O)c2)c1 (optimized conformer: 38.947908958338665 kcal/mol)

>  <smiles>  (4) 
CC(=O)Nc1cccc(S(=O)(=O)c2cccc(S(N)(=O)=O)c2)c1

>  <score_type>  (4) 
oracle

>  <origin>  (4) 
adgpu

>  <m_score__min__energy>  (4) 
-11.41

>  <m_primary>  (4) 
energy

$$$$
4:0
     RDKit          3D

 42 44  0  0  0  0  0  0  0  0999 V2000
   -0.5210   22.4910  -26.7410 C   0  0  0  0  0  0  0  0  0  0  0  0
   -0.7570   23.9100  -26.2870 C   0  0  0  0  0  0  0  0  0  0  0  0
   -0.6560   24.1960  -24.9140 C   0  0  0  0  0  0  0  0  0  0  0  0
   -0.8220   25.4980  -24.4440 C   0  0  0  0  0  0  0  0  0  0  0  0
   -1.0940   26.5330  -25.3350 C   0  0  0  0  0  0  0  0  0  0  0  0
   -1.2130   26.2690  -26.6990 C   0  0  0  0  0  0  0  0  0  0  0  0
   -1.0660   24.9590  -27.1960 C   0  0  0  0  0  0  0  0  0  0  0  0
   -1.2420   24.7400  -28.6540 C   0  0  0  0  0  0  0  0  0  0  0  0
   -0.3920   24.0530  -29.2840 O   0  0  0  0  0  0  0  0  0  0  0  0
   -2.3680   25.2990  -29.3440 N   0  0  0  0  0  0  0  0  0  0  0  0
   -3.5010   24.5850  -29.8600 C   0  0  0  0  0  0  0  0  0  0  0  0
   -4.6600   25.3050  -30.1720 C   0  0  0  0  0  0  0  0  0  0  0  0
   -5.7810   24.6520  -30.6940 C   0  0  0  0  0  0  0  0  0  0  0  0
   -5.7500   23.2700  -30.9200 C   0  0  0  0  0  0  0  0  0  0  0  0
   -7.1660   22.4520  -31.5680 S   0  0  0  0  0  0  0  0  0  0  0  0
   -7.9840   23.3940  -32.4070 O   0  0  0  0  0  0  0  0  0  0  0  0
   -8.0080   21.9550  -30.4280 O   0  0  0  0  0  0  0  0  0  0  0  0
   -6.6800   21.1030  -32.5440 N   0  0  0  0  0  0  0  0  0  0  0  0
   -7.2100   19.9180  -32.4680 C   0  0  0  0  0  0  0  0  0  0  0  0
   -8.2030   19.5660  -31.6300 N   0  0  0  0  0  0  0  0  0  0  0  0
   -8.4200   18.2710  -31.9420 C   0  0  0  0  0  0  0  0  0  0  0  0
   -7.5980   17.8460  -32.9260 N   0  0  0  0  0  0  0  0  0  0  0  0
   -6.8380   18.8830  -33.2410 N   0  0  0  0  0  0  0  0  0  0  0  0
   -5.8420   18.8840  -34.3060 C   0  0  0  0  0  0  0  0  0  0  0  0
   -4.5810   22.5510  -30.6400 C   0  0  0  0  0  0  0  0  0  0  0  0
   -3.4590   23.2030  -30.1180 C   0  0  0  0  0  0  0  0  0  0  0  0
   -0.4124   21.8382  -25.8624 H   0  0  0  0  0  0  0  0  0  0  0  0
   -1.3752   22.1527  -27.3459 H   0  0  0  0  0  0  0  0  0  0  0  0
    0.3967   22.4474  -27.3459 H   0  0  0  0  0  0  0  0  0  0  0  0
   -0.4438   23.3838  -24.2032 H   0  0  0  0  0  0  0  0  0  0  0  0
   -0.7380   25.7081  -23.3675 H   0  0  0  0  0  0  0  0  0  0  0  0
   -1.2152   27.5608  -24.9621 H   0  0  0  0  0  0  0  0  0  0  0  0
   -1.4243   27.0937  -27.3955 H   0  0  0  0  0  0  0  0  0  0  0  0
   -4.6893   26.3919  -30.0055 H   0  0  0  0  0  0  0  0  0  0  0  0
   -6.6901   25.2255  -30.9279 H   0  0  0  0  0  0  0  0  0  0  0  0
   -8.7040   20.1360  -30.9130 H   0  0  0  0  0  0  0  0  0  0  0  0
   -9.1754   17.6378  -31.4537 H   0  0  0  0  0  0  0  0  0  0  0  0
   -4.8341   18.8850  -33.8654 H   0  0  0  0  0  0  0  0  0  0  0  0
   -5.9694   17.9857  -34.9280 H   0  0  0  0  0  0  0  0  0  0  0  0
   -5.9712   19.7820  -34.9280 H   0  0  0  0  0  0  0  0  0  0  0  0
   -4.5451   21.4684  -30.8315 H   0  0  0  0  0  0  0  0  0  0  0  0
   -2.5415   22.6335  -29.9087 H   0  0  0  0  0  0  0  0  0  0  0  0
  1  2  1  0
  2  3  2  0
  3  4  1  0
  4  5  2  0
  5  6  1  0
  6  7  2  0
  7  8  1  0
  8  9  2  0
  8 10  1  0
 10 11  1  0
 11 12  2  0
 12 13  1  0
 13 14  2  0
 14 15  1  0
 15 16  2  0
 15 17  2  0
 15 18  1  0
 18 19  2  3
 19 20  1  0
 20 21  1  0
 21 22  2  0
 22 23  1  0
 23 24  1  0
 14 25  1  0
 25 26  2  0
  7  2  1  0
 26 11  1  0
 23 19  1  0
  1 27  1  0
  1 28  1  0
  1 29  1  0
  3 30  1  0
  4 31  1  0
  5 32  1  0
  6 33  1  0
 12 34  1  0
 13 35  1  0
 20 36  1  0
 21 37  1  0
 24 38  1  0
 24 39  1  0
 24 40  1  0
 25 41  1  0
 26 42  1  0
M  CHG  1  10  -1
M  END
>  <UniqueID>  (5) 
5

>  <SMILES>  (5) 
Cc1ccccc1C(=O)[N-]c1ccc(S(=O)(=O)N=c2[nH]cnn2C)cc1

>  <Energy>  (5) 
90.58709869955837

>  <Genealogy>  (5) 
Cc1ccccc1C(=O)[N-]c1ccc(S(=O)(=O)N=c2[nH]cnn2C)cc1 (protonated)
Cc1ccccc1C(=O)[N-]c1ccc(S(=O)(=O)N=c2[nH]cnn2C)cc1 (3D coordinates assigned)
Cc1ccccc1C(=O)[N-]c1ccc(S(=O)(=O)N=c2[nH]cnn2C)cc1 (optimized conformer: 90.58709869955837 kcal/mol)

>  <smiles>  (5) 
Cc1ccccc1C(=O)Nc1ccc(S(=O)(=O)N=c2[nH]cnn2C)cc1

>  <score_type>  (5) 
oracle

>  <origin>  (5) 
adgpu

>  <m_score__min__energy>  (5) 
-10.529999999999999

>  <m_primary>  (5) 
energy

$$$$
5:0
     RDKit          3D

 45 47  0  0  0  0  0  0  0  0999 V2000
    0.1320   21.5250  -30.9570 O   0  0  0  0  0  0  0  0  0  0  0  0
   -1.3500   21.3080  -30.8450 S   0  0  0  0  0  0  0  0  0  0  0  0
   -1.8030   20.4320  -31.9800 O   0  0  0  0  0  0  0  0  0  0  0  0
   -2.1660   22.8370  -30.9490 N   0  0  0  0  0  0  0  0  0  0  0  0
   -3.5940   22.9630  -31.0880 C   0  0  0  0  0  0  0  0  0  0  0  0
   -4.3860   21.8720  -31.4890 C   0  0  0  0  0  0  0  0  0  0  0  0
   -5.7770   21.9930  -31.5780 C   0  0  0  0  0  0  0  0  0  0  0  0
   -6.7380   20.5800  -32.0070 S   0  0  0  0  0  0  0  0  0  0  0  0
   -8.0090   20.5580  -31.2040 O   0  0  0  0  0  0  0  0  0  0  0  0
   -7.0950   20.6780  -33.4630 O   0  0  0  0  0  0  0  0  0  0  0  0
   -5.8200   19.1130  -31.7340 N   0  0  0  0  0  0  0  0  0  0  0  0
   -6.6830   17.9160  -31.6830 C   0  0  0  0  0  0  0  0  0  0  0  0
   -7.2150   17.5040  -33.0670 C   0  0  0  0  0  0  0  0  0  0  0  0
   -6.1650   17.6500  -34.1830 C   0  0  0  0  0  0  0  0  0  0  0  0
   -4.7510   17.7980  -33.6240 C   0  0  0  0  0  0  0  0  0  0  0  0
   -4.6670   18.9980  -32.6620 C   0  0  0  0  0  0  0  0  0  0  0  0
   -6.3880   23.2180  -31.2870 C   0  0  0  0  0  0  0  0  0  0  0  0
   -5.6100   24.3150  -30.9150 C   0  0  0  0  0  0  0  0  0  0  0  0
   -4.2200   24.1940  -30.8130 C   0  0  0  0  0  0  0  0  0  0  0  0
   -3.4690   25.2990  -30.4250 O   0  0  0  0  0  0  0  0  0  0  0  0
   -1.6940   20.5500  -29.2910 C   0  0  0  0  0  0  0  0  0  0  0  0
   -2.8360   20.9060  -28.5590 C   0  0  0  0  0  0  0  0  0  0  0  0
   -3.0870   20.3110  -27.3180 C   0  0  0  0  0  0  0  0  0  0  0  0
   -2.2010   19.3590  -26.8050 C   0  0  0  0  0  0  0  0  0  0  0  0
   -2.4440   18.7860  -25.6010 F   0  0  0  0  0  0  0  0  0  0  0  0
   -1.0590   19.0070  -27.5300 C   0  0  0  0  0  0  0  0  0  0  0  0
   -0.8050   19.6000  -28.7700 C   0  0  0  0  0  0  0  0  0  0  0  0
   -1.5860   23.6900  -30.7830 H   0  0  0  0  0  0  0  0  0  0  0  0
   -3.9065   20.9131  -31.7353 H   0  0  0  0  0  0  0  0  0  0  0  0
   -6.1006   17.0804  -31.2675 H   0  0  0  0  0  0  0  0  0  0  0  0
   -7.5516   18.1610  -31.0541 H   0  0  0  0  0  0  0  0  0  0  0  0
   -7.5338   16.4522  -33.0211 H   0  0  0  0  0  0  0  0  0  0  0  0
   -8.0507   18.1761  -33.3116 H   0  0  0  0  0  0  0  0  0  0  0  0
   -6.2016   16.7567  -34.8239 H   0  0  0  0  0  0  0  0  0  0  0  0
   -6.4011   18.5600  -34.7541 H   0  0  0  0  0  0  0  0  0  0  0  0
   -4.4798   16.8806  -33.0810 H   0  0  0  0  0  0  0  0  0  0  0  0
   -4.0567   17.9668  -34.4603 H   0  0  0  0  0  0  0  0  0  0  0  0
   -3.7501   18.8968  -32.0628 H   0  0  0  0  0  0  0  0  0  0  0  0
   -4.6697   19.9046  -33.2849 H   0  0  0  0  0  0  0  0  0  0  0  0
   -7.4817   23.3161  -31.3515 H   0  0  0  0  0  0  0  0  0  0  0  0
   -6.0922   25.2802  -30.7008 H   0  0  0  0  0  0  0  0  0  0  0  0
   -3.5352   21.6540  -28.9611 H   0  0  0  0  0  0  0  0  0  0  0  0
   -3.9828   20.5926  -26.7450 H   0  0  0  0  0  0  0  0  0  0  0  0
   -0.3589   18.2620  -27.1240 H   0  0  0  0  0  0  0  0  0  0  0  0
    0.0945   19.3205  -29.3381 H   0  0  0  0  0  0  0  0  0  0  0  0
  1  2  2  0
  2  3  2  0
  2  4  1  0
  4  5  1  0
  5  6  2  0
  6  7  1  0
  7  8  1  0
  8  9  2  0
  8 10  2  0
  8 11  1  0
 11 12  1  0
 12 13  1  0
 13 14  1  0
 14 15  1  0
 15 16  1  0
  7 17  2  0
 17 18  1  0
 18 19  2  0
 19 20  1  0
  2 21  1  0
 21 22  2  0
 22 23  1  0
 23 24  2  0
 24 25  1  0
 24 26  1  0
 26 27  2  0
 19  5  1  0
 27 21  1  0
 16 11  1  0
  4 28  1  0
  6 29  1  0
 12 30  1  0
 12 31  1  0
 13 32  1  0
 13 33  1  0
 14 34  1  0
 14 35  1  0
 15 36  1  0
 15 37  1  0
 16 38  1  0
 16 39  1  0
 17 40  1  0
 18 41  1  0
 22 42  1  0
 23 43  1  0
 26 44  1  0
 27 45  1  0
M  CHG  1  20  -1
M  END
>  <UniqueID>  (6) 
6

>  <SMILES>  (6) 
O=S(=O)(Nc1cc(S(=O)(=O)N2CCCCC2)ccc1[O-])c1ccc(F)cc1

>  <Energy>  (6) 
53.906413217059715

>  <Genealogy>  (6) 
O=S(=O)(Nc1cc(S(=O)(=O)N2CCCCC2)ccc1[O-])c1ccc(F)cc1 (protonated)
O=S(=O)(Nc1cc(S(=O)(=O)N2CCCCC2)ccc1[O-])c1ccc(F)cc1 (3D coordinates assigned)
O=S(=O)(Nc1cc(S(=O)(=O)N2CCCCC2)ccc1[O-])c1ccc(F)cc1 (nonaromatic ring conformer: 53.906413217059715 kcal/mol)

>  <smiles>  (6) 
O=S(=O)(Nc1cc(S(=O)(=O)N2CCCCC2)ccc1O)c1ccc(F)cc1

>  <score_type>  (6) 
oracle

>  <origin>  (6) 
adgpu

>  <m_score__min__energy>  (6) 
-11.67

>  <m_primary>  (6) 
energy

$$$$
6:0
     RDKit          3D

 60 63  0  0  0  0  0  0  0  0999 V2000
   -0.6940   26.8320  -25.2430 C   0  0  0  0  0  0  0  0  0  0  0  0
   -0.5650   26.1180  -26.4690 O   0  0  0  0  0  0  0  0  0  0  0  0
   -1.6230   25.4580  -27.1190 C   0  0  0  0  0  0  0  0  0  0  0  0
   -1.5770   25.1130  -28.4830 C   0  0  0  0  0  0  0  0  0  0  0  0
   -2.6570   24.4490  -29.0810 C   0  0  0  0  0  0  0  0  0  0  0  0
   -3.8120   24.1600  -28.3450 C   0  0  0  0  0  0  0  0  0  0  0  0
   -4.9130   23.5230  -29.0080 N   0  0  0  0  0  0  0  0  0  0  0  0
   -5.8270   24.1970  -30.3240 S   0  0  0  0  0  0  0  0  0  0  0  0
   -6.8610   25.1250  -29.7510 O   0  0  0  0  0  0  0  0  0  0  0  0
   -4.9520   25.0020  -31.2400 O   0  0  0  0  0  0  0  0  0  0  0  0
   -6.6350   22.8990  -31.2190 C   0  0  0  0  0  0  0  0  0  0  0  0
   -7.9830   22.6050  -30.9500 C   0  0  0  0  0  0  0  0  0  0  0  0
   -8.6370   21.5670  -31.6250 C   0  0  0  0  0  0  0  0  0  0  0  0
   -7.9400   20.7890  -32.5500 C   0  0  0  0  0  0  0  0  0  0  0  0
   -6.5990   21.0680  -32.8270 C   0  0  0  0  0  0  0  0  0  0  0  0
   -5.9470   22.1450  -32.1950 C   0  0  0  0  0  0  0  0  0  0  0  0
   -4.5840   22.4660  -32.5130 N   0  0  0  0  0  0  0  0  0  0  0  0
   -3.3110   21.3020  -32.7290 S   0  0  0  0  0  0  0  0  0  0  0  0
   -3.8720   20.0930  -33.4350 O   0  0  0  0  0  0  0  0  0  0  0  0
   -2.2140   21.9020  -33.5740 O   0  0  0  0  0  0  0  0  0  0  0  0
   -2.6780   20.7900  -31.1680 C   0  0  0  0  0  0  0  0  0  0  0  0
   -1.3680   20.3050  -31.0500 C   0  0  0  0  0  0  0  0  0  0  0  0
   -0.8280   20.0430  -29.7890 C   0  0  0  0  0  0  0  0  0  0  0  0
   -1.5930   20.2580  -28.6340 C   0  0  0  0  0  0  0  0  0  0  0  0
   -0.8810   20.0190  -27.0370 S   0  0  0  0  0  0  0  0  0  0  0  0
   -1.9770   19.7560  -26.0400 O   0  0  0  0  0  0  0  0  0  0  0  0
    0.0130   18.8090  -27.0720 O   0  0  0  0  0  0  0  0  0  0  0  0
    0.0490   21.4110  -26.5360 N   0  0  0  0  0  0  0  0  0  0  0  0
    0.3850   22.2620  -27.6960 C   0  0  0  0  0  0  0  0  0  0  0  0
    1.0850   23.5540  -27.2320 C   0  0  0  0  0  0  0  0  0  0  0  0
    1.3590   23.5200  -25.8390 O   0  0  0  0  0  0  0  0  0  0  0  0
    0.1480   23.4210  -25.1060 C   0  0  0  0  0  0  0  0  0  0  0  0
   -0.6920   22.2020  -25.5340 C   0  0  0  0  0  0  0  0  0  0  0  0
   -2.9150   20.7090  -28.7560 C   0  0  0  0  0  0  0  0  0  0  0  0
   -3.4540   20.9750  -30.0160 C   0  0  0  0  0  0  0  0  0  0  0  0
   -3.8480   24.4770  -26.9790 C   0  0  0  0  0  0  0  0  0  0  0  0
   -2.7650   25.1320  -26.3770 C   0  0  0  0  0  0  0  0  0  0  0  0
   -0.5685   26.1375  -24.3993 H   0  0  0  0  0  0  0  0  0  0  0  0
    0.0773   27.6146  -25.1915 H   0  0  0  0  0  0  0  0  0  0  0  0
   -1.6904   27.2952  -25.1915 H   0  0  0  0  0  0  0  0  0  0  0  0
   -0.6897   25.3656  -29.0821 H   0  0  0  0  0  0  0  0  0  0  0  0
   -2.5963   24.1523  -30.1385 H   0  0  0  0  0  0  0  0  0  0  0  0
   -8.5300   23.1967  -30.2012 H   0  0  0  0  0  0  0  0  0  0  0  0
   -9.6998   21.3650  -31.4261 H   0  0  0  0  0  0  0  0  0  0  0  0
   -8.4458   19.9565  -33.0609 H   0  0  0  0  0  0  0  0  0  0  0  0
   -6.0482   20.4417  -33.5442 H   0  0  0  0  0  0  0  0  0  0  0  0
   -0.7641   20.1304  -31.9527 H   0  0  0  0  0  0  0  0  0  0  0  0
    0.2018   19.6664  -29.7016 H   0  0  0  0  0  0  0  0  0  0  0  0
    1.0561   21.7082  -28.3690 H   0  0  0  0  0  0  0  0  0  0  0  0
   -0.5433   22.5293  -28.2222 H   0  0  0  0  0  0  0  0  0  0  0  0
    2.0317   23.6657  -27.7809 H   0  0  0  0  0  0  0  0  0  0  0  0
    0.4159   24.4034  -27.4339 H   0  0  0  0  0  0  0  0  0  0  0  0
    0.3876   23.3285  -24.0364 H   0  0  0  0  0  0  0  0  0  0  0  0
   -0.4436   24.3265  -25.3062 H   0  0  0  0  0  0  0  0  0  0  0  0
   -0.8998   21.5748  -24.6546 H   0  0  0  0  0  0  0  0  0  0  0  0
   -1.6386   22.5495  -25.9734 H   0  0  0  0  0  0  0  0  0  0  0  0
   -3.5298   20.8538  -27.8554 H   0  0  0  0  0  0  0  0  0  0  0  0
   -4.4910   21.3309  -30.1048 H   0  0  0  0  0  0  0  0  0  0  0  0
   -4.7298   24.2104  -26.3779 H   0  0  0  0  0  0  0  0  0  0  0  0
   -2.8126   25.3930  -25.3095 H   0  0  0  0  0  0  0  0  0  0  0  0
  1  2  1  0
  2  3  1  0
  3  4  2  0
  4  5  1  0
  5  6  2  0
  6  7  1  0
  7  8  1  0
  8  9  2  0
  8 10  2  0
  8 11  1  0
 11 12  2  0
 12 13  1  0
 13 14  2  0
 14 15  1  0
 15 16  2  0
 16 17  1  0
 17 18  1  0
 18 19  2  0
 18 20  2  0
 18 21  1  0
 21 22  2  0
 22 23  1  0
 23 24  2  0
 24 25  1  0
 25 26  2  0
 25 27  2  0
 25 28  1  0
 28 29  1  0
 29 30  1  0
 30 31  1  0
 31 32  1  0
 32 33  1  0
 24 34  1  0
 34 35  2  0
  6 36  1  0
 36 37  2  0
 37  3  1  0
 16 11  1  0
 35 21  1  0
 33 28  1  0
  1 38  1  0
  1 39  1  0
  1 40  1  0
  4 41  1  0
  5 42  1  0
 12 43  1  0
 13 44  1  0
 14 45  1  0
 15 46  1  0
 22 47  1  0
 23 48  1  0
 29 49  1  0
 29 50  1  0
 30 51  1  0
 30 52  1  0
 32 53  1  0
 32 54  1  0
 33 55  1  0
 33 56  1  0
 34 57  1  0
 35 58  1  0
 36 59  1  0
 37 60  1  0
M  CHG  2   7  -1  17  -1
M  END
>  <UniqueID>  (7) 
7

>  <SMILES>  (7) 
COc1ccc([N-]S(=O)(=O)c2ccccc2[N-]S(=O)(=O)c2ccc(S(=O)(=O)N3CCOCC3)cc2)cc1

>  <Energy>  (7) 
81.79497192268526

>  <Genealogy>  (7) 
COc1ccc([N-]S(=O)(=O)c2ccccc2[N-]S(=O)(=O)c2ccc(S(=O)(=O)N3CCOCC3)cc2)cc1 (protonated)
COc1ccc([N-]S(=O)(=O)c2ccccc2[N-]S(=O)(=O)c2ccc(S(=O)(=O)N3CCOCC3)cc2)cc1 (3D coordinates assigned)
COc1ccc([N-]S(=O)(=O)c2ccccc2[N-]S(=O)(=O)c2ccc(S(=O)(=O)N3CCOCC3)cc2)cc1 (nonaromatic ring conformer: 81.79497192268526 kcal/mol)

>  <smiles>  (7) 
COc1ccc(NS(=O)(=O)c2ccccc2NS(=O)(=O)c2ccc(S(=O)(=O)N3CCOCC3)cc2)cc1

>  <score_type>  (7) 
oracle

>  <origin>  (7) 
adgpu

>  <m_score__min__energy>  (7) 
-13.07

>  <m_primary>  (7) 
energy

$$$$
7:0
     RDKit          3D

 37 39  0  0  0  0  0  0  0  0999 V2000
   -7.7560   18.3690  -31.9150 H   0  0  0  0  0  0  0  0  0  0  0  0
   -8.5380   19.0490  -32.0430 N   0  0  0  0  0  0  0  0  0  0  0  0
   -8.3620   20.3150  -31.8530 C   0  0  0  0  0  0  0  0  0  0  0  0
   -7.1810   20.8510  -31.4860 N   0  0  0  0  0  0  0  0  0  0  0  0
   -7.2630   22.2060  -31.3520 C   0  0  0  0  0  0  0  0  0  0  0  0
   -6.0790   23.0180  -30.9630 C   0  0  0  0  0  0  0  0  0  0  0  0
   -6.1140   24.4240  -30.9800 C   0  0  0  0  0  0  0  0  0  0  0  0
   -7.0257   24.9437  -31.3098 H   0  0  0  0  0  0  0  0  0  0  0  0
   -5.0020   25.1630  -30.5820 C   0  0  0  0  0  0  0  0  0  0  0  0
   -5.0480   26.2620  -30.5867 H   0  0  0  0  0  0  0  0  0  0  0  0
   -3.8290   24.5210  -30.1770 C   0  0  0  0  0  0  0  0  0  0  0  0
   -2.7690   25.2950  -29.7180 O   0  0  0  0  0  0  0  0  0  0  0  0
   -3.7470   23.1140  -30.2070 C   0  0  0  0  0  0  0  0  0  0  0  0
   -2.4790   22.3810  -29.7890 C   0  0  0  0  0  0  0  0  0  0  0  0
   -2.7735   21.4354  -29.3104 H   0  0  0  0  0  0  0  0  0  0  0  0
   -1.8884   22.2408  -30.7063 H   0  0  0  0  0  0  0  0  0  0  0  0
   -1.6050   23.1260  -28.8410 N   0  0  0  0  0  0  0  0  0  0  0  0
   -1.6800   24.1280  -29.1410 H   0  0  0  0  0  0  0  0  0  0  0  0
   -0.1610   22.7760  -28.9550 C   0  0  0  0  0  0  0  0  0  0  0  0
   -0.0077   22.2031  -29.8814 H   0  0  0  0  0  0  0  0  0  0  0  0
    0.4136   23.7140  -28.9638 H   0  0  0  0  0  0  0  0  0  0  0  0
    0.3290   21.9350  -27.7670 C   0  0  0  0  0  0  0  0  0  0  0  0
   -0.2457   20.9977  -27.7312 H   0  0  0  0  0  0  0  0  0  0  0  0
    1.4010   21.7315  -27.9066 H   0  0  0  0  0  0  0  0  0  0  0  0
    0.1560   22.6530  -26.4890 N   0  0  0  0  0  0  0  0  0  0  0  0
    0.0570   21.9370  -25.7300 H   0  0  0  0  0  0  0  0  0  0  0  0
   -1.0240   23.5400  -26.4560 C   0  0  0  0  0  0  0  0  0  0  0  0
   -1.4443   23.5342  -25.4395 H   0  0  0  0  0  0  0  0  0  0  0  0
   -0.6981   24.5498  -26.7462 H   0  0  0  0  0  0  0  0  0  0  0  0
   -2.1100   23.0900  -27.4440 C   0  0  0  0  0  0  0  0  0  0  0  0
   -2.4167   22.0625  -27.1984 H   0  0  0  0  0  0  0  0  0  0  0  0
   -2.9654   23.7767  -27.3621 H   0  0  0  0  0  0  0  0  0  0  0  0
   -4.8960   22.3770  -30.5510 C   0  0  0  0  0  0  0  0  0  0  0  0
   -4.8685   21.2787  -30.4967 H   0  0  0  0  0  0  0  0  0  0  0  0
   -8.5300   22.7350  -31.6260 C   0  0  0  0  0  0  0  0  0  0  0  0
   -8.8057   23.7989  -31.5794 H   0  0  0  0  0  0  0  0  0  0  0  0
   -9.5610   21.4690  -32.0390 S   0  0  0  0  0  0  0  0  0  0  0  0
  1  2  1  0
  2  3  2  0
  3  4  1  0
  4  5  1  0
  5  6  1  0
  6  7  2  0
  7  8  1  0
  7  9  1  0
  9 10  1  0
  9 11  2  0
 11 12  1  0
 11 13  1  0
 13 14  1  0
 14 15  1  0
 14 16  1  0
 14 17  1  0
 17 18  1  0
 17 19  1  0
 19 20  1  0
 19 21  1  0
 19 22  1  0
 22 23  1  0
 22 24  1  0
 22 25  1  0
 25 26  1  0
 25 27  1  0
 27 28  1  0
 27 29  1  0
 27 30  1  0
 30 31  1  0
 30 32  1  0
 13 33  2  0
 33 34  1  0
  5 35  2  0
 35 36  1  0
 35 37  1  0
 37  3  1  0
 33  6  1  0
 30 17  1  0
M  CHG  3   4  -1  12  -1  17   1
M  END
>  <UniqueID>  (8) 
8

>  <SMILES>  (8) 
[H]/N=c1\[n-]c(-c2ccc([O-])c(C[NH+]3CCNCC3)c2)cs1

>  <Energy>  (8) 
86.32896188001031

>  <Genealogy>  (8) 
N=c1[n-]c(-c2ccc([O-])c(C[NH+]3CCNCC3)c2)cs1 (protonated)
[H]/N=c1\[n-]c(-c2ccc([O-])c(C[NH+]3CCNCC3)c2)cs1 (cis-trans isomerization)
[H]/N=c1\[n-]c(-c2ccc([O-])c(C[NH+]3CCNCC3)c2)cs1 (3D coordinates assigned)
[H]/N=c1\[n-]c(-c2ccc([O-])c(C[NH+]3CCNCC3)c2)cs1 (nonaromatic ring conformer: 86.32896188001031 kcal/mol)

>  <smiles>  (8) 
N=c1[nH]c(-c2ccc(O)c(CN3CCNCC3)c2)cs1

>  <score_type>  (8) 
oracle

>  <origin>  (8) 
adgpu

>  <m_score__min__energy>  (8) 
-8.6099999999999994

>  <m_primary>  (8) 
energy

$$$$
8:0
     RDKit          3D

 51 54  0  0  0  0  0  0  0  0999 V2000
   -5.3870   26.4270  -30.4540 O   0  0  0  0  0  0  0  0  0  0  0  0
   -5.0650   25.2160  -30.5820 C   0  0  0  0  0  0  0  0  0  0  0  0
   -3.6790   24.8560  -30.4910 N   0  0  0  0  0  0  0  0  0  0  0  0
   -3.1470   23.5240  -30.5290 C   0  0  0  0  0  0  0  0  0  0  0  0
   -3.3950   22.6790  -31.6250 C   0  0  0  0  0  0  0  0  0  0  0  0
   -2.9050   21.3690  -31.6410 C   0  0  0  0  0  0  0  0  0  0  0  0
   -3.2530   20.3290  -33.0200 S   0  0  0  0  0  0  0  0  0  0  0  0
   -2.9190   18.9120  -32.6440 O   0  0  0  0  0  0  0  0  0  0  0  0
   -2.4010   20.7280  -34.1940 O   0  0  0  0  0  0  0  0  0  0  0  0
   -4.9480   20.4480  -33.4390 N   0  0  0  0  0  0  0  0  0  0  0  0
   -5.3910   19.2720  -34.1980 C   0  0  0  0  0  0  0  0  0  0  0  0
   -5.9620   18.2700  -33.2050 C   0  0  0  0  0  0  0  0  0  0  0  0
   -6.2250   19.0590  -31.9330 C   0  0  0  0  0  0  0  0  0  0  0  0
   -5.7870   20.4850  -32.2350 C   0  0  0  0  0  0  0  0  0  0  0  0
   -2.1370   20.9040  -30.5680 C   0  0  0  0  0  0  0  0  0  0  0  0
   -1.8590   21.7450  -29.4890 C   0  0  0  0  0  0  0  0  0  0  0  0
   -2.3500   23.0580  -29.4640 C   0  0  0  0  0  0  0  0  0  0  0  0
   -2.0490   23.9000  -28.3380 N   0  0  0  0  0  0  0  0  0  0  0  0
   -0.7940   24.6530  -28.3010 C   0  0  0  0  0  0  0  0  0  0  0  0
   -1.0210   25.9860  -27.5800 C   0  0  0  0  0  0  0  0  0  0  0  0
   -1.6310   25.7790  -26.3180 O   0  0  0  0  0  0  0  0  0  0  0  0
   -2.9290   25.2400  -26.4930 C   0  0  0  0  0  0  0  0  0  0  0  0
   -2.8580   23.8440  -27.1190 C   0  0  0  0  0  0  0  0  0  0  0  0
   -6.1250   24.2070  -30.7640 C   0  0  0  0  0  0  0  0  0  0  0  0
   -6.7400   23.4570  -29.7650 C   0  0  0  0  0  0  0  0  0  0  0  0
   -7.7320   22.5970  -30.2520 C   0  0  0  0  0  0  0  0  0  0  0  0
   -7.9130   22.6750  -31.6260 C   0  0  0  0  0  0  0  0  0  0  0  0
   -6.8380   23.8140  -32.2360 S   0  0  0  0  0  0  0  0  0  0  0  0
   -3.9803   23.0519  -32.4785 H   0  0  0  0  0  0  0  0  0  0  0  0
   -5.0880   21.3180  -34.0040 H   0  0  0  0  0  0  0  0  0  0  0  0
   -6.1649   19.5637  -34.9232 H   0  0  0  0  0  0  0  0  0  0  0  0
   -4.5490   18.8301  -34.7509 H   0  0  0  0  0  0  0  0  0  0  0  0
   -6.8980   17.8390  -33.5898 H   0  0  0  0  0  0  0  0  0  0  0  0
   -5.2707   17.4327  -33.0288 H   0  0  0  0  0  0  0  0  0  0  0  0
   -7.2950   19.0320  -31.6792 H   0  0  0  0  0  0  0  0  0  0  0  0
   -5.6792   18.6397  -31.0749 H   0  0  0  0  0  0  0  0  0  0  0  0
   -6.6688   21.1183  -32.4120 H   0  0  0  0  0  0  0  0  0  0  0  0
   -5.2257   20.9037  -31.3867 H   0  0  0  0  0  0  0  0  0  0  0  0
   -1.7515   19.8738  -30.5746 H   0  0  0  0  0  0  0  0  0  0  0  0
   -1.2497   21.3745  -28.6515 H   0  0  0  0  0  0  0  0  0  0  0  0
   -0.0320   24.0700  -27.7631 H   0  0  0  0  0  0  0  0  0  0  0  0
   -0.4503   24.8448  -29.3282 H   0  0  0  0  0  0  0  0  0  0  0  0
   -0.0524   26.4866  -27.4344 H   0  0  0  0  0  0  0  0  0  0  0  0
   -1.6864   26.6100  -28.1947 H   0  0  0  0  0  0  0  0  0  0  0  0
   -3.4261   25.1715  -25.5141 H   0  0  0  0  0  0  0  0  0  0  0  0
   -3.4971   25.8996  -27.1654 H   0  0  0  0  0  0  0  0  0  0  0  0
   -2.3987   23.1443  -26.4052 H   0  0  0  0  0  0  0  0  0  0  0  0
   -3.8729   23.4994  -27.3663 H   0  0  0  0  0  0  0  0  0  0  0  0
   -6.4734   23.5325  -28.7005 H   0  0  0  0  0  0  0  0  0  0  0  0
   -8.3135   21.9227  -29.6061 H   0  0  0  0  0  0  0  0  0  0  0  0
   -8.6361   22.0914  -32.2147 H   0  0  0  0  0  0  0  0  0  0  0  0
  1  2  2  0
  2  3  1  0
  3  4  1  0
  4  5  2  0
  5  6  1  0
  6  7  1  0
  7  8  2  0
  7  9  2  0
  7 10  1  0
 10 11  1  0
 11 12  1  0
 12 13  1  0
 13 14  1  0
  6 15  2  0
 15 16  1  0
 16 17  2  0
 17 18  1  0
 18 19  1  0
 19 20  1  0
 20 21  1  0
 21 22  1  0
 22 23  1  0
  2 24  1  0
 24 25  2  0
 25 26  1  0
 26 27  2  0
 27 28  1  0
 17  4  1  0
 23 18  1  0
 28 24  1  0
 14 10  1  0
  5 29  1  0
 10 30  1  0
 11 31  1  0
 11 32  1  0
 12 33  1  0
 12 34  1  0
 13 35  1  0
 13 36  1  0
 14 37  1  0
 14 38  1  0
 15 39  1  0
 16 40  1  0
 19 41  1  0
 19 42  1  0
 20 43  1  0
 20 44  1  0
 22 45  1  0
 22 46  1  0
 23 47  1  0
 23 48  1  0
 25 49  1  0
 26 50  1  0
 27 51  1  0
M  CHG  2   3  -1  10   1
M  END
>  <UniqueID>  (9) 
9

>  <SMILES>  (9) 
O=C([N-]c1cc(S(=O)(=O)[NH+]2CCCC2)ccc1N1CCOCC1)c1cccs1

>  <Energy>  (9) 
91.01256154383728

>  <Genealogy>  (9) 
O=C([N-]c1cc(S(=O)(=O)[NH+]2CCCC2)ccc1N1CCOCC1)c1cccs1 (protonated)
O=C([N-]c1cc(S(=O)(=O)[NH+]2CCCC2)ccc1N1CCOCC1)c1cccs1 (3D coordinates assigned)
O=C([N-]c1cc(S(=O)(=O)[NH+]2CCCC2)ccc1N1CCOCC1)c1cccs1 (nonaromatic ring conformer: 91.01256154383728 kcal/mol)

>  <smiles>  (9) 
O=C(Nc1cc(S(=O)(=O)N2CCCC2)ccc1N1CCOCC1)c1cccs1

>  <score_type>  (9) 
oracle

>  <origin>  (9) 
adgpu

>  <m_score__min__energy>  (9) 
-9.7100000000000009

>  <m_primary>  (9) 
energy

$$$$
9:0
     RDKit          3D

 53 56  0  0  0  0  0  0  0  0999 V2000
   -4.4940   24.8530  -31.1230 O   0  0  0  0  0  0  0  0  0  0  0  0
   -5.0300   23.7160  -31.1980 C   0  0  0  0  0  0  0  0  0  0  0  0
   -5.9660   23.4620  -32.2520 N   0  0  0  0  0  0  0  0  0  0  0  0
   -7.1230   22.6190  -32.1660 C   0  0  0  0  0  0  0  0  0  0  0  0
   -8.3580   23.1030  -31.6970 C   0  0  0  0  0  0  0  0  0  0  0  0
   -9.4610   22.2500  -31.6170 C   0  0  0  0  0  0  0  0  0  0  0  0
   -9.3370   20.9060  -31.9770 C   0  0  0  0  0  0  0  0  0  0  0  0
   -8.1030   20.3980  -32.3980 C   0  0  0  0  0  0  0  0  0  0  0  0
   -8.0170   19.0440  -32.7510 O   0  0  0  0  0  0  0  0  0  0  0  0
   -6.8420   18.3720  -33.1180 C   0  0  0  0  0  0  0  0  0  0  0  0
   -6.1150   18.7180  -34.2730 C   0  0  0  0  0  0  0  0  0  0  0  0
   -4.9370   18.0360  -34.5920 C   0  0  0  0  0  0  0  0  0  0  0  0
   -4.4690   17.0160  -33.7600 C   0  0  0  0  0  0  0  0  0  0  0  0
   -5.1760   16.6810  -32.6020 C   0  0  0  0  0  0  0  0  0  0  0  0
   -6.3550   17.3600  -32.2800 C   0  0  0  0  0  0  0  0  0  0  0  0
   -6.9990   21.2640  -32.4990 C   0  0  0  0  0  0  0  0  0  0  0  0
   -4.7820   22.7310  -30.1820 N   0  0  0  0  0  0  0  0  0  0  0  0
   -3.6290   22.7390  -29.3220 C   0  0  0  0  0  0  0  0  0  0  0  0
   -3.1700   21.5330  -28.7760 C   0  0  0  0  0  0  0  0  0  0  0  0
   -2.0460   21.5140  -27.9450 C   0  0  0  0  0  0  0  0  0  0  0  0
   -1.3610   22.7000  -27.6670 C   0  0  0  0  0  0  0  0  0  0  0  0
   -1.7890   23.9080  -28.2310 C   0  0  0  0  0  0  0  0  0  0  0  0
   -0.9310   25.4040  -27.8720 S   0  0  0  0  0  0  0  0  0  0  0  0
   -1.2260   26.4240  -28.9390 O   0  0  0  0  0  0  0  0  0  0  0  0
    0.5480   25.1380  -27.8620 O   0  0  0  0  0  0  0  0  0  0  0  0
   -1.4270   25.9910  -26.3050 N   0  0  0  0  0  0  0  0  0  0  0  0
   -0.8930   27.3270  -26.0440 C   0  0  0  0  0  0  0  0  0  0  0  0
   -0.7910   27.4620  -24.5340 C   0  0  0  0  0  0  0  0  0  0  0  0
   -0.7630   26.0360  -24.0050 C   0  0  0  0  0  0  0  0  0  0  0  0
   -0.9050   25.1460  -25.2310 C   0  0  0  0  0  0  0  0  0  0  0  0
   -2.9210   23.9250  -29.0590 C   0  0  0  0  0  0  0  0  0  0  0  0
   -8.4551   24.1556  -31.3926 H   0  0  0  0  0  0  0  0  0  0  0  0
  -10.4300   22.6376  -31.2695 H   0  0  0  0  0  0  0  0  0  0  0  0
  -10.2139   20.2436  -31.9293 H   0  0  0  0  0  0  0  0  0  0  0  0
   -6.4747   19.5269  -34.9260 H   0  0  0  0  0  0  0  0  0  0  0  0
   -4.3772   18.3032  -35.5004 H   0  0  0  0  0  0  0  0  0  0  0  0
   -3.5449   16.4771  -34.0161 H   0  0  0  0  0  0  0  0  0  0  0  0
   -4.8045   15.8823  -31.9432 H   0  0  0  0  0  0  0  0  0  0  0  0
   -6.9036   17.0982  -31.3632 H   0  0  0  0  0  0  0  0  0  0  0  0
   -6.0297   20.8736  -32.8425 H   0  0  0  0  0  0  0  0  0  0  0  0
   -5.5240   22.0180  -30.0060 H   0  0  0  0  0  0  0  0  0  0  0  0
   -3.6976   20.5948  -29.0028 H   0  0  0  0  0  0  0  0  0  0  0  0
   -1.7005   20.5648  -27.5096 H   0  0  0  0  0  0  0  0  0  0  0  0
   -0.4837   22.6845  -27.0036 H   0  0  0  0  0  0  0  0  0  0  0  0
    0.1005   27.4358  -26.5035 H   0  0  0  0  0  0  0  0  0  0  0  0
   -1.5422   28.1058  -26.4706 H   0  0  0  0  0  0  0  0  0  0  0  0
    0.1306   27.9943  -24.2561 H   0  0  0  0  0  0  0  0  0  0  0  0
   -1.6295   28.0383  -24.1160 H   0  0  0  0  0  0  0  0  0  0  0  0
    0.1889   25.8348  -23.4918 H   0  0  0  0  0  0  0  0  0  0  0  0
   -1.5650   25.8556  -23.2740 H   0  0  0  0  0  0  0  0  0  0  0  0
    0.0741   24.7331  -25.5153 H   0  0  0  0  0  0  0  0  0  0  0  0
   -1.5786   24.2999  -25.0301 H   0  0  0  0  0  0  0  0  0  0  0  0
   -3.2571   24.8724  -29.5056 H   0  0  0  0  0  0  0  0  0  0  0  0
  1  2  2  0
  2  3  1  0
  3  4  1  0
  4  5  2  0
  5  6  1  0
  6  7  2  0
  7  8  1  0
  8  9  1  0
  9 10  1  0
 10 11  2  0
 11 12  1  0
 12 13  2  0
 13 14  1  0
 14 15  2  0
  8 16  2  0
  2 17  1  0
 17 18  1  0
 18 19  2  0
 19 20  1  0
 20 21  2  0
 21 22  1  0
 22 23  1  0
 23 24  2  0
 23 25  2  0
 23 26  1  0
 26 27  1  0
 27 28  1  0
 28 29  1  0
 29 30  1  0
 22 31  2  0
 16  4  1  0
 31 18  1  0
 15 10  1  0
 30 26  1  0
  5 32  1  0
  6 33  1  0
  7 34  1  0
 11 35  1  0
 12 36  1  0
 13 37  1  0
 14 38  1  0
 15 39  1  0
 16 40  1  0
 17 41  1  0
 19 42  1  0
 20 43  1  0
 21 44  1  0
 27 45  1  0
 27 46  1  0
 28 47  1  0
 28 48  1  0
 29 49  1  0
 29 50  1  0
 30 51  1  0
 30 52  1  0
 31 53  1  0
M  CHG  1   3  -1
M  END
>  <UniqueID>  (10) 
10

>  <SMILES>  (10) 
O=C([N-]c1cccc(Oc2ccccc2)c1)Nc1cccc(S(=O)(=O)N2CCCC2)c1

>  <Energy>  (10) 
69.91468253348692

>  <Genealogy>  (10) 
O=C([N-]c1cccc(Oc2ccccc2)c1)Nc1cccc(S(=O)(=O)N2CCCC2)c1 (protonated)
O=C([N-]c1cccc(Oc2ccccc2)c1)Nc1cccc(S(=O)(=O)N2CCCC2)c1 (3D coordinates assigned)
O=C([N-]c1cccc(Oc2ccccc2)c1)Nc1cccc(S(=O)(=O)N2CCCC2)c1 (nonaromatic ring conformer: 69.91468253348692 kcal/mol)

>  <smiles>  (10) 
O=C(Nc1cccc(Oc2ccccc2)c1)Nc1cccc(S(=O)(=O)N2CCCC2)c1

>  <score_type>  (10) 
oracle

>  <origin>  (10) 
adgpu

>  <m_score__min__energy>  (10) 
-11.56

>  <m_primary>  (10) 
energy

$$$$
10:0
     RDKit          3D

 44 45  0  0  0  0  0  0  0  0999 V2000
   -0.4380   26.1490  -24.5090 C   0  0  0  0  0  0  0  0  0  0  0  0
    0.1830   25.4220  -25.6650 C   0  0  0  0  0  0  0  0  0  0  0  0
   -0.3430   25.3070  -26.9400 C   0  0  0  0  0  0  0  0  0  0  0  0
   -1.6160   25.8840  -27.4840 C   0  0  0  0  0  0  0  0  0  0  0  0
   -1.7230   25.6170  -28.9130 N   0  0  0  0  0  0  0  0  0  0  0  0
   -2.5010   24.5480  -29.4620 C   0  0  0  0  0  0  0  0  0  0  0  0
   -2.2550   23.3550  -29.1350 O   0  0  0  0  0  0  0  0  0  0  0  0
   -3.5290   24.8470  -30.4160 N   0  0  0  0  0  0  0  0  0  0  0  0
   -4.4820   23.8870  -30.9020 C   0  0  0  0  0  0  0  0  0  0  0  0
   -5.8510   24.0990  -30.6740 C   0  0  0  0  0  0  0  0  0  0  0  0
   -6.7960   23.1720  -31.1220 C   0  0  0  0  0  0  0  0  0  0  0  0
   -6.3840   22.0130  -31.7920 C   0  0  0  0  0  0  0  0  0  0  0  0
   -7.5630   20.8350  -32.3630 S   0  0  0  0  0  0  0  0  0  0  0  0
   -7.2480   20.4360  -33.7800 O   0  0  0  0  0  0  0  0  0  0  0  0
   -8.9260   21.4670  -32.3240 O   0  0  0  0  0  0  0  0  0  0  0  0
   -7.5340   19.4230  -31.3340 N   0  0  0  0  0  0  0  0  0  0  0  0
   -6.3750   18.5890  -31.6790 C   0  0  0  0  0  0  0  0  0  0  0  0
   -8.7750   18.6610  -31.5190 C   0  0  0  0  0  0  0  0  0  0  0  0
   -5.0180   21.7810  -31.9970 C   0  0  0  0  0  0  0  0  0  0  0  0
   -4.0720   22.7090  -31.5520 C   0  0  0  0  0  0  0  0  0  0  0  0
    0.5550   24.5090  -27.6260 C   0  0  0  0  0  0  0  0  0  0  0  0
    1.5580   24.1530  -26.8000 N   0  0  0  0  0  0  0  0  0  0  0  0
    1.3240   24.7010  -25.6170 N   0  0  0  0  0  0  0  0  0  0  0  0
    2.1990   24.5200  -24.4630 C   0  0  0  0  0  0  0  0  0  0  0  0
   -0.0707   25.7190  -23.5655 H   0  0  0  0  0  0  0  0  0  0  0  0
   -0.1664   27.2139  -24.5569 H   0  0  0  0  0  0  0  0  0  0  0  0
   -1.5322   26.0472  -24.5569 H   0  0  0  0  0  0  0  0  0  0  0  0
   -2.4719   25.4282  -26.9647 H   0  0  0  0  0  0  0  0  0  0  0  0
   -1.6130   26.9721  -27.3228 H   0  0  0  0  0  0  0  0  0  0  0  0
   -3.5220   25.7990  -30.8480 H   0  0  0  0  0  0  0  0  0  0  0  0
   -6.1822   25.0012  -30.1389 H   0  0  0  0  0  0  0  0  0  0  0  0
   -7.8669   23.3531  -30.9479 H   0  0  0  0  0  0  0  0  0  0  0  0
   -5.8880   18.2386  -30.7570 H   0  0  0  0  0  0  0  0  0  0  0  0
   -6.7091   17.7229  -32.2692 H   0  0  0  0  0  0  0  0  0  0  0  0
   -5.6600   19.1810  -32.2692 H   0  0  0  0  0  0  0  0  0  0  0  0
   -9.1963   18.4023  -30.5364 H   0  0  0  0  0  0  0  0  0  0  0  0
   -9.4992   19.2702  -32.0796 H   0  0  0  0  0  0  0  0  0  0  0  0
   -8.5593   17.7395  -32.0796 H   0  0  0  0  0  0  0  0  0  0  0  0
   -4.6885   20.8654  -32.5099 H   0  0  0  0  0  0  0  0  0  0  0  0
   -3.0007   22.5168  -31.7111 H   0  0  0  0  0  0  0  0  0  0  0  0
    0.4643   24.2116  -28.6811 H   0  0  0  0  0  0  0  0  0  0  0  0
    1.6158   24.6406  -23.5382 H   0  0  0  0  0  0  0  0  0  0  0  0
    2.6384   23.5119  -24.4905 H   0  0  0  0  0  0  0  0  0  0  0  0
    3.0023   25.2710  -24.4905 H   0  0  0  0  0  0  0  0  0  0  0  0
  1  2  1  0
  2  3  2  0
  3  4  1  0
  4  5  1  0
  5  6  1  0
  6  7  2  0
  6  8  1  0
  8  9  1  0
  9 10  2  0
 10 11  1  0
 11 12  2  0
 12 13  1  0
 13 14  2  0
 13 15  2  0
 13 16  1  0
 16 17  1  0
 16 18  1  0
 12 19  1  0
 19 20  2  0
  3 21  1  0
 21 22  2  0
 22 23  1  0
 23 24  1  0
 23  2  1  0
 20  9  1  0
  1 25  1  0
  1 26  1  0
  1 27  1  0
  4 28  1  0
  4 29  1  0
  8 30  1  0
 10 31  1  0
 11 32  1  0
 17 33  1  0
 17 34  1  0
 17 35  1  0
 18 36  1  0
 18 37  1  0
 18 38  1  0
 19 39  1  0
 20 40  1  0
 21 41  1  0
 24 42  1  0
 24 43  1  0
 24 44  1  0
M  CHG  1   5  -1
M  END
>  <UniqueID>  (11) 
11

>  <SMILES>  (11) 
Cc1c(C[N-]C(=O)Nc2ccc(S(=O)(=O)N(C)C)cc2)cnn1C

>  <Energy>  (11) 
70.6814961449352

>  <Genealogy>  (11) 
Cc1c(C[N-]C(=O)Nc2ccc(S(=O)(=O)N(C)C)cc2)cnn1C (protonated)
Cc1c(C[N-]C(=O)Nc2ccc(S(=O)(=O)N(C)C)cc2)cnn1C (3D coordinates assigned)
Cc1c(C[N-]C(=O)Nc2ccc(S(=O)(=O)N(C)C)cc2)cnn1C (optimized conformer: 70.6814961449352 kcal/mol)

>  <smiles>  (11) 
Cc1c(CNC(=O)Nc2ccc(S(=O)(=O)N(C)C)cc2)cnn1C

>  <score_type>  (11) 
oracle

>  <origin>  (11) 
adgpu

>  <m_score__min__energy>  (11) 
-9.5800000000000001

>  <m_primary>  (11) 
energy

$$$$
11:0
     RDKit          3D

 42 44  0  0  0  0  0  0  0  0999 V2000
    0.6280   15.6430  -26.9440 N   0  0  0  0  0  0  0  0  0  0  0  0
    1.3760   16.9260  -27.8280 S   0  0  0  0  0  0  0  0  0  0  0  0
    1.8820   16.4070  -29.1450 O   0  0  0  0  0  0  0  0  0  0  0  0
    2.5390   17.4630  -27.0420 O   0  0  0  0  0  0  0  0  0  0  0  0
    0.1990   18.2040  -28.1060 C   0  0  0  0  0  0  0  0  0  0  0  0
    0.2970   19.0230  -29.2380 C   0  0  0  0  0  0  0  0  0  0  0  0
   -0.6290   20.0490  -29.4490 C   0  0  0  0  0  0  0  0  0  0  0  0
   -1.6610   20.2810  -28.5220 C   0  0  0  0  0  0  0  0  0  0  0  0
   -2.6370   21.3740  -28.7470 C   0  0  0  0  0  0  0  0  0  0  0  0
   -3.5300   21.8960  -27.8110 C   0  0  0  0  0  0  0  0  0  0  0  0
   -4.3090   22.9500  -28.3070 C   0  0  0  0  0  0  0  0  0  0  0  0
   -4.0370   23.2510  -29.6320 C   0  0  0  0  0  0  0  0  0  0  0  0
   -4.8380   24.4900  -30.5810 S   0  0  0  0  0  0  0  0  0  0  0  0
   -6.0330   24.9860  -29.8170 O   0  0  0  0  0  0  0  0  0  0  0  0
   -3.9040   25.6390  -30.8390 O   0  0  0  0  0  0  0  0  0  0  0  0
   -5.3820   23.8300  -32.0900 N   0  0  0  0  0  0  0  0  0  0  0  0
   -5.7560   22.4640  -32.3180 C   0  0  0  0  0  0  0  0  0  0  0  0
   -4.8330   21.4940  -32.7470 C   0  0  0  0  0  0  0  0  0  0  0  0
   -5.2400   20.1690  -32.9310 C   0  0  0  0  0  0  0  0  0  0  0  0
   -6.5650   19.7970  -32.6890 C   0  0  0  0  0  0  0  0  0  0  0  0
   -6.9420   18.4690  -32.8610 O   0  0  0  0  0  0  0  0  0  0  0  0
   -7.5030   20.7610  -32.2720 C   0  0  0  0  0  0  0  0  0  0  0  0
   -8.9210   20.3700  -31.9540 C   0  0  0  0  0  0  0  0  0  0  0  0
   -9.4860   19.7320  -33.0660 O   0  0  0  0  0  0  0  0  0  0  0  0
   -7.0850   22.0890  -32.0830 C   0  0  0  0  0  0  0  0  0  0  0  0
   -2.8300   22.2250  -30.1900 S   0  0  0  0  0  0  0  0  0  0  0  0
   -1.7510   19.4580  -27.3830 C   0  0  0  0  0  0  0  0  0  0  0  0
   -0.8270   18.4280  -27.1790 C   0  0  0  0  0  0  0  0  0  0  0  0
   -0.3440   15.9540  -26.7160 H   0  0  0  0  0  0  0  0  0  0  0  0
    1.1390   15.5590  -26.0370 H   0  0  0  0  0  0  0  0  0  0  0  0
    1.1064   18.8582  -29.9645 H   0  0  0  0  0  0  0  0  0  0  0  0
   -0.5498   20.6796  -30.3468 H   0  0  0  0  0  0  0  0  0  0  0  0
   -3.6146   21.5165  -26.7820 H   0  0  0  0  0  0  0  0  0  0  0  0
   -5.0598   23.4839  -27.7059 H   0  0  0  0  0  0  0  0  0  0  0  0
   -3.7878   21.7783  -32.9384 H   0  0  0  0  0  0  0  0  0  0  0  0
   -4.5131   19.4153  -33.2681 H   0  0  0  0  0  0  0  0  0  0  0  0
   -8.9290   19.6845  -31.0937 H   0  0  0  0  0  0  0  0  0  0  0  0
   -9.5051   21.2694  -31.7091 H   0  0  0  0  0  0  0  0  0  0  0  0
   -8.7370   19.2820  -33.5390 H   0  0  0  0  0  0  0  0  0  0  0  0
   -7.8107   22.8439  -31.7462 H   0  0  0  0  0  0  0  0  0  0  0  0
   -2.5530   19.6262  -26.6491 H   0  0  0  0  0  0  0  0  0  0  0  0
   -0.9064   17.7906  -26.2860 H   0  0  0  0  0  0  0  0  0  0  0  0
  1  2  1  0
  2  3  2  0
  2  4  2  0
  2  5  1  0
  5  6  2  0
  6  7  1  0
  7  8  2  0
  8  9  1  0
  9 10  2  0
 10 11  1  0
 11 12  2  0
 12 13  1  0
 13 14  2  0
 13 15  2  0
 13 16  1  0
 16 17  1  0
 17 18  2  0
 18 19  1  0
 19 20  2  0
 20 21  1  0
 20 22  1  0
 22 23  1  0
 23 24  1  0
 22 25  2  0
 12 26  1  0
  8 27  1  0
 27 28  2  0
 28  5  1  0
 26  9  1  0
 25 17  1  0
  1 29  1  0
  1 30  1  0
  6 31  1  0
  7 32  1  0
 10 33  1  0
 11 34  1  0
 18 35  1  0
 19 36  1  0
 23 37  1  0
 23 38  1  0
 24 39  1  0
 25 40  1  0
 27 41  1  0
 28 42  1  0
M  CHG  2  16  -1  21  -1
M  END
>  <UniqueID>  (12) 
12

>  <SMILES>  (12) 
NS(=O)(=O)c1ccc(-c2ccc(S(=O)(=O)[N-]c3ccc([O-])c(CO)c3)s2)cc1

>  <Energy>  (12) 
74.94906847740316

>  <Genealogy>  (12) 
NS(=O)(=O)c1ccc(-c2ccc(S(=O)(=O)[N-]c3ccc([O-])c(CO)c3)s2)cc1 (protonated)
NS(=O)(=O)c1ccc(-c2ccc(S(=O)(=O)[N-]c3ccc([O-])c(CO)c3)s2)cc1 (3D coordinates assigned)
NS(=O)(=O)c1ccc(-c2ccc(S(=O)(=O)[N-]c3ccc([O-])c(CO)c3)s2)cc1 (optimized conformer: 74.94906847740316 kcal/mol)

>  <smiles>  (12) 
NS(=O)(=O)c1ccc(-c2ccc(S(=O)(=O)Nc3ccc(O)c(CO)c3)s2)cc1

>  <score_type>  (12) 
oracle

>  <origin>  (12) 
adgpu

>  <m_score__min__energy>  (12) 
-11.17

>  <m_primary>  (12) 
energy

$$$$
12:0
     RDKit          3D

 45 47  0  0  0  0  0  0  0  0999 V2000
   -4.3700   25.2910  -31.2150 O   0  0  0  0  0  0  0  0  0  0  0  0
   -5.2040   24.1220  -30.7740 S   0  0  0  0  0  0  0  0  0  0  0  0
   -6.2750   24.6130  -29.8400 O   0  0  0  0  0  0  0  0  0  0  0  0
   -5.9380   23.3800  -32.1580 N   0  0  0  0  0  0  0  0  0  0  0  0
   -7.0750   22.5150  -32.0330 C   0  0  0  0  0  0  0  0  0  0  0  0
   -8.3820   23.0300  -32.0000 C   0  0  0  0  0  0  0  0  0  0  0  0
   -9.4770   22.1670  -31.9220 C   0  0  0  0  0  0  0  0  0  0  0  0
   -9.2810   20.7860  -31.8930 C   0  0  0  0  0  0  0  0  0  0  0  0
   -7.9840   20.2580  -31.9370 C   0  0  0  0  0  0  0  0  0  0  0  0
   -7.7360   18.5120  -31.9670 S   0  0  0  0  0  0  0  0  0  0  0  0
   -9.0440   17.8290  -31.6780 O   0  0  0  0  0  0  0  0  0  0  0  0
   -6.7680   18.1300  -30.8820 O   0  0  0  0  0  0  0  0  0  0  0  0
   -7.1220   17.9570  -33.5100 N   0  0  0  0  0  0  0  0  0  0  0  0
   -6.1240   18.8810  -34.1030 C   0  0  0  0  0  0  0  0  0  0  0  0
   -4.8130   18.1980  -34.5100 C   0  0  0  0  0  0  0  0  0  0  0  0
   -4.3160   17.3130  -33.3730 C   0  0  0  0  0  0  0  0  0  0  0  0
   -5.3370   16.2230  -33.0200 C   0  0  0  0  0  0  0  0  0  0  0  0
   -6.7680   16.5210  -33.5130 C   0  0  0  0  0  0  0  0  0  0  0  0
   -6.8840   21.1270  -31.9710 C   0  0  0  0  0  0  0  0  0  0  0  0
   -4.2240   22.9240  -29.9340 C   0  0  0  0  0  0  0  0  0  0  0  0
   -3.6030   21.8800  -30.6380 C   0  0  0  0  0  0  0  0  0  0  0  0
   -2.8720   20.9080  -29.9480 C   0  0  0  0  0  0  0  0  0  0  0  0
   -2.7570   20.9740  -28.5560 C   0  0  0  0  0  0  0  0  0  0  0  0
   -3.3710   22.0130  -27.8530 C   0  0  0  0  0  0  0  0  0  0  0  0
   -4.1050   22.9850  -28.5390 C   0  0  0  0  0  0  0  0  0  0  0  0
   -5.7080   23.7840  -33.0940 H   0  0  0  0  0  0  0  0  0  0  0  0
   -8.5432   24.1175  -32.0358 H   0  0  0  0  0  0  0  0  0  0  0  0
  -10.4969   22.5772  -31.8833 H   0  0  0  0  0  0  0  0  0  0  0  0
  -10.1469   20.1100  -31.8354 H   0  0  0  0  0  0  0  0  0  0  0  0
   -6.5672   19.3421  -34.9980 H   0  0  0  0  0  0  0  0  0  0  0  0
   -5.8727   19.6208  -33.3287 H   0  0  0  0  0  0  0  0  0  0  0  0
   -4.9852   17.5810  -35.4042 H   0  0  0  0  0  0  0  0  0  0  0  0
   -4.0566   18.9661  -34.7290 H   0  0  0  0  0  0  0  0  0  0  0  0
   -3.3738   16.8345  -33.6784 H   0  0  0  0  0  0  0  0  0  0  0  0
   -4.1652   17.9446  -32.4851 H   0  0  0  0  0  0  0  0  0  0  0  0
   -5.0046   15.2776  -33.4737 H   0  0  0  0  0  0  0  0  0  0  0  0
   -5.3824   16.1728  -31.9221 H   0  0  0  0  0  0  0  0  0  0  0  0
   -6.8643   16.1438  -34.5418 H   0  0  0  0  0  0  0  0  0  0  0  0
   -7.4545   16.0241  -32.8118 H   0  0  0  0  0  0  0  0  0  0  0  0
   -5.8635   20.7169  -31.9489 H   0  0  0  0  0  0  0  0  0  0  0  0
   -3.6916   21.8267  -31.7331 H   0  0  0  0  0  0  0  0  0  0  0  0
   -2.3867   20.0903  -30.5010 H   0  0  0  0  0  0  0  0  0  0  0  0
   -2.1829   20.2076  -28.0146 H   0  0  0  0  0  0  0  0  0  0  0  0
   -3.2769   22.0665  -26.7583 H   0  0  0  0  0  0  0  0  0  0  0  0
   -4.5905   23.8000  -27.9823 H   0  0  0  0  0  0  0  0  0  0  0  0
  1  2  2  0
  2  3  2  0
  2  4  1  0
  4  5  1  0
  5  6  2  0
  6  7  1  0
  7  8  2  0
  8  9  1  0
  9 10  1  0
 10 11  2  0
 10 12  2  0
 10 13  1  0
 13 14  1  0
 14 15  1  0
 15 16  1  0
 16 17  1  0
 17 18  1  0
  9 19  2  0
  2 20  1  0
 20 21  2  0
 21 22  1  0
 22 23  2  0
 23 24  1  0
 24 25  2  0
 19  5  1  0
 25 20  1  0
 18 13  1  0
  4 26  1  0
  6 27  1  0
  7 28  1  0
  8 29  1  0
 14 30  1  0
 14 31  1  0
 15 32  1  0
 15 33  1  0
 16 34  1  0
 16 35  1  0
 17 36  1  0
 17 37  1  0
 18 38  1  0
 18 39  1  0
 19 40  1  0
 21 41  1  0
 22 42  1  0
 23 43  1  0
 24 44  1  0
 25 45  1  0
M  END
>  <UniqueID>  (13) 
13

>  <SMILES>  (13) 
O=S(=O)(Nc1cccc(S(=O)(=O)N2CCCCC2)c1)c1ccccc1

>  <Energy>  (13) 
54.34342833608785

>  <Genealogy>  (13) 
O=S(=O)(Nc1cccc(S(=O)(=O)N2CCCCC2)c1)c1ccccc1 (3D coordinates assigned)
O=S(=O)(Nc1cccc(S(=O)(=O)N2CCCCC2)c1)c1ccccc1 (nonaromatic ring conformer: 54.34342833608785 kcal/mol)

>  <smiles>  (13) 
O=S(=O)(Nc1cccc(S(=O)(=O)N2CCCCC2)c1)c1ccccc1

>  <score_type>  (13) 
oracle

>  <origin>  (13) 
adgpu

>  <m_score__min__energy>  (13) 
-10.08

>  <m_primary>  (13) 
energy

$$$$
13:0
     RDKit          3D

 50 53  0  0  0  0  0  0  0  0999 V2000
   -3.4610   21.8380  -27.8410 C   0  0  0  0  0  0  0  0  0  0  0  0
   -2.4260   22.9050  -28.0400 C   0  0  0  0  0  0  0  0  0  0  0  0
   -2.1810   23.7680  -27.0180 N   0  0  0  0  0  0  0  0  0  0  0  0
   -1.2840   24.7830  -27.1330 C   0  0  0  0  0  0  0  0  0  0  0  0
   -1.0440   25.7040  -25.9950 C   0  0  0  0  0  0  0  0  0  0  0  0
   -0.9910   27.0970  -26.1980 C   0  0  0  0  0  0  0  0  0  0  0  0
   -0.7640   27.9630  -25.1230 C   0  0  0  0  0  0  0  0  0  0  0  0
   -0.5900   27.4510  -23.8350 C   0  0  0  0  0  0  0  0  0  0  0  0
   -0.6400   26.0730  -23.6190 C   0  0  0  0  0  0  0  0  0  0  0  0
   -0.8660   25.2020  -24.6910 C   0  0  0  0  0  0  0  0  0  0  0  0
   -0.6150   24.9500  -28.3050 N   0  0  0  0  0  0  0  0  0  0  0  0
   -0.8160   24.1170  -29.3570 C   0  0  0  0  0  0  0  0  0  0  0  0
   -1.7180   23.0520  -29.2510 C   0  0  0  0  0  0  0  0  0  0  0  0
   -1.8920   22.1430  -30.4050 C   0  0  0  0  0  0  0  0  0  0  0  0
   -0.8900   21.4990  -30.8250 O   0  0  0  0  0  0  0  0  0  0  0  0
   -3.2060   21.8830  -30.9560 N   0  0  0  0  0  0  0  0  0  0  0  0
   -3.0780   21.5050  -32.3790 C   0  0  0  0  0  0  0  0  0  0  0  0
   -4.4260   21.0030  -32.9160 C   0  0  0  0  0  0  0  0  0  0  0  0
   -5.5350   21.7720  -32.3350 N   0  0  0  0  0  0  0  0  0  0  0  0
   -6.8710   21.2330  -32.3370 C   0  0  0  0  0  0  0  0  0  0  0  0
   -7.9600   22.0260  -31.9340 C   0  0  0  0  0  0  0  0  0  0  0  0
   -9.2550   21.4970  -31.9220 C   0  0  0  0  0  0  0  0  0  0  0  0
   -9.4730   20.1730  -32.3090 C   0  0  0  0  0  0  0  0  0  0  0  0
   -8.3980   19.3730  -32.7020 C   0  0  0  0  0  0  0  0  0  0  0  0
   -7.1020   19.8970  -32.7140 C   0  0  0  0  0  0  0  0  0  0  0  0
   -5.2560   23.1070  -31.7950 C   0  0  0  0  0  0  0  0  0  0  0  0
   -4.1070   23.0530  -30.7670 C   0  0  0  0  0  0  0  0  0  0  0  0
   -3.6182   21.6759  -26.7644 H   0  0  0  0  0  0  0  0  0  0  0  0
   -4.4066   22.1531  -28.3063 H   0  0  0  0  0  0  0  0  0  0  0  0
   -3.1173   20.9024  -28.3063 H   0  0  0  0  0  0  0  0  0  0  0  0
   -1.1291   27.5069  -27.2094 H   0  0  0  0  0  0  0  0  0  0  0  0
   -0.7225   29.0491  -25.2923 H   0  0  0  0  0  0  0  0  0  0  0  0
   -0.4136   28.1339  -22.9909 H   0  0  0  0  0  0  0  0  0  0  0  0
   -0.5016   25.6708  -22.6046 H   0  0  0  0  0  0  0  0  0  0  0  0
   -0.9049   24.1171  -24.5138 H   0  0  0  0  0  0  0  0  0  0  0  0
   -0.2679   24.2793  -30.2968 H   0  0  0  0  0  0  0  0  0  0  0  0
   -3.6240   21.0660  -30.4510 H   0  0  0  0  0  0  0  0  0  0  0  0
   -2.7586   22.3821  -32.9609 H   0  0  0  0  0  0  0  0  0  0  0  0
   -2.3323   20.7017  -32.4720 H   0  0  0  0  0  0  0  0  0  0  0  0
   -4.4432   21.1149  -34.0102 H   0  0  0  0  0  0  0  0  0  0  0  0
   -4.5455   19.9452  -32.6388 H   0  0  0  0  0  0  0  0  0  0  0  0
   -7.7926   23.0687  -31.6263 H   0  0  0  0  0  0  0  0  0  0  0  0
  -10.1021   22.1243  -31.6075 H   0  0  0  0  0  0  0  0  0  0  0  0
  -10.4925   19.7599  -32.3042 H   0  0  0  0  0  0  0  0  0  0  0  0
   -8.5712   18.3291  -33.0025 H   0  0  0  0  0  0  0  0  0  0  0  0
   -6.2580   19.2614  -33.0199 H   0  0  0  0  0  0  0  0  0  0  0  0
   -4.9711   23.7772  -32.6194 H   0  0  0  0  0  0  0  0  0  0  0  0
   -6.1608   23.4805  -31.2932 H   0  0  0  0  0  0  0  0  0  0  0  0
   -3.5105   23.9725  -30.8607 H   0  0  0  0  0  0  0  0  0  0  0  0
   -4.5636   22.9566  -29.7709 H   0  0  0  0  0  0  0  0  0  0  0  0
  1  2  1  0
  2  3  2  0
  3  4  1  0
  4  5  1  0
  5  6  2  0
  6  7  1  0
  7  8  2  0
  8  9  1  0
  9 10  2  0
  4 11  2  0
 11 12  1  0
 12 13  2  0
 13 14  1  0
 14 15  2  0
 14 16  1  0
 16 17  1  0
 17 18  1  0
 18 19  1  0
 19 20  1  0
 20 21  2  0
 21 22  1  0
 22 23  2  0
 23 24  1  0
 24 25  2  0
 19 26  1  0
 26 27  1  0
 13  2  1  0
 27 16  1  0
 10  5  1  0
 25 20  1  0
  1 28  1  0
  1 29  1  0
  1 30  1  0
  6 31  1  0
  7 32  1  0
  8 33  1  0
  9 34  1  0
 10 35  1  0
 12 36  1  0
 16 37  1  0
 17 38  1  0
 17 39  1  0
 18 40  1  0
 18 41  1  0
 21 42  1  0
 22 43  1  0
 23 44  1  0
 24 45  1  0
 25 46  1  0
 26 47  1  0
 26 48  1  0
 27 49  1  0
 27 50  1  0
M  CHG  1  16   1
M  END
>  <UniqueID>  (14) 
14

>  <SMILES>  (14) 
Cc1nc(-c2ccccc2)ncc1C(=O)[NH+]1CCN(c2ccccc2)CC1

>  <Energy>  (14) 
73.64788954696401

>  <Genealogy>  (14) 
Cc1nc(-c2ccccc2)ncc1C(=O)[NH+]1CCN(c2ccccc2)CC1 (protonated)
Cc1nc(-c2ccccc2)ncc1C(=O)[NH+]1CCN(c2ccccc2)CC1 (3D coordinates assigned)
Cc1nc(-c2ccccc2)ncc1C(=O)[NH+]1CCN(c2ccccc2)CC1 (nonaromatic ring conformer: 73.64788954696401 kcal/mol)

>  <smiles>  (14) 
Cc1nc(-c2ccccc2)ncc1C(=O)N1CCN(c2ccccc2)CC1

>  <score_type>  (14) 
oracle

>  <origin>  (14) 
adgpu

>  <m_score__min__energy>  (14) 
-7.5700000000000003

>  <m_primary>  (14) 
energy

$$$$
14:0
     RDKit          3D

 76 80  0  0  0  0  0  0  0  0999 V2000
   -0.7230   29.8600  -25.2500 C   0  0  0  0  0  0  0  0  0  0  0  0
   -0.8640   28.3720  -25.3420 C   0  0  0  0  0  0  0  0  0  0  0  0
   -0.7870   27.7230  -26.5780 C   0  0  0  0  0  0  0  0  0  0  0  0
   -0.9530   26.3330  -26.6420 C   0  0  0  0  0  0  0  0  0  0  0  0
   -0.8730   25.6130  -27.9340 C   0  0  0  0  0  0  0  0  0  0  0  0
    0.1760   24.9810  -28.2350 O   0  0  0  0  0  0  0  0  0  0  0  0
   -1.9690   25.6730  -28.8590 N   0  0  0  0  0  0  0  0  0  0  0  0
   -2.5680   24.5460  -29.5100 C   0  0  0  0  0  0  0  0  0  0  0  0
   -1.9290   23.4190  -30.0000 C   0  0  0  0  0  0  0  0  0  0  0  0
   -2.9290   22.6480  -30.5680 C   0  0  0  0  0  0  0  0  0  0  0  0
   -2.7040   21.3710  -31.2650 C   0  0  0  0  0  0  0  0  0  0  0  0
   -3.6610   20.5580  -31.4050 O   0  0  0  0  0  0  0  0  0  0  0  0
   -1.3850   21.0200  -31.7070 N   0  0  0  0  0  0  0  0  0  0  0  0
   -1.1270   19.8620  -32.5090 C   0  0  0  0  0  0  0  0  0  0  0  0
   -1.5920   19.7800  -33.8250 C   0  0  0  0  0  0  0  0  0  0  0  0
   -1.2690   18.6690  -34.6070 C   0  0  0  0  0  0  0  0  0  0  0  0
   -0.4840   17.6400  -34.0590 C   0  0  0  0  0  0  0  0  0  0  0  0
   -0.1480   16.4260  -34.8300 C   0  0  0  0  0  0  0  0  0  0  0  0
    0.9670   16.3650  -35.4120 O   0  0  0  0  0  0  0  0  0  0  0  0
   -1.0290   15.2980  -34.9200 N   0  0  0  0  0  0  0  0  0  0  0  0
   -2.3550   15.2130  -34.3840 C   0  0  0  0  0  0  0  0  0  0  0  0
   -3.4610   15.8230  -34.9340 C   0  0  0  0  0  0  0  0  0  0  0  0
   -4.5020   15.5820  -34.0530 C   0  0  0  0  0  0  0  0  0  0  0  0
   -5.8870   16.0730  -34.2080 C   0  0  0  0  0  0  0  0  0  0  0  0
   -6.8440   15.2900  -33.9760 O   0  0  0  0  0  0  0  0  0  0  0  0
   -6.1810   17.4260  -34.5820 N   0  0  0  0  0  0  0  0  0  0  0  0
   -5.2200   18.5260  -34.5590 C   0  0  0  0  0  0  0  0  0  0  0  0
   -5.6220   19.5740  -33.5020 C   0  0  0  0  0  0  0  0  0  0  0  0
   -7.0230   19.4870  -33.0300 N   0  0  0  0  0  0  0  0  0  0  0  0
   -7.2500   18.4080  -32.0520 C   0  0  0  0  0  0  0  0  0  0  0  0
   -8.7030   18.4380  -31.5390 C   0  0  0  0  0  0  0  0  0  0  0  0
   -9.5190   19.2380  -32.3760 O   0  0  0  0  0  0  0  0  0  0  0  0
   -9.1050   20.5920  -32.3040 C   0  0  0  0  0  0  0  0  0  0  0  0
   -7.5950   20.7630  -32.5710 C   0  0  0  0  0  0  0  0  0  0  0  0
   -4.0600   14.8480  -33.0050 N   0  0  0  0  0  0  0  0  0  0  0  0
   -4.8350   14.4210  -31.8430 C   0  0  0  0  0  0  0  0  0  0  0  0
   -2.7430   14.6360  -33.1880 C   0  0  0  0  0  0  0  0  0  0  0  0
   -0.0750   17.7310  -32.7650 N   0  0  0  0  0  0  0  0  0  0  0  0
   -0.3580   18.8140  -31.9960 C   0  0  0  0  0  0  0  0  0  0  0  0
   -4.1300   23.2510  -30.4140 N   0  0  0  0  0  0  0  0  0  0  0  0
   -5.4320   22.7660  -30.8720 C   0  0  0  0  0  0  0  0  0  0  0  0
   -3.9150   24.4120  -29.7650 C   0  0  0  0  0  0  0  0  0  0  0  0
   -1.1870   25.6370  -25.4450 C   0  0  0  0  0  0  0  0  0  0  0  0
   -1.2540   26.3170  -24.2690 N   0  0  0  0  0  0  0  0  0  0  0  0
   -1.1050   27.6430  -24.2200 N   0  0  0  0  0  0  0  0  0  0  0  0
   -0.6945   30.1609  -24.1923 H   0  0  0  0  0  0  0  0  0  0  0  0
    0.2087   30.1713  -25.7450 H   0  0  0  0  0  0  0  0  0  0  0  0
   -1.5796   30.3408  -25.7450 H   0  0  0  0  0  0  0  0  0  0  0  0
   -0.5972   28.3002  -27.4950 H   0  0  0  0  0  0  0  0  0  0  0  0
   -0.8552   23.1860  -29.9488 H   0  0  0  0  0  0  0  0  0  0  0  0
   -0.5650   21.5410  -31.3140 H   0  0  0  0  0  0  0  0  0  0  0  0
   -2.2103   20.5880  -34.2431 H   0  0  0  0  0  0  0  0  0  0  0  0
   -1.6266   18.5997  -35.6449 H   0  0  0  0  0  0  0  0  0  0  0  0
   -3.5076   16.3855  -35.8782 H   0  0  0  0  0  0  0  0  0  0  0  0
   -4.2230   18.1303  -34.3152 H   0  0  0  0  0  0  0  0  0  0  0  0
   -5.2064   19.0065  -35.5484 H   0  0  0  0  0  0  0  0  0  0  0  0
   -4.9611   19.4503  -32.6314 H   0  0  0  0  0  0  0  0  0  0  0  0
   -5.5246   20.5544  -33.9912 H   0  0  0  0  0  0  0  0  0  0  0  0
   -7.0562   17.4377  -32.5326 H   0  0  0  0  0  0  0  0  0  0  0  0
   -6.5699   18.5529  -31.1997 H   0  0  0  0  0  0  0  0  0  0  0  0
   -9.1003   17.4124  -31.5228 H   0  0  0  0  0  0  0  0  0  0  0  0
   -8.7092   18.8690  -30.5270 H   0  0  0  0  0  0  0  0  0  0  0  0
   -9.6637   21.1720  -33.0533 H   0  0  0  0  0  0  0  0  0  0  0  0
   -9.3066   20.9494  -31.2834 H   0  0  0  0  0  0  0  0  0  0  0  0
   -7.4455   21.5299  -33.3453 H   0  0  0  0  0  0  0  0  0  0  0  0
   -7.0943   21.0725  -31.6417 H   0  0  0  0  0  0  0  0  0  0  0  0
   -4.3069   14.7120  -30.9230 H   0  0  0  0  0  0  0  0  0  0  0  0
   -5.8243   14.9014  -31.8654 H   0  0  0  0  0  0  0  0  0  0  0  0
   -4.9575   13.3281  -31.8654 H   0  0  0  0  0  0  0  0  0  0  0  0
   -2.0819   14.0916  -32.4976 H   0  0  0  0  0  0  0  0  0  0  0  0
    0.0199   18.8665  -30.9643 H   0  0  0  0  0  0  0  0  0  0  0  0
   -6.0626   22.5311  -30.0018 H   0  0  0  0  0  0  0  0  0  0  0  0
   -5.9197   23.5428  -31.4793 H   0  0  0  0  0  0  0  0  0  0  0  0
   -5.2927   21.8595  -31.4793 H   0  0  0  0  0  0  0  0  0  0  0  0
   -4.6921   25.1379  -29.4834 H   0  0  0  0  0  0  0  0  0  0  0  0
   -1.3158   24.5446  -25.4584 H   0  0  0  0  0  0  0  0  0  0  0  0
  1  2  1  0
  2  3  2  0
  3  4  1  0
  4  5  1  0
  5  6  2  0
  5  7  1  0
  7  8  1  0
  8  9  1  0
  9 10  2  0
 10 11  1  0
 11 12  2  0
 11 13  1  0
 13 14  1  0
 14 15  2  0
 15 16  1  0
 16 17  2  0
 17 18  1  0
 18 19  2  0
 18 20  1  0
 20 21  1  0
 21 22  1  0
 22 23  2  0
 23 24  1  0
 24 25  2  0
 24 26  1  0
 26 27  1  0
 27 28  1  0
 28 29  1  0
 29 30  1  0
 30 31  1  0
 31 32  1  0
 32 33  1  0
 33 34  1  0
 23 35  1  0
 35 36  1  0
 35 37  1  0
 17 38  1  0
 38 39  2  0
 10 40  1  0
 40 41  1  0
 40 42  1  0
  4 43  2  0
 43 44  1  0
 44 45  2  0
 45  2  1  0
 42  8  2  0
 39 14  1  0
 37 21  2  0
 34 29  1  0
  1 46  1  0
  1 47  1  0
  1 48  1  0
  3 49  1  0
  9 50  1  0
 13 51  1  0
 15 52  1  0
 16 53  1  0
 22 54  1  0
 27 55  1  0
 27 56  1  0
 28 57  1  0
 28 58  1  0
 30 59  1  0
 30 60  1  0
 31 61  1  0
 31 62  1  0
 33 63  1  0
 33 64  1  0
 34 65  1  0
 34 66  1  0
 36 67  1  0
 36 68  1  0
 36 69  1  0
 37 70  1  0
 39 71  1  0
 41 72  1  0
 41 73  1  0
 41 74  1  0
 42 75  1  0
 43 76  1  0
M  CHG  3   7  -1  20  -1  26  -1
M  END
>  <UniqueID>  (15) 
15

>  <SMILES>  (15) 
Cc1cc(C(=O)[N-]c2cc(C(=O)Nc3ccc(C(=O)[N-]c4cc(C(=O)[N-]CCN5CCOCC5)n(C)c4)nc3)n(C)c2)cnn1

>  <Energy>  (15) 
167.11380193264392

>  <Genealogy>  (15) 
Cc1cc(C(=O)[N-]c2cc(C(=O)Nc3ccc(C(=O)[N-]c4cc(C(=O)[N-]CCN5CCOCC5)n(C)c4)nc3)n(C)c2)cnn1 (protonated)
Cc1cc(C(=O)[N-]c2cc(C(=O)Nc3ccc(C(=O)[N-]c4cc(C(=O)[N-]CCN5CCOCC5)n(C)c4)nc3)n(C)c2)cnn1 (3D coordinates assigned)
Cc1cc(C(=O)[N-]c2cc(C(=O)Nc3ccc(C(=O)[N-]c4cc(C(=O)[N-]CCN5CCOCC5)n(C)c4)nc3)n(C)c2)cnn1 (nonaromatic ring conformer: 167.11380193264392 kcal/mol)

>  <smiles>  (15) 
Cc1cc(C(=O)Nc2cc(C(=O)Nc3ccc(C(=O)Nc4cc(C(=O)NCCN5CCOCC5)n(C)c4)nc3)n(C)c2)cnn1

>  <score_type>  (15) 
oracle

>  <origin>  (15) 
adgpu

>  <m_score__min__energy>  (15) 
-11.19

>  <m_primary>  (15) 
energy

$$$$
15:0
     RDKit          3D

 43 44  0  0  0  0  0  0  0  0999 V2000
   -5.6710   25.2140  -29.2500 C   0  0  0  0  0  0  0  0  0  0  0  0
   -5.0090   24.8590  -30.5880 C   0  0  1  0  0  0  0  0  0  0  0  0
   -3.5560   25.0290  -30.5010 N   0  0  0  0  0  0  0  0  0  0  0  0
   -2.6990   24.7500  -29.3830 C   0  0  0  0  0  0  0  0  0  0  0  0
   -1.9500   25.6640  -28.9490 O   0  0  0  0  0  0  0  0  0  0  0  0
   -2.6390   23.4270  -28.7460 C   0  0  0  0  0  0  0  0  0  0  0  0
   -3.7560   22.9130  -28.0840 C   0  0  0  0  0  0  0  0  0  0  0  0
   -3.6960   21.6600  -27.4750 C   0  0  0  0  0  0  0  0  0  0  0  0
   -2.5110   20.9050  -27.4980 C   0  0  0  0  0  0  0  0  0  0  0  0
   -2.4670   19.3530  -26.6410 S   0  0  0  0  0  0  0  0  0  0  0  0
   -4.0760   18.5920  -26.5460 C   0  0  0  0  0  0  0  0  0  0  0  0
   -1.5320   18.4160  -27.3520 O   0  0  0  0  0  0  0  0  0  0  0  0
   -1.9880   19.5700  -25.2320 O   0  0  0  0  0  0  0  0  0  0  0  0
   -1.3720   21.4260  -28.1670 C   0  0  0  0  0  0  0  0  0  0  0  0
   -0.1440   20.6850  -28.2700 N   0  0  0  0  0  0  0  0  0  0  0  0
    0.0770   19.9610  -29.2610 O   0  0  0  0  0  0  0  0  0  0  0  0
    0.8920   20.9560  -27.4050 O   0  0  0  0  0  0  0  0  0  0  0  0
   -1.4450   22.6970  -28.7600 C   0  0  0  0  0  0  0  0  0  0  0  0
   -5.3810   23.5010  -31.1610 C   0  0  0  0  0  0  0  0  0  0  0  0
   -4.4300   22.5990  -31.6840 C   0  0  0  0  0  0  0  0  0  0  0  0
   -4.8340   21.3710  -32.2170 C   0  0  0  0  0  0  0  0  0  0  0  0
   -6.1890   21.0190  -32.2340 C   0  0  0  0  0  0  0  0  0  0  0  0
   -6.7120   19.4730  -32.8990 S   0  0  0  0  0  0  0  0  0  0  0  0
   -6.0890   19.2870  -34.5000 N   0  0  0  0  0  0  0  0  0  0  0  0
   -6.2090   18.3420  -32.0460 O   0  0  0  0  0  0  0  0  0  0  0  0
   -8.2140   19.4280  -32.9310 O   0  0  0  0  0  0  0  0  0  0  0  0
   -7.1380   21.9050  -31.7130 C   0  0  0  0  0  0  0  0  0  0  0  0
   -6.7390   23.1340  -31.1820 C   0  0  0  0  0  0  0  0  0  0  0  0
   -5.0322   24.8715  -28.4226 H   0  0  0  0  0  0  0  0  0  0  0  0
   -5.8032   26.3040  -29.1841 H   0  0  0  0  0  0  0  0  0  0  0  0
   -6.6521   24.7210  -29.1841 H   0  0  0  0  0  0  0  0  0  0  0  0
   -5.4221   25.5743  -31.3144 H   0  0  0  0  0  0  0  0  0  0  0  0
   -4.6863   23.4985  -28.0428 H   0  0  0  0  0  0  0  0  0  0  0  0
   -4.5869   21.2578  -26.9706 H   0  0  0  0  0  0  0  0  0  0  0  0
   -4.3570   18.4591  -25.4908 H   0  0  0  0  0  0  0  0  0  0  0  0
   -4.8160   19.2355  -27.0443 H   0  0  0  0  0  0  0  0  0  0  0  0
   -4.0480   17.6117  -27.0443 H   0  0  0  0  0  0  0  0  0  0  0  0
   -0.5528   23.1240  -29.2414 H   0  0  0  0  0  0  0  0  0  0  0  0
   -3.3625   22.8640  -31.6723 H   0  0  0  0  0  0  0  0  0  0  0  0
   -4.0834   20.6780  -32.6250 H   0  0  0  0  0  0  0  0  0  0  0  0
   -6.8250   19.6270  -35.1590 H   0  0  0  0  0  0  0  0  0  0  0  0
   -8.2037   21.6326  -31.7215 H   0  0  0  0  0  0  0  0  0  0  0  0
   -7.4949   23.8223  -30.7759 H   0  0  0  0  0  0  0  0  0  0  0  0
  1  2  1  0
  2  3  1  0
  3  4  1  0
  4  5  2  0
  4  6  1  0
  6  7  2  0
  7  8  1  0
  8  9  2  0
  9 10  1  0
 10 11  1  0
 10 12  2  0
 10 13  2  0
  9 14  1  0
 14 15  1  0
 15 16  2  0
 15 17  1  0
 14 18  2  0
  2 19  1  0
 19 20  2  0
 20 21  1  0
 21 22  2  0
 22 23  1  0
 23 24  1  0
 23 25  2  0
 23 26  2  0
 22 27  1  0
 27 28  2  0
 18  6  1  0
 28 19  1  0
  1 29  1  0
  1 30  1  0
  1 31  1  0
  2 32  1  6
  7 33  1  0
  8 34  1  0
 11 35  1  0
 11 36  1  0
 11 37  1  0
 18 38  1  0
 20 39  1  0
 21 40  1  0
 24 41  1  0
 27 42  1  0
 28 43  1  0
M  CHG  4   3  -1  15   1  17  -1  24  -1
M  END
>  <UniqueID>  (16) 
16

>  <SMILES>  (16) 
C[C@@H]([N-]C(=O)c1ccc(S(C)(=O)=O)c([N+](=O)[O-])c1)c1ccc(S([NH-])(=O)=O)cc1

>  <Energy>  (16) 
51.707230886102145

>  <Genealogy>  (16) 
CC([N-]C(=O)c1ccc(S(C)(=O)=O)c([N+](=O)[O-])c1)c1ccc(S([NH-])(=O)=O)cc1 (protonated)
C[C@@H]([N-]C(=O)c1ccc(S(C)(=O)=O)c([N+](=O)[O-])c1)c1ccc(S([NH-])(=O)=O)cc1 (chirality)
C[C@@H]([N-]C(=O)c1ccc(S(C)(=O)=O)c([N+](=O)[O-])c1)c1ccc(S([NH-])(=O)=O)cc1 (3D coordinates assigned)
C[C@@H]([N-]C(=O)c1ccc(S(C)(=O)=O)c([N+](=O)[O-])c1)c1ccc(S([NH-])(=O)=O)cc1 (optimized conformer: 51.707230886102145 kcal/mol)

>  <smiles>  (16) 
CC(NC(=O)c1ccc(S(C)(=O)=O)c([N+](=O)[O-])c1)c1ccc(S(N)(=O)=O)cc1

>  <score_type>  (16) 
oracle

>  <origin>  (16) 
adgpu

>  <m_score__min__energy>  (16) 
-10.880000000000001

>  <m_primary>  (16) 
energy

$$$$
16:0
     RDKit          3D

 49 52  0  0  0  0  0  0  0  0999 V2000
   -9.0820   18.6300  -32.1550 C   0  0  0  0  0  0  0  0  0  0  0  0
   -7.7060   18.3510  -32.6940 C   0  0  0  0  0  0  0  0  0  0  0  0
   -7.2330   17.0290  -32.7180 C   0  0  0  0  0  0  0  0  0  0  0  0
   -5.9470   16.7430  -33.1810 C   0  0  0  0  0  0  0  0  0  0  0  0
   -5.1170   17.7730  -33.6360 C   0  0  0  0  0  0  0  0  0  0  0  0
   -3.4830   17.4210  -34.1840 S   0  0  0  0  0  0  0  0  0  0  0  0
   -2.9630   16.1870  -33.4980 O   0  0  0  0  0  0  0  0  0  0  0  0
   -3.4850   17.1650  -35.6650 O   0  0  0  0  0  0  0  0  0  0  0  0
   -2.4460   18.7920  -33.8100 C   0  0  0  0  0  0  0  0  0  0  0  0
   -1.2830   19.0180  -34.5620 C   0  0  0  0  0  0  0  0  0  0  0  0
   -0.4450   20.0930  -34.2510 C   0  0  0  0  0  0  0  0  0  0  0  0
   -0.7600   20.9420  -33.1860 C   0  0  0  0  0  0  0  0  0  0  0  0
   -1.9120   20.7150  -32.4280 C   0  0  0  0  0  0  0  0  0  0  0  0
   -2.7530   19.6410  -32.7370 C   0  0  0  0  0  0  0  0  0  0  0  0
   -5.5820   19.0940  -33.6250 C   0  0  0  0  0  0  0  0  0  0  0  0
   -6.8790   19.3880  -33.1860 C   0  0  0  0  0  0  0  0  0  0  0  0
   -7.3090   20.7200  -33.2230 O   0  0  0  0  0  0  0  0  0  0  0  0
   -6.8320   21.7270  -32.3720 C   0  0  0  0  0  0  0  0  0  0  0  0
   -7.7170   22.7280  -31.9550 C   0  0  0  0  0  0  0  0  0  0  0  0
   -7.2760   23.7600  -31.1220 C   0  0  0  0  0  0  0  0  0  0  0  0
   -5.9450   23.7950  -30.6880 C   0  0  0  0  0  0  0  0  0  0  0  0
   -5.3890   25.1380  -29.6940 S   0  0  0  0  0  0  0  0  0  0  0  0
   -6.5530   25.9150  -29.1450 O   0  0  0  0  0  0  0  0  0  0  0  0
   -4.5450   26.0520  -30.5340 O   0  0  0  0  0  0  0  0  0  0  0  0
   -4.4430   24.5290  -28.3770 N   0  0  0  0  0  0  0  0  0  0  0  0
   -3.0370   24.3100  -28.4820 C   0  0  0  0  0  0  0  0  0  0  0  0
   -2.4450   23.1170  -28.0890 C   0  0  0  0  0  0  0  0  0  0  0  0
   -0.7910   23.2680  -28.3570 S   0  0  0  0  0  0  0  0  0  0  0  0
   -0.9030   24.8340  -28.9580 C   0  0  0  0  0  0  0  0  0  0  0  0
   -2.1840   25.2570  -28.9640 N   0  0  0  0  0  0  0  0  0  0  0  0
   -5.0610   22.7820  -31.0830 C   0  0  0  0  0  0  0  0  0  0  0  0
   -5.5020   21.7500  -31.9160 C   0  0  0  0  0  0  0  0  0  0  0  0
   -9.0532   18.6242  -31.0554 H   0  0  0  0  0  0  0  0  0  0  0  0
   -9.4211   19.6152  -32.5077 H   0  0  0  0  0  0  0  0  0  0  0  0
   -9.7781   17.8547  -32.5077 H   0  0  0  0  0  0  0  0  0  0  0  0
   -7.8812   16.2116  -32.3690 H   0  0  0  0  0  0  0  0  0  0  0  0
   -5.5854   15.7042  -33.1880 H   0  0  0  0  0  0  0  0  0  0  0  0
   -1.0303   18.3484  -35.3973 H   0  0  0  0  0  0  0  0  0  0  0  0
    0.4635   20.2710  -34.8451 H   0  0  0  0  0  0  0  0  0  0  0  0
   -0.1010   21.7890  -32.9445 H   0  0  0  0  0  0  0  0  0  0  0  0
   -2.1574   21.3814  -31.5879 H   0  0  0  0  0  0  0  0  0  0  0  0
   -3.6573   19.4619  -32.1369 H   0  0  0  0  0  0  0  0  0  0  0  0
   -4.9232   19.9071  -33.9639 H   0  0  0  0  0  0  0  0  0  0  0  0
   -8.7660   22.7023  -32.2849 H   0  0  0  0  0  0  0  0  0  0  0  0
   -7.9765   24.5471  -30.8063 H   0  0  0  0  0  0  0  0  0  0  0  0
   -2.9615   22.2367  -27.6787 H   0  0  0  0  0  0  0  0  0  0  0  0
   -0.0466   25.4334  -29.3004 H   0  0  0  0  0  0  0  0  0  0  0  0
   -4.0171   22.7991  -30.7365 H   0  0  0  0  0  0  0  0  0  0  0  0
   -4.8060   20.9527  -32.2160 H   0  0  0  0  0  0  0  0  0  0  0  0
  1  2  1  0
  2  3  2  0
  3  4  1  0
  4  5  2  0
  5  6  1  0
  6  7  2  0
  6  8  2  0
  6  9  1  0
  9 10  2  0
 10 11  1  0
 11 12  2  0
 12 13  1  0
 13 14  2  0
  5 15  1  0
 15 16  2  0
 16 17  1  0
 17 18  1  0
 18 19  2  0
 19 20  1  0
 20 21  2  0
 21 22  1  0
 22 23  2  0
 22 24  2  0
 22 25  1  0
 25 26  1  0
 26 27  2  0
 27 28  1  0
 28 29  1  0
 29 30  2  0
 21 31  1  0
 31 32  2  0
 16  2  1  0
 32 18  1  0
 14  9  1  0
 30 26  1  0
  1 33  1  0
  1 34  1  0
  1 35  1  0
  3 36  1  0
  4 37  1  0
 10 38  1  0
 11 39  1  0
 12 40  1  0
 13 41  1  0
 14 42  1  0
 15 43  1  0
 19 44  1  0
 20 45  1  0
 27 46  1  0
 29 47  1  0
 31 48  1  0
 32 49  1  0
M  CHG  1  25  -1
M  END
>  <UniqueID>  (17) 
17

>  <SMILES>  (17) 
Cc1ccc(S(=O)(=O)c2ccccc2)cc1Oc1ccc(S(=O)(=O)[N-]c2cscn2)cc1

>  <Energy>  (17) 
94.0901090933483

>  <Genealogy>  (17) 
Cc1ccc(S(=O)(=O)c2ccccc2)cc1Oc1ccc(S(=O)(=O)[N-]c2cscn2)cc1 (protonated)
Cc1ccc(S(=O)(=O)c2ccccc2)cc1Oc1ccc(S(=O)(=O)[N-]c2cscn2)cc1 (3D coordinates assigned)
Cc1ccc(S(=O)(=O)c2ccccc2)cc1Oc1ccc(S(=O)(=O)[N-]c2cscn2)cc1 (optimized conformer: 94.0901090933483 kcal/mol)

>  <smiles>  (17) 
Cc1ccc(S(=O)(=O)c2ccccc2)cc1Oc1ccc(S(=O)(=O)Nc2cscn2)cc1

>  <score_type>  (17) 
oracle

>  <origin>  (17) 
adgpu

>  <m_score__min__energy>  (17) 
-12.09

>  <m_primary>  (17) 
energy

$$$$
17:0
     RDKit          3D

 57 59  0  0  0  0  0  0  0  0999 V2000
   -3.1070   20.5860  -28.4190 C   0  0  0  0  0  0  0  0  0  0  0  0
   -2.6820   22.0210  -28.5640 C   0  0  0  0  0  0  0  0  0  0  0  0
   -3.3620   22.8510  -29.4620 C   0  0  0  0  0  0  0  0  0  0  0  0
   -3.0240   24.1950  -29.5800 C   0  0  0  0  0  0  0  0  0  0  0  0
   -3.7920   25.0280  -30.4520 N   0  0  0  0  0  0  0  0  0  0  0  0
   -5.1960   25.2260  -30.2780 C   0  0  0  0  0  0  0  0  0  0  0  0
   -5.6440   25.6770  -29.1870 O   0  0  0  0  0  0  0  0  0  0  0  0
   -6.0900   24.8890  -31.3430 N   0  0  0  0  0  0  0  0  0  0  0  0
   -6.4940   23.5530  -31.6830 C   0  0  0  0  0  0  0  0  0  0  0  0
   -7.8470   23.2370  -31.6040 C   0  0  0  0  0  0  0  0  0  0  0  0
   -8.2900   21.9650  -31.9370 C   0  0  0  0  0  0  0  0  0  0  0  0
   -7.3920   20.9810  -32.3550 C   0  0  0  0  0  0  0  0  0  0  0  0
   -8.0870   19.4040  -32.7280 Cl  0  0  0  0  0  0  0  0  0  0  0  0
   -6.0100   21.2770  -32.4820 C   0  0  0  0  0  0  0  0  0  0  0  0
   -4.8440   19.9870  -32.9290 S   0  0  0  0  0  0  0  0  0  0  0  0
   -4.7210   18.9990  -31.7960 O   0  0  0  0  0  0  0  0  0  0  0  0
   -5.4010   19.2100  -34.0910 O   0  0  0  0  0  0  0  0  0  0  0  0
   -3.1750   20.5360  -33.3920 C   0  0  0  0  0  0  0  0  0  0  0  0
   -2.3910   19.5050  -34.2190 C   0  0  0  0  0  0  0  0  0  0  0  0
   -1.6860   18.4510  -33.3500 C   0  0  0  0  0  0  0  0  0  0  0  0
   -0.8560   19.0480  -32.2880 N   0  0  0  0  0  0  0  0  0  0  0  0
    0.3730   19.6710  -32.8060 C   0  0  0  0  0  0  0  0  0  0  0  0
   -1.6330   19.9530  -31.4230 C   0  0  0  0  0  0  0  0  0  0  0  0
   -2.3470   21.0670  -32.2080 C   0  0  0  0  0  0  0  0  0  0  0  0
   -5.5740   22.5980  -32.1690 C   0  0  0  0  0  0  0  0  0  0  0  0
   -4.2570   23.0180  -32.3660 O   0  0  0  0  0  0  0  0  0  0  0  0
   -1.9660   24.7230  -28.8300 C   0  0  0  0  0  0  0  0  0  0  0  0
   -1.6530   26.0690  -28.9630 O   0  0  0  0  0  0  0  0  0  0  0  0
   -1.2360   23.8990  -27.9530 C   0  0  0  0  0  0  0  0  0  0  0  0
    0.1200   24.5700  -27.0210 S   0  0  0  0  0  0  0  0  0  0  0  0
   -0.2620   26.2390  -26.5290 C   0  0  0  0  0  0  0  0  0  0  0  0
    0.3760   23.7290  -25.8030 O   0  0  0  0  0  0  0  0  0  0  0  0
    1.3780   24.5860  -27.8400 O   0  0  0  0  0  0  0  0  0  0  0  0
   -1.6150   22.5430  -27.8050 C   0  0  0  0  0  0  0  0  0  0  0  0
   -0.7830   21.4900  -26.6550 Cl  0  0  0  0  0  0  0  0  0  0  0  0
   -3.1822   20.3320  -27.3514 H   0  0  0  0  0  0  0  0  0  0  0  0
   -4.0860   20.4432  -28.8998 H   0  0  0  0  0  0  0  0  0  0  0  0
   -2.3637   19.9331  -28.8998 H   0  0  0  0  0  0  0  0  0  0  0  0
   -4.1717   22.4366  -30.0806 H   0  0  0  0  0  0  0  0  0  0  0  0
   -8.5688   23.9995  -31.2759 H   0  0  0  0  0  0  0  0  0  0  0  0
   -9.3623   21.7288  -31.8708 H   0  0  0  0  0  0  0  0  0  0  0  0
   -3.3521   21.3947  -34.0563 H   0  0  0  0  0  0  0  0  0  0  0  0
   -3.0911   18.9915  -34.8944 H   0  0  0  0  0  0  0  0  0  0  0  0
   -1.6124   20.0500  -34.7729 H   0  0  0  0  0  0  0  0  0  0  0  0
   -2.4503   17.8132  -32.8819 H   0  0  0  0  0  0  0  0  0  0  0  0
   -1.0185   17.8735  -34.0065 H   0  0  0  0  0  0  0  0  0  0  0  0
    1.0046   19.9912  -31.9643 H   0  0  0  0  0  0  0  0  0  0  0  0
    0.9225   18.9426  -33.4204 H   0  0  0  0  0  0  0  0  0  0  0  0
    0.1103   20.5448  -33.4204 H   0  0  0  0  0  0  0  0  0  0  0  0
   -2.3896   19.3617  -30.8865 H   0  0  0  0  0  0  0  0  0  0  0  0
   -0.9261   20.4371  -30.7331 H   0  0  0  0  0  0  0  0  0  0  0  0
   -3.0202   21.6023  -31.5222 H   0  0  0  0  0  0  0  0  0  0  0  0
   -1.5699   21.7270  -32.6210 H   0  0  0  0  0  0  0  0  0  0  0  0
   -3.8510   23.8460  -31.9620 H   0  0  0  0  0  0  0  0  0  0  0  0
   -0.2767   26.3033  -25.4310 H   0  0  0  0  0  0  0  0  0  0  0  0
    0.5029   26.9225  -26.9261 H   0  0  0  0  0  0  0  0  0  0  0  0
   -1.2481   26.5217  -26.9261 H   0  0  0  0  0  0  0  0  0  0  0  0
  1  2  1  0
  2  3  2  0
  3  4  1  0
  4  5  1  0
  5  6  1  0
  6  7  2  0
  6  8  1  0
  8  9  1  0
  9 10  2  0
 10 11  1  0
 11 12  2  0
 12 13  1  0
 12 14  1  0
 14 15  1  0
 15 16  2  0
 15 17  2  0
 15 18  1  0
 18 19  1  0
 19 20  1  0
 20 21  1  0
 21 22  1  0
 21 23  1  0
 23 24  1  0
 14 25  2  0
 25 26  1  0
  4 27  2  0
 27 28  1  0
 27 29  1  0
 29 30  1  0
 30 31  1  0
 30 32  2  0
 30 33  2  0
 29 34  2  0
 34 35  1  0
 34  2  1  0
 25  9  1  0
 24 18  1  0
  1 36  1  0
  1 37  1  0
  1 38  1  0
  3 39  1  0
 10 40  1  0
 11 41  1  0
 18 42  1  0
 19 43  1  0
 19 44  1  0
 20 45  1  0
 20 46  1  0
 22 47  1  0
 22 48  1  0
 22 49  1  0
 23 50  1  0
 23 51  1  0
 24 52  1  0
 24 53  1  0
 26 54  1  0
 31 55  1  0
 31 56  1  0
 31 57  1  0
M  CHG  3   5  -1   8  -1  28  -1
M  END
>  <UniqueID>  (18) 
18

>  <SMILES>  (18) 
Cc1cc([N-]C(=O)[N-]c2ccc(Cl)c(S(=O)(=O)C3CCN(C)CC3)c2O)c([O-])c(S(C)(=O)=O)c1Cl

>  <Energy>  (18) 
82.62509260025662

>  <Genealogy>  (18) 
Cc1cc([N-]C(=O)[N-]c2ccc(Cl)c(S(=O)(=O)C3CCN(C)CC3)c2O)c([O-])c(S(C)(=O)=O)c1Cl (protonated)
Cc1cc([N-]C(=O)[N-]c2ccc(Cl)c(S(=O)(=O)C3CCN(C)CC3)c2O)c([O-])c(S(C)(=O)=O)c1Cl (3D coordinates assigned)
Cc1cc([N-]C(=O)[N-]c2ccc(Cl)c(S(=O)(=O)C3CCN(C)CC3)c2O)c([O-])c(S(C)(=O)=O)c1Cl (nonaromatic ring conformer: 82.62509260025662 kcal/mol)

>  <smiles>  (18) 
Cc1cc(NC(=O)Nc2ccc(Cl)c(S(=O)(=O)C3CCN(C)CC3)c2O)c(O)c(S(C)(=O)=O)c1Cl

>  <score_type>  (18) 
oracle

>  <origin>  (18) 
adgpu

>  <m_score__min__energy>  (18) 
-16.940000000000001

>  <m_primary>  (18) 
energy

$$$$
18:0
     RDKit          3D

 39 42  0  0  0  0  0  0  0  0999 V2000
   -2.7550   25.2980  -29.7120 O   0  0  0  0  0  0  0  0  0  0  0  0
   -3.8630   24.5680  -30.1250 C   0  0  0  0  0  0  0  0  0  0  0  0
   -3.8010   23.1730  -30.1800 C   0  0  0  0  0  0  0  0  0  0  0  0
   -4.9140   22.4360  -30.5950 C   0  0  0  0  0  0  0  0  0  0  0  0
   -6.1050   23.0890  -30.9630 C   0  0  0  0  0  0  0  0  0  0  0  0
   -7.2800   22.3010  -31.4020 C   0  0  0  0  0  0  0  0  0  0  0  0
   -7.2360   20.9720  -31.6480 N   0  0  0  0  0  0  0  0  0  0  0  0
   -8.4430   20.4800  -32.0410 C   0  0  0  0  0  0  0  0  0  0  0  0
   -8.6450   19.0200  -32.3200 C   0  0  0  0  0  0  0  0  0  0  0  0
   -7.6330   18.5350  -33.2800 N   0  0  0  0  0  0  0  0  0  0  0  0
   -6.4070   17.9860  -32.6590 C   0  0  1  0  0  0  0  0  0  0  0  0
   -6.1070   16.5180  -33.0870 C   0  0  0  0  0  0  0  0  0  0  0  0
   -4.8450   16.5610  -33.7540 O   0  0  0  0  0  0  0  0  0  0  0  0
   -4.3180   17.8350  -33.7030 C   0  0  0  0  0  0  0  0  0  0  0  0
   -3.0870   18.2470  -34.2090 C   0  0  0  0  0  0  0  0  0  0  0  0
   -2.7190   19.5940  -34.0490 C   0  0  0  0  0  0  0  0  0  0  0  0
   -3.5840   20.4920  -33.3920 C   0  0  0  0  0  0  0  0  0  0  0  0
   -4.8210   20.0470  -32.8950 C   0  0  0  0  0  0  0  0  0  0  0  0
   -5.1630   18.7050  -33.0720 C   0  0  0  0  0  0  0  0  0  0  0  0
   -9.4750   21.4130  -32.0940 C   0  0  0  0  0  0  0  0  0  0  0  0
   -8.8360   22.9010  -31.6510 S   0  0  0  0  0  0  0  0  0  0  0  0
   -6.1560   24.4950  -30.9040 C   0  0  0  0  0  0  0  0  0  0  0  0
   -5.0400   25.2270  -30.4870 C   0  0  0  0  0  0  0  0  0  0  0  0
   -2.8739   22.6535  -29.8960 H   0  0  0  0  0  0  0  0  0  0  0  0
   -4.8585   21.3381  -30.6342 H   0  0  0  0  0  0  0  0  0  0  0  0
   -8.5534   18.4553  -31.3805 H   0  0  0  0  0  0  0  0  0  0  0  0
   -9.6459   18.8743  -32.7523 H   0  0  0  0  0  0  0  0  0  0  0  0
   -7.3550   19.3190  -33.9180 H   0  0  0  0  0  0  0  0  0  0  0  0
   -8.0650   17.7860  -33.8720 H   0  0  0  0  0  0  0  0  0  0  0  0
   -6.6241   18.0858  -31.5853 H   0  0  0  0  0  0  0  0  0  0  0  0
   -6.0521   15.8645  -32.2039 H   0  0  0  0  0  0  0  0  0  0  0  0
   -6.8970   16.1150  -33.7377 H   0  0  0  0  0  0  0  0  0  0  0  0
   -2.4206   17.5367  -34.7203 H   0  0  0  0  0  0  0  0  0  0  0  0
   -1.7529   19.9484  -34.4377 H   0  0  0  0  0  0  0  0  0  0  0  0
   -3.2900   21.5447  -33.2678 H   0  0  0  0  0  0  0  0  0  0  0  0
   -5.5030   20.7390  -32.3792 H   0  0  0  0  0  0  0  0  0  0  0  0
  -10.5193   21.2118  -32.3751 H   0  0  0  0  0  0  0  0  0  0  0  0
   -7.0796   25.0208  -31.1877 H   0  0  0  0  0  0  0  0  0  0  0  0
   -5.0892   26.3251  -30.4439 H   0  0  0  0  0  0  0  0  0  0  0  0
  1  2  1  0
  2  3  2  0
  3  4  1  0
  4  5  2  0
  5  6  1  0
  6  7  2  0
  7  8  1  0
  8  9  1  0
  9 10  1  0
 10 11  1  0
 11 12  1  0
 12 13  1  0
 13 14  1  0
 14 15  2  0
 15 16  1  0
 16 17  2  0
 17 18  1  0
 18 19  2  0
  8 20  2  0
 20 21  1  0
  5 22  1  0
 22 23  2  0
 23  2  1  0
 21  6  1  0
 19 11  1  0
 19 14  1  0
  3 24  1  0
  4 25  1  0
  9 26  1  0
  9 27  1  0
 10 28  1  0
 10 29  1  0
 11 30  1  1
 12 31  1  0
 12 32  1  0
 15 33  1  0
 16 34  1  0
 17 35  1  0
 18 36  1  0
 20 37  1  0
 22 38  1  0
 23 39  1  0
M  CHG  2   1  -1  10   1
M  END
>  <UniqueID>  (19) 
19

>  <SMILES>  (19) 
[O-]c1ccc(-c2nc(C[NH2+][C@H]3COc4ccccc43)cs2)cc1

>  <Energy>  (19) 
91.99095681461088

>  <Genealogy>  (19) 
[O-]c1ccc(-c2nc(C[NH2+]C3COc4ccccc43)cs2)cc1 (protonated)
[O-]c1ccc(-c2nc(C[NH2+][C@H]3COc4ccccc43)cs2)cc1 (chirality)
[O-]c1ccc(-c2nc(C[NH2+][C@H]3COc4ccccc43)cs2)cc1 (3D coordinates assigned)
[O-]c1ccc(-c2nc(C[NH2+][C@H]3COc4ccccc43)cs2)cc1 (nonaromatic ring conformer: 91.99095681461088 kcal/mol)

>  <smiles>  (19) 
Oc1ccc(-c2nc(CNC3COc4ccccc43)cs2)cc1

>  <score_type>  (19) 
oracle

>  <origin>  (19) 
adgpu

>  <m_score__min__energy>  (19) 
-11.1

>  <m_primary>  (19) 
energy

$$$$
19:0
     RDKit          3D

 58 61  0  0  0  0  0  0  0  0999 V2000
   -7.6201   18.3407  -30.3884 H   0  0  0  0  0  0  0  0  0  0  0  0
   -7.1760   18.2660  -31.3920 C   0  0  0  0  0  0  0  0  0  0  0  0
   -7.9020   18.9110  -32.5090 C   0  0  0  0  0  0  0  0  0  0  0  0
   -9.1190   18.6520  -32.7080 O   0  0  0  0  0  0  0  0  0  0  0  0
   -7.2780   19.9270  -33.3030 N   0  0  0  0  0  0  0  0  0  0  0  0
   -6.3610   20.9260  -32.8320 C   0  0  0  0  0  0  0  0  0  0  0  0
   -6.8030   22.0670  -32.1470 C   0  0  0  0  0  0  0  0  0  0  0  0
   -7.8792   22.2230  -31.9811 H   0  0  0  0  0  0  0  0  0  0  0  0
   -5.8850   23.0050  -31.6750 C   0  0  0  0  0  0  0  0  0  0  0  0
   -6.2427   23.8968  -31.1396 H   0  0  0  0  0  0  0  0  0  0  0  0
   -4.5060   22.8200  -31.8780 C   0  0  0  0  0  0  0  0  0  0  0  0
   -3.5510   23.7820  -31.3990 N   0  0  0  0  0  0  0  0  0  0  0  0
   -3.6500   24.5700  -30.2040 C   0  0  0  0  0  0  0  0  0  0  0  0
   -4.3740   25.6010  -30.1940 O   0  0  0  0  0  0  0  0  0  0  0  0
   -2.8530   24.1990  -29.0050 C   0  0  0  0  0  0  0  0  0  0  0  0
   -3.2370   23.0850  -28.2290 C   0  0  0  0  0  0  0  0  0  0  0  0
   -4.1223   22.4997  -28.5183 H   0  0  0  0  0  0  0  0  0  0  0  0
   -2.5050   22.7170  -27.0970 C   0  0  0  0  0  0  0  0  0  0  0  0
   -2.8146   21.8447  -26.5027 H   0  0  0  0  0  0  0  0  0  0  0  0
   -1.3820   23.4540  -26.7190 C   0  0  0  0  0  0  0  0  0  0  0  0
   -0.8082   23.1631  -25.8267 H   0  0  0  0  0  0  0  0  0  0  0  0
   -0.9870   24.5590  -27.4720 C   0  0  0  0  0  0  0  0  0  0  0  0
   -0.1003   25.1365  -27.1716 H   0  0  0  0  0  0  0  0  0  0  0  0
   -1.7120   24.9380  -28.6080 C   0  0  0  0  0  0  0  0  0  0  0  0
   -1.2870   26.0490  -29.3280 O   0  0  0  0  0  0  0  0  0  0  0  0
   -4.0520   21.6490  -32.5230 C   0  0  0  0  0  0  0  0  0  0  0  0
   -2.6030   21.3840  -32.6990 C   0  0  0  0  0  0  0  0  0  0  0  0
   -2.0820   21.5740  -33.8330 O   0  0  0  0  0  0  0  0  0  0  0  0
   -1.7450   20.9190  -31.5800 C   0  0  0  0  0  0  0  0  0  0  0  0
   -2.2600   20.7950  -30.2750 C   0  0  0  0  0  0  0  0  0  0  0  0
   -3.3100   21.0544  -30.0744 H   0  0  0  0  0  0  0  0  0  0  0  0
   -1.4440   20.3440  -29.2330 C   0  0  0  0  0  0  0  0  0  0  0  0
   -1.8525   20.2559  -28.2155 H   0  0  0  0  0  0  0  0  0  0  0  0
   -0.1120   20.0050  -29.4800 C   0  0  0  0  0  0  0  0  0  0  0  0
    0.5286   19.6541  -28.6575 H   0  0  0  0  0  0  0  0  0  0  0  0
    0.4060   20.1120  -30.7730 C   0  0  0  0  0  0  0  0  0  0  0  0
    1.4545   19.8427  -30.9683 H   0  0  0  0  0  0  0  0  0  0  0  0
   -0.4060   20.5610  -31.8200 C   0  0  0  0  0  0  0  0  0  0  0  0
    0.0053   20.6346  -32.8376 H   0  0  0  0  0  0  0  0  0  0  0  0
   -4.9890   20.7090  -32.9870 C   0  0  0  0  0  0  0  0  0  0  0  0
   -4.6374   19.7900  -33.4788 H   0  0  0  0  0  0  0  0  0  0  0  0
   -6.0180   17.5970  -31.5080 C   0  0  0  0  0  0  0  0  0  0  0  0
   -5.6611   17.0438  -30.6267 H   0  0  0  0  0  0  0  0  0  0  0  0
   -5.1840   17.5460  -32.7300 C   0  0  0  0  0  0  0  0  0  0  0  0
   -3.8950   18.1080  -32.7380 C   0  0  0  0  0  0  0  0  0  0  0  0
   -3.5173   18.6201  -31.8407 H   0  0  0  0  0  0  0  0  0  0  0  0
   -3.0910   18.0210  -33.8760 C   0  0  0  0  0  0  0  0  0  0  0  0
   -2.0902   18.4775  -33.8786 H   0  0  0  0  0  0  0  0  0  0  0  0
   -3.5570   17.3550  -35.0100 C   0  0  0  0  0  0  0  0  0  0  0  0
   -2.9244   17.2912  -35.9077 H   0  0  0  0  0  0  0  0  0  0  0  0
   -4.8250   16.7690  -35.0080 C   0  0  0  0  0  0  0  0  0  0  0  0
   -5.1835   16.2393  -35.9029 H   0  0  0  0  0  0  0  0  0  0  0  0
   -5.6480   16.8520  -33.8670 C   0  0  0  0  0  0  0  0  0  0  0  0
   -6.9250   16.2670  -33.8300 O   0  0  0  0  0  0  0  0  0  0  0  0
   -7.2200   14.9430  -34.2660 C   0  0  0  0  0  0  0  0  0  0  0  0
   -7.3649   14.2925  -33.3909 H   0  0  0  0  0  0  0  0  0  0  0  0
   -8.1381   14.9525  -34.8719 H   0  0  0  0  0  0  0  0  0  0  0  0
   -6.3848   14.5618  -34.8719 H   0  0  0  0  0  0  0  0  0  0  0  0
  1  2  1  0
  2  3  1  0
  3  4  2  0
  3  5  1  0
  5  6  1  0
  6  7  2  0
  7  8  1  0
  7  9  1  0
  9 10  1  0
  9 11  2  0
 11 12  1  0
 12 13  1  0
 13 14  2  0
 13 15  1  0
 15 16  2  0
 16 17  1  0
 16 18  1  0
 18 19  1  0
 18 20  2  0
 20 21  1  0
 20 22  1  0
 22 23  1  0
 22 24  2  0
 24 25  1  0
 11 26  1  0
 26 27  1  0
 27 28  2  0
 27 29  1  0
 29 30  2  0
 30 31  1  0
 30 32  1  0
 32 33  1  0
 32 34  2  0
 34 35  1  0
 34 36  1  0
 36 37  1  0
 36 38  2  0
 38 39  1  0
 26 40  2  0
 40 41  1  0
  2 42  2  0
 42 43  1  0
 42 44  1  0
 44 45  2  0
 45 46  1  0
 45 47  1  0
 47 48  1  0
 47 49  2  0
 49 50  1  0
 49 51  1  0
 51 52  1  0
 51 53  2  0
 53 54  1  0
 54 55  1  0
 55 56  1  0
 55 57  1  0
 55 58  1  0
 40  6  1  0
 53 44  1  0
 24 15  1  0
 38 29  1  0
M  CHG  3   5  -1  12  -1  25  -1
M  END
>  <UniqueID>  (20) 
20

>  <SMILES>  (20) 
COc1ccccc1/C=C\C(=O)[N-]c1ccc([N-]C(=O)c2ccccc2[O-])c(C(=O)c2ccccc2)c1

>  <Energy>  (20) 
88.23591926881126

>  <Genealogy>  (20) 
COc1ccccc1C=CC(=O)[N-]c1ccc([N-]C(=O)c2ccccc2[O-])c(C(=O)c2ccccc2)c1 (protonated)
COc1ccccc1/C=C\C(=O)[N-]c1ccc([N-]C(=O)c2ccccc2[O-])c(C(=O)c2ccccc2)c1 (cis-trans isomerization)
COc1ccccc1/C=C\C(=O)[N-]c1ccc([N-]C(=O)c2ccccc2[O-])c(C(=O)c2ccccc2)c1 (3D coordinates assigned)
COc1ccccc1/C=C\C(=O)[N-]c1ccc([N-]C(=O)c2ccccc2[O-])c(C(=O)c2ccccc2)c1 (optimized conformer: 88.23591926881126 kcal/mol)

>  <smiles>  (20) 
COc1ccccc1C=CC(=O)Nc1ccc(NC(=O)c2ccccc2O)c(C(=O)c2ccccc2)c1

>  <score_type>  (20) 
oracle

>  <origin>  (20) 
adgpu

>  <m_score__min__energy>  (20) 
-15

>  <m_primary>  (20) 
energy

$$$$
20:0
     RDKit          3D

 36 37  0  0  0  0  0  0  0  0999 V2000
   -7.9930   18.9590  -32.7090 C   0  0  0  0  0  0  0  0  0  0  0  0
   -8.7310   19.5400  -31.5020 C   0  0  0  0  0  0  0  0  0  0  0  0
   -8.8720   21.0400  -31.5640 C   0  0  0  0  0  0  0  0  0  0  0  0
  -10.0140   21.5730  -31.6210 O   0  0  0  0  0  0  0  0  0  0  0  0
   -7.6750   21.9020  -31.5880 C   0  0  0  0  0  0  0  0  0  0  0  0
   -6.9330   22.2350  -32.7070 C   0  0  0  0  0  0  0  0  0  0  0  0
   -5.9070   23.0290  -32.3530 N   0  0  0  0  0  0  0  0  0  0  0  0
   -5.9850   23.2090  -31.0190 C   0  0  0  0  0  0  0  0  0  0  0  0
   -5.0200   24.0130  -30.2450 C   0  0  0  0  0  0  0  0  0  0  0  0
   -4.3000   24.8530  -30.8480 O   0  0  0  0  0  0  0  0  0  0  0  0
   -4.9270   23.8760  -28.8170 N   0  0  0  0  0  0  0  0  0  0  0  0
   -3.8160   24.3540  -28.0380 C   0  0  0  0  0  0  0  0  0  0  0  0
   -3.9900   24.8260  -26.7250 C   0  0  0  0  0  0  0  0  0  0  0  0
   -2.8980   25.3070  -25.9970 C   0  0  0  0  0  0  0  0  0  0  0  0
   -1.6210   25.3400  -26.5670 C   0  0  0  0  0  0  0  0  0  0  0  0
   -0.5580   25.8300  -25.7940 O   0  0  0  0  0  0  0  0  0  0  0  0
   -0.6330   26.0880  -24.3960 C   0  0  0  0  0  0  0  0  0  0  0  0
   -1.4490   24.8870  -27.8880 C   0  0  0  0  0  0  0  0  0  0  0  0
   -2.5400   24.4060  -28.6170 C   0  0  0  0  0  0  0  0  0  0  0  0
   -7.0710   22.5200  -30.5070 C   0  0  0  0  0  0  0  0  0  0  0  0
   -7.1730   18.3134  -32.3615 H   0  0  0  0  0  0  0  0  0  0  0  0
   -8.6932   18.3672  -33.3168 H   0  0  0  0  0  0  0  0  0  0  0  0
   -7.5820   19.7785  -33.3168 H   0  0  0  0  0  0  0  0  0  0  0  0
   -9.7360   19.0949  -31.4580 H   0  0  0  0  0  0  0  0  0  0  0  0
   -8.1371   19.3019  -30.6072 H   0  0  0  0  0  0  0  0  0  0  0  0
   -7.1497   21.9006  -33.7323 H   0  0  0  0  0  0  0  0  0  0  0  0
   -5.1880   23.4250  -32.9980 H   0  0  0  0  0  0  0  0  0  0  0  0
   -5.7550   23.5010  -28.3020 H   0  0  0  0  0  0  0  0  0  0  0  0
   -4.9907   24.8167  -26.2683 H   0  0  0  0  0  0  0  0  0  0  0  0
   -3.0442   25.6628  -24.9665 H   0  0  0  0  0  0  0  0  0  0  0  0
   -0.3680   25.1765  -23.8402 H   0  0  0  0  0  0  0  0  0  0  0  0
    0.0680   26.8941  -24.1338 H   0  0  0  0  0  0  0  0  0  0  0  0
   -1.6569   26.3927  -24.1338 H   0  0  0  0  0  0  0  0  0  0  0  0
   -0.4507   24.9116  -28.3493 H   0  0  0  0  0  0  0  0  0  0  0  0
   -2.3966   24.0655  -29.6531 H   0  0  0  0  0  0  0  0  0  0  0  0
   -7.3891   22.4732  -29.4550 H   0  0  0  0  0  0  0  0  0  0  0  0
  1  2  1  0
  2  3  1  0
  3  4  2  0
  3  5  1  0
  5  6  2  0
  6  7  1  0
  7  8  1  0
  8  9  1  0
  9 10  2  0
  9 11  1  0
 11 12  1  0
 12 13  2  0
 13 14  1  0
 14 15  2  0
 15 16  1  0
 16 17  1  0
 15 18  1  0
 18 19  2  0
  8 20  2  0
 20  5  1  0
 19 12  1  0
  1 21  1  0
  1 22  1  0
  1 23  1  0
  2 24  1  0
  2 25  1  0
  6 26  1  0
  7 27  1  0
 11 28  1  0
 13 29  1  0
 14 30  1  0
 17 31  1  0
 17 32  1  0
 17 33  1  0
 18 34  1  0
 19 35  1  0
 20 36  1  0
M  END
>  <UniqueID>  (21) 
21

>  <SMILES>  (21) 
CCC(=O)c1c[nH]c(C(=O)Nc2ccc(OC)cc2)c1

>  <Energy>  (21) 
61.4281260839484

>  <Genealogy>  (21) 
CCC(=O)c1c[nH]c(C(=O)Nc2ccc(OC)cc2)c1 (3D coordinates assigned)
CCC(=O)c1c[nH]c(C(=O)Nc2ccc(OC)cc2)c1 (optimized conformer: 61.4281260839484 kcal/mol)

>  <smiles>  (21) 
CCC(=O)c1c[nH]c(C(=O)Nc2ccc(OC)cc2)c1

>  <score_type>  (21) 
oracle

>  <origin>  (21) 
adgpu

>  <m_score__min__energy>  (21) 
-7.4400000000000004

>  <m_primary>  (21) 
energy

$$$$
21:0
     RDKit          3D

 52 54  0  0  0  0  0  0  0  0999 V2000
   -7.1690   22.3780  -30.1040 C   0  0  0  0  0  0  0  0  0  0  0  0
   -8.1240   21.9660  -31.2540 C   0  0  0  0  0  0  0  0  0  0  0  0
   -8.0560   23.0880  -32.3170 C   0  0  0  0  0  0  0  0  0  0  0  0
   -9.5440   21.8940  -30.6560 C   0  0  0  0  0  0  0  0  0  0  0  0
   -7.7580   20.5980  -31.8880 C   0  0  0  0  0  0  0  0  0  0  0  0
   -8.6030   19.4670  -31.7380 C   0  0  0  0  0  0  0  0  0  0  0  0
   -8.2860   18.2400  -32.3200 C   0  0  0  0  0  0  0  0  0  0  0  0
   -7.1270   18.1000  -33.0750 C   0  0  0  0  0  0  0  0  0  0  0  0
   -6.2760   19.1860  -33.2440 C   0  0  0  0  0  0  0  0  0  0  0  0
   -6.5630   20.4290  -32.6500 C   0  0  0  0  0  0  0  0  0  0  0  0
   -5.6820   21.5040  -32.8500 O   0  0  0  0  0  0  0  0  0  0  0  0
   -4.2870   21.4160  -32.7290 C   0  0  0  0  0  0  0  0  0  0  0  0
   -3.6050   20.4150  -33.3550 N   0  0  0  0  0  0  0  0  0  0  0  0
   -2.2560   20.2940  -33.2630 C   0  0  0  0  0  0  0  0  0  0  0  0
   -1.5230   21.2160  -32.5210 C   0  0  0  0  0  0  0  0  0  0  0  0
   -2.1910   22.2490  -31.8630 C   0  0  0  0  0  0  0  0  0  0  0  0
   -3.5940   22.3450  -31.9350 C   0  0  0  0  0  0  0  0  0  0  0  0
   -4.3200   23.4030  -31.2880 N   0  0  0  0  0  0  0  0  0  0  0  0
   -3.7640   24.4430  -30.4680 C   0  0  0  0  0  0  0  0  0  0  0  0
   -3.8830   25.6520  -30.7960 O   0  0  0  0  0  0  0  0  0  0  0  0
   -3.0780   24.1210  -29.2540 N   0  0  0  0  0  0  0  0  0  0  0  0
   -2.4310   22.8730  -28.9760 C   0  0  0  0  0  0  0  0  0  0  0  0
   -3.2100   21.7580  -28.6460 C   0  0  0  0  0  0  0  0  0  0  0  0
   -2.6010   20.5360  -28.3440 C   0  0  0  0  0  0  0  0  0  0  0  0
   -1.2040   20.4240  -28.3520 C   0  0  0  0  0  0  0  0  0  0  0  0
   -0.4390   18.8910  -27.9540 S   0  0  0  0  0  0  0  0  0  0  0  0
   -1.3490   18.0910  -26.7220 N   0  0  0  0  0  0  0  0  0  0  0  0
    0.9640   19.1310  -27.4650 O   0  0  0  0  0  0  0  0  0  0  0  0
   -0.3790   18.0200  -29.1780 O   0  0  0  0  0  0  0  0  0  0  0  0
   -0.4210   21.5480  -28.6440 C   0  0  0  0  0  0  0  0  0  0  0  0
   -1.0310   22.7680  -28.9530 C   0  0  0  0  0  0  0  0  0  0  0  0
   -7.6494   22.1707  -29.1364 H   0  0  0  0  0  0  0  0  0  0  0  0
   -6.2343   21.8031  -30.1799 H   0  0  0  0  0  0  0  0  0  0  0  0
   -6.9458   23.4524  -30.1799 H   0  0  0  0  0  0  0  0  0  0  0  0
   -7.9968   24.0652  -31.8154 H   0  0  0  0  0  0  0  0  0  0  0  0
   -7.1649   22.9439  -32.9457 H   0  0  0  0  0  0  0  0  0  0  0  0
   -8.9579   23.0526  -32.9457 H   0  0  0  0  0  0  0  0  0  0  0  0
   -9.4800   21.8972  -29.5579 H   0  0  0  0  0  0  0  0  0  0  0  0
  -10.1278   22.7637  -30.9918 H   0  0  0  0  0  0  0  0  0  0  0  0
  -10.0369   20.9697  -30.9918 H   0  0  0  0  0  0  0  0  0  0  0  0
   -9.5279   19.5606  -31.1499 H   0  0  0  0  0  0  0  0  0  0  0  0
   -8.9561   17.3788  -32.1811 H   0  0  0  0  0  0  0  0  0  0  0  0
   -6.8840   17.1320  -33.5376 H   0  0  0  0  0  0  0  0  0  0  0  0
   -5.3654   19.0722  -33.8506 H   0  0  0  0  0  0  0  0  0  0  0  0
   -1.7420   19.4671  -33.7749 H   0  0  0  0  0  0  0  0  0  0  0  0
   -0.4283   21.1309  -32.4542 H   0  0  0  0  0  0  0  0  0  0  0  0
   -1.6197   22.9911  -31.2859 H   0  0  0  0  0  0  0  0  0  0  0  0
   -4.3065   21.8434  -28.6241 H   0  0  0  0  0  0  0  0  0  0  0  0
   -3.2201   19.6602  -28.0995 H   0  0  0  0  0  0  0  0  0  0  0  0
   -0.7550   17.3120  -26.3620 H   0  0  0  0  0  0  0  0  0  0  0  0
    0.6762   21.4710  -28.6303 H   0  0  0  0  0  0  0  0  0  0  0  0
   -0.4117   23.6486  -29.1789 H   0  0  0  0  0  0  0  0  0  0  0  0
  1  2  1  0
  2  3  1  0
  2  4  1  0
  2  5  1  0
  5  6  2  0
  6  7  1  0
  7  8  2  0
  8  9  1  0
  9 10  2  0
 10 11  1  0
 11 12  1  0
 12 13  2  0
 13 14  1  0
 14 15  2  0
 15 16  1  0
 16 17  2  0
 17 18  1  0
 18 19  1  0
 19 20  2  0
 19 21  1  0
 21 22  1  0
 22 23  2  0
 23 24  1  0
 24 25  2  0
 25 26  1  0
 26 27  1  0
 26 28  2  0
 26 29  2  0
 25 30  1  0
 30 31  2  0
 10  5  1  0
 17 12  1  0
 31 22  1  0
  1 32  1  0
  1 33  1  0
  1 34  1  0
  3 35  1  0
  3 36  1  0
  3 37  1  0
  4 38  1  0
  4 39  1  0
  4 40  1  0
  6 41  1  0
  7 42  1  0
  8 43  1  0
  9 44  1  0
 14 45  1  0
 15 46  1  0
 16 47  1  0
 23 48  1  0
 24 49  1  0
 27 50  1  0
 30 51  1  0
 31 52  1  0
M  CHG  3  18  -1  21  -1  27  -1
M  END
>  <UniqueID>  (22) 
22

>  <SMILES>  (22) 
CC(C)(C)c1ccccc1Oc1ncccc1[N-]C(=O)[N-]c1ccc(S([NH-])(=O)=O)cc1

>  <Energy>  (22) 
69.58929939821141

>  <Genealogy>  (22) 
CC(C)(C)c1ccccc1Oc1ncccc1[N-]C(=O)[N-]c1ccc(S([NH-])(=O)=O)cc1 (protonated)
CC(C)(C)c1ccccc1Oc1ncccc1[N-]C(=O)[N-]c1ccc(S([NH-])(=O)=O)cc1 (3D coordinates assigned)
CC(C)(C)c1ccccc1Oc1ncccc1[N-]C(=O)[N-]c1ccc(S([NH-])(=O)=O)cc1 (optimized conformer: 69.58929939821141 kcal/mol)

>  <smiles>  (22) 
CC(C)(C)c1ccccc1Oc1ncccc1NC(=O)Nc1ccc(S(N)(=O)=O)cc1

>  <score_type>  (22) 
oracle

>  <origin>  (22) 
adgpu

>  <m_score__min__energy>  (22) 
-11.51

>  <m_primary>  (22) 
energy

$$$$
22:0
     RDKit          3D

 38 40  0  0  0  0  0  0  0  0999 V2000
   -5.9910   25.9860  -30.0460 O   0  0  0  0  0  0  0  0  0  0  0  0
   -5.2020   25.3360  -30.7780 C   0  0  0  0  0  0  0  0  0  0  0  0
   -5.7200   24.6660  -31.9370 N   0  0  0  0  0  0  0  0  0  0  0  0
   -6.3760   23.3910  -31.9430 C   0  0  0  0  0  0  0  0  0  0  0  0
   -7.7380   23.2620  -31.6210 C   0  0  0  0  0  0  0  0  0  0  0  0
   -8.3530   22.0080  -31.6550 C   0  0  0  0  0  0  0  0  0  0  0  0
   -7.6120   20.8690  -31.9950 C   0  0  0  0  0  0  0  0  0  0  0  0
   -8.3870   19.2900  -32.0230 S   0  0  0  0  0  0  0  0  0  0  0  0
   -9.4420   19.2550  -33.0940 O   0  0  0  0  0  0  0  0  0  0  0  0
   -9.0530   19.0230  -30.7030 O   0  0  0  0  0  0  0  0  0  0  0  0
   -7.1720   18.0590  -32.3400 C   0  0  0  0  0  0  0  0  0  0  0  0
   -6.8840   17.6670  -33.6530 C   0  0  0  0  0  0  0  0  0  0  0  0
   -5.9310   16.6750  -33.8910 C   0  0  0  0  0  0  0  0  0  0  0  0
   -5.2790   16.0810  -32.8090 C   0  0  0  0  0  0  0  0  0  0  0  0
   -5.5760   16.4660  -31.5390 N   0  0  0  0  0  0  0  0  0  0  0  0
   -6.5000   17.4300  -31.2840 C   0  0  0  0  0  0  0  0  0  0  0  0
   -6.2450   20.9900  -32.2760 C   0  0  0  0  0  0  0  0  0  0  0  0
   -5.6300   22.2450  -32.2440 C   0  0  0  0  0  0  0  0  0  0  0  0
   -3.8120   25.2850  -30.4300 N   0  0  0  0  0  0  0  0  0  0  0  0
   -3.2340   24.4790  -29.3940 C   0  0  0  0  0  0  0  0  0  0  0  0
   -3.8010   23.2280  -29.1170 C   0  0  0  0  0  0  0  0  0  0  0  0
   -3.2820   22.4270  -28.0960 C   0  0  0  0  0  0  0  0  0  0  0  0
   -2.1780   22.8620  -27.3580 C   0  0  0  0  0  0  0  0  0  0  0  0
   -1.5850   24.0930  -27.6480 C   0  0  0  0  0  0  0  0  0  0  0  0
   -2.1010   24.8990  -28.6680 C   0  0  0  0  0  0  0  0  0  0  0  0
   -1.4750   26.0660  -28.9640 F   0  0  0  0  0  0  0  0  0  0  0  0
   -8.3217   24.1514  -31.3413 H   0  0  0  0  0  0  0  0  0  0  0  0
   -9.4222   21.9149  -31.4141 H   0  0  0  0  0  0  0  0  0  0  0  0
   -7.4082   18.1403  -34.4963 H   0  0  0  0  0  0  0  0  0  0  0  0
   -5.6964   16.3648  -34.9200 H   0  0  0  0  0  0  0  0  0  0  0  0
   -4.5239   15.3004  -32.9839 H   0  0  0  0  0  0  0  0  0  0  0  0
   -6.7206   17.7170  -30.2453 H   0  0  0  0  0  0  0  0  0  0  0  0
   -5.6541   20.0955  -32.5224 H   0  0  0  0  0  0  0  0  0  0  0  0
   -4.5543   22.3327  -32.4564 H   0  0  0  0  0  0  0  0  0  0  0  0
   -4.6596   22.8742  -29.7066 H   0  0  0  0  0  0  0  0  0  0  0  0
   -3.7429   21.4534  -27.8732 H   0  0  0  0  0  0  0  0  0  0  0  0
   -1.7759   22.2349  -26.5486 H   0  0  0  0  0  0  0  0  0  0  0  0
   -0.7099   24.4294  -27.0727 H   0  0  0  0  0  0  0  0  0  0  0  0
  1  2  2  0
  2  3  1  0
  3  4  1  0
  4  5  2  0
  5  6  1  0
  6  7  2  0
  7  8  1  0
  8  9  2  0
  8 10  2  0
  8 11  1  0
 11 12  2  0
 12 13  1  0
 13 14  2  0
 14 15  1  0
 15 16  2  0
  7 17  1  0
 17 18  2  0
  2 19  1  0
 19 20  1  0
 20 21  2  0
 21 22  1  0
 22 23  2  0
 23 24  1  0
 24 25  2  0
 25 26  1  0
 18  4  1  0
 25 20  1  0
 16 11  1  0
  5 27  1  0
  6 28  1  0
 12 29  1  0
 13 30  1  0
 14 31  1  0
 16 32  1  0
 17 33  1  0
 18 34  1  0
 21 35  1  0
 22 36  1  0
 23 37  1  0
 24 38  1  0
M  CHG  2   3  -1  19  -1
M  END
>  <UniqueID>  (23) 
23

>  <SMILES>  (23) 
O=C([N-]c1ccc(S(=O)(=O)c2cccnc2)cc1)[N-]c1ccccc1F

>  <Energy>  (23) 
51.95177924675027

>  <Genealogy>  (23) 
O=C([N-]c1ccc(S(=O)(=O)c2cccnc2)cc1)[N-]c1ccccc1F (protonated)
O=C([N-]c1ccc(S(=O)(=O)c2cccnc2)cc1)[N-]c1ccccc1F (3D coordinates assigned)
O=C([N-]c1ccc(S(=O)(=O)c2cccnc2)cc1)[N-]c1ccccc1F (optimized conformer: 51.95177924675027 kcal/mol)

>  <smiles>  (23) 
O=C(Nc1ccc(S(=O)(=O)c2cccnc2)cc1)Nc1ccccc1F

>  <score_type>  (23) 
oracle

>  <origin>  (23) 
adgpu

>  <m_score__min__energy>  (23) 
-12.51

>  <m_primary>  (23) 
energy

$$$$
23:0
     RDKit          3D

 35 38  0  0  0  0  0  0  0  0999 V2000
   -1.9490   25.6770  -28.9660 O   0  0  0  0  0  0  0  0  0  0  0  0
   -2.4020   24.5590  -29.6550 C   0  0  0  0  0  0  0  0  0  0  0  0
   -1.7150   23.3470  -29.5580 C   0  0  0  0  0  0  0  0  0  0  0  0
   -2.1610   22.2560  -30.2340 N   0  0  0  0  0  0  0  0  0  0  0  0
   -3.2690   22.2970  -31.0270 C   0  0  0  0  0  0  0  0  0  0  0  0
   -3.7200   21.0720  -31.7260 C   0  0  0  0  0  0  0  0  0  0  0  0
   -4.9970   20.5450  -31.6670 C   0  0  0  0  0  0  0  0  0  0  0  0
   -4.9070   19.3460  -32.3470 C   0  0  0  0  0  0  0  0  0  0  0  0
   -5.9940   18.3810  -32.5560 C   0  0  0  0  0  0  0  0  0  0  0  0
   -5.9730   17.2650  -33.3690 C   0  0  0  0  0  0  0  0  0  0  0  0
   -7.2160   16.6840  -33.2300 C   0  0  0  0  0  0  0  0  0  0  0  0
   -7.9470   17.3880  -32.3950 O   0  0  0  0  0  0  0  0  0  0  0  0
   -7.2440   18.4130  -31.9730 C   0  0  0  0  0  0  0  0  0  0  0  0
   -3.6490   19.1660  -32.7960 N   0  0  0  0  0  0  0  0  0  0  0  0
   -2.9330   20.2150  -32.4220 N   0  0  0  0  0  0  0  0  0  0  0  0
   -1.5550   20.3790  -32.7930 C   0  0  0  0  0  0  0  0  0  0  0  0
   -1.2230   21.0790  -33.9630 C   0  0  0  0  0  0  0  0  0  0  0  0
    0.1160   21.2670  -34.3190 C   0  0  0  0  0  0  0  0  0  0  0  0
    1.1340   20.7690  -33.5000 C   0  0  0  0  0  0  0  0  0  0  0  0
    0.8130   20.0910  -32.3210 C   0  0  0  0  0  0  0  0  0  0  0  0
   -0.5260   19.9020  -31.9620 C   0  0  0  0  0  0  0  0  0  0  0  0
   -3.9880   23.4970  -31.1400 C   0  0  0  0  0  0  0  0  0  0  0  0
   -3.5480   24.6310  -30.4530 C   0  0  0  0  0  0  0  0  0  0  0  0
   -4.2490   25.8260  -30.5650 O   0  0  0  0  0  0  0  0  0  0  0  0
   -0.8121   23.2755  -28.9338 H   0  0  0  0  0  0  0  0  0  0  0  0
   -5.8848   20.9822  -31.1867 H   0  0  0  0  0  0  0  0  0  0  0  0
   -5.1401   16.9134  -33.9956 H   0  0  0  0  0  0  0  0  0  0  0  0
   -7.5463   15.7680  -33.7417 H   0  0  0  0  0  0  0  0  0  0  0  0
   -7.5964   19.1778  -31.2653 H   0  0  0  0  0  0  0  0  0  0  0  0
   -2.0209   21.4822  -34.6039 H   0  0  0  0  0  0  0  0  0  0  0  0
    0.3686   21.8068  -35.2436 H   0  0  0  0  0  0  0  0  0  0  0  0
    2.1873   20.9109  -33.7837 H   0  0  0  0  0  0  0  0  0  0  0  0
    1.6146   19.7052  -31.6740 H   0  0  0  0  0  0  0  0  0  0  0  0
   -0.7744   19.3787  -31.0269 H   0  0  0  0  0  0  0  0  0  0  0  0
   -4.8918   23.5443  -31.7652 H   0  0  0  0  0  0  0  0  0  0  0  0
  1  2  1  0
  2  3  2  0
  3  4  1  0
  4  5  2  0
  5  6  1  0
  6  7  2  0
  7  8  1  0
  8  9  1  0
  9 10  1  0
 10 11  2  0
 11 12  1  0
 12 13  1  0
  8 14  2  0
 14 15  1  0
 15 16  1  0
 16 17  2  0
 17 18  1  0
 18 19  2  0
 19 20  1  0
 20 21  2  0
  5 22  1  0
 22 23  2  0
 23 24  1  0
 23  2  1  0
 15  6  1  0
 21 16  1  0
 13  9  2  0
  3 25  1  0
  7 26  1  0
 10 27  1  0
 11 28  1  0
 13 29  1  0
 17 30  1  0
 18 31  1  0
 19 32  1  0
 20 33  1  0
 21 34  1  0
 22 35  1  0
M  CHG  2   1  -1  24  -1
M  END
>  <UniqueID>  (24) 
24

>  <SMILES>  (24) 
[O-]c1cnc(-c2cc(-c3ccoc3)nn2-c2ccccc2)cc1[O-]

>  <Energy>  (24) 
104.63549807703973

>  <Genealogy>  (24) 
[O-]c1cnc(-c2cc(-c3ccoc3)nn2-c2ccccc2)cc1[O-] (protonated)
[O-]c1cnc(-c2cc(-c3ccoc3)nn2-c2ccccc2)cc1[O-] (3D coordinates assigned)
[O-]c1cnc(-c2cc(-c3ccoc3)nn2-c2ccccc2)cc1[O-] (optimized conformer: 104.63549807703973 kcal/mol)

>  <smiles>  (24) 
Oc1cnc(-c2cc(-c3ccoc3)nn2-c2ccccc2)cc1O

>  <score_type>  (24) 
oracle

>  <origin>  (24) 
adgpu

>  <m_score__min__energy>  (24) 
-11.76

>  <m_primary>  (24) 
energy

$$$$
24:0
     RDKit          3D

 35 37  0  0  1  0  0  0  0  0999 V2000
   -9.8540   20.4020  -32.3370 C   0  0  0  0  0  0  0  0  0  0  0  0
   -8.6780   19.5330  -32.0980 C   0  0  0  0  0  0  0  0  0  0  0  0
   -7.3700   19.8580  -32.3350 C   0  0  0  0  0  0  0  0  0  0  0  0
   -6.6340   18.7540  -31.9680 C   0  0  0  0  0  0  0  0  0  0  0  0
   -5.3590   18.5570  -31.9980 N   0  0  0  0  0  0  0  0  0  0  0  0
   -4.5540   19.6270  -32.4830 C   0  0  0  0  0  0  0  0  0  0  0  0
   -3.4820   19.3070  -33.3220 C   0  0  0  0  0  0  0  0  0  0  0  0
   -2.6650   20.3080  -33.8230 C   0  0  0  0  0  0  0  0  0  0  0  0
   -2.9460   21.5740  -33.4730 N   0  0  0  0  0  0  0  0  0  0  0  0
   -3.9810   21.8570  -32.6660 C   0  0  0  0  0  0  0  0  0  0  0  0
   -4.1980   23.0750  -32.3690 N   0  0  0  0  0  0  0  0  0  0  0  0
   -5.2500   23.5360  -31.5290 C   0  0  0  0  0  0  0  0  0  0  0  0
   -6.4870   22.9480  -31.4630 C   0  0  0  0  0  0  0  0  0  0  0  0
   -7.4060   23.5110  -30.5990 C   0  0  0  0  0  0  0  0  0  0  0  0
   -7.1250   24.6180  -29.8180 C   0  0  0  0  0  0  0  0  0  0  0  0
   -5.8690   25.2110  -29.8870 C   0  0  0  0  0  0  0  0  0  0  0  0
   -4.9460   24.6570  -30.7470 C   0  0  0  0  0  0  0  0  0  0  0  0
   -3.6860   25.2570  -30.8120 O   0  0  0  0  0  0  0  0  0  0  0  0
   -4.7890   20.9190  -32.1630 N   0  0  0  0  0  0  0  0  0  0  0  0
   -7.5120   17.8320  -31.5350 N   0  0  0  0  0  0  0  0  0  0  0  0
   -8.7420   18.2820  -31.6070 N   0  0  0  0  0  0  0  0  0  0  0  0
  -10.2796   20.7165  -31.3726 H   0  0  0  0  0  0  0  0  0  0  0  0
   -9.5440   21.2897  -32.9079 H   0  0  0  0  0  0  0  0  0  0  0  0
  -10.6115   19.8450  -32.9079 H   0  0  0  0  0  0  0  0  0  0  0  0
   -6.9854   20.8071  -32.7366 H   0  0  0  0  0  0  0  0  0  0  0  0
   -3.2865   18.2570  -33.5852 H   0  0  0  0  0  0  0  0  0  0  0  0
   -1.8170   20.0742  -34.4835 H   0  0  0  0  0  0  0  0  0  0  0  0
   -2.3420   22.3160  -33.8440 H   0  0  0  0  0  0  0  0  0  0  0  0
   -6.7366   22.0664  -32.0716 H   0  0  0  0  0  0  0  0  0  0  0  0
   -8.4063   23.0589  -30.5287 H   0  0  0  0  0  0  0  0  0  0  0  0
   -7.8925   25.0276  -29.1448 H   0  0  0  0  0  0  0  0  0  0  0  0
   -5.6210   26.0916  -29.2763 H   0  0  0  0  0  0  0  0  0  0  0  0
   -3.1100   24.9060  -31.5850 H   0  0  0  0  0  0  0  0  0  0  0  0
   -7.2540   16.8700  -31.1830 H   0  0  0  0  0  0  0  0  0  0  0  0
   -9.6180   17.7560  -31.3280 H   0  0  0  0  0  0  0  0  0  0  0  0
  1  2  1  0
  2  3  2  0
  3  4  1  0
  4  5  2  0
  5  6  1  0
  6  7  1  0
  7  8  2  0
  8  9  1  0
  9 10  1  0
 10 11  2  0
 11 12  1  0
 12 13  2  0
 13 14  1  0
 14 15  2  0
 15 16  1  0
 16 17  2  0
 17 18  1  0
 10 19  1  0
  4 20  1  0
 20 21  1  0
 21  2  1  0
 19  6  2  0
 17 12  1  0
  1 22  1  0
  1 23  1  0
  1 24  1  0
  3 25  1  0
  7 26  1  0
  8 27  1  0
  9 28  1  0
 13 29  1  0
 14 30  1  0
 15 31  1  0
 16 32  1  0
 18 33  1  0
 20 34  1  0
 21 35  1  0
M  END
>  <smiles>  (25) 
Cc1cc(=Nc2cc[nH]c(=Nc3ccccc3O)n2)[nH][nH]1

>  <score_type>  (25) 
oracle

>  <origin>  (25) 
adgpu

>  <m_score__min__energy>  (25) 
-8.5999999999999996

>  <m_primary>  (25) 
energy

$$$$
25:0
     RDKit          3D

 51 53  0  0  0  0  0  0  0  0999 V2000
   -9.5110   20.8030  -32.1560 C   0  0  0  0  0  0  0  0  0  0  0  0
   -8.5710   20.0860  -33.0230 N   0  0  0  0  0  0  0  0  0  0  0  0
   -7.8450   19.0480  -32.2790 C   0  0  0  0  0  0  0  0  0  0  0  0
   -6.5910   18.6320  -33.0190 C   0  0  0  0  0  0  0  0  0  0  0  0
   -6.6580   17.5040  -33.8580 C   0  0  0  0  0  0  0  0  0  0  0  0
   -5.5540   17.1140  -34.6180 C   0  0  0  0  0  0  0  0  0  0  0  0
   -4.3710   17.8500  -34.5610 C   0  0  0  0  0  0  0  0  0  0  0  0
   -4.2850   18.9750  -33.7400 C   0  0  0  0  0  0  0  0  0  0  0  0
   -5.3810   19.3740  -32.9580 C   0  0  0  0  0  0  0  0  0  0  0  0
   -5.2340   20.5670  -32.1020 C   0  0  0  0  0  0  0  0  0  0  0  0
   -6.0280   21.7020  -32.3250 C   0  0  0  0  0  0  0  0  0  0  0  0
   -5.8510   22.8450  -31.5440 C   0  0  0  0  0  0  0  0  0  0  0  0
   -4.8880   22.8650  -30.5270 C   0  0  0  0  0  0  0  0  0  0  0  0
   -4.5900   24.3610  -29.6500 S   0  0  0  0  0  0  0  0  0  0  0  0
   -5.8810   25.0150  -29.2450 O   0  0  0  0  0  0  0  0  0  0  0  0
   -3.8320   25.3020  -30.5420 O   0  0  0  0  0  0  0  0  0  0  0  0
   -3.6400   24.0050  -28.2450 N   0  0  0  0  0  0  0  0  0  0  0  0
   -2.2750   24.4270  -28.1650 C   0  0  0  0  0  0  0  0  0  0  0  0
   -1.2380   24.0210  -28.9840 C   0  0  0  0  0  0  0  0  0  0  0  0
   -1.3210   23.0400  -30.1070 C   0  0  0  0  0  0  0  0  0  0  0  0
   -0.0830   24.5540  -28.5350 N   0  0  0  0  0  0  0  0  0  0  0  0
   -0.3680   25.2970  -27.4730 N   0  0  0  0  0  0  0  0  0  0  0  0
    0.6340   26.0640  -26.7410 C   0  0  0  0  0  0  0  0  0  0  0  0
   -1.6950   25.2560  -27.2250 C   0  0  0  0  0  0  0  0  0  0  0  0
   -2.3890   25.9850  -26.1130 C   0  0  0  0  0  0  0  0  0  0  0  0
   -4.1240   21.7180  -30.2740 C   0  0  0  0  0  0  0  0  0  0  0  0
   -4.3010   20.5700  -31.0520 C   0  0  0  0  0  0  0  0  0  0  0  0
   -9.2584   20.6104  -31.1029 H   0  0  0  0  0  0  0  0  0  0  0  0
   -9.4452   21.8824  -32.3573 H   0  0  0  0  0  0  0  0  0  0  0  0
  -10.5346   20.4542  -32.3573 H   0  0  0  0  0  0  0  0  0  0  0  0
   -9.1370   19.6080  -33.7630 H   0  0  0  0  0  0  0  0  0  0  0  0
   -7.5663   19.4415  -31.2903 H   0  0  0  0  0  0  0  0  0  0  0  0
   -8.4983   18.1696  -32.1718 H   0  0  0  0  0  0  0  0  0  0  0  0
   -7.5905   16.9234  -33.9155 H   0  0  0  0  0  0  0  0  0  0  0  0
   -5.6173   16.2250  -35.2627 H   0  0  0  0  0  0  0  0  0  0  0  0
   -3.5039   17.5432  -35.1644 H   0  0  0  0  0  0  0  0  0  0  0  0
   -3.3506   19.5543  -33.7051 H   0  0  0  0  0  0  0  0  0  0  0  0
   -6.7914   21.6910  -33.1169 H   0  0  0  0  0  0  0  0  0  0  0  0
   -6.4710   23.7348  -31.7280 H   0  0  0  0  0  0  0  0  0  0  0  0
   -4.1580   23.8410  -27.3540 H   0  0  0  0  0  0  0  0  0  0  0  0
   -1.4071   22.0221  -29.6990 H   0  0  0  0  0  0  0  0  0  0  0  0
   -2.2035   23.2634  -30.7246 H   0  0  0  0  0  0  0  0  0  0  0  0
   -0.4136   23.1120  -30.7246 H   0  0  0  0  0  0  0  0  0  0  0  0
    0.4726   25.9405  -25.6599 H   0  0  0  0  0  0  0  0  0  0  0  0
    1.6384   25.7018  -27.0056 H   0  0  0  0  0  0  0  0  0  0  0  0
    0.5465   27.1281  -27.0056 H   0  0  0  0  0  0  0  0  0  0  0  0
   -2.0285   25.6063  -25.1452 H   0  0  0  0  0  0  0  0  0  0  0  0
   -2.1732   27.0609  -26.1891 H   0  0  0  0  0  0  0  0  0  0  0  0
   -3.4742   25.8224  -26.1891 H   0  0  0  0  0  0  0  0  0  0  0  0
   -3.3830   21.7208  -29.4611 H   0  0  0  0  0  0  0  0  0  0  0  0
   -3.7085   19.6674  -30.8415 H   0  0  0  0  0  0  0  0  0  0  0  0
  1  2  1  0
  2  3  1  0
  3  4  1  0
  4  5  2  0
  5  6  1  0
  6  7  2  0
  7  8  1  0
  8  9  2  0
  9 10  1  0
 10 11  2  0
 11 12  1  0
 12 13  2  0
 13 14  1  0
 14 15  2  0
 14 16  2  0
 14 17  1  0
 17 18  1  0
 18 19  1  0
 19 20  1  0
 19 21  2  0
 21 22  1  0
 22 23  1  0
 22 24  1  0
 24 25  1  0
 13 26  1  0
 26 27  2  0
  9  4  1  0
 27 10  1  0
 24 18  2  0
  1 28  1  0
  1 29  1  0
  1 30  1  0
  2 31  1  0
  3 32  1  0
  3 33  1  0
  5 34  1  0
  6 35  1  0
  7 36  1  0
  8 37  1  0
 11 38  1  0
 12 39  1  0
 17 40  1  0
 20 41  1  0
 20 42  1  0
 20 43  1  0
 23 44  1  0
 23 45  1  0
 23 46  1  0
 25 47  1  0
 25 48  1  0
 25 49  1  0
 26 50  1  0
 27 51  1  0
M  END
>  <UniqueID>  (26) 
25

>  <SMILES>  (26) 
CNCc1ccccc1-c1ccc(S(=O)(=O)Nc2c(C)nn(C)c2C)cc1

>  <Energy>  (26) 
90.40668353082087

>  <Genealogy>  (26) 
CNCc1ccccc1-c1ccc(S(=O)(=O)Nc2c(C)nn(C)c2C)cc1 (3D coordinates assigned)
CNCc1ccccc1-c1ccc(S(=O)(=O)Nc2c(C)nn(C)c2C)cc1 (optimized conformer: 90.40668353082087 kcal/mol)

>  <smiles>  (26) 
CNCc1ccccc1-c1ccc(S(=O)(=O)Nc2c(C)nn(C)c2C)cc1

>  <score_type>  (26) 
oracle

>  <origin>  (26) 
adgpu

>  <m_score__min__energy>  (26) 
-10.18

>  <m_primary>  (26) 
energy

$$$$
26:0
     RDKit          3D

 53 56  0  0  0  0  0  0  0  0999 V2000
   -5.6080   22.7270  -29.9440 N   0  0  0  0  0  0  0  0  0  0  0  0
   -4.8590   23.3160  -29.2880 C   0  0  0  0  0  0  0  0  0  0  0  0
   -3.9260   24.0480  -28.4720 C   0  0  0  0  0  0  0  0  0  0  0  0
   -4.1840   24.2540  -27.1140 C   0  0  0  0  0  0  0  0  0  0  0  0
   -3.2700   24.9620  -26.3320 C   0  0  0  0  0  0  0  0  0  0  0  0
   -2.1010   25.4720  -26.9230 C   0  0  0  0  0  0  0  0  0  0  0  0
   -1.1230   26.1830  -26.1430 N   0  0  0  0  0  0  0  0  0  0  0  0
   -1.4940   26.9340  -24.9350 C   0  0  0  0  0  0  0  0  0  0  0  0
   -0.6300   26.5060  -23.7330 C   0  0  0  0  0  0  0  0  0  0  0  0
    0.7840   25.9890  -24.1290 C   0  0  0  0  0  0  0  0  0  0  0  0
    0.8000   24.5050  -24.1540 N   0  0  0  0  0  0  0  0  0  0  0  0
    1.3900   23.9540  -25.3860 C   0  0  0  0  0  0  0  0  0  0  0  0
    0.4010   23.0780  -26.0930 C   0  0  0  0  0  0  0  0  0  0  0  0
    0.2860   22.9330  -27.4580 C   0  0  0  0  0  0  0  0  0  0  0  0
   -0.7650   22.1280  -27.6990 N   0  0  0  0  0  0  0  0  0  0  0  0
   -1.2620   21.7050  -28.9860 C   0  0  0  0  0  0  0  0  0  0  0  0
   -2.4780   21.0080  -29.0890 C   0  0  0  0  0  0  0  0  0  0  0  0
   -2.9600   20.5960  -30.3350 C   0  0  0  0  0  0  0  0  0  0  0  0
   -2.2440   20.8880  -31.5080 C   0  0  0  0  0  0  0  0  0  0  0  0
   -2.7380   20.4000  -32.8460 C   0  0  0  0  0  0  0  0  0  0  0  0
   -3.1660   19.0870  -32.7600 F   0  0  0  0  0  0  0  0  0  0  0  0
   -3.7930   21.1930  -33.2580 F   0  0  0  0  0  0  0  0  0  0  0  0
   -1.7300   20.4650  -33.7930 F   0  0  0  0  0  0  0  0  0  0  0  0
   -1.0150   21.5600  -31.4040 C   0  0  0  0  0  0  0  0  0  0  0  0
   -0.5340   21.9730  -30.1590 C   0  0  0  0  0  0  0  0  0  0  0  0
   -1.2630   21.8130  -26.4830 C   0  0  0  0  0  0  0  0  0  0  0  0
   -0.5750   22.3860  -25.4720 N   0  0  0  0  0  0  0  0  0  0  0  0
    1.2240   26.6230  -25.4730 C   0  0  0  0  0  0  0  0  0  0  0  0
    0.2690   26.2360  -26.6120 C   0  0  0  0  0  0  0  0  0  0  0  0
   -1.8690   25.2420  -28.2460 N   0  0  0  0  0  0  0  0  0  0  0  0
   -2.7460   24.5530  -29.0250 C   0  0  0  0  0  0  0  0  0  0  0  0
   -5.1058   23.8588  -26.6622 H   0  0  0  0  0  0  0  0  0  0  0  0
   -3.4631   25.1198  -25.2606 H   0  0  0  0  0  0  0  0  0  0  0  0
   -1.3468   28.0083  -25.1197 H   0  0  0  0  0  0  0  0  0  0  0  0
   -2.5484   26.7246  -24.7016 H   0  0  0  0  0  0  0  0  0  0  0  0
   -0.5085   27.3729  -23.0669 H   0  0  0  0  0  0  0  0  0  0  0  0
   -1.1519   25.6700  -23.2444 H   0  0  0  0  0  0  0  0  0  0  0  0
    1.5205   26.2994  -23.3732 H   0  0  0  0  0  0  0  0  0  0  0  0
    1.3820   24.1740  -23.3470 H   0  0  0  0  0  0  0  0  0  0  0  0
   -0.1660   24.1240  -24.0290 H   0  0  0  0  0  0  0  0  0  0  0  0
    1.6808   24.7814  -26.0500 H   0  0  0  0  0  0  0  0  0  0  0  0
    2.2727   23.3535  -25.1210 H   0  0  0  0  0  0  0  0  0  0  0  0
    0.9371   23.3932  -28.2158 H   0  0  0  0  0  0  0  0  0  0  0  0
   -3.0562   20.7844  -28.1803 H   0  0  0  0  0  0  0  0  0  0  0  0
   -3.9066   20.0392  -30.3974 H   0  0  0  0  0  0  0  0  0  0  0  0
   -0.4261   21.7629  -32.3107 H   0  0  0  0  0  0  0  0  0  0  0  0
    0.4225   22.5125  -30.0957 H   0  0  0  0  0  0  0  0  0  0  0  0
   -2.1353   21.1599  -26.3327 H   0  0  0  0  0  0  0  0  0  0  0  0
    1.2307   27.7179  -25.3675 H   0  0  0  0  0  0  0  0  0  0  0  0
    2.2287   26.2496  -25.7205 H   0  0  0  0  0  0  0  0  0  0  0  0
    0.3486   26.9822  -27.4162 H   0  0  0  0  0  0  0  0  0  0  0  0
    0.5512   25.2384  -26.9796 H   0  0  0  0  0  0  0  0  0  0  0  0
   -2.5262   24.3932  -30.0909 H   0  0  0  0  0  0  0  0  0  0  0  0
  1  2  3  0
  2  3  1  0
  3  4  2  0
  4  5  1  0
  5  6  2  0
  6  7  1  0
  7  8  1  0
  8  9  1  0
  9 10  1  0
 10 11  1  0
 11 12  1  0
 12 13  1  0
 13 14  2  0
 14 15  1  0
 15 16  1  0
 16 17  2  0
 17 18  1  0
 18 19  2  0
 19 20  1  0
 20 21  1  0
 20 22  1  0
 20 23  1  0
 19 24  1  0
 24 25  2  0
 15 26  1  0
 26 27  2  0
 10 28  1  0
 28 29  1  0
  6 30  1  0
 30 31  2  0
 31  3  1  0
 29  7  1  0
 27 13  1  0
 25 16  1  0
  4 32  1  0
  5 33  1  0
  8 34  1  0
  8 35  1  0
  9 36  1  0
  9 37  1  0
 10 38  1  0
 11 39  1  0
 11 40  1  0
 12 41  1  0
 12 42  1  0
 14 43  1  0
 17 44  1  0
 18 45  1  0
 24 46  1  0
 25 47  1  0
 26 48  1  0
 28 49  1  0
 28 50  1  0
 29 51  1  0
 29 52  1  0
 31 53  1  0
M  CHG  1  11   1
M  END
>  <UniqueID>  (27) 
26

>  <SMILES>  (27) 
N#Cc1ccc(N2CCC([NH2+]Cc3cn(-c4ccc(C(F)(F)F)cc4)cn3)CC2)nc1

>  <Energy>  (27) 
96.53791347142771

>  <Genealogy>  (27) 
N#Cc1ccc(N2CCC([NH2+]Cc3cn(-c4ccc(C(F)(F)F)cc4)cn3)CC2)nc1 (protonated)
N#Cc1ccc(N2CCC([NH2+]Cc3cn(-c4ccc(C(F)(F)F)cc4)cn3)CC2)nc1 (3D coordinates assigned)
N#Cc1ccc(N2CCC([NH2+]Cc3cn(-c4ccc(C(F)(F)F)cc4)cn3)CC2)nc1 (nonaromatic ring conformer: 96.53791347142771 kcal/mol)

>  <smiles>  (27) 
N#Cc1ccc(N2CCC(NCc3cn(-c4ccc(C(F)(F)F)cc4)cn3)CC2)nc1

>  <score_type>  (27) 
oracle

>  <origin>  (27) 
adgpu

>  <m_score__min__energy>  (27) 
-7.54

>  <m_primary>  (27) 
energy

$$$$
27:0
     RDKit          3D

 52 55  0  0  0  0  0  0  0  0999 V2000
    1.1870   24.5640  -27.1980 C   0  0  0  0  0  0  0  0  0  0  0  0
    0.7070   24.5470  -28.5390 O   0  0  0  0  0  0  0  0  0  0  0  0
   -0.5650   24.0950  -28.9200 C   0  0  0  0  0  0  0  0  0  0  0  0
   -1.6770   24.8700  -28.5730 C   0  0  0  0  0  0  0  0  0  0  0  0
   -2.9650   24.4570  -28.9210 C   0  0  0  0  0  0  0  0  0  0  0  0
   -3.1540   23.2680  -29.6290 C   0  0  0  0  0  0  0  0  0  0  0  0
   -2.0490   22.4850  -30.0050 C   0  0  0  0  0  0  0  0  0  0  0  0
   -2.2170   21.2440  -30.7110 N   0  0  0  0  0  0  0  0  0  0  0  0
   -1.9310   21.0720  -32.1090 C   0  0  0  0  0  0  0  0  0  0  0  0
   -1.2190   21.9220  -32.7120 O   0  0  0  0  0  0  0  0  0  0  0  0
   -2.4060   19.8720  -32.8380 C   0  0  0  0  0  0  0  0  0  0  0  0
   -1.4970   18.8710  -33.2220 C   0  0  0  0  0  0  0  0  0  0  0  0
   -1.9450   17.7210  -33.8770 C   0  0  0  0  0  0  0  0  0  0  0  0
   -3.3030   17.5530  -34.1490 C   0  0  0  0  0  0  0  0  0  0  0  0
   -4.2230   18.5450  -33.7830 C   0  0  0  0  0  0  0  0  0  0  0  0
   -5.9520   18.3000  -34.0470 S   0  0  0  0  0  0  0  0  0  0  0  0
   -6.1650   17.0180  -34.8040 O   0  0  0  0  0  0  0  0  0  0  0  0
   -6.4900   19.4260  -34.8860 O   0  0  0  0  0  0  0  0  0  0  0  0
   -6.8200   18.2040  -32.5270 N   0  0  0  0  0  0  0  0  0  0  0  0
   -8.2980   18.2850  -32.7160 C   0  0  0  0  0  0  0  0  0  0  0  0
   -9.0090   19.3570  -31.8660 C   0  0  0  0  0  0  0  0  0  0  0  0
   -8.2040   20.6200  -31.8390 C   0  0  0  0  0  0  0  0  0  0  0  0
   -8.7980   21.8860  -31.9560 C   0  0  0  0  0  0  0  0  0  0  0  0
   -8.0030   23.0350  -31.9050 C   0  0  0  0  0  0  0  0  0  0  0  0
   -6.6210   22.9250  -31.7100 C   0  0  0  0  0  0  0  0  0  0  0  0
   -6.0320   21.6650  -31.5690 C   0  0  0  0  0  0  0  0  0  0  0  0
   -6.8250   20.5100  -31.6480 C   0  0  0  0  0  0  0  0  0  0  0  0
   -6.2410   19.1290  -31.5250 C   0  0  0  0  0  0  0  0  0  0  0  0
   -3.7680   19.7090  -33.1490 C   0  0  0  0  0  0  0  0  0  0  0  0
   -0.7580   22.8950  -29.6330 C   0  0  0  0  0  0  0  0  0  0  0  0
    0.3348   24.5338  -26.5031 H   0  0  0  0  0  0  0  0  0  0  0  0
    1.8302   23.6881  -27.0277 H   0  0  0  0  0  0  0  0  0  0  0  0
    1.7666   25.4832  -27.0277 H   0  0  0  0  0  0  0  0  0  0  0  0
   -1.5358   25.8115  -28.0220 H   0  0  0  0  0  0  0  0  0  0  0  0
   -3.8330   25.0699  -28.6367 H   0  0  0  0  0  0  0  0  0  0  0  0
   -4.1712   22.9432  -29.8933 H   0  0  0  0  0  0  0  0  0  0  0  0
   -2.4370   20.3940  -30.1440 H   0  0  0  0  0  0  0  0  0  0  0  0
   -0.4256   18.9939  -33.0054 H   0  0  0  0  0  0  0  0  0  0  0  0
   -1.2251   16.9461  -34.1790 H   0  0  0  0  0  0  0  0  0  0  0  0
   -3.6527   16.6394  -34.6521 H   0  0  0  0  0  0  0  0  0  0  0  0
   -8.4943   18.5051  -33.7757 H   0  0  0  0  0  0  0  0  0  0  0  0
   -8.7021   17.3162  -32.3872 H   0  0  0  0  0  0  0  0  0  0  0  0
   -9.9978   19.5666  -32.2999 H   0  0  0  0  0  0  0  0  0  0  0  0
   -9.1194   18.9820  -30.8378 H   0  0  0  0  0  0  0  0  0  0  0  0
   -9.8865   21.9742  -32.0875 H   0  0  0  0  0  0  0  0  0  0  0  0
   -8.4642   24.0272  -32.0183 H   0  0  0  0  0  0  0  0  0  0  0  0
   -5.9981   23.8307  -31.6677 H   0  0  0  0  0  0  0  0  0  0  0  0
   -4.9490   21.5791  -31.3965 H   0  0  0  0  0  0  0  0  0  0  0  0
   -5.1531   19.1860  -31.6776 H   0  0  0  0  0  0  0  0  0  0  0  0
   -6.4758   18.7428  -30.5222 H   0  0  0  0  0  0  0  0  0  0  0  0
   -4.4837   20.5037  -32.8918 H   0  0  0  0  0  0  0  0  0  0  0  0
    0.1097   22.2740  -29.9005 H   0  0  0  0  0  0  0  0  0  0  0  0
  1  2  1  0
  2  3  1  0
  3  4  2  0
  4  5  1  0
  5  6  2  0
  6  7  1  0
  7  8  1  0
  8  9  1  0
  9 10  2  0
  9 11  1  0
 11 12  2  0
 12 13  1  0
 13 14  2  0
 14 15  1  0
 15 16  1  0
 16 17  2  0
 16 18  2  0
 16 19  1  0
 19 20  1  0
 20 21  1  0
 21 22  1  0
 22 23  2  0
 23 24  1  0
 24 25  2  0
 25 26  1  0
 26 27  2  0
 27 28  1  0
 15 29  2  0
  7 30  2  0
 30  3  1  0
 29 11  1  0
 28 19  1  0
 27 22  1  0
  1 31  1  0
  1 32  1  0
  1 33  1  0
  4 34  1  0
  5 35  1  0
  6 36  1  0
  8 37  1  0
 12 38  1  0
 13 39  1  0
 14 40  1  0
 20 41  1  0
 20 42  1  0
 21 43  1  0
 21 44  1  0
 23 45  1  0
 24 46  1  0
 25 47  1  0
 26 48  1  0
 28 49  1  0
 28 50  1  0
 29 51  1  0
 30 52  1  0
M  END
>  <UniqueID>  (28) 
27

>  <SMILES>  (28) 
COc1cccc(NC(=O)c2cccc(S(=O)(=O)N3CCc4ccccc4C3)c2)c1

>  <Energy>  (28) 
65.96007376874239

>  <Genealogy>  (28) 
COc1cccc(NC(=O)c2cccc(S(=O)(=O)N3CCc4ccccc4C3)c2)c1 (3D coordinates assigned)
COc1cccc(NC(=O)c2cccc(S(=O)(=O)N3CCc4ccccc4C3)c2)c1 (nonaromatic ring conformer: 65.96007376874239 kcal/mol)

>  <smiles>  (28) 
COc1cccc(NC(=O)c2cccc(S(=O)(=O)N3CCc4ccccc4C3)c2)c1

>  <score_type>  (28) 
oracle

>  <origin>  (28) 
adgpu

>  <m_score__min__energy>  (28) 
-10.91

>  <m_primary>  (28) 
energy

$$$$
28:0
     RDKit          3D

 40 41  0  0  0  0  0  0  0  0999 V2000
   -6.6480   16.2510  -33.8220 C   0  0  0  0  0  0  0  0  0  0  0  0
   -7.0750   17.4170  -32.9330 C   0  0  0  0  0  0  0  0  0  0  0  0
   -6.2760   18.6180  -33.2220 N   0  0  0  0  0  0  0  0  0  0  0  0
   -5.2040   18.5190  -34.2210 C   0  0  0  0  0  0  0  0  0  0  0  0
   -6.5470   19.8850  -32.5670 C   0  0  0  0  0  0  0  0  0  0  0  0
   -7.8430   20.4340  -32.5610 C   0  0  0  0  0  0  0  0  0  0  0  0
   -8.1080   21.6590  -31.9320 C   0  0  0  0  0  0  0  0  0  0  0  0
   -9.4940   22.2410  -31.9680 C   0  0  0  0  0  0  0  0  0  0  0  0
   -7.0610   22.3630  -31.3140 C   0  0  0  0  0  0  0  0  0  0  0  0
   -7.3130   23.6070  -30.7390 O   0  0  0  0  0  0  0  0  0  0  0  0
   -5.7600   21.8270  -31.2970 C   0  0  0  0  0  0  0  0  0  0  0  0
   -4.6440   22.5420  -30.6320 C   0  0  0  0  0  0  0  0  0  0  0  0
   -4.8870   23.3740  -29.5250 C   0  0  0  0  0  0  0  0  0  0  0  0
   -3.8310   24.0380  -28.8940 C   0  0  0  0  0  0  0  0  0  0  0  0
   -2.5190   23.8790  -29.3590 C   0  0  0  0  0  0  0  0  0  0  0  0
   -1.1890   24.7040  -28.5520 S   0  0  0  0  0  0  0  0  0  0  0  0
   -1.2120   26.3800  -28.9680 N   0  0  0  0  0  0  0  0  0  0  0  0
    0.1190   24.0980  -28.9790 O   0  0  0  0  0  0  0  0  0  0  0  0
   -1.3250   24.5550  -27.0630 O   0  0  0  0  0  0  0  0  0  0  0  0
   -2.2700   23.0390  -30.4520 C   0  0  0  0  0  0  0  0  0  0  0  0
   -3.3240   22.3740  -31.0850 C   0  0  0  0  0  0  0  0  0  0  0  0
   -5.5150   20.5960  -31.9280 C   0  0  0  0  0  0  0  0  0  0  0  0
   -6.3379   15.4041  -33.1922 H   0  0  0  0  0  0  0  0  0  0  0  0
   -7.4927   15.9456  -34.4571 H   0  0  0  0  0  0  0  0  0  0  0  0
   -5.8059   16.5633  -34.4571 H   0  0  0  0  0  0  0  0  0  0  0  0
   -8.1369   17.6386  -33.1151 H   0  0  0  0  0  0  0  0  0  0  0  0
   -6.9162   17.1339  -31.8820 H   0  0  0  0  0  0  0  0  0  0  0  0
   -4.2339   18.4294  -33.7102 H   0  0  0  0  0  0  0  0  0  0  0  0
   -5.3702   17.6324  -34.8505 H   0  0  0  0  0  0  0  0  0  0  0  0
   -5.2050   19.4211  -34.8505 H   0  0  0  0  0  0  0  0  0  0  0  0
   -8.6617   19.8931  -33.0581 H   0  0  0  0  0  0  0  0  0  0  0  0
   -9.8549   22.3925  -30.9400 H   0  0  0  0  0  0  0  0  0  0  0  0
   -9.4728   23.2062  -32.4952 H   0  0  0  0  0  0  0  0  0  0  0  0
  -10.1683   21.5500  -32.4952 H   0  0  0  0  0  0  0  0  0  0  0  0
   -5.9142   23.5032  -29.1532 H   0  0  0  0  0  0  0  0  0  0  0  0
   -4.0309   24.6877  -28.0292 H   0  0  0  0  0  0  0  0  0  0  0  0
   -0.8690   26.4550  -29.9520 H   0  0  0  0  0  0  0  0  0  0  0  0
   -1.2403   22.9021  -30.8138 H   0  0  0  0  0  0  0  0  0  0  0  0
   -3.1194   21.7157  -31.9422 H   0  0  0  0  0  0  0  0  0  0  0  0
   -4.4967   20.1801  -31.9223 H   0  0  0  0  0  0  0  0  0  0  0  0
  1  2  1  0
  2  3  1  0
  3  4  1  0
  3  5  1  0
  5  6  2  0
  6  7  1  0
  7  8  1  0
  7  9  2  0
  9 10  1  0
  9 11  1  0
 11 12  1  0
 12 13  2  0
 13 14  1  0
 14 15  2  0
 15 16  1  0
 16 17  1  0
 16 18  2  0
 16 19  2  0
 15 20  1  0
 20 21  2  0
 11 22  2  0
 22  5  1  0
 21 12  1  0
  1 23  1  0
  1 24  1  0
  1 25  1  0
  2 26  1  0
  2 27  1  0
  4 28  1  0
  4 29  1  0
  4 30  1  0
  6 31  1  0
  8 32  1  0
  8 33  1  0
  8 34  1  0
 13 35  1  0
 14 36  1  0
 17 37  1  0
 20 38  1  0
 21 39  1  0
 22 40  1  0
M  CHG  2  10  -1  17  -1
M  END
>  <UniqueID>  (29) 
28

>  <SMILES>  (29) 
CCN(C)c1cc(C)c([O-])c(-c2ccc(S([NH-])(=O)=O)cc2)c1

>  <Energy>  (29) 
46.15391454439222

>  <Genealogy>  (29) 
CCN(C)c1cc(C)c([O-])c(-c2ccc(S([NH-])(=O)=O)cc2)c1 (protonated)
CCN(C)c1cc(C)c([O-])c(-c2ccc(S([NH-])(=O)=O)cc2)c1 (3D coordinates assigned)
CCN(C)c1cc(C)c([O-])c(-c2ccc(S([NH-])(=O)=O)cc2)c1 (optimized conformer: 46.15391454439222 kcal/mol)

>  <smiles>  (29) 
CCN(C)c1cc(C)c(O)c(-c2ccc(S(N)(=O)=O)cc2)c1

>  <score_type>  (29) 
oracle

>  <origin>  (29) 
adgpu

>  <m_score__min__energy>  (29) 
-9.9499999999999993

>  <m_primary>  (29) 
energy

$$$$
29:0
     RDKit          3D

 45 47  0  0  0  0  0  0  0  0999 V2000
   -0.9610   18.7810  -32.6800 C   0  0  0  0  0  0  0  0  0  0  0  0
   -1.7660   17.9580  -33.6260 C   0  0  0  0  0  0  0  0  0  0  0  0
   -3.0420   17.4830  -33.4100 C   0  0  0  0  0  0  0  0  0  0  0  0
   -3.3010   16.7640  -34.5640 C   0  0  0  0  0  0  0  0  0  0  0  0
   -4.3880   16.1140  -34.8480 N   0  0  0  0  0  0  0  0  0  0  0  0
   -5.7690   16.0080  -33.8020 S   0  0  0  0  0  0  0  0  0  0  0  0
   -5.3740   15.3120  -32.5300 O   0  0  0  0  0  0  0  0  0  0  0  0
   -6.8430   15.2060  -34.4820 O   0  0  0  0  0  0  0  0  0  0  0  0
   -6.3460   17.6260  -33.4100 C   0  0  0  0  0  0  0  0  0  0  0  0
   -7.2830   17.7980  -32.3850 C   0  0  0  0  0  0  0  0  0  0  0  0
   -7.7320   19.0780  -32.0470 C   0  0  0  0  0  0  0  0  0  0  0  0
   -7.2500   20.2040  -32.7390 C   0  0  0  0  0  0  0  0  0  0  0  0
   -7.6670   21.5340  -32.3870 N   0  0  0  0  0  0  0  0  0  0  0  0
   -6.8930   22.4200  -31.5660 C   0  0  0  0  0  0  0  0  0  0  0  0
   -7.2950   24.0110  -31.5320 S   0  0  0  0  0  0  0  0  0  0  0  0
   -6.0100   21.8820  -30.5660 N   0  0  0  0  0  0  0  0  0  0  0  0
   -4.8580   22.5680  -30.0470 C   0  0  0  0  0  0  0  0  0  0  0  0
   -4.9720   23.5150  -29.0140 C   0  0  0  0  0  0  0  0  0  0  0  0
   -3.8410   24.1850  -28.5410 C   0  0  0  0  0  0  0  0  0  0  0  0
   -2.5830   23.9300  -29.1050 C   0  0  0  0  0  0  0  0  0  0  0  0
   -1.1510   24.7510  -28.4930 S   0  0  0  0  0  0  0  0  0  0  0  0
   -1.1980   26.4150  -28.9570 N   0  0  0  0  0  0  0  0  0  0  0  0
    0.0880   24.1110  -29.0540 O   0  0  0  0  0  0  0  0  0  0  0  0
   -1.1070   24.6480  -26.9930 O   0  0  0  0  0  0  0  0  0  0  0  0
   -2.4680   23.0030  -30.1480 C   0  0  0  0  0  0  0  0  0  0  0  0
   -3.6010   22.3340  -30.6230 C   0  0  0  0  0  0  0  0  0  0  0  0
   -6.2980   20.0270  -33.7540 C   0  0  0  0  0  0  0  0  0  0  0  0
   -5.8560   18.7450  -34.0960 C   0  0  0  0  0  0  0  0  0  0  0  0
   -2.2430   16.8140  -35.3930 N   0  0  0  0  0  0  0  0  0  0  0  0
   -1.3400   17.5370  -34.7960 O   0  0  0  0  0  0  0  0  0  0  0  0
   -1.2233   18.5128  -31.6459 H   0  0  0  0  0  0  0  0  0  0  0  0
    0.1094   18.5908  -32.8478 H   0  0  0  0  0  0  0  0  0  0  0  0
   -1.1748   19.8469  -32.8478 H   0  0  0  0  0  0  0  0  0  0  0  0
   -3.6930   17.6372  -32.5369 H   0  0  0  0  0  0  0  0  0  0  0  0
   -7.6681   16.9219  -31.8427 H   0  0  0  0  0  0  0  0  0  0  0  0
   -8.4651   19.2052  -31.2368 H   0  0  0  0  0  0  0  0  0  0  0  0
   -8.5940   21.8660  -32.7390 H   0  0  0  0  0  0  0  0  0  0  0  0
   -6.2380   20.9390  -30.1770 H   0  0  0  0  0  0  0  0  0  0  0  0
   -5.9577   23.7297  -28.5756 H   0  0  0  0  0  0  0  0  0  0  0  0
   -3.9378   24.9148  -27.7236 H   0  0  0  0  0  0  0  0  0  0  0  0
   -0.8830   26.4630  -29.9510 H   0  0  0  0  0  0  0  0  0  0  0  0
   -1.4837   22.8002  -30.5953 H   0  0  0  0  0  0  0  0  0  0  0  0
   -3.5053   21.6196  -31.4539 H   0  0  0  0  0  0  0  0  0  0  0  0
   -5.8963   20.9028  -34.2847 H   0  0  0  0  0  0  0  0  0  0  0  0
   -5.1222   18.6150  -34.9051 H   0  0  0  0  0  0  0  0  0  0  0  0
  1  2  1  0
  2  3  2  0
  3  4  1  0
  4  5  2  3
  5  6  1  0
  6  7  2  0
  6  8  2  0
  6  9  1  0
  9 10  2  0
 10 11  1  0
 11 12  2  0
 12 13  1  0
 13 14  1  0
 14 15  2  0
 14 16  1  0
 16 17  1  0
 17 18  2  0
 18 19  1  0
 19 20  2  0
 20 21  1  0
 21 22  1  0
 21 23  2  0
 21 24  2  0
 20 25  1  0
 25 26  2  0
 12 27  1  0
 27 28  2  0
  4 29  1  0
 29 30  1  0
 30  2  1  0
 28  9  1  0
 26 17  1  0
  1 31  1  0
  1 32  1  0
  1 33  1  0
  3 34  1  0
 10 35  1  0
 11 36  1  0
 13 37  1  0
 16 38  1  0
 18 39  1  0
 19 40  1  0
 22 41  1  0
 25 42  1  0
 26 43  1  0
 27 44  1  0
 28 45  1  0
M  CHG  2  22  -1  29  -1
M  END
>  <UniqueID>  (30) 
29

>  <SMILES>  (30) 
Cc1cc(=NS(=O)(=O)c2ccc(NC(=S)Nc3ccc(S([NH-])(=O)=O)cc3)cc2)[n-]o1

>  <Energy>  (30) 
87.79646749092095

>  <Genealogy>  (30) 
Cc1cc(=NS(=O)(=O)c2ccc(NC(=S)Nc3ccc(S([NH-])(=O)=O)cc3)cc2)[n-]o1 (protonated)
Cc1cc(=NS(=O)(=O)c2ccc(NC(=S)Nc3ccc(S([NH-])(=O)=O)cc3)cc2)[n-]o1 (3D coordinates assigned)
Cc1cc(=NS(=O)(=O)c2ccc(NC(=S)Nc3ccc(S([NH-])(=O)=O)cc3)cc2)[n-]o1 (optimized conformer: 87.79646749092095 kcal/mol)

>  <smiles>  (30) 
Cc1cc(=NS(=O)(=O)c2ccc(NC(=S)Nc3ccc(S(N)(=O)=O)cc3)cc2)[nH]o1

>  <score_type>  (30) 
oracle

>  <origin>  (30) 
adgpu

>  <m_score__min__energy>  (30) 
-10.66

>  <m_primary>  (30) 
energy

$$$$
30:0
     RDKit          3D

 54 56  0  0  0  0  0  0  0  0999 V2000
    0.6280   19.4710  -36.0460 C   0  0  0  0  0  0  0  0  0  0  0  0
   -0.0650   18.1810  -35.6270 C   0  0  0  0  0  0  0  0  0  0  0  0
   -0.5140   18.2610  -34.2310 N   0  0  0  0  0  0  0  0  0  0  0  0
    0.2600   17.5700  -33.1850 C   0  0  0  0  0  0  0  0  0  0  0  0
   -0.4630   17.6070  -31.8420 C   0  0  0  0  0  0  0  0  0  0  0  0
   -1.4840   19.2630  -33.8620 C   0  0  0  0  0  0  0  0  0  0  0  0
   -1.0370   20.5400  -33.4890 C   0  0  0  0  0  0  0  0  0  0  0  0
   -1.9440   21.5300  -33.1130 C   0  0  0  0  0  0  0  0  0  0  0  0
   -3.3190   21.2740  -33.1220 C   0  0  0  0  0  0  0  0  0  0  0  0
   -4.2290   22.3010  -32.6920 N   0  0  0  0  0  0  0  0  0  0  0  0
   -4.7390   22.4110  -31.3550 C   0  0  0  0  0  0  0  0  0  0  0  0
   -4.7410   21.4110  -30.5880 O   0  0  0  0  0  0  0  0  0  0  0  0
   -5.2860   23.6900  -30.8830 C   0  0  0  0  0  0  0  0  0  0  0  0
   -6.5050   23.8740  -30.2600 C   0  0  0  0  0  0  0  0  0  0  0  0
   -6.5840   25.2230  -29.9880 C   0  0  0  0  0  0  0  0  0  0  0  0
   -5.4140   25.7770  -30.4610 C   0  0  0  0  0  0  0  0  0  0  0  0
   -4.6610   24.8400  -30.9890 O   0  0  0  0  0  0  0  0  0  0  0  0
   -3.7760   20.0000  -33.4900 C   0  0  0  0  0  0  0  0  0  0  0  0
   -2.8730   18.9890  -33.8610 C   0  0  0  0  0  0  0  0  0  0  0  0
   -3.5410   17.4080  -34.3050 S   0  0  0  0  0  0  0  0  0  0  0  0
   -2.6840   16.7980  -35.3810 O   0  0  0  0  0  0  0  0  0  0  0  0
   -3.5770   16.4910  -33.1150 O   0  0  0  0  0  0  0  0  0  0  0  0
   -5.1600   17.6170  -34.9000 N   0  0  0  0  0  0  0  0  0  0  0  0
   -6.1110   17.0540  -33.9460 C   0  0  0  0  0  0  0  0  0  0  0  0
   -6.8540   18.1740  -33.2710 C   0  0  0  0  0  0  0  0  0  0  0  0
   -7.7220   17.8950  -32.2040 C   0  0  0  0  0  0  0  0  0  0  0  0
   -8.4070   18.9310  -31.5640 C   0  0  0  0  0  0  0  0  0  0  0  0
   -8.2330   20.2520  -31.9890 C   0  0  0  0  0  0  0  0  0  0  0  0
   -9.0900   21.5510  -31.1810 Cl  0  0  0  0  0  0  0  0  0  0  0  0
   -7.3790   20.5360  -33.0600 C   0  0  0  0  0  0  0  0  0  0  0  0
   -6.6990   19.5000  -33.7070 C   0  0  0  0  0  0  0  0  0  0  0  0
    0.9298   20.0329  -35.1498 H   0  0  0  0  0  0  0  0  0  0  0  0
    1.5185   19.2308  -36.6454 H   0  0  0  0  0  0  0  0  0  0  0  0
   -0.0639   20.0809  -36.6454 H   0  0  0  0  0  0  0  0  0  0  0  0
   -0.9361   18.0118  -36.2771 H   0  0  0  0  0  0  0  0  0  0  0  0
    0.6494   17.3499  -35.7209 H   0  0  0  0  0  0  0  0  0  0  0  0
    0.4081   16.5216  -33.4830 H   0  0  0  0  0  0  0  0  0  0  0  0
    1.2261   18.0839  -33.0725 H   0  0  0  0  0  0  0  0  0  0  0  0
    0.2750   17.5692  -31.0271 H   0  0  0  0  0  0  0  0  0  0  0  0
   -1.0467   18.5362  -31.7653 H   0  0  0  0  0  0  0  0  0  0  0  0
   -1.1385   16.7423  -31.7653 H   0  0  0  0  0  0  0  0  0  0  0  0
    0.0403   20.7622  -33.4933 H   0  0  0  0  0  0  0  0  0  0  0  0
   -1.5753   22.5201  -32.8069 H   0  0  0  0  0  0  0  0  0  0  0  0
   -4.5870   22.9730  -33.4080 H   0  0  0  0  0  0  0  0  0  0  0  0
   -7.2562   23.1044  -30.0290 H   0  0  0  0  0  0  0  0  0  0  0  0
   -7.4130   25.7505  -29.4936 H   0  0  0  0  0  0  0  0  0  0  0  0
   -5.1507   26.8435  -30.4046 H   0  0  0  0  0  0  0  0  0  0  0  0
   -4.8556   19.7893  -33.4882 H   0  0  0  0  0  0  0  0  0  0  0  0
   -6.8244   16.4059  -34.4762 H   0  0  0  0  0  0  0  0  0  0  0  0
   -5.5722   16.4604  -33.1928 H   0  0  0  0  0  0  0  0  0  0  0  0
   -7.8636   16.8565  -31.8702 H   0  0  0  0  0  0  0  0  0  0  0  0
   -9.0833   18.7076  -30.7257 H   0  0  0  0  0  0  0  0  0  0  0  0
   -7.2424   21.5753  -33.3933 H   0  0  0  0  0  0  0  0  0  0  0  0
   -6.0410   19.7239  -34.5596 H   0  0  0  0  0  0  0  0  0  0  0  0
  1  2  1  0
  2  3  1  0
  3  4  1  0
  4  5  1  0
  3  6  1  0
  6  7  2  0
  7  8  1  0
  8  9  2  0
  9 10  1  0
 10 11  1  0
 11 12  2  0
 11 13  1  0
 13 14  2  0
 14 15  1  0
 15 16  2  0
 16 17  1  0
  9 18  1  0
 18 19  2  0
 19 20  1  0
 20 21  2  0
 20 22  2  0
 20 23  1  0
 23 24  1  0
 24 25  1  0
 25 26  2  0
 26 27  1  0
 27 28  2  0
 28 29  1  0
 28 30  1  0
 30 31  2  0
 19  6  1  0
 31 25  1  0
 17 13  1  0
  1 32  1  0
  1 33  1  0
  1 34  1  0
  2 35  1  0
  2 36  1  0
  4 37  1  0
  4 38  1  0
  5 39  1  0
  5 40  1  0
  5 41  1  0
  7 42  1  0
  8 43  1  0
 10 44  1  0
 14 45  1  0
 15 46  1  0
 16 47  1  0
 18 48  1  0
 24 49  1  0
 24 50  1  0
 26 51  1  0
 27 52  1  0
 30 53  1  0
 31 54  1  0
M  CHG  1  23  -1
M  END
>  <UniqueID>  (31) 
30

>  <SMILES>  (31) 
CCN(CC)c1ccc(NC(=O)c2ccco2)cc1S(=O)(=O)[N-]Cc1ccc(Cl)cc1

>  <Energy>  (31) 
82.51758233236872

>  <Genealogy>  (31) 
CCN(CC)c1ccc(NC(=O)c2ccco2)cc1S(=O)(=O)[N-]Cc1ccc(Cl)cc1 (protonated)
CCN(CC)c1ccc(NC(=O)c2ccco2)cc1S(=O)(=O)[N-]Cc1ccc(Cl)cc1 (3D coordinates assigned)
CCN(CC)c1ccc(NC(=O)c2ccco2)cc1S(=O)(=O)[N-]Cc1ccc(Cl)cc1 (optimized conformer: 82.51758233236872 kcal/mol)

>  <smiles>  (31) 
CCN(CC)c1ccc(NC(=O)c2ccco2)cc1S(=O)(=O)NCc1ccc(Cl)cc1

>  <score_type>  (31) 
oracle

>  <origin>  (31) 
adgpu

>  <m_score__min__energy>  (31) 
-10.119999999999999

>  <m_primary>  (31) 
energy

$$$$
31:0
     RDKit          3D

 69 74  0  0  0  0  0  0  0  0999 V2000
    5.0270   20.0270  -35.5060 C   0  0  0  0  0  0  0  0  0  0  0  0
    3.7900   20.1510  -36.1990 O   0  0  0  0  0  0  0  0  0  0  0  0
    2.5690   20.4850  -35.5920 C   0  0  0  0  0  0  0  0  0  0  0  0
    1.9820   21.7140  -35.9070 C   0  0  0  0  0  0  0  0  0  0  0  0
    0.7640   22.0920  -35.3300 C   0  0  0  0  0  0  0  0  0  0  0  0
    0.0990   21.2220  -34.4460 C   0  0  0  0  0  0  0  0  0  0  0  0
   -1.1500   21.5670  -33.8180 N   0  0  0  0  0  0  0  0  0  0  0  0
   -1.4240   21.5520  -32.5450 C   0  0  0  0  0  0  0  0  0  0  0  0
   -2.6750   21.8910  -32.1360 N   0  0  0  0  0  0  0  0  0  0  0  0
   -3.0080   21.9170  -30.8170 C   0  0  0  0  0  0  0  0  0  0  0  0
   -4.3570   22.3600  -30.4130 C   0  0  0  0  0  0  0  0  0  0  0  0
   -4.6760   23.3350  -29.4670 C   0  0  0  0  0  0  0  0  0  0  0  0
   -3.7490   24.0760  -28.5810 C   0  0  0  0  0  0  0  0  0  0  0  0
   -2.5020   24.5290  -29.0430 C   0  0  0  0  0  0  0  0  0  0  0  0
   -1.6460   25.2340  -28.1940 C   0  0  0  0  0  0  0  0  0  0  0  0
   -2.0080   25.4700  -26.8620 C   0  0  0  0  0  0  0  0  0  0  0  0
   -0.9370   26.3900  -25.8090 S   0  0  0  0  0  0  0  0  0  0  0  0
   -1.2010   25.9770  -24.3870 O   0  0  0  0  0  0  0  0  0  0  0  0
   -1.2450   27.8560  -25.9390 O   0  0  0  0  0  0  0  0  0  0  0  0
    0.7390   26.0680  -26.2070 N   0  0  0  0  0  0  0  0  0  0  0  0
    1.6620   27.0130  -25.5500 C   0  0  0  0  0  0  0  0  0  0  0  0
    1.8550   26.7120  -24.0460 C   0  0  0  0  0  0  0  0  0  0  0  0
    1.8050   25.2710  -23.7190 N   0  0  0  0  0  0  0  0  0  0  0  0
    2.1210   24.4240  -24.8730 C   0  0  0  0  0  0  0  0  0  0  0  0
    1.1000   24.6450  -26.0060 C   0  0  0  0  0  0  0  0  0  0  0  0
   -3.2360   24.9900  -26.3860 C   0  0  0  0  0  0  0  0  0  0  0  0
   -4.1000   24.2960  -27.2390 C   0  0  0  0  0  0  0  0  0  0  0  0
   -6.0190   23.5180  -29.4370 N   0  0  0  0  0  0  0  0  0  0  0  0
   -6.4820   22.6500  -30.3570 C   0  0  0  0  0  0  0  0  0  0  0  0
   -7.8200   22.4740  -30.7000 C   0  0  0  0  0  0  0  0  0  0  0  0
   -8.1190   21.5460  -31.7100 C   0  0  0  0  0  0  0  0  0  0  0  0
   -7.0870   20.8430  -32.3660 C   0  0  0  0  0  0  0  0  0  0  0  0
   -7.4150   19.8420  -33.4340 C   0  0  0  0  0  0  0  0  0  0  0  0
   -5.7550   21.0550  -31.9660 C   0  0  0  0  0  0  0  0  0  0  0  0
   -5.5120   21.9430  -30.9640 N   0  0  0  0  0  0  0  0  0  0  0  0
   -2.0410   21.6000  -29.8580 C   0  0  0  0  0  0  0  0  0  0  0  0
   -0.7590   21.2710  -30.2880 C   0  0  0  0  0  0  0  0  0  0  0  0
   -0.4730   21.2580  -31.6150 N   0  0  0  0  0  0  0  0  0  0  0  0
    0.7010   20.0040  -34.1090 C   0  0  0  0  0  0  0  0  0  0  0  0
    1.9230   19.6310  -34.6780 C   0  0  0  0  0  0  0  0  0  0  0  0
    4.8432   20.0454  -34.4216 H   0  0  0  0  0  0  0  0  0  0  0  0
    5.5073   19.0762  -35.7804 H   0  0  0  0  0  0  0  0  0  0  0  0
    5.6865   20.8635  -35.7804 H   0  0  0  0  0  0  0  0  0  0  0  0
    2.4822   22.3908  -36.6154 H   0  0  0  0  0  0  0  0  0  0  0  0
    0.3252   23.0722  -35.5683 H   0  0  0  0  0  0  0  0  0  0  0  0
   -2.1977   24.3270  -30.0806 H   0  0  0  0  0  0  0  0  0  0  0  0
   -0.6828   25.6057  -28.5735 H   0  0  0  0  0  0  0  0  0  0  0  0
    2.6405   26.9533  -26.0490 H   0  0  0  0  0  0  0  0  0  0  0  0
    1.2228   28.0180  -25.6335 H   0  0  0  0  0  0  0  0  0  0  0  0
    2.8344   27.1051  -23.7357 H   0  0  0  0  0  0  0  0  0  0  0  0
    1.0224   27.1929  -23.5116 H   0  0  0  0  0  0  0  0  0  0  0  0
    0.8540   25.0180  -23.3600 H   0  0  0  0  0  0  0  0  0  0  0  0
    2.4900   25.0670  -22.9530 H   0  0  0  0  0  0  0  0  0  0  0  0
    3.1274   24.6741  -25.2398 H   0  0  0  0  0  0  0  0  0  0  0  0
    2.0801   23.3702  -24.5603 H   0  0  0  0  0  0  0  0  0  0  0  0
    1.5298   24.2592  -26.9422 H   0  0  0  0  0  0  0  0  0  0  0  0
    0.1795   24.1149  -25.7200 H   0  0  0  0  0  0  0  0  0  0  0  0
   -3.5212   25.1599  -25.3373 H   0  0  0  0  0  0  0  0  0  0  0  0
   -5.0604   23.9201  -26.8565 H   0  0  0  0  0  0  0  0  0  0  0  0
   -8.6157   23.0428  -30.1967 H   0  0  0  0  0  0  0  0  0  0  0  0
   -9.1668   21.3656  -31.9922 H   0  0  0  0  0  0  0  0  0  0  0  0
   -7.7251   18.8957  -32.9668 H   0  0  0  0  0  0  0  0  0  0  0  0
   -8.2337   20.2278  -34.0592 H   0  0  0  0  0  0  0  0  0  0  0  0
   -6.5267   19.6685  -34.0592 H   0  0  0  0  0  0  0  0  0  0  0  0
   -4.9289   20.5153  -32.4521 H   0  0  0  0  0  0  0  0  0  0  0  0
   -2.2884   21.6105  -28.7862 H   0  0  0  0  0  0  0  0  0  0  0  0
    0.0213   21.0219  -29.5538 H   0  0  0  0  0  0  0  0  0  0  0  0
    0.2081   19.3336  -33.3896 H   0  0  0  0  0  0  0  0  0  0  0  0
    2.3808   18.6672  -34.4105 H   0  0  0  0  0  0  0  0  0  0  0  0
  1  2  1  0
  2  3  1  0
  3  4  2  0
  4  5  1  0
  5  6  2  0
  6  7  1  0
  7  8  2  3
  8  9  1  0
  9 10  2  0
 10 11  1  0
 11 12  2  0
 12 13  1  0
 13 14  2  0
 14 15  1  0
 15 16  2  0
 16 17  1  0
 17 18  2  0
 17 19  2  0
 17 20  1  0
 20 21  1  0
 21 22  1  0
 22 23  1  0
 23 24  1  0
 24 25  1  0
 16 26  1  0
 26 27  2  0
 12 28  1  0
 28 29  2  0
 29 30  1  0
 30 31  2  0
 31 32  1  0
 32 33  1  0
 32 34  2  0
 34 35  1  0
 10 36  1  0
 36 37  2  0
 37 38  1  0
  6 39  1  0
 39 40  2  0
 40  3  1  0
 38  8  1  0
 35 11  1  0
 27 13  1  0
 35 29  1  0
 25 20  1  0
  1 41  1  0
  1 42  1  0
  1 43  1  0
  4 44  1  0
  5 45  1  0
 14 46  1  0
 15 47  1  0
 21 48  1  0
 21 49  1  0
 22 50  1  0
 22 51  1  0
 23 52  1  0
 23 53  1  0
 24 54  1  0
 24 55  1  0
 25 56  1  0
 25 57  1  0
 26 58  1  0
 27 59  1  0
 30 60  1  0
 31 61  1  0
 33 62  1  0
 33 63  1  0
 33 64  1  0
 34 65  1  0
 36 66  1  0
 37 67  1  0
 39 68  1  0
 40 69  1  0
M  CHG  2  23   1  38  -1
M  END
>  <UniqueID>  (32) 
31

>  <SMILES>  (32) 
COc1ccc(N=c2nc(-c3c(-c4ccc(S(=O)(=O)N5CC[NH2+]CC5)cc4)nc4ccc(C)cn34)cc[n-]2)cc1

>  <Energy>  (32) 
135.06160743990512

>  <Genealogy>  (32) 
COc1ccc(N=c2nc(-c3c(-c4ccc(S(=O)(=O)N5CC[NH2+]CC5)cc4)nc4ccc(C)cn34)cc[n-]2)cc1 (protonated)
COc1ccc(N=c2nc(-c3c(-c4ccc(S(=O)(=O)N5CC[NH2+]CC5)cc4)nc4ccc(C)cn34)cc[n-]2)cc1 (3D coordinates assigned)
COc1ccc(N=c2nc(-c3c(-c4ccc(S(=O)(=O)N5CC[NH2+]CC5)cc4)nc4ccc(C)cn34)cc[n-]2)cc1 (nonaromatic ring conformer: 135.06160743990512 kcal/mol)

>  <smiles>  (32) 
COc1ccc(N=c2nc(-c3c(-c4ccc(S(=O)(=O)N5CCNCC5)cc4)nc4ccc(C)cn34)cc[nH]2)cc1

>  <score_type>  (32) 
oracle

>  <origin>  (32) 
adgpu

>  <m_score__min__energy>  (32) 
-10.99

>  <m_primary>  (32) 
energy

$$$$
32:0
     RDKit          3D

 55 58  0  0  0  0  0  0  0  0999 V2000
   -1.8440   26.0170  -25.4330 C   0  0  0  0  0  0  0  0  0  0  0  0
   -1.6390   25.0930  -26.5960 C   0  0  0  0  0  0  0  0  0  0  0  0
   -1.4320   25.6140  -27.8810 C   0  0  0  0  0  0  0  0  0  0  0  0
   -1.2120   24.7570  -28.9630 C   0  0  0  0  0  0  0  0  0  0  0  0
   -1.1810   23.3630  -28.7750 C   0  0  0  0  0  0  0  0  0  0  0  0
   -0.9980   22.4440  -29.9230 C   0  0  0  0  0  0  0  0  0  0  0  0
   -0.0810   21.5790  -29.8860 O   0  0  0  0  0  0  0  0  0  0  0  0
   -1.8400   22.5300  -31.0840 N   0  0  0  0  0  0  0  0  0  0  0  0
   -1.7850   21.5360  -32.1140 C   0  0  0  0  0  0  0  0  0  0  0  0
   -0.5300   21.0530  -32.5090 C   0  0  0  0  0  0  0  0  0  0  0  0
   -0.4300   20.0230  -33.4450 C   0  0  0  0  0  0  0  0  0  0  0  0
   -1.5840   19.4680  -33.9960 C   0  0  0  0  0  0  0  0  0  0  0  0
   -2.8410   19.9560  -33.6310 C   0  0  0  0  0  0  0  0  0  0  0  0
   -2.9640   21.0060  -32.7000 C   0  0  0  0  0  0  0  0  0  0  0  0
   -4.3110   21.5690  -32.4230 C   0  0  0  0  0  0  0  0  0  0  0  0
   -4.6330   22.7000  -32.8790 O   0  0  0  0  0  0  0  0  0  0  0  0
   -5.2810   20.7810  -31.7210 N   0  0  0  0  0  0  0  0  0  0  0  0
   -6.7000   20.9770  -31.7750 C   0  0  0  0  0  0  0  0  0  0  0  0
   -7.4910   19.9320  -32.2700 C   0  0  0  0  0  0  0  0  0  0  0  0
   -8.8760   20.0770  -32.3790 C   0  0  0  0  0  0  0  0  0  0  0  0
   -9.4860   21.2640  -31.9770 C   0  0  0  0  0  0  0  0  0  0  0  0
   -8.7150   22.3030  -31.4510 C   0  0  0  0  0  0  0  0  0  0  0  0
   -7.3210   22.1730  -31.3350 C   0  0  0  0  0  0  0  0  0  0  0  0
   -6.5750   23.2150  -30.6800 N   0  0  0  0  0  0  0  0  0  0  0  0
   -6.5310   24.5570  -31.2740 C   0  0  0  0  0  0  0  0  0  0  0  0
   -5.2690   25.2920  -30.8230 C   0  0  0  0  0  0  0  0  0  0  0  0
   -4.1860   24.3870  -30.7980 O   0  0  0  0  0  0  0  0  0  0  0  0
   -4.3070   23.5090  -29.6910 C   0  0  0  0  0  0  0  0  0  0  0  0
   -5.7200   22.8990  -29.5280 C   0  0  0  0  0  0  0  0  0  0  0  0
   -1.3740   22.8480  -27.4820 C   0  0  0  0  0  0  0  0  0  0  0  0
   -1.5910   23.7060  -26.4000 C   0  0  0  0  0  0  0  0  0  0  0  0
   -1.7199   25.4577  -24.4940 H   0  0  0  0  0  0  0  0  0  0  0  0
   -1.1044   26.8301  -25.4759 H   0  0  0  0  0  0  0  0  0  0  0  0
   -2.8581   26.4411  -25.4759 H   0  0  0  0  0  0  0  0  0  0  0  0
   -1.4428   26.7026  -28.0385 H   0  0  0  0  0  0  0  0  0  0  0  0
   -1.0620   25.1756  -29.9691 H   0  0  0  0  0  0  0  0  0  0  0  0
   -2.2960   23.4430  -31.3090 H   0  0  0  0  0  0  0  0  0  0  0  0
    0.3831   21.4892  -32.0778 H   0  0  0  0  0  0  0  0  0  0  0  0
    0.5591   19.6491  -33.7480 H   0  0  0  0  0  0  0  0  0  0  0  0
   -1.5046   18.6437  -34.7200 H   0  0  0  0  0  0  0  0  0  0  0  0
   -3.7454   19.5152  -34.0758 H   0  0  0  0  0  0  0  0  0  0  0  0
   -7.0166   18.9879  -32.5759 H   0  0  0  0  0  0  0  0  0  0  0  0
   -9.4852   19.2545  -32.7820 H   0  0  0  0  0  0  0  0  0  0  0  0
  -10.5753   21.3825  -32.0741 H   0  0  0  0  0  0  0  0  0  0  0  0
   -9.2042   23.2325  -31.1243 H   0  0  0  0  0  0  0  0  0  0  0  0
   -6.5283   24.4692  -32.3705 H   0  0  0  0  0  0  0  0  0  0  0  0
   -7.4141   25.1245  -30.9452 H   0  0  0  0  0  0  0  0  0  0  0  0
   -5.0488   26.1092  -31.5256 H   0  0  0  0  0  0  0  0  0  0  0  0
   -5.4247   25.7083  -29.8168 H   0  0  0  0  0  0  0  0  0  0  0  0
   -3.5874   22.6871  -29.8202 H   0  0  0  0  0  0  0  0  0  0  0  0
   -4.1092   24.1042  -28.7874 H   0  0  0  0  0  0  0  0  0  0  0  0
   -5.6302   21.8064  -29.4377 H   0  0  0  0  0  0  0  0  0  0  0  0
   -6.1809   23.3280  -28.6260 H   0  0  0  0  0  0  0  0  0  0  0  0
   -1.3542   21.7602  -27.3198 H   0  0  0  0  0  0  0  0  0  0  0  0
   -1.7247   23.2908  -25.3902 H   0  0  0  0  0  0  0  0  0  0  0  0
  1  2  1  0
  2  3  2  0
  3  4  1  0
  4  5  2  0
  5  6  1  0
  6  7  2  0
  6  8  1  0
  8  9  1  0
  9 10  2  0
 10 11  1  0
 11 12  2  0
 12 13  1  0
 13 14  2  0
 14 15  1  0
 15 16  2  0
 15 17  1  0
 17 18  1  0
 18 19  2  0
 19 20  1  0
 20 21  2  0
 21 22  1  0
 22 23  2  0
 23 24  1  0
 24 25  1  0
 25 26  1  0
 26 27  1  0
 27 28  1  0
 28 29  1  0
  5 30  1  0
 30 31  2  0
 31  2  1  0
 14  9  1  0
 23 18  1  0
 29 24  1  0
  1 32  1  0
  1 33  1  0
  1 34  1  0
  3 35  1  0
  4 36  1  0
  8 37  1  0
 10 38  1  0
 11 39  1  0
 12 40  1  0
 13 41  1  0
 19 42  1  0
 20 43  1  0
 21 44  1  0
 22 45  1  0
 25 46  1  0
 25 47  1  0
 26 48  1  0
 26 49  1  0
 28 50  1  0
 28 51  1  0
 29 52  1  0
 29 53  1  0
 30 54  1  0
 31 55  1  0
M  CHG  1  17  -1
M  END
>  <UniqueID>  (33) 
32

>  <SMILES>  (33) 
Cc1ccc(C(=O)Nc2ccccc2C(=O)[N-]c2ccccc2N2CCOCC2)cc1

>  <Energy>  (33) 
82.45607238219918

>  <Genealogy>  (33) 
Cc1ccc(C(=O)Nc2ccccc2C(=O)[N-]c2ccccc2N2CCOCC2)cc1 (protonated)
Cc1ccc(C(=O)Nc2ccccc2C(=O)[N-]c2ccccc2N2CCOCC2)cc1 (3D coordinates assigned)
Cc1ccc(C(=O)Nc2ccccc2C(=O)[N-]c2ccccc2N2CCOCC2)cc1 (nonaromatic ring conformer: 82.45607238219918 kcal/mol)

>  <smiles>  (33) 
Cc1ccc(C(=O)Nc2ccccc2C(=O)Nc2ccccc2N2CCOCC2)cc1

>  <score_type>  (33) 
oracle

>  <origin>  (33) 
adgpu

>  <m_score__min__energy>  (33) 
-9.8900000000000006

>  <m_primary>  (33) 
energy

$$$$
33:0
     RDKit          3D

 55 58  0  0  0  0  0  0  0  0999 V2000
   -9.6320   19.3320  -33.0840 N   0  0  0  0  0  0  0  0  0  0  0  0
   -8.6040   20.1780  -32.5610 C   0  0  0  0  0  0  0  0  0  0  0  0
   -8.9310   21.3870  -31.9350 C   0  0  0  0  0  0  0  0  0  0  0  0
   -7.9240   22.2090  -31.4200 C   0  0  0  0  0  0  0  0  0  0  0  0
   -6.5740   21.8330  -31.5230 C   0  0  0  0  0  0  0  0  0  0  0  0
   -5.5020   22.6990  -30.9740 C   0  0  0  0  0  0  0  0  0  0  0  0
   -5.8120   23.7360  -30.0750 C   0  0  0  0  0  0  0  0  0  0  0  0
   -4.8000   24.5410  -29.5450 C   0  0  0  0  0  0  0  0  0  0  0  0
   -3.4570   24.3200  -29.8980 C   0  0  0  0  0  0  0  0  0  0  0  0
   -2.3880   25.1030  -29.3470 N   0  0  0  0  0  0  0  0  0  0  0  0
   -1.2440   24.5050  -28.1890 S   0  0  0  0  0  0  0  0  0  0  0  0
    0.1400   24.9210  -28.5920 O   0  0  0  0  0  0  0  0  0  0  0  0
   -1.5590   25.0820  -26.8380 O   0  0  0  0  0  0  0  0  0  0  0  0
   -1.3250   22.7450  -28.1610 C   0  0  0  0  0  0  0  0  0  0  0  0
   -1.9860   22.1030  -27.1100 C   0  0  0  0  0  0  0  0  0  0  0  0
   -1.9840   20.7100  -27.0300 C   0  0  0  0  0  0  0  0  0  0  0  0
   -1.3120   19.9480  -27.9900 C   0  0  0  0  0  0  0  0  0  0  0  0
   -1.3250   18.5990  -27.8840 F   0  0  0  0  0  0  0  0  0  0  0  0
   -0.6360   20.5850  -29.0450 C   0  0  0  0  0  0  0  0  0  0  0  0
    0.2630   19.6600  -30.2570 S   0  0  0  0  0  0  0  0  0  0  0  0
   -0.3970   18.3180  -30.4170 O   0  0  0  0  0  0  0  0  0  0  0  0
    1.6840   19.4530  -29.8060 O   0  0  0  0  0  0  0  0  0  0  0  0
    0.2660   20.5110  -31.7860 N   0  0  0  0  0  0  0  0  0  0  0  0
   -1.1160   20.7690  -32.2240 C   0  0  0  0  0  0  0  0  0  0  0  0
   -1.1280   21.4820  -33.5970 C   0  0  0  0  0  0  0  0  0  0  0  0
    0.1660   21.5810  -34.1680 O   0  0  0  0  0  0  0  0  0  0  0  0
    0.7690   20.3020  -34.2200 C   0  0  0  0  0  0  0  0  0  0  0  0
    0.9890   19.7260  -32.8060 C   0  0  0  0  0  0  0  0  0  0  0  0
   -0.6690   21.9830  -29.1360 C   0  0  0  0  0  0  0  0  0  0  0  0
   -3.1500   23.3080  -30.8140 C   0  0  0  0  0  0  0  0  0  0  0  0
   -4.1590   22.4970  -31.3420 C   0  0  0  0  0  0  0  0  0  0  0  0
   -6.2530   20.6160  -32.1520 C   0  0  0  0  0  0  0  0  0  0  0  0
   -7.2620   19.7970  -32.6670 C   0  0  0  0  0  0  0  0  0  0  0  0
   -9.8250   19.2970  -34.1090 H   0  0  0  0  0  0  0  0  0  0  0  0
  -10.2000   18.7220  -32.4540 H   0  0  0  0  0  0  0  0  0  0  0  0
   -9.9845   21.6914  -31.8480 H   0  0  0  0  0  0  0  0  0  0  0  0
   -8.1906   23.1573  -30.9305 H   0  0  0  0  0  0  0  0  0  0  0  0
   -6.8586   23.9144  -29.7872 H   0  0  0  0  0  0  0  0  0  0  0  0
   -5.0556   25.3523  -28.8475 H   0  0  0  0  0  0  0  0  0  0  0  0
   -2.5083   22.6965  -26.3452 H   0  0  0  0  0  0  0  0  0  0  0  0
   -2.5142   20.2087  -26.2069 H   0  0  0  0  0  0  0  0  0  0  0  0
    0.7480   21.4290  -31.6470 H   0  0  0  0  0  0  0  0  0  0  0  0
   -1.6529   19.8127  -32.3086 H   0  0  0  0  0  0  0  0  0  0  0  0
   -1.6075   21.4172  -31.4835 H   0  0  0  0  0  0  0  0  0  0  0  0
   -1.7742   20.9151  -34.2834 H   0  0  0  0  0  0  0  0  0  0  0  0
   -1.5034   22.5040  -33.4400 H   0  0  0  0  0  0  0  0  0  0  0  0
    0.1163   19.6213  -34.7863 H   0  0  0  0  0  0  0  0  0  0  0  0
    1.7488   20.4007  -34.7101 H   0  0  0  0  0  0  0  0  0  0  0  0
    0.6263   18.6878  -32.7821 H   0  0  0  0  0  0  0  0  0  0  0  0
    2.0643   19.7692  -32.5781 H   0  0  0  0  0  0  0  0  0  0  0  0
   -0.1754   22.4862  -29.9805 H   0  0  0  0  0  0  0  0  0  0  0  0
   -2.1058   23.1491  -31.1214 H   0  0  0  0  0  0  0  0  0  0  0  0
   -3.9012   21.6955  -32.0499 H   0  0  0  0  0  0  0  0  0  0  0  0
   -5.2009   20.3069  -32.2391 H   0  0  0  0  0  0  0  0  0  0  0  0
   -6.9996   18.8483  -33.1580 H   0  0  0  0  0  0  0  0  0  0  0  0
  1  2  1  0
  2  3  2  0
  3  4  1  0
  4  5  2  0
  5  6  1  0
  6  7  2  0
  7  8  1  0
  8  9  2  0
  9 10  1  0
 10 11  1  0
 11 12  2  0
 11 13  2  0
 11 14  1  0
 14 15  2  0
 15 16  1  0
 16 17  2  0
 17 18  1  0
 17 19  1  0
 19 20  1  0
 20 21  2  0
 20 22  2  0
 20 23  1  0
 23 24  1  0
 24 25  1  0
 25 26  1  0
 26 27  1  0
 27 28  1  0
 19 29  2  0
  9 30  1  0
 30 31  2  0
  5 32  1  0
 32 33  2  0
 33  2  1  0
 31  6  1  0
 29 14  1  0
 28 23  1  0
  1 34  1  0
  1 35  1  0
  3 36  1  0
  4 37  1  0
  7 38  1  0
  8 39  1  0
 15 40  1  0
 16 41  1  0
 23 42  1  0
 24 43  1  0
 24 44  1  0
 25 45  1  0
 25 46  1  0
 27 47  1  0
 27 48  1  0
 28 49  1  0
 28 50  1  0
 29 51  1  0
 30 52  1  0
 31 53  1  0
 32 54  1  0
 33 55  1  0
M  CHG  2  10  -1  23   1
M  END
>  <UniqueID>  (34) 
33

>  <SMILES>  (34) 
Nc1ccc(-c2ccc([N-]S(=O)(=O)c3ccc(F)c(S(=O)(=O)[NH+]4CCOCC4)c3)cc2)cc1

>  <Energy>  (34) 
73.2929556973082

>  <Genealogy>  (34) 
Nc1ccc(-c2ccc([N-]S(=O)(=O)c3ccc(F)c(S(=O)(=O)[NH+]4CCOCC4)c3)cc2)cc1 (protonated)
Nc1ccc(-c2ccc([N-]S(=O)(=O)c3ccc(F)c(S(=O)(=O)[NH+]4CCOCC4)c3)cc2)cc1 (3D coordinates assigned)
Nc1ccc(-c2ccc([N-]S(=O)(=O)c3ccc(F)c(S(=O)(=O)[NH+]4CCOCC4)c3)cc2)cc1 (nonaromatic ring conformer: 73.2929556973082 kcal/mol)

>  <smiles>  (34) 
Nc1ccc(-c2ccc(NS(=O)(=O)c3ccc(F)c(S(=O)(=O)N4CCOCC4)c3)cc2)cc1

>  <score_type>  (34) 
oracle

>  <origin>  (34) 
adgpu

>  <m_score__min__energy>  (34) 
-11.199999999999999

>  <m_primary>  (34) 
energy

$$$$
34:0
     RDKit          3D

 38 40  0  0  0  0  0  0  0  0999 V2000
   -3.8650   26.4300  -30.2910 H   0  0  0  0  0  0  0  0  0  0  0  0
   -4.7360   25.9060  -30.5330 N   0  0  0  0  0  0  0  0  0  0  0  0
   -4.7070   24.6510  -30.8400 C   0  0  0  0  0  0  0  0  0  0  0  0
   -5.8590   24.0040  -31.1460 N   0  0  0  0  0  0  0  0  0  0  0  0
   -5.8500   22.6820  -31.4640 C   0  0  0  0  0  0  0  0  0  0  0  0
   -7.1130   21.9650  -31.8060 C   0  0  0  0  0  0  0  0  0  0  0  0
   -8.3440   22.5630  -31.4830 C   0  0  0  0  0  0  0  0  0  0  0  0
   -8.3592   23.5477  -30.9929 H   0  0  0  0  0  0  0  0  0  0  0  0
   -9.5420   21.9220  -31.7770 C   0  0  0  0  0  0  0  0  0  0  0  0
  -10.5012   22.3906  -31.5117 H   0  0  0  0  0  0  0  0  0  0  0  0
   -9.5180   20.6840  -32.4090 C   0  0  0  0  0  0  0  0  0  0  0  0
  -10.4622   20.1734  -32.6494 H   0  0  0  0  0  0  0  0  0  0  0  0
   -8.3330   20.1020  -32.7310 N   0  0  0  0  0  0  0  0  0  0  0  0
   -8.3810   19.2000  -33.2530 H   0  0  0  0  0  0  0  0  0  0  0  0
   -7.1300   20.6920  -32.4370 C   0  0  0  0  0  0  0  0  0  0  0  0
   -6.0020   20.1280  -32.7770 N   0  0  0  0  0  0  0  0  0  0  0  0
   -5.8060   18.8160  -33.3270 C   0  0  0  0  0  0  0  0  0  0  0  0
   -6.5640   17.7220  -32.8810 C   0  0  0  0  0  0  0  0  0  0  0  0
   -7.3561   17.8719  -32.1326 H   0  0  0  0  0  0  0  0  0  0  0  0
   -6.3150   16.4440  -33.3850 C   0  0  0  0  0  0  0  0  0  0  0  0
   -6.9244   15.5925  -33.0479 H   0  0  0  0  0  0  0  0  0  0  0  0
   -5.2940   16.2450  -34.3160 C   0  0  0  0  0  0  0  0  0  0  0  0
   -5.1095   15.2372  -34.7165 H   0  0  0  0  0  0  0  0  0  0  0  0
   -4.5030   17.3180  -34.7440 C   0  0  0  0  0  0  0  0  0  0  0  0
   -3.4790   17.0650  -35.6680 O   0  0  0  0  0  0  0  0  0  0  0  0
   -2.7060   15.8700  -35.7060 C   0  0  0  0  0  0  0  0  0  0  0  0
   -2.4919   15.5390  -34.6791 H   0  0  0  0  0  0  0  0  0  0  0  0
   -3.2686   15.0860  -36.2341 H   0  0  0  0  0  0  0  0  0  0  0  0
   -1.7603   16.0617  -36.2341 H   0  0  0  0  0  0  0  0  0  0  0  0
   -4.7590   18.6070  -34.2340 C   0  0  0  0  0  0  0  0  0  0  0  0
   -4.1326   19.4542  -34.5502 H   0  0  0  0  0  0  0  0  0  0  0  0
   -4.6640   22.0150  -31.4780 N   0  0  0  0  0  0  0  0  0  0  0  0
   -3.5050   22.6590  -31.1860 C   0  0  0  0  0  0  0  0  0  0  0  0
   -2.2170   21.9080  -31.1670 C   0  0  0  0  0  0  0  0  0  0  0  0
   -1.9117   21.7300  -30.1253 H   0  0  0  0  0  0  0  0  0  0  0  0
   -2.3470   20.9441  -31.6808 H   0  0  0  0  0  0  0  0  0  0  0  0
   -1.4422   22.4959  -31.6808 H   0  0  0  0  0  0  0  0  0  0  0  0
   -3.5290   23.9750  -30.8540 N   0  0  0  0  0  0  0  0  0  0  0  0
  1  2  1  0
  2  3  2  0
  3  4  1  0
  4  5  2  0
  5  6  1  0
  6  7  2  0
  7  8  1  0
  7  9  1  0
  9 10  1  0
  9 11  2  0
 11 12  1  0
 11 13  1  0
 13 14  1  0
 13 15  1  0
 15 16  2  0
 16 17  1  0
 17 18  2  0
 18 19  1  0
 18 20  1  0
 20 21  1  0
 20 22  2  0
 22 23  1  0
 22 24  1  0
 24 25  1  0
 25 26  1  0
 26 27  1  0
 26 28  1  0
 26 29  1  0
 24 30  2  0
 30 31  1  0
  5 32  1  0
 32 33  1  0
 33 34  1  0
 34 35  1  0
 34 36  1  0
 34 37  1  0
 33 38  2  0
 38  3  1  0
 15  6  1  0
 30 17  1  0
M  CHG  1  32  -1
M  END
>  <UniqueID>  (35) 
34

>  <SMILES>  (35) 
[H]/N=c1\nc(C)[n-]c(-c2ccc[nH]/c2=N\c2cccc(OC)c2)n1

>  <Energy>  (35) 
52.37106398360394

>  <Genealogy>  (35) 
COc1cccc(N=c2[nH]cccc2-c2nc(=N)nc(C)[n-]2)c1 (protonated)
[H]/N=c1\nc(C)[n-]c(-c2ccc[nH]/c2=N\c2cccc(OC)c2)n1 (cis-trans isomerization)
[H]/N=c1\nc(C)[n-]c(-c2ccc[nH]/c2=N\c2cccc(OC)c2)n1 (3D coordinates assigned)
[H]/N=c1\nc(C)[n-]c(-c2ccc[nH]/c2=N\c2cccc(OC)c2)n1 (optimized conformer: 52.37106398360394 kcal/mol)

>  <smiles>  (35) 
COc1cccc(N=c2[nH]cccc2-c2nc(=N)nc(C)[nH]2)c1

>  <score_type>  (35) 
oracle

>  <origin>  (35) 
adgpu

>  <m_score__min__energy>  (35) 
-9.0600000000000005

>  <m_primary>  (35) 
energy

$$$$
35:0
     RDKit          3D

 50 52  0  0  0  0  0  0  0  0999 V2000
    0.2450   17.7970  -28.2550 C   0  0  0  0  0  0  0  0  0  0  0  0
    0.3230   18.1400  -29.6750 N   0  0  0  0  0  0  0  0  0  0  0  0
    0.5960   17.0770  -30.6450 C   0  0  0  0  0  0  0  0  0  0  0  0
    0.2630   19.5270  -30.0750 C   0  0  0  0  0  0  0  0  0  0  0  0
    0.7280   20.4140  -29.3100 O   0  0  0  0  0  0  0  0  0  0  0  0
   -0.3130   19.9370  -31.3750 C   0  0  0  0  0  0  0  0  0  0  0  0
   -1.6300   20.3170  -31.5570 C   0  0  0  0  0  0  0  0  0  0  0  0
   -1.7460   20.6230  -32.9000 C   0  0  0  0  0  0  0  0  0  0  0  0
   -2.9520   21.0630  -33.5500 N   0  0  0  0  0  0  0  0  0  0  0  0
   -4.1260   21.4990  -32.8430 C   0  0  0  0  0  0  0  0  0  0  0  0
   -5.2960   20.7300  -32.9020 C   0  0  0  0  0  0  0  0  0  0  0  0
   -6.4420   21.1350  -32.2180 C   0  0  0  0  0  0  0  0  0  0  0  0
   -6.4430   22.3130  -31.4610 C   0  0  0  0  0  0  0  0  0  0  0  0
   -7.6270   22.6790  -30.8120 O   0  0  0  0  0  0  0  0  0  0  0  0
   -5.2630   23.0880  -31.3760 C   0  0  0  0  0  0  0  0  0  0  0  0
   -5.2110   24.6190  -30.4920 S   0  0  0  0  0  0  0  0  0  0  0  0
   -5.9260   25.6950  -31.2620 O   0  0  0  0  0  0  0  0  0  0  0  0
   -5.9210   24.4330  -29.1820 O   0  0  0  0  0  0  0  0  0  0  0  0
   -3.5920   25.1540  -30.1800 N   0  0  0  0  0  0  0  0  0  0  0  0
   -2.6430   24.4300  -29.3960 C   0  0  0  0  0  0  0  0  0  0  0  0
   -2.8780   23.1020  -29.0020 C   0  0  0  0  0  0  0  0  0  0  0  0
   -1.9600   22.4400  -28.1800 C   0  0  0  0  0  0  0  0  0  0  0  0
   -0.7970   23.0940  -27.7560 C   0  0  0  0  0  0  0  0  0  0  0  0
   -0.5580   24.4150  -28.1450 C   0  0  0  0  0  0  0  0  0  0  0  0
   -1.4820   25.0860  -28.9540 C   0  0  0  0  0  0  0  0  0  0  0  0
   -1.2320   26.4000  -29.3340 O   0  0  0  0  0  0  0  0  0  0  0  0
   -4.1100   22.6590  -32.0520 C   0  0  0  0  0  0  0  0  0  0  0  0
   -0.5240   20.3730  -33.4950 C   0  0  0  0  0  0  0  0  0  0  0  0
    0.3470   19.9530  -32.5590 N   0  0  0  0  0  0  0  0  0  0  0  0
    1.7300   19.5670  -32.8250 C   0  0  0  0  0  0  0  0  0  0  0  0
    0.4487   18.6926  -27.6497 H   0  0  0  0  0  0  0  0  0  0  0  0
   -0.7619   17.4194  -28.0238 H   0  0  0  0  0  0  0  0  0  0  0  0
    0.9896   17.0211  -28.0238 H   0  0  0  0  0  0  0  0  0  0  0  0
    0.8352   16.1457  -30.1107 H   0  0  0  0  0  0  0  0  0  0  0  0
   -0.2910   16.9201  -31.2764 H   0  0  0  0  0  0  0  0  0  0  0  0
    1.4488   17.3669  -31.2764 H   0  0  0  0  0  0  0  0  0  0  0  0
   -2.4199   20.3656  -30.7930 H   0  0  0  0  0  0  0  0  0  0  0  0
   -2.9590   21.1030  -34.6000 H   0  0  0  0  0  0  0  0  0  0  0  0
   -5.3107   19.8013  -33.4914 H   0  0  0  0  0  0  0  0  0  0  0  0
   -7.3542   20.5229  -32.2738 H   0  0  0  0  0  0  0  0  0  0  0  0
   -7.6620   23.3400  -30.0430 H   0  0  0  0  0  0  0  0  0  0  0  0
   -3.7860   22.5817  -29.3407 H   0  0  0  0  0  0  0  0  0  0  0  0
   -2.1523   21.4034  -27.8661 H   0  0  0  0  0  0  0  0  0  0  0  0
   -0.0719   22.5686  -27.1172 H   0  0  0  0  0  0  0  0  0  0  0  0
    0.3574   24.9278  -27.8149 H   0  0  0  0  0  0  0  0  0  0  0  0
   -3.1804   23.2400  -31.9607 H   0  0  0  0  0  0  0  0  0  0  0  0
   -0.2989   20.4976  -34.5645 H   0  0  0  0  0  0  0  0  0  0  0  0
    2.2592   19.4193  -31.8721 H   0  0  0  0  0  0  0  0  0  0  0  0
    1.7448   18.6304  -33.4017 H   0  0  0  0  0  0  0  0  0  0  0  0
    2.2277   20.3606  -33.4017 H   0  0  0  0  0  0  0  0  0  0  0  0
  1  2  1  0
  2  3  1  0
  2  4  1  0
  4  5  2  0
  4  6  1  0
  6  7  2  0
  7  8  1  0
  8  9  1  0
  9 10  1  0
 10 11  2  0
 11 12  1  0
 12 13  2  0
 13 14  1  0
 13 15  1  0
 15 16  1  0
 16 17  2  0
 16 18  2  0
 16 19  1  0
 19 20  1  0
 20 21  2  0
 21 22  1  0
 22 23  2  0
 23 24  1  0
 24 25  2  0
 25 26  1  0
 15 27  2  0
  8 28  2  0
 28 29  1  0
 29 30  1  0
 29  6  1  0
 27 10  1  0
 25 20  1  0
  1 31  1  0
  1 32  1  0
  1 33  1  0
  3 34  1  0
  3 35  1  0
  3 36  1  0
  7 37  1  0
  9 38  1  0
 11 39  1  0
 12 40  1  0
 14 41  1  0
 21 42  1  0
 22 43  1  0
 23 44  1  0
 24 45  1  0
 27 46  1  0
 28 47  1  0
 30 48  1  0
 30 49  1  0
 30 50  1  0
M  CHG  2  19  -1  26  -1
M  END
>  <UniqueID>  (36) 
35

>  <SMILES>  (36) 
CN(C)C(=O)c1cc(Nc2ccc(O)c(S(=O)(=O)[N-]c3ccccc3[O-])c2)cn1C

>  <Energy>  (36) 
95.23838476752937

>  <Genealogy>  (36) 
CN(C)C(=O)c1cc(Nc2ccc(O)c(S(=O)(=O)[N-]c3ccccc3[O-])c2)cn1C (protonated)
CN(C)C(=O)c1cc(Nc2ccc(O)c(S(=O)(=O)[N-]c3ccccc3[O-])c2)cn1C (3D coordinates assigned)
CN(C)C(=O)c1cc(Nc2ccc(O)c(S(=O)(=O)[N-]c3ccccc3[O-])c2)cn1C (optimized conformer: 95.23838476752937 kcal/mol)

>  <smiles>  (36) 
CN(C)C(=O)c1cc(Nc2ccc(O)c(S(=O)(=O)Nc3ccccc3O)c2)cn1C

>  <score_type>  (36) 
oracle

>  <origin>  (36) 
adgpu

>  <m_score__min__energy>  (36) 
-12.550000000000001

>  <m_primary>  (36) 
energy

$$$$
36:0
     RDKit          3D

 57 60  0  0  0  0  0  0  0  0999 V2000
   -5.4980   24.8440  -31.1460 O   0  0  0  0  0  0  0  0  0  0  0  0
   -4.3510   24.4280  -30.8370 C   0  0  0  0  0  0  0  0  0  0  0  0
   -3.4850   25.2970  -30.0930 N   0  0  0  0  0  0  0  0  0  0  0  0
   -2.6360   24.9130  -29.0010 C   0  0  0  0  0  0  0  0  0  0  0  0
   -1.2820   25.2850  -28.9520 C   0  0  0  0  0  0  0  0  0  0  0  0
   -0.4820   24.8930  -27.8750 C   0  0  0  0  0  0  0  0  0  0  0  0
   -1.0290   24.1380  -26.8300 C   0  0  0  0  0  0  0  0  0  0  0  0
   -0.0200   23.6600  -25.4660 S   0  0  0  0  0  0  0  0  0  0  0  0
   -0.6390   22.4830  -24.7660 O   0  0  0  0  0  0  0  0  0  0  0  0
    1.3320   23.2490  -25.9820 O   0  0  0  0  0  0  0  0  0  0  0  0
    0.1560   24.9990  -24.3590 N   0  0  0  0  0  0  0  0  0  0  0  0
    1.4060   25.7330  -24.6390 C   0  0  0  0  0  0  0  0  0  0  0  0
    1.4650   27.0610  -23.8540 C   0  0  0  0  0  0  0  0  0  0  0  0
    0.4230   27.1480  -22.9040 O   0  0  0  0  0  0  0  0  0  0  0  0
   -0.8270   27.1450  -23.5690 C   0  0  0  0  0  0  0  0  0  0  0  0
   -1.0100   25.8940  -24.4590 C   0  0  0  0  0  0  0  0  0  0  0  0
   -2.3860   23.7930  -26.8610 C   0  0  0  0  0  0  0  0  0  0  0  0
   -3.1850   24.1850  -27.9390 C   0  0  0  0  0  0  0  0  0  0  0  0
   -3.9550   23.0480  -31.2010 C   0  0  0  0  0  0  0  0  0  0  0  0
   -4.7100   22.3240  -32.1390 C   0  0  0  0  0  0  0  0  0  0  0  0
   -4.3330   21.0260  -32.4950 C   0  0  0  0  0  0  0  0  0  0  0  0
   -3.2030   20.4400  -31.9210 C   0  0  0  0  0  0  0  0  0  0  0  0
   -2.4440   21.1460  -30.9820 C   0  0  0  0  0  0  0  0  0  0  0  0
   -1.0230   20.3930  -30.2670 S   0  0  0  0  0  0  0  0  0  0  0  0
   -0.8710   19.0080  -30.8320 O   0  0  0  0  0  0  0  0  0  0  0  0
    0.2090   21.1890  -30.6060 O   0  0  0  0  0  0  0  0  0  0  0  0
   -1.2270   20.2990  -28.5360 N   0  0  0  0  0  0  0  0  0  0  0  0
   -0.7860   19.0050  -28.0170 C   0  0  0  0  0  0  0  0  0  0  0  0
   -1.5960   18.7420  -26.7560 C   0  0  0  0  0  0  0  0  0  0  0  0
   -2.7900   19.6810  -26.8380 C   0  0  0  0  0  0  0  0  0  0  0  0
   -2.6360   20.4120  -28.1620 C   0  0  0  0  0  0  0  0  0  0  0  0
   -2.8330   22.4410  -30.6090 C   0  0  0  0  0  0  0  0  0  0  0  0
   -0.8497   25.8873  -29.7647 H   0  0  0  0  0  0  0  0  0  0  0  0
    0.5800   25.1783  -27.8481 H   0  0  0  0  0  0  0  0  0  0  0  0
    0.2010   24.6010  -23.3910 H   0  0  0  0  0  0  0  0  0  0  0  0
    2.2621   25.1066  -24.3481 H   0  0  0  0  0  0  0  0  0  0  0  0
    1.4397   25.9636  -25.7140 H   0  0  0  0  0  0  0  0  0  0  0  0
    2.4310   27.1248  -23.3317 H   0  0  0  0  0  0  0  0  0  0  0  0
    1.3505   27.8895  -24.5685 H   0  0  0  0  0  0  0  0  0  0  0  0
   -1.6290   27.1652  -22.8165 H   0  0  0  0  0  0  0  0  0  0  0  0
   -0.8667   28.0315  -24.2190 H   0  0  0  0  0  0  0  0  0  0  0  0
   -1.9095   25.3503  -24.1345 H   0  0  0  0  0  0  0  0  0  0  0  0
   -1.1125   26.2200  -25.5046 H   0  0  0  0  0  0  0  0  0  0  0  0
   -2.8239   23.2125  -26.0356 H   0  0  0  0  0  0  0  0  0  0  0  0
   -4.2524   23.9195  -27.9528 H   0  0  0  0  0  0  0  0  0  0  0  0
   -5.6010   22.7803  -32.5949 H   0  0  0  0  0  0  0  0  0  0  0  0
   -4.9285   20.4643  -33.2298 H   0  0  0  0  0  0  0  0  0  0  0  0
   -2.9088   19.4197  -32.2083 H   0  0  0  0  0  0  0  0  0  0  0  0
   -0.9726   18.2150  -28.7594 H   0  0  0  0  0  0  0  0  0  0  0  0
    0.2925   19.0116  -27.8009 H   0  0  0  0  0  0  0  0  0  0  0  0
   -1.9316   17.6949  -26.7258 H   0  0  0  0  0  0  0  0  0  0  0  0
   -1.0026   18.9142  -25.8459 H   0  0  0  0  0  0  0  0  0  0  0  0
   -3.7305   19.1107  -26.8200 H   0  0  0  0  0  0  0  0  0  0  0  0
   -2.8232   20.3771  -25.9869 H   0  0  0  0  0  0  0  0  0  0  0  0
   -3.2716   19.9464  -28.9296 H   0  0  0  0  0  0  0  0  0  0  0  0
   -2.9413   21.4651  -28.0733 H   0  0  0  0  0  0  0  0  0  0  0  0
   -2.2559   22.9861  -29.8475 H   0  0  0  0  0  0  0  0  0  0  0  0
  1  2  2  0
  2  3  1  0
  3  4  1  0
  4  5  2  0
  5  6  1  0
  6  7  2  0
  7  8  1  0
  8  9  2  0
  8 10  2  0
  8 11  1  0
 11 12  1  0
 12 13  1  0
 13 14  1  0
 14 15  1  0
 15 16  1  0
  7 17  1  0
 17 18  2  0
  2 19  1  0
 19 20  2  0
 20 21  1  0
 21 22  2  0
 22 23  1  0
 23 24  1  0
 24 25  2  0
 24 26  2  0
 24 27  1  0
 27 28  1  0
 28 29  1  0
 29 30  1  0
 30 31  1  0
 23 32  2  0
 18  4  1  0
 32 19  1  0
 16 11  1  0
 31 27  1  0
  5 33  1  0
  6 34  1  0
 11 35  1  0
 12 36  1  0
 12 37  1  0
 13 38  1  0
 13 39  1  0
 15 40  1  0
 15 41  1  0
 16 42  1  0
 16 43  1  0
 17 44  1  0
 18 45  1  0
 20 46  1  0
 21 47  1  0
 22 48  1  0
 28 49  1  0
 28 50  1  0
 29 51  1  0
 29 52  1  0
 30 53  1  0
 30 54  1  0
 31 55  1  0
 31 56  1  0
 32 57  1  0
M  CHG  2   3  -1  11   1
M  END
>  <UniqueID>  (37) 
36

>  <SMILES>  (37) 
O=C([N-]c1ccc(S(=O)(=O)[NH+]2CCOCC2)cc1)c1cccc(S(=O)(=O)N2CCCC2)c1

>  <Energy>  (37) 
73.00918033909706

>  <Genealogy>  (37) 
O=C([N-]c1ccc(S(=O)(=O)[NH+]2CCOCC2)cc1)c1cccc(S(=O)(=O)N2CCCC2)c1 (protonated)
O=C([N-]c1ccc(S(=O)(=O)[NH+]2CCOCC2)cc1)c1cccc(S(=O)(=O)N2CCCC2)c1 (3D coordinates assigned)
O=C([N-]c1ccc(S(=O)(=O)[NH+]2CCOCC2)cc1)c1cccc(S(=O)(=O)N2CCCC2)c1 (nonaromatic ring conformer: 73.00918033909706 kcal/mol)

>  <smiles>  (37) 
O=C(Nc1ccc(S(=O)(=O)N2CCOCC2)cc1)c1cccc(S(=O)(=O)N2CCCC2)c1

>  <score_type>  (37) 
oracle

>  <origin>  (37) 
adgpu

>  <m_score__min__energy>  (37) 
-12.07

>  <m_primary>  (37) 
energy

$$$$
37:0
     RDKit          3D

 44 46  0  0  0  0  0  0  0  0999 V2000
   -1.6000   25.5130  -29.3210 N   0  0  0  0  0  0  0  0  0  0  0  0
   -1.2890   23.8560  -28.9440 S   0  0  0  0  0  0  0  0  0  0  0  0
   -1.8060   23.5340  -27.5700 O   0  0  0  0  0  0  0  0  0  0  0  0
    0.2010   23.6540  -28.9550 O   0  0  0  0  0  0  0  0  0  0  0  0
   -2.0500   22.7890  -30.1410 C   0  0  0  0  0  0  0  0  0  0  0  0
   -1.2750   21.7290  -30.6350 C   0  0  0  0  0  0  0  0  0  0  0  0
   -1.7590   20.8960  -31.6370 C   0  0  0  0  0  0  0  0  0  0  0  0
   -3.0190   21.1140  -32.1770 C   0  0  0  0  0  0  0  0  0  0  0  0
   -3.8350   22.1500  -31.6960 C   0  0  0  0  0  0  0  0  0  0  0  0
   -5.1190   22.4040  -32.2870 N   0  0  0  0  0  0  0  0  0  0  0  0
   -6.5780   21.5180  -31.9770 S   0  0  0  0  0  0  0  0  0  0  0  0
   -6.8580   21.5340  -30.5010 O   0  0  0  0  0  0  0  0  0  0  0  0
   -7.7240   22.1800  -32.6900 O   0  0  0  0  0  0  0  0  0  0  0  0
   -6.3830   19.8480  -32.5000 C   0  0  0  0  0  0  0  0  0  0  0  0
   -6.6720   18.8070  -31.6100 C   0  0  0  0  0  0  0  0  0  0  0  0
   -6.5190   17.4760  -32.0100 C   0  0  0  0  0  0  0  0  0  0  0  0
   -6.0660   17.1680  -33.3050 C   0  0  0  0  0  0  0  0  0  0  0  0
   -5.9010   15.7570  -33.7310 C   0  0  0  0  0  0  0  0  0  0  0  0
   -4.6500   15.1200  -33.6290 C   0  0  0  0  0  0  0  0  0  0  0  0
   -4.5020   13.7860  -34.0190 C   0  0  0  0  0  0  0  0  0  0  0  0
   -5.5960   13.0780  -34.5220 C   0  0  0  0  0  0  0  0  0  0  0  0
   -6.8410   13.7020  -34.6350 C   0  0  0  0  0  0  0  0  0  0  0  0
   -6.9950   15.0350  -34.2420 C   0  0  0  0  0  0  0  0  0  0  0  0
   -5.7790   18.2200  -34.1950 C   0  0  0  0  0  0  0  0  0  0  0  0
   -5.9390   19.5500  -33.7950 C   0  0  0  0  0  0  0  0  0  0  0  0
   -3.3740   22.9770  -30.6380 C   0  0  0  0  0  0  0  0  0  0  0  0
   -4.4620   24.2360  -29.9920 S   0  0  0  0  0  0  0  0  0  0  0  0
   -4.1830   25.7180  -30.8360 N   0  0  0  0  0  0  0  0  0  0  0  0
   -5.8980   23.8320  -30.1760 O   0  0  0  0  0  0  0  0  0  0  0  0
   -4.2420   24.4470  -28.5220 O   0  0  0  0  0  0  0  0  0  0  0  0
   -2.6380   25.6370  -29.3180 H   0  0  0  0  0  0  0  0  0  0  0  0
   -0.2699   21.5546  -30.2235 H   0  0  0  0  0  0  0  0  0  0  0  0
   -1.1420   20.0620  -32.0029 H   0  0  0  0  0  0  0  0  0  0  0  0
   -3.3818   20.4683  -32.9903 H   0  0  0  0  0  0  0  0  0  0  0  0
   -7.0207   19.0369  -30.5924 H   0  0  0  0  0  0  0  0  0  0  0  0
   -6.7547   16.6639  -31.3065 H   0  0  0  0  0  0  0  0  0  0  0  0
   -3.7838   15.6753  -33.2401 H   0  0  0  0  0  0  0  0  0  0  0  0
   -3.5227   13.2930  -33.9297 H   0  0  0  0  0  0  0  0  0  0  0  0
   -5.4773   12.0285  -34.8293 H   0  0  0  0  0  0  0  0  0  0  0  0
   -7.7010   13.1439  -35.0336 H   0  0  0  0  0  0  0  0  0  0  0  0
   -7.9772   15.5219  -34.3329 H   0  0  0  0  0  0  0  0  0  0  0  0
   -5.4264   17.9941  -35.2122 H   0  0  0  0  0  0  0  0  0  0  0  0
   -5.7156   20.3650  -34.4992 H   0  0  0  0  0  0  0  0  0  0  0  0
   -3.2100   25.6750  -31.2120 H   0  0  0  0  0  0  0  0  0  0  0  0
  1  2  1  0
  2  3  2  0
  2  4  2  0
  2  5  1  0
  5  6  2  0
  6  7  1  0
  7  8  2  0
  8  9  1  0
  9 10  1  0
 10 11  1  0
 11 12  2  0
 11 13  2  0
 11 14  1  0
 14 15  2  0
 15 16  1  0
 16 17  2  0
 17 18  1  0
 18 19  2  0
 19 20  1  0
 20 21  2  0
 21 22  1  0
 22 23  2  0
 17 24  1  0
 24 25  2  0
  9 26  2  0
 26 27  1  0
 27 28  1  0
 27 29  2  0
 27 30  2  0
 26  5  1  0
 25 14  1  0
 23 18  1  0
  1 31  1  0
  6 32  1  0
  7 33  1  0
  8 34  1  0
 15 35  1  0
 16 36  1  0
 19 37  1  0
 20 38  1  0
 21 39  1  0
 22 40  1  0
 23 41  1  0
 24 42  1  0
 25 43  1  0
 28 44  1  0
M  CHG  3   1  -1  10  -1  28  -1
M  END
>  <UniqueID>  (38) 
37

>  <SMILES>  (38) 
[NH-]S(=O)(=O)c1cccc([N-]S(=O)(=O)c2ccc(-c3ccccc3)cc2)c1S([NH-])(=O)=O

>  <Energy>  (38) 
62.42421162733949

>  <Genealogy>  (38) 
[NH-]S(=O)(=O)c1cccc([N-]S(=O)(=O)c2ccc(-c3ccccc3)cc2)c1S([NH-])(=O)=O (protonated)
[NH-]S(=O)(=O)c1cccc([N-]S(=O)(=O)c2ccc(-c3ccccc3)cc2)c1S([NH-])(=O)=O (3D coordinates assigned)
[NH-]S(=O)(=O)c1cccc([N-]S(=O)(=O)c2ccc(-c3ccccc3)cc2)c1S([NH-])(=O)=O (optimized conformer: 62.42421162733949 kcal/mol)

>  <smiles>  (38) 
NS(=O)(=O)c1cccc(NS(=O)(=O)c2ccc(-c3ccccc3)cc2)c1S(N)(=O)=O

>  <score_type>  (38) 
oracle

>  <origin>  (38) 
adgpu

>  <m_score__min__energy>  (38) 
-13.880000000000001

>  <m_primary>  (38) 
energy

$$$$
38:0
     RDKit          3D

 41 43  0  0  0  0  0  0  0  0999 V2000
   -5.7060   15.9440  -30.8620 N   0  0  0  0  0  0  0  0  0  0  0  0
   -4.9800   15.8530  -32.1230 C   0  0  0  0  0  0  0  0  0  0  0  0
   -5.3570   17.0020  -33.0160 C   0  0  0  0  0  0  0  0  0  0  0  0
   -4.9910   16.9980  -34.3690 C   0  0  0  0  0  0  0  0  0  0  0  0
   -5.3900   18.0520  -35.1920 C   0  0  0  0  0  0  0  0  0  0  0  0
   -6.1310   19.0720  -34.6830 N   0  0  0  0  0  0  0  0  0  0  0  0
   -6.5030   19.1120  -33.3760 C   0  0  0  0  0  0  0  0  0  0  0  0
   -7.2850   20.1870  -32.9310 O   0  0  0  0  0  0  0  0  0  0  0  0
   -6.7910   21.3580  -32.3380 C   0  0  0  0  0  0  0  0  0  0  0  0
   -5.4110   21.5950  -32.1990 C   0  0  0  0  0  0  0  0  0  0  0  0
   -4.9550   22.7730  -31.6040 C   0  0  0  0  0  0  0  0  0  0  0  0
   -5.8690   23.7320  -31.1490 C   0  0  0  0  0  0  0  0  0  0  0  0
   -5.2900   25.1980  -30.3640 S   0  0  0  0  0  0  0  0  0  0  0  0
   -5.7400   26.3880  -31.1630 O   0  0  0  0  0  0  0  0  0  0  0  0
   -5.8390   25.3050  -28.9690 O   0  0  0  0  0  0  0  0  0  0  0  0
   -3.5570   25.1880  -30.2900 N   0  0  0  0  0  0  0  0  0  0  0  0
   -2.7780   24.5440  -29.2720 C   0  0  0  0  0  0  0  0  0  0  0  0
   -1.4610   24.9410  -28.9720 C   0  0  0  0  0  0  0  0  0  0  0  0
   -0.7440   24.2920  -27.9620 C   0  0  0  0  0  0  0  0  0  0  0  0
   -1.3290   23.2410  -27.2490 C   0  0  0  0  0  0  0  0  0  0  0  0
   -2.6330   22.8390  -27.5470 C   0  0  0  0  0  0  0  0  0  0  0  0
   -3.3540   23.4870  -28.5540 C   0  0  0  0  0  0  0  0  0  0  0  0
   -7.2430   23.5140  -31.3170 C   0  0  0  0  0  0  0  0  0  0  0  0
   -7.6990   22.3360  -31.9150 C   0  0  0  0  0  0  0  0  0  0  0  0
   -6.1360   18.0580  -32.5210 C   0  0  0  0  0  0  0  0  0  0  0  0
   -5.1130   16.4710  -30.1800 H   0  0  0  0  0  0  0  0  0  0  0  0
   -5.8050   14.9750  -30.4810 H   0  0  0  0  0  0  0  0  0  0  0  0
   -3.8986   15.8855  -31.9242 H   0  0  0  0  0  0  0  0  0  0  0  0
   -5.2388   14.9074  -32.6218 H   0  0  0  0  0  0  0  0  0  0  0  0
   -4.3937   16.1703  -34.7790 H   0  0  0  0  0  0  0  0  0  0  0  0
   -5.1045   18.0576  -36.2543 H   0  0  0  0  0  0  0  0  0  0  0  0
   -4.6882   20.8489  -32.5607 H   0  0  0  0  0  0  0  0  0  0  0  0
   -3.8748   22.9484  -31.4922 H   0  0  0  0  0  0  0  0  0  0  0  0
   -0.9948   25.7639  -29.5336 H   0  0  0  0  0  0  0  0  0  0  0  0
    0.2829   24.6091  -27.7278 H   0  0  0  0  0  0  0  0  0  0  0  0
   -0.7633   22.7317  -26.4549 H   0  0  0  0  0  0  0  0  0  0  0  0
   -3.0934   22.0109  -26.9882 H   0  0  0  0  0  0  0  0  0  0  0  0
   -4.3803   23.1653  -28.7845 H   0  0  0  0  0  0  0  0  0  0  0  0
   -7.9644   24.2718  -30.9774 H   0  0  0  0  0  0  0  0  0  0  0  0
   -8.7784   22.1762  -32.0542 H   0  0  0  0  0  0  0  0  0  0  0  0
   -6.4582   18.0616  -31.4692 H   0  0  0  0  0  0  0  0  0  0  0  0
  1  2  1  0
  2  3  1  0
  3  4  2  0
  4  5  1  0
  5  6  2  0
  6  7  1  0
  7  8  1  0
  8  9  1  0
  9 10  2  0
 10 11  1  0
 11 12  2  0
 12 13  1  0
 13 14  2  0
 13 15  2  0
 13 16  1  0
 16 17  1  0
 17 18  2  0
 18 19  1  0
 19 20  2  0
 20 21  1  0
 21 22  2  0
 12 23  1  0
 23 24  2  0
  7 25  2  0
 25  3  1  0
 24  9  1  0
 22 17  1  0
  1 26  1  0
  1 27  1  0
  2 28  1  0
  2 29  1  0
  4 30  1  0
  5 31  1  0
 10 32  1  0
 11 33  1  0
 18 34  1  0
 19 35  1  0
 20 36  1  0
 21 37  1  0
 22 38  1  0
 23 39  1  0
 24 40  1  0
 25 41  1  0
M  CHG  1  16  -1
M  END
>  <UniqueID>  (39) 
38

>  <SMILES>  (39) 
NCc1ccnc(Oc2ccc(S(=O)(=O)[N-]c3ccccc3)cc2)c1

>  <Energy>  (39) 
51.70938075223623

>  <Genealogy>  (39) 
NCc1ccnc(Oc2ccc(S(=O)(=O)[N-]c3ccccc3)cc2)c1 (protonated)
NCc1ccnc(Oc2ccc(S(=O)(=O)[N-]c3ccccc3)cc2)c1 (3D coordinates assigned)
NCc1ccnc(Oc2ccc(S(=O)(=O)[N-]c3ccccc3)cc2)c1 (optimized conformer: 51.70938075223623 kcal/mol)

>  <smiles>  (39) 
NCc1ccnc(Oc2ccc(S(=O)(=O)Nc3ccccc3)cc2)c1

>  <score_type>  (39) 
oracle

>  <origin>  (39) 
adgpu

>  <m_score__min__energy>  (39) 
-9.7200000000000006

>  <m_primary>  (39) 
energy

$$$$
39:0
     RDKit          3D

 55 58  0  0  0  0  0  0  0  0999 V2000
    4.9610   20.4170  -28.2500 C   0  0  0  0  0  0  0  0  0  0  0  0
    3.8470   19.5220  -27.9690 N   0  0  0  0  0  0  0  0  0  0  0  0
    2.5550   19.7530  -28.2690 C   0  0  0  0  0  0  0  0  0  0  0  0
    1.8400   18.6290  -27.9220 C   0  0  0  0  0  0  0  0  0  0  0  0
    0.1330   18.3350  -28.2050 S   0  0  0  0  0  0  0  0  0  0  0  0
   -0.3820   17.4080  -27.1390 O   0  0  0  0  0  0  0  0  0  0  0  0
   -0.0400   17.6630  -29.5390 O   0  0  0  0  0  0  0  0  0  0  0  0
   -0.7880   19.8380  -28.1820 C   0  0  0  0  0  0  0  0  0  0  0  0
   -0.4370   20.8840  -29.0460 C   0  0  0  0  0  0  0  0  0  0  0  0
   -1.2320   22.0310  -29.1250 C   0  0  0  0  0  0  0  0  0  0  0  0
   -2.3850   22.1510  -28.3400 C   0  0  0  0  0  0  0  0  0  0  0  0
   -3.2430   23.2860  -28.5410 N   0  0  0  0  0  0  0  0  0  0  0  0
   -3.1050   24.2780  -29.5660 C   0  0  0  0  0  0  0  0  0  0  0  0
   -2.4090   25.3010  -29.3400 O   0  0  0  0  0  0  0  0  0  0  0  0
   -3.7390   24.1350  -30.8430 N   0  0  0  0  0  0  0  0  0  0  0  0
   -4.7730   23.1900  -31.1460 C   0  0  0  0  0  0  0  0  0  0  0  0
   -6.1110   23.5890  -31.3020 C   0  0  0  0  0  0  0  0  0  0  0  0
   -7.0920   22.6500  -31.6260 C   0  0  0  0  0  0  0  0  0  0  0  0
   -6.7520   21.3010  -31.7940 C   0  0  0  0  0  0  0  0  0  0  0  0
   -8.0060   20.1120  -32.1510 S   0  0  0  0  0  0  0  0  0  0  0  0
   -8.5480   19.5640  -30.8610 O   0  0  0  0  0  0  0  0  0  0  0  0
   -9.1340   20.7810  -32.8850 O   0  0  0  0  0  0  0  0  0  0  0  0
   -7.3840   18.8010  -33.1230 N   0  0  0  0  0  0  0  0  0  0  0  0
   -6.7450   17.7870  -32.2710 C   0  0  0  0  0  0  0  0  0  0  0  0
   -6.2530   16.6110  -33.1380 C   0  0  0  0  0  0  0  0  0  0  0  0
   -6.2330   16.9220  -34.5220 O   0  0  0  0  0  0  0  0  0  0  0  0
   -5.5970   18.1660  -34.7280 C   0  0  0  0  0  0  0  0  0  0  0  0
   -6.4280   19.3130  -34.1230 C   0  0  0  0  0  0  0  0  0  0  0  0
   -5.4140   20.9040  -31.6570 C   0  0  0  0  0  0  0  0  0  0  0  0
   -4.4300   21.8470  -31.3460 C   0  0  0  0  0  0  0  0  0  0  0  0
   -2.7260   21.1110  -27.4570 C   0  0  0  0  0  0  0  0  0  0  0  0
   -1.9260   19.9660  -27.3740 C   0  0  0  0  0  0  0  0  0  0  0  0
    2.7680   17.7320  -27.4350 C   0  0  0  0  0  0  0  0  0  0  0  0
    3.9900   18.2990  -27.4800 N   0  0  0  0  0  0  0  0  0  0  0  0
    5.3975   20.7677  -27.3031 H   0  0  0  0  0  0  0  0  0  0  0  0
    5.7260   19.8795  -28.8295 H   0  0  0  0  0  0  0  0  0  0  0  0
    4.6010   21.2798  -28.8295 H   0  0  0  0  0  0  0  0  0  0  0  0
    2.1451   20.6730  -28.7112 H   0  0  0  0  0  0  0  0  0  0  0  0
    0.4686   20.8020  -29.6651 H   0  0  0  0  0  0  0  0  0  0  0  0
   -0.9497   22.8451  -29.8088 H   0  0  0  0  0  0  0  0  0  0  0  0
   -6.3868   24.6455  -31.1683 H   0  0  0  0  0  0  0  0  0  0  0  0
   -8.1369   22.9706  -31.7500 H   0  0  0  0  0  0  0  0  0  0  0  0
   -5.8892   18.2373  -31.7468 H   0  0  0  0  0  0  0  0  0  0  0  0
   -7.4759   17.4163  -31.5373 H   0  0  0  0  0  0  0  0  0  0  0  0
   -5.2337   16.3436  -32.8226 H   0  0  0  0  0  0  0  0  0  0  0  0
   -6.9551   15.7764  -32.9951 H   0  0  0  0  0  0  0  0  0  0  0  0
   -4.6063   18.1478  -34.2504 H   0  0  0  0  0  0  0  0  0  0  0  0
   -5.4977   18.3359  -35.8103 H   0  0  0  0  0  0  0  0  0  0  0  0
   -5.7506   20.0316  -33.6385 H   0  0  0  0  0  0  0  0  0  0  0  0
   -6.9928   19.8013  -34.9308 H   0  0  0  0  0  0  0  0  0  0  0  0
   -5.1381   19.8481  -31.7946 H   0  0  0  0  0  0  0  0  0  0  0  0
   -3.3797   21.5322  -31.2578 H   0  0  0  0  0  0  0  0  0  0  0  0
   -3.6250   21.1979  -26.8292 H   0  0  0  0  0  0  0  0  0  0  0  0
   -2.1915   19.1625  -26.6712 H   0  0  0  0  0  0  0  0  0  0  0  0
    2.5466   16.7185  -27.0693 H   0  0  0  0  0  0  0  0  0  0  0  0
  1  2  1  0
  2  3  1  0
  3  4  2  0
  4  5  1  0
  5  6  2  0
  5  7  2  0
  5  8  1  0
  8  9  2  0
  9 10  1  0
 10 11  2  0
 11 12  1  0
 12 13  1  0
 13 14  2  0
 13 15  1  0
 15 16  1  0
 16 17  2  0
 17 18  1  0
 18 19  2  0
 19 20  1  0
 20 21  2  0
 20 22  2  0
 20 23  1  0
 23 24  1  0
 24 25  1  0
 25 26  1  0
 26 27  1  0
 27 28  1  0
 19 29  1  0
 29 30  2  0
 11 31  1  0
 31 32  2  0
  4 33  1  0
 33 34  2  0
 34  2  1  0
 32  8  1  0
 30 16  1  0
 28 23  1  0
  1 35  1  0
  1 36  1  0
  1 37  1  0
  3 38  1  0
  9 39  1  0
 10 40  1  0
 17 41  1  0
 18 42  1  0
 24 43  1  0
 24 44  1  0
 25 45  1  0
 25 46  1  0
 27 47  1  0
 27 48  1  0
 28 49  1  0
 28 50  1  0
 29 51  1  0
 30 52  1  0
 31 53  1  0
 32 54  1  0
 33 55  1  0
M  CHG  2  12  -1  15  -1
M  END
>  <UniqueID>  (40) 
39

>  <SMILES>  (40) 
Cn1cc(S(=O)(=O)c2ccc([N-]C(=O)[N-]c3ccc(S(=O)(=O)N4CCOCC4)cc3)cc2)cn1

>  <Energy>  (40) 
100.37219611256646

>  <Genealogy>  (40) 
Cn1cc(S(=O)(=O)c2ccc([N-]C(=O)[N-]c3ccc(S(=O)(=O)N4CCOCC4)cc3)cc2)cn1 (protonated)
Cn1cc(S(=O)(=O)c2ccc([N-]C(=O)[N-]c3ccc(S(=O)(=O)N4CCOCC4)cc3)cc2)cn1 (3D coordinates assigned)
Cn1cc(S(=O)(=O)c2ccc([N-]C(=O)[N-]c3ccc(S(=O)(=O)N4CCOCC4)cc3)cc2)cn1 (nonaromatic ring conformer: 100.37219611256646 kcal/mol)

>  <smiles>  (40) 
Cn1cc(S(=O)(=O)c2ccc(NC(=O)Nc3ccc(S(=O)(=O)N4CCOCC4)cc3)cc2)cn1

>  <score_type>  (40) 
oracle

>  <origin>  (40) 
adgpu

>  <m_score__min__energy>  (40) 
-12.52

>  <m_primary>  (40) 
energy

$$$$
40:0
     RDKit          3D

 54 56  0  0  0  0  0  0  0  0999 V2000
    1.0620   28.8250  -22.9600 N   0  0  0  0  0  0  0  0  0  0  0  0
    1.2760   27.5040  -23.4730 C   0  0  0  0  0  0  0  0  0  0  0  0
    2.2280   26.7690  -22.9740 N   0  0  0  0  0  0  0  0  0  0  0  0
    0.4220   26.9900  -24.5730 C   0  0  0  0  0  0  0  0  0  0  0  0
    0.6540   27.3750  -25.9070 C   0  0  0  0  0  0  0  0  0  0  0  0
   -0.1550   26.8900  -26.9380 C   0  0  0  0  0  0  0  0  0  0  0  0
   -1.2180   26.0160  -26.6550 C   0  0  0  0  0  0  0  0  0  0  0  0
   -2.0500   25.4880  -27.7010 N   0  0  0  0  0  0  0  0  0  0  0  0
   -1.5740   24.5940  -28.7230 C   0  0  0  0  0  0  0  0  0  0  0  0
   -0.3360   24.4360  -28.9090 O   0  0  0  0  0  0  0  0  0  0  0  0
   -2.5470   23.8970  -29.6300 C   0  0  0  0  0  0  0  0  0  0  0  0
   -3.8870   24.6380  -29.6670 C   0  0  0  0  0  0  0  0  0  0  0  0
   -4.4410   24.6220  -31.0170 N   0  0  0  0  0  0  0  0  0  0  0  0
   -5.7180   24.0660  -31.3450 C   0  0  0  0  0  0  0  0  0  0  0  0
   -6.7670   24.5510  -30.8360 O   0  0  0  0  0  0  0  0  0  0  0  0
   -5.7980   22.9200  -32.3230 C   0  0  0  0  0  0  0  0  0  0  0  0
   -7.0570   22.0800  -32.1630 C   0  0  0  0  0  0  0  0  0  0  0  0
   -8.2940   22.7310  -31.9990 C   0  0  0  0  0  0  0  0  0  0  0  0
   -9.4780   21.9930  -31.9010 C   0  0  0  0  0  0  0  0  0  0  0  0
   -9.4450   20.5990  -31.9770 C   0  0  0  0  0  0  0  0  0  0  0  0
   -8.2270   19.9390  -32.1540 C   0  0  0  0  0  0  0  0  0  0  0  0
   -7.0390   20.6720  -32.2500 C   0  0  0  0  0  0  0  0  0  0  0  0
   -4.5470   22.0570  -32.2790 C   0  0  0  0  0  0  0  0  0  0  0  0
   -4.1410   21.4710  -31.0650 C   0  0  0  0  0  0  0  0  0  0  0  0
   -3.0040   20.6590  -31.0140 C   0  0  0  0  0  0  0  0  0  0  0  0
   -2.2620   20.4170  -32.1730 C   0  0  0  0  0  0  0  0  0  0  0  0
   -2.6580   20.9860  -33.3870 C   0  0  0  0  0  0  0  0  0  0  0  0
   -3.7950   21.7990  -33.4430 C   0  0  0  0  0  0  0  0  0  0  0  0
   -1.4330   25.6090  -25.3310 C   0  0  0  0  0  0  0  0  0  0  0  0
   -0.6260   26.0970  -24.2990 C   0  0  0  0  0  0  0  0  0  0  0  0
    1.6890   29.2190  -22.2230 H   0  0  0  0  0  0  0  0  0  0  0  0
    0.2510   29.4030  -23.2750 H   0  0  0  0  0  0  0  0  0  0  0  0
    2.4410   25.8160  -23.3450 H   0  0  0  0  0  0  0  0  0  0  0  0
    2.8270   27.1300  -22.1980 H   0  0  0  0  0  0  0  0  0  0  0  0
    1.4795   28.0638  -26.1399 H   0  0  0  0  0  0  0  0  0  0  0  0
    0.0415   27.1941  -27.9767 H   0  0  0  0  0  0  0  0  0  0  0  0
   -3.0310   25.8480  -27.7780 H   0  0  0  0  0  0  0  0  0  0  0  0
   -2.1282   23.8592  -30.6465 H   0  0  0  0  0  0  0  0  0  0  0  0
   -2.7182   22.8802  -29.2468 H   0  0  0  0  0  0  0  0  0  0  0  0
   -4.5919   24.1465  -28.9803 H   0  0  0  0  0  0  0  0  0  0  0  0
   -3.7256   25.6820  -29.3603 H   0  0  0  0  0  0  0  0  0  0  0  0
   -5.8600   23.3791  -33.3207 H   0  0  0  0  0  0  0  0  0  0  0  0
   -8.3299   23.8292  -31.9475 H   0  0  0  0  0  0  0  0  0  0  0  0
  -10.4380   22.5121  -31.7637 H   0  0  0  0  0  0  0  0  0  0  0  0
  -10.3777   20.0212  -31.8975 H   0  0  0  0  0  0  0  0  0  0  0  0
   -8.2016   18.8412  -32.2180 H   0  0  0  0  0  0  0  0  0  0  0  0
   -6.0836   20.1463  -32.3944 H   0  0  0  0  0  0  0  0  0  0  0  0
   -4.7229   21.6534  -30.1495 H   0  0  0  0  0  0  0  0  0  0  0  0
   -2.6929   20.2097  -30.0594 H   0  0  0  0  0  0  0  0  0  0  0  0
   -1.3668   19.7792  -32.1302 H   0  0  0  0  0  0  0  0  0  0  0  0
   -2.0746   20.7941  -34.2996 H   0  0  0  0  0  0  0  0  0  0  0  0
   -4.1044   22.2400  -34.4020 H   0  0  0  0  0  0  0  0  0  0  0  0
   -2.2427   24.9004  -25.1023 H   0  0  0  0  0  0  0  0  0  0  0  0
   -0.8139   25.7784  -23.2630 H   0  0  0  0  0  0  0  0  0  0  0  0
  1  2  1  0
  2  3  2  0
  2  4  1  0
  4  5  2  0
  5  6  1  0
  6  7  2  0
  7  8  1  0
  8  9  1  0
  9 10  2  0
  9 11  1  0
 11 12  1  0
 12 13  1  0
 13 14  1  0
 14 15  2  0
 14 16  1  0
 16 17  1  0
 17 18  2  0
 18 19  1  0
 19 20  2  0
 20 21  1  0
 21 22  2  0
 16 23  1  0
 23 24  2  0
 24 25  1  0
 25 26  2  0
 26 27  1  0
 27 28  2  0
  7 29  1  0
 29 30  2  0
 30  4  1  0
 22 17  1  0
 28 23  1  0
  1 31  1  0
  1 32  1  0
  3 33  1  0
  3 34  1  0
  5 35  1  0
  6 36  1  0
  8 37  1  0
 11 38  1  0
 11 39  1  0
 12 40  1  0
 12 41  1  0
 16 42  1  0
 18 43  1  0
 19 44  1  0
 20 45  1  0
 21 46  1  0
 22 47  1  0
 24 48  1  0
 25 49  1  0
 26 50  1  0
 27 51  1  0
 28 52  1  0
 29 53  1  0
 30 54  1  0
M  CHG  2   3   1  13  -1
M  END
>  <UniqueID>  (41) 
40

>  <SMILES>  (41) 
NC(=[NH2+])c1ccc(NC(=O)CC[N-]C(=O)C(c2ccccc2)c2ccccc2)cc1

>  <Energy>  (41) 
60.08484511135661

>  <Genealogy>  (41) 
NC(=[NH2+])c1ccc(NC(=O)CC[N-]C(=O)C(c2ccccc2)c2ccccc2)cc1 (protonated)
NC(=[NH2+])c1ccc(NC(=O)CC[N-]C(=O)C(c2ccccc2)c2ccccc2)cc1 (3D coordinates assigned)
NC(=[NH2+])c1ccc(NC(=O)CC[N-]C(=O)C(c2ccccc2)c2ccccc2)cc1 (optimized conformer: 60.08484511135661 kcal/mol)

>  <smiles>  (41) 
N=C(N)c1ccc(NC(=O)CCNC(=O)C(c2ccccc2)c2ccccc2)cc1

>  <score_type>  (41) 
oracle

>  <origin>  (41) 
adgpu

>  <m_score__min__energy>  (41) 
-11.27

>  <m_primary>  (41) 
energy

$$$$
41:0
     RDKit          3D

 47 50  0  0  0  0  0  0  0  0999 V2000
   -6.3940   15.6330  -34.0630 C   0  0  0  0  0  0  0  0  0  0  0  0
   -5.3110   16.0700  -33.2470 O   0  0  0  0  0  0  0  0  0  0  0  0
   -4.4950   17.1820  -33.5240 C   0  0  0  0  0  0  0  0  0  0  0  0
   -3.3660   17.0660  -34.3540 C   0  0  0  0  0  0  0  0  0  0  0  0
   -2.5560   18.1680  -34.6130 C   0  0  0  0  0  0  0  0  0  0  0  0
   -2.8310   19.4130  -34.0430 C   0  0  0  0  0  0  0  0  0  0  0  0
   -1.9470   20.5010  -34.3660 N   0  0  0  0  0  0  0  0  0  0  0  0
   -0.9580   21.1390  -33.5440 C   0  0  0  0  0  0  0  0  0  0  0  0
    0.1620   21.4170  -34.0440 O   0  0  0  0  0  0  0  0  0  0  0  0
   -1.1900   21.4430  -32.1590 C   0  0  0  0  0  0  0  0  0  0  0  0
   -1.4190   21.7570  -31.0170 C   0  0  0  0  0  0  0  0  0  0  0  0
   -1.7660   22.1660  -29.6840 C   0  0  0  0  0  0  0  0  0  0  0  0
   -2.6250   21.3730  -28.9110 C   0  0  0  0  0  0  0  0  0  0  0  0
   -3.0310   21.8100  -27.6460 C   0  0  0  0  0  0  0  0  0  0  0  0
   -2.5850   23.0410  -27.1550 C   0  0  0  0  0  0  0  0  0  0  0  0
   -1.7320   23.8360  -27.9270 C   0  0  0  0  0  0  0  0  0  0  0  0
   -1.3240   23.4010  -29.1920 C   0  0  0  0  0  0  0  0  0  0  0  0
   -3.9850   19.5640  -33.2440 C   0  0  0  0  0  0  0  0  0  0  0  0
   -4.2980   20.7580  -32.7520 O   0  0  0  0  0  0  0  0  0  0  0  0
   -5.3250   20.9760  -31.9370 C   0  0  0  0  0  0  0  0  0  0  0  0
   -5.5000   22.3330  -31.3640 C   0  0  0  0  0  0  0  0  0  0  0  0
   -6.7960   22.8340  -31.1530 C   0  0  0  0  0  0  0  0  0  0  0  0
   -6.9860   24.1390  -30.6930 C   0  0  0  0  0  0  0  0  0  0  0  0
   -5.8880   24.9680  -30.4480 C   0  0  0  0  0  0  0  0  0  0  0  0
   -6.1060   26.2700  -29.9960 O   0  0  0  0  0  0  0  0  0  0  0  0
   -4.5890   24.4830  -30.6640 C   0  0  0  0  0  0  0  0  0  0  0  0
   -3.4850   25.2970  -30.4400 O   0  0  0  0  0  0  0  0  0  0  0  0
   -4.3970   23.1730  -31.1190 C   0  0  0  0  0  0  0  0  0  0  0  0
   -6.1880   19.9210  -31.6160 C   0  0  0  0  0  0  0  0  0  0  0  0
   -5.9350   18.6520  -32.1340 C   0  0  0  0  0  0  0  0  0  0  0  0
   -6.7230   17.7110  -31.8450 O   0  0  0  0  0  0  0  0  0  0  0  0
   -4.8120   18.4450  -32.9640 C   0  0  0  0  0  0  0  0  0  0  0  0
   -7.2236   15.2983  -33.4229 H   0  0  0  0  0  0  0  0  0  0  0  0
   -6.7334   16.4646  -34.6981 H   0  0  0  0  0  0  0  0  0  0  0  0
   -6.0612   14.7988  -34.6981 H   0  0  0  0  0  0  0  0  0  0  0  0
   -3.1199   16.0929  -34.8040 H   0  0  0  0  0  0  0  0  0  0  0  0
   -1.6860   18.0566  -35.2768 H   0  0  0  0  0  0  0  0  0  0  0  0
   -2.9799   20.4069  -29.2992 H   0  0  0  0  0  0  0  0  0  0  0  0
   -3.7012   21.1853  -27.0373 H   0  0  0  0  0  0  0  0  0  0  0  0
   -2.9055   23.3844  -26.1603 H   0  0  0  0  0  0  0  0  0  0  0  0
   -1.3818   24.8039  -27.5391 H   0  0  0  0  0  0  0  0  0  0  0  0
   -0.6562   24.0284  -29.8005 H   0  0  0  0  0  0  0  0  0  0  0  0
   -7.6677   22.1932  -31.3517 H   0  0  0  0  0  0  0  0  0  0  0  0
   -8.0052   24.5162  -30.5227 H   0  0  0  0  0  0  0  0  0  0  0  0
   -5.4220   26.7660  -29.4370 H   0  0  0  0  0  0  0  0  0  0  0  0
   -3.3768   22.7972  -31.2863 H   0  0  0  0  0  0  0  0  0  0  0  0
   -7.0560   20.0919  -30.9623 H   0  0  0  0  0  0  0  0  0  0  0  0
  1  2  1  0
  2  3  1  0
  3  4  2  0
  4  5  1  0
  5  6  2  0
  6  7  1  0
  7  8  1  0
  8  9  2  0
  8 10  1  0
 10 11  3  0
 11 12  1  0
 12 13  2  0
 13 14  1  0
 14 15  2  0
 15 16  1  0
 16 17  2  0
  6 18  1  0
 18 19  1  0
 19 20  1  0
 20 21  1  0
 21 22  2  0
 22 23  1  0
 23 24  2  0
 24 25  1  0
 24 26  1  0
 26 27  1  0
 26 28  2  0
 20 29  2  0
 29 30  1  0
 30 31  2  0
 30 32  1  0
 32  3  1  0
 17 12  1  0
 32 18  2  0
 28 21  1  0
  1 33  1  0
  1 34  1  0
  1 35  1  0
  4 36  1  0
  5 37  1  0
 13 38  1  0
 14 39  1  0
 15 40  1  0
 16 41  1  0
 17 42  1  0
 22 43  1  0
 23 44  1  0
 25 45  1  0
 28 46  1  0
 29 47  1  0
M  CHG  2   7  -1  27  -1
M  END
>  <UniqueID>  (42) 
41

>  <SMILES>  (42) 
COc1ccc([N-]C(=O)C#Cc2ccccc2)c2oc(-c3ccc(O)c([O-])c3)cc(=O)c12

>  <Energy>  (42) 
59.40449137521626

>  <Genealogy>  (42) 
COc1ccc([N-]C(=O)C#Cc2ccccc2)c2oc(-c3ccc(O)c([O-])c3)cc(=O)c12 (protonated)
COc1ccc([N-]C(=O)C#Cc2ccccc2)c2oc(-c3ccc(O)c([O-])c3)cc(=O)c12 (3D coordinates assigned)
COc1ccc([N-]C(=O)C#Cc2ccccc2)c2oc(-c3ccc(O)c([O-])c3)cc(=O)c12 (optimized conformer: 59.40449137521626 kcal/mol)

>  <smiles>  (42) 
COc1ccc(NC(=O)C#Cc2ccccc2)c2oc(-c3ccc(O)c(O)c3)cc(=O)c12

>  <score_type>  (42) 
oracle

>  <origin>  (42) 
adgpu

>  <m_score__min__energy>  (42) 
-12.93

>  <m_primary>  (42) 
energy

$$$$
42:0
     RDKit          3D

 44 47  0  0  0  0  0  0  0  0999 V2000
   -6.3240   17.6780  -30.8670 C   0  0  0  0  0  0  0  0  0  0  0  0
   -6.4410   18.4870  -32.0750 N   0  0  0  0  0  0  0  0  0  0  0  0
   -7.3920   19.3930  -32.2470 N   0  0  0  0  0  0  0  0  0  0  0  0
   -7.2190   19.9440  -33.4630 C   0  0  0  0  0  0  0  0  0  0  0  0
   -6.1240   19.3740  -34.0820 C   0  0  0  0  0  0  0  0  0  0  0  0
   -5.6450   18.4570  -33.1670 C   0  0  0  0  0  0  0  0  0  0  0  0
   -4.4570   17.5950  -33.3550 C   0  0  0  0  0  0  0  0  0  0  0  0
   -4.5550   16.2100  -33.1340 C   0  0  0  0  0  0  0  0  0  0  0  0
   -3.4360   15.3890  -33.2870 C   0  0  0  0  0  0  0  0  0  0  0  0
   -2.2090   15.9390  -33.6600 C   0  0  0  0  0  0  0  0  0  0  0  0
   -2.0950   17.3140  -33.8740 C   0  0  0  0  0  0  0  0  0  0  0  0
   -3.2120   18.1550  -33.7090 C   0  0  0  0  0  0  0  0  0  0  0  0
   -3.1190   19.5350  -33.9540 O   0  0  0  0  0  0  0  0  0  0  0  0
   -3.3420   20.5440  -33.0050 C   0  0  0  0  0  0  0  0  0  0  0  0
   -4.1370   21.6380  -33.3620 C   0  0  0  0  0  0  0  0  0  0  0  0
   -4.3910   22.6580  -32.4420 C   0  0  0  0  0  0  0  0  0  0  0  0
   -3.8590   22.5890  -31.1480 C   0  0  0  0  0  0  0  0  0  0  0  0
   -4.1700   23.8870  -29.9990 S   0  0  0  0  0  0  0  0  0  0  0  0
   -3.8650   25.2240  -30.6150 O   0  0  0  0  0  0  0  0  0  0  0  0
   -3.2920   23.6910  -28.7950 O   0  0  0  0  0  0  0  0  0  0  0  0
   -5.8320   23.8560  -29.5090 N   0  0  0  0  0  0  0  0  0  0  0  0
   -6.8830   23.3280  -30.3280 C   0  0  0  0  0  0  0  0  0  0  0  0
   -7.7310   22.2920  -29.9360 C   0  0  0  0  0  0  0  0  0  0  0  0
   -8.8010   22.0110  -31.2000 S   0  0  0  0  0  0  0  0  0  0  0  0
   -8.1490   23.2050  -32.1850 C   0  0  0  0  0  0  0  0  0  0  0  0
   -7.1190   23.8270  -31.5710 N   0  0  0  0  0  0  0  0  0  0  0  0
   -3.0840   21.4830  -30.7770 C   0  0  0  0  0  0  0  0  0  0  0  0
   -2.8290   20.4620  -31.6970 C   0  0  0  0  0  0  0  0  0  0  0  0
   -6.4175   18.3247  -29.9821 H   0  0  0  0  0  0  0  0  0  0  0  0
   -7.1220   16.9210  -30.8539 H   0  0  0  0  0  0  0  0  0  0  0  0
   -5.3442   17.1781  -30.8539 H   0  0  0  0  0  0  0  0  0  0  0  0
   -7.8541   20.7298  -33.8980 H   0  0  0  0  0  0  0  0  0  0  0  0
   -5.7228   19.5999  -35.0810 H   0  0  0  0  0  0  0  0  0  0  0  0
   -5.5192   15.7705  -32.8387 H   0  0  0  0  0  0  0  0  0  0  0  0
   -3.5219   14.3062  -33.1131 H   0  0  0  0  0  0  0  0  0  0  0  0
   -1.3308   15.2887  -33.7856 H   0  0  0  0  0  0  0  0  0  0  0  0
   -1.1271   17.7426  -34.1732 H   0  0  0  0  0  0  0  0  0  0  0  0
   -4.5650   21.6955  -34.3737 H   0  0  0  0  0  0  0  0  0  0  0  0
   -5.0109   23.5183  -32.7347 H   0  0  0  0  0  0  0  0  0  0  0  0
   -6.0690   24.2110  -28.5540 H   0  0  0  0  0  0  0  0  0  0  0  0
   -7.7039   21.7571  -28.9752 H   0  0  0  0  0  0  0  0  0  0  0  0
   -8.5120   23.4479  -33.1946 H   0  0  0  0  0  0  0  0  0  0  0  0
   -2.6746   21.4176  -29.7581 H   0  0  0  0  0  0  0  0  0  0  0  0
   -2.2258   19.5921  -31.3979 H   0  0  0  0  0  0  0  0  0  0  0  0
  1  2  1  0
  2  3  1  0
  3  4  2  0
  4  5  1  0
  5  6  2  0
  6  7  1  0
  7  8  2  0
  8  9  1  0
  9 10  2  0
 10 11  1  0
 11 12  2  0
 12 13  1  0
 13 14  1  0
 14 15  2  0
 15 16  1  0
 16 17  2  0
 17 18  1  0
 18 19  2  0
 18 20  2  0
 18 21  1  0
 21 22  1  0
 22 23  2  0
 23 24  1  0
 24 25  1  0
 25 26  2  0
 17 27  1  0
 27 28  2  0
  6  2  1  0
 12  7  1  0
 28 14  1  0
 26 22  1  0
  1 29  1  0
  1 30  1  0
  1 31  1  0
  4 32  1  0
  5 33  1  0
  8 34  1  0
  9 35  1  0
 10 36  1  0
 11 37  1  0
 15 38  1  0
 16 39  1  0
 21 40  1  0
 23 41  1  0
 25 42  1  0
 27 43  1  0
 28 44  1  0
M  END
>  <UniqueID>  (43) 
42

>  <SMILES>  (43) 
Cn1nccc1-c1ccccc1Oc1ccc(S(=O)(=O)Nc2cscn2)cc1

>  <Energy>  (43) 
120.09131307543981

>  <Genealogy>  (43) 
Cn1nccc1-c1ccccc1Oc1ccc(S(=O)(=O)Nc2cscn2)cc1 (3D coordinates assigned)
Cn1nccc1-c1ccccc1Oc1ccc(S(=O)(=O)Nc2cscn2)cc1 (optimized conformer: 120.09131307543981 kcal/mol)

>  <smiles>  (43) 
Cn1nccc1-c1ccccc1Oc1ccc(S(=O)(=O)Nc2cscn2)cc1

>  <score_type>  (43) 
oracle

>  <origin>  (43) 
adgpu

>  <m_score__min__energy>  (43) 
-8.9299999999999997

>  <m_primary>  (43) 
energy

$$$$
43:0
     RDKit          3D

 50 53  0  0  0  0  0  0  0  0999 V2000
   -6.1190   25.6880  -29.7160 C   0  0  0  0  0  0  0  0  0  0  0  0
   -5.7620   24.3940  -30.3960 C   0  0  0  0  0  0  0  0  0  0  0  0
   -6.5890   23.9190  -31.4280 C   0  0  0  0  0  0  0  0  0  0  0  0
   -6.2910   22.7250  -32.0880 C   0  0  0  0  0  0  0  0  0  0  0  0
   -5.1550   21.9900  -31.7360 C   0  0  0  0  0  0  0  0  0  0  0  0
   -4.8470   20.7280  -32.4380 C   0  0  0  0  0  0  0  0  0  0  0  0
   -3.6090   20.5840  -32.9780 N   0  0  0  0  0  0  0  0  0  0  0  0
   -3.2450   19.5070  -33.6760 N   0  0  0  0  0  0  0  0  0  0  0  0
   -1.8880   19.4550  -34.2210 C   0  0  0  0  0  0  0  0  0  0  0  0
   -4.1240   18.4810  -33.8920 C   0  0  0  0  0  0  0  0  0  0  0  0
   -3.7710   17.4760  -34.5710 O   0  0  0  0  0  0  0  0  0  0  0  0
   -5.4190   18.5490  -33.3470 C   0  0  0  0  0  0  0  0  0  0  0  0
   -6.3470   17.5060  -33.5320 C   0  0  0  0  0  0  0  0  0  0  0  0
   -7.6160   17.5800  -32.9560 C   0  0  0  0  0  0  0  0  0  0  0  0
   -7.9700   18.6830  -32.1810 C   0  0  0  0  0  0  0  0  0  0  0  0
   -7.0620   19.7260  -31.9870 C   0  0  0  0  0  0  0  0  0  0  0  0
   -5.7870   19.6860  -32.5890 C   0  0  0  0  0  0  0  0  0  0  0  0
   -4.3480   22.4320  -30.6780 C   0  0  0  0  0  0  0  0  0  0  0  0
   -4.6380   23.6260  -30.0020 C   0  0  0  0  0  0  0  0  0  0  0  0
   -3.5600   24.1480  -28.6940 S   0  0  0  0  0  0  0  0  0  0  0  0
   -4.3720   24.8030  -27.6110 O   0  0  0  0  0  0  0  0  0  0  0  0
   -2.8590   22.9610  -28.0910 O   0  0  0  0  0  0  0  0  0  0  0  0
   -2.3800   25.2810  -29.2860 N   0  0  0  0  0  0  0  0  0  0  0  0
   -1.0950   25.1160  -28.6040 C   0  0  0  0  0  0  0  0  0  0  0  0
   -1.0710   25.8890  -27.3120 C   0  0  0  0  0  0  0  0  0  0  0  0
   -1.6270   25.3470  -26.1420 C   0  0  0  0  0  0  0  0  0  0  0  0
   -1.6050   26.0730  -24.9480 C   0  0  0  0  0  0  0  0  0  0  0  0
   -1.0270   27.3450  -24.9130 C   0  0  0  0  0  0  0  0  0  0  0  0
   -0.4710   27.8920  -26.0720 C   0  0  0  0  0  0  0  0  0  0  0  0
   -0.4910   27.1680  -27.2690 C   0  0  0  0  0  0  0  0  0  0  0  0
   -6.0813   25.5515  -28.6251 H   0  0  0  0  0  0  0  0  0  0  0  0
   -5.4025   26.4681  -30.0129 H   0  0  0  0  0  0  0  0  0  0  0  0
   -7.1341   25.9903  -30.0129 H   0  0  0  0  0  0  0  0  0  0  0  0
   -7.4806   24.4938  -31.7190 H   0  0  0  0  0  0  0  0  0  0  0  0
   -6.9526   22.3613  -32.8880 H   0  0  0  0  0  0  0  0  0  0  0  0
   -1.1620   19.4272  -33.3951 H   0  0  0  0  0  0  0  0  0  0  0  0
   -1.7753   18.5519  -34.8388 H   0  0  0  0  0  0  0  0  0  0  0  0
   -1.7066   20.3469  -34.8388 H   0  0  0  0  0  0  0  0  0  0  0  0
   -6.0700   16.6280  -34.1340 H   0  0  0  0  0  0  0  0  0  0  0  0
   -8.3386   16.7658  -33.1140 H   0  0  0  0  0  0  0  0  0  0  0  0
   -8.9679   18.7321  -31.7207 H   0  0  0  0  0  0  0  0  0  0  0  0
   -7.3431   20.5851  -31.3601 H   0  0  0  0  0  0  0  0  0  0  0  0
   -3.4759   21.8343  -30.3742 H   0  0  0  0  0  0  0  0  0  0  0  0
   -0.9356   24.0491  -28.3887 H   0  0  0  0  0  0  0  0  0  0  0  0
   -0.2976   25.4985  -29.2580 H   0  0  0  0  0  0  0  0  0  0  0  0
   -2.0822   24.3459  -26.1654 H   0  0  0  0  0  0  0  0  0  0  0  0
   -2.0429   25.6430  -24.0351 H   0  0  0  0  0  0  0  0  0  0  0  0
   -1.0099   27.9155  -23.9727 H   0  0  0  0  0  0  0  0  0  0  0  0
   -0.0168   28.8934  -26.0434 H   0  0  0  0  0  0  0  0  0  0  0  0
   -0.0512   27.6015  -28.1793 H   0  0  0  0  0  0  0  0  0  0  0  0
  1  2  1  0
  2  3  2  0
  3  4  1  0
  4  5  2  0
  5  6  1  0
  6  7  2  0
  7  8  1  0
  8  9  1  0
  8 10  1  0
 10 11  2  0
 10 12  1  0
 12 13  2  0
 13 14  1  0
 14 15  2  0
 15 16  1  0
 16 17  2  0
  5 18  1  0
 18 19  2  0
 19 20  1  0
 20 21  2  0
 20 22  2  0
 20 23  1  0
 23 24  1  0
 24 25  1  0
 25 26  2  0
 26 27  1  0
 27 28  2  0
 28 29  1  0
 29 30  2  0
 19  2  1  0
 30 25  1  0
 17  6  1  0
 17 12  1  0
  1 31  1  0
  1 32  1  0
  1 33  1  0
  3 34  1  0
  4 35  1  0
  9 36  1  0
  9 37  1  0
  9 38  1  0
 13 39  1  0
 14 40  1  0
 15 41  1  0
 16 42  1  0
 18 43  1  0
 24 44  1  0
 24 45  1  0
 26 46  1  0
 27 47  1  0
 28 48  1  0
 29 49  1  0
 30 50  1  0
M  CHG  1  23  -1
M  END
>  <UniqueID>  (44) 
43

>  <SMILES>  (44) 
Cc1ccc(-c2nn(C)c(=O)c3ccccc23)cc1S(=O)(=O)[N-]Cc1ccccc1

>  <Energy>  (44) 
66.12286338101259

>  <Genealogy>  (44) 
Cc1ccc(-c2nn(C)c(=O)c3ccccc23)cc1S(=O)(=O)[N-]Cc1ccccc1 (protonated)
Cc1ccc(-c2nn(C)c(=O)c3ccccc23)cc1S(=O)(=O)[N-]Cc1ccccc1 (3D coordinates assigned)
Cc1ccc(-c2nn(C)c(=O)c3ccccc23)cc1S(=O)(=O)[N-]Cc1ccccc1 (optimized conformer: 66.12286338101259 kcal/mol)

>  <smiles>  (44) 
Cc1ccc(-c2nn(C)c(=O)c3ccccc23)cc1S(=O)(=O)NCc1ccccc1

>  <score_type>  (44) 
oracle

>  <origin>  (44) 
adgpu

>  <m_score__min__energy>  (44) 
-11.52

>  <m_primary>  (44) 
energy

$$$$
44:0
     RDKit          3D

 37 39  0  0  0  0  0  0  0  0999 V2000
    0.6590   27.5120  -23.3570 C   0  0  0  0  0  0  0  0  0  0  0  0
   -0.8100   27.1680  -23.5830 C   0  0  0  0  0  0  0  0  0  0  0  0
   -1.0330   26.6800  -24.9900 C   0  0  0  0  0  0  0  0  0  0  0  0
   -0.3020   27.2300  -26.0540 C   0  0  0  0  0  0  0  0  0  0  0  0
   -0.5320   26.8000  -27.3640 C   0  0  0  0  0  0  0  0  0  0  0  0
   -1.5010   25.8280  -27.6340 C   0  0  0  0  0  0  0  0  0  0  0  0
   -1.6940   25.4360  -28.9690 O   0  0  0  0  0  0  0  0  0  0  0  0
   -2.0130   24.1140  -29.4020 C   0  0  0  0  0  0  0  0  0  0  0  0
   -3.3220   24.1020  -30.1240 C   0  0  0  0  0  0  0  0  0  0  0  0
   -4.0760   23.0000  -30.3000 N   0  0  0  0  0  0  0  0  0  0  0  0
   -5.1240   23.5030  -30.9890 C   0  0  0  0  0  0  0  0  0  0  0  0
   -6.2760   22.6920  -31.4400 C   0  0  0  0  0  0  0  0  0  0  0  0
   -7.5910   23.1280  -31.2000 C   0  0  0  0  0  0  0  0  0  0  0  0
   -8.6790   22.3590  -31.6260 C   0  0  0  0  0  0  0  0  0  0  0  0
   -8.4640   21.1510  -32.2940 C   0  0  0  0  0  0  0  0  0  0  0  0
   -7.1610   20.7100  -32.5380 C   0  0  0  0  0  0  0  0  0  0  0  0
   -6.0710   21.4750  -32.1140 C   0  0  0  0  0  0  0  0  0  0  0  0
   -5.0010   24.8260  -31.2160 N   0  0  0  0  0  0  0  0  0  0  0  0
   -3.8730   25.1580  -30.6670 O   0  0  0  0  0  0  0  0  0  0  0  0
   -2.2410   25.2820  -26.5680 C   0  0  0  0  0  0  0  0  0  0  0  0
   -2.0110   25.7110  -25.2570 C   0  0  0  0  0  0  0  0  0  0  0  0
    0.8625   27.5596  -22.2770 H   0  0  0  0  0  0  0  0  0  0  0  0
    1.2916   26.7377  -23.8155 H   0  0  0  0  0  0  0  0  0  0  0  0
    0.8821   28.4867  -23.8155 H   0  0  0  0  0  0  0  0  0  0  0  0
   -1.1091   26.3801  -22.8761 H   0  0  0  0  0  0  0  0  0  0  0  0
   -1.4135   28.0737  -23.4234 H   0  0  0  0  0  0  0  0  0  0  0  0
    0.4553   28.0029  -25.8563 H   0  0  0  0  0  0  0  0  0  0  0  0
    0.0541   27.2297  -28.1897 H   0  0  0  0  0  0  0  0  0  0  0  0
   -1.2233   23.7538  -30.0778 H   0  0  0  0  0  0  0  0  0  0  0  0
   -2.0859   23.4587  -28.5215 H   0  0  0  0  0  0  0  0  0  0  0  0
   -7.7651   24.0786  -30.6746 H   0  0  0  0  0  0  0  0  0  0  0  0
   -9.7052   22.7059  -31.4348 H   0  0  0  0  0  0  0  0  0  0  0  0
   -9.3206   20.5471  -32.6279 H   0  0  0  0  0  0  0  0  0  0  0  0
   -6.9927   19.7591  -33.0647 H   0  0  0  0  0  0  0  0  0  0  0  0
   -5.0471   21.1232  -32.3086 H   0  0  0  0  0  0  0  0  0  0  0  0
   -3.0035   24.5146  -26.7672 H   0  0  0  0  0  0  0  0  0  0  0  0
   -2.6002   25.2862  -24.4310 H   0  0  0  0  0  0  0  0  0  0  0  0
  1  2  1  0
  2  3  1  0
  3  4  2  0
  4  5  1  0
  5  6  2  0
  6  7  1  0
  7  8  1  0
  8  9  1  0
  9 10  2  0
 10 11  1  0
 11 12  1  0
 12 13  2  0
 13 14  1  0
 14 15  2  0
 15 16  1  0
 16 17  2  0
 11 18  2  0
 18 19  1  0
  6 20  1  0
 20 21  2  0
 21  3  1  0
 19  9  1  0
 17 12  1  0
  1 22  1  0
  1 23  1  0
  1 24  1  0
  2 25  1  0
  2 26  1  0
  4 27  1  0
  5 28  1  0
  8 29  1  0
  8 30  1  0
 13 31  1  0
 14 32  1  0
 15 33  1  0
 16 34  1  0
 17 35  1  0
 20 36  1  0
 21 37  1  0
M  END
>  <UniqueID>  (45) 
44

>  <SMILES>  (45) 
CCc1ccc(OCc2nc(-c3ccccc3)no2)cc1

>  <Energy>  (45) 
68.50590891057216

>  <Genealogy>  (45) 
CCc1ccc(OCc2nc(-c3ccccc3)no2)cc1 (3D coordinates assigned)
CCc1ccc(OCc2nc(-c3ccccc3)no2)cc1 (optimized conformer: 68.50590891057216 kcal/mol)

>  <smiles>  (45) 
CCc1ccc(OCc2nc(-c3ccccc3)no2)cc1

>  <score_type>  (45) 
oracle

>  <origin>  (45) 
adgpu

>  <m_score__min__energy>  (45) 
-9.0099999999999998

>  <m_primary>  (45) 
energy

$$$$
45:0
     RDKit          3D

 47 50  0  0  0  0  0  0  0  0999 V2000
   -2.6390   24.9060  -29.6460 O   0  0  0  0  0  0  0  0  0  0  0  0
   -3.0230   23.7770  -30.0510 C   0  0  0  0  0  0  0  0  0  0  0  0
   -3.8570   23.7110  -31.2160 N   0  0  0  0  0  0  0  0  0  0  0  0
   -5.2420   23.3320  -31.2570 C   0  0  0  0  0  0  0  0  0  0  0  0
   -6.2630   24.2080  -30.8490 C   0  0  0  0  0  0  0  0  0  0  0  0
   -7.5970   23.7960  -30.8820 C   0  0  0  0  0  0  0  0  0  0  0  0
   -7.9220   22.5060  -31.3090 C   0  0  0  0  0  0  0  0  0  0  0  0
   -6.9120   21.6190  -31.6990 C   0  0  0  0  0  0  0  0  0  0  0  0
   -7.3350   19.9870  -32.2110 S   0  0  0  0  0  0  0  0  0  0  0  0
   -8.1980   19.3630  -31.1490 O   0  0  0  0  0  0  0  0  0  0  0  0
   -8.1170   20.0370  -33.4950 O   0  0  0  0  0  0  0  0  0  0  0  0
   -5.8810   19.0360  -32.4260 N   0  0  0  0  0  0  0  0  0  0  0  0
   -5.5380   18.9040  -33.8480 C   0  0  0  0  0  0  0  0  0  0  0  0
   -6.1480   17.6040  -34.3530 C   0  0  0  0  0  0  0  0  0  0  0  0
   -6.5070   16.8080  -33.1100 C   0  0  0  0  0  0  0  0  0  0  0  0
   -6.0680   17.6660  -31.9330 C   0  0  0  0  0  0  0  0  0  0  0  0
   -5.5730   22.0320  -31.6600 C   0  0  0  0  0  0  0  0  0  0  0  0
   -2.6810   22.5680  -29.2640 C   0  0  0  0  0  0  0  0  0  0  0  0
   -2.7080   22.6430  -27.8600 C   0  0  0  0  0  0  0  0  0  0  0  0
   -2.3140   21.5560  -27.0810 C   0  0  0  0  0  0  0  0  0  0  0  0
   -1.8740   20.3820  -27.6910 C   0  0  0  0  0  0  0  0  0  0  0  0
   -1.8370   20.2880  -29.0830 C   0  0  0  0  0  0  0  0  0  0  0  0
   -2.2520   21.3650  -29.8840 C   0  0  0  0  0  0  0  0  0  0  0  0
   -2.2560   21.2010  -31.3120 N   0  0  0  0  0  0  0  0  0  0  0  0
   -1.4290   21.7750  -32.2040 C   0  0  0  0  0  0  0  0  0  0  0  0
   -1.7790   21.4630  -33.4670 N   0  0  0  0  0  0  0  0  0  0  0  0
   -2.8660   20.6810  -33.2820 C   0  0  0  0  0  0  0  0  0  0  0  0
   -3.1740   20.5260  -31.9800 N   0  0  0  0  0  0  0  0  0  0  0  0
   -6.0104   25.2211  -30.5027 H   0  0  0  0  0  0  0  0  0  0  0  0
   -8.3933   24.4884  -30.5712 H   0  0  0  0  0  0  0  0  0  0  0  0
   -8.9742   22.1867  -31.3387 H   0  0  0  0  0  0  0  0  0  0  0  0
   -5.1000   19.5050  -31.9080 H   0  0  0  0  0  0  0  0  0  0  0  0
   -5.9480   19.7543  -34.4127 H   0  0  0  0  0  0  0  0  0  0  0  0
   -4.4462   18.8944  -33.9815 H   0  0  0  0  0  0  0  0  0  0  0  0
   -7.0486   17.8095  -34.9502 H   0  0  0  0  0  0  0  0  0  0  0  0
   -5.4502   17.0528  -35.0005 H   0  0  0  0  0  0  0  0  0  0  0  0
   -7.5913   16.6271  -33.0699 H   0  0  0  0  0  0  0  0  0  0  0  0
   -6.0159   15.8237  -33.1014 H   0  0  0  0  0  0  0  0  0  0  0  0
   -6.8404   17.6516  -31.1499 H   0  0  0  0  0  0  0  0  0  0  0  0
   -5.1324   17.2801  -31.5021 H   0  0  0  0  0  0  0  0  0  0  0  0
   -4.7765   21.3301  -31.9480 H   0  0  0  0  0  0  0  0  0  0  0  0
   -3.0437   23.5694  -27.3711 H   0  0  0  0  0  0  0  0  0  0  0  0
   -2.3503   21.6247  -25.9837 H   0  0  0  0  0  0  0  0  0  0  0  0
   -1.5556   19.5286  -27.0743 H   0  0  0  0  0  0  0  0  0  0  0  0
   -1.4796   19.3621  -29.5573 H   0  0  0  0  0  0  0  0  0  0  0  0
   -0.5765   22.4167  -31.9366 H   0  0  0  0  0  0  0  0  0  0  0  0
   -3.4357   20.2222  -34.1035 H   0  0  0  0  0  0  0  0  0  0  0  0
  1  2  2  0
  2  3  1  0
  3  4  1  0
  4  5  2  0
  5  6  1  0
  6  7  2  0
  7  8  1  0
  8  9  1  0
  9 10  2  0
  9 11  2  0
  9 12  1  0
 12 13  1  0
 13 14  1  0
 14 15  1  0
 15 16  1  0
  8 17  2  0
  2 18  1  0
 18 19  2  0
 19 20  1  0
 20 21  2  0
 21 22  1  0
 22 23  2  0
 23 24  1  0
 24 25  1  0
 25 26  2  0
 26 27  1  0
 27 28  2  0
 17  4  1  0
 23 18  1  0
 28 24  1  0
 16 12  1  0
  5 29  1  0
  6 30  1  0
  7 31  1  0
 12 32  1  0
 13 33  1  0
 13 34  1  0
 14 35  1  0
 14 36  1  0
 15 37  1  0
 15 38  1  0
 16 39  1  0
 16 40  1  0
 17 41  1  0
 19 42  1  0
 20 43  1  0
 21 44  1  0
 22 45  1  0
 25 46  1  0
 27 47  1  0
M  CHG  2   3  -1  12   1
M  END
>  <UniqueID>  (46) 
45

>  <SMILES>  (46) 
O=C([N-]c1cccc(S(=O)(=O)[NH+]2CCCC2)c1)c1ccccc1-n1cncn1

>  <Energy>  (46) 
97.74556156427734

>  <Genealogy>  (46) 
O=C([N-]c1cccc(S(=O)(=O)[NH+]2CCCC2)c1)c1ccccc1-n1cncn1 (protonated)
O=C([N-]c1cccc(S(=O)(=O)[NH+]2CCCC2)c1)c1ccccc1-n1cncn1 (3D coordinates assigned)
O=C([N-]c1cccc(S(=O)(=O)[NH+]2CCCC2)c1)c1ccccc1-n1cncn1 (nonaromatic ring conformer: 97.74556156427734 kcal/mol)

>  <smiles>  (46) 
O=C(Nc1cccc(S(=O)(=O)N2CCCC2)c1)c1ccccc1-n1cncn1

>  <score_type>  (46) 
oracle

>  <origin>  (46) 
adgpu

>  <m_score__min__energy>  (46) 
-9.9100000000000001

>  <m_primary>  (46) 
energy

$$$$
46:0
     RDKit          3D

 55 58  0  0  0  0  0  0  0  0999 V2000
   -8.4994   20.2968  -32.9198 H   0  0  0  0  0  0  0  0  0  0  0  0
   -7.8850   21.0250  -32.3700 C   0  0  0  0  0  0  0  0  0  0  0  0
   -8.4870   21.9110  -31.4790 C   0  0  0  0  0  0  0  0  0  0  0  0
   -9.5742   21.8731  -31.3158 H   0  0  0  0  0  0  0  0  0  0  0  0
   -7.7110   22.8460  -30.7940 C   0  0  0  0  0  0  0  0  0  0  0  0
   -8.1930   23.5412  -30.0908 H   0  0  0  0  0  0  0  0  0  0  0  0
   -6.3210   22.9110  -30.9910 C   0  0  0  0  0  0  0  0  0  0  0  0
   -5.4170   24.1950  -30.1670 S   0  0  0  0  0  0  0  0  0  0  0  0
   -6.3350   25.0230  -29.3120 O   0  0  0  0  0  0  0  0  0  0  0  0
   -4.7630   25.0750  -31.1920 O   0  0  0  0  0  0  0  0  0  0  0  0
   -4.1870   23.5180  -29.1480 N   0  0  0  0  0  0  0  0  0  0  0  0
   -3.0670   24.1270  -28.9160 C   0  0  0  0  0  0  0  0  0  0  0  0
   -2.7350   25.2990  -29.4040 O   0  0  0  0  0  0  0  0  0  0  0  0
   -1.5530   25.6510  -28.9840 N   0  0  0  0  0  0  0  0  0  0  0  0
   -1.1020   24.6540  -28.1920 C   0  0  0  0  0  0  0  0  0  0  0  0
    0.2080   24.6800  -27.4770 C   0  0  0  0  0  0  0  0  0  0  0  0
    0.0331   24.6765  -26.3910 H   0  0  0  0  0  0  0  0  0  0  0  0
    0.7960   23.7933  -27.7565 H   0  0  0  0  0  0  0  0  0  0  0  0
    0.7603   25.5893  -27.7565 H   0  0  0  0  0  0  0  0  0  0  0  0
   -2.0530   23.6570  -28.1200 C   0  0  0  0  0  0  0  0  0  0  0  0
   -1.9920   22.1560  -27.2120 Cl  0  0  0  0  0  0  0  0  0  0  0  0
   -5.7020   21.9830  -31.8710 C   0  0  0  0  0  0  0  0  0  0  0  0
   -4.2390   21.9300  -32.0850 C   0  0  0  0  0  0  0  0  0  0  0  0
   -3.5430   22.9740  -31.9720 O   0  0  0  0  0  0  0  0  0  0  0  0
   -3.6250   20.6810  -32.4330 N   0  0  0  0  0  0  0  0  0  0  0  0
   -2.3460   20.2050  -31.9900 C   0  0  0  0  0  0  0  0  0  0  0  0
   -1.6280   19.2240  -32.6970 C   0  0  0  0  0  0  0  0  0  0  0  0
   -2.0516   18.7901  -33.6148 H   0  0  0  0  0  0  0  0  0  0  0  0
   -0.3780   18.7980  -32.2380 C   0  0  0  0  0  0  0  0  0  0  0  0
    0.1762   18.0294  -32.7966 H   0  0  0  0  0  0  0  0  0  0  0  0
    0.1750   19.3450  -31.0680 C   0  0  0  0  0  0  0  0  0  0  0  0
    1.5010   18.8920  -30.5890 C   0  0  0  0  0  0  0  0  0  0  0  0
    2.5170   19.1050  -31.3070 O   0  0  0  0  0  0  0  0  0  0  0  0
    1.6600   18.2220  -29.3240 N   0  0  0  0  0  0  0  0  0  0  0  0
    0.6430   17.2740  -28.8430 C   0  0  0  0  0  0  0  0  0  0  0  0
    0.0103   17.7690  -28.0916 H   0  0  0  0  0  0  0  0  0  0  0  0
    0.0264   16.9449  -29.6924 H   0  0  0  0  0  0  0  0  0  0  0  0
    1.3190   16.0550  -28.2120 C   0  0  0  0  0  0  0  0  0  0  0  0
    0.5415   15.3859  -27.8146 H   0  0  0  0  0  0  0  0  0  0  0  0
    1.9154   15.5602  -28.9926 H   0  0  0  0  0  0  0  0  0  0  0  0
    2.2740   16.4420  -27.0640 C   0  0  0  0  0  0  0  0  0  0  0  0
    1.7430   16.3058  -26.1103 H   0  0  0  0  0  0  0  0  0  0  0  0
    3.1580   15.7930  -27.1499 H   0  0  0  0  0  0  0  0  0  0  0  0
    2.7760   17.8960  -27.1370 C   0  0  0  0  0  0  0  0  0  0  0  0
    2.0599   18.5449  -26.6116 H   0  0  0  0  0  0  0  0  0  0  0  0
    3.7699   17.9342  -26.6673 H   0  0  0  0  0  0  0  0  0  0  0  0
    2.9190   18.3870  -28.5820 C   0  0  0  0  0  0  0  0  0  0  0  0
    3.1945   19.4519  -28.5740 H   0  0  0  0  0  0  0  0  0  0  0  0
    3.6981   17.7900  -29.0785 H   0  0  0  0  0  0  0  0  0  0  0  0
   -0.5260   20.3560  -30.3910 C   0  0  0  0  0  0  0  0  0  0  0  0
   -0.0905   20.8138  -29.4906 H   0  0  0  0  0  0  0  0  0  0  0  0
   -1.7720   20.7840  -30.8530 C   0  0  0  0  0  0  0  0  0  0  0  0
   -2.3068   21.5830  -30.3187 H   0  0  0  0  0  0  0  0  0  0  0  0
   -6.5040   21.0600  -32.5660 C   0  0  0  0  0  0  0  0  0  0  0  0
   -6.0371   20.3576  -33.2722 H   0  0  0  0  0  0  0  0  0  0  0  0
  1  2  1  0
  2  3  2  0
  3  4  1  0
  3  5  1  0
  5  6  1  0
  5  7  2  0
  7  8  1  0
  8  9  2  0
  8 10  2  0
  8 11  1  0
 11 12  2  0
 12 13  1  0
 13 14  1  0
 14 15  1  0
 15 16  1  0
 16 17  1  0
 16 18  1  0
 16 19  1  0
 15 20  2  0
 20 21  1  0
  7 22  1  0
 22 23  1  0
 23 24  2  0
 23 25  1  0
 25 26  1  0
 26 27  2  0
 27 28  1  0
 27 29  1  0
 29 30  1  0
 29 31  2  0
 31 32  1  0
 32 33  2  0
 32 34  1  0
 34 35  1  0
 35 36  1  0
 35 37  1  0
 35 38  1  0
 38 39  1  0
 38 40  1  0
 38 41  1  0
 41 42  1  0
 41 43  1  0
 41 44  1  0
 44 45  1  0
 44 46  1  0
 44 47  1  0
 47 48  1  0
 47 49  1  0
 31 50  1  0
 50 51  1  0
 50 52  2  0
 52 53  1  0
 22 54  2  0
 54 55  1  0
 54  2  1  0
 20 12  1  0
 52 26  1  0
 47 34  1  0
M  CHG  2  14  -1  25  -1
M  END
>  <UniqueID>  (47) 
46

>  <SMILES>  (47) 
Cc1[n-]o/c(=N\S(=O)(=O)c2ccccc2C(=O)[N-]c2ccc(C(=O)N3CCCCC3)cc2)c1Cl

>  <Energy>  (47) 
107.3330647133468

>  <Genealogy>  (47) 
Cc1[n-]oc(=NS(=O)(=O)c2ccccc2C(=O)[N-]c2ccc(C(=O)N3CCCCC3)cc2)c1Cl (protonated)
Cc1[n-]o/c(=N\S(=O)(=O)c2ccccc2C(=O)[N-]c2ccc(C(=O)N3CCCCC3)cc2)c1Cl (cis-trans isomerization)
Cc1[n-]o/c(=N\S(=O)(=O)c2ccccc2C(=O)[N-]c2ccc(C(=O)N3CCCCC3)cc2)c1Cl (3D coordinates assigned)
Cc1[n-]o/c(=N\S(=O)(=O)c2ccccc2C(=O)[N-]c2ccc(C(=O)N3CCCCC3)cc2)c1Cl (nonaromatic ring conformer: 107.3330647133468 kcal/mol)

>  <smiles>  (47) 
Cc1[nH]oc(=NS(=O)(=O)c2ccccc2C(=O)Nc2ccc(C(=O)N3CCCCC3)cc2)c1Cl

>  <score_type>  (47) 
oracle

>  <origin>  (47) 
adgpu

>  <m_score__min__energy>  (47) 
-12.67

>  <m_primary>  (47) 
energy

$$$$
47:0
     RDKit          3D

 44 46  0  0  0  0  0  0  0  0999 V2000
   -7.9800   23.2780  -31.9610 C   0  0  0  0  0  0  0  0  0  0  0  0
   -7.7260   22.0670  -31.2580 O   0  0  0  0  0  0  0  0  0  0  0  0
   -7.6110   20.8020  -31.8590 C   0  0  0  0  0  0  0  0  0  0  0  0
   -8.5270   19.7670  -31.5890 C   0  0  0  0  0  0  0  0  0  0  0  0
   -8.3550   18.5030  -32.1610 C   0  0  0  0  0  0  0  0  0  0  0  0
   -7.2690   18.2570  -33.0010 C   0  0  0  0  0  0  0  0  0  0  0  0
   -6.3580   19.2770  -33.2830 C   0  0  0  0  0  0  0  0  0  0  0  0
   -6.5310   20.5550  -32.7360 C   0  0  0  0  0  0  0  0  0  0  0  0
   -5.5900   21.5450  -33.0490 O   0  0  0  0  0  0  0  0  0  0  0  0
   -4.2540   21.5160  -32.6320 C   0  0  0  0  0  0  0  0  0  0  0  0
   -3.2790   21.0620  -33.4690 N   0  0  0  0  0  0  0  0  0  0  0  0
   -1.9700   21.0420  -33.1050 C   0  0  0  0  0  0  0  0  0  0  0  0
   -1.5900   21.4970  -31.8430 C   0  0  0  0  0  0  0  0  0  0  0  0
   -2.5660   21.9610  -30.9610 C   0  0  0  0  0  0  0  0  0  0  0  0
   -3.9160   21.9670  -31.3460 C   0  0  0  0  0  0  0  0  0  0  0  0
   -4.9300   22.4650  -30.4630 N   0  0  0  0  0  0  0  0  0  0  0  0
   -4.9790   24.1390  -30.0170 S   0  0  0  0  0  0  0  0  0  0  0  0
   -4.6010   24.9860  -31.1990 O   0  0  0  0  0  0  0  0  0  0  0  0
   -6.3700   24.5040  -29.5810 O   0  0  0  0  0  0  0  0  0  0  0  0
   -3.8140   24.4120  -28.7250 C   0  0  0  0  0  0  0  0  0  0  0  0
   -4.2670   24.5430  -27.4070 C   0  0  0  0  0  0  0  0  0  0  0  0
   -3.3630   24.8100  -26.3760 C   0  0  0  0  0  0  0  0  0  0  0  0
   -1.9970   24.9690  -26.6560 C   0  0  0  0  0  0  0  0  0  0  0  0
   -1.0300   25.2390  -25.5410 C   0  0  0  0  0  0  0  0  0  0  0  0
   -1.5420   24.8250  -27.9760 C   0  0  0  0  0  0  0  0  0  0  0  0
   -2.4480   24.5540  -29.0080 C   0  0  0  0  0  0  0  0  0  0  0  0
   -8.1506   24.0914  -31.2404 H   0  0  0  0  0  0  0  0  0  0  0  0
   -7.1138   23.5237  -32.5930 H   0  0  0  0  0  0  0  0  0  0  0  0
   -8.8719   23.1549  -32.5930 H   0  0  0  0  0  0  0  0  0  0  0  0
   -9.3830   19.9542  -30.9240 H   0  0  0  0  0  0  0  0  0  0  0  0
   -9.0773   17.7011  -31.9483 H   0  0  0  0  0  0  0  0  0  0  0  0
   -7.1301   17.2587  -33.4416 H   0  0  0  0  0  0  0  0  0  0  0  0
   -5.4985   19.0756  -33.9393 H   0  0  0  0  0  0  0  0  0  0  0  0
   -1.2100   20.6668  -33.8061 H   0  0  0  0  0  0  0  0  0  0  0  0
   -0.5309   21.4901  -31.5458 H   0  0  0  0  0  0  0  0  0  0  0  0
   -2.2776   22.3225  -29.9629 H   0  0  0  0  0  0  0  0  0  0  0  0
   -5.7990   21.9050  -30.3130 H   0  0  0  0  0  0  0  0  0  0  0  0
   -5.3384   24.4353  -27.1824 H   0  0  0  0  0  0  0  0  0  0  0  0
   -3.7234   24.8960  -25.3403 H   0  0  0  0  0  0  0  0  0  0  0  0
   -1.5360   25.0977  -24.5746 H   0  0  0  0  0  0  0  0  0  0  0  0
   -0.1810   24.5436  -25.6155 H   0  0  0  0  0  0  0  0  0  0  0  0
   -0.6641   26.2737  -25.6155 H   0  0  0  0  0  0  0  0  0  0  0  0
   -0.4698   24.9255  -28.2002 H   0  0  0  0  0  0  0  0  0  0  0  0
   -2.0879   24.4523  -30.0424 H   0  0  0  0  0  0  0  0  0  0  0  0
  1  2  1  0
  2  3  1  0
  3  4  2  0
  4  5  1  0
  5  6  2  0
  6  7  1  0
  7  8  2  0
  8  9  1  0
  9 10  1  0
 10 11  2  0
 11 12  1  0
 12 13  2  0
 13 14  1  0
 14 15  2  0
 15 16  1  0
 16 17  1  0
 17 18  2  0
 17 19  2  0
 17 20  1  0
 20 21  2  0
 21 22  1  0
 22 23  2  0
 23 24  1  0
 23 25  1  0
 25 26  2  0
  8  3  1  0
 15 10  1  0
 26 20  1  0
  1 27  1  0
  1 28  1  0
  1 29  1  0
  4 30  1  0
  5 31  1  0
  6 32  1  0
  7 33  1  0
 12 34  1  0
 13 35  1  0
 14 36  1  0
 16 37  1  0
 21 38  1  0
 22 39  1  0
 24 40  1  0
 24 41  1  0
 24 42  1  0
 25 43  1  0
 26 44  1  0
M  END
>  <UniqueID>  (48) 
47

>  <SMILES>  (48) 
COc1ccccc1Oc1ncccc1NS(=O)(=O)c1ccc(C)cc1

>  <Energy>  (48) 
54.19038110712983

>  <Genealogy>  (48) 
COc1ccccc1Oc1ncccc1NS(=O)(=O)c1ccc(C)cc1 (3D coordinates assigned)
COc1ccccc1Oc1ncccc1NS(=O)(=O)c1ccc(C)cc1 (optimized conformer: 54.19038110712983 kcal/mol)

>  <smiles>  (48) 
COc1ccccc1Oc1ncccc1NS(=O)(=O)c1ccc(C)cc1

>  <score_type>  (48) 
oracle

>  <origin>  (48) 
adgpu

>  <m_score__min__energy>  (48) 
-9.2599999999999998

>  <m_primary>  (48) 
energy

$$$$
48:0
     RDKit          3D

 36 38  0  0  0  0  0  0  0  0999 V2000
   -6.7110   23.3710  -33.4050 H   0  0  0  0  0  0  0  0  0  0  0  0
   -5.8840   23.7990  -32.9350 N   0  0  0  0  0  0  0  0  0  0  0  0
   -5.6690   23.6890  -31.6630 C   0  0  0  0  0  0  0  0  0  0  0  0
   -4.5970   24.2400  -31.0600 N   0  0  0  0  0  0  0  0  0  0  0  0
   -4.7390   23.8910  -29.7610 C   0  0  0  0  0  0  0  0  0  0  0  0
   -3.7750   24.2770  -28.7000 C   0  0  0  0  0  0  0  0  0  0  0  0
   -2.3970   24.3990  -28.9700 C   0  0  0  0  0  0  0  0  0  0  0  0
   -2.0200   24.2058  -29.9851 H   0  0  0  0  0  0  0  0  0  0  0  0
   -1.5060   24.7640  -27.9560 C   0  0  0  0  0  0  0  0  0  0  0  0
   -0.4324   24.8570  -28.1768 H   0  0  0  0  0  0  0  0  0  0  0  0
   -1.9750   25.0110  -26.6630 C   0  0  0  0  0  0  0  0  0  0  0  0
   -0.8540   25.4690  -25.3950 Cl  0  0  0  0  0  0  0  0  0  0  0  0
   -3.3380   24.8920  -26.3830 C   0  0  0  0  0  0  0  0  0  0  0  0
   -3.7078   25.0851  -25.3652 H   0  0  0  0  0  0  0  0  0  0  0  0
   -4.2340   24.5280  -27.3930 C   0  0  0  0  0  0  0  0  0  0  0  0
   -5.3061   24.4370  -27.1644 H   0  0  0  0  0  0  0  0  0  0  0  0
   -5.8910   23.1360  -29.6060 C   0  0  0  0  0  0  0  0  0  0  0  0
   -6.2639   22.7099  -28.6630 H   0  0  0  0  0  0  0  0  0  0  0  0
   -6.4710   23.0170  -30.8110 N   0  0  0  0  0  0  0  0  0  0  0  0
   -7.9280   22.1430  -31.1640 S   0  0  0  0  0  0  0  0  0  0  0  0
   -8.7540   22.9440  -32.1330 O   0  0  0  0  0  0  0  0  0  0  0  0
   -8.7170   21.9380  -29.9020 O   0  0  0  0  0  0  0  0  0  0  0  0
   -7.5250   20.5720  -31.8480 C   0  0  0  0  0  0  0  0  0  0  0  0
   -8.3470   19.4660  -31.5920 C   0  0  0  0  0  0  0  0  0  0  0  0
   -9.2437   19.5827  -30.9657 H   0  0  0  0  0  0  0  0  0  0  0  0
   -8.0310   18.2150  -32.1300 C   0  0  0  0  0  0  0  0  0  0  0  0
   -8.6840   17.3523  -31.9316 H   0  0  0  0  0  0  0  0  0  0  0  0
   -6.8840   18.0560  -32.9220 C   0  0  0  0  0  0  0  0  0  0  0  0
   -6.5680   16.7230  -33.5330 C   0  0  0  0  0  0  0  0  0  0  0  0
   -6.3933   15.9861  -32.7352 H   0  0  0  0  0  0  0  0  0  0  0  0
   -7.4134   16.3955  -34.1559 H   0  0  0  0  0  0  0  0  0  0  0  0
   -5.6656   16.8099  -34.1559 H   0  0  0  0  0  0  0  0  0  0  0  0
   -6.0760   19.1690  -33.1970 C   0  0  0  0  0  0  0  0  0  0  0  0
   -5.1900   19.0571  -33.8392 H   0  0  0  0  0  0  0  0  0  0  0  0
   -6.3920   20.4210  -32.6580 C   0  0  0  0  0  0  0  0  0  0  0  0
   -5.7496   21.2883  -32.8707 H   0  0  0  0  0  0  0  0  0  0  0  0
  1  2  1  0
  2  3  2  0
  3  4  1  0
  4  5  1  0
  5  6  1  0
  6  7  2  0
  7  8  1  0
  7  9  1  0
  9 10  1  0
  9 11  2  0
 11 12  1  0
 11 13  1  0
 13 14  1  0
 13 15  2  0
 15 16  1  0
  5 17  2  0
 17 18  1  0
 17 19  1  0
 19 20  1  0
 20 21  2  0
 20 22  2  0
 20 23  1  0
 23 24  2  0
 24 25  1  0
 24 26  1  0
 26 27  1  0
 26 28  2  0
 28 29  1  0
 29 30  1  0
 29 31  1  0
 29 32  1  0
 28 33  1  0
 33 34  1  0
 33 35  2  0
 35 36  1  0
 19  3  1  0
 35 23  1  0
 15  6  1  0
M  CHG  1   4  -1
M  END
>  <UniqueID>  (49) 
48

>  <SMILES>  (49) 
[H]/N=c1/[n-]c(-c2ccc(Cl)cc2)cn1S(=O)(=O)c1ccc(C)cc1

>  <Energy>  (49) 
71.82244821313985

>  <Genealogy>  (49) 
Cc1ccc(S(=O)(=O)n2cc(-c3ccc(Cl)cc3)[n-]c2=N)cc1 (protonated)
[H]/N=c1/[n-]c(-c2ccc(Cl)cc2)cn1S(=O)(=O)c1ccc(C)cc1 (cis-trans isomerization)
[H]/N=c1/[n-]c(-c2ccc(Cl)cc2)cn1S(=O)(=O)c1ccc(C)cc1 (3D coordinates assigned)
[H]/N=c1/[n-]c(-c2ccc(Cl)cc2)cn1S(=O)(=O)c1ccc(C)cc1 (optimized conformer: 71.82244821313985 kcal/mol)

>  <smiles>  (49) 
Cc1ccc(S(=O)(=O)n2cc(-c3ccc(Cl)cc3)[nH]c2=N)cc1

>  <score_type>  (49) 
oracle

>  <origin>  (49) 
adgpu

>  <m_score__min__energy>  (49) 
-10.19

>  <m_primary>  (49) 
energy

$$$$
49:0
     RDKit          3D

 27 28  0  0  0  0  0  0  0  0999 V2000
   -2.0840   22.1550  -29.8650 C   0  0  0  0  0  0  0  0  0  0  0  0
   -3.1770   23.0880  -30.1920 N   0  0  0  0  0  0  0  0  0  0  0  0
   -4.3020   22.6180  -30.8230 C   0  0  0  0  0  0  0  0  0  0  0  0
   -4.3930   21.2260  -31.1780 N   0  0  0  0  0  0  0  0  0  0  0  0
   -5.0260   20.6780  -32.3420 C   0  0  0  0  0  0  0  0  0  0  0  0
   -4.4080   20.6550  -33.4400 O   0  0  0  0  0  0  0  0  0  0  0  0
   -6.4370   20.2200  -32.2650 C   0  0  0  0  0  0  0  0  0  0  0  0
   -7.4500   21.1730  -32.0380 C   0  0  0  0  0  0  0  0  0  0  0  0
   -8.7910   20.7880  -31.9690 C   0  0  0  0  0  0  0  0  0  0  0  0
   -9.1430   19.4480  -32.1230 C   0  0  0  0  0  0  0  0  0  0  0  0
   -8.1550   18.4870  -32.3400 C   0  0  0  0  0  0  0  0  0  0  0  0
   -6.8040   18.8580  -32.4090 C   0  0  0  0  0  0  0  0  0  0  0  0
   -5.6250   17.5670  -32.6210 Cl  0  0  0  0  0  0  0  0  0  0  0  0
   -5.3240   23.5120  -31.1780 C   0  0  0  0  0  0  0  0  0  0  0  0
   -5.1800   24.8590  -30.8620 C   0  0  0  0  0  0  0  0  0  0  0  0
   -6.0840   25.6800  -31.1620 O   0  0  0  0  0  0  0  0  0  0  0  0
   -4.0570   25.2870  -30.2390 N   0  0  0  0  0  0  0  0  0  0  0  0
   -3.0580   24.4280  -29.9110 C   0  0  0  0  0  0  0  0  0  0  0  0
   -2.0250   24.8840  -29.3520 O   0  0  0  0  0  0  0  0  0  0  0  0
   -1.9871   22.0723  -28.7724 H   0  0  0  0  0  0  0  0  0  0  0  0
   -2.3077   21.1651  -30.2893 H   0  0  0  0  0  0  0  0  0  0  0  0
   -1.1414   22.5313  -30.2893 H   0  0  0  0  0  0  0  0  0  0  0  0
   -7.1816   22.2325  -31.9137 H   0  0  0  0  0  0  0  0  0  0  0  0
   -9.5707   21.5436  -31.7928 H   0  0  0  0  0  0  0  0  0  0  0  0
  -10.2002   19.1481  -32.0734 H   0  0  0  0  0  0  0  0  0  0  0  0
   -8.4376   17.4305  -32.4579 H   0  0  0  0  0  0  0  0  0  0  0  0
   -6.2246   23.1532  -31.6979 H   0  0  0  0  0  0  0  0  0  0  0  0
  1  2  1  0
  2  3  1  0
  3  4  1  0
  4  5  1  0
  5  6  2  0
  5  7  1  0
  7  8  2  0
  8  9  1  0
  9 10  2  0
 10 11  1  0
 11 12  2  0
 12 13  1  0
  3 14  2  0
 14 15  1  0
 15 16  2  0
 15 17  1  0
 17 18  1  0
 18 19  2  0
 18  2  1  0
 12  7  1  0
  1 20  1  0
  1 21  1  0
  1 22  1  0
  8 23  1  0
  9 24  1  0
 10 25  1  0
 11 26  1  0
 14 27  1  0
M  CHG  2   4  -1  17  -1
M  END
>  <UniqueID>  (50) 
49

>  <SMILES>  (50) 
Cn1c([N-]C(=O)c2ccccc2Cl)cc(=O)[n-]c1=O

>  <Energy>  (50) 
40.01091678923986

>  <Genealogy>  (50) 
Cn1c([N-]C(=O)c2ccccc2Cl)cc(=O)[n-]c1=O (protonated)
Cn1c([N-]C(=O)c2ccccc2Cl)cc(=O)[n-]c1=O (3D coordinates assigned)
Cn1c([N-]C(=O)c2ccccc2Cl)cc(=O)[n-]c1=O (optimized conformer: 40.01091678923986 kcal/mol)

>  <smiles>  (50) 
Cn1c(NC(=O)c2ccccc2Cl)cc(=O)[nH]c1=O

>  <score_type>  (50) 
oracle

>  <origin>  (50) 
adgpu

>  <m_score__min__energy>  (50) 
-8.2400000000000002

>  <m_primary>  (50) 
energy

$$$$
