0:0
     RDKit          3D

 41 42  0  0  0  0  0  0  0  0999 V2000
   -3.0590   18.1630  -35.3070 H   0  0  0  0  0  0  0  0  0  0  0  0
   -3.8180   17.5000  -35.1970 O   0  0  0  0  0  0  0  0  0  0  0  0
   -4.8900   17.7540  -34.3420 C   0  0  0  0  0  0  0  0  0  0  0  0
   -5.9070   16.8040  -34.1840 C   0  0  0  0  0  0  0  0  0  0  0  0
   -5.8605   15.8540  -34.7366 H   0  0  0  0  0  0  0  0  0  0  0  0
   -6.9800   17.0590  -33.3270 C   0  0  0  0  0  0  0  0  0  0  0  0
   -7.7738   16.3073  -33.2049 H   0  0  0  0  0  0  0  0  0  0  0  0
   -7.0500   18.2680  -32.6220 C   0  0  0  0  0  0  0  0  0  0  0  0
   -8.1980   18.5200  -31.6820 C   0  0  0  0  0  0  0  0  0  0  0  0
   -7.8126   18.9550  -30.7480 H   0  0  0  0  0  0  0  0  0  0  0  0
   -8.7046   17.5659  -31.4745 H   0  0  0  0  0  0  0  0  0  0  0  0
   -9.1340   19.4220  -32.2690 O   0  0  0  0  0  0  0  0  0  0  0  0
   -9.1690   20.7900  -31.9810 C   0  0  0  0  0  0  0  0  0  0  0  0
  -10.2170   21.4620  -32.1890 O   0  0  0  0  0  0  0  0  0  0  0  0
   -7.9650   21.4280  -31.4250 C   0  0  0  0  0  0  0  0  0  0  0  0
   -7.3901   20.8948  -30.6535 H   0  0  0  0  0  0  0  0  0  0  0  0
   -7.5440   22.6370  -31.8260 C   0  0  0  0  0  0  0  0  0  0  0  0
   -8.1338   23.1655  -32.5894 H   0  0  0  0  0  0  0  0  0  0  0  0
   -6.3270   23.3010  -31.2970 C   0  0  0  0  0  0  0  0  0  0  0  0
   -6.4690   24.5310  -30.6360 C   0  0  0  0  0  0  0  0  0  0  0  0
   -7.4674   24.9795  -30.5267 H   0  0  0  0  0  0  0  0  0  0  0  0
   -5.3530   25.1900  -30.1160 C   0  0  0  0  0  0  0  0  0  0  0  0
   -5.4753   26.1586  -29.6092 H   0  0  0  0  0  0  0  0  0  0  0  0
   -4.0830   24.6240  -30.2370 C   0  0  0  0  0  0  0  0  0  0  0  0
   -2.9810   25.2930  -29.7150 O   0  0  0  0  0  0  0  0  0  0  0  0
   -3.9170   23.3880  -30.8750 C   0  0  0  0  0  0  0  0  0  0  0  0
   -2.6220   22.8510  -30.9640 O   0  0  0  0  0  0  0  0  0  0  0  0
   -1.8180   22.4920  -29.8450 C   0  0  0  0  0  0  0  0  0  0  0  0
   -2.3552   22.7319  -28.9155 H   0  0  0  0  0  0  0  0  0  0  0  0
   -1.6050   21.4133  -29.8775 H   0  0  0  0  0  0  0  0  0  0  0  0
   -0.8727   23.0535  -29.8775 H   0  0  0  0  0  0  0  0  0  0  0  0
   -5.0440   22.7250  -31.4000 C   0  0  0  0  0  0  0  0  0  0  0  0
   -4.9220   21.7499  -31.8943 H   0  0  0  0  0  0  0  0  0  0  0  0
   -6.0280   19.2180  -32.7760 C   0  0  0  0  0  0  0  0  0  0  0  0
   -6.0756   20.1661  -32.2203 H   0  0  0  0  0  0  0  0  0  0  0  0
   -4.9420   18.9660  -33.6370 C   0  0  0  0  0  0  0  0  0  0  0  0
   -3.9000   19.8900  -33.8190 O   0  0  0  0  0  0  0  0  0  0  0  0
   -3.0480   20.3580  -32.7780 C   0  0  0  0  0  0  0  0  0  0  0  0
   -3.4930   20.1135  -31.8022 H   0  0  0  0  0  0  0  0  0  0  0  0
   -2.0641   19.8737  -32.8639 H   0  0  0  0  0  0  0  0  0  0  0  0
   -2.9289   21.4482  -32.8639 H   0  0  0  0  0  0  0  0  0  0  0  0
  1  2  1  0
  2  3  1  0
  3  4  2  0
  4  5  1  0
  4  6  1  0
  6  7  1  0
  6  8  2  0
  8  9  1  0
  9 10  1  0
  9 11  1  0
  9 12  1  0
 12 13  1  0
 13 14  2  0
 13 15  1  0
 15 16  1  0
 15 17  2  0
 17 18  1  0
 17 19  1  0
 19 20  2  0
 20 21  1  0
 20 22  1  0
 22 23  1  0
 22 24  2  0
 24 25  1  0
 24 26  1  0
 26 27  1  0
 27 28  1  0
 28 29  1  0
 28 30  1  0
 28 31  1  0
 26 32  2  0
 32 33  1  0
  8 34  1  0
 34 35  1  0
 34 36  2  0
 36 37  1  0
 37 38  1  0
 38 39  1  0
 38 40  1  0
 38 41  1  0
 36  3  1  0
 32 19  1  0
M  CHG  1  25  -1
M  END
>  <UniqueID>  (1) 
1

>  <SMILES>  (1) 
COc1cc(/C=C/C(=O)OCc2ccc(O)c(OC)c2)ccc1[O-]

>  <Energy>  (1) 
39.69758189655432

>  <Genealogy>  (1) 
COc1cc(C=CC(=O)OCc2ccc(O)c(OC)c2)ccc1[O-] (protonated)
COc1cc(/C=C/C(=O)OCc2ccc(O)c(OC)c2)ccc1[O-] (cis-trans isomerization)
COc1cc(/C=C/C(=O)OCc2ccc(O)c(OC)c2)ccc1[O-] (3D coordinates assigned)
COc1cc(/C=C/C(=O)OCc2ccc(O)c(OC)c2)ccc1[O-] (optimized conformer: 39.69758189655432 kcal/mol)

>  <smiles>  (1) 
COc1cc(C=CC(=O)OCc2ccc(O)c(OC)c2)ccc1O

>  <score_type>  (1) 
oracle

>  <origin>  (1) 
adgpu

>  <m_score__min__energy>  (1) 
-10.18

>  <m_primary>  (1) 
energy

$$$$
1:0
     RDKit          3D

 59 62  0  0  0  0  0  0  0  0999 V2000
   -5.7270   26.3470  -30.2910 O   0  0  0  0  0  0  0  0  0  0  0  0
   -5.0630   25.2930  -30.4870 C   0  0  0  0  0  0  0  0  0  0  0  0
   -3.6390   25.2980  -30.3140 N   0  0  0  0  0  0  0  0  0  0  0  0
   -2.8920   24.5500  -29.3430 C   0  0  0  0  0  0  0  0  0  0  0  0
   -3.3850   24.3100  -28.0480 C   0  0  0  0  0  0  0  0  0  0  0  0
   -2.6150   23.5940  -27.1250 C   0  0  0  0  0  0  0  0  0  0  0  0
   -1.3430   23.1270  -27.4770 C   0  0  0  0  0  0  0  0  0  0  0  0
   -0.3680   22.2090  -26.3330 S   0  0  0  0  0  0  0  0  0  0  0  0
    1.0520   22.6940  -26.4180 O   0  0  0  0  0  0  0  0  0  0  0  0
   -0.8710   22.4330  -24.9340 O   0  0  0  0  0  0  0  0  0  0  0  0
   -0.4550   20.5100  -26.7450 N   0  0  0  0  0  0  0  0  0  0  0  0
    0.0360   20.2460  -28.1210 C   0  0  0  0  0  0  0  0  0  0  0  0
   -1.0280   19.6580  -29.0650 C   0  0  0  0  0  0  0  0  0  0  0  0
   -2.3520   20.4020  -28.9060 C   0  0  0  0  0  0  0  0  0  0  0  0
   -2.8620   20.3650  -27.4550 C   0  0  0  0  0  0  0  0  0  0  0  0
   -1.7830   19.9380  -26.4430 C   0  0  0  0  0  0  0  0  0  0  0  0
   -0.8440   23.3830  -28.7610 C   0  0  0  0  0  0  0  0  0  0  0  0
   -1.6110   24.1000  -29.6840 C   0  0  0  0  0  0  0  0  0  0  0  0
   -5.7620   24.0360  -30.8440 C   0  0  0  0  0  0  0  0  0  0  0  0
   -6.7720   23.5190  -30.0110 C   0  0  0  0  0  0  0  0  0  0  0  0
   -7.4300   22.3330  -30.3470 C   0  0  0  0  0  0  0  0  0  0  0  0
   -7.0870   21.6400  -31.5150 C   0  0  0  0  0  0  0  0  0  0  0  0
   -7.9060   20.1320  -31.9260 S   0  0  0  0  0  0  0  0  0  0  0  0
   -8.5030   20.2540  -33.3000 O   0  0  0  0  0  0  0  0  0  0  0  0
   -9.0330   19.9150  -30.9550 O   0  0  0  0  0  0  0  0  0  0  0  0
   -6.8330   18.7480  -31.8790 N   0  0  0  0  0  0  0  0  0  0  0  0
   -6.9420   17.9060  -33.0860 C   0  0  0  0  0  0  0  0  0  0  0  0
   -6.1070   18.4380  -34.2740 C   0  0  0  0  0  0  0  0  0  0  0  0
   -5.2410   19.4970  -33.9190 O   0  0  0  0  0  0  0  0  0  0  0  0
   -4.5150   19.1500  -32.7630 C   0  0  0  0  0  0  0  0  0  0  0  0
   -5.4420   19.1120  -31.5370 C   0  0  0  0  0  0  0  0  0  0  0  0
   -6.0900   22.1540  -32.3540 C   0  0  0  0  0  0  0  0  0  0  0  0
   -5.4310   23.3400  -32.0210 C   0  0  0  0  0  0  0  0  0  0  0  0
   -4.3779   24.6859  -27.7602 H   0  0  0  0  0  0  0  0  0  0  0  0
   -3.0110   23.3970  -26.1178 H   0  0  0  0  0  0  0  0  0  0  0  0
    0.3914   21.1949  -28.5491 H   0  0  0  0  0  0  0  0  0  0  0  0
    0.8342   19.4941  -28.0345 H   0  0  0  0  0  0  0  0  0  0  0  0
   -0.6818   19.7528  -30.1048 H   0  0  0  0  0  0  0  0  0  0  0  0
   -1.1821   18.5985  -28.8124 H   0  0  0  0  0  0  0  0  0  0  0  0
   -2.2085   21.4506  -29.2056 H   0  0  0  0  0  0  0  0  0  0  0  0
   -3.0997   19.9057  -29.5422 H   0  0  0  0  0  0  0  0  0  0  0  0
   -3.2175   21.3700  -27.1837 H   0  0  0  0  0  0  0  0  0  0  0  0
   -3.6663   19.6160  -27.4105 H   0  0  0  0  0  0  0  0  0  0  0  0
   -2.0896   20.2720  -25.4408 H   0  0  0  0  0  0  0  0  0  0  0  0
   -1.6920   18.8432  -26.4989 H   0  0  0  0  0  0  0  0  0  0  0  0
    0.1546   23.0186  -29.0437 H   0  0  0  0  0  0  0  0  0  0  0  0
   -1.2055   24.3119  -30.6843 H   0  0  0  0  0  0  0  0  0  0  0  0
   -7.0453   24.0526  -29.0887 H   0  0  0  0  0  0  0  0  0  0  0  0
   -8.2214   21.9415  -29.6909 H   0  0  0  0  0  0  0  0  0  0  0  0
   -6.5929   16.8926  -32.8387 H   0  0  0  0  0  0  0  0  0  0  0  0
   -7.9971   17.9136  -33.3971 H   0  0  0  0  0  0  0  0  0  0  0  0
   -5.5016   17.6109  -34.6733 H   0  0  0  0  0  0  0  0  0  0  0  0
   -6.8143   18.8314  -35.0190 H   0  0  0  0  0  0  0  0  0  0  0  0
   -4.0611   18.1581  -32.9046 H   0  0  0  0  0  0  0  0  0  0  0  0
   -3.7323   19.9043  -32.5943 H   0  0  0  0  0  0  0  0  0  0  0  0
   -5.0506   18.3716  -30.8238 H   0  0  0  0  0  0  0  0  0  0  0  0
   -5.4619   20.1241  -31.1066 H   0  0  0  0  0  0  0  0  0  0  0  0
   -5.8248   21.6214  -33.2792 H   0  0  0  0  0  0  0  0  0  0  0  0
   -4.6467   23.7330  -32.6847 H   0  0  0  0  0  0  0  0  0  0  0  0
  1  2  2  0
  2  3  1  0
  3  4  1  0
  4  5  2  0
  5  6  1  0
  6  7  2  0
  7  8  1  0
  8  9  2  0
  8 10  2  0
  8 11  1  0
 11 12  1  0
 12 13  1  0
 13 14  1  0
 14 15  1  0
 15 16  1  0
  7 17  1  0
 17 18  2  0
  2 19  1  0
 19 20  2  0
 20 21  1  0
 21 22  2  0
 22 23  1  0
 23 24  2  0
 23 25  2  0
 23 26  1  0
 26 27  1  0
 27 28  1  0
 28 29  1  0
 29 30  1  0
 30 31  1  0
 22 32  1  0
 32 33  2  0
 18  4  1  0
 33 19  1  0
 16 11  1  0
 31 26  1  0
  5 34  1  0
  6 35  1  0
 12 36  1  0
 12 37  1  0
 13 38  1  0
 13 39  1  0
 14 40  1  0
 14 41  1  0
 15 42  1  0
 15 43  1  0
 16 44  1  0
 16 45  1  0
 17 46  1  0
 18 47  1  0
 20 48  1  0
 21 49  1  0
 27 50  1  0
 27 51  1  0
 28 52  1  0
 28 53  1  0
 30 54  1  0
 30 55  1  0
 31 56  1  0
 31 57  1  0
 32 58  1  0
 33 59  1  0
M  CHG  1   3  -1
M  END
>  <UniqueID>  (2) 
2

>  <SMILES>  (2) 
O=C([N-]c1ccc(S(=O)(=O)N2CCCCC2)cc1)c1ccc(S(=O)(=O)N2CCOCC2)cc1

>  <Energy>  (2) 
83.21211689706918

>  <Genealogy>  (2) 
O=C([N-]c1ccc(S(=O)(=O)N2CCCCC2)cc1)c1ccc(S(=O)(=O)N2CCOCC2)cc1 (protonated)
O=C([N-]c1ccc(S(=O)(=O)N2CCCCC2)cc1)c1ccc(S(=O)(=O)N2CCOCC2)cc1 (3D coordinates assigned)
O=C([N-]c1ccc(S(=O)(=O)N2CCCCC2)cc1)c1ccc(S(=O)(=O)N2CCOCC2)cc1 (nonaromatic ring conformer: 83.21211689706918 kcal/mol)

>  <smiles>  (2) 
O=C(Nc1ccc(S(=O)(=O)N2CCCCC2)cc1)c1ccc(S(=O)(=O)N2CCOCC2)cc1

>  <score_type>  (2) 
oracle

>  <origin>  (2) 
adgpu

>  <m_score__min__energy>  (2) 
-12.24

>  <m_primary>  (2) 
energy

$$$$
2:0
     RDKit          3D

 58 60  0  0  1  0  0  0  0  0999 V2000
   -5.7680   18.3280  -34.5510 C   0  0  0  0  0  0  0  0  0  0  0  0
   -6.4040   19.5640  -34.1880 N   0  0  0  0  0  0  0  0  0  0  0  0
   -6.6910   19.7080  -32.5030 S   0  0  0  0  0  0  0  0  0  0  0  0
   -5.6090   18.9010  -31.8050 O   0  0  0  0  0  0  0  0  0  0  0  0
   -7.9930   19.0560  -32.1250 O   0  0  0  0  0  0  0  0  0  0  0  0
   -6.5520   21.3410  -31.9390 C   0  0  0  0  0  0  0  0  0  0  0  0
   -7.6760   22.1010  -31.6850 C   0  0  0  0  0  0  0  0  0  0  0  0
   -7.5530   23.4040  -31.2350 C   0  0  0  0  0  0  0  0  0  0  0  0
   -6.3190   23.9900  -31.0260 C   0  0  0  0  0  0  0  0  0  0  0  0
   -6.1680   25.2960  -30.5760 O   0  0  0  0  0  0  0  0  0  0  0  0
   -6.8100   25.6400  -29.3600 C   0  0  0  0  0  0  0  0  0  0  0  0
   -5.2080   23.2120  -31.2870 C   0  0  0  0  0  0  0  0  0  0  0  0
   -3.9270   23.8260  -31.0690 N   0  0  0  0  0  0  0  0  0  0  0  0
   -3.5660   24.1770  -29.8590 C   0  0  0  0  0  0  0  0  0  0  0  0
   -4.4310   23.9410  -28.8560 N   0  0  0  0  0  0  0  0  0  0  0  0
   -4.0260   24.3150  -27.6210 C   0  0  0  0  0  0  0  0  0  0  0  0
   -2.8250   24.9000  -27.3540 C   0  0  0  0  0  0  0  0  0  0  0  0
   -2.3400   25.3550  -25.7550 Cl  0  0  0  0  0  0  0  0  0  0  0  0
   -1.9640   25.1270  -28.3950 C   0  0  0  0  0  0  0  0  0  0  0  0
   -0.8270   25.6650  -28.2970 N   0  0  0  0  0  0  0  0  0  0  0  0
   -0.2770   26.1150  -27.0700 C   0  0  0  0  0  0  0  0  0  0  0  0
   -0.5780   27.4010  -26.5950 C   0  0  0  0  0  0  0  0  0  0  0  0
   -0.0490   27.8880  -25.4240 C   0  0  0  0  0  0  0  0  0  0  0  0
    0.7950   27.0930  -24.7040 C   0  0  0  0  0  0  0  0  0  0  0  0
    1.1180   25.8150  -25.1390 C   0  0  0  0  0  0  0  0  0  0  0  0
    0.5890   25.3020  -26.3280 C   0  0  0  0  0  0  0  0  0  0  0  0
    1.0200   23.6930  -26.8560 S   0  0  0  0  0  0  0  0  0  0  0  0
    2.5030   23.4620  -26.6900 O   0  0  0  0  0  0  0  0  0  0  0  0
    0.6870   23.5160  -28.2950 O   0  0  0  0  0  0  0  0  0  0  0  0
    0.1810   22.4580  -25.8940 C   0  0  0  0  0  0  0  0  0  0  0  0
   -1.1300   22.0570  -26.5280 C   0  0  0  0  0  0  0  0  0  0  0  0
   -0.1210   22.9890  -24.5100 C   0  0  0  0  0  0  0  0  0  0  0  0
   -2.3690   24.7510  -29.6430 N   0  0  0  0  0  0  0  0  0  0  0  0
   -5.2970   21.9100  -31.7360 C   0  0  0  0  0  0  0  0  0  0  0  0
   -5.4858   17.7795  -33.6402 H   0  0  0  0  0  0  0  0  0  0  0  0
   -6.4642   17.7181  -35.1454 H   0  0  0  0  0  0  0  0  0  0  0  0
   -4.8670   18.5400  -35.1454 H   0  0  0  0  0  0  0  0  0  0  0  0
   -7.2610   19.7390  -34.7320 H   0  0  0  0  0  0  0  0  0  0  0  0
   -8.6753   21.6685  -31.8412 H   0  0  0  0  0  0  0  0  0  0  0  0
   -8.4631   23.9897  -31.0382 H   0  0  0  0  0  0  0  0  0  0  0  0
   -6.1919   25.3088  -28.5125 H   0  0  0  0  0  0  0  0  0  0  0  0
   -6.9440   26.7307  -29.3119 H   0  0  0  0  0  0  0  0  0  0  0  0
   -7.7924   25.1474  -29.3119 H   0  0  0  0  0  0  0  0  0  0  0  0
   -5.3710   23.4910  -29.0130 H   0  0  0  0  0  0  0  0  0  0  0  0
   -4.7099   24.1354  -26.7784 H   0  0  0  0  0  0  0  0  0  0  0  0
   -1.2585   28.0388  -27.1782 H   0  0  0  0  0  0  0  0  0  0  0  0
   -0.3011   28.8997  -25.0734 H   0  0  0  0  0  0  0  0  0  0  0  0
    1.2257   27.4707  -23.7649 H   0  0  0  0  0  0  0  0  0  0  0  0
    1.8010   25.1957  -24.5390 H   0  0  0  0  0  0  0  0  0  0  0  0
    0.8471   21.5841  -25.8419 H   0  0  0  0  0  0  0  0  0  0  0  0
   -1.8645   21.8323  -25.7406 H   0  0  0  0  0  0  0  0  0  0  0  0
   -1.5028   22.8822  -27.1526 H   0  0  0  0  0  0  0  0  0  0  0  0
   -0.9774   21.1645  -27.1526 H   0  0  0  0  0  0  0  0  0  0  0  0
    0.2749   22.2930  -23.7558 H   0  0  0  0  0  0  0  0  0  0  0  0
    0.3520   23.9741  -24.3839 H   0  0  0  0  0  0  0  0  0  0  0  0
   -1.2094   23.0860  -24.3839 H   0  0  0  0  0  0  0  0  0  0  0  0
   -1.7320   24.9110  -30.4610 H   0  0  0  0  0  0  0  0  0  0  0  0
   -4.3850   21.3269  -31.9318 H   0  0  0  0  0  0  0  0  0  0  0  0
  1  2  1  0
  2  3  1  0
  3  4  2  0
  3  5  2  0
  3  6  1  0
  6  7  2  0
  7  8  1  0
  8  9  2  0
  9 10  1  0
 10 11  1  0
  9 12  1  0
 12 13  1  0
 13 14  2  0
 14 15  1  0
 15 16  1  0
 16 17  2  0
 17 18  1  0
 17 19  1  0
 19 20  2  0
 20 21  1  0
 21 22  2  0
 22 23  1  0
 23 24  2  0
 24 25  1  0
 25 26  2  0
 26 27  1  0
 27 28  2  0
 27 29  2  0
 27 30  1  0
 30 31  1  0
 30 32  1  0
 19 33  1  0
 12 34  2  0
 34  6  1  0
 33 14  1  0
 26 21  1  0
  1 35  1  0
  1 36  1  0
  1 37  1  0
  2 38  1  0
  7 39  1  0
  8 40  1  0
 11 41  1  0
 11 42  1  0
 11 43  1  0
 15 44  1  0
 16 45  1  0
 22 46  1  0
 23 47  1  0
 24 48  1  0
 25 49  1  0
 30 50  1  0
 31 51  1  0
 31 52  1  0
 31 53  1  0
 32 54  1  0
 32 55  1  0
 32 56  1  0
 33 57  1  0
 34 58  1  0
M  END
>  <smiles>  (3) 
CNS(=O)(=O)c1ccc(OC)c(N=c2[nH]cc(Cl)c(=Nc3ccccc3S(=O)(=O)C(C)C)[nH]2)c1

>  <score_type>  (3) 
oracle

>  <origin>  (3) 
adgpu

>  <m_score__min__energy>  (3) 
-10.76

>  <m_primary>  (3) 
energy

$$$$
3:0
     RDKit          3D

 51 54  0  0  0  0  0  0  0  0999 V2000
   -2.0500   24.0210  -29.8020 N   0  0  0  0  0  0  0  0  0  0  0  0
   -2.2140   24.6170  -28.5090 C   0  0  0  0  0  0  0  0  0  0  0  0
   -1.1130   25.2360  -27.8960 C   0  0  0  0  0  0  0  0  0  0  0  0
   -1.2210   25.7530  -26.6020 C   0  0  0  0  0  0  0  0  0  0  0  0
   -2.4260   25.6510  -25.9060 C   0  0  0  0  0  0  0  0  0  0  0  0
   -3.5320   25.0470  -26.5080 C   0  0  0  0  0  0  0  0  0  0  0  0
   -3.4470   24.5480  -27.8160 C   0  0  0  0  0  0  0  0  0  0  0  0
   -4.6160   23.9680  -28.4130 N   0  0  0  0  0  0  0  0  0  0  0  0
   -4.9600   24.1830  -29.7920 C   0  0  0  0  0  0  0  0  0  0  0  0
   -4.3260   25.0430  -30.4650 O   0  0  0  0  0  0  0  0  0  0  0  0
   -6.0630   23.4260  -30.4310 C   0  0  0  0  0  0  0  0  0  0  0  0
   -7.0120   22.7360  -29.6560 C   0  0  0  0  0  0  0  0  0  0  0  0
   -8.0440   22.0190  -30.2700 C   0  0  0  0  0  0  0  0  0  0  0  0
   -8.1350   21.9650  -31.6680 C   0  0  0  0  0  0  0  0  0  0  0  0
   -9.2630   21.2260  -32.3260 C   0  0  0  0  0  0  0  0  0  0  0  0
   -8.7130   20.2220  -33.2330 N   0  0  0  0  0  0  0  0  0  0  0  0
   -7.7520   19.0830  -32.3400 S   0  0  0  0  0  0  0  0  0  0  0  0
   -8.1670   19.0890  -30.8950 O   0  0  0  0  0  0  0  0  0  0  0  0
   -7.9790   17.7050  -32.8950 O   0  0  0  0  0  0  0  0  0  0  0  0
   -6.0420   19.4870  -32.4870 C   0  0  0  0  0  0  0  0  0  0  0  0
   -5.3900   19.3060  -33.7130 C   0  0  0  0  0  0  0  0  0  0  0  0
   -4.0410   19.6410  -33.8520 C   0  0  0  0  0  0  0  0  0  0  0  0
   -3.3290   20.1680  -32.7640 C   0  0  0  0  0  0  0  0  0  0  0  0
   -1.9750   20.5100  -32.8930 C   0  0  0  0  0  0  0  0  0  0  0  0
   -1.2770   21.0360  -31.8010 C   0  0  0  0  0  0  0  0  0  0  0  0
   -1.9250   21.2250  -30.5770 C   0  0  0  0  0  0  0  0  0  0  0  0
   -3.2740   20.8880  -30.4370 C   0  0  0  0  0  0  0  0  0  0  0  0
   -3.9860   20.3570  -31.5230 C   0  0  0  0  0  0  0  0  0  0  0  0
   -5.3410   20.0170  -31.3950 C   0  0  0  0  0  0  0  0  0  0  0  0
   -7.1940   22.6560  -32.4450 C   0  0  0  0  0  0  0  0  0  0  0  0
   -6.1620   23.3720  -31.8330 C   0  0  0  0  0  0  0  0  0  0  0  0
   -1.1800   24.1530  -30.3610 H   0  0  0  0  0  0  0  0  0  0  0  0
   -2.8380   23.5010  -30.2500 H   0  0  0  0  0  0  0  0  0  0  0  0
   -0.1589   25.3146  -28.4378 H   0  0  0  0  0  0  0  0  0  0  0  0
   -0.3547   26.2411  -26.1315 H   0  0  0  0  0  0  0  0  0  0  0  0
   -2.5049   26.0465  -24.8826 H   0  0  0  0  0  0  0  0  0  0  0  0
   -4.4773   24.9620  -25.9519 H   0  0  0  0  0  0  0  0  0  0  0  0
   -5.3510   23.5950  -27.7720 H   0  0  0  0  0  0  0  0  0  0  0  0
   -6.9422   22.7603  -28.5585 H   0  0  0  0  0  0  0  0  0  0  0  0
   -8.7883   21.4946  -29.6527 H   0  0  0  0  0  0  0  0  0  0  0  0
   -9.8768   20.7320  -31.5585 H   0  0  0  0  0  0  0  0  0  0  0  0
   -9.8886   21.9325  -32.8912 H   0  0  0  0  0  0  0  0  0  0  0  0
   -5.9433   18.8977  -34.5716 H   0  0  0  0  0  0  0  0  0  0  0  0
   -3.5354   19.4912  -34.8174 H   0  0  0  0  0  0  0  0  0  0  0  0
   -1.4611   20.3643  -33.8546 H   0  0  0  0  0  0  0  0  0  0  0  0
   -0.2147   21.3018  -31.9058 H   0  0  0  0  0  0  0  0  0  0  0  0
   -1.3717   21.6401  -29.7217 H   0  0  0  0  0  0  0  0  0  0  0  0
   -3.7794   21.0396  -29.4718 H   0  0  0  0  0  0  0  0  0  0  0  0
   -5.8552   20.1669  -30.4342 H   0  0  0  0  0  0  0  0  0  0  0  0
   -7.2688   22.6342  -33.5422 H   0  0  0  0  0  0  0  0  0  0  0  0
   -5.4208   23.8978  -32.4528 H   0  0  0  0  0  0  0  0  0  0  0  0
  1  2  1  0
  2  3  2  0
  3  4  1  0
  4  5  2  0
  5  6  1  0
  6  7  2  0
  7  8  1  0
  8  9  1  0
  9 10  2  0
  9 11  1  0
 11 12  2  0
 12 13  1  0
 13 14  2  0
 14 15  1  0
 15 16  1  0
 16 17  1  0
 17 18  2  0
 17 19  2  0
 17 20  1  0
 20 21  2  0
 21 22  1  0
 22 23  2  0
 23 24  1  0
 24 25  2  0
 25 26  1  0
 26 27  2  0
 27 28  1  0
 28 29  2  0
 14 30  1  0
 30 31  2  0
  7  2  1  0
 31 11  1  0
 29 20  1  0
 28 23  1  0
  1 32  1  0
  1 33  1  0
  3 34  1  0
  4 35  1  0
  5 36  1  0
  6 37  1  0
  8 38  1  0
 12 39  1  0
 13 40  1  0
 15 41  1  0
 15 42  1  0
 21 43  1  0
 22 44  1  0
 24 45  1  0
 25 46  1  0
 26 47  1  0
 27 48  1  0
 29 49  1  0
 30 50  1  0
 31 51  1  0
M  CHG  1  16  -1
M  END
>  <UniqueID>  (4) 
3

>  <SMILES>  (4) 
Nc1ccccc1NC(=O)c1ccc(C[N-]S(=O)(=O)c2ccc3ccccc3c2)cc1

>  <Energy>  (4) 
64.00376014472064

>  <Genealogy>  (4) 
Nc1ccccc1NC(=O)c1ccc(C[N-]S(=O)(=O)c2ccc3ccccc3c2)cc1 (protonated)
Nc1ccccc1NC(=O)c1ccc(C[N-]S(=O)(=O)c2ccc3ccccc3c2)cc1 (3D coordinates assigned)
Nc1ccccc1NC(=O)c1ccc(C[N-]S(=O)(=O)c2ccc3ccccc3c2)cc1 (optimized conformer: 64.00376014472064 kcal/mol)

>  <smiles>  (4) 
Nc1ccccc1NC(=O)c1ccc(CNS(=O)(=O)c2ccc3ccccc3c2)cc1

>  <score_type>  (4) 
oracle

>  <origin>  (4) 
adgpu

>  <m_score__min__energy>  (4) 
-10.9

>  <m_primary>  (4) 
energy

$$$$
4:0
     RDKit          3D

 28 28  0  0  0  0  0  0  0  0999 V2000
   -0.1570   20.1180  -30.3590 C   0  0  0  0  0  0  0  0  0  0  0  0
    0.0960   19.8830  -28.9450 N   0  0  0  0  0  0  0  0  0  0  0  0
   -0.9530   19.8030  -27.9750 C   0  0  0  0  0  0  0  0  0  0  0  0
   -0.9490   18.8760  -27.1200 O   0  0  0  0  0  0  0  0  0  0  0  0
   -2.0510   20.7870  -28.0090 C   0  0  0  0  0  0  0  0  0  0  0  0
   -3.2170   20.3980  -27.7260 O   0  0  0  0  0  0  0  0  0  0  0  0
   -1.8300   22.2160  -28.3390 C   0  0  0  0  0  0  0  0  0  0  0  0
   -2.7920   22.9140  -29.0860 C   0  0  0  0  0  0  0  0  0  0  0  0
   -2.5980   24.2680  -29.4200 C   0  0  0  0  0  0  0  0  0  0  0  0
   -3.5440   25.0000  -30.1560 O   0  0  0  0  0  0  0  0  0  0  0  0
   -4.9530   24.8130  -30.0700 C   0  0  0  0  0  0  0  0  0  0  0  0
   -1.4270   24.9150  -29.0090 C   0  0  0  0  0  0  0  0  0  0  0  0
   -1.2300   26.2530  -29.3350 O   0  0  0  0  0  0  0  0  0  0  0  0
   -0.4480   24.2290  -28.2800 C   0  0  0  0  0  0  0  0  0  0  0  0
    0.7140   24.9230  -27.9030 O   0  0  0  0  0  0  0  0  0  0  0  0
    1.7790   24.3610  -27.1450 C   0  0  0  0  0  0  0  0  0  0  0  0
   -0.6520   22.8770  -27.9510 C   0  0  0  0  0  0  0  0  0  0  0  0
   -0.9589   20.8629  -30.4692 H   0  0  0  0  0  0  0  0  0  0  0  0
    0.7596   20.4924  -30.8382 H   0  0  0  0  0  0  0  0  0  0  0  0
   -0.4629   19.1763  -30.8382 H   0  0  0  0  0  0  0  0  0  0  0  0
   -3.7065   22.3980  -29.4137 H   0  0  0  0  0  0  0  0  0  0  0  0
   -5.2537   24.7731  -29.0127 H   0  0  0  0  0  0  0  0  0  0  0  0
   -5.4650   25.6511  -30.5655 H   0  0  0  0  0  0  0  0  0  0  0  0
   -5.2287   23.8704  -30.5655 H   0  0  0  0  0  0  0  0  0  0  0  0
    1.5648   24.4740  -26.0720 H   0  0  0  0  0  0  0  0  0  0  0  0
    1.8786   23.2929  -27.3885 H   0  0  0  0  0  0  0  0  0  0  0  0
    2.7169   24.8816  -27.3885 H   0  0  0  0  0  0  0  0  0  0  0  0
    0.1175   22.3318  -27.3848 H   0  0  0  0  0  0  0  0  0  0  0  0
  1  2  1  0
  2  3  1  0
  3  4  2  0
  3  5  1  0
  5  6  2  0
  5  7  1  0
  7  8  2  0
  8  9  1  0
  9 10  1  0
 10 11  1  0
  9 12  2  0
 12 13  1  0
 12 14  1  0
 14 15  1  0
 15 16  1  0
 14 17  2  0
 17  7  1  0
  1 18  1  0
  1 19  1  0
  1 20  1  0
  8 21  1  0
 11 22  1  0
 11 23  1  0
 11 24  1  0
 16 25  1  0
 16 26  1  0
 16 27  1  0
 17 28  1  0
M  CHG  2   2  -1  13  -1
M  END
>  <UniqueID>  (5) 
4

>  <SMILES>  (5) 
C[N-]C(=O)C(=O)c1cc(OC)c([O-])c(OC)c1

>  <Energy>  (5) 
26.344278473104776

>  <Genealogy>  (5) 
C[N-]C(=O)C(=O)c1cc(OC)c([O-])c(OC)c1 (protonated)
C[N-]C(=O)C(=O)c1cc(OC)c([O-])c(OC)c1 (3D coordinates assigned)
C[N-]C(=O)C(=O)c1cc(OC)c([O-])c(OC)c1 (optimized conformer: 26.344278473104776 kcal/mol)

>  <smiles>  (5) 
CNC(=O)C(=O)c1cc(OC)c(O)c(OC)c1

>  <score_type>  (5) 
oracle

>  <origin>  (5) 
adgpu

>  <m_score__min__energy>  (5) 
-8.3399999999999999

>  <m_primary>  (5) 
energy

$$$$
5:0
     RDKit          3D

 38 40  0  0  0  0  0  0  0  0999 V2000
  -10.0220   20.9340  -32.3370 C   0  0  0  0  0  0  0  0  0  0  0  0
   -8.5870   21.0040  -31.8970 C   0  0  0  0  0  0  0  0  0  0  0  0
   -7.7090   19.9370  -31.7450 C   0  0  0  0  0  0  0  0  0  0  0  0
   -7.9690   18.5050  -31.9830 C   0  0  0  0  0  0  0  0  0  0  0  0
   -8.7550   17.8900  -31.2140 O   0  0  0  0  0  0  0  0  0  0  0  0
   -7.3720   17.8320  -33.0980 N   0  0  0  0  0  0  0  0  0  0  0  0
   -5.9790   17.8070  -33.4410 C   0  0  0  0  0  0  0  0  0  0  0  0
   -5.2830   18.9680  -33.8270 C   0  0  0  0  0  0  0  0  0  0  0  0
   -3.9310   18.8950  -34.1770 C   0  0  0  0  0  0  0  0  0  0  0  0
   -3.2650   17.6630  -34.1590 C   0  0  0  0  0  0  0  0  0  0  0  0
   -1.8740   17.5890  -34.5210 C   0  0  0  0  0  0  0  0  0  0  0  0
   -0.7550   17.5300  -34.8120 N   0  0  0  0  0  0  0  0  0  0  0  0
   -3.9600   16.5030  -33.7980 C   0  0  0  0  0  0  0  0  0  0  0  0
   -5.3120   16.5750  -33.4500 C   0  0  0  0  0  0  0  0  0  0  0  0
   -6.5060   20.4010  -31.3470 N   0  0  0  0  0  0  0  0  0  0  0  0
   -6.6760   21.7360  -31.2600 C   0  0  0  0  0  0  0  0  0  0  0  0
   -5.6150   22.6190  -30.8700 N   0  0  0  0  0  0  0  0  0  0  0  0
   -5.9140   23.6460  -30.0680 N   0  0  0  0  0  0  0  0  0  0  0  0
   -4.9750   24.5390  -29.6630 C   0  0  0  0  0  0  0  0  0  0  0  0
   -3.6600   24.3970  -30.0960 C   0  0  0  0  0  0  0  0  0  0  0  0
   -2.6840   25.2970  -29.6890 O   0  0  0  0  0  0  0  0  0  0  0  0
   -3.3380   23.3450  -30.9480 C   0  0  0  0  0  0  0  0  0  0  0  0
   -4.3390   22.4560  -31.3440 C   0  0  0  0  0  0  0  0  0  0  0  0
   -4.0600   21.5240  -32.1470 O   0  0  0  0  0  0  0  0  0  0  0  0
   -7.9170   22.1400  -31.6130 N   0  0  0  0  0  0  0  0  0  0  0  0
   -8.4130   23.5130  -31.7260 C   0  0  0  0  0  0  0  0  0  0  0  0
  -10.6755   20.9021  -31.4527 H   0  0  0  0  0  0  0  0  0  0  0  0
  -10.2643   21.8214  -32.9402 H   0  0  0  0  0  0  0  0  0  0  0  0
  -10.1768   20.0272  -32.9402 H   0  0  0  0  0  0  0  0  0  0  0  0
   -5.8044   19.9362  -33.8534 H   0  0  0  0  0  0  0  0  0  0  0  0
   -3.3893   19.8074  -34.4671 H   0  0  0  0  0  0  0  0  0  0  0  0
   -3.4414   15.5330  -33.7881 H   0  0  0  0  0  0  0  0  0  0  0  0
   -5.8562   15.6576  -33.1813 H   0  0  0  0  0  0  0  0  0  0  0  0
   -5.2518   25.3695  -28.9969 H   0  0  0  0  0  0  0  0  0  0  0  0
   -2.3059   23.2152  -31.3057 H   0  0  0  0  0  0  0  0  0  0  0  0
   -8.5644   23.9321  -30.7203 H   0  0  0  0  0  0  0  0  0  0  0  0
   -7.6789   24.1243  -32.2713 H   0  0  0  0  0  0  0  0  0  0  0  0
   -9.3683   23.5140  -32.2713 H   0  0  0  0  0  0  0  0  0  0  0  0
  1  2  1  0
  2  3  2  0
  3  4  1  0
  4  5  2  0
  4  6  1  0
  6  7  1  0
  7  8  2  0
  8  9  1  0
  9 10  2  0
 10 11  1  0
 11 12  3  0
 10 13  1  0
 13 14  2  0
  3 15  1  0
 15 16  2  0
 16 17  1  0
 17 18  1  0
 18 19  2  0
 19 20  1  0
 20 21  1  0
 20 22  2  0
 22 23  1  0
 23 24  2  0
 16 25  1  0
 25 26  1  0
 25  2  1  0
 14  7  1  0
 23 17  1  0
  1 27  1  0
  1 28  1  0
  1 29  1  0
  8 30  1  0
  9 31  1  0
 13 32  1  0
 14 33  1  0
 19 34  1  0
 22 35  1  0
 26 36  1  0
 26 37  1  0
 26 38  1  0
M  CHG  2   6  -1  21  -1
M  END
>  <UniqueID>  (6) 
5

>  <SMILES>  (6) 
Cc1c(C(=O)[N-]c2ccc(C#N)cc2)nc(-n2ncc([O-])cc2=O)n1C

>  <Energy>  (6) 
81.21420329826816

>  <Genealogy>  (6) 
Cc1c(C(=O)[N-]c2ccc(C#N)cc2)nc(-n2ncc([O-])cc2=O)n1C (protonated)
Cc1c(C(=O)[N-]c2ccc(C#N)cc2)nc(-n2ncc([O-])cc2=O)n1C (3D coordinates assigned)
Cc1c(C(=O)[N-]c2ccc(C#N)cc2)nc(-n2ncc([O-])cc2=O)n1C (optimized conformer: 81.21420329826816 kcal/mol)

>  <smiles>  (6) 
Cc1c(C(=O)Nc2ccc(C#N)cc2)nc(-n2ncc(O)cc2=O)n1C

>  <score_type>  (6) 
oracle

>  <origin>  (6) 
adgpu

>  <m_score__min__energy>  (6) 
-10.380000000000001

>  <m_primary>  (6) 
energy

$$$$
6:0
     RDKit          3D

 58 60  0  0  0  0  0  0  0  0999 V2000
   -9.8380   21.0010  -32.2840 C   0  0  0  0  0  0  0  0  0  0  0  0
   -8.5560   21.6600  -31.8520 C   0  0  0  0  0  0  0  0  0  0  0  0
   -8.5320   23.0480  -31.6330 C   0  0  0  0  0  0  0  0  0  0  0  0
   -7.3540   23.6830  -31.2360 C   0  0  0  0  0  0  0  0  0  0  0  0
   -6.1850   22.9420  -31.0400 C   0  0  0  0  0  0  0  0  0  0  0  0
   -4.7050   23.7510  -30.5300 S   0  0  0  0  0  0  0  0  0  0  0  0
   -4.7240   23.8850  -29.0320 O   0  0  0  0  0  0  0  0  0  0  0  0
   -4.6430   25.1290  -31.1320 O   0  0  0  0  0  0  0  0  0  0  0  0
   -3.3140   22.8170  -31.0200 N   0  0  0  0  0  0  0  0  0  0  0  0
   -3.1100   21.7080  -30.0790 C   0  0  0  0  0  0  0  0  0  0  0  0
   -3.5350   22.2920  -32.3730 C   0  0  0  0  0  0  0  0  0  0  0  0
   -6.2050   21.5540  -31.2280 C   0  0  0  0  0  0  0  0  0  0  0  0
   -7.3790   20.9030  -31.6510 C   0  0  0  0  0  0  0  0  0  0  0  0
   -7.3890   19.4740  -31.8220 N   0  0  0  0  0  0  0  0  0  0  0  0
   -6.2540   18.7200  -32.2750 C   0  0  0  0  0  0  0  0  0  0  0  0
   -6.0850   17.1720  -31.7500 S   0  0  0  0  0  0  0  0  0  0  0  0
   -5.2950   19.3190  -33.1700 N   0  0  0  0  0  0  0  0  0  0  0  0
   -4.0800   18.6870  -33.6010 C   0  0  0  0  0  0  0  0  0  0  0  0
   -4.1040   17.6380  -34.5340 C   0  0  0  0  0  0  0  0  0  0  0  0
   -2.9100   17.0570  -34.9670 C   0  0  0  0  0  0  0  0  0  0  0  0
   -1.6840   17.5300  -34.4870 C   0  0  0  0  0  0  0  0  0  0  0  0
   -1.6490   18.5980  -33.5820 C   0  0  0  0  0  0  0  0  0  0  0  0
   -0.1000   19.1880  -32.9830 S   0  0  0  0  0  0  0  0  0  0  0  0
   -0.2310   19.4830  -31.5140 O   0  0  0  0  0  0  0  0  0  0  0  0
    0.9550   18.1300  -33.1660 O   0  0  0  0  0  0  0  0  0  0  0  0
    0.3490   20.6410  -33.8390 N   0  0  0  0  0  0  0  0  0  0  0  0
   -0.4660   20.7800  -35.0590 C   0  0  0  0  0  0  0  0  0  0  0  0
    0.0970   21.8900  -35.9710 C   0  0  0  0  0  0  0  0  0  0  0  0
    1.0520   22.6760  -35.2860 O   0  0  0  0  0  0  0  0  0  0  0  0
    2.1740   21.8790  -34.9470 C   0  0  0  0  0  0  0  0  0  0  0  0
    1.7760   20.5960  -34.1860 C   0  0  0  0  0  0  0  0  0  0  0  0
   -2.8490   19.1770  -33.1450 C   0  0  0  0  0  0  0  0  0  0  0  0
  -10.4152   20.7043  -31.3958 H   0  0  0  0  0  0  0  0  0  0  0  0
  -10.4286   21.7073  -32.8860 H   0  0  0  0  0  0  0  0  0  0  0  0
   -9.6074   20.1097  -32.8860 H   0  0  0  0  0  0  0  0  0  0  0  0
   -9.4489   23.6388  -31.7756 H   0  0  0  0  0  0  0  0  0  0  0  0
   -7.3456   24.7714  -31.0767 H   0  0  0  0  0  0  0  0  0  0  0  0
   -3.1793   22.0846  -29.0478 H   0  0  0  0  0  0  0  0  0  0  0  0
   -3.8823   20.9419  -30.2422 H   0  0  0  0  0  0  0  0  0  0  0  0
   -2.1156   21.2669  -30.2422 H   0  0  0  0  0  0  0  0  0  0  0  0
   -3.9610   21.2799  -32.3085 H   0  0  0  0  0  0  0  0  0  0  0  0
   -4.2326   22.9498  -32.9121 H   0  0  0  0  0  0  0  0  0  0  0  0
   -2.5770   22.2529  -32.9121 H   0  0  0  0  0  0  0  0  0  0  0  0
   -5.2935   20.9666  -31.0431 H   0  0  0  0  0  0  0  0  0  0  0  0
   -8.2480   18.9460  -31.5480 H   0  0  0  0  0  0  0  0  0  0  0  0
   -5.4240   20.3180  -33.4440 H   0  0  0  0  0  0  0  0  0  0  0  0
   -5.0653   17.2730  -34.9248 H   0  0  0  0  0  0  0  0  0  0  0  0
   -2.9336   16.2257  -35.6870 H   0  0  0  0  0  0  0  0  0  0  0  0
   -0.7461   17.0622  -34.8210 H   0  0  0  0  0  0  0  0  0  0  0  0
   -0.4607   19.8261  -35.6067 H   0  0  0  0  0  0  0  0  0  0  0  0
   -1.4922   21.0493  -34.7685 H   0  0  0  0  0  0  0  0  0  0  0  0
    0.5745   21.4272  -36.8473 H   0  0  0  0  0  0  0  0  0  0  0  0
   -0.7332   22.5412  -36.2820 H   0  0  0  0  0  0  0  0  0  0  0  0
    2.6969   21.5935  -35.8717 H   0  0  0  0  0  0  0  0  0  0  0  0
    2.8208   22.4743  -34.2857 H   0  0  0  0  0  0  0  0  0  0  0  0
    1.9688   19.7200  -34.8227 H   0  0  0  0  0  0  0  0  0  0  0  0
    2.3704   20.5239  -33.2632 H   0  0  0  0  0  0  0  0  0  0  0  0
   -2.8238   20.0210  -32.4400 H   0  0  0  0  0  0  0  0  0  0  0  0
  1  2  1  0
  2  3  2  0
  3  4  1  0
  4  5  2  0
  5  6  1  0
  6  7  2  0
  6  8  2  0
  6  9  1  0
  9 10  1  0
  9 11  1  0
  5 12  1  0
 12 13  2  0
 13 14  1  0
 14 15  1  0
 15 16  2  0
 15 17  1  0
 17 18  1  0
 18 19  2  0
 19 20  1  0
 20 21  2  0
 21 22  1  0
 22 23  1  0
 23 24  2  0
 23 25  2  0
 23 26  1  0
 26 27  1  0
 27 28  1  0
 28 29  1  0
 29 30  1  0
 30 31  1  0
 22 32  2  0
 13  2  1  0
 32 18  1  0
 31 26  1  0
  1 33  1  0
  1 34  1  0
  1 35  1  0
  3 36  1  0
  4 37  1  0
 10 38  1  0
 10 39  1  0
 10 40  1  0
 11 41  1  0
 11 42  1  0
 11 43  1  0
 12 44  1  0
 14 45  1  0
 17 46  1  0
 19 47  1  0
 20 48  1  0
 21 49  1  0
 27 50  1  0
 27 51  1  0
 28 52  1  0
 28 53  1  0
 30 54  1  0
 30 55  1  0
 31 56  1  0
 31 57  1  0
 32 58  1  0
M  END
>  <UniqueID>  (7) 
6

>  <SMILES>  (7) 
Cc1ccc(S(=O)(=O)N(C)C)cc1NC(=S)Nc1cccc(S(=O)(=O)N2CCOCC2)c1

>  <Energy>  (7) 
73.39406170637011

>  <Genealogy>  (7) 
Cc1ccc(S(=O)(=O)N(C)C)cc1NC(=S)Nc1cccc(S(=O)(=O)N2CCOCC2)c1 (3D coordinates assigned)
Cc1ccc(S(=O)(=O)N(C)C)cc1NC(=S)Nc1cccc(S(=O)(=O)N2CCOCC2)c1 (nonaromatic ring conformer: 73.39406170637011 kcal/mol)

>  <smiles>  (7) 
Cc1ccc(S(=O)(=O)N(C)C)cc1NC(=S)Nc1cccc(S(=O)(=O)N2CCOCC2)c1

>  <score_type>  (7) 
oracle

>  <origin>  (7) 
adgpu

>  <m_score__min__energy>  (7) 
-10.5

>  <m_primary>  (7) 
energy

$$$$
7:0
     RDKit          3D

 72 76  0  0  0  0  0  0  0  0999 V2000
   -5.1860   15.6750  -32.7970 C   0  0  0  0  0  0  0  0  0  0  0  0
   -4.7410   17.0580  -33.1710 C   0  0  0  0  0  0  0  0  0  0  0  0
   -5.5540   18.1510  -33.4410 C   0  0  0  0  0  0  0  0  0  0  0  0
   -6.9810   18.2170  -33.4930 N   0  0  0  0  0  0  0  0  0  0  0  0
   -7.9620   18.7260  -32.1560 S   0  0  0  0  0  0  0  0  0  0  0  0
   -7.3640   18.1620  -30.8980 O   0  0  0  0  0  0  0  0  0  0  0  0
   -9.3660   18.2120  -32.2940 O   0  0  0  0  0  0  0  0  0  0  0  0
   -7.9980   20.4860  -32.0620 C   0  0  0  0  0  0  0  0  0  0  0  0
   -9.2230   21.1650  -32.0670 C   0  0  0  0  0  0  0  0  0  0  0  0
   -9.2580   22.5550  -31.9580 C   0  0  0  0  0  0  0  0  0  0  0  0
   -8.0710   23.2790  -31.8290 C   0  0  0  0  0  0  0  0  0  0  0  0
   -6.8310   22.6150  -31.8110 C   0  0  0  0  0  0  0  0  0  0  0  0
   -5.5720   23.3830  -31.6560 C   0  0  0  0  0  0  0  0  0  0  0  0
   -5.5820   24.6420  -31.7630 O   0  0  0  0  0  0  0  0  0  0  0  0
   -4.3310   22.7020  -31.4360 N   0  0  0  0  0  0  0  0  0  0  0  0
   -3.4860   22.8780  -30.2920 C   0  0  0  0  0  0  0  0  0  0  0  0
   -3.1320   21.7490  -29.5380 C   0  0  0  0  0  0  0  0  0  0  0  0
   -2.3400   21.8770  -28.3900 C   0  0  0  0  0  0  0  0  0  0  0  0
   -1.8990   20.4540  -27.4420 S   0  0  0  0  0  0  0  0  0  0  0  0
   -1.5720   20.8860  -26.0390 O   0  0  0  0  0  0  0  0  0  0  0  0
   -3.0700   19.5130  -27.3770 O   0  0  0  0  0  0  0  0  0  0  0  0
   -0.5230   19.6210  -28.1260 N   0  0  0  0  0  0  0  0  0  0  0  0
   -0.6390   19.5530  -29.5930 C   0  0  0  0  0  0  0  0  0  0  0  0
    0.6800   19.0530  -30.2130 C   0  0  0  0  0  0  0  0  0  0  0  0
    1.5220   18.2350  -29.2190 C   0  0  0  0  0  0  0  0  0  0  0  0
    0.6310   17.3960  -28.2960 C   0  0  0  0  0  0  0  0  0  0  0  0
   -0.4030   18.2670  -27.5440 C   0  0  0  0  0  0  0  0  0  0  0  0
   -1.9170   23.1490  -27.9830 C   0  0  0  0  0  0  0  0  0  0  0  0
   -2.2760   24.2800  -28.7190 C   0  0  0  0  0  0  0  0  0  0  0  0
   -3.0720   24.1560  -29.8650 C   0  0  0  0  0  0  0  0  0  0  0  0
   -3.4750   25.2990  -30.5560 O   0  0  0  0  0  0  0  0  0  0  0  0
   -6.8050   21.2120  -31.9270 C   0  0  0  0  0  0  0  0  0  0  0  0
   -4.6910   19.2100  -33.5930 C   0  0  0  0  0  0  0  0  0  0  0  0
   -5.0270   20.4060  -33.8090 O   0  0  0  0  0  0  0  0  0  0  0  0
   -3.4210   18.7790  -33.4660 N   0  0  0  0  0  0  0  0  0  0  0  0
   -2.2400   19.5970  -33.5610 C   0  0  0  0  0  0  0  0  0  0  0  0
   -1.2590   19.3210  -34.5280 C   0  0  0  0  0  0  0  0  0  0  0  0
   -0.1130   20.1170  -34.6160 C   0  0  0  0  0  0  0  0  0  0  0  0
    0.0660   21.1870  -33.7350 C   0  0  0  0  0  0  0  0  0  0  0  0
   -0.8990   21.4590  -32.7610 C   0  0  0  0  0  0  0  0  0  0  0  0
   -2.0460   20.6670  -32.6700 C   0  0  0  0  0  0  0  0  0  0  0  0
   -3.4480   17.4670  -33.2300 N   0  0  0  0  0  0  0  0  0  0  0  0
   -2.2720   16.6110  -33.0570 C   0  0  0  0  0  0  0  0  0  0  0  0
   -5.2156   15.5831  -31.7012 H   0  0  0  0  0  0  0  0  0  0  0  0
   -6.1893   15.4890  -33.2078 H   0  0  0  0  0  0  0  0  0  0  0  0
   -4.4794   14.9388  -33.2078 H   0  0  0  0  0  0  0  0  0  0  0  0
  -10.1620   20.5992  -32.1573 H   0  0  0  0  0  0  0  0  0  0  0  0
  -10.2232   23.0823  -31.9737 H   0  0  0  0  0  0  0  0  0  0  0  0
   -8.1058   24.3749  -31.7409 H   0  0  0  0  0  0  0  0  0  0  0  0
   -3.4799   20.7537  -29.8515 H   0  0  0  0  0  0  0  0  0  0  0  0
   -1.4508   18.8607  -29.8608 H   0  0  0  0  0  0  0  0  0  0  0  0
   -0.8571   20.5590  -29.9809 H   0  0  0  0  0  0  0  0  0  0  0  0
    0.4446   18.4200  -31.0813 H   0  0  0  0  0  0  0  0  0  0  0  0
    1.2689   19.9350  -30.5051 H   0  0  0  0  0  0  0  0  0  0  0  0
    2.1888   17.5643  -29.7807 H   0  0  0  0  0  0  0  0  0  0  0  0
    2.1050   18.9328  -28.6000 H   0  0  0  0  0  0  0  0  0  0  0  0
    0.0947   16.6502  -28.9011 H   0  0  0  0  0  0  0  0  0  0  0  0
    1.2759   16.9108  -27.5485 H   0  0  0  0  0  0  0  0  0  0  0  0
   -1.3844   17.7726  -27.5924 H   0  0  0  0  0  0  0  0  0  0  0  0
   -0.0598   18.3759  -26.5046 H   0  0  0  0  0  0  0  0  0  0  0  0
   -1.2991   23.2573  -27.0794 H   0  0  0  0  0  0  0  0  0  0  0  0
   -1.9318   25.2739  -28.3971 H   0  0  0  0  0  0  0  0  0  0  0  0
   -3.5210   25.3180  -31.5670 H   0  0  0  0  0  0  0  0  0  0  0  0
   -5.8418   20.6809  -31.9117 H   0  0  0  0  0  0  0  0  0  0  0  0
   -1.3930   18.4753  -35.2186 H   0  0  0  0  0  0  0  0  0  0  0  0
    0.6487   19.9008  -35.3796 H   0  0  0  0  0  0  0  0  0  0  0  0
    0.9661   21.8150  -33.8080 H   0  0  0  0  0  0  0  0  0  0  0  0
   -0.7549   22.2984  -32.0648 H   0  0  0  0  0  0  0  0  0  0  0  0
   -2.8002   20.8813  -31.8984 H   0  0  0  0  0  0  0  0  0  0  0  0
   -2.0767   16.4688  -31.9839 H   0  0  0  0  0  0  0  0  0  0  0  0
   -2.4567   15.6345  -33.5286 H   0  0  0  0  0  0  0  0  0  0  0  0
   -1.3996   17.0868  -33.5286 H   0  0  0  0  0  0  0  0  0  0  0  0
  1  2  1  0
  2  3  2  0
  3  4  1  0
  4  5  1  0
  5  6  2  0
  5  7  2  0
  5  8  1  0
  8  9  2  0
  9 10  1  0
 10 11  2  0
 11 12  1  0
 12 13  1  0
 13 14  2  0
 13 15  1  0
 15 16  1  0
 16 17  2  0
 17 18  1  0
 18 19  1  0
 19 20  2  0
 19 21  2  0
 19 22  1  0
 22 23  1  0
 23 24  1  0
 24 25  1  0
 25 26  1  0
 26 27  1  0
 18 28  2  0
 28 29  1  0
 29 30  2  0
 30 31  1  0
 12 32  2  0
  3 33  1  0
 33 34  2  0
 33 35  1  0
 35 36  1  0
 36 37  2  0
 37 38  1  0
 38 39  2  0
 39 40  1  0
 40 41  2  0
 35 42  1  0
 42 43  1  0
 42  2  1  0
 32  8  1  0
 41 36  1  0
 30 16  1  0
 27 22  1  0
  1 44  1  0
  1 45  1  0
  1 46  1  0
  9 47  1  0
 10 48  1  0
 11 49  1  0
 17 50  1  0
 23 51  1  0
 23 52  1  0
 24 53  1  0
 24 54  1  0
 25 55  1  0
 25 56  1  0
 26 57  1  0
 26 58  1  0
 27 59  1  0
 27 60  1  0
 28 61  1  0
 29 62  1  0
 31 63  1  0
 32 64  1  0
 37 65  1  0
 38 66  1  0
 39 67  1  0
 40 68  1  0
 41 69  1  0
 43 70  1  0
 43 71  1  0
 43 72  1  0
M  CHG  2   4  -1  15  -1
M  END
>  <UniqueID>  (8) 
7

>  <SMILES>  (8) 
Cc1c([N-]S(=O)(=O)c2cccc(C(=O)[N-]c3cc(S(=O)(=O)N4CCCCC4)ccc3O)c2)c(=O)n(-c2ccccc2)n1C

>  <Energy>  (8) 
136.47161293865466

>  <Genealogy>  (8) 
Cc1c([N-]S(=O)(=O)c2cccc(C(=O)[N-]c3cc(S(=O)(=O)N4CCCCC4)ccc3O)c2)c(=O)n(-c2ccccc2)n1C (protonated)
Cc1c([N-]S(=O)(=O)c2cccc(C(=O)[N-]c3cc(S(=O)(=O)N4CCCCC4)ccc3O)c2)c(=O)n(-c2ccccc2)n1C (3D coordinates assigned)
Cc1c([N-]S(=O)(=O)c2cccc(C(=O)[N-]c3cc(S(=O)(=O)N4CCCCC4)ccc3O)c2)c(=O)n(-c2ccccc2)n1C (nonaromatic ring conformer: 136.47161293865466 kcal/mol)

>  <smiles>  (8) 
Cc1c(NS(=O)(=O)c2cccc(C(=O)Nc3cc(S(=O)(=O)N4CCCCC4)ccc3O)c2)c(=O)n(-c2ccccc2)n1C

>  <score_type>  (8) 
oracle

>  <origin>  (8) 
adgpu

>  <m_score__min__energy>  (8) 
-13.44

>  <m_primary>  (8) 
energy

$$$$
8:0
     RDKit          3D

 54 56  0  0  0  0  0  0  0  0999 V2000
   -5.6510   24.9590  -31.6200 O   0  0  0  0  0  0  0  0  0  0  0  0
   -5.8630   24.3260  -30.2720 S   0  0  0  0  0  0  0  0  0  0  0  0
   -6.7480   25.2290  -29.4580 O   0  0  0  0  0  0  0  0  0  0  0  0
   -6.6430   22.7820  -30.4670 N   0  0  0  0  0  0  0  0  0  0  0  0
   -7.1760   22.6010  -31.8340 C   0  0  0  0  0  0  0  0  0  0  0  0
   -8.6940   22.3310  -31.7810 C   0  0  0  0  0  0  0  0  0  0  0  0
   -9.1060   20.9540  -32.3360 C   0  0  0  0  0  0  0  0  0  0  0  0
   -8.5600   19.7630  -31.5290 C   0  0  0  0  0  0  0  0  0  0  0  0
   -7.1960   19.2160  -31.9840 C   0  0  0  0  0  0  0  0  0  0  0  0
   -6.0530   20.2390  -31.9050 C   0  0  0  0  0  0  0  0  0  0  0  0
   -6.3840   21.5460  -32.6490 C   0  0  0  0  0  0  0  0  0  0  0  0
   -4.3210   24.1320  -29.4440 C   0  0  0  0  0  0  0  0  0  0  0  0
   -3.1610   23.8750  -30.1830 C   0  0  0  0  0  0  0  0  0  0  0  0
   -1.9230   23.7900  -29.5410 C   0  0  0  0  0  0  0  0  0  0  0  0
   -1.8350   23.9640  -28.1540 C   0  0  0  0  0  0  0  0  0  0  0  0
   -0.2560   23.9150  -27.3730 S   0  0  0  0  0  0  0  0  0  0  0  0
    0.8080   24.3620  -28.3370 O   0  0  0  0  0  0  0  0  0  0  0  0
   -0.2740   24.8550  -26.2000 O   0  0  0  0  0  0  0  0  0  0  0  0
    0.0580   22.2800  -26.8370 N   0  0  0  0  0  0  0  0  0  0  0  0
   -1.1030   21.6970  -26.1160 C   0  0  0  0  0  0  0  0  0  0  0  0
   -1.6990   20.4510  -26.7940 C   0  0  0  0  0  0  0  0  0  0  0  0
   -1.8270   20.6720  -28.2990 C   0  0  0  0  0  0  0  0  0  0  0  0
   -0.4730   21.0170  -28.9470 C   0  0  0  0  0  0  0  0  0  0  0  0
    0.5990   21.4400  -27.9240 C   0  0  0  0  0  0  0  0  0  0  0  0
   -2.9970   24.2160  -27.4120 C   0  0  0  0  0  0  0  0  0  0  0  0
   -4.2350   24.3010  -28.0540 C   0  0  0  0  0  0  0  0  0  0  0  0
   -5.9380   22.0470  -30.2340 H   0  0  0  0  0  0  0  0  0  0  0  0
   -7.0317   23.5396  -32.3891 H   0  0  0  0  0  0  0  0  0  0  0  0
   -9.0197   22.3926  -30.7321 H   0  0  0  0  0  0  0  0  0  0  0  0
   -9.1740   23.0876  -32.4191 H   0  0  0  0  0  0  0  0  0  0  0  0
  -10.2045   20.8963  -32.3368 H   0  0  0  0  0  0  0  0  0  0  0  0
   -8.6761   20.8771  -33.3456 H   0  0  0  0  0  0  0  0  0  0  0  0
   -8.4634   20.0815  -30.4806 H   0  0  0  0  0  0  0  0  0  0  0  0
   -9.2774   18.9434  -31.6829 H   0  0  0  0  0  0  0  0  0  0  0  0
   -6.9371   18.3585  -31.3455 H   0  0  0  0  0  0  0  0  0  0  0  0
   -7.3021   18.9396  -33.0434 H   0  0  0  0  0  0  0  0  0  0  0  0
   -5.8607   20.4732  -30.8476 H   0  0  0  0  0  0  0  0  0  0  0  0
   -5.1696   19.7934  -32.3857 H   0  0  0  0  0  0  0  0  0  0  0  0
   -5.4354   22.0050  -32.9645 H   0  0  0  0  0  0  0  0  0  0  0  0
   -7.0394   21.2581  -33.4842 H   0  0  0  0  0  0  0  0  0  0  0  0
   -3.2239   23.7395  -31.2728 H   0  0  0  0  0  0  0  0  0  0  0  0
   -1.0146   23.5858  -30.1267 H   0  0  0  0  0  0  0  0  0  0  0  0
   -0.7764   21.4171  -25.1036 H   0  0  0  0  0  0  0  0  0  0  0  0
   -1.8916   22.4639  -26.1097 H   0  0  0  0  0  0  0  0  0  0  0  0
   -1.0415   19.5887  -26.6092 H   0  0  0  0  0  0  0  0  0  0  0  0
   -2.6985   20.2617  -26.3756 H   0  0  0  0  0  0  0  0  0  0  0  0
   -2.2185   19.7537  -28.7611 H   0  0  0  0  0  0  0  0  0  0  0  0
   -2.5084   21.5201  -28.4619 H   0  0  0  0  0  0  0  0  0  0  0  0
   -0.1091   20.1317  -29.4890 H   0  0  0  0  0  0  0  0  0  0  0  0
   -0.6401   21.8724  -29.6181 H   0  0  0  0  0  0  0  0  0  0  0  0
    1.0384   20.5339  -27.4815 H   0  0  0  0  0  0  0  0  0  0  0  0
    1.3490   22.0391  -28.4613 H   0  0  0  0  0  0  0  0  0  0  0  0
   -2.9342   24.3472  -26.3217 H   0  0  0  0  0  0  0  0  0  0  0  0
   -5.1443   24.5009  -27.4682 H   0  0  0  0  0  0  0  0  0  0  0  0
  1  2  2  0
  2  3  2  0
  2  4  1  0
  4  5  1  0
  5  6  1  0
  6  7  1  0
  7  8  1  0
  8  9  1  0
  9 10  1  0
 10 11  1  0
  2 12  1  0
 12 13  2  0
 13 14  1  0
 14 15  2  0
 15 16  1  0
 16 17  2  0
 16 18  2  0
 16 19  1  0
 19 20  1  0
 20 21  1  0
 21 22  1  0
 22 23  1  0
 23 24  1  0
 15 25  1  0
 25 26  2  0
 11  5  1  0
 26 12  1  0
 24 19  1  0
  4 27  1  0
  5 28  1  0
  6 29  1  0
  6 30  1  0
  7 31  1  0
  7 32  1  0
  8 33  1  0
  8 34  1  0
  9 35  1  0
  9 36  1  0
 10 37  1  0
 10 38  1  0
 11 39  1  0
 11 40  1  0
 13 41  1  0
 14 42  1  0
 20 43  1  0
 20 44  1  0
 21 45  1  0
 21 46  1  0
 22 47  1  0
 22 48  1  0
 23 49  1  0
 23 50  1  0
 24 51  1  0
 24 52  1  0
 25 53  1  0
 26 54  1  0
M  END
>  <UniqueID>  (9) 
8

>  <SMILES>  (9) 
O=S(=O)(NC1CCCCCC1)c1ccc(S(=O)(=O)N2CCCCC2)cc1

>  <Energy>  (9) 
62.75697134801657

>  <Genealogy>  (9) 
O=S(=O)(NC1CCCCCC1)c1ccc(S(=O)(=O)N2CCCCC2)cc1 (3D coordinates assigned)
O=S(=O)(NC1CCCCCC1)c1ccc(S(=O)(=O)N2CCCCC2)cc1 (nonaromatic ring conformer: 62.75697134801657 kcal/mol)

>  <smiles>  (9) 
O=S(=O)(NC1CCCCCC1)c1ccc(S(=O)(=O)N2CCCCC2)cc1

>  <score_type>  (9) 
oracle

>  <origin>  (9) 
adgpu

>  <m_score__min__energy>  (9) 
-7.8600000000000003

>  <m_primary>  (9) 
energy

$$$$
9:0
     RDKit          3D

 33 35  0  0  0  0  0  0  0  0999 V2000
   -1.3510   25.5330  -29.0580 O   0  0  0  0  0  0  0  0  0  0  0  0
   -2.5070   24.5730  -29.0770 S   0  0  0  0  0  0  0  0  0  0  0  0
   -3.3200   24.7580  -27.8270 O   0  0  0  0  0  0  0  0  0  0  0  0
   -3.5030   24.9130  -30.4570 N   0  0  0  0  0  0  0  0  0  0  0  0
   -4.8160   24.3780  -30.6930 C   0  0  0  0  0  0  0  0  0  0  0  0
   -5.9650   25.0270  -30.2040 C   0  0  0  0  0  0  0  0  0  0  0  0
   -7.2360   24.5030  -30.4480 C   0  0  0  0  0  0  0  0  0  0  0  0
   -7.3850   23.3260  -31.1800 C   0  0  0  0  0  0  0  0  0  0  0  0
   -6.2580   22.6560  -31.6740 C   0  0  0  0  0  0  0  0  0  0  0  0
   -6.4070   21.4690  -32.4080 C   0  0  0  0  0  0  0  0  0  0  0  0
   -5.2850   20.8010  -32.9010 C   0  0  0  0  0  0  0  0  0  0  0  0
   -4.0070   21.3110  -32.6680 C   0  0  0  0  0  0  0  0  0  0  0  0
   -3.8410   22.4930  -31.9400 C   0  0  0  0  0  0  0  0  0  0  0  0
   -4.9610   23.1810  -31.4320 C   0  0  0  0  0  0  0  0  0  0  0  0
   -1.9370   22.9090  -29.1450 C   0  0  0  0  0  0  0  0  0  0  0  0
   -2.4370   21.9500  -28.2530 C   0  0  0  0  0  0  0  0  0  0  0  0
   -1.9670   20.6330  -28.3020 C   0  0  0  0  0  0  0  0  0  0  0  0
   -0.9970   20.2670  -29.2460 C   0  0  0  0  0  0  0  0  0  0  0  0
   -0.5210   18.9590  -29.3030 O   0  0  0  0  0  0  0  0  0  0  0  0
   -0.5020   21.2220  -30.1390 C   0  0  0  0  0  0  0  0  0  0  0  0
   -0.9700   22.5390  -30.0900 C   0  0  0  0  0  0  0  0  0  0  0  0
   -5.8608   25.9559  -29.6241 H   0  0  0  0  0  0  0  0  0  0  0  0
   -8.1250   25.0220  -30.0603 H   0  0  0  0  0  0  0  0  0  0  0  0
   -8.3903   22.9221  -31.3703 H   0  0  0  0  0  0  0  0  0  0  0  0
   -7.4122   21.0635  -32.5955 H   0  0  0  0  0  0  0  0  0  0  0  0
   -5.4083   19.8705  -33.4745 H   0  0  0  0  0  0  0  0  0  0  0  0
   -3.1262   20.7805  -33.0589 H   0  0  0  0  0  0  0  0  0  0  0  0
   -2.8299   22.8884  -31.7627 H   0  0  0  0  0  0  0  0  0  0  0  0
   -3.2002   22.2334  -27.5132 H   0  0  0  0  0  0  0  0  0  0  0  0
   -2.3591   19.8835  -27.5988 H   0  0  0  0  0  0  0  0  0  0  0  0
   -0.3140   18.5080  -30.1880 H   0  0  0  0  0  0  0  0  0  0  0  0
    0.2574   20.9369  -30.8820 H   0  0  0  0  0  0  0  0  0  0  0  0
   -0.5781   23.2868  -30.7951 H   0  0  0  0  0  0  0  0  0  0  0  0
  1  2  2  0
  2  3  2  0
  2  4  1  0
  4  5  1  0
  5  6  2  0
  6  7  1  0
  7  8  2  0
  8  9  1  0
  9 10  2  0
 10 11  1  0
 11 12  2  0
 12 13  1  0
 13 14  2  0
  2 15  1  0
 15 16  2  0
 16 17  1  0
 17 18  2  0
 18 19  1  0
 18 20  1  0
 20 21  2  0
 14  5  1  0
 21 15  1  0
 14  9  1  0
  6 22  1  0
  7 23  1  0
  8 24  1  0
 10 25  1  0
 11 26  1  0
 12 27  1  0
 13 28  1  0
 16 29  1  0
 17 30  1  0
 19 31  1  0
 20 32  1  0
 21 33  1  0
M  CHG  1   4  -1
M  END
>  <UniqueID>  (10) 
9

>  <SMILES>  (10) 
O=S(=O)([N-]c1cccc2ccccc12)c1ccc(O)cc1

>  <Energy>  (10) 
42.83708352753119

>  <Genealogy>  (10) 
O=S(=O)([N-]c1cccc2ccccc12)c1ccc(O)cc1 (protonated)
O=S(=O)([N-]c1cccc2ccccc12)c1ccc(O)cc1 (3D coordinates assigned)
O=S(=O)([N-]c1cccc2ccccc12)c1ccc(O)cc1 (optimized conformer: 42.83708352753119 kcal/mol)

>  <smiles>  (10) 
O=S(=O)(Nc1cccc2ccccc12)c1ccc(O)cc1

>  <score_type>  (10) 
oracle

>  <origin>  (10) 
adgpu

>  <m_score__min__energy>  (10) 
-8.9900000000000002

>  <m_primary>  (10) 
energy

$$$$
10:0
     RDKit          3D

 45 47  0  0  0  0  0  0  0  0999 V2000
   -2.5990   23.3790  -30.4610 N   0  0  0  0  0  0  0  0  0  0  0  0
   -2.3400   23.8720  -29.1390 C   0  0  0  0  0  0  0  0  0  0  0  0
   -1.0210   23.8830  -28.6590 C   0  0  0  0  0  0  0  0  0  0  0  0
   -0.7400   24.3220  -27.3640 C   0  0  0  0  0  0  0  0  0  0  0  0
   -1.7740   24.7590  -26.5360 C   0  0  0  0  0  0  0  0  0  0  0  0
   -3.0900   24.7610  -27.0010 C   0  0  0  0  0  0  0  0  0  0  0  0
   -3.3900   24.3150  -28.3000 C   0  0  0  0  0  0  0  0  0  0  0  0
   -4.7420   24.3740  -28.7860 N   0  0  0  0  0  0  0  0  0  0  0  0
   -5.1020   24.9800  -30.0360 C   0  0  0  0  0  0  0  0  0  0  0  0
   -4.2380   25.6040  -30.7090 O   0  0  0  0  0  0  0  0  0  0  0  0
   -6.4860   24.8350  -30.5350 C   0  0  0  0  0  0  0  0  0  0  0  0
   -6.9660   23.7800  -31.2140 C   0  0  0  0  0  0  0  0  0  0  0  0
   -6.1560   22.6640  -31.7460 C   0  0  0  0  0  0  0  0  0  0  0  0
   -5.0530   22.9490  -32.5650 C   0  0  0  0  0  0  0  0  0  0  0  0
   -4.2410   21.9140  -33.0410 C   0  0  0  0  0  0  0  0  0  0  0  0
   -4.5150   20.5850  -32.6910 C   0  0  0  0  0  0  0  0  0  0  0  0
   -3.4790   19.2860  -33.2660 S   0  0  0  0  0  0  0  0  0  0  0  0
   -2.4170   18.9810  -32.2470 O   0  0  0  0  0  0  0  0  0  0  0  0
   -2.7970   19.7050  -34.5400 O   0  0  0  0  0  0  0  0  0  0  0  0
   -4.4610   17.8540  -33.5490 C   0  0  0  0  0  0  0  0  0  0  0  0
   -5.7650   17.9760  -34.0510 C   0  0  0  0  0  0  0  0  0  0  0  0
   -6.5480   16.8350  -34.2540 C   0  0  0  0  0  0  0  0  0  0  0  0
   -6.0350   15.5700  -33.9510 C   0  0  0  0  0  0  0  0  0  0  0  0
   -4.7390   15.4450  -33.4420 C   0  0  0  0  0  0  0  0  0  0  0  0
   -3.9530   16.5840  -33.2390 C   0  0  0  0  0  0  0  0  0  0  0  0
   -5.5910   20.3010  -31.8400 C   0  0  0  0  0  0  0  0  0  0  0  0
   -6.4020   21.3340  -31.3630 C   0  0  0  0  0  0  0  0  0  0  0  0
   -2.9110   24.0070  -31.2330 H   0  0  0  0  0  0  0  0  0  0  0  0
   -2.5330   22.3570  -30.6660 H   0  0  0  0  0  0  0  0  0  0  0  0
   -0.2015   23.5427  -29.3091 H   0  0  0  0  0  0  0  0  0  0  0  0
    0.2968   24.3233  -26.9965 H   0  0  0  0  0  0  0  0  0  0  0  0
   -1.5519   25.1026  -25.5149 H   0  0  0  0  0  0  0  0  0  0  0  0
   -3.8994   25.1146  -26.3454 H   0  0  0  0  0  0  0  0  0  0  0  0
   -5.5060   23.9920  -28.1840 H   0  0  0  0  0  0  0  0  0  0  0  0
   -7.1826   25.6620  -30.3329 H   0  0  0  0  0  0  0  0  0  0  0  0
   -8.0515   23.7437  -31.3885 H   0  0  0  0  0  0  0  0  0  0  0  0
   -4.8257   23.9911  -32.8341 H   0  0  0  0  0  0  0  0  0  0  0  0
   -3.3848   22.1441  -33.6921 H   0  0  0  0  0  0  0  0  0  0  0  0
   -6.1725   18.9705  -34.2854 H   0  0  0  0  0  0  0  0  0  0  0  0
   -7.5686   16.9329  -34.6525 H   0  0  0  0  0  0  0  0  0  0  0  0
   -6.6511   14.6733  -34.1131 H   0  0  0  0  0  0  0  0  0  0  0  0
   -4.3370   14.4499  -33.2009 H   0  0  0  0  0  0  0  0  0  0  0  0
   -2.9346   16.4835  -32.8355 H   0  0  0  0  0  0  0  0  0  0  0  0
   -5.7981   19.2613  -31.5464 H   0  0  0  0  0  0  0  0  0  0  0  0
   -7.2371   21.1054  -30.6845 H   0  0  0  0  0  0  0  0  0  0  0  0
  1  2  1  0
  2  3  2  0
  3  4  1  0
  4  5  2  0
  5  6  1  0
  6  7  2  0
  7  8  1  0
  8  9  1  0
  9 10  2  0
  9 11  1  0
 11 12  2  3
 12 13  1  0
 13 14  2  0
 14 15  1  0
 15 16  2  0
 16 17  1  0
 17 18  2  0
 17 19  2  0
 17 20  1  0
 20 21  2  0
 21 22  1  0
 22 23  2  0
 23 24  1  0
 24 25  2  0
 16 26  1  0
 26 27  2  0
  7  2  1  0
 27 13  1  0
 25 20  1  0
  1 28  1  0
  1 29  1  0
  3 30  1  0
  4 31  1  0
  5 32  1  0
  6 33  1  0
  8 34  1  0
 11 35  1  0
 12 36  1  0
 14 37  1  0
 15 38  1  0
 21 39  1  0
 22 40  1  0
 23 41  1  0
 24 42  1  0
 25 43  1  0
 26 44  1  0
 27 45  1  0
M  END
>  <UniqueID>  (11) 
10

>  <SMILES>  (11) 
Nc1ccccc1NC(=O)C=Cc1ccc(S(=O)(=O)c2ccccc2)cc1

>  <Energy>  (11) 
61.53258548549213

>  <Genealogy>  (11) 
Nc1ccccc1NC(=O)C=Cc1ccc(S(=O)(=O)c2ccccc2)cc1 (3D coordinates assigned)
Nc1ccccc1NC(=O)C=Cc1ccc(S(=O)(=O)c2ccccc2)cc1 (optimized conformer: 61.53258548549213 kcal/mol)

>  <smiles>  (11) 
Nc1ccccc1NC(=O)C=Cc1ccc(S(=O)(=O)c2ccccc2)cc1

>  <score_type>  (11) 
oracle

>  <origin>  (11) 
adgpu

>  <m_score__min__energy>  (11) 
-10.43

>  <m_primary>  (11) 
energy

$$$$
11:0
     RDKit          3D

 50 52  0  0  0  0  0  0  0  0999 V2000
    1.1400   18.6260  -37.4710 C   0  0  0  0  0  0  0  0  0  0  0  0
    1.2860   20.0480  -36.9520 C   0  0  0  0  0  0  0  0  0  0  0  0
    2.2730   20.0760  -35.8760 N   0  0  0  0  0  0  0  0  0  0  0  0
    1.5890   20.8240  -34.4640 S   0  0  0  0  0  0  0  0  0  0  0  0
    1.6850   22.3180  -34.6030 O   0  0  0  0  0  0  0  0  0  0  0  0
    2.3600   20.3940  -33.2470 O   0  0  0  0  0  0  0  0  0  0  0  0
   -0.1050   20.3730  -34.2990 C   0  0  0  0  0  0  0  0  0  0  0  0
   -0.5070   19.0450  -34.4880 C   0  0  0  0  0  0  0  0  0  0  0  0
   -1.8550   18.6930  -34.3600 C   0  0  0  0  0  0  0  0  0  0  0  0
   -2.8170   19.6650  -34.0500 C   0  0  0  0  0  0  0  0  0  0  0  0
   -4.1950   19.2750  -33.9130 N   0  0  0  0  0  0  0  0  0  0  0  0
   -5.1800   20.0470  -33.2070 C   0  0  0  0  0  0  0  0  0  0  0  0
   -5.0000   21.2820  -33.0280 O   0  0  0  0  0  0  0  0  0  0  0  0
   -6.4500   19.4240  -32.7580 C   0  0  0  0  0  0  0  0  0  0  0  0
   -6.5140   18.0250  -32.6300 C   0  0  0  0  0  0  0  0  0  0  0  0
   -7.6830   17.4040  -32.1890 C   0  0  0  0  0  0  0  0  0  0  0  0
   -8.8060   18.1700  -31.8810 C   0  0  0  0  0  0  0  0  0  0  0  0
   -8.7670   19.5580  -32.0210 C   0  0  0  0  0  0  0  0  0  0  0  0
   -7.5960   20.2010  -32.4640 C   0  0  0  0  0  0  0  0  0  0  0  0
   -7.5630   21.6230  -32.6700 N   0  0  0  0  0  0  0  0  0  0  0  0
   -7.8740   22.8220  -31.4570 S   0  0  0  0  0  0  0  0  0  0  0  0
   -8.7660   23.8860  -32.0330 O   0  0  0  0  0  0  0  0  0  0  0  0
   -8.5710   22.1800  -30.2900 O   0  0  0  0  0  0  0  0  0  0  0  0
   -6.3570   23.5630  -30.9580 C   0  0  0  0  0  0  0  0  0  0  0  0
   -5.2770   22.7510  -30.5830 C   0  0  0  0  0  0  0  0  0  0  0  0
   -4.0740   23.3290  -30.1680 C   0  0  0  0  0  0  0  0  0  0  0  0
   -3.9440   24.7200  -30.1270 C   0  0  0  0  0  0  0  0  0  0  0  0
   -2.7500   25.2940  -29.7100 O   0  0  0  0  0  0  0  0  0  0  0  0
   -5.0160   25.5350  -30.5040 C   0  0  0  0  0  0  0  0  0  0  0  0
   -6.2210   24.9590  -30.9210 C   0  0  0  0  0  0  0  0  0  0  0  0
   -2.4050   20.9910  -33.8290 C   0  0  0  0  0  0  0  0  0  0  0  0
   -1.0580   21.3410  -33.9590 C   0  0  0  0  0  0  0  0  0  0  0  0
    1.0687   17.9311  -36.6213 H   0  0  0  0  0  0  0  0  0  0  0  0
    0.2294   18.5509  -38.0835 H   0  0  0  0  0  0  0  0  0  0  0  0
    2.0163   18.3675  -38.0835 H   0  0  0  0  0  0  0  0  0  0  0  0
    1.6172   20.7045  -37.7702 H   0  0  0  0  0  0  0  0  0  0  0  0
    0.3166   20.3992  -36.5687 H   0  0  0  0  0  0  0  0  0  0  0  0
    0.2392   18.2764  -34.7378 H   0  0  0  0  0  0  0  0  0  0  0  0
   -2.1623   17.6466  -34.5035 H   0  0  0  0  0  0  0  0  0  0  0  0
   -4.5220   18.4330  -34.4390 H   0  0  0  0  0  0  0  0  0  0  0  0
   -5.6339   17.4144  -32.8800 H   0  0  0  0  0  0  0  0  0  0  0  0
   -7.7184   16.3096  -32.0844 H   0  0  0  0  0  0  0  0  0  0  0  0
   -9.7247   17.6796  -31.5269 H   0  0  0  0  0  0  0  0  0  0  0  0
   -9.6597   20.1550  -31.7829 H   0  0  0  0  0  0  0  0  0  0  0  0
   -5.3769   21.6560  -30.6155 H   0  0  0  0  0  0  0  0  0  0  0  0
   -3.2292   22.6889  -29.8736 H   0  0  0  0  0  0  0  0  0  0  0  0
   -4.9118   26.6296  -30.4727 H   0  0  0  0  0  0  0  0  0  0  0  0
   -7.0625   25.6012  -31.2201 H   0  0  0  0  0  0  0  0  0  0  0  0
   -3.1456   21.7560  -33.5527 H   0  0  0  0  0  0  0  0  0  0  0  0
   -0.7449   22.3824  -33.7933 H   0  0  0  0  0  0  0  0  0  0  0  0
  1  2  1  0
  2  3  1  0
  3  4  1  0
  4  5  2  0
  4  6  2  0
  4  7  1  0
  7  8  2  0
  8  9  1  0
  9 10  2  0
 10 11  1  0
 11 12  1  0
 12 13  2  0
 12 14  1  0
 14 15  2  0
 15 16  1  0
 16 17  2  0
 17 18  1  0
 18 19  2  0
 19 20  1  0
 20 21  1  0
 21 22  2  0
 21 23  2  0
 21 24  1  0
 24 25  2  0
 25 26  1  0
 26 27  2  0
 27 28  1  0
 27 29  1  0
 29 30  2  0
 10 31  1  0
 31 32  2  0
 32  7  1  0
 19 14  1  0
 30 24  1  0
  1 33  1  0
  1 34  1  0
  1 35  1  0
  2 36  1  0
  2 37  1  0
  8 38  1  0
  9 39  1  0
 11 40  1  0
 15 41  1  0
 16 42  1  0
 17 43  1  0
 18 44  1  0
 25 45  1  0
 26 46  1  0
 29 47  1  0
 30 48  1  0
 31 49  1  0
 32 50  1  0
M  CHG  3   3  -1  20  -1  28  -1
M  END
>  <UniqueID>  (12) 
11

>  <SMILES>  (12) 
CC[N-]S(=O)(=O)c1ccc(NC(=O)c2ccccc2[N-]S(=O)(=O)c2ccc([O-])cc2)cc1

>  <Energy>  (12) 
58.33587189497659

>  <Genealogy>  (12) 
CC[N-]S(=O)(=O)c1ccc(NC(=O)c2ccccc2[N-]S(=O)(=O)c2ccc([O-])cc2)cc1 (protonated)
CC[N-]S(=O)(=O)c1ccc(NC(=O)c2ccccc2[N-]S(=O)(=O)c2ccc([O-])cc2)cc1 (3D coordinates assigned)
CC[N-]S(=O)(=O)c1ccc(NC(=O)c2ccccc2[N-]S(=O)(=O)c2ccc([O-])cc2)cc1 (optimized conformer: 58.33587189497659 kcal/mol)

>  <smiles>  (12) 
CCNS(=O)(=O)c1ccc(NC(=O)c2ccccc2NS(=O)(=O)c2ccc(O)cc2)cc1

>  <score_type>  (12) 
oracle

>  <origin>  (12) 
adgpu

>  <m_score__min__energy>  (12) 
-12.220000000000001

>  <m_primary>  (12) 
energy

$$$$
12:0
     RDKit          3D

 43 44  0  0  0  0  0  0  0  0999 V2000
    0.4870   21.2280  -34.7260 C   0  0  0  0  0  0  0  0  0  0  0  0
   -0.3070   21.1500  -33.5460 O   0  0  0  0  0  0  0  0  0  0  0  0
   -1.6340   20.6960  -33.5120 C   0  0  0  0  0  0  0  0  0  0  0  0
   -2.7080   21.5290  -33.1440 C   0  0  0  0  0  0  0  0  0  0  0  0
   -4.0140   21.0280  -33.1270 C   0  0  0  0  0  0  0  0  0  0  0  0
   -4.2630   19.6950  -33.4770 C   0  0  0  0  0  0  0  0  0  0  0  0
   -5.9040   19.0530  -33.4680 S   0  0  0  0  0  0  0  0  0  0  0  0
   -6.1000   18.2010  -34.6890 O   0  0  0  0  0  0  0  0  0  0  0  0
   -6.1250   18.2100  -32.2420 O   0  0  0  0  0  0  0  0  0  0  0  0
   -7.0520   20.3570  -33.4870 N   0  0  0  0  0  0  0  0  0  0  0  0
   -7.6410   20.5190  -32.1560 C   0  0  0  0  0  0  0  0  0  0  0  0
   -6.9170   21.6360  -31.3980 C   0  0  0  0  0  0  0  0  0  0  0  0
   -6.5610   22.8160  -32.3140 C   0  0  0  0  0  0  0  0  0  0  0  0
   -5.5510   23.6990  -31.6890 N   0  0  0  0  0  0  0  0  0  0  0  0
   -6.2030   24.8410  -31.0170 C   0  0  0  0  0  0  0  0  0  0  0  0
   -5.1960   25.6230  -30.1490 C   0  0  0  0  0  0  0  0  0  0  0  0
   -3.8680   25.2640  -30.4710 O   0  0  0  0  0  0  0  0  0  0  0  0
   -3.6410   23.9090  -30.1280 C   0  0  0  0  0  0  0  0  0  0  0  0
   -4.7090   22.9650  -30.7240 C   0  0  0  0  0  0  0  0  0  0  0  0
   -3.1950   18.8640  -33.8390 C   0  0  0  0  0  0  0  0  0  0  0  0
   -1.8890   19.3630  -33.8570 C   0  0  0  0  0  0  0  0  0  0  0  0
    1.5464   21.3321  -34.4489 H   0  0  0  0  0  0  0  0  0  0  0  0
    0.3517   20.3122  -35.3202 H   0  0  0  0  0  0  0  0  0  0  0  0
    0.1761   22.0999  -35.3202 H   0  0  0  0  0  0  0  0  0  0  0  0
   -2.5194   22.5772  -32.8690 H   0  0  0  0  0  0  0  0  0  0  0  0
   -4.8486   21.6835  -32.8376 H   0  0  0  0  0  0  0  0  0  0  0  0
   -7.8130   20.0780  -34.1480 H   0  0  0  0  0  0  0  0  0  0  0  0
   -8.7054   20.7774  -32.2572 H   0  0  0  0  0  0  0  0  0  0  0  0
   -7.5385   19.5769  -31.5975 H   0  0  0  0  0  0  0  0  0  0  0  0
   -7.5700   21.9980  -30.5901 H   0  0  0  0  0  0  0  0  0  0  0  0
   -5.9799   21.2224  -30.9971 H   0  0  0  0  0  0  0  0  0  0  0  0
   -6.1586   22.4257  -33.2604 H   0  0  0  0  0  0  0  0  0  0  0  0
   -7.4733   23.4045  -32.4910 H   0  0  0  0  0  0  0  0  0  0  0  0
   -6.6204   25.5157  -31.7790 H   0  0  0  0  0  0  0  0  0  0  0  0
   -6.9999   24.4542  -30.3649 H   0  0  0  0  0  0  0  0  0  0  0  0
   -5.3303   26.7007  -30.3240 H   0  0  0  0  0  0  0  0  0  0  0  0
   -5.3796   25.3797  -29.0921 H   0  0  0  0  0  0  0  0  0  0  0  0
   -2.6529   23.6091  -30.5072 H   0  0  0  0  0  0  0  0  0  0  0  0
   -3.6936   23.8265  -29.0324 H   0  0  0  0  0  0  0  0  0  0  0  0
   -4.2107   22.1295  -31.2374 H   0  0  0  0  0  0  0  0  0  0  0  0
   -5.3432   22.5796  -29.9120 H   0  0  0  0  0  0  0  0  0  0  0  0
   -3.3845   17.8149  -34.1101 H   0  0  0  0  0  0  0  0  0  0  0  0
   -1.0563   18.7041  -34.1441 H   0  0  0  0  0  0  0  0  0  0  0  0
  1  2  1  0
  2  3  1  0
  3  4  2  0
  4  5  1  0
  5  6  2  0
  6  7  1  0
  7  8  2  0
  7  9  2  0
  7 10  1  0
 10 11  1  0
 11 12  1  0
 12 13  1  0
 13 14  1  0
 14 15  1  0
 15 16  1  0
 16 17  1  0
 17 18  1  0
 18 19  1  0
  6 20  1  0
 20 21  2  0
 21  3  1  0
 19 14  1  0
  1 22  1  0
  1 23  1  0
  1 24  1  0
  4 25  1  0
  5 26  1  0
 10 27  1  0
 11 28  1  0
 11 29  1  0
 12 30  1  0
 12 31  1  0
 13 32  1  0
 13 33  1  0
 15 34  1  0
 15 35  1  0
 16 36  1  0
 16 37  1  0
 18 38  1  0
 18 39  1  0
 19 40  1  0
 19 41  1  0
 20 42  1  0
 21 43  1  0
M  END
>  <UniqueID>  (13) 
12

>  <SMILES>  (13) 
COc1ccc(S(=O)(=O)NCCCN2CCOCC2)cc1

>  <Energy>  (13) 
44.540524454406636

>  <Genealogy>  (13) 
COc1ccc(S(=O)(=O)NCCCN2CCOCC2)cc1 (3D coordinates assigned)
COc1ccc(S(=O)(=O)NCCCN2CCOCC2)cc1 (nonaromatic ring conformer: 44.540524454406636 kcal/mol)

>  <smiles>  (13) 
COc1ccc(S(=O)(=O)NCCCN2CCOCC2)cc1

>  <score_type>  (13) 
oracle

>  <origin>  (13) 
adgpu

>  <m_score__min__energy>  (13) 
-8.1699999999999999

>  <m_primary>  (13) 
energy

$$$$
13:0
     RDKit          3D

 60 63  0  0  0  0  0  0  0  0999 V2000
   -3.7420   24.5460  -27.0840 C   0  0  0  0  0  0  0  0  0  0  0  0
   -2.9390   24.6790  -28.2520 O   0  0  0  0  0  0  0  0  0  0  0  0
   -2.8470   23.7170  -29.2700 C   0  0  0  0  0  0  0  0  0  0  0  0
   -2.1430   22.5100  -29.0970 C   0  0  0  0  0  0  0  0  0  0  0  0
   -2.0730   21.5680  -30.1320 C   0  0  0  0  0  0  0  0  0  0  0  0
   -2.7340   21.8210  -31.3470 C   0  0  0  0  0  0  0  0  0  0  0  0
   -3.4170   23.0300  -31.5280 C   0  0  0  0  0  0  0  0  0  0  0  0
   -3.4830   23.9790  -30.4910 C   0  0  0  0  0  0  0  0  0  0  0  0
   -4.1680   25.1940  -30.6350 O   0  0  0  0  0  0  0  0  0  0  0  0
   -5.5250   25.4090  -30.2580 C   0  0  0  0  0  0  0  0  0  0  0  0
   -2.6160   20.8480  -32.4920 C   0  0  0  0  0  0  0  0  0  0  0  0
   -2.3660   19.4810  -31.9980 N   0  0  0  0  0  0  0  0  0  0  0  0
   -2.2120   18.3810  -33.3530 S   0  0  0  0  0  0  0  0  0  0  0  0
   -2.1560   19.1700  -34.6320 O   0  0  0  0  0  0  0  0  0  0  0  0
   -0.9510   17.5740  -33.2120 O   0  0  0  0  0  0  0  0  0  0  0  0
   -3.5820   17.2530  -33.4000 C   0  0  0  0  0  0  0  0  0  0  0  0
   -3.3280   15.8900  -33.6340 C   0  0  0  0  0  0  0  0  0  0  0  0
   -4.3740   14.9680  -33.6830 C   0  0  0  0  0  0  0  0  0  0  0  0
   -5.6870   15.3940  -33.5150 C   0  0  0  0  0  0  0  0  0  0  0  0
   -5.9630   16.7480  -33.3170 C   0  0  0  0  0  0  0  0  0  0  0  0
   -4.9250   17.6990  -33.2730 C   0  0  0  0  0  0  0  0  0  0  0  0
   -5.2370   19.1010  -33.1260 N   0  0  0  0  0  0  0  0  0  0  0  0
   -6.4190   19.7400  -33.7140 C   0  0  0  0  0  0  0  0  0  0  0  0
   -7.1230   20.6230  -32.7060 C   0  0  0  0  0  0  0  0  0  0  0  0
   -6.5120   21.8350  -32.3320 C   0  0  0  0  0  0  0  0  0  0  0  0
   -7.1190   22.6870  -31.4090 C   0  0  0  0  0  0  0  0  0  0  0  0
   -8.3380   22.3370  -30.8320 C   0  0  0  0  0  0  0  0  0  0  0  0
   -8.9440   21.1250  -31.1610 C   0  0  0  0  0  0  0  0  0  0  0  0
   -8.3410   20.2460  -32.0810 C   0  0  0  0  0  0  0  0  0  0  0  0
   -9.0180   18.9310  -32.3750 C   0  0  0  0  0  0  0  0  0  0  0  0
   -1.1400   19.4660  -31.1840 C   0  0  0  0  0  0  0  0  0  0  0  0
   -1.3690   20.2550  -29.8890 C   0  0  0  0  0  0  0  0  0  0  0  0
   -3.1094   24.6508  -26.1902 H   0  0  0  0  0  0  0  0  0  0  0  0
   -4.5153   25.3283  -27.0796 H   0  0  0  0  0  0  0  0  0  0  0  0
   -4.2218   23.5562  -27.0796 H   0  0  0  0  0  0  0  0  0  0  0  0
   -1.6426   22.3043  -28.1392 H   0  0  0  0  0  0  0  0  0  0  0  0
   -3.9068   23.2400  -32.4903 H   0  0  0  0  0  0  0  0  0  0  0  0
   -5.6032   25.4214  -29.1609 H   0  0  0  0  0  0  0  0  0  0  0  0
   -5.8692   26.3729  -30.6610 H   0  0  0  0  0  0  0  0  0  0  0  0
   -6.1503   24.5987  -30.6610 H   0  0  0  0  0  0  0  0  0  0  0  0
   -3.5521   20.8565  -33.0697 H   0  0  0  0  0  0  0  0  0  0  0  0
   -1.7702   21.1525  -33.1260 H   0  0  0  0  0  0  0  0  0  0  0  0
   -2.2932   15.5468  -33.7800 H   0  0  0  0  0  0  0  0  0  0  0  0
   -4.1598   13.9028  -33.8547 H   0  0  0  0  0  0  0  0  0  0  0  0
   -6.5090   14.6633  -33.5381 H   0  0  0  0  0  0  0  0  0  0  0  0
   -7.0055   17.0767  -33.1937 H   0  0  0  0  0  0  0  0  0  0  0  0
   -4.5750   19.7310  -32.6220 H   0  0  0  0  0  0  0  0  0  0  0  0
   -6.1058   20.3537  -34.5715 H   0  0  0  0  0  0  0  0  0  0  0  0
   -7.1171   18.9527  -34.0346 H   0  0  0  0  0  0  0  0  0  0  0  0
   -5.5437   22.1137  -32.7732 H   0  0  0  0  0  0  0  0  0  0  0  0
   -6.6346   23.6363  -31.1364 H   0  0  0  0  0  0  0  0  0  0  0  0
   -8.8227   23.0173  -30.1163 H   0  0  0  0  0  0  0  0  0  0  0  0
   -9.9034   20.8527  -30.6969 H   0  0  0  0  0  0  0  0  0  0  0  0
   -9.2752   18.4315  -31.4293 H   0  0  0  0  0  0  0  0  0  0  0  0
   -9.9349   19.1122  -32.9551 H   0  0  0  0  0  0  0  0  0  0  0  0
   -8.3378   18.2900  -32.9551 H   0  0  0  0  0  0  0  0  0  0  0  0
   -0.8777   18.4266  -30.9373 H   0  0  0  0  0  0  0  0  0  0  0  0
   -0.3200   19.9292  -31.7523 H   0  0  0  0  0  0  0  0  0  0  0  0
   -1.9820   19.6462  -29.2081 H   0  0  0  0  0  0  0  0  0  0  0  0
   -0.3838   20.4782  -29.4536 H   0  0  0  0  0  0  0  0  0  0  0  0
  1  2  1  0
  2  3  1  0
  3  4  2  0
  4  5  1  0
  5  6  2  0
  6  7  1  0
  7  8  2  0
  8  9  1  0
  9 10  1  0
  6 11  1  0
 11 12  1  0
 12 13  1  0
 13 14  2  0
 13 15  2  0
 13 16  1  0
 16 17  2  0
 17 18  1  0
 18 19  2  0
 19 20  1  0
 20 21  2  0
 21 22  1  0
 22 23  1  0
 23 24  1  0
 24 25  2  0
 25 26  1  0
 26 27  2  0
 27 28  1  0
 28 29  2  0
 29 30  1  0
 12 31  1  0
 31 32  1  0
  8  3  1  0
 21 16  1  0
 29 24  1  0
 32  5  1  0
  1 33  1  0
  1 34  1  0
  1 35  1  0
  4 36  1  0
  7 37  1  0
 10 38  1  0
 10 39  1  0
 10 40  1  0
 11 41  1  0
 11 42  1  0
 17 43  1  0
 18 44  1  0
 19 45  1  0
 20 46  1  0
 22 47  1  0
 23 48  1  0
 23 49  1  0
 25 50  1  0
 26 51  1  0
 27 52  1  0
 28 53  1  0
 30 54  1  0
 30 55  1  0
 30 56  1  0
 31 57  1  0
 31 58  1  0
 32 59  1  0
 32 60  1  0
M  END
>  <UniqueID>  (14) 
13

>  <SMILES>  (14) 
COc1cc2c(cc1OC)CN(S(=O)(=O)c1ccccc1NCc1ccccc1C)CC2

>  <Energy>  (14) 
68.98377533617723

>  <Genealogy>  (14) 
COc1cc2c(cc1OC)CN(S(=O)(=O)c1ccccc1NCc1ccccc1C)CC2 (3D coordinates assigned)
COc1cc2c(cc1OC)CN(S(=O)(=O)c1ccccc1NCc1ccccc1C)CC2 (nonaromatic ring conformer: 68.98377533617723 kcal/mol)

>  <smiles>  (14) 
COc1cc2c(cc1OC)CN(S(=O)(=O)c1ccccc1NCc1ccccc1C)CC2

>  <score_type>  (14) 
oracle

>  <origin>  (14) 
adgpu

>  <m_score__min__energy>  (14) 
-9.5700000000000003

>  <m_primary>  (14) 
energy

$$$$
14:0
     RDKit          3D

 43 46  0  0  0  0  0  0  0  0999 V2000
   -3.5230   25.2980  -30.5070 N   0  0  0  0  0  0  0  0  0  0  0  0
   -3.8060   23.9290  -30.7840 C   0  0  0  0  0  0  0  0  0  0  0  0
   -4.8710   23.6270  -31.3860 O   0  0  0  0  0  0  0  0  0  0  0  0
   -2.8680   22.8750  -30.3410 C   0  0  0  0  0  0  0  0  0  0  0  0
   -2.0190   22.9820  -29.2330 C   0  0  0  0  0  0  0  0  0  0  0  0
   -1.9530   24.0830  -28.2490 C   0  0  0  0  0  0  0  0  0  0  0  0
   -2.9450   24.2170  -27.2660 C   0  0  0  0  0  0  0  0  0  0  0  0
   -2.8820   25.2580  -26.3350 C   0  0  0  0  0  0  0  0  0  0  0  0
   -1.8230   26.1760  -26.3770 C   0  0  0  0  0  0  0  0  0  0  0  0
   -1.7500   27.2160  -25.4530 O   0  0  0  0  0  0  0  0  0  0  0  0
   -0.8300   26.0450  -27.3540 C   0  0  0  0  0  0  0  0  0  0  0  0
    0.1970   26.9310  -27.4040 F   0  0  0  0  0  0  0  0  0  0  0  0
   -0.8930   25.0040  -28.2860 C   0  0  0  0  0  0  0  0  0  0  0  0
   -1.2750   21.8180  -29.2200 C   0  0  0  0  0  0  0  0  0  0  0  0
   -0.2960   21.3660  -28.3320 C   0  0  0  0  0  0  0  0  0  0  0  0
    0.2950   20.1160  -28.5800 C   0  0  0  0  0  0  0  0  0  0  0  0
   -0.1030   19.3450  -29.6930 C   0  0  0  0  0  0  0  0  0  0  0  0
    0.4920   18.1120  -29.9280 O   0  0  0  0  0  0  0  0  0  0  0  0
   -1.1020   19.8170  -30.5630 C   0  0  0  0  0  0  0  0  0  0  0  0
   -1.6790   21.0640  -30.2930 C   0  0  0  0  0  0  0  0  0  0  0  0
   -2.6520   21.6940  -30.9900 N   0  0  0  0  0  0  0  0  0  0  0  0
   -3.2210   21.2390  -32.2680 C   0  0  0  0  0  0  0  0  0  0  0  0
   -2.1340   20.7190  -33.1840 C   0  0  0  0  0  0  0  0  0  0  0  0
   -1.0620   21.5690  -33.5170 C   0  0  0  0  0  0  0  0  0  0  0  0
   -0.0390   21.1300  -34.3610 C   0  0  0  0  0  0  0  0  0  0  0  0
    1.0180   21.9770  -34.6700 O   0  0  0  0  0  0  0  0  0  0  0  0
   -0.0800   19.8420  -34.8960 C   0  0  0  0  0  0  0  0  0  0  0  0
   -1.1460   18.9940  -34.5950 C   0  0  0  0  0  0  0  0  0  0  0  0
   -2.1790   19.4220  -33.7500 C   0  0  0  0  0  0  0  0  0  0  0  0
   -3.5050   18.3020  -33.4480 Cl  0  0  0  0  0  0  0  0  0  0  0  0
   -3.5110   26.0100  -31.2710 H   0  0  0  0  0  0  0  0  0  0  0  0
   -3.7772   23.4987  -27.2276 H   0  0  0  0  0  0  0  0  0  0  0  0
   -3.6645   25.3571  -25.5683 H   0  0  0  0  0  0  0  0  0  0  0  0
   -2.3620   27.2510  -24.6460 H   0  0  0  0  0  0  0  0  0  0  0  0
   -0.1090   24.9061  -29.0513 H   0  0  0  0  0  0  0  0  0  0  0  0
    0.0034   21.9713  -27.4637 H   0  0  0  0  0  0  0  0  0  0  0  0
    1.0733   19.7356  -27.9021 H   0  0  0  0  0  0  0  0  0  0  0  0
   -1.4214   19.2228  -31.4319 H   0  0  0  0  0  0  0  0  0  0  0  0
   -3.9453   20.4341  -32.0743 H   0  0  0  0  0  0  0  0  0  0  0  0
   -3.7173   22.0904  -32.7567 H   0  0  0  0  0  0  0  0  0  0  0  0
   -1.0297   22.5897  -33.1082 H   0  0  0  0  0  0  0  0  0  0  0  0
    0.7289   19.4950  -35.5557 H   0  0  0  0  0  0  0  0  0  0  0  0
   -1.1760   17.9816  -35.0242 H   0  0  0  0  0  0  0  0  0  0  0  0
  1  2  1  0
  2  3  2  0
  2  4  1  0
  4  5  2  0
  5  6  1  0
  6  7  2  0
  7  8  1  0
  8  9  2  0
  9 10  1  0
  9 11  1  0
 11 12  1  0
 11 13  2  0
  5 14  1  0
 14 15  2  0
 15 16  1  0
 16 17  2  0
 17 18  1  0
 17 19  1  0
 19 20  2  0
 20 21  1  0
 21 22  1  0
 22 23  1  0
 23 24  2  0
 24 25  1  0
 25 26  1  0
 25 27  2  0
 27 28  1  0
 28 29  2  0
 29 30  1  0
 21  4  1  0
 29 23  1  0
 13  6  1  0
 20 14  1  0
  1 31  1  0
  7 32  1  0
  8 33  1  0
 10 34  1  0
 13 35  1  0
 15 36  1  0
 16 37  1  0
 19 38  1  0
 22 39  1  0
 22 40  1  0
 24 41  1  0
 27 42  1  0
 28 43  1  0
M  CHG  3   1  -1  18  -1  26  -1
M  END
>  <UniqueID>  (15) 
14

>  <SMILES>  (15) 
[NH-]C(=O)c1c(-c2ccc(O)c(F)c2)c2ccc([O-])cc2n1Cc1cc([O-])ccc1Cl

>  <Energy>  (15) 
92.17926940172214

>  <Genealogy>  (15) 
[NH-]C(=O)c1c(-c2ccc(O)c(F)c2)c2ccc([O-])cc2n1Cc1cc([O-])ccc1Cl (protonated)
[NH-]C(=O)c1c(-c2ccc(O)c(F)c2)c2ccc([O-])cc2n1Cc1cc([O-])ccc1Cl (3D coordinates assigned)
[NH-]C(=O)c1c(-c2ccc(O)c(F)c2)c2ccc([O-])cc2n1Cc1cc([O-])ccc1Cl (optimized conformer: 92.17926940172214 kcal/mol)

>  <smiles>  (15) 
NC(=O)c1c(-c2ccc(O)c(F)c2)c2ccc(O)cc2n1Cc1cc(O)ccc1Cl

>  <score_type>  (15) 
oracle

>  <origin>  (15) 
adgpu

>  <m_score__min__energy>  (15) 
-11.49

>  <m_primary>  (15) 
energy

$$$$
15:0
     RDKit          3D

 41 43  0  0  0  0  0  0  0  0999 V2000
   -2.5300   20.7960  -27.7710 C   0  0  0  0  0  0  0  0  0  0  0  0
   -2.2080   22.2080  -28.1620 C   0  0  0  0  0  0  0  0  0  0  0  0
   -1.0450   22.8290  -27.6820 C   0  0  0  0  0  0  0  0  0  0  0  0
   -0.7320   24.1320  -28.0750 C   0  0  0  0  0  0  0  0  0  0  0  0
   -1.5650   24.8190  -28.9630 C   0  0  0  0  0  0  0  0  0  0  0  0
   -1.2380   26.1150  -29.3460 O   0  0  0  0  0  0  0  0  0  0  0  0
   -2.7200   24.2030  -29.4710 C   0  0  0  0  0  0  0  0  0  0  0  0
   -3.5380   24.9290  -30.3990 N   0  0  0  0  0  0  0  0  0  0  0  0
   -5.2720   24.9670  -30.3930 S   0  0  0  0  0  0  0  0  0  0  0  0
   -5.7410   26.1120  -31.2450 O   0  0  0  0  0  0  0  0  0  0  0  0
   -5.7490   25.1750  -28.9820 O   0  0  0  0  0  0  0  0  0  0  0  0
   -5.9180   23.4660  -31.0490 C   0  0  0  0  0  0  0  0  0  0  0  0
   -7.2820   23.1740  -30.9270 C   0  0  0  0  0  0  0  0  0  0  0  0
   -7.7950   21.9730  -31.4240 C   0  0  0  0  0  0  0  0  0  0  0  0
   -6.9460   21.0480  -32.0480 C   0  0  0  0  0  0  0  0  0  0  0  0
   -7.4500   19.8350  -32.5430 C   0  0  0  0  0  0  0  0  0  0  0  0
   -6.5890   18.9070  -33.1590 C   0  0  0  0  0  0  0  0  0  0  0  0
   -7.0690   17.6620  -33.6880 N   0  0  0  0  0  0  0  0  0  0  0  0
   -6.4280   16.3840  -33.5740 C   0  0  0  0  0  0  0  0  0  0  0  0
   -6.7840   15.4190  -34.3020 O   0  0  0  0  0  0  0  0  0  0  0  0
   -5.4130   16.1610  -32.4980 C   0  0  0  0  0  0  0  0  0  0  0  0
   -4.2000   16.7110  -32.8690 F   0  0  0  0  0  0  0  0  0  0  0  0
   -5.8320   16.7530  -31.3200 F   0  0  0  0  0  0  0  0  0  0  0  0
   -5.2540   14.8040  -32.2930 F   0  0  0  0  0  0  0  0  0  0  0  0
   -5.2330   19.2220  -33.3110 C   0  0  0  0  0  0  0  0  0  0  0  0
   -4.7220   20.4260  -32.8220 C   0  0  0  0  0  0  0  0  0  0  0  0
   -5.5690   21.3450  -32.1850 C   0  0  0  0  0  0  0  0  0  0  0  0
   -5.0650   22.5550  -31.6860 C   0  0  0  0  0  0  0  0  0  0  0  0
   -3.0360   22.8940  -29.0640 C   0  0  0  0  0  0  0  0  0  0  0  0
   -2.5486   20.7144  -26.6742 H   0  0  0  0  0  0  0  0  0  0  0  0
   -3.5144   20.5188  -28.1760 H   0  0  0  0  0  0  0  0  0  0  0  0
   -1.7631   20.1194  -28.1760 H   0  0  0  0  0  0  0  0  0  0  0  0
   -0.3781   22.2882  -26.9944 H   0  0  0  0  0  0  0  0  0  0  0  0
    0.1734   24.6196  -27.6844 H   0  0  0  0  0  0  0  0  0  0  0  0
   -7.9537   23.8943  -30.4370 H   0  0  0  0  0  0  0  0  0  0  0  0
   -8.8682   21.7526  -31.3254 H   0  0  0  0  0  0  0  0  0  0  0  0
   -8.5223   19.6086  -32.4492 H   0  0  0  0  0  0  0  0  0  0  0  0
   -4.5635   18.5137  -33.8209 H   0  0  0  0  0  0  0  0  0  0  0  0
   -3.6521   20.6545  -32.9366 H   0  0  0  0  0  0  0  0  0  0  0  0
   -3.9959   22.7897  -31.7951 H   0  0  0  0  0  0  0  0  0  0  0  0
   -3.9395   22.4041  -29.4559 H   0  0  0  0  0  0  0  0  0  0  0  0
  1  2  1  0
  2  3  2  0
  3  4  1  0
  4  5  2  0
  5  6  1  0
  5  7  1  0
  7  8  1  0
  8  9  1  0
  9 10  2  0
  9 11  2  0
  9 12  1  0
 12 13  2  0
 13 14  1  0
 14 15  2  0
 15 16  1  0
 16 17  2  0
 17 18  1  0
 18 19  1  0
 19 20  2  0
 19 21  1  0
 21 22  1  0
 21 23  1  0
 21 24  1  0
 17 25  1  0
 25 26  2  0
 26 27  1  0
 27 28  2  0
  7 29  2  0
 29  2  1  0
 28 12  1  0
 27 15  1  0
  1 30  1  0
  1 31  1  0
  1 32  1  0
  3 33  1  0
  4 34  1  0
 13 35  1  0
 14 36  1  0
 16 37  1  0
 25 38  1  0
 26 39  1  0
 28 40  1  0
 29 41  1  0
M  CHG  3   6  -1   8  -1  18  -1
M  END
>  <UniqueID>  (16) 
15

>  <SMILES>  (16) 
Cc1ccc([O-])c([N-]S(=O)(=O)c2ccc3cc([N-]C(=O)C(F)(F)F)ccc3c2)c1

>  <Energy>  (16) 
50.78479258733844

>  <Genealogy>  (16) 
Cc1ccc([O-])c([N-]S(=O)(=O)c2ccc3cc([N-]C(=O)C(F)(F)F)ccc3c2)c1 (protonated)
Cc1ccc([O-])c([N-]S(=O)(=O)c2ccc3cc([N-]C(=O)C(F)(F)F)ccc3c2)c1 (3D coordinates assigned)
Cc1ccc([O-])c([N-]S(=O)(=O)c2ccc3cc([N-]C(=O)C(F)(F)F)ccc3c2)c1 (optimized conformer: 50.78479258733844 kcal/mol)

>  <smiles>  (16) 
Cc1ccc(O)c(NS(=O)(=O)c2ccc3cc(NC(=O)C(F)(F)F)ccc3c2)c1

>  <score_type>  (16) 
oracle

>  <origin>  (16) 
adgpu

>  <m_score__min__energy>  (16) 
-13.859999999999999

>  <m_primary>  (16) 
energy

$$$$
16:0
     RDKit          3D

 36 38  0  0  0  0  0  0  0  0999 V2000
   -3.4570   17.5910  -34.2990 C   0  0  0  0  0  0  0  0  0  0  0  0
   -4.7270   17.2140  -34.9090 N   0  0  0  0  0  0  0  0  0  0  0  0
   -5.8710   16.7950  -33.6700 S   0  0  0  0  0  0  0  0  0  0  0  0
   -6.8780   15.8310  -34.2320 O   0  0  0  0  0  0  0  0  0  0  0  0
   -5.1530   16.1300  -32.5290 O   0  0  0  0  0  0  0  0  0  0  0  0
   -6.7140   18.2370  -33.1100 C   0  0  0  0  0  0  0  0  0  0  0  0
   -7.9170   18.1040  -32.4040 C   0  0  0  0  0  0  0  0  0  0  0  0
   -8.6020   19.2400  -31.9600 C   0  0  0  0  0  0  0  0  0  0  0  0
   -8.0870   20.5170  -32.2170 C   0  0  0  0  0  0  0  0  0  0  0  0
   -8.9310   21.9520  -31.6410 S   0  0  0  0  0  0  0  0  0  0  0  0
   -9.4050   21.7600  -30.2280 O   0  0  0  0  0  0  0  0  0  0  0  0
  -10.1200   22.2010  -32.5270 O   0  0  0  0  0  0  0  0  0  0  0  0
   -7.8730   23.3260  -31.7030 N   0  0  0  0  0  0  0  0  0  0  0  0
   -6.6840   23.4590  -30.9060 C   0  0  0  0  0  0  0  0  0  0  0  0
   -6.5140   22.6130  -29.7780 C   0  0  0  0  0  0  0  0  0  0  0  0
   -5.3690   22.7130  -28.9660 C   0  0  0  0  0  0  0  0  0  0  0  0
   -4.4130   23.6630  -29.3100 C   0  0  0  0  0  0  0  0  0  0  0  0
   -3.2560   23.9250  -28.6840 N   0  0  0  0  0  0  0  0  0  0  0  0
   -2.7410   24.9220  -29.4470 C   0  0  0  0  0  0  0  0  0  0  0  0
   -1.6350   25.4640  -29.1930 O   0  0  0  0  0  0  0  0  0  0  0  0
   -3.5060   25.2960  -30.5050 N   0  0  0  0  0  0  0  0  0  0  0  0
   -4.5620   24.4760  -30.3900 C   0  0  0  0  0  0  0  0  0  0  0  0
   -5.6780   24.4080  -31.2190 C   0  0  0  0  0  0  0  0  0  0  0  0
   -6.8890   20.6510  -32.9290 C   0  0  0  0  0  0  0  0  0  0  0  0
   -6.2050   19.5170  -33.3740 C   0  0  0  0  0  0  0  0  0  0  0  0
   -3.5535   17.5623  -33.2036 H   0  0  0  0  0  0  0  0  0  0  0  0
   -2.6742   16.8865  -34.6167 H   0  0  0  0  0  0  0  0  0  0  0  0
   -3.1854   18.6085  -34.6167 H   0  0  0  0  0  0  0  0  0  0  0  0
   -8.3241   17.1030  -32.1982 H   0  0  0  0  0  0  0  0  0  0  0  0
   -9.5471   19.1302  -31.4079 H   0  0  0  0  0  0  0  0  0  0  0  0
   -8.0880   24.0570  -32.4200 H   0  0  0  0  0  0  0  0  0  0  0  0
   -7.2877   21.8696  -29.5358 H   0  0  0  0  0  0  0  0  0  0  0  0
   -5.2346   22.0622  -28.0894 H   0  0  0  0  0  0  0  0  0  0  0  0
   -5.7766   25.0709  -32.0912 H   0  0  0  0  0  0  0  0  0  0  0  0
   -6.4850   21.6524  -33.1387 H   0  0  0  0  0  0  0  0  0  0  0  0
   -5.2643   19.6284  -33.9332 H   0  0  0  0  0  0  0  0  0  0  0  0
  1  2  1  0
  2  3  1  0
  3  4  2  0
  3  5  2  0
  3  6  1  0
  6  7  2  0
  7  8  1  0
  8  9  2  0
  9 10  1  0
 10 11  2  0
 10 12  2  0
 10 13  1  0
 13 14  1  0
 14 15  2  0
 15 16  1  0
 16 17  2  0
 17 18  1  0
 18 19  1  0
 19 20  2  0
 19 21  1  0
 21 22  1  0
 22 23  2  0
  9 24  1  0
 24 25  2  0
 25  6  1  0
 23 14  1  0
 22 17  1  0
  1 26  1  0
  1 27  1  0
  1 28  1  0
  7 29  1  0
  8 30  1  0
 13 31  1  0
 15 32  1  0
 16 33  1  0
 23 34  1  0
 24 35  1  0
 25 36  1  0
M  CHG  3   2  -1  18  -1  21  -1
M  END
>  <UniqueID>  (17) 
16

>  <SMILES>  (17) 
C[N-]S(=O)(=O)c1ccc(S(=O)(=O)Nc2ccc3[n-]c(=O)[n-]c3c2)cc1

>  <Energy>  (17) 
74.18046163858138

>  <Genealogy>  (17) 
C[N-]S(=O)(=O)c1ccc(S(=O)(=O)Nc2ccc3[n-]c(=O)[n-]c3c2)cc1 (protonated)
C[N-]S(=O)(=O)c1ccc(S(=O)(=O)Nc2ccc3[n-]c(=O)[n-]c3c2)cc1 (3D coordinates assigned)
C[N-]S(=O)(=O)c1ccc(S(=O)(=O)Nc2ccc3[n-]c(=O)[n-]c3c2)cc1 (optimized conformer: 74.18046163858138 kcal/mol)

>  <smiles>  (17) 
CNS(=O)(=O)c1ccc(S(=O)(=O)Nc2ccc3[nH]c(=O)[nH]c3c2)cc1

>  <score_type>  (17) 
oracle

>  <origin>  (17) 
adgpu

>  <m_score__min__energy>  (17) 
-11.289999999999999

>  <m_primary>  (17) 
energy

$$$$
17:0
     RDKit          3D

 61 64  0  0  0  0  0  0  0  0999 V2000
    4.7400   24.7760  -37.6570 C   0  0  0  0  0  0  0  0  0  0  0  0
    3.7850   23.9940  -36.7930 C   0  0  0  0  0  0  0  0  0  0  0  0
    4.2680   22.8440  -36.1490 C   0  0  0  0  0  0  0  0  0  0  0  0
    3.4380   22.0810  -35.3320 C   0  0  0  0  0  0  0  0  0  0  0  0
    2.1030   22.4540  -35.1280 C   0  0  0  0  0  0  0  0  0  0  0  0
    1.2370   21.6610  -34.2970 N   0  0  0  0  0  0  0  0  0  0  0  0
    0.5820   20.4640  -34.7410 C   0  0  0  0  0  0  0  0  0  0  0  0
    0.9460   19.8970  -35.8060 O   0  0  0  0  0  0  0  0  0  0  0  0
   -0.4240   19.8740  -33.9100 N   0  0  0  0  0  0  0  0  0  0  0  0
   -1.5470   20.5420  -33.3130 C   0  0  0  0  0  0  0  0  0  0  0  0
   -2.8420   20.4680  -33.8580 C   0  0  0  0  0  0  0  0  0  0  0  0
   -3.9010   21.1490  -33.2510 C   0  0  0  0  0  0  0  0  0  0  0  0
   -3.6800   21.9310  -32.1090 C   0  0  0  0  0  0  0  0  0  0  0  0
   -5.0180   22.8040  -31.3540 S   0  0  0  0  0  0  0  0  0  0  0  0
   -5.2560   22.2480  -29.9770 O   0  0  0  0  0  0  0  0  0  0  0  0
   -4.6460   24.2530  -31.2130 O   0  0  0  0  0  0  0  0  0  0  0  0
   -6.4950   22.6750  -32.2890 N   0  0  0  0  0  0  0  0  0  0  0  0
   -6.8660   21.2690  -32.5170 C   0  0  0  0  0  0  0  0  0  0  0  0
   -8.2050   21.0040  -31.8400 C   0  0  0  0  0  0  0  0  0  0  0  0
   -8.4590   22.2100  -30.9710 C   0  0  0  0  0  0  0  0  0  0  0  0
   -7.6210   23.3090  -31.5940 C   0  0  0  0  0  0  0  0  0  0  0  0
   -2.3870   22.0190  -31.5750 C   0  0  0  0  0  0  0  0  0  0  0  0
   -1.3270   21.3350  -32.1790 C   0  0  0  0  0  0  0  0  0  0  0  0
    1.5960   23.5860  -35.7890 C   0  0  0  0  0  0  0  0  0  0  0  0
    0.2690   23.9540  -35.5750 O   0  0  0  0  0  0  0  0  0  0  0  0
    2.4180   24.3570  -36.6390 C   0  0  0  0  0  0  0  0  0  0  0  0
    1.7160   25.7870  -37.4490 S   0  0  0  0  0  0  0  0  0  0  0  0
    2.8000   26.7630  -37.8130 O   0  0  0  0  0  0  0  0  0  0  0  0
    1.0790   25.3450  -38.7380 O   0  0  0  0  0  0  0  0  0  0  0  0
    0.4780   26.5630  -36.4760 N   0  0  0  0  0  0  0  0  0  0  0  0
   -0.4830   27.2860  -37.3240 C   0  0  0  0  0  0  0  0  0  0  0  0
   -1.5880   27.9230  -36.4530 C   0  0  0  0  0  0  0  0  0  0  0  0
   -1.3300   27.7720  -35.0680 O   0  0  0  0  0  0  0  0  0  0  0  0
   -0.0460   28.2830  -34.7630 C   0  0  0  0  0  0  0  0  0  0  0  0
    1.0590   27.4740  -35.4730 C   0  0  0  0  0  0  0  0  0  0  0  0
    5.4325   25.3431  -37.0176 H   0  0  0  0  0  0  0  0  0  0  0  0
    5.3114   24.0830  -38.2921 H   0  0  0  0  0  0  0  0  0  0  0  0
    4.1733   25.4728  -38.2921 H   0  0  0  0  0  0  0  0  0  0  0  0
    5.3160   22.5417  -36.2917 H   0  0  0  0  0  0  0  0  0  0  0  0
    3.8334   21.1785  -34.8430 H   0  0  0  0  0  0  0  0  0  0  0  0
    1.1230   21.9290  -33.2940 H   0  0  0  0  0  0  0  0  0  0  0  0
   -3.0217   19.8721  -34.7650 H   0  0  0  0  0  0  0  0  0  0  0  0
   -4.9142   21.0707  -33.6722 H   0  0  0  0  0  0  0  0  0  0  0  0
   -6.9527   21.0790  -33.5970 H   0  0  0  0  0  0  0  0  0  0  0  0
   -6.0955   20.6044  -32.0992 H   0  0  0  0  0  0  0  0  0  0  0  0
   -9.0014   20.8960  -32.5910 H   0  0  0  0  0  0  0  0  0  0  0  0
   -8.1905   20.0730  -31.2543 H   0  0  0  0  0  0  0  0  0  0  0  0
   -9.5253   22.4800  -30.9825 H   0  0  0  0  0  0  0  0  0  0  0  0
   -8.1971   22.0298  -29.9179 H   0  0  0  0  0  0  0  0  0  0  0  0
   -8.2281   23.8820  -32.3103 H   0  0  0  0  0  0  0  0  0  0  0  0
   -7.2551   23.9991  -30.8195 H   0  0  0  0  0  0  0  0  0  0  0  0
   -2.2052   22.6284  -30.6774 H   0  0  0  0  0  0  0  0  0  0  0  0
   -0.3132   21.4202  -31.7607 H   0  0  0  0  0  0  0  0  0  0  0  0
    0.0442   28.0767  -37.8780 H   0  0  0  0  0  0  0  0  0  0  0  0
   -0.9442   26.5780  -38.0283 H   0  0  0  0  0  0  0  0  0  0  0  0
   -1.6494   28.9960  -36.6872 H   0  0  0  0  0  0  0  0  0  0  0  0
   -2.5344   27.4097  -36.6786 H   0  0  0  0  0  0  0  0  0  0  0  0
    0.0101   29.3315  -35.0907 H   0  0  0  0  0  0  0  0  0  0  0  0
    0.1101   28.2075  -33.6768 H   0  0  0  0  0  0  0  0  0  0  0  0
    1.7494   28.1687  -35.9737 H   0  0  0  0  0  0  0  0  0  0  0  0
    1.5958   26.8757  -34.7221 H   0  0  0  0  0  0  0  0  0  0  0  0
  1  2  1  0
  2  3  2  0
  3  4  1  0
  4  5  2  0
  5  6  1  0
  6  7  1  0
  7  8  2  0
  7  9  1  0
  9 10  1  0
 10 11  2  0
 11 12  1  0
 12 13  2  0
 13 14  1  0
 14 15  2  0
 14 16  2  0
 14 17  1  0
 17 18  1  0
 18 19  1  0
 19 20  1  0
 20 21  1  0
 13 22  1  0
 22 23  2  0
  5 24  1  0
 24 25  1  0
 24 26  2  0
 26 27  1  0
 27 28  2  0
 27 29  2  0
 27 30  1  0
 30 31  1  0
 31 32  1  0
 32 33  1  0
 33 34  1  0
 34 35  1  0
 26  2  1  0
 35 30  1  0
 23 10  1  0
 21 17  1  0
  1 36  1  0
  1 37  1  0
  1 38  1  0
  3 39  1  0
  4 40  1  0
  6 41  1  0
 11 42  1  0
 12 43  1  0
 18 44  1  0
 18 45  1  0
 19 46  1  0
 19 47  1  0
 20 48  1  0
 20 49  1  0
 21 50  1  0
 21 51  1  0
 22 52  1  0
 23 53  1  0
 31 54  1  0
 31 55  1  0
 32 56  1  0
 32 57  1  0
 34 58  1  0
 34 59  1  0
 35 60  1  0
 35 61  1  0
M  CHG  2   9  -1  25  -1
M  END
>  <UniqueID>  (18) 
17

>  <SMILES>  (18) 
Cc1ccc(NC(=O)[N-]c2ccc(S(=O)(=O)N3CCCC3)cc2)c([O-])c1S(=O)(=O)N1CCOCC1

>  <Energy>  (18) 
84.40195005166034

>  <Genealogy>  (18) 
Cc1ccc(NC(=O)[N-]c2ccc(S(=O)(=O)N3CCCC3)cc2)c([O-])c1S(=O)(=O)N1CCOCC1 (protonated)
Cc1ccc(NC(=O)[N-]c2ccc(S(=O)(=O)N3CCCC3)cc2)c([O-])c1S(=O)(=O)N1CCOCC1 (3D coordinates assigned)
Cc1ccc(NC(=O)[N-]c2ccc(S(=O)(=O)N3CCCC3)cc2)c([O-])c1S(=O)(=O)N1CCOCC1 (nonaromatic ring conformer: 84.40195005166034 kcal/mol)

>  <smiles>  (18) 
Cc1ccc(NC(=O)Nc2ccc(S(=O)(=O)N3CCCC3)cc2)c(O)c1S(=O)(=O)N1CCOCC1

>  <score_type>  (18) 
oracle

>  <origin>  (18) 
adgpu

>  <m_score__min__energy>  (18) 
-14.77

>  <m_primary>  (18) 
energy

$$$$
18:0
     RDKit          3D

 58 60  0  0  0  0  0  0  0  0999 V2000
   -0.2390   27.4530  -24.3080 C   0  0  0  0  0  0  0  0  0  0  0  0
   -0.2710   27.1660  -25.7020 O   0  0  0  0  0  0  0  0  0  0  0  0
   -1.0370   26.1450  -26.2880 C   0  0  0  0  0  0  0  0  0  0  0  0
   -2.3650   25.8890  -25.8960 C   0  0  0  0  0  0  0  0  0  0  0  0
   -3.0950   24.8660  -26.5030 C   0  0  0  0  0  0  0  0  0  0  0  0
   -2.5130   24.0770  -27.5020 C   0  0  0  0  0  0  0  0  0  0  0  0
   -3.2770   23.0330  -28.1290 N   0  0  0  0  0  0  0  0  0  0  0  0
   -4.4640   23.3450  -28.9340 C   0  0  0  0  0  0  0  0  0  0  0  0
   -4.1000   24.1800  -30.1230 C   0  0  0  0  0  0  0  0  0  0  0  0
   -3.0940   24.9350  -30.0640 O   0  0  0  0  0  0  0  0  0  0  0  0
   -4.8330   24.0150  -31.3430 N   0  0  0  0  0  0  0  0  0  0  0  0
   -5.9680   23.1690  -31.5720 C   0  0  0  0  0  0  0  0  0  0  0  0
   -7.2470   23.7040  -31.3730 C   0  0  0  0  0  0  0  0  0  0  0  0
   -8.3840   22.9230  -31.5920 C   0  0  0  0  0  0  0  0  0  0  0  0
   -8.2520   21.5990  -32.0240 C   0  0  0  0  0  0  0  0  0  0  0  0
   -6.9780   21.0540  -32.2430 C   0  0  0  0  0  0  0  0  0  0  0  0
   -6.8080   19.3980  -32.8210 S   0  0  0  0  0  0  0  0  0  0  0  0
   -5.7240   18.5350  -31.7890 N   0  0  0  0  0  0  0  0  0  0  0  0
   -6.2710   19.3960  -34.2250 O   0  0  0  0  0  0  0  0  0  0  0  0
   -8.1500   18.7220  -32.8160 O   0  0  0  0  0  0  0  0  0  0  0  0
   -5.8390   21.8440  -32.0310 C   0  0  0  0  0  0  0  0  0  0  0  0
   -2.5290   21.4790  -28.3370 S   0  0  0  0  0  0  0  0  0  0  0  0
   -1.2090   21.4300  -27.6180 O   0  0  0  0  0  0  0  0  0  0  0  0
   -3.4160   20.4080  -27.7650 O   0  0  0  0  0  0  0  0  0  0  0  0
   -2.2650   21.2120  -30.0550 C   0  0  0  0  0  0  0  0  0  0  0  0
   -3.1970   20.4680  -30.7910 C   0  0  0  0  0  0  0  0  0  0  0  0
   -2.9830   20.2200  -32.1500 C   0  0  0  0  0  0  0  0  0  0  0  0
   -1.8380   20.7200  -32.7890 C   0  0  0  0  0  0  0  0  0  0  0  0
   -1.5890   20.4160  -34.2360 C   0  0  0  0  0  0  0  0  0  0  0  0
   -0.8940   21.4450  -32.0430 C   0  0  0  0  0  0  0  0  0  0  0  0
   -1.1080   21.6930  -30.6840 C   0  0  0  0  0  0  0  0  0  0  0  0
   -1.1890   24.3270  -27.8940 C   0  0  0  0  0  0  0  0  0  0  0  0
   -0.4490   25.3650  -27.2970 C   0  0  0  0  0  0  0  0  0  0  0  0
    0.8710   25.6520  -27.6780 O   0  0  0  0  0  0  0  0  0  0  0  0
    1.9930   24.8240  -27.3870 C   0  0  0  0  0  0  0  0  0  0  0  0
   -0.3433   26.5176  -23.7386 H   0  0  0  0  0  0  0  0  0  0  0  0
    0.7181   27.9320  -24.0541 H   0  0  0  0  0  0  0  0  0  0  0  0
   -1.0671   28.1311  -24.0541 H   0  0  0  0  0  0  0  0  0  0  0  0
   -2.8296   26.4986  -25.1070 H   0  0  0  0  0  0  0  0  0  0  0  0
   -4.1341   24.6786  -26.1944 H   0  0  0  0  0  0  0  0  0  0  0  0
   -4.9214   22.4063  -29.2798 H   0  0  0  0  0  0  0  0  0  0  0  0
   -5.1720   23.9111  -28.3109 H   0  0  0  0  0  0  0  0  0  0  0  0
   -7.3568   24.7472  -31.0417 H   0  0  0  0  0  0  0  0  0  0  0  0
   -9.3841   23.3493  -31.4247 H   0  0  0  0  0  0  0  0  0  0  0  0
   -9.1486   20.9843  -32.1922 H   0  0  0  0  0  0  0  0  0  0  0  0
   -6.3080   18.0150  -31.0960 H   0  0  0  0  0  0  0  0  0  0  0  0
   -4.8398   21.4266  -32.2242 H   0  0  0  0  0  0  0  0  0  0  0  0
   -4.0996   20.0780  -30.2979 H   0  0  0  0  0  0  0  0  0  0  0  0
   -3.7153   19.6304  -32.7210 H   0  0  0  0  0  0  0  0  0  0  0  0
   -0.8939   19.5674  -34.3181 H   0  0  0  0  0  0  0  0  0  0  0  0
   -2.5400   20.1597  -34.7258 H   0  0  0  0  0  0  0  0  0  0  0  0
   -1.1504   21.2979  -34.7258 H   0  0  0  0  0  0  0  0  0  0  0  0
    0.0181   21.8194  -32.5306 H   0  0  0  0  0  0  0  0  0  0  0  0
   -0.3674   22.2665  -30.1072 H   0  0  0  0  0  0  0  0  0  0  0  0
   -0.7253   23.7063  -28.6748 H   0  0  0  0  0  0  0  0  0  0  0  0
    2.1113   24.7367  -26.2969 H   0  0  0  0  0  0  0  0  0  0  0  0
    1.8337   23.8253  -27.8197 H   0  0  0  0  0  0  0  0  0  0  0  0
    2.9003   25.2706  -27.8197 H   0  0  0  0  0  0  0  0  0  0  0  0
  1  2  1  0
  2  3  1  0
  3  4  2  0
  4  5  1  0
  5  6  2  0
  6  7  1  0
  7  8  1  0
  8  9  1  0
  9 10  2  0
  9 11  1  0
 11 12  1  0
 12 13  2  0
 13 14  1  0
 14 15  2  0
 15 16  1  0
 16 17  1  0
 17 18  1  0
 17 19  2  0
 17 20  2  0
 16 21  2  0
  7 22  1  0
 22 23  2  0
 22 24  2  0
 22 25  1  0
 25 26  2  0
 26 27  1  0
 27 28  2  0
 28 29  1  0
 28 30  1  0
 30 31  2  0
  6 32  1  0
 32 33  2  0
 33 34  1  0
 34 35  1  0
 33  3  1  0
 21 12  1  0
 31 25  1  0
  1 36  1  0
  1 37  1  0
  1 38  1  0
  4 39  1  0
  5 40  1  0
  8 41  1  0
  8 42  1  0
 13 43  1  0
 14 44  1  0
 15 45  1  0
 18 46  1  0
 21 47  1  0
 26 48  1  0
 27 49  1  0
 29 50  1  0
 29 51  1  0
 29 52  1  0
 30 53  1  0
 31 54  1  0
 32 55  1  0
 35 56  1  0
 35 57  1  0
 35 58  1  0
M  CHG  2  11  -1  18  -1
M  END
>  <UniqueID>  (19) 
18

>  <SMILES>  (19) 
COc1ccc(N(CC(=O)[N-]c2cccc(S([NH-])(=O)=O)c2)S(=O)(=O)c2ccc(C)cc2)cc1OC

>  <Energy>  (19) 
64.9732961241862

>  <Genealogy>  (19) 
COc1ccc(N(CC(=O)[N-]c2cccc(S([NH-])(=O)=O)c2)S(=O)(=O)c2ccc(C)cc2)cc1OC (protonated)
COc1ccc(N(CC(=O)[N-]c2cccc(S([NH-])(=O)=O)c2)S(=O)(=O)c2ccc(C)cc2)cc1OC (3D coordinates assigned)
COc1ccc(N(CC(=O)[N-]c2cccc(S([NH-])(=O)=O)c2)S(=O)(=O)c2ccc(C)cc2)cc1OC (optimized conformer: 64.9732961241862 kcal/mol)

>  <smiles>  (19) 
COc1ccc(N(CC(=O)Nc2cccc(S(N)(=O)=O)c2)S(=O)(=O)c2ccc(C)cc2)cc1OC

>  <score_type>  (19) 
oracle

>  <origin>  (19) 
adgpu

>  <m_score__min__energy>  (19) 
-11.44

>  <m_primary>  (19) 
energy

$$$$
19:0
     RDKit          3D

 25 26  0  0  0  0  0  0  0  0999 V2000
   -3.8480   22.7090  -31.1990 S   0  0  0  0  0  0  0  0  0  0  0  0
   -4.7700   24.0090  -30.8240 C   0  0  0  0  0  0  0  0  0  0  0  0
   -4.2880   25.2700  -30.8380 N   0  0  0  0  0  0  0  0  0  0  0  0
   -5.3410   26.0260  -30.4650 C   0  0  0  0  0  0  0  0  0  0  0  0
   -6.4330   25.2210  -30.2320 C   0  0  0  0  0  0  0  0  0  0  0  0
   -6.0720   23.9480  -30.4650 N   0  0  0  0  0  0  0  0  0  0  0  0
   -6.9120   22.7610  -30.2780 C   0  0  0  0  0  0  0  0  0  0  0  0
   -7.8160   22.5250  -31.4940 C   0  0  0  0  0  0  0  0  0  0  0  0
   -7.7780   21.0870  -31.9440 C   0  0  0  0  0  0  0  0  0  0  0  0
   -6.6930   20.6080  -32.6980 C   0  0  0  0  0  0  0  0  0  0  0  0
   -6.6390   19.2630  -33.0770 C   0  0  0  0  0  0  0  0  0  0  0  0
   -7.6620   18.3890  -32.7030 C   0  0  0  0  0  0  0  0  0  0  0  0
   -8.7410   18.8560  -31.9470 C   0  0  0  0  0  0  0  0  0  0  0  0
   -8.7980   20.2000  -31.5650 C   0  0  0  0  0  0  0  0  0  0  0  0
   -5.3289   27.1211  -30.3624 H   0  0  0  0  0  0  0  0  0  0  0  0
   -7.4286   25.5610  -29.9107 H   0  0  0  0  0  0  0  0  0  0  0  0
   -6.2654   21.8826  -30.1356 H   0  0  0  0  0  0  0  0  0  0  0  0
   -7.5492   22.9204  -29.3956 H   0  0  0  0  0  0  0  0  0  0  0  0
   -8.8500   22.7879  -31.2263 H   0  0  0  0  0  0  0  0  0  0  0  0
   -7.4518   23.1534  -32.3201 H   0  0  0  0  0  0  0  0  0  0  0  0
   -5.8838   21.2931  -32.9909 H   0  0  0  0  0  0  0  0  0  0  0  0
   -5.7898   18.8931  -33.6703 H   0  0  0  0  0  0  0  0  0  0  0  0
   -7.6186   17.3318  -33.0037 H   0  0  0  0  0  0  0  0  0  0  0  0
   -9.5455   18.1661  -31.6525 H   0  0  0  0  0  0  0  0  0  0  0  0
   -9.6454   20.5636  -30.9652 H   0  0  0  0  0  0  0  0  0  0  0  0
  1  2  2  0
  2  3  1  0
  3  4  1  0
  4  5  2  0
  5  6  1  0
  6  7  1  0
  7  8  1  0
  8  9  1  0
  9 10  2  0
 10 11  1  0
 11 12  2  0
 12 13  1  0
 13 14  2  0
  6  2  1  0
 14  9  1  0
  4 15  1  0
  5 16  1  0
  7 17  1  0
  7 18  1  0
  8 19  1  0
  8 20  1  0
 10 21  1  0
 11 22  1  0
 12 23  1  0
 13 24  1  0
 14 25  1  0
M  CHG  1   3  -1
M  END
>  <UniqueID>  (20) 
19

>  <SMILES>  (20) 
S=c1[n-]ccn1CCc1ccccc1

>  <Energy>  (20) 
51.3334403280539

>  <Genealogy>  (20) 
S=c1[n-]ccn1CCc1ccccc1 (protonated)
S=c1[n-]ccn1CCc1ccccc1 (3D coordinates assigned)
S=c1[n-]ccn1CCc1ccccc1 (optimized conformer: 51.3334403280539 kcal/mol)

>  <smiles>  (20) 
S=c1[nH]ccn1CCc1ccccc1

>  <score_type>  (20) 
oracle

>  <origin>  (20) 
adgpu

>  <m_score__min__energy>  (20) 
-7.5199999999999996

>  <m_primary>  (20) 
energy

$$$$
20:0
     RDKit          3D

 59 62  0  0  0  0  0  0  0  0999 V2000
   -0.9100   21.7110  -26.2650 C   0  0  0  0  0  0  0  0  0  0  0  0
   -0.0540   22.7000  -25.4910 C   0  0  0  0  0  0  0  0  0  0  0  0
   -0.8980   23.6430  -24.8360 O   0  0  0  0  0  0  0  0  0  0  0  0
   -0.7540   25.0380  -24.9200 C   0  0  0  0  0  0  0  0  0  0  0  0
   -0.2460   25.7970  -23.8530 C   0  0  0  0  0  0  0  0  0  0  0  0
   -0.0920   27.1780  -23.9890 C   0  0  0  0  0  0  0  0  0  0  0  0
    0.3590   27.8430  -23.0160 O   0  0  0  0  0  0  0  0  0  0  0  0
   -0.4250   27.8010  -25.1640 N   0  0  0  0  0  0  0  0  0  0  0  0
   -0.2750   29.2570  -25.2920 C   0  0  0  0  0  0  0  0  0  0  0  0
   -0.9310   27.0810  -26.2100 C   0  0  0  0  0  0  0  0  0  0  0  0
   -1.1130   25.6930  -26.1110 C   0  0  0  0  0  0  0  0  0  0  0  0
   -1.6730   24.9420  -27.2590 C   0  0  0  0  0  0  0  0  0  0  0  0
   -0.8460   24.5830  -28.3520 C   0  0  0  0  0  0  0  0  0  0  0  0
   -1.3680   23.8620  -29.4370 C   0  0  0  0  0  0  0  0  0  0  0  0
   -2.7170   23.5120  -29.4090 C   0  0  0  0  0  0  0  0  0  0  0  0
   -3.5360   23.8560  -28.3510 C   0  0  0  0  0  0  0  0  0  0  0  0
   -3.0340   24.5660  -27.2610 C   0  0  0  0  0  0  0  0  0  0  0  0
   -4.9430   23.3760  -28.5630 C   0  0  0  0  0  0  0  0  0  0  0  0
   -4.8040   22.7040  -29.8990 C   0  0  0  0  0  0  0  0  0  0  0  0
   -5.7960   22.0490  -30.6300 C   0  0  0  0  0  0  0  0  0  0  0  0
   -5.4580   21.4740  -31.8730 C   0  0  0  0  0  0  0  0  0  0  0  0
   -6.4820   20.7730  -32.6770 C   0  0  0  0  0  0  0  0  0  0  0  0
   -6.1810   20.4110  -33.8480 O   0  0  0  0  0  0  0  0  0  0  0  0
   -7.8020   20.4950  -32.1560 N   0  0  0  0  0  0  0  0  0  0  0  0
   -8.5860   19.3990  -32.7520 C   0  0  0  0  0  0  0  0  0  0  0  0
   -9.0720   18.4240  -31.6790 C   0  0  0  0  0  0  0  0  0  0  0  0
   -8.4740   21.4700  -31.2770 C   0  0  0  0  0  0  0  0  0  0  0  0
   -8.8330   22.7550  -32.0220 C   0  0  0  0  0  0  0  0  0  0  0  0
   -4.1220   21.5450  -32.3390 C   0  0  0  0  0  0  0  0  0  0  0  0
   -3.1380   22.2110  -31.5910 C   0  0  0  0  0  0  0  0  0  0  0  0
   -3.5100   22.7850  -30.3770 C   0  0  0  0  0  0  0  0  0  0  0  0
   -1.4622   21.0731  -25.5592 H   0  0  0  0  0  0  0  0  0  0  0  0
   -1.6228   22.2599  -26.8980 H   0  0  0  0  0  0  0  0  0  0  0  0
   -0.2646   21.0843  -26.8980 H   0  0  0  0  0  0  0  0  0  0  0  0
    0.5444   22.1604  -24.7421 H   0  0  0  0  0  0  0  0  0  0  0  0
    0.6179   23.2269  -26.1845 H   0  0  0  0  0  0  0  0  0  0  0  0
    0.0306   25.3032  -22.9098 H   0  0  0  0  0  0  0  0  0  0  0  0
   -0.2283   29.7102  -24.2908 H   0  0  0  0  0  0  0  0  0  0  0  0
    0.6512   29.4834  -25.8405 H   0  0  0  0  0  0  0  0  0  0  0  0
   -1.1356   29.6675  -25.8405 H   0  0  0  0  0  0  0  0  0  0  0  0
   -1.1996   27.5973  -27.1434 H   0  0  0  0  0  0  0  0  0  0  0  0
    0.2153   24.8722  -28.3501 H   0  0  0  0  0  0  0  0  0  0  0  0
   -0.7294   23.5805  -30.2872 H   0  0  0  0  0  0  0  0  0  0  0  0
   -3.6877   24.8290  -26.4163 H   0  0  0  0  0  0  0  0  0  0  0  0
   -5.2521   22.6663  -27.7815 H   0  0  0  0  0  0  0  0  0  0  0  0
   -5.7077   24.1658  -28.5243 H   0  0  0  0  0  0  0  0  0  0  0  0
   -6.8237   21.9822  -30.2436 H   0  0  0  0  0  0  0  0  0  0  0  0
   -9.4569   19.8225  -33.2737 H   0  0  0  0  0  0  0  0  0  0  0  0
   -7.9424   18.8515  -33.4563 H   0  0  0  0  0  0  0  0  0  0  0  0
   -8.8639   18.8415  -30.6828 H   0  0  0  0  0  0  0  0  0  0  0  0
  -10.1547   18.2652  -31.7911 H   0  0  0  0  0  0  0  0  0  0  0  0
   -8.5470   17.4639  -31.7911 H   0  0  0  0  0  0  0  0  0  0  0  0
   -9.3961   21.0176  -30.8833 H   0  0  0  0  0  0  0  0  0  0  0  0
   -7.7812   21.7297  -30.4630 H   0  0  0  0  0  0  0  0  0  0  0  0
   -9.0552   23.5503  -31.2953 H   0  0  0  0  0  0  0  0  0  0  0  0
   -7.9861   23.0615  -32.6535 H   0  0  0  0  0  0  0  0  0  0  0  0
   -9.7161   22.5782  -32.6535 H   0  0  0  0  0  0  0  0  0  0  0  0
   -3.8530   21.0739  -33.2959 H   0  0  0  0  0  0  0  0  0  0  0  0
   -2.1016   22.2778  -31.9535 H   0  0  0  0  0  0  0  0  0  0  0  0
  1  2  1  0
  2  3  1  0
  3  4  1  0
  4  5  2  0
  5  6  1  0
  6  7  2  0
  6  8  1  0
  8  9  1  0
  8 10  1  0
 10 11  2  0
 11 12  1  0
 12 13  2  0
 13 14  1  0
 14 15  2  0
 15 16  1  0
 16 17  2  0
 16 18  1  0
 18 19  1  0
 19 20  2  0
 20 21  1  0
 21 22  1  0
 22 23  2  0
 22 24  1  0
 24 25  1  0
 25 26  1  0
 24 27  1  0
 27 28  1  0
 21 29  2  0
 29 30  1  0
 30 31  2  0
 11  4  1  0
 17 12  1  0
 31 19  1  0
 31 15  1  0
  1 32  1  0
  1 33  1  0
  1 34  1  0
  2 35  1  0
  2 36  1  0
  5 37  1  0
  9 38  1  0
  9 39  1  0
  9 40  1  0
 10 41  1  0
 13 42  1  0
 14 43  1  0
 17 44  1  0
 18 45  1  0
 18 46  1  0
 20 47  1  0
 25 48  1  0
 25 49  1  0
 26 50  1  0
 26 51  1  0
 26 52  1  0
 27 53  1  0
 27 54  1  0
 28 55  1  0
 28 56  1  0
 28 57  1  0
 29 58  1  0
 30 59  1  0
M  END
>  <UniqueID>  (21) 
20

>  <SMILES>  (21) 
CCOc1cc(=O)n(C)cc1-c1ccc2c(c1)Cc1cc(C(=O)N(CC)CC)ccc1-2

>  <Energy>  (21) 
89.775231711136

>  <Genealogy>  (21) 
CCOc1cc(=O)n(C)cc1-c1ccc2c(c1)Cc1cc(C(=O)N(CC)CC)ccc1-2 (3D coordinates assigned)
CCOc1cc(=O)n(C)cc1-c1ccc2c(c1)Cc1cc(C(=O)N(CC)CC)ccc1-2 (nonaromatic ring conformer: 89.775231711136 kcal/mol)

>  <smiles>  (21) 
CCOc1cc(=O)n(C)cc1-c1ccc2c(c1)Cc1cc(C(=O)N(CC)CC)ccc1-2

>  <score_type>  (21) 
oracle

>  <origin>  (21) 
adgpu

>  <m_score__min__energy>  (21) 
-8.3300000000000001

>  <m_primary>  (21) 
energy

$$$$
21:0
     RDKit          3D

 44 46  0  0  0  0  0  0  0  0999 V2000
   -7.8690   19.9850  -32.9160 C   0  0  0  0  0  0  0  0  0  0  0  0
   -6.4730   20.1200  -32.2950 C   0  0  0  0  0  0  0  0  0  0  0  0
   -5.5790   18.8960  -32.6470 C   0  0  0  0  0  0  0  0  0  0  0  0
   -4.3160   19.2660  -33.4350 C   0  0  0  0  0  0  0  0  0  0  0  0
   -3.6140   20.3760  -32.7800 N   0  0  0  0  0  0  0  0  0  0  0  0
   -2.1780   20.3920  -32.7270 C   0  0  0  0  0  0  0  0  0  0  0  0
   -1.2250   20.2280  -31.7320 C   0  0  0  0  0  0  0  0  0  0  0  0
   -1.2600   19.9550  -30.3270 N   0  0  0  0  0  0  0  0  0  0  0  0
   -0.2130   20.4250  -29.4260 C   0  0  0  0  0  0  0  0  0  0  0  0
   -0.8210   21.2460  -28.2850 C   0  0  0  0  0  0  0  0  0  0  0  0
   -1.6160   22.4000  -28.8320 C   0  0  0  0  0  0  0  0  0  0  0  0
   -2.9340   22.2060  -29.2760 C   0  0  0  0  0  0  0  0  0  0  0  0
   -3.6830   23.2870  -29.7540 C   0  0  0  0  0  0  0  0  0  0  0  0
   -3.1240   24.5680  -29.7830 C   0  0  0  0  0  0  0  0  0  0  0  0
   -3.8740   25.6380  -30.2600 O   0  0  0  0  0  0  0  0  0  0  0  0
   -1.8160   24.7720  -29.3300 C   0  0  0  0  0  0  0  0  0  0  0  0
   -1.2600   26.0460  -29.3500 O   0  0  0  0  0  0  0  0  0  0  0  0
   -1.0650   23.6930  -28.8510 C   0  0  0  0  0  0  0  0  0  0  0  0
   -0.2220   20.4250  -32.6630 C   0  0  0  0  0  0  0  0  0  0  0  0
    1.0360   20.4440  -32.6260 O   0  0  0  0  0  0  0  0  0  0  0  0
   -1.1670   20.5920  -33.6520 C   0  0  0  0  0  0  0  0  0  0  0  0
   -1.1200   20.8310  -34.8870 O   0  0  0  0  0  0  0  0  0  0  0  0
   -4.3660   21.5340  -32.2820 C   0  0  0  0  0  0  0  0  0  0  0  0
   -5.8390   21.4680  -32.7000 C   0  0  0  0  0  0  0  0  0  0  0  0
   -8.6206   19.9123  -32.1162 H   0  0  0  0  0  0  0  0  0  0  0  0
   -8.0802   20.8669  -33.5386 H   0  0  0  0  0  0  0  0  0  0  0  0
   -7.9073   19.0790  -33.5386 H   0  0  0  0  0  0  0  0  0  0  0  0
   -6.5651   20.1217  -31.1989 H   0  0  0  0  0  0  0  0  0  0  0  0
   -5.2739   18.4070  -31.7101 H   0  0  0  0  0  0  0  0  0  0  0  0
   -6.1775   18.2326  -33.2887 H   0  0  0  0  0  0  0  0  0  0  0  0
   -3.6491   18.3925  -33.4826 H   0  0  0  0  0  0  0  0  0  0  0  0
   -4.6053   19.5750  -34.4503 H   0  0  0  0  0  0  0  0  0  0  0  0
   -2.0190   19.3520  -29.9430 H   0  0  0  0  0  0  0  0  0  0  0  0
    0.3196   19.5591  -29.0059 H   0  0  0  0  0  0  0  0  0  0  0  0
    0.4855   21.0602  -29.9904 H   0  0  0  0  0  0  0  0  0  0  0  0
   -1.4826   20.6014  -27.6878 H   0  0  0  0  0  0  0  0  0  0  0  0
   -0.0079   21.6398  -27.6575 H   0  0  0  0  0  0  0  0  0  0  0  0
   -3.3793   21.2005  -29.2479 H   0  0  0  0  0  0  0  0  0  0  0  0
   -4.7126   23.1287  -30.1073 H   0  0  0  0  0  0  0  0  0  0  0  0
   -0.0397   23.8572  -28.4880 H   0  0  0  0  0  0  0  0  0  0  0  0
   -4.3065   21.5537  -31.1838 H   0  0  0  0  0  0  0  0  0  0  0  0
   -3.9247   22.4443  -32.7140 H   0  0  0  0  0  0  0  0  0  0  0  0
   -6.3884   22.2850  -32.2094 H   0  0  0  0  0  0  0  0  0  0  0  0
   -5.8959   21.5655  -33.7942 H   0  0  0  0  0  0  0  0  0  0  0  0
  1  2  1  0
  2  3  1  0
  3  4  1  0
  4  5  1  0
  5  6  1  0
  6  7  2  0
  7  8  1  0
  8  9  1  0
  9 10  1  0
 10 11  1  0
 11 12  2  0
 12 13  1  0
 13 14  2  0
 14 15  1  0
 14 16  1  0
 16 17  1  0
 16 18  2  0
  7 19  1  0
 19 20  2  0
 19 21  1  0
 21 22  2  0
  5 23  1  0
 23 24  1  0
 24  2  1  0
 21  6  1  0
 18 11  1  0
  1 25  1  0
  1 26  1  0
  1 27  1  0
  2 28  1  0
  3 29  1  0
  3 30  1  0
  4 31  1  0
  4 32  1  0
  8 33  1  0
  9 34  1  0
  9 35  1  0
 10 36  1  0
 10 37  1  0
 12 38  1  0
 13 39  1  0
 18 40  1  0
 23 41  1  0
 23 42  1  0
 24 43  1  0
 24 44  1  0
M  CHG  2  15  -1  17  -1
M  END
>  <UniqueID>  (22) 
21

>  <SMILES>  (22) 
CC1CCN(c2c(NCCc3ccc([O-])c([O-])c3)c(=O)c2=O)CC1

>  <Energy>  (22) 
29.22788904633879

>  <Genealogy>  (22) 
CC1CCN(c2c(NCCc3ccc([O-])c([O-])c3)c(=O)c2=O)CC1 (protonated)
CC1CCN(c2c(NCCc3ccc([O-])c([O-])c3)c(=O)c2=O)CC1 (3D coordinates assigned)
CC1CCN(c2c(NCCc3ccc([O-])c([O-])c3)c(=O)c2=O)CC1 (nonaromatic ring conformer: 29.22788904633879 kcal/mol)

>  <smiles>  (22) 
CC1CCN(c2c(NCCc3ccc(O)c(O)c3)c(=O)c2=O)CC1

>  <score_type>  (22) 
oracle

>  <origin>  (22) 
adgpu

>  <m_score__min__energy>  (22) 
-14.039999999999999

>  <m_primary>  (22) 
energy

$$$$
22:0
     RDKit          3D

 41 42  0  0  0  0  0  0  0  0999 V2000
   -6.8510   23.7990  -30.5890 C   0  0  0  0  0  0  0  0  0  0  0  0
   -5.7220   24.1920  -31.1760 C   0  0  0  0  0  0  0  0  0  0  0  0
   -4.9130   25.3120  -30.6690 C   0  0  0  0  0  0  0  0  0  0  0  0
   -5.4390   26.4390  -30.4590 O   0  0  0  0  0  0  0  0  0  0  0  0
   -3.5080   25.1150  -30.4710 N   0  0  0  0  0  0  0  0  0  0  0  0
   -2.8900   24.3700  -29.4120 C   0  0  0  0  0  0  0  0  0  0  0  0
   -1.8890   24.9250  -28.5910 C   0  0  0  0  0  0  0  0  0  0  0  0
   -1.3310   24.1710  -27.5550 C   0  0  0  0  0  0  0  0  0  0  0  0
   -1.7750   22.8660  -27.3160 C   0  0  0  0  0  0  0  0  0  0  0  0
   -1.0630   21.9020  -25.9830 S   0  0  0  0  0  0  0  0  0  0  0  0
   -0.8730   20.4470  -27.0130 C   0  0  0  0  0  0  0  0  0  0  0  0
    0.0410   20.3540  -27.9980 N   0  0  0  0  0  0  0  0  0  0  0  0
   -0.2110   19.1220  -28.4950 C   0  0  0  0  0  0  0  0  0  0  0  0
    0.5110   18.5520  -29.6020 N   0  0  0  0  0  0  0  0  0  0  0  0
    1.1390   17.2380  -29.4490 C   0  0  0  0  0  0  0  0  0  0  0  0
    0.6240   19.2850  -30.8700 C   0  0  0  0  0  0  0  0  0  0  0  0
   -0.6090   20.1590  -31.0930 C   0  0  0  0  0  0  0  0  0  0  0  0
   -0.3560   21.4540  -30.6250 O   0  0  0  0  0  0  0  0  0  0  0  0
   -1.2180   18.4910  -27.8560 N   0  0  0  0  0  0  0  0  0  0  0  0
   -1.6150   19.3280  -26.9170 N   0  0  0  0  0  0  0  0  0  0  0  0
   -2.7420   19.0780  -26.0260 C   0  0  0  0  0  0  0  0  0  0  0  0
   -2.7790   22.3150  -28.1190 C   0  0  0  0  0  0  0  0  0  0  0  0
   -3.3400   23.0690  -29.1540 C   0  0  0  0  0  0  0  0  0  0  0  0
   -7.4224   22.9559  -31.0046 H   0  0  0  0  0  0  0  0  0  0  0  0
   -7.2121   24.3175  -29.6885 H   0  0  0  0  0  0  0  0  0  0  0  0
   -5.3807   23.6584  -32.0753 H   0  0  0  0  0  0  0  0  0  0  0  0
   -1.5454   25.9552  -28.7658 H   0  0  0  0  0  0  0  0  0  0  0  0
   -0.5402   24.6050  -26.9255 H   0  0  0  0  0  0  0  0  0  0  0  0
    1.2495   17.0068  -28.3793 H   0  0  0  0  0  0  0  0  0  0  0  0
    0.5093   16.4728  -29.9264 H   0  0  0  0  0  0  0  0  0  0  0  0
    2.1300   17.2474  -29.9264 H   0  0  0  0  0  0  0  0  0  0  0  0
    1.5197   19.9229  -30.8411 H   0  0  0  0  0  0  0  0  0  0  0  0
    0.7013   18.5609  -31.6945 H   0  0  0  0  0  0  0  0  0  0  0  0
   -0.8418   20.1967  -32.1674 H   0  0  0  0  0  0  0  0  0  0  0  0
   -1.4633   19.7328  -30.5465 H   0  0  0  0  0  0  0  0  0  0  0  0
   -0.0520   21.3520  -29.6860 H   0  0  0  0  0  0  0  0  0  0  0  0
   -2.4067   19.1524  -24.9810 H   0  0  0  0  0  0  0  0  0  0  0  0
   -3.5292   19.8234  -26.2125 H   0  0  0  0  0  0  0  0  0  0  0  0
   -3.1402   18.0697  -26.2125 H   0  0  0  0  0  0  0  0  0  0  0  0
   -3.1274   21.2878  -27.9360 H   0  0  0  0  0  0  0  0  0  0  0  0
   -4.1416   22.6368  -29.7710 H   0  0  0  0  0  0  0  0  0  0  0  0
  1  2  2  0
  2  3  1  0
  3  4  2  0
  3  5  1  0
  5  6  1  0
  6  7  2  0
  7  8  1  0
  8  9  2  0
  9 10  1  0
 10 11  1  0
 11 12  2  0
 12 13  1  0
 13 14  1  0
 14 15  1  0
 14 16  1  0
 16 17  1  0
 17 18  1  0
 13 19  2  0
 19 20  1  0
 20 21  1  0
  9 22  1  0
 22 23  2  0
 23  6  1  0
 20 11  1  0
  1 24  1  0
  1 25  1  0
  2 26  1  0
  7 27  1  0
  8 28  1  0
 15 29  1  0
 15 30  1  0
 15 31  1  0
 16 32  1  0
 16 33  1  0
 17 34  1  0
 17 35  1  0
 18 36  1  0
 21 37  1  0
 21 38  1  0
 21 39  1  0
 22 40  1  0
 23 41  1  0
M  CHG  1   5  -1
M  END
>  <UniqueID>  (23) 
22

>  <SMILES>  (23) 
C=CC(=O)[N-]c1ccc(Sc2nc(N(C)CCO)nn2C)cc1

>  <Energy>  (23) 
64.21397514872608

>  <Genealogy>  (23) 
C=CC(=O)[N-]c1ccc(Sc2nc(N(C)CCO)nn2C)cc1 (protonated)
C=CC(=O)[N-]c1ccc(Sc2nc(N(C)CCO)nn2C)cc1 (3D coordinates assigned)
C=CC(=O)[N-]c1ccc(Sc2nc(N(C)CCO)nn2C)cc1 (optimized conformer: 64.21397514872608 kcal/mol)

>  <smiles>  (23) 
C=CC(=O)Nc1ccc(Sc2nc(N(C)CCO)nn2C)cc1

>  <score_type>  (23) 
oracle

>  <origin>  (23) 
adgpu

>  <m_score__min__energy>  (23) 
-8.8399999999999999

>  <m_primary>  (23) 
energy

$$$$
23:0
     RDKit          3D

 53 55  0  0  0  0  0  0  0  0999 V2000
   -7.6590   23.0260  -31.9450 C   0  0  0  0  0  0  0  0  0  0  0  0
   -7.6780   21.6660  -31.2570 C   0  0  0  0  0  0  0  0  0  0  0  0
   -9.0230   21.0990  -31.3410 N   0  0  0  0  0  0  0  0  0  0  0  0
   -8.9530   19.4820  -31.9790 S   0  0  0  0  0  0  0  0  0  0  0  0
   -9.9190   19.3670  -33.1240 O   0  0  0  0  0  0  0  0  0  0  0  0
   -9.3400   18.4990  -30.9070 O   0  0  0  0  0  0  0  0  0  0  0  0
   -7.3270   19.1180  -32.5550 C   0  0  0  0  0  0  0  0  0  0  0  0
   -6.8730   19.6100  -33.7850 C   0  0  0  0  0  0  0  0  0  0  0  0
   -5.5720   19.3400  -34.2160 C   0  0  0  0  0  0  0  0  0  0  0  0
   -4.7050   18.5620  -33.4300 C   0  0  0  0  0  0  0  0  0  0  0  0
   -3.3550   18.2940  -33.8660 N   0  0  0  0  0  0  0  0  0  0  0  0
   -2.9640   16.9510  -34.2880 C   0  0  0  0  0  0  0  0  0  0  0  0
   -2.1630   19.5830  -34.0050 S   0  0  0  0  0  0  0  0  0  0  0  0
   -0.8920   18.9830  -33.4180 O   0  0  0  0  0  0  0  0  0  0  0  0
   -2.7130   20.8400  -32.8650 C   0  0  0  0  0  0  0  0  0  0  0  0
   -1.9840   21.0580  -31.6910 C   0  0  0  0  0  0  0  0  0  0  0  0
   -2.3620   22.0670  -30.8030 C   0  0  0  0  0  0  0  0  0  0  0  0
   -3.4790   22.8750  -31.0760 C   0  0  0  0  0  0  0  0  0  0  0  0
   -3.8420   23.9710  -30.1450 C   0  0  0  0  0  0  0  0  0  0  0  0
   -5.0380   24.0760  -29.7570 O   0  0  0  0  0  0  0  0  0  0  0  0
   -2.8930   24.9470  -29.6940 N   0  0  0  0  0  0  0  0  0  0  0  0
   -2.1480   24.9360  -28.4660 C   0  0  0  0  0  0  0  0  0  0  0  0
   -0.7510   25.0070  -28.5370 C   0  0  0  0  0  0  0  0  0  0  0  0
    0.0220   24.9710  -27.3740 C   0  0  0  0  0  0  0  0  0  0  0  0
   -0.5960   24.8810  -26.1280 C   0  0  0  0  0  0  0  0  0  0  0  0
   -1.9880   24.8470  -26.0410 C   0  0  0  0  0  0  0  0  0  0  0  0
   -2.7730   24.8950  -27.2020 C   0  0  0  0  0  0  0  0  0  0  0  0
   -4.1630   24.9240  -27.0960 O   0  0  0  0  0  0  0  0  0  0  0  0
   -4.2330   22.6240  -32.2350 C   0  0  0  0  0  0  0  0  0  0  0  0
   -3.8450   21.6220  -33.1310 C   0  0  0  0  0  0  0  0  0  0  0  0
   -5.1710   18.0590  -32.2030 C   0  0  0  0  0  0  0  0  0  0  0  0
   -6.4730   18.3300  -31.7740 C   0  0  0  0  0  0  0  0  0  0  0  0
   -7.6479   23.8212  -31.1851 H   0  0  0  0  0  0  0  0  0  0  0  0
   -6.7596   23.1066  -32.5732 H   0  0  0  0  0  0  0  0  0  0  0  0
   -8.5558   23.1317  -32.5732 H   0  0  0  0  0  0  0  0  0  0  0  0
   -6.9641   20.9929  -31.7543 H   0  0  0  0  0  0  0  0  0  0  0  0
   -7.3939   21.7841  -30.2009 H   0  0  0  0  0  0  0  0  0  0  0  0
   -7.5443   20.2121  -34.4149 H   0  0  0  0  0  0  0  0  0  0  0  0
   -5.2230   19.7400  -35.1794 H   0  0  0  0  0  0  0  0  0  0  0  0
   -2.7821   16.3264  -33.4010 H   0  0  0  0  0  0  0  0  0  0  0  0
   -3.7701   16.5067  -34.8903 H   0  0  0  0  0  0  0  0  0  0  0  0
   -2.0454   17.0088  -34.8903 H   0  0  0  0  0  0  0  0  0  0  0  0
   -1.1084   20.4312  -31.4663 H   0  0  0  0  0  0  0  0  0  0  0  0
   -1.7814   22.2307  -29.8832 H   0  0  0  0  0  0  0  0  0  0  0  0
   -0.2584   25.0918  -29.5169 H   0  0  0  0  0  0  0  0  0  0  0  0
    1.1191   25.0137  -27.4416 H   0  0  0  0  0  0  0  0  0  0  0  0
    0.0136   24.8368  -25.2134 H   0  0  0  0  0  0  0  0  0  0  0  0
   -2.4727   24.7821  -25.0557 H   0  0  0  0  0  0  0  0  0  0  0  0
   -4.7520   25.1670  -27.8820 H   0  0  0  0  0  0  0  0  0  0  0  0
   -5.1349   23.2197  -32.4393 H   0  0  0  0  0  0  0  0  0  0  0  0
   -4.4298   21.4477  -34.0462 H   0  0  0  0  0  0  0  0  0  0  0  0
   -4.5058   17.4474  -31.5757 H   0  0  0  0  0  0  0  0  0  0  0  0
   -6.8292   17.9217  -30.8167 H   0  0  0  0  0  0  0  0  0  0  0  0
  1  2  1  0
  2  3  1  0
  3  4  1  0
  4  5  2  0
  4  6  2  0
  4  7  1  0
  7  8  2  0
  8  9  1  0
  9 10  2  0
 10 11  1  0
 11 12  1  0
 13 11  1  1
 13 14  2  0
 13 15  1  0
 15 16  2  0
 16 17  1  0
 17 18  2  0
 18 19  1  0
 19 20  2  0
 19 21  1  0
 21 22  1  0
 22 23  2  0
 23 24  1  0
 24 25  2  0
 25 26  1  0
 26 27  2  0
 27 28  1  0
 18 29  1  0
 29 30  2  0
 10 31  1  0
 31 32  2  0
 32  7  1  0
 30 15  1  0
 27 22  1  0
  1 33  1  0
  1 34  1  0
  1 35  1  0
  2 36  1  0
  2 37  1  0
  8 38  1  0
  9 39  1  0
 12 40  1  0
 12 41  1  0
 12 42  1  0
 16 43  1  0
 17 44  1  0
 23 45  1  0
 24 46  1  0
 25 47  1  0
 26 48  1  0
 28 49  1  0
 29 50  1  0
 30 51  1  0
 31 52  1  0
 32 53  1  0
M  CHG  2   3  -1  21  -1
M  END
>  <UniqueID>  (24) 
23

>  <SMILES>  (24) 
CC[N-]S(=O)(=O)c1ccc(N(C)[S@](=O)c2ccc(C(=O)[N-]c3ccccc3O)cc2)cc1

>  <Energy>  (24) 
61.23173632949251

>  <Genealogy>  (24) 
CC[N-]S(=O)(=O)c1ccc(N(C)S(=O)c2ccc(C(=O)[N-]c3ccccc3O)cc2)cc1 (protonated)
CC[N-]S(=O)(=O)c1ccc(N(C)[S@](=O)c2ccc(C(=O)[N-]c3ccccc3O)cc2)cc1 (chirality)
CC[N-]S(=O)(=O)c1ccc(N(C)[S@](=O)c2ccc(C(=O)[N-]c3ccccc3O)cc2)cc1 (3D coordinates assigned)
CC[N-]S(=O)(=O)c1ccc(N(C)[S@](=O)c2ccc(C(=O)[N-]c3ccccc3O)cc2)cc1 (optimized conformer: 61.23173632949251 kcal/mol)

>  <smiles>  (24) 
CCNS(=O)(=O)c1ccc(N(C)S(=O)c2ccc(C(=O)Nc3ccccc3O)cc2)cc1

>  <score_type>  (24) 
oracle

>  <origin>  (24) 
adgpu

>  <m_score__min__energy>  (24) 
-12.76

>  <m_primary>  (24) 
energy

$$$$
24:0
     RDKit          3D

 61 64  0  0  0  0  0  0  0  0999 V2000
   -0.3610   18.5480  -28.5820 C   0  0  0  0  0  0  0  0  0  0  0  0
   -0.9620   19.9300  -28.5630 C   0  0  0  0  0  0  0  0  0  0  0  0
   -1.5300   20.3960  -27.3690 C   0  0  0  0  0  0  0  0  0  0  0  0
   -2.1000   21.6640  -27.2960 C   0  0  0  0  0  0  0  0  0  0  0  0
   -2.1080   22.5030  -28.4170 C   0  0  0  0  0  0  0  0  0  0  0  0
   -2.7040   23.8090  -28.3750 N   0  0  0  0  0  0  0  0  0  0  0  0
   -2.4820   24.9120  -29.2650 C   0  0  0  0  0  0  0  0  0  0  0  0
   -1.3700   25.4990  -29.3000 O   0  0  0  0  0  0  0  0  0  0  0  0
   -3.4910   25.2800  -30.2110 N   0  0  0  0  0  0  0  0  0  0  0  0
   -4.6270   24.4700  -30.5430 C   0  0  0  0  0  0  0  0  0  0  0  0
   -5.9320   24.8630  -30.2030 C   0  0  0  0  0  0  0  0  0  0  0  0
   -7.0180   24.0470  -30.5310 C   0  0  0  0  0  0  0  0  0  0  0  0
   -6.8100   22.8380  -31.1980 C   0  0  0  0  0  0  0  0  0  0  0  0
   -5.5130   22.4390  -31.5480 C   0  0  0  0  0  0  0  0  0  0  0  0
   -5.2430   20.8810  -32.3310 S   0  0  0  0  0  0  0  0  0  0  0  0
   -4.6800   19.9130  -31.3270 O   0  0  0  0  0  0  0  0  0  0  0  0
   -4.2310   21.0480  -33.4290 O   0  0  0  0  0  0  0  0  0  0  0  0
   -6.7220   20.2230  -33.0030 N   0  0  0  0  0  0  0  0  0  0  0  0
   -7.6330   19.7770  -31.9430 C   0  0  0  0  0  0  0  0  0  0  0  0
   -7.4540   18.2770  -31.7590 C   0  0  0  0  0  0  0  0  0  0  0  0
   -6.7330   17.7960  -33.0000 C   0  0  0  0  0  0  0  0  0  0  0  0
   -6.4500   19.0410  -33.8290 C   0  0  0  0  0  0  0  0  0  0  0  0
   -4.4270   23.2730  -31.2420 C   0  0  0  0  0  0  0  0  0  0  0  0
   -1.5650   22.0430  -29.6320 C   0  0  0  0  0  0  0  0  0  0  0  0
   -1.6320   22.8480  -30.7710 O   0  0  0  0  0  0  0  0  0  0  0  0
   -0.9540   20.7680  -29.7060 C   0  0  0  0  0  0  0  0  0  0  0  0
   -0.2310   20.2120  -31.2380 S   0  0  0  0  0  0  0  0  0  0  0  0
    1.0250   19.4460  -30.9360 O   0  0  0  0  0  0  0  0  0  0  0  0
    0.1410   21.3740  -32.1140 O   0  0  0  0  0  0  0  0  0  0  0  0
   -1.3580   19.1770  -32.0790 N   0  0  0  0  0  0  0  0  0  0  0  0
   -1.6170   19.7050  -33.4270 C   0  0  0  0  0  0  0  0  0  0  0  0
   -2.5620   18.7600  -34.1990 C   0  0  0  0  0  0  0  0  0  0  0  0
   -2.8740   17.5950  -33.4560 O   0  0  0  0  0  0  0  0  0  0  0  0
   -1.6790   16.9310  -33.0890 C   0  0  0  0  0  0  0  0  0  0  0  0
   -0.8140   17.8100  -32.1630 C   0  0  0  0  0  0  0  0  0  0  0  0
   -0.2096   18.1998  -27.5496 H   0  0  0  0  0  0  0  0  0  0  0  0
   -1.0410   17.8596  -29.1051 H   0  0  0  0  0  0  0  0  0  0  0  0
    0.6062   18.5760  -29.1051 H   0  0  0  0  0  0  0  0  0  0  0  0
   -1.5252   19.7511  -26.4779 H   0  0  0  0  0  0  0  0  0  0  0  0
   -2.5468   22.0089  -26.3519 H   0  0  0  0  0  0  0  0  0  0  0  0
   -6.0994   25.8148  -29.6776 H   0  0  0  0  0  0  0  0  0  0  0  0
   -8.0387   24.3577  -30.2632 H   0  0  0  0  0  0  0  0  0  0  0  0
   -7.6674   22.1964  -31.4496 H   0  0  0  0  0  0  0  0  0  0  0  0
   -7.3945   20.2980  -31.0040 H   0  0  0  0  0  0  0  0  0  0  0  0
   -8.6738   20.0036  -32.2176 H   0  0  0  0  0  0  0  0  0  0  0  0
   -6.8529   18.0696  -30.8614 H   0  0  0  0  0  0  0  0  0  0  0  0
   -8.4190   17.7660  -31.6260 H   0  0  0  0  0  0  0  0  0  0  0  0
   -5.7918   17.2969  -32.7261 H   0  0  0  0  0  0  0  0  0  0  0  0
   -7.3371   17.0672  -33.5603 H   0  0  0  0  0  0  0  0  0  0  0  0
   -5.3966   19.0442  -34.1457 H   0  0  0  0  0  0  0  0  0  0  0  0
   -7.0900   19.0513  -34.7236 H   0  0  0  0  0  0  0  0  0  0  0  0
   -3.4120   22.9849  -31.5531 H   0  0  0  0  0  0  0  0  0  0  0  0
   -1.8660   23.8340  -30.7380 H   0  0  0  0  0  0  0  0  0  0  0  0
   -2.0840   20.6975  -33.3446 H   0  0  0  0  0  0  0  0  0  0  0  0
   -0.6640   19.7814  -33.9710 H   0  0  0  0  0  0  0  0  0  0  0  0
   -3.4949   19.2975  -34.4242 H   0  0  0  0  0  0  0  0  0  0  0  0
   -2.0494   18.4470  -35.1206 H   0  0  0  0  0  0  0  0  0  0  0  0
   -1.9335   15.9986  -32.5637 H   0  0  0  0  0  0  0  0  0  0  0  0
   -1.1047   16.7174  -34.0025 H   0  0  0  0  0  0  0  0  0  0  0  0
   -0.7977   17.3661  -31.1567 H   0  0  0  0  0  0  0  0  0  0  0  0
    0.2042   17.8610  -32.5762 H   0  0  0  0  0  0  0  0  0  0  0  0
  1  2  1  0
  2  3  2  0
  3  4  1  0
  4  5  2  0
  5  6  1  0
  6  7  1  0
  7  8  2  0
  7  9  1  0
  9 10  1  0
 10 11  2  0
 11 12  1  0
 12 13  2  0
 13 14  1  0
 14 15  1  0
 15 16  2  0
 15 17  2  0
 15 18  1  0
 18 19  1  0
 19 20  1  0
 20 21  1  0
 21 22  1  0
 14 23  2  0
  5 24  1  0
 24 25  1  0
 24 26  2  0
 26 27  1  0
 27 28  2  0
 27 29  2  0
 27 30  1  0
 30 31  1  0
 31 32  1  0
 32 33  1  0
 33 34  1  0
 34 35  1  0
 26  2  1  0
 35 30  1  0
 23 10  1  0
 22 18  1  0
  1 36  1  0
  1 37  1  0
  1 38  1  0
  3 39  1  0
  4 40  1  0
 11 41  1  0
 12 42  1  0
 13 43  1  0
 19 44  1  0
 19 45  1  0
 20 46  1  0
 20 47  1  0
 21 48  1  0
 21 49  1  0
 22 50  1  0
 22 51  1  0
 23 52  1  0
 25 53  1  0
 31 54  1  0
 31 55  1  0
 32 56  1  0
 32 57  1  0
 34 58  1  0
 34 59  1  0
 35 60  1  0
 35 61  1  0
M  CHG  2   6  -1   9  -1
M  END
>  <UniqueID>  (25) 
24

>  <SMILES>  (25) 
Cc1ccc([N-]C(=O)[N-]c2cccc(S(=O)(=O)N3CCCC3)c2)c(O)c1S(=O)(=O)N1CCOCC1

>  <Energy>  (25) 
80.53133712345124

>  <Genealogy>  (25) 
Cc1ccc([N-]C(=O)[N-]c2cccc(S(=O)(=O)N3CCCC3)c2)c(O)c1S(=O)(=O)N1CCOCC1 (protonated)
Cc1ccc([N-]C(=O)[N-]c2cccc(S(=O)(=O)N3CCCC3)c2)c(O)c1S(=O)(=O)N1CCOCC1 (3D coordinates assigned)
Cc1ccc([N-]C(=O)[N-]c2cccc(S(=O)(=O)N3CCCC3)c2)c(O)c1S(=O)(=O)N1CCOCC1 (nonaromatic ring conformer: 80.53133712345124 kcal/mol)

>  <smiles>  (25) 
Cc1ccc(NC(=O)Nc2cccc(S(=O)(=O)N3CCCC3)c2)c(O)c1S(=O)(=O)N1CCOCC1

>  <score_type>  (25) 
oracle

>  <origin>  (25) 
adgpu

>  <m_score__min__energy>  (25) 
-14.449999999999999

>  <m_primary>  (25) 
energy

$$$$
25:0
     RDKit          3D

 47 50  0  0  0  0  0  0  0  0999 V2000
   -9.7710   21.8960  -31.3070 O   0  0  0  0  0  0  0  0  0  0  0  0
   -8.3510   22.3200  -31.5770 S   0  0  0  0  0  0  0  0  0  0  0  0
   -8.3580   23.4600  -32.5590 O   0  0  0  0  0  0  0  0  0  0  0  0
   -7.6250   22.8370  -30.0880 N   0  0  0  0  0  0  0  0  0  0  0  0
   -6.3520   23.4890  -29.9920 C   0  0  0  0  0  0  0  0  0  0  0  0
   -6.1120   24.7320  -30.5940 C   0  0  0  0  0  0  0  0  0  0  0  0
   -4.8510   25.3290  -30.4950 C   0  0  0  0  0  0  0  0  0  0  0  0
   -3.8200   24.6900  -29.8000 C   0  0  0  0  0  0  0  0  0  0  0  0
   -2.5720   25.2980  -29.7040 O   0  0  0  0  0  0  0  0  0  0  0  0
   -4.0540   23.4460  -29.1940 C   0  0  0  0  0  0  0  0  0  0  0  0
   -3.0100   22.7640  -28.4870 N   0  0  0  0  0  0  0  0  0  0  0  0
   -2.3140   23.4570  -27.3990 C   0  0  0  0  0  0  0  0  0  0  0  0
   -1.1080   22.6420  -26.9290 C   0  0  0  0  0  0  0  0  0  0  0  0
   -0.4330   22.0780  -28.1010 N   0  0  0  0  0  0  0  0  0  0  0  0
   -1.2420   21.0170  -28.7280 C   0  0  0  0  0  0  0  0  0  0  0  0
   -2.7490   21.3440  -28.7700 C   0  0  0  0  0  0  0  0  0  0  0  0
   -5.3230   22.8620  -29.2790 C   0  0  0  0  0  0  0  0  0  0  0  0
   -7.4560   20.9380  -32.2090 C   0  0  0  0  0  0  0  0  0  0  0  0
   -6.1690   21.1250  -32.7250 C   0  0  0  0  0  0  0  0  0  0  0  0
   -5.4750   20.0570  -33.3030 C   0  0  0  0  0  0  0  0  0  0  0  0
   -6.0620   18.7860  -33.3780 C   0  0  0  0  0  0  0  0  0  0  0  0
   -5.3650   17.6480  -34.0190 C   0  0  0  0  0  0  0  0  0  0  0  0
   -5.5540   16.2990  -33.7640 C   0  0  0  0  0  0  0  0  0  0  0  0
   -4.6790   15.6360  -34.5950 C   0  0  0  0  0  0  0  0  0  0  0  0
   -4.0100   16.6100  -35.3040 C   0  0  0  0  0  0  0  0  0  0  0  0
   -4.4360   17.7940  -34.9380 O   0  0  0  0  0  0  0  0  0  0  0  0
   -7.3480   18.6000  -32.8440 C   0  0  0  0  0  0  0  0  0  0  0  0
   -8.0420   19.6670  -32.2640 C   0  0  0  0  0  0  0  0  0  0  0  0
   -6.9173   25.2391  -31.1456 H   0  0  0  0  0  0  0  0  0  0  0  0
   -4.6696   26.3062  -30.9664 H   0  0  0  0  0  0  0  0  0  0  0  0
   -1.9701   24.4387  -27.7567 H   0  0  0  0  0  0  0  0  0  0  0  0
   -3.0088   23.5825  -26.5555 H   0  0  0  0  0  0  0  0  0  0  0  0
   -0.4126   23.2939  -26.3800 H   0  0  0  0  0  0  0  0  0  0  0  0
   -1.4410   21.8317  -26.2638 H   0  0  0  0  0  0  0  0  0  0  0  0
    0.4680   21.6510  -27.7890 H   0  0  0  0  0  0  0  0  0  0  0  0
   -0.8875   20.8707  -29.7590 H   0  0  0  0  0  0  0  0  0  0  0  0
   -1.1219   20.1108  -28.1162 H   0  0  0  0  0  0  0  0  0  0  0  0
   -3.1374   21.1035  -29.7707 H   0  0  0  0  0  0  0  0  0  0  0  0
   -3.2498   20.7443  -27.9957 H   0  0  0  0  0  0  0  0  0  0  0  0
   -5.5140   21.9003  -28.7804 H   0  0  0  0  0  0  0  0  0  0  0  0
   -5.6998   22.1187  -32.6758 H   0  0  0  0  0  0  0  0  0  0  0  0
   -4.4620   20.2153  -33.7014 H   0  0  0  0  0  0  0  0  0  0  0  0
   -6.2572   15.8509  -33.0465 H   0  0  0  0  0  0  0  0  0  0  0  0
   -4.5416   14.5477  -34.6765 H   0  0  0  0  0  0  0  0  0  0  0  0
   -3.2357   16.4221  -36.0623 H   0  0  0  0  0  0  0  0  0  0  0  0
   -7.8143   17.6044  -32.8824 H   0  0  0  0  0  0  0  0  0  0  0  0
   -9.0489   19.5078  -31.8507 H   0  0  0  0  0  0  0  0  0  0  0  0
  1  2  2  0
  2  3  2  0
  2  4  1  0
  4  5  1  0
  5  6  2  0
  6  7  1  0
  7  8  2  0
  8  9  1  0
  8 10  1  0
 10 11  1  0
 11 12  1  0
 12 13  1  0
 13 14  1  0
 14 15  1  0
 15 16  1  0
 10 17  2  0
  2 18  1  0
 18 19  2  0
 19 20  1  0
 20 21  2  0
 21 22  1  0
 22 23  2  0
 23 24  1  0
 24 25  2  0
 25 26  1  0
 21 27  1  0
 27 28  2  0
 17  5  1  0
 28 18  1  0
 16 11  1  0
 26 22  1  0
  6 29  1  0
  7 30  1  0
 12 31  1  0
 12 32  1  0
 13 33  1  0
 13 34  1  0
 14 35  1  0
 15 36  1  0
 15 37  1  0
 16 38  1  0
 16 39  1  0
 17 40  1  0
 19 41  1  0
 20 42  1  0
 23 43  1  0
 24 44  1  0
 25 45  1  0
 27 46  1  0
 28 47  1  0
M  CHG  2   4  -1   9  -1
M  END
>  <UniqueID>  (26) 
25

>  <SMILES>  (26) 
O=S(=O)([N-]c1ccc([O-])c(N2CCNCC2)c1)c1ccc(-c2ccco2)cc1

>  <Energy>  (26) 
90.75443201923504

>  <Genealogy>  (26) 
O=S(=O)([N-]c1ccc([O-])c(N2CCNCC2)c1)c1ccc(-c2ccco2)cc1 (protonated)
O=S(=O)([N-]c1ccc([O-])c(N2CCNCC2)c1)c1ccc(-c2ccco2)cc1 (3D coordinates assigned)
O=S(=O)([N-]c1ccc([O-])c(N2CCNCC2)c1)c1ccc(-c2ccco2)cc1 (nonaromatic ring conformer: 90.75443201923504 kcal/mol)

>  <smiles>  (26) 
O=S(=O)(Nc1ccc(O)c(N2CCNCC2)c1)c1ccc(-c2ccco2)cc1

>  <score_type>  (26) 
oracle

>  <origin>  (26) 
adgpu

>  <m_score__min__energy>  (26) 
-12.19

>  <m_primary>  (26) 
energy

$$$$
26:0
     RDKit          3D

 50 54  0  0  0  0  0  0  0  0999 V2000
   -0.7660   21.8990  -28.4240 O   0  0  0  0  0  0  0  0  0  0  0  0
   -0.8260   22.5710  -29.4860 C   0  0  0  0  0  0  0  0  0  0  0  0
   -0.7520   24.0030  -29.4040 N   0  0  0  0  0  0  0  0  0  0  0  0
   -1.6410   24.8790  -28.6400 C   0  0  0  0  0  0  0  0  0  0  0  0
   -3.0600   24.7610  -29.1060 C   0  0  0  0  0  0  0  0  0  0  0  0
   -4.0760   24.0960  -28.4500 C   0  0  0  0  0  0  0  0  0  0  0  0
   -5.1860   24.2340  -29.2570 C   0  0  0  0  0  0  0  0  0  0  0  0
   -4.7800   24.9770  -30.3450 C   0  0  0  0  0  0  0  0  0  0  0  0
   -3.5080   25.2780  -30.2260 O   0  0  0  0  0  0  0  0  0  0  0  0
   -1.0500   21.8690  -30.7620 C   0  0  0  0  0  0  0  0  0  0  0  0
   -0.0030   21.1510  -31.3780 C   0  0  0  0  0  0  0  0  0  0  0  0
   -0.2590   20.3930  -32.5430 C   0  0  0  0  0  0  0  0  0  0  0  0
   -1.5140   20.3580  -33.0860 N   0  0  0  0  0  0  0  0  0  0  0  0
   -2.4990   21.0860  -32.5040 C   0  0  0  0  0  0  0  0  0  0  0  0
   -2.2980   21.8260  -31.3820 C   0  0  0  0  0  0  0  0  0  0  0  0
   -3.4550   22.3850  -30.9850 N   0  0  0  0  0  0  0  0  0  0  0  0
   -4.3470   21.9440  -31.9140 C   0  0  0  0  0  0  0  0  0  0  0  0
   -5.7870   22.2330  -31.8080 C   0  0  0  0  0  0  0  0  0  0  0  0
   -6.5850   21.5710  -30.8610 C   0  0  0  0  0  0  0  0  0  0  0  0
   -7.9480   21.8650  -30.7590 C   0  0  0  0  0  0  0  0  0  0  0  0
   -8.5240   22.8150  -31.6080 C   0  0  0  0  0  0  0  0  0  0  0  0
   -7.7400   23.4650  -32.5650 C   0  0  0  0  0  0  0  0  0  0  0  0
   -6.3770   23.1700  -32.6720 C   0  0  0  0  0  0  0  0  0  0  0  0
   -3.7880   21.1390  -32.8630 N   0  0  0  0  0  0  0  0  0  0  0  0
   -4.4610   20.2590  -33.8250 C   0  0  0  0  0  0  0  0  0  0  0  0
   -5.4860   19.4170  -33.1160 C   0  0  0  0  0  0  0  0  0  0  0  0
   -5.0750   18.4010  -32.2360 C   0  0  0  0  0  0  0  0  0  0  0  0
   -6.0230   17.6650  -31.5190 C   0  0  0  0  0  0  0  0  0  0  0  0
   -7.3850   17.9420  -31.6670 C   0  0  0  0  0  0  0  0  0  0  0  0
   -7.8030   18.9550  -32.5370 C   0  0  0  0  0  0  0  0  0  0  0  0
   -9.5110   19.3170  -32.7100 Cl  0  0  0  0  0  0  0  0  0  0  0  0
   -6.8560   19.6880  -33.2600 C   0  0  0  0  0  0  0  0  0  0  0  0
   -1.5895   24.6014  -27.5768 H   0  0  0  0  0  0  0  0  0  0  0  0
   -1.3136   25.9185  -28.7891 H   0  0  0  0  0  0  0  0  0  0  0  0
   -4.0137   23.5677  -27.4872 H   0  0  0  0  0  0  0  0  0  0  0  0
   -6.1927   23.8321  -29.0701 H   0  0  0  0  0  0  0  0  0  0  0  0
   -5.4247   25.2729  -31.1858 H   0  0  0  0  0  0  0  0  0  0  0  0
    1.0108   21.1812  -30.9521 H   0  0  0  0  0  0  0  0  0  0  0  0
    0.5568   19.8271  -33.0165 H   0  0  0  0  0  0  0  0  0  0  0  0
   -6.1359   20.8180  -30.1967 H   0  0  0  0  0  0  0  0  0  0  0  0
   -8.5674   21.3489  -30.0107 H   0  0  0  0  0  0  0  0  0  0  0  0
   -9.5950   23.0509  -31.5226 H   0  0  0  0  0  0  0  0  0  0  0  0
   -8.1953   24.2094  -33.2348 H   0  0  0  0  0  0  0  0  0  0  0  0
   -5.7653   23.6734  -33.4352 H   0  0  0  0  0  0  0  0  0  0  0  0
   -4.9583   20.8700  -34.5927 H   0  0  0  0  0  0  0  0  0  0  0  0
   -3.7164   19.6021  -34.2984 H   0  0  0  0  0  0  0  0  0  0  0  0
   -4.0038   18.1842  -32.1110 H   0  0  0  0  0  0  0  0  0  0  0  0
   -5.6963   16.8662  -30.8369 H   0  0  0  0  0  0  0  0  0  0  0  0
   -8.1286   17.3634  -31.0993 H   0  0  0  0  0  0  0  0  0  0  0  0
   -7.1869   20.4819  -33.9458 H   0  0  0  0  0  0  0  0  0  0  0  0
  1  2  2  0
  2  3  1  0
  3  4  1  0
  4  5  1  0
  5  6  2  0
  6  7  1  0
  7  8  2  0
  8  9  1  0
  2 10  1  0
 10 11  2  0
 11 12  1  0
 12 13  2  0
 13 14  1  0
 14 15  2  0
 15 16  1  0
 16 17  2  0
 17 18  1  0
 18 19  2  0
 19 20  1  0
 20 21  2  0
 21 22  1  0
 22 23  2  0
 17 24  1  0
 24 25  1  0
 25 26  1  0
 26 27  2  0
 27 28  1  0
 28 29  2  0
 29 30  1  0
 30 31  1  0
 30 32  2  0
  9  5  1  0
 15 10  1  0
 23 18  1  0
 32 26  1  0
 24 14  1  0
  4 33  1  0
  4 34  1  0
  6 35  1  0
  7 36  1  0
  8 37  1  0
 11 38  1  0
 12 39  1  0
 19 40  1  0
 20 41  1  0
 21 42  1  0
 22 43  1  0
 23 44  1  0
 25 45  1  0
 25 46  1  0
 27 47  1  0
 28 48  1  0
 29 49  1  0
 32 50  1  0
M  CHG  1   3  -1
M  END
>  <UniqueID>  (27) 
26

>  <SMILES>  (27) 
O=C([N-]Cc1ccco1)c1ccnc2c1nc(-c1ccccc1)n2Cc1cccc(Cl)c1

>  <Energy>  (27) 
125.12460421925924

>  <Genealogy>  (27) 
O=C([N-]Cc1ccco1)c1ccnc2c1nc(-c1ccccc1)n2Cc1cccc(Cl)c1 (protonated)
O=C([N-]Cc1ccco1)c1ccnc2c1nc(-c1ccccc1)n2Cc1cccc(Cl)c1 (3D coordinates assigned)
O=C([N-]Cc1ccco1)c1ccnc2c1nc(-c1ccccc1)n2Cc1cccc(Cl)c1 (optimized conformer: 125.12460421925924 kcal/mol)

>  <smiles>  (27) 
O=C(NCc1ccco1)c1ccnc2c1nc(-c1ccccc1)n2Cc1cccc(Cl)c1

>  <score_type>  (27) 
oracle

>  <origin>  (27) 
adgpu

>  <m_score__min__energy>  (27) 
-12.43

>  <m_primary>  (27) 
energy

$$$$
27:0
     RDKit          3D

 51 53  0  0  0  0  0  0  0  0999 V2000
   -9.4750   18.1810  -31.6720 C   0  0  0  0  0  0  0  0  0  0  0  0
   -8.2940   19.0670  -31.9450 C   0  0  0  0  0  0  0  0  0  0  0  0
   -8.3680   20.4450  -31.6850 C   0  0  0  0  0  0  0  0  0  0  0  0
   -7.2820   21.2870  -31.9770 C   0  0  0  0  0  0  0  0  0  0  0  0
   -7.3760   22.7420  -31.7170 C   0  0  0  0  0  0  0  0  0  0  0  0
   -8.4300   23.3550  -32.0350 O   0  0  0  0  0  0  0  0  0  0  0  0
   -6.2970   23.4680  -31.0990 N   0  0  0  0  0  0  0  0  0  0  0  0
   -5.9030   24.7820  -31.6130 C   0  0  0  0  0  0  0  0  0  0  0  0
   -5.4890   25.6910  -30.4520 C   0  0  0  0  0  0  0  0  0  0  0  0
   -4.5290   25.0550  -29.6290 O   0  0  0  0  0  0  0  0  0  0  0  0
   -5.1090   23.9240  -29.0050 C   0  0  0  0  0  0  0  0  0  0  0  0
   -5.4760   22.8600  -30.0450 C   0  0  0  0  0  0  0  0  0  0  0  0
   -6.1350   20.7410  -32.5760 C   0  0  0  0  0  0  0  0  0  0  0  0
   -6.0580   19.3710  -32.8510 C   0  0  0  0  0  0  0  0  0  0  0  0
   -4.6240   18.7260  -33.6450 S   0  0  0  0  0  0  0  0  0  0  0  0
   -4.9400   18.3230  -35.0580 O   0  0  0  0  0  0  0  0  0  0  0  0
   -4.1690   17.5050  -32.8950 O   0  0  0  0  0  0  0  0  0  0  0  0
   -3.3440   19.9060  -33.6390 N   0  0  0  0  0  0  0  0  0  0  0  0
   -2.2720   19.5240  -32.7150 C   0  0  0  0  0  0  0  0  0  0  0  0
   -1.9860   20.6340  -31.7410 C   0  0  0  0  0  0  0  0  0  0  0  0
   -2.9540   21.0050  -30.7950 C   0  0  0  0  0  0  0  0  0  0  0  0
   -2.6840   22.0140  -29.8660 C   0  0  0  0  0  0  0  0  0  0  0  0
   -1.4400   22.6610  -29.8690 C   0  0  0  0  0  0  0  0  0  0  0  0
   -1.0930   23.9350  -28.7020 S   0  0  0  0  0  0  0  0  0  0  0  0
   -1.6040   25.4570  -29.3400 N   0  0  0  0  0  0  0  0  0  0  0  0
   -1.8190   23.6660  -27.4140 O   0  0  0  0  0  0  0  0  0  0  0  0
    0.3840   23.9740  -28.4240 O   0  0  0  0  0  0  0  0  0  0  0  0
   -0.4760   22.3020  -30.8190 C   0  0  0  0  0  0  0  0  0  0  0  0
   -0.7450   21.2930  -31.7490 C   0  0  0  0  0  0  0  0  0  0  0  0
   -7.1400   18.5360  -32.5390 C   0  0  0  0  0  0  0  0  0  0  0  0
   -9.6126   18.0778  -30.5855 H   0  0  0  0  0  0  0  0  0  0  0  0
  -10.3778   18.6265  -32.1152 H   0  0  0  0  0  0  0  0  0  0  0  0
   -9.2999   17.1896  -32.1152 H   0  0  0  0  0  0  0  0  0  0  0  0
   -9.2845   20.8689  -31.2488 H   0  0  0  0  0  0  0  0  0  0  0  0
   -5.0558   24.6644  -32.3047 H   0  0  0  0  0  0  0  0  0  0  0  0
   -6.7542   25.2347  -32.1427 H   0  0  0  0  0  0  0  0  0  0  0  0
   -5.0581   26.6185  -30.8570 H   0  0  0  0  0  0  0  0  0  0  0  0
   -6.3793   25.9133  -29.8455 H   0  0  0  0  0  0  0  0  0  0  0  0
   -4.3897   23.4974  -28.2904 H   0  0  0  0  0  0  0  0  0  0  0  0
   -6.0247   24.2389  -28.4831 H   0  0  0  0  0  0  0  0  0  0  0  0
   -4.5572   22.4480  -30.4878 H   0  0  0  0  0  0  0  0  0  0  0  0
   -6.0430   22.0525  -29.5588 H   0  0  0  0  0  0  0  0  0  0  0  0
   -5.2893   21.3964  -32.8314 H   0  0  0  0  0  0  0  0  0  0  0  0
   -2.5784   18.6259  -32.1586 H   0  0  0  0  0  0  0  0  0  0  0  0
   -1.3605   19.3215  -33.2966 H   0  0  0  0  0  0  0  0  0  0  0  0
   -3.9306   20.4990  -30.7845 H   0  0  0  0  0  0  0  0  0  0  0  0
   -3.4497   22.3013  -29.1304 H   0  0  0  0  0  0  0  0  0  0  0  0
   -2.4140   25.2660  -29.9730 H   0  0  0  0  0  0  0  0  0  0  0  0
    0.4966   22.8157  -30.8338 H   0  0  0  0  0  0  0  0  0  0  0  0
    0.0184   21.0139  -32.4902 H   0  0  0  0  0  0  0  0  0  0  0  0
   -7.0836   17.4601  -32.7610 H   0  0  0  0  0  0  0  0  0  0  0  0
  1  2  1  0
  2  3  2  0
  3  4  1  0
  4  5  1  0
  5  6  2  0
  5  7  1  0
  7  8  1  0
  8  9  1  0
  9 10  1  0
 10 11  1  0
 11 12  1  0
  4 13  2  0
 13 14  1  0
 14 15  1  0
 15 16  2  0
 15 17  2  0
 15 18  1  0
 18 19  1  0
 19 20  1  0
 20 21  2  0
 21 22  1  0
 22 23  2  0
 23 24  1  0
 24 25  1  0
 24 26  2  0
 24 27  2  0
 23 28  1  0
 28 29  2  0
 14 30  2  0
 30  2  1  0
 12  7  1  0
 29 20  1  0
  1 31  1  0
  1 32  1  0
  1 33  1  0
  3 34  1  0
  8 35  1  0
  8 36  1  0
  9 37  1  0
  9 38  1  0
 11 39  1  0
 11 40  1  0
 12 41  1  0
 12 42  1  0
 13 43  1  0
 19 44  1  0
 19 45  1  0
 21 46  1  0
 22 47  1  0
 25 48  1  0
 28 49  1  0
 29 50  1  0
 30 51  1  0
M  CHG  2  18  -1  25  -1
M  END
>  <UniqueID>  (28) 
27

>  <SMILES>  (28) 
Cc1cc(C(=O)N2CCOCC2)cc(S(=O)(=O)[N-]Cc2ccc(S([NH-])(=O)=O)cc2)c1

>  <Energy>  (28) 
55.90902667138748

>  <Genealogy>  (28) 
Cc1cc(C(=O)N2CCOCC2)cc(S(=O)(=O)[N-]Cc2ccc(S([NH-])(=O)=O)cc2)c1 (protonated)
Cc1cc(C(=O)N2CCOCC2)cc(S(=O)(=O)[N-]Cc2ccc(S([NH-])(=O)=O)cc2)c1 (3D coordinates assigned)
Cc1cc(C(=O)N2CCOCC2)cc(S(=O)(=O)[N-]Cc2ccc(S([NH-])(=O)=O)cc2)c1 (nonaromatic ring conformer: 55.90902667138748 kcal/mol)

>  <smiles>  (28) 
Cc1cc(C(=O)N2CCOCC2)cc(S(=O)(=O)NCc2ccc(S(N)(=O)=O)cc2)c1

>  <score_type>  (28) 
oracle

>  <origin>  (28) 
adgpu

>  <m_score__min__energy>  (28) 
-11.609999999999999

>  <m_primary>  (28) 
energy

$$$$
28:0
     RDKit          3D

 56 59  0  0  0  0  0  0  0  0999 V2000
    0.9410   24.4590  -28.5720 O   0  0  0  0  0  0  0  0  0  0  0  0
    0.0780   23.5710  -28.3400 C   0  0  0  0  0  0  0  0  0  0  0  0
   -1.1810   23.4790  -29.1270 C   0  0  0  0  0  0  0  0  0  0  0  0
   -1.6350   22.2230  -29.6050 C   0  0  0  0  0  0  0  0  0  0  0  0
   -0.8880   20.9680  -29.3490 C   0  0  0  0  0  0  0  0  0  0  0  0
    0.0380   20.5300  -30.3210 C   0  0  0  0  0  0  0  0  0  0  0  0
    0.2160   21.2950  -31.5260 N   0  0  0  0  0  0  0  0  0  0  0  0
   -0.4040   21.0350  -32.7920 C   0  0  0  0  0  0  0  0  0  0  0  0
    0.2900   21.1540  -33.8370 O   0  0  0  0  0  0  0  0  0  0  0  0
   -1.8100   20.5820  -32.9000 C   0  0  0  0  0  0  0  0  0  0  0  0
   -2.1640   19.2530  -32.6060 C   0  0  0  0  0  0  0  0  0  0  0  0
   -3.4940   18.8350  -32.7070 C   0  0  0  0  0  0  0  0  0  0  0  0
   -4.4870   19.7350  -33.1150 C   0  0  0  0  0  0  0  0  0  0  0  0
   -6.1640   19.2150  -33.2640 S   0  0  0  0  0  0  0  0  0  0  0  0
   -6.8650   20.0490  -34.3010 O   0  0  0  0  0  0  0  0  0  0  0  0
   -6.1780   17.7800  -33.7140 O   0  0  0  0  0  0  0  0  0  0  0  0
   -6.9590   19.3650  -31.7090 N   0  0  0  0  0  0  0  0  0  0  0  0
   -7.1970   20.7780  -31.3430 C   0  0  0  0  0  0  0  0  0  0  0  0
   -8.6420   21.2300  -31.6180 C   0  0  0  0  0  0  0  0  0  0  0  0
   -9.1570   20.5620  -32.7480 O   0  0  0  0  0  0  0  0  0  0  0  0
   -9.3510   19.1870  -32.4560 C   0  0  0  0  0  0  0  0  0  0  0  0
   -8.1890   18.5540  -31.6500 C   0  0  0  0  0  0  0  0  0  0  0  0
   -4.1370   21.0530  -33.4330 C   0  0  0  0  0  0  0  0  0  0  0  0
   -2.8080   21.4750  -33.3290 C   0  0  0  0  0  0  0  0  0  0  0  0
    0.7290   19.3240  -30.1310 C   0  0  0  0  0  0  0  0  0  0  0  0
    0.5280   18.5730  -28.9770 C   0  0  0  0  0  0  0  0  0  0  0  0
   -0.3710   19.0050  -28.0040 C   0  0  0  0  0  0  0  0  0  0  0  0
   -1.0910   20.2040  -28.1650 C   0  0  0  0  0  0  0  0  0  0  0  0
   -2.0320   20.6180  -27.0860 C   0  0  0  0  0  0  0  0  0  0  0  0
   -3.2570   20.7770  -27.3400 O   0  0  0  0  0  0  0  0  0  0  0  0
   -1.5970   20.8130  -25.7820 O   0  0  0  0  0  0  0  0  0  0  0  0
   -2.8380   22.1370  -30.3230 C   0  0  0  0  0  0  0  0  0  0  0  0
   -3.5920   23.2800  -30.5900 C   0  0  0  0  0  0  0  0  0  0  0  0
   -4.7790   23.1550  -31.3130 O   0  0  0  0  0  0  0  0  0  0  0  0
   -3.1470   24.5290  -30.1320 C   0  0  0  0  0  0  0  0  0  0  0  0
   -3.8910   25.6740  -30.3960 O   0  0  0  0  0  0  0  0  0  0  0  0
   -1.9530   24.6320  -29.4050 C   0  0  0  0  0  0  0  0  0  0  0  0
   -1.5490   25.8900  -28.9620 O   0  0  0  0  0  0  0  0  0  0  0  0
    0.2602   22.8446  -27.5343 H   0  0  0  0  0  0  0  0  0  0  0  0
   -1.3888   18.5375  -32.2944 H   0  0  0  0  0  0  0  0  0  0  0  0
   -3.7618   17.7958  -32.4653 H   0  0  0  0  0  0  0  0  0  0  0  0
   -6.9877   20.9033  -30.2704 H   0  0  0  0  0  0  0  0  0  0  0  0
   -6.5325   21.3973  -31.9635 H   0  0  0  0  0  0  0  0  0  0  0  0
   -9.2674   20.9984  -30.7432 H   0  0  0  0  0  0  0  0  0  0  0  0
   -8.6478   22.3132  -31.8092 H   0  0  0  0  0  0  0  0  0  0  0  0
  -10.2769   19.0829  -31.8713 H   0  0  0  0  0  0  0  0  0  0  0  0
   -9.4022   18.6570  -33.4185 H   0  0  0  0  0  0  0  0  0  0  0  0
   -8.4990   18.4578  -30.5990 H   0  0  0  0  0  0  0  0  0  0  0  0
   -7.9665   17.5730  -32.0951 H   0  0  0  0  0  0  0  0  0  0  0  0
   -4.9113   21.7598  -33.7662 H   0  0  0  0  0  0  0  0  0  0  0  0
   -2.5417   22.5113  -33.5842 H   0  0  0  0  0  0  0  0  0  0  0  0
    1.4334   18.9702  -30.8983 H   0  0  0  0  0  0  0  0  0  0  0  0
    1.0816   17.6336  -28.8321 H   0  0  0  0  0  0  0  0  0  0  0  0
   -0.5203   18.4006  -27.0971 H   0  0  0  0  0  0  0  0  0  0  0  0
   -3.1901   21.1576  -30.6791 H   0  0  0  0  0  0  0  0  0  0  0  0
   -5.3840   23.9470  -31.5000 H   0  0  0  0  0  0  0  0  0  0  0  0
  1  2  2  0
  2  3  1  0
  3  4  2  0
  4  5  1  0
  5  6  1  0
  6  7  1  0
  7  8  1  0
  8  9  2  0
  8 10  1  0
 10 11  2  0
 11 12  1  0
 12 13  2  0
 13 14  1  0
 14 15  2  0
 14 16  2  0
 14 17  1  0
 17 18  1  0
 18 19  1  0
 19 20  1  0
 20 21  1  0
 21 22  1  0
 13 23  1  0
 23 24  2  0
  6 25  2  0
 25 26  1  0
 26 27  2  0
 27 28  1  0
 28 29  1  0
 29 30  2  0
 29 31  1  0
  4 32  1  0
 32 33  2  0
 33 34  1  0
 33 35  1  0
 35 36  1  0
 35 37  2  0
 37 38  1  0
 37  3  1  0
 28  5  2  0
 24 10  1  0
 22 17  1  0
  2 39  1  0
 11 40  1  0
 12 41  1  0
 18 42  1  0
 18 43  1  0
 19 44  1  0
 19 45  1  0
 21 46  1  0
 21 47  1  0
 22 48  1  0
 22 49  1  0
 23 50  1  0
 24 51  1  0
 25 52  1  0
 26 53  1  0
 27 54  1  0
 32 55  1  0
 34 56  1  0
M  CHG  4   7  -1  31  -1  36  -1  38  -1
M  END
>  <UniqueID>  (29) 
28

>  <SMILES>  (29) 
O=Cc1c(-c2c([N-]C(=O)c3ccc(S(=O)(=O)N4CCOCC4)cc3)cccc2C(=O)[O-])cc(O)c([O-])c1[O-]

>  <Energy>  (29) 
93.15630408081711

>  <Genealogy>  (29) 
O=Cc1c(-c2c([N-]C(=O)c3ccc(S(=O)(=O)N4CCOCC4)cc3)cccc2C(=O)[O-])cc(O)c([O-])c1[O-] (protonated)
O=Cc1c(-c2c([N-]C(=O)c3ccc(S(=O)(=O)N4CCOCC4)cc3)cccc2C(=O)[O-])cc(O)c([O-])c1[O-] (3D coordinates assigned)
O=Cc1c(-c2c([N-]C(=O)c3ccc(S(=O)(=O)N4CCOCC4)cc3)cccc2C(=O)[O-])cc(O)c([O-])c1[O-] (nonaromatic ring conformer: 93.15630408081711 kcal/mol)

>  <smiles>  (29) 
O=Cc1c(-c2c(NC(=O)c3ccc(S(=O)(=O)N4CCOCC4)cc3)cccc2C(=O)O)cc(O)c(O)c1O

>  <score_type>  (29) 
oracle

>  <origin>  (29) 
adgpu

>  <m_score__min__energy>  (29) 
-15.75

>  <m_primary>  (29) 
energy

$$$$
29:0
     RDKit          3D

 54 57  0  0  0  0  0  0  0  0999 V2000
   -6.8510   16.6980  -33.5660 C   0  0  0  0  0  0  0  0  0  0  0  0
   -7.0990   18.0820  -33.0430 C   0  0  0  0  0  0  0  0  0  0  0  0
   -8.0650   18.3010  -32.0490 C   0  0  0  0  0  0  0  0  0  0  0  0
   -8.3210   19.5960  -31.5890 C   0  0  0  0  0  0  0  0  0  0  0  0
   -7.6260   20.6870  -32.1300 C   0  0  0  0  0  0  0  0  0  0  0  0
   -7.9540   22.3200  -31.5610 S   0  0  0  0  0  0  0  0  0  0  0  0
   -9.0740   22.9350  -32.3540 O   0  0  0  0  0  0  0  0  0  0  0  0
   -8.3520   22.2710  -30.1130 O   0  0  0  0  0  0  0  0  0  0  0  0
   -6.5350   23.3040  -31.7300 N   0  0  0  0  0  0  0  0  0  0  0  0
   -5.4010   23.1990  -30.8480 C   0  0  0  0  0  0  0  0  0  0  0  0
   -5.4770   23.7390  -29.5540 C   0  0  0  0  0  0  0  0  0  0  0  0
   -4.3790   23.7100  -28.7000 C   0  0  0  0  0  0  0  0  0  0  0  0
   -3.1700   23.1490  -29.1150 C   0  0  0  0  0  0  0  0  0  0  0  0
   -2.0570   23.1630  -28.2160 N   0  0  0  0  0  0  0  0  0  0  0  0
   -1.9000   22.0850  -27.2450 C   0  0  0  0  0  0  0  0  0  0  0  0
   -1.0530   24.5740  -28.1380 S   0  0  0  0  0  0  0  0  0  0  0  0
   -1.6140   25.6460  -29.0320 O   0  0  0  0  0  0  0  0  0  0  0  0
    0.3320   24.2430  -28.6180 O   0  0  0  0  0  0  0  0  0  0  0  0
   -1.0010   25.1510  -26.4780 C   0  0  0  0  0  0  0  0  0  0  0  0
   -0.2400   24.4670  -25.5180 C   0  0  0  0  0  0  0  0  0  0  0  0
   -0.1750   24.9430  -24.2050 C   0  0  0  0  0  0  0  0  0  0  0  0
   -0.8640   26.1050  -23.8450 C   0  0  0  0  0  0  0  0  0  0  0  0
   -1.6180   26.7930  -24.8010 C   0  0  0  0  0  0  0  0  0  0  0  0
   -1.6850   26.3200  -26.1160 C   0  0  0  0  0  0  0  0  0  0  0  0
   -3.0610   22.5920  -30.4060 C   0  0  0  0  0  0  0  0  0  0  0  0
   -1.8520   22.0160  -30.8430 C   0  0  0  0  0  0  0  0  0  0  0  0
   -1.7540   21.4450  -32.1100 C   0  0  0  0  0  0  0  0  0  0  0  0
   -2.8600   21.4310  -32.9570 C   0  0  0  0  0  0  0  0  0  0  0  0
   -4.0680   21.9990  -32.5490 C   0  0  0  0  0  0  0  0  0  0  0  0
   -4.1860   22.6040  -31.2800 C   0  0  0  0  0  0  0  0  0  0  0  0
   -6.6730   20.4710  -33.1330 C   0  0  0  0  0  0  0  0  0  0  0  0
   -6.4160   19.1760  -33.5930 C   0  0  0  0  0  0  0  0  0  0  0  0
   -6.7266   16.0038  -32.7218 H   0  0  0  0  0  0  0  0  0  0  0  0
   -7.7063   16.3793  -34.1798 H   0  0  0  0  0  0  0  0  0  0  0  0
   -5.9382   16.6961  -34.1798 H   0  0  0  0  0  0  0  0  0  0  0  0
   -8.6229   17.4505  -31.6302 H   0  0  0  0  0  0  0  0  0  0  0  0
   -9.0700   19.7596  -30.8002 H   0  0  0  0  0  0  0  0  0  0  0  0
   -6.5410   24.0130  -32.4950 H   0  0  0  0  0  0  0  0  0  0  0  0
   -6.4188   24.1917  -29.2104 H   0  0  0  0  0  0  0  0  0  0  0  0
   -4.4644   24.1331  -27.6882 H   0  0  0  0  0  0  0  0  0  0  0  0
   -1.9600   22.4970  -26.2268 H   0  0  0  0  0  0  0  0  0  0  0  0
   -2.6996   21.3433  -27.3881 H   0  0  0  0  0  0  0  0  0  0  0  0
   -0.9221   21.6021  -27.3881 H   0  0  0  0  0  0  0  0  0  0  0  0
    0.3065   23.5546  -25.7989 H   0  0  0  0  0  0  0  0  0  0  0  0
    0.4194   24.4022  -23.4538 H   0  0  0  0  0  0  0  0  0  0  0  0
   -0.8131   26.4776  -22.8113 H   0  0  0  0  0  0  0  0  0  0  0  0
   -2.1595   27.7079  -24.5185 H   0  0  0  0  0  0  0  0  0  0  0  0
   -2.2751   26.8660  -26.8668 H   0  0  0  0  0  0  0  0  0  0  0  0
   -0.9764   22.0171  -30.1771 H   0  0  0  0  0  0  0  0  0  0  0  0
   -0.8022   21.0047  -32.4420 H   0  0  0  0  0  0  0  0  0  0  0  0
   -2.7809   20.9699  -33.9526 H   0  0  0  0  0  0  0  0  0  0  0  0
   -4.9365   21.9747  -33.2236 H   0  0  0  0  0  0  0  0  0  0  0  0
   -6.1246   21.3233  -33.5605 H   0  0  0  0  0  0  0  0  0  0  0  0
   -5.6749   19.0147  -34.3897 H   0  0  0  0  0  0  0  0  0  0  0  0
  1  2  1  0
  2  3  2  0
  3  4  1  0
  4  5  2  0
  5  6  1  0
  6  7  2  0
  6  8  2  0
  6  9  1  0
  9 10  1  0
 10 11  2  0
 11 12  1  0
 12 13  2  0
 13 14  1  0
 14 15  1  0
 14 16  1  0
 16 17  2  0
 16 18  2  0
 16 19  1  0
 19 20  2  0
 20 21  1  0
 21 22  2  0
 22 23  1  0
 23 24  2  0
 13 25  1  0
 25 26  2  0
 26 27  1  0
 27 28  2  0
 28 29  1  0
 29 30  2  0
  5 31  1  0
 31 32  2  0
 32  2  1  0
 30 10  1  0
 24 19  1  0
 30 25  1  0
  1 33  1  0
  1 34  1  0
  1 35  1  0
  3 36  1  0
  4 37  1  0
  9 38  1  0
 11 39  1  0
 12 40  1  0
 15 41  1  0
 15 42  1  0
 15 43  1  0
 20 44  1  0
 21 45  1  0
 22 46  1  0
 23 47  1  0
 24 48  1  0
 26 49  1  0
 27 50  1  0
 28 51  1  0
 29 52  1  0
 31 53  1  0
 32 54  1  0
M  END
>  <UniqueID>  (30) 
29

>  <SMILES>  (30) 
Cc1ccc(S(=O)(=O)Nc2ccc(N(C)S(=O)(=O)c3ccccc3)c3ccccc23)cc1

>  <Energy>  (30) 
73.59774006660645

>  <Genealogy>  (30) 
Cc1ccc(S(=O)(=O)Nc2ccc(N(C)S(=O)(=O)c3ccccc3)c3ccccc23)cc1 (3D coordinates assigned)
Cc1ccc(S(=O)(=O)Nc2ccc(N(C)S(=O)(=O)c3ccccc3)c3ccccc23)cc1 (optimized conformer: 73.59774006660645 kcal/mol)

>  <smiles>  (30) 
Cc1ccc(S(=O)(=O)Nc2ccc(N(C)S(=O)(=O)c3ccccc3)c3ccccc23)cc1

>  <score_type>  (30) 
oracle

>  <origin>  (30) 
adgpu

>  <m_score__min__energy>  (30) 
-11.619999999999999

>  <m_primary>  (30) 
energy

$$$$
30:0
     RDKit          3D

 40 41  0  0  0  0  0  0  0  0999 V2000
   -6.5580   18.0310  -31.6030 C   0  0  0  0  0  0  0  0  0  0  0  0
   -7.9910   17.8630  -32.1030 C   0  0  0  0  0  0  0  0  0  0  0  0
   -8.7920   19.1650  -32.0080 C   0  0  0  0  0  0  0  0  0  0  0  0
   -8.1180   20.2440  -32.7310 N   0  0  0  0  0  0  0  0  0  0  0  0
   -7.4520   21.3350  -32.0720 C   0  0  0  0  0  0  0  0  0  0  0  0
   -8.1770   22.1850  -31.2170 C   0  0  0  0  0  0  0  0  0  0  0  0
   -7.5710   23.3020  -30.6420 C   0  0  0  0  0  0  0  0  0  0  0  0
   -6.2340   23.5970  -30.9180 C   0  0  0  0  0  0  0  0  0  0  0  0
   -5.4590   24.9980  -30.1840 S   0  0  0  0  0  0  0  0  0  0  0  0
   -4.5570   25.6390  -31.2010 O   0  0  0  0  0  0  0  0  0  0  0  0
   -6.4850   26.0020  -29.7380 O   0  0  0  0  0  0  0  0  0  0  0  0
   -4.5160   24.5050  -28.8130 N   0  0  0  0  0  0  0  0  0  0  0  0
   -3.3430   23.6750  -28.9060 C   0  0  0  0  0  0  0  0  0  0  0  0
   -3.4180   22.2770  -28.7380 C   0  0  0  0  0  0  0  0  0  0  0  0
   -2.2680   21.4880  -28.8380 C   0  0  0  0  0  0  0  0  0  0  0  0
   -1.0320   22.0820  -29.0980 C   0  0  0  0  0  0  0  0  0  0  0  0
   -0.9420   23.4650  -29.2560 C   0  0  0  0  0  0  0  0  0  0  0  0
   -2.0870   24.2620  -29.1600 C   0  0  0  0  0  0  0  0  0  0  0  0
   -1.9710   25.6380  -29.3260 O   0  0  0  0  0  0  0  0  0  0  0  0
   -5.5040   22.7670  -31.7760 C   0  0  0  0  0  0  0  0  0  0  0  0
   -6.0940   21.6260  -32.3480 C   0  0  0  0  0  0  0  0  0  0  0  0
   -5.2950   20.7550  -33.1700 N   0  0  0  0  0  0  0  0  0  0  0  0
   -4.0830   20.5930  -32.9200 O   0  0  0  0  0  0  0  0  0  0  0  0
   -5.8900   19.9550  -34.1180 O   0  0  0  0  0  0  0  0  0  0  0  0
   -6.5512   18.0318  -30.5030 H   0  0  0  0  0  0  0  0  0  0  0  0
   -5.9407   17.1991  -31.9729 H   0  0  0  0  0  0  0  0  0  0  0  0
   -6.1498   18.9831  -31.9729 H   0  0  0  0  0  0  0  0  0  0  0  0
   -7.9641   17.5393  -33.1539 H   0  0  0  0  0  0  0  0  0  0  0  0
   -8.4857   17.1144  -31.4667 H   0  0  0  0  0  0  0  0  0  0  0  0
   -9.7896   19.0072  -32.4437 H   0  0  0  0  0  0  0  0  0  0  0  0
   -8.8772   19.4499  -30.9490 H   0  0  0  0  0  0  0  0  0  0  0  0
   -8.0160   20.1420  -33.7660 H   0  0  0  0  0  0  0  0  0  0  0  0
   -9.2329   21.9664  -30.9996 H   0  0  0  0  0  0  0  0  0  0  0  0
   -8.1481   23.9529  -29.9688 H   0  0  0  0  0  0  0  0  0  0  0  0
   -4.7800   24.9220  -27.8920 H   0  0  0  0  0  0  0  0  0  0  0  0
   -4.3882   21.8037  -28.5267 H   0  0  0  0  0  0  0  0  0  0  0  0
   -2.3375   20.3975  -28.7116 H   0  0  0  0  0  0  0  0  0  0  0  0
   -0.1287   21.4594  -29.1783 H   0  0  0  0  0  0  0  0  0  0  0  0
    0.0340   23.9308  -29.4570 H   0  0  0  0  0  0  0  0  0  0  0  0
   -4.4561   23.0100  -32.0058 H   0  0  0  0  0  0  0  0  0  0  0  0
  1  2  1  0
  2  3  1  0
  3  4  1  0
  4  5  1  0
  5  6  2  0
  6  7  1  0
  7  8  2  0
  8  9  1  0
  9 10  2  0
  9 11  2  0
  9 12  1  0
 12 13  1  0
 13 14  2  0
 14 15  1  0
 15 16  2  0
 16 17  1  0
 17 18  2  0
 18 19  1  0
  8 20  1  0
 20 21  2  0
 21 22  1  0
 22 23  2  0
 22 24  1  0
 21  5  1  0
 18 13  1  0
  1 25  1  0
  1 26  1  0
  1 27  1  0
  2 28  1  0
  2 29  1  0
  3 30  1  0
  3 31  1  0
  4 32  1  0
  6 33  1  0
  7 34  1  0
 12 35  1  0
 14 36  1  0
 15 37  1  0
 16 38  1  0
 17 39  1  0
 20 40  1  0
M  CHG  3  19  -1  22   1  24  -1
M  END
>  <UniqueID>  (31) 
30

>  <SMILES>  (31) 
CCCNc1ccc(S(=O)(=O)Nc2ccccc2[O-])cc1[N+](=O)[O-]

>  <Energy>  (31) 
45.64609145889159

>  <Genealogy>  (31) 
CCCNc1ccc(S(=O)(=O)Nc2ccccc2[O-])cc1[N+](=O)[O-] (protonated)
CCCNc1ccc(S(=O)(=O)Nc2ccccc2[O-])cc1[N+](=O)[O-] (3D coordinates assigned)
CCCNc1ccc(S(=O)(=O)Nc2ccccc2[O-])cc1[N+](=O)[O-] (optimized conformer: 45.64609145889159 kcal/mol)

>  <smiles>  (31) 
CCCNc1ccc(S(=O)(=O)Nc2ccccc2O)cc1[N+](=O)[O-]

>  <score_type>  (31) 
oracle

>  <origin>  (31) 
adgpu

>  <m_score__min__energy>  (31) 
-12.449999999999999

>  <m_primary>  (31) 
energy

$$$$
31:0
     RDKit          3D

 44 47  0  0  0  0  0  0  0  0999 V2000
   -9.5540   19.6880  -33.0720 O   0  0  0  0  0  0  0  0  0  0  0  0
   -8.6230   19.6980  -31.8920 S   0  0  0  0  0  0  0  0  0  0  0  0
   -9.1060   18.6730  -30.9040 O   0  0  0  0  0  0  0  0  0  0  0  0
   -8.6460   21.2620  -31.1420 N   0  0  0  0  0  0  0  0  0  0  0  0
   -7.6060   22.2450  -31.2290 C   0  0  0  0  0  0  0  0  0  0  0  0
   -7.5310   23.1760  -32.3050 C   0  0  0  0  0  0  0  0  0  0  0  0
   -6.5130   24.1510  -32.3440 C   0  0  0  0  0  0  0  0  0  0  0  0
   -5.6010   24.1630  -31.2950 C   0  0  0  0  0  0  0  0  0  0  0  0
   -4.5500   24.9690  -31.0990 N   0  0  0  0  0  0  0  0  0  0  0  0
   -4.0170   24.5390  -29.9810 O   0  0  0  0  0  0  0  0  0  0  0  0
   -4.6390   23.5170  -29.4420 N   0  0  0  0  0  0  0  0  0  0  0  0
   -5.6590   23.2720  -30.2780 C   0  0  0  0  0  0  0  0  0  0  0  0
   -6.6420   22.2920  -30.1980 C   0  0  0  0  0  0  0  0  0  0  0  0
   -6.9810   19.2870  -32.3770 C   0  0  0  0  0  0  0  0  0  0  0  0
   -6.6750   17.9690  -32.7350 C   0  0  0  0  0  0  0  0  0  0  0  0
   -5.3880   17.6350  -33.1560 C   0  0  0  0  0  0  0  0  0  0  0  0
   -4.3930   18.6140  -33.2140 C   0  0  0  0  0  0  0  0  0  0  0  0
   -3.1570   18.2760  -33.6580 F   0  0  0  0  0  0  0  0  0  0  0  0
   -4.6810   19.9340  -32.8310 C   0  0  0  0  0  0  0  0  0  0  0  0
   -3.4280   21.1770  -32.8920 S   0  0  0  0  0  0  0  0  0  0  0  0
   -3.9050   22.3060  -33.7620 O   0  0  0  0  0  0  0  0  0  0  0  0
   -2.1750   20.6080  -33.5000 O   0  0  0  0  0  0  0  0  0  0  0  0
   -3.0980   21.7690  -31.2800 N   0  0  0  0  0  0  0  0  0  0  0  0
   -3.5340   20.7720  -30.2760 C   0  0  0  0  0  0  0  0  0  0  0  0
   -2.7690   20.9590  -28.9520 C   0  0  0  0  0  0  0  0  0  0  0  0
   -1.3580   20.8160  -29.0740 O   0  0  0  0  0  0  0  0  0  0  0  0
   -0.8670   21.0690  -30.3840 C   0  0  0  0  0  0  0  0  0  0  0  0
   -1.6690   22.1460  -31.1350 C   0  0  0  0  0  0  0  0  0  0  0  0
   -5.9800   20.2690  -32.4250 C   0  0  0  0  0  0  0  0  0  0  0  0
   -8.2752   23.1337  -33.1139 H   0  0  0  0  0  0  0  0  0  0  0  0
   -6.4434   24.8729  -33.1711 H   0  0  0  0  0  0  0  0  0  0  0  0
   -6.6679   21.5785  -29.3612 H   0  0  0  0  0  0  0  0  0  0  0  0
   -7.4531   17.1931  -32.6841 H   0  0  0  0  0  0  0  0  0  0  0  0
   -5.1559   16.5988  -33.4429 H   0  0  0  0  0  0  0  0  0  0  0  0
   -3.6760   22.6330  -31.1540 H   0  0  0  0  0  0  0  0  0  0  0  0
   -4.6113   20.8943  -30.0905 H   0  0  0  0  0  0  0  0  0  0  0  0
   -3.3246   19.7647  -30.6652 H   0  0  0  0  0  0  0  0  0  0  0  0
   -2.9827   21.9676  -28.5684 H   0  0  0  0  0  0  0  0  0  0  0  0
   -3.1118   20.1658  -28.2713 H   0  0  0  0  0  0  0  0  0  0  0  0
    0.1786   21.4020  -30.3071 H   0  0  0  0  0  0  0  0  0  0  0  0
   -0.9622   20.1335  -30.9548 H   0  0  0  0  0  0  0  0  0  0  0  0
   -1.6052   23.0915  -30.5765 H   0  0  0  0  0  0  0  0  0  0  0  0
   -1.2395   22.2518  -32.1422 H   0  0  0  0  0  0  0  0  0  0  0  0
   -6.2156   21.3058  -32.1429 H   0  0  0  0  0  0  0  0  0  0  0  0
  1  2  2  0
  2  3  2  0
  2  4  1  0
  4  5  1  0
  5  6  1  0
  6  7  2  0
  7  8  1  0
  8  9  2  0
  9 10  1  0
 10 11  1  0
 11 12  2  0
 12 13  1  0
  2 14  1  0
 14 15  2  0
 15 16  1  0
 16 17  2  0
 17 18  1  0
 17 19  1  0
 19 20  1  0
 20 21  2  0
 20 22  2  0
 20 23  1  0
 23 24  1  0
 24 25  1  0
 25 26  1  0
 26 27  1  0
 27 28  1  0
 19 29  2  0
 13  5  2  0
 29 14  1  0
 12  8  1  0
 28 23  1  0
  6 30  1  0
  7 31  1  0
 13 32  1  0
 15 33  1  0
 16 34  1  0
 23 35  1  0
 24 36  1  0
 24 37  1  0
 25 38  1  0
 25 39  1  0
 27 40  1  0
 27 41  1  0
 28 42  1  0
 28 43  1  0
 29 44  1  0
M  CHG  2   4  -1  23   1
M  END
>  <UniqueID>  (32) 
31

>  <SMILES>  (32) 
O=S(=O)([N-]c1ccc2nonc2c1)c1ccc(F)c(S(=O)(=O)[NH+]2CCOCC2)c1

>  <Energy>  (32) 
106.70504085821905

>  <Genealogy>  (32) 
O=S(=O)([N-]c1ccc2nonc2c1)c1ccc(F)c(S(=O)(=O)[NH+]2CCOCC2)c1 (protonated)
O=S(=O)([N-]c1ccc2nonc2c1)c1ccc(F)c(S(=O)(=O)[NH+]2CCOCC2)c1 (3D coordinates assigned)
O=S(=O)([N-]c1ccc2nonc2c1)c1ccc(F)c(S(=O)(=O)[NH+]2CCOCC2)c1 (nonaromatic ring conformer: 106.70504085821905 kcal/mol)

>  <smiles>  (32) 
O=S(=O)(Nc1ccc2nonc2c1)c1ccc(F)c(S(=O)(=O)N2CCOCC2)c1

>  <score_type>  (32) 
oracle

>  <origin>  (32) 
adgpu

>  <m_score__min__energy>  (32) 
-10.23

>  <m_primary>  (32) 
energy

$$$$
32:0
     RDKit          3D

 44 46  0  0  0  0  0  0  0  0999 V2000
   -8.1400   17.8140  -31.7140 C   0  0  0  0  0  0  0  0  0  0  0  0
   -7.1100   17.8040  -32.8130 C   0  0  0  0  0  0  0  0  0  0  0  0
   -6.8010   16.5880  -33.4470 C   0  0  0  0  0  0  0  0  0  0  0  0
   -5.8590   16.5430  -34.4760 C   0  0  0  0  0  0  0  0  0  0  0  0
   -5.2070   17.7090  -34.8800 C   0  0  0  0  0  0  0  0  0  0  0  0
   -5.4890   18.9230  -34.2500 C   0  0  0  0  0  0  0  0  0  0  0  0
   -6.4310   18.9840  -33.2080 C   0  0  0  0  0  0  0  0  0  0  0  0
   -6.6760   20.2870  -32.5450 C   0  0  0  0  0  0  0  0  0  0  0  0
   -5.6250   20.9460  -31.9020 C   0  0  0  0  0  0  0  0  0  0  0  0
   -5.8390   22.1760  -31.2690 C   0  0  0  0  0  0  0  0  0  0  0  0
   -4.7290   22.8690  -30.5660 C   0  0  0  0  0  0  0  0  0  0  0  0
   -4.9960   23.9050  -29.6530 C   0  0  0  0  0  0  0  0  0  0  0  0
   -3.9490   24.5550  -28.9930 C   0  0  0  0  0  0  0  0  0  0  0  0
   -2.6210   24.1840  -29.2380 C   0  0  0  0  0  0  0  0  0  0  0  0
   -1.3060   24.9920  -28.3920 S   0  0  0  0  0  0  0  0  0  0  0  0
   -1.5970   24.9180  -26.6400 C   0  0  0  0  0  0  0  0  0  0  0  0
   -1.2250   26.4280  -28.8290 O   0  0  0  0  0  0  0  0  0  0  0  0
   -0.0020   24.3170  -28.7140 O   0  0  0  0  0  0  0  0  0  0  0  0
   -2.3490   23.1480  -30.1400 C   0  0  0  0  0  0  0  0  0  0  0  0
   -3.3930   22.4960  -30.8020 C   0  0  0  0  0  0  0  0  0  0  0  0
   -7.1260   22.7350  -31.3110 C   0  0  0  0  0  0  0  0  0  0  0  0
   -8.1490   22.1020  -31.9600 N   0  0  0  0  0  0  0  0  0  0  0  0
   -9.4850   22.7120  -31.9640 C   0  0  0  0  0  0  0  0  0  0  0  0
   -7.9480   20.8870  -32.5640 C   0  0  0  0  0  0  0  0  0  0  0  0
   -8.9090   20.2940  -33.1310 O   0  0  0  0  0  0  0  0  0  0  0  0
   -7.6341   17.8091  -30.7373 H   0  0  0  0  0  0  0  0  0  0  0  0
   -8.7603   18.7182  -31.8011 H   0  0  0  0  0  0  0  0  0  0  0  0
   -8.7778   16.9220  -31.8011 H   0  0  0  0  0  0  0  0  0  0  0  0
   -7.3060   15.6638  -33.1294 H   0  0  0  0  0  0  0  0  0  0  0  0
   -5.6301   15.5869  -34.9694 H   0  0  0  0  0  0  0  0  0  0  0  0
   -4.4700   17.6717  -35.6958 H   0  0  0  0  0  0  0  0  0  0  0  0
   -4.9703   19.8383  -34.5713 H   0  0  0  0  0  0  0  0  0  0  0  0
   -4.6218   20.4948  -31.8932 H   0  0  0  0  0  0  0  0  0  0  0  0
   -6.0357   24.2058  -29.4569 H   0  0  0  0  0  0  0  0  0  0  0  0
   -4.1692   25.3614  -28.2781 H   0  0  0  0  0  0  0  0  0  0  0  0
   -0.6664   25.1547  -26.1034 H   0  0  0  0  0  0  0  0  0  0  0  0
   -2.3737   25.6472  -26.3662 H   0  0  0  0  0  0  0  0  0  0  0  0
   -1.9310   23.9063  -26.3662 H   0  0  0  0  0  0  0  0  0  0  0  0
   -1.3083   22.8458  -30.3285 H   0  0  0  0  0  0  0  0  0  0  0  0
   -3.1688   21.6862  -31.5119 H   0  0  0  0  0  0  0  0  0  0  0  0
   -7.3143   23.6979  -30.8136 H   0  0  0  0  0  0  0  0  0  0  0  0
   -9.8211   22.8655  -30.9279 H   0  0  0  0  0  0  0  0  0  0  0  0
   -9.4442   23.6807  -32.4835 H   0  0  0  0  0  0  0  0  0  0  0  0
  -10.1903   22.0467  -32.4835 H   0  0  0  0  0  0  0  0  0  0  0  0
  1  2  1  0
  2  3  2  0
  3  4  1  0
  4  5  2  0
  5  6  1  0
  6  7  2  0
  7  8  1  0
  8  9  2  0
  9 10  1  0
 10 11  1  0
 11 12  2  0
 12 13  1  0
 13 14  2  0
 14 15  1  0
 15 16  1  0
 15 17  2  0
 15 18  2  0
 14 19  1  0
 19 20  2  0
 10 21  2  0
 21 22  1  0
 22 23  1  0
 22 24  1  0
 24 25  2  0
  7  2  1  0
 24  8  1  0
 20 11  1  0
  1 26  1  0
  1 27  1  0
  1 28  1  0
  3 29  1  0
  4 30  1  0
  5 31  1  0
  6 32  1  0
  9 33  1  0
 12 34  1  0
 13 35  1  0
 16 36  1  0
 16 37  1  0
 16 38  1  0
 19 39  1  0
 20 40  1  0
 21 41  1  0
 23 42  1  0
 23 43  1  0
 23 44  1  0
M  END
>  <UniqueID>  (33) 
32

>  <SMILES>  (33) 
Cc1ccccc1-c1cc(-c2ccc(S(C)(=O)=O)cc2)cn(C)c1=O

>  <Energy>  (33) 
58.69942001177474

>  <Genealogy>  (33) 
Cc1ccccc1-c1cc(-c2ccc(S(C)(=O)=O)cc2)cn(C)c1=O (3D coordinates assigned)
Cc1ccccc1-c1cc(-c2ccc(S(C)(=O)=O)cc2)cn(C)c1=O (optimized conformer: 58.69942001177474 kcal/mol)

>  <smiles>  (33) 
Cc1ccccc1-c1cc(-c2ccc(S(C)(=O)=O)cc2)cn(C)c1=O

>  <score_type>  (33) 
oracle

>  <origin>  (33) 
adgpu

>  <m_score__min__energy>  (33) 
-9.6300000000000008

>  <m_primary>  (33) 
energy

$$$$
33:0
     RDKit          3D

 34 36  0  0  0  0  0  0  0  0999 V2000
   -8.2900   18.9890  -32.1870 C   0  0  0  0  0  0  0  0  0  0  0  0
   -9.1980   20.1970  -31.9750 C   0  0  0  0  0  0  0  0  0  0  0  0
   -8.3880   21.4930  -31.9170 C   0  0  0  0  0  0  0  0  0  0  0  0
   -6.6230   21.1830  -31.5310 S   0  0  0  0  0  0  0  0  0  0  0  0
   -6.2620   22.8410  -30.9130 C   0  0  0  0  0  0  0  0  0  0  0  0
   -7.3380   23.6310  -30.4850 C   0  0  0  0  0  0  0  0  0  0  0  0
   -7.1270   24.9280  -30.0210 C   0  0  0  0  0  0  0  0  0  0  0  0
   -5.8410   25.4640  -30.0050 C   0  0  0  0  0  0  0  0  0  0  0  0
   -4.7600   24.7100  -30.4710 C   0  0  0  0  0  0  0  0  0  0  0  0
   -3.4910   25.2790  -30.4610 O   0  0  0  0  0  0  0  0  0  0  0  0
   -4.9540   23.3920  -30.9370 C   0  0  0  0  0  0  0  0  0  0  0  0
   -3.8060   22.6740  -31.5360 C   0  0  0  0  0  0  0  0  0  0  0  0
   -2.6500   22.4540  -30.8560 N   0  0  0  0  0  0  0  0  0  0  0  0
   -1.7720   21.7300  -31.5960 C   0  0  0  0  0  0  0  0  0  0  0  0
   -0.4990   21.3550  -31.1650 C   0  0  0  0  0  0  0  0  0  0  0  0
    0.3110   20.5990  -32.0310 C   0  0  0  0  0  0  0  0  0  0  0  0
   -0.1580   20.2290  -33.3070 C   0  0  0  0  0  0  0  0  0  0  0  0
   -1.4410   20.6130  -33.7300 C   0  0  0  0  0  0  0  0  0  0  0  0
   -2.2220   21.3620  -32.8530 C   0  0  0  0  0  0  0  0  0  0  0  0
   -3.7750   21.9490  -33.0690 S   0  0  0  0  0  0  0  0  0  0  0  0
   -7.9853   18.5836  -31.2109 H   0  0  0  0  0  0  0  0  0  0  0  0
   -8.8331   18.2167  -32.7515 H   0  0  0  0  0  0  0  0  0  0  0  0
   -7.3972   19.2960  -32.7515 H   0  0  0  0  0  0  0  0  0  0  0  0
   -9.9142   20.2583  -32.8076 H   0  0  0  0  0  0  0  0  0  0  0  0
   -9.7261   20.0727  -31.0181 H   0  0  0  0  0  0  0  0  0  0  0  0
   -8.4550   21.9976  -32.8922 H   0  0  0  0  0  0  0  0  0  0  0  0
   -8.8062   22.1194  -31.1153 H   0  0  0  0  0  0  0  0  0  0  0  0
   -8.3591   23.2231  -30.5157 H   0  0  0  0  0  0  0  0  0  0  0  0
   -7.9771   25.5296  -29.6668 H   0  0  0  0  0  0  0  0  0  0  0  0
   -5.6759   26.4829  -29.6248 H   0  0  0  0  0  0  0  0  0  0  0  0
   -0.1363   21.6449  -30.1678 H   0  0  0  0  0  0  0  0  0  0  0  0
    1.3180   20.2943  -31.7099 H   0  0  0  0  0  0  0  0  0  0  0  0
    0.4840   19.6364  -33.9753 H   0  0  0  0  0  0  0  0  0  0  0  0
   -1.8178   20.3307  -34.7241 H   0  0  0  0  0  0  0  0  0  0  0  0
  1  2  1  0
  2  3  1  0
  3  4  1  0
  4  5  1  0
  5  6  2  0
  6  7  1  0
  7  8  2  0
  8  9  1  0
  9 10  1  0
  9 11  2  0
 11 12  1  0
 12 13  2  0
 13 14  1  0
 14 15  2  0
 15 16  1  0
 16 17  2  0
 17 18  1  0
 18 19  2  0
 19 20  1  0
 11  5  1  0
 20 12  1  0
 19 14  1  0
  1 21  1  0
  1 22  1  0
  1 23  1  0
  2 24  1  0
  2 25  1  0
  3 26  1  0
  3 27  1  0
  6 28  1  0
  7 29  1  0
  8 30  1  0
 15 31  1  0
 16 32  1  0
 17 33  1  0
 18 34  1  0
M  CHG  1  10  -1
M  END
>  <UniqueID>  (34) 
33

>  <SMILES>  (34) 
CCCSc1cccc([O-])c1-c1nc2ccccc2s1

>  <Energy>  (34) 
71.54216197574351

>  <Genealogy>  (34) 
CCCSc1cccc([O-])c1-c1nc2ccccc2s1 (protonated)
CCCSc1cccc([O-])c1-c1nc2ccccc2s1 (3D coordinates assigned)
CCCSc1cccc([O-])c1-c1nc2ccccc2s1 (optimized conformer: 71.54216197574351 kcal/mol)

>  <smiles>  (34) 
CCCSc1cccc(O)c1-c1nc2ccccc2s1

>  <score_type>  (34) 
oracle

>  <origin>  (34) 
adgpu

>  <m_score__min__energy>  (34) 
-10.789999999999999

>  <m_primary>  (34) 
energy

$$$$
34:0
     RDKit          3D

 55 58  0  0  0  0  0  0  0  0999 V2000
   -5.9310   25.0870  -29.0570 O   0  0  0  0  0  0  0  0  0  0  0  0
   -5.3410   24.9170  -30.4280 S   0  0  0  0  0  0  0  0  0  0  0  0
   -5.8470   26.0280  -31.3050 O   0  0  0  0  0  0  0  0  0  0  0  0
   -3.6080   25.0060  -30.3650 N   0  0  0  0  0  0  0  0  0  0  0  0
   -2.8250   24.2500  -29.4340 C   0  0  0  0  0  0  0  0  0  0  0  0
   -3.2250   22.9720  -29.0190 C   0  0  0  0  0  0  0  0  0  0  0  0
   -2.4030   22.2030  -28.1830 C   0  0  0  0  0  0  0  0  0  0  0  0
   -1.1490   22.7150  -27.7770 C   0  0  0  0  0  0  0  0  0  0  0  0
   -0.7880   24.0200  -28.1410 C   0  0  0  0  0  0  0  0  0  0  0  0
   -1.6200   24.7860  -28.9630 C   0  0  0  0  0  0  0  0  0  0  0  0
   -1.2280   26.0690  -29.3350 O   0  0  0  0  0  0  0  0  0  0  0  0
   -0.2280   21.9270  -26.8750 C   0  0  0  0  0  0  0  0  0  0  0  0
   -0.5230   20.4260  -26.9150 C   0  0  0  0  0  0  0  0  0  0  0  0
   -2.0150   20.1740  -26.7050 C   0  0  0  0  0  0  0  0  0  0  0  0
   -2.8330   20.7940  -27.8440 C   0  0  0  0  0  0  0  0  0  0  0  0
   -5.8100   23.3620  -31.1150 C   0  0  0  0  0  0  0  0  0  0  0  0
   -7.1590   23.0410  -31.2950 C   0  0  0  0  0  0  0  0  0  0  0  0
   -7.5190   21.8390  -31.9080 C   0  0  0  0  0  0  0  0  0  0  0  0
   -6.5410   20.9530  -32.3760 C   0  0  0  0  0  0  0  0  0  0  0  0
   -6.9790   19.7620  -32.9600 O   0  0  0  0  0  0  0  0  0  0  0  0
   -5.1710   21.2870  -32.2330 C   0  0  0  0  0  0  0  0  0  0  0  0
   -3.8450   20.3300  -32.9200 S   0  0  0  0  0  0  0  0  0  0  0  0
   -3.4080   20.9980  -34.1940 O   0  0  0  0  0  0  0  0  0  0  0  0
   -4.2940   18.9400  -33.2740 O   0  0  0  0  0  0  0  0  0  0  0  0
   -2.4950   20.2830  -31.8120 N   0  0  0  0  0  0  0  0  0  0  0  0
   -1.6510   19.1060  -32.0870 C   0  0  0  0  0  0  0  0  0  0  0  0
   -0.4300   19.0390  -31.1420 C   0  0  0  0  0  0  0  0  0  0  0  0
   -0.3740   20.2270  -30.1770 C   0  0  0  0  0  0  0  0  0  0  0  0
   -0.5390   21.5540  -30.9290 C   0  0  0  0  0  0  0  0  0  0  0  0
   -1.7030   21.5200  -31.9400 C   0  0  0  0  0  0  0  0  0  0  0  0
   -4.8280   22.4730  -31.5630 C   0  0  0  0  0  0  0  0  0  0  0  0
   -4.1927   22.5688  -29.3523 H   0  0  0  0  0  0  0  0  0  0  0  0
    0.1587   24.4452  -27.7764 H   0  0  0  0  0  0  0  0  0  0  0  0
    0.8105   22.0924  -27.1978 H   0  0  0  0  0  0  0  0  0  0  0  0
   -0.3875   22.2746  -25.8436 H   0  0  0  0  0  0  0  0  0  0  0  0
   -0.2208   20.0226  -27.8927 H   0  0  0  0  0  0  0  0  0  0  0  0
    0.0408   19.9286  -26.1120 H   0  0  0  0  0  0  0  0  0  0  0  0
   -2.1980   19.0897  -26.6773 H   0  0  0  0  0  0  0  0  0  0  0  0
   -2.3224   20.6364  -25.7554 H   0  0  0  0  0  0  0  0  0  0  0  0
   -2.7166   20.1671  -28.7403 H   0  0  0  0  0  0  0  0  0  0  0  0
   -3.8795   20.8418  -27.5084 H   0  0  0  0  0  0  0  0  0  0  0  0
   -7.9388   23.7372  -30.9528 H   0  0  0  0  0  0  0  0  0  0  0  0
   -8.5830   21.5854  -32.0245 H   0  0  0  0  0  0  0  0  0  0  0  0
   -6.3620   19.0550  -33.3280 H   0  0  0  0  0  0  0  0  0  0  0  0
   -2.2548   18.1963  -31.9530 H   0  0  0  0  0  0  0  0  0  0  0  0
   -1.2792   19.1867  -33.1191 H   0  0  0  0  0  0  0  0  0  0  0  0
   -0.4873   18.1099  -30.5559 H   0  0  0  0  0  0  0  0  0  0  0  0
    0.4774   19.0678  -31.7631 H   0  0  0  0  0  0  0  0  0  0  0  0
   -1.1832   20.1290  -29.4384 H   0  0  0  0  0  0  0  0  0  0  0  0
    0.6059   20.2268  -29.6772 H   0  0  0  0  0  0  0  0  0  0  0  0
   -0.7308   22.3525  -30.1972 H   0  0  0  0  0  0  0  0  0  0  0  0
    0.3878   21.7357  -31.4929 H   0  0  0  0  0  0  0  0  0  0  0  0
   -2.3588   22.3844  -31.7590 H   0  0  0  0  0  0  0  0  0  0  0  0
   -1.2795   21.5548  -32.9546 H   0  0  0  0  0  0  0  0  0  0  0  0
   -3.7675   22.7067  -31.3875 H   0  0  0  0  0  0  0  0  0  0  0  0
  1  2  2  0
  2  3  2  0
  2  4  1  0
  4  5  1  0
  5  6  2  0
  6  7  1  0
  7  8  2  0
  8  9  1  0
  9 10  2  0
 10 11  1  0
  8 12  1  0
 12 13  1  0
 13 14  1  0
 14 15  1  0
  2 16  1  0
 16 17  2  0
 17 18  1  0
 18 19  2  0
 19 20  1  0
 19 21  1  0
 21 22  1  0
 22 23  2  0
 22 24  2  0
 22 25  1  0
 25 26  1  0
 26 27  1  0
 27 28  1  0
 28 29  1  0
 29 30  1  0
 21 31  2  0
 10  5  1  0
 31 16  1  0
 15  7  1  0
 30 25  1  0
  6 32  1  0
  9 33  1  0
 12 34  1  0
 12 35  1  0
 13 36  1  0
 13 37  1  0
 14 38  1  0
 14 39  1  0
 15 40  1  0
 15 41  1  0
 17 42  1  0
 18 43  1  0
 20 44  1  0
 26 45  1  0
 26 46  1  0
 27 47  1  0
 27 48  1  0
 28 49  1  0
 28 50  1  0
 29 51  1  0
 29 52  1  0
 30 53  1  0
 30 54  1  0
 31 55  1  0
M  CHG  2   4  -1  11  -1
M  END
>  <UniqueID>  (35) 
34

>  <SMILES>  (35) 
O=S(=O)([N-]c1cc2c(cc1[O-])CCCC2)c1ccc(O)c(S(=O)(=O)N2CCCCC2)c1

>  <Energy>  (35) 
68.65818469836279

>  <Genealogy>  (35) 
O=S(=O)([N-]c1cc2c(cc1[O-])CCCC2)c1ccc(O)c(S(=O)(=O)N2CCCCC2)c1 (protonated)
O=S(=O)([N-]c1cc2c(cc1[O-])CCCC2)c1ccc(O)c(S(=O)(=O)N2CCCCC2)c1 (3D coordinates assigned)
O=S(=O)([N-]c1cc2c(cc1[O-])CCCC2)c1ccc(O)c(S(=O)(=O)N2CCCCC2)c1 (nonaromatic ring conformer: 68.65818469836279 kcal/mol)

>  <smiles>  (35) 
O=S(=O)(Nc1cc2c(cc1O)CCCC2)c1ccc(O)c(S(=O)(=O)N2CCCCC2)c1

>  <score_type>  (35) 
oracle

>  <origin>  (35) 
adgpu

>  <m_score__min__energy>  (35) 
-15.15

>  <m_primary>  (35) 
energy

$$$$
35:0
     RDKit          3D

 50 52  0  0  0  0  0  0  0  0999 V2000
  -10.2701   19.2654  -32.7089 H   0  0  0  0  0  0  0  0  0  0  0  0
   -9.3650   19.7900  -32.3690 C   0  0  0  0  0  0  0  0  0  0  0  0
   -8.1940   18.9610  -32.0260 C   0  0  0  0  0  0  0  0  0  0  0  0
   -8.3830   17.8130  -31.5430 O   0  0  0  0  0  0  0  0  0  0  0  0
   -6.8610   19.4140  -32.2940 N   0  0  0  0  0  0  0  0  0  0  0  0
   -6.1390   19.1280  -33.5280 C   0  0  0  0  0  0  0  0  0  0  0  0
   -6.0667   18.0386  -33.6623 H   0  0  0  0  0  0  0  0  0  0  0  0
   -6.6822   19.5759  -34.3732 H   0  0  0  0  0  0  0  0  0  0  0  0
   -4.7550   19.7140  -33.4690 C   0  0  0  0  0  0  0  0  0  0  0  0
   -3.6410   18.9560  -33.8570 C   0  0  0  0  0  0  0  0  0  0  0  0
   -3.7755   17.9169  -34.1920 H   0  0  0  0  0  0  0  0  0  0  0  0
   -2.3600   19.5150  -33.8200 C   0  0  0  0  0  0  0  0  0  0  0  0
   -1.4922   18.9110  -34.1235 H   0  0  0  0  0  0  0  0  0  0  0  0
   -2.1720   20.8430  -33.3980 C   0  0  0  0  0  0  0  0  0  0  0  0
   -0.8150   21.4300  -33.3610 C   0  0  0  0  0  0  0  0  0  0  0  0
   -0.3030   21.9260  -34.4000 O   0  0  0  0  0  0  0  0  0  0  0  0
   -0.0840   21.4440  -32.1790 O   0  0  0  0  0  0  0  0  0  0  0  0
   -3.2930   21.6010  -33.0150 C   0  0  0  0  0  0  0  0  0  0  0  0
   -3.1614   22.6415  -32.6833 H   0  0  0  0  0  0  0  0  0  0  0  0
   -4.5740   21.0410  -33.0530 C   0  0  0  0  0  0  0  0  0  0  0  0
   -5.4441   21.6445  -32.7551 H   0  0  0  0  0  0  0  0  0  0  0  0
   -9.4210   21.1300  -32.3020 C   0  0  0  0  0  0  0  0  0  0  0  0
  -10.3043   21.6214  -32.7360 H   0  0  0  0  0  0  0  0  0  0  0  0
   -8.3930   21.9970  -31.6930 C   0  0  0  0  0  0  0  0  0  0  0  0
   -7.5890   22.8370  -32.4830 C   0  0  0  0  0  0  0  0  0  0  0  0
   -7.7404   22.8738  -33.5719 H   0  0  0  0  0  0  0  0  0  0  0  0
   -6.5990   23.6250  -31.8920 C   0  0  0  0  0  0  0  0  0  0  0  0
   -5.9892   24.2963  -32.5144 H   0  0  0  0  0  0  0  0  0  0  0  0
   -6.3790   23.5640  -30.5080 C   0  0  0  0  0  0  0  0  0  0  0  0
   -5.1160   24.5480  -29.7630 S   0  0  0  0  0  0  0  0  0  0  0  0
   -5.7540   25.5870  -28.8840 O   0  0  0  0  0  0  0  0  0  0  0  0
   -4.3450   25.2610  -30.8400 O   0  0  0  0  0  0  0  0  0  0  0  0
   -4.0180   23.5780  -28.8080 N   0  0  0  0  0  0  0  0  0  0  0  0
   -2.9760   24.4280  -28.1990 C   0  0  0  0  0  0  0  0  0  0  0  0
   -2.6664   25.1956  -28.9235 H   0  0  0  0  0  0  0  0  0  0  0  0
   -3.3877   24.9018  -27.2957 H   0  0  0  0  0  0  0  0  0  0  0  0
   -1.7530   23.5840  -27.8030 C   0  0  0  0  0  0  0  0  0  0  0  0
   -1.0090   24.2492  -27.3404 H   0  0  0  0  0  0  0  0  0  0  0  0
   -2.1132   22.8063  -27.1135 H   0  0  0  0  0  0  0  0  0  0  0  0
   -1.1350   22.9120  -28.8940 O   0  0  0  0  0  0  0  0  0  0  0  0
   -2.0000   22.6960  -30.0000 C   0  0  0  0  0  0  0  0  0  0  0  0
   -1.9642   23.5828  -30.6498 H   0  0  0  0  0  0  0  0  0  0  0  0
   -1.6495   21.7900  -30.5160 H   0  0  0  0  0  0  0  0  0  0  0  0
   -3.4630   22.4500  -29.5890 C   0  0  0  0  0  0  0  0  0  0  0  0
   -4.0689   22.3151  -30.4971 H   0  0  0  0  0  0  0  0  0  0  0  0
   -3.4906   21.5520  -28.9544 H   0  0  0  0  0  0  0  0  0  0  0  0
   -7.1640   22.7090  -29.7230 C   0  0  0  0  0  0  0  0  0  0  0  0
   -6.9989   22.6576  -28.6367 H   0  0  0  0  0  0  0  0  0  0  0  0
   -8.1560   21.9210  -30.3140 C   0  0  0  0  0  0  0  0  0  0  0  0
   -8.7538   21.2375  -29.6931 H   0  0  0  0  0  0  0  0  0  0  0  0
  1  2  1  0
  2  3  1  0
  3  4  2  0
  3  5  1  0
  5  6  1  0
  6  7  1  0
  6  8  1  0
  6  9  1  0
  9 10  2  0
 10 11  1  0
 10 12  1  0
 12 13  1  0
 12 14  2  0
 14 15  1  0
 15 16  2  0
 15 17  1  0
 14 18  1  0
 18 19  1  0
 18 20  2  0
 20 21  1  0
  2 22  2  0
 22 23  1  0
 22 24  1  0
 24 25  2  0
 25 26  1  0
 25 27  1  0
 27 28  1  0
 27 29  2  0
 29 30  1  0
 30 31  2  0
 30 32  2  0
 30 33  1  0
 33 34  1  0
 34 35  1  0
 34 36  1  0
 34 37  1  0
 37 38  1  0
 37 39  1  0
 37 40  1  0
 40 41  1  0
 41 42  1  0
 41 43  1  0
 41 44  1  0
 44 45  1  0
 44 46  1  0
 29 47  1  0
 47 48  1  0
 47 49  2  0
 49 50  1  0
 20  9  1  0
 49 24  1  0
 44 33  1  0
M  CHG  2   5  -1  17  -1
M  END
>  <UniqueID>  (36) 
35

>  <SMILES>  (36) 
O=C(/C=C\c1ccc(S(=O)(=O)N2CCOCC2)cc1)[N-]Cc1ccc(C(=O)[O-])cc1

>  <Energy>  (36) 
68.4920251755366

>  <Genealogy>  (36) 
O=C(C=Cc1ccc(S(=O)(=O)N2CCOCC2)cc1)[N-]Cc1ccc(C(=O)[O-])cc1 (protonated)
O=C(/C=C\c1ccc(S(=O)(=O)N2CCOCC2)cc1)[N-]Cc1ccc(C(=O)[O-])cc1 (cis-trans isomerization)
O=C(/C=C\c1ccc(S(=O)(=O)N2CCOCC2)cc1)[N-]Cc1ccc(C(=O)[O-])cc1 (3D coordinates assigned)
O=C(/C=C\c1ccc(S(=O)(=O)N2CCOCC2)cc1)[N-]Cc1ccc(C(=O)[O-])cc1 (nonaromatic ring conformer: 68.4920251755366 kcal/mol)

>  <smiles>  (36) 
O=C(C=Cc1ccc(S(=O)(=O)N2CCOCC2)cc1)NCc1ccc(C(=O)O)cc1

>  <score_type>  (36) 
oracle

>  <origin>  (36) 
adgpu

>  <m_score__min__energy>  (36) 
-11.210000000000001

>  <m_primary>  (36) 
energy

$$$$
36:0
     RDKit          3D

 45 47  0  0  0  0  0  0  0  0999 V2000
   -8.6790   18.6190  -31.2340 C   0  0  0  0  0  0  0  0  0  0  0  0
   -8.1000   18.3830  -32.6250 C   0  0  0  0  0  0  0  0  0  0  0  0
   -7.1840   19.4760  -32.9950 N   0  0  0  0  0  0  0  0  0  0  0  0
   -6.1160   19.1880  -33.9690 C   0  0  0  0  0  0  0  0  0  0  0  0
   -6.0410   17.6910  -34.2610 C   0  0  0  0  0  0  0  0  0  0  0  0
   -7.3530   20.7870  -32.3920 C   0  0  0  0  0  0  0  0  0  0  0  0
   -6.2690   21.5170  -31.8680 C   0  0  0  0  0  0  0  0  0  0  0  0
   -6.5090   22.7740  -31.2970 C   0  0  0  0  0  0  0  0  0  0  0  0
   -5.4070   23.5700  -30.7380 C   0  0  0  0  0  0  0  0  0  0  0  0
   -4.9940   24.7490  -31.2440 N   0  0  0  0  0  0  0  0  0  0  0  0
   -3.9970   25.1560  -30.4730 N   0  0  0  0  0  0  0  0  0  0  0  0
   -3.8430   24.2080  -29.5310 C   0  0  0  0  0  0  0  0  0  0  0  0
   -2.6260   24.2820  -28.2230 S   0  0  0  0  0  0  0  0  0  0  0  0
   -2.1540   22.5700  -28.4620 C   0  0  0  0  0  0  0  0  0  0  0  0
   -1.5120   22.1780  -29.6410 C   0  0  0  0  0  0  0  0  0  0  0  0
   -1.1610   20.8340  -29.8170 C   0  0  0  0  0  0  0  0  0  0  0  0
   -0.4740   20.3900  -31.0690 C   0  0  0  0  0  0  0  0  0  0  0  0
   -1.4400   19.9290  -28.8390 N   0  0  0  0  0  0  0  0  0  0  0  0
   -2.0590   20.2860  -27.6800 C   0  0  0  0  0  0  0  0  0  0  0  0
   -2.3530   19.2510  -26.6420 C   0  0  0  0  0  0  0  0  0  0  0  0
   -2.4290   21.6210  -27.4730 C   0  0  0  0  0  0  0  0  0  0  0  0
   -4.7010   23.2310  -29.6860 O   0  0  0  0  0  0  0  0  0  0  0  0
   -7.7760   23.2620  -31.2560 N   0  0  0  0  0  0  0  0  0  0  0  0
   -8.8150   22.5520  -31.7620 C   0  0  0  0  0  0  0  0  0  0  0  0
   -8.5990   21.3350  -32.3200 N   0  0  0  0  0  0  0  0  0  0  0  0
   -7.9423   18.3187  -30.4744 H   0  0  0  0  0  0  0  0  0  0  0  0
   -8.9172   19.6860  -31.1122 H   0  0  0  0  0  0  0  0  0  0  0  0
   -9.5952   18.0226  -31.1122 H   0  0  0  0  0  0  0  0  0  0  0  0
   -7.5488   17.4311  -32.6309 H   0  0  0  0  0  0  0  0  0  0  0  0
   -8.9245   18.3483  -33.3523 H   0  0  0  0  0  0  0  0  0  0  0  0
   -6.3249   19.7283  -34.9041 H   0  0  0  0  0  0  0  0  0  0  0  0
   -5.1544   19.5144  -33.5462 H   0  0  0  0  0  0  0  0  0  0  0  0
   -6.0131   17.1335  -33.3132 H   0  0  0  0  0  0  0  0  0  0  0  0
   -6.9250   17.3856  -34.8401 H   0  0  0  0  0  0  0  0  0  0  0  0
   -5.1309   17.4755  -34.8401 H   0  0  0  0  0  0  0  0  0  0  0  0
   -5.2491   21.1068  -31.9063 H   0  0  0  0  0  0  0  0  0  0  0  0
   -1.2850   22.9182  -30.4224 H   0  0  0  0  0  0  0  0  0  0  0  0
    0.4236   19.8099  -30.8087 H   0  0  0  0  0  0  0  0  0  0  0  0
   -1.1577   19.7625  -31.6596 H   0  0  0  0  0  0  0  0  0  0  0  0
   -0.1826   21.2711  -31.6596 H   0  0  0  0  0  0  0  0  0  0  0  0
   -2.2284   19.6898  -25.6410 H   0  0  0  0  0  0  0  0  0  0  0  0
   -3.3874   18.8962  -26.7606 H   0  0  0  0  0  0  0  0  0  0  0  0
   -1.6595   18.4054  -26.7606 H   0  0  0  0  0  0  0  0  0  0  0  0
   -2.9312   21.9198  -26.5411 H   0  0  0  0  0  0  0  0  0  0  0  0
   -9.8341   22.9638  -31.7197 H   0  0  0  0  0  0  0  0  0  0  0  0
  1  2  1  0
  2  3  1  0
  3  4  1  0
  4  5  1  0
  3  6  1  0
  6  7  2  0
  7  8  1  0
  8  9  1  0
  9 10  2  0
 10 11  1  0
 11 12  2  0
 12 13  1  0
 13 14  1  0
 14 15  2  0
 15 16  1  0
 16 17  1  0
 16 18  2  0
 18 19  1  0
 19 20  1  0
 19 21  2  0
 12 22  1  0
  8 23  2  0
 23 24  1  0
 24 25  2  0
 25  6  1  0
 22  9  1  0
 21 14  1  0
  1 26  1  0
  1 27  1  0
  1 28  1  0
  2 29  1  0
  2 30  1  0
  4 31  1  0
  4 32  1  0
  5 33  1  0
  5 34  1  0
  5 35  1  0
  7 36  1  0
 15 37  1  0
 17 38  1  0
 17 39  1  0
 17 40  1  0
 20 41  1  0
 20 42  1  0
 20 43  1  0
 21 44  1  0
 24 45  1  0
M  END
>  <UniqueID>  (37) 
36

>  <SMILES>  (37) 
CCN(CC)c1cc(-c2nnc(Sc3cc(C)nc(C)c3)o2)ncn1

>  <Energy>  (37) 
71.18780556902328

>  <Genealogy>  (37) 
CCN(CC)c1cc(-c2nnc(Sc3cc(C)nc(C)c3)o2)ncn1 (3D coordinates assigned)
CCN(CC)c1cc(-c2nnc(Sc3cc(C)nc(C)c3)o2)ncn1 (optimized conformer: 71.18780556902328 kcal/mol)

>  <smiles>  (37) 
CCN(CC)c1cc(-c2nnc(Sc3cc(C)nc(C)c3)o2)ncn1

>  <score_type>  (37) 
oracle

>  <origin>  (37) 
adgpu

>  <m_score__min__energy>  (37) 
-8.5099999999999998

>  <m_primary>  (37) 
energy

$$$$
37:0
     RDKit          3D

 49 51  0  0  0  0  0  0  0  0999 V2000
   -3.8410   24.0990  -27.7880 C   0  0  0  0  0  0  0  0  0  0  0  0
   -3.2360   24.4040  -29.0390 O   0  0  0  0  0  0  0  0  0  0  0  0
   -3.9470   24.3860  -30.2410 C   0  0  0  0  0  0  0  0  0  0  0  0
   -4.2580   25.4650  -30.8180 O   0  0  0  0  0  0  0  0  0  0  0  0
   -4.3080   23.0910  -30.8540 C   0  0  0  0  0  0  0  0  0  0  0  0
   -3.3390   22.0870  -31.1100 C   0  0  0  0  0  0  0  0  0  0  0  0
   -1.8630   22.2670  -30.8210 C   0  0  0  0  0  0  0  0  0  0  0  0
   -1.2440   20.9750  -30.4890 N   0  0  0  0  0  0  0  0  0  0  0  0
   -0.4270   20.2770  -31.4860 C   0  0  0  0  0  0  0  0  0  0  0  0
   -1.4620   20.3700  -29.2010 C   0  0  0  0  0  0  0  0  0  0  0  0
   -0.6240   19.3360  -28.7480 C   0  0  0  0  0  0  0  0  0  0  0  0
   -0.8370   18.7530  -27.4950 C   0  0  0  0  0  0  0  0  0  0  0  0
   -1.8880   19.1940  -26.6860 C   0  0  0  0  0  0  0  0  0  0  0  0
   -2.7290   20.2170  -27.1300 C   0  0  0  0  0  0  0  0  0  0  0  0
   -2.5180   20.8040  -28.3810 C   0  0  0  0  0  0  0  0  0  0  0  0
   -3.7430   20.8850  -31.7090 C   0  0  0  0  0  0  0  0  0  0  0  0
   -5.0880   20.6780  -32.0470 C   0  0  0  0  0  0  0  0  0  0  0  0
   -5.5510   19.4120  -32.6720 C   0  0  0  0  0  0  0  0  0  0  0  0
   -4.9720   18.9210  -33.8590 C   0  0  0  0  0  0  0  0  0  0  0  0
   -5.4300   17.7310  -34.4330 C   0  0  0  0  0  0  0  0  0  0  0  0
   -6.4720   17.0200  -33.8340 C   0  0  0  0  0  0  0  0  0  0  0  0
   -7.0630   17.5000  -32.6640 C   0  0  0  0  0  0  0  0  0  0  0  0
   -6.6090   18.6900  -32.0860 C   0  0  0  0  0  0  0  0  0  0  0  0
   -5.9930   21.6540  -31.7760 N   0  0  0  0  0  0  0  0  0  0  0  0
   -5.6520   22.8350  -31.2020 C   0  0  0  0  0  0  0  0  0  0  0  0
   -6.9640   24.0210  -30.8730 S   0  0  0  0  0  0  0  0  0  0  0  0
   -8.2020   23.0920  -31.8310 C   0  0  0  0  0  0  0  0  0  0  0  0
   -3.1826   24.4309  -26.9717 H   0  0  0  0  0  0  0  0  0  0  0  0
   -4.8084   24.6171  -27.7125 H   0  0  0  0  0  0  0  0  0  0  0  0
   -3.9998   23.0131  -27.7125 H   0  0  0  0  0  0  0  0  0  0  0  0
   -1.3686   22.6882  -31.7088 H   0  0  0  0  0  0  0  0  0  0  0  0
   -1.7476   22.9482  -29.9650 H   0  0  0  0  0  0  0  0  0  0  0  0
    0.3137   19.6442  -30.9751 H   0  0  0  0  0  0  0  0  0  0  0  0
   -1.0742   19.6486  -32.1155 H   0  0  0  0  0  0  0  0  0  0  0  0
    0.0926   21.0144  -32.1155 H   0  0  0  0  0  0  0  0  0  0  0  0
    0.2030   18.9840  -29.3822 H   0  0  0  0  0  0  0  0  0  0  0  0
   -0.1763   17.9460  -27.1454 H   0  0  0  0  0  0  0  0  0  0  0  0
   -2.0528   18.7355  -25.6998 H   0  0  0  0  0  0  0  0  0  0  0  0
   -3.5583   20.5611  -26.4945 H   0  0  0  0  0  0  0  0  0  0  0  0
   -3.1822   21.6102  -28.7257 H   0  0  0  0  0  0  0  0  0  0  0  0
   -3.0004   20.1000  -31.9149 H   0  0  0  0  0  0  0  0  0  0  0  0
   -4.1533   19.4781  -34.3379 H   0  0  0  0  0  0  0  0  0  0  0  0
   -4.9687   17.3543  -35.3579 H   0  0  0  0  0  0  0  0  0  0  0  0
   -6.8272   16.0814  -34.2843 H   0  0  0  0  0  0  0  0  0  0  0  0
   -7.8870   16.9415  -32.1959 H   0  0  0  0  0  0  0  0  0  0  0  0
   -7.0820   19.0651  -31.1664 H   0  0  0  0  0  0  0  0  0  0  0  0
   -8.8879   22.5773  -31.1421 H   0  0  0  0  0  0  0  0  0  0  0  0
   -8.7722   23.7870  -32.4649 H   0  0  0  0  0  0  0  0  0  0  0  0
   -7.6940   22.3503  -32.4649 H   0  0  0  0  0  0  0  0  0  0  0  0
  1  2  1  0
  2  3  1  0
  3  4  2  0
  3  5  1  0
  5  6  2  0
  6  7  1  0
  7  8  1  0
  8  9  1  0
  8 10  1  0
 10 11  2  0
 11 12  1  0
 12 13  2  0
 13 14  1  0
 14 15  2  0
  6 16  1  0
 16 17  2  0
 17 18  1  0
 18 19  2  0
 19 20  1  0
 20 21  2  0
 21 22  1  0
 22 23  2  0
 17 24  1  0
 24 25  2  0
 25 26  1  0
 26 27  1  0
 25  5  1  0
 15 10  1  0
 23 18  1  0
  1 28  1  0
  1 29  1  0
  1 30  1  0
  7 31  1  0
  7 32  1  0
  9 33  1  0
  9 34  1  0
  9 35  1  0
 11 36  1  0
 12 37  1  0
 13 38  1  0
 14 39  1  0
 15 40  1  0
 16 41  1  0
 19 42  1  0
 20 43  1  0
 21 44  1  0
 22 45  1  0
 23 46  1  0
 27 47  1  0
 27 48  1  0
 27 49  1  0
M  END
>  <UniqueID>  (38) 
37

>  <SMILES>  (38) 
COC(=O)c1c(CN(C)c2ccccc2)cc(-c2ccccc2)nc1SC

>  <Energy>  (38) 
60.18925370109216

>  <Genealogy>  (38) 
COC(=O)c1c(CN(C)c2ccccc2)cc(-c2ccccc2)nc1SC (3D coordinates assigned)
COC(=O)c1c(CN(C)c2ccccc2)cc(-c2ccccc2)nc1SC (optimized conformer: 60.18925370109216 kcal/mol)

>  <smiles>  (38) 
COC(=O)c1c(CN(C)c2ccccc2)cc(-c2ccccc2)nc1SC

>  <score_type>  (38) 
oracle

>  <origin>  (38) 
adgpu

>  <m_score__min__energy>  (38) 
-8.8699999999999992

>  <m_primary>  (38) 
energy

$$$$
38:0
     RDKit          3D

 49 52  0  0  0  0  0  0  0  0999 V2000
   -8.3180   22.2340  -30.0010 C   0  0  0  0  0  0  0  0  0  0  0  0
   -7.2510   22.2130  -31.0010 N   0  0  0  0  0  0  0  0  0  0  0  0
   -7.0110   21.0260  -31.7740 C   0  0  0  0  0  0  0  0  0  0  0  0
   -8.0350   20.0880  -31.9690 C   0  0  0  0  0  0  0  0  0  0  0  0
   -7.8010   18.9350  -32.7210 C   0  0  0  0  0  0  0  0  0  0  0  0
   -6.5400   18.7030  -33.2760 C   0  0  0  0  0  0  0  0  0  0  0  0
   -5.4970   19.6220  -33.0760 C   0  0  0  0  0  0  0  0  0  0  0  0
   -4.1640   19.3770  -33.6740 C   0  0  0  0  0  0  0  0  0  0  0  0
   -4.0530   18.5230  -34.5950 O   0  0  0  0  0  0  0  0  0  0  0  0
   -2.9940   20.0910  -33.2300 N   0  0  0  0  0  0  0  0  0  0  0  0
   -1.9340   20.3970  -34.2030 C   0  0  0  0  0  0  0  0  0  0  0  0
   -0.9040   21.3690  -33.6150 C   0  0  0  0  0  0  0  0  0  0  0  0
   -0.3270   20.8610  -32.2820 C   0  0  0  0  0  0  0  0  0  0  0  0
   -1.3510   20.1110  -31.4040 C   0  0  0  0  0  0  0  0  0  0  0  0
   -2.7980   20.4070  -31.8070 C   0  0  0  0  0  0  0  0  0  0  0  0
   -5.7460   20.7900  -32.3360 C   0  0  0  0  0  0  0  0  0  0  0  0
   -6.2940   23.6420  -31.2570 S   0  0  0  0  0  0  0  0  0  0  0  0
   -5.9660   23.7980  -32.7160 O   0  0  0  0  0  0  0  0  0  0  0  0
   -7.0750   24.8400  -30.7950 O   0  0  0  0  0  0  0  0  0  0  0  0
   -4.7870   23.5000  -30.3590 C   0  0  0  0  0  0  0  0  0  0  0  0
   -4.4710   22.2800  -29.7130 C   0  0  0  0  0  0  0  0  0  0  0  0
   -3.2750   22.1460  -28.9840 C   0  0  0  0  0  0  0  0  0  0  0  0
   -2.4250   23.2460  -28.9260 C   0  0  0  0  0  0  0  0  0  0  0  0
   -1.2470   23.3410  -28.2920 N   0  0  0  0  0  0  0  0  0  0  0  0
   -0.8770   24.6160  -28.5740 C   0  0  0  0  0  0  0  0  0  0  0  0
    0.2010   25.1120  -28.1530 O   0  0  0  0  0  0  0  0  0  0  0  0
   -1.7490   25.3180  -29.3410 N   0  0  0  0  0  0  0  0  0  0  0  0
   -2.7240   24.4210  -29.5480 C   0  0  0  0  0  0  0  0  0  0  0  0
   -3.8970   24.5930  -30.2790 C   0  0  0  0  0  0  0  0  0  0  0  0
   -7.8765   22.2253  -28.9935 H   0  0  0  0  0  0  0  0  0  0  0  0
   -8.9223   23.1442  -30.1287 H   0  0  0  0  0  0  0  0  0  0  0  0
   -8.9577   21.3483  -30.1287 H   0  0  0  0  0  0  0  0  0  0  0  0
   -9.0274   20.2614  -31.5274 H   0  0  0  0  0  0  0  0  0  0  0  0
   -8.6114   18.2076  -32.8768 H   0  0  0  0  0  0  0  0  0  0  0  0
   -6.3632   17.7959  -33.8726 H   0  0  0  0  0  0  0  0  0  0  0  0
   -1.4257   19.4632  -34.4851 H   0  0  0  0  0  0  0  0  0  0  0  0
   -2.3952   20.8692  -35.0830 H   0  0  0  0  0  0  0  0  0  0  0  0
   -0.0809   21.4921  -34.3343 H   0  0  0  0  0  0  0  0  0  0  0  0
   -1.4111   22.3260  -33.4229 H   0  0  0  0  0  0  0  0  0  0  0  0
    0.5063   20.1778  -32.5030 H   0  0  0  0  0  0  0  0  0  0  0  0
   -0.0067   21.7468  -31.7139 H   0  0  0  0  0  0  0  0  0  0  0  0
   -1.1725   19.0298  -31.4995 H   0  0  0  0  0  0  0  0  0  0  0  0
   -1.2163   20.4535  -30.3674 H   0  0  0  0  0  0  0  0  0  0  0  0
   -3.4791   19.7929  -31.1995 H   0  0  0  0  0  0  0  0  0  0  0  0
   -3.0106   21.4731  -31.6393 H   0  0  0  0  0  0  0  0  0  0  0  0
   -4.9418   21.5272  -32.1954 H   0  0  0  0  0  0  0  0  0  0  0  0
   -5.1662   21.4303  -29.7817 H   0  0  0  0  0  0  0  0  0  0  0  0
   -3.0206   21.2035  -28.4771 H   0  0  0  0  0  0  0  0  0  0  0  0
   -4.1222   25.5477  -30.7769 H   0  0  0  0  0  0  0  0  0  0  0  0
  1  2  1  0
  2  3  1  0
  3  4  2  0
  4  5  1  0
  5  6  2  0
  6  7  1  0
  7  8  1  0
  8  9  2  0
  8 10  1  0
 10 11  1  0
 11 12  1  0
 12 13  1  0
 13 14  1  0
 14 15  1  0
  7 16  2  0
  2 17  1  0
 17 18  2  0
 17 19  2  0
 17 20  1  0
 20 21  2  0
 21 22  1  0
 22 23  2  0
 23 24  1  0
 24 25  1  0
 25 26  2  0
 25 27  1  0
 27 28  1  0
 28 29  2  0
 16  3  1  0
 29 20  1  0
 15 10  1  0
 28 23  1  0
  1 30  1  0
  1 31  1  0
  1 32  1  0
  4 33  1  0
  5 34  1  0
  6 35  1  0
 11 36  1  0
 11 37  1  0
 12 38  1  0
 12 39  1  0
 13 40  1  0
 13 41  1  0
 14 42  1  0
 14 43  1  0
 15 44  1  0
 15 45  1  0
 16 46  1  0
 21 47  1  0
 22 48  1  0
 29 49  1  0
M  CHG  2  24  -1  27  -1
M  END
>  <UniqueID>  (39) 
38

>  <SMILES>  (39) 
CN(c1cccc(C(=O)N2CCCCC2)c1)S(=O)(=O)c1ccc2[n-]c(=O)[n-]c2c1

>  <Energy>  (39) 
96.93557773517944

>  <Genealogy>  (39) 
CN(c1cccc(C(=O)N2CCCCC2)c1)S(=O)(=O)c1ccc2[n-]c(=O)[n-]c2c1 (protonated)
CN(c1cccc(C(=O)N2CCCCC2)c1)S(=O)(=O)c1ccc2[n-]c(=O)[n-]c2c1 (3D coordinates assigned)
CN(c1cccc(C(=O)N2CCCCC2)c1)S(=O)(=O)c1ccc2[n-]c(=O)[n-]c2c1 (nonaromatic ring conformer: 96.93557773517944 kcal/mol)

>  <smiles>  (39) 
CN(c1cccc(C(=O)N2CCCCC2)c1)S(=O)(=O)c1ccc2[nH]c(=O)[nH]c2c1

>  <score_type>  (39) 
oracle

>  <origin>  (39) 
adgpu

>  <m_score__min__energy>  (39) 
-11.359999999999999

>  <m_primary>  (39) 
energy

$$$$
39:0
     RDKit          3D

 78 81  0  0  0  0  0  0  0  0999 V2000
   -6.5280   24.1920  -31.9730 C   0  0  0  0  0  0  0  0  0  0  0  0
   -5.6920   23.0120  -31.5530 C   0  0  0  0  0  0  0  0  0  0  0  0
   -5.9530   21.7570  -32.1310 C   0  0  0  0  0  0  0  0  0  0  0  0
   -5.2040   20.6250  -31.7720 C   0  0  0  0  0  0  0  0  0  0  0  0
   -5.4810   19.3080  -32.3980 C   0  0  0  0  0  0  0  0  0  0  0  0
   -5.3830   19.1430  -33.7910 C   0  0  0  0  0  0  0  0  0  0  0  0
   -5.6370   17.9000  -34.3770 C   0  0  0  0  0  0  0  0  0  0  0  0
   -5.9950   16.8010  -33.5830 C   0  0  0  0  0  0  0  0  0  0  0  0
   -6.3040   15.4730  -34.2230 C   0  0  0  0  0  0  0  0  0  0  0  0
   -5.5510   14.3000  -33.5620 C   0  0  0  0  0  0  0  0  0  0  0  0
   -4.0940   14.2880  -33.8770 N   0  0  1  0  0  0  0  0  0  0  0  0
   -3.8340   14.4660  -35.3380 C   0  0  0  0  0  0  0  0  0  0  0  0
   -3.3850   15.8930  -35.6920 C   0  0  0  0  0  0  0  0  0  0  0  0
   -2.1490   16.2750  -34.9840 N   0  0  0  0  0  0  0  0  0  0  0  0
   -2.0070   15.6450  -33.6530 C   0  0  1  0  0  0  0  0  0  0  0  0
   -1.2010   16.5410  -32.7030 C   0  0  0  0  0  0  0  0  0  0  0  0
   -3.3790   15.2920  -33.0450 C   0  0  0  0  0  0  0  0  0  0  0  0
   -6.1020   16.9620  -32.1930 C   0  0  0  0  0  0  0  0  0  0  0  0
   -5.8440   18.2040  -31.6050 C   0  0  0  0  0  0  0  0  0  0  0  0
   -4.1880   20.7570  -30.8130 C   0  0  0  0  0  0  0  0  0  0  0  0
   -3.9280   21.9930  -30.2240 C   0  0  0  0  0  0  0  0  0  0  0  0
   -4.6760   23.1260  -30.5730 C   0  0  0  0  0  0  0  0  0  0  0  0
   -4.2680   24.6750  -29.8210 S   0  0  0  0  0  0  0  0  0  0  0  0
   -4.8210   25.8070  -30.6400 O   0  0  0  0  0  0  0  0  0  0  0  0
   -4.8600   24.7630  -28.4430 O   0  0  0  0  0  0  0  0  0  0  0  0
   -2.5500   24.8270  -29.7140 N   0  0  0  0  0  0  0  0  0  0  0  0
   -1.8040   23.9750  -28.8470 C   0  0  0  0  0  0  0  0  0  0  0  0
   -1.6810   24.0860  -27.4760 C   0  0  0  0  0  0  0  0  0  0  0  0
   -2.2470   25.1700  -26.6020 C   0  0  0  0  0  0  0  0  0  0  0  0
   -1.1680   26.0680  -25.9580 C   0  0  0  0  0  0  0  0  0  0  0  0
   -0.7520   27.2240  -26.8790 C   0  0  0  0  0  0  0  0  0  0  0  0
   -1.6000   26.5960  -24.5840 C   0  0  0  0  0  0  0  0  0  0  0  0
   -0.9230   23.0680  -27.0200 N   0  0  0  0  0  0  0  0  0  0  0  0
   -0.5770   22.3230  -28.0630 N   0  0  0  0  0  0  0  0  0  0  0  0
    0.2570   21.1320  -27.9590 C   0  0  0  0  0  0  0  0  0  0  0  0
   -1.0790   22.8570  -29.1980 C   0  0  0  0  0  0  0  0  0  0  0  0
   -0.9230   22.2800  -30.5710 C   0  0  0  0  0  0  0  0  0  0  0  0
   -6.8988   24.7153  -31.0793 H   0  0  0  0  0  0  0  0  0  0  0  0
   -5.9151   24.8805  -32.5732 H   0  0  0  0  0  0  0  0  0  0  0  0
   -7.3808   23.8421  -32.5732 H   0  0  0  0  0  0  0  0  0  0  0  0
   -6.7565   21.6606  -32.8760 H   0  0  0  0  0  0  0  0  0  0  0  0
   -5.1044   19.9984  -34.4240 H   0  0  0  0  0  0  0  0  0  0  0  0
   -5.5556   17.7830  -35.4677 H   0  0  0  0  0  0  0  0  0  0  0  0
   -7.3851   15.2869  -34.1415 H   0  0  0  0  0  0  0  0  0  0  0  0
   -5.9766   15.5271  -35.2718 H   0  0  0  0  0  0  0  0  0  0  0  0
   -5.6727   14.3762  -32.4714 H   0  0  0  0  0  0  0  0  0  0  0  0
   -5.9802   13.3689  -33.9606 H   0  0  0  0  0  0  0  0  0  0  0  0
   -3.7020   13.3550  -33.6050 H   0  0  0  0  0  0  0  0  0  0  0  0
   -3.0448   13.7631  -35.6430 H   0  0  0  0  0  0  0  0  0  0  0  0
   -4.7780   14.2738  -35.8689 H   0  0  0  0  0  0  0  0  0  0  0  0
   -3.2056   15.9503  -36.7758 H   0  0  0  0  0  0  0  0  0  0  0  0
   -4.1814   16.5861  -35.3833 H   0  0  0  0  0  0  0  0  0  0  0  0
   -2.1550   17.3190  -34.8940 H   0  0  0  0  0  0  0  0  0  0  0  0
   -1.4523   14.7050  -33.7900 H   0  0  0  0  0  0  0  0  0  0  0  0
   -1.4378   16.2778  -31.6615 H   0  0  0  0  0  0  0  0  0  0  0  0
   -0.1260   16.3931  -32.8832 H   0  0  0  0  0  0  0  0  0  0  0  0
   -1.4615   17.5944  -32.8832 H   0  0  0  0  0  0  0  0  0  0  0  0
   -3.2291   14.8804  -32.0360 H   0  0  0  0  0  0  0  0  0  0  0  0
   -3.9877   16.2074  -33.0042 H   0  0  0  0  0  0  0  0  0  0  0  0
   -6.3901   16.1073  -31.5633 H   0  0  0  0  0  0  0  0  0  0  0  0
   -5.9255   18.3189  -30.5140 H   0  0  0  0  0  0  0  0  0  0  0  0
   -3.5925   19.8784  -30.5241 H   0  0  0  0  0  0  0  0  0  0  0  0
   -3.1261   22.0806  -29.4762 H   0  0  0  0  0  0  0  0  0  0  0  0
   -2.9063   25.8025  -27.2146 H   0  0  0  0  0  0  0  0  0  0  0  0
   -2.7879   24.6752  -25.7819 H   0  0  0  0  0  0  0  0  0  0  0  0
   -0.2866   25.4273  -25.8075 H   0  0  0  0  0  0  0  0  0  0  0  0
   -0.4420   28.0854  -26.2691 H   0  0  0  0  0  0  0  0  0  0  0  0
    0.0871   26.9033  -27.5138 H   0  0  0  0  0  0  0  0  0  0  0  0
   -1.6031   27.5115  -27.5138 H   0  0  0  0  0  0  0  0  0  0  0  0
   -1.1150   26.0033  -23.7944 H   0  0  0  0  0  0  0  0  0  0  0  0
   -1.3022   27.6504  -24.4862 H   0  0  0  0  0  0  0  0  0  0  0  0
   -2.6925   26.5129  -24.4862 H   0  0  0  0  0  0  0  0  0  0  0  0
    0.4243   20.8930  -26.8984 H   0  0  0  0  0  0  0  0  0  0  0  0
   -0.2477   20.2869  -28.4501 H   0  0  0  0  0  0  0  0  0  0  0  0
    1.2237   21.3173  -28.4501 H   0  0  0  0  0  0  0  0  0  0  0  0
   -0.6366   21.2208  -30.4932 H   0  0  0  0  0  0  0  0  0  0  0  0
   -1.8759   22.3633  -31.1142 H   0  0  0  0  0  0  0  0  0  0  0  0
   -0.1419   22.8321  -31.1142 H   0  0  0  0  0  0  0  0  0  0  0  0
  1  2  1  0
  2  3  2  0
  3  4  1  0
  4  5  1  0
  5  6  2  0
  6  7  1  0
  7  8  2  0
  8  9  1  0
  9 10  1  0
 10 11  1  0
 11 12  1  0
 12 13  1  0
 13 14  1  0
 14 15  1  0
 15 16  1  0
 15 17  1  0
  8 18  1  0
 18 19  2  0
  4 20  2  0
 20 21  1  0
 21 22  2  0
 22 23  1  0
 23 24  2  0
 23 25  2  0
 23 26  1  0
 26 27  1  0
 27 28  1  0
 28 29  1  0
 29 30  1  0
 30 31  1  0
 30 32  1  0
 28 33  2  0
 33 34  1  0
 34 35  1  0
 34 36  1  0
 36 37  1  0
 22  2  1  0
 36 27  2  0
 19  5  1  0
 17 11  1  0
  1 38  1  0
  1 39  1  0
  1 40  1  0
  3 41  1  0
  6 42  1  0
  7 43  1  0
  9 44  1  0
  9 45  1  0
 10 46  1  0
 10 47  1  0
 11 48  1  1
 12 49  1  0
 12 50  1  0
 13 51  1  0
 13 52  1  0
 14 53  1  0
 15 54  1  6
 16 55  1  0
 16 56  1  0
 16 57  1  0
 17 58  1  0
 17 59  1  0
 18 60  1  0
 19 61  1  0
 20 62  1  0
 21 63  1  0
 29 64  1  0
 29 65  1  0
 30 66  1  0
 31 67  1  0
 31 68  1  0
 31 69  1  0
 32 70  1  0
 32 71  1  0
 32 72  1  0
 35 73  1  0
 35 74  1  0
 35 75  1  0
 37 76  1  0
 37 77  1  0
 37 78  1  0
M  CHG  2  11   1  26  -1
M  END
>  <UniqueID>  (40) 
39

>  <SMILES>  (40) 
Cc1cc(-c2ccc(CC[N@H+]3CCN[C@@H](C)C3)cc2)ccc1S(=O)(=O)[N-]c1c(CC(C)C)nn(C)c1C

>  <Energy>  (40) 
128.47976481389065

>  <Genealogy>  (40) 
Cc1cc(-c2ccc(CC[NH+]3CCNC(C)C3)cc2)ccc1S(=O)(=O)[N-]c1c(CC(C)C)nn(C)c1C (protonated)
Cc1cc(-c2ccc(CC[N@H+]3CCN[C@@H](C)C3)cc2)ccc1S(=O)(=O)[N-]c1c(CC(C)C)nn(C)c1C (chirality)
Cc1cc(-c2ccc(CC[N@H+]3CCN[C@@H](C)C3)cc2)ccc1S(=O)(=O)[N-]c1c(CC(C)C)nn(C)c1C (3D coordinates assigned)
Cc1cc(-c2ccc(CC[N@H+]3CCN[C@@H](C)C3)cc2)ccc1S(=O)(=O)[N-]c1c(CC(C)C)nn(C)c1C (nonaromatic ring conformer: 128.47976481389065 kcal/mol)

>  <smiles>  (40) 
Cc1cc(-c2ccc(CCN3CCNC(C)C3)cc2)ccc1S(=O)(=O)Nc1c(CC(C)C)nn(C)c1C

>  <score_type>  (40) 
oracle

>  <origin>  (40) 
adgpu

>  <m_score__min__energy>  (40) 
-10.91

>  <m_primary>  (40) 
energy

$$$$
40:0
     RDKit          3D

 51 54  0  0  0  0  0  0  0  0999 V2000
   -9.0010   18.5490  -31.6480 C   0  0  0  0  0  0  0  0  0  0  0  0
   -7.9220   19.6160  -31.8010 C   0  0  0  0  0  0  0  0  0  0  0  0
   -7.3180   19.5420  -33.0930 O   0  0  0  0  0  0  0  0  0  0  0  0
   -5.9380   19.4730  -33.3450 C   0  0  0  0  0  0  0  0  0  0  0  0
   -5.3500   18.4850  -34.1730 C   0  0  0  0  0  0  0  0  0  0  0  0
   -3.9580   18.4640  -34.3880 C   0  0  0  0  0  0  0  0  0  0  0  0
   -3.1320   19.4220  -33.7840 C   0  0  0  0  0  0  0  0  0  0  0  0
   -3.7250   20.3800  -32.9710 C   0  0  0  0  0  0  0  0  0  0  0  0
   -2.9940   21.6360  -32.1330 S   0  0  0  0  0  0  0  0  0  0  0  0
   -4.4800   22.1690  -31.5000 C   0  0  0  0  0  0  0  0  0  0  0  0
   -4.6600   23.2050  -30.7330 N   0  0  0  0  0  0  0  0  0  0  0  0
   -3.6480   24.0540  -30.1700 C   0  0  0  0  0  0  0  0  0  0  0  0
   -3.5680   25.2440  -30.5720 O   0  0  0  0  0  0  0  0  0  0  0  0
   -2.7220   23.5950  -29.1110 C   0  0  0  0  0  0  0  0  0  0  0  0
   -2.7930   22.2580  -28.6860 C   0  0  0  0  0  0  0  0  0  0  0  0
   -1.9690   21.7900  -27.6560 C   0  0  0  0  0  0  0  0  0  0  0  0
   -2.0790   20.1110  -27.1210 S   0  0  0  0  0  0  0  0  0  0  0  0
   -1.5140   19.9980  -25.7330 O   0  0  0  0  0  0  0  0  0  0  0  0
   -3.5240   19.7000  -27.0700 O   0  0  0  0  0  0  0  0  0  0  0  0
   -1.2090   19.0330  -28.1860 N   0  0  0  0  0  0  0  0  0  0  0  0
   -0.1160   18.3660  -27.4640 C   0  0  0  0  0  0  0  0  0  0  0  0
    0.6290   17.4030  -28.4130 C   0  0  0  0  0  0  0  0  0  0  0  0
    0.1930   17.5270  -29.7550 O   0  0  0  0  0  0  0  0  0  0  0  0
    0.2780   18.8790  -30.1650 C   0  0  0  0  0  0  0  0  0  0  0  0
   -0.6770   19.7700  -29.3440 C   0  0  0  0  0  0  0  0  0  0  0  0
   -1.0620   22.6630  -27.0460 C   0  0  0  0  0  0  0  0  0  0  0  0
   -0.9650   23.9880  -27.4750 C   0  0  0  0  0  0  0  0  0  0  0  0
   -1.7730   24.4600  -28.5140 C   0  0  0  0  0  0  0  0  0  0  0  0
   -1.5960   25.7780  -28.9410 O   0  0  0  0  0  0  0  0  0  0  0  0
   -5.5190   21.4150  -31.9330 N   0  0  0  0  0  0  0  0  0  0  0  0
   -5.0940   20.4160  -32.7480 C   0  0  0  0  0  0  0  0  0  0  0  0
   -9.1864   18.3656  -30.5794 H   0  0  0  0  0  0  0  0  0  0  0  0
   -9.9289   18.8945  -32.1271 H   0  0  0  0  0  0  0  0  0  0  0  0
   -8.6659   17.6173  -32.1271 H   0  0  0  0  0  0  0  0  0  0  0  0
   -8.3758   20.6096  -31.6710 H   0  0  0  0  0  0  0  0  0  0  0  0
   -7.1474   19.4473  -31.0385 H   0  0  0  0  0  0  0  0  0  0  0  0
   -5.9867   17.7270  -34.6526 H   0  0  0  0  0  0  0  0  0  0  0  0
   -3.5164   17.6909  -35.0340 H   0  0  0  0  0  0  0  0  0  0  0  0
   -2.0445   19.4155  -33.9491 H   0  0  0  0  0  0  0  0  0  0  0  0
   -3.5042   21.5711  -29.1681 H   0  0  0  0  0  0  0  0  0  0  0  0
    0.5873   19.1229  -27.0865 H   0  0  0  0  0  0  0  0  0  0  0  0
   -0.5336   17.7943  -26.6222 H   0  0  0  0  0  0  0  0  0  0  0  0
    1.7055   17.6250  -28.3688 H   0  0  0  0  0  0  0  0  0  0  0  0
    0.4172   16.3750  -28.0838 H   0  0  0  0  0  0  0  0  0  0  0  0
    1.3099   19.2330  -30.0237 H   0  0  0  0  0  0  0  0  0  0  0  0
   -0.0108   18.9413  -31.2246 H   0  0  0  0  0  0  0  0  0  0  0  0
   -0.1289   20.6549  -28.9882 H   0  0  0  0  0  0  0  0  0  0  0  0
   -1.5168   20.0741  -29.9861 H   0  0  0  0  0  0  0  0  0  0  0  0
   -0.4231   22.3043  -26.2256 H   0  0  0  0  0  0  0  0  0  0  0  0
   -0.2468   24.6665  -26.9915 H   0  0  0  0  0  0  0  0  0  0  0  0
   -1.6140   26.0500  -29.9140 H   0  0  0  0  0  0  0  0  0  0  0  0
  1  2  1  0
  2  3  1  0
  3  4  1  0
  4  5  2  0
  5  6  1  0
  6  7  2  0
  7  8  1  0
  8  9  1  0
  9 10  1  0
 10 11  2  3
 11 12  1  0
 12 13  2  0
 12 14  1  0
 14 15  2  0
 15 16  1  0
 16 17  1  0
 17 18  2  0
 17 19  2  0
 17 20  1  0
 20 21  1  0
 21 22  1  0
 22 23  1  0
 23 24  1  0
 24 25  1  0
 16 26  2  0
 26 27  1  0
 27 28  2  0
 28 29  1  0
 10 30  1  0
 30 31  1  0
 31  4  1  0
 31  8  2  0
 28 14  1  0
 25 20  1  0
  1 32  1  0
  1 33  1  0
  1 34  1  0
  2 35  1  0
  2 36  1  0
  5 37  1  0
  6 38  1  0
  7 39  1  0
 15 40  1  0
 21 41  1  0
 21 42  1  0
 22 43  1  0
 22 44  1  0
 24 45  1  0
 24 46  1  0
 25 47  1  0
 25 48  1  0
 26 49  1  0
 27 50  1  0
 29 51  1  0
M  CHG  1  30  -1
M  END
>  <UniqueID>  (41) 
40

>  <SMILES>  (41) 
CCOc1cccc2sc(=NC(=O)c3cc(S(=O)(=O)N4CCOCC4)ccc3O)[n-]c12

>  <Energy>  (41) 
104.94984487666503

>  <Genealogy>  (41) 
CCOc1cccc2sc(=NC(=O)c3cc(S(=O)(=O)N4CCOCC4)ccc3O)[n-]c12 (protonated)
CCOc1cccc2sc(=NC(=O)c3cc(S(=O)(=O)N4CCOCC4)ccc3O)[n-]c12 (3D coordinates assigned)
CCOc1cccc2sc(=NC(=O)c3cc(S(=O)(=O)N4CCOCC4)ccc3O)[n-]c12 (nonaromatic ring conformer: 104.94984487666503 kcal/mol)

>  <smiles>  (41) 
CCOc1cccc2sc(=NC(=O)c3cc(S(=O)(=O)N4CCOCC4)ccc3O)[nH]c12

>  <score_type>  (41) 
oracle

>  <origin>  (41) 
adgpu

>  <m_score__min__energy>  (41) 
-11.460000000000001

>  <m_primary>  (41) 
energy

$$$$
41:0
     RDKit          3D

 63 66  0  0  0  0  0  0  0  0999 V2000
   -0.8750   27.3740  -24.2290 C   0  0  0  0  0  0  0  0  0  0  0  0
   -1.1330   26.6630  -25.5230 C   0  0  0  0  0  0  0  0  0  0  0  0
   -2.1090   25.6570  -25.5930 C   0  0  0  0  0  0  0  0  0  0  0  0
   -2.3680   25.0070  -26.8040 C   0  0  0  0  0  0  0  0  0  0  0  0
   -1.6460   25.3510  -27.9640 C   0  0  0  0  0  0  0  0  0  0  0  0
   -1.8890   24.7260  -29.2350 N   0  0  0  0  0  0  0  0  0  0  0  0
   -1.2970   23.5180  -29.7350 C   0  0  0  0  0  0  0  0  0  0  0  0
   -0.1300   23.1830  -29.3940 O   0  0  0  0  0  0  0  0  0  0  0  0
   -2.1040   22.6360  -30.6500 C   0  0  1  0  0  0  0  0  0  0  0  0
   -1.2260   21.6440  -31.4340 C   0  0  0  0  0  0  0  0  0  0  0  0
   -2.0710   20.7870  -32.4070 C   0  0  0  0  0  0  0  0  0  0  0  0
   -3.5060   20.7280  -32.0380 N   0  0  1  0  0  0  0  0  0  0  0  0
   -4.2760   19.3750  -32.8290 S   0  0  0  0  0  0  0  0  0  0  0  0
   -3.6200   18.0940  -32.3910 O   0  0  0  0  0  0  0  0  0  0  0  0
   -4.1290   19.4970  -34.3230 O   0  0  0  0  0  0  0  0  0  0  0  0
   -5.9850   19.3100  -32.4080 C   0  0  0  0  0  0  0  0  0  0  0  0
   -6.6690   18.0850  -32.4350 C   0  0  0  0  0  0  0  0  0  0  0  0
   -8.0300   18.0320  -32.1170 C   0  0  0  0  0  0  0  0  0  0  0  0
   -8.7140   19.2000  -31.7680 C   0  0  0  0  0  0  0  0  0  0  0  0
   -8.0370   20.4280  -31.7280 C   0  0  0  0  0  0  0  0  0  0  0  0
   -8.8900   21.9010  -31.2730 S   0  0  0  0  0  0  0  0  0  0  0  0
   -9.7170   22.3600  -32.4420 O   0  0  0  0  0  0  0  0  0  0  0  0
   -9.8150   21.6200  -30.1190 O   0  0  0  0  0  0  0  0  0  0  0  0
   -7.7370   23.1400  -30.8380 N   0  0  0  0  0  0  0  0  0  0  0  0
   -6.8930   23.4680  -31.9980 C   0  0  0  0  0  0  0  0  0  0  0  0
   -5.8320   24.5190  -31.6060 C   0  0  0  0  0  0  0  0  0  0  0  0
   -5.8760   24.8320  -30.2230 O   0  0  0  0  0  0  0  0  0  0  0  0
   -5.7380   23.6480  -29.4590 C   0  0  0  0  0  0  0  0  0  0  0  0
   -6.8980   22.6670  -29.7240 C   0  0  0  0  0  0  0  0  0  0  0  0
   -6.6700   20.4780  -32.0400 C   0  0  0  0  0  0  0  0  0  0  0  0
   -3.6880   20.6160  -30.5790 C   0  0  0  0  0  0  0  0  0  0  0  0
   -3.1850   21.8810  -29.8490 C   0  0  0  0  0  0  0  0  0  0  0  0
   -0.7070   26.3900  -27.8980 C   0  0  0  0  0  0  0  0  0  0  0  0
   -0.4500   27.0420  -26.6880 C   0  0  0  0  0  0  0  0  0  0  0  0
   -1.1173   26.7063  -23.3891 H   0  0  0  0  0  0  0  0  0  0  0  0
    0.1851   27.6624  -24.1741 H   0  0  0  0  0  0  0  0  0  0  0  0
   -1.5035   28.2751  -24.1741 H   0  0  0  0  0  0  0  0  0  0  0  0
   -2.6732   25.3783  -24.6908 H   0  0  0  0  0  0  0  0  0  0  0  0
   -3.1388   24.2237  -26.8510 H   0  0  0  0  0  0  0  0  0  0  0  0
   -2.5891   23.2911  -31.3885 H   0  0  0  0  0  0  0  0  0  0  0  0
   -0.7154   20.9785  -30.7224 H   0  0  0  0  0  0  0  0  0  0  0  0
   -0.4969   22.2190  -32.0238 H   0  0  0  0  0  0  0  0  0  0  0  0
   -1.6686   19.7632  -32.4108 H   0  0  0  0  0  0  0  0  0  0  0  0
   -2.0076   21.2596  -33.3983 H   0  0  0  0  0  0  0  0  0  0  0  0
   -3.9870   21.5930  -32.3790 H   0  0  0  0  0  0  0  0  0  0  0  0
   -6.1332   17.1637  -32.7071 H   0  0  0  0  0  0  0  0  0  0  0  0
   -8.5628   17.0700  -32.1416 H   0  0  0  0  0  0  0  0  0  0  0  0
   -9.7857   19.1561  -31.5241 H   0  0  0  0  0  0  0  0  0  0  0  0
   -6.3883   22.5560  -32.3495 H   0  0  0  0  0  0  0  0  0  0  0  0
   -7.5266   23.8790  -32.7978 H   0  0  0  0  0  0  0  0  0  0  0  0
   -4.8346   24.1236  -31.8486 H   0  0  0  0  0  0  0  0  0  0  0  0
   -6.0439   25.4402  -32.1686 H   0  0  0  0  0  0  0  0  0  0  0  0
   -4.7889   23.1596  -29.7247 H   0  0  0  0  0  0  0  0  0  0  0  0
   -5.7527   23.9207  -28.3934 H   0  0  0  0  0  0  0  0  0  0  0  0
   -6.4848   21.6796  -29.9774 H   0  0  0  0  0  0  0  0  0  0  0  0
   -7.5184   22.6007  -28.8181 H   0  0  0  0  0  0  0  0  0  0  0  0
   -6.1329   21.4370  -31.9959 H   0  0  0  0  0  0  0  0  0  0  0  0
   -3.1247   19.7445  -30.2140 H   0  0  0  0  0  0  0  0  0  0  0  0
   -4.7623   20.5013  -30.3721 H   0  0  0  0  0  0  0  0  0  0  0  0
   -2.7611   21.5830  -28.8787 H   0  0  0  0  0  0  0  0  0  0  0  0
   -4.0428   22.5584  -29.7253 H   0  0  0  0  0  0  0  0  0  0  0  0
   -0.1673   26.6952  -28.8067 H   0  0  0  0  0  0  0  0  0  0  0  0
    0.2902   27.8548  -26.6497 H   0  0  0  0  0  0  0  0  0  0  0  0
  1  2  1  0
  2  3  2  0
  3  4  1  0
  4  5  2  0
  5  6  1  0
  6  7  1  0
  7  8  2  0
  7  9  1  0
  9 10  1  0
 10 11  1  0
 11 12  1  0
 12 13  1  0
 13 14  2  0
 13 15  2  0
 13 16  1  0
 16 17  2  0
 17 18  1  0
 18 19  2  0
 19 20  1  0
 20 21  1  0
 21 22  2  0
 21 23  2  0
 21 24  1  0
 24 25  1  0
 25 26  1  0
 26 27  1  0
 27 28  1  0
 28 29  1  0
 20 30  2  0
 12 31  1  0
 31 32  1  0
  5 33  1  0
 33 34  2  0
 34  2  1  0
 32  9  1  0
 30 16  1  0
 29 24  1  0
  1 35  1  0
  1 36  1  0
  1 37  1  0
  3 38  1  0
  4 39  1  0
  9 40  1  6
 10 41  1  0
 10 42  1  0
 11 43  1  0
 11 44  1  0
 12 45  1  6
 17 46  1  0
 18 47  1  0
 19 48  1  0
 25 49  1  0
 25 50  1  0
 26 51  1  0
 26 52  1  0
 28 53  1  0
 28 54  1  0
 29 55  1  0
 29 56  1  0
 30 57  1  0
 31 58  1  0
 31 59  1  0
 32 60  1  0
 32 61  1  0
 33 62  1  0
 34 63  1  0
M  CHG  2   6  -1  12   1
M  END
>  <UniqueID>  (42) 
41

>  <SMILES>  (42) 
Cc1ccc([N-]C(=O)C2CC[NH+](S(=O)(=O)c3cccc(S(=O)(=O)N4CCOCC4)c3)CC2)cc1

>  <Energy>  (42) 
78.3686322988845

>  <Genealogy>  (42) 
Cc1ccc([N-]C(=O)C2CC[NH+](S(=O)(=O)c3cccc(S(=O)(=O)N4CCOCC4)c3)CC2)cc1 (protonated)
Cc1ccc([N-]C(=O)C2CC[NH+](S(=O)(=O)c3cccc(S(=O)(=O)N4CCOCC4)c3)CC2)cc1 (3D coordinates assigned)
Cc1ccc([N-]C(=O)C2CC[NH+](S(=O)(=O)c3cccc(S(=O)(=O)N4CCOCC4)c3)CC2)cc1 (nonaromatic ring conformer: 78.3686322988845 kcal/mol)

>  <smiles>  (42) 
Cc1ccc(NC(=O)C2CCN(S(=O)(=O)c3cccc(S(=O)(=O)N4CCOCC4)c3)CC2)cc1

>  <score_type>  (42) 
oracle

>  <origin>  (42) 
adgpu

>  <m_score__min__energy>  (42) 
-11.550000000000001

>  <m_primary>  (42) 
energy

$$$$
42:0
     RDKit          3D

 56 58  0  0  0  0  0  0  0  0999 V2000
   -9.5200   22.5170  -31.9860 C   0  0  0  0  0  0  0  0  0  0  0  0
   -8.0610   22.5780  -31.6150 C   0  0  0  0  0  0  0  0  0  0  0  0
   -7.5330   23.8170  -31.2190 C   0  0  0  0  0  0  0  0  0  0  0  0
   -6.1970   23.9390  -30.8510 C   0  0  0  0  0  0  0  0  0  0  0  0
   -5.3500   22.8250  -30.8700 C   0  0  0  0  0  0  0  0  0  0  0  0
   -3.9720   22.9430  -30.4710 N   0  0  0  0  0  0  0  0  0  0  0  0
   -3.3520   24.1870  -30.1060 C   0  0  0  0  0  0  0  0  0  0  0  0
   -3.8580   25.2800  -30.4760 O   0  0  0  0  0  0  0  0  0  0  0  0
   -2.1030   24.2060  -29.4050 N   0  0  0  0  0  0  0  0  0  0  0  0
   -1.8070   24.9790  -28.2350 C   0  0  0  0  0  0  0  0  0  0  0  0
   -2.4050   24.6340  -27.0190 C   0  0  0  0  0  0  0  0  0  0  0  0
   -2.1110   25.3570  -25.8620 C   0  0  0  0  0  0  0  0  0  0  0  0
   -1.2020   26.4180  -25.9290 C   0  0  0  0  0  0  0  0  0  0  0  0
   -0.8080   27.3410  -24.4900 S   0  0  0  0  0  0  0  0  0  0  0  0
    0.9370   27.2260  -24.1640 C   0  0  0  0  0  0  0  0  0  0  0  0
   -1.5840   26.8050  -23.3200 O   0  0  0  0  0  0  0  0  0  0  0  0
   -1.1760   28.7830  -24.7010 O   0  0  0  0  0  0  0  0  0  0  0  0
   -0.6060   26.7230  -27.1130 N   0  0  0  0  0  0  0  0  0  0  0  0
   -0.8780   26.0340  -28.2530 C   0  0  0  0  0  0  0  0  0  0  0  0
   -5.8700   21.5700  -31.2300 C   0  0  0  0  0  0  0  0  0  0  0  0
   -5.0200   20.4680  -31.2330 O   0  0  0  0  0  0  0  0  0  0  0  0
   -7.2280   21.4270  -31.5970 C   0  0  0  0  0  0  0  0  0  0  0  0
   -7.8480   19.8230  -32.0670 S   0  0  0  0  0  0  0  0  0  0  0  0
   -8.4750   19.1330  -30.8860 O   0  0  0  0  0  0  0  0  0  0  0  0
   -8.9100   19.9700  -33.1210 O   0  0  0  0  0  0  0  0  0  0  0  0
   -6.5060   18.8110  -32.7010 C   0  0  0  0  0  0  0  0  0  0  0  0
   -6.0660   19.3000  -34.0840 C   0  0  0  0  0  0  0  0  0  0  0  0
   -4.8520   18.4910  -34.5860 C   0  0  0  0  0  0  0  0  0  0  0  0
   -4.9050   17.0430  -34.2520 N   0  0  0  0  0  0  0  0  0  0  0  0
   -3.9160   16.6640  -33.2280 C   0  0  0  0  0  0  0  0  0  0  0  0
   -6.2590   16.5560  -33.9200 C   0  0  0  0  0  0  0  0  0  0  0  0
   -6.9010   17.3180  -32.7420 C   0  0  0  0  0  0  0  0  0  0  0  0
  -10.1302   22.4915  -31.0711 H   0  0  0  0  0  0  0  0  0  0  0  0
   -9.7850   23.4049  -32.5789 H   0  0  0  0  0  0  0  0  0  0  0  0
   -9.7100   21.6101  -32.5789 H   0  0  0  0  0  0  0  0  0  0  0  0
   -8.1844   24.7032  -31.1994 H   0  0  0  0  0  0  0  0  0  0  0  0
   -5.8032   24.9187  -30.5427 H   0  0  0  0  0  0  0  0  0  0  0  0
   -3.3620   22.0960  -30.5240 H   0  0  0  0  0  0  0  0  0  0  0  0
   -3.1093   23.7902  -26.9742 H   0  0  0  0  0  0  0  0  0  0  0  0
   -2.5894   25.0950  -24.9068 H   0  0  0  0  0  0  0  0  0  0  0  0
    1.1070   27.2148  -23.0773 H   0  0  0  0  0  0  0  0  0  0  0  0
    1.3324   26.2998  -24.6066 H   0  0  0  0  0  0  0  0  0  0  0  0
    1.4506   28.0922  -24.6066 H   0  0  0  0  0  0  0  0  0  0  0  0
   -0.3703   26.3025  -29.1911 H   0  0  0  0  0  0  0  0  0  0  0  0
   -5.6531   18.9108  -32.0135 H   0  0  0  0  0  0  0  0  0  0  0  0
   -6.8990   19.1786  -34.7921 H   0  0  0  0  0  0  0  0  0  0  0  0
   -5.7798   20.3596  -34.0106 H   0  0  0  0  0  0  0  0  0  0  0  0
   -4.7992   18.5911  -35.6802 H   0  0  0  0  0  0  0  0  0  0  0  0
   -3.9667   18.9007  -34.0777 H   0  0  0  0  0  0  0  0  0  0  0  0
   -4.3430   16.8276  -32.2275 H   0  0  0  0  0  0  0  0  0  0  0  0
   -3.6547   15.6020  -33.3459 H   0  0  0  0  0  0  0  0  0  0  0  0
   -3.0119   17.2794  -33.3459 H   0  0  0  0  0  0  0  0  0  0  0  0
   -6.9010   16.6739  -34.8054 H   0  0  0  0  0  0  0  0  0  0  0  0
   -6.1653   15.5023  -33.6186 H   0  0  0  0  0  0  0  0  0  0  0  0
   -7.9949   17.2473  -32.8335 H   0  0  0  0  0  0  0  0  0  0  0  0
   -6.5356   16.8556  -31.8132 H   0  0  0  0  0  0  0  0  0  0  0  0
  1  2  1  0
  2  3  2  0
  3  4  1  0
  4  5  2  0
  5  6  1  0
  6  7  1  0
  7  8  2  0
  7  9  1  0
  9 10  1  0
 10 11  2  0
 11 12  1  0
 12 13  2  0
 13 14  1  0
 14 15  1  0
 14 16  2  0
 14 17  2  0
 13 18  1  0
 18 19  2  0
  5 20  1  0
 20 21  1  0
 20 22  2  0
 22 23  1  0
 23 24  2  0
 23 25  2  0
 23 26  1  0
 26 27  1  0
 27 28  1  0
 28 29  1  0
 29 30  1  0
 29 31  1  0
 31 32  1  0
 22  2  1  0
 32 26  1  0
 19 10  1  0
  1 33  1  0
  1 34  1  0
  1 35  1  0
  3 36  1  0
  4 37  1  0
  6 38  1  0
 11 39  1  0
 12 40  1  0
 15 41  1  0
 15 42  1  0
 15 43  1  0
 19 44  1  0
 26 45  1  0
 27 46  1  0
 27 47  1  0
 28 48  1  0
 28 49  1  0
 30 50  1  0
 30 51  1  0
 30 52  1  0
 31 53  1  0
 31 54  1  0
 32 55  1  0
 32 56  1  0
M  CHG  2   9  -1  21  -1
M  END
>  <UniqueID>  (43) 
42

>  <SMILES>  (43) 
Cc1ccc(NC(=O)[N-]c2ccc(S(C)(=O)=O)nc2)c([O-])c1S(=O)(=O)C1CCN(C)CC1

>  <Energy>  (43) 
71.2464645984148

>  <Genealogy>  (43) 
Cc1ccc(NC(=O)[N-]c2ccc(S(C)(=O)=O)nc2)c([O-])c1S(=O)(=O)C1CCN(C)CC1 (protonated)
Cc1ccc(NC(=O)[N-]c2ccc(S(C)(=O)=O)nc2)c([O-])c1S(=O)(=O)C1CCN(C)CC1 (3D coordinates assigned)
Cc1ccc(NC(=O)[N-]c2ccc(S(C)(=O)=O)nc2)c([O-])c1S(=O)(=O)C1CCN(C)CC1 (nonaromatic ring conformer: 71.2464645984148 kcal/mol)

>  <smiles>  (43) 
Cc1ccc(NC(=O)Nc2ccc(S(C)(=O)=O)nc2)c(O)c1S(=O)(=O)C1CCN(C)CC1

>  <score_type>  (43) 
oracle

>  <origin>  (43) 
adgpu

>  <m_score__min__energy>  (43) 
-12.85

>  <m_primary>  (43) 
energy

$$$$
43:0
     RDKit          3D

 42 44  0  0  0  0  0  0  0  0999 V2000
   -7.9870   21.2980  -30.5990 O   0  0  0  0  0  0  0  0  0  0  0  0
   -7.4520   22.1790  -31.6910 S   0  0  0  0  0  0  0  0  0  0  0  0
   -8.5460   23.1310  -32.0890 O   0  0  0  0  0  0  0  0  0  0  0  0
   -7.0210   21.2520  -33.0950 N   0  0  0  0  0  0  0  0  0  0  0  0
   -6.8050   19.8340  -33.1870 C   0  0  0  0  0  0  0  0  0  0  0  0
   -5.6460   19.2780  -33.7620 C   0  0  0  0  0  0  0  0  0  0  0  0
   -5.4820   17.8910  -33.8190 C   0  0  0  0  0  0  0  0  0  0  0  0
   -6.4670   17.0450  -33.3070 C   0  0  0  0  0  0  0  0  0  0  0  0
   -7.6180   17.5850  -32.7320 C   0  0  0  0  0  0  0  0  0  0  0  0
   -7.7900   18.9750  -32.6680 C   0  0  0  0  0  0  0  0  0  0  0  0
   -8.9390   19.5120  -32.0910 O   0  0  0  0  0  0  0  0  0  0  0  0
   -6.0570   23.0960  -31.1150 C   0  0  0  0  0  0  0  0  0  0  0  0
   -6.1290   24.4880  -30.9890 C   0  0  0  0  0  0  0  0  0  0  0  0
   -5.0250   25.2090  -30.5330 C   0  0  0  0  0  0  0  0  0  0  0  0
   -3.8410   24.5500  -30.1930 C   0  0  0  0  0  0  0  0  0  0  0  0
   -2.7580   25.2940  -29.7370 O   0  0  0  0  0  0  0  0  0  0  0  0
   -3.7500   23.1490  -30.3110 C   0  0  0  0  0  0  0  0  0  0  0  0
   -2.5250   22.4780  -29.9450 N   0  0  0  0  0  0  0  0  0  0  0  0
   -2.2760   21.0470  -30.1310 C   0  0  0  0  0  0  0  0  0  0  0  0
   -2.0500   20.7200  -31.5850 C   0  0  0  0  0  0  0  0  0  0  0  0
   -1.3210   21.5990  -32.4020 C   0  0  0  0  0  0  0  0  0  0  0  0
   -1.1090   21.2960  -33.7500 C   0  0  0  0  0  0  0  0  0  0  0  0
   -1.6080   20.1080  -34.2890 C   0  0  0  0  0  0  0  0  0  0  0  0
   -2.3150   19.2150  -33.4760 C   0  0  0  0  0  0  0  0  0  0  0  0
   -2.5300   19.5150  -32.1280 C   0  0  0  0  0  0  0  0  0  0  0  0
   -4.8680   22.4320  -30.7820 C   0  0  0  0  0  0  0  0  0  0  0  0
   -4.8658   19.9385  -34.1683 H   0  0  0  0  0  0  0  0  0  0  0  0
   -4.5733   17.4647  -34.2690 H   0  0  0  0  0  0  0  0  0  0  0  0
   -6.3361   15.9539  -33.3567 H   0  0  0  0  0  0  0  0  0  0  0  0
   -8.3933   16.9177  -32.3274 H   0  0  0  0  0  0  0  0  0  0  0  0
   -9.0630   20.5120  -31.9850 H   0  0  0  0  0  0  0  0  0  0  0  0
   -7.0585   25.0150  -31.2502 H   0  0  0  0  0  0  0  0  0  0  0  0
   -5.0872   26.3033  -30.4406 H   0  0  0  0  0  0  0  0  0  0  0  0
   -1.7620   23.0300  -29.4900 H   0  0  0  0  0  0  0  0  0  0  0  0
   -1.3838   20.7598  -29.5553 H   0  0  0  0  0  0  0  0  0  0  0  0
   -3.1578   20.4905  -29.7807 H   0  0  0  0  0  0  0  0  0  0  0  0
   -0.9150   22.5299  -31.9795 H   0  0  0  0  0  0  0  0  0  0  0  0
   -0.5479   21.9948  -34.3878 H   0  0  0  0  0  0  0  0  0  0  0  0
   -1.4454   19.8746  -35.3516 H   0  0  0  0  0  0  0  0  0  0  0  0
   -2.7020   18.2759  -33.8983 H   0  0  0  0  0  0  0  0  0  0  0  0
   -3.0768   18.8057  -31.4893 H   0  0  0  0  0  0  0  0  0  0  0  0
   -4.8071   21.3390  -30.8896 H   0  0  0  0  0  0  0  0  0  0  0  0
  1  2  2  0
  2  3  2  0
  2  4  1  0
  4  5  1  0
  5  6  2  0
  6  7  1  0
  7  8  2  0
  8  9  1  0
  9 10  2  0
 10 11  1  0
  2 12  1  0
 12 13  2  0
 13 14  1  0
 14 15  2  0
 15 16  1  0
 15 17  1  0
 17 18  1  0
 18 19  1  0
 19 20  1  0
 20 21  2  0
 21 22  1  0
 22 23  2  0
 23 24  1  0
 24 25  2  0
 17 26  2  0
 10  5  1  0
 26 12  1  0
 25 20  1  0
  6 27  1  0
  7 28  1  0
  8 29  1  0
  9 30  1  0
 11 31  1  0
 13 32  1  0
 14 33  1  0
 18 34  1  0
 19 35  1  0
 19 36  1  0
 21 37  1  0
 22 38  1  0
 23 39  1  0
 24 40  1  0
 25 41  1  0
 26 42  1  0
M  CHG  2   4  -1  16  -1
M  END
>  <UniqueID>  (44) 
43

>  <SMILES>  (44) 
O=S(=O)([N-]c1ccccc1O)c1ccc([O-])c(NCc2ccccc2)c1

>  <Energy>  (44) 
48.59738831244504

>  <Genealogy>  (44) 
O=S(=O)([N-]c1ccccc1O)c1ccc([O-])c(NCc2ccccc2)c1 (protonated)
O=S(=O)([N-]c1ccccc1O)c1ccc([O-])c(NCc2ccccc2)c1 (3D coordinates assigned)
O=S(=O)([N-]c1ccccc1O)c1ccc([O-])c(NCc2ccccc2)c1 (optimized conformer: 48.59738831244504 kcal/mol)

>  <smiles>  (44) 
O=S(=O)(Nc1ccccc1O)c1ccc(O)c(NCc2ccccc2)c1

>  <score_type>  (44) 
oracle

>  <origin>  (44) 
adgpu

>  <m_score__min__energy>  (44) 
-10.779999999999999

>  <m_primary>  (44) 
energy

$$$$
44:0
     RDKit          3D

 43 45  0  0  0  0  0  0  0  0999 V2000
   -5.7300   26.5200  -30.2110 O   0  0  0  0  0  0  0  0  0  0  0  0
   -5.2060   25.4110  -30.5020 C   0  0  0  0  0  0  0  0  0  0  0  0
   -3.7770   25.2960  -30.4640 N   0  0  0  0  0  0  0  0  0  0  0  0
   -3.0270   24.2870  -29.7740 C   0  0  0  0  0  0  0  0  0  0  0  0
   -2.9040   23.0170  -30.3480 C   0  0  0  0  0  0  0  0  0  0  0  0
   -2.1910   22.0160  -29.6850 C   0  0  0  0  0  0  0  0  0  0  0  0
   -1.6220   22.2920  -28.4400 C   0  0  0  0  0  0  0  0  0  0  0  0
   -1.7700   23.5230  -27.8820 N   0  0  0  0  0  0  0  0  0  0  0  0
   -2.4560   24.5160  -28.5110 C   0  0  0  0  0  0  0  0  0  0  0  0
   -6.0800   24.2560  -30.8180 C   0  0  0  0  0  0  0  0  0  0  0  0
   -6.5500   24.0650  -32.1290 C   0  0  0  0  0  0  0  0  0  0  0  0
   -7.3770   22.9800  -32.4340 C   0  0  0  0  0  0  0  0  0  0  0  0
   -7.7520   22.0760  -31.4320 C   0  0  0  0  0  0  0  0  0  0  0  0
   -8.8170   20.7210  -31.8000 S   0  0  0  0  0  0  0  0  0  0  0  0
  -10.1090   21.2590  -32.3490 O   0  0  0  0  0  0  0  0  0  0  0  0
   -9.1160   19.9510  -30.5420 O   0  0  0  0  0  0  0  0  0  0  0  0
   -8.0640   19.6720  -32.9790 N   0  0  0  0  0  0  0  0  0  0  0  0
   -6.7060   20.1770  -33.3020 C   0  0  0  0  0  0  0  0  0  0  0  0
   -5.8300   19.0830  -33.9230 C   0  0  0  0  0  0  0  0  0  0  0  0
   -5.6210   17.9190  -32.9400 C   0  0  0  0  0  0  0  0  0  0  0  0
   -6.7660   17.7890  -31.9200 C   0  0  0  0  0  0  0  0  0  0  0  0
   -8.0990   18.2540  -32.5240 C   0  0  0  0  0  0  0  0  0  0  0  0
   -7.3070   22.2750  -30.1200 C   0  0  0  0  0  0  0  0  0  0  0  0
   -6.4800   23.3580  -29.8130 C   0  0  0  0  0  0  0  0  0  0  0  0
   -3.3693   22.8069  -31.3223 H   0  0  0  0  0  0  0  0  0  0  0  0
   -2.0787   21.0203  -30.1388 H   0  0  0  0  0  0  0  0  0  0  0  0
   -1.0538   21.5131  -27.9105 H   0  0  0  0  0  0  0  0  0  0  0  0
   -2.5635   25.4993  -28.0298 H   0  0  0  0  0  0  0  0  0  0  0  0
   -6.2651   24.7741  -32.9202 H   0  0  0  0  0  0  0  0  0  0  0  0
   -7.7344   22.8357  -33.4643 H   0  0  0  0  0  0  0  0  0  0  0  0
   -8.6470   19.7420  -33.8470 H   0  0  0  0  0  0  0  0  0  0  0  0
   -6.7951   21.0103  -34.0145 H   0  0  0  0  0  0  0  0  0  0  0  0
   -6.2309   20.5087  -32.3670 H   0  0  0  0  0  0  0  0  0  0  0  0
   -6.3198   18.7028  -34.8316 H   0  0  0  0  0  0  0  0  0  0  0  0
   -4.8486   19.5163  -34.1663 H   0  0  0  0  0  0  0  0  0  0  0  0
   -5.5525   16.9826  -33.5131 H   0  0  0  0  0  0  0  0  0  0  0  0
   -4.6972   18.1210  -32.3780 H   0  0  0  0  0  0  0  0  0  0  0  0
   -6.8576   16.7362  -31.6148 H   0  0  0  0  0  0  0  0  0  0  0  0
   -6.5349   18.4241  -31.0521 H   0  0  0  0  0  0  0  0  0  0  0  0
   -8.3361   17.6140  -33.3867 H   0  0  0  0  0  0  0  0  0  0  0  0
   -8.8634   18.1779  -31.7367 H   0  0  0  0  0  0  0  0  0  0  0  0
   -7.6099   21.5754  -29.3271 H   0  0  0  0  0  0  0  0  0  0  0  0
   -6.1395   23.5092  -28.7780 H   0  0  0  0  0  0  0  0  0  0  0  0
  1  2  2  0
  2  3  1  0
  3  4  1  0
  4  5  2  0
  5  6  1  0
  6  7  2  0
  7  8  1  0
  8  9  2  0
  2 10  1  0
 10 11  2  0
 11 12  1  0
 12 13  2  0
 13 14  1  0
 14 15  2  0
 14 16  2  0
 14 17  1  0
 17 18  1  0
 18 19  1  0
 19 20  1  0
 20 21  1  0
 21 22  1  0
 13 23  1  0
 23 24  2  0
  9  4  1  0
 24 10  1  0
 22 17  1  0
  5 25  1  0
  6 26  1  0
  7 27  1  0
  9 28  1  0
 11 29  1  0
 12 30  1  0
 17 31  1  0
 18 32  1  0
 18 33  1  0
 19 34  1  0
 19 35  1  0
 20 36  1  0
 20 37  1  0
 21 38  1  0
 21 39  1  0
 22 40  1  0
 22 41  1  0
 23 42  1  0
 24 43  1  0
M  CHG  2   3  -1  17   1
M  END
>  <UniqueID>  (45) 
44

>  <SMILES>  (45) 
O=C([N-]c1cccnc1)c1ccc(S(=O)(=O)[NH+]2CCCCC2)cc1

>  <Energy>  (45) 
56.956944239602336

>  <Genealogy>  (45) 
O=C([N-]c1cccnc1)c1ccc(S(=O)(=O)[NH+]2CCCCC2)cc1 (protonated)
O=C([N-]c1cccnc1)c1ccc(S(=O)(=O)[NH+]2CCCCC2)cc1 (3D coordinates assigned)
O=C([N-]c1cccnc1)c1ccc(S(=O)(=O)[NH+]2CCCCC2)cc1 (nonaromatic ring conformer: 56.956944239602336 kcal/mol)

>  <smiles>  (45) 
O=C(Nc1cccnc1)c1ccc(S(=O)(=O)N2CCCCC2)cc1

>  <score_type>  (45) 
oracle

>  <origin>  (45) 
adgpu

>  <m_score__min__energy>  (45) 
-10.83

>  <m_primary>  (45) 
energy

$$$$
45:0
     RDKit          3D

 44 46  0  0  0  0  0  0  0  0999 V2000
    0.1080   20.7000  -35.2550 C   0  0  0  0  0  0  0  0  0  0  0  0
   -0.2140   20.8000  -33.7940 C   0  0  0  0  0  0  0  0  0  0  0  0
    0.5420   20.0840  -32.8540 C   0  0  0  0  0  0  0  0  0  0  0  0
    0.2080   20.1330  -31.4980 C   0  0  0  0  0  0  0  0  0  0  0  0
   -0.8850   20.8920  -31.0720 C   0  0  0  0  0  0  0  0  0  0  0  0
   -1.6480   21.6190  -31.9970 C   0  0  0  0  0  0  0  0  0  0  0  0
   -2.7860   22.3670  -31.5360 N   0  0  0  0  0  0  0  0  0  0  0  0
   -4.1500   22.0120  -31.8310 C   0  0  0  0  0  0  0  0  0  0  0  0
   -4.3960   21.0850  -32.6490 O   0  0  0  0  0  0  0  0  0  0  0  0
   -5.2480   22.7170  -31.2180 N   0  0  0  0  0  0  0  0  0  0  0  0
   -6.6240   22.5090  -31.6340 C   0  0  0  0  0  0  0  0  0  0  0  0
   -7.4840   23.1310  -30.5420 C   0  0  0  0  0  0  0  0  0  0  0  0
   -6.5660   24.0740  -29.7710 C   0  0  0  0  0  0  0  0  0  0  0  0
   -5.1370   23.6080  -30.0690 C   0  0  2  0  0  0  0  0  0  0  0  0
   -4.2450   24.7820  -30.3720 C   0  0  0  0  0  0  0  0  0  0  0  0
   -4.6170   25.6380  -31.2190 O   0  0  0  0  0  0  0  0  0  0  0  0
   -2.9940   24.9220  -29.6860 N   0  0  0  0  0  0  0  0  0  0  0  0
   -2.2940   23.8980  -28.9640 C   0  0  0  0  0  0  0  0  0  0  0  0
   -0.9050   23.8010  -29.1130 C   0  0  0  0  0  0  0  0  0  0  0  0
   -0.1830   22.8300  -28.4130 C   0  0  0  0  0  0  0  0  0  0  0  0
   -0.8450   21.9570  -27.5450 C   0  0  0  0  0  0  0  0  0  0  0  0
   -0.1430   21.0170  -26.8630 F   0  0  0  0  0  0  0  0  0  0  0  0
   -2.2270   22.0620  -27.3700 C   0  0  0  0  0  0  0  0  0  0  0  0
   -2.9530   23.0310  -28.0710 C   0  0  0  0  0  0  0  0  0  0  0  0
   -1.3220   21.5480  -33.3640 C   0  0  0  0  0  0  0  0  0  0  0  0
    1.1518   20.3758  -35.3791 H   0  0  0  0  0  0  0  0  0  0  0  0
   -0.5622   19.9677  -35.7289 H   0  0  0  0  0  0  0  0  0  0  0  0
   -0.0294   21.6831  -35.7289 H   0  0  0  0  0  0  0  0  0  0  0  0
    1.4008   19.4818  -33.1855 H   0  0  0  0  0  0  0  0  0  0  0  0
    0.8067   19.5730  -30.7646 H   0  0  0  0  0  0  0  0  0  0  0  0
   -1.1486   20.9194  -30.0044 H   0  0  0  0  0  0  0  0  0  0  0  0
   -2.5930   23.2590  -31.0300 H   0  0  0  0  0  0  0  0  0  0  0  0
   -6.8119   23.0036  -32.5984 H   0  0  0  0  0  0  0  0  0  0  0  0
   -6.8499   21.4410  -31.7692 H   0  0  0  0  0  0  0  0  0  0  0  0
   -8.3206   23.6902  -30.9862 H   0  0  0  0  0  0  0  0  0  0  0  0
   -7.9179   22.3635  -29.8843 H   0  0  0  0  0  0  0  0  0  0  0  0
   -6.7091   25.1102  -30.1114 H   0  0  0  0  0  0  0  0  0  0  0  0
   -6.7804   24.0531  -28.6923 H   0  0  0  0  0  0  0  0  0  0  0  0
   -4.6857   23.0949  -29.2070 H   0  0  0  0  0  0  0  0  0  0  0  0
   -0.3783   24.4938  -29.7857 H   0  0  0  0  0  0  0  0  0  0  0  0
    0.9063   22.7529  -28.5453 H   0  0  0  0  0  0  0  0  0  0  0  0
   -2.7458   21.3810  -26.6792 H   0  0  0  0  0  0  0  0  0  0  0  0
   -4.0399   23.1158  -27.9245 H   0  0  0  0  0  0  0  0  0  0  0  0
   -1.9395   22.0822  -34.1011 H   0  0  0  0  0  0  0  0  0  0  0  0
  1  2  1  0
  2  3  2  0
  3  4  1  0
  4  5  2  0
  5  6  1  0
  6  7  1  0
  7  8  1  0
  8  9  2  0
  8 10  1  0
 10 11  1  0
 11 12  1  0
 12 13  1  0
 13 14  1  0
 14 15  1  0
 15 16  2  0
 15 17  1  0
 17 18  1  0
 18 19  2  0
 19 20  1  0
 20 21  2  0
 21 22  1  0
 21 23  1  0
 23 24  2  0
  6 25  2  0
 25  2  1  0
 14 10  1  0
 24 18  1  0
  1 26  1  0
  1 27  1  0
  1 28  1  0
  3 29  1  0
  4 30  1  0
  5 31  1  0
  7 32  1  0
 11 33  1  0
 11 34  1  0
 12 35  1  0
 12 36  1  0
 13 37  1  0
 13 38  1  0
 14 39  1  1
 19 40  1  0
 20 41  1  0
 23 42  1  0
 24 43  1  0
 25 44  1  0
M  CHG  1  17  -1
M  END
>  <UniqueID>  (46) 
45

>  <SMILES>  (46) 
Cc1cccc(NC(=O)N2CCC[C@@H]2C(=O)[N-]c2ccc(F)cc2)c1

>  <Energy>  (46) 
51.38507345642129

>  <Genealogy>  (46) 
Cc1cccc(NC(=O)N2CCCC2C(=O)[N-]c2ccc(F)cc2)c1 (protonated)
Cc1cccc(NC(=O)N2CCC[C@@H]2C(=O)[N-]c2ccc(F)cc2)c1 (chirality)
Cc1cccc(NC(=O)N2CCC[C@@H]2C(=O)[N-]c2ccc(F)cc2)c1 (3D coordinates assigned)
Cc1cccc(NC(=O)N2CCC[C@@H]2C(=O)[N-]c2ccc(F)cc2)c1 (nonaromatic ring conformer: 51.38507345642129 kcal/mol)

>  <smiles>  (46) 
Cc1cccc(NC(=O)N2CCCC2C(=O)Nc2ccc(F)cc2)c1

>  <score_type>  (46) 
oracle

>  <origin>  (46) 
adgpu

>  <m_score__min__energy>  (46) 
-8.8699999999999992

>  <m_primary>  (46) 
energy

$$$$
46:0
     RDKit          3D

 61 64  0  0  0  0  0  0  0  0999 V2000
    0.6350   25.3140  -24.0720 N   0  0  0  0  0  0  0  0  0  0  0  0
   -0.4030   26.4950  -24.7910 S   0  0  0  0  0  0  0  0  0  0  0  0
    0.4210   27.5080  -25.5430 O   0  0  0  0  0  0  0  0  0  0  0  0
   -1.1630   27.2030  -23.7020 O   0  0  0  0  0  0  0  0  0  0  0  0
   -1.5210   25.6980  -25.9000 C   0  0  0  0  0  0  0  0  0  0  0  0
   -2.8810   25.5820  -25.5820 C   0  0  0  0  0  0  0  0  0  0  0  0
   -3.7530   24.8920  -26.4350 C   0  0  0  0  0  0  0  0  0  0  0  0
   -3.2780   24.3110  -27.6200 C   0  0  0  0  0  0  0  0  0  0  0  0
   -4.1800   23.5410  -28.4360 N   0  0  0  0  0  0  0  0  0  0  0  0
   -4.8960   24.0670  -29.5630 C   0  0  0  0  0  0  0  0  0  0  0  0
   -5.9390   25.3190  -29.3600 S   0  0  0  0  0  0  0  0  0  0  0  0
   -4.8670   23.3530  -30.8080 N   0  0  0  0  0  0  0  0  0  0  0  0
   -6.1210   22.9710  -31.4720 C   0  0  0  0  0  0  0  0  0  0  0  0
   -5.8860   21.9580  -32.6040 C   0  0  0  0  0  0  0  0  0  0  0  0
   -4.9030   20.9400  -32.2010 N   0  0  0  0  0  0  0  0  0  0  0  0
   -5.0070   19.5920  -32.7050 C   0  0  0  0  0  0  0  0  0  0  0  0
   -3.8820   18.7410  -32.7240 C   0  0  0  0  0  0  0  0  0  0  0  0
   -4.0050   17.4090  -33.1400 C   0  0  0  0  0  0  0  0  0  0  0  0
   -5.2550   16.9030  -33.5300 C   0  0  0  0  0  0  0  0  0  0  0  0
   -5.4370   15.2010  -33.9720 S   0  0  0  0  0  0  0  0  0  0  0  0
   -6.7890   14.9810  -34.5890 O   0  0  0  0  0  0  0  0  0  0  0  0
   -5.3480   14.3590  -32.7270 O   0  0  0  0  0  0  0  0  0  0  0  0
   -4.1980   14.6970  -35.0960 N   0  0  0  0  0  0  0  0  0  0  0  0
   -3.5060   15.8510  -35.7120 C   0  0  0  0  0  0  0  0  0  0  0  0
   -2.0070   15.9060  -35.3630 C   0  0  0  0  0  0  0  0  0  0  0  0
   -1.3210   14.7050  -35.6810 O   0  0  0  0  0  0  0  0  0  0  0  0
   -2.0400   13.5220  -35.3370 C   0  0  0  0  0  0  0  0  0  0  0  0
   -3.2750   13.7510  -34.4480 C   0  0  0  0  0  0  0  0  0  0  0  0
   -6.3690   17.7540  -33.5400 C   0  0  0  0  0  0  0  0  0  0  0  0
   -6.2480   19.0890  -33.1360 C   0  0  0  0  0  0  0  0  0  0  0  0
   -3.6790   21.3320  -31.4830 C   0  0  0  0  0  0  0  0  0  0  0  0
   -3.5900   22.8490  -31.3200 C   0  0  0  0  0  0  0  0  0  0  0  0
   -1.9110   24.4330  -27.9380 C   0  0  0  0  0  0  0  0  0  0  0  0
   -1.0400   25.1230  -27.0830 C   0  0  0  0  0  0  0  0  0  0  0  0
    0.0260   24.5360  -23.7330 H   0  0  0  0  0  0  0  0  0  0  0  0
    1.0540   25.7570  -23.2250 H   0  0  0  0  0  0  0  0  0  0  0  0
   -3.2665   26.0355  -24.6569 H   0  0  0  0  0  0  0  0  0  0  0  0
   -4.8179   24.8054  -26.1732 H   0  0  0  0  0  0  0  0  0  0  0  0
   -4.2530   22.5090  -28.2680 H   0  0  0  0  0  0  0  0  0  0  0  0
   -6.7949   22.5220  -30.7275 H   0  0  0  0  0  0  0  0  0  0  0  0
   -6.5628   23.8771  -31.9123 H   0  0  0  0  0  0  0  0  0  0  0  0
   -6.8377   21.4632  -32.8480 H   0  0  0  0  0  0  0  0  0  0  0  0
   -5.4966   22.4951  -33.4814 H   0  0  0  0  0  0  0  0  0  0  0  0
   -2.9008   19.1263  -32.4098 H   0  0  0  0  0  0  0  0  0  0  0  0
   -3.1191   16.7573  -33.1611 H   0  0  0  0  0  0  0  0  0  0  0  0
   -3.6097   15.7801  -36.8048 H   0  0  0  0  0  0  0  0  0  0  0  0
   -3.9714   16.7654  -35.3155 H   0  0  0  0  0  0  0  0  0  0  0  0
   -1.5462   16.7324  -35.9240 H   0  0  0  0  0  0  0  0  0  0  0  0
   -1.9266   16.0539  -34.2760 H   0  0  0  0  0  0  0  0  0  0  0  0
   -2.3737   13.0417  -36.2686 H   0  0  0  0  0  0  0  0  0  0  0  0
   -1.3482   12.8996  -34.7504 H   0  0  0  0  0  0  0  0  0  0  0  0
   -3.7902   12.7925  -34.2875 H   0  0  0  0  0  0  0  0  0  0  0  0
   -2.9510   14.1686  -33.4833 H   0  0  0  0  0  0  0  0  0  0  0  0
   -7.3461   17.3697  -33.8679 H   0  0  0  0  0  0  0  0  0  0  0  0
   -7.1283   19.7483  -33.1557 H   0  0  0  0  0  0  0  0  0  0  0  0
   -3.6829   20.8646  -30.4872 H   0  0  0  0  0  0  0  0  0  0  0  0
   -2.8110   20.9951  -32.0688 H   0  0  0  0  0  0  0  0  0  0  0  0
   -2.7858   23.0966  -30.6115 H   0  0  0  0  0  0  0  0  0  0  0  0
   -3.3720   23.3136  -32.2929 H   0  0  0  0  0  0  0  0  0  0  0  0
   -1.5240   23.9834  -28.8643 H   0  0  0  0  0  0  0  0  0  0  0  0
    0.0252   25.2131  -27.3423 H   0  0  0  0  0  0  0  0  0  0  0  0
  1  2  1  0
  2  3  2  0
  2  4  2  0
  2  5  1  0
  5  6  2  0
  6  7  1  0
  7  8  2  0
  8  9  1  0
  9 10  1  0
 10 11  2  0
 10 12  1  0
 12 13  1  0
 13 14  1  0
 14 15  1  0
 15 16  1  0
 16 17  2  0
 17 18  1  0
 18 19  2  0
 19 20  1  0
 20 21  2  0
 20 22  2  0
 20 23  1  0
 23 24  1  0
 24 25  1  0
 25 26  1  0
 26 27  1  0
 27 28  1  0
 19 29  1  0
 29 30  2  0
 15 31  1  0
 31 32  1  0
  8 33  1  0
 33 34  2  0
 34  5  1  0
 32 12  1  0
 30 16  1  0
 28 23  1  0
  1 35  1  0
  1 36  1  0
  6 37  1  0
  7 38  1  0
  9 39  1  0
 13 40  1  0
 13 41  1  0
 14 42  1  0
 14 43  1  0
 17 44  1  0
 18 45  1  0
 24 46  1  0
 24 47  1  0
 25 48  1  0
 25 49  1  0
 27 50  1  0
 27 51  1  0
 28 52  1  0
 28 53  1  0
 29 54  1  0
 30 55  1  0
 31 56  1  0
 31 57  1  0
 32 58  1  0
 32 59  1  0
 33 60  1  0
 34 61  1  0
M  END
>  <UniqueID>  (47) 
46

>  <SMILES>  (47) 
NS(=O)(=O)c1ccc(NC(=S)N2CCN(c3ccc(S(=O)(=O)N4CCOCC4)cc3)CC2)cc1

>  <Energy>  (47) 
86.903644329299

>  <Genealogy>  (47) 
NS(=O)(=O)c1ccc(NC(=S)N2CCN(c3ccc(S(=O)(=O)N4CCOCC4)cc3)CC2)cc1 (3D coordinates assigned)
NS(=O)(=O)c1ccc(NC(=S)N2CCN(c3ccc(S(=O)(=O)N4CCOCC4)cc3)CC2)cc1 (nonaromatic ring conformer: 86.903644329299 kcal/mol)

>  <smiles>  (47) 
NS(=O)(=O)c1ccc(NC(=S)N2CCN(c3ccc(S(=O)(=O)N4CCOCC4)cc3)CC2)cc1

>  <score_type>  (47) 
oracle

>  <origin>  (47) 
adgpu

>  <m_score__min__energy>  (47) 
-9.1199999999999992

>  <m_primary>  (47) 
energy

$$$$
47:0
     RDKit          3D

 58 61  0  0  0  0  0  0  0  0999 V2000
   -4.2860   25.4390  -30.8620 O   0  0  0  0  0  0  0  0  0  0  0  0
   -5.4220   24.9360  -30.0200 S   0  0  0  0  0  0  0  0  0  0  0  0
   -6.4030   26.0520  -29.7960 O   0  0  0  0  0  0  0  0  0  0  0  0
   -4.8000   24.3900  -28.4930 N   0  0  0  0  0  0  0  0  0  0  0  0
   -3.6100   23.5820  -28.3910 C   0  0  0  0  0  0  0  0  0  0  0  0
   -3.6660   22.2780  -27.8660 C   0  0  0  0  0  0  0  0  0  0  0  0
   -2.4950   21.5280  -27.6940 C   0  0  0  0  0  0  0  0  0  0  0  0
   -1.2590   22.0590  -28.0820 C   0  0  0  0  0  0  0  0  0  0  0  0
   -1.1980   23.3470  -28.6350 C   0  0  0  0  0  0  0  0  0  0  0  0
   -2.3640   24.1080  -28.7860 C   0  0  0  0  0  0  0  0  0  0  0  0
   -2.2720   25.3990  -29.3000 O   0  0  0  0  0  0  0  0  0  0  0  0
   -0.0130   21.2590  -27.8130 C   0  0  0  0  0  0  0  0  0  0  0  0
   -0.2130   19.7700  -28.1470 C   0  0  0  0  0  0  0  0  0  0  0  0
   -1.6130   19.2020  -27.7900 C   0  0  0  0  0  0  0  0  0  0  0  0
   -2.5210   20.1790  -27.0330 C   0  0  0  0  0  0  0  0  0  0  0  0
   -6.2510   23.6010  -30.8150 C   0  0  0  0  0  0  0  0  0  0  0  0
   -5.8200   23.1370  -32.0710 C   0  0  0  0  0  0  0  0  0  0  0  0
   -6.3360   21.9440  -32.5860 C   0  0  0  0  0  0  0  0  0  0  0  0
   -7.2860   21.2150  -31.8620 C   0  0  0  0  0  0  0  0  0  0  0  0
   -7.8000   19.6220  -32.4130 S   0  0  0  0  0  0  0  0  0  0  0  0
   -9.1180   19.7380  -33.1280 O   0  0  0  0  0  0  0  0  0  0  0  0
   -7.9510   18.7180  -31.2210 O   0  0  0  0  0  0  0  0  0  0  0  0
   -6.6030   18.9770  -33.5100 N   0  0  0  0  0  0  0  0  0  0  0  0
   -6.8880   17.5610  -33.8120 C   0  0  0  0  0  0  0  0  0  0  0  0
   -6.2180   16.6110  -32.7880 C   0  0  0  0  0  0  0  0  0  0  0  0
   -4.7350   16.3150  -33.0760 C   0  0  0  0  0  0  0  0  0  0  0  0
   -4.0890   17.2100  -34.1640 C   0  0  0  0  0  0  0  0  0  0  0  0
   -4.1280   18.7270  -33.9000 C   0  0  0  0  0  0  0  0  0  0  0  0
   -5.2520   19.1730  -32.9470 C   0  0  0  0  0  0  0  0  0  0  0  0
   -7.7660   21.7220  -30.6480 C   0  0  0  0  0  0  0  0  0  0  0  0
   -7.2470   22.9040  -30.1240 C   0  0  0  0  0  0  0  0  0  0  0  0
   -5.4270   24.4960  -27.6590 H   0  0  0  0  0  0  0  0  0  0  0  0
   -4.6375   21.8434  -27.5881 H   0  0  0  0  0  0  0  0  0  0  0  0
   -0.2294   23.7612  -28.9516 H   0  0  0  0  0  0  0  0  0  0  0  0
    0.8065   21.6563  -28.4299 H   0  0  0  0  0  0  0  0  0  0  0  0
    0.2253   21.3426  -26.7424 H   0  0  0  0  0  0  0  0  0  0  0  0
   -0.0563   19.6383  -29.2278 H   0  0  0  0  0  0  0  0  0  0  0  0
    0.5107   19.2159  -27.5312 H   0  0  0  0  0  0  0  0  0  0  0  0
   -2.1176   18.9184  -28.7254 H   0  0  0  0  0  0  0  0  0  0  0  0
   -1.4423   18.3482  -27.1177 H   0  0  0  0  0  0  0  0  0  0  0  0
   -3.5512   19.7933  -27.0343 H   0  0  0  0  0  0  0  0  0  0  0  0
   -2.1591   20.2784  -25.9990 H   0  0  0  0  0  0  0  0  0  0  0  0
   -5.0790   23.7112  -32.6465 H   0  0  0  0  0  0  0  0  0  0  0  0
   -5.9936   21.5768  -33.5647 H   0  0  0  0  0  0  0  0  0  0  0  0
   -7.9763   17.4029  -33.7860 H   0  0  0  0  0  0  0  0  0  0  0  0
   -6.4806   17.3340  -34.8082 H   0  0  0  0  0  0  0  0  0  0  0  0
   -6.2904   17.0717  -31.7918 H   0  0  0  0  0  0  0  0  0  0  0  0
   -6.7500   15.6504  -32.8539 H   0  0  0  0  0  0  0  0  0  0  0  0
   -4.1715   16.4530  -32.1414 H   0  0  0  0  0  0  0  0  0  0  0  0
   -4.6956   15.2853  -33.4609 H   0  0  0  0  0  0  0  0  0  0  0  0
   -3.0346   16.9124  -34.2624 H   0  0  0  0  0  0  0  0  0  0  0  0
   -4.6878   17.0513  -35.0730 H   0  0  0  0  0  0  0  0  0  0  0  0
   -3.1647   19.0256  -33.4609 H   0  0  0  0  0  0  0  0  0  0  0  0
   -4.3235   19.2114  -34.8680 H   0  0  0  0  0  0  0  0  0  0  0  0
   -5.1730   18.5914  -32.0167 H   0  0  0  0  0  0  0  0  0  0  0  0
   -5.1238   20.2514  -32.7719 H   0  0  0  0  0  0  0  0  0  0  0  0
   -8.5572   21.1840  -30.1052 H   0  0  0  0  0  0  0  0  0  0  0  0
   -7.6216   23.2898  -29.1644 H   0  0  0  0  0  0  0  0  0  0  0  0
  1  2  2  0
  2  3  2  0
  2  4  1  0
  4  5  1  0
  5  6  2  0
  6  7  1  0
  7  8  2  0
  8  9  1  0
  9 10  2  0
 10 11  1  0
  8 12  1  0
 12 13  1  0
 13 14  1  0
 14 15  1  0
  2 16  1  0
 16 17  2  0
 17 18  1  0
 18 19  2  0
 19 20  1  0
 20 21  2  0
 20 22  2  0
 20 23  1  0
 23 24  1  0
 24 25  1  0
 25 26  1  0
 26 27  1  0
 27 28  1  0
 28 29  1  0
 19 30  1  0
 30 31  2  0
 10  5  1  0
 31 16  1  0
 15  7  1  0
 29 23  1  0
  4 32  1  0
  6 33  1  0
  9 34  1  0
 12 35  1  0
 12 36  1  0
 13 37  1  0
 13 38  1  0
 14 39  1  0
 14 40  1  0
 15 41  1  0
 15 42  1  0
 17 43  1  0
 18 44  1  0
 24 45  1  0
 24 46  1  0
 25 47  1  0
 25 48  1  0
 26 49  1  0
 26 50  1  0
 27 51  1  0
 27 52  1  0
 28 53  1  0
 28 54  1  0
 29 55  1  0
 29 56  1  0
 30 57  1  0
 31 58  1  0
M  CHG  1  11  -1
M  END
>  <UniqueID>  (48) 
47

>  <SMILES>  (48) 
O=S(=O)(Nc1cc2c(cc1[O-])CCCC2)c1ccc(S(=O)(=O)N2CCCCCC2)cc1

>  <Energy>  (48) 
72.8744772751463

>  <Genealogy>  (48) 
O=S(=O)(Nc1cc2c(cc1[O-])CCCC2)c1ccc(S(=O)(=O)N2CCCCCC2)cc1 (protonated)
O=S(=O)(Nc1cc2c(cc1[O-])CCCC2)c1ccc(S(=O)(=O)N2CCCCCC2)cc1 (3D coordinates assigned)
O=S(=O)(Nc1cc2c(cc1[O-])CCCC2)c1ccc(S(=O)(=O)N2CCCCCC2)cc1 (nonaromatic ring conformer: 72.8744772751463 kcal/mol)

>  <smiles>  (48) 
O=S(=O)(Nc1cc2c(cc1O)CCCC2)c1ccc(S(=O)(=O)N2CCCCCC2)cc1

>  <score_type>  (48) 
oracle

>  <origin>  (48) 
adgpu

>  <m_score__min__energy>  (48) 
-13.58

>  <m_primary>  (48) 
energy

$$$$
48:0
     RDKit          3D

 52 55  0  0  0  0  0  0  0  0999 V2000
   -2.0851   23.4980  -30.2608 H   0  0  0  0  0  0  0  0  0  0  0  0
   -2.7910   23.7090  -29.4440 C   0  0  0  0  0  0  0  0  0  0  0  0
   -4.0590   23.2980  -29.5850 C   0  0  0  0  0  0  0  0  0  0  0  0
   -4.7756   23.4817  -28.7709 H   0  0  0  0  0  0  0  0  0  0  0  0
   -4.5190   22.6040  -30.8070 C   0  0  0  0  0  0  0  0  0  0  0  0
   -3.5540   22.2780  -31.7690 C   0  0  0  0  0  0  0  0  0  0  0  0
   -2.5048   22.5714  -31.6167 H   0  0  0  0  0  0  0  0  0  0  0  0
   -3.9230   21.5820  -32.9190 C   0  0  0  0  0  0  0  0  0  0  0  0
   -3.1607   21.3162  -33.6662 H   0  0  0  0  0  0  0  0  0  0  0  0
   -5.2170   21.2310  -33.1210 N   0  0  0  0  0  0  0  0  0  0  0  0
   -6.1950   21.5510  -32.2320 C   0  0  0  0  0  0  0  0  0  0  0  0
   -7.5190   21.1870  -32.5020 C   0  0  0  0  0  0  0  0  0  0  0  0
   -7.7564   20.6178  -33.4129 H   0  0  0  0  0  0  0  0  0  0  0  0
   -8.5390   21.5440  -31.6190 C   0  0  0  0  0  0  0  0  0  0  0  0
   -9.5771   21.2483  -31.8308 H   0  0  0  0  0  0  0  0  0  0  0  0
   -8.2440   22.2760  -30.4670 C   0  0  0  0  0  0  0  0  0  0  0  0
   -9.0529   22.5645  -29.7797 H   0  0  0  0  0  0  0  0  0  0  0  0
   -6.9250   22.6440  -30.1830 C   0  0  0  0  0  0  0  0  0  0  0  0
   -6.7039   23.2317  -29.2798 H   0  0  0  0  0  0  0  0  0  0  0  0
   -5.8760   22.2660  -31.0480 C   0  0  0  0  0  0  0  0  0  0  0  0
   -2.2830   24.4310  -28.2530 C   0  0  0  0  0  0  0  0  0  0  0  0
   -0.9940   24.9870  -28.3050 C   0  0  0  0  0  0  0  0  0  0  0  0
   -0.3925   24.8819  -29.2200 H   0  0  0  0  0  0  0  0  0  0  0  0
   -0.4680   25.6720  -27.2070 C   0  0  0  0  0  0  0  0  0  0  0  0
    0.5442   26.0993  -27.2616 H   0  0  0  0  0  0  0  0  0  0  0  0
   -1.2240   25.8170  -26.0370 C   0  0  0  0  0  0  0  0  0  0  0  0
   -0.5460   26.6480  -24.6340 S   0  0  0  0  0  0  0  0  0  0  0  0
   -1.6130   26.7980  -23.5860 O   0  0  0  0  0  0  0  0  0  0  0  0
   -0.1010   28.0260  -25.0430 O   0  0  0  0  0  0  0  0  0  0  0  0
    0.8110   25.7730  -23.9590 N   0  0  0  0  0  0  0  0  0  0  0  0
    0.6270   25.6990  -22.9310 H   0  0  0  0  0  0  0  0  0  0  0  0
    2.0590   26.5490  -24.1380 C   0  0  0  0  0  0  0  0  0  0  0  0
    2.1099   27.3294  -23.3644 H   0  0  0  0  0  0  0  0  0  0  0  0
    2.0484   26.9972  -25.1425 H   0  0  0  0  0  0  0  0  0  0  0  0
    3.2970   25.6480  -24.0220 C   0  0  0  0  0  0  0  0  0  0  0  0
    3.3047   25.1837  -23.0248 H   0  0  0  0  0  0  0  0  0  0  0  0
    4.1866   26.2757  -24.1791 H   0  0  0  0  0  0  0  0  0  0  0  0
    3.3100   24.5760  -25.0480 N   0  0  0  0  0  0  0  0  0  0  0  0
    4.2320   24.8970  -26.1490 C   0  0  0  0  0  0  0  0  0  0  0  0
    5.1946   25.2321  -25.7353 H   0  0  0  0  0  0  0  0  0  0  0  0
    4.3906   24.0012  -26.7674 H   0  0  0  0  0  0  0  0  0  0  0  0
    3.8000   25.6976  -26.7674 H   0  0  0  0  0  0  0  0  0  0  0  0
    1.9680   24.2460  -25.5830 C   0  0  0  0  0  0  0  0  0  0  0  0
    1.9728   23.2085  -25.9485 H   0  0  0  0  0  0  0  0  0  0  0  0
    1.7380   24.9449  -26.4008 H   0  0  0  0  0  0  0  0  0  0  0  0
    0.8860   24.3910  -24.5010 C   0  0  0  0  0  0  0  0  0  0  0  0
    1.1154   23.6998  -23.6766 H   0  0  0  0  0  0  0  0  0  0  0  0
   -0.0847   24.1578  -24.9628 H   0  0  0  0  0  0  0  0  0  0  0  0
   -2.5220   25.2920  -25.9870 C   0  0  0  0  0  0  0  0  0  0  0  0
   -3.1293   25.4212  -25.0790 H   0  0  0  0  0  0  0  0  0  0  0  0
   -3.0500   24.6050  -27.0840 C   0  0  0  0  0  0  0  0  0  0  0  0
   -4.0706   24.1977  -27.0342 H   0  0  0  0  0  0  0  0  0  0  0  0
  1  2  1  0
  2  3  2  0
  3  4  1  0
  3  5  1  0
  5  6  2  0
  6  7  1  0
  6  8  1  0
  8  9  1  0
  8 10  2  0
 10 11  1  0
 11 12  2  0
 12 13  1  0
 12 14  1  0
 14 15  1  0
 14 16  2  0
 16 17  1  0
 16 18  1  0
 18 19  1  0
 18 20  2  0
  2 21  1  0
 21 22  2  0
 22 23  1  0
 22 24  1  0
 24 25  1  0
 24 26  2  0
 26 27  1  0
 27 28  2  0
 27 29  2  0
 27 30  1  0
 30 31  1  0
 30 32  1  0
 32 33  1  0
 32 34  1  0
 32 35  1  0
 35 36  1  0
 35 37  1  0
 35 38  1  0
 38 39  1  0
 39 40  1  0
 39 41  1  0
 39 42  1  0
 38 43  1  0
 43 44  1  0
 43 45  1  0
 43 46  1  0
 46 47  1  0
 46 48  1  0
 26 49  1  0
 49 50  1  0
 49 51  2  0
 51 52  1  0
 20  5  1  0
 51 21  1  0
 20 11  1  0
 46 30  1  0
M  CHG  1  30   1
M  END
>  <UniqueID>  (49) 
48

>  <SMILES>  (49) 
CN1CC[NH+](S(=O)(=O)c2ccc(/C=C/c3ccnc4ccccc34)cc2)CC1

>  <Energy>  (49) 
77.75709271791885

>  <Genealogy>  (49) 
CN1CC[NH+](S(=O)(=O)c2ccc(C=Cc3ccnc4ccccc34)cc2)CC1 (protonated)
CN1CC[NH+](S(=O)(=O)c2ccc(/C=C/c3ccnc4ccccc34)cc2)CC1 (cis-trans isomerization)
CN1CC[NH+](S(=O)(=O)c2ccc(/C=C/c3ccnc4ccccc34)cc2)CC1 (3D coordinates assigned)
CN1CC[NH+](S(=O)(=O)c2ccc(/C=C/c3ccnc4ccccc34)cc2)CC1 (nonaromatic ring conformer: 77.75709271791885 kcal/mol)

>  <smiles>  (49) 
CN1CCN(S(=O)(=O)c2ccc(C=Cc3ccnc4ccccc34)cc2)CC1

>  <score_type>  (49) 
oracle

>  <origin>  (49) 
adgpu

>  <m_score__min__energy>  (49) 
-9.3100000000000005

>  <m_primary>  (49) 
energy

$$$$
