0:0
     RDKit          3D

 40 42  0  0  0  0  0  0  0  0999 V2000
   -3.1780   24.5880  -26.9180 C   0  0  0  0  0  0  0  0  0  0  0  0
   -1.7540   24.8350  -26.6620 N   0  0  0  0  0  0  0  0  0  0  0  0
   -1.5780   26.1220  -25.9760 C   0  0  0  0  0  0  0  0  0  0  0  0
   -0.8730   24.8440  -28.1700 S   0  0  0  0  0  0  0  0  0  0  0  0
   -1.2580   26.0590  -28.9680 O   0  0  0  0  0  0  0  0  0  0  0  0
    0.6020   24.9240  -27.8870 O   0  0  0  0  0  0  0  0  0  0  0  0
   -1.2020   23.3950  -29.1240 C   0  0  0  0  0  0  0  0  0  0  0  0
   -0.2440   22.3770  -29.2140 C   0  0  0  0  0  0  0  0  0  0  0  0
   -0.4980   21.2400  -29.9830 C   0  0  0  0  0  0  0  0  0  0  0  0
   -1.7100   21.1110  -30.6650 C   0  0  0  0  0  0  0  0  0  0  0  0
   -2.6830   22.1200  -30.5810 C   0  0  0  0  0  0  0  0  0  0  0  0
   -3.9270   21.9990  -31.2970 N   0  0  0  0  0  0  0  0  0  0  0  0
   -4.0530   21.1310  -32.4360 C   0  0  0  0  0  0  0  0  0  0  0  0
   -3.0150   20.7100  -33.0160 O   0  0  0  0  0  0  0  0  0  0  0  0
   -5.3380   20.7330  -32.9440 N   0  0  0  0  0  0  0  0  0  0  0  0
   -6.6110   21.0840  -32.3690 C   0  0  0  0  0  0  0  0  0  0  0  0
   -7.7720   20.4530  -32.8470 C   0  0  0  0  0  0  0  0  0  0  0  0
   -9.0260   20.7750  -32.3190 C   0  0  0  0  0  0  0  0  0  0  0  0
   -9.1350   21.7350  -31.3130 C   0  0  0  0  0  0  0  0  0  0  0  0
   -7.9910   22.3760  -30.8340 C   0  0  0  0  0  0  0  0  0  0  0  0
   -6.7310   22.0540  -31.3560 C   0  0  0  0  0  0  0  0  0  0  0  0
   -5.3130   22.8830  -30.7640 S   0  0  0  0  0  0  0  0  0  0  0  0
   -5.3430   22.9150  -29.2610 O   0  0  0  0  0  0  0  0  0  0  0  0
   -5.2760   24.2800  -31.3140 O   0  0  0  0  0  0  0  0  0  0  0  0
   -2.4180   23.2640  -29.8080 C   0  0  0  0  0  0  0  0  0  0  0  0
   -3.7120   24.4954  -25.9608 H   0  0  0  0  0  0  0  0  0  0  0  0
   -3.5981   25.4267  -27.4925 H   0  0  0  0  0  0  0  0  0  0  0  0
   -3.2911   23.6568  -27.4925 H   0  0  0  0  0  0  0  0  0  0  0  0
   -1.5997   25.9634  -24.8877 H   0  0  0  0  0  0  0  0  0  0  0  0
   -0.6114   26.5615  -26.2633 H   0  0  0  0  0  0  0  0  0  0  0  0
   -2.3911   26.8049  -26.2633 H   0  0  0  0  0  0  0  0  0  0  0  0
    0.7112   22.4738  -28.6772 H   0  0  0  0  0  0  0  0  0  0  0  0
    0.2580   20.4439  -30.0520 H   0  0  0  0  0  0  0  0  0  0  0  0
   -1.9035   20.2139  -31.2714 H   0  0  0  0  0  0  0  0  0  0  0  0
   -5.3360   20.0910  -33.7700 H   0  0  0  0  0  0  0  0  0  0  0  0
   -7.6936   19.6988  -33.6439 H   0  0  0  0  0  0  0  0  0  0  0  0
   -9.9274   20.2708  -32.6973 H   0  0  0  0  0  0  0  0  0  0  0  0
  -10.1218   21.9869  -30.8973 H   0  0  0  0  0  0  0  0  0  0  0  0
   -8.0790   23.1365  -30.0441 H   0  0  0  0  0  0  0  0  0  0  0  0
   -3.1713   24.0627  -29.7396 H   0  0  0  0  0  0  0  0  0  0  0  0
  1  2  1  0
  2  3  1  0
  2  4  1  0
  4  5  2  0
  4  6  2  0
  4  7  1  0
  7  8  2  0
  8  9  1  0
  9 10  2  0
 10 11  1  0
 11 12  1  0
 12 13  1  0
 13 14  2  0
 13 15  1  0
 15 16  1  0
 16 17  2  0
 17 18  1  0
 18 19  2  0
 19 20  1  0
 20 21  2  0
 21 22  1  0
 22 23  2  0
 22 24  2  0
 11 25  2  0
 25  7  1  0
 22 12  1  0
 21 16  1  0
  1 26  1  0
  1 27  1  0
  1 28  1  0
  3 29  1  0
  3 30  1  0
  3 31  1  0
  8 32  1  0
  9 33  1  0
 10 34  1  0
 15 35  1  0
 17 36  1  0
 18 37  1  0
 19 38  1  0
 20 39  1  0
 25 40  1  0
M  END
>  <UniqueID>  (1) 
1

>  <SMILES>  (1) 
CN(C)S(=O)(=O)c1cccc(N2C(=O)Nc3ccccc3S2(=O)=O)c1

>  <Energy>  (1) 
49.293709051349474

>  <Genealogy>  (1) 
CN(C)S(=O)(=O)c1cccc(N2C(=O)Nc3ccccc3S2(=O)=O)c1 (3D coordinates assigned)
CN(C)S(=O)(=O)c1cccc(N2C(=O)Nc3ccccc3S2(=O)=O)c1 (nonaromatic ring conformer: 49.293709051349474 kcal/mol)

>  <smiles>  (1) 
CN(C)S(=O)(=O)c1cccc(N2C(=O)Nc3ccccc3S2(=O)=O)c1

>  <score_type>  (1) 
oracle

>  <origin>  (1) 
adgpu

>  <m_score__min__energy>  (1) 
-9.2100000000000009

>  <m_primary>  (1) 
energy

$$$$
1:0
     RDKit          3D

 55 58  0  0  0  0  0  0  0  0999 V2000
   -5.2940   26.3750  -30.0930 O   0  0  0  0  0  0  0  0  0  0  0  0
   -5.0730   25.3900  -30.8440 C   0  0  0  0  0  0  0  0  0  0  0  0
   -6.1230   24.9160  -31.6980 N   0  0  0  0  0  0  0  0  0  0  0  0
   -6.5980   23.5640  -31.7480 C   0  0  0  0  0  0  0  0  0  0  0  0
   -5.7440   22.5000  -32.0880 C   0  0  0  0  0  0  0  0  0  0  0  0
   -6.2510   21.2030  -32.2080 C   0  0  0  0  0  0  0  0  0  0  0  0
   -7.6060   20.9510  -31.9630 C   0  0  0  0  0  0  0  0  0  0  0  0
   -8.2480   19.3270  -32.1810 S   0  0  0  0  0  0  0  0  0  0  0  0
   -8.7200   18.8140  -30.8490 O   0  0  0  0  0  0  0  0  0  0  0  0
   -9.4150   19.3470  -33.1290 O   0  0  0  0  0  0  0  0  0  0  0  0
   -6.9880   18.2840  -32.8360 C   0  0  0  0  0  0  0  0  0  0  0  0
   -6.4480   18.5530  -34.1030 C   0  0  0  0  0  0  0  0  0  0  0  0
   -5.4800   17.7040  -34.6490 C   0  0  0  0  0  0  0  0  0  0  0  0
   -5.0450   16.5860  -33.9320 C   0  0  0  0  0  0  0  0  0  0  0  0
   -5.5680   16.3210  -32.6640 C   0  0  0  0  0  0  0  0  0  0  0  0
   -6.5400   17.1650  -32.1160 C   0  0  0  0  0  0  0  0  0  0  0  0
   -8.4500   22.0050  -31.5840 C   0  0  0  0  0  0  0  0  0  0  0  0
   -7.9440   23.3040  -31.4670 C   0  0  0  0  0  0  0  0  0  0  0  0
   -3.7780   24.7720  -30.8190 N   0  0  0  0  0  0  0  0  0  0  0  0
   -3.2580   23.9870  -29.7360 C   0  0  0  0  0  0  0  0  0  0  0  0
   -3.8250   22.7460  -29.4040 C   0  0  0  0  0  0  0  0  0  0  0  0
   -3.3370   22.0170  -28.3180 C   0  0  0  0  0  0  0  0  0  0  0  0
   -2.2680   22.5100  -27.5680 C   0  0  0  0  0  0  0  0  0  0  0  0
   -1.6690   23.7320  -27.9070 C   0  0  0  0  0  0  0  0  0  0  0  0
   -0.3270   24.3500  -26.9370 S   0  0  0  0  0  0  0  0  0  0  0  0
    0.6340   25.0500  -27.8560 O   0  0  0  0  0  0  0  0  0  0  0  0
    0.3730   23.2020  -26.2640 O   0  0  0  0  0  0  0  0  0  0  0  0
   -0.9210   25.4710  -25.7280 N   0  0  0  0  0  0  0  0  0  0  0  0
   -0.0090   25.5680  -24.5660 C   0  0  0  0  0  0  0  0  0  0  0  0
    0.8720   26.8290  -24.6020 C   0  0  0  0  0  0  0  0  0  0  0  0
    1.1960   27.1560  -25.9340 O   0  0  0  0  0  0  0  0  0  0  0  0
    0.0430   27.6140  -26.6190 C   0  0  0  0  0  0  0  0  0  0  0  0
   -1.2300   26.7890  -26.3140 C   0  0  0  0  0  0  0  0  0  0  0  0
   -2.1700   24.4720  -28.9940 C   0  0  0  0  0  0  0  0  0  0  0  0
   -1.6090   25.7020  -29.3260 O   0  0  0  0  0  0  0  0  0  0  0  0
   -4.6741   22.6888  -32.2600 H   0  0  0  0  0  0  0  0  0  0  0  0
   -5.5831   20.3777  -32.4959 H   0  0  0  0  0  0  0  0  0  0  0  0
   -6.7869   19.4338  -34.6681 H   0  0  0  0  0  0  0  0  0  0  0  0
   -5.0607   17.9163  -35.6435 H   0  0  0  0  0  0  0  0  0  0  0  0
   -4.2901   15.9141  -34.3665 H   0  0  0  0  0  0  0  0  0  0  0  0
   -5.2152   15.4477  -32.0958 H   0  0  0  0  0  0  0  0  0  0  0  0
   -6.9539   16.9515  -31.1194 H   0  0  0  0  0  0  0  0  0  0  0  0
   -9.5128   21.8098  -31.3782 H   0  0  0  0  0  0  0  0  0  0  0  0
   -8.6066   24.1240  -31.1530 H   0  0  0  0  0  0  0  0  0  0  0  0
   -4.6572   22.3465  -30.0022 H   0  0  0  0  0  0  0  0  0  0  0  0
   -3.7955   21.0529  -28.0530 H   0  0  0  0  0  0  0  0  0  0  0  0
   -1.8935   21.9372  -26.7068 H   0  0  0  0  0  0  0  0  0  0  0  0
   -0.6124   25.5872  -23.6465 H   0  0  0  0  0  0  0  0  0  0  0  0
    0.6605   24.6957  -24.5972 H   0  0  0  0  0  0  0  0  0  0  0  0
    0.3263   27.6672  -24.1441 H   0  0  0  0  0  0  0  0  0  0  0  0
    1.7995   26.6360  -24.0430 H   0  0  0  0  0  0  0  0  0  0  0  0
   -0.1420   28.6585  -26.3279 H   0  0  0  0  0  0  0  0  0  0  0  0
    0.2449   27.5079  -27.6951 H   0  0  0  0  0  0  0  0  0  0  0  0
   -1.8545   27.3527  -25.6053 H   0  0  0  0  0  0  0  0  0  0  0  0
   -1.7537   26.6175  -27.2660 H   0  0  0  0  0  0  0  0  0  0  0  0
  1  2  2  0
  2  3  1  0
  3  4  1  0
  4  5  2  0
  5  6  1  0
  6  7  2  0
  7  8  1  0
  8  9  2  0
  8 10  2  0
  8 11  1  0
 11 12  2  0
 12 13  1  0
 13 14  2  0
 14 15  1  0
 15 16  2  0
  7 17  1  0
 17 18  2  0
  2 19  1  0
 19 20  1  0
 20 21  2  0
 21 22  1  0
 22 23  2  0
 23 24  1  0
 24 25  1  0
 25 26  2  0
 25 27  2  0
 25 28  1  0
 28 29  1  0
 29 30  1  0
 30 31  1  0
 31 32  1  0
 32 33  1  0
 24 34  2  0
 34 35  1  0
 18  4  1  0
 34 20  1  0
 16 11  1  0
 33 28  1  0
  5 36  1  0
  6 37  1  0
 12 38  1  0
 13 39  1  0
 14 40  1  0
 15 41  1  0
 16 42  1  0
 17 43  1  0
 18 44  1  0
 21 45  1  0
 22 46  1  0
 23 47  1  0
 29 48  1  0
 29 49  1  0
 30 50  1  0
 30 51  1  0
 32 52  1  0
 32 53  1  0
 33 54  1  0
 33 55  1  0
M  CHG  3   3  -1  19  -1  35  -1
M  END
>  <UniqueID>  (2) 
2

>  <SMILES>  (2) 
O=C([N-]c1ccc(S(=O)(=O)c2ccccc2)cc1)[N-]c1cccc(S(=O)(=O)N2CCOCC2)c1[O-]

>  <Energy>  (2) 
74.8681455593608

>  <Genealogy>  (2) 
O=C([N-]c1ccc(S(=O)(=O)c2ccccc2)cc1)[N-]c1cccc(S(=O)(=O)N2CCOCC2)c1[O-] (protonated)
O=C([N-]c1ccc(S(=O)(=O)c2ccccc2)cc1)[N-]c1cccc(S(=O)(=O)N2CCOCC2)c1[O-] (3D coordinates assigned)
O=C([N-]c1ccc(S(=O)(=O)c2ccccc2)cc1)[N-]c1cccc(S(=O)(=O)N2CCOCC2)c1[O-] (nonaromatic ring conformer: 74.8681455593608 kcal/mol)

>  <smiles>  (2) 
O=C(Nc1ccc(S(=O)(=O)c2ccccc2)cc1)Nc1cccc(S(=O)(=O)N2CCOCC2)c1O

>  <score_type>  (2) 
oracle

>  <origin>  (2) 
adgpu

>  <m_score__min__energy>  (2) 
-17.440000000000001

>  <m_primary>  (2) 
energy

$$$$
2:0
     RDKit          3D

 44 47  0  0  0  0  0  0  0  0999 V2000
   -1.1170   25.4140  -28.5960 O   0  0  0  0  0  0  0  0  0  0  0  0
   -1.9460   24.7830  -29.3010 C   0  0  0  0  0  0  0  0  0  0  0  0
   -1.6940   23.5380  -29.7810 N   0  0  0  0  0  0  0  0  0  0  0  0
   -2.8190   23.2660  -30.4570 C   0  0  0  0  0  0  0  0  0  0  0  0
   -3.1270   22.1100  -31.1650 C   0  0  0  0  0  0  0  0  0  0  0  0
   -4.3780   22.0450  -31.8050 C   0  0  0  0  0  0  0  0  0  0  0  0
   -5.2910   23.1350  -31.7290 C   0  0  0  0  0  0  0  0  0  0  0  0
   -6.5680   23.1000  -32.3880 N   0  0  0  0  0  0  0  0  0  0  0  0
   -8.0030   22.4290  -31.6760 S   0  0  0  0  0  0  0  0  0  0  0  0
   -9.2110   23.0500  -32.3200 O   0  0  0  0  0  0  0  0  0  0  0  0
   -8.0140   22.7450  -30.2060 O   0  0  0  0  0  0  0  0  0  0  0  0
   -8.0560   20.6890  -31.9350 C   0  0  0  0  0  0  0  0  0  0  0  0
   -9.0730   19.9180  -31.3570 C   0  0  0  0  0  0  0  0  0  0  0  0
   -9.1060   18.5360  -31.5580 C   0  0  0  0  0  0  0  0  0  0  0  0
   -8.1260   17.9170  -32.3390 C   0  0  0  0  0  0  0  0  0  0  0  0
   -7.1100   18.6820  -32.9300 C   0  0  0  0  0  0  0  0  0  0  0  0
   -5.8790   17.9080  -33.9300 S   0  0  0  0  0  0  0  0  0  0  0  0
   -5.6670   18.7260  -35.1740 O   0  0  0  0  0  0  0  0  0  0  0  0
   -6.3680   16.5490  -34.3510 O   0  0  0  0  0  0  0  0  0  0  0  0
   -4.3550   17.7420  -33.0850 N   0  0  0  0  0  0  0  0  0  0  0  0
   -3.7800   19.0520  -32.7620 C   0  0  0  0  0  0  0  0  0  0  0  0
   -2.7210   19.3850  -33.8050 C   0  0  0  0  0  0  0  0  0  0  0  0
   -2.4810   18.1020  -34.5750 C   0  0  0  0  0  0  0  0  0  0  0  0
   -3.3630   17.0530  -33.9160 C   0  0  0  0  0  0  0  0  0  0  0  0
   -7.0780   20.0670  -32.7240 C   0  0  0  0  0  0  0  0  0  0  0  0
   -4.9350   24.2860  -30.9890 C   0  0  0  0  0  0  0  0  0  0  0  0
   -3.6870   24.3100  -30.3720 C   0  0  0  0  0  0  0  0  0  0  0  0
   -3.1560   25.2990  -29.6370 N   0  0  0  0  0  0  0  0  0  0  0  0
   -2.4155   21.2731  -31.2229 H   0  0  0  0  0  0  0  0  0  0  0  0
   -4.6538   21.1425  -32.3702 H   0  0  0  0  0  0  0  0  0  0  0  0
   -6.6300   23.3930  -33.3890 H   0  0  0  0  0  0  0  0  0  0  0  0
   -9.8472   20.4020  -30.7435 H   0  0  0  0  0  0  0  0  0  0  0  0
   -9.9048   17.9337  -31.1007 H   0  0  0  0  0  0  0  0  0  0  0  0
   -8.1517   16.8278  -32.4904 H   0  0  0  0  0  0  0  0  0  0  0  0
   -4.5695   19.8178  -32.7771 H   0  0  0  0  0  0  0  0  0  0  0  0
   -3.3277   19.0284  -31.7596 H   0  0  0  0  0  0  0  0  0  0  0  0
   -3.0832   20.1746  -34.4799 H   0  0  0  0  0  0  0  0  0  0  0  0
   -1.7964   19.7559  -33.3386 H   0  0  0  0  0  0  0  0  0  0  0  0
   -2.7619   18.2305  -35.6307 H   0  0  0  0  0  0  0  0  0  0  0  0
   -1.4206   17.8101  -34.5555 H   0  0  0  0  0  0  0  0  0  0  0  0
   -3.8731   16.4578  -34.6877 H   0  0  0  0  0  0  0  0  0  0  0  0
   -2.7525   16.3790  -33.2971 H   0  0  0  0  0  0  0  0  0  0  0  0
   -6.2812   20.6701  -33.1837 H   0  0  0  0  0  0  0  0  0  0  0  0
   -5.6247   25.1386  -30.9031 H   0  0  0  0  0  0  0  0  0  0  0  0
  1  2  2  0
  2  3  1  0
  3  4  1  0
  4  5  2  0
  5  6  1  0
  6  7  2  0
  7  8  1  0
  8  9  1  0
  9 10  2  0
  9 11  2  0
  9 12  1  0
 12 13  2  0
 13 14  1  0
 14 15  2  0
 15 16  1  0
 16 17  1  0
 17 18  2  0
 17 19  2  0
 17 20  1  0
 20 21  1  0
 21 22  1  0
 22 23  1  0
 23 24  1  0
 16 25  2  0
  7 26  1  0
 26 27  2  0
 27 28  1  0
 28  2  1  0
 27  4  1  0
 25 12  1  0
 24 20  1  0
  5 29  1  0
  6 30  1  0
  8 31  1  0
 13 32  1  0
 14 33  1  0
 15 34  1  0
 21 35  1  0
 21 36  1  0
 22 37  1  0
 22 38  1  0
 23 39  1  0
 23 40  1  0
 24 41  1  0
 24 42  1  0
 25 43  1  0
 26 44  1  0
M  CHG  2   3  -1  28  -1
M  END
>  <UniqueID>  (3) 
3

>  <SMILES>  (3) 
O=c1[n-]c2ccc(NS(=O)(=O)c3cccc(S(=O)(=O)N4CCCC4)c3)cc2[n-]1

>  <Energy>  (3) 
84.40589312579422

>  <Genealogy>  (3) 
O=c1[n-]c2ccc(NS(=O)(=O)c3cccc(S(=O)(=O)N4CCCC4)c3)cc2[n-]1 (protonated)
O=c1[n-]c2ccc(NS(=O)(=O)c3cccc(S(=O)(=O)N4CCCC4)c3)cc2[n-]1 (3D coordinates assigned)
O=c1[n-]c2ccc(NS(=O)(=O)c3cccc(S(=O)(=O)N4CCCC4)c3)cc2[n-]1 (nonaromatic ring conformer: 84.40589312579422 kcal/mol)

>  <smiles>  (3) 
O=c1[nH]c2ccc(NS(=O)(=O)c3cccc(S(=O)(=O)N4CCCC4)c3)cc2[nH]1

>  <score_type>  (3) 
oracle

>  <origin>  (3) 
adgpu

>  <m_score__min__energy>  (3) 
-12.49

>  <m_primary>  (3) 
energy

$$$$
3:0
     RDKit          3D

 45 48  0  0  0  0  0  0  0  0999 V2000
   -2.0210   20.0520  -26.3330 C   0  0  0  0  0  0  0  0  0  0  0  0
   -1.5550   19.8070  -27.7090 N   0  0  0  0  0  0  0  0  0  0  0  0
   -0.1270   20.1340  -27.8900 C   0  0  0  0  0  0  0  0  0  0  0  0
    0.1590   21.6310  -27.7040 C   0  0  0  0  0  0  0  0  0  0  0  0
   -0.8530   22.4960  -28.4090 C   0  0  0  0  0  0  0  0  0  0  0  0
   -0.5880   23.8630  -28.5770 C   0  0  0  0  0  0  0  0  0  0  0  0
   -1.5280   24.7000  -29.1830 C   0  0  0  0  0  0  0  0  0  0  0  0
   -1.2390   26.0500  -29.3480 O   0  0  0  0  0  0  0  0  0  0  0  0
   -2.7550   24.1850  -29.6230 C   0  0  0  0  0  0  0  0  0  0  0  0
   -3.6910   25.0710  -30.2550 N   0  0  0  0  0  0  0  0  0  0  0  0
   -5.3760   24.7380  -30.5040 S   0  0  0  0  0  0  0  0  0  0  0  0
   -5.9870   25.8430  -31.3210 O   0  0  0  0  0  0  0  0  0  0  0  0
   -6.0710   24.6830  -29.1720 O   0  0  0  0  0  0  0  0  0  0  0  0
   -5.5660   23.1830  -31.3050 C   0  0  0  0  0  0  0  0  0  0  0  0
   -6.7720   22.4530  -31.1840 C   0  0  0  0  0  0  0  0  0  0  0  0
   -6.9240   21.2090  -31.8180 C   0  0  0  0  0  0  0  0  0  0  0  0
   -5.8570   20.7130  -32.5720 C   0  0  0  0  0  0  0  0  0  0  0  0
   -4.6760   21.4290  -32.6890 C   0  0  0  0  0  0  0  0  0  0  0  0
   -4.5000   22.6630  -32.0670 C   0  0  0  0  0  0  0  0  0  0  0  0
   -3.7480   20.6240  -33.4650 C   0  0  0  0  0  0  0  0  0  0  0  0
   -2.5660   20.9200  -33.7860 O   0  0  0  0  0  0  0  0  0  0  0  0
   -4.4640   19.3960  -33.7800 C   0  0  0  0  0  0  0  0  0  0  0  0
   -3.9880   18.4060  -34.3970 O   0  0  0  0  0  0  0  0  0  0  0  0
   -5.7950   19.4580  -33.2580 N   0  0  0  0  0  0  0  0  0  0  0  0
   -6.6880   18.3200  -33.0530 C   0  0  0  0  0  0  0  0  0  0  0  0
   -3.0280   22.8170  -29.4460 C   0  0  0  0  0  0  0  0  0  0  0  0
   -2.0940   21.9740  -28.8230 C   0  0  0  0  0  0  0  0  0  0  0  0
   -2.3960   20.4950  -28.7090 C   0  0  0  0  0  0  0  0  0  0  0  0
   -1.2796   19.6622  -25.6199 H   0  0  0  0  0  0  0  0  0  0  0  0
   -2.1477   21.1333  -26.1758 H   0  0  0  0  0  0  0  0  0  0  0  0
   -2.9836   19.5434  -26.1758 H   0  0  0  0  0  0  0  0  0  0  0  0
    0.4612   19.5678  -27.1529 H   0  0  0  0  0  0  0  0  0  0  0  0
    0.1507   19.8650  -28.9198 H   0  0  0  0  0  0  0  0  0  0  0  0
    0.1374   21.8648  -26.6294 H   0  0  0  0  0  0  0  0  0  0  0  0
    1.1463   21.8427  -28.1403 H   0  0  0  0  0  0  0  0  0  0  0  0
    0.3685   24.2797  -28.2285 H   0  0  0  0  0  0  0  0  0  0  0  0
   -7.5994   22.8642  -30.5870 H   0  0  0  0  0  0  0  0  0  0  0  0
   -7.8600   20.6390  -31.7234 H   0  0  0  0  0  0  0  0  0  0  0  0
   -3.5548   23.2167  -32.1677 H   0  0  0  0  0  0  0  0  0  0  0  0
   -6.8223   18.1489  -31.9747 H   0  0  0  0  0  0  0  0  0  0  0  0
   -7.6636   18.5316  -33.5150 H   0  0  0  0  0  0  0  0  0  0  0  0
   -6.2505   17.4227  -33.5150 H   0  0  0  0  0  0  0  0  0  0  0  0
   -3.9838   22.4028  -29.7995 H   0  0  0  0  0  0  0  0  0  0  0  0
   -3.4509   20.3743  -28.4217 H   0  0  0  0  0  0  0  0  0  0  0  0
   -2.1807   20.0401  -29.6871 H   0  0  0  0  0  0  0  0  0  0  0  0
  1  2  1  0
  2  3  1  0
  3  4  1  0
  4  5  1  0
  5  6  2  0
  6  7  1  0
  7  8  1  0
  7  9  2  0
  9 10  1  0
 10 11  1  0
 11 12  2  0
 11 13  2  0
 11 14  1  0
 14 15  2  0
 15 16  1  0
 16 17  2  0
 17 18  1  0
 18 19  2  0
 18 20  1  0
 20 21  2  0
 20 22  1  0
 22 23  2  0
 22 24  1  0
 24 25  1  0
  9 26  1  0
 26 27  2  0
 27 28  1  0
 28  2  1  0
 27  5  1  0
 19 14  1  0
 24 17  1  0
  1 29  1  0
  1 30  1  0
  1 31  1  0
  3 32  1  0
  3 33  1  0
  4 34  1  0
  4 35  1  0
  6 36  1  0
 15 37  1  0
 16 38  1  0
 19 39  1  0
 25 40  1  0
 25 41  1  0
 25 42  1  0
 26 43  1  0
 28 44  1  0
 28 45  1  0
M  CHG  2   8  -1  10  -1
M  END
>  <UniqueID>  (4) 
4

>  <SMILES>  (4) 
CN1CCc2cc([O-])c([N-]S(=O)(=O)c3ccc4c(c3)C(=O)C(=O)N4C)cc2C1

>  <Energy>  (4) 
88.01991684007021

>  <Genealogy>  (4) 
CN1CCc2cc([O-])c([N-]S(=O)(=O)c3ccc4c(c3)C(=O)C(=O)N4C)cc2C1 (protonated)
CN1CCc2cc([O-])c([N-]S(=O)(=O)c3ccc4c(c3)C(=O)C(=O)N4C)cc2C1 (3D coordinates assigned)
CN1CCc2cc([O-])c([N-]S(=O)(=O)c3ccc4c(c3)C(=O)C(=O)N4C)cc2C1 (nonaromatic ring conformer: 88.01991684007021 kcal/mol)

>  <smiles>  (4) 
CN1CCc2cc(O)c(NS(=O)(=O)c3ccc4c(c3)C(=O)C(=O)N4C)cc2C1

>  <score_type>  (4) 
oracle

>  <origin>  (4) 
adgpu

>  <m_score__min__energy>  (4) 
-14.84

>  <m_primary>  (4) 
energy

$$$$
4:0
     RDKit          3D

 48 51  0  0  0  0  0  0  0  0999 V2000
    2.8430   25.6892  -36.5568 H   0  0  0  0  0  0  0  0  0  0  0  0
    2.3890   24.7110  -36.3400 C   0  0  0  0  0  0  0  0  0  0  0  0
    1.3600   24.1860  -36.9720 O   0  0  0  0  0  0  0  0  0  0  0  0
    1.0630   23.0190  -36.4830 N   0  0  0  0  0  0  0  0  0  0  0  0
    0.2820   22.4180  -36.8240 H   0  0  0  0  0  0  0  0  0  0  0  0
    1.9360   22.7710  -35.4880 C   0  0  0  0  0  0  0  0  0  0  0  0
    1.9620   21.6970  -34.7590 N   0  0  0  0  0  0  0  0  0  0  0  0
    0.8660   20.3660  -34.9420 S   0  0  0  0  0  0  0  0  0  0  0  0
    0.4260   20.2810  -36.3760 O   0  0  0  0  0  0  0  0  0  0  0  0
    1.5730   19.0900  -34.5780 O   0  0  0  0  0  0  0  0  0  0  0  0
   -0.5540   20.6100  -33.9250 C   0  0  0  0  0  0  0  0  0  0  0  0
   -1.8400   20.4360  -34.4510 C   0  0  0  0  0  0  0  0  0  0  0  0
   -1.9662   20.1564  -35.5073 H   0  0  0  0  0  0  0  0  0  0  0  0
   -2.9640   20.6160  -33.6400 C   0  0  0  0  0  0  0  0  0  0  0  0
   -3.9704   20.4659  -34.0578 H   0  0  0  0  0  0  0  0  0  0  0  0
   -2.8140   20.9880  -32.2930 C   0  0  0  0  0  0  0  0  0  0  0  0
   -3.9160   21.1590  -31.4420 O   0  0  0  0  0  0  0  0  0  0  0  0
   -5.2200   20.7100  -31.7010 C   0  0  0  0  0  0  0  0  0  0  0  0
   -5.4490   19.4320  -32.2420 C   0  0  0  0  0  0  0  0  0  0  0  0
   -4.6003   18.7573  -32.4276 H   0  0  0  0  0  0  0  0  0  0  0  0
   -6.7460   19.0140  -32.5450 C   0  0  0  0  0  0  0  0  0  0  0  0
   -6.9165   18.0094  -32.9593 H   0  0  0  0  0  0  0  0  0  0  0  0
   -7.8270   19.8690  -32.3230 C   0  0  0  0  0  0  0  0  0  0  0  0
   -9.4560   19.3420  -32.7090 Cl  0  0  0  0  0  0  0  0  0  0  0  0
   -7.6120   21.1460  -31.7990 C   0  0  0  0  0  0  0  0  0  0  0  0
   -8.4662   21.8192  -31.6344 H   0  0  0  0  0  0  0  0  0  0  0  0
   -6.3110   21.5780  -31.4800 C   0  0  0  0  0  0  0  0  0  0  0  0
   -6.1100   22.9310  -30.9080 C   0  0  0  0  0  0  0  0  0  0  0  0
   -7.2110   23.7570  -30.6250 C   0  0  0  0  0  0  0  0  0  0  0  0
   -8.2309   23.3961  -30.8241 H   0  0  0  0  0  0  0  0  0  0  0  0
   -7.0180   25.0320  -30.0930 C   0  0  0  0  0  0  0  0  0  0  0  0
   -7.8857   25.6705  -29.8706 H   0  0  0  0  0  0  0  0  0  0  0  0
   -5.7270   25.5000  -29.8420 C   0  0  0  0  0  0  0  0  0  0  0  0
   -5.5831   26.5051  -29.4189 H   0  0  0  0  0  0  0  0  0  0  0  0
   -4.6140   24.6990  -30.1250 C   0  0  0  0  0  0  0  0  0  0  0  0
   -3.3380   25.2160  -29.8580 O   0  0  0  0  0  0  0  0  0  0  0  0
   -2.3690   24.5780  -29.0320 C   0  0  0  0  0  0  0  0  0  0  0  0
   -2.6219   24.7445  -27.9745 H   0  0  0  0  0  0  0  0  0  0  0  0
   -2.3622   23.4982  -29.2418 H   0  0  0  0  0  0  0  0  0  0  0  0
   -1.3744   24.9985  -29.2418 H   0  0  0  0  0  0  0  0  0  0  0  0
   -4.8110   23.4110  -30.6610 C   0  0  0  0  0  0  0  0  0  0  0  0
   -3.9422   22.7757  -30.8881 H   0  0  0  0  0  0  0  0  0  0  0  0
   -1.5280   21.1490  -31.7670 C   0  0  0  0  0  0  0  0  0  0  0  0
   -1.4015   21.4202  -30.7085 H   0  0  0  0  0  0  0  0  0  0  0  0
   -0.4020   20.9680  -32.5760 C   0  0  0  0  0  0  0  0  0  0  0  0
    0.8340   21.1420  -32.0430 F   0  0  0  0  0  0  0  0  0  0  0  0
    2.8050   23.8290  -35.3580 C   0  0  0  0  0  0  0  0  0  0  0  0
    3.6333   23.9462  -34.6437 H   0  0  0  0  0  0  0  0  0  0  0  0
  1  2  1  0
  2  3  1  0
  3  4  1  0
  4  5  1  0
  4  6  1  0
  6  7  2  0
  7  8  1  0
  8  9  2  0
  8 10  2  0
  8 11  1  0
 11 12  2  0
 12 13  1  0
 12 14  1  0
 14 15  1  0
 14 16  2  0
 16 17  1  0
 17 18  1  0
 18 19  2  0
 19 20  1  0
 19 21  1  0
 21 22  1  0
 21 23  2  0
 23 24  1  0
 23 25  1  0
 25 26  1  0
 25 27  2  0
 27 28  1  0
 28 29  2  0
 29 30  1  0
 29 31  1  0
 31 32  1  0
 31 33  2  0
 33 34  1  0
 33 35  1  0
 35 36  1  0
 36 37  1  0
 37 38  1  0
 37 39  1  0
 37 40  1  0
 35 41  2  0
 41 42  1  0
 16 43  1  0
 43 44  1  0
 43 45  2  0
 45 46  1  0
  6 47  1  0
 47 48  1  0
 47  2  2  0
 45 11  1  0
 27 18  1  0
 41 28  1  0
M  END
>  <UniqueID>  (5) 
5

>  <SMILES>  (5) 
COc1cccc(-c2cc(Cl)ccc2Oc2ccc(S(=O)(=O)/N=c3/cco[nH]3)c(F)c2)c1

>  <Energy>  (5) 
99.71113187610156

>  <Genealogy>  (5) 
COc1cccc(-c2cc(Cl)ccc2Oc2ccc(S(=O)(=O)/N=c3/cco[nH]3)c(F)c2)c1 (cis-trans isomerization)
COc1cccc(-c2cc(Cl)ccc2Oc2ccc(S(=O)(=O)/N=c3/cco[nH]3)c(F)c2)c1 (3D coordinates assigned)
COc1cccc(-c2cc(Cl)ccc2Oc2ccc(S(=O)(=O)/N=c3/cco[nH]3)c(F)c2)c1 (optimized conformer: 99.71113187610156 kcal/mol)

>  <smiles>  (5) 
COc1cccc(-c2cc(Cl)ccc2Oc2ccc(S(=O)(=O)N=c3cco[nH]3)c(F)c2)c1

>  <score_type>  (5) 
oracle

>  <origin>  (5) 
adgpu

>  <m_score__min__energy>  (5) 
-10.029999999999999

>  <m_primary>  (5) 
energy

$$$$
5:0
     RDKit          3D

 53 56  0  0  0  0  0  0  0  0999 V2000
   -5.3670   26.4280  -30.4460 O   0  0  0  0  0  0  0  0  0  0  0  0
   -5.0640   25.2060  -30.4670 C   0  0  0  0  0  0  0  0  0  0  0  0
   -3.6780   24.8370  -30.4710 N   0  0  0  0  0  0  0  0  0  0  0  0
   -3.1570   23.5010  -30.4250 C   0  0  0  0  0  0  0  0  0  0  0  0
   -3.1630   22.6830  -31.5680 C   0  0  0  0  0  0  0  0  0  0  0  0
   -2.6930   21.3650  -31.5050 C   0  0  0  0  0  0  0  0  0  0  0  0
   -2.6930   20.3520  -32.9520 S   0  0  0  0  0  0  0  0  0  0  0  0
   -1.7830   20.9640  -33.9810 O   0  0  0  0  0  0  0  0  0  0  0  0
   -2.1530   18.9920  -32.6060 O   0  0  0  0  0  0  0  0  0  0  0  0
   -4.2980   20.1880  -33.6270 N   0  0  0  0  0  0  0  0  0  0  0  0
   -5.3200   20.8280  -32.7680 C   0  0  0  0  0  0  0  0  0  0  0  0
   -6.1430   19.7920  -31.9810 C   0  0  0  0  0  0  0  0  0  0  0  0
   -6.8160   18.8590  -32.8150 O   0  0  0  0  0  0  0  0  0  0  0  0
   -6.1100   18.5410  -34.0090 C   0  0  0  0  0  0  0  0  0  0  0  0
   -4.5930   18.7720  -33.9190 C   0  0  0  0  0  0  0  0  0  0  0  0
   -2.2310   20.8550  -30.2850 C   0  0  0  0  0  0  0  0  0  0  0  0
   -2.2530   21.6500  -29.1370 C   0  0  0  0  0  0  0  0  0  0  0  0
   -2.7140   22.9700  -29.1990 C   0  0  0  0  0  0  0  0  0  0  0  0
   -2.7160   23.7670  -28.0070 N   0  0  0  0  0  0  0  0  0  0  0  0
   -3.8620   23.7200  -27.0960 C   0  0  0  0  0  0  0  0  0  0  0  0
   -3.9580   25.0410  -26.3290 C   0  0  0  0  0  0  0  0  0  0  0  0
   -2.7210   25.3560  -25.7160 O   0  0  0  0  0  0  0  0  0  0  0  0
   -1.7410   25.6000  -26.7090 C   0  0  0  0  0  0  0  0  0  0  0  0
   -1.4580   24.3310  -27.5200 C   0  0  0  0  0  0  0  0  0  0  0  0
   -6.1340   24.1970  -30.5590 C   0  0  0  0  0  0  0  0  0  0  0  0
   -6.3000   23.1150  -29.7100 C   0  0  0  0  0  0  0  0  0  0  0  0
   -7.4170   22.4450  -30.1640 C   0  0  0  0  0  0  0  0  0  0  0  0
   -7.8580   23.1670  -31.2550 C   0  0  0  0  0  0  0  0  0  0  0  0
   -8.9950   22.8470  -32.0590 N   0  0  0  0  0  0  0  0  0  0  0  0
   -9.6420   23.7580  -32.6140 O   0  0  0  0  0  0  0  0  0  0  0  0
   -9.3810   21.5380  -32.2300 O   0  0  0  0  0  0  0  0  0  0  0  0
   -7.0840   24.2050  -31.4670 O   0  0  0  0  0  0  0  0  0  0  0  0
   -3.5404   23.0817  -32.5212 H   0  0  0  0  0  0  0  0  0  0  0  0
   -4.8161   21.4971  -32.0549 H   0  0  0  0  0  0  0  0  0  0  0  0
   -6.0093   21.3862  -33.4186 H   0  0  0  0  0  0  0  0  0  0  0  0
   -5.4639   19.2391  -31.3154 H   0  0  0  0  0  0  0  0  0  0  0  0
   -6.9127   20.3438  -31.4215 H   0  0  0  0  0  0  0  0  0  0  0  0
   -6.2851   17.4804  -34.2423 H   0  0  0  0  0  0  0  0  0  0  0  0
   -6.4886   19.2150  -34.7915 H   0  0  0  0  0  0  0  0  0  0  0  0
   -4.1790   18.1439  -33.1165 H   0  0  0  0  0  0  0  0  0  0  0  0
   -4.1368   18.5072  -34.8843 H   0  0  0  0  0  0  0  0  0  0  0  0
   -1.8495   19.8247  -30.2309 H   0  0  0  0  0  0  0  0  0  0  0  0
   -1.9060   21.2364  -28.1786 H   0  0  0  0  0  0  0  0  0  0  0  0
   -4.7844   23.5641  -27.6747 H   0  0  0  0  0  0  0  0  0  0  0  0
   -3.7313   22.8913  -26.3845 H   0  0  0  0  0  0  0  0  0  0  0  0
   -4.2294   25.8455  -27.0284 H   0  0  0  0  0  0  0  0  0  0  0  0
   -4.7245   24.9402  -25.5464 H   0  0  0  0  0  0  0  0  0  0  0  0
   -2.1028   26.3874  -27.3865 H   0  0  0  0  0  0  0  0  0  0  0  0
   -0.8106   25.9166  -26.2149 H   0  0  0  0  0  0  0  0  0  0  0  0
   -0.8133   24.5801  -28.3758 H   0  0  0  0  0  0  0  0  0  0  0  0
   -0.9522   23.5940  -26.8789 H   0  0  0  0  0  0  0  0  0  0  0  0
   -5.6699   22.8453  -28.8497 H   0  0  0  0  0  0  0  0  0  0  0  0
   -7.8618   21.5300  -29.7457 H   0  0  0  0  0  0  0  0  0  0  0  0
  1  2  2  0
  2  3  1  0
  3  4  1  0
  4  5  2  0
  5  6  1  0
  6  7  1  0
  7  8  2  0
  7  9  2  0
  7 10  1  0
 10 11  1  0
 11 12  1  0
 12 13  1  0
 13 14  1  0
 14 15  1  0
  6 16  2  0
 16 17  1  0
 17 18  2  0
 18 19  1  0
 19 20  1  0
 20 21  1  0
 21 22  1  0
 22 23  1  0
 23 24  1  0
  2 25  1  0
 25 26  2  0
 26 27  1  0
 27 28  2  0
 28 29  1  0
 29 30  2  0
 29 31  1  0
 28 32  1  0
 18  4  1  0
 24 19  1  0
 32 25  1  0
 15 10  1  0
  5 33  1  0
 11 34  1  0
 11 35  1  0
 12 36  1  0
 12 37  1  0
 14 38  1  0
 14 39  1  0
 15 40  1  0
 15 41  1  0
 16 42  1  0
 17 43  1  0
 20 44  1  0
 20 45  1  0
 21 46  1  0
 21 47  1  0
 23 48  1  0
 23 49  1  0
 24 50  1  0
 24 51  1  0
 26 52  1  0
 27 53  1  0
M  CHG  3   3  -1  29   1  31  -1
M  END
>  <UniqueID>  (6) 
6

>  <SMILES>  (6) 
O=C([N-]c1cc(S(=O)(=O)N2CCOCC2)ccc1N1CCOCC1)c1ccc([N+](=O)[O-])o1

>  <Energy>  (6) 
102.38026439514768

>  <Genealogy>  (6) 
O=C([N-]c1cc(S(=O)(=O)N2CCOCC2)ccc1N1CCOCC1)c1ccc([N+](=O)[O-])o1 (protonated)
O=C([N-]c1cc(S(=O)(=O)N2CCOCC2)ccc1N1CCOCC1)c1ccc([N+](=O)[O-])o1 (3D coordinates assigned)
O=C([N-]c1cc(S(=O)(=O)N2CCOCC2)ccc1N1CCOCC1)c1ccc([N+](=O)[O-])o1 (nonaromatic ring conformer: 102.38026439514768 kcal/mol)

>  <smiles>  (6) 
O=C(Nc1cc(S(=O)(=O)N2CCOCC2)ccc1N1CCOCC1)c1ccc([N+](=O)[O-])o1

>  <score_type>  (6) 
oracle

>  <origin>  (6) 
adgpu

>  <m_score__min__energy>  (6) 
-10.050000000000001

>  <m_primary>  (6) 
energy

$$$$
6:0
     RDKit          3D

 45 48  0  0  0  0  0  0  0  0999 V2000
   -5.6690   24.9180  -31.5940 O   0  0  0  0  0  0  0  0  0  0  0  0
   -5.2930   24.0660  -30.7450 C   0  0  0  0  0  0  0  0  0  0  0  0
   -6.2340   23.1520  -30.1660 N   0  0  0  0  0  0  0  0  0  0  0  0
   -7.1150   22.2670  -30.8740 C   0  0  0  0  0  0  0  0  0  0  0  0
   -8.3820   22.7340  -31.2390 C   0  0  0  0  0  0  0  0  0  0  0  0
   -9.2670   21.9060  -31.9370 C   0  0  0  0  0  0  0  0  0  0  0  0
   -8.8830   20.6110  -32.2890 C   0  0  0  0  0  0  0  0  0  0  0  0
   -7.6050   20.1410  -31.9610 C   0  0  0  0  0  0  0  0  0  0  0  0
   -7.1330   18.5060  -32.4180 S   0  0  0  0  0  0  0  0  0  0  0  0
   -8.3230   17.5880  -32.3400 O   0  0  0  0  0  0  0  0  0  0  0  0
   -6.0910   18.0210  -31.4490 O   0  0  0  0  0  0  0  0  0  0  0  0
   -6.4770   18.5090  -34.0400 N   0  0  0  0  0  0  0  0  0  0  0  0
   -5.2350   19.2890  -34.1050 C   0  0  0  0  0  0  0  0  0  0  0  0
   -4.0730   18.3240  -33.9090 C   0  0  0  0  0  0  0  0  0  0  0  0
   -4.6480   16.9370  -34.1430 C   0  0  0  0  0  0  0  0  0  0  0  0
   -6.1180   17.1530  -34.4720 C   0  0  0  0  0  0  0  0  0  0  0  0
   -6.7200   20.9710  -31.2570 C   0  0  0  0  0  0  0  0  0  0  0  0
   -3.8780   24.0480  -30.3260 C   0  0  0  0  0  0  0  0  0  0  0  0
   -3.3840   25.1780  -29.7530 N   0  0  0  0  0  0  0  0  0  0  0  0
   -2.1410   25.2520  -29.2800 N   0  0  0  0  0  0  0  0  0  0  0  0
   -1.2900   24.1990  -29.3400 C   0  0  0  0  0  0  0  0  0  0  0  0
   -0.1280   24.3180  -28.8650 O   0  0  0  0  0  0  0  0  0  0  0  0
   -1.7130   23.0010  -29.9380 C   0  0  0  0  0  0  0  0  0  0  0  0
   -0.8510   21.8930  -30.0400 C   0  0  0  0  0  0  0  0  0  0  0  0
   -1.2720   20.7280  -30.6790 C   0  0  0  0  0  0  0  0  0  0  0  0
   -2.5490   20.6580  -31.2350 C   0  0  0  0  0  0  0  0  0  0  0  0
   -3.4200   21.7460  -31.1380 C   0  0  0  0  0  0  0  0  0  0  0  0
   -3.0290   22.9220  -30.4620 C   0  0  0  0  0  0  0  0  0  0  0  0
   -8.6840   23.7584  -30.9755 H   0  0  0  0  0  0  0  0  0  0  0  0
  -10.2667   22.2757  -32.2089 H   0  0  0  0  0  0  0  0  0  0  0  0
   -9.5864   19.9574  -32.8258 H   0  0  0  0  0  0  0  0  0  0  0  0
   -7.1950   18.9170  -34.6850 H   0  0  0  0  0  0  0  0  0  0  0  0
   -5.1523   19.7812  -35.0853 H   0  0  0  0  0  0  0  0  0  0  0  0
   -5.2264   20.0664  -33.3268 H   0  0  0  0  0  0  0  0  0  0  0  0
   -3.2727   18.5349  -34.6336 H   0  0  0  0  0  0  0  0  0  0  0  0
   -3.6320   18.4172  -32.9056 H   0  0  0  0  0  0  0  0  0  0  0  0
   -4.1349   16.4454  -34.9827 H   0  0  0  0  0  0  0  0  0  0  0  0
   -4.5189   16.2894  -33.2633 H   0  0  0  0  0  0  0  0  0  0  0  0
   -6.2786   17.0500  -35.5553 H   0  0  0  0  0  0  0  0  0  0  0  0
   -6.7417   16.4069  -33.9579 H   0  0  0  0  0  0  0  0  0  0  0  0
   -5.7132   20.6078  -31.0031 H   0  0  0  0  0  0  0  0  0  0  0  0
    0.1612   21.9468  -29.6128 H   0  0  0  0  0  0  0  0  0  0  0  0
   -0.5961   19.8627  -30.7448 H   0  0  0  0  0  0  0  0  0  0  0  0
   -2.8718   19.7423  -31.7521 H   0  0  0  0  0  0  0  0  0  0  0  0
   -4.4198   21.6857  -31.5926 H   0  0  0  0  0  0  0  0  0  0  0  0
  1  2  2  0
  2  3  1  0
  3  4  1  0
  4  5  2  0
  5  6  1  0
  6  7  2  0
  7  8  1  0
  8  9  1  0
  9 10  2  0
  9 11  2  0
  9 12  1  0
 12 13  1  0
 13 14  1  0
 14 15  1  0
 15 16  1  0
  8 17  2  0
  2 18  1  0
 18 19  2  0
 19 20  1  0
 20 21  1  0
 21 22  2  0
 21 23  1  0
 23 24  2  0
 24 25  1  0
 25 26  2  0
 26 27  1  0
 27 28  2  0
 17  4  1  0
 28 18  1  0
 16 12  1  0
 28 23  1  0
  5 29  1  0
  6 30  1  0
  7 31  1  0
 12 32  1  0
 13 33  1  0
 13 34  1  0
 14 35  1  0
 14 36  1  0
 15 37  1  0
 15 38  1  0
 16 39  1  0
 16 40  1  0
 17 41  1  0
 24 42  1  0
 25 43  1  0
 26 44  1  0
 27 45  1  0
M  CHG  3   3  -1  12   1  20  -1
M  END
>  <UniqueID>  (7) 
7

>  <SMILES>  (7) 
O=C([N-]c1cccc(S(=O)(=O)[NH+]2CCCC2)c1)c1n[n-]c(=O)c2ccccc12

>  <Energy>  (7) 
65.52251048434235

>  <Genealogy>  (7) 
O=C([N-]c1cccc(S(=O)(=O)[NH+]2CCCC2)c1)c1n[n-]c(=O)c2ccccc12 (protonated)
O=C([N-]c1cccc(S(=O)(=O)[NH+]2CCCC2)c1)c1n[n-]c(=O)c2ccccc12 (3D coordinates assigned)
O=C([N-]c1cccc(S(=O)(=O)[NH+]2CCCC2)c1)c1n[n-]c(=O)c2ccccc12 (nonaromatic ring conformer: 65.52251048434235 kcal/mol)

>  <smiles>  (7) 
O=C(Nc1cccc(S(=O)(=O)N2CCCC2)c1)c1n[nH]c(=O)c2ccccc12

>  <score_type>  (7) 
oracle

>  <origin>  (7) 
adgpu

>  <m_score__min__energy>  (7) 
-11.93

>  <m_primary>  (7) 
energy

$$$$
7:0
     RDKit          3D

 59 61  0  0  0  0  0  0  0  0999 V2000
   -1.2530   25.8710  -28.6130 C   0  0  0  0  0  0  0  0  0  0  0  0
   -1.7460   24.5830  -29.0890 N   0  0  0  0  0  0  0  0  0  0  0  0
   -1.1290   23.4360  -28.8630 N   0  0  0  0  0  0  0  0  0  0  0  0
   -1.9080   22.4430  -29.3500 C   0  0  0  0  0  0  0  0  0  0  0  0
   -1.5070   20.9780  -29.3180 C   0  0  0  0  0  0  0  0  0  0  0  0
   -0.0220   20.8100  -28.9300 C   0  0  0  0  0  0  0  0  0  0  0  0
   -1.7220   20.3620  -30.7160 C   0  0  0  0  0  0  0  0  0  0  0  0
   -2.3880   20.2450  -28.2920 C   0  0  0  0  0  0  0  0  0  0  0  0
   -3.0510   22.9850  -29.9230 C   0  0  0  0  0  0  0  0  0  0  0  0
   -2.9240   24.3440  -29.6950 C   0  0  0  0  0  0  0  0  0  0  0  0
   -3.7860   25.2770  -29.9880 N   0  0  0  0  0  0  0  0  0  0  0  0
   -5.1060   25.0830  -30.5170 C   0  0  0  0  0  0  0  0  0  0  0  0
   -6.0910   25.4980  -29.8570 O   0  0  0  0  0  0  0  0  0  0  0  0
   -5.3420   24.3910  -31.7530 N   0  0  0  0  0  0  0  0  0  0  0  0
   -5.8730   23.0650  -31.8850 C   0  0  0  0  0  0  0  0  0  0  0  0
   -7.2620   22.8860  -31.8600 C   0  0  0  0  0  0  0  0  0  0  0  0
   -7.8140   21.6130  -32.0280 C   0  0  0  0  0  0  0  0  0  0  0  0
   -6.9820   20.4980  -32.1970 C   0  0  0  0  0  0  0  0  0  0  0  0
   -7.6770   18.8960  -32.4350 S   0  0  0  0  0  0  0  0  0  0  0  0
   -9.1470   19.0410  -32.7250 O   0  0  0  0  0  0  0  0  0  0  0  0
   -7.5390   18.1080  -31.1620 O   0  0  0  0  0  0  0  0  0  0  0  0
   -6.9140   18.0200  -33.7430 N   0  0  0  0  0  0  0  0  0  0  0  0
   -6.4170   16.6920  -33.3360 C   0  0  0  0  0  0  0  0  0  0  0  0
   -4.9840   16.7020  -32.7500 C   0  0  0  0  0  0  0  0  0  0  0  0
   -4.1340   17.8080  -33.2580 N   0  0  0  0  0  0  0  0  0  0  0  0
   -2.7160   17.4080  -33.2720 C   0  0  0  0  0  0  0  0  0  0  0  0
   -4.5580   18.2440  -34.5980 C   0  0  0  0  0  0  0  0  0  0  0  0
   -5.9670   18.8460  -34.5280 C   0  0  0  0  0  0  0  0  0  0  0  0
   -5.5910   20.6730  -32.2060 C   0  0  0  0  0  0  0  0  0  0  0  0
   -5.0380   21.9460  -32.0410 C   0  0  0  0  0  0  0  0  0  0  0  0
   -1.2501   25.8787  -27.5130 H   0  0  0  0  0  0  0  0  0  0  0  0
   -0.2298   26.0316  -28.9835 H   0  0  0  0  0  0  0  0  0  0  0  0
   -1.9074   26.6738  -28.9835 H   0  0  0  0  0  0  0  0  0  0  0  0
    0.0717   20.7994  -27.8340 H   0  0  0  0  0  0  0  0  0  0  0  0
    0.3592   19.8630  -29.3398 H   0  0  0  0  0  0  0  0  0  0  0  0
    0.5611   21.6479  -29.3398 H   0  0  0  0  0  0  0  0  0  0  0  0
   -2.0828   19.3283  -30.6097 H   0  0  0  0  0  0  0  0  0  0  0  0
   -2.4662   20.9552  -31.2676 H   0  0  0  0  0  0  0  0  0  0  0  0
   -0.7703   20.3633  -31.2676 H   0  0  0  0  0  0  0  0  0  0  0  0
   -2.0662   20.5127  -27.2747 H   0  0  0  0  0  0  0  0  0  0  0  0
   -3.4383   20.5395  -28.4338 H   0  0  0  0  0  0  0  0  0  0  0  0
   -2.2894   19.1586  -28.4338 H   0  0  0  0  0  0  0  0  0  0  0  0
   -3.8671   22.4571  -30.4381 H   0  0  0  0  0  0  0  0  0  0  0  0
   -7.9223   23.7524  -31.7072 H   0  0  0  0  0  0  0  0  0  0  0  0
   -8.9066   21.4857  -32.0276 H   0  0  0  0  0  0  0  0  0  0  0  0
   -7.0986   16.2876  -32.5732 H   0  0  0  0  0  0  0  0  0  0  0  0
   -6.3816   16.0755  -34.2463 H   0  0  0  0  0  0  0  0  0  0  0  0
   -5.0577   16.7960  -31.6565 H   0  0  0  0  0  0  0  0  0  0  0  0
   -4.5050   15.7621  -33.0618 H   0  0  0  0  0  0  0  0  0  0  0  0
   -4.2140   18.6200  -32.6040 H   0  0  0  0  0  0  0  0  0  0  0  0
   -2.3536   17.3058  -32.2384 H   0  0  0  0  0  0  0  0  0  0  0  0
   -2.6117   16.4454  -33.7940 H   0  0  0  0  0  0  0  0  0  0  0  0
   -2.1240   18.1742  -33.7940 H   0  0  0  0  0  0  0  0  0  0  0  0
   -3.8555   19.0021  -34.9744 H   0  0  0  0  0  0  0  0  0  0  0  0
   -4.5670   17.3774  -35.2755 H   0  0  0  0  0  0  0  0  0  0  0  0
   -5.9001   19.8401  -34.0619 H   0  0  0  0  0  0  0  0  0  0  0  0
   -6.3526   18.8984  -35.5569 H   0  0  0  0  0  0  0  0  0  0  0  0
   -4.9312   19.8037  -32.3437 H   0  0  0  0  0  0  0  0  0  0  0  0
   -3.9453   22.0721  -32.0333 H   0  0  0  0  0  0  0  0  0  0  0  0
  1  2  1  0
  2  3  1  0
  3  4  1  0
  4  5  1  0
  5  6  1  0
  5  7  1  0
  5  8  1  0
  4  9  2  0
  9 10  1  0
 10 11  2  3
 11 12  1  0
 12 13  2  0
 12 14  1  0
 14 15  1  0
 15 16  2  0
 16 17  1  0
 17 18  2  0
 18 19  1  0
 19 20  2  0
 19 21  2  0
 19 22  1  0
 22 23  1  0
 23 24  1  0
 24 25  1  0
 25 26  1  0
 25 27  1  0
 27 28  1  0
 18 29  1  0
 29 30  2  0
 10  2  1  0
 30 15  1  0
 28 22  1  0
  1 31  1  0
  1 32  1  0
  1 33  1  0
  6 34  1  0
  6 35  1  0
  6 36  1  0
  7 37  1  0
  7 38  1  0
  7 39  1  0
  8 40  1  0
  8 41  1  0
  8 42  1  0
  9 43  1  0
 16 44  1  0
 17 45  1  0
 23 46  1  0
 23 47  1  0
 24 48  1  0
 24 49  1  0
 25 50  1  0
 26 51  1  0
 26 52  1  0
 26 53  1  0
 27 54  1  0
 27 55  1  0
 28 56  1  0
 28 57  1  0
 29 58  1  0
 30 59  1  0
M  CHG  3   3  -1  14  -1  25   1
M  END
>  <UniqueID>  (8) 
8

>  <SMILES>  (8) 
Cn1[n-]c(C(C)(C)C)cc1=NC(=O)[N-]c1ccc(S(=O)(=O)N2CC[NH+](C)CC2)cc1

>  <Energy>  (8) 
104.79431294861196

>  <Genealogy>  (8) 
Cn1[n-]c(C(C)(C)C)cc1=NC(=O)[N-]c1ccc(S(=O)(=O)N2CC[NH+](C)CC2)cc1 (protonated)
Cn1[n-]c(C(C)(C)C)cc1=NC(=O)[N-]c1ccc(S(=O)(=O)N2CC[NH+](C)CC2)cc1 (3D coordinates assigned)
Cn1[n-]c(C(C)(C)C)cc1=NC(=O)[N-]c1ccc(S(=O)(=O)N2CC[NH+](C)CC2)cc1 (nonaromatic ring conformer: 104.79431294861196 kcal/mol)

>  <smiles>  (8) 
CN1CCN(S(=O)(=O)c2ccc(NC(=O)N=c3cc(C(C)(C)C)[nH]n3C)cc2)CC1

>  <score_type>  (8) 
oracle

>  <origin>  (8) 
adgpu

>  <m_score__min__energy>  (8) 
-10.51

>  <m_primary>  (8) 
energy

$$$$
8:0
     RDKit          3D

 80 84  0  0  0  0  0  0  0  0999 V2000
   -6.7680   24.4280  -29.9620 C   0  0  0  0  0  0  0  0  0  0  0  0
   -5.2930   24.1230  -29.9300 C   0  0  0  0  0  0  0  0  0  0  0  0
   -4.5400   24.5500  -28.8190 C   0  0  0  0  0  0  0  0  0  0  0  0
   -3.1590   24.3040  -28.7400 C   0  0  0  0  0  0  0  0  0  0  0  0
   -2.3880   24.7790  -27.6130 N   0  0  0  0  0  0  0  0  0  0  0  0
   -0.9750   25.1510  -27.7840 C   0  0  0  0  0  0  0  0  0  0  0  0
   -0.1250   24.7340  -26.5720 C   0  0  0  0  0  0  0  0  0  0  0  0
   -0.8560   24.7950  -25.1910 C   0  0  0  0  0  0  0  0  0  0  0  0
    0.0590   25.2430  -24.0900 N   0  0  0  0  0  0  0  0  0  0  0  0
   -0.4730   26.4300  -23.3520 C   0  0  0  0  0  0  0  0  0  0  0  0
    0.0850   27.7510  -23.9020 C   0  0  0  0  0  0  0  0  0  0  0  0
    1.5490   27.8350  -23.7000 N   0  0  0  0  0  0  0  0  0  0  0  0
    2.1460   28.7720  -24.6660 C   0  0  0  0  0  0  0  0  0  0  0  0
    2.2190   26.5120  -23.7380 C   0  0  0  0  0  0  0  0  0  0  0  0
    1.4440   25.4920  -24.5930 C   0  0  0  0  0  0  0  0  0  0  0  0
   -2.1140   25.6970  -25.3160 C   0  0  0  0  0  0  0  0  0  0  0  0
   -3.0750   25.1140  -26.3550 C   0  0  0  0  0  0  0  0  0  0  0  0
   -2.5410   23.5840  -29.7750 C   0  0  0  0  0  0  0  0  0  0  0  0
   -3.2810   23.1300  -30.8650 C   0  0  0  0  0  0  0  0  0  0  0  0
   -4.6560   23.3930  -30.9660 C   0  0  0  0  0  0  0  0  0  0  0  0
   -5.3880   22.9200  -32.2060 C   0  0  0  0  0  0  0  0  0  0  0  0
   -5.4360   21.4130  -32.2670 C   0  0  0  0  0  0  0  0  0  0  0  0
   -5.7320   20.7720  -31.2270 O   0  0  0  0  0  0  0  0  0  0  0  0
   -5.1950   20.6720  -33.4700 N   0  0  0  0  0  0  0  0  0  0  0  0
   -4.1020   19.7340  -33.7400 C   0  0  1  0  0  0  0  0  0  0  0  0
   -2.8150   20.1760  -33.0510 C   0  0  0  0  0  0  0  0  0  0  0  0
   -1.8010   20.8160  -33.7940 C   0  0  0  0  0  0  0  0  0  0  0  0
   -0.6270   21.2520  -33.1720 C   0  0  0  0  0  0  0  0  0  0  0  0
   -0.4570   21.0840  -31.7970 C   0  0  0  0  0  0  0  0  0  0  0  0
   -1.4690   20.4940  -31.0350 C   0  0  0  0  0  0  0  0  0  0  0  0
   -1.2700   20.3240  -29.3000 Cl  0  0  0  0  0  0  0  0  0  0  0  0
   -2.6460   20.0500  -31.6530 C   0  0  0  0  0  0  0  0  0  0  0  0
   -4.5050   18.3220  -33.3310 C   0  0  0  0  0  0  0  0  0  0  0  0
   -5.6780   18.1610  -32.5650 C   0  0  0  0  0  0  0  0  0  0  0  0
   -6.1020   16.8950  -32.1610 C   0  0  0  0  0  0  0  0  0  0  0  0
   -5.3710   15.7640  -32.5140 C   0  0  0  0  0  0  0  0  0  0  0  0
   -4.2120   15.8930  -33.2800 C   0  0  0  0  0  0  0  0  0  0  0  0
   -3.7680   17.1610  -33.7080 C   0  0  0  0  0  0  0  0  0  0  0  0
   -2.4970   17.2370  -34.5180 C   0  0  0  0  0  0  0  0  0  0  0  0
   -7.1486   24.5067  -28.9329 H   0  0  0  0  0  0  0  0  0  0  0  0
   -6.9343   25.3795  -30.4882 H   0  0  0  0  0  0  0  0  0  0  0  0
   -7.2981   23.6205  -30.4882 H   0  0  0  0  0  0  0  0  0  0  0  0
   -5.0416   25.0852  -27.9993 H   0  0  0  0  0  0  0  0  0  0  0  0
   -0.5819   24.6535  -28.6829 H   0  0  0  0  0  0  0  0  0  0  0  0
   -0.9184   26.2452  -27.8816 H   0  0  0  0  0  0  0  0  0  0  0  0
    0.2118   23.6993  -26.7329 H   0  0  0  0  0  0  0  0  0  0  0  0
    0.6983   25.4611  -26.5130 H   0  0  0  0  0  0  0  0  0  0  0  0
   -1.1787   23.7806  -24.9138 H   0  0  0  0  0  0  0  0  0  0  0  0
    0.1250   24.4560  -23.4000 H   0  0  0  0  0  0  0  0  0  0  0  0
   -1.5691   26.4425  -23.4438 H   0  0  0  0  0  0  0  0  0  0  0  0
   -0.1611   26.3425  -22.3008 H   0  0  0  0  0  0  0  0  0  0  0  0
   -0.1335   27.8131  -24.9783 H   0  0  0  0  0  0  0  0  0  0  0  0
   -0.3909   28.5833  -23.3628 H   0  0  0  0  0  0  0  0  0  0  0  0
    2.6603   29.5792  -24.1239 H   0  0  0  0  0  0  0  0  0  0  0  0
    2.8693   28.2358  -25.2979 H   0  0  0  0  0  0  0  0  0  0  0  0
    1.3544   29.2010  -25.2979 H   0  0  0  0  0  0  0  0  0  0  0  0
    3.2263   26.6370  -24.1620 H   0  0  0  0  0  0  0  0  0  0  0  0
    2.2630   26.1260  -22.7089 H   0  0  0  0  0  0  0  0  0  0  0  0
    1.3799   25.8740  -25.6225 H   0  0  0  0  0  0  0  0  0  0  0  0
    1.9893   24.5380  -24.5430 H   0  0  0  0  0  0  0  0  0  0  0  0
   -2.6210   25.7522  -24.3414 H   0  0  0  0  0  0  0  0  0  0  0  0
   -1.8061   26.7041  -25.6339 H   0  0  0  0  0  0  0  0  0  0  0  0
   -3.5305   24.2007  -25.9447 H   0  0  0  0  0  0  0  0  0  0  0  0
   -3.8388   25.8740  -26.5763 H   0  0  0  0  0  0  0  0  0  0  0  0
   -1.4620   23.3763  -29.7249 H   0  0  0  0  0  0  0  0  0  0  0  0
   -2.7797   22.5566  -31.6586 H   0  0  0  0  0  0  0  0  0  0  0  0
   -6.4157   23.3117  -32.1878 H   0  0  0  0  0  0  0  0  0  0  0  0
   -4.8494   23.2885  -33.0915 H   0  0  0  0  0  0  0  0  0  0  0  0
   -3.9028   19.7298  -34.8218 H   0  0  0  0  0  0  0  0  0  0  0  0
   -1.9353   20.9738  -34.8743 H   0  0  0  0  0  0  0  0  0  0  0  0
    0.1649   21.7288  -33.7682 H   0  0  0  0  0  0  0  0  0  0  0  0
    0.4734   21.4159  -31.3131 H   0  0  0  0  0  0  0  0  0  0  0  0
   -3.4448   19.5998  -31.0453 H   0  0  0  0  0  0  0  0  0  0  0  0
   -6.2668   19.0460  -32.2821 H   0  0  0  0  0  0  0  0  0  0  0  0
   -7.0179   16.7898  -31.5609 H   0  0  0  0  0  0  0  0  0  0  0  0
   -5.7073   14.7684  -32.1889 H   0  0  0  0  0  0  0  0  0  0  0  0
   -3.6381   14.9952  -33.5531 H   0  0  0  0  0  0  0  0  0  0  0  0
   -1.6325   17.2887  -33.8398 H   0  0  0  0  0  0  0  0  0  0  0  0
   -2.4124   16.3423  -35.1523 H   0  0  0  0  0  0  0  0  0  0  0  0
   -2.5196   18.1354  -35.1523 H   0  0  0  0  0  0  0  0  0  0  0  0
  1  2  1  0
  2  3  2  0
  3  4  1  0
  4  5  1  0
  5  6  1  0
  6  7  1  0
  7  8  1  0
  8  9  1  0
  9 10  1  0
 10 11  1  0
 11 12  1  0
 12 13  1  0
 12 14  1  0
 14 15  1  0
  8 16  1  0
 16 17  1  0
  4 18  2  0
 18 19  1  0
 19 20  2  0
 20 21  1  0
 21 22  1  0
 22 23  2  0
 22 24  1  0
 24 25  1  0
 25 26  1  0
 26 27  2  0
 27 28  1  0
 28 29  2  0
 29 30  1  0
 30 31  1  0
 30 32  2  0
 25 33  1  0
 33 34  2  0
 34 35  1  0
 35 36  2  0
 36 37  1  0
 37 38  2  0
 38 39  1  0
 20  2  1  0
 32 26  1  0
 38 33  1  0
 17  5  1  0
 15  9  1  0
  1 40  1  0
  1 41  1  0
  1 42  1  0
  3 43  1  0
  6 44  1  0
  6 45  1  0
  7 46  1  0
  7 47  1  0
  8 48  1  0
  9 49  1  0
 10 50  1  0
 10 51  1  0
 11 52  1  0
 11 53  1  0
 13 54  1  0
 13 55  1  0
 13 56  1  0
 14 57  1  0
 14 58  1  0
 15 59  1  0
 15 60  1  0
 16 61  1  0
 16 62  1  0
 17 63  1  0
 17 64  1  0
 18 65  1  0
 19 66  1  0
 21 67  1  0
 21 68  1  0
 25 69  1  6
 27 70  1  0
 28 71  1  0
 29 72  1  0
 32 73  1  0
 34 74  1  0
 35 75  1  0
 36 76  1  0
 37 77  1  0
 39 78  1  0
 39 79  1  0
 39 80  1  0
M  CHG  2   9   1  24  -1
M  END
>  <UniqueID>  (9) 
9

>  <SMILES>  (9) 
Cc1cc(N2CCC([NH+]3CCN(C)CC3)CC2)ccc1CC(=O)[N-][C@@H](c1cccc(Cl)c1)c1ccccc1C

>  <Energy>  (9) 
113.49353859724891

>  <Genealogy>  (9) 
Cc1cc(N2CCC([NH+]3CCN(C)CC3)CC2)ccc1CC(=O)[N-]C(c1cccc(Cl)c1)c1ccccc1C (protonated)
Cc1cc(N2CCC([NH+]3CCN(C)CC3)CC2)ccc1CC(=O)[N-][C@@H](c1cccc(Cl)c1)c1ccccc1C (chirality)
Cc1cc(N2CCC([NH+]3CCN(C)CC3)CC2)ccc1CC(=O)[N-][C@@H](c1cccc(Cl)c1)c1ccccc1C (3D coordinates assigned)
Cc1cc(N2CCC([NH+]3CCN(C)CC3)CC2)ccc1CC(=O)[N-][C@@H](c1cccc(Cl)c1)c1ccccc1C (nonaromatic ring conformer: 113.49353859724891 kcal/mol)

>  <smiles>  (9) 
Cc1cc(N2CCC(N3CCN(C)CC3)CC2)ccc1CC(=O)NC(c1cccc(Cl)c1)c1ccccc1C

>  <score_type>  (9) 
oracle

>  <origin>  (9) 
adgpu

>  <m_score__min__energy>  (9) 
-11.94

>  <m_primary>  (9) 
energy

$$$$
9:0
     RDKit          3D

 56 59  0  0  0  0  0  0  0  0999 V2000
   -6.3930   19.1260  -33.5790 C   0  0  0  0  0  0  0  0  0  0  0  0
   -7.1240   20.2170  -32.8540 C   0  0  0  0  0  0  0  0  0  0  0  0
   -8.5160   20.1510  -32.6880 C   0  0  0  0  0  0  0  0  0  0  0  0
   -9.1890   21.1440  -31.9690 C   0  0  0  0  0  0  0  0  0  0  0  0
   -8.4750   22.2020  -31.3990 C   0  0  0  0  0  0  0  0  0  0  0  0
   -7.0820   22.2720  -31.5470 C   0  0  0  0  0  0  0  0  0  0  0  0
   -6.1730   23.5500  -30.7470 S   0  0  0  0  0  0  0  0  0  0  0  0
   -5.9220   23.1940  -29.3080 O   0  0  0  0  0  0  0  0  0  0  0  0
   -6.9630   24.8270  -30.7960 O   0  0  0  0  0  0  0  0  0  0  0  0
   -4.6720   23.7780  -31.5780 N   0  0  0  0  0  0  0  0  0  0  0  0
   -3.4480   23.2810  -31.0380 C   0  0  0  0  0  0  0  0  0  0  0  0
   -2.9940   22.0160  -31.4290 C   0  0  0  0  0  0  0  0  0  0  0  0
   -1.8190   21.4770  -30.8750 C   0  0  0  0  0  0  0  0  0  0  0  0
   -1.3670   20.1210  -31.2530 C   0  0  0  0  0  0  0  0  0  0  0  0
   -2.0120   19.4750  -32.1250 O   0  0  0  0  0  0  0  0  0  0  0  0
   -0.2090   19.5230  -30.6460 N   0  0  0  0  0  0  0  0  0  0  0  0
   -0.0740   19.5260  -29.1800 C   0  0  0  0  0  0  0  0  0  0  0  0
    1.1330   18.6980  -28.7210 C   0  0  0  0  0  0  0  0  0  0  0  0
    1.1770   17.4180  -29.4410 N   0  0  0  0  0  0  0  0  0  0  0  0
    1.6750   16.2470  -28.7710 C   0  0  0  0  0  0  0  0  0  0  0  0
    2.6520   15.4500  -29.3900 C   0  0  0  0  0  0  0  0  0  0  0  0
    3.1430   14.3090  -28.7500 C   0  0  0  0  0  0  0  0  0  0  0  0
    2.6640   13.9550  -27.4870 C   0  0  0  0  0  0  0  0  0  0  0  0
    1.6970   14.7430  -26.8590 C   0  0  0  0  0  0  0  0  0  0  0  0
    1.2020   15.8940  -27.4910 C   0  0  0  0  0  0  0  0  0  0  0  0
    0.2600   16.6930  -26.8450 O   0  0  0  0  0  0  0  0  0  0  0  0
    0.9530   17.3740  -30.8940 C   0  0  0  0  0  0  0  0  0  0  0  0
    0.7500   18.7790  -31.4710 C   0  0  0  0  0  0  0  0  0  0  0  0
   -1.1100   22.2190  -29.9170 C   0  0  0  0  0  0  0  0  0  0  0  0
   -1.5500   23.4910  -29.5420 C   0  0  0  0  0  0  0  0  0  0  0  0
   -2.7140   24.0250  -30.1000 C   0  0  0  0  0  0  0  0  0  0  0  0
   -3.1310   25.2970  -29.7250 O   0  0  0  0  0  0  0  0  0  0  0  0
   -6.4090   21.2720  -32.2650 C   0  0  0  0  0  0  0  0  0  0  0  0
   -5.9353   18.4429  -32.8483 H   0  0  0  0  0  0  0  0  0  0  0  0
   -7.1000   18.5676  -34.2102 H   0  0  0  0  0  0  0  0  0  0  0  0
   -5.6077   19.5675  -34.2102 H   0  0  0  0  0  0  0  0  0  0  0  0
   -9.0804   19.3143  -33.1255 H   0  0  0  0  0  0  0  0  0  0  0  0
  -10.2815   21.0924  -31.8519 H   0  0  0  0  0  0  0  0  0  0  0  0
   -9.0067   22.9812  -30.8332 H   0  0  0  0  0  0  0  0  0  0  0  0
   -3.5604   21.4392  -32.1750 H   0  0  0  0  0  0  0  0  0  0  0  0
    0.0530   20.5629  -28.8356 H   0  0  0  0  0  0  0  0  0  0  0  0
   -0.9818   19.0771  -28.7506 H   0  0  0  0  0  0  0  0  0  0  0  0
    2.0567   19.2601  -28.9233 H   0  0  0  0  0  0  0  0  0  0  0  0
    1.0413   18.4991  -27.6430 H   0  0  0  0  0  0  0  0  0  0  0  0
    3.0329   15.7257  -30.3845 H   0  0  0  0  0  0  0  0  0  0  0  0
    3.9074   13.6892  -29.2415 H   0  0  0  0  0  0  0  0  0  0  0  0
    3.0488   13.0544  -26.9861 H   0  0  0  0  0  0  0  0  0  0  0  0
    1.3217   14.4602  -25.8645 H   0  0  0  0  0  0  0  0  0  0  0  0
   -0.5870   16.3010  -26.4490 H   0  0  0  0  0  0  0  0  0  0  0  0
    1.8264   16.9115  -31.3770 H   0  0  0  0  0  0  0  0  0  0  0  0
    0.0436   16.7859  -31.0865 H   0  0  0  0  0  0  0  0  0  0  0  0
    1.7124   19.3116  -31.4818 H   0  0  0  0  0  0  0  0  0  0  0  0
    0.3594   18.6970  -32.4961 H   0  0  0  0  0  0  0  0  0  0  0  0
   -0.2033   21.7967  -29.4592 H   0  0  0  0  0  0  0  0  0  0  0  0
   -0.9780   24.0738  -28.8050 H   0  0  0  0  0  0  0  0  0  0  0  0
   -5.3146   21.3148  -32.3671 H   0  0  0  0  0  0  0  0  0  0  0  0
  1  2  1  0
  2  3  2  0
  3  4  1  0
  4  5  2  0
  5  6  1  0
  6  7  1  0
  7  8  2  0
  7  9  2  0
  7 10  1  0
 10 11  1  0
 11 12  2  0
 12 13  1  0
 13 14  1  0
 14 15  2  0
 14 16  1  0
 16 17  1  0
 17 18  1  0
 18 19  1  0
 19 20  1  0
 20 21  2  0
 21 22  1  0
 22 23  2  0
 23 24  1  0
 24 25  2  0
 25 26  1  0
 19 27  1  0
 27 28  1  0
 13 29  2  0
 29 30  1  0
 30 31  2  0
 31 32  1  0
  6 33  2  0
 33  2  1  0
 31 11  1  0
 28 16  1  0
 25 20  1  0
  1 34  1  0
  1 35  1  0
  1 36  1  0
  3 37  1  0
  4 38  1  0
  5 39  1  0
 12 40  1  0
 17 41  1  0
 17 42  1  0
 18 43  1  0
 18 44  1  0
 21 45  1  0
 22 46  1  0
 23 47  1  0
 24 48  1  0
 26 49  1  0
 27 50  1  0
 27 51  1  0
 28 52  1  0
 28 53  1  0
 29 54  1  0
 30 55  1  0
 33 56  1  0
M  CHG  2  10  -1  32  -1
M  END
>  <UniqueID>  (10) 
10

>  <SMILES>  (10) 
Cc1cccc(S(=O)(=O)[N-]c2cc(C(=O)N3CCN(c4ccccc4O)CC3)ccc2[O-])c1

>  <Energy>  (10) 
77.82839608747564

>  <Genealogy>  (10) 
Cc1cccc(S(=O)(=O)[N-]c2cc(C(=O)N3CCN(c4ccccc4O)CC3)ccc2[O-])c1 (protonated)
Cc1cccc(S(=O)(=O)[N-]c2cc(C(=O)N3CCN(c4ccccc4O)CC3)ccc2[O-])c1 (3D coordinates assigned)
Cc1cccc(S(=O)(=O)[N-]c2cc(C(=O)N3CCN(c4ccccc4O)CC3)ccc2[O-])c1 (nonaromatic ring conformer: 77.82839608747564 kcal/mol)

>  <smiles>  (10) 
Cc1cccc(S(=O)(=O)Nc2cc(C(=O)N3CCN(c4ccccc4O)CC3)ccc2O)c1

>  <score_type>  (10) 
oracle

>  <origin>  (10) 
adgpu

>  <m_score__min__energy>  (10) 
-13.84

>  <m_primary>  (10) 
energy

$$$$
10:0
     RDKit          3D

 56 59  0  0  0  0  0  0  0  0999 V2000
   -4.1640   23.9060  -31.0820 O   0  0  0  0  0  0  0  0  0  0  0  0
   -3.1630   23.4440  -30.4670 C   0  0  0  0  0  0  0  0  0  0  0  0
   -2.5000   22.2620  -30.9440 N   0  0  0  0  0  0  0  0  0  0  0  0
   -3.0670   21.3490  -31.9000 C   0  0  0  0  0  0  0  0  0  0  0  0
   -2.2640   20.8580  -32.9410 C   0  0  0  0  0  0  0  0  0  0  0  0
   -2.7860   19.9560  -33.8700 C   0  0  0  0  0  0  0  0  0  0  0  0
   -4.1090   19.5220  -33.7620 C   0  0  0  0  0  0  0  0  0  0  0  0
   -4.9160   19.9770  -32.7100 C   0  0  0  0  0  0  0  0  0  0  0  0
   -6.5910   19.4300  -32.5700 S   0  0  0  0  0  0  0  0  0  0  0  0
   -6.7760   18.7600  -31.2370 O   0  0  0  0  0  0  0  0  0  0  0  0
   -6.8640   18.4120  -33.6430 O   0  0  0  0  0  0  0  0  0  0  0  0
   -7.7470   20.7330  -32.7150 N   0  0  0  0  0  0  0  0  0  0  0  0
   -8.9180   20.5290  -31.8620 C   0  0  0  0  0  0  0  0  0  0  0  0
   -9.4730   21.9120  -31.5500 C   0  0  0  0  0  0  0  0  0  0  0  0
   -8.3570   22.8870  -31.8950 C   0  0  0  0  0  0  0  0  0  0  0  0
   -7.1810   22.0160  -32.3070 C   0  0  0  0  0  0  0  0  0  0  0  0
   -4.3910   20.8880  -31.7800 C   0  0  0  0  0  0  0  0  0  0  0  0
   -2.6380   24.1690  -29.2530 C   0  0  0  0  0  0  0  0  0  0  0  0
   -3.5050   23.8520  -28.0140 C   0  0  0  0  0  0  0  0  0  0  0  0
   -2.6930   24.0280  -26.7290 C   0  0  0  0  0  0  0  0  0  0  0  0
   -1.5730   23.0630  -26.6630 N   0  0  0  0  0  0  0  0  0  0  0  0
   -0.3830   23.5940  -25.4980 S   0  0  0  0  0  0  0  0  0  0  0  0
    0.9920   23.4120  -26.0760 O   0  0  0  0  0  0  0  0  0  0  0  0
   -0.4840   22.7610  -24.2500 O   0  0  0  0  0  0  0  0  0  0  0  0
   -0.6050   25.2850  -25.0770 C   0  0  0  0  0  0  0  0  0  0  0  0
   -0.6850   25.7960  -23.7920 C   0  0  0  0  0  0  0  0  0  0  0  0
   -0.8380   27.1860  -23.7650 C   0  0  0  0  0  0  0  0  0  0  0  0
   -0.8760   27.7670  -25.0260 C   0  0  0  0  0  0  0  0  0  0  0  0
   -0.7200   26.5490  -26.1760 S   0  0  0  0  0  0  0  0  0  0  0  0
   -0.9470   22.7430  -27.9720 C   0  0  0  0  0  0  0  0  0  0  0  0
   -1.1400   23.8530  -29.0180 C   0  0  0  0  0  0  0  0  0  0  0  0
   -1.5180   22.0920  -30.6290 H   0  0  0  0  0  0  0  0  0  0  0  0
   -1.2174   21.1857  -33.0255 H   0  0  0  0  0  0  0  0  0  0  0  0
   -2.1530   19.5858  -34.6899 H   0  0  0  0  0  0  0  0  0  0  0  0
   -4.5188   18.8213  -34.5044 H   0  0  0  0  0  0  0  0  0  0  0  0
   -9.6724   19.9272  -32.3900 H   0  0  0  0  0  0  0  0  0  0  0  0
   -8.6497   19.9914  -30.9406 H   0  0  0  0  0  0  0  0  0  0  0  0
  -10.3639   22.1155  -32.1623 H   0  0  0  0  0  0  0  0  0  0  0  0
   -9.7799   21.9999  -30.4973 H   0  0  0  0  0  0  0  0  0  0  0  0
   -8.6604   23.5431  -32.7242 H   0  0  0  0  0  0  0  0  0  0  0  0
   -8.1067   23.5424  -31.0477 H   0  0  0  0  0  0  0  0  0  0  0  0
   -6.6398   22.4780  -33.1459 H   0  0  0  0  0  0  0  0  0  0  0  0
   -6.4645   21.8935  -31.4814 H   0  0  0  0  0  0  0  0  0  0  0  0
   -5.0197   21.2444  -30.9507 H   0  0  0  0  0  0  0  0  0  0  0  0
   -2.7085   25.2517  -29.4340 H   0  0  0  0  0  0  0  0  0  0  0  0
   -4.3679   24.5339  -27.9926 H   0  0  0  0  0  0  0  0  0  0  0  0
   -3.8462   22.8082  -28.0777 H   0  0  0  0  0  0  0  0  0  0  0  0
   -2.2874   25.0500  -26.6988 H   0  0  0  0  0  0  0  0  0  0  0  0
   -3.3576   23.8470  -25.8714 H   0  0  0  0  0  0  0  0  0  0  0  0
   -0.6335   25.1732  -22.8867 H   0  0  0  0  0  0  0  0  0  0  0  0
   -0.9205   27.7645  -22.8330 H   0  0  0  0  0  0  0  0  0  0  0  0
   -0.9889   28.8407  -25.2369 H   0  0  0  0  0  0  0  0  0  0  0  0
    0.1314   22.5912  -27.8170 H   0  0  0  0  0  0  0  0  0  0  0  0
   -1.4379   21.8378  -28.3587 H   0  0  0  0  0  0  0  0  0  0  0  0
   -0.6348   24.7648  -28.6667 H   0  0  0  0  0  0  0  0  0  0  0  0
   -0.7112   23.5043  -29.9691 H   0  0  0  0  0  0  0  0  0  0  0  0
  1  2  2  0
  2  3  1  0
  3  4  1  0
  4  5  2  0
  5  6  1  0
  6  7  2  0
  7  8  1  0
  8  9  1  0
  9 10  2  0
  9 11  2  0
  9 12  1  0
 12 13  1  0
 13 14  1  0
 14 15  1  0
 15 16  1  0
  8 17  2  0
  2 18  1  0
 18 19  1  0
 19 20  1  0
 20 21  1  0
 21 22  1  0
 22 23  2  0
 22 24  2  0
 22 25  1  0
 25 26  2  0
 26 27  1  0
 27 28  2  0
 28 29  1  0
 21 30  1  0
 30 31  1  0
 17  4  1  0
 31 18  1  0
 16 12  1  0
 29 25  1  0
  3 32  1  0
  5 33  1  0
  6 34  1  0
  7 35  1  0
 13 36  1  0
 13 37  1  0
 14 38  1  0
 14 39  1  0
 15 40  1  0
 15 41  1  0
 16 42  1  0
 16 43  1  0
 17 44  1  0
 18 45  1  0
 19 46  1  0
 19 47  1  0
 20 48  1  0
 20 49  1  0
 26 50  1  0
 27 51  1  0
 28 52  1  0
 30 53  1  0
 30 54  1  0
 31 55  1  0
 31 56  1  0
M  END
>  <UniqueID>  (11) 
11

>  <SMILES>  (11) 
O=C(Nc1cccc(S(=O)(=O)N2CCCC2)c1)C1CCN(S(=O)(=O)c2cccs2)CC1

>  <Energy>  (11) 
93.40173699120541

>  <Genealogy>  (11) 
O=C(Nc1cccc(S(=O)(=O)N2CCCC2)c1)C1CCN(S(=O)(=O)c2cccs2)CC1 (3D coordinates assigned)
O=C(Nc1cccc(S(=O)(=O)N2CCCC2)c1)C1CCN(S(=O)(=O)c2cccs2)CC1 (nonaromatic ring conformer: 93.40173699120541 kcal/mol)

>  <smiles>  (11) 
O=C(Nc1cccc(S(=O)(=O)N2CCCC2)c1)C1CCN(S(=O)(=O)c2cccs2)CC1

>  <score_type>  (11) 
oracle

>  <origin>  (11) 
adgpu

>  <m_score__min__energy>  (11) 
-10.83

>  <m_primary>  (11) 
energy

$$$$
11:0
     RDKit          3D

 43 45  0  0  0  0  0  0  0  0999 V2000
   -5.8550   26.1700  -29.7530 O   0  0  0  0  0  0  0  0  0  0  0  0
   -5.2420   25.4870  -30.6130 C   0  0  0  0  0  0  0  0  0  0  0  0
   -3.8230   25.3220  -30.4830 N   0  0  0  0  0  0  0  0  0  0  0  0
   -3.1630   24.4160  -29.5880 C   0  0  0  0  0  0  0  0  0  0  0  0
   -3.7200   23.1630  -29.2800 C   0  0  0  0  0  0  0  0  0  0  0  0
   -3.0750   22.3080  -28.3800 C   0  0  0  0  0  0  0  0  0  0  0  0
   -1.8620   22.6890  -27.8010 C   0  0  0  0  0  0  0  0  0  0  0  0
   -1.2880   23.9210  -28.1270 C   0  0  0  0  0  0  0  0  0  0  0  0
   -1.9310   24.7800  -29.0240 C   0  0  0  0  0  0  0  0  0  0  0  0
   -1.3520   26.0050  -29.3380 O   0  0  0  0  0  0  0  0  0  0  0  0
   -5.9900   24.8690  -31.6710 N   0  0  0  0  0  0  0  0  0  0  0  0
   -6.2990   23.4730  -31.7820 C   0  0  0  0  0  0  0  0  0  0  0  0
   -7.6180   23.0700  -31.5450 C   0  0  0  0  0  0  0  0  0  0  0  0
   -8.0050   21.7490  -31.7650 C   0  0  0  0  0  0  0  0  0  0  0  0
   -7.0750   20.8150  -32.2200 C   0  0  0  0  0  0  0  0  0  0  0  0
   -5.7360   21.1830  -32.4170 C   0  0  0  0  0  0  0  0  0  0  0  0
   -4.5820   19.9640  -32.9830 S   0  0  0  0  0  0  0  0  0  0  0  0
   -5.0510   19.3990  -34.2960 O   0  0  0  0  0  0  0  0  0  0  0  0
   -4.5360   18.8360  -31.9900 O   0  0  0  0  0  0  0  0  0  0  0  0
   -2.9760   20.6220  -33.1780 N   0  0  0  0  0  0  0  0  0  0  0  0
   -2.2270   19.8630  -34.1950 C   0  0  0  0  0  0  0  0  0  0  0  0
   -0.7490   20.3030  -34.2220 C   0  0  0  0  0  0  0  0  0  0  0  0
   -0.5480   21.4730  -33.4520 O   0  0  0  0  0  0  0  0  0  0  0  0
   -0.8400   21.2080  -32.0910 C   0  0  0  0  0  0  0  0  0  0  0  0
   -2.2500   20.6090  -31.9010 C   0  0  0  0  0  0  0  0  0  0  0  0
   -5.3330   22.5100  -32.1610 C   0  0  0  0  0  0  0  0  0  0  0  0
   -3.9810   22.8430  -32.2650 O   0  0  0  0  0  0  0  0  0  0  0  0
   -4.6661   22.8536  -29.7481 H   0  0  0  0  0  0  0  0  0  0  0  0
   -3.5230   21.3355  -28.1281 H   0  0  0  0  0  0  0  0  0  0  0  0
   -1.3585   22.0192  -27.0883 H   0  0  0  0  0  0  0  0  0  0  0  0
   -0.3284   24.2156  -27.6771 H   0  0  0  0  0  0  0  0  0  0  0  0
   -8.3552   23.8014  -31.1822 H   0  0  0  0  0  0  0  0  0  0  0  0
   -9.0452   21.4431  -31.5795 H   0  0  0  0  0  0  0  0  0  0  0  0
   -7.3937   19.7825  -32.4259 H   0  0  0  0  0  0  0  0  0  0  0  0
   -2.2805   18.7903  -33.9575 H   0  0  0  0  0  0  0  0  0  0  0  0
   -2.6727   20.0572  -35.1817 H   0  0  0  0  0  0  0  0  0  0  0  0
   -0.1264   19.4935  -33.8134 H   0  0  0  0  0  0  0  0  0  0  0  0
   -0.4697   20.5199  -35.2636 H   0  0  0  0  0  0  0  0  0  0  0  0
   -0.0975   20.4957  -31.7020 H   0  0  0  0  0  0  0  0  0  0  0  0
   -0.8036   22.1631  -31.5465 H   0  0  0  0  0  0  0  0  0  0  0  0
   -2.1607   19.5727  -31.5430 H   0  0  0  0  0  0  0  0  0  0  0  0
   -2.8026   21.2110  -31.1646 H   0  0  0  0  0  0  0  0  0  0  0  0
   -3.6120   23.7380  -31.9760 H   0  0  0  0  0  0  0  0  0  0  0  0
  1  2  2  0
  2  3  1  0
  3  4  1  0
  4  5  2  0
  5  6  1  0
  6  7  2  0
  7  8  1  0
  8  9  2  0
  9 10  1  0
  2 11  1  0
 11 12  1  0
 12 13  2  0
 13 14  1  0
 14 15  2  0
 15 16  1  0
 16 17  1  0
 17 18  2  0
 17 19  2  0
 17 20  1  0
 20 21  1  0
 21 22  1  0
 22 23  1  0
 23 24  1  0
 24 25  1  0
 16 26  2  0
 26 27  1  0
  9  4  1  0
 26 12  1  0
 25 20  1  0
  5 28  1  0
  6 29  1  0
  7 30  1  0
  8 31  1  0
 13 32  1  0
 14 33  1  0
 15 34  1  0
 21 35  1  0
 21 36  1  0
 22 37  1  0
 22 38  1  0
 24 39  1  0
 24 40  1  0
 25 41  1  0
 25 42  1  0
 27 43  1  0
M  CHG  3   3  -1  10  -1  11  -1
M  END
>  <UniqueID>  (12) 
12

>  <SMILES>  (12) 
O=C([N-]c1ccccc1[O-])[N-]c1cccc(S(=O)(=O)N2CCOCC2)c1O

>  <Energy>  (12) 
62.41747770708828

>  <Genealogy>  (12) 
O=C([N-]c1ccccc1[O-])[N-]c1cccc(S(=O)(=O)N2CCOCC2)c1O (protonated)
O=C([N-]c1ccccc1[O-])[N-]c1cccc(S(=O)(=O)N2CCOCC2)c1O (3D coordinates assigned)
O=C([N-]c1ccccc1[O-])[N-]c1cccc(S(=O)(=O)N2CCOCC2)c1O (nonaromatic ring conformer: 62.41747770708828 kcal/mol)

>  <smiles>  (12) 
O=C(Nc1ccccc1O)Nc1cccc(S(=O)(=O)N2CCOCC2)c1O

>  <score_type>  (12) 
oracle

>  <origin>  (12) 
adgpu

>  <m_score__min__energy>  (12) 
-13.99

>  <m_primary>  (12) 
energy

$$$$
12:0
     RDKit          3D

 54 57  0  0  0  0  0  0  0  0999 V2000
   -9.5310   19.6720  -32.7130 C   0  0  0  0  0  0  0  0  0  0  0  0
   -8.7060   20.7430  -32.0640 C   0  0  0  0  0  0  0  0  0  0  0  0
   -9.0850   21.2700  -30.8210 C   0  0  0  0  0  0  0  0  0  0  0  0
   -8.2990   22.2450  -30.2010 C   0  0  0  0  0  0  0  0  0  0  0  0
   -7.1240   22.6900  -30.8100 C   0  0  0  0  0  0  0  0  0  0  0  0
   -6.7200   22.1570  -32.0460 C   0  0  0  0  0  0  0  0  0  0  0  0
   -5.4590   22.6450  -32.7110 C   0  0  0  0  0  0  0  0  0  0  0  0
   -4.3470   21.7300  -32.4320 N   0  0  0  0  0  0  0  0  0  0  0  0
   -4.2210   20.4470  -32.8690 C   0  0  0  0  0  0  0  0  0  0  0  0
   -5.3530   19.6520  -34.0150 S   0  0  0  0  0  0  0  0  0  0  0  0
   -4.7310   18.0060  -33.6420 C   0  0  0  0  0  0  0  0  0  0  0  0
   -3.6610   17.4990  -34.3860 C   0  0  0  0  0  0  0  0  0  0  0  0
   -3.1380   16.2230  -34.1200 C   0  0  0  0  0  0  0  0  0  0  0  0
   -1.9760   15.7170  -34.9330 C   0  0  0  0  0  0  0  0  0  0  0  0
   -3.7050   15.4430  -33.0850 C   0  0  0  0  0  0  0  0  0  0  0  0
   -3.1780   14.0690  -32.7640 C   0  0  0  0  0  0  0  0  0  0  0  0
   -4.7940   15.9500  -32.3580 C   0  0  0  0  0  0  0  0  0  0  0  0
   -5.3110   17.2190  -32.6320 C   0  0  0  0  0  0  0  0  0  0  0  0
   -6.8110   17.8320  -31.6050 Br  0  0  0  0  0  0  0  0  0  0  0  0
   -3.1540   19.7950  -32.3460 N   0  0  0  0  0  0  0  0  0  0  0  0
   -2.5950   20.7270  -31.5510 C   0  0  0  0  0  0  0  0  0  0  0  0
   -3.2990   21.8850  -31.5920 C   0  0  0  0  0  0  0  0  0  0  0  0
   -2.8850   22.9770  -30.8310 C   0  0  0  0  0  0  0  0  0  0  0  0
   -3.5340   24.0570  -30.8430 O   0  0  0  0  0  0  0  0  0  0  0  0
   -1.7460   22.8480  -30.0680 N   0  0  0  0  0  0  0  0  0  0  0  0
   -1.2920   23.9760  -29.2370 C   0  0  0  0  0  0  0  0  0  0  0  0
   -1.0630   21.6450  -30.0290 C   0  0  0  0  0  0  0  0  0  0  0  0
   -0.0350   21.5290  -29.3030 O   0  0  0  0  0  0  0  0  0  0  0  0
   -1.4930   20.5670  -30.7710 N   0  0  0  0  0  0  0  0  0  0  0  0
   -0.7490   19.3000  -30.7680 C   0  0  0  0  0  0  0  0  0  0  0  0
   -7.5140   21.1780  -32.6640 C   0  0  0  0  0  0  0  0  0  0  0  0
  -10.0066   19.0546  -31.9367 H   0  0  0  0  0  0  0  0  0  0  0  0
  -10.3073   20.1360  -33.3392 H   0  0  0  0  0  0  0  0  0  0  0  0
   -8.8842   19.0398  -33.3392 H   0  0  0  0  0  0  0  0  0  0  0  0
  -10.0042   20.9147  -30.3323 H   0  0  0  0  0  0  0  0  0  0  0  0
   -8.6067   22.6628  -29.2311 H   0  0  0  0  0  0  0  0  0  0  0  0
   -6.5117   23.4614  -30.3201 H   0  0  0  0  0  0  0  0  0  0  0  0
   -5.6199   22.6991  -33.7978 H   0  0  0  0  0  0  0  0  0  0  0  0
   -5.2095   23.6408  -32.3159 H   0  0  0  0  0  0  0  0  0  0  0  0
   -3.2230   18.1079  -35.1906 H   0  0  0  0  0  0  0  0  0  0  0  0
   -1.1796   15.3702  -34.2580 H   0  0  0  0  0  0  0  0  0  0  0  0
   -2.3083   14.8821  -35.5674 H   0  0  0  0  0  0  0  0  0  0  0  0
   -1.5912   16.5290  -35.5674 H   0  0  0  0  0  0  0  0  0  0  0  0
   -3.1289   13.9409  -31.6726 H   0  0  0  0  0  0  0  0  0  0  0  0
   -3.8487   13.3097  -33.1925 H   0  0  0  0  0  0  0  0  0  0  0  0
   -2.1716   13.9530  -33.1925 H   0  0  0  0  0  0  0  0  0  0  0  0
   -5.2462   15.3401  -31.5621 H   0  0  0  0  0  0  0  0  0  0  0  0
   -1.3975   23.7140  -28.1739 H   0  0  0  0  0  0  0  0  0  0  0  0
   -0.2365   24.1929  -29.4582 H   0  0  0  0  0  0  0  0  0  0  0  0
   -1.9029   24.8636  -29.4582 H   0  0  0  0  0  0  0  0  0  0  0  0
   -0.5644   18.9856  -29.7302 H   0  0  0  0  0  0  0  0  0  0  0  0
   -1.3373   18.5281  -31.2858 H   0  0  0  0  0  0  0  0  0  0  0  0
    0.2117   19.4377  -31.2858 H   0  0  0  0  0  0  0  0  0  0  0  0
   -7.1994   20.7482  -33.6265 H   0  0  0  0  0  0  0  0  0  0  0  0
  1  2  1  0
  2  3  2  0
  3  4  1  0
  4  5  2  0
  5  6  1  0
  6  7  1  0
  7  8  1  0
  8  9  1  0
  9 10  1  0
 10 11  1  0
 11 12  2  0
 12 13  1  0
 13 14  1  0
 13 15  2  0
 15 16  1  0
 15 17  1  0
 17 18  2  0
 18 19  1  0
  9 20  2  0
 20 21  1  0
 21 22  2  0
 22 23  1  0
 23 24  2  0
 23 25  1  0
 25 26  1  0
 25 27  1  0
 27 28  2  0
 27 29  1  0
 29 30  1  0
  6 31  2  0
 31  2  1  0
 22  8  1  0
 18 11  1  0
 29 21  1  0
  1 32  1  0
  1 33  1  0
  1 34  1  0
  3 35  1  0
  4 36  1  0
  5 37  1  0
  7 38  1  0
  7 39  1  0
 12 40  1  0
 14 41  1  0
 14 42  1  0
 14 43  1  0
 16 44  1  0
 16 45  1  0
 16 46  1  0
 17 47  1  0
 26 48  1  0
 26 49  1  0
 26 50  1  0
 30 51  1  0
 30 52  1  0
 30 53  1  0
 31 54  1  0
M  END
>  <UniqueID>  (13) 
13

>  <SMILES>  (13) 
Cc1cccc(Cn2c(Sc3cc(C)c(C)cc3Br)nc3c2c(=O)n(C)c(=O)n3C)c1

>  <Energy>  (13) 
98.74632969865372

>  <Genealogy>  (13) 
Cc1cccc(Cn2c(Sc3cc(C)c(C)cc3Br)nc3c2c(=O)n(C)c(=O)n3C)c1 (3D coordinates assigned)
Cc1cccc(Cn2c(Sc3cc(C)c(C)cc3Br)nc3c2c(=O)n(C)c(=O)n3C)c1 (optimized conformer: 98.74632969865372 kcal/mol)

>  <smiles>  (13) 
Cc1cccc(Cn2c(Sc3cc(C)c(C)cc3Br)nc3c2c(=O)n(C)c(=O)n3C)c1

>  <score_type>  (13) 
oracle

>  <origin>  (13) 
adgpu

>  <m_score__min__energy>  (13) 
-9.1999999999999993

>  <m_primary>  (13) 
energy

$$$$
13:0
     RDKit          3D

 35 36  0  0  0  0  0  0  0  0999 V2000
   -1.2620   21.2910  -29.8970 C   0  0  0  0  0  0  0  0  0  0  0  0
   -2.0490   22.5600  -30.0450 C   0  0  0  0  0  0  0  0  0  0  0  0
   -1.6490   23.6320  -29.3090 N   0  0  0  0  0  0  0  0  0  0  0  0
   -2.3220   24.8070  -29.3350 C   0  0  0  0  0  0  0  0  0  0  0  0
   -1.9160   25.7800  -28.6480 O   0  0  0  0  0  0  0  0  0  0  0  0
   -3.4340   24.9330  -30.0950 N   0  0  0  0  0  0  0  0  0  0  0  0
   -3.8930   23.9010  -30.8470 C   0  0  0  0  0  0  0  0  0  0  0  0
   -4.9410   24.0640  -31.5250 O   0  0  0  0  0  0  0  0  0  0  0  0
   -3.2050   22.6700  -30.8630 C   0  0  0  0  0  0  0  0  0  0  0  0
   -3.8030   21.3320  -31.8870 S   0  0  0  0  0  0  0  0  0  0  0  0
   -3.7470   20.0530  -31.0980 O   0  0  0  0  0  0  0  0  0  0  0  0
   -2.9140   21.1440  -33.0840 O   0  0  0  0  0  0  0  0  0  0  0  0
   -5.4460   21.5980  -32.4430 N   0  0  2  0  0  0  0  0  0  0  0  0
   -6.3680   21.7050  -31.2860 C   0  0  0  0  0  0  0  0  0  0  0  0
   -7.8310   21.5600  -31.7220 C   0  0  0  0  0  0  0  0  0  0  0  0
   -8.0950   20.1640  -32.3380 C   0  0  2  0  0  0  0  0  0  0  0  0
   -8.7570   19.2230  -31.3230 C   0  0  0  0  0  0  0  0  0  0  0  0
   -6.8050   19.5230  -32.8990 C   0  0  0  0  0  0  0  0  0  0  0  0
   -5.8620   20.5960  -33.4620 C   0  0  0  0  0  0  0  0  0  0  0  0
   -1.1236   21.0678  -28.8288 H   0  0  0  0  0  0  0  0  0  0  0  0
   -1.8060   20.4641  -30.3769 H   0  0  0  0  0  0  0  0  0  0  0  0
   -0.2795   21.4108  -30.3769 H   0  0  0  0  0  0  0  0  0  0  0  0
   -5.4340   22.5330  -32.9150 H   0  0  0  0  0  0  0  0  0  0  0  0
   -6.1294   20.9107  -30.5634 H   0  0  0  0  0  0  0  0  0  0  0  0
   -6.2389   22.6980  -30.8308 H   0  0  0  0  0  0  0  0  0  0  0  0
   -8.4818   21.6945  -30.8455 H   0  0  0  0  0  0  0  0  0  0  0  0
   -8.0451   22.3237  -32.4842 H   0  0  0  0  0  0  0  0  0  0  0  0
   -8.7875   20.3167  -33.1789 H   0  0  0  0  0  0  0  0  0  0  0  0
   -8.5204   19.5593  -30.3027 H   0  0  0  0  0  0  0  0  0  0  0  0
   -9.8472   19.2343  -31.4693 H   0  0  0  0  0  0  0  0  0  0  0  0
   -8.3780   18.2008  -31.4693 H   0  0  0  0  0  0  0  0  0  0  0  0
   -6.2919   18.9799  -32.0917 H   0  0  0  0  0  0  0  0  0  0  0  0
   -7.0788   18.8336  -33.7112 H   0  0  0  0  0  0  0  0  0  0  0  0
   -4.9616   20.1004  -33.8541 H   0  0  0  0  0  0  0  0  0  0  0  0
   -6.4099   21.1352  -34.2488 H   0  0  0  0  0  0  0  0  0  0  0  0
  1  2  1  0
  2  3  1  0
  3  4  1  0
  4  5  2  0
  4  6  1  0
  6  7  1  0
  7  8  2  0
  7  9  1  0
  9 10  1  0
 10 11  2  0
 10 12  2  0
 10 13  1  0
 13 14  1  0
 14 15  1  0
 15 16  1  0
 16 17  1  0
 16 18  1  0
 18 19  1  0
  9  2  2  0
 19 13  1  0
  1 20  1  0
  1 21  1  0
  1 22  1  0
 13 23  1  6
 14 24  1  0
 14 25  1  0
 15 26  1  0
 15 27  1  0
 16 28  1  6
 17 29  1  0
 17 30  1  0
 17 31  1  0
 18 32  1  0
 18 33  1  0
 19 34  1  0
 19 35  1  0
M  CHG  3   3  -1   6  -1  13   1
M  END
>  <UniqueID>  (14) 
14

>  <SMILES>  (14) 
Cc1[n-]c(=O)[n-]c(=O)c1S(=O)(=O)[NH+]1CCC(C)CC1

>  <Energy>  (14) 
43.247158189605116

>  <Genealogy>  (14) 
Cc1[n-]c(=O)[n-]c(=O)c1S(=O)(=O)[NH+]1CCC(C)CC1 (protonated)
Cc1[n-]c(=O)[n-]c(=O)c1S(=O)(=O)[NH+]1CCC(C)CC1 (3D coordinates assigned)
Cc1[n-]c(=O)[n-]c(=O)c1S(=O)(=O)[NH+]1CCC(C)CC1 (nonaromatic ring conformer: 43.247158189605116 kcal/mol)

>  <smiles>  (14) 
Cc1[nH]c(=O)[nH]c(=O)c1S(=O)(=O)N1CCC(C)CC1

>  <score_type>  (14) 
oracle

>  <origin>  (14) 
adgpu

>  <m_score__min__energy>  (14) 
-9.3300000000000001

>  <m_primary>  (14) 
energy

$$$$
14:0
     RDKit          3D

 75 80  0  0  0  0  0  0  0  0999 V2000
   -9.2510   18.8620  -32.0060 C   0  0  0  0  0  0  0  0  0  0  0  0
   -7.7760   18.7240  -32.2380 C   0  0  0  0  0  0  0  0  0  0  0  0
   -7.2410   17.4850  -32.6710 C   0  0  0  0  0  0  0  0  0  0  0  0
   -5.8540   17.3280  -32.8530 C   0  0  0  0  0  0  0  0  0  0  0  0
   -5.3170   16.0820  -33.2920 N   0  0  0  0  0  0  0  0  0  0  0  0
   -4.2910   15.9930  -34.6820 S   0  0  0  0  0  0  0  0  0  0  0  0
   -4.4290   14.6530  -35.3480 O   0  0  0  0  0  0  0  0  0  0  0  0
   -4.7040   17.0550  -35.6610 O   0  0  0  0  0  0  0  0  0  0  0  0
   -2.6210   16.2390  -34.1840 C   0  0  0  0  0  0  0  0  0  0  0  0
   -2.0950   15.4940  -33.1220 C   0  0  0  0  0  0  0  0  0  0  0  0
   -0.7770   15.6940  -32.7090 C   0  0  0  0  0  0  0  0  0  0  0  0
    0.0290   16.6310  -33.3620 C   0  0  0  0  0  0  0  0  0  0  0  0
   -0.4780   17.3740  -34.4410 C   0  0  0  0  0  0  0  0  0  0  0  0
    0.3850   18.3550  -35.1420 C   0  0  0  0  0  0  0  0  0  0  0  0
    1.1420   17.9640  -36.0680 O   0  0  0  0  0  0  0  0  0  0  0  0
    0.4190   19.7380  -34.7630 N   0  0  0  0  0  0  0  0  0  0  0  0
    0.0030   20.2690  -33.4970 C   0  0  0  0  0  0  0  0  0  0  0  0
   -0.8340   21.3970  -33.4140 C   0  0  0  0  0  0  0  0  0  0  0  0
   -1.2190   21.8930  -32.1670 C   0  0  0  0  0  0  0  0  0  0  0  0
   -0.7720   21.2760  -30.9960 C   0  0  0  0  0  0  0  0  0  0  0  0
    0.0660   20.1510  -31.0630 C   0  0  0  0  0  0  0  0  0  0  0  0
    0.5390   19.4970  -29.8210 C   0  0  0  0  0  0  0  0  0  0  0  0
    1.6640   18.9290  -29.8100 O   0  0  0  0  0  0  0  0  0  0  0  0
   -0.2750   19.4760  -28.6350 N   0  0  0  0  0  0  0  0  0  0  0  0
   -0.8800   20.7120  -28.1220 C   0  0  0  0  0  0  0  0  0  0  0  0
   -2.2990   20.4520  -27.5740 C   0  0  0  0  0  0  0  0  0  0  0  0
   -2.5570   19.0200  -27.2950 N   0  0  0  0  0  0  0  0  0  0  0  0
   -3.7120   18.8740  -26.3970 C   0  0  0  0  0  0  0  0  0  0  0  0
   -1.3700   18.3650  -26.7210 C   0  0  0  0  0  0  0  0  0  0  0  0
   -0.2810   18.2730  -27.7940 C   0  0  0  0  0  0  0  0  0  0  0  0
    0.4680   19.6690  -32.3210 C   0  0  0  0  0  0  0  0  0  0  0  0
   -1.8170   17.1890  -34.8310 C   0  0  0  0  0  0  0  0  0  0  0  0
   -5.0360   18.4220  -32.5740 C   0  0  0  0  0  0  0  0  0  0  0  0
   -3.6650   18.5700  -32.5570 C   0  0  0  0  0  0  0  0  0  0  0  0
   -3.3760   19.8290  -32.1490 N   0  0  0  0  0  0  0  0  0  0  0  0
   -4.5180   20.4690  -31.9180 N   0  0  0  0  0  0  0  0  0  0  0  0
   -4.5790   21.8320  -31.4700 C   0  0  0  0  0  0  0  0  0  0  0  0
   -3.7770   22.2780  -30.4060 C   0  0  0  0  0  0  0  0  0  0  0  0
   -3.8640   23.6030  -29.9630 C   0  0  0  0  0  0  0  0  0  0  0  0
   -4.7630   24.4900  -30.5700 C   0  0  0  0  0  0  0  0  0  0  0  0
   -4.8570   25.8110  -30.1400 O   0  0  0  0  0  0  0  0  0  0  0  0
   -5.5780   24.0450  -31.6170 C   0  0  0  0  0  0  0  0  0  0  0  0
   -5.4920   22.7210  -32.0590 C   0  0  0  0  0  0  0  0  0  0  0  0
   -5.5420   19.6230  -32.1590 C   0  0  0  0  0  0  0  0  0  0  0  0
   -6.9130   19.8060  -31.9550 C   0  0  0  0  0  0  0  0  0  0  0  0
   -9.4519   18.8808  -30.9247 H   0  0  0  0  0  0  0  0  0  0  0  0
   -9.6079   19.7975  -32.4616 H   0  0  0  0  0  0  0  0  0  0  0  0
   -9.7752   18.0090  -32.4616 H   0  0  0  0  0  0  0  0  0  0  0  0
   -7.9157   16.6385  -32.8666 H   0  0  0  0  0  0  0  0  0  0  0  0
   -2.7225   14.7486  -32.6114 H   0  0  0  0  0  0  0  0  0  0  0  0
   -0.3715   15.1129  -31.8676 H   0  0  0  0  0  0  0  0  0  0  0  0
    1.0657   16.7874  -33.0292 H   0  0  0  0  0  0  0  0  0  0  0  0
   -1.1855   21.8888  -34.3330 H   0  0  0  0  0  0  0  0  0  0  0  0
   -1.8766   22.7727  -32.1063 H   0  0  0  0  0  0  0  0  0  0  0  0
   -1.0779   21.6732  -30.0169 H   0  0  0  0  0  0  0  0  0  0  0  0
   -0.2503   21.1110  -27.3131 H   0  0  0  0  0  0  0  0  0  0  0  0
   -0.9523   21.4340  -28.9487 H   0  0  0  0  0  0  0  0  0  0  0  0
   -2.4237   21.0194  -26.6399 H   0  0  0  0  0  0  0  0  0  0  0  0
   -3.0142   20.7714  -28.3463 H   0  0  0  0  0  0  0  0  0  0  0  0
   -3.3716   18.9170  -25.3519 H   0  0  0  0  0  0  0  0  0  0  0  0
   -4.4269   19.6889  -26.5836 H   0  0  0  0  0  0  0  0  0  0  0  0
   -4.2016   17.9068  -26.5836 H   0  0  0  0  0  0  0  0  0  0  0  0
   -0.9994   18.9546  -25.8695 H   0  0  0  0  0  0  0  0  0  0  0  0
   -1.6350   17.3553  -26.3741 H   0  0  0  0  0  0  0  0  0  0  0  0
    0.6990   18.1698  -27.3053 H   0  0  0  0  0  0  0  0  0  0  0  0
   -0.4856   17.3992  -28.4300 H   0  0  0  0  0  0  0  0  0  0  0  0
    1.1548   18.8119  -32.3817 H   0  0  0  0  0  0  0  0  0  0  0  0
   -2.2363   17.7934  -35.6488 H   0  0  0  0  0  0  0  0  0  0  0  0
   -2.9309   17.7971  -32.8286 H   0  0  0  0  0  0  0  0  0  0  0  0
   -3.0775   21.5827  -29.9189 H   0  0  0  0  0  0  0  0  0  0  0  0
   -3.2254   23.9486  -29.1367 H   0  0  0  0  0  0  0  0  0  0  0  0
   -5.1020   26.0400  -29.1830 H   0  0  0  0  0  0  0  0  0  0  0  0
   -6.2875   24.7378  -32.0931 H   0  0  0  0  0  0  0  0  0  0  0  0
   -6.1443   22.3738  -32.8738 H   0  0  0  0  0  0  0  0  0  0  0  0
   -7.3078   20.7638  -31.5852 H   0  0  0  0  0  0  0  0  0  0  0  0
  1  2  1  0
  2  3  2  0
  3  4  1  0
  4  5  1  0
  5  6  1  0
  6  7  2  0
  6  8  2  0
  6  9  1  0
  9 10  2  0
 10 11  1  0
 11 12  2  0
 12 13  1  0
 13 14  1  0
 14 15  2  0
 14 16  1  0
 16 17  1  0
 17 18  2  0
 18 19  1  0
 19 20  2  0
 20 21  1  0
 21 22  1  0
 22 23  2  0
 22 24  1  0
 24 25  1  0
 25 26  1  0
 26 27  1  0
 27 28  1  0
 27 29  1  0
 29 30  1  0
 21 31  2  0
 13 32  2  0
  4 33  2  0
 33 34  1  0
 34 35  2  0
 35 36  1  0
 36 37  1  0
 37 38  2  0
 38 39  1  0
 39 40  2  0
 40 41  1  0
 40 42  1  0
 42 43  2  0
 36 44  1  0
 44 45  2  0
 45  2  1  0
 32  9  1  0
 44 33  1  0
 31 17  1  0
 43 37  1  0
 30 24  1  0
  1 46  1  0
  1 47  1  0
  1 48  1  0
  3 49  1  0
 10 50  1  0
 11 51  1  0
 12 52  1  0
 18 53  1  0
 19 54  1  0
 20 55  1  0
 25 56  1  0
 25 57  1  0
 26 58  1  0
 26 59  1  0
 28 60  1  0
 28 61  1  0
 28 62  1  0
 29 63  1  0
 29 64  1  0
 30 65  1  0
 30 66  1  0
 31 67  1  0
 32 68  1  0
 34 69  1  0
 38 70  1  0
 39 71  1  0
 41 72  1  0
 42 73  1  0
 43 74  1  0
 45 75  1  0
M  CHG  2   5  -1  16  -1
M  END
>  <UniqueID>  (15) 
15

>  <SMILES>  (15) 
Cc1cc([N-]S(=O)(=O)c2cccc(C(=O)[N-]c3cccc(C(=O)N4CCN(C)CC4)c3)c2)c2cnn(-c3ccc(O)cc3)c2c1

>  <Energy>  (15) 
149.4252218197997

>  <Genealogy>  (15) 
Cc1cc([N-]S(=O)(=O)c2cccc(C(=O)[N-]c3cccc(C(=O)N4CCN(C)CC4)c3)c2)c2cnn(-c3ccc(O)cc3)c2c1 (protonated)
Cc1cc([N-]S(=O)(=O)c2cccc(C(=O)[N-]c3cccc(C(=O)N4CCN(C)CC4)c3)c2)c2cnn(-c3ccc(O)cc3)c2c1 (3D coordinates assigned)
Cc1cc([N-]S(=O)(=O)c2cccc(C(=O)[N-]c3cccc(C(=O)N4CCN(C)CC4)c3)c2)c2cnn(-c3ccc(O)cc3)c2c1 (nonaromatic ring conformer: 149.4252218197997 kcal/mol)

>  <smiles>  (15) 
Cc1cc(NS(=O)(=O)c2cccc(C(=O)Nc3cccc(C(=O)N4CCN(C)CC4)c3)c2)c2cnn(-c3ccc(O)cc3)c2c1

>  <score_type>  (15) 
oracle

>  <origin>  (15) 
adgpu

>  <m_score__min__energy>  (15) 
-12.33

>  <m_primary>  (15) 
energy

$$$$
15:0
     RDKit          3D

 64 67  0  0  0  0  0  0  0  0999 V2000
   -8.1290   22.2560  -30.6320 C   0  0  0  0  0  0  0  0  0  0  0  0
   -8.3950   21.5510  -31.9690 C   0  0  0  0  0  0  0  0  0  0  0  0
   -9.2380   20.2730  -31.7690 C   0  0  0  0  0  0  0  0  0  0  0  0
   -8.3450   19.0320  -31.6760 C   0  0  0  0  0  0  0  0  0  0  0  0
   -7.5900   18.8080  -32.9310 N   0  0  0  0  0  0  0  0  0  0  0  0
   -6.2160   17.7720  -32.6230 S   0  0  0  0  0  0  0  0  0  0  0  0
   -6.1180   16.7140  -33.6870 O   0  0  0  0  0  0  0  0  0  0  0  0
   -6.3830   17.0970  -31.2900 O   0  0  0  0  0  0  0  0  0  0  0  0
   -4.7340   18.7270  -32.5890 C   0  0  0  0  0  0  0  0  0  0  0  0
   -4.6010   19.7720  -31.6680 C   0  0  0  0  0  0  0  0  0  0  0  0
   -3.4250   20.5310  -31.6270 C   0  0  0  0  0  0  0  0  0  0  0  0
   -2.3800   20.2680  -32.5300 C   0  0  0  0  0  0  0  0  0  0  0  0
   -1.1510   21.0050  -32.5040 N   0  0  0  0  0  0  0  0  0  0  0  0
    0.0870   20.5910  -31.9080 C   0  0  0  0  0  0  0  0  0  0  0  0
    1.1090   20.4120  -32.6180 O   0  0  0  0  0  0  0  0  0  0  0  0
    0.1710   20.3680  -30.4990 N   0  0  0  0  0  0  0  0  0  0  0  0
   -0.8240   20.7460  -29.5370 C   0  0  0  0  0  0  0  0  0  0  0  0
   -1.2530   19.8410  -28.5500 C   0  0  0  0  0  0  0  0  0  0  0  0
   -2.1680   20.2450  -27.5820 C   0  0  0  0  0  0  0  0  0  0  0  0
   -2.6470   21.5580  -27.5700 C   0  0  0  0  0  0  0  0  0  0  0  0
   -2.2200   22.4890  -28.5310 C   0  0  0  0  0  0  0  0  0  0  0  0
   -2.8050   24.1620  -28.3790 S   0  0  0  0  0  0  0  0  0  0  0  0
   -1.6330   25.0980  -28.4710 O   0  0  0  0  0  0  0  0  0  0  0  0
   -3.4450   24.3850  -27.0380 O   0  0  0  0  0  0  0  0  0  0  0  0
   -3.9320   24.5860  -29.6470 N   0  0  0  0  0  0  0  0  0  0  0  0
   -3.8930   23.5970  -30.7440 C   0  0  0  0  0  0  0  0  0  0  0  0
   -5.1770   23.6570  -31.5940 C   0  0  0  0  0  0  0  0  0  0  0  0
   -5.7230   24.9560  -31.5500 O   0  0  0  0  0  0  0  0  0  0  0  0
   -6.2330   25.2300  -30.2540 C   0  0  0  0  0  0  0  0  0  0  0  0
   -5.2920   24.7610  -29.1210 C   0  0  0  0  0  0  0  0  0  0  0  0
   -1.3030   22.0690  -29.5340 C   0  0  0  0  0  0  0  0  0  0  0  0
   -0.8480   22.9200  -30.5480 O   0  0  0  0  0  0  0  0  0  0  0  0
   -2.5140   19.2120  -33.4400 C   0  0  0  0  0  0  0  0  0  0  0  0
   -3.6880   18.4530  -33.4800 C   0  0  0  0  0  0  0  0  0  0  0  0
   -7.1760   20.0520  -33.6300 C   0  0  0  0  0  0  0  0  0  0  0  0
   -7.0580   21.2570  -32.6890 C   0  0  0  0  0  0  0  0  0  0  0  0
   -8.3844   21.5791  -29.8034 H   0  0  0  0  0  0  0  0  0  0  0  0
   -7.0657   22.5300  -30.5672 H   0  0  0  0  0  0  0  0  0  0  0  0
   -8.7463   23.1642  -30.5672 H   0  0  0  0  0  0  0  0  0  0  0  0
   -8.9851   22.2212  -32.6113 H   0  0  0  0  0  0  0  0  0  0  0  0
   -9.8192   20.3678  -30.8399 H   0  0  0  0  0  0  0  0  0  0  0  0
   -9.9077   20.1574  -32.6340 H   0  0  0  0  0  0  0  0  0  0  0  0
   -7.6317   19.1666  -30.8495 H   0  0  0  0  0  0  0  0  0  0  0  0
   -8.9887   18.1573  -31.5009 H   0  0  0  0  0  0  0  0  0  0  0  0
   -5.4235   19.9981  -30.9735 H   0  0  0  0  0  0  0  0  0  0  0  0
   -3.3184   21.3363  -30.8853 H   0  0  0  0  0  0  0  0  0  0  0  0
   -0.8648   18.8118  -28.5429 H   0  0  0  0  0  0  0  0  0  0  0  0
   -2.5155   19.5281  -26.8235 H   0  0  0  0  0  0  0  0  0  0  0  0
   -3.3676   21.8661  -26.7981 H   0  0  0  0  0  0  0  0  0  0  0  0
   -3.0264   23.8089  -31.3875 H   0  0  0  0  0  0  0  0  0  0  0  0
   -3.8129   22.5919  -30.3043 H   0  0  0  0  0  0  0  0  0  0  0  0
   -4.9369   23.3977  -32.6357 H   0  0  0  0  0  0  0  0  0  0  0  0
   -5.9105   22.9427  -31.1918 H   0  0  0  0  0  0  0  0  0  0  0  0
   -6.3819   26.3157  -30.1586 H   0  0  0  0  0  0  0  0  0  0  0  0
   -7.1764   24.6743  -30.1483 H   0  0  0  0  0  0  0  0  0  0  0  0
   -5.2800   25.5150  -28.3202 H   0  0  0  0  0  0  0  0  0  0  0  0
   -5.6537   23.8024  -28.7208 H   0  0  0  0  0  0  0  0  0  0  0  0
   -0.3280   22.6210  -31.3560 H   0  0  0  0  0  0  0  0  0  0  0  0
   -1.6891   18.9776  -34.1289 H   0  0  0  0  0  0  0  0  0  0  0  0
   -3.7904   17.6390  -34.2127 H   0  0  0  0  0  0  0  0  0  0  0  0
   -6.1980   19.8794  -34.1029 H   0  0  0  0  0  0  0  0  0  0  0  0
   -7.9543   20.2879  -34.3707 H   0  0  0  0  0  0  0  0  0  0  0  0
   -6.2853   21.0466  -31.9349 H   0  0  0  0  0  0  0  0  0  0  0  0
   -6.7905   22.1382  -33.2907 H   0  0  0  0  0  0  0  0  0  0  0  0
  1  2  1  0
  2  3  1  0
  3  4  1  0
  4  5  1  0
  5  6  1  0
  6  7  2  0
  6  8  2  0
  6  9  1  0
  9 10  2  0
 10 11  1  0
 11 12  2  0
 12 13  1  0
 13 14  1  0
 14 15  2  0
 14 16  1  0
 16 17  1  0
 17 18  2  0
 18 19  1  0
 19 20  2  0
 20 21  1  0
 21 22  1  0
 22 23  2  0
 22 24  2  0
 22 25  1  0
 25 26  1  0
 26 27  1  0
 27 28  1  0
 28 29  1  0
 29 30  1  0
 21 31  2  0
 31 32  1  0
 12 33  1  0
 33 34  2  0
  5 35  1  0
 35 36  1  0
 36  2  1  0
 34  9  1  0
 31 17  1  0
 30 25  1  0
  1 37  1  0
  1 38  1  0
  1 39  1  0
  2 40  1  0
  3 41  1  0
  3 42  1  0
  4 43  1  0
  4 44  1  0
 10 45  1  0
 11 46  1  0
 18 47  1  0
 19 48  1  0
 20 49  1  0
 26 50  1  0
 26 51  1  0
 27 52  1  0
 27 53  1  0
 29 54  1  0
 29 55  1  0
 30 56  1  0
 30 57  1  0
 32 58  1  0
 33 59  1  0
 34 60  1  0
 35 61  1  0
 35 62  1  0
 36 63  1  0
 36 64  1  0
M  CHG  2  13  -1  16  -1
M  END
>  <UniqueID>  (16) 
16

>  <SMILES>  (16) 
CC1CCN(S(=O)(=O)c2ccc([N-]C(=O)[N-]c3cccc(S(=O)(=O)N4CCOCC4)c3O)cc2)CC1

>  <Energy>  (16) 
89.84372572326376

>  <Genealogy>  (16) 
CC1CCN(S(=O)(=O)c2ccc([N-]C(=O)[N-]c3cccc(S(=O)(=O)N4CCOCC4)c3O)cc2)CC1 (protonated)
CC1CCN(S(=O)(=O)c2ccc([N-]C(=O)[N-]c3cccc(S(=O)(=O)N4CCOCC4)c3O)cc2)CC1 (3D coordinates assigned)
CC1CCN(S(=O)(=O)c2ccc([N-]C(=O)[N-]c3cccc(S(=O)(=O)N4CCOCC4)c3O)cc2)CC1 (nonaromatic ring conformer: 89.84372572326376 kcal/mol)

>  <smiles>  (16) 
CC1CCN(S(=O)(=O)c2ccc(NC(=O)Nc3cccc(S(=O)(=O)N4CCOCC4)c3O)cc2)CC1

>  <score_type>  (16) 
oracle

>  <origin>  (16) 
adgpu

>  <m_score__min__energy>  (16) 
-12.56

>  <m_primary>  (16) 
energy

$$$$
16:0
     RDKit          3D

 59 62  0  0  0  0  0  0  0  0999 V2000
   -4.5330   22.3650  -29.5170 O   0  0  0  0  0  0  0  0  0  0  0  0
   -4.1870   23.0760  -30.4990 C   0  0  0  0  0  0  0  0  0  0  0  0
   -2.8100   23.4040  -30.7100 N   0  0  0  0  0  0  0  0  0  0  0  0
   -1.7560   23.3020  -29.7410 C   0  0  0  0  0  0  0  0  0  0  0  0
   -1.1690   22.0670  -29.4200 C   0  0  0  0  0  0  0  0  0  0  0  0
   -0.1800   21.9900  -28.4370 C   0  0  0  0  0  0  0  0  0  0  0  0
    0.2280   23.1410  -27.7640 C   0  0  0  0  0  0  0  0  0  0  0  0
   -0.3480   24.3820  -28.0690 C   0  0  0  0  0  0  0  0  0  0  0  0
    0.1610   25.8300  -27.1940 S   0  0  0  0  0  0  0  0  0  0  0  0
   -0.4830   27.0210  -27.8440 O   0  0  0  0  0  0  0  0  0  0  0  0
    1.6560   25.9650  -27.2760 O   0  0  0  0  0  0  0  0  0  0  0  0
   -0.3340   25.7280  -25.5160 N   0  0  0  0  0  0  0  0  0  0  0  0
   -1.0230   24.4520  -25.2180 C   0  0  0  0  0  0  0  0  0  0  0  0
   -0.1150   23.4380  -24.5040 C   0  0  0  0  0  0  0  0  0  0  0  0
    1.2110   23.5640  -24.9640 O   0  0  0  0  0  0  0  0  0  0  0  0
    1.7700   24.7890  -24.5210 C   0  0  0  0  0  0  0  0  0  0  0  0
    0.7930   25.9850  -24.6010 C   0  0  0  0  0  0  0  0  0  0  0  0
   -1.3580   24.4560  -29.0470 C   0  0  0  0  0  0  0  0  0  0  0  0
   -1.9690   25.6720  -29.3350 O   0  0  0  0  0  0  0  0  0  0  0  0
   -5.1660   23.5720  -31.4190 N   0  0  0  0  0  0  0  0  0  0  0  0
   -6.4590   23.0020  -31.6690 C   0  0  0  0  0  0  0  0  0  0  0  0
   -7.6040   23.8120  -31.7560 C   0  0  0  0  0  0  0  0  0  0  0  0
   -8.8580   23.2390  -31.9720 C   0  0  0  0  0  0  0  0  0  0  0  0
   -8.9860   21.8560  -32.0950 C   0  0  0  0  0  0  0  0  0  0  0  0
   -7.8590   21.0300  -31.9860 C   0  0  0  0  0  0  0  0  0  0  0  0
   -8.0280   19.2830  -32.1780 S   0  0  0  0  0  0  0  0  0  0  0  0
   -9.1590   18.9730  -33.1210 O   0  0  0  0  0  0  0  0  0  0  0  0
   -8.3420   18.6720  -30.8390 O   0  0  0  0  0  0  0  0  0  0  0  0
   -6.5340   18.6220  -32.7920 N   0  0  0  0  0  0  0  0  0  0  0  0
   -6.5850   17.1540  -32.7650 C   0  0  0  0  0  0  0  0  0  0  0  0
   -5.2650   16.5700  -33.3110 C   0  0  0  0  0  0  0  0  0  0  0  0
   -4.4320   17.5640  -33.8840 O   0  0  0  0  0  0  0  0  0  0  0  0
   -5.1630   18.3080  -34.8390 C   0  0  0  0  0  0  0  0  0  0  0  0
   -6.3000   19.1010  -34.1670 C   0  0  0  0  0  0  0  0  0  0  0  0
   -6.5910   21.6030  -31.7720 C   0  0  0  0  0  0  0  0  0  0  0  0
   -5.4720   20.7720  -31.6780 O   0  0  0  0  0  0  0  0  0  0  0  0
   -1.4900   21.1556  -29.9457 H   0  0  0  0  0  0  0  0  0  0  0  0
    0.2778   21.0199  -28.1933 H   0  0  0  0  0  0  0  0  0  0  0  0
    1.0062   23.0748  -26.9894 H   0  0  0  0  0  0  0  0  0  0  0  0
   -1.8895   24.6624  -24.5739 H   0  0  0  0  0  0  0  0  0  0  0  0
   -1.3263   24.0073  -26.1773 H   0  0  0  0  0  0  0  0  0  0  0  0
   -0.1430   23.6251  -23.4204 H   0  0  0  0  0  0  0  0  0  0  0  0
   -0.4744   22.4208  -24.7188 H   0  0  0  0  0  0  0  0  0  0  0  0
    2.0853   24.6680  -23.4741 H   0  0  0  0  0  0  0  0  0  0  0  0
    2.6125   25.0177  -25.1903 H   0  0  0  0  0  0  0  0  0  0  0  0
    0.3938   26.1832  -23.5954 H   0  0  0  0  0  0  0  0  0  0  0  0
    1.3512   26.8494  -24.9899 H   0  0  0  0  0  0  0  0  0  0  0  0
   -7.5114   24.9033  -31.6533 H   0  0  0  0  0  0  0  0  0  0  0  0
   -9.7485   23.8806  -32.0455 H   0  0  0  0  0  0  0  0  0  0  0  0
   -9.9754   21.4115  -32.2783 H   0  0  0  0  0  0  0  0  0  0  0  0
   -6.7332   16.8136  -31.7295 H   0  0  0  0  0  0  0  0  0  0  0  0
   -7.4195   16.8100  -33.3938 H   0  0  0  0  0  0  0  0  0  0  0  0
   -4.7228   16.0881  -32.4841 H   0  0  0  0  0  0  0  0  0  0  0  0
   -5.5184   15.8477  -34.1010 H   0  0  0  0  0  0  0  0  0  0  0  0
   -4.4840   19.0106  -35.3443 H   0  0  0  0  0  0  0  0  0  0  0  0
   -5.6041   17.6094  -35.5652 H   0  0  0  0  0  0  0  0  0  0  0  0
   -6.0268   20.1661  -34.1358 H   0  0  0  0  0  0  0  0  0  0  0  0
   -7.2213   18.9578  -34.7508 H   0  0  0  0  0  0  0  0  0  0  0  0
   -4.5990   21.0780  -31.2660 H   0  0  0  0  0  0  0  0  0  0  0  0
  1  2  2  0
  2  3  1  0
  3  4  1  0
  4  5  2  0
  5  6  1  0
  6  7  2  0
  7  8  1  0
  8  9  1  0
  9 10  2  0
  9 11  2  0
  9 12  1  0
 12 13  1  0
 13 14  1  0
 14 15  1  0
 15 16  1  0
 16 17  1  0
  8 18  2  0
 18 19  1  0
  2 20  1  0
 20 21  1  0
 21 22  2  0
 22 23  1  0
 23 24  2  0
 24 25  1  0
 25 26  1  0
 26 27  2  0
 26 28  2  0
 26 29  1  0
 29 30  1  0
 30 31  1  0
 31 32  1  0
 32 33  1  0
 33 34  1  0
 25 35  2  0
 35 36  1  0
 18  4  1  0
 35 21  1  0
 17 12  1  0
 34 29  1  0
  5 37  1  0
  6 38  1  0
  7 39  1  0
 13 40  1  0
 13 41  1  0
 14 42  1  0
 14 43  1  0
 16 44  1  0
 16 45  1  0
 17 46  1  0
 17 47  1  0
 22 48  1  0
 23 49  1  0
 24 50  1  0
 30 51  1  0
 30 52  1  0
 31 53  1  0
 31 54  1  0
 33 55  1  0
 33 56  1  0
 34 57  1  0
 34 58  1  0
 36 59  1  0
M  CHG  3   3  -1  19  -1  20  -1
M  END
>  <UniqueID>  (17) 
17

>  <SMILES>  (17) 
O=C([N-]c1cccc(S(=O)(=O)N2CCOCC2)c1[O-])[N-]c1cccc(S(=O)(=O)N2CCOCC2)c1O

>  <Energy>  (17) 
89.18579525028643

>  <Genealogy>  (17) 
O=C([N-]c1cccc(S(=O)(=O)N2CCOCC2)c1[O-])[N-]c1cccc(S(=O)(=O)N2CCOCC2)c1O (protonated)
O=C([N-]c1cccc(S(=O)(=O)N2CCOCC2)c1[O-])[N-]c1cccc(S(=O)(=O)N2CCOCC2)c1O (3D coordinates assigned)
O=C([N-]c1cccc(S(=O)(=O)N2CCOCC2)c1[O-])[N-]c1cccc(S(=O)(=O)N2CCOCC2)c1O (nonaromatic ring conformer: 89.18579525028643 kcal/mol)

>  <smiles>  (17) 
O=C(Nc1cccc(S(=O)(=O)N2CCOCC2)c1O)Nc1cccc(S(=O)(=O)N2CCOCC2)c1O

>  <score_type>  (17) 
oracle

>  <origin>  (17) 
adgpu

>  <m_score__min__energy>  (17) 
-15.949999999999999

>  <m_primary>  (17) 
energy

$$$$
17:0
     RDKit          3D

 54 57  0  0  0  0  0  0  0  0999 V2000
   -2.3900   22.4530  -31.1010 N   0  0  0  0  0  0  0  0  0  0  0  0
   -2.1550   23.0860  -29.8310 C   0  0  0  0  0  0  0  0  0  0  0  0
   -1.3430   22.4470  -28.8830 C   0  0  0  0  0  0  0  0  0  0  0  0
   -1.1270   23.0280  -27.6290 C   0  0  0  0  0  0  0  0  0  0  0  0
   -1.7160   24.2540  -27.3150 C   0  0  0  0  0  0  0  0  0  0  0  0
   -2.5120   24.9110  -28.2570 C   0  0  0  0  0  0  0  0  0  0  0  0
   -2.7300   24.3420  -29.5260 C   0  0  0  0  0  0  0  0  0  0  0  0
   -3.5860   24.9800  -30.4850 N   0  0  0  0  0  0  0  0  0  0  0  0
   -5.0220   24.9950  -30.4670 C   0  0  0  0  0  0  0  0  0  0  0  0
   -5.6330   25.9900  -29.9970 O   0  0  0  0  0  0  0  0  0  0  0  0
   -5.7850   23.8690  -31.0590 C   0  0  0  0  0  0  0  0  0  0  0  0
   -7.1650   23.7400  -30.8300 C   0  0  0  0  0  0  0  0  0  0  0  0
   -7.8750   22.6600  -31.3610 C   0  0  0  0  0  0  0  0  0  0  0  0
   -7.2180   21.6830  -32.1220 C   0  0  0  0  0  0  0  0  0  0  0  0
   -7.9760   20.4810  -32.6210 C   0  0  0  0  0  0  0  0  0  0  0  0
   -7.1320   19.2880  -32.5490 N   0  0  0  0  0  0  0  0  0  0  0  0
   -6.2820   18.8920  -33.6360 C   0  0  0  0  0  0  0  0  0  0  0  0
   -6.4810   19.3620  -34.7910 O   0  0  0  0  0  0  0  0  0  0  0  0
   -5.1500   17.9760  -33.4180 C   0  0  0  0  0  0  0  0  0  0  0  0
   -5.1650   16.7180  -32.8370 C   0  0  0  0  0  0  0  0  0  0  0  0
   -3.9030   16.2600  -32.7410 N   0  0  0  0  0  0  0  0  0  0  0  0
   -3.1020   17.1810  -33.2560 N   0  0  0  0  0  0  0  0  0  0  0  0
   -1.6450   17.1080  -33.2090 C   0  0  0  0  0  0  0  0  0  0  0  0
   -1.0710   18.4970  -33.2640 C   0  0  0  0  0  0  0  0  0  0  0  0
   -0.9530   19.1670  -34.4930 C   0  0  0  0  0  0  0  0  0  0  0  0
   -0.4920   20.4900  -34.5350 C   0  0  0  0  0  0  0  0  0  0  0  0
   -0.1590   21.1550  -33.3520 C   0  0  0  0  0  0  0  0  0  0  0  0
   -0.2840   20.4960  -32.1230 C   0  0  0  0  0  0  0  0  0  0  0  0
   -0.7410   19.1730  -32.0770 C   0  0  0  0  0  0  0  0  0  0  0  0
   -3.8210   18.2380  -33.6740 C   0  0  0  0  0  0  0  0  0  0  0  0
   -5.8440   21.8160  -32.3650 C   0  0  0  0  0  0  0  0  0  0  0  0
   -5.1350   22.9010  -31.8420 C   0  0  0  0  0  0  0  0  0  0  0  0
   -2.7490   22.9890  -31.9230 H   0  0  0  0  0  0  0  0  0  0  0  0
   -2.2170   21.4300  -31.2270 H   0  0  0  0  0  0  0  0  0  0  0  0
   -0.8730   21.4829  -29.1270 H   0  0  0  0  0  0  0  0  0  0  0  0
   -0.4922   22.5181  -26.8894 H   0  0  0  0  0  0  0  0  0  0  0  0
   -1.5533   24.7037  -26.3244 H   0  0  0  0  0  0  0  0  0  0  0  0
   -2.9710   25.8785  -28.0054 H   0  0  0  0  0  0  0  0  0  0  0  0
   -7.6910   24.4954  -30.2277 H   0  0  0  0  0  0  0  0  0  0  0  0
   -8.9568   22.5758  -31.1807 H   0  0  0  0  0  0  0  0  0  0  0  0
   -8.8709   20.3315  -31.9991 H   0  0  0  0  0  0  0  0  0  0  0  0
   -8.2708   20.6505  -33.6671 H   0  0  0  0  0  0  0  0  0  0  0  0
   -7.0860   18.7770  -31.6430 H   0  0  0  0  0  0  0  0  0  0  0  0
   -6.0654   16.1792  -32.5067 H   0  0  0  0  0  0  0  0  0  0  0  0
   -1.3324   16.6189  -32.2746 H   0  0  0  0  0  0  0  0  0  0  0  0
   -1.2793   16.5261  -34.0679 H   0  0  0  0  0  0  0  0  0  0  0  0
   -1.2235   18.6513  -35.4262 H   0  0  0  0  0  0  0  0  0  0  0  0
   -0.3921   21.0059  -35.5014 H   0  0  0  0  0  0  0  0  0  0  0  0
    0.2006   22.1940  -33.3862 H   0  0  0  0  0  0  0  0  0  0  0  0
   -0.0226   21.0188  -31.1911 H   0  0  0  0  0  0  0  0  0  0  0  0
   -0.8420   18.6613  -31.1085 H   0  0  0  0  0  0  0  0  0  0  0  0
   -3.4194   19.1507  -34.1383 H   0  0  0  0  0  0  0  0  0  0  0  0
   -5.3205   21.0619  -32.9710 H   0  0  0  0  0  0  0  0  0  0  0  0
   -4.0583   22.9977  -32.0454 H   0  0  0  0  0  0  0  0  0  0  0  0
  1  2  1  0
  2  3  2  0
  3  4  1  0
  4  5  2  0
  5  6  1  0
  6  7  2  0
  7  8  1  0
  8  9  1  0
  9 10  2  0
  9 11  1  0
 11 12  2  0
 12 13  1  0
 13 14  2  0
 14 15  1  0
 15 16  1  0
 16 17  1  0
 17 18  2  0
 17 19  1  0
 19 20  1  0
 20 21  2  0
 21 22  1  0
 22 23  1  0
 23 24  1  0
 24 25  2  0
 25 26  1  0
 26 27  2  0
 27 28  1  0
 28 29  2  0
 22 30  1  0
 14 31  1  0
 31 32  2  0
  7  2  1  0
 32 11  1  0
 30 19  2  0
 29 24  1  0
  1 33  1  0
  1 34  1  0
  3 35  1  0
  4 36  1  0
  5 37  1  0
  6 38  1  0
 12 39  1  0
 13 40  1  0
 15 41  1  0
 15 42  1  0
 16 43  1  0
 20 44  1  0
 23 45  1  0
 23 46  1  0
 25 47  1  0
 26 48  1  0
 27 49  1  0
 28 50  1  0
 29 51  1  0
 30 52  1  0
 31 53  1  0
 32 54  1  0
M  CHG  1   8  -1
M  END
>  <UniqueID>  (18) 
18

>  <SMILES>  (18) 
Nc1ccccc1[N-]C(=O)c1ccc(CNC(=O)c2cnn(Cc3ccccc3)c2)cc1

>  <Energy>  (18) 
89.2306854297184

>  <Genealogy>  (18) 
Nc1ccccc1[N-]C(=O)c1ccc(CNC(=O)c2cnn(Cc3ccccc3)c2)cc1 (protonated)
Nc1ccccc1[N-]C(=O)c1ccc(CNC(=O)c2cnn(Cc3ccccc3)c2)cc1 (3D coordinates assigned)
Nc1ccccc1[N-]C(=O)c1ccc(CNC(=O)c2cnn(Cc3ccccc3)c2)cc1 (optimized conformer: 89.2306854297184 kcal/mol)

>  <smiles>  (18) 
Nc1ccccc1NC(=O)c1ccc(CNC(=O)c2cnn(Cc3ccccc3)c2)cc1

>  <score_type>  (18) 
oracle

>  <origin>  (18) 
adgpu

>  <m_score__min__energy>  (18) 
-11.890000000000001

>  <m_primary>  (18) 
energy

$$$$
18:0
     RDKit          3D

 32 34  0  0  0  0  0  0  0  0999 V2000
   -2.8106   20.7855  -27.0483 H   0  0  0  0  0  0  0  0  0  0  0  0
   -2.3490   21.0020  -28.0230 C   0  0  0  0  0  0  0  0  0  0  0  0
   -1.4240   20.1320  -28.4820 C   0  0  0  0  0  0  0  0  0  0  0  0
   -0.9760   19.0030  -27.6290 C   0  0  0  0  0  0  0  0  0  0  0  0
   -1.3860   18.8950  -26.4400 O   0  0  0  0  0  0  0  0  0  0  0  0
   -0.0240   18.0080  -28.1740 C   0  0  0  0  0  0  0  0  0  0  0  0
    0.6130   17.0800  -27.3310 C   0  0  0  0  0  0  0  0  0  0  0  0
    0.3984   17.0827  -26.2521 H   0  0  0  0  0  0  0  0  0  0  0  0
    1.5170   16.1550  -27.8580 C   0  0  0  0  0  0  0  0  0  0  0  0
    2.0158   15.4350  -27.1926 H   0  0  0  0  0  0  0  0  0  0  0  0
    1.7890   16.1420  -29.2270 C   0  0  0  0  0  0  0  0  0  0  0  0
    2.5017   15.4120  -29.6384 H   0  0  0  0  0  0  0  0  0  0  0  0
    1.1580   17.0540  -30.0750 C   0  0  0  0  0  0  0  0  0  0  0  0
    1.3644   17.0307  -31.1552 H   0  0  0  0  0  0  0  0  0  0  0  0
    0.2610   18.0010  -29.5550 C   0  0  0  0  0  0  0  0  0  0  0  0
   -0.4840   18.9240  -30.4880 C   0  0  0  0  0  0  0  0  0  0  0  0
   -1.4408   18.4558  -30.7626 H   0  0  0  0  0  0  0  0  0  0  0  0
    0.1441   19.0919  -31.3753 H   0  0  0  0  0  0  0  0  0  0  0  0
   -0.7660   20.2860  -29.8400 C   0  0  0  0  0  0  0  0  0  0  0  0
   -1.4337   20.8626  -30.4970 H   0  0  0  0  0  0  0  0  0  0  0  0
    0.1931   20.8063  -29.7009 H   0  0  0  0  0  0  0  0  0  0  0  0
   -2.7890   22.2240  -28.7310 C   0  0  0  0  0  0  0  0  0  0  0  0
   -3.9440   22.2270  -29.5340 C   0  0  0  0  0  0  0  0  0  0  0  0
   -4.5553   21.3163  -29.6175 H   0  0  0  0  0  0  0  0  0  0  0  0
   -4.3180   23.3820  -30.2260 C   0  0  0  0  0  0  0  0  0  0  0  0
   -5.2306   23.3828  -30.8402 H   0  0  0  0  0  0  0  0  0  0  0  0
   -3.5340   24.5370  -30.1390 C   0  0  0  0  0  0  0  0  0  0  0  0
   -3.9120   25.6830  -30.8270 O   0  0  0  0  0  0  0  0  0  0  0  0
   -2.3680   24.5320  -29.3640 C   0  0  0  0  0  0  0  0  0  0  0  0
   -1.5780   25.6740  -29.2830 O   0  0  0  0  0  0  0  0  0  0  0  0
   -1.9920   23.3760  -28.6720 C   0  0  0  0  0  0  0  0  0  0  0  0
   -1.0660   23.3707  -28.0783 H   0  0  0  0  0  0  0  0  0  0  0  0
  1  2  1  0
  2  3  2  0
  3  4  1  0
  4  5  2  0
  4  6  1  0
  6  7  2  0
  7  8  1  0
  7  9  1  0
  9 10  1  0
  9 11  2  0
 11 12  1  0
 11 13  1  0
 13 14  1  0
 13 15  2  0
 15 16  1  0
 16 17  1  0
 16 18  1  0
 16 19  1  0
 19 20  1  0
 19 21  1  0
  2 22  1  0
 22 23  2  0
 23 24  1  0
 23 25  1  0
 25 26  1  0
 25 27  2  0
 27 28  1  0
 27 29  1  0
 29 30  1  0
 29 31  2  0
 31 32  1  0
 19  3  1  0
 31 22  1  0
 15  6  1  0
M  CHG  2  28  -1  30  -1
M  END
>  <UniqueID>  (19) 
19

>  <SMILES>  (19) 
O=C1/C(=C/c2ccc([O-])c([O-])c2)CCc2ccccc21

>  <Energy>  (19) 
44.1269463698613

>  <Genealogy>  (19) 
O=C1C(=Cc2ccc([O-])c([O-])c2)CCc2ccccc21 (protonated)
O=C1/C(=C/c2ccc([O-])c([O-])c2)CCc2ccccc21 (cis-trans isomerization)
O=C1/C(=C/c2ccc([O-])c([O-])c2)CCc2ccccc21 (3D coordinates assigned)
O=C1/C(=C/c2ccc([O-])c([O-])c2)CCc2ccccc21 (nonaromatic ring conformer: 44.1269463698613 kcal/mol)

>  <smiles>  (19) 
O=C1C(=Cc2ccc(O)c(O)c2)CCc2ccccc21

>  <score_type>  (19) 
oracle

>  <origin>  (19) 
adgpu

>  <m_score__min__energy>  (19) 
-12.83

>  <m_primary>  (19) 
energy

$$$$
19:0
     RDKit          3D

 43 45  0  0  0  0  0  0  0  0999 V2000
   -5.7330   26.0070  -31.1340 O   0  0  0  0  0  0  0  0  0  0  0  0
   -5.1860   24.8180  -30.3940 S   0  0  0  0  0  0  0  0  0  0  0  0
   -5.7530   24.8040  -29.0020 O   0  0  0  0  0  0  0  0  0  0  0  0
   -3.4560   24.9380  -30.3180 N   0  0  0  0  0  0  0  0  0  0  0  0
   -2.6360   24.2590  -29.3560 C   0  0  0  0  0  0  0  0  0  0  0  0
   -2.8840   22.9010  -29.1140 C   0  0  0  0  0  0  0  0  0  0  0  0
   -2.1460   22.2030  -28.1520 C   0  0  0  0  0  0  0  0  0  0  0  0
   -2.4930   20.5130  -27.8340 Cl  0  0  0  0  0  0  0  0  0  0  0  0
   -1.1370   22.8550  -27.4380 C   0  0  0  0  0  0  0  0  0  0  0  0
   -0.8600   24.2000  -27.6910 C   0  0  0  0  0  0  0  0  0  0  0  0
   -1.5960   24.9070  -28.6530 C   0  0  0  0  0  0  0  0  0  0  0  0
   -1.2740   26.2360  -28.9230 O   0  0  0  0  0  0  0  0  0  0  0  0
   -5.6290   23.3590  -31.2740 C   0  0  0  0  0  0  0  0  0  0  0  0
   -4.6320   22.6170  -31.9200 C   0  0  0  0  0  0  0  0  0  0  0  0
   -4.9480   21.4090  -32.5450 C   0  0  0  0  0  0  0  0  0  0  0  0
   -6.2640   20.9270  -32.5210 C   0  0  0  0  0  0  0  0  0  0  0  0
   -6.6390   19.3450  -33.2050 S   0  0  0  0  0  0  0  0  0  0  0  0
   -8.0780   19.0160  -32.9110 O   0  0  0  0  0  0  0  0  0  0  0  0
   -6.4770   19.4020  -34.6990 O   0  0  0  0  0  0  0  0  0  0  0  0
   -5.6140   18.0810  -32.5540 N   0  0  0  0  0  0  0  0  0  0  0  0
   -6.2570   16.7520  -32.5880 C   0  0  0  0  0  0  0  0  0  0  0  0
   -6.1130   16.0380  -33.9530 C   0  0  0  0  0  0  0  0  0  0  0  0
   -5.2820   16.7360  -34.8560 O   0  0  0  0  0  0  0  0  0  0  0  0
   -4.0560   17.0370  -34.2330 C   0  0  0  0  0  0  0  0  0  0  0  0
   -4.2530   18.0930  -33.1330 C   0  0  0  0  0  0  0  0  0  0  0  0
   -7.2680   21.6850  -31.9040 C   0  0  0  0  0  0  0  0  0  0  0  0
   -6.9530   22.8960  -31.2830 C   0  0  0  0  0  0  0  0  0  0  0  0
   -3.6658   22.3793  -29.6855 H   0  0  0  0  0  0  0  0  0  0  0  0
   -0.5610   22.3086  -26.6766 H   0  0  0  0  0  0  0  0  0  0  0  0
   -0.0599   24.7080  -27.1326 H   0  0  0  0  0  0  0  0  0  0  0  0
   -1.9890   26.9490  -29.0040 H   0  0  0  0  0  0  0  0  0  0  0  0
   -3.5963   22.9873  -31.9350 H   0  0  0  0  0  0  0  0  0  0  0  0
   -4.1624   20.8343  -33.0574 H   0  0  0  0  0  0  0  0  0  0  0  0
   -5.7963   16.1212  -31.8135 H   0  0  0  0  0  0  0  0  0  0  0  0
   -7.3320   16.9052  -32.4119 H   0  0  0  0  0  0  0  0  0  0  0  0
   -5.6845   15.0393  -33.7827 H   0  0  0  0  0  0  0  0  0  0  0  0
   -7.1152   15.9836  -34.4031 H   0  0  0  0  0  0  0  0  0  0  0  0
   -3.6436   16.1209  -33.7850 H   0  0  0  0  0  0  0  0  0  0  0  0
   -3.3631   17.4365  -34.9882 H   0  0  0  0  0  0  0  0  0  0  0  0
   -3.5285   17.8995  -32.3282 H   0  0  0  0  0  0  0  0  0  0  0  0
   -4.1018   19.0798  -33.5949 H   0  0  0  0  0  0  0  0  0  0  0  0
   -8.3075   21.3253  -31.9086 H   0  0  0  0  0  0  0  0  0  0  0  0
   -7.7448   23.4876  -30.8002 H   0  0  0  0  0  0  0  0  0  0  0  0
  1  2  2  0
  2  3  2  0
  2  4  1  0
  4  5  1  0
  5  6  2  0
  6  7  1  0
  7  8  1  0
  7  9  2  0
  9 10  1  0
 10 11  2  0
 11 12  1  0
  2 13  1  0
 13 14  2  0
 14 15  1  0
 15 16  2  0
 16 17  1  0
 17 18  2  0
 17 19  2  0
 17 20  1  0
 20 21  1  0
 21 22  1  0
 22 23  1  0
 23 24  1  0
 24 25  1  0
 16 26  1  0
 26 27  2  0
 11  5  1  0
 27 13  1  0
 25 20  1  0
  6 28  1  0
  9 29  1  0
 10 30  1  0
 12 31  1  0
 14 32  1  0
 15 33  1  0
 21 34  1  0
 21 35  1  0
 22 36  1  0
 22 37  1  0
 24 38  1  0
 24 39  1  0
 25 40  1  0
 25 41  1  0
 26 42  1  0
 27 43  1  0
M  CHG  1   4  -1
M  END
>  <UniqueID>  (20) 
20

>  <SMILES>  (20) 
O=S(=O)([N-]c1cc(Cl)ccc1O)c1ccc(S(=O)(=O)N2CCOCC2)cc1

>  <Energy>  (20) 
58.78915950460829

>  <Genealogy>  (20) 
O=S(=O)([N-]c1cc(Cl)ccc1O)c1ccc(S(=O)(=O)N2CCOCC2)cc1 (protonated)
O=S(=O)([N-]c1cc(Cl)ccc1O)c1ccc(S(=O)(=O)N2CCOCC2)cc1 (3D coordinates assigned)
O=S(=O)([N-]c1cc(Cl)ccc1O)c1ccc(S(=O)(=O)N2CCOCC2)cc1 (nonaromatic ring conformer: 58.78915950460829 kcal/mol)

>  <smiles>  (20) 
O=S(=O)(Nc1cc(Cl)ccc1O)c1ccc(S(=O)(=O)N2CCOCC2)cc1

>  <score_type>  (20) 
oracle

>  <origin>  (20) 
adgpu

>  <m_score__min__energy>  (20) 
-12.470000000000001

>  <m_primary>  (20) 
energy

$$$$
20:0
     RDKit          3D

 44 46  0  0  0  0  0  0  0  0999 V2000
   -3.8580   22.2500  -33.8320 O   0  0  0  0  0  0  0  0  0  0  0  0
   -3.9380   21.5790  -32.7710 C   0  0  0  0  0  0  0  0  0  0  0  0
   -4.9850   20.6030  -32.6570 N   0  0  0  0  0  0  0  0  0  0  0  0
   -5.1190   19.3190  -33.2940 C   0  0  0  0  0  0  0  0  0  0  0  0
   -4.0300   18.6920  -33.9290 C   0  0  0  0  0  0  0  0  0  0  0  0
   -4.1890   17.4540  -34.5510 C   0  0  0  0  0  0  0  0  0  0  0  0
   -5.4240   16.8130  -34.5290 C   0  0  0  0  0  0  0  0  0  0  0  0
   -6.5040   17.3970  -33.8660 C   0  0  0  0  0  0  0  0  0  0  0  0
   -6.3630   18.6460  -33.2290 C   0  0  0  0  0  0  0  0  0  0  0  0
   -7.5250   19.2550  -32.4710 C   0  0  0  0  0  0  0  0  0  0  0  0
   -8.5300   18.3150  -32.3360 F   0  0  0  0  0  0  0  0  0  0  0  0
   -8.0460   20.3580  -33.1260 F   0  0  0  0  0  0  0  0  0  0  0  0
   -7.1100   19.6530  -31.2140 F   0  0  0  0  0  0  0  0  0  0  0  0
   -2.9600   21.8450  -31.7000 C   0  0  0  0  0  0  0  0  0  0  0  0
   -1.7700   21.0970  -31.7150 C   0  0  0  0  0  0  0  0  0  0  0  0
   -0.8010   21.2790  -30.7300 C   0  0  0  0  0  0  0  0  0  0  0  0
   -1.0170   22.1920  -29.7020 C   0  0  0  0  0  0  0  0  0  0  0  0
   -2.2080   22.9170  -29.6480 C   0  0  0  0  0  0  0  0  0  0  0  0
   -3.1990   22.7540  -30.6340 C   0  0  0  0  0  0  0  0  0  0  0  0
   -4.7380   23.6270  -30.4220 S   0  0  0  0  0  0  0  0  0  0  0  0
   -5.0190   23.7310  -28.9490 O   0  0  0  0  0  0  0  0  0  0  0  0
   -4.6040   25.0290  -30.9390 O   0  0  0  0  0  0  0  0  0  0  0  0
   -6.1150   22.8340  -31.1660 N   0  0  0  0  0  0  0  0  0  0  0  0
   -6.8920   23.7100  -32.0460 C   0  0  0  0  0  0  0  0  0  0  0  0
   -8.2690   23.0800  -32.1530 C   0  0  0  0  0  0  0  0  0  0  0  0
   -8.4430   22.3030  -30.8560 C   0  0  0  0  0  0  0  0  0  0  0  0
   -7.0700   22.2950  -30.1910 C   0  0  0  0  0  0  0  0  0  0  0  0
   -3.0455   19.1827  -33.9345 H   0  0  0  0  0  0  0  0  0  0  0  0
   -3.3356   16.9827  -35.0606 H   0  0  0  0  0  0  0  0  0  0  0  0
   -5.5490   15.8444  -35.0351 H   0  0  0  0  0  0  0  0  0  0  0  0
   -7.4736   16.8781  -33.8404 H   0  0  0  0  0  0  0  0  0  0  0  0
   -1.6016   20.3594  -32.5135 H   0  0  0  0  0  0  0  0  0  0  0  0
    0.1343   20.7012  -30.7650 H   0  0  0  0  0  0  0  0  0  0  0  0
   -0.2474   22.3423  -28.9306 H   0  0  0  0  0  0  0  0  0  0  0  0
   -2.3747   23.6257  -28.8234 H   0  0  0  0  0  0  0  0  0  0  0  0
   -5.7500   22.0360  -31.7410 H   0  0  0  0  0  0  0  0  0  0  0  0
   -6.9656   24.7186  -31.6133 H   0  0  0  0  0  0  0  0  0  0  0  0
   -6.4179   23.8127  -33.0333 H   0  0  0  0  0  0  0  0  0  0  0  0
   -9.0436   23.8553  -32.2471 H   0  0  0  0  0  0  0  0  0  0  0  0
   -8.3628   22.4350  -33.0391 H   0  0  0  0  0  0  0  0  0  0  0  0
   -9.1801   22.7994  -30.2077 H   0  0  0  0  0  0  0  0  0  0  0  0
   -8.8102   21.2827  -31.0406 H   0  0  0  0  0  0  0  0  0  0  0  0
   -7.0840   22.9244  -29.2890 H   0  0  0  0  0  0  0  0  0  0  0  0
   -6.7875   21.2758  -29.8886 H   0  0  0  0  0  0  0  0  0  0  0  0
  1  2  2  0
  2  3  1  0
  3  4  1  0
  4  5  2  0
  5  6  1  0
  6  7  2  0
  7  8  1  0
  8  9  2  0
  9 10  1  0
 10 11  1  0
 10 12  1  0
 10 13  1  0
  2 14  1  0
 14 15  2  0
 15 16  1  0
 16 17  2  0
 17 18  1  0
 18 19  2  0
 19 20  1  0
 20 21  2  0
 20 22  2  0
 20 23  1  0
 23 24  1  0
 24 25  1  0
 25 26  1  0
 26 27  1  0
  9  4  1  0
 19 14  1  0
 27 23  1  0
  5 28  1  0
  6 29  1  0
  7 30  1  0
  8 31  1  0
 15 32  1  0
 16 33  1  0
 17 34  1  0
 18 35  1  0
 23 36  1  0
 24 37  1  0
 24 38  1  0
 25 39  1  0
 25 40  1  0
 26 41  1  0
 26 42  1  0
 27 43  1  0
 27 44  1  0
M  CHG  2   3  -1  23   1
M  END
>  <UniqueID>  (21) 
21

>  <SMILES>  (21) 
O=C([N-]c1ccccc1C(F)(F)F)c1ccccc1S(=O)(=O)[NH+]1CCCC1

>  <Energy>  (21) 
64.13850419362896

>  <Genealogy>  (21) 
O=C([N-]c1ccccc1C(F)(F)F)c1ccccc1S(=O)(=O)[NH+]1CCCC1 (protonated)
O=C([N-]c1ccccc1C(F)(F)F)c1ccccc1S(=O)(=O)[NH+]1CCCC1 (3D coordinates assigned)
O=C([N-]c1ccccc1C(F)(F)F)c1ccccc1S(=O)(=O)[NH+]1CCCC1 (nonaromatic ring conformer: 64.13850419362896 kcal/mol)

>  <smiles>  (21) 
O=C(Nc1ccccc1C(F)(F)F)c1ccccc1S(=O)(=O)N1CCCC1

>  <score_type>  (21) 
oracle

>  <origin>  (21) 
adgpu

>  <m_score__min__energy>  (21) 
-9.1699999999999999

>  <m_primary>  (21) 
energy

$$$$
21:0
     RDKit          3D

 52 54  0  0  0  0  0  0  0  0999 V2000
   -9.7320   20.0330  -32.7260 C   0  0  0  0  0  0  0  0  0  0  0  0
   -8.6740   20.6190  -31.9000 N   0  0  0  0  0  0  0  0  0  0  0  0
   -7.6690   19.7550  -31.2700 C   0  0  0  0  0  0  0  0  0  0  0  0
   -8.7240   22.0260  -31.5920 C   0  0  0  0  0  0  0  0  0  0  0  0
   -9.8390   22.6150  -31.5630 O   0  0  0  0  0  0  0  0  0  0  0  0
   -7.5010   22.8040  -31.3030 C   0  0  0  0  0  0  0  0  0  0  0  0
   -7.2330   23.2650  -30.0040 C   0  0  0  0  0  0  0  0  0  0  0  0
   -6.0650   23.9840  -29.7350 C   0  0  0  0  0  0  0  0  0  0  0  0
   -5.1320   24.2260  -30.7500 C   0  0  0  0  0  0  0  0  0  0  0  0
   -3.9520   24.9810  -30.4350 N   0  0  0  0  0  0  0  0  0  0  0  0
   -2.7880   24.4970  -29.7560 C   0  0  0  0  0  0  0  0  0  0  0  0
   -1.9320   25.3000  -29.3010 O   0  0  0  0  0  0  0  0  0  0  0  0
   -2.6150   23.0840  -29.6060 N   0  0  0  0  0  0  0  0  0  0  0  0
   -2.9970   22.0730  -30.5540 C   0  0  0  0  0  0  0  0  0  0  0  0
   -4.2460   21.4300  -30.4870 C   0  0  0  0  0  0  0  0  0  0  0  0
   -4.5750   20.4300  -31.4060 C   0  0  0  0  0  0  0  0  0  0  0  0
   -3.6600   20.0540  -32.3970 C   0  0  0  0  0  0  0  0  0  0  0  0
   -4.0850   18.7770  -33.5340 S   0  0  0  0  0  0  0  0  0  0  0  0
   -5.3030   19.2080  -34.3020 O   0  0  0  0  0  0  0  0  0  0  0  0
   -2.9550   18.5640  -34.5050 O   0  0  0  0  0  0  0  0  0  0  0  0
   -4.4180   17.3060  -32.6420 N   0  0  0  0  0  0  0  0  0  0  0  0
   -4.1660   16.0980  -33.4570 C   0  0  0  0  0  0  0  0  0  0  0  0
   -5.4550   15.5070  -34.0580 C   0  0  0  0  0  0  0  0  0  0  0  0
   -6.3820   16.5320  -34.3350 O   0  0  0  0  0  0  0  0  0  0  0  0
   -6.8700   17.0920  -33.1280 C   0  0  0  0  0  0  0  0  0  0  0  0
   -5.7720   17.3180  -32.0610 C   0  0  0  0  0  0  0  0  0  0  0  0
   -2.4050   20.6750  -32.4510 C   0  0  0  0  0  0  0  0  0  0  0  0
   -2.0730   21.6740  -31.5300 C   0  0  0  0  0  0  0  0  0  0  0  0
   -0.8190   22.2730  -31.5930 O   0  0  0  0  0  0  0  0  0  0  0  0
   -5.3990   23.7690  -32.0520 C   0  0  0  0  0  0  0  0  0  0  0  0
   -6.5680   23.0530  -32.3220 C   0  0  0  0  0  0  0  0  0  0  0  0
  -10.5085   19.6029  -32.0764 H   0  0  0  0  0  0  0  0  0  0  0  0
  -10.1762   20.8137  -33.3610 H   0  0  0  0  0  0  0  0  0  0  0  0
   -9.3059   19.2423  -33.3610 H   0  0  0  0  0  0  0  0  0  0  0  0
   -7.7555   19.8294  -30.1759 H   0  0  0  0  0  0  0  0  0  0  0  0
   -7.8346   18.7129  -31.5809 H   0  0  0  0  0  0  0  0  0  0  0  0
   -6.6636   20.0750  -31.5809 H   0  0  0  0  0  0  0  0  0  0  0  0
   -7.9469   23.0589  -29.1929 H   0  0  0  0  0  0  0  0  0  0  0  0
   -5.8778   24.3621  -28.7191 H   0  0  0  0  0  0  0  0  0  0  0  0
   -4.9675   21.7157  -29.7073 H   0  0  0  0  0  0  0  0  0  0  0  0
   -5.5565   19.9364  -31.3507 H   0  0  0  0  0  0  0  0  0  0  0  0
   -3.4843   16.3636  -34.2784 H   0  0  0  0  0  0  0  0  0  0  0  0
   -3.7282   15.3361  -32.7953 H   0  0  0  0  0  0  0  0  0  0  0  0
   -5.2106   14.9774  -34.9906 H   0  0  0  0  0  0  0  0  0  0  0  0
   -5.8999   14.8094  -33.3331 H   0  0  0  0  0  0  0  0  0  0  0  0
   -7.3361   18.0615  -33.3580 H   0  0  0  0  0  0  0  0  0  0  0  0
   -7.5869   16.3726  -32.7055 H   0  0  0  0  0  0  0  0  0  0  0  0
   -5.9418   18.2922  -31.5793 H   0  0  0  0  0  0  0  0  0  0  0  0
   -5.8340   16.4947  -31.3341 H   0  0  0  0  0  0  0  0  0  0  0  0
   -1.6782   20.3757  -33.2206 H   0  0  0  0  0  0  0  0  0  0  0  0
   -4.6843   23.9760  -32.8622 H   0  0  0  0  0  0  0  0  0  0  0  0
   -6.7586   22.6819  -33.3398 H   0  0  0  0  0  0  0  0  0  0  0  0
  1  2  1  0
  2  3  1  0
  2  4  1  0
  4  5  2  0
  4  6  1  0
  6  7  2  0
  7  8  1  0
  8  9  2  0
  9 10  1  0
 10 11  1  0
 11 12  2  0
 11 13  1  0
 13 14  1  0
 14 15  2  0
 15 16  1  0
 16 17  2  0
 17 18  1  0
 18 19  2  0
 18 20  2  0
 18 21  1  0
 21 22  1  0
 22 23  1  0
 23 24  1  0
 24 25  1  0
 25 26  1  0
 17 27  1  0
 27 28  2  0
 28 29  1  0
  9 30  1  0
 30 31  2  0
 31  6  1  0
 28 14  1  0
 26 21  1  0
  1 32  1  0
  1 33  1  0
  1 34  1  0
  3 35  1  0
  3 36  1  0
  3 37  1  0
  7 38  1  0
  8 39  1  0
 15 40  1  0
 16 41  1  0
 22 42  1  0
 22 43  1  0
 23 44  1  0
 23 45  1  0
 25 46  1  0
 25 47  1  0
 26 48  1  0
 26 49  1  0
 27 50  1  0
 30 51  1  0
 31 52  1  0
M  CHG  3  10  -1  13  -1  29  -1
M  END
>  <UniqueID>  (22) 
22

>  <SMILES>  (22) 
CN(C)C(=O)c1ccc([N-]C(=O)[N-]c2ccc(S(=O)(=O)N3CCOCC3)cc2[O-])cc1

>  <Energy>  (22) 
74.70316710611351

>  <Genealogy>  (22) 
CN(C)C(=O)c1ccc([N-]C(=O)[N-]c2ccc(S(=O)(=O)N3CCOCC3)cc2[O-])cc1 (protonated)
CN(C)C(=O)c1ccc([N-]C(=O)[N-]c2ccc(S(=O)(=O)N3CCOCC3)cc2[O-])cc1 (3D coordinates assigned)
CN(C)C(=O)c1ccc([N-]C(=O)[N-]c2ccc(S(=O)(=O)N3CCOCC3)cc2[O-])cc1 (nonaromatic ring conformer: 74.70316710611351 kcal/mol)

>  <smiles>  (22) 
CN(C)C(=O)c1ccc(NC(=O)Nc2ccc(S(=O)(=O)N3CCOCC3)cc2O)cc1

>  <score_type>  (22) 
oracle

>  <origin>  (22) 
adgpu

>  <m_score__min__energy>  (22) 
-14.31

>  <m_primary>  (22) 
energy

$$$$
22:0
     RDKit          3D

 58 61  0  0  0  0  0  0  0  0999 V2000
   -5.6960   25.1010  -29.1310 O   0  0  0  0  0  0  0  0  0  0  0  0
   -4.7640   24.6440  -29.8410 C   0  0  0  0  0  0  0  0  0  0  0  0
   -3.4890   25.2920  -29.7910 N   0  0  0  0  0  0  0  0  0  0  0  0
   -2.3500   24.8320  -29.0040 C   0  0  0  0  0  0  0  0  0  0  0  0
   -2.8460   24.2900  -27.6640 C   0  0  0  0  0  0  0  0  0  0  0  0
   -2.6190   25.2990  -26.5320 C   0  0  0  0  0  0  0  0  0  0  0  0
   -1.1690   25.4340  -26.2570 N   0  0  0  0  0  0  0  0  0  0  0  0
   -0.5850   26.6650  -26.8340 C   0  0  0  0  0  0  0  0  0  0  0  0
   -0.8760   27.9050  -25.9730 C   0  0  0  0  0  0  0  0  0  0  0  0
   -0.4680   27.7030  -24.6340 O   0  0  0  0  0  0  0  0  0  0  0  0
   -1.1820   26.6180  -24.0770 C   0  0  0  0  0  0  0  0  0  0  0  0
   -0.8470   25.3250  -24.8190 C   0  0  0  0  0  0  0  0  0  0  0  0
   -5.0240   23.4820  -30.7200 C   0  0  0  0  0  0  0  0  0  0  0  0
   -3.9970   22.9280  -31.5020 C   0  0  0  0  0  0  0  0  0  0  0  0
   -4.2590   21.8560  -32.3570 C   0  0  0  0  0  0  0  0  0  0  0  0
   -5.5540   21.3450  -32.4650 C   0  0  0  0  0  0  0  0  0  0  0  0
   -6.5980   21.9060  -31.7170 C   0  0  0  0  0  0  0  0  0  0  0  0
   -8.2460   21.3250  -31.9160 S   0  0  0  0  0  0  0  0  0  0  0  0
   -9.1280   22.4370  -32.4110 O   0  0  0  0  0  0  0  0  0  0  0  0
   -8.7370   20.8450  -30.5810 O   0  0  0  0  0  0  0  0  0  0  0  0
   -8.2820   20.0210  -33.0650 N   0  0  0  0  0  0  0  0  0  0  0  0
   -7.3060   18.9750  -33.0920 C   0  0  0  0  0  0  0  0  0  0  0  0
   -7.2450   18.0650  -32.0240 C   0  0  0  0  0  0  0  0  0  0  0  0
   -6.3030   17.0300  -32.0270 C   0  0  0  0  0  0  0  0  0  0  0  0
   -5.4070   16.9070  -33.0890 C   0  0  0  0  0  0  0  0  0  0  0  0
   -5.4640   17.8060  -34.1610 C   0  0  0  0  0  0  0  0  0  0  0  0
   -6.3950   18.8480  -34.1580 C   0  0  0  0  0  0  0  0  0  0  0  0
   -4.5740   17.6450  -35.2290 O   0  0  0  0  0  0  0  0  0  0  0  0
   -3.8330   16.4310  -35.3950 C   0  0  0  0  0  0  0  0  0  0  0  0
   -3.3560   15.9050  -34.0340 C   0  0  0  0  0  0  0  0  0  0  0  0
   -4.4400   15.8900  -33.1010 O   0  0  0  0  0  0  0  0  0  0  0  0
   -6.3300   22.9770  -30.8520 C   0  0  0  0  0  0  0  0  0  0  0  0
   -1.8240   24.0352  -29.5503 H   0  0  0  0  0  0  0  0  0  0  0  0
   -1.6608   25.6713  -28.8290 H   0  0  0  0  0  0  0  0  0  0  0  0
   -3.9221   24.0754  -27.7413 H   0  0  0  0  0  0  0  0  0  0  0  0
   -2.2806   23.3758  -27.4305 H   0  0  0  0  0  0  0  0  0  0  0  0
   -3.0262   26.2769  -26.8285 H   0  0  0  0  0  0  0  0  0  0  0  0
   -3.1273   24.9433  -25.6237 H   0  0  0  0  0  0  0  0  0  0  0  0
    0.5046   26.5366  -26.9133 H   0  0  0  0  0  0  0  0  0  0  0  0
   -1.0424   26.8248  -27.8216 H   0  0  0  0  0  0  0  0  0  0  0  0
   -0.3320   28.7662  -26.3882 H   0  0  0  0  0  0  0  0  0  0  0  0
   -1.9602   28.0906  -25.9834 H   0  0  0  0  0  0  0  0  0  0  0  0
   -0.9082   26.5094  -23.0172 H   0  0  0  0  0  0  0  0  0  0  0  0
   -2.2604   26.8143  -24.1698 H   0  0  0  0  0  0  0  0  0  0  0  0
    0.2270   25.1152  -24.7069 H   0  0  0  0  0  0  0  0  0  0  0  0
   -1.4488   24.5110  -24.3885 H   0  0  0  0  0  0  0  0  0  0  0  0
   -2.9796   23.3416  -31.4403 H   0  0  0  0  0  0  0  0  0  0  0  0
   -3.4433   21.4128  -32.9471 H   0  0  0  0  0  0  0  0  0  0  0  0
   -5.7554   20.4995  -33.1393 H   0  0  0  0  0  0  0  0  0  0  0  0
   -8.9910   20.0780  -33.8400 H   0  0  0  0  0  0  0  0  0  0  0  0
   -7.9424   18.1665  -31.1794 H   0  0  0  0  0  0  0  0  0  0  0  0
   -6.2692   16.3141  -31.1926 H   0  0  0  0  0  0  0  0  0  0  0  0
   -6.4162   19.5690  -34.9885 H   0  0  0  0  0  0  0  0  0  0  0  0
   -4.4763   15.6758  -35.8702 H   0  0  0  0  0  0  0  0  0  0  0  0
   -2.9556   16.6321  -36.0273 H   0  0  0  0  0  0  0  0  0  0  0  0
   -2.9675   14.8831  -34.1556 H   0  0  0  0  0  0  0  0  0  0  0  0
   -2.5638   16.5658  -33.6522 H   0  0  0  0  0  0  0  0  0  0  0  0
   -7.1491   23.4263  -30.2713 H   0  0  0  0  0  0  0  0  0  0  0  0
  1  2  2  0
  2  3  1  0
  3  4  1  0
  4  5  1  0
  5  6  1  0
  6  7  1  0
  7  8  1  0
  8  9  1  0
  9 10  1  0
 10 11  1  0
 11 12  1  0
  2 13  1  0
 13 14  2  0
 14 15  1  0
 15 16  2  0
 16 17  1  0
 17 18  1  0
 18 19  2  0
 18 20  2  0
 18 21  1  0
 21 22  1  0
 22 23  2  0
 23 24  1  0
 24 25  2  0
 25 26  1  0
 26 27  2  0
 26 28  1  0
 28 29  1  0
 29 30  1  0
 30 31  1  0
 17 32  2  0
 12  7  1  0
 32 13  1  0
 27 22  1  0
 31 25  1  0
  4 33  1  0
  4 34  1  0
  5 35  1  0
  5 36  1  0
  6 37  1  0
  6 38  1  0
  8 39  1  0
  8 40  1  0
  9 41  1  0
  9 42  1  0
 11 43  1  0
 11 44  1  0
 12 45  1  0
 12 46  1  0
 14 47  1  0
 15 48  1  0
 16 49  1  0
 21 50  1  0
 23 51  1  0
 24 52  1  0
 27 53  1  0
 29 54  1  0
 29 55  1  0
 30 56  1  0
 30 57  1  0
 32 58  1  0
M  CHG  1   3  -1
M  END
>  <UniqueID>  (23) 
23

>  <SMILES>  (23) 
O=C([N-]CCCN1CCOCC1)c1cccc(S(=O)(=O)Nc2ccc3c(c2)OCCO3)c1

>  <Energy>  (23) 
72.99058094308857

>  <Genealogy>  (23) 
O=C([N-]CCCN1CCOCC1)c1cccc(S(=O)(=O)Nc2ccc3c(c2)OCCO3)c1 (protonated)
O=C([N-]CCCN1CCOCC1)c1cccc(S(=O)(=O)Nc2ccc3c(c2)OCCO3)c1 (3D coordinates assigned)
O=C([N-]CCCN1CCOCC1)c1cccc(S(=O)(=O)Nc2ccc3c(c2)OCCO3)c1 (nonaromatic ring conformer: 72.99058094308857 kcal/mol)

>  <smiles>  (23) 
O=C(NCCCN1CCOCC1)c1cccc(S(=O)(=O)Nc2ccc3c(c2)OCCO3)c1

>  <score_type>  (23) 
oracle

>  <origin>  (23) 
adgpu

>  <m_score__min__energy>  (23) 
-10.84

>  <m_primary>  (23) 
energy

$$$$
23:0
     RDKit          3D

 60 63  0  0  0  0  0  0  0  0999 V2000
   -0.6680   22.5560  -30.7220 O   0  0  0  0  0  0  0  0  0  0  0  0
   -1.8330   22.0720  -30.7740 C   0  0  0  0  0  0  0  0  0  0  0  0
   -2.8310   22.5050  -29.8360 N   0  0  0  0  0  0  0  0  0  0  0  0
   -4.0710   23.1470  -30.1660 C   0  0  0  0  0  0  0  0  0  0  0  0
   -5.2180   22.4050  -30.5050 C   0  0  0  0  0  0  0  0  0  0  0  0
   -6.4210   23.0590  -30.8050 C   0  0  0  0  0  0  0  0  0  0  0  0
   -7.8710   22.1290  -31.1990 S   0  0  0  0  0  0  0  0  0  0  0  0
   -8.6180   22.8110  -32.3150 O   0  0  0  0  0  0  0  0  0  0  0  0
   -8.7710   22.0830  -29.9950 O   0  0  0  0  0  0  0  0  0  0  0  0
   -7.4730   20.4980  -31.6890 N   0  0  0  0  0  0  0  0  0  0  0  0
   -7.1360   20.4570  -33.1230 C   0  0  0  0  0  0  0  0  0  0  0  0
   -6.5250   19.0890  -33.4820 C   0  0  0  0  0  0  0  0  0  0  0  0
   -7.0200   17.9580  -32.5570 C   0  0  0  0  0  0  0  0  0  0  0  0
   -8.4560   18.2080  -32.0880 C   0  0  0  0  0  0  0  0  0  0  0  0
   -8.5940   19.5810  -31.3830 C   0  0  0  0  0  0  0  0  0  0  0  0
   -6.4760   24.4590  -30.7710 C   0  0  0  0  0  0  0  0  0  0  0  0
   -5.3500   25.1980  -30.4060 C   0  0  0  0  0  0  0  0  0  0  0  0
   -4.1530   24.5480  -30.0930 C   0  0  0  0  0  0  0  0  0  0  0  0
   -3.0380   25.2990  -29.7220 O   0  0  0  0  0  0  0  0  0  0  0  0
   -2.1500   21.0090  -31.7570 C   0  0  0  0  0  0  0  0  0  0  0  0
   -3.2570   21.1360  -32.6140 C   0  0  0  0  0  0  0  0  0  0  0  0
   -3.5390   20.1440  -33.5520 C   0  0  0  0  0  0  0  0  0  0  0  0
   -2.7400   19.0000  -33.6460 C   0  0  0  0  0  0  0  0  0  0  0  0
   -3.0450   18.0710  -34.6430 O   0  0  0  0  0  0  0  0  0  0  0  0
   -1.6500   18.8340  -32.7570 C   0  0  0  0  0  0  0  0  0  0  0  0
   -0.6550   17.3720  -32.7720 S   0  0  0  0  0  0  0  0  0  0  0  0
   -0.1060   17.1130  -31.3940 O   0  0  0  0  0  0  0  0  0  0  0  0
   -1.5230   16.2140  -33.1880 O   0  0  0  0  0  0  0  0  0  0  0  0
    0.6780   17.5420  -33.8950 N   0  0  0  0  0  0  0  0  0  0  0  0
    1.5820   18.6160  -33.4470 C   0  0  0  0  0  0  0  0  0  0  0  0
    2.5530   19.0340  -34.5720 C   0  0  0  0  0  0  0  0  0  0  0  0
    2.6060   18.0460  -35.5830 O   0  0  0  0  0  0  0  0  0  0  0  0
    1.3490   17.9520  -36.2370 C   0  0  0  0  0  0  0  0  0  0  0  0
    0.1700   17.8400  -35.2450 C   0  0  0  0  0  0  0  0  0  0  0  0
   -1.3510   19.8560  -31.8450 C   0  0  0  0  0  0  0  0  0  0  0  0
   -5.1701   21.3064  -30.5347 H   0  0  0  0  0  0  0  0  0  0  0  0
   -8.0487   20.6153  -33.7163 H   0  0  0  0  0  0  0  0  0  0  0  0
   -6.4048   21.2483  -33.3448 H   0  0  0  0  0  0  0  0  0  0  0  0
   -6.7986   18.8419  -34.5184 H   0  0  0  0  0  0  0  0  0  0  0  0
   -5.4348   19.1679  -33.3584 H   0  0  0  0  0  0  0  0  0  0  0  0
   -6.9834   17.0052  -33.1055 H   0  0  0  0  0  0  0  0  0  0  0  0
   -6.3677   17.9242  -31.6719 H   0  0  0  0  0  0  0  0  0  0  0  0
   -9.1256   18.1856  -32.9604 H   0  0  0  0  0  0  0  0  0  0  0  0
   -8.7246   17.4220  -31.3669 H   0  0  0  0  0  0  0  0  0  0  0  0
   -9.5326   20.0517  -31.7108 H   0  0  0  0  0  0  0  0  0  0  0  0
   -8.5862   19.3987  -30.2982 H   0  0  0  0  0  0  0  0  0  0  0  0
   -7.4102   24.9772  -31.0330 H   0  0  0  0  0  0  0  0  0  0  0  0
   -5.4047   26.2959  -30.3645 H   0  0  0  0  0  0  0  0  0  0  0  0
   -3.9041   22.0228  -32.5441 H   0  0  0  0  0  0  0  0  0  0  0  0
   -4.4001   20.2624  -34.2261 H   0  0  0  0  0  0  0  0  0  0  0  0
   -2.5940   17.1700  -34.7300 H   0  0  0  0  0  0  0  0  0  0  0  0
    0.9823   19.4884  -33.1481 H   0  0  0  0  0  0  0  0  0  0  0  0
    2.1730   18.2422  -32.5979 H   0  0  0  0  0  0  0  0  0  0  0  0
    2.2088   19.9817  -35.0117 H   0  0  0  0  0  0  0  0  0  0  0  0
    3.5588   19.1537  -34.1431 H   0  0  0  0  0  0  0  0  0  0  0  0
    1.2053   18.8506  -36.8549 H   0  0  0  0  0  0  0  0  0  0  0  0
    1.3587   17.0370  -36.8475 H   0  0  0  0  0  0  0  0  0  0  0  0
   -0.3819   18.7913  -35.2254 H   0  0  0  0  0  0  0  0  0  0  0  0
   -0.4992   17.0288  -35.5676 H   0  0  0  0  0  0  0  0  0  0  0  0
   -0.4757   19.7537  -31.1867 H   0  0  0  0  0  0  0  0  0  0  0  0
  1  2  2  0
  2  3  1  0
  3  4  1  0
  4  5  2  0
  5  6  1  0
  6  7  1  0
  7  8  2  0
  7  9  2  0
  7 10  1  0
 10 11  1  0
 11 12  1  0
 12 13  1  0
 13 14  1  0
 14 15  1  0
  6 16  2  0
 16 17  1  0
 17 18  2  0
 18 19  1  0
  2 20  1  0
 20 21  2  0
 21 22  1  0
 22 23  2  0
 23 24  1  0
 23 25  1  0
 25 26  1  0
 26 27  2  0
 26 28  2  0
 26 29  1  0
 29 30  1  0
 30 31  1  0
 31 32  1  0
 32 33  1  0
 33 34  1  0
 25 35  2  0
 18  4  1  0
 35 20  1  0
 15 10  1  0
 34 29  1  0
  5 36  1  0
 11 37  1  0
 11 38  1  0
 12 39  1  0
 12 40  1  0
 13 41  1  0
 13 42  1  0
 14 43  1  0
 14 44  1  0
 15 45  1  0
 15 46  1  0
 16 47  1  0
 17 48  1  0
 21 49  1  0
 22 50  1  0
 24 51  1  0
 30 52  1  0
 30 53  1  0
 31 54  1  0
 31 55  1  0
 33 56  1  0
 33 57  1  0
 34 58  1  0
 34 59  1  0
 35 60  1  0
M  CHG  2   3  -1  19  -1
M  END
>  <UniqueID>  (24) 
24

>  <SMILES>  (24) 
O=C([N-]c1cc(S(=O)(=O)N2CCCCC2)ccc1[O-])c1ccc(O)c(S(=O)(=O)N2CCOCC2)c1

>  <Energy>  (24) 
79.61309044426766

>  <Genealogy>  (24) 
O=C([N-]c1cc(S(=O)(=O)N2CCCCC2)ccc1[O-])c1ccc(O)c(S(=O)(=O)N2CCOCC2)c1 (protonated)
O=C([N-]c1cc(S(=O)(=O)N2CCCCC2)ccc1[O-])c1ccc(O)c(S(=O)(=O)N2CCOCC2)c1 (3D coordinates assigned)
O=C([N-]c1cc(S(=O)(=O)N2CCCCC2)ccc1[O-])c1ccc(O)c(S(=O)(=O)N2CCOCC2)c1 (nonaromatic ring conformer: 79.61309044426766 kcal/mol)

>  <smiles>  (24) 
O=C(Nc1cc(S(=O)(=O)N2CCCCC2)ccc1O)c1ccc(O)c(S(=O)(=O)N2CCOCC2)c1

>  <score_type>  (24) 
oracle

>  <origin>  (24) 
adgpu

>  <m_score__min__energy>  (24) 
-13.92

>  <m_primary>  (24) 
energy

$$$$
24:0
     RDKit          3D

 58 61  0  0  0  0  0  0  0  0999 V2000
   -0.7790   23.1670  -30.0910 O   0  0  0  0  0  0  0  0  0  0  0  0
   -1.8150   22.6880  -29.5510 C   0  0  0  0  0  0  0  0  0  0  0  0
   -1.6560   21.8990  -28.3620 N   0  0  0  0  0  0  0  0  0  0  0  0
   -1.0570   20.5910  -28.2850 C   0  0  0  0  0  0  0  0  0  0  0  0
   -0.1160   20.2300  -29.2600 C   0  0  0  0  0  0  0  0  0  0  0  0
    0.4560   18.9510  -29.2610 C   0  0  0  0  0  0  0  0  0  0  0  0
    1.6710   18.5410  -30.4620 S   0  0  0  0  0  0  0  0  0  0  0  0
    1.6950   17.0470  -30.6120 O   0  0  0  0  0  0  0  0  0  0  0  0
    3.0270   19.0200  -30.0290 O   0  0  0  0  0  0  0  0  0  0  0  0
    1.2200   19.2940  -31.9660 N   0  0  0  0  0  0  0  0  0  0  0  0
   -0.1230   19.3960  -32.4610 C   0  0  0  0  0  0  0  0  0  0  0  0
   -0.7360   20.6430  -32.7200 C   0  0  0  0  0  0  0  0  0  0  0  0
   -2.0530   20.7010  -33.2240 C   0  0  0  0  0  0  0  0  0  0  0  0
   -2.6300   21.9090  -33.4860 F   0  0  0  0  0  0  0  0  0  0  0  0
   -2.7680   19.5180  -33.4660 C   0  0  0  0  0  0  0  0  0  0  0  0
   -2.1730   18.2760  -33.1900 C   0  0  0  0  0  0  0  0  0  0  0  0
   -0.8530   18.2110  -32.6850 C   0  0  0  0  0  0  0  0  0  0  0  0
   -0.2520   16.9760  -32.4190 O   0  0  0  0  0  0  0  0  0  0  0  0
    0.1140   18.0410  -28.2520 C   0  0  0  0  0  0  0  0  0  0  0  0
   -0.7920   18.4100  -27.2500 C   0  0  0  0  0  0  0  0  0  0  0  0
   -1.3670   19.6870  -27.2530 C   0  0  0  0  0  0  0  0  0  0  0  0
   -2.2200   20.0560  -26.2170 O   0  0  0  0  0  0  0  0  0  0  0  0
   -3.1400   22.8990  -30.1970 C   0  0  0  0  0  0  0  0  0  0  0  0
   -3.8350   21.8120  -30.7690 C   0  0  0  0  0  0  0  0  0  0  0  0
   -5.0930   21.9960  -31.3620 C   0  0  0  0  0  0  0  0  0  0  0  0
   -6.0020   20.6040  -31.9490 S   0  0  0  0  0  0  0  0  0  0  0  0
   -6.2600   20.7890  -33.4190 O   0  0  0  0  0  0  0  0  0  0  0  0
   -5.1550   19.3690  -31.7920 O   0  0  0  0  0  0  0  0  0  0  0  0
   -7.5280   20.3700  -31.1310 N   0  0  0  0  0  0  0  0  0  0  0  0
   -8.3680   19.3000  -31.7110 C   0  0  0  0  0  0  0  0  0  0  0  0
   -9.3190   19.7930  -32.8100 C   0  0  0  0  0  0  0  0  0  0  0  0
  -10.1260   20.9910  -32.3310 C   0  0  0  0  0  0  0  0  0  0  0  0
   -9.1810   22.1050  -31.8980 C   0  0  0  0  0  0  0  0  0  0  0  0
   -8.2340   21.6210  -30.7900 C   0  0  0  0  0  0  0  0  0  0  0  0
   -5.6520   23.2800  -31.4160 C   0  0  0  0  0  0  0  0  0  0  0  0
   -4.9620   24.3690  -30.8800 C   0  0  0  0  0  0  0  0  0  0  0  0
   -3.7150   24.1880  -30.2720 C   0  0  0  0  0  0  0  0  0  0  0  0
   -3.0650   25.2950  -29.7300 O   0  0  0  0  0  0  0  0  0  0  0  0
    0.1758   20.9579  -30.0314 H   0  0  0  0  0  0  0  0  0  0  0  0
   -0.1830   21.5742  -32.5275 H   0  0  0  0  0  0  0  0  0  0  0  0
   -3.7901   19.5632  -33.8701 H   0  0  0  0  0  0  0  0  0  0  0  0
   -2.7367   17.3483  -33.3675 H   0  0  0  0  0  0  0  0  0  0  0  0
    0.6790   16.9190  -32.0100 H   0  0  0  0  0  0  0  0  0  0  0  0
    0.5581   17.0346  -28.2469 H   0  0  0  0  0  0  0  0  0  0  0  0
   -1.0532   17.6937  -26.4571 H   0  0  0  0  0  0  0  0  0  0  0  0
   -3.3849   20.8085  -30.7496 H   0  0  0  0  0  0  0  0  0  0  0  0
   -7.7067   18.5336  -32.1415 H   0  0  0  0  0  0  0  0  0  0  0  0
   -8.9932   18.9040  -30.8972 H   0  0  0  0  0  0  0  0  0  0  0  0
   -8.7300   20.0847  -33.6920 H   0  0  0  0  0  0  0  0  0  0  0  0
  -10.0142   18.9795  -33.0648 H   0  0  0  0  0  0  0  0  0  0  0  0
  -10.7662   21.3518  -33.1495 H   0  0  0  0  0  0  0  0  0  0  0  0
  -10.7522   20.6915  -31.4777 H   0  0  0  0  0  0  0  0  0  0  0  0
   -8.5857   22.4292  -32.7643 H   0  0  0  0  0  0  0  0  0  0  0  0
   -9.7794   22.9416  -31.5081 H   0  0  0  0  0  0  0  0  0  0  0  0
   -7.4852   22.4049  -30.6035 H   0  0  0  0  0  0  0  0  0  0  0  0
   -8.8494   21.4162  -29.9016 H   0  0  0  0  0  0  0  0  0  0  0  0
   -6.6371   23.4302  -31.8819 H   0  0  0  0  0  0  0  0  0  0  0  0
   -5.4016   25.3758  -30.9361 H   0  0  0  0  0  0  0  0  0  0  0  0
  1  2  2  0
  2  3  1  0
  3  4  1  0
  4  5  2  0
  5  6  1  0
  6  7  1  0
  7  8  2  0
  7  9  2  0
  7 10  1  0
 10 11  1  0
 11 12  2  0
 12 13  1  0
 13 14  1  0
 13 15  2  0
 15 16  1  0
 16 17  2  0
 17 18  1  0
  6 19  2  0
 19 20  1  0
 20 21  2  0
 21 22  1  0
  2 23  1  0
 23 24  2  0
 24 25  1  0
 25 26  1  0
 26 27  2  0
 26 28  2  0
 26 29  1  0
 29 30  1  0
 30 31  1  0
 31 32  1  0
 32 33  1  0
 33 34  1  0
 25 35  2  0
 35 36  1  0
 36 37  2  0
 37 38  1  0
 21  4  1  0
 37 23  1  0
 17 11  1  0
 34 29  1  0
  5 39  1  0
 12 40  1  0
 15 41  1  0
 16 42  1  0
 18 43  1  0
 19 44  1  0
 20 45  1  0
 24 46  1  0
 30 47  1  0
 30 48  1  0
 31 49  1  0
 31 50  1  0
 32 51  1  0
 32 52  1  0
 33 53  1  0
 33 54  1  0
 34 55  1  0
 34 56  1  0
 35 57  1  0
 36 58  1  0
M  CHG  4   3  -1  10  -1  22  -1  38  -1
M  END
>  <UniqueID>  (25) 
25

>  <SMILES>  (25) 
O=C([N-]c1cc(S(=O)(=O)[N-]c2cc(F)ccc2O)ccc1[O-])c1cc(S(=O)(=O)N2CCCCC2)ccc1[O-]

>  <Energy>  (25) 
77.90842656767147

>  <Genealogy>  (25) 
O=C([N-]c1cc(S(=O)(=O)[N-]c2cc(F)ccc2O)ccc1[O-])c1cc(S(=O)(=O)N2CCCCC2)ccc1[O-] (protonated)
O=C([N-]c1cc(S(=O)(=O)[N-]c2cc(F)ccc2O)ccc1[O-])c1cc(S(=O)(=O)N2CCCCC2)ccc1[O-] (3D coordinates assigned)
O=C([N-]c1cc(S(=O)(=O)[N-]c2cc(F)ccc2O)ccc1[O-])c1cc(S(=O)(=O)N2CCCCC2)ccc1[O-] (nonaromatic ring conformer: 77.90842656767147 kcal/mol)

>  <smiles>  (25) 
O=C(Nc1cc(S(=O)(=O)Nc2cc(F)ccc2O)ccc1O)c1cc(S(=O)(=O)N2CCCCC2)ccc1O

>  <score_type>  (25) 
oracle

>  <origin>  (25) 
adgpu

>  <m_score__min__energy>  (25) 
-14.6

>  <m_primary>  (25) 
energy

$$$$
25:0
     RDKit          3D

 33 35  0  0  0  0  0  0  0  0999 V2000
   -6.8480   25.3300  -29.8800 C   0  0  0  0  0  0  0  0  0  0  0  0
   -5.5690   24.6660  -30.2730 C   0  0  0  0  0  0  0  0  0  0  0  0
   -4.4070   25.3210  -30.4710 N   0  0  0  0  0  0  0  0  0  0  0  0
   -3.5060   24.4150  -30.8310 N   0  0  0  0  0  0  0  0  0  0  0  0
   -4.1390   23.2260  -30.8420 C   0  0  0  0  0  0  0  0  0  0  0  0
   -5.4300   23.3530  -30.5260 N   0  0  0  0  0  0  0  0  0  0  0  0
   -6.3800   22.2550  -30.3880 C   0  0  0  0  0  0  0  0  0  0  0  0
   -5.9300   21.0800  -31.1610 N   0  0  0  0  0  0  0  0  0  0  0  0
   -6.4520   20.9890  -32.5440 C   0  0  0  0  0  0  0  0  0  0  0  0
   -6.4500   19.5890  -33.1170 C   0  0  0  0  0  0  0  0  0  0  0  0
   -5.6990   19.2990  -34.2710 C   0  0  0  0  0  0  0  0  0  0  0  0
   -5.6880   18.0060  -34.8040 C   0  0  0  0  0  0  0  0  0  0  0  0
   -6.4440   16.9970  -34.2040 C   0  0  0  0  0  0  0  0  0  0  0  0
   -7.2190   17.2790  -33.0770 C   0  0  0  0  0  0  0  0  0  0  0  0
   -7.2320   18.5690  -32.5380 C   0  0  0  0  0  0  0  0  0  0  0  0
   -7.9920   18.8170  -31.4410 F   0  0  0  0  0  0  0  0  0  0  0  0
   -4.4940   20.7480  -30.9860 C   0  0  0  0  0  0  0  0  0  0  0  0
   -3.5290   21.9270  -31.2470 C   0  0  0  0  0  0  0  0  0  0  0  0
   -6.9198   25.3673  -28.7830 H   0  0  0  0  0  0  0  0  0  0  0  0
   -6.8692   26.3530  -30.2838 H   0  0  0  0  0  0  0  0  0  0  0  0
   -7.6969   24.7587  -30.2838 H   0  0  0  0  0  0  0  0  0  0  0  0
   -6.4628   21.9795  -29.3263 H   0  0  0  0  0  0  0  0  0  0  0  0
   -7.3576   22.5805  -30.7732 H   0  0  0  0  0  0  0  0  0  0  0  0
   -7.4870   21.3615  -32.5472 H   0  0  0  0  0  0  0  0  0  0  0  0
   -5.7807   21.5897  -33.1753 H   0  0  0  0  0  0  0  0  0  0  0  0
   -5.1163   20.0951  -34.7575 H   0  0  0  0  0  0  0  0  0  0  0  0
   -5.0837   17.7839  -35.6959 H   0  0  0  0  0  0  0  0  0  0  0  0
   -6.4291   15.9786  -34.6196 H   0  0  0  0  0  0  0  0  0  0  0  0
   -7.8208   16.4841  -32.6122 H   0  0  0  0  0  0  0  0  0  0  0  0
   -4.3442   20.4033  -29.9522 H   0  0  0  0  0  0  0  0  0  0  0  0
   -4.2569   19.9771  -31.7340 H   0  0  0  0  0  0  0  0  0  0  0  0
   -2.6060   21.7691  -30.6698 H   0  0  0  0  0  0  0  0  0  0  0  0
   -3.3121   21.9662  -32.3247 H   0  0  0  0  0  0  0  0  0  0  0  0
  1  2  1  0
  2  3  2  0
  3  4  1  0
  4  5  2  0
  5  6  1  0
  6  7  1  0
  7  8  1  0
  8  9  1  0
  9 10  1  0
 10 11  2  0
 11 12  1  0
 12 13  2  0
 13 14  1  0
 14 15  2  0
 15 16  1  0
  8 17  1  0
 17 18  1  0
  6  2  1  0
 15 10  1  0
 18  5  1  0
  1 19  1  0
  1 20  1  0
  1 21  1  0
  7 22  1  0
  7 23  1  0
  9 24  1  0
  9 25  1  0
 11 26  1  0
 12 27  1  0
 13 28  1  0
 14 29  1  0
 17 30  1  0
 17 31  1  0
 18 32  1  0
 18 33  1  0
M  END
>  <UniqueID>  (26) 
26

>  <SMILES>  (26) 
Cc1nnc2n1CN(Cc1ccccc1F)CC2

>  <Energy>  (26) 
77.16432153587658

>  <Genealogy>  (26) 
Cc1nnc2n1CN(Cc1ccccc1F)CC2 (3D coordinates assigned)
Cc1nnc2n1CN(Cc1ccccc1F)CC2 (nonaromatic ring conformer: 77.16432153587658 kcal/mol)

>  <smiles>  (26) 
Cc1nnc2n1CN(Cc1ccccc1F)CC2

>  <score_type>  (26) 
oracle

>  <origin>  (26) 
adgpu

>  <m_score__min__energy>  (26) 
-7.0800000000000001

>  <m_primary>  (26) 
energy

$$$$
26:0
     RDKit          3D

 53 56  0  0  0  0  0  0  0  0999 V2000
    1.6800   15.6840  -26.7900 C   0  0  0  0  0  0  0  0  0  0  0  0
    2.2450   17.0320  -27.1320 C   0  0  0  0  0  0  0  0  0  0  0  0
    3.4150   17.3080  -26.7510 O   0  0  0  0  0  0  0  0  0  0  0  0
    1.4840   17.9950  -27.8960 N   0  0  0  0  0  0  0  0  0  0  0  0
    0.2440   17.5810  -28.5760 C   0  0  0  0  0  0  0  0  0  0  0  0
   -0.3100   18.6940  -29.4710 C   0  0  0  0  0  0  0  0  0  0  0  0
   -0.3250   19.9630  -28.7350 N   0  0  0  0  0  0  0  0  0  0  0  0
   -1.5470   20.7150  -28.6160 C   0  0  0  0  0  0  0  0  0  0  0  0
   -2.6340   20.1040  -28.4160 O   0  0  0  0  0  0  0  0  0  0  0  0
   -1.5560   22.1900  -28.7170 C   0  0  0  0  0  0  0  0  0  0  0  0
   -0.6250   22.9580  -28.0000 C   0  0  0  0  0  0  0  0  0  0  0  0
   -0.6490   24.3510  -28.0840 C   0  0  0  0  0  0  0  0  0  0  0  0
   -1.5850   24.9910  -28.9000 C   0  0  0  0  0  0  0  0  0  0  0  0
   -1.6010   26.3800  -28.9660 O   0  0  0  0  0  0  0  0  0  0  0  0
   -2.4930   24.2380  -29.6580 C   0  0  0  0  0  0  0  0  0  0  0  0
   -3.4550   24.9230  -30.4690 N   0  0  0  0  0  0  0  0  0  0  0  0
   -5.1670   24.9560  -30.1840 S   0  0  0  0  0  0  0  0  0  0  0  0
   -5.7300   26.2210  -30.7700 O   0  0  0  0  0  0  0  0  0  0  0  0
   -5.4860   24.9340  -28.7170 O   0  0  0  0  0  0  0  0  0  0  0  0
   -5.8920   23.5510  -30.9560 C   0  0  0  0  0  0  0  0  0  0  0  0
   -7.2610   23.3030  -30.7880 C   0  0  0  0  0  0  0  0  0  0  0  0
   -7.8530   22.1800  -31.3720 C   0  0  0  0  0  0  0  0  0  0  0  0
   -7.0790   21.2870  -32.1260 C   0  0  0  0  0  0  0  0  0  0  0  0
   -7.6610   20.1510  -32.7110 C   0  0  0  0  0  0  0  0  0  0  0  0
   -6.8770   19.2650  -33.4560 C   0  0  0  0  0  0  0  0  0  0  0  0
   -5.5100   19.5060  -33.6250 C   0  0  0  0  0  0  0  0  0  0  0  0
   -4.9180   20.6340  -33.0480 C   0  0  0  0  0  0  0  0  0  0  0  0
   -5.6940   21.5300  -32.2960 C   0  0  0  0  0  0  0  0  0  0  0  0
   -5.1090   22.6630  -31.7080 C   0  0  0  0  0  0  0  0  0  0  0  0
   -2.4840   22.8360  -29.5520 C   0  0  0  0  0  0  0  0  0  0  0  0
    0.8620   20.3830  -27.9750 C   0  0  0  0  0  0  0  0  0  0  0  0
    1.9990   19.3600  -28.0850 C   0  0  0  0  0  0  0  0  0  0  0  0
    1.6333   15.5726  -25.6966 H   0  0  0  0  0  0  0  0  0  0  0  0
    0.6680   15.5930  -27.2114 H   0  0  0  0  0  0  0  0  0  0  0  0
    2.3246   14.8986  -27.2114 H   0  0  0  0  0  0  0  0  0  0  0  0
    0.4553   16.6971  -29.1958 H   0  0  0  0  0  0  0  0  0  0  0  0
   -0.5088   17.3525  -27.8072 H   0  0  0  0  0  0  0  0  0  0  0  0
    0.3263   18.7964  -30.3624 H   0  0  0  0  0  0  0  0  0  0  0  0
   -1.3358   18.4385  -29.7750 H   0  0  0  0  0  0  0  0  0  0  0  0
    0.1263   22.4600  -27.3695 H   0  0  0  0  0  0  0  0  0  0  0  0
    0.0719   24.9472  -27.5054 H   0  0  0  0  0  0  0  0  0  0  0  0
   -7.8732   23.9965  -30.1928 H   0  0  0  0  0  0  0  0  0  0  0  0
   -8.9294   21.9962  -31.2397 H   0  0  0  0  0  0  0  0  0  0  0  0
   -8.7363   19.9577  -32.5829 H   0  0  0  0  0  0  0  0  0  0  0  0
   -7.3371   18.3753  -33.9108 H   0  0  0  0  0  0  0  0  0  0  0  0
   -4.8985   18.8063  -34.2135 H   0  0  0  0  0  0  0  0  0  0  0  0
   -3.8423   20.8195  -33.1837 H   0  0  0  0  0  0  0  0  0  0  0  0
   -4.0336   22.8547  -31.8375 H   0  0  0  0  0  0  0  0  0  0  0  0
   -3.2085   22.2403  -30.1267 H   0  0  0  0  0  0  0  0  0  0  0  0
    1.2127   21.3489  -28.3673 H   0  0  0  0  0  0  0  0  0  0  0  0
    0.5781   20.4666  -26.9156 H   0  0  0  0  0  0  0  0  0  0  0  0
    2.4611   19.4380  -29.0802 H   0  0  0  0  0  0  0  0  0  0  0  0
    2.7439   19.5706  -27.3035 H   0  0  0  0  0  0  0  0  0  0  0  0
  1  2  1  0
  2  3  2  0
  2  4  1  0
  4  5  1  0
  5  6  1  0
  6  7  1  0
  7  8  1  0
  8  9  2  0
  8 10  1  0
 10 11  2  0
 11 12  1  0
 12 13  2  0
 13 14  1  0
 13 15  1  0
 15 16  1  0
 16 17  1  0
 17 18  2  0
 17 19  2  0
 17 20  1  0
 20 21  2  0
 21 22  1  0
 22 23  2  0
 23 24  1  0
 24 25  2  0
 25 26  1  0
 26 27  2  0
 27 28  1  0
 28 29  2  0
 15 30  2  0
  7 31  1  0
 31 32  1  0
 32  4  1  0
 30 10  1  0
 29 20  1  0
 28 23  1  0
  1 33  1  0
  1 34  1  0
  1 35  1  0
  5 36  1  0
  5 37  1  0
  6 38  1  0
  6 39  1  0
 11 40  1  0
 12 41  1  0
 21 42  1  0
 22 43  1  0
 24 44  1  0
 25 45  1  0
 26 46  1  0
 27 47  1  0
 29 48  1  0
 30 49  1  0
 31 50  1  0
 31 51  1  0
 32 52  1  0
 32 53  1  0
M  CHG  2  14  -1  16  -1
M  END
>  <UniqueID>  (27) 
27

>  <SMILES>  (27) 
CC(=O)N1CCN(C(=O)c2ccc([O-])c([N-]S(=O)(=O)c3ccc4ccccc4c3)c2)CC1

>  <Energy>  (27) 
72.84277241051574

>  <Genealogy>  (27) 
CC(=O)N1CCN(C(=O)c2ccc([O-])c([N-]S(=O)(=O)c3ccc4ccccc4c3)c2)CC1 (protonated)
CC(=O)N1CCN(C(=O)c2ccc([O-])c([N-]S(=O)(=O)c3ccc4ccccc4c3)c2)CC1 (3D coordinates assigned)
CC(=O)N1CCN(C(=O)c2ccc([O-])c([N-]S(=O)(=O)c3ccc4ccccc4c3)c2)CC1 (nonaromatic ring conformer: 72.84277241051574 kcal/mol)

>  <smiles>  (27) 
CC(=O)N1CCN(C(=O)c2ccc(O)c(NS(=O)(=O)c3ccc4ccccc4c3)c2)CC1

>  <score_type>  (27) 
oracle

>  <origin>  (27) 
adgpu

>  <m_score__min__energy>  (27) 
-15.26

>  <m_primary>  (27) 
energy

$$$$
27:0
     RDKit          3D

 63 65  0  0  0  0  0  0  0  0999 V2000
   -2.3370   25.3920  -28.9690 O   0  0  0  0  0  0  0  0  0  0  0  0
   -2.9540   24.5050  -29.6130 C   0  0  0  0  0  0  0  0  0  0  0  0
   -3.9160   24.8900  -30.5990 N   0  0  0  0  0  0  0  0  0  0  0  0
   -5.1700   24.2240  -30.7970 C   0  0  0  0  0  0  0  0  0  0  0  0
   -5.7740   23.5630  -29.7220 C   0  0  0  0  0  0  0  0  0  0  0  0
   -6.9310   22.8020  -29.9200 C   0  0  0  0  0  0  0  0  0  0  0  0
   -7.4800   22.6670  -31.2050 C   0  0  0  0  0  0  0  0  0  0  0  0
   -8.8350   21.5650  -31.4910 S   0  0  0  0  0  0  0  0  0  0  0  0
   -9.8920   22.2770  -32.2900 O   0  0  0  0  0  0  0  0  0  0  0  0
   -9.4380   21.1850  -30.1660 O   0  0  0  0  0  0  0  0  0  0  0  0
   -8.3600   20.1240  -32.3590 N   0  0  0  0  0  0  0  0  0  0  0  0
   -8.3470   18.9180  -31.4910 C   0  0  0  0  0  0  0  0  0  0  0  0
   -6.9380   18.3550  -31.2550 C   0  0  0  0  0  0  0  0  0  0  0  0
   -6.2530   18.0260  -32.5900 C   0  0  0  0  0  0  0  0  0  0  0  0
   -6.5620   19.0590  -33.6910 C   0  0  0  0  0  0  0  0  0  0  0  0
   -7.1100   20.3670  -33.1080 C   0  0  0  0  0  0  0  0  0  0  0  0
   -6.8820   23.3400  -32.2800 C   0  0  0  0  0  0  0  0  0  0  0  0
   -5.7420   24.1230  -32.0760 C   0  0  0  0  0  0  0  0  0  0  0  0
   -2.6090   23.0860  -29.4270 C   0  0  0  0  0  0  0  0  0  0  0  0
   -2.0220   22.4000  -30.5000 C   0  0  0  0  0  0  0  0  0  0  0  0
   -1.6530   21.0570  -30.3740 C   0  0  0  0  0  0  0  0  0  0  0  0
   -0.8420   20.2350  -31.7090 S   0  0  0  0  0  0  0  0  0  0  0  0
   -0.7260   18.7720  -31.3800 O   0  0  0  0  0  0  0  0  0  0  0  0
    0.5530   20.7820  -31.8180 O   0  0  0  0  0  0  0  0  0  0  0  0
   -1.6870   20.3980  -33.2380 N   0  0  0  0  0  0  0  0  0  0  0  0
   -0.8840   19.8810  -34.3710 C   0  0  0  0  0  0  0  0  0  0  0  0
    0.0430   20.9220  -35.0450 C   0  0  0  0  0  0  0  0  0  0  0  0
   -0.4700   22.2190  -34.9070 O   0  0  0  0  0  0  0  0  0  0  0  0
   -3.0830   19.9150  -33.2070 C   0  0  0  0  0  0  0  0  0  0  0  0
   -4.0770   21.0600  -33.4100 C   0  0  0  0  0  0  0  0  0  0  0  0
   -3.3900   22.2480  -33.6890 O   0  0  0  0  0  0  0  0  0  0  0  0
   -1.8910   20.3860  -29.1670 C   0  0  0  0  0  0  0  0  0  0  0  0
   -2.4700   21.0620  -28.0900 C   0  0  0  0  0  0  0  0  0  0  0  0
   -2.8270   22.4110  -28.2060 C   0  0  0  0  0  0  0  0  0  0  0  0
   -3.4040   23.0430  -27.1030 O   0  0  0  0  0  0  0  0  0  0  0  0
   -5.3368   23.6421  -28.7157 H   0  0  0  0  0  0  0  0  0  0  0  0
   -7.4132   22.3068  -29.0643 H   0  0  0  0  0  0  0  0  0  0  0  0
   -8.7844   19.1838  -30.5173 H   0  0  0  0  0  0  0  0  0  0  0  0
   -8.9271   18.1388  -32.0070 H   0  0  0  0  0  0  0  0  0  0  0  0
   -6.3368   19.1015  -30.7152 H   0  0  0  0  0  0  0  0  0  0  0  0
   -7.0212   17.4312  -30.6636 H   0  0  0  0  0  0  0  0  0  0  0  0
   -5.1651   17.9986  -32.4293 H   0  0  0  0  0  0  0  0  0  0  0  0
   -6.6403   17.0542  -32.9300 H   0  0  0  0  0  0  0  0  0  0  0  0
   -5.6368   19.2763  -34.2450 H   0  0  0  0  0  0  0  0  0  0  0  0
   -7.3293   18.6326  -34.3539 H   0  0  0  0  0  0  0  0  0  0  0  0
   -6.3612   20.8009  -32.4290 H   0  0  0  0  0  0  0  0  0  0  0  0
   -7.3235   21.0598  -33.9353 H   0  0  0  0  0  0  0  0  0  0  0  0
   -7.3119   23.2514  -33.2886 H   0  0  0  0  0  0  0  0  0  0  0  0
   -5.2905   24.6628  -32.9214 H   0  0  0  0  0  0  0  0  0  0  0  0
   -1.8498   22.9242  -31.4516 H   0  0  0  0  0  0  0  0  0  0  0  0
   -0.2576   19.0575  -33.9975 H   0  0  0  0  0  0  0  0  0  0  0  0
   -1.6046   19.5673  -35.1406 H   0  0  0  0  0  0  0  0  0  0  0  0
    1.0362   20.8766  -34.5743 H   0  0  0  0  0  0  0  0  0  0  0  0
    0.1119   20.6859  -36.1172 H   0  0  0  0  0  0  0  0  0  0  0  0
   -1.3950   22.1240  -34.5630 H   0  0  0  0  0  0  0  0  0  0  0  0
   -3.2228   19.1741  -34.0080 H   0  0  0  0  0  0  0  0  0  0  0  0
   -3.2709   19.4656  -32.2207 H   0  0  0  0  0  0  0  0  0  0  0  0
   -4.7435   20.8187  -34.2511 H   0  0  0  0  0  0  0  0  0  0  0  0
   -4.6676   21.1921  -32.4914 H   0  0  0  0  0  0  0  0  0  0  0  0
   -2.6390   22.0000  -34.2860 H   0  0  0  0  0  0  0  0  0  0  0  0
   -1.6213   19.3243  -29.0672 H   0  0  0  0  0  0  0  0  0  0  0  0
   -2.6468   20.5302  -27.1434 H   0  0  0  0  0  0  0  0  0  0  0  0
   -3.5070   24.0480  -27.0370 H   0  0  0  0  0  0  0  0  0  0  0  0
  1  2  2  0
  2  3  1  0
  3  4  1  0
  4  5  2  0
  5  6  1  0
  6  7  2  0
  7  8  1  0
  8  9  2  0
  8 10  2  0
  8 11  1  0
 11 12  1  0
 12 13  1  0
 13 14  1  0
 14 15  1  0
 15 16  1  0
  7 17  1  0
 17 18  2  0
  2 19  1  0
 19 20  2  0
 20 21  1  0
 21 22  1  0
 22 23  2  0
 22 24  2  0
 22 25  1  0
 25 26  1  0
 26 27  1  0
 27 28  1  0
 25 29  1  0
 29 30  1  0
 30 31  1  0
 21 32  2  0
 32 33  1  0
 33 34  2  0
 34 35  1  0
 18  4  1  0
 34 19  1  0
 16 11  1  0
  5 36  1  0
  6 37  1  0
 12 38  1  0
 12 39  1  0
 13 40  1  0
 13 41  1  0
 14 42  1  0
 14 43  1  0
 15 44  1  0
 15 45  1  0
 16 46  1  0
 16 47  1  0
 17 48  1  0
 18 49  1  0
 20 50  1  0
 26 51  1  0
 26 52  1  0
 27 53  1  0
 27 54  1  0
 28 55  1  0
 29 56  1  0
 29 57  1  0
 30 58  1  0
 30 59  1  0
 31 60  1  0
 32 61  1  0
 33 62  1  0
 35 63  1  0
M  CHG  1   3  -1
M  END
>  <UniqueID>  (28) 
28

>  <SMILES>  (28) 
O=C([N-]c1ccc(S(=O)(=O)N2CCCCC2)cc1)c1cc(S(=O)(=O)N(CCO)CCO)ccc1O

>  <Energy>  (28) 
82.15806378147441

>  <Genealogy>  (28) 
O=C([N-]c1ccc(S(=O)(=O)N2CCCCC2)cc1)c1cc(S(=O)(=O)N(CCO)CCO)ccc1O (protonated)
O=C([N-]c1ccc(S(=O)(=O)N2CCCCC2)cc1)c1cc(S(=O)(=O)N(CCO)CCO)ccc1O (3D coordinates assigned)
O=C([N-]c1ccc(S(=O)(=O)N2CCCCC2)cc1)c1cc(S(=O)(=O)N(CCO)CCO)ccc1O (nonaromatic ring conformer: 82.15806378147441 kcal/mol)

>  <smiles>  (28) 
O=C(Nc1ccc(S(=O)(=O)N2CCCCC2)cc1)c1cc(S(=O)(=O)N(CCO)CCO)ccc1O

>  <score_type>  (28) 
oracle

>  <origin>  (28) 
adgpu

>  <m_score__min__energy>  (28) 
-11.550000000000001

>  <m_primary>  (28) 
energy

$$$$
28:0
     RDKit          3D

 47 49  0  0  0  0  0  0  0  0999 V2000
   -1.0550   20.4760  -28.5380 O   0  0  0  0  0  0  0  0  0  0  0  0
   -1.4030   20.7900  -29.7070 C   0  0  0  0  0  0  0  0  0  0  0  0
   -1.0320   19.9270  -30.7920 N   0  0  0  0  0  0  0  0  0  0  0  0
   -1.2600   20.1890  -32.2120 C   0  0  0  0  0  0  0  0  0  0  0  0
   -2.1140   19.1090  -32.8220 C   0  0  0  0  0  0  0  0  0  0  0  0
   -1.5540   17.8750  -33.1840 C   0  0  0  0  0  0  0  0  0  0  0  0
   -2.3620   16.8620  -33.7050 C   0  0  0  0  0  0  0  0  0  0  0  0
   -3.7330   17.0680  -33.8710 C   0  0  0  0  0  0  0  0  0  0  0  0
   -4.5120   16.0380  -34.3850 O   0  0  0  0  0  0  0  0  0  0  0  0
   -4.3080   18.3050  -33.5170 C   0  0  0  0  0  0  0  0  0  0  0  0
   -6.0490   18.5960  -33.6750 S   0  0  0  0  0  0  0  0  0  0  0  0
   -6.7840   17.2860  -33.7360 O   0  0  0  0  0  0  0  0  0  0  0  0
   -6.3070   19.3270  -34.9630 O   0  0  0  0  0  0  0  0  0  0  0  0
   -6.6640   19.5420  -32.3380 N   0  0  0  0  0  0  0  0  0  0  0  0
   -7.9940   19.0590  -31.8890 C   0  0  0  0  0  0  0  0  0  0  0  0
   -9.1490   19.9500  -32.3680 C   0  0  0  0  0  0  0  0  0  0  0  0
   -8.9780   21.3960  -31.8720 C   0  0  0  0  0  0  0  0  0  0  0  0
   -7.5010   21.8030  -31.7210 C   0  0  0  0  0  0  0  0  0  0  0  0
   -6.6080   20.9860  -32.6600 C   0  0  0  0  0  0  0  0  0  0  0  0
   -3.4880   19.3210  -33.0050 C   0  0  0  0  0  0  0  0  0  0  0  0
   -2.1470   22.0450  -29.9190 C   0  0  0  0  0  0  0  0  0  0  0  0
   -3.3940   22.0410  -30.5640 C   0  0  0  0  0  0  0  0  0  0  0  0
   -4.0800   23.2400  -30.7790 C   0  0  0  0  0  0  0  0  0  0  0  0
   -3.5330   24.4530  -30.3380 C   0  0  0  0  0  0  0  0  0  0  0  0
   -4.2080   25.6530  -30.5560 O   0  0  0  0  0  0  0  0  0  0  0  0
   -2.3030   24.4580  -29.6690 C   0  0  0  0  0  0  0  0  0  0  0  0
   -1.7570   25.6550  -29.2200 O   0  0  0  0  0  0  0  0  0  0  0  0
   -1.6190   23.2580  -29.4500 C   0  0  0  0  0  0  0  0  0  0  0  0
   -1.7689   21.1578  -32.3233 H   0  0  0  0  0  0  0  0  0  0  0  0
   -0.2891   20.2064  -32.7288 H   0  0  0  0  0  0  0  0  0  0  0  0
   -0.4747   17.7045  -33.0571 H   0  0  0  0  0  0  0  0  0  0  0  0
   -1.9159   15.8966  -33.9861 H   0  0  0  0  0  0  0  0  0  0  0  0
   -8.1489   18.0432  -32.2816 H   0  0  0  0  0  0  0  0  0  0  0  0
   -7.9972   19.0791  -30.7892 H   0  0  0  0  0  0  0  0  0  0  0  0
   -9.1715   19.9481  -33.4678 H   0  0  0  0  0  0  0  0  0  0  0  0
  -10.0894   19.5506  -31.9604 H   0  0  0  0  0  0  0  0  0  0  0  0
   -9.4577   22.0742  -32.5931 H   0  0  0  0  0  0  0  0  0  0  0  0
   -9.4438   21.4628  -30.8777 H   0  0  0  0  0  0  0  0  0  0  0  0
   -7.3955   22.8709  -31.9629 H   0  0  0  0  0  0  0  0  0  0  0  0
   -7.1885   21.6102  -30.6841 H   0  0  0  0  0  0  0  0  0  0  0  0
   -6.9468   21.1351  -33.6958 H   0  0  0  0  0  0  0  0  0  0  0  0
   -5.5701   21.3284  -32.5357 H   0  0  0  0  0  0  0  0  0  0  0  0
   -3.9275   20.2950  -32.7441 H   0  0  0  0  0  0  0  0  0  0  0  0
   -3.8331   21.0906  -30.9016 H   0  0  0  0  0  0  0  0  0  0  0  0
   -5.0512   23.2316  -31.2954 H   0  0  0  0  0  0  0  0  0  0  0  0
   -3.8580   26.5320  -30.1920 H   0  0  0  0  0  0  0  0  0  0  0  0
   -0.6622   23.2648  -28.9073 H   0  0  0  0  0  0  0  0  0  0  0  0
  1  2  2  0
  2  3  1  0
  3  4  1  0
  4  5  1  0
  5  6  2  0
  6  7  1  0
  7  8  2  0
  8  9  1  0
  8 10  1  0
 10 11  1  0
 11 12  2  0
 11 13  2  0
 11 14  1  0
 14 15  1  0
 15 16  1  0
 16 17  1  0
 17 18  1  0
 18 19  1  0
 10 20  2  0
  2 21  1  0
 21 22  2  0
 22 23  1  0
 23 24  2  0
 24 25  1  0
 24 26  1  0
 26 27  1  0
 26 28  2  0
 20  5  1  0
 28 21  1  0
 19 14  1  0
  4 29  1  0
  4 30  1  0
  6 31  1  0
  7 32  1  0
 15 33  1  0
 15 34  1  0
 16 35  1  0
 16 36  1  0
 17 37  1  0
 17 38  1  0
 18 39  1  0
 18 40  1  0
 19 41  1  0
 19 42  1  0
 20 43  1  0
 22 44  1  0
 23 45  1  0
 25 46  1  0
 28 47  1  0
M  CHG  3   3  -1   9  -1  27  -1
M  END
>  <UniqueID>  (29) 
29

>  <SMILES>  (29) 
O=C([N-]Cc1ccc([O-])c(S(=O)(=O)N2CCCCC2)c1)c1ccc(O)c([O-])c1

>  <Energy>  (29) 
53.87604281631988

>  <Genealogy>  (29) 
O=C([N-]Cc1ccc([O-])c(S(=O)(=O)N2CCCCC2)c1)c1ccc(O)c([O-])c1 (protonated)
O=C([N-]Cc1ccc([O-])c(S(=O)(=O)N2CCCCC2)c1)c1ccc(O)c([O-])c1 (3D coordinates assigned)
O=C([N-]Cc1ccc([O-])c(S(=O)(=O)N2CCCCC2)c1)c1ccc(O)c([O-])c1 (nonaromatic ring conformer: 53.87604281631988 kcal/mol)

>  <smiles>  (29) 
O=C(NCc1ccc(O)c(S(=O)(=O)N2CCCCC2)c1)c1ccc(O)c(O)c1

>  <score_type>  (29) 
oracle

>  <origin>  (29) 
adgpu

>  <m_score__min__energy>  (29) 
-12.369999999999999

>  <m_primary>  (29) 
energy

$$$$
29:0
     RDKit          3D

 54 56  0  0  0  0  0  0  0  0999 V2000
   -2.4280   23.4470  -27.7580 C   0  0  0  0  0  0  0  0  0  0  0  0
   -2.5360   24.0190  -29.1380 C   0  0  0  0  0  0  0  0  0  0  0  0
   -2.1580   25.2020  -29.3400 O   0  0  0  0  0  0  0  0  0  0  0  0
   -3.0900   23.2720  -30.2300 N   0  0  0  0  0  0  0  0  0  0  0  0
   -4.4440   23.3250  -30.7040 C   0  0  0  0  0  0  0  0  0  0  0  0
   -5.1090   22.1580  -31.1150 C   0  0  0  0  0  0  0  0  0  0  0  0
   -6.4200   22.2180  -31.6010 C   0  0  0  0  0  0  0  0  0  0  0  0
   -7.2240   20.7420  -32.1310 S   0  0  0  0  0  0  0  0  0  0  0  0
   -8.7180   20.9180  -32.0830 O   0  0  0  0  0  0  0  0  0  0  0  0
   -6.8490   19.6210  -31.2030 O   0  0  0  0  0  0  0  0  0  0  0  0
   -6.7340   20.3350  -33.7470 N   0  0  0  0  0  0  0  0  0  0  0  0
   -5.9160   19.1200  -33.7260 C   0  0  0  0  0  0  0  0  0  0  0  0
   -4.4610   19.4930  -33.6650 C   0  0  0  0  0  0  0  0  0  0  0  0
   -4.0800   20.8370  -33.5280 C   0  0  0  0  0  0  0  0  0  0  0  0
   -2.7280   21.1890  -33.5090 C   0  0  0  0  0  0  0  0  0  0  0  0
   -1.7410   20.2030  -33.6340 C   0  0  0  0  0  0  0  0  0  0  0  0
   -0.0420   20.6680  -33.6300 S   0  0  0  0  0  0  0  0  0  0  0  0
    0.7580   19.5710  -34.2750 O   0  0  0  0  0  0  0  0  0  0  0  0
    0.1520   21.9350  -34.4180 O   0  0  0  0  0  0  0  0  0  0  0  0
    0.4910   20.9050  -31.9840 N   0  0  0  0  0  0  0  0  0  0  0  0
    0.9640   19.6360  -31.3860 C   0  0  0  0  0  0  0  0  0  0  0  0
   -0.0350   19.0660  -30.3640 C   0  0  0  0  0  0  0  0  0  0  0  0
   -0.3110   19.9640  -29.2980 O   0  0  0  0  0  0  0  0  0  0  0  0
   -0.3540   21.3290  -29.6950 C   0  0  0  0  0  0  0  0  0  0  0  0
   -0.5800   21.5480  -31.2000 C   0  0  0  0  0  0  0  0  0  0  0  0
   -2.1180   18.8620  -33.7900 C   0  0  0  0  0  0  0  0  0  0  0  0
   -3.4700   18.5090  -33.8100 C   0  0  0  0  0  0  0  0  0  0  0  0
   -7.0650   23.4560  -31.7050 C   0  0  0  0  0  0  0  0  0  0  0  0
   -6.4010   24.6260  -31.3270 C   0  0  0  0  0  0  0  0  0  0  0  0
   -5.0890   24.5720  -30.8330 C   0  0  0  0  0  0  0  0  0  0  0  0
   -4.4290   25.7870  -30.4570 N   0  0  0  0  0  0  0  0  0  0  0  0
   -2.5788   24.2459  -27.0171 H   0  0  0  0  0  0  0  0  0  0  0  0
   -3.1955   22.6708  -27.6217 H   0  0  0  0  0  0  0  0  0  0  0  0
   -1.4304   23.0041  -27.6217 H   0  0  0  0  0  0  0  0  0  0  0  0
   -4.5944   21.1877  -31.0543 H   0  0  0  0  0  0  0  0  0  0  0  0
   -7.6090   20.1300  -34.2840 H   0  0  0  0  0  0  0  0  0  0  0  0
   -6.1770   18.5181  -32.8431 H   0  0  0  0  0  0  0  0  0  0  0  0
   -6.1056   18.5360  -34.6387 H   0  0  0  0  0  0  0  0  0  0  0  0
   -4.8499   21.6172  -33.4351 H   0  0  0  0  0  0  0  0  0  0  0  0
   -2.4377   22.2439  -33.3955 H   0  0  0  0  0  0  0  0  0  0  0  0
    1.1086   18.8984  -32.1891 H   0  0  0  0  0  0  0  0  0  0  0  0
    1.9062   19.8429  -30.8574 H   0  0  0  0  0  0  0  0  0  0  0  0
   -0.9773   18.8388  -30.8840 H   0  0  0  0  0  0  0  0  0  0  0  0
    0.4197   18.1651  -29.9263 H   0  0  0  0  0  0  0  0  0  0  0  0
   -1.1734   21.8199  -29.1494 H   0  0  0  0  0  0  0  0  0  0  0  0
    0.6333   21.7542  -29.4616 H   0  0  0  0  0  0  0  0  0  0  0  0
   -1.5490   21.1137  -31.4872 H   0  0  0  0  0  0  0  0  0  0  0  0
   -0.5714   22.6284  -31.4067 H   0  0  0  0  0  0  0  0  0  0  0  0
   -1.3470   18.0848  -33.8971 H   0  0  0  0  0  0  0  0  0  0  0  0
   -3.7591   17.4556  -33.9399 H   0  0  0  0  0  0  0  0  0  0  0  0
   -8.0960   23.5079  -32.0848 H   0  0  0  0  0  0  0  0  0  0  0  0
   -6.9108   25.5965  -31.4174 H   0  0  0  0  0  0  0  0  0  0  0  0
   -4.8820   26.4540  -29.7930 H   0  0  0  0  0  0  0  0  0  0  0  0
   -3.4900   26.0390  -30.8360 H   0  0  0  0  0  0  0  0  0  0  0  0
  1  2  1  0
  2  3  2  0
  2  4  1  0
  4  5  1  0
  5  6  2  0
  6  7  1  0
  7  8  1  0
  8  9  2  0
  8 10  2  0
  8 11  1  0
 11 12  1  0
 12 13  1  0
 13 14  2  0
 14 15  1  0
 15 16  2  0
 16 17  1  0
 17 18  2  0
 17 19  2  0
 17 20  1  0
 20 21  1  0
 21 22  1  0
 22 23  1  0
 23 24  1  0
 24 25  1  0
 16 26  1  0
 26 27  2  0
  7 28  2  0
 28 29  1  0
 29 30  2  0
 30 31  1  0
 30  5  1  0
 27 13  1  0
 25 20  1  0
  1 32  1  0
  1 33  1  0
  1 34  1  0
  6 35  1  0
 11 36  1  0
 12 37  1  0
 12 38  1  0
 14 39  1  0
 15 40  1  0
 21 41  1  0
 21 42  1  0
 22 43  1  0
 22 44  1  0
 24 45  1  0
 24 46  1  0
 25 47  1  0
 25 48  1  0
 26 49  1  0
 27 50  1  0
 28 51  1  0
 29 52  1  0
 31 53  1  0
 31 54  1  0
M  CHG  1   4  -1
M  END
>  <UniqueID>  (30) 
30

>  <SMILES>  (30) 
CC(=O)[N-]c1cc(S(=O)(=O)NCc2ccc(S(=O)(=O)N3CCOCC3)cc2)ccc1N

>  <Energy>  (30) 
67.14161243291852

>  <Genealogy>  (30) 
CC(=O)[N-]c1cc(S(=O)(=O)NCc2ccc(S(=O)(=O)N3CCOCC3)cc2)ccc1N (protonated)
CC(=O)[N-]c1cc(S(=O)(=O)NCc2ccc(S(=O)(=O)N3CCOCC3)cc2)ccc1N (3D coordinates assigned)
CC(=O)[N-]c1cc(S(=O)(=O)NCc2ccc(S(=O)(=O)N3CCOCC3)cc2)ccc1N (nonaromatic ring conformer: 67.14161243291852 kcal/mol)

>  <smiles>  (30) 
CC(=O)Nc1cc(S(=O)(=O)NCc2ccc(S(=O)(=O)N3CCOCC3)cc2)ccc1N

>  <score_type>  (30) 
oracle

>  <origin>  (30) 
adgpu

>  <m_score__min__energy>  (30) 
-11.300000000000001

>  <m_primary>  (30) 
energy

$$$$
30:0
     RDKit          3D

 58 61  0  0  0  0  0  0  0  0999 V2000
   -2.4270   17.7760  -33.6410 O   0  0  0  0  0  0  0  0  0  0  0  0
   -3.1300   18.8220  -33.6760 C   0  0  0  0  0  0  0  0  0  0  0  0
   -2.5260   20.0760  -33.3410 N   0  0  0  0  0  0  0  0  0  0  0  0
   -2.2970   20.5850  -32.0210 C   0  0  0  0  0  0  0  0  0  0  0  0
   -3.1770   20.3220  -30.9570 C   0  0  0  0  0  0  0  0  0  0  0  0
   -2.8870   20.7820  -29.6690 C   0  0  0  0  0  0  0  0  0  0  0  0
   -1.7030   21.4960  -29.4170 C   0  0  0  0  0  0  0  0  0  0  0  0
   -1.3920   21.9780  -28.0500 C   0  0  0  0  0  0  0  0  0  0  0  0
   -1.1400   21.1550  -27.1300 O   0  0  0  0  0  0  0  0  0  0  0  0
   -1.3670   23.3800  -27.7510 N   0  0  0  0  0  0  0  0  0  0  0  0
   -2.5170   23.9510  -27.0370 C   0  0  0  0  0  0  0  0  0  0  0  0
   -2.3040   25.4240  -26.6720 C   0  0  0  0  0  0  0  0  0  0  0  0
   -1.6220   26.1080  -27.7000 O   0  0  0  0  0  0  0  0  0  0  0  0
   -0.3000   25.6270  -27.7670 C   0  0  0  0  0  0  0  0  0  0  0  0
   -0.2680   24.1900  -28.2910 C   0  0  0  0  0  0  0  0  0  0  0  0
   -0.8250   21.7540  -30.4840 C   0  0  0  0  0  0  0  0  0  0  0  0
   -1.1150   21.2910  -31.7690 C   0  0  0  0  0  0  0  0  0  0  0  0
   -4.4880   18.7610  -34.1260 N   0  0  0  0  0  0  0  0  0  0  0  0
   -5.6040   19.1730  -33.3260 C   0  0  0  0  0  0  0  0  0  0  0  0
   -6.5110   18.2000  -32.8910 C   0  0  0  0  0  0  0  0  0  0  0  0
   -7.5790   18.5500  -32.0630 C   0  0  0  0  0  0  0  0  0  0  0  0
   -7.7530   19.8760  -31.6690 C   0  0  0  0  0  0  0  0  0  0  0  0
   -6.8690   20.8690  -32.1160 C   0  0  0  0  0  0  0  0  0  0  0  0
   -7.1050   22.5480  -31.6220 S   0  0  0  0  0  0  0  0  0  0  0  0
   -8.4260   22.7030  -30.9200 O   0  0  0  0  0  0  0  0  0  0  0  0
   -7.0970   23.4170  -32.8480 O   0  0  0  0  0  0  0  0  0  0  0  0
   -5.8140   23.0270  -30.5440 N   0  0  0  0  0  0  0  0  0  0  0  0
   -6.1280   24.3070  -29.8710 C   0  0  0  0  0  0  0  0  0  0  0  0
   -5.3270   25.4840  -30.4580 C   0  0  0  0  0  0  0  0  0  0  0  0
   -3.9200   25.2970  -30.3910 O   0  0  0  0  0  0  0  0  0  0  0  0
   -3.5140   23.9420  -30.5420 C   0  0  0  0  0  0  0  0  0  0  0  0
   -4.5340   23.0580  -31.2760 C   0  0  0  0  0  0  0  0  0  0  0  0
   -5.8040   20.5270  -32.9690 C   0  0  0  0  0  0  0  0  0  0  0  0
   -4.9830   21.5400  -33.4720 O   0  0  0  0  0  0  0  0  0  0  0  0
   -4.0994   19.7508  -31.1388 H   0  0  0  0  0  0  0  0  0  0  0  0
   -3.5905   20.5837  -28.8470 H   0  0  0  0  0  0  0  0  0  0  0  0
   -3.4067   23.8710  -27.6788 H   0  0  0  0  0  0  0  0  0  0  0  0
   -2.6442   23.3880  -26.1006 H   0  0  0  0  0  0  0  0  0  0  0  0
   -3.2828   25.8997  -26.5118 H   0  0  0  0  0  0  0  0  0  0  0  0
   -1.6961   25.4729  -25.7565 H   0  0  0  0  0  0  0  0  0  0  0  0
    0.2834   26.2698  -28.4426 H   0  0  0  0  0  0  0  0  0  0  0  0
    0.1312   25.6419  -26.7551 H   0  0  0  0  0  0  0  0  0  0  0  0
   -0.3485   24.2107  -29.3879 H   0  0  0  0  0  0  0  0  0  0  0  0
    0.6793   23.7332  -27.9686 H   0  0  0  0  0  0  0  0  0  0  0  0
    0.0979   22.3252  -30.3052 H   0  0  0  0  0  0  0  0  0  0  0  0
   -0.4086   21.4827  -32.5901 H   0  0  0  0  0  0  0  0  0  0  0  0
   -6.3816   17.1533  -33.2034 H   0  0  0  0  0  0  0  0  0  0  0  0
   -8.2844   17.7784  -31.7209 H   0  0  0  0  0  0  0  0  0  0  0  0
   -8.5874   20.1447  -31.0045 H   0  0  0  0  0  0  0  0  0  0  0  0
   -7.2017   24.5153  -29.9889 H   0  0  0  0  0  0  0  0  0  0  0  0
   -5.8539   24.2073  -28.8104 H   0  0  0  0  0  0  0  0  0  0  0  0
   -5.6125   25.6086  -31.5130 H   0  0  0  0  0  0  0  0  0  0  0  0
   -5.5660   26.3726  -29.8554 H   0  0  0  0  0  0  0  0  0  0  0  0
   -2.5715   23.9252  -31.1090 H   0  0  0  0  0  0  0  0  0  0  0  0
   -3.4083   23.5284  -29.5282 H   0  0  0  0  0  0  0  0  0  0  0  0
   -4.7038   23.4627  -32.2846 H   0  0  0  0  0  0  0  0  0  0  0  0
   -4.1362   22.0344  -31.3394 H   0  0  0  0  0  0  0  0  0  0  0  0
   -4.1340   21.3580  -33.9890 H   0  0  0  0  0  0  0  0  0  0  0  0
  1  2  2  0
  2  3  1  0
  3  4  1  0
  4  5  2  0
  5  6  1  0
  6  7  2  0
  7  8  1  0
  8  9  2  0
  8 10  1  0
 10 11  1  0
 11 12  1  0
 12 13  1  0
 13 14  1  0
 14 15  1  0
  7 16  1  0
 16 17  2  0
  2 18  1  0
 18 19  1  0
 19 20  2  0
 20 21  1  0
 21 22  2  0
 22 23  1  0
 23 24  1  0
 24 25  2  0
 24 26  2  0
 24 27  1  0
 27 28  1  0
 28 29  1  0
 29 30  1  0
 30 31  1  0
 31 32  1  0
 23 33  2  0
 33 34  1  0
 17  4  1  0
 33 19  1  0
 15 10  1  0
 32 27  1  0
  5 35  1  0
  6 36  1  0
 11 37  1  0
 11 38  1  0
 12 39  1  0
 12 40  1  0
 14 41  1  0
 14 42  1  0
 15 43  1  0
 15 44  1  0
 16 45  1  0
 17 46  1  0
 20 47  1  0
 21 48  1  0
 22 49  1  0
 28 50  1  0
 28 51  1  0
 29 52  1  0
 29 53  1  0
 31 54  1  0
 31 55  1  0
 32 56  1  0
 32 57  1  0
 34 58  1  0
M  CHG  2   3  -1  18  -1
M  END
>  <UniqueID>  (31) 
31

>  <SMILES>  (31) 
O=C([N-]c1ccc(C(=O)N2CCOCC2)cc1)[N-]c1cccc(S(=O)(=O)N2CCOCC2)c1O

>  <Energy>  (31) 
92.29445983772045

>  <Genealogy>  (31) 
O=C([N-]c1ccc(C(=O)N2CCOCC2)cc1)[N-]c1cccc(S(=O)(=O)N2CCOCC2)c1O (protonated)
O=C([N-]c1ccc(C(=O)N2CCOCC2)cc1)[N-]c1cccc(S(=O)(=O)N2CCOCC2)c1O (3D coordinates assigned)
O=C([N-]c1ccc(C(=O)N2CCOCC2)cc1)[N-]c1cccc(S(=O)(=O)N2CCOCC2)c1O (nonaromatic ring conformer: 92.29445983772045 kcal/mol)

>  <smiles>  (31) 
O=C(Nc1ccc(C(=O)N2CCOCC2)cc1)Nc1cccc(S(=O)(=O)N2CCOCC2)c1O

>  <score_type>  (31) 
oracle

>  <origin>  (31) 
adgpu

>  <m_score__min__energy>  (31) 
-13.869999999999999

>  <m_primary>  (31) 
energy

$$$$
31:0
     RDKit          3D

 66 71  0  0  1  0  0  0  0  0999 V2000
   -1.4280   22.9070  -26.2680 C   0  0  0  0  0  0  0  0  0  0  0  0
   -0.8870   21.9830  -27.2480 N   0  0  0  0  0  0  0  0  0  0  0  0
   -1.6310   20.7660  -27.3580 C   0  0  0  0  0  0  0  0  0  0  0  0
   -3.0720   20.9460  -27.7630 C   0  0  0  0  0  0  0  0  0  0  0  0
   -3.2190   22.1700  -28.5540 C   0  0  0  0  0  0  0  0  0  0  0  0
   -4.4980   22.5140  -28.9740 C   0  0  0  0  0  0  0  0  0  0  0  0
   -4.7680   23.6380  -29.7210 C   0  0  0  0  0  0  0  0  0  0  0  0
   -6.0660   23.9740  -30.1300 N   0  0  0  0  0  0  0  0  0  0  0  0
   -7.2680   22.8590  -30.6370 S   0  0  0  0  0  0  0  0  0  0  0  0
   -7.9300   22.2240  -29.4360 O   0  0  0  0  0  0  0  0  0  0  0  0
   -8.3770   23.6070  -31.3480 O   0  0  0  0  0  0  0  0  0  0  0  0
   -6.5790   21.6390  -31.6730 C   0  0  0  0  0  0  0  0  0  0  0  0
   -7.2600   20.9750  -32.6610 C   0  0  0  0  0  0  0  0  0  0  0  0
   -6.7080   20.0180  -33.4600 C   0  0  0  0  0  0  0  0  0  0  0  0
   -5.3430   19.6380  -33.3100 C   0  0  0  0  0  0  0  0  0  0  0  0
   -4.6770   20.2900  -32.3420 C   0  0  0  0  0  0  0  0  0  0  0  0
   -5.2440   21.2820  -31.5110 C   0  0  0  0  0  0  0  0  0  0  0  0
   -3.0550   19.6290  -32.3880 S   0  0  0  0  0  0  0  0  0  0  0  0
   -3.3640   18.5410  -33.6780 C   0  0  0  0  0  0  0  0  0  0  0  0
   -2.5130   17.5950  -34.3410 C   0  0  0  0  0  0  0  0  0  0  0  0
   -1.2950   17.4660  -33.9870 N   0  0  0  0  0  0  0  0  0  0  0  0
   -0.7600   18.2520  -32.9340 C   0  0  0  0  0  0  0  0  0  0  0  0
   -0.6990   17.8360  -31.6210 C   0  0  0  0  0  0  0  0  0  0  0  0
   -0.1560   18.6390  -30.6120 C   0  0  0  0  0  0  0  0  0  0  0  0
    0.3300   19.8950  -30.9760 C   0  0  0  0  0  0  0  0  0  0  0  0
    0.8720   20.7220  -30.0300 F   0  0  0  0  0  0  0  0  0  0  0  0
    0.2840   20.3460  -32.2830 C   0  0  0  0  0  0  0  0  0  0  0  0
   -0.2600   19.5200  -33.2470 C   0  0  0  0  0  0  0  0  0  0  0  0
   -0.3200   19.9430  -34.5680 O   0  0  0  0  0  0  0  0  0  0  0  0
    0.7720   20.2890  -35.3620 C   0  0  0  0  0  0  0  0  0  0  0  0
    1.0690   21.7930  -35.2880 C   0  0  0  0  0  0  0  0  0  0  0  0
    0.6840   22.3290  -36.5050 F   0  0  0  0  0  0  0  0  0  0  0  0
   -3.0080   16.8440  -35.3430 N   0  0  0  0  0  0  0  0  0  0  0  0
   -4.3000   17.0500  -35.6490 C   0  0  0  0  0  0  0  0  0  0  0  0
   -5.1030   17.9170  -35.0510 N   0  0  0  0  0  0  0  0  0  0  0  0
   -4.6480   18.7190  -34.0110 C   0  0  0  0  0  0  0  0  0  0  0  0
   -3.6830   24.4460  -30.0520 C   0  0  0  0  0  0  0  0  0  0  0  0
   -3.8810   25.5960  -30.8020 O   0  0  0  0  0  0  0  0  0  0  0  0
   -2.3940   24.1580  -29.6640 C   0  0  0  0  0  0  0  0  0  0  0  0
   -2.2030   23.0150  -28.9180 C   0  0  0  0  0  0  0  0  0  0  0  0
   -0.8090   22.7070  -28.5020 C   0  0  0  0  0  0  0  0  0  0  0  0
   -1.2109   22.5362  -25.2554 H   0  0  0  0  0  0  0  0  0  0  0  0
   -0.9665   23.8963  -26.4030 H   0  0  0  0  0  0  0  0  0  0  0  0
   -2.5166   22.9887  -26.4030 H   0  0  0  0  0  0  0  0  0  0  0  0
   -1.1401   20.1305  -28.1097 H   0  0  0  0  0  0  0  0  0  0  0  0
   -1.6430   20.3161  -26.3543 H   0  0  0  0  0  0  0  0  0  0  0  0
   -3.3923   20.0825  -28.3645 H   0  0  0  0  0  0  0  0  0  0  0  0
   -3.6950   21.0219  -26.8596 H   0  0  0  0  0  0  0  0  0  0  0  0
   -5.3349   21.8565  -28.6962 H   0  0  0  0  0  0  0  0  0  0  0  0
   -6.3100   25.0120  -30.1180 H   0  0  0  0  0  0  0  0  0  0  0  0
   -8.3182   21.2306  -32.8188 H   0  0  0  0  0  0  0  0  0  0  0  0
   -7.3248   19.5327  -34.2308 H   0  0  0  0  0  0  0  0  0  0  0  0
   -4.6320   21.7705  -30.7385 H   0  0  0  0  0  0  0  0  0  0  0  0
   -1.0894   16.8417  -31.3584 H   0  0  0  0  0  0  0  0  0  0  0  0
   -0.1138   18.2923  -29.5689 H   0  0  0  0  0  0  0  0  0  0  0  0
    0.6721   21.3404  -32.5486 H   0  0  0  0  0  0  0  0  0  0  0  0
    1.6557   19.7330  -35.0159 H   0  0  0  0  0  0  0  0  0  0  0  0
    0.5332   20.0359  -36.4055 H   0  0  0  0  0  0  0  0  0  0  0  0
    0.4950   22.2541  -34.4708 H   0  0  0  0  0  0  0  0  0  0  0  0
    2.1349   21.9792  -35.0902 H   0  0  0  0  0  0  0  0  0  0  0  0
   -2.3960   16.1540  -35.8290 H   0  0  0  0  0  0  0  0  0  0  0  0
   -4.7267   16.4479  -36.4648 H   0  0  0  0  0  0  0  0  0  0  0  0
   -3.0890   26.0560  -31.2350 H   0  0  0  0  0  0  0  0  0  0  0  0
   -1.5528   24.8119  -29.9375 H   0  0  0  0  0  0  0  0  0  0  0  0
   -0.3159   22.0871  -29.2653 H   0  0  0  0  0  0  0  0  0  0  0  0
   -0.2230   23.6305  -28.3845 H   0  0  0  0  0  0  0  0  0  0  0  0
  1  2  1  0
  2  3  1  0
  3  4  1  0
  4  5  1  0
  5  6  2  0
  6  7  1  0
  7  8  1  0
  8  9  1  0
  9 10  2  0
  9 11  2  0
  9 12  1  0
 12 13  2  0
 13 14  1  0
 14 15  2  0
 15 16  1  0
 16 17  2  0
 16 18  1  0
 18 19  1  0
 19 20  1  0
 20 21  2  0
 21 22  1  0
 22 23  2  0
 23 24  1  0
 24 25  2  0
 25 26  1  0
 25 27  1  0
 27 28  2  0
 28 29  1  0
 29 30  1  0
 30 31  1  0
 31 32  1  0
 20 33  1  0
 33 34  1  0
 34 35  2  0
 35 36  1  0
  7 37  2  0
 37 38  1  0
 37 39  1  0
 39 40  2  0
 40 41  1  0
 41  2  1  0
 40  5  1  0
 17 12  1  0
 36 19  2  0
 36 15  1  0
 28 22  1  0
  1 42  1  0
  1 43  1  0
  1 44  1  0
  3 45  1  0
  3 46  1  0
  4 47  1  0
  4 48  1  0
  6 49  1  0
  8 50  1  0
 13 51  1  0
 14 52  1  0
 17 53  1  0
 23 54  1  0
 24 55  1  0
 27 56  1  0
 30 57  1  0
 30 58  1  0
 31 59  1  0
 31 60  1  0
 33 61  1  0
 34 62  1  0
 38 63  1  0
 39 64  1  0
 41 65  1  0
 41 66  1  0
M  END
>  <smiles>  (32) 
CN1CCc2cc(NS(=O)(=O)c3ccc4c(c3)sc3c(=Nc5ccc(F)cc5OCCF)[nH]cnc34)c(O)cc2C1

>  <score_type>  (32) 
oracle

>  <origin>  (32) 
adgpu

>  <m_score__min__energy>  (32) 
-11.029999999999999

>  <m_primary>  (32) 
energy

$$$$
32:0
     RDKit          3D

 69 72  0  0  0  0  0  0  0  0999 V2000
   -2.0460   19.7110  -27.4600 C   0  0  0  0  0  0  0  0  0  0  0  0
   -2.0070   21.2350  -27.3380 C   0  0  0  0  0  0  0  0  0  0  0  0
   -1.0140   21.8450  -28.2540 N   0  0  0  0  0  0  0  0  0  0  0  0
   -1.1150   21.2820  -29.6250 C   0  0  0  0  0  0  0  0  0  0  0  0
   -1.9390   22.1440  -30.6110 C   0  0  0  0  0  0  0  0  0  0  0  0
   -2.8640   23.0380  -29.9050 N   0  0  0  0  0  0  0  0  0  0  0  0
   -4.1950   23.2480  -30.4060 C   0  0  0  0  0  0  0  0  0  0  0  0
   -5.0370   22.1450  -30.6250 C   0  0  0  0  0  0  0  0  0  0  0  0
   -6.3270   22.3270  -31.1420 C   0  0  0  0  0  0  0  0  0  0  0  0
   -7.3520   20.9390  -31.4950 S   0  0  0  0  0  0  0  0  0  0  0  0
   -8.7330   21.1930  -30.9580 O   0  0  0  0  0  0  0  0  0  0  0  0
   -6.8030   19.7000  -30.8420 O   0  0  0  0  0  0  0  0  0  0  0  0
   -7.4350   20.7190  -33.2150 N   0  0  0  0  0  0  0  0  0  0  0  0
   -6.8320   19.4430  -33.6010 C   0  0  0  0  0  0  0  0  0  0  0  0
   -5.3480   19.6210  -33.7260 C   0  0  0  0  0  0  0  0  0  0  0  0
   -4.7470   20.8470  -33.4060 C   0  0  0  0  0  0  0  0  0  0  0  0
   -3.3580   20.9930  -33.4880 C   0  0  0  0  0  0  0  0  0  0  0  0
   -2.5480   19.9170  -33.8890 C   0  0  0  0  0  0  0  0  0  0  0  0
   -1.0780   20.0910  -33.9650 C   0  0  0  0  0  0  0  0  0  0  0  0
   -0.3480   19.4580  -33.1540 O   0  0  0  0  0  0  0  0  0  0  0  0
   -0.4770   20.9530  -34.9500 N   0  0  0  0  0  0  0  0  0  0  0  0
    0.9320   21.2300  -35.0200 C   0  0  0  0  0  0  0  0  0  0  0  0
    1.3610   22.5040  -35.4170 C   0  0  0  0  0  0  0  0  0  0  0  0
    2.7280   22.8120  -35.4750 C   0  0  0  0  0  0  0  0  0  0  0  0
    3.1750   24.1890  -35.8680 C   0  0  0  0  0  0  0  0  0  0  0  0
    3.6700   21.8490  -35.0890 C   0  0  0  0  0  0  0  0  0  0  0  0
    3.2550   20.5720  -34.6820 C   0  0  0  0  0  0  0  0  0  0  0  0
    4.2650   19.5630  -34.2210 C   0  0  0  0  0  0  0  0  0  0  0  0
    1.8860   20.2740  -34.6290 C   0  0  0  0  0  0  0  0  0  0  0  0
   -3.1550   18.6810  -34.1810 C   0  0  0  0  0  0  0  0  0  0  0  0
   -4.5420   18.5360  -34.0970 C   0  0  0  0  0  0  0  0  0  0  0  0
   -6.7770   23.6180  -31.4420 C   0  0  0  0  0  0  0  0  0  0  0  0
   -5.9500   24.7210  -31.2170 C   0  0  0  0  0  0  0  0  0  0  0  0
   -4.6630   24.5420  -30.6990 C   0  0  0  0  0  0  0  0  0  0  0  0
   -3.8620   25.6550  -30.4680 O   0  0  0  0  0  0  0  0  0  0  0  0
   -2.3740   23.8640  -28.7980 C   0  0  0  0  0  0  0  0  0  0  0  0
   -1.0390   23.3250  -28.2700 C   0  0  0  0  0  0  0  0  0  0  0  0
   -2.0575   19.2629  -26.4555 H   0  0  0  0  0  0  0  0  0  0  0  0
   -2.9521   19.4099  -28.0061 H   0  0  0  0  0  0  0  0  0  0  0  0
   -1.1564   19.3640  -28.0061 H   0  0  0  0  0  0  0  0  0  0  0  0
   -3.0031   21.6352  -27.5781 H   0  0  0  0  0  0  0  0  0  0  0  0
   -1.7133   21.4838  -26.3076 H   0  0  0  0  0  0  0  0  0  0  0  0
   -0.0974   21.1752  -30.0289 H   0  0  0  0  0  0  0  0  0  0  0  0
   -1.6424   20.3212  -29.5317 H   0  0  0  0  0  0  0  0  0  0  0  0
   -1.2497   22.7501  -31.2172 H   0  0  0  0  0  0  0  0  0  0  0  0
   -2.5311   21.4687  -31.2461 H   0  0  0  0  0  0  0  0  0  0  0  0
   -4.6813   21.1312  -30.3890 H   0  0  0  0  0  0  0  0  0  0  0  0
   -7.0490   18.6856  -32.8334 H   0  0  0  0  0  0  0  0  0  0  0  0
   -7.2485   19.1118  -34.5637 H   0  0  0  0  0  0  0  0  0  0  0  0
   -5.3698   21.6967  -33.0895 H   0  0  0  0  0  0  0  0  0  0  0  0
   -2.8957   21.9589  -33.2363 H   0  0  0  0  0  0  0  0  0  0  0  0
   -1.0780   21.3700  -35.6950 H   0  0  0  0  0  0  0  0  0  0  0  0
    0.6183   23.2696  -35.6857 H   0  0  0  0  0  0  0  0  0  0  0  0
    3.3681   24.7840  -34.9632 H   0  0  0  0  0  0  0  0  0  0  0  0
    4.0966   24.1191  -36.4645 H   0  0  0  0  0  0  0  0  0  0  0  0
    2.3881   24.6737  -36.4645 H   0  0  0  0  0  0  0  0  0  0  0  0
    4.7418   22.0959  -35.1052 H   0  0  0  0  0  0  0  0  0  0  0  0
    4.2864   19.5416  -33.1214 H   0  0  0  0  0  0  0  0  0  0  0  0
    3.9898   18.5684  -34.6018 H   0  0  0  0  0  0  0  0  0  0  0  0
    5.2593   19.8392  -34.6018 H   0  0  0  0  0  0  0  0  0  0  0  0
    1.5558   19.2849  -34.2789 H   0  0  0  0  0  0  0  0  0  0  0  0
   -2.5331   17.8235  -34.4773 H   0  0  0  0  0  0  0  0  0  0  0  0
   -5.0045   17.5640  -34.3235 H   0  0  0  0  0  0  0  0  0  0  0  0
   -7.7854   23.7645  -31.8564 H   0  0  0  0  0  0  0  0  0  0  0  0
   -6.3120   25.7337  -31.4479 H   0  0  0  0  0  0  0  0  0  0  0  0
   -2.2322   24.8957  -29.1523 H   0  0  0  0  0  0  0  0  0  0  0  0
   -3.1129   23.8387  -27.9835 H   0  0  0  0  0  0  0  0  0  0  0  0
   -0.2270   23.6883  -28.9170 H   0  0  0  0  0  0  0  0  0  0  0  0
   -0.9096   23.6813  -27.2374 H   0  0  0  0  0  0  0  0  0  0  0  0
  1  2  1  0
  2  3  1  0
  3  4  1  0
  4  5  1  0
  5  6  1  0
  6  7  1  0
  7  8  2  0
  8  9  1  0
  9 10  1  0
 10 11  2  0
 10 12  2  0
 10 13  1  0
 13 14  1  0
 14 15  1  0
 15 16  2  0
 16 17  1  0
 17 18  2  0
 18 19  1  0
 19 20  2  0
 19 21  1  0
 21 22  1  0
 22 23  2  0
 23 24  1  0
 24 25  1  0
 24 26  2  0
 26 27  1  0
 27 28  1  0
 27 29  2  0
 18 30  1  0
 30 31  2  0
  9 32  2  0
 32 33  1  0
 33 34  2  0
 34 35  1  0
  6 36  1  0
 36 37  1  0
 37  3  1  0
 34  7  1  0
 31 15  1  0
 29 22  1  0
  1 38  1  0
  1 39  1  0
  1 40  1  0
  2 41  1  0
  2 42  1  0
  4 43  1  0
  4 44  1  0
  5 45  1  0
  5 46  1  0
  8 47  1  0
 14 48  1  0
 14 49  1  0
 16 50  1  0
 17 51  1  0
 21 52  1  0
 23 53  1  0
 25 54  1  0
 25 55  1  0
 25 56  1  0
 26 57  1  0
 28 58  1  0
 28 59  1  0
 28 60  1  0
 29 61  1  0
 30 62  1  0
 31 63  1  0
 32 64  1  0
 33 65  1  0
 36 66  1  0
 36 67  1  0
 37 68  1  0
 37 69  1  0
M  CHG  2  13  -1  35  -1
M  END
>  <UniqueID>  (33) 
32

>  <SMILES>  (33) 
CCN1CCN(c2cc(S(=O)(=O)[N-]Cc3ccc(C(=O)Nc4cc(C)cc(C)c4)cc3)ccc2[O-])CC1

>  <Energy>  (33) 
87.80692907416794

>  <Genealogy>  (33) 
CCN1CCN(c2cc(S(=O)(=O)[N-]Cc3ccc(C(=O)Nc4cc(C)cc(C)c4)cc3)ccc2[O-])CC1 (protonated)
CCN1CCN(c2cc(S(=O)(=O)[N-]Cc3ccc(C(=O)Nc4cc(C)cc(C)c4)cc3)ccc2[O-])CC1 (3D coordinates assigned)
CCN1CCN(c2cc(S(=O)(=O)[N-]Cc3ccc(C(=O)Nc4cc(C)cc(C)c4)cc3)ccc2[O-])CC1 (nonaromatic ring conformer: 87.80692907416794 kcal/mol)

>  <smiles>  (33) 
CCN1CCN(c2cc(S(=O)(=O)NCc3ccc(C(=O)Nc4cc(C)cc(C)c4)cc3)ccc2O)CC1

>  <score_type>  (33) 
oracle

>  <origin>  (33) 
adgpu

>  <m_score__min__energy>  (33) 
-12.85

>  <m_primary>  (33) 
energy

$$$$
33:0
     RDKit          3D

 43 45  0  0  0  0  0  0  0  0999 V2000
   -2.3620   20.2600  -27.7660 C   0  0  0  0  0  0  0  0  0  0  0  0
   -2.1600   21.6790  -28.2060 C   0  0  0  0  0  0  0  0  0  0  0  0
   -1.1690   22.4630  -27.5990 C   0  0  0  0  0  0  0  0  0  0  0  0
   -0.9890   23.7960  -27.9780 C   0  0  0  0  0  0  0  0  0  0  0  0
   -1.8020   24.3530  -28.9730 C   0  0  0  0  0  0  0  0  0  0  0  0
   -1.6100   25.6750  -29.3450 O   0  0  0  0  0  0  0  0  0  0  0  0
   -2.7960   23.5770  -29.5980 C   0  0  0  0  0  0  0  0  0  0  0  0
   -3.5940   24.1660  -30.6430 N   0  0  0  0  0  0  0  0  0  0  0  0
   -5.2470   24.6650  -30.4770 S   0  0  0  0  0  0  0  0  0  0  0  0
   -5.4480   25.9550  -31.2180 O   0  0  0  0  0  0  0  0  0  0  0  0
   -5.5530   24.8910  -29.0280 O   0  0  0  0  0  0  0  0  0  0  0  0
   -6.3190   23.4150  -31.1040 C   0  0  0  0  0  0  0  0  0  0  0  0
   -7.7030   23.6210  -31.1470 C   0  0  0  0  0  0  0  0  0  0  0  0
   -8.5410   22.6330  -31.6700 C   0  0  0  0  0  0  0  0  0  0  0  0
   -8.0070   21.4310  -32.1470 C   0  0  0  0  0  0  0  0  0  0  0  0
   -8.8570   20.4750  -32.6950 O   0  0  0  0  0  0  0  0  0  0  0  0
   -6.6190   21.2070  -32.0910 C   0  0  0  0  0  0  0  0  0  0  0  0
   -6.0520   19.9670  -32.5490 N   0  0  0  0  0  0  0  0  0  0  0  0
   -4.9490   19.9750  -33.5170 C   0  0  0  0  0  0  0  0  0  0  0  0
   -4.8110   18.6000  -34.1880 C   0  0  0  0  0  0  0  0  0  0  0  0
   -6.1380   18.0470  -34.5030 N   0  0  0  0  0  0  0  0  0  0  0  0
   -6.9400   17.7710  -33.2950 C   0  0  0  0  0  0  0  0  0  0  0  0
   -6.6000   18.6820  -32.0950 C   0  0  0  0  0  0  0  0  0  0  0  0
   -5.7820   22.2090  -31.5710 C   0  0  0  0  0  0  0  0  0  0  0  0
   -2.9670   22.2410  -29.2050 C   0  0  0  0  0  0  0  0  0  0  0  0
   -2.3685   20.2143  -26.6670 H   0  0  0  0  0  0  0  0  0  0  0  0
   -3.3220   19.8889  -28.1541 H   0  0  0  0  0  0  0  0  0  0  0  0
   -1.5437   19.6357  -28.1541 H   0  0  0  0  0  0  0  0  0  0  0  0
   -0.5285   22.0258  -26.8188 H   0  0  0  0  0  0  0  0  0  0  0  0
   -0.2108   24.4061  -27.4961 H   0  0  0  0  0  0  0  0  0  0  0  0
   -8.1309   24.5612  -30.7688 H   0  0  0  0  0  0  0  0  0  0  0  0
   -9.6274   22.8012  -31.7070 H   0  0  0  0  0  0  0  0  0  0  0  0
   -5.1487   20.7349  -34.2868 H   0  0  0  0  0  0  0  0  0  0  0  0
   -4.0132   20.2077  -32.9876 H   0  0  0  0  0  0  0  0  0  0  0  0
   -4.2329   18.7069  -35.1177 H   0  0  0  0  0  0  0  0  0  0  0  0
   -4.2944   17.9166  -33.4980 H   0  0  0  0  0  0  0  0  0  0  0  0
   -6.6530   18.7390  -35.0990 H   0  0  0  0  0  0  0  0  0  0  0  0
   -8.0020   17.9103  -33.5453 H   0  0  0  0  0  0  0  0  0  0  0  0
   -6.7095   16.7402  -32.9880 H   0  0  0  0  0  0  0  0  0  0  0  0
   -7.5148   18.8665  -31.5128 H   0  0  0  0  0  0  0  0  0  0  0  0
   -5.8441   18.1778  -31.4750 H   0  0  0  0  0  0  0  0  0  0  0  0
   -4.6951   22.0444  -31.5305 H   0  0  0  0  0  0  0  0  0  0  0  0
   -3.7431   21.6277  -29.6862 H   0  0  0  0  0  0  0  0  0  0  0  0
  1  2  1  0
  2  3  2  0
  3  4  1  0
  4  5  2  0
  5  6  1  0
  5  7  1  0
  7  8  1  0
  8  9  1  0
  9 10  2  0
  9 11  2  0
  9 12  1  0
 12 13  2  0
 13 14  1  0
 14 15  2  0
 15 16  1  0
 15 17  1  0
 17 18  1  0
 18 19  1  0
 19 20  1  0
 20 21  1  0
 21 22  1  0
 22 23  1  0
 17 24  2  0
  7 25  2  0
 25  2  1  0
 24 12  1  0
 23 18  1  0
  1 26  1  0
  1 27  1  0
  1 28  1  0
  3 29  1  0
  4 30  1  0
 13 31  1  0
 14 32  1  0
 19 33  1  0
 19 34  1  0
 20 35  1  0
 20 36  1  0
 21 37  1  0
 22 38  1  0
 22 39  1  0
 23 40  1  0
 23 41  1  0
 24 42  1  0
 25 43  1  0
M  CHG  3   6  -1   8  -1  16  -1
M  END
>  <UniqueID>  (34) 
33

>  <SMILES>  (34) 
Cc1ccc([O-])c([N-]S(=O)(=O)c2ccc([O-])c(N3CCNCC3)c2)c1

>  <Energy>  (34) 
56.74495050451468

>  <Genealogy>  (34) 
Cc1ccc([O-])c([N-]S(=O)(=O)c2ccc([O-])c(N3CCNCC3)c2)c1 (protonated)
Cc1ccc([O-])c([N-]S(=O)(=O)c2ccc([O-])c(N3CCNCC3)c2)c1 (3D coordinates assigned)
Cc1ccc([O-])c([N-]S(=O)(=O)c2ccc([O-])c(N3CCNCC3)c2)c1 (nonaromatic ring conformer: 56.74495050451468 kcal/mol)

>  <smiles>  (34) 
Cc1ccc(O)c(NS(=O)(=O)c2ccc(O)c(N3CCNCC3)c2)c1

>  <score_type>  (34) 
oracle

>  <origin>  (34) 
adgpu

>  <m_score__min__energy>  (34) 
-13.42

>  <m_primary>  (34) 
energy

$$$$
34:0
     RDKit          3D

 32 33  0  0  0  0  0  0  0  0999 V2000
   -5.5420   25.7180  -30.4840 C   0  0  0  0  0  0  0  0  0  0  0  0
   -4.1820   25.4630  -30.8150 O   0  0  0  0  0  0  0  0  0  0  0  0
   -3.4830   24.2980  -30.4610 C   0  0  0  0  0  0  0  0  0  0  0  0
   -3.8580   23.0250  -30.9330 C   0  0  0  0  0  0  0  0  0  0  0  0
   -3.1360   21.8830  -30.5540 C   0  0  0  0  0  0  0  0  0  0  0  0
   -3.5050   20.5320  -31.1120 C   0  0  0  0  0  0  0  0  0  0  0  0
   -3.2060   20.4370  -32.6150 C   0  0  0  0  0  0  0  0  0  0  0  0
   -1.7270   20.5150  -32.8960 C   0  0  0  0  0  0  0  0  0  0  0  0
   -1.2340   21.4330  -33.8380 C   0  0  0  0  0  0  0  0  0  0  0  0
    0.1320   21.4700  -34.1380 C   0  0  0  0  0  0  0  0  0  0  0  0
    0.6140   22.3830  -35.0690 O   0  0  0  0  0  0  0  0  0  0  0  0
    1.0120   20.5860  -33.5060 C   0  0  0  0  0  0  0  0  0  0  0  0
    0.5280   19.6630  -32.5740 C   0  0  0  0  0  0  0  0  0  0  0  0
    1.4010   18.7780  -31.9540 O   0  0  0  0  0  0  0  0  0  0  0  0
   -0.8370   19.6250  -32.2700 C   0  0  0  0  0  0  0  0  0  0  0  0
   -2.0240   22.0190  -29.7090 C   0  0  0  0  0  0  0  0  0  0  0  0
   -1.6440   23.2790  -29.2390 C   0  0  0  0  0  0  0  0  0  0  0  0
   -0.1140   23.4300  -28.1010 Br  0  0  0  0  0  0  0  0  0  0  0  0
   -2.3730   24.4150  -29.6130 C   0  0  0  0  0  0  0  0  0  0  0  0
   -1.9940   25.6690  -29.1430 O   0  0  0  0  0  0  0  0  0  0  0  0
   -5.6553   25.7393  -29.3901 H   0  0  0  0  0  0  0  0  0  0  0  0
   -5.8456   26.6887  -30.9030 H   0  0  0  0  0  0  0  0  0  0  0  0
   -6.1766   24.9232  -30.9030 H   0  0  0  0  0  0  0  0  0  0  0  0
   -4.7238   22.9252  -31.6041 H   0  0  0  0  0  0  0  0  0  0  0  0
   -2.9277   19.7586  -30.5842 H   0  0  0  0  0  0  0  0  0  0  0  0
   -4.5855   20.3850  -30.9675 H   0  0  0  0  0  0  0  0  0  0  0  0
   -3.5909   19.4792  -32.9951 H   0  0  0  0  0  0  0  0  0  0  0  0
   -3.6951   21.2855  -33.1159 H   0  0  0  0  0  0  0  0  0  0  0  0
   -1.9246   22.1254  -34.3417 H   0  0  0  0  0  0  0  0  0  0  0  0
    2.0859   20.6168  -33.7423 H   0  0  0  0  0  0  0  0  0  0  0  0
   -1.2153   18.8959  -31.5383 H   0  0  0  0  0  0  0  0  0  0  0  0
   -1.4483   21.1290  -29.4150 H   0  0  0  0  0  0  0  0  0  0  0  0
  1  2  1  0
  2  3  1  0
  3  4  2  0
  4  5  1  0
  5  6  1  0
  6  7  1  0
  7  8  1  0
  8  9  2  0
  9 10  1  0
 10 11  1  0
 10 12  2  0
 12 13  1  0
 13 14  1  0
 13 15  2  0
  5 16  2  0
 16 17  1  0
 17 18  1  0
 17 19  2  0
 19 20  1  0
 19  3  1  0
 15  8  1  0
  1 21  1  0
  1 22  1  0
  1 23  1  0
  4 24  1  0
  6 25  1  0
  6 26  1  0
  7 27  1  0
  7 28  1  0
  9 29  1  0
 12 30  1  0
 15 31  1  0
 16 32  1  0
M  CHG  3  11  -1  14  -1  20  -1
M  END
>  <UniqueID>  (35) 
34

>  <SMILES>  (35) 
COc1cc(CCc2cc([O-])cc([O-])c2)cc(Br)c1[O-]

>  <Energy>  (35) 
28.301145117248296

>  <Genealogy>  (35) 
COc1cc(CCc2cc([O-])cc([O-])c2)cc(Br)c1[O-] (protonated)
COc1cc(CCc2cc([O-])cc([O-])c2)cc(Br)c1[O-] (3D coordinates assigned)
COc1cc(CCc2cc([O-])cc([O-])c2)cc(Br)c1[O-] (optimized conformer: 28.301145117248296 kcal/mol)

>  <smiles>  (35) 
COc1cc(CCc2cc(O)cc(O)c2)cc(Br)c1O

>  <score_type>  (35) 
oracle

>  <origin>  (35) 
adgpu

>  <m_score__min__energy>  (35) 
-10.27

>  <m_primary>  (35) 
energy

$$$$
35:0
     RDKit          3D

 65 68  0  0  0  0  0  0  0  0999 V2000
    1.0130   27.9830  -23.0270 C   0  0  0  0  0  0  0  0  0  0  0  0
   -0.0840   27.6470  -24.0580 C   0  0  0  0  0  0  0  0  0  0  0  0
    0.4960   27.5900  -25.4900 C   0  0  0  0  0  0  0  0  0  0  0  0
   -0.4920   26.9060  -26.4510 C   0  0  0  0  0  0  0  0  0  0  0  0
   -0.8560   25.5280  -26.0340 N   0  0  0  0  0  0  0  0  0  0  0  0
   -0.2130   24.3110  -27.1160 S   0  0  0  0  0  0  0  0  0  0  0  0
    0.6290   24.9850  -28.1660 O   0  0  0  0  0  0  0  0  0  0  0  0
    0.6730   23.3610  -26.3530 O   0  0  0  0  0  0  0  0  0  0  0  0
   -1.5050   23.3910  -27.8870 C   0  0  0  0  0  0  0  0  0  0  0  0
   -2.0960   22.3020  -27.2290 C   0  0  0  0  0  0  0  0  0  0  0  0
   -3.1070   21.5700  -27.8570 C   0  0  0  0  0  0  0  0  0  0  0  0
   -3.5120   21.9010  -29.1550 C   0  0  0  0  0  0  0  0  0  0  0  0
   -2.9030   22.9610  -29.8370 C   0  0  0  0  0  0  0  0  0  0  0  0
   -3.2990   23.2350  -31.1930 N   0  0  0  0  0  0  0  0  0  0  0  0
   -4.0680   22.3530  -32.0150 C   0  0  0  0  0  0  0  0  0  0  0  0
   -3.4930   21.5160  -32.7630 O   0  0  0  0  0  0  0  0  0  0  0  0
   -5.5290   22.3030  -31.8710 C   0  0  0  0  0  0  0  0  0  0  0  0
   -6.2030   21.0770  -31.9910 C   0  0  0  0  0  0  0  0  0  0  0  0
   -7.6040   21.0280  -32.0050 C   0  0  0  0  0  0  0  0  0  0  0  0
   -8.4310   19.4740  -32.1980 S   0  0  0  0  0  0  0  0  0  0  0  0
   -8.9580   19.0500  -30.8550 O   0  0  0  0  0  0  0  0  0  0  0  0
   -9.6100   19.6410  -33.1140 O   0  0  0  0  0  0  0  0  0  0  0  0
   -7.3970   18.2190  -32.8630 N   0  0  0  0  0  0  0  0  0  0  0  0
   -6.7040   17.4670  -31.7940 C   0  0  0  0  0  0  0  0  0  0  0  0
   -5.4550   16.7190  -32.2940 C   0  0  0  0  0  0  0  0  0  0  0  0
   -5.6130   16.3410  -33.7680 C   0  0  0  0  0  0  0  0  0  0  0  0
   -5.8000   17.5960  -34.6430 C   0  0  0  0  0  0  0  0  0  0  0  0
   -6.4660   18.7540  -33.8740 C   0  0  0  0  0  0  0  0  0  0  0  0
   -8.3320   22.2190  -31.8390 C   0  0  0  0  0  0  0  0  0  0  0  0
   -7.6660   23.4400  -31.6760 C   0  0  0  0  0  0  0  0  0  0  0  0
   -6.2660   23.4900  -31.6990 C   0  0  0  0  0  0  0  0  0  0  0  0
   -5.6020   24.7100  -31.5440 O   0  0  0  0  0  0  0  0  0  0  0  0
   -1.9350   23.7380  -29.1780 C   0  0  0  0  0  0  0  0  0  0  0  0
   -0.5260   25.1890  -24.6300 C   0  0  0  0  0  0  0  0  0  0  0  0
   -0.8580   26.3500  -23.6880 C   0  0  0  0  0  0  0  0  0  0  0  0
    0.6110   27.8599  -22.0105 H   0  0  0  0  0  0  0  0  0  0  0  0
    1.8682   27.3056  -23.1676 H   0  0  0  0  0  0  0  0  0  0  0  0
    1.3421   29.0231  -23.1676 H   0  0  0  0  0  0  0  0  0  0  0  0
   -0.8202   28.4639  -24.0331 H   0  0  0  0  0  0  0  0  0  0  0  0
    0.6911   28.6139  -25.8414 H   0  0  0  0  0  0  0  0  0  0  0  0
    1.4295   27.0085  -25.4702 H   0  0  0  0  0  0  0  0  0  0  0  0
   -1.4096   27.5109  -26.4976 H   0  0  0  0  0  0  0  0  0  0  0  0
    0.0039   26.8306  -27.4300 H   0  0  0  0  0  0  0  0  0  0  0  0
   -1.7633   22.0242  -26.2180 H   0  0  0  0  0  0  0  0  0  0  0  0
   -3.5857   20.7316  -27.3299 H   0  0  0  0  0  0  0  0  0  0  0  0
   -4.3130   21.3253  -29.6418 H   0  0  0  0  0  0  0  0  0  0  0  0
   -5.6253   20.1447  -32.0749 H   0  0  0  0  0  0  0  0  0  0  0  0
   -6.3975   18.1752  -31.0101 H   0  0  0  0  0  0  0  0  0  0  0  0
   -7.4084   16.7121  -31.4146 H   0  0  0  0  0  0  0  0  0  0  0  0
   -4.5740   17.3675  -32.1787 H   0  0  0  0  0  0  0  0  0  0  0  0
   -5.3289   15.8005  -31.7020 H   0  0  0  0  0  0  0  0  0  0  0  0
   -4.7132   15.8021  -34.0996 H   0  0  0  0  0  0  0  0  0  0  0  0
   -6.5040   15.7046  -33.8731 H   0  0  0  0  0  0  0  0  0  0  0  0
   -4.8138   17.9290  -34.9986 H   0  0  0  0  0  0  0  0  0  0  0  0
   -6.4600   17.3259  -35.4805 H   0  0  0  0  0  0  0  0  0  0  0  0
   -5.6905   19.3529  -33.3742 H   0  0  0  0  0  0  0  0  0  0  0  0
   -7.0249   19.3833  -34.5822 H   0  0  0  0  0  0  0  0  0  0  0  0
   -9.4317   22.1917  -31.8371 H   0  0  0  0  0  0  0  0  0  0  0  0
   -8.2446   24.3640  -31.5293 H   0  0  0  0  0  0  0  0  0  0  0  0
   -4.5910   24.7730  -31.5980 H   0  0  0  0  0  0  0  0  0  0  0  0
   -1.5119   24.6228  -29.6761 H   0  0  0  0  0  0  0  0  0  0  0  0
   -1.1065   24.3047  -24.3283 H   0  0  0  0  0  0  0  0  0  0  0  0
    0.5529   24.9849  -24.5650 H   0  0  0  0  0  0  0  0  0  0  0  0
   -1.9375   26.5537  -23.7437 H   0  0  0  0  0  0  0  0  0  0  0  0
   -0.5578   26.0562  -22.6714 H   0  0  0  0  0  0  0  0  0  0  0  0
  1  2  1  0
  2  3  1  0
  3  4  1  0
  4  5  1  0
  5  6  1  0
  6  7  2  0
  6  8  2  0
  6  9  1  0
  9 10  2  0
 10 11  1  0
 11 12  2  0
 12 13  1  0
 13 14  1  0
 14 15  1  0
 15 16  2  0
 15 17  1  0
 17 18  2  0
 18 19  1  0
 19 20  1  0
 20 21  2  0
 20 22  2  0
 20 23  1  0
 23 24  1  0
 24 25  1  0
 25 26  1  0
 26 27  1  0
 27 28  1  0
 19 29  2  0
 29 30  1  0
 30 31  2  0
 31 32  1  0
 13 33  2  0
  5 34  1  0
 34 35  1  0
 35  2  1  0
 33  9  1  0
 31 17  1  0
 28 23  1  0
  1 36  1  0
  1 37  1  0
  1 38  1  0
  2 39  1  0
  3 40  1  0
  3 41  1  0
  4 42  1  0
  4 43  1  0
 10 44  1  0
 11 45  1  0
 12 46  1  0
 18 47  1  0
 24 48  1  0
 24 49  1  0
 25 50  1  0
 25 51  1  0
 26 52  1  0
 26 53  1  0
 27 54  1  0
 27 55  1  0
 28 56  1  0
 28 57  1  0
 29 58  1  0
 30 59  1  0
 32 60  1  0
 33 61  1  0
 34 62  1  0
 34 63  1  0
 35 64  1  0
 35 65  1  0
M  CHG  1  14  -1
M  END
>  <UniqueID>  (36) 
35

>  <SMILES>  (36) 
CC1CCN(S(=O)(=O)c2cccc([N-]C(=O)c3cc(S(=O)(=O)N4CCCCC4)ccc3O)c2)CC1

>  <Energy>  (36) 
85.16082669943671

>  <Genealogy>  (36) 
CC1CCN(S(=O)(=O)c2cccc([N-]C(=O)c3cc(S(=O)(=O)N4CCCCC4)ccc3O)c2)CC1 (protonated)
CC1CCN(S(=O)(=O)c2cccc([N-]C(=O)c3cc(S(=O)(=O)N4CCCCC4)ccc3O)c2)CC1 (3D coordinates assigned)
CC1CCN(S(=O)(=O)c2cccc([N-]C(=O)c3cc(S(=O)(=O)N4CCCCC4)ccc3O)c2)CC1 (nonaromatic ring conformer: 85.16082669943671 kcal/mol)

>  <smiles>  (36) 
CC1CCN(S(=O)(=O)c2cccc(NC(=O)c3cc(S(=O)(=O)N4CCCCC4)ccc3O)c2)CC1

>  <score_type>  (36) 
oracle

>  <origin>  (36) 
adgpu

>  <m_score__min__energy>  (36) 
-11.98

>  <m_primary>  (36) 
energy

$$$$
36:0
     RDKit          3D

 68 72  0  0  0  0  0  0  0  0999 V2000
   -1.6554   22.1997  -33.2977 H   0  0  0  0  0  0  0  0  0  0  0  0
   -2.4740   21.7560  -32.7120 C   0  0  0  0  0  0  0  0  0  0  0  0
   -3.7980   21.9210  -33.1300 C   0  0  0  0  0  0  0  0  0  0  0  0
   -4.0155   22.4944  -34.0432 H   0  0  0  0  0  0  0  0  0  0  0  0
   -4.8520   21.3590  -32.3910 C   0  0  0  0  0  0  0  0  0  0  0  0
   -6.2740   21.5460  -32.8460 C   0  0  0  0  0  0  0  0  0  0  0  0
   -6.3251   22.4063  -33.5295 H   0  0  0  0  0  0  0  0  0  0  0  0
   -6.6058   20.6323  -33.3608 H   0  0  0  0  0  0  0  0  0  0  0  0
   -7.1530   21.7890  -31.6980 N   0  0  0  0  0  0  0  0  0  0  0  0
   -8.3390   21.2080  -31.4180 C   0  0  0  0  0  0  0  0  0  0  0  0
   -9.0930   19.8800  -32.3640 S   0  0  0  0  0  0  0  0  0  0  0  0
   -8.2790   18.5460  -31.4170 C   0  0  0  0  0  0  0  0  0  0  0  0
   -7.9449   18.9441  -30.4475 H   0  0  0  0  0  0  0  0  0  0  0  0
   -9.0003   17.7290  -31.2674 H   0  0  0  0  0  0  0  0  0  0  0  0
   -7.0910   18.0090  -32.1650 C   0  0  0  0  0  0  0  0  0  0  0  0
   -6.8350   18.4390  -33.4750 C   0  0  0  0  0  0  0  0  0  0  0  0
   -7.5133   19.1585  -33.9569 H   0  0  0  0  0  0  0  0  0  0  0  0
   -5.7240   17.9590  -34.1710 C   0  0  0  0  0  0  0  0  0  0  0  0
   -5.5220   18.3147  -35.1921 H   0  0  0  0  0  0  0  0  0  0  0  0
   -4.8640   17.0250  -33.5740 C   0  0  0  0  0  0  0  0  0  0  0  0
   -3.7170   16.5000  -34.3390 C   0  0  0  0  0  0  0  0  0  0  0  0
   -3.8290   15.3570  -34.8600 O   0  0  0  0  0  0  0  0  0  0  0  0
   -2.4680   17.2260  -34.4510 N   0  0  0  0  0  0  0  0  0  0  0  0
   -1.4300   16.7750  -35.3880 C   0  0  0  0  0  0  0  0  0  0  0  0
   -1.5699   15.7051  -35.6019 H   0  0  0  0  0  0  0  0  0  0  0  0
   -1.5065   17.3507  -36.3222 H   0  0  0  0  0  0  0  0  0  0  0  0
   -0.0470   16.9940  -34.7680 C   0  0  0  0  0  0  0  0  0  0  0  0
    0.0675   16.3323  -33.8968 H   0  0  0  0  0  0  0  0  0  0  0  0
    0.7201   16.7657  -35.5226 H   0  0  0  0  0  0  0  0  0  0  0  0
    0.1060   18.3390  -34.3540 O   0  0  0  0  0  0  0  0  0  0  0  0
   -0.7980   18.6190  -33.3010 C   0  0  0  0  0  0  0  0  0  0  0  0
   -0.6353   17.8979  -32.4864 H   0  0  0  0  0  0  0  0  0  0  0  0
   -0.6183   19.6458  -32.9497 H   0  0  0  0  0  0  0  0  0  0  0  0
   -2.2500   18.5150  -33.7790 C   0  0  0  0  0  0  0  0  0  0  0  0
   -2.9246   18.5932  -32.9137 H   0  0  0  0  0  0  0  0  0  0  0  0
   -2.4556   19.3306  -34.4879 H   0  0  0  0  0  0  0  0  0  0  0  0
   -5.1030   16.6110  -32.2550 C   0  0  0  0  0  0  0  0  0  0  0  0
   -4.4173   15.9004  -31.7704 H   0  0  0  0  0  0  0  0  0  0  0  0
   -6.2100   17.0990  -31.5550 C   0  0  0  0  0  0  0  0  0  0  0  0
   -6.3928   16.7694  -30.5216 H   0  0  0  0  0  0  0  0  0  0  0  0
   -8.9070   21.7440  -30.3240 N   0  0  0  0  0  0  0  0  0  0  0  0
   -8.0850   22.6850  -29.8850 N   0  0  0  0  0  0  0  0  0  0  0  0
   -7.0200   22.7030  -30.7120 C   0  0  0  0  0  0  0  0  0  0  0  0
   -5.8910   23.6900  -30.5910 C   0  0  0  0  0  0  0  0  0  0  0  0
   -5.3151   23.6953  -31.5282 H   0  0  0  0  0  0  0  0  0  0  0  0
   -6.3141   24.6862  -30.3949 H   0  0  0  0  0  0  0  0  0  0  0  0
   -5.0030   23.3330  -29.4850 N   0  0  0  0  0  0  0  0  0  0  0  0
   -3.8700   23.9200  -29.2310 C   0  0  0  0  0  0  0  0  0  0  0  0
   -3.3510   24.9290  -29.9590 N   0  0  0  0  0  0  0  0  0  0  0  0
   -2.2260   25.2930  -29.3640 N   0  0  0  0  0  0  0  0  0  0  0  0
   -1.6150   26.0730  -29.6940 H   0  0  0  0  0  0  0  0  0  0  0  0
   -2.0230   24.5230  -28.2760 C   0  0  0  0  0  0  0  0  0  0  0  0
   -0.9200   24.7260  -27.2900 C   0  0  0  0  0  0  0  0  0  0  0  0
   -1.3226   24.6519  -26.2690 H   0  0  0  0  0  0  0  0  0  0  0  0
   -0.1499   23.9545  -27.4373 H   0  0  0  0  0  0  0  0  0  0  0  0
   -0.4750   25.7211  -27.4373 H   0  0  0  0  0  0  0  0  0  0  0  0
   -3.0660   23.6260  -28.1500 C   0  0  0  0  0  0  0  0  0  0  0  0
   -3.2184   22.8613  -27.3741 H   0  0  0  0  0  0  0  0  0  0  0  0
   -4.5620   20.6340  -31.2250 C   0  0  0  0  0  0  0  0  0  0  0  0
   -5.3804   20.1942  -30.6361 H   0  0  0  0  0  0  0  0  0  0  0  0
   -3.2370   20.4680  -30.8080 C   0  0  0  0  0  0  0  0  0  0  0  0
   -3.0207   19.8956  -29.8939 H   0  0  0  0  0  0  0  0  0  0  0  0
   -2.1840   21.0240  -31.5440 C   0  0  0  0  0  0  0  0  0  0  0  0
   -0.8730   20.8270  -31.0840 O   0  0  0  0  0  0  0  0  0  0  0  0
   -0.4510   21.0600  -29.7450 C   0  0  0  0  0  0  0  0  0  0  0  0
   -1.1965   20.6484  -29.0487 H   0  0  0  0  0  0  0  0  0  0  0  0
    0.5190   20.5696  -29.5757 H   0  0  0  0  0  0  0  0  0  0  0  0
   -0.3493   22.1421  -29.5757 H   0  0  0  0  0  0  0  0  0  0  0  0
  1  2  1  0
  2  3  2  0
  3  4  1  0
  3  5  1  0
  5  6  1  0
  6  7  1  0
  6  8  1  0
  6  9  1  0
  9 10  1  0
 10 11  1  0
 11 12  1  0
 12 13  1  0
 12 14  1  0
 12 15  1  0
 15 16  2  0
 16 17  1  0
 16 18  1  0
 18 19  1  0
 18 20  2  0
 20 21  1  0
 21 22  2  0
 21 23  1  0
 23 24  1  0
 24 25  1  0
 24 26  1  0
 24 27  1  0
 27 28  1  0
 27 29  1  0
 27 30  1  0
 30 31  1  0
 31 32  1  0
 31 33  1  0
 31 34  1  0
 34 35  1  0
 34 36  1  0
 20 37  1  0
 37 38  1  0
 37 39  2  0
 39 40  1  0
 10 41  2  0
 41 42  1  0
 42 43  2  0
 43 44  1  0
 44 45  1  0
 44 46  1  0
 44 47  1  0
 47 48  2  0
 48 49  1  0
 49 50  1  0
 50 51  1  0
 50 52  1  0
 52 53  1  0
 53 54  1  0
 53 55  1  0
 53 56  1  0
 52 57  2  0
 57 58  1  0
  5 59  2  0
 59 60  1  0
 59 61  1  0
 61 62  1  0
 61 63  2  0
 63 64  1  0
 64 65  1  0
 65 66  1  0
 65 67  1  0
 65 68  1  0
 63  2  1  0
 43  9  1  0
 57 48  1  0
 39 15  1  0
 34 23  1  0
M  CHG  1  49  -1
M  END
>  <UniqueID>  (37) 
36

>  <SMILES>  (37) 
COc1ccc(Cn2c(C/N=c3/cc(C)[nH][n-]3)nnc2SCc2ccc(C(=O)N3CCOCC3)cc2)cc1

>  <Energy>  (37) 
136.01973279039382

>  <Genealogy>  (37) 
COc1ccc(Cn2c(CN=c3cc(C)[nH][n-]3)nnc2SCc2ccc(C(=O)N3CCOCC3)cc2)cc1 (protonated)
COc1ccc(Cn2c(C/N=c3/cc(C)[nH][n-]3)nnc2SCc2ccc(C(=O)N3CCOCC3)cc2)cc1 (cis-trans isomerization)
COc1ccc(Cn2c(C/N=c3/cc(C)[nH][n-]3)nnc2SCc2ccc(C(=O)N3CCOCC3)cc2)cc1 (3D coordinates assigned)
COc1ccc(Cn2c(C/N=c3/cc(C)[nH][n-]3)nnc2SCc2ccc(C(=O)N3CCOCC3)cc2)cc1 (nonaromatic ring conformer: 136.01973279039382 kcal/mol)

>  <smiles>  (37) 
COc1ccc(Cn2c(CN=c3cc(C)[nH][nH]3)nnc2SCc2ccc(C(=O)N3CCOCC3)cc2)cc1

>  <score_type>  (37) 
oracle

>  <origin>  (37) 
adgpu

>  <m_score__min__energy>  (37) 
-10.960000000000001

>  <m_primary>  (37) 
energy

$$$$
37:0
     RDKit          3D

 59 64  0  0  0  0  0  0  0  0999 V2000
   -4.0450   21.1860  -33.4980 O   0  0  0  0  0  0  0  0  0  0  0  0
   -4.8640   20.2320  -33.4450 C   0  0  0  0  0  0  0  0  0  0  0  0
   -4.6280   18.9800  -34.0430 N   0  0  0  0  0  0  0  0  0  0  0  0
   -5.7380   18.1030  -33.7060 C   0  0  0  0  0  0  0  0  0  0  0  0
   -6.6980   18.9500  -32.8290 C   0  0  0  0  0  0  0  0  0  0  0  0
   -6.0790   20.2700  -32.7250 N   0  0  0  0  0  0  0  0  0  0  0  0
   -6.7210   21.4390  -32.1810 C   0  0  0  0  0  0  0  0  0  0  0  0
   -8.1030   21.6310  -32.3480 C   0  0  0  0  0  0  0  0  0  0  0  0
   -8.7250   22.7750  -31.8400 C   0  0  0  0  0  0  0  0  0  0  0  0
   -7.9770   23.7430  -31.1690 C   0  0  0  0  0  0  0  0  0  0  0  0
   -6.5970   23.5710  -31.0020 C   0  0  0  0  0  0  0  0  0  0  0  0
   -5.6350   24.8340  -30.2520 S   0  0  0  0  0  0  0  0  0  0  0  0
   -4.9240   25.6430  -31.3010 O   0  0  0  0  0  0  0  0  0  0  0  0
   -6.5340   25.7530  -29.4690 O   0  0  0  0  0  0  0  0  0  0  0  0
   -4.5020   24.0890  -29.1800 N   0  0  0  0  0  0  0  0  0  0  0  0
   -3.3390   23.4160  -29.6620 C   0  0  0  0  0  0  0  0  0  0  0  0
   -3.4220   22.0970  -30.1440 C   0  0  0  0  0  0  0  0  0  0  0  0
   -2.2760   21.4390  -30.6190 C   0  0  0  0  0  0  0  0  0  0  0  0
   -1.0220   22.0900  -30.5500 C   0  0  0  0  0  0  0  0  0  0  0  0
   -0.9490   23.4160  -30.0850 C   0  0  0  0  0  0  0  0  0  0  0  0
   -2.1020   24.0770  -29.6480 C   0  0  0  0  0  0  0  0  0  0  0  0
   -2.0090   25.3870  -29.1810 O   0  0  0  0  0  0  0  0  0  0  0  0
    0.2250   21.4050  -31.0470 C   0  0  0  0  0  0  0  0  0  0  0  0
    0.0490   19.9440  -31.1080 N   0  0  0  0  0  0  0  0  0  0  0  0
    1.2730   19.3120  -31.6280 C   0  0  0  0  0  0  0  0  0  0  0  0
    1.1710   17.8040  -31.4280 C   0  0  0  0  0  0  0  0  0  0  0  0
   -0.0810   17.2710  -32.0620 C   0  0  0  0  0  0  0  0  0  0  0  0
   -0.1560   15.9070  -32.3910 C   0  0  0  0  0  0  0  0  0  0  0  0
   -1.2980   15.3900  -33.0010 C   0  0  0  0  0  0  0  0  0  0  0  0
   -2.3770   16.2290  -33.2820 C   0  0  0  0  0  0  0  0  0  0  0  0
   -2.3260   17.5810  -32.9330 C   0  0  0  0  0  0  0  0  0  0  0  0
   -1.2010   18.1140  -32.2740 C   0  0  0  0  0  0  0  0  0  0  0  0
   -1.1420   19.6000  -31.9260 C   0  0  1  0  0  0  0  0  0  0  0  0
   -2.3970   20.0250  -31.1380 C   0  0  0  0  0  0  0  0  0  0  0  0
   -5.9730   22.4220  -31.5120 C   0  0  0  0  0  0  0  0  0  0  0  0
   -3.7720   18.7090  -34.5750 H   0  0  0  0  0  0  0  0  0  0  0  0
   -6.2506   17.7665  -34.6192 H   0  0  0  0  0  0  0  0  0  0  0  0
   -5.3947   17.2027  -33.1754 H   0  0  0  0  0  0  0  0  0  0  0  0
   -7.6862   19.0265  -33.3061 H   0  0  0  0  0  0  0  0  0  0  0  0
   -6.8514   18.4948  -31.8394 H   0  0  0  0  0  0  0  0  0  0  0  0
   -8.6991   20.8762  -32.8819 H   0  0  0  0  0  0  0  0  0  0  0  0
   -9.8086   22.9127  -31.9697 H   0  0  0  0  0  0  0  0  0  0  0  0
   -8.4712   24.6415  -30.7710 H   0  0  0  0  0  0  0  0  0  0  0  0
   -4.3915   21.5774  -30.1488 H   0  0  0  0  0  0  0  0  0  0  0  0
    0.0202   23.9359  -30.0650 H   0  0  0  0  0  0  0  0  0  0  0  0
    0.4614   21.7791  -32.0540 H   0  0  0  0  0  0  0  0  0  0  0  0
    1.0434   21.6256  -30.3459 H   0  0  0  0  0  0  0  0  0  0  0  0
    1.3782   19.5364  -32.6997 H   0  0  0  0  0  0  0  0  0  0  0  0
    2.1511   19.7013  -31.0919 H   0  0  0  0  0  0  0  0  0  0  0  0
    2.0443   17.3183  -31.8879 H   0  0  0  0  0  0  0  0  0  0  0  0
    1.1413   17.5903  -30.3494 H   0  0  0  0  0  0  0  0  0  0  0  0
    0.6916   15.2430  -32.1659 H   0  0  0  0  0  0  0  0  0  0  0  0
   -1.3484   14.3222  -33.2604 H   0  0  0  0  0  0  0  0  0  0  0  0
   -3.2707   15.8247  -33.7799 H   0  0  0  0  0  0  0  0  0  0  0  0
   -3.1748   18.2372  -33.1759 H   0  0  0  0  0  0  0  0  0  0  0  0
   -1.0836   20.1354  -32.8851 H   0  0  0  0  0  0  0  0  0  0  0  0
   -3.2728   19.9617  -31.8005 H   0  0  0  0  0  0  0  0  0  0  0  0
   -2.5066   19.3505  -30.2760 H   0  0  0  0  0  0  0  0  0  0  0  0
   -4.8882   22.2900  -31.3867 H   0  0  0  0  0  0  0  0  0  0  0  0
  1  2  2  0
  2  3  1  0
  3  4  1  0
  4  5  1  0
  5  6  1  0
  6  7  1  0
  7  8  2  0
  8  9  1  0
  9 10  2  0
 10 11  1  0
 11 12  1  0
 12 13  2  0
 12 14  2  0
 12 15  1  0
 15 16  1  0
 16 17  2  0
 17 18  1  0
 18 19  2  0
 19 20  1  0
 20 21  2  0
 21 22  1  0
 19 23  1  0
 23 24  1  0
 24 25  1  0
 25 26  1  0
 26 27  1  0
 27 28  2  0
 28 29  1  0
 29 30  2  0
 30 31  1  0
 31 32  2  0
 32 33  1  0
 33 34  1  0
 11 35  2  0
  6  2  1  0
 35  7  1  0
 21 16  1  0
 33 24  1  0
 34 18  1  0
 32 27  1  0
  3 36  1  0
  4 37  1  0
  4 38  1  0
  5 39  1  0
  5 40  1  0
  8 41  1  0
  9 42  1  0
 10 43  1  0
 17 44  1  0
 20 45  1  0
 23 46  1  0
 23 47  1  0
 25 48  1  0
 25 49  1  0
 26 50  1  0
 26 51  1  0
 28 52  1  0
 29 53  1  0
 30 54  1  0
 31 55  1  0
 33 56  1  6
 34 57  1  0
 34 58  1  0
 35 59  1  0
M  CHG  2  15  -1  22  -1
M  END
>  <UniqueID>  (38) 
37

>  <SMILES>  (38) 
O=C1NCCN1c1cccc(S(=O)(=O)[N-]c2cc3c(cc2[O-])CN2CCc4ccccc4[C@H]2C3)c1

>  <Energy>  (38) 
98.23853328587931

>  <Genealogy>  (38) 
O=C1NCCN1c1cccc(S(=O)(=O)[N-]c2cc3c(cc2[O-])CN2CCc4ccccc4C2C3)c1 (protonated)
O=C1NCCN1c1cccc(S(=O)(=O)[N-]c2cc3c(cc2[O-])CN2CCc4ccccc4[C@H]2C3)c1 (chirality)
O=C1NCCN1c1cccc(S(=O)(=O)[N-]c2cc3c(cc2[O-])CN2CCc4ccccc4[C@H]2C3)c1 (3D coordinates assigned)
O=C1NCCN1c1cccc(S(=O)(=O)[N-]c2cc3c(cc2[O-])CN2CCc4ccccc4[C@H]2C3)c1 (nonaromatic ring conformer: 98.23853328587931 kcal/mol)

>  <smiles>  (38) 
O=C1NCCN1c1cccc(S(=O)(=O)Nc2cc3c(cc2O)CN2CCc4ccccc4C2C3)c1

>  <score_type>  (38) 
oracle

>  <origin>  (38) 
adgpu

>  <m_score__min__energy>  (38) 
-13.789999999999999

>  <m_primary>  (38) 
energy

$$$$
38:0
     RDKit          3D

 63 67  0  0  0  0  0  0  0  0999 V2000
   -4.2640   25.6680  -30.7870 O   0  0  0  0  0  0  0  0  0  0  0  0
   -4.2570   24.4180  -30.6300 C   0  0  0  0  0  0  0  0  0  0  0  0
   -4.8160   23.5960  -31.6660 N   0  0  0  0  0  0  0  0  0  0  0  0
   -4.3410   22.3030  -32.0680 C   0  0  0  0  0  0  0  0  0  0  0  0
   -3.0190   21.9680  -32.2450 C   0  0  0  0  0  0  0  0  0  0  0  0
   -2.9610   20.6390  -32.4640 N   0  0  0  0  0  0  0  0  0  0  0  0
   -1.7460   19.8650  -32.6870 C   0  0  0  0  0  0  0  0  0  0  0  0
   -0.9800   19.7290  -31.4020 C   0  0  0  0  0  0  0  0  0  0  0  0
   -0.9010   20.8120  -30.5100 C   0  0  0  0  0  0  0  0  0  0  0  0
   -0.2120   20.6780  -29.3010 C   0  0  0  0  0  0  0  0  0  0  0  0
    0.3950   19.4620  -28.9700 C   0  0  0  0  0  0  0  0  0  0  0  0
    0.3080   18.3770  -29.8460 C   0  0  0  0  0  0  0  0  0  0  0  0
   -0.3840   18.5050  -31.0550 C   0  0  0  0  0  0  0  0  0  0  0  0
   -4.1790   20.1160  -32.4540 N   0  0  0  0  0  0  0  0  0  0  0  0
   -5.0530   21.1160  -32.2190 C   0  0  0  0  0  0  0  0  0  0  0  0
   -6.5100   20.9130  -32.1400 C   0  0  0  0  0  0  0  0  0  0  0  0
   -7.3290   21.9330  -31.6280 C   0  0  0  0  0  0  0  0  0  0  0  0
   -8.7160   21.7720  -31.5970 C   0  0  0  0  0  0  0  0  0  0  0  0
   -9.2940   20.5840  -32.0530 C   0  0  0  0  0  0  0  0  0  0  0  0
   -8.4860   19.5540  -32.5340 C   0  0  0  0  0  0  0  0  0  0  0  0
   -7.0970   19.7160  -32.5810 C   0  0  0  0  0  0  0  0  0  0  0  0
   -3.6710   23.8450  -29.3940 C   0  0  0  0  0  0  0  0  0  0  0  0
   -4.3890   22.8920  -28.6510 C   0  0  0  0  0  0  0  0  0  0  0  0
   -3.8120   22.2860  -27.5330 C   0  0  0  0  0  0  0  0  0  0  0  0
   -2.5170   22.6300  -27.1390 C   0  0  0  0  0  0  0  0  0  0  0  0
   -1.7960   23.5930  -27.8560 C   0  0  0  0  0  0  0  0  0  0  0  0
   -0.1460   23.9940  -27.3840 S   0  0  0  0  0  0  0  0  0  0  0  0
    0.5150   22.7510  -26.8620 O   0  0  0  0  0  0  0  0  0  0  0  0
    0.6220   24.4730  -28.5840 O   0  0  0  0  0  0  0  0  0  0  0  0
   -0.1460   25.2170  -26.1370 N   0  0  0  0  0  0  0  0  0  0  0  0
   -0.5420   24.6190  -24.8450 C   0  0  0  0  0  0  0  0  0  0  0  0
   -0.7240   25.6850  -23.7410 C   0  0  0  0  0  0  0  0  0  0  0  0
   -0.2840   27.0770  -24.2040 C   0  0  0  0  0  0  0  0  0  0  0  0
   -0.9910   27.4700  -25.5090 C   0  0  0  0  0  0  0  0  0  0  0  0
   -1.0730   26.3000  -26.5100 C   0  0  0  0  0  0  0  0  0  0  0  0
   -2.3860   24.2180  -28.9640 C   0  0  0  0  0  0  0  0  0  0  0  0
   -2.1638   22.6592  -32.2136 H   0  0  0  0  0  0  0  0  0  0  0  0
   -2.0142   18.8651  -33.0587 H   0  0  0  0  0  0  0  0  0  0  0  0
   -1.1191   20.3828  -33.4279 H   0  0  0  0  0  0  0  0  0  0  0  0
   -1.3826   21.7678  -30.7638 H   0  0  0  0  0  0  0  0  0  0  0  0
   -0.1471   21.5304  -28.6087 H   0  0  0  0  0  0  0  0  0  0  0  0
    0.9407   19.3600  -28.0203 H   0  0  0  0  0  0  0  0  0  0  0  0
    0.7844   17.4206  -29.5846 H   0  0  0  0  0  0  0  0  0  0  0  0
   -0.4617   17.6447  -31.7361 H   0  0  0  0  0  0  0  0  0  0  0  0
   -6.8764   22.8617  -31.2502 H   0  0  0  0  0  0  0  0  0  0  0  0
   -9.3544   22.5814  -31.2131 H   0  0  0  0  0  0  0  0  0  0  0  0
  -10.3869   20.4613  -32.0325 H   0  0  0  0  0  0  0  0  0  0  0  0
   -8.9412   18.6131  -32.8768 H   0  0  0  0  0  0  0  0  0  0  0  0
   -6.4629   18.9032  -32.9646 H   0  0  0  0  0  0  0  0  0  0  0  0
   -5.4119   22.6218  -28.9521 H   0  0  0  0  0  0  0  0  0  0  0  0
   -4.3786   21.5361  -26.9615 H   0  0  0  0  0  0  0  0  0  0  0  0
   -2.0623   22.1434  -26.2635 H   0  0  0  0  0  0  0  0  0  0  0  0
   -1.4926   24.0821  -24.9795 H   0  0  0  0  0  0  0  0  0  0  0  0
    0.2608   23.9372  -24.5277 H   0  0  0  0  0  0  0  0  0  0  0  0
   -1.7864   25.7248  -23.4585 H   0  0  0  0  0  0  0  0  0  0  0  0
   -0.0935   25.3979  -22.8866 H   0  0  0  0  0  0  0  0  0  0  0  0
   -0.5336   27.8114  -23.4240 H   0  0  0  0  0  0  0  0  0  0  0  0
    0.8011   27.0606  -24.3837 H   0  0  0  0  0  0  0  0  0  0  0  0
   -2.0120   27.8031  -25.2709 H   0  0  0  0  0  0  0  0  0  0  0  0
   -0.4039   28.2725  -25.9793 H   0  0  0  0  0  0  0  0  0  0  0  0
   -2.1001   25.9065  -26.5193 H   0  0  0  0  0  0  0  0  0  0  0  0
   -0.7926   26.6723  -27.5064 H   0  0  0  0  0  0  0  0  0  0  0  0
   -1.8386   25.0067  -29.5010 H   0  0  0  0  0  0  0  0  0  0  0  0
  1  2  2  0
  2  3  1  0
  3  4  1  0
  4  5  2  0
  5  6  1  0
  6  7  1  0
  7  8  1  0
  8  9  2  0
  9 10  1  0
 10 11  2  0
 11 12  1  0
 12 13  2  0
  6 14  1  0
 14 15  2  0
 15 16  1  0
 16 17  2  0
 17 18  1  0
 18 19  2  0
 19 20  1  0
 20 21  2  0
  2 22  1  0
 22 23  2  0
 23 24  1  0
 24 25  2  0
 25 26  1  0
 26 27  1  0
 27 28  2  0
 27 29  2  0
 27 30  1  0
 30 31  1  0
 31 32  1  0
 32 33  1  0
 33 34  1  0
 34 35  1  0
 26 36  2  0
 15  4  1  0
 21 16  1  0
 36 22  1  0
 13  8  1  0
 35 30  1  0
  5 37  1  0
  7 38  1  0
  7 39  1  0
  9 40  1  0
 10 41  1  0
 11 42  1  0
 12 43  1  0
 13 44  1  0
 17 45  1  0
 18 46  1  0
 19 47  1  0
 20 48  1  0
 21 49  1  0
 23 50  1  0
 24 51  1  0
 25 52  1  0
 31 53  1  0
 31 54  1  0
 32 55  1  0
 32 56  1  0
 33 57  1  0
 33 58  1  0
 34 59  1  0
 34 60  1  0
 35 61  1  0
 35 62  1  0
 36 63  1  0
M  CHG  1   3  -1
M  END
>  <UniqueID>  (39) 
38

>  <SMILES>  (39) 
O=C([N-]c1cn(Cc2ccccc2)nc1-c1ccccc1)c1cccc(S(=O)(=O)N2CCCCC2)c1

>  <Energy>  (39) 
108.37959740101688

>  <Genealogy>  (39) 
O=C([N-]c1cn(Cc2ccccc2)nc1-c1ccccc1)c1cccc(S(=O)(=O)N2CCCCC2)c1 (protonated)
O=C([N-]c1cn(Cc2ccccc2)nc1-c1ccccc1)c1cccc(S(=O)(=O)N2CCCCC2)c1 (3D coordinates assigned)
O=C([N-]c1cn(Cc2ccccc2)nc1-c1ccccc1)c1cccc(S(=O)(=O)N2CCCCC2)c1 (nonaromatic ring conformer: 108.37959740101688 kcal/mol)

>  <smiles>  (39) 
O=C(Nc1cn(Cc2ccccc2)nc1-c1ccccc1)c1cccc(S(=O)(=O)N2CCCCC2)c1

>  <score_type>  (39) 
oracle

>  <origin>  (39) 
adgpu

>  <m_score__min__energy>  (39) 
-12.19

>  <m_primary>  (39) 
energy

$$$$
39:0
     RDKit          3D

 32 34  0  0  0  0  0  0  0  0999 V2000
   -5.3290   18.9430  -34.5530 O   0  0  0  0  0  0  0  0  0  0  0  0
   -5.9020   19.5890  -33.6350 C   0  0  0  0  0  0  0  0  0  0  0  0
   -6.8350   18.8840  -32.6980 C   0  0  0  0  0  0  0  0  0  0  0  0
   -8.3150   19.9110  -32.4510 S   0  0  0  0  0  0  0  0  0  0  0  0
   -7.3920   21.2990  -31.7740 C   0  0  0  0  0  0  0  0  0  0  0  0
   -7.8790   21.9670  -30.6460 C   0  0  0  0  0  0  0  0  0  0  0  0
   -7.2280   23.1070  -30.1690 C   0  0  0  0  0  0  0  0  0  0  0  0
   -6.0830   23.5880  -30.8170 C   0  0  0  0  0  0  0  0  0  0  0  0
   -5.2860   25.0420  -30.2270 S   0  0  0  0  0  0  0  0  0  0  0  0
   -5.7340   26.2130  -31.0540 O   0  0  0  0  0  0  0  0  0  0  0  0
   -5.6370   25.2940  -28.7870 O   0  0  0  0  0  0  0  0  0  0  0  0
   -3.5650   24.8730  -30.3670 N   0  0  0  0  0  0  0  0  0  0  0  0
   -2.7290   24.1380  -29.4610 C   0  0  0  0  0  0  0  0  0  0  0  0
   -3.0380   22.8230  -29.0620 C   0  0  0  0  0  0  0  0  0  0  0  0
   -2.1940   22.1350  -28.1850 C   0  0  0  0  0  0  0  0  0  0  0  0
   -2.5820   20.4940  -27.7000 Cl  0  0  0  0  0  0  0  0  0  0  0  0
   -1.0390   22.7530  -27.6950 C   0  0  0  0  0  0  0  0  0  0  0  0
   -0.7290   24.0580  -28.0820 C   0  0  0  0  0  0  0  0  0  0  0  0
   -1.5690   24.7500  -28.9610 C   0  0  0  0  0  0  0  0  0  0  0  0
   -1.2460   26.0490  -29.3390 O   0  0  0  0  0  0  0  0  0  0  0  0
   -5.5740   22.9020  -31.9290 C   0  0  0  0  0  0  0  0  0  0  0  0
   -6.2140   21.7470  -32.4010 C   0  0  0  0  0  0  0  0  0  0  0  0
   -5.6200   20.9840  -33.4640 N   0  0  0  0  0  0  0  0  0  0  0  0
   -7.1266   17.9145  -33.1282 H   0  0  0  0  0  0  0  0  0  0  0  0
   -6.3348   18.7153  -31.7330 H   0  0  0  0  0  0  0  0  0  0  0  0
   -8.7774   21.5935  -30.1329 H   0  0  0  0  0  0  0  0  0  0  0  0
   -7.6157   23.6288  -29.2816 H   0  0  0  0  0  0  0  0  0  0  0  0
   -3.9476   22.3350  -29.4422 H   0  0  0  0  0  0  0  0  0  0  0  0
   -0.3753   22.2112  -27.0051 H   0  0  0  0  0  0  0  0  0  0  0  0
    0.1787   24.5437  -27.6945 H   0  0  0  0  0  0  0  0  0  0  0  0
   -4.6689   23.2714  -32.4332 H   0  0  0  0  0  0  0  0  0  0  0  0
   -4.8800   21.4210  -34.0590 H   0  0  0  0  0  0  0  0  0  0  0  0
  1  2  2  0
  2  3  1  0
  3  4  1  0
  4  5  1  0
  5  6  2  0
  6  7  1  0
  7  8  2  0
  8  9  1  0
  9 10  2  0
  9 11  2  0
  9 12  1  0
 12 13  1  0
 13 14  2  0
 14 15  1  0
 15 16  1  0
 15 17  2  0
 17 18  1  0
 18 19  2  0
 19 20  1  0
  8 21  1  0
 21 22  2  0
 22 23  1  0
 23  2  1  0
 22  5  1  0
 19 13  1  0
  3 24  1  0
  3 25  1  0
  6 26  1  0
  7 27  1  0
 14 28  1  0
 17 29  1  0
 18 30  1  0
 21 31  1  0
 23 32  1  0
M  CHG  2  12  -1  20  -1
M  END
>  <UniqueID>  (40) 
39

>  <SMILES>  (40) 
O=C1CSc2ccc(S(=O)(=O)[N-]c3cc(Cl)ccc3[O-])cc2N1

>  <Energy>  (40) 
40.9741806983414

>  <Genealogy>  (40) 
O=C1CSc2ccc(S(=O)(=O)[N-]c3cc(Cl)ccc3[O-])cc2N1 (protonated)
O=C1CSc2ccc(S(=O)(=O)[N-]c3cc(Cl)ccc3[O-])cc2N1 (3D coordinates assigned)
O=C1CSc2ccc(S(=O)(=O)[N-]c3cc(Cl)ccc3[O-])cc2N1 (nonaromatic ring conformer: 40.9741806983414 kcal/mol)

>  <smiles>  (40) 
O=C1CSc2ccc(S(=O)(=O)Nc3cc(Cl)ccc3O)cc2N1

>  <score_type>  (40) 
oracle

>  <origin>  (40) 
adgpu

>  <m_score__min__energy>  (40) 
-13.99

>  <m_primary>  (40) 
energy

$$$$
40:0
     RDKit          3D

 41 43  0  0  0  0  0  0  0  0999 V2000
   -9.6750   21.1190  -32.0310 C   0  0  0  0  0  0  0  0  0  0  0  0
   -8.5830   22.0010  -31.5040 C   0  0  0  0  0  0  0  0  0  0  0  0
   -7.9970   22.9600  -32.3420 C   0  0  0  0  0  0  0  0  0  0  0  0
   -6.9740   23.7820  -31.8630 C   0  0  0  0  0  0  0  0  0  0  0  0
   -6.5250   23.6540  -30.5420 C   0  0  0  0  0  0  0  0  0  0  0  0
   -5.2080   24.6720  -29.9580 S   0  0  0  0  0  0  0  0  0  0  0  0
   -4.5530   25.3860  -31.1070 O   0  0  0  0  0  0  0  0  0  0  0  0
   -5.8130   25.6970  -29.0390 O   0  0  0  0  0  0  0  0  0  0  0  0
   -3.9700   23.7370  -29.0910 C   0  0  0  0  0  0  0  0  0  0  0  0
   -3.4920   24.2570  -27.8760 C   0  0  0  0  0  0  0  0  0  0  0  0
   -2.5730   23.5460  -27.1040 C   0  0  0  0  0  0  0  0  0  0  0  0
   -2.1170   22.3030  -27.5310 C   0  0  0  0  0  0  0  0  0  0  0  0
   -2.5660   21.7730  -28.7420 C   0  0  0  0  0  0  0  0  0  0  0  0
   -3.4810   22.4800  -29.5450 C   0  0  0  0  0  0  0  0  0  0  0  0
   -3.8930   21.8600  -30.8260 C   0  0  0  0  0  0  0  0  0  0  0  0
   -3.8520   22.5500  -31.8820 O   0  0  0  0  0  0  0  0  0  0  0  0
   -4.4670   20.5430  -30.8420 N   0  0  0  0  0  0  0  0  0  0  0  0
   -5.3190   20.0320  -31.6890 C   0  0  0  0  0  0  0  0  0  0  0  0
   -5.7850   18.7320  -31.4520 C   0  0  0  0  0  0  0  0  0  0  0  0
   -6.6670   18.1320  -32.3530 C   0  0  0  0  0  0  0  0  0  0  0  0
   -7.0690   18.8010  -33.4660 N   0  0  0  0  0  0  0  0  0  0  0  0
   -6.6250   20.0570  -33.7340 C   0  0  0  0  0  0  0  0  0  0  0  0
   -5.7440   20.6970  -32.8580 C   0  0  0  0  0  0  0  0  0  0  0  0
   -7.1370   22.7250  -29.6910 C   0  0  0  0  0  0  0  0  0  0  0  0
   -8.1580   21.8990  -30.1690 C   0  0  0  0  0  0  0  0  0  0  0  0
  -10.2256   20.6743  -31.1890 H   0  0  0  0  0  0  0  0  0  0  0  0
  -10.3646   21.7165  -32.6453 H   0  0  0  0  0  0  0  0  0  0  0  0
   -9.2359   20.3191  -32.6453 H   0  0  0  0  0  0  0  0  0  0  0  0
   -8.3440   23.0656  -33.3805 H   0  0  0  0  0  0  0  0  0  0  0  0
   -6.5191   24.5329  -32.5258 H   0  0  0  0  0  0  0  0  0  0  0  0
   -3.8475   25.2384  -27.5289 H   0  0  0  0  0  0  0  0  0  0  0  0
   -2.2084   23.9688  -26.1562 H   0  0  0  0  0  0  0  0  0  0  0  0
   -1.4026   21.7377  -26.9144 H   0  0  0  0  0  0  0  0  0  0  0  0
   -2.2000   20.7900  -29.0731 H   0  0  0  0  0  0  0  0  0  0  0  0
   -5.4561   18.1843  -30.5565 H   0  0  0  0  0  0  0  0  0  0  0  0
   -7.0379   17.1143  -32.1615 H   0  0  0  0  0  0  0  0  0  0  0  0
   -7.7250   18.3360  -34.1330 H   0  0  0  0  0  0  0  0  0  0  0  0
   -6.9609   20.5729  -34.6456 H   0  0  0  0  0  0  0  0  0  0  0  0
   -5.3843   21.7128  -33.0788 H   0  0  0  0  0  0  0  0  0  0  0  0
   -6.8129   22.6453  -28.6429 H   0  0  0  0  0  0  0  0  0  0  0  0
   -8.6303   21.1667  -29.4977 H   0  0  0  0  0  0  0  0  0  0  0  0
  1  2  1  0
  2  3  2  0
  3  4  1  0
  4  5  2  0
  5  6  1  0
  6  7  2  0
  6  8  2  0
  6  9  1  0
  9 10  2  0
 10 11  1  0
 11 12  2  0
 12 13  1  0
 13 14  2  0
 14 15  1  0
 15 16  2  0
 15 17  1  0
 17 18  2  3
 18 19  1  0
 19 20  2  0
 20 21  1  0
 21 22  1  0
 22 23  2  0
  5 24  1  0
 24 25  2  0
 25  2  1  0
 14  9  1  0
 23 18  1  0
  1 26  1  0
  1 27  1  0
  1 28  1  0
  3 29  1  0
  4 30  1  0
 10 31  1  0
 11 32  1  0
 12 33  1  0
 13 34  1  0
 19 35  1  0
 20 36  1  0
 21 37  1  0
 22 38  1  0
 23 39  1  0
 24 40  1  0
 25 41  1  0
M  END
>  <UniqueID>  (41) 
40

>  <SMILES>  (41) 
Cc1ccc(S(=O)(=O)c2ccccc2C(=O)N=c2cc[nH]cc2)cc1

>  <Energy>  (41) 
55.20809581000318

>  <Genealogy>  (41) 
Cc1ccc(S(=O)(=O)c2ccccc2C(=O)N=c2cc[nH]cc2)cc1 (3D coordinates assigned)
Cc1ccc(S(=O)(=O)c2ccccc2C(=O)N=c2cc[nH]cc2)cc1 (optimized conformer: 55.20809581000318 kcal/mol)

>  <smiles>  (41) 
Cc1ccc(S(=O)(=O)c2ccccc2C(=O)N=c2cc[nH]cc2)cc1

>  <score_type>  (41) 
oracle

>  <origin>  (41) 
adgpu

>  <m_score__min__energy>  (41) 
-9.5600000000000005

>  <m_primary>  (41) 
energy

$$$$
41:0
     RDKit          3D

 52 54  0  0  0  0  0  0  0  0999 V2000
    1.0380   17.5530  -32.3740 C   0  0  0  0  0  0  0  0  0  0  0  0
    0.2980   18.5490  -33.1550 N   0  0  0  0  0  0  0  0  0  0  0  0
    0.9730   19.7490  -33.6570 C   0  0  0  0  0  0  0  0  0  0  0  0
   -1.1160   18.3820  -33.3720 C   0  0  0  0  0  0  0  0  0  0  0  0
   -1.9130   19.4670  -33.5820 N   0  0  0  0  0  0  0  0  0  0  0  0
   -3.2430   19.3290  -33.8230 C   0  0  0  0  0  0  0  0  0  0  0  0
   -3.8150   18.0560  -33.8670 C   0  0  0  0  0  0  0  0  0  0  0  0
   -5.5200   17.8580  -34.2650 S   0  0  0  0  0  0  0  0  0  0  0  0
   -5.8460   16.3960  -34.1520 O   0  0  0  0  0  0  0  0  0  0  0  0
   -5.7460   18.2920  -35.6880 O   0  0  0  0  0  0  0  0  0  0  0  0
   -6.4860   18.8430  -33.1620 N   0  0  0  0  0  0  0  0  0  0  0  0
   -6.7390   20.1790  -33.7440 C   0  0  0  0  0  0  0  0  0  0  0  0
   -6.3250   21.2600  -32.7770 C   0  0  0  0  0  0  0  0  0  0  0  0
   -4.9770   21.6480  -32.7040 C   0  0  0  0  0  0  0  0  0  0  0  0
   -4.5830   22.6710  -31.8370 C   0  0  0  0  0  0  0  0  0  0  0  0
   -5.5290   23.3140  -31.0300 C   0  0  0  0  0  0  0  0  0  0  0  0
   -5.0230   24.5800  -29.9140 S   0  0  0  0  0  0  0  0  0  0  0  0
   -4.6270   23.8500  -28.3400 C   0  0  0  0  0  0  0  0  0  0  0  0
   -6.1290   25.5830  -29.7420 O   0  0  0  0  0  0  0  0  0  0  0  0
   -3.8120   25.2870  -30.4560 O   0  0  0  0  0  0  0  0  0  0  0  0
   -6.8710   22.9160  -31.0850 C   0  0  0  0  0  0  0  0  0  0  0  0
   -7.2700   21.8920  -31.9520 C   0  0  0  0  0  0  0  0  0  0  0  0
   -7.7390   18.2400  -32.6270 C   0  0  0  0  0  0  0  0  0  0  0  0
   -7.8940   18.1710  -31.1050 C   0  0  0  0  0  0  0  0  0  0  0  0
   -9.1230   19.0760  -31.2030 C   0  0  0  0  0  0  0  0  0  0  0  0
   -8.9640   19.1470  -32.7210 C   0  0  0  0  0  0  0  0  0  0  0  0
   -2.9890   16.9520  -33.6330 C   0  0  0  0  0  0  0  0  0  0  0  0
   -1.6630   17.1350  -33.3970 N   0  0  0  0  0  0  0  0  0  0  0  0
    0.8936   17.7474  -31.3010 H   0  0  0  0  0  0  0  0  0  0  0  0
    0.6669   16.5465  -32.6175 H   0  0  0  0  0  0  0  0  0  0  0  0
    2.1087   17.6178  -32.6175 H   0  0  0  0  0  0  0  0  0  0  0  0
    1.3161   20.3589  -32.8083 H   0  0  0  0  0  0  0  0  0  0  0  0
    1.8376   19.4541  -34.2698 H   0  0  0  0  0  0  0  0  0  0  0  0
    0.2720   20.3348  -34.2698 H   0  0  0  0  0  0  0  0  0  0  0  0
   -3.8687   20.2194  -33.9833 H   0  0  0  0  0  0  0  0  0  0  0  0
   -6.1618   20.2844  -34.6744 H   0  0  0  0  0  0  0  0  0  0  0  0
   -7.8142   20.2796  -33.9532 H   0  0  0  0  0  0  0  0  0  0  0  0
   -4.2277   21.1442  -33.3323 H   0  0  0  0  0  0  0  0  0  0  0  0
   -3.5261   22.9719  -31.7886 H   0  0  0  0  0  0  0  0  0  0  0  0
   -4.9828   24.5059  -27.5317 H   0  0  0  0  0  0  0  0  0  0  0  0
   -5.1162   22.8682  -28.2577 H   0  0  0  0  0  0  0  0  0  0  0  0
   -3.5373   23.7247  -28.2577 H   0  0  0  0  0  0  0  0  0  0  0  0
   -7.6151   23.4107  -30.4435 H   0  0  0  0  0  0  0  0  0  0  0  0
   -8.3248   21.5819  -31.9873 H   0  0  0  0  0  0  0  0  0  0  0  0
   -7.6774   17.2987  -33.1928 H   0  0  0  0  0  0  0  0  0  0  0  0
   -8.1056   17.1632  -30.7184 H   0  0  0  0  0  0  0  0  0  0  0  0
   -7.0555   18.4329  -30.4430 H   0  0  0  0  0  0  0  0  0  0  0  0
  -10.0575   18.5988  -30.8729 H   0  0  0  0  0  0  0  0  0  0  0  0
   -9.1779   20.0002  -30.6090 H   0  0  0  0  0  0  0  0  0  0  0  0
   -9.8041   18.7123  -33.2825 H   0  0  0  0  0  0  0  0  0  0  0  0
   -8.9024   20.1191  -33.2322 H   0  0  0  0  0  0  0  0  0  0  0  0
   -3.4120   15.9366  -33.6399 H   0  0  0  0  0  0  0  0  0  0  0  0
  1  2  1  0
  2  3  1  0
  2  4  1  0
  4  5  2  0
  5  6  1  0
  6  7  2  0
  7  8  1  0
  8  9  2  0
  8 10  2  0
  8 11  1  0
 11 12  1  0
 12 13  1  0
 13 14  2  0
 14 15  1  0
 15 16  2  0
 16 17  1  0
 17 18  1  0
 17 19  2  0
 17 20  2  0
 16 21  1  0
 21 22  2  0
 11 23  1  0
 23 24  1  0
 24 25  1  0
 25 26  1  0
  7 27  1  0
 27 28  2  0
 28  4  1  0
 22 13  1  0
 26 23  1  0
  1 29  1  0
  1 30  1  0
  1 31  1  0
  3 32  1  0
  3 33  1  0
  3 34  1  0
  6 35  1  0
 12 36  1  0
 12 37  1  0
 14 38  1  0
 15 39  1  0
 18 40  1  0
 18 41  1  0
 18 42  1  0
 21 43  1  0
 22 44  1  0
 23 45  1  0
 24 46  1  0
 24 47  1  0
 25 48  1  0
 25 49  1  0
 26 50  1  0
 26 51  1  0
 27 52  1  0
M  END
>  <UniqueID>  (42) 
41

>  <SMILES>  (42) 
CN(C)c1ncc(S(=O)(=O)N(Cc2ccc(S(C)(=O)=O)cc2)C2CCC2)cn1

>  <Energy>  (42) 
113.26587542207203

>  <Genealogy>  (42) 
CN(C)c1ncc(S(=O)(=O)N(Cc2ccc(S(C)(=O)=O)cc2)C2CCC2)cn1 (3D coordinates assigned)
CN(C)c1ncc(S(=O)(=O)N(Cc2ccc(S(C)(=O)=O)cc2)C2CCC2)cn1 (nonaromatic ring conformer: 113.26587542207203 kcal/mol)

>  <smiles>  (42) 
CN(C)c1ncc(S(=O)(=O)N(Cc2ccc(S(C)(=O)=O)cc2)C2CCC2)cn1

>  <score_type>  (42) 
oracle

>  <origin>  (42) 
adgpu

>  <m_score__min__energy>  (42) 
-9.1600000000000001

>  <m_primary>  (42) 
energy

$$$$
42:0
     RDKit          3D

 56 60  0  0  0  0  0  0  0  0999 V2000
    4.2900   18.1070  -37.7460 C   0  0  0  0  0  0  0  0  0  0  0  0
    3.2070   19.5110  -37.5810 S   0  0  0  0  0  0  0  0  0  0  0  0
    1.9300   19.2210  -38.3180 O   0  0  0  0  0  0  0  0  0  0  0  0
    3.8410   20.7360  -38.1780 O   0  0  0  0  0  0  0  0  0  0  0  0
    2.8360   19.7870  -35.9100 N   0  0  0  0  0  0  0  0  0  0  0  0
    1.5410   20.1010  -35.3790 C   0  0  0  0  0  0  0  0  0  0  0  0
    1.1260   21.4370  -35.3780 C   0  0  0  0  0  0  0  0  0  0  0  0
   -0.1290   21.7890  -34.8720 C   0  0  0  0  0  0  0  0  0  0  0  0
   -0.9920   20.8080  -34.3610 C   0  0  0  0  0  0  0  0  0  0  0  0
   -0.5760   19.4710  -34.3580 C   0  0  0  0  0  0  0  0  0  0  0  0
    0.6830   19.1160  -34.8620 C   0  0  0  0  0  0  0  0  0  0  0  0
   -1.6350   18.2510  -33.7130 S   0  0  0  0  0  0  0  0  0  0  0  0
   -1.0090   17.6230  -32.5000 O   0  0  0  0  0  0  0  0  0  0  0  0
   -1.9050   17.2080  -34.7590 O   0  0  0  0  0  0  0  0  0  0  0  0
   -3.1160   19.0160  -33.2670 N   0  0  0  0  0  0  0  0  0  0  0  0
   -3.3030   20.3020  -33.3570 C   0  0  0  0  0  0  0  0  0  0  0  0
   -4.6070   20.8780  -32.9450 C   0  0  0  0  0  0  0  0  0  0  0  0
   -5.7930   20.1880  -33.2180 C   0  0  0  0  0  0  0  0  0  0  0  0
   -5.7010   18.9840  -33.9290 O   0  0  0  0  0  0  0  0  0  0  0  0
   -7.0170   20.7000  -32.7350 C   0  0  0  0  0  0  0  0  0  0  0  0
   -8.2210   19.9700  -32.8510 C   0  0  0  0  0  0  0  0  0  0  0  0
   -9.4010   20.4440  -32.2850 C   0  0  0  0  0  0  0  0  0  0  0  0
   -9.4000   21.6290  -31.5650 C   0  0  0  0  0  0  0  0  0  0  0  0
   -8.2290   22.3730  -31.4380 C   0  0  0  0  0  0  0  0  0  0  0  0
   -7.0250   21.9620  -32.0680 C   0  0  0  0  0  0  0  0  0  0  0  0
   -5.8660   22.7220  -32.0150 N   0  0  0  0  0  0  0  0  0  0  0  0
   -5.8600   24.1640  -31.6370 C   0  0  0  0  0  0  0  0  0  0  0  0
   -5.6640   24.3970  -30.1160 C   0  0  0  0  0  0  0  0  0  0  0  0
   -4.2570   24.1720  -29.5160 C   0  0  0  0  0  0  0  0  0  0  0  0
   -4.2460   24.1540  -27.9910 C   0  0  0  0  0  0  0  0  0  0  0  0
   -3.8830   22.9010  -28.7640 C   0  0  0  0  0  0  0  0  0  0  0  0
   -4.6610   22.1280  -32.3120 C   0  0  0  0  0  0  0  0  0  0  0  0
   -3.5780   22.7150  -32.0310 O   0  0  0  0  0  0  0  0  0  0  0  0
   -2.2790   21.1970  -33.8470 N   0  0  0  0  0  0  0  0  0  0  0  0
    4.5717   17.7418  -36.7473 H   0  0  0  0  0  0  0  0  0  0  0  0
    3.7725   17.3074  -38.2963 H   0  0  0  0  0  0  0  0  0  0  0  0
    5.1948   18.4045  -38.2963 H   0  0  0  0  0  0  0  0  0  0  0  0
    1.7917   22.2160  -35.7781 H   0  0  0  0  0  0  0  0  0  0  0  0
   -0.4422   22.8435  -34.8746 H   0  0  0  0  0  0  0  0  0  0  0  0
    1.0002   18.0628  -34.8526 H   0  0  0  0  0  0  0  0  0  0  0  0
   -3.8840   18.3960  -32.9250 H   0  0  0  0  0  0  0  0  0  0  0  0
   -6.3710   18.6600  -34.6100 H   0  0  0  0  0  0  0  0  0  0  0  0
   -8.2260   19.0144  -33.3958 H   0  0  0  0  0  0  0  0  0  0  0  0
  -10.3358   19.8776  -32.4091 H   0  0  0  0  0  0  0  0  0  0  0  0
  -10.3278   21.9832  -31.0920 H   0  0  0  0  0  0  0  0  0  0  0  0
   -8.2375   23.2955  -30.8388 H   0  0  0  0  0  0  0  0  0  0  0  0
   -5.0408   24.6630  -32.1754 H   0  0  0  0  0  0  0  0  0  0  0  0
   -6.8436   24.5763  -31.9064 H   0  0  0  0  0  0  0  0  0  0  0  0
   -5.9441   25.4401  -29.9074 H   0  0  0  0  0  0  0  0  0  0  0  0
   -6.2886   23.6266  -29.6403 H   0  0  0  0  0  0  0  0  0  0  0  0
   -3.7633   24.6982  -30.3463 H   0  0  0  0  0  0  0  0  0  0  0  0
   -3.4691   24.7046  -27.4404 H   0  0  0  0  0  0  0  0  0  0  0  0
   -4.9764   24.3984  -27.2056 H   0  0  0  0  0  0  0  0  0  0  0  0
   -2.8429   22.5432  -28.7732 H   0  0  0  0  0  0  0  0  0  0  0  0
   -4.2417   21.8612  -28.7701 H   0  0  0  0  0  0  0  0  0  0  0  0
   -2.4980   22.2190  -33.8280 H   0  0  0  0  0  0  0  0  0  0  0  0
  1  2  1  0
  2  3  2  0
  2  4  2  0
  2  5  1  0
  5  6  1  0
  6  7  2  0
  7  8  1  0
  8  9  2  0
  9 10  1  0
 10 11  2  0
 10 12  1  0
 12 13  2  0
 12 14  2  0
 12 15  1  0
 15 16  2  0
 16 17  1  0
 17 18  2  0
 18 19  1  0
 18 20  1  0
 20 21  2  0
 21 22  1  0
 22 23  2  0
 23 24  1  0
 24 25  2  0
 25 26  1  0
 26 27  1  0
 27 28  1  0
 28 29  1  0
 29 30  1  0
 30 31  1  0
 26 32  1  0
 32 33  2  0
 16 34  1  0
 11  6  1  0
 32 17  1  0
 34  9  1  0
 25 20  1  0
 31 29  1  0
  1 35  1  0
  1 36  1  0
  1 37  1  0
  7 38  1  0
  8 39  1  0
 11 40  1  0
 15 41  1  0
 19 42  1  0
 21 43  1  0
 22 44  1  0
 23 45  1  0
 24 46  1  0
 27 47  1  0
 27 48  1  0
 28 49  1  0
 28 50  1  0
 29 51  1  0
 30 52  1  0
 30 53  1  0
 31 54  1  0
 31 55  1  0
 34 56  1  0
M  CHG  2   5  -1  15   1
M  END
>  <UniqueID>  (43) 
42

>  <SMILES>  (43) 
CS(=O)(=O)[N-]c1ccc2c(c1)S(=O)(=O)[NH+]=C(c1c(O)c3ccccc3n(CCC3CC3)c1=O)N2

>  <Energy>  (43) 
360.3786835993145

>  <Genealogy>  (43) 
CS(=O)(=O)[N-]c1ccc2c(c1)S(=O)(=O)[NH+]=C(c1c(O)c3ccccc3n(CCC3CC3)c1=O)N2 (protonated)
CS(=O)(=O)[N-]c1ccc2c(c1)S(=O)(=O)[NH+]=C(c1c(O)c3ccccc3n(CCC3CC3)c1=O)N2 (3D coordinates assigned)
CS(=O)(=O)[N-]c1ccc2c(c1)S(=O)(=O)[NH+]=C(c1c(O)c3ccccc3n(CCC3CC3)c1=O)N2 (nonaromatic ring conformer: 360.3786835993145 kcal/mol)

>  <smiles>  (43) 
CS(=O)(=O)Nc1ccc2c(c1)S(=O)(=O)N=C(c1c(O)c3ccccc3n(CCC3CC3)c1=O)N2

>  <score_type>  (43) 
oracle

>  <origin>  (43) 
adgpu

>  <m_score__min__energy>  (43) 
-9.5600000000000005

>  <m_primary>  (43) 
energy

$$$$
43:0
     RDKit          3D

 58 60  0  0  0  0  0  0  0  0999 V2000
   -7.4000   18.6790  -31.5990 C   0  0  0  0  0  0  0  0  0  0  0  0
   -7.9990   20.0630  -32.5450 S   0  0  0  0  0  0  0  0  0  0  0  0
   -9.4510   19.8550  -32.8740 O   0  0  0  0  0  0  0  0  0  0  0  0
   -7.2160   20.1390  -33.8260 O   0  0  0  0  0  0  0  0  0  0  0  0
   -7.7600   21.5880  -31.6320 C   0  0  0  0  0  0  0  0  0  0  0  0
   -6.3990   21.6730  -30.9290 C   0  0  0  0  0  0  0  0  0  0  0  0
   -5.7360   23.3360  -30.8830 S   0  0  0  0  0  0  0  0  0  0  0  0
   -5.5320   23.8400  -32.2830 O   0  0  0  0  0  0  0  0  0  0  0  0
   -6.6780   24.2630  -30.1670 O   0  0  0  0  0  0  0  0  0  0  0  0
   -4.1880   23.3060  -30.0350 C   0  0  0  0  0  0  0  0  0  0  0  0
   -3.7280   22.1120  -29.4580 C   0  0  0  0  0  0  0  0  0  0  0  0
   -2.5080   22.0810  -28.7700 C   0  0  0  0  0  0  0  0  0  0  0  0
   -1.9220   20.5720  -28.0800 S   0  0  0  0  0  0  0  0  0  0  0  0
   -1.1540   20.8470  -26.8170 O   0  0  0  0  0  0  0  0  0  0  0  0
   -3.0860   19.6840  -27.7340 O   0  0  0  0  0  0  0  0  0  0  0  0
   -0.8780   19.7790  -29.2500 C   0  0  0  0  0  0  0  0  0  0  0  0
   -0.0840   18.6880  -28.8690 C   0  0  0  0  0  0  0  0  0  0  0  0
    0.7320   18.0550  -29.8100 C   0  0  0  0  0  0  0  0  0  0  0  0
    0.7590   18.5040  -31.1330 C   0  0  0  0  0  0  0  0  0  0  0  0
   -0.0350   19.5920  -31.5240 C   0  0  0  0  0  0  0  0  0  0  0  0
    0.0100   20.1740  -33.1900 S   0  0  0  0  0  0  0  0  0  0  0  0
    0.7510   21.4820  -33.2380 O   0  0  0  0  0  0  0  0  0  0  0  0
    0.7570   19.1850  -34.0400 O   0  0  0  0  0  0  0  0  0  0  0  0
   -1.6000   20.3930  -33.8350 N   0  0  0  0  0  0  0  0  0  0  0  0
   -2.2940   21.4900  -33.1240 C   0  0  0  0  0  0  0  0  0  0  0  0
   -3.8070   21.4390  -33.3560 C   0  0  0  0  0  0  0  0  0  0  0  0
   -4.4080   20.1320  -32.8070 C   0  0  0  0  0  0  0  0  0  0  0  0
   -3.3860   18.9820  -32.7570 C   0  0  0  0  0  0  0  0  0  0  0  0
   -2.3490   19.1130  -33.8830 C   0  0  0  0  0  0  0  0  0  0  0  0
   -0.8600   20.2190  -30.5800 C   0  0  0  0  0  0  0  0  0  0  0  0
   -1.7390   23.2470  -28.6660 C   0  0  0  0  0  0  0  0  0  0  0  0
   -2.1960   24.4400  -29.2300 C   0  0  0  0  0  0  0  0  0  0  0  0
   -3.4180   24.4770  -29.9090 C   0  0  0  0  0  0  0  0  0  0  0  0
   -3.8590   25.6790  -30.4520 O   0  0  0  0  0  0  0  0  0  0  0  0
   -7.4955   18.8997  -30.5256 H   0  0  0  0  0  0  0  0  0  0  0  0
   -7.9914   17.7843  -31.8434 H   0  0  0  0  0  0  0  0  0  0  0  0
   -6.3429   18.4978  -31.8434 H   0  0  0  0  0  0  0  0  0  0  0  0
   -7.8426   22.4308  -32.3340 H   0  0  0  0  0  0  0  0  0  0  0  0
   -8.5316   21.6207  -30.8487 H   0  0  0  0  0  0  0  0  0  0  0  0
   -6.5153   21.3136  -29.8959 H   0  0  0  0  0  0  0  0  0  0  0  0
   -5.6937   21.0540  -31.5029 H   0  0  0  0  0  0  0  0  0  0  0  0
   -4.3291   21.1950  -29.5466 H   0  0  0  0  0  0  0  0  0  0  0  0
   -0.1035   18.3303  -27.8290 H   0  0  0  0  0  0  0  0  0  0  0  0
    1.3553   17.2003  -29.5084 H   0  0  0  0  0  0  0  0  0  0  0  0
    1.4045   18.0030  -31.8695 H   0  0  0  0  0  0  0  0  0  0  0  0
   -2.0943   21.4002  -32.0460 H   0  0  0  0  0  0  0  0  0  0  0  0
   -1.9168   22.4472  -33.5132 H   0  0  0  0  0  0  0  0  0  0  0  0
   -4.2776   22.2927  -32.8464 H   0  0  0  0  0  0  0  0  0  0  0  0
   -3.9962   21.4829  -34.4387 H   0  0  0  0  0  0  0  0  0  0  0  0
   -4.7799   20.3165  -31.7884 H   0  0  0  0  0  0  0  0  0  0  0  0
   -5.2171   19.8275  -33.4871 H   0  0  0  0  0  0  0  0  0  0  0  0
   -2.8676   19.0042  -31.7871 H   0  0  0  0  0  0  0  0  0  0  0  0
   -3.9238   18.0313  -32.8868 H   0  0  0  0  0  0  0  0  0  0  0  0
   -1.6316   18.2836  -33.7971 H   0  0  0  0  0  0  0  0  0  0  0  0
   -2.8947   19.0866  -34.8377 H   0  0  0  0  0  0  0  0  0  0  0  0
   -1.4974   21.0619  -30.8854 H   0  0  0  0  0  0  0  0  0  0  0  0
   -0.7736   23.2230  -28.1393 H   0  0  0  0  0  0  0  0  0  0  0  0
   -1.5920   25.3549  -29.1397 H   0  0  0  0  0  0  0  0  0  0  0  0
  1  2  1  0
  2  3  2  0
  2  4  2  0
  2  5  1  0
  5  6  1  0
  6  7  1  0
  7  8  2  0
  7  9  2  0
  7 10  1  0
 10 11  2  0
 11 12  1  0
 12 13  1  0
 13 14  2  0
 13 15  2  0
 13 16  1  0
 16 17  2  0
 17 18  1  0
 18 19  2  0
 19 20  1  0
 20 21  1  0
 21 22  2  0
 21 23  2  0
 21 24  1  0
 24 25  1  0
 25 26  1  0
 26 27  1  0
 27 28  1  0
 28 29  1  0
 20 30  2  0
 12 31  2  0
 31 32  1  0
 32 33  2  0
 33 34  1  0
 33 10  1  0
 30 16  1  0
 29 24  1  0
  1 35  1  0
  1 36  1  0
  1 37  1  0
  5 38  1  0
  5 39  1  0
  6 40  1  0
  6 41  1  0
 11 42  1  0
 17 43  1  0
 18 44  1  0
 19 45  1  0
 25 46  1  0
 25 47  1  0
 26 48  1  0
 26 49  1  0
 27 50  1  0
 27 51  1  0
 28 52  1  0
 28 53  1  0
 29 54  1  0
 29 55  1  0
 30 56  1  0
 31 57  1  0
 32 58  1  0
M  CHG  1  34  -1
M  END
>  <UniqueID>  (44) 
43

>  <SMILES>  (44) 
CS(=O)(=O)CCS(=O)(=O)c1cc(S(=O)(=O)c2cccc(S(=O)(=O)N3CCCCC3)c2)ccc1[O-]

>  <Energy>  (44) 
56.121440864875126

>  <Genealogy>  (44) 
CS(=O)(=O)CCS(=O)(=O)c1cc(S(=O)(=O)c2cccc(S(=O)(=O)N3CCCCC3)c2)ccc1[O-] (protonated)
CS(=O)(=O)CCS(=O)(=O)c1cc(S(=O)(=O)c2cccc(S(=O)(=O)N3CCCCC3)c2)ccc1[O-] (3D coordinates assigned)
CS(=O)(=O)CCS(=O)(=O)c1cc(S(=O)(=O)c2cccc(S(=O)(=O)N3CCCCC3)c2)ccc1[O-] (nonaromatic ring conformer: 56.121440864875126 kcal/mol)

>  <smiles>  (44) 
CS(=O)(=O)CCS(=O)(=O)c1cc(S(=O)(=O)c2cccc(S(=O)(=O)N3CCCCC3)c2)ccc1O

>  <score_type>  (44) 
oracle

>  <origin>  (44) 
adgpu

>  <m_score__min__energy>  (44) 
-15.029999999999999

>  <m_primary>  (44) 
energy

$$$$
44:0
     RDKit          3D

 35 37  0  0  0  0  0  0  0  0999 V2000
   -5.7890   23.7880  -32.2080 O   0  0  0  0  0  0  0  0  0  0  0  0
   -6.1950   23.7660  -30.7610 S   0  0  0  0  0  0  0  0  0  0  0  0
   -6.9940   24.9950  -30.4290 O   0  0  0  0  0  0  0  0  0  0  0  0
   -7.1590   22.3570  -30.4560 N   0  0  0  0  0  0  0  0  0  0  0  0
   -7.1320   21.1490  -31.2300 C   0  0  0  0  0  0  0  0  0  0  0  0
   -6.0040   20.7700  -31.9790 C   0  0  0  0  0  0  0  0  0  0  0  0
   -6.0060   19.5790  -32.7200 C   0  0  0  0  0  0  0  0  0  0  0  0
   -7.1620   18.7740  -32.7430 C   0  0  0  0  0  0  0  0  0  0  0  0
   -8.2790   19.1460  -31.9840 C   0  0  0  0  0  0  0  0  0  0  0  0
   -8.2670   20.3270  -31.2360 C   0  0  0  0  0  0  0  0  0  0  0  0
   -9.3900   20.6800  -30.4960 O   0  0  0  0  0  0  0  0  0  0  0  0
   -7.1750   17.4610  -33.4930 C   0  0  0  0  0  0  0  0  0  0  0  0
   -6.1550   17.4110  -34.5500 N   0  0  0  0  0  0  0  0  0  0  0  0
   -4.8350   17.7640  -34.0140 C   0  0  0  0  0  0  0  0  0  0  0  0
   -4.8020   19.2280  -33.5570 C   0  0  0  0  0  0  0  0  0  0  0  0
   -4.7430   23.7380  -29.7580 C   0  0  0  0  0  0  0  0  0  0  0  0
   -4.5870   22.7580  -28.7660 C   0  0  0  0  0  0  0  0  0  0  0  0
   -3.4370   22.7350  -27.9720 C   0  0  0  0  0  0  0  0  0  0  0  0
   -2.4360   23.6900  -28.1620 C   0  0  0  0  0  0  0  0  0  0  0  0
   -2.5810   24.6710  -29.1470 C   0  0  0  0  0  0  0  0  0  0  0  0
   -1.5810   25.6190  -29.3310 O   0  0  0  0  0  0  0  0  0  0  0  0
   -3.7320   24.6980  -29.9470 C   0  0  0  0  0  0  0  0  0  0  0  0
   -3.8660   25.6790  -30.9250 O   0  0  0  0  0  0  0  0  0  0  0  0
   -5.1118   21.4134  -31.9839 H   0  0  0  0  0  0  0  0  0  0  0  0
   -9.1723   18.5041  -31.9765 H   0  0  0  0  0  0  0  0  0  0  0  0
   -6.9858   16.6448  -32.7802 H   0  0  0  0  0  0  0  0  0  0  0  0
   -8.1600   17.3571  -33.9714 H   0  0  0  0  0  0  0  0  0  0  0  0
   -6.4130   18.0910  -35.3030 H   0  0  0  0  0  0  0  0  0  0  0  0
   -4.6094   17.1139  -33.1558 H   0  0  0  0  0  0  0  0  0  0  0  0
   -4.0859   17.6272  -34.8078 H   0  0  0  0  0  0  0  0  0  0  0  0
   -3.8927   19.3948  -32.9609 H   0  0  0  0  0  0  0  0  0  0  0  0
   -4.8094   19.8667  -34.4526 H   0  0  0  0  0  0  0  0  0  0  0  0
   -5.3734   22.0043  -28.6125 H   0  0  0  0  0  0  0  0  0  0  0  0
   -3.3203   21.9637  -27.1965 H   0  0  0  0  0  0  0  0  0  0  0  0
   -1.5320   23.6702  -27.5355 H   0  0  0  0  0  0  0  0  0  0  0  0
  1  2  2  0
  2  3  2  0
  2  4  1  0
  4  5  1  0
  5  6  2  0
  6  7  1  0
  7  8  2  0
  8  9  1  0
  9 10  2  0
 10 11  1  0
  8 12  1  0
 12 13  1  0
 13 14  1  0
 14 15  1  0
  2 16  1  0
 16 17  2  0
 17 18  1  0
 18 19  2  0
 19 20  1  0
 20 21  1  0
 20 22  2  0
 22 23  1  0
 10  5  1  0
 22 16  1  0
 15  7  1  0
  6 24  1  0
  9 25  1  0
 12 26  1  0
 12 27  1  0
 13 28  1  0
 14 29  1  0
 14 30  1  0
 15 31  1  0
 15 32  1  0
 17 33  1  0
 18 34  1  0
 19 35  1  0
M  CHG  4   4  -1  11  -1  21  -1  23  -1
M  END
>  <UniqueID>  (45) 
44

>  <SMILES>  (45) 
O=S(=O)([N-]c1cc2c(cc1[O-])CNCC2)c1cccc([O-])c1[O-]

>  <Energy>  (45) 
44.462140766110224

>  <Genealogy>  (45) 
O=S(=O)([N-]c1cc2c(cc1[O-])CNCC2)c1cccc([O-])c1[O-] (protonated)
O=S(=O)([N-]c1cc2c(cc1[O-])CNCC2)c1cccc([O-])c1[O-] (3D coordinates assigned)
O=S(=O)([N-]c1cc2c(cc1[O-])CNCC2)c1cccc([O-])c1[O-] (nonaromatic ring conformer: 44.462140766110224 kcal/mol)

>  <smiles>  (45) 
O=S(=O)(Nc1cc2c(cc1O)CNCC2)c1cccc(O)c1O

>  <score_type>  (45) 
oracle

>  <origin>  (45) 
adgpu

>  <m_score__min__energy>  (45) 
-14.59

>  <m_primary>  (45) 
energy

$$$$
45:0
     RDKit          3D

 47 50  0  0  0  0  0  0  0  0999 V2000
    0.4318   19.5464  -29.3886 H   0  0  0  0  0  0  0  0  0  0  0  0
   -0.2510   19.9850  -28.6460 C   0  0  0  0  0  0  0  0  0  0  0  0
   -1.0840   19.1820  -27.9320 N   0  0  0  0  0  0  0  0  0  0  0  0
   -1.9470   19.6840  -27.0090 C   0  0  0  0  0  0  0  0  0  0  0  0
   -2.8370   18.7590  -26.2410 C   0  0  0  0  0  0  0  0  0  0  0  0
   -2.6860   18.9160  -25.1628 H   0  0  0  0  0  0  0  0  0  0  0  0
   -3.8870   18.9631  -26.4977 H   0  0  0  0  0  0  0  0  0  0  0  0
   -2.5925   17.7177  -26.4977 H   0  0  0  0  0  0  0  0  0  0  0  0
   -1.9840   21.0640  -26.7680 C   0  0  0  0  0  0  0  0  0  0  0  0
   -2.6785   21.4760  -26.0210 H   0  0  0  0  0  0  0  0  0  0  0  0
   -1.1310   21.9180  -27.4840 C   0  0  0  0  0  0  0  0  0  0  0  0
   -1.1650   23.3810  -27.2490 C   0  0  0  0  0  0  0  0  0  0  0  0
   -0.8650   23.8840  -25.9710 C   0  0  0  0  0  0  0  0  0  0  0  0
   -0.5908   23.1901  -25.1627 H   0  0  0  0  0  0  0  0  0  0  0  0
   -0.9120   25.2580  -25.7180 C   0  0  0  0  0  0  0  0  0  0  0  0
   -0.5440   25.8700  -24.1160 Cl  0  0  0  0  0  0  0  0  0  0  0  0
   -1.2540   26.1440  -26.7420 C   0  0  0  0  0  0  0  0  0  0  0  0
   -1.2940   27.2250  -26.5423 H   0  0  0  0  0  0  0  0  0  0  0  0
   -1.5450   25.6600  -28.0180 C   0  0  0  0  0  0  0  0  0  0  0  0
   -1.8054   26.3638  -28.8223 H   0  0  0  0  0  0  0  0  0  0  0  0
   -1.5080   24.2790  -28.2840 C   0  0  0  0  0  0  0  0  0  0  0  0
   -1.7570   23.7830  -29.5740 O   0  0  0  0  0  0  0  0  0  0  0  0
   -3.0160   23.4020  -30.0560 C   0  0  0  0  0  0  0  0  0  0  0  0
   -4.1340   24.1460  -29.6640 C   0  0  0  0  0  0  0  0  0  0  0  0
   -4.0071   25.0079  -28.9924 H   0  0  0  0  0  0  0  0  0  0  0  0
   -5.4100   23.8040  -30.1180 C   0  0  0  0  0  0  0  0  0  0  0  0
   -6.2832   24.3882  -29.7922 H   0  0  0  0  0  0  0  0  0  0  0  0
   -5.5800   22.7190  -30.9870 C   0  0  0  0  0  0  0  0  0  0  0  0
   -7.1840   22.2920  -31.5750 S   0  0  0  0  0  0  0  0  0  0  0  0
   -7.9280   23.5200  -32.0220 O   0  0  0  0  0  0  0  0  0  0  0  0
   -7.9500   21.6330  -30.4630 O   0  0  0  0  0  0  0  0  0  0  0  0
   -7.0560   21.1900  -32.9090 N   0  0  0  0  0  0  0  0  0  0  0  0
   -6.9100   19.9050  -32.7840 C   0  0  0  0  0  0  0  0  0  0  0  0
   -6.8290   19.1830  -31.6060 C   0  0  0  0  0  0  0  0  0  0  0  0
   -6.8674   19.5570  -30.5723 H   0  0  0  0  0  0  0  0  0  0  0  0
   -6.6880   17.8770  -32.0420 C   0  0  0  0  0  0  0  0  0  0  0  0
   -6.5902   16.9933  -31.3943 H   0  0  0  0  0  0  0  0  0  0  0  0
   -6.6900   17.8650  -33.3580 O   0  0  0  0  0  0  0  0  0  0  0  0
   -6.8210   19.0690  -33.8290 N   0  0  0  0  0  0  0  0  0  0  0  0
   -6.8530   19.3180  -34.8430 H   0  0  0  0  0  0  0  0  0  0  0  0
   -4.4640   21.9800  -31.4010 C   0  0  0  0  0  0  0  0  0  0  0  0
   -4.5949   21.1282  -32.0846 H   0  0  0  0  0  0  0  0  0  0  0  0
   -3.1820   22.3200  -30.9490 C   0  0  0  0  0  0  0  0  0  0  0  0
   -2.0470   21.5900  -31.4590 C   0  0  0  0  0  0  0  0  0  0  0  0
   -1.1360   21.0050  -31.8670 N   0  0  0  0  0  0  0  0  0  0  0  0
   -0.2610   21.3660  -28.4380 C   0  0  0  0  0  0  0  0  0  0  0  0
    0.4089   22.0176  -29.0182 H   0  0  0  0  0  0  0  0  0  0  0  0
  1  2  1  0
  2  3  2  0
  3  4  1  0
  4  5  1  0
  5  6  1  0
  5  7  1  0
  5  8  1  0
  4  9  2  0
  9 10  1  0
  9 11  1  0
 11 12  1  0
 12 13  2  0
 13 14  1  0
 13 15  1  0
 15 16  1  0
 15 17  2  0
 17 18  1  0
 17 19  1  0
 19 20  1  0
 19 21  2  0
 21 22  1  0
 22 23  1  0
 23 24  2  0
 24 25  1  0
 24 26  1  0
 26 27  1  0
 26 28  2  0
 28 29  1  0
 29 30  2  0
 29 31  2  0
 29 32  1  0
 32 33  2  0
 33 34  1  0
 34 35  1  0
 34 36  2  0
 36 37  1  0
 36 38  1  0
 38 39  1  0
 39 40  1  0
 28 41  1  0
 41 42  1  0
 41 43  2  0
 43 44  1  0
 44 45  3  0
 11 46  2  0
 46 47  1  0
 46  2  1  0
 21 12  1  0
 43 23  1  0
 39 33  1  0
M  END
>  <UniqueID>  (46) 
45

>  <SMILES>  (46) 
Cc1cc(-c2cc(Cl)ccc2Oc2ccc(S(=O)(=O)/N=c3\cco[nH]3)cc2C#N)ccn1

>  <Energy>  (46) 
99.36374310071061

>  <Genealogy>  (46) 
Cc1cc(-c2cc(Cl)ccc2Oc2ccc(S(=O)(=O)/N=c3\cco[nH]3)cc2C#N)ccn1 (cis-trans isomerization)
Cc1cc(-c2cc(Cl)ccc2Oc2ccc(S(=O)(=O)/N=c3\cco[nH]3)cc2C#N)ccn1 (3D coordinates assigned)
Cc1cc(-c2cc(Cl)ccc2Oc2ccc(S(=O)(=O)/N=c3\cco[nH]3)cc2C#N)ccn1 (optimized conformer: 99.36374310071061 kcal/mol)

>  <smiles>  (46) 
Cc1cc(-c2cc(Cl)ccc2Oc2ccc(S(=O)(=O)N=c3cco[nH]3)cc2C#N)ccn1

>  <score_type>  (46) 
oracle

>  <origin>  (46) 
adgpu

>  <m_score__min__energy>  (46) 
-10.199999999999999

>  <m_primary>  (46) 
energy

$$$$
46:0
     RDKit          3D

 60 64  0  0  0  0  0  0  0  0999 V2000
   -5.9630   18.9230  -34.8600 C   0  0  0  0  0  0  0  0  0  0  0  0
   -5.0240   17.9160  -34.2760 C   0  0  0  0  0  0  0  0  0  0  0  0
   -5.4310   16.5920  -34.0850 C   0  0  0  0  0  0  0  0  0  0  0  0
   -4.5330   15.6670  -33.5500 C   0  0  0  0  0  0  0  0  0  0  0  0
   -3.2370   16.0710  -33.2050 C   0  0  0  0  0  0  0  0  0  0  0  0
   -2.3140   15.1510  -32.7010 C   0  0  0  0  0  0  0  0  0  0  0  0
   -1.0250   15.5620  -32.3770 C   0  0  0  0  0  0  0  0  0  0  0  0
   -0.6390   16.9030  -32.5200 C   0  0  0  0  0  0  0  0  0  0  0  0
    1.0480   17.3430  -32.0540 S   0  0  0  0  0  0  0  0  0  0  0  0
    0.6240   17.7020  -30.3440 C   0  0  0  0  0  0  0  0  0  0  0  0
   -0.0460   18.8960  -30.0310 C   0  0  0  0  0  0  0  0  0  0  0  0
   -0.3670   19.1960  -28.7020 C   0  0  0  0  0  0  0  0  0  0  0  0
   -0.0420   18.2930  -27.6840 C   0  0  0  0  0  0  0  0  0  0  0  0
    0.6010   17.0900  -27.9930 C   0  0  0  0  0  0  0  0  0  0  0  0
    0.9340   16.7940  -29.3200 C   0  0  0  0  0  0  0  0  0  0  0  0
   -1.5510   17.8490  -33.0570 C   0  0  0  0  0  0  0  0  0  0  0  0
   -1.0100   19.5000  -33.4620 S   0  0  0  0  0  0  0  0  0  0  0  0
    0.3590   19.7930  -32.9160 O   0  0  0  0  0  0  0  0  0  0  0  0
   -0.9490   19.6720  -34.9520 O   0  0  0  0  0  0  0  0  0  0  0  0
   -2.1500   20.6420  -32.7600 C   0  0  0  0  0  0  0  0  0  0  0  0
   -1.9750   21.1220  -31.4550 C   0  0  0  0  0  0  0  0  0  0  0  0
   -2.8860   22.0340  -30.9140 C   0  0  0  0  0  0  0  0  0  0  0  0
   -3.9830   22.4840  -31.6720 C   0  0  0  0  0  0  0  0  0  0  0  0
   -4.9570   23.4360  -31.0960 C   0  0  0  0  0  0  0  0  0  0  0  0
   -4.6110   24.6230  -30.8460 O   0  0  0  0  0  0  0  0  0  0  0  0
   -6.3070   23.0220  -30.8460 N   0  0  0  0  0  0  0  0  0  0  0  0
   -7.2480   22.7080  -31.9140 C   0  0  0  0  0  0  0  0  0  0  0  0
   -7.5510   21.2380  -31.8950 C   0  0  0  0  0  0  0  0  0  0  0  0
   -8.8420   20.7810  -32.2110 C   0  0  0  0  0  0  0  0  0  0  0  0
   -9.1200   19.4100  -32.2220 C   0  0  0  0  0  0  0  0  0  0  0  0
   -8.1120   18.4870  -31.9270 C   0  0  0  0  0  0  0  0  0  0  0  0
   -6.8210   18.9330  -31.6270 C   0  0  0  0  0  0  0  0  0  0  0  0
   -6.5360   20.3030  -31.6160 C   0  0  0  0  0  0  0  0  0  0  0  0
   -4.1460   22.0030  -32.9830 C   0  0  0  0  0  0  0  0  0  0  0  0
   -3.2390   21.0860  -33.5190 C   0  0  0  0  0  0  0  0  0  0  0  0
   -2.8570   17.4200  -33.3980 C   0  0  0  0  0  0  0  0  0  0  0  0
   -3.7610   18.2890  -33.9310 N   0  0  0  0  0  0  0  0  0  0  0  0
   -6.4694   19.4661  -34.0484 H   0  0  0  0  0  0  0  0  0  0  0  0
   -5.3982   19.6343  -35.4806 H   0  0  0  0  0  0  0  0  0  0  0  0
   -6.7120   18.4093  -35.4806 H   0  0  0  0  0  0  0  0  0  0  0  0
   -6.4514   16.2817  -34.3544 H   0  0  0  0  0  0  0  0  0  0  0  0
   -4.8427   14.6223  -33.3995 H   0  0  0  0  0  0  0  0  0  0  0  0
   -2.6070   14.1001  -32.5602 H   0  0  0  0  0  0  0  0  0  0  0  0
   -0.2985   14.8253  -32.0035 H   0  0  0  0  0  0  0  0  0  0  0  0
   -0.3194   19.5977  -30.8328 H   0  0  0  0  0  0  0  0  0  0  0  0
   -0.8744   20.1410  -28.4582 H   0  0  0  0  0  0  0  0  0  0  0  0
   -0.2925   18.5295  -26.6393 H   0  0  0  0  0  0  0  0  0  0  0  0
    0.8452   16.3760  -27.1927 H   0  0  0  0  0  0  0  0  0  0  0  0
    1.4399   15.8474  -29.5607 H   0  0  0  0  0  0  0  0  0  0  0  0
   -1.1187   20.7803  -30.8549 H   0  0  0  0  0  0  0  0  0  0  0  0
   -2.7442   22.4029  -29.8874 H   0  0  0  0  0  0  0  0  0  0  0  0
   -8.1776   23.2763  -31.7630 H   0  0  0  0  0  0  0  0  0  0  0  0
   -6.8068   22.9798  -32.8843 H   0  0  0  0  0  0  0  0  0  0  0  0
   -9.6362   21.5035  -32.4504 H   0  0  0  0  0  0  0  0  0  0  0  0
  -10.1336   19.0574  -32.4632 H   0  0  0  0  0  0  0  0  0  0  0  0
   -8.3345   17.4098  -31.9309 H   0  0  0  0  0  0  0  0  0  0  0  0
   -6.0280   18.2055  -31.3992 H   0  0  0  0  0  0  0  0  0  0  0  0
   -5.5172   20.6500  -31.3890 H   0  0  0  0  0  0  0  0  0  0  0  0
   -4.9939   22.3514  -33.5910 H   0  0  0  0  0  0  0  0  0  0  0  0
   -3.3813   20.7107  -34.5432 H   0  0  0  0  0  0  0  0  0  0  0  0
  1  2  1  0
  2  3  2  0
  3  4  1  0
  4  5  2  0
  5  6  1  0
  6  7  2  0
  7  8  1  0
  8  9  1  0
  9 10  1  0
 10 11  2  0
 11 12  1  0
 12 13  2  0
 13 14  1  0
 14 15  2  0
  8 16  2  0
 16 17  1  0
 17 18  2  0
 17 19  2  0
 17 20  1  0
 20 21  2  0
 21 22  1  0
 22 23  2  0
 23 24  1  0
 24 25  2  0
 24 26  1  0
 26 27  1  0
 27 28  1  0
 28 29  2  0
 29 30  1  0
 30 31  2  0
 31 32  1  0
 32 33  2  0
 23 34  1  0
 34 35  2  0
 16 36  1  0
 36 37  2  0
 37  2  1  0
 36  5  1  0
 15 10  1  0
 35 20  1  0
 33 28  1  0
  1 38  1  0
  1 39  1  0
  1 40  1  0
  3 41  1  0
  4 42  1  0
  6 43  1  0
  7 44  1  0
 11 45  1  0
 12 46  1  0
 13 47  1  0
 14 48  1  0
 15 49  1  0
 21 50  1  0
 22 51  1  0
 27 52  1  0
 27 53  1  0
 29 54  1  0
 30 55  1  0
 31 56  1  0
 32 57  1  0
 33 58  1  0
 34 59  1  0
 35 60  1  0
M  CHG  1  26  -1
M  END
>  <UniqueID>  (47) 
46

>  <SMILES>  (47) 
Cc1ccc2ccc(Sc3ccccc3)c(S(=O)(=O)c3ccc(C(=O)[N-]Cc4ccccc4)cc3)c2n1

>  <Energy>  (47) 
69.74416682916645

>  <Genealogy>  (47) 
Cc1ccc2ccc(Sc3ccccc3)c(S(=O)(=O)c3ccc(C(=O)[N-]Cc4ccccc4)cc3)c2n1 (protonated)
Cc1ccc2ccc(Sc3ccccc3)c(S(=O)(=O)c3ccc(C(=O)[N-]Cc4ccccc4)cc3)c2n1 (3D coordinates assigned)
Cc1ccc2ccc(Sc3ccccc3)c(S(=O)(=O)c3ccc(C(=O)[N-]Cc4ccccc4)cc3)c2n1 (optimized conformer: 69.74416682916645 kcal/mol)

>  <smiles>  (47) 
Cc1ccc2ccc(Sc3ccccc3)c(S(=O)(=O)c3ccc(C(=O)NCc4ccccc4)cc3)c2n1

>  <score_type>  (47) 
oracle

>  <origin>  (47) 
adgpu

>  <m_score__min__energy>  (47) 
-12.02

>  <m_primary>  (47) 
energy

$$$$
47:0
     RDKit          3D

 36 38  0  0  0  0  0  0  0  0999 V2000
   -3.8403   18.7743  -26.6818 H   0  0  0  0  0  0  0  0  0  0  0  0
   -2.9550   19.3290  -27.0260 C   0  0  0  0  0  0  0  0  0  0  0  0
   -1.7350   18.7310  -27.0150 N   0  0  0  0  0  0  0  0  0  0  0  0
   -0.6200   19.3840  -27.4340 C   0  0  0  0  0  0  0  0  0  0  0  0
    0.3545   18.8742  -27.4141 H   0  0  0  0  0  0  0  0  0  0  0  0
   -0.7080   20.7010  -27.8900 C   0  0  0  0  0  0  0  0  0  0  0  0
    0.1953   21.2273  -28.2320 H   0  0  0  0  0  0  0  0  0  0  0  0
   -1.9540   21.3530  -27.9110 C   0  0  0  0  0  0  0  0  0  0  0  0
   -2.0460   22.7550  -28.3950 C   0  0  0  0  0  0  0  0  0  0  0  0
   -3.0980   23.1720  -29.1520 N   0  0  0  0  0  0  0  0  0  0  0  0
   -2.9840   24.4700  -29.5090 C   0  0  0  0  0  0  0  0  0  0  0  0
   -3.8690   25.1190  -30.2050 N   0  0  0  0  0  0  0  0  0  0  0  0
   -5.0560   24.5560  -30.7860 C   0  0  0  0  0  0  0  0  0  0  0  0
   -5.0140   24.1530  -31.9780 O   0  0  0  0  0  0  0  0  0  0  0  0
   -6.3010   24.3730  -30.0180 C   0  0  0  0  0  0  0  0  0  0  0  0
   -6.8050   25.3400  -29.3840 O   0  0  0  0  0  0  0  0  0  0  0  0
   -6.8980   23.1080  -29.9730 O   0  0  0  0  0  0  0  0  0  0  0  0
   -7.9780   22.7220  -30.8210 C   0  0  0  0  0  0  0  0  0  0  0  0
   -8.8726   22.5393  -30.2076 H   0  0  0  0  0  0  0  0  0  0  0  0
   -8.1715   23.5303  -31.5416 H   0  0  0  0  0  0  0  0  0  0  0  0
   -7.6310   21.4680  -31.5770 C   0  0  0  0  0  0  0  0  0  0  0  0
   -6.4000   21.3510  -32.2440 C   0  0  0  0  0  0  0  0  0  0  0  0
   -5.6739   22.1763  -32.2039 H   0  0  0  0  0  0  0  0  0  0  0  0
   -6.0950   20.1880  -32.9590 C   0  0  0  0  0  0  0  0  0  0  0  0
   -5.1292   20.1000  -33.4780 H   0  0  0  0  0  0  0  0  0  0  0  0
   -7.0150   19.1380  -33.0150 C   0  0  0  0  0  0  0  0  0  0  0  0
   -6.7730   18.2237  -33.5766 H   0  0  0  0  0  0  0  0  0  0  0  0
   -8.2430   19.2500  -32.3570 C   0  0  0  0  0  0  0  0  0  0  0  0
   -8.9671   18.4231  -32.4017 H   0  0  0  0  0  0  0  0  0  0  0  0
   -8.5530   20.4110  -31.6420 C   0  0  0  0  0  0  0  0  0  0  0  0
   -9.5222   20.4965  -31.1288 H   0  0  0  0  0  0  0  0  0  0  0  0
   -1.5930   25.1700  -28.8890 S   0  0  0  0  0  0  0  0  0  0  0  0
   -1.0920   23.7470  -28.1420 C   0  0  0  0  0  0  0  0  0  0  0  0
   -0.1709   23.6187  -27.5546 H   0  0  0  0  0  0  0  0  0  0  0  0
   -3.0890   20.6460  -27.4730 C   0  0  0  0  0  0  0  0  0  0  0  0
   -4.0777   21.1281  -27.4825 H   0  0  0  0  0  0  0  0  0  0  0  0
  1  2  1  0
  2  3  2  0
  3  4  1  0
  4  5  1  0
  4  6  2  0
  6  7  1  0
  6  8  1  0
  8  9  1  0
  9 10  1  0
 10 11  1  0
 11 12  2  0
 12 13  1  0
 13 14  2  0
 13 15  1  0
 15 16  2  0
 15 17  1  0
 17 18  1  0
 18 19  1  0
 18 20  1  0
 18 21  1  0
 21 22  2  0
 22 23  1  0
 22 24  1  0
 24 25  1  0
 24 26  2  0
 26 27  1  0
 26 28  1  0
 28 29  1  0
 28 30  2  0
 30 31  1  0
 11 32  1  0
 32 33  1  0
 33 34  1  0
  8 35  2  0
 35 36  1  0
 35  2  1  0
 33  9  2  0
 30 21  1  0
M  CHG  1  10  -1
M  END
>  <UniqueID>  (48) 
47

>  <SMILES>  (48) 
O=C(/N=c1\[n-]c(-c2ccncc2)cs1)C(=O)OCc1ccccc1

>  <Energy>  (48) 
74.58679696791613

>  <Genealogy>  (48) 
O=C(N=c1[n-]c(-c2ccncc2)cs1)C(=O)OCc1ccccc1 (protonated)
O=C(/N=c1\[n-]c(-c2ccncc2)cs1)C(=O)OCc1ccccc1 (cis-trans isomerization)
O=C(/N=c1\[n-]c(-c2ccncc2)cs1)C(=O)OCc1ccccc1 (3D coordinates assigned)
O=C(/N=c1\[n-]c(-c2ccncc2)cs1)C(=O)OCc1ccccc1 (optimized conformer: 74.58679696791613 kcal/mol)

>  <smiles>  (48) 
O=C(N=c1[nH]c(-c2ccncc2)cs1)C(=O)OCc1ccccc1

>  <score_type>  (48) 
oracle

>  <origin>  (48) 
adgpu

>  <m_score__min__energy>  (48) 
-9.3900000000000006

>  <m_primary>  (48) 
energy

$$$$
48:0
     RDKit          3D

 43 46  0  0  0  0  0  0  0  0999 V2000
   -6.6850   18.5900  -33.4700 C   0  0  0  0  0  0  0  0  0  0  0  0
   -7.3610   19.5520  -32.6060 N   0  0  0  0  0  0  0  0  0  0  0  0
   -8.7730   19.7670  -32.5450 C   0  0  0  0  0  0  0  0  0  0  0  0
   -9.6340   18.9640  -32.9960 O   0  0  0  0  0  0  0  0  0  0  0  0
   -9.0580   21.0500  -31.9230 C   0  0  0  0  0  0  0  0  0  0  0  0
  -10.1900   21.5540  -31.6980 O   0  0  0  0  0  0  0  0  0  0  0  0
   -7.7610   21.6390  -31.6360 C   0  0  0  0  0  0  0  0  0  0  0  0
   -7.4350   22.8690  -31.0730 C   0  0  0  0  0  0  0  0  0  0  0  0
   -6.0720   23.1960  -30.9300 C   0  0  0  0  0  0  0  0  0  0  0  0
   -5.6180   24.7210  -30.1760 S   0  0  0  0  0  0  0  0  0  0  0  0
   -6.8590   25.5390  -29.9560 O   0  0  0  0  0  0  0  0  0  0  0  0
   -4.6730   25.4890  -31.0570 O   0  0  0  0  0  0  0  0  0  0  0  0
   -4.8500   24.4210  -28.6490 N   0  0  0  0  0  0  0  0  0  0  0  0
   -3.7090   23.5550  -28.4930 C   0  0  0  0  0  0  0  0  0  0  0  0
   -3.8500   22.2440  -27.9990 C   0  0  0  0  0  0  0  0  0  0  0  0
   -2.7310   21.4170  -27.8280 C   0  0  0  0  0  0  0  0  0  0  0  0
   -1.4470   21.9070  -28.1360 C   0  0  0  0  0  0  0  0  0  0  0  0
   -1.3090   23.1970  -28.6640 C   0  0  0  0  0  0  0  0  0  0  0  0
   -2.4270   24.0180  -28.8370 C   0  0  0  0  0  0  0  0  0  0  0  0
   -2.2520   25.3020  -29.3430 O   0  0  0  0  0  0  0  0  0  0  0  0
   -0.2300   21.0200  -28.0060 C   0  0  0  0  0  0  0  0  0  0  0  0
   -0.4480   19.9080  -27.0710 N   0  0  0  0  0  0  0  0  0  0  0  0
   -1.6700   19.1710  -27.4170 C   0  0  0  0  0  0  0  0  0  0  0  0
   -2.9120   20.0470  -27.2240 C   0  0  0  0  0  0  0  0  0  0  0  0
   -5.0780   22.2930  -31.3720 C   0  0  0  0  0  0  0  0  0  0  0  0
   -5.4340   21.0590  -31.9440 C   0  0  0  0  0  0  0  0  0  0  0  0
   -6.7910   20.7480  -32.0600 C   0  0  0  0  0  0  0  0  0  0  0  0
   -6.1620   17.8458  -32.8514 H   0  0  0  0  0  0  0  0  0  0  0  0
   -7.4265   18.0831  -34.1050 H   0  0  0  0  0  0  0  0  0  0  0  0
   -5.9568   19.1159  -34.1050 H   0  0  0  0  0  0  0  0  0  0  0  0
   -8.2204   23.5674  -30.7483 H   0  0  0  0  0  0  0  0  0  0  0  0
   -5.3280   24.7980  -27.8010 H   0  0  0  0  0  0  0  0  0  0  0  0
   -4.8504   21.8641  -27.7442 H   0  0  0  0  0  0  0  0  0  0  0  0
   -0.3120   23.5673  -28.9450 H   0  0  0  0  0  0  0  0  0  0  0  0
    0.0142   20.6072  -28.9959 H   0  0  0  0  0  0  0  0  0  0  0  0
    0.5935   21.6340  -27.6126 H   0  0  0  0  0  0  0  0  0  0  0  0
   -0.5420   20.2920  -26.1010 H   0  0  0  0  0  0  0  0  0  0  0  0
   -1.6133   18.8538  -28.4688 H   0  0  0  0  0  0  0  0  0  0  0  0
   -1.7514   18.2964  -26.7549 H   0  0  0  0  0  0  0  0  0  0  0  0
   -3.7715   19.5568  -27.7046 H   0  0  0  0  0  0  0  0  0  0  0  0
   -3.0794   20.1692  -26.1437 H   0  0  0  0  0  0  0  0  0  0  0  0
   -4.0157   22.5585  -31.2673 H   0  0  0  0  0  0  0  0  0  0  0  0
   -4.6630   20.3557  -32.2917 H   0  0  0  0  0  0  0  0  0  0  0  0
  1  2  1  0
  2  3  1  0
  3  4  2  0
  3  5  1  0
  5  6  2  0
  5  7  1  0
  7  8  2  0
  8  9  1  0
  9 10  1  0
 10 11  2  0
 10 12  2  0
 10 13  1  0
 13 14  1  0
 14 15  2  0
 15 16  1  0
 16 17  2  0
 17 18  1  0
 18 19  2  0
 19 20  1  0
 17 21  1  0
 21 22  1  0
 22 23  1  0
 23 24  1  0
  9 25  2  0
 25 26  1  0
 26 27  2  0
 27  2  1  0
 27  7  1  0
 19 14  1  0
 24 16  1  0
  1 28  1  0
  1 29  1  0
  1 30  1  0
  8 31  1  0
 13 32  1  0
 15 33  1  0
 18 34  1  0
 21 35  1  0
 21 36  1  0
 22 37  1  0
 23 38  1  0
 23 39  1  0
 24 40  1  0
 24 41  1  0
 25 42  1  0
 26 43  1  0
M  CHG  1  20  -1
M  END
>  <UniqueID>  (49) 
48

>  <SMILES>  (49) 
CN1C(=O)C(=O)c2cc(S(=O)(=O)Nc3cc4c(cc3[O-])CNCC4)ccc21

>  <Energy>  (49) 
82.49906680971543

>  <Genealogy>  (49) 
CN1C(=O)C(=O)c2cc(S(=O)(=O)Nc3cc4c(cc3[O-])CNCC4)ccc21 (protonated)
CN1C(=O)C(=O)c2cc(S(=O)(=O)Nc3cc4c(cc3[O-])CNCC4)ccc21 (3D coordinates assigned)
CN1C(=O)C(=O)c2cc(S(=O)(=O)Nc3cc4c(cc3[O-])CNCC4)ccc21 (nonaromatic ring conformer: 82.49906680971543 kcal/mol)

>  <smiles>  (49) 
CN1C(=O)C(=O)c2cc(S(=O)(=O)Nc3cc4c(cc3O)CNCC4)ccc21

>  <score_type>  (49) 
oracle

>  <origin>  (49) 
adgpu

>  <m_score__min__energy>  (49) 
-13.789999999999999

>  <m_primary>  (49) 
energy

$$$$
49:0
     RDKit          3D

 33 35  0  0  0  0  0  0  0  0999 V2000
   -9.4830   19.4430  -32.6590 C   0  0  0  0  0  0  0  0  0  0  0  0
   -8.2840   18.8210  -31.4380 S   0  0  0  0  0  0  0  0  0  0  0  0
   -6.9730   18.6100  -32.6540 C   0  0  0  0  0  0  0  0  0  0  0  0
   -6.8640   17.3760  -33.3100 C   0  0  0  0  0  0  0  0  0  0  0  0
   -5.8340   17.1510  -34.2260 C   0  0  0  0  0  0  0  0  0  0  0  0
   -4.9020   18.1550  -34.4910 C   0  0  0  0  0  0  0  0  0  0  0  0
   -5.0020   19.3910  -33.8460 C   0  0  0  0  0  0  0  0  0  0  0  0
   -6.0410   19.6370  -32.9330 C   0  0  0  0  0  0  0  0  0  0  0  0
   -6.1180   20.9580  -32.2730 C   0  0  0  0  0  0  0  0  0  0  0  0
   -7.2920   21.7220  -32.3440 C   0  0  0  0  0  0  0  0  0  0  0  0
   -7.3600   22.9680  -31.7170 C   0  0  0  0  0  0  0  0  0  0  0  0
   -6.2530   23.4670  -31.0270 C   0  0  0  0  0  0  0  0  0  0  0  0
   -5.0600   22.7290  -30.9700 C   0  0  0  0  0  0  0  0  0  0  0  0
   -3.8890   23.2400  -30.2280 C   0  0  0  0  0  0  0  0  0  0  0  0
   -3.0030   22.4990  -29.4710 C   0  0  0  0  0  0  0  0  0  0  0  0
   -2.0900   23.3220  -28.9180 N   0  0  0  0  0  0  0  0  0  0  0  0
   -2.3490   24.5640  -29.3020 N   0  0  0  0  0  0  0  0  0  0  0  0
   -3.4300   24.5380  -30.1000 C   0  0  0  0  0  0  0  0  0  0  0  0
   -3.9410   25.6740  -30.7230 O   0  0  0  0  0  0  0  0  0  0  0  0
   -5.0030   21.4690  -31.5890 C   0  0  0  0  0  0  0  0  0  0  0  0
  -10.3418   19.8885  -32.1355 H   0  0  0  0  0  0  0  0  0  0  0  0
   -9.0022   20.2054  -33.2896 H   0  0  0  0  0  0  0  0  0  0  0  0
   -9.8294   18.6109  -33.2896 H   0  0  0  0  0  0  0  0  0  0  0  0
   -7.5942   16.5800  -33.1021 H   0  0  0  0  0  0  0  0  0  0  0  0
   -5.7574   16.1811  -34.7392 H   0  0  0  0  0  0  0  0  0  0  0  0
   -4.0879   17.9737  -35.2081 H   0  0  0  0  0  0  0  0  0  0  0  0
   -4.2615   20.1771  -34.0549 H   0  0  0  0  0  0  0  0  0  0  0  0
   -8.1628   21.3382  -32.8958 H   0  0  0  0  0  0  0  0  0  0  0  0
   -8.2873   23.5576  -31.7667 H   0  0  0  0  0  0  0  0  0  0  0  0
   -6.3162   24.4439  -30.5253 H   0  0  0  0  0  0  0  0  0  0  0  0
   -3.0371   21.4074  -29.3398 H   0  0  0  0  0  0  0  0  0  0  0  0
   -4.1930   25.6790  -31.7030 H   0  0  0  0  0  0  0  0  0  0  0  0
   -4.0769   20.8776  -31.5374 H   0  0  0  0  0  0  0  0  0  0  0  0
  1  2  1  0
  2  3  1  0
  3  4  2  0
  4  5  1  0
  5  6  2  0
  6  7  1  0
  7  8  2  0
  8  9  1  0
  9 10  2  0
 10 11  1  0
 11 12  2  0
 12 13  1  0
 13 14  1  0
 14 15  2  0
 15 16  1  0
 16 17  1  0
 17 18  2  0
 18 19  1  0
 13 20  2  0
  8  3  1  0
 20  9  1  0
 18 14  1  0
  1 21  1  0
  1 22  1  0
  1 23  1  0
  4 24  1  0
  5 25  1  0
  6 26  1  0
  7 27  1  0
 10 28  1  0
 11 29  1  0
 12 30  1  0
 15 31  1  0
 19 32  1  0
 20 33  1  0
M  CHG  1  16  -1
M  END
>  <UniqueID>  (50) 
49

>  <SMILES>  (50) 
CSc1ccccc1-c1cccc(-c2c[n-]nc2O)c1

>  <Energy>  (50) 
73.42819207840651

>  <Genealogy>  (50) 
CSc1ccccc1-c1cccc(-c2c[n-]nc2O)c1 (protonated)
CSc1ccccc1-c1cccc(-c2c[n-]nc2O)c1 (3D coordinates assigned)
CSc1ccccc1-c1cccc(-c2c[n-]nc2O)c1 (optimized conformer: 73.42819207840651 kcal/mol)

>  <smiles>  (50) 
CSc1ccccc1-c1cccc(-c2c[nH]nc2O)c1

>  <score_type>  (50) 
oracle

>  <origin>  (50) 
adgpu

>  <m_score__min__energy>  (50) 
-9.8800000000000008

>  <m_primary>  (50) 
energy

$$$$
