0:0
     RDKit          3D

 60 64  0  0  0  0  0  0  0  0999 V2000
   -0.4740   23.2080  -24.0330 C   0  0  0  0  0  0  0  0  0  0  0  0
    0.2760   24.4430  -24.3370 N   0  0  0  0  0  0  0  0  0  0  0  0
    0.9360   24.3670  -25.6720 C   0  0  0  0  0  0  0  0  0  0  0  0
    0.1920   25.1330  -26.7830 C   0  0  0  0  0  0  0  0  0  0  0  0
   -1.2480   25.1580  -26.5140 N   0  0  0  0  0  0  0  0  0  0  0  0
   -2.2000   24.6890  -27.4890 C   0  0  0  0  0  0  0  0  0  0  0  0
   -3.5590   24.5690  -27.1570 C   0  0  0  0  0  0  0  0  0  0  0  0
   -4.4850   24.1300  -28.1070 C   0  0  0  0  0  0  0  0  0  0  0  0
   -4.0710   23.8070  -29.4120 C   0  0  0  0  0  0  0  0  0  0  0  0
   -5.0550   23.3390  -30.4220 C   0  0  0  0  0  0  0  0  0  0  0  0
   -5.9960   24.2280  -30.9670 C   0  0  0  0  0  0  0  0  0  0  0  0
   -6.9210   23.7860  -31.9150 C   0  0  0  0  0  0  0  0  0  0  0  0
   -6.9190   22.4530  -32.3300 C   0  0  0  0  0  0  0  0  0  0  0  0
   -5.9890   21.5430  -31.7990 C   0  0  0  0  0  0  0  0  0  0  0  0
   -5.9880   20.1230  -32.2380 C   0  0  0  0  0  0  0  0  0  0  0  0
   -6.9740   19.2340  -31.7810 C   0  0  0  0  0  0  0  0  0  0  0  0
   -6.9760   17.9000  -32.1970 C   0  0  0  0  0  0  0  0  0  0  0  0
   -5.9900   17.4250  -33.0800 C   0  0  0  0  0  0  0  0  0  0  0  0
   -5.9810   16.0100  -33.5250 C   0  0  0  0  0  0  0  0  0  0  0  0
   -5.0700   15.1600  -33.1900 N   0  0  0  0  0  0  0  0  0  0  0  0
   -5.3470   13.8530  -33.7730 C   0  0  0  0  0  0  0  0  0  0  0  0
   -6.6430   14.0520  -34.5750 C   0  0  0  0  0  0  0  0  0  0  0  0
   -6.9830   15.4450  -34.3520 N   0  0  0  0  0  0  0  0  0  0  0  0
   -5.0010   18.3130  -33.5330 C   0  0  0  0  0  0  0  0  0  0  0  0
   -5.0000   19.6480  -33.1180 C   0  0  0  0  0  0  0  0  0  0  0  0
   -5.0600   21.9960  -30.8440 C   0  0  0  0  0  0  0  0  0  0  0  0
   -2.7120   23.9370  -29.7440 C   0  0  0  0  0  0  0  0  0  0  0  0
   -1.7870   24.3780  -28.7940 C   0  0  0  0  0  0  0  0  0  0  0  0
   -1.7080   25.6830  -25.2240 C   0  0  0  0  0  0  0  0  0  0  0  0
   -0.5750   25.6460  -24.1840 C   0  0  0  0  0  0  0  0  0  0  0  0
   -0.5494   23.0838  -22.9426 H   0  0  0  0  0  0  0  0  0  0  0  0
   -1.4833   23.2763  -24.4649 H   0  0  0  0  0  0  0  0  0  0  0  0
    0.0520   22.3439  -24.4649 H   0  0  0  0  0  0  0  0  0  0  0  0
    1.0320   24.5140  -23.6140 H   0  0  0  0  0  0  0  0  0  0  0  0
    1.9490   24.7861  -25.5815 H   0  0  0  0  0  0  0  0  0  0  0  0
    0.9412   23.3067  -25.9648 H   0  0  0  0  0  0  0  0  0  0  0  0
    0.5700   26.1651  -26.8265 H   0  0  0  0  0  0  0  0  0  0  0  0
    0.3656   24.6245  -27.7429 H   0  0  0  0  0  0  0  0  0  0  0  0
   -3.8973   24.8225  -26.1415 H   0  0  0  0  0  0  0  0  0  0  0  0
   -5.5460   24.0363  -27.8322 H   0  0  0  0  0  0  0  0  0  0  0  0
   -6.0043   25.2797  -30.6448 H   0  0  0  0  0  0  0  0  0  0  0  0
   -7.6536   24.4903  -32.3362 H   0  0  0  0  0  0  0  0  0  0  0  0
   -7.6504   22.1127  -33.0778 H   0  0  0  0  0  0  0  0  0  0  0  0
   -7.7516   19.5907  -31.0895 H   0  0  0  0  0  0  0  0  0  0  0  0
   -7.7554   17.2157  -31.8307 H   0  0  0  0  0  0  0  0  0  0  0  0
   -4.2590   15.3560  -32.5630 H   0  0  0  0  0  0  0  0  0  0  0  0
   -4.5253   13.5409  -34.4344 H   0  0  0  0  0  0  0  0  0  0  0  0
   -5.4462   13.0682  -33.0086 H   0  0  0  0  0  0  0  0  0  0  0  0
   -6.4750   13.8568  -35.6444 H   0  0  0  0  0  0  0  0  0  0  0  0
   -7.4438   13.3654  -34.2630 H   0  0  0  0  0  0  0  0  0  0  0  0
   -7.7840   15.9480  -34.7930 H   0  0  0  0  0  0  0  0  0  0  0  0
   -4.2203   17.9551  -34.2203 H   0  0  0  0  0  0  0  0  0  0  0  0
   -4.2199   20.3322  -33.4830 H   0  0  0  0  0  0  0  0  0  0  0  0
   -4.3282   21.2916  -30.4218 H   0  0  0  0  0  0  0  0  0  0  0  0
   -2.3732   23.6894  -30.7608 H   0  0  0  0  0  0  0  0  0  0  0  0
   -0.7275   24.4822  -29.0708 H   0  0  0  0  0  0  0  0  0  0  0  0
   -2.0424   26.7226  -25.3562 H   0  0  0  0  0  0  0  0  0  0  0  0
   -2.5377   25.0569  -24.8641 H   0  0  0  0  0  0  0  0  0  0  0  0
    0.0506   26.5423  -24.3076 H   0  0  0  0  0  0  0  0  0  0  0  0
   -1.0313   25.6159  -23.1836 H   0  0  0  0  0  0  0  0  0  0  0  0
  1  2  1  0
  2  3  1  0
  3  4  1  0
  4  5  1  0
  5  6  1  0
  6  7  2  0
  7  8  1  0
  8  9  2  0
  9 10  1  0
 10 11  2  0
 11 12  1  0
 12 13  2  0
 13 14  1  0
 14 15  1  0
 15 16  2  0
 16 17  1  0
 17 18  2  0
 18 19  1  0
 19 20  2  0
 20 21  1  0
 21 22  1  0
 22 23  1  0
 18 24  1  0
 24 25  2  0
 14 26  2  0
  9 27  1  0
 27 28  2  0
  5 29  1  0
 29 30  1  0
 30  2  1  0
 28  6  1  0
 26 10  1  0
 25 15  1  0
 23 19  1  0
  1 31  1  0
  1 32  1  0
  1 33  1  0
  2 34  1  0
  3 35  1  0
  3 36  1  0
  4 37  1  0
  4 38  1  0
  7 39  1  0
  8 40  1  0
 11 41  1  0
 12 42  1  0
 13 43  1  0
 16 44  1  0
 17 45  1  0
 20 46  1  0
 21 47  1  0
 21 48  1  0
 22 49  1  0
 22 50  1  0
 23 51  1  0
 24 52  1  0
 25 53  1  0
 26 54  1  0
 27 55  1  0
 28 56  1  0
 29 57  1  0
 29 58  1  0
 30 59  1  0
 30 60  1  0
M  CHG  2   2   1  20   1
M  END
>  <UniqueID>  (1) 
1

>  <SMILES>  (1) 
C[NH+]1CCN(c2ccc(-c3cccc(-c4ccc(C5=[NH+]CCN5)cc4)c3)cc2)CC1

>  <Energy>  (1) 
99.86426606514964

>  <Genealogy>  (1) 
C[NH+]1CCN(c2ccc(-c3cccc(-c4ccc(C5=[NH+]CCN5)cc4)c3)cc2)CC1 (protonated)
C[NH+]1CCN(c2ccc(-c3cccc(-c4ccc(C5=[NH+]CCN5)cc4)c3)cc2)CC1 (3D coordinates assigned)
C[NH+]1CCN(c2ccc(-c3cccc(-c4ccc(C5=[NH+]CCN5)cc4)c3)cc2)CC1 (nonaromatic ring conformer: 99.86426606514964 kcal/mol)

>  <smiles>  (1) 
CN1CCN(c2ccc(-c3cccc(-c4ccc(C5=NCCN5)cc4)c3)cc2)CC1

>  <score_type>  (1) 
oracle

>  <origin>  (1) 
adgpu

>  <m_score__min__energy>  (1) 
-9.1899999999999995

>  <m_primary>  (1) 
energy

$$$$
1:0
     RDKit          3D

 51 54  0  0  1  0  0  0  0  0999 V2000
   -1.8850   15.7740  -35.8130 C   0  0  0  0  0  0  0  0  0  0  0  0
   -2.7820   16.2910  -34.7950 N   0  0  0  0  0  0  0  0  0  0  0  0
   -4.0050   16.9350  -35.0990 C   0  0  0  0  0  0  0  0  0  0  0  0
   -4.2850   17.0390  -36.3420 O   0  0  0  0  0  0  0  0  0  0  0  0
   -4.8990   17.4510  -34.0840 C   0  0  0  0  0  0  0  0  0  0  0  0
   -6.1520   16.9370  -33.8230 C   0  0  0  0  0  0  0  0  0  0  0  0
   -6.9780   17.4600  -32.8420 C   0  0  0  0  0  0  0  0  0  0  0  0
   -6.5510   18.5360  -32.0860 C   0  0  0  0  0  0  0  0  0  0  0  0
   -5.2890   19.0500  -32.3520 C   0  0  0  0  0  0  0  0  0  0  0  0
   -4.9000   20.1680  -31.5350 N   0  0  0  0  0  0  0  0  0  0  0  0
   -5.6510   21.2210  -31.4340 C   0  0  0  0  0  0  0  0  0  0  0  0
   -6.8090   21.2280  -32.1250 N   0  0  0  0  0  0  0  0  0  0  0  0
   -7.6640   22.2900  -32.0820 C   0  0  0  0  0  0  0  0  0  0  0  0
   -7.2970   23.3670  -31.3000 C   0  0  0  0  0  0  0  0  0  0  0  0
   -6.1090   23.3130  -30.6160 C   0  0  0  0  0  0  0  0  0  0  0  0
   -5.7790   24.3220  -29.8900 N   0  0  0  0  0  0  0  0  0  0  0  0
   -4.5840   24.4150  -29.1240 C   0  0  0  0  0  0  0  0  0  0  0  0
   -3.3930   24.4540  -29.8550 C   0  0  0  0  0  0  0  0  0  0  0  0
   -2.1810   24.5440  -29.1950 C   0  0  0  0  0  0  0  0  0  0  0  0
   -2.1840   24.5920  -27.8140 C   0  0  0  0  0  0  0  0  0  0  0  0
   -0.8880   24.6860  -27.1510 C   0  0  0  0  0  0  0  0  0  0  0  0
   -0.5730   24.5250  -25.8160 C   0  0  0  0  0  0  0  0  0  0  0  0
    0.7410   24.6990  -25.6450 N   0  0  0  0  0  0  0  0  0  0  0  0
    1.5340   24.6310  -24.4390 C   0  0  0  0  0  0  0  0  0  0  0  0
    1.2830   24.9730  -26.8650 C   0  0  0  0  0  0  0  0  0  0  0  0
    0.2800   24.9620  -27.7730 N   0  0  0  0  0  0  0  0  0  0  0  0
   -3.3420   24.5550  -27.0650 C   0  0  0  0  0  0  0  0  0  0  0  0
   -4.5550   24.4640  -27.7570 C   0  0  0  0  0  0  0  0  0  0  0  0
   -5.2670   22.2640  -30.6590 N   0  0  0  0  0  0  0  0  0  0  0  0
   -4.4910   18.5250  -33.3200 C   0  0  0  0  0  0  0  0  0  0  0  0
   -1.0285   15.2803  -35.3306 H   0  0  0  0  0  0  0  0  0  0  0  0
   -2.4220   15.0468  -36.4398 H   0  0  0  0  0  0  0  0  0  0  0  0
   -1.5250   16.6031  -36.4398 H   0  0  0  0  0  0  0  0  0  0  0  0
   -2.4870   16.1700  -33.7970 H   0  0  0  0  0  0  0  0  0  0  0  0
   -6.5080   16.0811  -34.4152 H   0  0  0  0  0  0  0  0  0  0  0  0
   -7.9708   17.0206  -32.6649 H   0  0  0  0  0  0  0  0  0  0  0  0
   -7.1886   18.9695  -31.3015 H   0  0  0  0  0  0  0  0  0  0  0  0
   -7.1260   20.4380  -32.7280 H   0  0  0  0  0  0  0  0  0  0  0  0
   -8.6076   22.2884  -32.6474 H   0  0  0  0  0  0  0  0  0  0  0  0
   -7.9455   24.2525  -31.2267 H   0  0  0  0  0  0  0  0  0  0  0  0
   -3.4198   24.4131  -30.9539 H   0  0  0  0  0  0  0  0  0  0  0  0
   -1.2358   24.5766  -29.7568 H   0  0  0  0  0  0  0  0  0  0  0  0
   -1.2920   24.2900  -25.0174 H   0  0  0  0  0  0  0  0  0  0  0  0
    0.8728   24.6877  -23.5617 H   0  0  0  0  0  0  0  0  0  0  0  0
    2.0897   23.6819  -24.4186 H   0  0  0  0  0  0  0  0  0  0  0  0
    2.2432   25.4716  -24.4186 H   0  0  0  0  0  0  0  0  0  0  0  0
    2.3452   25.1681  -27.0740 H   0  0  0  0  0  0  0  0  0  0  0  0
   -3.3130   24.5955  -25.9661 H   0  0  0  0  0  0  0  0  0  0  0  0
   -5.4991   24.4314  -27.1935 H   0  0  0  0  0  0  0  0  0  0  0  0
   -4.3720   22.2590  -30.1250 H   0  0  0  0  0  0  0  0  0  0  0  0
   -3.4991   18.9660  -33.4977 H   0  0  0  0  0  0  0  0  0  0  0  0
  1  2  1  0
  2  3  1  0
  3  4  2  0
  3  5  1  0
  5  6  2  0
  6  7  1  0
  7  8  2  0
  8  9  1  0
  9 10  1  0
 10 11  2  0
 11 12  1  0
 12 13  1  0
 13 14  2  0
 14 15  1  0
 15 16  2  0
 16 17  1  0
 17 18  2  0
 18 19  1  0
 19 20  2  0
 20 21  1  0
 21 22  2  0
 22 23  1  0
 23 24  1  0
 23 25  1  0
 25 26  2  0
 20 27  1  0
 27 28  2  0
 15 29  1  0
  9 30  2  0
 30  5  1  0
 29 11  1  0
 28 17  1  0
 26 21  1  0
  1 31  1  0
  1 32  1  0
  1 33  1  0
  2 34  1  0
  6 35  1  0
  7 36  1  0
  8 37  1  0
 12 38  1  0
 13 39  1  0
 14 40  1  0
 18 41  1  0
 19 42  1  0
 22 43  1  0
 24 44  1  0
 24 45  1  0
 24 46  1  0
 25 47  1  0
 27 48  1  0
 28 49  1  0
 29 50  1  0
 30 51  1  0
M  END
>  <smiles>  (2) 
CNC(=O)c1cccc(N=c2[nH]ccc(=Nc3ccc(-c4cn(C)cn4)cc3)[nH]2)c1

>  <score_type>  (2) 
oracle

>  <origin>  (2) 
adgpu

>  <m_score__min__energy>  (2) 
-9.2300000000000004

>  <m_primary>  (2) 
energy

$$$$
2:0
     RDKit          3D

 35 37  0  0  0  0  0  0  0  0999 V2000
   -4.9592   19.5311  -31.5754 H   0  0  0  0  0  0  0  0  0  0  0  0
   -4.1950   20.1780  -32.0310 C   0  0  0  0  0  0  0  0  0  0  0  0
   -3.5350   19.7580  -33.0660 N   0  0  0  0  0  0  0  0  0  0  0  0
   -3.7330   18.4900  -33.6440 N   0  0  0  0  0  0  0  0  0  0  0  0
   -4.8330   18.0870  -34.3100 C   0  0  0  0  0  0  0  0  0  0  0  0
   -6.0000   18.9640  -34.6460 C   0  0  0  0  0  0  0  0  0  0  0  0
   -5.6310   19.9416  -34.9897 H   0  0  0  0  0  0  0  0  0  0  0  0
   -6.5909   18.4816  -35.4386 H   0  0  0  0  0  0  0  0  0  0  0  0
   -6.8760   19.1620  -33.4380 C   0  0  0  0  0  0  0  0  0  0  0  0
   -7.3040   18.0520  -32.6890 C   0  0  0  0  0  0  0  0  0  0  0  0
   -6.9747   17.0407  -32.9700 H   0  0  0  0  0  0  0  0  0  0  0  0
   -8.1470   18.2300  -31.5880 C   0  0  0  0  0  0  0  0  0  0  0  0
   -8.4756   17.3589  -31.0022 H   0  0  0  0  0  0  0  0  0  0  0  0
   -8.5730   19.5110  -31.2300 C   0  0  0  0  0  0  0  0  0  0  0  0
   -9.2375   19.6475  -30.3641 H   0  0  0  0  0  0  0  0  0  0  0  0
   -8.1550   20.6200  -31.9720 C   0  0  0  0  0  0  0  0  0  0  0  0
   -8.4925   21.6286  -31.6911 H   0  0  0  0  0  0  0  0  0  0  0  0
   -7.3080   20.4470  -33.0710 C   0  0  0  0  0  0  0  0  0  0  0  0
   -6.9784   21.3216  -33.6510 H   0  0  0  0  0  0  0  0  0  0  0  0
   -4.7450   16.7840  -34.6580 N   0  0  0  0  0  0  0  0  0  0  0  0
   -3.5820   16.3520  -34.1890 N   0  0  0  0  0  0  0  0  0  0  0  0
   -3.2400   15.3690  -34.2680 H   0  0  0  0  0  0  0  0  0  0  0  0
   -2.9720   17.3790  -33.5710 C   0  0  0  0  0  0  0  0  0  0  0  0
   -1.5920   17.2200  -32.7000 S   0  0  0  0  0  0  0  0  0  0  0  0
   -3.9340   21.5120  -31.4570 C   0  0  0  0  0  0  0  0  0  0  0  0
   -2.6580   21.8080  -30.9510 C   0  0  0  0  0  0  0  0  0  0  0  0
   -1.8674   21.0437  -30.9796 H   0  0  0  0  0  0  0  0  0  0  0  0
   -2.3870   23.0690  -30.4110 C   0  0  0  0  0  0  0  0  0  0  0  0
   -1.3854   23.2924  -30.0150 H   0  0  0  0  0  0  0  0  0  0  0  0
   -3.3860   24.0470  -30.3730 C   0  0  0  0  0  0  0  0  0  0  0  0
   -3.1140   25.2980  -29.8360 O   0  0  0  0  0  0  0  0  0  0  0  0
   -4.6590   23.7610  -30.8740 C   0  0  0  0  0  0  0  0  0  0  0  0
   -5.4454   24.5296  -30.8442 H   0  0  0  0  0  0  0  0  0  0  0  0
   -4.9360   22.5010  -31.4130 C   0  0  0  0  0  0  0  0  0  0  0  0
   -5.9403   22.2812  -31.8042 H   0  0  0  0  0  0  0  0  0  0  0  0
  1  2  1  0
  2  3  2  0
  3  4  1  0
  4  5  1  0
  5  6  1  0
  6  7  1  0
  6  8  1  0
  6  9  1  0
  9 10  2  0
 10 11  1  0
 10 12  1  0
 12 13  1  0
 12 14  2  0
 14 15  1  0
 14 16  1  0
 16 17  1  0
 16 18  2  0
 18 19  1  0
  5 20  2  0
 20 21  1  0
 21 22  1  0
 21 23  1  0
 23 24  2  0
  2 25  1  0
 25 26  2  0
 26 27  1  0
 26 28  1  0
 28 29  1  0
 28 30  2  0
 30 31  1  0
 30 32  1  0
 32 33  1  0
 32 34  2  0
 34 35  1  0
 23  4  1  0
 34 25  1  0
 18  9  1  0
M  CHG  1  31  -1
M  END
>  <UniqueID>  (3) 
2

>  <SMILES>  (3) 
[O-]c1ccc(/C=N/n2c(Cc3ccccc3)n[nH]c2=S)cc1

>  <Energy>  (3) 
77.33753398119198

>  <Genealogy>  (3) 
[O-]c1ccc(C=Nn2c(Cc3ccccc3)n[nH]c2=S)cc1 (protonated)
[O-]c1ccc(/C=N/n2c(Cc3ccccc3)n[nH]c2=S)cc1 (cis-trans isomerization)
[O-]c1ccc(/C=N/n2c(Cc3ccccc3)n[nH]c2=S)cc1 (3D coordinates assigned)
[O-]c1ccc(/C=N/n2c(Cc3ccccc3)n[nH]c2=S)cc1 (optimized conformer: 77.33753398119198 kcal/mol)

>  <smiles>  (3) 
Oc1ccc(C=Nn2c(Cc3ccccc3)n[nH]c2=S)cc1

>  <score_type>  (3) 
oracle

>  <origin>  (3) 
adgpu

>  <m_score__min__energy>  (3) 
-10.68

>  <m_primary>  (3) 
energy

$$$$
3:0
     RDKit          3D

 46 48  0  0  0  0  0  0  0  0999 V2000
   -1.9150   19.4810  -34.0760 C   0  0  0  0  0  0  0  0  0  0  0  0
   -3.0480   18.4950  -34.0960 C   0  0  0  0  0  0  0  0  0  0  0  0
   -2.9310   17.2950  -34.8070 C   0  0  0  0  0  0  0  0  0  0  0  0
   -3.9830   16.3810  -34.8210 C   0  0  0  0  0  0  0  0  0  0  0  0
   -5.1780   16.6520  -34.1320 C   0  0  0  0  0  0  0  0  0  0  0  0
   -6.2670   15.6130  -34.1400 C   0  0  0  0  0  0  0  0  0  0  0  0
   -5.3280   17.8980  -33.4710 C   0  0  0  0  0  0  0  0  0  0  0  0
   -6.8260   18.3610  -32.6450 S   0  0  0  0  0  0  0  0  0  0  0  0
   -6.6060   18.2740  -31.1620 O   0  0  0  0  0  0  0  0  0  0  0  0
   -7.9660   17.4580  -33.0250 O   0  0  0  0  0  0  0  0  0  0  0  0
   -7.2590   19.9910  -33.0590 N   0  0  0  0  0  0  0  0  0  0  0  0
   -6.7610   21.1540  -32.3740 C   0  0  0  0  0  0  0  0  0  0  0  0
   -7.6120   21.8470  -31.4980 C   0  0  0  0  0  0  0  0  0  0  0  0
   -7.1580   22.9760  -30.8060 C   0  0  0  0  0  0  0  0  0  0  0  0
   -5.8450   23.4300  -30.9860 C   0  0  0  0  0  0  0  0  0  0  0  0
   -5.2890   24.8650  -30.1320 S   0  0  0  0  0  0  0  0  0  0  0  0
   -4.2350   25.5660  -30.9470 O   0  0  0  0  0  0  0  0  0  0  0  0
   -6.4550   25.7870  -29.9110 O   0  0  0  0  0  0  0  0  0  0  0  0
   -4.6050   24.3960  -28.6060 N   0  0  0  0  0  0  0  0  0  0  0  0
   -3.3390   24.4860  -28.3270 C   0  0  0  0  0  0  0  0  0  0  0  0
   -2.8770   24.0790  -27.0680 C   0  0  0  0  0  0  0  0  0  0  0  0
   -1.5110   24.1740  -26.7750 C   0  0  0  0  0  0  0  0  0  0  0  0
   -0.6260   24.6710  -27.7340 C   0  0  0  0  0  0  0  0  0  0  0  0
   -1.1210   25.0690  -28.9790 C   0  0  0  0  0  0  0  0  0  0  0  0
   -2.4530   24.9700  -29.2460 N   0  0  0  0  0  0  0  0  0  0  0  0
   -4.9910   22.7470  -31.8600 C   0  0  0  0  0  0  0  0  0  0  0  0
   -5.4410   21.6170  -32.5480 C   0  0  0  0  0  0  0  0  0  0  0  0
   -4.2510   18.7970  -33.4470 C   0  0  0  0  0  0  0  0  0  0  0  0
   -1.6489   19.7126  -33.0341 H   0  0  0  0  0  0  0  0  0  0  0  0
   -1.0436   19.0487  -34.5896 H   0  0  0  0  0  0  0  0  0  0  0  0
   -2.2228   20.4037  -34.5896 H   0  0  0  0  0  0  0  0  0  0  0  0
   -2.0048   17.0724  -35.3570 H   0  0  0  0  0  0  0  0  0  0  0  0
   -3.8772   15.4378  -35.3770 H   0  0  0  0  0  0  0  0  0  0  0  0
   -6.5363   15.3561  -33.1049 H   0  0  0  0  0  0  0  0  0  0  0  0
   -7.1503   16.0116  -34.6605 H   0  0  0  0  0  0  0  0  0  0  0  0
   -5.9103   14.7120  -34.6605 H   0  0  0  0  0  0  0  0  0  0  0  0
   -7.9480   20.1160  -33.8330 H   0  0  0  0  0  0  0  0  0  0  0  0
   -8.6456   21.4993  -31.3541 H   0  0  0  0  0  0  0  0  0  0  0  0
   -7.8335   23.5076  -30.1196 H   0  0  0  0  0  0  0  0  0  0  0  0
   -3.5803   23.6889  -26.3176 H   0  0  0  0  0  0  0  0  0  0  0  0
   -1.1356   23.8575  -25.7907 H   0  0  0  0  0  0  0  0  0  0  0  0
    0.4486   24.7484  -27.5121 H   0  0  0  0  0  0  0  0  0  0  0  0
   -0.4347   25.4623  -29.7434 H   0  0  0  0  0  0  0  0  0  0  0  0
   -3.9601   23.1018  -32.0060 H   0  0  0  0  0  0  0  0  0  0  0  0
   -4.7608   21.0854  -33.2297 H   0  0  0  0  0  0  0  0  0  0  0  0
   -4.3534   19.7521  -32.9109 H   0  0  0  0  0  0  0  0  0  0  0  0
  1  2  1  0
  2  3  2  0
  3  4  1  0
  4  5  2  0
  5  6  1  0
  5  7  1  0
  7  8  1  0
  8  9  2  0
  8 10  2  0
  8 11  1  0
 11 12  1  0
 12 13  2  0
 13 14  1  0
 14 15  2  0
 15 16  1  0
 16 17  2  0
 16 18  2  0
 16 19  1  0
 19 20  2  3
 20 21  1  0
 21 22  2  0
 22 23  1  0
 23 24  2  0
 24 25  1  0
 15 26  1  0
 26 27  2  0
  7 28  2  0
 28  2  1  0
 27 12  1  0
 25 20  1  0
  1 29  1  0
  1 30  1  0
  1 31  1  0
  3 32  1  0
  4 33  1  0
  6 34  1  0
  6 35  1  0
  6 36  1  0
 11 37  1  0
 13 38  1  0
 14 39  1  0
 21 40  1  0
 22 41  1  0
 23 42  1  0
 24 43  1  0
 26 44  1  0
 27 45  1  0
 28 46  1  0
M  CHG  1  25  -1
M  END
>  <UniqueID>  (4) 
3

>  <SMILES>  (4) 
Cc1ccc(C)c(S(=O)(=O)Nc2ccc(S(=O)(=O)N=c3cccc[n-]3)cc2)c1

>  <Energy>  (4) 
56.55554662116853

>  <Genealogy>  (4) 
Cc1ccc(C)c(S(=O)(=O)Nc2ccc(S(=O)(=O)N=c3cccc[n-]3)cc2)c1 (protonated)
Cc1ccc(C)c(S(=O)(=O)Nc2ccc(S(=O)(=O)N=c3cccc[n-]3)cc2)c1 (3D coordinates assigned)
Cc1ccc(C)c(S(=O)(=O)Nc2ccc(S(=O)(=O)N=c3cccc[n-]3)cc2)c1 (optimized conformer: 56.55554662116853 kcal/mol)

>  <smiles>  (4) 
Cc1ccc(C)c(S(=O)(=O)Nc2ccc(S(=O)(=O)N=c3cccc[nH]3)cc2)c1

>  <score_type>  (4) 
oracle

>  <origin>  (4) 
adgpu

>  <m_score__min__energy>  (4) 
-11.34

>  <m_primary>  (4) 
energy

$$$$
4:0
     RDKit          3D

 66 70  0  0  0  0  0  0  0  0999 V2000
    0.1130   20.5750  -32.5950 O   0  0  0  0  0  0  0  0  0  0  0  0
   -0.7940   20.5310  -33.4700 C   0  0  0  0  0  0  0  0  0  0  0  0
   -0.6290   21.2440  -34.7060 N   0  0  0  0  0  0  0  0  0  0  0  0
    0.6460   21.6220  -35.2510 C   0  0  0  0  0  0  0  0  0  0  0  0
    1.6770   20.6730  -35.3130 C   0  0  0  0  0  0  0  0  0  0  0  0
    2.9360   21.0260  -35.8070 C   0  0  0  0  0  0  0  0  0  0  0  0
    3.1800   22.3320  -36.2340 C   0  0  0  0  0  0  0  0  0  0  0  0
    2.1660   23.2960  -36.1660 C   0  0  0  0  0  0  0  0  0  0  0  0
    2.4740   24.9590  -36.6610 S   0  0  0  0  0  0  0  0  0  0  0  0
    1.9090   25.1610  -38.0400 O   0  0  0  0  0  0  0  0  0  0  0  0
    3.9560   25.2160  -36.7070 O   0  0  0  0  0  0  0  0  0  0  0  0
    1.7090   26.0560  -35.5350 N   0  0  0  0  0  0  0  0  0  0  0  0
    2.4480   27.3420  -35.4520 C   0  0  0  0  0  0  0  0  0  0  0  0
    1.7860   28.4650  -36.2630 C   0  0  0  0  0  0  0  0  0  0  0  0
    0.3440   28.7190  -35.7920 C   0  0  0  0  0  0  0  0  0  0  0  0
   -0.3300   27.4520  -35.2360 C   0  0  0  0  0  0  0  0  0  0  0  0
    0.2730   26.1900  -35.8620 C   0  0  0  0  0  0  0  0  0  0  0  0
    0.9050   22.9420  -35.6660 C   0  0  0  0  0  0  0  0  0  0  0  0
   -2.0420   19.7810  -33.1920 C   0  0  0  0  0  0  0  0  0  0  0  0
   -2.1690   18.4330  -33.5690 C   0  0  0  0  0  0  0  0  0  0  0  0
   -3.3440   17.7280  -33.2970 C   0  0  0  0  0  0  0  0  0  0  0  0
   -4.4080   18.3550  -32.6370 C   0  0  0  0  0  0  0  0  0  0  0  0
   -5.8790   17.4540  -32.2590 S   0  0  0  0  0  0  0  0  0  0  0  0
   -6.1010   17.4610  -30.7720 O   0  0  0  0  0  0  0  0  0  0  0  0
   -5.7140   16.0270  -32.6980 O   0  0  0  0  0  0  0  0  0  0  0  0
   -7.2660   18.1510  -33.0660 N   0  0  0  0  0  0  0  0  0  0  0  0
   -8.4670   18.1190  -32.1840 C   0  0  0  0  0  0  0  0  0  0  0  0
   -9.3480   19.3750  -32.2790 C   0  0  0  0  0  0  0  0  0  0  0  0
   -8.4850   20.5860  -32.0950 C   0  0  0  0  0  0  0  0  0  0  0  0
   -8.8650   21.6590  -31.2740 C   0  0  0  0  0  0  0  0  0  0  0  0
   -8.0170   22.7620  -31.1340 C   0  0  0  0  0  0  0  0  0  0  0  0
   -6.7980   22.8010  -31.8200 C   0  0  0  0  0  0  0  0  0  0  0  0
   -6.4230   21.7360  -32.6480 C   0  0  0  0  0  0  0  0  0  0  0  0
   -7.2630   20.6190  -32.7740 C   0  0  0  0  0  0  0  0  0  0  0  0
   -6.9240   19.4610  -33.6750 C   0  0  0  0  0  0  0  0  0  0  0  0
   -4.2890   19.7000  -32.2600 C   0  0  0  0  0  0  0  0  0  0  0  0
   -3.1120   20.4050  -32.5270 C   0  0  0  0  0  0  0  0  0  0  0  0
   -1.4900   21.5610  -35.2110 H   0  0  0  0  0  0  0  0  0  0  0  0
    1.4935   19.6439  -34.9705 H   0  0  0  0  0  0  0  0  0  0  0  0
    3.7361   20.2729  -35.8593 H   0  0  0  0  0  0  0  0  0  0  0  0
    4.1712   22.6051  -36.6250 H   0  0  0  0  0  0  0  0  0  0  0  0
    2.4959   27.6519  -34.3976 H   0  0  0  0  0  0  0  0  0  0  0  0
    3.4494   27.1752  -35.8756 H   0  0  0  0  0  0  0  0  0  0  0  0
    2.3710   29.3884  -36.1402 H   0  0  0  0  0  0  0  0  0  0  0  0
    1.7576   28.1600  -37.3195 H   0  0  0  0  0  0  0  0  0  0  0  0
    0.3613   29.4842  -35.0020 H   0  0  0  0  0  0  0  0  0  0  0  0
   -0.2378   29.0495  -36.6651 H   0  0  0  0  0  0  0  0  0  0  0  0
   -0.1863   27.4168  -34.1460 H   0  0  0  0  0  0  0  0  0  0  0  0
   -1.4015   27.4880  -35.4823 H   0  0  0  0  0  0  0  0  0  0  0  0
   -0.2643   25.3096  -35.4797 H   0  0  0  0  0  0  0  0  0  0  0  0
    0.1734   26.2654  -36.9549 H   0  0  0  0  0  0  0  0  0  0  0  0
    0.1121   23.7013  -35.5975 H   0  0  0  0  0  0  0  0  0  0  0  0
   -1.3367   17.9292  -34.0822 H   0  0  0  0  0  0  0  0  0  0  0  0
   -3.4338   16.6752  -33.6028 H   0  0  0  0  0  0  0  0  0  0  0  0
   -9.0771   17.2471  -32.4624 H   0  0  0  0  0  0  0  0  0  0  0  0
   -8.0993   18.0666  -31.1486 H   0  0  0  0  0  0  0  0  0  0  0  0
   -9.8324   19.4129  -33.2659 H   0  0  0  0  0  0  0  0  0  0  0  0
  -10.1235   19.3471  -31.4993 H   0  0  0  0  0  0  0  0  0  0  0  0
   -9.8274   21.6324  -30.7420 H   0  0  0  0  0  0  0  0  0  0  0  0
   -8.3085   23.6000  -30.4838 H   0  0  0  0  0  0  0  0  0  0  0  0
   -6.1330   23.6701  -31.7085 H   0  0  0  0  0  0  0  0  0  0  0  0
   -5.4716   21.7748  -33.1988 H   0  0  0  0  0  0  0  0  0  0  0  0
   -7.4834   19.5700  -34.6159 H   0  0  0  0  0  0  0  0  0  0  0  0
   -5.8378   19.4772  -33.8476 H   0  0  0  0  0  0  0  0  0  0  0  0
   -5.1253   20.2026  -31.7520 H   0  0  0  0  0  0  0  0  0  0  0  0
   -3.0222   21.4559  -32.2145 H   0  0  0  0  0  0  0  0  0  0  0  0
  1  2  2  0
  2  3  1  0
  3  4  1  0
  4  5  2  0
  5  6  1  0
  6  7  2  0
  7  8  1  0
  8  9  1  0
  9 10  2  0
  9 11  2  0
  9 12  1  0
 12 13  1  0
 13 14  1  0
 14 15  1  0
 15 16  1  0
 16 17  1  0
  8 18  2  0
  2 19  1  0
 19 20  2  0
 20 21  1  0
 21 22  2  0
 22 23  1  0
 23 24  2  0
 23 25  2  0
 23 26  1  0
 26 27  1  0
 27 28  1  0
 28 29  1  0
 29 30  2  0
 30 31  1  0
 31 32  2  0
 32 33  1  0
 33 34  2  0
 34 35  1  0
 22 36  1  0
 36 37  2  0
 18  4  1  0
 37 19  1  0
 17 12  1  0
 35 26  1  0
 34 29  1  0
  3 38  1  0
  5 39  1  0
  6 40  1  0
  7 41  1  0
 13 42  1  0
 13 43  1  0
 14 44  1  0
 14 45  1  0
 15 46  1  0
 15 47  1  0
 16 48  1  0
 16 49  1  0
 17 50  1  0
 17 51  1  0
 18 52  1  0
 20 53  1  0
 21 54  1  0
 27 55  1  0
 27 56  1  0
 28 57  1  0
 28 58  1  0
 30 59  1  0
 31 60  1  0
 32 61  1  0
 33 62  1  0
 35 63  1  0
 35 64  1  0
 36 65  1  0
 37 66  1  0
M  END
>  <UniqueID>  (5) 
4

>  <SMILES>  (5) 
O=C(Nc1cccc(S(=O)(=O)N2CCCCC2)c1)c1ccc(S(=O)(=O)N2CCc3ccccc3C2)cc1

>  <Energy>  (5) 
88.37921520622892

>  <Genealogy>  (5) 
O=C(Nc1cccc(S(=O)(=O)N2CCCCC2)c1)c1ccc(S(=O)(=O)N2CCc3ccccc3C2)cc1 (3D coordinates assigned)
O=C(Nc1cccc(S(=O)(=O)N2CCCCC2)c1)c1ccc(S(=O)(=O)N2CCc3ccccc3C2)cc1 (nonaromatic ring conformer: 88.37921520622892 kcal/mol)

>  <smiles>  (5) 
O=C(Nc1cccc(S(=O)(=O)N2CCCCC2)c1)c1ccc(S(=O)(=O)N2CCc3ccccc3C2)cc1

>  <score_type>  (5) 
oracle

>  <origin>  (5) 
adgpu

>  <m_score__min__energy>  (5) 
-11.779999999999999

>  <m_primary>  (5) 
energy

$$$$
5:0
     RDKit          3D

 55 59  0  0  0  0  0  0  0  0999 V2000
    1.5670   24.8970  -24.8280 C   0  0  0  0  0  0  0  0  0  0  0  0
    1.6480   24.7810  -26.2440 O   0  0  0  0  0  0  0  0  0  0  0  0
    0.5450   24.8520  -27.1090 C   0  0  0  0  0  0  0  0  0  0  0  0
   -0.2220   26.0250  -27.2610 C   0  0  0  0  0  0  0  0  0  0  0  0
   -1.3120   26.0490  -28.1350 C   0  0  0  0  0  0  0  0  0  0  0  0
   -1.6480   24.9060  -28.8690 C   0  0  0  0  0  0  0  0  0  0  0  0
   -2.7160   24.9240  -29.7090 N   0  0  0  0  0  0  0  0  0  0  0  0
   -3.0700   23.8390  -30.4490 C   0  0  0  0  0  0  0  0  0  0  0  0
   -4.0930   23.9080  -31.1810 O   0  0  0  0  0  0  0  0  0  0  0  0
   -2.3100   22.6520  -30.3770 C   0  0  0  0  0  0  0  0  0  0  0  0
   -2.6490   21.4220  -31.2060 C   0  0  0  0  0  0  0  0  0  0  0  0
   -2.3690   21.5580  -32.6630 N   0  0  1  0  0  0  0  0  0  0  0  0
   -1.6470   20.3710  -33.1870 C   0  0  0  0  0  0  0  0  0  0  0  0
   -0.6160   20.7470  -34.2140 C   0  0  0  0  0  0  0  0  0  0  0  0
    0.0200   19.8770  -35.0780 C   0  0  0  0  0  0  0  0  0  0  0  0
    0.8920   20.6540  -35.8100 C   0  0  0  0  0  0  0  0  0  0  0  0
    0.7330   21.9450  -35.3490 C   0  0  0  0  0  0  0  0  0  0  0  0
   -0.1710   21.9680  -34.3970 O   0  0  0  0  0  0  0  0  0  0  0  0
   -3.5840   21.8400  -33.4790 C   0  0  0  0  0  0  0  0  0  0  0  0
   -4.7440   20.8880  -33.2130 C   0  0  0  0  0  0  0  0  0  0  0  0
   -4.5750   19.4990  -33.3590 C   0  0  0  0  0  0  0  0  0  0  0  0
   -5.5970   18.6450  -33.0940 N   0  0  0  0  0  0  0  0  0  0  0  0
   -6.8070   19.0820  -32.6640 C   0  0  0  0  0  0  0  0  0  0  0  0
   -7.8330   18.1610  -32.4180 C   0  0  0  0  0  0  0  0  0  0  0  0
   -9.0800   18.6050  -31.9690 C   0  0  0  0  0  0  0  0  0  0  0  0
   -9.3050   19.9680  -31.7600 C   0  0  0  0  0  0  0  0  0  0  0  0
   -8.2850   20.8960  -31.9970 C   0  0  0  0  0  0  0  0  0  0  0  0
   -7.0260   20.4610  -32.4520 C   0  0  0  0  0  0  0  0  0  0  0  0
   -5.9740   21.3620  -32.7050 C   0  0  0  0  0  0  0  0  0  0  0  0
   -6.1320   22.5940  -32.4770 O   0  0  0  0  0  0  0  0  0  0  0  0
   -1.2400   22.6020  -29.4710 C   0  0  0  0  0  0  0  0  0  0  0  0
   -0.8870   23.7300  -28.7250 C   0  0  0  0  0  0  0  0  0  0  0  0
    0.2050   23.7090  -27.8440 C   0  0  0  0  0  0  0  0  0  0  0  0
    2.1369   24.0808  -24.3600 H   0  0  0  0  0  0  0  0  0  0  0  0
    1.9871   25.8641  -24.5147 H   0  0  0  0  0  0  0  0  0  0  0  0
    0.5143   24.8357  -24.5147 H   0  0  0  0  0  0  0  0  0  0  0  0
    0.0392   26.9269  -26.6881 H   0  0  0  0  0  0  0  0  0  0  0  0
   -1.9067   26.9677  -28.2462 H   0  0  0  0  0  0  0  0  0  0  0  0
   -2.0602   20.5763  -30.8212 H   0  0  0  0  0  0  0  0  0  0  0  0
   -3.7345   21.2719  -31.1104 H   0  0  0  0  0  0  0  0  0  0  0  0
   -1.7120   22.3660  -32.7530 H   0  0  0  0  0  0  0  0  0  0  0  0
   -1.1458   19.8623  -32.3503 H   0  0  0  0  0  0  0  0  0  0  0  0
   -2.3831   19.7116  -33.6702 H   0  0  0  0  0  0  0  0  0  0  0  0
   -0.1366   18.7916  -35.1639 H   0  0  0  0  0  0  0  0  0  0  0  0
    1.5761   20.3139  -36.6014 H   0  0  0  0  0  0  0  0  0  0  0  0
    1.2810   22.8225  -35.7228 H   0  0  0  0  0  0  0  0  0  0  0  0
   -3.9192   22.8640  -33.2578 H   0  0  0  0  0  0  0  0  0  0  0  0
   -3.2978   21.7064  -34.5327 H   0  0  0  0  0  0  0  0  0  0  0  0
   -3.6050   19.1006  -33.6912 H   0  0  0  0  0  0  0  0  0  0  0  0
   -7.6573   17.0870  -32.5783 H   0  0  0  0  0  0  0  0  0  0  0  0
   -9.8855   17.8802  -31.7799 H   0  0  0  0  0  0  0  0  0  0  0  0
  -10.2883   20.3130  -31.4076 H   0  0  0  0  0  0  0  0  0  0  0  0
   -8.4673   21.9675  -31.8274 H   0  0  0  0  0  0  0  0  0  0  0  0
   -0.6740   21.6670  -29.3467 H   0  0  0  0  0  0  0  0  0  0  0  0
    0.7977   22.7894  -27.7298 H   0  0  0  0  0  0  0  0  0  0  0  0
  1  2  1  0
  2  3  1  0
  3  4  2  0
  4  5  1  0
  5  6  2  0
  6  7  1  0
  7  8  1  0
  8  9  2  0
  8 10  1  0
 10 11  1  0
 11 12  1  0
 12 13  1  0
 13 14  1  0
 14 15  2  0
 15 16  1  0
 16 17  2  0
 17 18  1  0
 12 19  1  0
 19 20  1  0
 20 21  2  0
 21 22  1  0
 22 23  1  0
 23 24  2  0
 24 25  1  0
 25 26  2  0
 26 27  1  0
 27 28  2  0
 28 29  1  0
 29 30  2  0
 10 31  2  0
 31 32  1  0
 32 33  2  0
 33  3  1  0
 32  6  1  0
 18 14  1  0
 29 20  1  0
 28 23  1  0
  1 34  1  0
  1 35  1  0
  1 36  1  0
  4 37  1  0
  5 38  1  0
 11 39  1  0
 11 40  1  0
 12 41  1  1
 13 42  1  0
 13 43  1  0
 15 44  1  0
 16 45  1  0
 17 46  1  0
 19 47  1  0
 19 48  1  0
 21 49  1  0
 24 50  1  0
 25 51  1  0
 26 52  1  0
 27 53  1  0
 31 54  1  0
 33 55  1  0
M  CHG  3   7  -1  12   1  22  -1
M  END
>  <UniqueID>  (6) 
5

>  <SMILES>  (6) 
COc1ccc2[n-]c(=O)c(C[N@@H+](Cc3ccco3)Cc3c[n-]c4ccccc4c3=O)cc2c1

>  <Energy>  (6) 
102.90651624662883

>  <Genealogy>  (6) 
COc1ccc2[n-]c(=O)c(C[NH+](Cc3ccco3)Cc3c[n-]c4ccccc4c3=O)cc2c1 (protonated)
COc1ccc2[n-]c(=O)c(C[N@@H+](Cc3ccco3)Cc3c[n-]c4ccccc4c3=O)cc2c1 (chirality)
COc1ccc2[n-]c(=O)c(C[N@@H+](Cc3ccco3)Cc3c[n-]c4ccccc4c3=O)cc2c1 (3D coordinates assigned)
COc1ccc2[n-]c(=O)c(C[N@@H+](Cc3ccco3)Cc3c[n-]c4ccccc4c3=O)cc2c1 (optimized conformer: 102.90651624662883 kcal/mol)

>  <smiles>  (6) 
COc1ccc2[nH]c(=O)c(CN(Cc3ccco3)Cc3c[nH]c4ccccc4c3=O)cc2c1

>  <score_type>  (6) 
oracle

>  <origin>  (6) 
adgpu

>  <m_score__min__energy>  (6) 
-10.720000000000001

>  <m_primary>  (6) 
energy

$$$$
6:0
     RDKit          3D

 43 47  0  0  0  0  0  0  0  0999 V2000
   -9.0830   22.9000  -31.5930 O   0  0  0  0  0  0  0  0  0  0  0  0
   -7.8930   22.4900  -31.6460 C   0  0  0  0  0  0  0  0  0  0  0  0
   -7.6380   21.2690  -32.1650 N   0  0  0  0  0  0  0  0  0  0  0  0
   -6.3780   20.7740  -32.2640 C   0  0  0  0  0  0  0  0  0  0  0  0
   -6.2160   19.4330  -32.8700 C   0  0  0  0  0  0  0  0  0  0  0  0
   -6.4110   18.2700  -32.1050 C   0  0  0  0  0  0  0  0  0  0  0  0
   -6.2820   17.0090  -32.6960 C   0  0  0  0  0  0  0  0  0  0  0  0
   -5.9420   16.9020  -34.0480 C   0  0  0  0  0  0  0  0  0  0  0  0
   -5.7240   18.0540  -34.8080 C   0  0  0  0  0  0  0  0  0  0  0  0
   -5.8540   19.3160  -34.2210 C   0  0  0  0  0  0  0  0  0  0  0  0
   -5.3060   21.5120  -31.8110 N   0  0  0  0  0  0  0  0  0  0  0  0
   -3.9790   20.9540  -31.8990 C   0  0  0  0  0  0  0  0  0  0  0  0
   -3.2810   20.8960  -33.0520 N   0  0  0  0  0  0  0  0  0  0  0  0
   -1.9990   20.4780  -32.8570 C   0  0  0  0  0  0  0  0  0  0  0  0
   -1.0410   20.3800  -33.9860 C   0  0  0  0  0  0  0  0  0  0  0  0
   -0.6830   19.1350  -34.5390 C   0  0  0  0  0  0  0  0  0  0  0  0
    0.2260   19.0680  -35.5990 C   0  0  0  0  0  0  0  0  0  0  0  0
    0.7870   20.2360  -36.1200 C   0  0  0  0  0  0  0  0  0  0  0  0
    1.6680   20.1670  -37.1480 F   0  0  0  0  0  0  0  0  0  0  0  0
    0.4370   21.4760  -35.5810 C   0  0  0  0  0  0  0  0  0  0  0  0
   -0.4720   21.5510  -34.5220 C   0  0  0  0  0  0  0  0  0  0  0  0
   -1.6720   20.2170  -31.5220 C   0  0  0  0  0  0  0  0  0  0  0  0
   -3.0270   20.5360  -30.5760 S   0  0  0  0  0  0  0  0  0  0  0  0
   -5.5180   22.7550  -31.2480 C   0  0  0  0  0  0  0  0  0  0  0  0
   -4.4620   23.5250  -30.7030 C   0  0  0  0  0  0  0  0  0  0  0  0
   -4.7050   24.7820  -30.1480 C   0  0  0  0  0  0  0  0  0  0  0  0
   -6.0000   25.2960  -30.1080 C   0  0  0  0  0  0  0  0  0  0  0  0
   -7.0640   24.5480  -30.6120 C   0  0  0  0  0  0  0  0  0  0  0  0
   -6.8360   23.2770  -31.1730 C   0  0  0  0  0  0  0  0  0  0  0  0
   -6.6659   18.3519  -31.0381 H   0  0  0  0  0  0  0  0  0  0  0  0
   -6.4480   16.1014  -32.0971 H   0  0  0  0  0  0  0  0  0  0  0  0
   -5.8461   15.9101  -34.5137 H   0  0  0  0  0  0  0  0  0  0  0  0
   -5.4497   17.9678  -35.8697 H   0  0  0  0  0  0  0  0  0  0  0  0
   -5.6720   20.2205  -34.8200 H   0  0  0  0  0  0  0  0  0  0  0  0
   -1.1210   18.2105  -34.1347 H   0  0  0  0  0  0  0  0  0  0  0  0
    0.5005   18.0914  -36.0244 H   0  0  0  0  0  0  0  0  0  0  0  0
    0.8781   22.3964  -35.9912 H   0  0  0  0  0  0  0  0  0  0  0  0
   -0.7447   22.5315  -34.1045 H   0  0  0  0  0  0  0  0  0  0  0  0
   -0.6973   19.8641  -31.1540 H   0  0  0  0  0  0  0  0  0  0  0  0
   -3.4366   23.1270  -30.7173 H   0  0  0  0  0  0  0  0  0  0  0  0
   -3.8701   25.3704  -29.7398 H   0  0  0  0  0  0  0  0  0  0  0  0
   -6.1830   26.2921  -29.6787 H   0  0  0  0  0  0  0  0  0  0  0  0
   -8.0859   24.9530  -30.5710 H   0  0  0  0  0  0  0  0  0  0  0  0
  1  2  2  0
  2  3  1  0
  3  4  2  0
  4  5  1  0
  5  6  2  0
  6  7  1  0
  7  8  2  0
  8  9  1  0
  9 10  2  0
  4 11  1  0
 11 12  1  0
 12 13  2  0
 13 14  1  0
 14 15  1  0
 15 16  2  0
 16 17  1  0
 17 18  2  0
 18 19  1  0
 18 20  1  0
 20 21  2  0
 14 22  2  0
 22 23  1  0
 11 24  1  0
 24 25  2  0
 25 26  1  0
 26 27  2  0
 27 28  1  0
 28 29  2  0
 29  2  1  0
 10  5  1  0
 23 12  1  0
 29 24  1  0
 21 15  1  0
  6 30  1  0
  7 31  1  0
  8 32  1  0
  9 33  1  0
 10 34  1  0
 16 35  1  0
 17 36  1  0
 20 37  1  0
 21 38  1  0
 22 39  1  0
 25 40  1  0
 26 41  1  0
 27 42  1  0
 28 43  1  0
M  END
>  <UniqueID>  (7) 
6

>  <SMILES>  (7) 
O=c1nc(-c2ccccc2)n(-c2nc(-c3ccc(F)cc3)cs2)c2ccccc12

>  <Energy>  (7) 
104.04356493601786

>  <Genealogy>  (7) 
O=c1nc(-c2ccccc2)n(-c2nc(-c3ccc(F)cc3)cs2)c2ccccc12 (3D coordinates assigned)
O=c1nc(-c2ccccc2)n(-c2nc(-c3ccc(F)cc3)cs2)c2ccccc12 (optimized conformer: 104.04356493601786 kcal/mol)

>  <smiles>  (7) 
O=c1nc(-c2ccccc2)n(-c2nc(-c3ccc(F)cc3)cs2)c2ccccc12

>  <score_type>  (7) 
oracle

>  <origin>  (7) 
adgpu

>  <m_score__min__energy>  (7) 
-9.1199999999999992

>  <m_primary>  (7) 
energy

$$$$
7:0
     RDKit          3D

 42 45  0  0  0  0  0  0  0  0999 V2000
    0.9380   24.4220  -27.5930 C   0  0  0  0  0  0  0  0  0  0  0  0
   -0.1110   25.3070  -27.9720 O   0  0  0  0  0  0  0  0  0  0  0  0
   -1.4780   24.9850  -27.9510 C   0  0  0  0  0  0  0  0  0  0  0  0
   -2.1460   24.5240  -29.1040 C   0  0  0  0  0  0  0  0  0  0  0  0
   -3.5230   24.2450  -29.0750 C   0  0  0  0  0  0  0  0  0  0  0  0
   -4.2160   23.7630  -30.2890 C   0  0  0  0  0  0  0  0  0  0  0  0
   -4.9060   24.5630  -31.1290 N   0  0  0  0  0  0  0  0  0  0  0  0
   -5.3600   23.7710  -32.0510 O   0  0  0  0  0  0  0  0  0  0  0  0
   -4.9720   22.5450  -31.8060 C   0  0  0  0  0  0  0  0  0  0  0  0
   -5.3390   21.3640  -32.6440 C   0  0  0  0  0  0  0  0  0  0  0  0
   -6.7910   21.0300  -32.4510 C   0  0  0  0  0  0  0  0  0  0  0  0
   -7.6670   21.9760  -31.8910 C   0  0  0  0  0  0  0  0  0  0  0  0
   -9.0110   21.6530  -31.6790 C   0  0  0  0  0  0  0  0  0  0  0  0
   -9.4860   20.3820  -32.0150 C   0  0  0  0  0  0  0  0  0  0  0  0
   -8.6190   19.4310  -32.5600 C   0  0  0  0  0  0  0  0  0  0  0  0
   -7.2740   19.7520  -32.7730 C   0  0  0  0  0  0  0  0  0  0  0  0
   -4.2350   22.4700  -30.6820 N   0  0  0  0  0  0  0  0  0  0  0  0
   -4.2320   24.4310  -27.8800 C   0  0  0  0  0  0  0  0  0  0  0  0
   -3.5780   24.8810  -26.7330 C   0  0  0  0  0  0  0  0  0  0  0  0
   -2.2010   25.1510  -26.7510 C   0  0  0  0  0  0  0  0  0  0  0  0
   -1.5490   25.5990  -25.5480 N   0  0  0  0  0  0  0  0  0  0  0  0
   -0.7230   24.8690  -24.7700 C   0  0  0  0  0  0  0  0  0  0  0  0
   -0.2600   25.6390  -23.7240 C   0  0  0  0  0  0  0  0  0  0  0  0
   -0.8210   26.8920  -23.8780 C   0  0  0  0  0  0  0  0  0  0  0  0
   -1.6060   26.8350  -25.0110 C   0  0  0  0  0  0  0  0  0  0  0  0
    0.9971   24.3721  -26.4957 H   0  0  0  0  0  0  0  0  0  0  0  0
    0.7345   23.4186  -27.9952 H   0  0  0  0  0  0  0  0  0  0  0  0
    1.8928   24.7916  -27.9952 H   0  0  0  0  0  0  0  0  0  0  0  0
   -1.5823   24.3810  -30.0377 H   0  0  0  0  0  0  0  0  0  0  0  0
   -5.1564   21.5978  -33.7032 H   0  0  0  0  0  0  0  0  0  0  0  0
   -4.7263   20.5018  -32.3419 H   0  0  0  0  0  0  0  0  0  0  0  0
   -7.2939   22.9743  -31.6185 H   0  0  0  0  0  0  0  0  0  0  0  0
   -9.6945   22.3992  -31.2478 H   0  0  0  0  0  0  0  0  0  0  0  0
  -10.5440   20.1299  -31.8502 H   0  0  0  0  0  0  0  0  0  0  0  0
   -8.9939   18.4305  -32.8214 H   0  0  0  0  0  0  0  0  0  0  0  0
   -6.5918   18.9993  -33.1948 H   0  0  0  0  0  0  0  0  0  0  0  0
   -5.3112   24.2207  -27.8466 H   0  0  0  0  0  0  0  0  0  0  0  0
   -4.1483   25.0259  -25.8036 H   0  0  0  0  0  0  0  0  0  0  0  0
   -0.4582   23.8157  -24.9443 H   0  0  0  0  0  0  0  0  0  0  0  0
    0.4227   25.3182  -22.9234 H   0  0  0  0  0  0  0  0  0  0  0  0
   -0.6711   27.7644  -23.2250 H   0  0  0  0  0  0  0  0  0  0  0  0
   -2.1916   27.6733  -25.4164 H   0  0  0  0  0  0  0  0  0  0  0  0
  1  2  1  0
  2  3  1  0
  3  4  2  0
  4  5  1  0
  5  6  1  0
  6  7  2  0
  7  8  1  0
  8  9  1  0
  9 10  1  0
 10 11  1  0
 11 12  2  0
 12 13  1  0
 13 14  2  0
 14 15  1  0
 15 16  2  0
  9 17  2  0
  5 18  2  0
 18 19  1  0
 19 20  2  0
 20 21  1  0
 21 22  1  0
 22 23  2  0
 23 24  1  0
 24 25  2  0
 20  3  1  0
 25 21  1  0
 17  6  1  0
 16 11  1  0
  1 26  1  0
  1 27  1  0
  1 28  1  0
  4 29  1  0
 10 30  1  0
 10 31  1  0
 12 32  1  0
 13 33  1  0
 14 34  1  0
 15 35  1  0
 16 36  1  0
 18 37  1  0
 19 38  1  0
 22 39  1  0
 23 40  1  0
 24 41  1  0
 25 42  1  0
M  END
>  <UniqueID>  (8) 
7

>  <SMILES>  (8) 
COc1cc(-c2noc(Cc3ccccc3)n2)ccc1-n1cccc1

>  <Energy>  (8) 
108.07064691605434

>  <Genealogy>  (8) 
COc1cc(-c2noc(Cc3ccccc3)n2)ccc1-n1cccc1 (3D coordinates assigned)
COc1cc(-c2noc(Cc3ccccc3)n2)ccc1-n1cccc1 (optimized conformer: 108.07064691605434 kcal/mol)

>  <smiles>  (8) 
COc1cc(-c2noc(Cc3ccccc3)n2)ccc1-n1cccc1

>  <score_type>  (8) 
oracle

>  <origin>  (8) 
adgpu

>  <m_score__min__energy>  (8) 
-8.8900000000000006

>  <m_primary>  (8) 
energy

$$$$
8:0
     RDKit          3D

 29 31  0  0  0  0  0  0  0  0999 V2000
   -4.6460   25.2980  -31.2150 O   0  0  0  0  0  0  0  0  0  0  0  0
   -5.4940   24.1250  -30.8090 S   0  0  0  0  0  0  0  0  0  0  0  0
   -6.6650   24.6170  -30.0070 O   0  0  0  0  0  0  0  0  0  0  0  0
   -6.0660   23.3080  -32.2270 N   0  0  0  0  0  0  0  0  0  0  0  0
   -7.1020   22.3130  -32.1680 C   0  0  0  0  0  0  0  0  0  0  0  0
   -8.3780   22.6660  -31.6920 C   0  0  0  0  0  0  0  0  0  0  0  0
   -9.3940   21.7140  -31.5970 C   0  0  0  0  0  0  0  0  0  0  0  0
   -9.1560   20.3930  -31.9720 C   0  0  0  0  0  0  0  0  0  0  0  0
   -7.9000   20.0160  -32.4530 C   0  0  0  0  0  0  0  0  0  0  0  0
   -7.6840   18.7260  -32.8300 N   0  0  0  0  0  0  0  0  0  0  0  0
   -6.4890   18.3130  -33.3230 C   0  0  0  0  0  0  0  0  0  0  0  0
   -5.4410   19.2200  -33.4680 C   0  0  0  0  0  0  0  0  0  0  0  0
   -5.6260   20.5510  -33.0920 C   0  0  0  0  0  0  0  0  0  0  0  0
   -6.8600   20.9730  -32.5620 C   0  0  0  0  0  0  0  0  0  0  0  0
   -4.5620   23.0150  -29.8230 C   0  0  0  0  0  0  0  0  0  0  0  0
   -4.3270   23.1330  -28.4620 C   0  0  0  0  0  0  0  0  0  0  0  0
   -3.5030   22.1180  -27.9600 C   0  0  0  0  0  0  0  0  0  0  0  0
   -3.0890   21.2100  -28.9270 C   0  0  0  0  0  0  0  0  0  0  0  0
   -3.7440   21.6700  -30.4070 S   0  0  0  0  0  0  0  0  0  0  0  0
   -5.6750   23.6070  -33.1470 H   0  0  0  0  0  0  0  0  0  0  0  0
   -8.5773   23.7051  -31.3910 H   0  0  0  0  0  0  0  0  0  0  0  0
  -10.3866   22.0074  -31.2247 H   0  0  0  0  0  0  0  0  0  0  0  0
   -9.9589   19.6457  -31.8890 H   0  0  0  0  0  0  0  0  0  0  0  0
   -6.3473   17.2602  -33.6087 H   0  0  0  0  0  0  0  0  0  0  0  0
   -4.4746   18.8890  -33.8760 H   0  0  0  0  0  0  0  0  0  0  0  0
   -4.8046   21.2731  -33.2102 H   0  0  0  0  0  0  0  0  0  0  0  0
   -4.7441   23.9396  -27.8412 H   0  0  0  0  0  0  0  0  0  0  0  0
   -3.2115   22.0464  -26.9018 H   0  0  0  0  0  0  0  0  0  0  0  0
   -2.4420   20.3374  -28.7540 H   0  0  0  0  0  0  0  0  0  0  0  0
  1  2  2  0
  2  3  2  0
  2  4  1  0
  4  5  1  0
  5  6  2  0
  6  7  1  0
  7  8  2  0
  8  9  1  0
  9 10  2  0
 10 11  1  0
 11 12  2  0
 12 13  1  0
 13 14  2  0
  2 15  1  0
 15 16  2  0
 16 17  1  0
 17 18  2  0
 18 19  1  0
 14  5  1  0
 19 15  1  0
 14  9  1  0
  4 20  1  0
  6 21  1  0
  7 22  1  0
  8 23  1  0
 11 24  1  0
 12 25  1  0
 13 26  1  0
 16 27  1  0
 17 28  1  0
 18 29  1  0
M  END
>  <UniqueID>  (9) 
8

>  <SMILES>  (9) 
O=S(=O)(Nc1cccc2ncccc12)c1cccs1

>  <Energy>  (9) 
66.8202697907595

>  <Genealogy>  (9) 
O=S(=O)(Nc1cccc2ncccc12)c1cccs1 (3D coordinates assigned)
O=S(=O)(Nc1cccc2ncccc12)c1cccs1 (optimized conformer: 66.8202697907595 kcal/mol)

>  <smiles>  (9) 
O=S(=O)(Nc1cccc2ncccc12)c1cccs1

>  <score_type>  (9) 
oracle

>  <origin>  (9) 
adgpu

>  <m_score__min__energy>  (9) 
-8.1999999999999993

>  <m_primary>  (9) 
energy

$$$$
9:0
     RDKit          3D

 29 30  0  0  0  0  0  0  0  0999 V2000
   -3.7300   25.2890  -30.0530 N   0  0  0  0  0  0  0  0  0  0  0  0
   -4.8140   24.4150  -30.3820 C   0  0  0  0  0  0  0  0  0  0  0  0
   -4.6020   23.0330  -30.4790 C   0  0  0  0  0  0  0  0  0  0  0  0
   -5.6600   22.1790  -30.8010 C   0  0  0  0  0  0  0  0  0  0  0  0
   -6.9400   22.7000  -31.0330 C   0  0  0  0  0  0  0  0  0  0  0  0
   -8.2660   21.6150  -31.4430 S   0  0  0  0  0  0  0  0  0  0  0  0
   -9.2490   22.2970  -32.3550 O   0  0  0  0  0  0  0  0  0  0  0  0
   -8.9780   21.2350  -30.1750 O   0  0  0  0  0  0  0  0  0  0  0  0
   -7.6380   20.1740  -32.2600 C   0  0  0  0  0  0  0  0  0  0  0  0
   -6.6700   20.3340  -33.2650 C   0  0  0  0  0  0  0  0  0  0  0  0
   -6.1590   19.2260  -33.9430 C   0  0  0  0  0  0  0  0  0  0  0  0
   -6.6100   17.9450  -33.6280 C   0  0  0  0  0  0  0  0  0  0  0  0
   -7.5730   17.7680  -32.6330 C   0  0  0  0  0  0  0  0  0  0  0  0
   -8.0980   18.8720  -31.9400 C   0  0  0  0  0  0  0  0  0  0  0  0
   -9.0890   18.6410  -30.9300 N   0  0  0  0  0  0  0  0  0  0  0  0
   -7.1550   24.0800  -30.9320 C   0  0  0  0  0  0  0  0  0  0  0  0
   -6.0960   24.9350  -30.6090 C   0  0  0  0  0  0  0  0  0  0  0  0
   -3.5360   25.5500  -29.0600 H   0  0  0  0  0  0  0  0  0  0  0  0
   -3.1140   25.6800  -30.8000 H   0  0  0  0  0  0  0  0  0  0  0  0
   -3.5986   22.6189  -30.3009 H   0  0  0  0  0  0  0  0  0  0  0  0
   -5.4877   21.0949  -30.8726 H   0  0  0  0  0  0  0  0  0  0  0  0
   -6.3112   21.3420  -33.5202 H   0  0  0  0  0  0  0  0  0  0  0  0
   -5.3996   19.3638  -34.7268 H   0  0  0  0  0  0  0  0  0  0  0  0
   -6.2067   17.0731  -34.1639 H   0  0  0  0  0  0  0  0  0  0  0  0
   -7.9243   16.7545  -32.3891 H   0  0  0  0  0  0  0  0  0  0  0  0
   -9.3810   19.3740  -30.2490 H   0  0  0  0  0  0  0  0  0  0  0  0
   -9.5530   17.7080  -30.8480 H   0  0  0  0  0  0  0  0  0  0  0  0
   -8.1594   24.4929  -31.1071 H   0  0  0  0  0  0  0  0  0  0  0  0
   -6.2697   26.0185  -30.5329 H   0  0  0  0  0  0  0  0  0  0  0  0
  1  2  1  0
  2  3  2  0
  3  4  1  0
  4  5  2  0
  5  6  1  0
  6  7  2  0
  6  8  2  0
  6  9  1  0
  9 10  2  0
 10 11  1  0
 11 12  2  0
 12 13  1  0
 13 14  2  0
 14 15  1  0
  5 16  1  0
 16 17  2  0
 17  2  1  0
 14  9  1  0
  1 18  1  0
  1 19  1  0
  3 20  1  0
  4 21  1  0
 10 22  1  0
 11 23  1  0
 12 24  1  0
 13 25  1  0
 15 26  1  0
 15 27  1  0
 16 28  1  0
 17 29  1  0
M  END
>  <UniqueID>  (10) 
9

>  <SMILES>  (10) 
Nc1ccc(S(=O)(=O)c2ccccc2N)cc1

>  <Energy>  (10) 
31.9501249675271

>  <Genealogy>  (10) 
Nc1ccc(S(=O)(=O)c2ccccc2N)cc1 (3D coordinates assigned)
Nc1ccc(S(=O)(=O)c2ccccc2N)cc1 (optimized conformer: 31.9501249675271 kcal/mol)

>  <smiles>  (10) 
Nc1ccc(S(=O)(=O)c2ccccc2N)cc1

>  <score_type>  (10) 
oracle

>  <origin>  (10) 
adgpu

>  <m_score__min__energy>  (10) 
-7.75

>  <m_primary>  (10) 
energy

$$$$
10:0
     RDKit          3D

 44 47  0  0  0  0  0  0  0  0999 V2000
   -3.8110   25.0510  -30.5730 O   0  0  0  0  0  0  0  0  0  0  0  0
   -4.2300   23.7540  -29.9400 S   0  0  0  0  0  0  0  0  0  0  0  0
   -3.3480   23.4770  -28.7560 O   0  0  0  0  0  0  0  0  0  0  0  0
   -5.8750   23.8900  -29.4150 N   0  0  0  0  0  0  0  0  0  0  0  0
   -6.9520   23.3170  -30.1620 C   0  0  0  0  0  0  0  0  0  0  0  0
   -7.2960   23.7610  -31.4340 C   0  0  0  0  0  0  0  0  0  0  0  0
   -8.6060   22.8440  -31.9490 S   0  0  0  0  0  0  0  0  0  0  0  0
   -8.6790   21.9260  -30.5430 C   0  0  0  0  0  0  0  0  0  0  0  0
   -7.7180   22.3030  -29.6720 N   0  0  0  0  0  0  0  0  0  0  0  0
   -4.0810   22.4280  -31.0890 C   0  0  0  0  0  0  0  0  0  0  0  0
   -4.3540   22.6460  -32.4450 C   0  0  0  0  0  0  0  0  0  0  0  0
   -4.2220   21.6030  -33.3660 C   0  0  0  0  0  0  0  0  0  0  0  0
   -3.8320   20.3280  -32.9410 C   0  0  0  0  0  0  0  0  0  0  0  0
   -3.6920   19.3140  -33.9000 O   0  0  0  0  0  0  0  0  0  0  0  0
   -3.6710   17.9370  -33.6300 C   0  0  0  0  0  0  0  0  0  0  0  0
   -2.5050   17.1780  -33.8440 C   0  0  0  0  0  0  0  0  0  0  0  0
   -2.4770   15.8200  -33.5230 C   0  0  0  0  0  0  0  0  0  0  0  0
   -3.6030   15.2070  -32.9760 C   0  0  0  0  0  0  0  0  0  0  0  0
   -4.7630   15.9510  -32.7460 C   0  0  0  0  0  0  0  0  0  0  0  0
   -4.8110   17.3180  -33.0720 C   0  0  0  0  0  0  0  0  0  0  0  0
   -6.0590   18.0820  -32.8370 C   0  0  0  0  0  0  0  0  0  0  0  0
   -6.8880   17.7810  -31.7410 C   0  0  0  0  0  0  0  0  0  0  0  0
   -8.0620   18.5090  -31.5210 C   0  0  0  0  0  0  0  0  0  0  0  0
   -8.4150   19.5470  -32.3870 C   0  0  0  0  0  0  0  0  0  0  0  0
   -7.5940   19.8600  -33.4730 C   0  0  0  0  0  0  0  0  0  0  0  0
   -6.4200   19.1350  -33.6980 C   0  0  0  0  0  0  0  0  0  0  0  0
   -3.5470   20.1120  -31.5810 C   0  0  0  0  0  0  0  0  0  0  0  0
   -3.6780   21.1570  -30.6600 C   0  0  0  0  0  0  0  0  0  0  0  0
   -6.0740   24.3870  -28.5180 H   0  0  0  0  0  0  0  0  0  0  0  0
   -6.8014   24.5648  -31.9991 H   0  0  0  0  0  0  0  0  0  0  0  0
   -9.4108   21.1260  -30.3572 H   0  0  0  0  0  0  0  0  0  0  0  0
   -4.6735   23.6416  -32.7866 H   0  0  0  0  0  0  0  0  0  0  0  0
   -4.4259   21.7855  -34.4314 H   0  0  0  0  0  0  0  0  0  0  0  0
   -1.6102   17.6582  -34.2669 H   0  0  0  0  0  0  0  0  0  0  0  0
   -1.5645   15.2323  -33.7020 H   0  0  0  0  0  0  0  0  0  0  0  0
   -3.5783   14.1363  -32.7251 H   0  0  0  0  0  0  0  0  0  0  0  0
   -5.6457   15.4635  -32.3064 H   0  0  0  0  0  0  0  0  0  0  0  0
   -6.6114   16.9685  -31.0530 H   0  0  0  0  0  0  0  0  0  0  0  0
   -8.7081   18.2639  -30.6651 H   0  0  0  0  0  0  0  0  0  0  0  0
   -9.3393   20.1177  -32.2137 H   0  0  0  0  0  0  0  0  0  0  0  0
   -7.8719   20.6789  -34.1528 H   0  0  0  0  0  0  0  0  0  0  0  0
   -5.7752   19.3889  -34.5523 H   0  0  0  0  0  0  0  0  0  0  0  0
   -3.2201   19.1185  -31.2403 H   0  0  0  0  0  0  0  0  0  0  0  0
   -3.4638   20.9799  -29.5957 H   0  0  0  0  0  0  0  0  0  0  0  0
  1  2  2  0
  2  3  2  0
  2  4  1  0
  4  5  1  0
  5  6  2  0
  6  7  1  0
  7  8  1  0
  8  9  2  0
  2 10  1  0
 10 11  2  0
 11 12  1  0
 12 13  2  0
 13 14  1  0
 14 15  1  0
 15 16  2  0
 16 17  1  0
 17 18  2  0
 18 19  1  0
 19 20  2  0
 20 21  1  0
 21 22  2  0
 22 23  1  0
 23 24  2  0
 24 25  1  0
 25 26  2  0
 13 27  1  0
 27 28  2  0
  9  5  1  0
 28 10  1  0
 20 15  1  0
 26 21  1  0
  4 29  1  0
  6 30  1  0
  8 31  1  0
 11 32  1  0
 12 33  1  0
 16 34  1  0
 17 35  1  0
 18 36  1  0
 19 37  1  0
 22 38  1  0
 23 39  1  0
 24 40  1  0
 25 41  1  0
 26 42  1  0
 27 43  1  0
 28 44  1  0
M  END
>  <UniqueID>  (11) 
10

>  <SMILES>  (11) 
O=S(=O)(Nc1cscn1)c1ccc(Oc2ccccc2-c2ccccc2)cc1

>  <Energy>  (11) 
91.22632084594731

>  <Genealogy>  (11) 
O=S(=O)(Nc1cscn1)c1ccc(Oc2ccccc2-c2ccccc2)cc1 (3D coordinates assigned)
O=S(=O)(Nc1cscn1)c1ccc(Oc2ccccc2-c2ccccc2)cc1 (optimized conformer: 91.22632084594731 kcal/mol)

>  <smiles>  (11) 
O=S(=O)(Nc1cscn1)c1ccc(Oc2ccccc2-c2ccccc2)cc1

>  <score_type>  (11) 
oracle

>  <origin>  (11) 
adgpu

>  <m_score__min__energy>  (11) 
-9.4600000000000009

>  <m_primary>  (11) 
energy

$$$$
11:0
     RDKit          3D

 54 56  0  0  0  0  0  0  0  0999 V2000
   -3.7721   14.1859  -34.2022 H   0  0  0  0  0  0  0  0  0  0  0  0
   -4.6050   14.9030  -34.1570 C   0  0  0  0  0  0  0  0  0  0  0  0
   -4.3380   16.2670  -34.0040 C   0  0  0  0  0  0  0  0  0  0  0  0
   -3.2969   16.6159  -33.9380 H   0  0  0  0  0  0  0  0  0  0  0  0
   -5.3910   17.1950  -33.9340 C   0  0  0  0  0  0  0  0  0  0  0  0
   -5.1170   18.6440  -33.7690 C   0  0  0  0  0  0  0  0  0  0  0  0
   -3.9690   19.0910  -34.0350 O   0  0  0  0  0  0  0  0  0  0  0  0
   -6.0990   19.5480  -33.2460 N   0  0  0  0  0  0  0  0  0  0  0  0
   -5.8520   20.6850  -32.6580 C   0  0  0  0  0  0  0  0  0  0  0  0
   -4.6060   21.1340  -32.3520 N   0  0  0  0  0  0  0  0  0  0  0  0
   -3.6830   20.6750  -32.5120 H   0  0  0  0  0  0  0  0  0  0  0  0
   -4.8290   22.2980  -31.7200 C   0  0  0  0  0  0  0  0  0  0  0  0
   -3.8930   23.1630  -31.1600 C   0  0  0  0  0  0  0  0  0  0  0  0
   -2.8159   22.9470  -31.2167 H   0  0  0  0  0  0  0  0  0  0  0  0
   -4.3700   24.3280  -30.5160 C   0  0  0  0  0  0  0  0  0  0  0  0
   -3.4740   25.2550  -29.8890 N   0  0  0  0  0  0  0  0  0  0  0  0
   -2.3840   24.9280  -29.0170 C   0  0  0  0  0  0  0  0  0  0  0  0
   -1.2360   25.3720  -29.2880 O   0  0  0  0  0  0  0  0  0  0  0  0
   -2.5680   24.0410  -27.8130 C   0  0  0  0  0  0  0  0  0  0  0  0
   -2.5865   22.9913  -28.1413 H   0  0  0  0  0  0  0  0  0  0  0  0
   -1.7317   24.2189  -27.1209 H   0  0  0  0  0  0  0  0  0  0  0  0
   -3.8710   24.3560  -27.0830 C   0  0  0  0  0  0  0  0  0  0  0  0
   -3.7019   24.3151  -25.9968 H   0  0  0  0  0  0  0  0  0  0  0  0
   -4.2140   25.3629  -27.3630 H   0  0  0  0  0  0  0  0  0  0  0  0
   -4.6361   23.6169  -27.3630 H   0  0  0  0  0  0  0  0  0  0  0  0
   -5.7640   24.5530  -30.4130 C   0  0  0  0  0  0  0  0  0  0  0  0
   -6.1325   25.4416  -29.8795 H   0  0  0  0  0  0  0  0  0  0  0  0
   -6.6840   23.6550  -30.9840 C   0  0  0  0  0  0  0  0  0  0  0  0
   -7.7679   23.8287  -30.9136 H   0  0  0  0  0  0  0  0  0  0  0  0
   -6.1730   22.5360  -31.6430 C   0  0  0  0  0  0  0  0  0  0  0  0
   -6.8360   21.5250  -32.2400 N   0  0  0  0  0  0  0  0  0  0  0  0
   -8.2840   21.3170  -32.3180 C   0  0  0  0  0  0  0  0  0  0  0  0
   -8.5663   21.1133  -33.3615 H   0  0  0  0  0  0  0  0  0  0  0  0
   -8.7969   22.2221  -31.9606 H   0  0  0  0  0  0  0  0  0  0  0  0
   -8.6940   20.1320  -31.4430 C   0  0  0  0  0  0  0  0  0  0  0  0
   -9.5551   20.4242  -30.8240 H   0  0  0  0  0  0  0  0  0  0  0  0
   -7.8381   19.8536  -30.8106 H   0  0  0  0  0  0  0  0  0  0  0  0
   -9.0790   18.9250  -32.2930 C   0  0  0  0  0  0  0  0  0  0  0  0
   -9.3471   18.0844  -31.6361 H   0  0  0  0  0  0  0  0  0  0  0  0
   -9.9394   19.1831  -32.9279 H   0  0  0  0  0  0  0  0  0  0  0  0
   -8.2281   18.6372  -32.9279 H   0  0  0  0  0  0  0  0  0  0  0  0
   -6.7140   16.7340  -34.0450 C   0  0  0  0  0  0  0  0  0  0  0  0
   -7.5470   17.4516  -34.0113 H   0  0  0  0  0  0  0  0  0  0  0  0
   -6.9790   15.3690  -34.1980 C   0  0  0  0  0  0  0  0  0  0  0  0
   -8.0187   15.0184  -34.2756 H   0  0  0  0  0  0  0  0  0  0  0  0
   -5.9220   14.4430  -34.2530 C   0  0  0  0  0  0  0  0  0  0  0  0
   -6.1370   13.0650  -34.4020 O   0  0  0  0  0  0  0  0  0  0  0  0
   -7.3150   12.4880  -34.9610 C   0  0  0  0  0  0  0  0  0  0  0  0
   -7.7641   13.1922  -35.6769 H   0  0  0  0  0  0  0  0  0  0  0  0
   -7.0550   11.5536  -35.4800 H   0  0  0  0  0  0  0  0  0  0  0  0
   -8.3100   12.1910  -33.8500 C   0  0  0  0  0  0  0  0  0  0  0  0
   -7.8239   12.3361  -32.8740 H   0  0  0  0  0  0  0  0  0  0  0  0
   -9.1698   12.8717  -33.9362 H   0  0  0  0  0  0  0  0  0  0  0  0
   -8.6560   11.1504  -33.9362 H   0  0  0  0  0  0  0  0  0  0  0  0
  1  2  1  0
  2  3  2  0
  3  4  1  0
  3  5  1  0
  5  6  1  0
  6  7  2  0
  6  8  1  0
  8  9  2  0
  9 10  1  0
 10 11  1  0
 10 12  1  0
 12 13  2  0
 13 14  1  0
 13 15  1  0
 15 16  1  0
 16 17  1  0
 17 18  2  0
 17 19  1  0
 19 20  1  0
 19 21  1  0
 19 22  1  0
 22 23  1  0
 22 24  1  0
 22 25  1  0
 15 26  2  0
 26 27  1  0
 26 28  1  0
 28 29  1  0
 28 30  2  0
 30 31  1  0
 31 32  1  0
 32 33  1  0
 32 34  1  0
 32 35  1  0
 35 36  1  0
 35 37  1  0
 35 38  1  0
 38 39  1  0
 38 40  1  0
 38 41  1  0
  5 42  2  0
 42 43  1  0
 42 44  1  0
 44 45  1  0
 44 46  2  0
 46 47  1  0
 47 48  1  0
 48 49  1  0
 48 50  1  0
 48 51  1  0
 51 52  1  0
 51 53  1  0
 51 54  1  0
 46  2  1  0
 31  9  1  0
 30 12  1  0
M  CHG  1  16  -1
M  END
>  <UniqueID>  (12) 
11

>  <SMILES>  (12) 
CCCn1/c(=N/C(=O)c2ccc(OCC)cc2)[nH]c2cc([N-]C(=O)CC)ccc21

>  <Energy>  (12) 
95.47901001996523

>  <Genealogy>  (12) 
CCCn1c(=NC(=O)c2ccc(OCC)cc2)[nH]c2cc([N-]C(=O)CC)ccc21 (protonated)
CCCn1/c(=N/C(=O)c2ccc(OCC)cc2)[nH]c2cc([N-]C(=O)CC)ccc21 (cis-trans isomerization)
CCCn1/c(=N/C(=O)c2ccc(OCC)cc2)[nH]c2cc([N-]C(=O)CC)ccc21 (3D coordinates assigned)
CCCn1/c(=N/C(=O)c2ccc(OCC)cc2)[nH]c2cc([N-]C(=O)CC)ccc21 (optimized conformer: 95.47901001996523 kcal/mol)

>  <smiles>  (12) 
CCCn1c(=NC(=O)c2ccc(OCC)cc2)[nH]c2cc(NC(=O)CC)ccc21

>  <score_type>  (12) 
oracle

>  <origin>  (12) 
adgpu

>  <m_score__min__energy>  (12) 
-10.6

>  <m_primary>  (12) 
energy

$$$$
12:0
     RDKit          3D

 37 39  0  0  0  0  0  0  0  0999 V2000
   -7.0230   25.5590  -29.6310 O   0  0  0  0  0  0  0  0  0  0  0  0
   -6.2590   24.7140  -30.1690 C   0  0  0  0  0  0  0  0  0  0  0  0
   -6.3500   23.3680  -30.4660 C   0  0  0  0  0  0  0  0  0  0  0  0
   -7.3490   22.3640  -30.2180 N   0  0  0  0  0  0  0  0  0  0  0  0
   -7.9400   21.8750  -31.4820 C   0  0  0  0  0  0  0  0  0  0  0  0
   -7.0740   20.7300  -32.0800 C   0  0  0  0  0  0  0  0  0  0  0  0
   -7.6020   19.3450  -31.6900 C   0  0  0  0  0  0  0  0  0  0  0  0
   -9.0330   19.1150  -32.2150 C   0  0  0  0  0  0  0  0  0  0  0  0
   -9.8590   20.4130  -32.3270 C   0  0  0  0  0  0  0  0  0  0  0  0
   -9.4230   21.4450  -31.2840 C   0  0  0  0  0  0  0  0  0  0  0  0
   -5.0620   23.4000  -30.9920 C   0  0  0  0  0  0  0  0  0  0  0  0
   -4.1210   22.4340  -31.5940 C   0  0  0  0  0  0  0  0  0  0  0  0
   -4.2730   21.9970  -32.9190 C   0  0  0  0  0  0  0  0  0  0  0  0
   -3.3750   21.0760  -33.4690 C   0  0  0  0  0  0  0  0  0  0  0  0
   -2.3140   20.5870  -32.7010 C   0  0  0  0  0  0  0  0  0  0  0  0
   -1.1890   19.4310  -33.3920 Cl  0  0  0  0  0  0  0  0  0  0  0  0
   -2.1460   21.0260  -31.3850 C   0  0  0  0  0  0  0  0  0  0  0  0
   -3.0420   21.9470  -30.8340 C   0  0  0  0  0  0  0  0  0  0  0  0
   -4.9840   24.7490  -30.6910 C   0  0  0  0  0  0  0  0  0  0  0  0
   -4.1090   25.6440  -30.8290 O   0  0  0  0  0  0  0  0  0  0  0  0
   -6.8700   21.5730  -29.7270 H   0  0  0  0  0  0  0  0  0  0  0  0
   -8.0890   22.7350  -29.5840 H   0  0  0  0  0  0  0  0  0  0  0  0
   -7.9448   22.7022  -32.2071 H   0  0  0  0  0  0  0  0  0  0  0  0
   -7.0800   20.8162  -33.1766 H   0  0  0  0  0  0  0  0  0  0  0  0
   -6.0551   20.8300  -31.6778 H   0  0  0  0  0  0  0  0  0  0  0  0
   -6.9383   18.5774  -32.1145 H   0  0  0  0  0  0  0  0  0  0  0  0
   -7.6239   19.2817  -30.5920 H   0  0  0  0  0  0  0  0  0  0  0  0
   -8.9691   18.6549  -33.2121 H   0  0  0  0  0  0  0  0  0  0  0  0
   -9.5450   18.4651  -31.4901 H   0  0  0  0  0  0  0  0  0  0  0  0
   -9.7210   20.8393  -33.3316 H   0  0  0  0  0  0  0  0  0  0  0  0
  -10.9162   20.1667  -32.1490 H   0  0  0  0  0  0  0  0  0  0  0  0
  -10.0661   22.3332  -31.3713 H   0  0  0  0  0  0  0  0  0  0  0  0
   -9.5163   20.9860  -30.2887 H   0  0  0  0  0  0  0  0  0  0  0  0
   -5.1038   22.3812  -33.5291 H   0  0  0  0  0  0  0  0  0  0  0  0
   -3.5039   20.7361  -34.5072 H   0  0  0  0  0  0  0  0  0  0  0  0
   -1.3079   20.6465  -30.7820 H   0  0  0  0  0  0  0  0  0  0  0  0
   -2.9023   22.2932  -29.7993 H   0  0  0  0  0  0  0  0  0  0  0  0
  1  2  2  0
  2  3  1  0
  3  4  1  0
  4  5  1  0
  5  6  1  0
  6  7  1  0
  7  8  1  0
  8  9  1  0
  9 10  1  0
  3 11  2  0
 11 12  1  0
 12 13  2  0
 13 14  1  0
 14 15  2  0
 15 16  1  0
 15 17  1  0
 17 18  2  0
 11 19  1  0
 19 20  2  0
 19  2  1  0
 10  5  1  0
 18 12  1  0
  4 21  1  0
  4 22  1  0
  5 23  1  0
  6 24  1  0
  6 25  1  0
  7 26  1  0
  7 27  1  0
  8 28  1  0
  8 29  1  0
  9 30  1  0
  9 31  1  0
 10 32  1  0
 10 33  1  0
 13 34  1  0
 14 35  1  0
 17 36  1  0
 18 37  1  0
M  CHG  1   4   1
M  END
>  <UniqueID>  (13) 
12

>  <SMILES>  (13) 
O=c1c([NH2+]C2CCCCC2)c(-c2ccc(Cl)cc2)c1=O

>  <Energy>  (13) 
32.8069106024801

>  <Genealogy>  (13) 
O=c1c([NH2+]C2CCCCC2)c(-c2ccc(Cl)cc2)c1=O (protonated)
O=c1c([NH2+]C2CCCCC2)c(-c2ccc(Cl)cc2)c1=O (3D coordinates assigned)
O=c1c([NH2+]C2CCCCC2)c(-c2ccc(Cl)cc2)c1=O (nonaromatic ring conformer: 32.8069106024801 kcal/mol)

>  <smiles>  (13) 
O=c1c(NC2CCCCC2)c(-c2ccc(Cl)cc2)c1=O

>  <score_type>  (13) 
oracle

>  <origin>  (13) 
adgpu

>  <m_score__min__energy>  (13) 
-7.79

>  <m_primary>  (13) 
energy

$$$$
13:0
     RDKit          3D

 25 26  0  0  0  0  0  0  0  0999 V2000
   -3.5440   25.3040  -30.4960 O   0  0  0  0  0  0  0  0  0  0  0  0
   -2.8970   24.5990  -29.4880 C   0  0  0  0  0  0  0  0  0  0  0  0
   -3.4110   23.3720  -29.0560 C   0  0  0  0  0  0  0  0  0  0  0  0
   -2.7660   22.6560  -28.0440 C   0  0  0  0  0  0  0  0  0  0  0  0
   -1.6040   23.1700  -27.4460 C   0  0  0  0  0  0  0  0  0  0  0  0
   -0.8880   22.3860  -26.3780 C   0  0  0  0  0  0  0  0  0  0  0  0
   -1.4820   20.9810  -26.2520 C   0  0  0  0  0  0  0  0  0  0  0  0
   -0.7540   20.0480  -27.1060 N   0  0  0  0  0  0  0  0  0  0  0  0
   -1.0000   18.7390  -27.2650 C   0  0  0  0  0  0  0  0  0  0  0  0
   -0.1290   18.2600  -28.2180 C   0  0  0  0  0  0  0  0  0  0  0  0
    0.6520   19.2650  -28.6650 N   0  0  0  0  0  0  0  0  0  0  0  0
    0.2380   20.3450  -27.9670 C   0  0  0  0  0  0  0  0  0  0  0  0
   -1.0840   24.3970  -27.8910 C   0  0  0  0  0  0  0  0  0  0  0  0
   -1.7300   25.1100  -28.9060 C   0  0  0  0  0  0  0  0  0  0  0  0
   -1.2110   26.3260  -29.3350 O   0  0  0  0  0  0  0  0  0  0  0  0
   -4.3262   22.9692  -29.5145 H   0  0  0  0  0  0  0  0  0  0  0  0
   -3.1696   21.6871  -27.7149 H   0  0  0  0  0  0  0  0  0  0  0  0
    0.1771   22.3060  -26.6409 H   0  0  0  0  0  0  0  0  0  0  0  0
   -1.0043   22.9079  -25.4167 H   0  0  0  0  0  0  0  0  0  0  0  0
   -1.4098   20.6484  -25.2060 H   0  0  0  0  0  0  0  0  0  0  0  0
   -2.5360   21.0073  -26.5656 H   0  0  0  0  0  0  0  0  0  0  0  0
   -1.7615   18.1528  -26.7297 H   0  0  0  0  0  0  0  0  0  0  0  0
   -0.0779   17.2166  -28.5624 H   0  0  0  0  0  0  0  0  0  0  0  0
    0.6628   21.3524  -28.0881 H   0  0  0  0  0  0  0  0  0  0  0  0
   -0.1650   24.7985  -27.4392 H   0  0  0  0  0  0  0  0  0  0  0  0
  1  2  1  0
  2  3  2  0
  3  4  1  0
  4  5  2  0
  5  6  1  0
  6  7  1  0
  7  8  1  0
  8  9  1  0
  9 10  2  0
 10 11  1  0
 11 12  2  0
  5 13  1  0
 13 14  2  0
 14 15  1  0
 14  2  1  0
 12  8  1  0
  3 16  1  0
  4 17  1  0
  6 18  1  0
  6 19  1  0
  7 20  1  0
  7 21  1  0
  9 22  1  0
 10 23  1  0
 12 24  1  0
 13 25  1  0
M  CHG  2   1  -1  15  -1
M  END
>  <UniqueID>  (14) 
13

>  <SMILES>  (14) 
[O-]c1ccc(CCn2ccnc2)cc1[O-]

>  <Energy>  (14) 
51.056362450375346

>  <Genealogy>  (14) 
[O-]c1ccc(CCn2ccnc2)cc1[O-] (protonated)
[O-]c1ccc(CCn2ccnc2)cc1[O-] (3D coordinates assigned)
[O-]c1ccc(CCn2ccnc2)cc1[O-] (optimized conformer: 51.056362450375346 kcal/mol)

>  <smiles>  (14) 
Oc1ccc(CCn2ccnc2)cc1O

>  <score_type>  (14) 
oracle

>  <origin>  (14) 
adgpu

>  <m_score__min__energy>  (14) 
-10.92

>  <m_primary>  (14) 
energy

$$$$
14:0
     RDKit          3D

 48 52  0  0  0  0  0  0  0  0999 V2000
   -0.4360   27.7280  -27.2100 C   0  0  0  0  0  0  0  0  0  0  0  0
   -0.0460   26.3030  -27.4600 C   0  0  0  0  0  0  0  0  0  0  0  0
    1.2200   25.8080  -27.0720 C   0  0  0  0  0  0  0  0  0  0  0  0
    1.5880   24.4740  -27.3580 C   0  0  0  0  0  0  0  0  0  0  0  0
    0.7030   23.6210  -28.0420 C   0  0  0  0  0  0  0  0  0  0  0  0
   -0.5320   24.1400  -28.4210 C   0  0  0  0  0  0  0  0  0  0  0  0
   -1.5120   23.5150  -29.0890 N   0  0  0  0  0  0  0  0  0  0  0  0
   -2.4590   24.4840  -29.1990 C   0  0  0  0  0  0  0  0  0  0  0  0
   -3.7470   24.2650  -29.8670 C   0  0  0  0  0  0  0  0  0  0  0  0
   -4.5480   25.2440  -30.4390 C   0  0  0  0  0  0  0  0  0  0  0  0
   -5.7210   24.7380  -31.0130 C   0  0  0  0  0  0  0  0  0  0  0  0
   -5.8540   23.3520  -30.8940 C   0  0  0  0  0  0  0  0  0  0  0  0
   -6.9770   22.5140  -31.3980 C   0  0  0  0  0  0  0  0  0  0  0  0
   -8.3150   22.9240  -31.2490 C   0  0  0  0  0  0  0  0  0  0  0  0
   -9.3590   22.1240  -31.7170 C   0  0  0  0  0  0  0  0  0  0  0  0
   -9.0880   20.9110  -32.3470 C   0  0  0  0  0  0  0  0  0  0  0  0
   -7.7610   20.4870  -32.5270 C   0  0  0  0  0  0  0  0  0  0  0  0
   -7.4540   19.2270  -33.1490 N   0  0  0  0  0  0  0  0  0  0  0  0
   -6.9380   18.0890  -32.4390 C   0  0  0  0  0  0  0  0  0  0  0  0
   -7.1430   17.9830  -31.1980 O   0  0  0  0  0  0  0  0  0  0  0  0
   -6.2070   17.0130  -33.1520 C   0  0  0  0  0  0  0  0  0  0  0  0
   -4.8290   17.1430  -33.4100 C   0  0  0  0  0  0  0  0  0  0  0  0
   -4.1370   16.1370  -34.0900 C   0  0  0  0  0  0  0  0  0  0  0  0
   -4.8100   14.9930  -34.5240 C   0  0  0  0  0  0  0  0  0  0  0  0
   -6.1800   14.8540  -34.2820 C   0  0  0  0  0  0  0  0  0  0  0  0
   -7.1030   13.2950  -34.8900 Br  0  0  0  0  0  0  0  0  0  0  0  0
   -6.8770   15.8600  -33.6030 C   0  0  0  0  0  0  0  0  0  0  0  0
   -6.7150   21.2850  -32.0340 C   0  0  0  0  0  0  0  0  0  0  0  0
   -4.4950   22.7760  -30.0730 S   0  0  0  0  0  0  0  0  0  0  0  0
   -2.1180   25.6720  -28.6350 N   0  0  0  0  0  0  0  0  0  0  0  0
   -0.8910   25.4250  -28.1480 C   0  0  0  0  0  0  0  0  0  0  0  0
   -0.4858   27.9098  -26.1263 H   0  0  0  0  0  0  0  0  0  0  0  0
    0.3120   28.3972  -27.6601 H   0  0  0  0  0  0  0  0  0  0  0  0
   -1.4206   27.9231  -27.6601 H   0  0  0  0  0  0  0  0  0  0  0  0
    1.9245   26.4667  -26.5431 H   0  0  0  0  0  0  0  0  0  0  0  0
    2.5735   24.1000  -27.0435 H   0  0  0  0  0  0  0  0  0  0  0  0
    0.9771   22.5803  -28.2695 H   0  0  0  0  0  0  0  0  0  0  0  0
   -4.2869   26.3126  -30.4412 H   0  0  0  0  0  0  0  0  0  0  0  0
   -6.4684   25.3728  -31.5114 H   0  0  0  0  0  0  0  0  0  0  0  0
   -8.5401   23.8831  -30.7596 H   0  0  0  0  0  0  0  0  0  0  0  0
  -10.4007   22.4528  -31.5878 H   0  0  0  0  0  0  0  0  0  0  0  0
   -9.9169   20.2827  -32.7050 H   0  0  0  0  0  0  0  0  0  0  0  0
   -7.7140   19.1020  -34.1540 H   0  0  0  0  0  0  0  0  0  0  0  0
   -4.2931   18.0429  -33.0739 H   0  0  0  0  0  0  0  0  0  0  0  0
   -3.0598   16.2466  -34.2838 H   0  0  0  0  0  0  0  0  0  0  0  0
   -4.2623   14.2013  -35.0562 H   0  0  0  0  0  0  0  0  0  0  0  0
   -7.9560   15.7489  -33.4205 H   0  0  0  0  0  0  0  0  0  0  0  0
   -5.6751   20.9445  -32.1465 H   0  0  0  0  0  0  0  0  0  0  0  0
  1  2  1  0
  2  3  2  0
  3  4  1  0
  4  5  2  0
  5  6  1  0
  6  7  1  0
  7  8  1  0
  8  9  1  0
  9 10  2  0
 10 11  1  0
 11 12  2  0
 12 13  1  0
 13 14  2  0
 14 15  1  0
 15 16  2  0
 16 17  1  0
 17 18  1  0
 18 19  1  0
 19 20  2  0
 19 21  1  0
 21 22  2  0
 22 23  1  0
 23 24  2  0
 24 25  1  0
 25 26  1  0
 25 27  2  0
 17 28  2  0
 12 29  1  0
  8 30  2  0
 30 31  1  0
 31  2  1  0
 31  6  2  0
 29  9  1  0
 28 13  1  0
 27 21  1  0
  1 32  1  0
  1 33  1  0
  1 34  1  0
  3 35  1  0
  4 36  1  0
  5 37  1  0
 10 38  1  0
 11 39  1  0
 14 40  1  0
 15 41  1  0
 16 42  1  0
 18 43  1  0
 22 44  1  0
 23 45  1  0
 24 46  1  0
 27 47  1  0
 28 48  1  0
M  CHG  1   7  -1
M  END
>  <UniqueID>  (15) 
14

>  <SMILES>  (15) 
Cc1cccc2[n-]c(-c3ccc(-c4cccc(NC(=O)c5cccc(Br)c5)c4)s3)nc12

>  <Energy>  (15) 
121.93687133685901

>  <Genealogy>  (15) 
Cc1cccc2[n-]c(-c3ccc(-c4cccc(NC(=O)c5cccc(Br)c5)c4)s3)nc12 (protonated)
Cc1cccc2[n-]c(-c3ccc(-c4cccc(NC(=O)c5cccc(Br)c5)c4)s3)nc12 (3D coordinates assigned)
Cc1cccc2[n-]c(-c3ccc(-c4cccc(NC(=O)c5cccc(Br)c5)c4)s3)nc12 (optimized conformer: 121.93687133685901 kcal/mol)

>  <smiles>  (15) 
Cc1cccc2[nH]c(-c3ccc(-c4cccc(NC(=O)c5cccc(Br)c5)c4)s3)nc12

>  <score_type>  (15) 
oracle

>  <origin>  (15) 
adgpu

>  <m_score__min__energy>  (15) 
-11.35

>  <m_primary>  (15) 
energy

$$$$
15:0
     RDKit          3D

 51 53  0  0  0  0  0  0  0  0999 V2000
   -0.8960   23.7350  -25.9050 C   0  0  0  0  0  0  0  0  0  0  0  0
   -0.6530   24.0230  -27.3860 C   0  0  0  0  0  0  0  0  0  0  0  0
   -1.6360   25.0570  -27.9540 C   0  0  0  0  0  0  0  0  0  0  0  0
   -2.4640   24.4990  -29.0690 C   0  0  0  0  0  0  0  0  0  0  0  0
   -2.4000   23.2230  -29.4950 N   0  0  0  0  0  0  0  0  0  0  0  0
   -3.3240   23.2240  -30.4820 C   0  0  0  0  0  0  0  0  0  0  0  0
   -3.6470   22.0410  -31.3040 C   0  0  0  0  0  0  0  0  0  0  0  0
   -3.6640   22.1210  -32.7040 C   0  0  0  0  0  0  0  0  0  0  0  0
   -3.9740   20.9960  -33.4700 C   0  0  0  0  0  0  0  0  0  0  0  0
   -4.2640   19.7750  -32.8300 C   0  0  0  0  0  0  0  0  0  0  0  0
   -4.6020   18.5850  -33.5830 N   0  0  0  0  0  0  0  0  0  0  0  0
   -3.5550   17.6770  -34.0690 C   0  0  0  0  0  0  0  0  0  0  0  0
   -6.0060   18.3080  -33.9200 C   0  0  0  0  0  0  0  0  0  0  0  0
   -6.9130   19.0900  -33.0280 C   0  0  0  0  0  0  0  0  0  0  0  0
   -7.9330   18.5440  -32.3340 N   0  0  0  0  0  0  0  0  0  0  0  0
   -8.4900   19.6010  -31.7140 C   0  0  0  0  0  0  0  0  0  0  0  0
   -7.7870   20.7450  -32.0550 C   0  0  0  0  0  0  0  0  0  0  0  0
   -8.0350   22.1800  -31.6290 C   0  0  0  0  0  0  0  0  0  0  0  0
   -7.1040   23.1670  -32.3660 C   0  0  0  0  0  0  0  0  0  0  0  0
   -9.5000   22.5400  -31.9380 C   0  0  0  0  0  0  0  0  0  0  0  0
   -7.7850   22.2920  -30.1120 C   0  0  0  0  0  0  0  0  0  0  0  0
   -6.8220   20.3900  -32.8650 O   0  0  0  0  0  0  0  0  0  0  0  0
   -4.2310   19.7250  -31.4690 N   0  0  0  0  0  0  0  0  0  0  0  0
   -3.9370   20.8080  -30.7030 C   0  0  0  0  0  0  0  0  0  0  0  0
   -3.9120   24.4290  -30.6320 N   0  0  0  0  0  0  0  0  0  0  0  0
   -3.3560   25.1880  -29.7390 O   0  0  0  0  0  0  0  0  0  0  0  0
   -0.3062   24.4341  -25.2939 H   0  0  0  0  0  0  0  0  0  0  0  0
   -1.9648   23.8610  -25.6775 H   0  0  0  0  0  0  0  0  0  0  0  0
   -0.5919   22.7026  -25.6775 H   0  0  0  0  0  0  0  0  0  0  0  0
    0.3709   24.4062  -27.5073 H   0  0  0  0  0  0  0  0  0  0  0  0
   -0.8016   23.0830  -27.9376 H   0  0  0  0  0  0  0  0  0  0  0  0
   -2.3061   25.3888  -27.1473 H   0  0  0  0  0  0  0  0  0  0  0  0
   -1.0483   25.8948  -28.3572 H   0  0  0  0  0  0  0  0  0  0  0  0
   -3.4320   23.0746  -33.2008 H   0  0  0  0  0  0  0  0  0  0  0  0
   -3.9918   21.0625  -34.5678 H   0  0  0  0  0  0  0  0  0  0  0  0
   -3.0343   17.2255  -33.2117 H   0  0  0  0  0  0  0  0  0  0  0  0
   -4.0117   16.8842  -34.6797 H   0  0  0  0  0  0  0  0  0  0  0  0
   -2.8348   18.2413  -34.6797 H   0  0  0  0  0  0  0  0  0  0  0  0
   -6.1916   18.5920  -34.9664 H   0  0  0  0  0  0  0  0  0  0  0  0
   -6.2038   17.2348  -33.7821 H   0  0  0  0  0  0  0  0  0  0  0  0
   -9.3622   19.5626  -31.0449 H   0  0  0  0  0  0  0  0  0  0  0  0
   -6.5433   23.7615  -31.6297 H   0  0  0  0  0  0  0  0  0  0  0  0
   -6.3994   22.6051  -32.9967 H   0  0  0  0  0  0  0  0  0  0  0  0
   -7.7061   23.8376  -32.9967 H   0  0  0  0  0  0  0  0  0  0  0  0
  -10.0509   22.6754  -30.9956 H   0  0  0  0  0  0  0  0  0  0  0  0
   -9.5335   23.4731  -32.5196 H   0  0  0  0  0  0  0  0  0  0  0  0
   -9.9621   21.7287  -32.5196 H   0  0  0  0  0  0  0  0  0  0  0  0
   -8.6569   21.9014  -29.5669 H   0  0  0  0  0  0  0  0  0  0  0  0
   -6.8926   21.7076  -29.8433 H   0  0  0  0  0  0  0  0  0  0  0  0
   -7.6270   23.3469  -29.8433 H   0  0  0  0  0  0  0  0  0  0  0  0
   -3.9265   20.7170  -29.6068 H   0  0  0  0  0  0  0  0  0  0  0  0
  1  2  1  0
  2  3  1  0
  3  4  1  0
  4  5  2  0
  5  6  1  0
  6  7  1  0
  7  8  2  0
  8  9  1  0
  9 10  2  0
 10 11  1  0
 11 12  1  0
 11 13  1  0
 13 14  1  0
 14 15  2  0
 15 16  1  0
 16 17  2  0
 17 18  1  0
 18 19  1  0
 18 20  1  0
 18 21  1  0
 17 22  1  0
 10 23  1  0
 23 24  2  0
  6 25  2  0
 25 26  1  0
 26  4  1  0
 24  7  1  0
 22 14  1  0
  1 27  1  0
  1 28  1  0
  1 29  1  0
  2 30  1  0
  2 31  1  0
  3 32  1  0
  3 33  1  0
  8 34  1  0
  9 35  1  0
 12 36  1  0
 12 37  1  0
 12 38  1  0
 13 39  1  0
 13 40  1  0
 16 41  1  0
 19 42  1  0
 19 43  1  0
 19 44  1  0
 20 45  1  0
 20 46  1  0
 20 47  1  0
 21 48  1  0
 21 49  1  0
 21 50  1  0
 24 51  1  0
M  END
>  <UniqueID>  (16) 
15

>  <SMILES>  (16) 
CCCc1nc(-c2ccc(N(C)Cc3ncc(C(C)(C)C)o3)nc2)no1

>  <Energy>  (16) 
104.47306822540308

>  <Genealogy>  (16) 
CCCc1nc(-c2ccc(N(C)Cc3ncc(C(C)(C)C)o3)nc2)no1 (3D coordinates assigned)
CCCc1nc(-c2ccc(N(C)Cc3ncc(C(C)(C)C)o3)nc2)no1 (optimized conformer: 104.47306822540308 kcal/mol)

>  <smiles>  (16) 
CCCc1nc(-c2ccc(N(C)Cc3ncc(C(C)(C)C)o3)nc2)no1

>  <score_type>  (16) 
oracle

>  <origin>  (16) 
adgpu

>  <m_score__min__energy>  (16) 
-8.3300000000000001

>  <m_primary>  (16) 
energy

$$$$
16:0
     RDKit          3D

 48 51  0  0  0  0  0  0  0  0999 V2000
   -1.7620   26.4190  -25.0340 C   0  0  0  0  0  0  0  0  0  0  0  0
   -1.2710   25.6120  -26.1990 C   0  0  0  0  0  0  0  0  0  0  0  0
    0.0810   25.2550  -26.2880 C   0  0  0  0  0  0  0  0  0  0  0  0
    0.5450   24.5300  -27.3860 C   0  0  0  0  0  0  0  0  0  0  0  0
    1.8520   24.1800  -27.4620 F   0  0  0  0  0  0  0  0  0  0  0  0
   -0.3350   24.1620  -28.4090 C   0  0  0  0  0  0  0  0  0  0  0  0
   -1.6940   24.5250  -28.3450 C   0  0  0  0  0  0  0  0  0  0  0  0
   -2.6430   24.1430  -29.4200 C   0  0  0  0  0  0  0  0  0  0  0  0
   -3.7650   24.8360  -29.8290 C   0  0  0  0  0  0  0  0  0  0  0  0
   -4.3510   24.1690  -30.8380 N   0  0  0  0  0  0  0  0  0  0  0  0
   -3.5670   23.0850  -31.0150 C   0  0  0  0  0  0  0  0  0  0  0  0
   -3.8290   22.0560  -32.0320 C   0  0  0  0  0  0  0  0  0  0  0  0
   -3.5280   22.2890  -33.2340 O   0  0  0  0  0  0  0  0  0  0  0  0
   -4.3910   20.7890  -31.6560 N   0  0  0  0  0  0  0  0  0  0  0  0
   -4.7910   19.7890  -32.6080 C   0  0  0  0  0  0  0  0  0  0  0  0
   -3.8450   18.8900  -33.1330 C   0  0  0  0  0  0  0  0  0  0  0  0
   -4.2150   17.9650  -34.1130 C   0  0  0  0  0  0  0  0  0  0  0  0
   -5.5270   17.9340  -34.5860 C   0  0  0  0  0  0  0  0  0  0  0  0
   -6.4740   18.8280  -34.0820 C   0  0  0  0  0  0  0  0  0  0  0  0
   -6.1170   19.7570  -33.0930 C   0  0  0  0  0  0  0  0  0  0  0  0
   -7.1240   20.6360  -32.5680 N   0  0  0  0  0  0  0  0  0  0  0  0
   -6.9060   22.0840  -32.5320 C   0  0  0  0  0  0  0  0  0  0  0  0
   -7.6160   22.6730  -31.3110 C   0  0  0  0  0  0  0  0  0  0  0  0
   -8.9750   22.2790  -31.2850 O   0  0  0  0  0  0  0  0  0  0  0  0
   -9.0660   20.8780  -31.0980 C   0  0  0  0  0  0  0  0  0  0  0  0
   -8.4660   20.1250  -32.2900 C   0  0  0  0  0  0  0  0  0  0  0  0
   -2.5140   23.0340  -30.1730 N   0  0  0  0  0  0  0  0  0  0  0  0
   -2.1490   25.2610  -27.2370 C   0  0  0  0  0  0  0  0  0  0  0  0
   -1.4633   25.9281  -24.0960 H   0  0  0  0  0  0  0  0  0  0  0  0
   -1.3241   27.4272  -25.0758 H   0  0  0  0  0  0  0  0  0  0  0  0
   -2.8587   26.4935  -25.0758 H   0  0  0  0  0  0  0  0  0  0  0  0
    0.7789   25.5473  -25.4895 H   0  0  0  0  0  0  0  0  0  0  0  0
    0.0369   23.5855  -29.2688 H   0  0  0  0  0  0  0  0  0  0  0  0
   -4.1222   25.7828  -29.3979 H   0  0  0  0  0  0  0  0  0  0  0  0
   -4.4550   20.5530  -30.6400 H   0  0  0  0  0  0  0  0  0  0  0  0
   -2.8070   18.9153  -32.7697 H   0  0  0  0  0  0  0  0  0  0  0  0
   -3.4706   17.2603  -34.5120 H   0  0  0  0  0  0  0  0  0  0  0  0
   -5.8159   17.2045  -35.3569 H   0  0  0  0  0  0  0  0  0  0  0  0
   -7.5058   18.8037  -34.4626 H   0  0  0  0  0  0  0  0  0  0  0  0
   -5.8278   22.2916  -32.4655 H   0  0  0  0  0  0  0  0  0  0  0  0
   -7.3097   22.5399  -33.4481 H   0  0  0  0  0  0  0  0  0  0  0  0
   -7.1189   22.3160  -30.3970 H   0  0  0  0  0  0  0  0  0  0  0  0
   -7.5667   23.7704  -31.3681 H   0  0  0  0  0  0  0  0  0  0  0  0
   -8.5189   20.6006  -30.1849 H   0  0  0  0  0  0  0  0  0  0  0  0
  -10.1277   20.6045  -31.0090 H   0  0  0  0  0  0  0  0  0  0  0  0
   -8.4076   19.0523  -32.0535 H   0  0  0  0  0  0  0  0  0  0  0  0
   -9.1036   20.2730  -33.1740 H   0  0  0  0  0  0  0  0  0  0  0  0
   -3.2047   25.5653  -27.1826 H   0  0  0  0  0  0  0  0  0  0  0  0
  1  2  1  0
  2  3  2  0
  3  4  1  0
  4  5  1  0
  4  6  2  0
  6  7  1  0
  7  8  1  0
  8  9  2  0
  9 10  1  0
 10 11  1  0
 11 12  1  0
 12 13  2  0
 12 14  1  0
 14 15  1  0
 15 16  2  0
 16 17  1  0
 17 18  2  0
 18 19  1  0
 19 20  2  0
 20 21  1  0
 21 22  1  0
 22 23  1  0
 23 24  1  0
 24 25  1  0
 25 26  1  0
 11 27  2  0
  7 28  2  0
 28  2  1  0
 27  8  1  0
 20 15  1  0
 26 21  1  0
  1 29  1  0
  1 30  1  0
  1 31  1  0
  3 32  1  0
  6 33  1  0
  9 34  1  0
 14 35  1  0
 16 36  1  0
 17 37  1  0
 18 38  1  0
 19 39  1  0
 22 40  1  0
 22 41  1  0
 23 42  1  0
 23 43  1  0
 25 44  1  0
 25 45  1  0
 26 46  1  0
 26 47  1  0
 28 48  1  0
M  CHG  1  10  -1
M  END
>  <UniqueID>  (17) 
16

>  <SMILES>  (17) 
Cc1cc(F)cc(-c2c[n-]c(C(=O)Nc3ccccc3N3CCOCC3)n2)c1

>  <Energy>  (17) 
88.87368797693125

>  <Genealogy>  (17) 
Cc1cc(F)cc(-c2c[n-]c(C(=O)Nc3ccccc3N3CCOCC3)n2)c1 (protonated)
Cc1cc(F)cc(-c2c[n-]c(C(=O)Nc3ccccc3N3CCOCC3)n2)c1 (3D coordinates assigned)
Cc1cc(F)cc(-c2c[n-]c(C(=O)Nc3ccccc3N3CCOCC3)n2)c1 (nonaromatic ring conformer: 88.87368797693125 kcal/mol)

>  <smiles>  (17) 
Cc1cc(F)cc(-c2c[nH]c(C(=O)Nc3ccccc3N3CCOCC3)n2)c1

>  <score_type>  (17) 
oracle

>  <origin>  (17) 
adgpu

>  <m_score__min__energy>  (17) 
-9.8699999999999992

>  <m_primary>  (17) 
energy

$$$$
17:0
     RDKit          3D

 29 31  0  0  0  0  0  0  0  0999 V2000
    5.0500   17.0030  -28.0910 O   0  0  0  0  0  0  0  0  0  0  0  0
    3.8070   17.6230  -28.0630 C   0  0  0  0  0  0  0  0  0  0  0  0
    2.6790   16.9420  -28.5250 C   0  0  0  0  0  0  0  0  0  0  0  0
    1.4240   17.5580  -28.5000 C   0  0  0  0  0  0  0  0  0  0  0  0
    1.2860   18.8710  -28.0090 C   0  0  0  0  0  0  0  0  0  0  0  0
   -0.0310   19.5490  -27.9710 C   0  0  0  0  0  0  0  0  0  0  0  0
   -1.1570   19.1530  -27.2680 C   0  0  0  0  0  0  0  0  0  0  0  0
   -2.1270   20.0920  -27.5420 C   0  0  0  0  0  0  0  0  0  0  0  0
   -1.5380   21.0110  -28.3970 C   0  0  0  0  0  0  0  0  0  0  0  0
   -2.1670   22.2170  -28.9840 C   0  0  0  0  0  0  0  0  0  0  0  0
   -3.3600   22.1390  -29.7270 C   0  0  0  0  0  0  0  0  0  0  0  0
   -3.9330   23.2930  -30.2690 C   0  0  0  0  0  0  0  0  0  0  0  0
   -3.3240   24.5370  -30.0790 C   0  0  0  0  0  0  0  0  0  0  0  0
   -3.9000   25.6790  -30.6220 O   0  0  0  0  0  0  0  0  0  0  0  0
   -2.1380   24.6280  -29.3420 C   0  0  0  0  0  0  0  0  0  0  0  0
   -1.5280   25.8600  -29.1490 O   0  0  0  0  0  0  0  0  0  0  0  0
   -1.5620   23.4740  -28.7970 C   0  0  0  0  0  0  0  0  0  0  0  0
   -0.2940   20.6570  -28.6290 O   0  0  0  0  0  0  0  0  0  0  0  0
    2.4280   19.5480  -27.5460 C   0  0  0  0  0  0  0  0  0  0  0  0
    3.6820   18.9280  -27.5730 C   0  0  0  0  0  0  0  0  0  0  0  0
    4.8010   19.6110  -27.1120 O   0  0  0  0  0  0  0  0  0  0  0  0
    2.7781   15.9165  -28.9103 H   0  0  0  0  0  0  0  0  0  0  0  0
    0.5402   17.0146  -28.8655 H   0  0  0  0  0  0  0  0  0  0  0  0
   -1.2564   18.2682  -26.6220 H   0  0  0  0  0  0  0  0  0  0  0  0
   -3.1585   20.1092  -27.1603 H   0  0  0  0  0  0  0  0  0  0  0  0
   -3.8444   21.1637  -29.8821 H   0  0  0  0  0  0  0  0  0  0  0  0
   -4.8662   23.2221  -30.8470 H   0  0  0  0  0  0  0  0  0  0  0  0
   -0.6296   23.5504  -28.2183 H   0  0  0  0  0  0  0  0  0  0  0  0
    2.3348   20.5736  -27.1593 H   0  0  0  0  0  0  0  0  0  0  0  0
  1  2  1  0
  2  3  2  0
  3  4  1  0
  4  5  2  0
  5  6  1  0
  6  7  2  0
  7  8  1  0
  8  9  2  0
  9 10  1  0
 10 11  2  0
 11 12  1  0
 12 13  2  0
 13 14  1  0
 13 15  1  0
 15 16  1  0
 15 17  2  0
  9 18  1  0
  5 19  1  0
 19 20  2  0
 20 21  1  0
 20  2  1  0
 18  6  1  0
 17 10  1  0
  3 22  1  0
  4 23  1  0
  7 24  1  0
  8 25  1  0
 11 26  1  0
 12 27  1  0
 17 28  1  0
 19 29  1  0
M  CHG  4   1  -1  14  -1  16  -1  21  -1
M  END
>  <UniqueID>  (18) 
17

>  <SMILES>  (18) 
[O-]c1ccc(-c2ccc(-c3ccc([O-])c([O-])c3)o2)cc1[O-]

>  <Energy>  (18) 
61.00139926471086

>  <Genealogy>  (18) 
[O-]c1ccc(-c2ccc(-c3ccc([O-])c([O-])c3)o2)cc1[O-] (protonated)
[O-]c1ccc(-c2ccc(-c3ccc([O-])c([O-])c3)o2)cc1[O-] (3D coordinates assigned)
[O-]c1ccc(-c2ccc(-c3ccc([O-])c([O-])c3)o2)cc1[O-] (optimized conformer: 61.00139926471086 kcal/mol)

>  <smiles>  (18) 
Oc1ccc(-c2ccc(-c3ccc(O)c(O)c3)o2)cc1O

>  <score_type>  (18) 
oracle

>  <origin>  (18) 
adgpu

>  <m_score__min__energy>  (18) 
-12.69

>  <m_primary>  (18) 
energy

$$$$
18:0
     RDKit          3D

 49 51  0  0  0  0  0  0  0  0999 V2000
   -7.3364   19.5571  -33.0347 H   0  0  0  0  0  0  0  0  0  0  0  0
   -6.2640   19.3840  -33.2080 C   0  0  0  0  0  0  0  0  0  0  0  0
   -5.8460   18.6710  -34.3310 C   0  0  0  0  0  0  0  0  0  0  0  0
   -6.5899   18.2686  -35.0344 H   0  0  0  0  0  0  0  0  0  0  0  0
   -4.4840   18.4670  -34.5640 C   0  0  0  0  0  0  0  0  0  0  0  0
   -4.1596   17.9117  -35.4564 H   0  0  0  0  0  0  0  0  0  0  0  0
   -3.5220   18.9680  -33.6630 C   0  0  0  0  0  0  0  0  0  0  0  0
   -2.1450   18.8400  -33.9090 O   0  0  0  0  0  0  0  0  0  0  0  0
   -1.2760   19.9220  -34.2270 C   0  0  0  0  0  0  0  0  0  0  0  0
   -0.9071   20.3813  -33.2980 H   0  0  0  0  0  0  0  0  0  0  0  0
   -0.4245   19.5480  -34.8143 H   0  0  0  0  0  0  0  0  0  0  0  0
   -1.8250   20.6728  -34.8143 H   0  0  0  0  0  0  0  0  0  0  0  0
   -3.9560   19.6460  -32.5010 C   0  0  0  0  0  0  0  0  0  0  0  0
   -3.0290   20.1660  -31.5360 N   0  0  0  0  0  0  0  0  0  0  0  0
   -2.4950   21.4970  -31.5380 C   0  0  0  0  0  0  0  0  0  0  0  0
   -2.7390   22.2820  -32.4930 O   0  0  0  0  0  0  0  0  0  0  0  0
   -1.7310   21.9710  -30.4260 N   0  0  0  0  0  0  0  0  0  0  0  0
   -1.9130   23.0540  -29.7230 C   0  0  0  0  0  0  0  0  0  0  0  0
   -0.9720   23.5470  -28.8470 C   0  0  0  0  0  0  0  0  0  0  0  0
   -0.0066   23.0988  -28.5693 H   0  0  0  0  0  0  0  0  0  0  0  0
   -1.5200   24.7380  -28.3950 C   0  0  0  0  0  0  0  0  0  0  0  0
   -0.8790   25.6940  -27.4050 C   0  0  0  0  0  0  0  0  0  0  0  0
    0.5610   25.2480  -27.0730 C   0  0  0  0  0  0  0  0  0  0  0  0
    0.6900   25.2081  -25.9813 H   0  0  0  0  0  0  0  0  0  0  0  0
    0.7439   24.2511  -27.5005 H   0  0  0  0  0  0  0  0  0  0  0  0
    1.2753   25.9670  -27.5005 H   0  0  0  0  0  0  0  0  0  0  0  0
   -0.8370   27.1070  -28.0150 C   0  0  0  0  0  0  0  0  0  0  0  0
   -0.8148   27.8542  -27.2081 H   0  0  0  0  0  0  0  0  0  0  0  0
    0.0646   27.2115  -28.6364 H   0  0  0  0  0  0  0  0  0  0  0  0
   -1.7309   27.2648  -28.6364 H   0  0  0  0  0  0  0  0  0  0  0  0
   -1.7050   25.7160  -26.1050 C   0  0  0  0  0  0  0  0  0  0  0  0
   -1.0267   25.6979  -25.2392 H   0  0  0  0  0  0  0  0  0  0  0  0
   -2.3152   26.6307  -26.0737 H   0  0  0  0  0  0  0  0  0  0  0  0
   -2.3630   24.8351  -26.0737 H   0  0  0  0  0  0  0  0  0  0  0  0
   -2.7400   24.9110  -28.9470 N   0  0  0  0  0  0  0  0  0  0  0  0
   -2.9850   23.8880  -29.7520 N   0  0  0  0  0  0  0  0  0  0  0  0
   -4.2960   23.6720  -30.2990 C   0  0  0  0  0  0  0  0  0  0  0  0
   -4.9560   24.7220  -30.9560 C   0  0  0  0  0  0  0  0  0  0  0  0
   -4.4496   25.6896  -31.0876 H   0  0  0  0  0  0  0  0  0  0  0  0
   -6.2540   24.5440  -31.4440 C   0  0  0  0  0  0  0  0  0  0  0  0
   -6.7637   25.3687  -31.9636 H   0  0  0  0  0  0  0  0  0  0  0  0
   -6.9050   23.3180  -31.2720 C   0  0  0  0  0  0  0  0  0  0  0  0
   -8.6680   23.0670  -31.9610 Br  0  0  0  0  0  0  0  0  0  0  0  0
   -6.2650   22.2780  -30.5900 C   0  0  0  0  0  0  0  0  0  0  0  0
   -6.7797   21.3164  -30.4469 H   0  0  0  0  0  0  0  0  0  0  0  0
   -4.9720   22.4590  -30.0900 C   0  0  0  0  0  0  0  0  0  0  0  0
   -4.4823   21.6482  -29.5308 H   0  0  0  0  0  0  0  0  0  0  0  0
   -5.3230   19.8780  -32.3040 C   0  0  0  0  0  0  0  0  0  0  0  0
   -5.6577   20.4546  -31.4291 H   0  0  0  0  0  0  0  0  0  0  0  0
  1  2  1  0
  2  3  2  0
  3  4  1  0
  3  5  1  0
  5  6  1  0
  5  7  2  0
  7  8  1  0
  8  9  1  0
  9 10  1  0
  9 11  1  0
  9 12  1  0
  7 13  1  0
 13 14  1  0
 14 15  1  0
 15 16  2  0
 15 17  1  0
 17 18  2  0
 18 19  1  0
 19 20  1  0
 19 21  2  0
 21 22  1  0
 22 23  1  0
 23 24  1  0
 23 25  1  0
 23 26  1  0
 22 27  1  0
 27 28  1  0
 27 29  1  0
 27 30  1  0
 22 31  1  0
 31 32  1  0
 31 33  1  0
 31 34  1  0
 21 35  1  0
 35 36  1  0
 36 37  1  0
 37 38  2  0
 38 39  1  0
 38 40  1  0
 40 41  1  0
 40 42  2  0
 42 43  1  0
 42 44  1  0
 44 45  1  0
 44 46  2  0
 46 47  1  0
 13 48  2  0
 48 49  1  0
 48  2  1  0
 36 18  1  0
 46 37  1  0
M  CHG  2  14  -1  35  -1
M  END
>  <UniqueID>  (19) 
18

>  <SMILES>  (19) 
COc1ccccc1[N-]C(=O)/N=c1/cc(C(C)(C)C)[n-]n1-c1ccc(Br)cc1

>  <Energy>  (19) 
97.06620490899427

>  <Genealogy>  (19) 
COc1ccccc1[N-]C(=O)N=c1cc(C(C)(C)C)[n-]n1-c1ccc(Br)cc1 (protonated)
COc1ccccc1[N-]C(=O)/N=c1/cc(C(C)(C)C)[n-]n1-c1ccc(Br)cc1 (cis-trans isomerization)
COc1ccccc1[N-]C(=O)/N=c1/cc(C(C)(C)C)[n-]n1-c1ccc(Br)cc1 (3D coordinates assigned)
COc1ccccc1[N-]C(=O)/N=c1/cc(C(C)(C)C)[n-]n1-c1ccc(Br)cc1 (optimized conformer: 97.06620490899427 kcal/mol)

>  <smiles>  (19) 
COc1ccccc1NC(=O)N=c1cc(C(C)(C)C)[nH]n1-c1ccc(Br)cc1

>  <score_type>  (19) 
oracle

>  <origin>  (19) 
adgpu

>  <m_score__min__energy>  (19) 
-9.1600000000000001

>  <m_primary>  (19) 
energy

$$$$
19:0
     RDKit          3D

 44 46  0  0  0  0  0  0  0  0999 V2000
   -7.9916   23.9351  -31.9238 H   0  0  0  0  0  0  0  0  0  0  0  0
   -8.1530   22.8470  -31.9340 C   0  0  0  0  0  0  0  0  0  0  0  0
   -9.4530   22.3340  -31.9360 C   0  0  0  0  0  0  0  0  0  0  0  0
  -10.3135   23.0192  -31.9273 H   0  0  0  0  0  0  0  0  0  0  0  0
   -9.6620   20.9520  -31.9490 C   0  0  0  0  0  0  0  0  0  0  0  0
  -10.6867   20.5521  -31.9475 H   0  0  0  0  0  0  0  0  0  0  0  0
   -8.5660   20.0720  -31.9640 C   0  0  0  0  0  0  0  0  0  0  0  0
   -8.7800   18.5810  -31.9550 C   0  0  0  0  0  0  0  0  0  0  0  0
   -9.1894   18.2686  -32.9270 H   0  0  0  0  0  0  0  0  0  0  0  0
   -9.4828   18.3284  -31.1473 H   0  0  0  0  0  0  0  0  0  0  0  0
   -7.5190   17.8820  -31.7180 N   0  0  0  0  0  0  0  0  0  0  0  0
   -6.6610   17.5860  -32.6460 C   0  0  0  0  0  0  0  0  0  0  0  0
   -6.8200   17.8940  -33.9540 N   0  0  0  0  0  0  0  0  0  0  0  0
   -5.7880   17.5130  -34.7030 N   0  0  0  0  0  0  0  0  0  0  0  0
   -4.8120   16.9080  -33.9900 C   0  0  0  0  0  0  0  0  0  0  0  0
   -3.2490   16.3740  -34.6880 S   0  0  0  0  0  0  0  0  0  0  0  0
   -2.3560   17.9340  -34.3450 C   0  0  0  0  0  0  0  0  0  0  0  0
   -3.0674   18.7711  -34.4015 H   0  0  0  0  0  0  0  0  0  0  0  0
   -1.5574   18.0419  -35.0937 H   0  0  0  0  0  0  0  0  0  0  0  0
   -1.7230   17.9270  -32.9880 C   0  0  0  0  0  0  0  0  0  0  0  0
   -1.4250   16.8320  -32.4410 O   0  0  0  0  0  0  0  0  0  0  0  0
   -1.4590   19.1760  -32.3380 N   0  0  0  0  0  0  0  0  0  0  0  0
   -2.3500   20.2920  -32.1880 C   0  0  0  0  0  0  0  0  0  0  0  0
   -3.1340   20.7780  -33.2490 C   0  0  0  0  0  0  0  0  0  0  0  0
   -3.1319   20.2541  -34.2162 H   0  0  0  0  0  0  0  0  0  0  0  0
   -3.9160   21.9240  -33.0800 C   0  0  0  0  0  0  0  0  0  0  0  0
   -4.5384   22.2893  -33.9102 H   0  0  0  0  0  0  0  0  0  0  0  0
   -3.9110   22.6110  -31.8560 C   0  0  0  0  0  0  0  0  0  0  0  0
   -4.7060   23.7870  -31.6500 N   0  0  0  0  0  0  0  0  0  0  0  0
   -4.6030   24.6960  -30.5460 C   0  0  0  0  0  0  0  0  0  0  0  0
   -3.5160   25.2990  -30.3510 O   0  0  0  0  0  0  0  0  0  0  0  0
   -5.7640   24.9800  -29.6410 C   0  0  0  0  0  0  0  0  0  0  0  0
   -5.4398   24.9007  -28.5928 H   0  0  0  0  0  0  0  0  0  0  0  0
   -6.1386   25.9963  -29.8331 H   0  0  0  0  0  0  0  0  0  0  0  0
   -6.5654   24.2514  -29.8331 H   0  0  0  0  0  0  0  0  0  0  0  0
   -3.1540   22.1100  -30.7920 C   0  0  0  0  0  0  0  0  0  0  0  0
   -3.1789   22.6173  -29.8163 H   0  0  0  0  0  0  0  0  0  0  0  0
   -2.3660   20.9680  -30.9620 C   0  0  0  0  0  0  0  0  0  0  0  0
   -1.7539   20.5977  -30.1264 H   0  0  0  0  0  0  0  0  0  0  0  0
   -5.2040   16.8020  -32.3540 S   0  0  0  0  0  0  0  0  0  0  0  0
   -7.2630   20.5950  -31.9590 C   0  0  0  0  0  0  0  0  0  0  0  0
   -6.3995   19.9136  -31.9661 H   0  0  0  0  0  0  0  0  0  0  0  0
   -7.0580   21.9790  -31.9450 C   0  0  0  0  0  0  0  0  0  0  0  0
   -6.0351   22.3837  -31.9427 H   0  0  0  0  0  0  0  0  0  0  0  0
  1  2  1  0
  2  3  2  0
  3  4  1  0
  3  5  1  0
  5  6  1  0
  5  7  2  0
  7  8  1  0
  8  9  1  0
  8 10  1  0
  8 11  1  0
 11 12  2  0
 12 13  1  0
 13 14  1  0
 14 15  2  0
 15 16  1  0
 16 17  1  0
 17 18  1  0
 17 19  1  0
 17 20  1  0
 20 21  2  0
 20 22  1  0
 22 23  1  0
 23 24  2  0
 24 25  1  0
 24 26  1  0
 26 27  1  0
 26 28  2  0
 28 29  1  0
 29 30  1  0
 30 31  2  0
 30 32  1  0
 32 33  1  0
 32 34  1  0
 32 35  1  0
 28 36  1  0
 36 37  1  0
 36 38  2  0
 38 39  1  0
 15 40  1  0
  7 41  1  0
 41 42  1  0
 41 43  2  0
 43 44  1  0
 43  2  1  0
 40 12  1  0
 38 23  1  0
M  CHG  3  13  -1  22  -1  29  -1
M  END
>  <UniqueID>  (20) 
19

>  <SMILES>  (20) 
CC(=O)[N-]c1ccc([N-]C(=O)CSc2n[n-]/c(=N\Cc3ccccc3)s2)cc1

>  <Energy>  (20) 
80.4154404631021

>  <Genealogy>  (20) 
CC(=O)[N-]c1ccc([N-]C(=O)CSc2n[n-]c(=NCc3ccccc3)s2)cc1 (protonated)
CC(=O)[N-]c1ccc([N-]C(=O)CSc2n[n-]/c(=N\Cc3ccccc3)s2)cc1 (cis-trans isomerization)
CC(=O)[N-]c1ccc([N-]C(=O)CSc2n[n-]/c(=N\Cc3ccccc3)s2)cc1 (3D coordinates assigned)
CC(=O)[N-]c1ccc([N-]C(=O)CSc2n[n-]/c(=N\Cc3ccccc3)s2)cc1 (optimized conformer: 80.4154404631021 kcal/mol)

>  <smiles>  (20) 
CC(=O)Nc1ccc(NC(=O)CSc2n[nH]c(=NCc3ccccc3)s2)cc1

>  <score_type>  (20) 
oracle

>  <origin>  (20) 
adgpu

>  <m_score__min__energy>  (20) 
-10.65

>  <m_primary>  (20) 
energy

$$$$
20:0
     RDKit          3D

 56 57  0  0  0  0  0  0  0  0999 V2000
    4.6050   27.7220  -25.7640 H   0  0  0  0  0  0  0  0  0  0  0  0
    4.8160   26.8980  -26.3700 N   0  0  0  0  0  0  0  0  0  0  0  0
    4.1230   25.5160  -25.6000 S   0  0  0  0  0  0  0  0  0  0  0  0
    3.7900   25.8500  -24.1730 O   0  0  0  0  0  0  0  0  0  0  0  0
    5.1150   24.3870  -25.6120 O   0  0  0  0  0  0  0  0  0  0  0  0
    2.6570   25.0420  -26.4520 C   0  0  0  0  0  0  0  0  0  0  0  0
    1.6020   25.9520  -26.5860 C   0  0  0  0  0  0  0  0  0  0  0  0
    1.6880   26.9569  -26.1470 H   0  0  0  0  0  0  0  0  0  0  0  0
    0.4400   25.5920  -27.2740 C   0  0  0  0  0  0  0  0  0  0  0  0
   -0.3817   26.3162  -27.3760 H   0  0  0  0  0  0  0  0  0  0  0  0
    0.3150   24.3060  -27.8380 C   0  0  0  0  0  0  0  0  0  0  0  0
   -0.8860   23.8780  -28.5980 C   0  0  0  0  0  0  0  0  0  0  0  0
   -1.8704   24.2154  -28.2413 H   0  0  0  0  0  0  0  0  0  0  0  0
   -0.8440   23.1050  -29.6930 C   0  0  0  0  0  0  0  0  0  0  0  0
    0.1330   22.7598  -30.0622 H   0  0  0  0  0  0  0  0  0  0  0  0
   -2.0620   22.7020  -30.4190 C   0  0  0  0  0  0  0  0  0  0  0  0
   -2.0210   22.4680  -31.6590 O   0  0  0  0  0  0  0  0  0  0  0  0
   -3.3050   22.5930  -29.7110 N   0  0  0  0  0  0  0  0  0  0  0  0
   -3.3800   23.0140  -28.7590 H   0  0  0  0  0  0  0  0  0  0  0  0
   -4.5080   22.1550  -30.3540 C   0  0  0  0  0  0  0  0  0  0  0  0
   -4.5400   20.8780  -30.9200 C   0  0  0  0  0  0  0  0  0  0  0  0
   -3.6388   20.2485  -30.8803 H   0  0  0  0  0  0  0  0  0  0  0  0
   -5.6980   20.3820  -31.5380 C   0  0  0  0  0  0  0  0  0  0  0  0
   -5.6520   19.0620  -32.1240 N   0  0  0  0  0  0  0  0  0  0  0  0
   -4.8850   18.8400  -33.3620 C   0  0  0  0  0  0  0  0  0  0  0  0
   -5.1841   19.5902  -34.1088 H   0  0  0  0  0  0  0  0  0  0  0  0
   -5.0977   17.8241  -33.7262 H   0  0  0  0  0  0  0  0  0  0  0  0
   -3.3830   18.9590  -33.1100 C   0  0  0  0  0  0  0  0  0  0  0  0
   -3.1930   18.9741  -32.0266 H   0  0  0  0  0  0  0  0  0  0  0  0
   -2.8663   18.0990  -33.5610 H   0  0  0  0  0  0  0  0  0  0  0  0
   -3.0081   19.8897  -33.5610 H   0  0  0  0  0  0  0  0  0  0  0  0
   -6.0160   17.8990  -31.2980 C   0  0  0  0  0  0  0  0  0  0  0  0
   -5.4481   17.9375  -30.3567 H   0  0  0  0  0  0  0  0  0  0  0  0
   -7.0982   17.9384  -31.1047 H   0  0  0  0  0  0  0  0  0  0  0  0
   -5.7050   16.5870  -32.0110 C   0  0  0  0  0  0  0  0  0  0  0  0
   -5.5184   15.7999  -31.2656 H   0  0  0  0  0  0  0  0  0  0  0  0
   -6.5601   16.3003  -32.6408 H   0  0  0  0  0  0  0  0  0  0  0  0
   -4.8122   16.7146  -32.6408 H   0  0  0  0  0  0  0  0  0  0  0  0
   -6.8530   21.2020  -31.5960 C   0  0  0  0  0  0  0  0  0  0  0  0
   -8.3800   20.6800  -32.3260 S   0  0  0  0  0  0  0  0  0  0  0  0
   -8.1310   20.2220  -33.7340 O   0  0  0  0  0  0  0  0  0  0  0  0
   -9.3400   21.8350  -32.3550 O   0  0  0  0  0  0  0  0  0  0  0  0
   -9.1090   19.4030  -31.4210 N   0  0  0  0  0  0  0  0  0  0  0  0
   -8.7800   18.5080  -31.8460 H   0  0  0  0  0  0  0  0  0  0  0  0
   -6.8000   22.4980  -31.0610 C   0  0  0  0  0  0  0  0  0  0  0  0
   -7.6900   23.1418  -31.1207 H   0  0  0  0  0  0  0  0  0  0  0  0
   -5.6370   22.9900  -30.4520 C   0  0  0  0  0  0  0  0  0  0  0  0
   -5.6150   24.6610  -29.8710 S   0  0  0  0  0  0  0  0  0  0  0  0
   -5.1320   24.6970  -28.4490 O   0  0  0  0  0  0  0  0  0  0  0  0
   -7.0000   25.2420  -29.9330 O   0  0  0  0  0  0  0  0  0  0  0  0
   -4.5770   25.6290  -30.8590 N   0  0  0  0  0  0  0  0  0  0  0  0
   -3.8560   26.0440  -30.2270 H   0  0  0  0  0  0  0  0  0  0  0  0
    1.3870   23.4070  -27.7150 C   0  0  0  0  0  0  0  0  0  0  0  0
    1.3124   22.4060  -28.1650 H   0  0  0  0  0  0  0  0  0  0  0  0
    2.5470   23.7710  -27.0270 C   0  0  0  0  0  0  0  0  0  0  0  0
    3.3776   23.0554  -26.9369 H   0  0  0  0  0  0  0  0  0  0  0  0
  1  2  1  0
  2  3  1  0
  3  4  2  0
  3  5  2  0
  3  6  1  0
  6  7  2  0
  7  8  1  0
  7  9  1  0
  9 10  1  0
  9 11  2  0
 11 12  1  0
 12 13  1  0
 12 14  2  0
 14 15  1  0
 14 16  1  0
 16 17  2  0
 16 18  1  0
 18 19  1  0
 18 20  1  0
 20 21  2  0
 21 22  1  0
 21 23  1  0
 23 24  1  0
 24 25  1  0
 25 26  1  0
 25 27  1  0
 25 28  1  0
 28 29  1  0
 28 30  1  0
 28 31  1  0
 24 32  1  0
 32 33  1  0
 32 34  1  0
 32 35  1  0
 35 36  1  0
 35 37  1  0
 35 38  1  0
 23 39  2  0
 39 40  1  0
 40 41  2  0
 40 42  2  0
 40 43  1  0
 43 44  1  0
 39 45  1  0
 45 46  1  0
 45 47  2  0
 47 48  1  0
 48 49  2  0
 48 50  2  0
 48 51  1  0
 51 52  1  0
 11 53  1  0
 53 54  1  0
 53 55  2  0
 55 56  1  0
 55  6  1  0
 47 20  1  0
M  CHG  3   2  -1  43  -1  51  -1
M  END
>  <UniqueID>  (21) 
20

>  <SMILES>  (21) 
CCN(CC)c1cc(NC(=O)/C=C/c2ccc(S([NH-])(=O)=O)cc2)c(S([NH-])(=O)=O)cc1S([NH-])(=O)=O

>  <Energy>  (21) 
65.80298866804505

>  <Genealogy>  (21) 
CCN(CC)c1cc(NC(=O)C=Cc2ccc(S([NH-])(=O)=O)cc2)c(S([NH-])(=O)=O)cc1S([NH-])(=O)=O (protonated)
CCN(CC)c1cc(NC(=O)/C=C/c2ccc(S([NH-])(=O)=O)cc2)c(S([NH-])(=O)=O)cc1S([NH-])(=O)=O (cis-trans isomerization)
CCN(CC)c1cc(NC(=O)/C=C/c2ccc(S([NH-])(=O)=O)cc2)c(S([NH-])(=O)=O)cc1S([NH-])(=O)=O (3D coordinates assigned)
CCN(CC)c1cc(NC(=O)/C=C/c2ccc(S([NH-])(=O)=O)cc2)c(S([NH-])(=O)=O)cc1S([NH-])(=O)=O (optimized conformer: 65.80298866804505 kcal/mol)

>  <smiles>  (21) 
CCN(CC)c1cc(NC(=O)C=Cc2ccc(S(N)(=O)=O)cc2)c(S(N)(=O)=O)cc1S(N)(=O)=O

>  <score_type>  (21) 
oracle

>  <origin>  (21) 
adgpu

>  <m_score__min__energy>  (21) 
-10.359999999999999

>  <m_primary>  (21) 
energy

$$$$
21:0
     RDKit          3D

 35 37  0  0  0  0  0  0  0  0999 V2000
   -8.3360   22.3140  -30.2420 O   0  0  0  0  0  0  0  0  0  0  0  0
   -8.2910   22.1290  -31.7330 S   0  0  0  0  0  0  0  0  0  0  0  0
   -9.6050   22.5580  -32.3210 O   0  0  0  0  0  0  0  0  0  0  0  0
   -7.0190   23.1070  -32.3940 N   0  0  0  0  0  0  0  0  0  0  0  0
   -5.9230   23.6220  -31.6170 C   0  0  0  0  0  0  0  0  0  0  0  0
   -4.6910   22.9470  -31.5330 C   0  0  0  0  0  0  0  0  0  0  0  0
   -3.6390   23.4840  -30.7860 C   0  0  0  0  0  0  0  0  0  0  0  0
   -3.8000   24.7070  -30.1110 C   0  0  0  0  0  0  0  0  0  0  0  0
   -2.7690   25.2730  -29.3470 O   0  0  0  0  0  0  0  0  0  0  0  0
   -2.0700   24.6230  -28.3190 C   0  0  0  0  0  0  0  0  0  0  0  0
   -2.1830   25.1160  -27.0130 C   0  0  0  0  0  0  0  0  0  0  0  0
   -1.4900   24.5040  -25.9640 C   0  0  0  0  0  0  0  0  0  0  0  0
   -0.6680   23.4020  -26.2170 C   0  0  0  0  0  0  0  0  0  0  0  0
   -0.5320   22.9150  -27.5200 C   0  0  0  0  0  0  0  0  0  0  0  0
   -1.2250   23.5250  -28.5710 C   0  0  0  0  0  0  0  0  0  0  0  0
   -5.0360   25.3590  -30.1630 C   0  0  0  0  0  0  0  0  0  0  0  0
   -6.0880   24.8240  -30.9120 C   0  0  0  0  0  0  0  0  0  0  0  0
   -8.0170   20.4440  -32.1320 C   0  0  0  0  0  0  0  0  0  0  0  0
   -8.7100   19.3620  -31.6060 C   0  0  0  0  0  0  0  0  0  0  0  0
   -8.2440   18.1320  -32.0820 C   0  0  0  0  0  0  0  0  0  0  0  0
   -7.1900   18.2590  -32.9770 C   0  0  0  0  0  0  0  0  0  0  0  0
   -6.3540   16.9370  -33.7640 Cl  0  0  0  0  0  0  0  0  0  0  0  0
   -6.8270   19.8880  -33.1810 S   0  0  0  0  0  0  0  0  0  0  0  0
   -7.0060   23.2300  -33.4310 H   0  0  0  0  0  0  0  0  0  0  0  0
   -4.5552   21.9904  -32.0588 H   0  0  0  0  0  0  0  0  0  0  0  0
   -2.6806   22.9475  -30.7258 H   0  0  0  0  0  0  0  0  0  0  0  0
   -2.8204   25.9895  -26.8113 H   0  0  0  0  0  0  0  0  0  0  0  0
   -1.5917   24.8900  -24.9390 H   0  0  0  0  0  0  0  0  0  0  0  0
   -0.1279   22.9178  -25.3901 H   0  0  0  0  0  0  0  0  0  0  0  0
    0.1201   22.0518  -27.7191 H   0  0  0  0  0  0  0  0  0  0  0  0
   -1.1096   23.1459  -29.5971 H   0  0  0  0  0  0  0  0  0  0  0  0
   -5.1814   26.2992  -29.6108 H   0  0  0  0  0  0  0  0  0  0  0  0
   -7.0535   25.3498  -30.9491 H   0  0  0  0  0  0  0  0  0  0  0  0
   -9.5389   19.4616  -30.8898 H   0  0  0  0  0  0  0  0  0  0  0  0
   -8.6688   17.1638  -31.7785 H   0  0  0  0  0  0  0  0  0  0  0  0
  1  2  2  0
  2  3  2  0
  2  4  1  0
  4  5  1  0
  5  6  2  0
  6  7  1  0
  7  8  2  0
  8  9  1  0
  9 10  1  0
 10 11  2  0
 11 12  1  0
 12 13  2  0
 13 14  1  0
 14 15  2  0
  8 16  1  0
 16 17  2  0
  2 18  1  0
 18 19  2  0
 19 20  1  0
 20 21  2  0
 21 22  1  0
 21 23  1  0
 17  5  1  0
 23 18  1  0
 15 10  1  0
  4 24  1  0
  6 25  1  0
  7 26  1  0
 11 27  1  0
 12 28  1  0
 13 29  1  0
 14 30  1  0
 15 31  1  0
 16 32  1  0
 17 33  1  0
 19 34  1  0
 20 35  1  0
M  END
>  <UniqueID>  (22) 
21

>  <SMILES>  (22) 
O=S(=O)(Nc1ccc(Oc2ccccc2)cc1)c1ccc(Cl)s1

>  <Energy>  (22) 
73.07475318250935

>  <Genealogy>  (22) 
O=S(=O)(Nc1ccc(Oc2ccccc2)cc1)c1ccc(Cl)s1 (3D coordinates assigned)
O=S(=O)(Nc1ccc(Oc2ccccc2)cc1)c1ccc(Cl)s1 (optimized conformer: 73.07475318250935 kcal/mol)

>  <smiles>  (22) 
O=S(=O)(Nc1ccc(Oc2ccccc2)cc1)c1ccc(Cl)s1

>  <score_type>  (22) 
oracle

>  <origin>  (22) 
adgpu

>  <m_score__min__energy>  (22) 
-9.4100000000000001

>  <m_primary>  (22) 
energy

$$$$
22:0
     RDKit          3D

 33 35  0  0  0  0  0  0  0  0999 V2000
   -4.2700   17.9320  -34.5850 C   0  0  0  0  0  0  0  0  0  0  0  0
   -5.0470   18.9920  -33.9370 N   0  0  0  0  0  0  0  0  0  0  0  0
   -6.5110   18.9420  -33.9160 C   0  0  0  0  0  0  0  0  0  0  0  0
   -4.3730   20.1000  -33.3150 C   0  0  0  0  0  0  0  0  0  0  0  0
   -5.0180   21.0620  -32.6220 N   0  0  0  0  0  0  0  0  0  0  0  0
   -4.1660   22.0080  -32.1400 C   0  0  0  0  0  0  0  0  0  0  0  0
   -4.6340   23.1540  -31.3340 C   0  0  0  0  0  0  0  0  0  0  0  0
   -3.7970   24.0740  -30.8070 N   0  0  0  0  0  0  0  0  0  0  0  0
   -4.5480   24.9090  -30.1090 N   0  0  0  0  0  0  0  0  0  0  0  0
   -5.8230   24.4990  -30.2050 C   0  0  0  0  0  0  0  0  0  0  0  0
   -7.0890   25.2950  -29.5330 S   0  0  0  0  0  0  0  0  0  0  0  0
   -5.9200   23.3950  -30.9750 N   0  0  0  0  0  0  0  0  0  0  0  0
   -7.1130   22.6970  -31.3660 C   0  0  0  0  0  0  0  0  0  0  0  0
   -8.1750   23.3940  -31.9600 C   0  0  0  0  0  0  0  0  0  0  0  0
   -9.3420   22.7160  -32.3250 C   0  0  0  0  0  0  0  0  0  0  0  0
   -9.4520   21.3400  -32.1050 C   0  0  0  0  0  0  0  0  0  0  0  0
   -8.3910   20.6380  -31.5230 C   0  0  0  0  0  0  0  0  0  0  0  0
   -8.5300   18.9120  -31.2430 Cl  0  0  0  0  0  0  0  0  0  0  0  0
   -7.2230   21.3130  -31.1570 C   0  0  0  0  0  0  0  0  0  0  0  0
   -2.8220   21.7920  -32.4430 C   0  0  0  0  0  0  0  0  0  0  0  0
   -2.7120   20.3800  -33.3500 S   0  0  0  0  0  0  0  0  0  0  0  0
   -3.8044   17.2969  -33.8170 H   0  0  0  0  0  0  0  0  0  0  0  0
   -4.9355   17.3207  -35.2122 H   0  0  0  0  0  0  0  0  0  0  0  0
   -3.4868   18.3827  -35.2122 H   0  0  0  0  0  0  0  0  0  0  0  0
   -6.8626   18.9300  -32.8738 H   0  0  0  0  0  0  0  0  0  0  0  0
   -6.9155   19.8269  -34.4292 H   0  0  0  0  0  0  0  0  0  0  0  0
   -6.8542   18.0316  -34.4292 H   0  0  0  0  0  0  0  0  0  0  0  0
   -4.1890   25.7400  -29.5890 H   0  0  0  0  0  0  0  0  0  0  0  0
   -8.0898   24.4760  -32.1391 H   0  0  0  0  0  0  0  0  0  0  0  0
  -10.1752   23.2665  -32.7862 H   0  0  0  0  0  0  0  0  0  0  0  0
  -10.3726   20.8093  -32.3894 H   0  0  0  0  0  0  0  0  0  0  0  0
   -6.3879   20.7585  -30.7041 H   0  0  0  0  0  0  0  0  0  0  0  0
   -1.9807   22.4332  -32.1414 H   0  0  0  0  0  0  0  0  0  0  0  0
  1  2  1  0
  2  3  1  0
  2  4  1  0
  4  5  2  0
  5  6  1  0
  6  7  1  0
  7  8  2  0
  8  9  1  0
  9 10  1  0
 10 11  2  0
 10 12  1  0
 12 13  1  0
 13 14  2  0
 14 15  1  0
 15 16  2  0
 16 17  1  0
 17 18  1  0
 17 19  2  0
  6 20  2  0
 20 21  1  0
 21  4  1  0
 12  7  1  0
 19 13  1  0
  1 22  1  0
  1 23  1  0
  1 24  1  0
  3 25  1  0
  3 26  1  0
  3 27  1  0
  9 28  1  0
 14 29  1  0
 15 30  1  0
 16 31  1  0
 19 32  1  0
 20 33  1  0
M  END
>  <UniqueID>  (23) 
22

>  <SMILES>  (23) 
CN(C)c1nc(-c2n[nH]c(=S)n2-c2cccc(Cl)c2)cs1

>  <Energy>  (23) 
103.93233511336874

>  <Genealogy>  (23) 
CN(C)c1nc(-c2n[nH]c(=S)n2-c2cccc(Cl)c2)cs1 (3D coordinates assigned)
CN(C)c1nc(-c2n[nH]c(=S)n2-c2cccc(Cl)c2)cs1 (optimized conformer: 103.93233511336874 kcal/mol)

>  <smiles>  (23) 
CN(C)c1nc(-c2n[nH]c(=S)n2-c2cccc(Cl)c2)cs1

>  <score_type>  (23) 
oracle

>  <origin>  (23) 
adgpu

>  <m_score__min__energy>  (23) 
-7.9699999999999998

>  <m_primary>  (23) 
energy

$$$$
23:0
     RDKit          3D

 33 34  0  0  0  0  0  0  0  0999 V2000
   -3.2350   15.9120  -35.0080 C   0  0  0  0  0  0  0  0  0  0  0  0
   -3.9530   17.0020  -35.5570 O   0  0  0  0  0  0  0  0  0  0  0  0
   -4.3340   17.9940  -34.6660 C   0  0  0  0  0  0  0  0  0  0  0  0
   -5.6430   18.3470  -34.4280 C   0  0  0  0  0  0  0  0  0  0  0  0
   -5.9730   19.3390  -33.5350 C   0  0  0  0  0  0  0  0  0  0  0  0
   -4.9980   20.0490  -32.8120 C   0  0  0  0  0  0  0  0  0  0  0  0
   -5.4270   21.0450  -31.9200 N   0  0  0  0  0  0  0  0  0  0  0  0
   -4.9560   22.3630  -31.8070 C   0  0  0  0  0  0  0  0  0  0  0  0
   -4.0370   22.7270  -32.5840 O   0  0  0  0  0  0  0  0  0  0  0  0
   -5.4380   23.3570  -30.8630 C   0  0  0  0  0  0  0  0  0  0  0  0
   -6.6290   23.4530  -30.1830 C   0  0  0  0  0  0  0  0  0  0  0  0
   -8.0000   22.3480  -30.2510 S   0  0  0  0  0  0  0  0  0  0  0  0
   -8.5430   22.1260  -31.9660 C   0  0  0  0  0  0  0  0  0  0  0  0
   -6.6280   24.5740  -29.3990 N   0  0  0  0  0  0  0  0  0  0  0  0
   -5.4690   25.1840  -29.5680 N   0  0  0  0  0  0  0  0  0  0  0  0
   -4.7190   24.4890  -30.4400 C   0  0  0  0  0  0  0  0  0  0  0  0
   -3.5310   24.8010  -30.8330 N   0  0  0  0  0  0  0  0  0  0  0  0
   -3.7060   19.6830  -33.0630 C   0  0  0  0  0  0  0  0  0  0  0  0
   -3.3630   18.6740  -33.9710 C   0  0  0  0  0  0  0  0  0  0  0  0
   -3.2703   15.9655  -33.9099 H   0  0  0  0  0  0  0  0  0  0  0  0
   -3.6885   14.9678  -35.3438 H   0  0  0  0  0  0  0  0  0  0  0  0
   -2.1884   15.9559  -35.3438 H   0  0  0  0  0  0  0  0  0  0  0  0
   -6.4458   17.8218  -34.9662 H   0  0  0  0  0  0  0  0  0  0  0  0
   -7.0340   19.5852  -33.3811 H   0  0  0  0  0  0  0  0  0  0  0  0
   -6.1950   20.7740  -31.2560 H   0  0  0  0  0  0  0  0  0  0  0  0
   -9.5611   21.7097  -31.9773 H   0  0  0  0  0  0  0  0  0  0  0  0
   -8.5386   23.0981  -32.4808 H   0  0  0  0  0  0  0  0  0  0  0  0
   -7.8588   21.4354  -32.4808 H   0  0  0  0  0  0  0  0  0  0  0  0
   -7.3810   24.9200  -28.7690 H   0  0  0  0  0  0  0  0  0  0  0  0
   -5.1910   26.0780  -29.0850 H   0  0  0  0  0  0  0  0  0  0  0  0
   -3.0980   25.6550  -30.4570 H   0  0  0  0  0  0  0  0  0  0  0  0
   -2.8989   20.2045  -32.5277 H   0  0  0  0  0  0  0  0  0  0  0  0
   -2.3039   18.4227  -34.1299 H   0  0  0  0  0  0  0  0  0  0  0  0
  1  2  1  0
  2  3  1  0
  3  4  2  0
  4  5  1  0
  5  6  2  0
  6  7  1  0
  7  8  1  0
  8  9  2  0
  8 10  1  0
 10 11  2  0
 11 12  1  0
 12 13  1  0
 11 14  1  0
 14 15  1  0
 15 16  1  0
 16 17  2  3
  6 18  1  0
 18 19  2  0
 19  3  1  0
 16 10  1  0
  1 20  1  0
  1 21  1  0
  1 22  1  0
  4 23  1  0
  5 24  1  0
  7 25  1  0
 13 26  1  0
 13 27  1  0
 13 28  1  0
 14 29  1  0
 15 30  1  0
 17 31  1  0
 18 32  1  0
 19 33  1  0
M  END
>  <smiles>  (24) 
COc1ccc(NC(=O)c2c(SC)[nH][nH]c2=N)cc1

>  <score_type>  (24) 
oracle

>  <origin>  (24) 
adgpu

>  <m_score__min__energy>  (24) 
-6.6900000000000004

>  <m_primary>  (24) 
energy

$$$$
24:0
     RDKit          3D

 35 37  0  0  0  0  0  0  0  0999 V2000
    0.3600   24.4500  -27.7770 C   0  0  0  0  0  0  0  0  0  0  0  0
   -0.7580   23.7080  -28.3930 N   0  0  0  0  0  0  0  0  0  0  0  0
   -1.7500   24.3930  -29.0400 C   0  0  0  0  0  0  0  0  0  0  0  0
   -1.6960   25.6520  -29.1140 O   0  0  0  0  0  0  0  0  0  0  0  0
   -2.8280   23.6980  -29.6200 C   0  0  0  0  0  0  0  0  0  0  0  0
   -3.8640   24.3540  -30.3320 C   0  0  0  0  0  0  0  0  0  0  0  0
   -3.8690   25.6050  -30.4800 O   0  0  0  0  0  0  0  0  0  0  0  0
   -4.8770   23.6340  -30.8730 N   0  0  0  0  0  0  0  0  0  0  0  0
   -4.9580   22.2840  -30.7660 C   0  0  0  0  0  0  0  0  0  0  0  0
   -6.1040   21.5760  -31.3930 C   0  0  0  0  0  0  0  0  0  0  0  0
   -5.9040   20.5010  -32.2810 C   0  0  0  0  0  0  0  0  0  0  0  0
   -6.9960   19.8420  -32.8540 C   0  0  0  0  0  0  0  0  0  0  0  0
   -8.3030   20.2400  -32.5460 C   0  0  0  0  0  0  0  0  0  0  0  0
   -9.4190   19.5650  -33.1330 N   0  0  0  0  0  0  0  0  0  0  0  0
   -8.5100   21.3010  -31.6550 C   0  0  0  0  0  0  0  0  0  0  0  0
   -7.4200   21.9610  -31.0790 C   0  0  0  0  0  0  0  0  0  0  0  0
   -3.9480   21.5920  -30.0820 C   0  0  0  0  0  0  0  0  0  0  0  0
   -2.8700   22.2910  -29.4890 C   0  0  0  0  0  0  0  0  0  0  0  0
   -1.8750   21.6350  -28.7930 N   0  0  0  0  0  0  0  0  0  0  0  0
   -1.9200   20.1670  -28.6270 C   0  0  0  0  0  0  0  0  0  0  0  0
   -0.8350   22.3490  -28.2450 C   0  0  0  0  0  0  0  0  0  0  0  0
    0.0650   21.7470  -27.5920 O   0  0  0  0  0  0  0  0  0  0  0  0
    0.2771   24.3950  -26.6815 H   0  0  0  0  0  0  0  0  0  0  0  0
    1.3146   24.0056  -28.0953 H   0  0  0  0  0  0  0  0  0  0  0  0
    0.3212   25.5022  -28.0953 H   0  0  0  0  0  0  0  0  0  0  0  0
   -4.8814   20.1776  -32.5254 H   0  0  0  0  0  0  0  0  0  0  0  0
   -6.8277   19.0070  -33.5500 H   0  0  0  0  0  0  0  0  0  0  0  0
  -10.1850   19.1810  -32.5370 H   0  0  0  0  0  0  0  0  0  0  0  0
   -9.4860   19.4450  -34.1690 H   0  0  0  0  0  0  0  0  0  0  0  0
   -9.5343   21.6163  -31.4074 H   0  0  0  0  0  0  0  0  0  0  0  0
   -7.5931   22.7880  -30.3746 H   0  0  0  0  0  0  0  0  0  0  0  0
   -3.9942   20.4956  -30.0058 H   0  0  0  0  0  0  0  0  0  0  0  0
   -1.9276   19.9192  -27.5553 H   0  0  0  0  0  0  0  0  0  0  0  0
   -2.8307   19.7721  -29.1011 H   0  0  0  0  0  0  0  0  0  0  0  0
   -1.0352   19.7171  -29.1011 H   0  0  0  0  0  0  0  0  0  0  0  0
  1  2  1  0
  2  3  1  0
  3  4  2  0
  3  5  1  0
  5  6  1  0
  6  7  2  0
  6  8  1  0
  8  9  1  0
  9 10  1  0
 10 11  2  0
 11 12  1  0
 12 13  2  0
 13 14  1  0
 13 15  1  0
 15 16  2  0
  9 17  2  0
 17 18  1  0
 18 19  1  0
 19 20  1  0
 19 21  1  0
 21 22  2  0
 21  2  1  0
 18  5  2  0
 16 10  1  0
  1 23  1  0
  1 24  1  0
  1 25  1  0
 11 26  1  0
 12 27  1  0
 14 28  1  0
 14 29  1  0
 15 30  1  0
 16 31  1  0
 17 32  1  0
 20 33  1  0
 20 34  1  0
 20 35  1  0
M  CHG  1   8  -1
M  END
>  <UniqueID>  (25) 
23

>  <SMILES>  (25) 
Cn1c(=O)c2c(=O)[n-]c(-c3ccc(N)cc3)cc2n(C)c1=O

>  <Energy>  (25) 
58.79386325231443

>  <Genealogy>  (25) 
Cn1c(=O)c2c(=O)[n-]c(-c3ccc(N)cc3)cc2n(C)c1=O (protonated)
Cn1c(=O)c2c(=O)[n-]c(-c3ccc(N)cc3)cc2n(C)c1=O (3D coordinates assigned)
Cn1c(=O)c2c(=O)[n-]c(-c3ccc(N)cc3)cc2n(C)c1=O (optimized conformer: 58.79386325231443 kcal/mol)

>  <smiles>  (25) 
Cn1c(=O)c2c(=O)[nH]c(-c3ccc(N)cc3)cc2n(C)c1=O

>  <score_type>  (25) 
oracle

>  <origin>  (25) 
adgpu

>  <m_score__min__energy>  (25) 
-8.3200000000000003

>  <m_primary>  (25) 
energy

$$$$
25:0
     RDKit          3D

 58 62  0  0  1  0  0  0  0  0999 V2000
   -2.6400   24.8320  -27.1130 C   0  0  0  0  0  0  0  0  0  0  0  0
   -1.2670   24.8550  -27.6940 C   0  0  0  0  0  0  0  0  0  0  0  0
   -0.8190   26.3310  -27.7540 C   0  0  0  0  0  0  0  0  0  0  0  0
   -1.1990   24.3010  -29.0530 N   0  0  0  0  0  0  0  0  0  0  0  0
   -1.3790   22.8900  -29.1460 C   0  0  0  0  0  0  0  0  0  0  0  0
   -1.5810   22.1800  -28.1270 O   0  0  0  0  0  0  0  0  0  0  0  0
   -1.3310   22.2050  -30.4300 C   0  0  0  0  0  0  0  0  0  0  0  0
   -0.1200   21.6330  -30.8190 C   0  0  0  0  0  0  0  0  0  0  0  0
   -0.0180   20.9780  -32.0320 C   0  0  0  0  0  0  0  0  0  0  0  0
   -1.1240   20.8840  -32.8700 C   0  0  0  0  0  0  0  0  0  0  0  0
   -2.3480   21.4480  -32.5020 C   0  0  0  0  0  0  0  0  0  0  0  0
   -3.4910   21.4000  -33.3400 N   0  0  0  0  0  0  0  0  0  0  0  0
   -4.8120   21.1860  -32.8660 C   0  0  0  0  0  0  0  0  0  0  0  0
   -5.4050   22.2980  -32.2490 C   0  0  0  0  0  0  0  0  0  0  0  0
   -6.6850   22.2540  -31.7460 C   0  0  0  0  0  0  0  0  0  0  0  0
   -7.2090   23.2930  -31.1930 N   0  0  0  0  0  0  0  0  0  0  0  0
   -6.4250   24.5060  -31.1130 C   0  0  0  0  0  0  0  0  0  0  0  0
   -6.5280   25.2960  -29.8000 C   0  0  0  0  0  0  0  0  0  0  0  0
   -5.3210   24.5180  -30.1230 C   0  0  0  0  0  0  0  0  0  0  0  0
   -7.3390   21.0750  -31.8820 N   0  0  0  0  0  0  0  0  0  0  0  0
   -8.5700   20.7760  -31.4950 N   0  0  0  0  0  0  0  0  0  0  0  0
   -8.8660   19.5040  -31.8110 C   0  0  0  0  0  0  0  0  0  0  0  0
   -7.7250   19.0150  -32.4320 C   0  0  0  0  0  0  0  0  0  0  0  0
   -7.6090   17.8020  -32.8950 C   0  0  0  0  0  0  0  0  0  0  0  0
   -6.3820   17.3060  -33.5500 C   0  0  0  0  0  0  0  0  0  0  0  0
   -5.7470   16.2100  -33.0940 N   0  0  0  0  0  0  0  0  0  0  0  0
   -4.6790   16.0300  -33.9130 C   0  0  0  0  0  0  0  0  0  0  0  0
   -3.8370   15.0770  -33.7850 O   0  0  0  0  0  0  0  0  0  0  0  0
   -4.6690   17.0040  -34.8520 N   0  0  0  0  0  0  0  0  0  0  0  0
   -5.7260   17.8160  -34.6460 C   0  0  0  0  0  0  0  0  0  0  0  0
   -6.1230   18.9420  -35.3530 O   0  0  0  0  0  0  0  0  0  0  0  0
   -6.7710   20.0090  -32.4720 C   0  0  0  0  0  0  0  0  0  0  0  0
   -5.5020   20.0550  -32.9700 N   0  0  0  0  0  0  0  0  0  0  0  0
   -2.4040   22.0910  -31.2840 C   0  0  0  0  0  0  0  0  0  0  0  0
   -2.5736   24.8331  -26.0150 H   0  0  0  0  0  0  0  0  0  0  0  0
   -3.1947   25.7210  -27.4477 H   0  0  0  0  0  0  0  0  0  0  0  0
   -3.1646   23.9249  -27.4477 H   0  0  0  0  0  0  0  0  0  0  0  0
   -0.6206   24.2315  -27.0588 H   0  0  0  0  0  0  0  0  0  0  0  0
   -0.7009   26.7202  -26.7319 H   0  0  0  0  0  0  0  0  0  0  0  0
    0.1410   26.4015  -28.2864 H   0  0  0  0  0  0  0  0  0  0  0  0
   -1.5779   26.9232  -28.2864 H   0  0  0  0  0  0  0  0  0  0  0  0
   -1.0330   24.8980  -29.8920 H   0  0  0  0  0  0  0  0  0  0  0  0
    0.7568   21.7033  -30.1585 H   0  0  0  0  0  0  0  0  0  0  0  0
    0.9399   20.5302  -32.3351 H   0  0  0  0  0  0  0  0  0  0  0  0
   -1.0340   20.3599  -33.8329 H   0  0  0  0  0  0  0  0  0  0  0  0
   -3.3420   21.5420  -34.3850 H   0  0  0  0  0  0  0  0  0  0  0  0
   -4.8300   23.2320  -32.1650 H   0  0  0  0  0  0  0  0  0  0  0  0
   -6.5238   24.7367  -32.1840 H   0  0  0  0  0  0  0  0  0  0  0  0
   -6.4966   26.3955  -29.8126 H   0  0  0  0  0  0  0  0  0  0  0  0
   -7.2368   25.3296  -28.9595 H   0  0  0  0  0  0  0  0  0  0  0  0
   -4.3844   25.0434  -30.3611 H   0  0  0  0  0  0  0  0  0  0  0  0
   -4.7588   23.7310  -29.5990 H   0  0  0  0  0  0  0  0  0  0  0  0
   -9.8070   18.9674  -31.6194 H   0  0  0  0  0  0  0  0  0  0  0  0
   -8.4636   17.1170  -32.7932 H   0  0  0  0  0  0  0  0  0  0  0  0
   -6.0170   15.6200  -32.2800 H   0  0  0  0  0  0  0  0  0  0  0  0
   -3.9800   17.1430  -35.6240 H   0  0  0  0  0  0  0  0  0  0  0  0
   -6.6480   19.6410  -34.8380 H   0  0  0  0  0  0  0  0  0  0  0  0
   -3.3609   22.5385  -30.9772 H   0  0  0  0  0  0  0  0  0  0  0  0
  1  2  1  0
  2  3  1  0
  2  4  1  0
  4  5  1  0
  5  6  2  0
  5  7  1  0
  7  8  2  0
  8  9  1  0
  9 10  2  0
 10 11  1  0
 11 12  1  0
 12 13  1  0
 13 14  2  0
 14 15  1  0
 15 16  2  0
 16 17  1  0
 17 18  1  0
 18 19  1  0
 15 20  1  0
 20 21  1  0
 21 22  2  0
 22 23  1  0
 23 24  2  0
 24 25  1  0
 25 26  1  0
 26 27  1  0
 27 28  2  0
 27 29  1  0
 29 30  1  0
 30 31  1  0
 23 32  1  0
 32 33  2  0
 11 34  2  0
 34  7  1  0
 33 13  1  0
 19 17  1  0
 32 20  1  0
 30 25  2  0
  1 35  1  0
  1 36  1  0
  1 37  1  0
  2 38  1  0
  3 39  1  0
  3 40  1  0
  3 41  1  0
  4 42  1  0
  8 43  1  0
  9 44  1  0
 10 45  1  0
 12 46  1  0
 14 47  1  0
 17 48  1  0
 18 49  1  0
 18 50  1  0
 19 51  1  0
 19 52  1  0
 22 53  1  0
 24 54  1  0
 26 55  1  0
 29 56  1  0
 31 57  1  0
 34 58  1  0
M  END
>  <smiles>  (26) 
CC(C)NC(=O)c1cccc(Nc2cc(=NC3CC3)n3ncc(=Cc4[nH]c(=O)[nH]c4O)c3n2)c1

>  <score_type>  (26) 
oracle

>  <origin>  (26) 
adgpu

>  <m_score__min__energy>  (26) 
-10.390000000000001

>  <m_primary>  (26) 
energy

$$$$
26:0
     RDKit          3D

 46 49  0  0  0  0  0  0  0  0999 V2000
   -1.2160   26.0780  -29.9530 H   0  0  0  0  0  0  0  0  0  0  0  0
   -1.4970   25.9040  -28.9610 N   0  0  0  0  0  0  0  0  0  0  0  0
   -1.9050   24.2280  -28.8380 S   0  0  0  0  0  0  0  0  0  0  0  0
   -0.9600   23.4370  -29.6980 O   0  0  0  0  0  0  0  0  0  0  0  0
   -1.7710   23.7840  -27.4090 O   0  0  0  0  0  0  0  0  0  0  0  0
   -3.5620   23.9750  -29.3770 C   0  0  0  0  0  0  0  0  0  0  0  0
   -4.1780   24.9120  -30.2160 C   0  0  0  0  0  0  0  0  0  0  0  0
   -3.6225   25.8034  -30.5427 H   0  0  0  0  0  0  0  0  0  0  0  0
   -5.4960   24.7190  -30.6400 C   0  0  0  0  0  0  0  0  0  0  0  0
   -5.9772   25.4649  -31.2897 H   0  0  0  0  0  0  0  0  0  0  0  0
   -6.2100   23.5740  -30.2390 C   0  0  0  0  0  0  0  0  0  0  0  0
   -7.5750   23.3500  -30.6310 N   0  0  0  0  0  0  0  0  0  0  0  0
   -8.0370   22.3400  -31.3120 C   0  0  0  0  0  0  0  0  0  0  0  0
   -7.2290   21.3030  -31.6640 N   0  0  0  0  0  0  0  0  0  0  0  0
   -7.6930   20.2280  -32.3570 C   0  0  0  0  0  0  0  0  0  0  0  0
   -6.7520   19.1340  -32.7130 C   0  0  0  0  0  0  0  0  0  0  0  0
   -7.1960   17.8210  -32.9570 C   0  0  0  0  0  0  0  0  0  0  0  0
   -8.2666   17.5815  -32.8771 H   0  0  0  0  0  0  0  0  0  0  0  0
   -6.3080   16.8470  -33.2910 N   0  0  0  0  0  0  0  0  0  0  0  0
   -4.9730   17.0900  -33.4000 C   0  0  0  0  0  0  0  0  0  0  0  0
   -4.0770   16.0760  -33.7620 O   0  0  0  0  0  0  0  0  0  0  0  0
   -3.6700   15.0210  -32.9320 C   0  0  0  0  0  0  0  0  0  0  0  0
   -2.3360   14.5730  -32.8870 C   0  0  0  0  0  0  0  0  0  0  0  0
   -1.5720   15.0626  -33.5087 H   0  0  0  0  0  0  0  0  0  0  0  0
   -1.9790   13.5070  -32.0540 C   0  0  0  0  0  0  0  0  0  0  0  0
   -0.9339   13.1658  -32.0162 H   0  0  0  0  0  0  0  0  0  0  0  0
   -2.9480   12.8750  -31.2700 C   0  0  0  0  0  0  0  0  0  0  0  0
   -2.6641   12.0427  -30.6092 H   0  0  0  0  0  0  0  0  0  0  0  0
   -4.2780   13.3010  -31.3260 C   0  0  0  0  0  0  0  0  0  0  0  0
   -5.0422   12.7987  -30.7148 H   0  0  0  0  0  0  0  0  0  0  0  0
   -4.6380   14.3660  -32.1590 C   0  0  0  0  0  0  0  0  0  0  0  0
   -5.6877   14.6912  -32.2074 H   0  0  0  0  0  0  0  0  0  0  0  0
   -4.4900   18.3820  -33.1900 C   0  0  0  0  0  0  0  0  0  0  0  0
   -3.4157   18.5949  -33.2932 H   0  0  0  0  0  0  0  0  0  0  0  0
   -5.3790   19.4030  -32.8480 C   0  0  0  0  0  0  0  0  0  0  0  0
   -5.0028   20.4235  -32.6833 H   0  0  0  0  0  0  0  0  0  0  0  0
   -9.0540   20.1820  -32.6960 C   0  0  0  0  0  0  0  0  0  0  0  0
   -9.4660   19.3232  -33.2461 H   0  0  0  0  0  0  0  0  0  0  0  0
   -9.8740   21.2460  -32.3220 C   0  0  0  0  0  0  0  0  0  0  0  0
  -10.9432   21.2310  -32.5801 H   0  0  0  0  0  0  0  0  0  0  0  0
   -9.3570   22.3010  -31.6400 N   0  0  0  0  0  0  0  0  0  0  0  0
   -9.9900   23.0850  -31.3640 H   0  0  0  0  0  0  0  0  0  0  0  0
   -5.6020   22.6620  -29.3670 C   0  0  0  0  0  0  0  0  0  0  0  0
   -6.1659   21.7864  -29.0130 H   0  0  0  0  0  0  0  0  0  0  0  0
   -4.2840   22.8560  -28.9430 C   0  0  0  0  0  0  0  0  0  0  0  0
   -3.8127   22.1278  -28.2666 H   0  0  0  0  0  0  0  0  0  0  0  0
  1  2  1  0
  2  3  1  0
  3  4  2  0
  3  5  2  0
  3  6  1  0
  6  7  2  0
  7  8  1  0
  7  9  1  0
  9 10  1  0
  9 11  2  0
 11 12  1  0
 12 13  2  0
 13 14  1  0
 14 15  2  0
 15 16  1  0
 16 17  2  0
 17 18  1  0
 17 19  1  0
 19 20  2  0
 20 21  1  0
 21 22  1  0
 22 23  2  0
 23 24  1  0
 23 25  1  0
 25 26  1  0
 25 27  2  0
 27 28  1  0
 27 29  1  0
 29 30  1  0
 29 31  2  0
 31 32  1  0
 20 33  1  0
 33 34  1  0
 33 35  2  0
 35 36  1  0
 15 37  1  0
 37 38  1  0
 37 39  2  0
 39 40  1  0
 39 41  1  0
 41 42  1  0
 11 43  1  0
 43 44  1  0
 43 45  2  0
 45 46  1  0
 45  6  1  0
 41 13  1  0
 35 16  1  0
 31 22  1  0
M  CHG  1   2  -1
M  END
>  <UniqueID>  (27) 
24

>  <SMILES>  (27) 
[NH-]S(=O)(=O)c1ccc(/N=c2\nc(-c3ccc(Oc4ccccc4)nc3)cc[nH]2)cc1

>  <Energy>  (27) 
66.33405343465192

>  <Genealogy>  (27) 
[NH-]S(=O)(=O)c1ccc(N=c2nc(-c3ccc(Oc4ccccc4)nc3)cc[nH]2)cc1 (protonated)
[NH-]S(=O)(=O)c1ccc(/N=c2\nc(-c3ccc(Oc4ccccc4)nc3)cc[nH]2)cc1 (cis-trans isomerization)
[NH-]S(=O)(=O)c1ccc(/N=c2\nc(-c3ccc(Oc4ccccc4)nc3)cc[nH]2)cc1 (3D coordinates assigned)
[NH-]S(=O)(=O)c1ccc(/N=c2\nc(-c3ccc(Oc4ccccc4)nc3)cc[nH]2)cc1 (optimized conformer: 66.33405343465192 kcal/mol)

>  <smiles>  (27) 
NS(=O)(=O)c1ccc(N=c2nc(-c3ccc(Oc4ccccc4)nc3)cc[nH]2)cc1

>  <score_type>  (27) 
oracle

>  <origin>  (27) 
adgpu

>  <m_score__min__energy>  (27) 
-10.98

>  <m_primary>  (27) 
energy

$$$$
27:0
     RDKit          3D

 31 32  0  0  0  0  0  0  0  0999 V2000
   -6.1190   25.0340  -29.7700 C   0  0  0  0  0  0  0  0  0  0  0  0
   -4.9130   24.5730  -30.5320 C   0  0  0  0  0  0  0  0  0  0  0  0
   -3.8780   25.2940  -30.5110 O   0  0  0  0  0  0  0  0  0  0  0  0
   -4.9090   23.3010  -31.3060 C   0  0  0  0  0  0  0  0  0  0  0  0
   -3.6970   22.6290  -31.5480 C   0  0  0  0  0  0  0  0  0  0  0  0
   -3.6810   21.4310  -32.2660 C   0  0  0  0  0  0  0  0  0  0  0  0
   -4.8720   20.8850  -32.7470 C   0  0  0  0  0  0  0  0  0  0  0  0
   -6.0910   21.5290  -32.5180 C   0  0  0  0  0  0  0  0  0  0  0  0
   -7.2610   20.9300  -33.0150 O   0  0  0  0  0  0  0  0  0  0  0  0
   -7.8880   19.7660  -32.4720 C   0  0  0  0  0  0  0  0  0  0  0  0
   -6.9880   18.5650  -32.5980 C   0  0  0  0  0  0  0  0  0  0  0  0
   -6.4930   18.1840  -33.8550 C   0  0  0  0  0  0  0  0  0  0  0  0
   -5.6560   17.0700  -33.9770 C   0  0  0  0  0  0  0  0  0  0  0  0
   -5.3140   16.3240  -32.8440 C   0  0  0  0  0  0  0  0  0  0  0  0
   -4.2630   14.9280  -32.9970 Cl  0  0  0  0  0  0  0  0  0  0  0  0
   -5.8130   16.6900  -31.5910 C   0  0  0  0  0  0  0  0  0  0  0  0
   -6.6510   17.8020  -31.4670 C   0  0  0  0  0  0  0  0  0  0  0  0
   -6.1040   22.7450  -31.8050 C   0  0  0  0  0  0  0  0  0  0  0  0
   -5.9216   24.9585  -28.6905 H   0  0  0  0  0  0  0  0  0  0  0  0
   -6.3395   26.0798  -30.0302 H   0  0  0  0  0  0  0  0  0  0  0  0
   -6.9808   24.4019  -30.0302 H   0  0  0  0  0  0  0  0  0  0  0  0
   -2.7544   23.0504  -31.1687 H   0  0  0  0  0  0  0  0  0  0  0  0
   -2.7269   20.9164  -32.4529 H   0  0  0  0  0  0  0  0  0  0  0  0
   -4.8510   19.9406  -33.3106 H   0  0  0  0  0  0  0  0  0  0  0  0
   -8.1111   19.9394  -31.4089 H   0  0  0  0  0  0  0  0  0  0  0  0
   -8.8150   19.5718  -33.0313 H   0  0  0  0  0  0  0  0  0  0  0  0
   -6.7648   18.7646  -34.7489 H   0  0  0  0  0  0  0  0  0  0  0  0
   -5.2665   16.7804  -34.9641 H   0  0  0  0  0  0  0  0  0  0  0  0
   -5.5459   16.1019  -30.7006 H   0  0  0  0  0  0  0  0  0  0  0  0
   -7.0483   18.0810  -30.4799 H   0  0  0  0  0  0  0  0  0  0  0  0
   -7.0580   23.2660  -31.6361 H   0  0  0  0  0  0  0  0  0  0  0  0
  1  2  1  0
  2  3  2  0
  2  4  1  0
  4  5  2  0
  5  6  1  0
  6  7  2  0
  7  8  1  0
  8  9  1  0
  9 10  1  0
 10 11  1  0
 11 12  2  0
 12 13  1  0
 13 14  2  0
 14 15  1  0
 14 16  1  0
 16 17  2  0
  8 18  2  0
 18  4  1  0
 17 11  1  0
  1 19  1  0
  1 20  1  0
  1 21  1  0
  5 22  1  0
  6 23  1  0
  7 24  1  0
 10 25  1  0
 10 26  1  0
 12 27  1  0
 13 28  1  0
 16 29  1  0
 17 30  1  0
 18 31  1  0
M  END
>  <UniqueID>  (28) 
25

>  <SMILES>  (28) 
CC(=O)c1cccc(OCc2ccc(Cl)cc2)c1

>  <Energy>  (28) 
31.033367313113832

>  <Genealogy>  (28) 
CC(=O)c1cccc(OCc2ccc(Cl)cc2)c1 (3D coordinates assigned)
CC(=O)c1cccc(OCc2ccc(Cl)cc2)c1 (optimized conformer: 31.033367313113832 kcal/mol)

>  <smiles>  (28) 
CC(=O)c1cccc(OCc2ccc(Cl)cc2)c1

>  <score_type>  (28) 
oracle

>  <origin>  (28) 
adgpu

>  <m_score__min__energy>  (28) 
-7.7999999999999998

>  <m_primary>  (28) 
energy

$$$$
28:0
     RDKit          3D

 32 34  0  0  0  0  0  0  0  0999 V2000
   -6.9270   24.5940  -30.1150 C   0  0  0  0  0  0  0  0  0  0  0  0
   -6.5320   23.3270  -30.8120 C   0  0  0  0  0  0  0  0  0  0  0  0
   -5.2470   22.8340  -31.0700 C   0  0  0  0  0  0  0  0  0  0  0  0
   -3.9560   23.4670  -30.7430 C   0  0  0  0  0  0  0  0  0  0  0  0
   -3.8580   24.7200  -30.8320 O   0  0  0  0  0  0  0  0  0  0  0  0
   -2.8400   22.6930  -30.2810 N   0  0  0  0  0  0  0  0  0  0  0  0
   -1.5140   23.2750  -30.0880 C   0  0  0  0  0  0  0  0  0  0  0  0
   -1.5280   24.2150  -28.9240 C   0  0  0  0  0  0  0  0  0  0  0  0
   -1.5270   23.8480  -27.5940 C   0  0  0  0  0  0  0  0  0  0  0  0
   -1.5650   25.0310  -26.8860 C   0  0  0  0  0  0  0  0  0  0  0  0
   -1.5890   26.0400  -27.8270 C   0  0  0  0  0  0  0  0  0  0  0  0
   -1.5670   25.5220  -29.0330 O   0  0  0  0  0  0  0  0  0  0  0  0
   -5.3250   21.6560  -31.6640 O   0  0  0  0  0  0  0  0  0  0  0  0
   -6.5930   21.3690  -31.8260 C   0  0  0  0  0  0  0  0  0  0  0  0
   -7.1380   20.2310  -32.4140 C   0  0  0  0  0  0  0  0  0  0  0  0
   -6.3430   19.2490  -32.9060 F   0  0  0  0  0  0  0  0  0  0  0  0
   -8.5400   20.1300  -32.4850 C   0  0  0  0  0  0  0  0  0  0  0  0
   -9.3560   21.1610  -31.9680 C   0  0  0  0  0  0  0  0  0  0  0  0
   -8.7770   22.3000  -31.3780 C   0  0  0  0  0  0  0  0  0  0  0  0
   -7.3850   22.3700  -31.3260 C   0  0  0  0  0  0  0  0  0  0  0  0
   -6.8801   24.4435  -29.0263 H   0  0  0  0  0  0  0  0  0  0  0  0
   -6.2379   25.4014  -30.4036 H   0  0  0  0  0  0  0  0  0  0  0  0
   -7.9528   24.8668  -30.4036 H   0  0  0  0  0  0  0  0  0  0  0  0
   -2.9820   21.6990  -29.9950 H   0  0  0  0  0  0  0  0  0  0  0  0
   -0.7882   22.4707  -29.8971 H   0  0  0  0  0  0  0  0  0  0  0  0
   -1.2295   23.8295  -30.9944 H   0  0  0  0  0  0  0  0  0  0  0  0
   -1.5013   22.8273  -27.1847 H   0  0  0  0  0  0  0  0  0  0  0  0
   -1.5743   25.1468  -25.7922 H   0  0  0  0  0  0  0  0  0  0  0  0
   -1.6216   27.1160  -27.6007 H   0  0  0  0  0  0  0  0  0  0  0  0
   -9.0025   19.2443  -32.9451 H   0  0  0  0  0  0  0  0  0  0  0  0
  -10.4509   21.0729  -32.0270 H   0  0  0  0  0  0  0  0  0  0  0  0
   -9.4019   23.1087  -30.9711 H   0  0  0  0  0  0  0  0  0  0  0  0
  1  2  1  0
  2  3  2  0
  3  4  1  0
  4  5  2  0
  4  6  1  0
  6  7  1  0
  7  8  1  0
  8  9  2  0
  9 10  1  0
 10 11  2  0
 11 12  1  0
  3 13  1  0
 13 14  1  0
 14 15  2  0
 15 16  1  0
 15 17  1  0
 17 18  2  0
 18 19  1  0
 19 20  2  0
 20  2  1  0
 12  8  1  0
 20 14  1  0
  1 21  1  0
  1 22  1  0
  1 23  1  0
  6 24  1  0
  7 25  1  0
  7 26  1  0
  9 27  1  0
 10 28  1  0
 11 29  1  0
 17 30  1  0
 18 31  1  0
 19 32  1  0
M  END
>  <UniqueID>  (29) 
26

>  <SMILES>  (29) 
Cc1c(C(=O)NCc2ccco2)oc2c(F)cccc12

>  <Energy>  (29) 
93.08221689251779

>  <Genealogy>  (29) 
Cc1c(C(=O)NCc2ccco2)oc2c(F)cccc12 (3D coordinates assigned)
Cc1c(C(=O)NCc2ccco2)oc2c(F)cccc12 (optimized conformer: 93.08221689251779 kcal/mol)

>  <smiles>  (29) 
Cc1c(C(=O)NCc2ccco2)oc2c(F)cccc12

>  <score_type>  (29) 
oracle

>  <origin>  (29) 
adgpu

>  <m_score__min__energy>  (29) 
-7.4500000000000002

>  <m_primary>  (29) 
energy

$$$$
29:0
     RDKit          3D

 38 39  0  0  0  0  0  0  0  0999 V2000
   -4.4060   25.2550  -31.1980 O   0  0  0  0  0  0  0  0  0  0  0  0
   -4.0200   24.9360  -30.0410 C   0  0  0  0  0  0  0  0  0  0  0  0
   -5.0260   24.5580  -28.9960 C   0  0  0  0  0  0  0  0  0  0  0  0
   -5.3870   23.0700  -29.0800 C   0  0  0  0  0  0  0  0  0  0  0  0
   -6.5720   22.8420  -29.9750 C   0  0  0  0  0  0  0  0  0  0  0  0
   -7.6340   22.3680  -29.4900 O   0  0  0  0  0  0  0  0  0  0  0  0
   -6.4680   23.0990  -31.3830 N   0  0  0  0  0  0  0  0  0  0  0  0
   -7.4890   22.6760  -32.3390 C   0  0  0  0  0  0  0  0  0  0  0  0
   -7.6390   21.1740  -32.3190 C   0  0  0  0  0  0  0  0  0  0  0  0
   -8.8960   20.6300  -32.0020 C   0  0  0  0  0  0  0  0  0  0  0  0
   -9.0820   19.2470  -31.9590 C   0  0  0  0  0  0  0  0  0  0  0  0
   -8.0160   18.3890  -32.2330 C   0  0  0  0  0  0  0  0  0  0  0  0
   -6.7620   18.9130  -32.5520 C   0  0  0  0  0  0  0  0  0  0  0  0
   -6.5620   20.2990  -32.5980 C   0  0  0  0  0  0  0  0  0  0  0  0
   -4.9530   20.8840  -33.0140 Cl  0  0  0  0  0  0  0  0  0  0  0  0
   -2.6250   24.9150  -29.7130 N   0  0  0  0  0  0  0  0  0  0  0  0
   -1.8610   23.7710  -29.3110 C   0  0  0  0  0  0  0  0  0  0  0  0
   -2.0490   22.5630  -29.9960 C   0  0  0  0  0  0  0  0  0  0  0  0
   -1.2930   21.4340  -29.6630 C   0  0  0  0  0  0  0  0  0  0  0  0
   -0.3290   21.5100  -28.6540 C   0  0  0  0  0  0  0  0  0  0  0  0
    0.6250   20.0960  -28.2420 Cl  0  0  0  0  0  0  0  0  0  0  0  0
   -0.1180   22.7180  -27.9820 C   0  0  0  0  0  0  0  0  0  0  0  0
   -0.8750   23.8460  -28.3100 C   0  0  0  0  0  0  0  0  0  0  0  0
   -4.6057   24.7688  -28.0016 H   0  0  0  0  0  0  0  0  0  0  0  0
   -5.9398   25.1463  -29.1660 H   0  0  0  0  0  0  0  0  0  0  0  0
   -4.5253   22.5148  -29.4791 H   0  0  0  0  0  0  0  0  0  0  0  0
   -5.6442   22.7191  -28.0697 H   0  0  0  0  0  0  0  0  0  0  0  0
   -5.5960   23.5380  -31.7550 H   0  0  0  0  0  0  0  0  0  0  0  0
   -8.4500   23.1398  -32.0718 H   0  0  0  0  0  0  0  0  0  0  0  0
   -7.1849   22.9907  -33.3482 H   0  0  0  0  0  0  0  0  0  0  0  0
   -9.7409   21.3003  -31.7858 H   0  0  0  0  0  0  0  0  0  0  0  0
  -10.0700   18.8331  -31.7088 H   0  0  0  0  0  0  0  0  0  0  0  0
   -8.1639   17.2996  -32.1976 H   0  0  0  0  0  0  0  0  0  0  0  0
   -5.9250   18.2330  -32.7688 H   0  0  0  0  0  0  0  0  0  0  0  0
   -2.7961   22.5021  -30.8010 H   0  0  0  0  0  0  0  0  0  0  0  0
   -1.4574   20.4858  -30.1957 H   0  0  0  0  0  0  0  0  0  0  0  0
    0.6459   22.7806  -27.1930 H   0  0  0  0  0  0  0  0  0  0  0  0
   -0.6994   24.7959  -27.7838 H   0  0  0  0  0  0  0  0  0  0  0  0
  1  2  2  0
  2  3  1  0
  3  4  1  0
  4  5  1  0
  5  6  2  0
  5  7  1  0
  7  8  1  0
  8  9  1  0
  9 10  2  0
 10 11  1  0
 11 12  2  0
 12 13  1  0
 13 14  2  0
 14 15  1  0
  2 16  1  0
 16 17  1  0
 17 18  2  0
 18 19  1  0
 19 20  2  0
 20 21  1  0
 20 22  1  0
 22 23  2  0
 14  9  1  0
 23 17  1  0
  3 24  1  0
  3 25  1  0
  4 26  1  0
  4 27  1  0
  7 28  1  0
  8 29  1  0
  8 30  1  0
 10 31  1  0
 11 32  1  0
 12 33  1  0
 13 34  1  0
 18 35  1  0
 19 36  1  0
 22 37  1  0
 23 38  1  0
M  CHG  1  16  -1
M  END
>  <UniqueID>  (30) 
27

>  <SMILES>  (30) 
O=C(CCC(=O)NCc1ccccc1Cl)[N-]c1ccc(Cl)cc1

>  <Energy>  (30) 
34.89990088240198

>  <Genealogy>  (30) 
O=C(CCC(=O)NCc1ccccc1Cl)[N-]c1ccc(Cl)cc1 (protonated)
O=C(CCC(=O)NCc1ccccc1Cl)[N-]c1ccc(Cl)cc1 (3D coordinates assigned)
O=C(CCC(=O)NCc1ccccc1Cl)[N-]c1ccc(Cl)cc1 (optimized conformer: 34.89990088240198 kcal/mol)

>  <smiles>  (30) 
O=C(CCC(=O)Nc1ccc(Cl)cc1)NCc1ccccc1Cl

>  <score_type>  (30) 
oracle

>  <origin>  (30) 
adgpu

>  <m_score__min__energy>  (30) 
-10.779999999999999

>  <m_primary>  (30) 
energy

$$$$
30:0
     RDKit          3D

 37 39  0  0  0  0  0  0  0  0999 V2000
   -4.6110   25.3360  -31.1940 O   0  0  0  0  0  0  0  0  0  0  0  0
   -5.5890   24.6700  -30.2670 S   0  0  0  0  0  0  0  0  0  0  0  0
   -6.6700   25.6480  -29.9010 O   0  0  0  0  0  0  0  0  0  0  0  0
   -4.7740   24.1280  -28.8370 N   0  0  0  0  0  0  0  0  0  0  0  0
   -3.4880   23.9730  -28.7420 C   0  0  0  0  0  0  0  0  0  0  0  0
   -2.5880   24.2040  -29.7230 N   0  0  0  0  0  0  0  0  0  0  0  0
   -1.3100   23.9460  -29.3040 C   0  0  0  0  0  0  0  0  0  0  0  0
   -1.1510   23.5150  -28.0220 N   0  0  0  0  0  0  0  0  0  0  0  0
   -2.6880   23.4570  -27.3860 S   0  0  0  0  0  0  0  0  0  0  0  0
   -6.3050   23.2790  -31.0720 C   0  0  0  0  0  0  0  0  0  0  0  0
   -5.5200   22.4560  -31.8890 C   0  0  0  0  0  0  0  0  0  0  0  0
   -6.0830   21.3440  -32.5200 C   0  0  0  0  0  0  0  0  0  0  0  0
   -7.4460   21.0370  -32.3430 C   0  0  0  0  0  0  0  0  0  0  0  0
   -8.0620   19.9020  -32.9820 N   0  0  0  0  0  0  0  0  0  0  0  0
   -7.9360   18.5200  -32.5170 C   0  0  0  0  0  0  0  0  0  0  0  0
   -6.7280   17.8610  -33.1300 C   0  0  0  0  0  0  0  0  0  0  0  0
   -6.1200   18.4230  -34.2650 C   0  0  0  0  0  0  0  0  0  0  0  0
   -4.9990   17.8140  -34.8380 C   0  0  0  0  0  0  0  0  0  0  0  0
   -4.4830   16.6380  -34.2890 C   0  0  0  0  0  0  0  0  0  0  0  0
   -5.0880   16.0650  -33.1660 C   0  0  0  0  0  0  0  0  0  0  0  0
   -4.3840   14.4550  -32.4180 Br  0  0  0  0  0  0  0  0  0  0  0  0
   -6.2110   16.6710  -32.5900 C   0  0  0  0  0  0  0  0  0  0  0  0
   -8.2220   21.8580  -31.5100 C   0  0  0  0  0  0  0  0  0  0  0  0
   -7.6580   22.9700  -30.8790 C   0  0  0  0  0  0  0  0  0  0  0  0
   -2.8140   24.5380  -30.6860 H   0  0  0  0  0  0  0  0  0  0  0  0
   -0.4485   24.0812  -29.9745 H   0  0  0  0  0  0  0  0  0  0  0  0
   -4.4543   22.6864  -32.0347 H   0  0  0  0  0  0  0  0  0  0  0  0
   -5.4574   20.7039  -33.1594 H   0  0  0  0  0  0  0  0  0  0  0  0
   -8.5980   20.0600  -33.8660 H   0  0  0  0  0  0  0  0  0  0  0  0
   -7.8333   18.5153  -31.4218 H   0  0  0  0  0  0  0  0  0  0  0  0
   -8.8348   17.9618  -32.8180 H   0  0  0  0  0  0  0  0  0  0  0  0
   -6.5272   19.3455  -34.7046 H   0  0  0  0  0  0  0  0  0  0  0  0
   -4.5228   18.2620  -35.7226 H   0  0  0  0  0  0  0  0  0  0  0  0
   -3.5999   16.1621  -34.7404 H   0  0  0  0  0  0  0  0  0  0  0  0
   -6.6903   16.2141  -31.7117 H   0  0  0  0  0  0  0  0  0  0  0  0
   -9.2851   21.6237  -31.3522 H   0  0  0  0  0  0  0  0  0  0  0  0
   -8.2781   23.6047  -30.2288 H   0  0  0  0  0  0  0  0  0  0  0  0
  1  2  2  0
  2  3  2  0
  2  4  1  0
  4  5  2  3
  5  6  1  0
  6  7  1  0
  7  8  2  0
  8  9  1  0
  2 10  1  0
 10 11  2  0
 11 12  1  0
 12 13  2  0
 13 14  1  0
 14 15  1  0
 15 16  1  0
 16 17  2  0
 17 18  1  0
 18 19  2  0
 19 20  1  0
 20 21  1  0
 20 22  2  0
 13 23  1  0
 23 24  2  0
  9  5  1  0
 24 10  1  0
 22 16  1  0
  6 25  1  0
  7 26  1  0
 11 27  1  0
 12 28  1  0
 14 29  1  0
 15 30  1  0
 15 31  1  0
 17 32  1  0
 18 33  1  0
 19 34  1  0
 22 35  1  0
 23 36  1  0
 24 37  1  0
M  END
>  <UniqueID>  (31) 
28

>  <SMILES>  (31) 
O=S(=O)(N=c1[nH]cns1)c1ccc(NCc2cccc(Br)c2)cc1

>  <Energy>  (31) 
80.36433752551237

>  <Genealogy>  (31) 
O=S(=O)(N=c1[nH]cns1)c1ccc(NCc2cccc(Br)c2)cc1 (3D coordinates assigned)
O=S(=O)(N=c1[nH]cns1)c1ccc(NCc2cccc(Br)c2)cc1 (optimized conformer: 80.36433752551237 kcal/mol)

>  <smiles>  (31) 
O=S(=O)(N=c1[nH]cns1)c1ccc(NCc2cccc(Br)c2)cc1

>  <score_type>  (31) 
oracle

>  <origin>  (31) 
adgpu

>  <m_score__min__energy>  (31) 
-10.02

>  <m_primary>  (31) 
energy

$$$$
31:0
     RDKit          3D

 59 62  0  0  0  0  0  0  0  0999 V2000
   -4.5840   22.8640  -28.7920 C   0  0  0  0  0  0  0  0  0  0  0  0
   -3.3600   23.6360  -28.3830 C   0  0  0  0  0  0  0  0  0  0  0  0
   -2.7340   23.3570  -27.1540 C   0  0  0  0  0  0  0  0  0  0  0  0
   -1.5990   24.0700  -26.7620 C   0  0  0  0  0  0  0  0  0  0  0  0
   -1.0740   25.0590  -27.5920 C   0  0  0  0  0  0  0  0  0  0  0  0
   -1.6810   25.3420  -28.8190 C   0  0  0  0  0  0  0  0  0  0  0  0
   -2.8410   24.6510  -29.2150 C   0  0  0  0  0  0  0  0  0  0  0  0
   -3.4650   24.9100  -30.4840 N   0  0  0  0  0  0  0  0  0  0  0  0
   -4.8570   25.1550  -30.7110 C   0  0  0  0  0  0  0  0  0  0  0  0
   -5.3180   26.3020  -30.4730 O   0  0  0  0  0  0  0  0  0  0  0  0
   -5.7100   24.1110  -31.1970 N   0  0  0  0  0  0  0  0  0  0  0  0
   -5.3070   22.9020  -31.8570 C   0  0  0  0  0  0  0  0  0  0  0  0
   -3.9460   22.6390  -32.1780 C   0  0  0  0  0  0  0  0  0  0  0  0
   -3.5780   21.4340  -32.8040 C   0  0  0  0  0  0  0  0  0  0  0  0
   -4.5870   20.5090  -33.0810 C   0  0  0  0  0  0  0  0  0  0  0  0
   -5.8900   20.7510  -32.7560 C   0  0  0  0  0  0  0  0  0  0  0  0
   -6.2890   21.9320  -32.1350 C   0  0  0  0  0  0  0  0  0  0  0  0
   -6.6720   19.7220  -33.1290 N   0  0  0  0  0  0  0  0  0  0  0  0
   -5.7880   18.8520  -33.6830 C   0  0  0  0  0  0  0  0  0  0  0  0
   -6.2190   17.5560  -34.2950 C   0  0  0  0  0  0  0  0  0  0  0  0
   -4.5030   19.3020  -33.6680 N   0  0  0  0  0  0  0  0  0  0  0  0
   -3.3180   18.6550  -34.2400 C   0  0  0  0  0  0  0  0  0  0  0  0
   -2.0650   19.2300  -33.6390 C   0  0  0  0  0  0  0  0  0  0  0  0
   -1.1530   19.9420  -34.4330 C   0  0  0  0  0  0  0  0  0  0  0  0
    0.0070   20.4810  -33.8660 C   0  0  0  0  0  0  0  0  0  0  0  0
    0.2620   20.3160  -32.5020 C   0  0  0  0  0  0  0  0  0  0  0  0
   -0.6400   19.6060  -31.6970 C   0  0  0  0  0  0  0  0  0  0  0  0
   -0.3790   19.4370  -30.2970 N   0  0  0  0  0  0  0  0  0  0  0  0
    0.2830   18.2220  -29.8210 C   0  0  0  0  0  0  0  0  0  0  0  0
   -0.7490   20.7140  -29.1800 S   0  0  0  0  0  0  0  0  0  0  0  0
   -2.1600   20.2450  -28.2060 C   0  0  0  0  0  0  0  0  0  0  0  0
    0.4190   20.9600  -28.2670 O   0  0  0  0  0  0  0  0  0  0  0  0
   -1.0490   21.9780  -29.9360 O   0  0  0  0  0  0  0  0  0  0  0  0
   -1.8010   19.0660  -32.2690 C   0  0  0  0  0  0  0  0  0  0  0  0
   -5.1210   22.5253  -27.8937 H   0  0  0  0  0  0  0  0  0  0  0  0
   -5.2423   23.5107  -29.3907 H   0  0  0  0  0  0  0  0  0  0  0  0
   -4.2840   21.9913  -29.3907 H   0  0  0  0  0  0  0  0  0  0  0  0
   -3.1409   22.5730  -26.4984 H   0  0  0  0  0  0  0  0  0  0  0  0
   -1.1187   23.8508  -25.7970 H   0  0  0  0  0  0  0  0  0  0  0  0
   -0.1795   25.6184  -27.2806 H   0  0  0  0  0  0  0  0  0  0  0  0
   -1.2494   26.1092  -29.4787 H   0  0  0  0  0  0  0  0  0  0  0  0
   -3.1747   23.3845  -31.9345 H   0  0  0  0  0  0  0  0  0  0  0  0
   -2.5300   21.2272  -33.0666 H   0  0  0  0  0  0  0  0  0  0  0  0
   -7.3427   22.1024  -31.8689 H   0  0  0  0  0  0  0  0  0  0  0  0
   -6.4584   16.8361  -33.4985 H   0  0  0  0  0  0  0  0  0  0  0  0
   -7.1099   17.7231  -34.9181 H   0  0  0  0  0  0  0  0  0  0  0  0
   -5.4054   17.1563  -34.9181 H   0  0  0  0  0  0  0  0  0  0  0  0
   -3.3580   17.5758  -34.0311 H   0  0  0  0  0  0  0  0  0  0  0  0
   -3.3054   18.8296  -35.3260 H   0  0  0  0  0  0  0  0  0  0  0  0
   -1.3511   20.0770  -35.5066 H   0  0  0  0  0  0  0  0  0  0  0  0
    0.7192   21.0354  -34.4948 H   0  0  0  0  0  0  0  0  0  0  0  0
    1.1730   20.7444  -32.0586 H   0  0  0  0  0  0  0  0  0  0  0  0
    0.2875   18.2138  -28.7210 H   0  0  0  0  0  0  0  0  0  0  0  0
   -0.2591   17.3397  -30.1921 H   0  0  0  0  0  0  0  0  0  0  0  0
    1.3183   18.1991  -30.1921 H   0  0  0  0  0  0  0  0  0  0  0  0
   -1.9118   20.3275  -27.1376 H   0  0  0  0  0  0  0  0  0  0  0  0
   -3.0040   20.9109  -28.4388 H   0  0  0  0  0  0  0  0  0  0  0  0
   -2.4374   19.2063  -28.4388 H   0  0  0  0  0  0  0  0  0  0  0  0
   -2.5109   18.5093  -31.6396 H   0  0  0  0  0  0  0  0  0  0  0  0
  1  2  1  0
  2  3  2  0
  3  4  1  0
  4  5  2  0
  5  6  1  0
  6  7  2  0
  7  8  1  0
  8  9  1  0
  9 10  2  0
  9 11  1  0
 11 12  1  0
 12 13  2  0
 13 14  1  0
 14 15  2  0
 15 16  1  0
 16 17  2  0
 16 18  1  0
 18 19  2  0
 19 20  1  0
 19 21  1  0
 21 22  1  0
 22 23  1  0
 23 24  2  0
 24 25  1  0
 25 26  2  0
 26 27  1  0
 27 28  1  0
 28 29  1  0
 28 30  1  0
 30 31  1  0
 30 32  2  0
 30 33  2  0
 27 34  2  0
  7  2  1  0
 17 12  1  0
 34 23  1  0
 21 15  1  0
  1 35  1  0
  1 36  1  0
  1 37  1  0
  3 38  1  0
  4 39  1  0
  5 40  1  0
  6 41  1  0
 13 42  1  0
 14 43  1  0
 17 44  1  0
 20 45  1  0
 20 46  1  0
 20 47  1  0
 22 48  1  0
 22 49  1  0
 24 50  1  0
 25 51  1  0
 26 52  1  0
 29 53  1  0
 29 54  1  0
 29 55  1  0
 31 56  1  0
 31 57  1  0
 31 58  1  0
 34 59  1  0
M  CHG  2   8  -1  11  -1
M  END
>  <UniqueID>  (32) 
29

>  <SMILES>  (32) 
Cc1ccccc1[N-]C(=O)[N-]c1ccc2c(c1)nc(C)n2Cc1cccc(N(C)S(C)(=O)=O)c1

>  <Energy>  (32) 
105.22727327850839

>  <Genealogy>  (32) 
Cc1ccccc1[N-]C(=O)[N-]c1ccc2c(c1)nc(C)n2Cc1cccc(N(C)S(C)(=O)=O)c1 (protonated)
Cc1ccccc1[N-]C(=O)[N-]c1ccc2c(c1)nc(C)n2Cc1cccc(N(C)S(C)(=O)=O)c1 (3D coordinates assigned)
Cc1ccccc1[N-]C(=O)[N-]c1ccc2c(c1)nc(C)n2Cc1cccc(N(C)S(C)(=O)=O)c1 (optimized conformer: 105.22727327850839 kcal/mol)

>  <smiles>  (32) 
Cc1ccccc1NC(=O)Nc1ccc2c(c1)nc(C)n2Cc1cccc(N(C)S(C)(=O)=O)c1

>  <score_type>  (32) 
oracle

>  <origin>  (32) 
adgpu

>  <m_score__min__energy>  (32) 
-12.859999999999999

>  <m_primary>  (32) 
energy

$$$$
32:0
     RDKit          3D

 42 43  0  0  0  0  0  0  0  0999 V2000
   -8.3430   18.6660  -32.1480 C   0  0  0  0  0  0  0  0  0  0  0  0
   -8.7750   20.1150  -32.3520 C   0  0  0  0  0  0  0  0  0  0  0  0
   -8.5150   21.0010  -31.1200 C   0  0  0  0  0  0  0  0  0  0  0  0
   -8.3220   22.4180  -31.4830 N   0  0  0  0  0  0  0  0  0  0  0  0
   -9.3700   23.0710  -32.2810 C   0  0  0  0  0  0  0  0  0  0  0  0
   -7.1050   23.1430  -31.1470 C   0  0  0  0  0  0  0  0  0  0  0  0
   -5.8550   22.7330  -31.6590 C   0  0  0  0  0  0  0  0  0  0  0  0
   -4.6860   23.4290  -31.3410 C   0  0  0  0  0  0  0  0  0  0  0  0
   -4.7270   24.5420  -30.5000 C   0  0  0  0  0  0  0  0  0  0  0  0
   -3.5050   25.2410  -30.2200 N   0  0  0  0  0  0  0  0  0  0  0  0
   -2.4530   24.8070  -29.3490 C   0  0  0  0  0  0  0  0  0  0  0  0
   -1.6380   25.6460  -28.8790 O   0  0  0  0  0  0  0  0  0  0  0  0
   -2.3780   23.3910  -28.9120 C   0  0  0  0  0  0  0  0  0  0  0  0
   -1.4800   22.5330  -29.5750 C   0  0  0  0  0  0  0  0  0  0  0  0
   -1.3450   21.2000  -29.1860 C   0  0  0  0  0  0  0  0  0  0  0  0
   -2.1040   20.7000  -28.1300 C   0  0  0  0  0  0  0  0  0  0  0  0
   -3.0120   21.5270  -27.4690 C   0  0  0  0  0  0  0  0  0  0  0  0
   -3.1770   22.8690  -27.8570 C   0  0  0  0  0  0  0  0  0  0  0  0
   -4.2050   23.7030  -27.1370 C   0  0  0  0  0  0  0  0  0  0  0  0
   -5.9660   24.9820  -30.0080 C   0  0  0  0  0  0  0  0  0  0  0  0
   -7.1370   24.2880  -30.3220 C   0  0  0  0  0  0  0  0  0  0  0  0
   -8.2788   18.4507  -31.0712 H   0  0  0  0  0  0  0  0  0  0  0  0
   -9.0801   17.9947  -32.6129 H   0  0  0  0  0  0  0  0  0  0  0  0
   -7.3587   18.5079  -32.6129 H   0  0  0  0  0  0  0  0  0  0  0  0
   -8.2183   20.5296  -33.2053 H   0  0  0  0  0  0  0  0  0  0  0  0
   -9.8603   20.1120  -32.5311 H   0  0  0  0  0  0  0  0  0  0  0  0
   -9.3762   20.9237  -30.4400 H   0  0  0  0  0  0  0  0  0  0  0  0
   -7.5915   20.6471  -30.6385 H   0  0  0  0  0  0  0  0  0  0  0  0
  -10.1091   23.5315  -31.6090 H   0  0  0  0  0  0  0  0  0  0  0  0
   -8.9175   23.8473  -32.9155 H   0  0  0  0  0  0  0  0  0  0  0  0
   -9.8675   22.3227  -32.9155 H   0  0  0  0  0  0  0  0  0  0  0  0
   -5.8006   21.8535  -32.3174 H   0  0  0  0  0  0  0  0  0  0  0  0
   -3.7238   23.0964  -31.7576 H   0  0  0  0  0  0  0  0  0  0  0  0
   -0.8771   22.9186  -30.4104 H   0  0  0  0  0  0  0  0  0  0  0  0
   -0.6383   20.5428  -29.7138 H   0  0  0  0  0  0  0  0  0  0  0  0
   -1.9870   19.6519  -27.8173 H   0  0  0  0  0  0  0  0  0  0  0  0
   -3.6058   21.1252  -26.6348 H   0  0  0  0  0  0  0  0  0  0  0  0
   -4.0703   23.5937  -26.0508 H   0  0  0  0  0  0  0  0  0  0  0  0
   -4.0817   24.7595  -27.4173 H   0  0  0  0  0  0  0  0  0  0  0  0
   -5.2134   23.3646  -27.4173 H   0  0  0  0  0  0  0  0  0  0  0  0
   -6.0150   25.8780  -29.3718 H   0  0  0  0  0  0  0  0  0  0  0  0
   -8.0989   24.6392  -29.9202 H   0  0  0  0  0  0  0  0  0  0  0  0
  1  2  1  0
  2  3  1  0
  3  4  1  0
  4  5  1  0
  4  6  1  0
  6  7  2  0
  7  8  1  0
  8  9  2  0
  9 10  1  0
 10 11  1  0
 11 12  2  0
 11 13  1  0
 13 14  2  0
 14 15  1  0
 15 16  2  0
 16 17  1  0
 17 18  2  0
 18 19  1  0
  9 20  1  0
 20 21  2  0
 21  6  1  0
 18 13  1  0
  1 22  1  0
  1 23  1  0
  1 24  1  0
  2 25  1  0
  2 26  1  0
  3 27  1  0
  3 28  1  0
  5 29  1  0
  5 30  1  0
  5 31  1  0
  7 32  1  0
  8 33  1  0
 14 34  1  0
 15 35  1  0
 16 36  1  0
 17 37  1  0
 19 38  1  0
 19 39  1  0
 19 40  1  0
 20 41  1  0
 21 42  1  0
M  CHG  1  10  -1
M  END
>  <UniqueID>  (33) 
30

>  <SMILES>  (33) 
CCCN(C)c1ccc([N-]C(=O)c2ccccc2C)cc1

>  <Energy>  (33) 
49.484008718134895

>  <Genealogy>  (33) 
CCCN(C)c1ccc([N-]C(=O)c2ccccc2C)cc1 (protonated)
CCCN(C)c1ccc([N-]C(=O)c2ccccc2C)cc1 (3D coordinates assigned)
CCCN(C)c1ccc([N-]C(=O)c2ccccc2C)cc1 (optimized conformer: 49.484008718134895 kcal/mol)

>  <smiles>  (33) 
CCCN(C)c1ccc(NC(=O)c2ccccc2C)cc1

>  <score_type>  (33) 
oracle

>  <origin>  (33) 
adgpu

>  <m_score__min__energy>  (33) 
-9.3499999999999996

>  <m_primary>  (33) 
energy

$$$$
33:0
     RDKit          3D

 43 45  0  0  1  0  0  0  0  0999 V2000
   -8.8290   19.3640  -32.4340 C   0  0  0  0  0  0  0  0  0  0  0  0
   -7.9710   19.8020  -33.4520 O   0  0  0  0  0  0  0  0  0  0  0  0
   -6.6600   20.1530  -33.1720 C   0  0  0  0  0  0  0  0  0  0  0  0
   -6.3270   21.1390  -32.2710 C   0  0  0  0  0  0  0  0  0  0  0  0
   -5.0060   21.4740  -32.0090 C   0  0  0  0  0  0  0  0  0  0  0  0
   -4.6840   22.5200  -31.0550 C   0  0  0  0  0  0  0  0  0  0  0  0
   -5.5840   23.4910  -30.8180 N   0  0  0  0  0  0  0  0  0  0  0  0
   -5.3650   24.5020  -29.9490 C   0  0  0  0  0  0  0  0  0  0  0  0
   -6.3760   25.5640  -29.7050 C   0  0  0  0  0  0  0  0  0  0  0  0
   -4.1740   24.5720  -29.2540 C   0  0  0  0  0  0  0  0  0  0  0  0
   -3.2430   23.5710  -29.4960 C   0  0  0  0  0  0  0  0  0  0  0  0
   -2.1060   23.5660  -28.8870 N   0  0  0  0  0  0  0  0  0  0  0  0
   -1.7430   24.5710  -27.9460 C   0  0  0  0  0  0  0  0  0  0  0  0
   -0.8800   25.6000  -28.2560 C   0  0  0  0  0  0  0  0  0  0  0  0
   -0.5740   26.5450  -27.2760 C   0  0  0  0  0  0  0  0  0  0  0  0
   -1.1290   26.4450  -26.0200 C   0  0  0  0  0  0  0  0  0  0  0  0
   -0.7690   27.4810  -25.0150 C   0  0  0  0  0  0  0  0  0  0  0  0
   -1.2520   27.1600  -23.7620 F   0  0  0  0  0  0  0  0  0  0  0  0
   -1.2620   28.7230  -25.3400 F   0  0  0  0  0  0  0  0  0  0  0  0
    0.6230   27.5080  -24.9560 F   0  0  0  0  0  0  0  0  0  0  0  0
   -1.9980   25.3970  -25.7290 C   0  0  0  0  0  0  0  0  0  0  0  0
   -2.3060   24.4640  -26.6830 C   0  0  0  0  0  0  0  0  0  0  0  0
   -3.5260   22.5900  -30.3780 N   0  0  0  0  0  0  0  0  0  0  0  0
   -4.0490   20.7620  -32.6980 C   0  0  0  0  0  0  0  0  0  0  0  0
   -4.3600   19.7650  -33.6090 C   0  0  0  0  0  0  0  0  0  0  0  0
   -5.6730   19.4580  -33.8480 C   0  0  0  0  0  0  0  0  0  0  0  0
   -5.9520   18.4540  -34.7660 O   0  0  0  0  0  0  0  0  0  0  0  0
   -8.3825   19.5919  -31.4548 H   0  0  0  0  0  0  0  0  0  0  0  0
   -9.7973   19.8781  -32.5241 H   0  0  0  0  0  0  0  0  0  0  0  0
   -8.9806   18.2782  -32.5241 H   0  0  0  0  0  0  0  0  0  0  0  0
   -7.1297   21.6759  -31.7444 H   0  0  0  0  0  0  0  0  0  0  0  0
   -6.5080   25.7027  -28.6218 H   0  0  0  0  0  0  0  0  0  0  0  0
   -6.0336   26.5069  -30.1563 H   0  0  0  0  0  0  0  0  0  0  0  0
   -7.3346   25.2683  -30.1563 H   0  0  0  0  0  0  0  0  0  0  0  0
   -3.9719   25.3845  -28.5405 H   0  0  0  0  0  0  0  0  0  0  0  0
   -0.4391   25.6751  -29.2610 H   0  0  0  0  0  0  0  0  0  0  0  0
    0.1128   27.3724  -27.5077 H   0  0  0  0  0  0  0  0  0  0  0  0
   -2.4406   25.3177  -24.7251 H   0  0  0  0  0  0  0  0  0  0  0  0
   -2.9934   23.6375  -26.4498 H   0  0  0  0  0  0  0  0  0  0  0  0
   -2.7940   21.8620  -30.5250 H   0  0  0  0  0  0  0  0  0  0  0  0
   -2.9894   20.9955  -32.5168 H   0  0  0  0  0  0  0  0  0  0  0  0
   -3.5592   19.2250  -34.1355 H   0  0  0  0  0  0  0  0  0  0  0  0
   -6.8710   18.3080  -35.1580 H   0  0  0  0  0  0  0  0  0  0  0  0
  1  2  1  0
  2  3  1  0
  3  4  2  0
  4  5  1  0
  5  6  1  0
  6  7  2  0
  7  8  1  0
  8  9  1  0
  8 10  2  0
 10 11  1  0
 11 12  2  0
 12 13  1  0
 13 14  2  0
 14 15  1  0
 15 16  2  0
 16 17  1  0
 17 18  1  0
 17 19  1  0
 17 20  1  0
 16 21  1  0
 21 22  2  0
 11 23  1  0
  5 24  2  0
 24 25  1  0
 25 26  2  0
 26 27  1  0
 26  3  1  0
 23  6  1  0
 22 13  1  0
  1 28  1  0
  1 29  1  0
  1 30  1  0
  4 31  1  0
  9 32  1  0
  9 33  1  0
  9 34  1  0
 10 35  1  0
 14 36  1  0
 15 37  1  0
 21 38  1  0
 22 39  1  0
 23 40  1  0
 24 41  1  0
 25 42  1  0
 27 43  1  0
M  END
>  <smiles>  (34) 
COc1cc(-c2nc(C)cc(=Nc3ccc(C(F)(F)F)cc3)[nH]2)ccc1O

>  <score_type>  (34) 
oracle

>  <origin>  (34) 
adgpu

>  <m_score__min__energy>  (34) 
-8.0999999999999996

>  <m_primary>  (34) 
energy

$$$$
35:0
     RDKit          3D

 43 46  0  0  0  0  0  0  0  0999 V2000
   -5.4210   26.4050  -30.1160 O   0  0  0  0  0  0  0  0  0  0  0  0
   -4.9820   25.2750  -30.4550 C   0  0  0  0  0  0  0  0  0  0  0  0
   -3.5620   25.0700  -30.4800 N   0  0  0  0  0  0  0  0  0  0  0  0
   -2.7660   24.5510  -29.4040 C   0  0  0  0  0  0  0  0  0  0  0  0
   -3.3740   23.6950  -28.4550 C   0  0  0  0  0  0  0  0  0  0  0  0
   -2.6290   23.1660  -27.3860 C   0  0  0  0  0  0  0  0  0  0  0  0
   -1.2880   23.5270  -27.2880 C   0  0  0  0  0  0  0  0  0  0  0  0
   -0.7020   24.3640  -28.1800 C   0  0  0  0  0  0  0  0  0  0  0  0
   -1.4050   24.9100  -29.2500 C   0  0  0  0  0  0  0  0  0  0  0  0
    0.6210   24.5510  -27.8350 O   0  0  0  0  0  0  0  0  0  0  0  0
    0.8860   23.7800  -26.6550 C   0  0  0  0  0  0  0  0  0  0  0  0
   -0.3610   23.1430  -26.3390 O   0  0  0  0  0  0  0  0  0  0  0  0
   -5.9370   24.1880  -30.7700 C   0  0  0  0  0  0  0  0  0  0  0  0
   -6.3230   23.9510  -32.1000 C   0  0  0  0  0  0  0  0  0  0  0  0
   -7.2020   22.9080  -32.4060 C   0  0  0  0  0  0  0  0  0  0  0  0
   -7.7130   22.0950  -31.3870 C   0  0  0  0  0  0  0  0  0  0  0  0
   -8.7940   20.7560  -31.7640 S   0  0  0  0  0  0  0  0  0  0  0  0
   -9.1040   20.0200  -30.4910 O   0  0  0  0  0  0  0  0  0  0  0  0
  -10.0750   21.2820  -32.3540 O   0  0  0  0  0  0  0  0  0  0  0  0
   -8.0160   19.6730  -32.9000 N   0  0  0  0  0  0  0  0  0  0  0  0
   -8.1230   18.2830  -32.4440 C   0  0  0  0  0  0  0  0  0  0  0  0
   -6.8640   17.9410  -31.6600 C   0  0  0  0  0  0  0  0  0  0  0  0
   -5.8650   19.0320  -31.9940 C   0  0  0  0  0  0  0  0  0  0  0  0
   -6.5780   19.9530  -32.9730 C   0  0  0  0  0  0  0  0  0  0  0  0
   -7.3590   22.3470  -30.0570 C   0  0  0  0  0  0  0  0  0  0  0  0
   -6.4800   23.3890  -29.7480 C   0  0  0  0  0  0  0  0  0  0  0  0
   -4.4396   23.4410  -28.5545 H   0  0  0  0  0  0  0  0  0  0  0  0
   -3.0905   22.4894  -26.6516 H   0  0  0  0  0  0  0  0  0  0  0  0
   -0.9179   25.5998  -29.9549 H   0  0  0  0  0  0  0  0  0  0  0  0
    1.6651   23.0286  -26.8511 H   0  0  0  0  0  0  0  0  0  0  0  0
    1.2520   24.4048  -25.8270 H   0  0  0  0  0  0  0  0  0  0  0  0
   -5.9312   24.5899  -32.9052 H   0  0  0  0  0  0  0  0  0  0  0  0
   -7.4932   22.7254  -33.4509 H   0  0  0  0  0  0  0  0  0  0  0  0
   -9.0061   18.1701  -31.7979 H   0  0  0  0  0  0  0  0  0  0  0  0
   -8.2289   17.6077  -33.3058 H   0  0  0  0  0  0  0  0  0  0  0  0
   -7.0750   17.9313  -30.5805 H   0  0  0  0  0  0  0  0  0  0  0  0
   -6.4801   16.9441  -31.9223 H   0  0  0  0  0  0  0  0  0  0  0  0
   -5.5804   19.5833  -31.0857 H   0  0  0  0  0  0  0  0  0  0  0  0
   -4.9397   18.6196  -32.4228 H   0  0  0  0  0  0  0  0  0  0  0  0
   -6.3886   21.0023  -32.7028 H   0  0  0  0  0  0  0  0  0  0  0  0
   -6.2085   19.7813  -33.9948 H   0  0  0  0  0  0  0  0  0  0  0  0
   -7.7739   21.7229  -29.2517 H   0  0  0  0  0  0  0  0  0  0  0  0
   -6.2115   23.5851  -28.6995 H   0  0  0  0  0  0  0  0  0  0  0  0
  1  2  2  0
  2  3  1  0
  3  4  1  0
  4  5  2  0
  5  6  1  0
  6  7  2  0
  7  8  1  0
  8  9  2  0
  8 10  1  0
 10 11  1  0
 11 12  1  0
  2 13  1  0
 13 14  2  0
 14 15  1  0
 15 16  2  0
 16 17  1  0
 17 18  2  0
 17 19  2  0
 17 20  1  0
 20 21  1  0
 21 22  1  0
 22 23  1  0
 23 24  1  0
 16 25  1  0
 25 26  2  0
  9  4  1  0
 26 13  1  0
 12  7  1  0
 24 20  1  0
  5 27  1  0
  6 28  1  0
  9 29  1  0
 11 30  1  0
 11 31  1  0
 14 32  1  0
 15 33  1  0
 21 34  1  0
 21 35  1  0
 22 36  1  0
 22 37  1  0
 23 38  1  0
 23 39  1  0
 24 40  1  0
 24 41  1  0
 25 42  1  0
 26 43  1  0
M  CHG  1   3  -1
M  END
>  <UniqueID>  (35) 
31

>  <SMILES>  (35) 
O=C([N-]c1ccc2c(c1)OCO2)c1ccc(S(=O)(=O)N2CCCC2)cc1

>  <Energy>  (35) 
81.10497175286409

>  <Genealogy>  (35) 
O=C([N-]c1ccc2c(c1)OCO2)c1ccc(S(=O)(=O)N2CCCC2)cc1 (protonated)
O=C([N-]c1ccc2c(c1)OCO2)c1ccc(S(=O)(=O)N2CCCC2)cc1 (3D coordinates assigned)
O=C([N-]c1ccc2c(c1)OCO2)c1ccc(S(=O)(=O)N2CCCC2)cc1 (nonaromatic ring conformer: 81.10497175286409 kcal/mol)

>  <smiles>  (35) 
O=C(Nc1ccc2c(c1)OCO2)c1ccc(S(=O)(=O)N2CCCC2)cc1

>  <score_type>  (35) 
oracle

>  <origin>  (35) 
adgpu

>  <m_score__min__energy>  (35) 
-10.84

>  <m_primary>  (35) 
energy

$$$$
36:0
     RDKit          3D

 40 42  0  0  0  0  0  0  0  0999 V2000
    2.8750   24.2800  -27.0770 C   0  0  0  0  0  0  0  0  0  0  0  0
    1.5470   24.4290  -26.5830 O   0  0  0  0  0  0  0  0  0  0  0  0
    0.3930   24.3380  -27.3760 C   0  0  0  0  0  0  0  0  0  0  0  0
   -0.7770   25.0590  -27.0860 C   0  0  0  0  0  0  0  0  0  0  0  0
   -1.9020   24.9290  -27.9030 C   0  0  0  0  0  0  0  0  0  0  0  0
   -1.8870   24.0740  -29.0150 C   0  0  0  0  0  0  0  0  0  0  0  0
   -3.1070   23.9580  -29.8470 C   0  0  0  0  0  0  0  0  0  0  0  0
   -3.5190   22.7240  -30.3690 C   0  0  0  0  0  0  0  0  0  0  0  0
   -4.6860   22.6420  -31.1440 C   0  0  0  0  0  0  0  0  0  0  0  0
   -5.0950   21.3210  -31.6840 C   0  0  0  0  0  0  0  0  0  0  0  0
   -4.1400   20.4740  -32.2720 C   0  0  0  0  0  0  0  0  0  0  0  0
   -4.5180   19.2230  -32.7700 C   0  0  0  0  0  0  0  0  0  0  0  0
   -5.8470   18.8060  -32.6770 C   0  0  0  0  0  0  0  0  0  0  0  0
   -6.8030   19.6350  -32.0820 C   0  0  0  0  0  0  0  0  0  0  0  0
   -8.6180   19.0570  -31.9460 Br  0  0  0  0  0  0  0  0  0  0  0  0
   -6.4280   20.8880  -31.5830 C   0  0  0  0  0  0  0  0  0  0  0  0
   -5.4340   23.8170  -31.3840 C   0  0  0  0  0  0  0  0  0  0  0  0
   -6.6110   23.8000  -32.2270 C   0  0  0  0  0  0  0  0  0  0  0  0
   -7.5500   23.7860  -32.9020 N   0  0  0  0  0  0  0  0  0  0  0  0
   -4.9980   25.0290  -30.8240 C   0  0  0  0  0  0  0  0  0  0  0  0
   -5.6470   26.0930  -31.0090 O   0  0  0  0  0  0  0  0  0  0  0  0
   -3.8640   25.0650  -30.0770 N   0  0  0  0  0  0  0  0  0  0  0  0
   -0.7050   23.3650  -29.3300 C   0  0  0  0  0  0  0  0  0  0  0  0
   -0.6730   22.5620  -30.4830 O   0  0  0  0  0  0  0  0  0  0  0  0
   -0.5970   21.1410  -30.4810 C   0  0  0  0  0  0  0  0  0  0  0  0
    0.4210   23.4980  -28.4940 C   0  0  0  0  0  0  0  0  0  0  0  0
    3.5741   24.2016  -26.2314 H   0  0  0  0  0  0  0  0  0  0  0  0
    2.9380   23.3692  -27.6905 H   0  0  0  0  0  0  0  0  0  0  0  0
    3.1382   25.1542  -27.6905 H   0  0  0  0  0  0  0  0  0  0  0  0
   -0.8072   25.7277  -26.2131 H   0  0  0  0  0  0  0  0  0  0  0  0
   -2.8108   25.5039  -27.6718 H   0  0  0  0  0  0  0  0  0  0  0  0
   -2.9266   21.8186  -30.1708 H   0  0  0  0  0  0  0  0  0  0  0  0
   -3.0906   20.7965  -32.3408 H   0  0  0  0  0  0  0  0  0  0  0  0
   -3.7675   18.5671  -33.2353 H   0  0  0  0  0  0  0  0  0  0  0  0
   -6.1428   17.8232  -33.0726 H   0  0  0  0  0  0  0  0  0  0  0  0
   -7.1801   21.5364  -31.1098 H   0  0  0  0  0  0  0  0  0  0  0  0
   -0.5775   20.7763  -29.4434 H   0  0  0  0  0  0  0  0  0  0  0  0
   -1.4742   20.7262  -30.9990 H   0  0  0  0  0  0  0  0  0  0  0  0
    0.3195   20.8221  -30.9990 H   0  0  0  0  0  0  0  0  0  0  0  0
    1.3362   22.9327  -28.7239 H   0  0  0  0  0  0  0  0  0  0  0  0
  1  2  1  0
  2  3  1  0
  3  4  2  0
  4  5  1  0
  5  6  2  0
  6  7  1  0
  7  8  2  0
  8  9  1  0
  9 10  1  0
 10 11  2  0
 11 12  1  0
 12 13  2  0
 13 14  1  0
 14 15  1  0
 14 16  2  0
  9 17  2  0
 17 18  1  0
 18 19  3  0
 17 20  1  0
 20 21  2  0
 20 22  1  0
  6 23  1  0
 23 24  1  0
 24 25  1  0
 23 26  2  0
 26  3  1  0
 22  7  1  0
 16 10  1  0
  1 27  1  0
  1 28  1  0
  1 29  1  0
  4 30  1  0
  5 31  1  0
  8 32  1  0
 11 33  1  0
 12 34  1  0
 13 35  1  0
 16 36  1  0
 25 37  1  0
 25 38  1  0
 25 39  1  0
 26 40  1  0
M  CHG  1  22  -1
M  END
>  <UniqueID>  (36) 
32

>  <SMILES>  (36) 
COc1ccc(-c2cc(-c3cccc(Br)c3)c(C#N)c(=O)[n-]2)c(OC)c1

>  <Energy>  (36) 
55.38261263669541

>  <Genealogy>  (36) 
COc1ccc(-c2cc(-c3cccc(Br)c3)c(C#N)c(=O)[n-]2)c(OC)c1 (protonated)
COc1ccc(-c2cc(-c3cccc(Br)c3)c(C#N)c(=O)[n-]2)c(OC)c1 (3D coordinates assigned)
COc1ccc(-c2cc(-c3cccc(Br)c3)c(C#N)c(=O)[n-]2)c(OC)c1 (optimized conformer: 55.38261263669541 kcal/mol)

>  <smiles>  (36) 
COc1ccc(-c2cc(-c3cccc(Br)c3)c(C#N)c(=O)[nH]2)c(OC)c1

>  <score_type>  (36) 
oracle

>  <origin>  (36) 
adgpu

>  <m_score__min__energy>  (36) 
-9.5

>  <m_primary>  (36) 
energy

$$$$
37:0
     RDKit          3D

 40 43  0  0  0  0  0  0  0  0999 V2000
   -3.8332   19.7006  -26.1788 H   0  0  0  0  0  0  0  0  0  0  0  0
   -2.8840   19.5740  -26.7200 C   0  0  0  0  0  0  0  0  0  0  0  0
   -2.1190   18.4650  -26.4950 N   0  0  0  0  0  0  0  0  0  0  0  0
   -0.9490   18.3230  -27.1660 C   0  0  0  0  0  0  0  0  0  0  0  0
   -0.5050   19.2530  -28.0650 C   0  0  0  0  0  0  0  0  0  0  0  0
    0.6670   18.7570  -28.6020 C   0  0  0  0  0  0  0  0  0  0  0  0
    1.3012   19.2275  -29.3678 H   0  0  0  0  0  0  0  0  0  0  0  0
    0.8750   17.5350  -27.9680 C   0  0  0  0  0  0  0  0  0  0  0  0
    1.7324   16.8720  -28.1562 H   0  0  0  0  0  0  0  0  0  0  0  0
   -0.1200   17.2730  -27.0890 N   0  0  0  0  0  0  0  0  0  0  0  0
   -0.2270   16.4220  -26.4940 H   0  0  0  0  0  0  0  0  0  0  0  0
   -1.2450   20.4150  -28.3220 C   0  0  0  0  0  0  0  0  0  0  0  0
   -0.8380   21.3910  -29.2390 O   0  0  0  0  0  0  0  0  0  0  0  0
   -1.3200   22.7100  -29.2810 C   0  0  0  0  0  0  0  0  0  0  0  0
   -0.5970   23.7510  -28.6810 C   0  0  0  0  0  0  0  0  0  0  0  0
    0.3532   23.5402  -28.1685 H   0  0  0  0  0  0  0  0  0  0  0  0
   -1.0860   25.0480  -28.7370 C   0  0  0  0  0  0  0  0  0  0  0  0
   -0.4940   25.8774  -28.3228 H   0  0  0  0  0  0  0  0  0  0  0  0
   -2.2930   25.2930  -29.3020 N   0  0  0  0  0  0  0  0  0  0  0  0
   -3.0700   24.3190  -29.8470 C   0  0  0  0  0  0  0  0  0  0  0  0
   -4.2480   24.6870  -30.2780 N   0  0  0  0  0  0  0  0  0  0  0  0
   -5.3710   23.8930  -30.6810 C   0  0  0  0  0  0  0  0  0  0  0  0
   -5.7410   23.8550  -32.0310 C   0  0  0  0  0  0  0  0  0  0  0  0
   -5.1403   24.3922  -32.7797 H   0  0  0  0  0  0  0  0  0  0  0  0
   -6.8720   23.1360  -32.4300 C   0  0  0  0  0  0  0  0  0  0  0  0
   -7.1465   23.0901  -33.4942 H   0  0  0  0  0  0  0  0  0  0  0  0
   -7.6560   22.4740  -31.4760 C   0  0  0  0  0  0  0  0  0  0  0  0
   -8.8210   21.7350  -31.8850 C   0  0  0  0  0  0  0  0  0  0  0  0
   -9.7580   21.1400  -32.2150 N   0  0  0  0  0  0  0  0  0  0  0  0
   -7.3110   22.5450  -30.1200 C   0  0  0  0  0  0  0  0  0  0  0  0
   -7.9303   22.0348  -29.3676 H   0  0  0  0  0  0  0  0  0  0  0  0
   -6.1800   23.2640  -29.7230 C   0  0  0  0  0  0  0  0  0  0  0  0
   -5.9234   23.3369  -28.6558 H   0  0  0  0  0  0  0  0  0  0  0  0
   -2.5560   22.9840  -29.9110 C   0  0  0  0  0  0  0  0  0  0  0  0
   -3.2030   21.8750  -30.7100 C   0  0  0  0  0  0  0  0  0  0  0  0
   -3.6360   21.1328  -30.0232 H   0  0  0  0  0  0  0  0  0  0  0  0
   -3.9976   22.2953  -31.3440 H   0  0  0  0  0  0  0  0  0  0  0  0
   -2.4460   21.3902  -31.3440 H   0  0  0  0  0  0  0  0  0  0  0  0
   -2.4670   20.5590  -27.6410 C   0  0  0  0  0  0  0  0  0  0  0  0
   -3.0986   21.4403  -27.8263 H   0  0  0  0  0  0  0  0  0  0  0  0
  1  2  1  0
  2  3  2  0
  3  4  1  0
  4  5  2  0
  5  6  1  0
  6  7  1  0
  6  8  2  0
  8  9  1  0
  8 10  1  0
 10 11  1  0
  5 12  1  0
 12 13  1  0
 13 14  1  0
 14 15  1  0
 15 16  1  0
 15 17  2  0
 17 18  1  0
 17 19  1  0
 19 20  1  0
 20 21  2  0
 21 22  1  0
 22 23  2  0
 23 24  1  0
 23 25  1  0
 25 26  1  0
 25 27  2  0
 27 28  1  0
 28 29  3  0
 27 30  1  0
 30 31  1  0
 30 32  2  0
 32 33  1  0
 20 34  1  0
 34 35  1  0
 35 36  1  0
 35 37  1  0
 35 38  1  0
 12 39  2  0
 39 40  1  0
 39  2  1  0
 10  4  1  0
 34 14  2  0
 32 22  1  0
M  CHG  1  19  -1
M  END
>  <UniqueID>  (37) 
33

>  <SMILES>  (37) 
Cc1c(Oc2ccnc3[nH]ccc23)cc[n-]/c1=N/c1ccc(C#N)cc1

>  <Energy>  (37) 
104.94378133600948

>  <Genealogy>  (37) 
Cc1c(Oc2ccnc3[nH]ccc23)cc[n-]c1=Nc1ccc(C#N)cc1 (protonated)
Cc1c(Oc2ccnc3[nH]ccc23)cc[n-]/c1=N/c1ccc(C#N)cc1 (cis-trans isomerization)
Cc1c(Oc2ccnc3[nH]ccc23)cc[n-]/c1=N/c1ccc(C#N)cc1 (3D coordinates assigned)
Cc1c(Oc2ccnc3[nH]ccc23)cc[n-]/c1=N/c1ccc(C#N)cc1 (optimized conformer: 104.94378133600948 kcal/mol)

>  <smiles>  (37) 
Cc1c(Oc2ccnc3[nH]ccc23)cc[nH]c1=Nc1ccc(C#N)cc1

>  <score_type>  (37) 
oracle

>  <origin>  (37) 
adgpu

>  <m_score__min__energy>  (37) 
-10.75

>  <m_primary>  (37) 
energy

$$$$
38:0
     RDKit          3D

 50 52  0  0  0  0  0  0  0  0999 V2000
   -3.4870   21.6500  -32.9650 C   0  0  0  0  0  0  0  0  0  0  0  0
   -3.0190   20.4400  -32.2220 C   0  0  0  0  0  0  0  0  0  0  0  0
   -2.8670   19.2540  -33.1360 C   0  0  0  0  0  0  0  0  0  0  0  0
   -1.6330   18.8840  -33.5830 N   0  0  0  0  0  0  0  0  0  0  0  0
   -1.4780   17.8230  -34.3960 C   0  0  0  0  0  0  0  0  0  0  0  0
   -0.2950   17.5330  -34.7750 N   0  0  0  0  0  0  0  0  0  0  0  0
   -2.5610   17.0960  -34.7860 N   0  0  0  0  0  0  0  0  0  0  0  0
   -3.7970   17.4580  -34.3460 C   0  0  0  0  0  0  0  0  0  0  0  0
   -4.8030   16.7570  -34.7290 N   0  0  0  0  0  0  0  0  0  0  0  0
   -3.9760   18.5380  -33.5160 C   0  0  0  0  0  0  0  0  0  0  0  0
   -5.3310   18.8620  -33.0940 C   0  0  0  0  0  0  0  0  0  0  0  0
   -5.9360   18.3670  -31.9750 C   0  0  0  0  0  0  0  0  0  0  0  0
   -7.2150   18.6720  -31.5800 C   0  0  0  0  0  0  0  0  0  0  0  0
   -7.9700   19.5440  -32.3530 C   0  0  0  0  0  0  0  0  0  0  0  0
   -9.2870   19.8760  -31.9730 N   0  0  0  0  0  0  0  0  0  0  0  0
   -9.6790   21.2690  -31.9300 C   0  0  0  0  0  0  0  0  0  0  0  0
   -8.5370   22.0630  -31.3920 C   0  0  0  0  0  0  0  0  0  0  0  0
   -8.0850   21.9450  -30.0970 C   0  0  0  0  0  0  0  0  0  0  0  0
   -7.0170   22.7430  -29.7310 C   0  0  0  0  0  0  0  0  0  0  0  0
   -6.4170   23.6240  -30.6070 C   0  0  0  0  0  0  0  0  0  0  0  0
   -5.0730   24.6240  -30.1320 S   0  0  0  0  0  0  0  0  0  0  0  0
   -4.8770   24.5990  -28.4390 N   0  0  0  0  0  0  0  0  0  0  0  0
   -3.8560   24.1330  -30.8740 O   0  0  0  0  0  0  0  0  0  0  0  0
   -5.4100   26.0400  -30.5500 O   0  0  0  0  0  0  0  0  0  0  0  0
   -6.8730   23.7400  -31.9050 C   0  0  0  0  0  0  0  0  0  0  0  0
   -7.9410   22.9490  -32.2870 C   0  0  0  0  0  0  0  0  0  0  0  0
   -7.3870   20.0580  -33.4840 C   0  0  0  0  0  0  0  0  0  0  0  0
   -6.0860   19.7400  -33.8750 C   0  0  0  0  0  0  0  0  0  0  0  0
   -3.7877   22.4275  -32.2473 H   0  0  0  0  0  0  0  0  0  0  0  0
   -2.6711   22.0304  -33.5972 H   0  0  0  0  0  0  0  0  0  0  0  0
   -4.3465   21.3824  -33.5972 H   0  0  0  0  0  0  0  0  0  0  0  0
   -2.0464   20.6600  -31.7577 H   0  0  0  0  0  0  0  0  0  0  0  0
   -3.7712   20.1923  -31.4586 H   0  0  0  0  0  0  0  0  0  0  0  0
   -0.8300   19.4710  -33.2590 H   0  0  0  0  0  0  0  0  0  0  0  0
   -0.1530   16.7090  -35.4090 H   0  0  0  0  0  0  0  0  0  0  0  0
   -2.4460   16.2590  -35.4250 H   0  0  0  0  0  0  0  0  0  0  0  0
   -4.6280   15.9410  -35.3600 H   0  0  0  0  0  0  0  0  0  0  0  0
   -5.3579   17.6748  -31.3452 H   0  0  0  0  0  0  0  0  0  0  0  0
   -7.6357   18.2317  -30.6640 H   0  0  0  0  0  0  0  0  0  0  0  0
   -9.9460   19.1060  -31.7320 H   0  0  0  0  0  0  0  0  0  0  0  0
   -9.9281   21.6163  -32.9436 H   0  0  0  0  0  0  0  0  0  0  0  0
  -10.5623   21.3934  -31.2863 H   0  0  0  0  0  0  0  0  0  0  0  0
   -8.5522   21.2477  -29.3860 H   0  0  0  0  0  0  0  0  0  0  0  0
   -6.6313   22.6729  -28.7032 H   0  0  0  0  0  0  0  0  0  0  0  0
   -4.6700   25.5660  -28.1070 H   0  0  0  0  0  0  0  0  0  0  0  0
   -5.7300   24.2430  -27.9960 H   0  0  0  0  0  0  0  0  0  0  0  0
   -6.4022   24.4388  -32.6121 H   0  0  0  0  0  0  0  0  0  0  0  0
   -8.3265   23.0205  -33.3148 H   0  0  0  0  0  0  0  0  0  0  0  0
   -7.9703   20.7502  -34.1090 H   0  0  0  0  0  0  0  0  0  0  0  0
   -5.6589   20.1767  -34.7898 H   0  0  0  0  0  0  0  0  0  0  0  0
  1  2  1  0
  2  3  1  0
  3  4  1  0
  4  5  1  0
  5  6  2  3
  5  7  1  0
  7  8  1  0
  8  9  2  3
  8 10  1  0
 10 11  1  0
 11 12  2  0
 12 13  1  0
 13 14  2  0
 14 15  1  0
 15 16  1  0
 16 17  1  0
 17 18  2  0
 18 19  1  0
 19 20  2  0
 20 21  1  0
 21 22  1  0
 21 23  2  0
 21 24  2  0
 20 25  1  0
 25 26  2  0
 14 27  1  0
 27 28  2  0
 10  3  2  0
 28 11  1  0
 26 17  1  0
  1 29  1  0
  1 30  1  0
  1 31  1  0
  2 32  1  0
  2 33  1  0
  4 34  1  0
  6 35  1  0
  7 36  1  0
  9 37  1  0
 12 38  1  0
 13 39  1  0
 15 40  1  0
 16 41  1  0
 16 42  1  0
 18 43  1  0
 19 44  1  0
 22 45  1  0
 22 46  1  0
 25 47  1  0
 26 48  1  0
 27 49  1  0
 28 50  1  0
M  END
>  <smiles>  (38) 
CCc1[nH]c(=N)[nH]c(=N)c1-c1ccc(NCc2ccc(S(N)(=O)=O)cc2)cc1

>  <score_type>  (38) 
oracle

>  <origin>  (38) 
adgpu

>  <m_score__min__energy>  (38) 
-9.8499999999999996

>  <m_primary>  (38) 
energy

$$$$
39:0
     RDKit          3D

 41 42  0  0  0  0  0  0  0  0999 V2000
   -9.4370   21.5500  -30.5210 C   0  0  0  0  0  0  0  0  0  0  0  0
   -9.0760   21.8320  -31.9740 C   0  0  0  0  0  0  0  0  0  0  0  0
   -7.6720   21.4800  -32.2330 N   0  0  0  0  0  0  0  0  0  0  0  0
   -7.3380   20.2460  -32.9600 C   0  0  0  0  0  0  0  0  0  0  0  0
   -8.1250   19.0670  -32.4000 C   0  0  0  0  0  0  0  0  0  0  0  0
   -6.6190   22.3470  -31.7700 C   0  0  0  0  0  0  0  0  0  0  0  0
   -6.8810   23.6970  -31.4890 C   0  0  0  0  0  0  0  0  0  0  0  0
   -5.8580   24.5370  -31.0390 C   0  0  0  0  0  0  0  0  0  0  0  0
   -4.5610   24.0400  -30.8490 C   0  0  0  0  0  0  0  0  0  0  0  0
   -3.5250   24.9320  -30.4090 N   0  0  0  0  0  0  0  0  0  0  0  0
   -2.5850   24.6250  -29.3630 C   0  0  0  0  0  0  0  0  0  0  0  0
   -2.5960   23.4960  -28.8050 O   0  0  0  0  0  0  0  0  0  0  0  0
   -1.6000   25.5820  -28.9580 N   0  0  0  0  0  0  0  0  0  0  0  0
   -1.3420   26.0040  -27.6120 C   0  0  0  0  0  0  0  0  0  0  0  0
   -0.4800   27.0780  -27.3300 C   0  0  0  0  0  0  0  0  0  0  0  0
   -0.2750   27.4890  -26.0090 C   0  0  0  0  0  0  0  0  0  0  0  0
   -0.9420   26.8420  -24.9640 C   0  0  0  0  0  0  0  0  0  0  0  0
   -1.8210   25.7910  -25.2410 C   0  0  0  0  0  0  0  0  0  0  0  0
   -2.0270   25.3800  -26.5610 C   0  0  0  0  0  0  0  0  0  0  0  0
   -4.2920   22.6940  -31.1550 C   0  0  0  0  0  0  0  0  0  0  0  0
   -5.3150   21.8540  -31.6050 C   0  0  0  0  0  0  0  0  0  0  0  0
   -8.7444   22.0910  -29.8595 H   0  0  0  0  0  0  0  0  0  0  0  0
  -10.4665   21.8855  -30.3272 H   0  0  0  0  0  0  0  0  0  0  0  0
   -9.3607   20.4699  -30.3272 H   0  0  0  0  0  0  0  0  0  0  0  0
   -9.7260   21.2354  -32.6309 H   0  0  0  0  0  0  0  0  0  0  0  0
   -9.2168   22.9044  -32.1741 H   0  0  0  0  0  0  0  0  0  0  0  0
   -7.5861   20.3742  -34.0240 H   0  0  0  0  0  0  0  0  0  0  0  0
   -6.2631   20.0440  -32.8430 H   0  0  0  0  0  0  0  0  0  0  0  0
   -8.1028   19.1003  -31.3007 H   0  0  0  0  0  0  0  0  0  0  0  0
   -9.1671   19.1235  -32.7476 H   0  0  0  0  0  0  0  0  0  0  0  0
   -7.6731   18.1263  -32.7476 H   0  0  0  0  0  0  0  0  0  0  0  0
   -7.8971   24.0964  -31.6236 H   0  0  0  0  0  0  0  0  0  0  0  0
   -6.0724   25.5959  -30.8325 H   0  0  0  0  0  0  0  0  0  0  0  0
   -3.5040   25.8860  -30.8330 H   0  0  0  0  0  0  0  0  0  0  0  0
    0.0353   27.5972  -28.1515 H   0  0  0  0  0  0  0  0  0  0  0  0
    0.4109   28.3212  -25.7920 H   0  0  0  0  0  0  0  0  0  0  0  0
   -0.7750   27.1600  -23.9243 H   0  0  0  0  0  0  0  0  0  0  0  0
   -2.3511   25.2869  -24.4194 H   0  0  0  0  0  0  0  0  0  0  0  0
   -2.7307   24.5623  -26.7758 H   0  0  0  0  0  0  0  0  0  0  0  0
   -3.2715   22.3001  -31.0397 H   0  0  0  0  0  0  0  0  0  0  0  0
   -5.0967   20.7999  -31.8312 H   0  0  0  0  0  0  0  0  0  0  0  0
  1  2  1  0
  2  3  1  0
  3  4  1  0
  4  5  1  0
  3  6  1  0
  6  7  2  0
  7  8  1  0
  8  9  2  0
  9 10  1  0
 10 11  1  0
 11 12  2  0
 11 13  1  0
 13 14  1  0
 14 15  2  0
 15 16  1  0
 16 17  2  0
 17 18  1  0
 18 19  2  0
  9 20  1  0
 20 21  2  0
 21  6  1  0
 19 14  1  0
  1 22  1  0
  1 23  1  0
  1 24  1  0
  2 25  1  0
  2 26  1  0
  4 27  1  0
  4 28  1  0
  5 29  1  0
  5 30  1  0
  5 31  1  0
  7 32  1  0
  8 33  1  0
 10 34  1  0
 15 35  1  0
 16 36  1  0
 17 37  1  0
 18 38  1  0
 19 39  1  0
 20 40  1  0
 21 41  1  0
M  CHG  1  13  -1
M  END
>  <UniqueID>  (39) 
34

>  <SMILES>  (39) 
CCN(CC)c1ccc(NC(=O)[N-]c2ccccc2)cc1

>  <Energy>  (39) 
46.70264000089257

>  <Genealogy>  (39) 
CCN(CC)c1ccc(NC(=O)[N-]c2ccccc2)cc1 (protonated)
CCN(CC)c1ccc(NC(=O)[N-]c2ccccc2)cc1 (3D coordinates assigned)
CCN(CC)c1ccc(NC(=O)[N-]c2ccccc2)cc1 (optimized conformer: 46.70264000089257 kcal/mol)

>  <smiles>  (39) 
CCN(CC)c1ccc(NC(=O)Nc2ccccc2)cc1

>  <score_type>  (39) 
oracle

>  <origin>  (39) 
adgpu

>  <m_score__min__energy>  (39) 
-9

>  <m_primary>  (39) 
energy

$$$$
40:0
     RDKit          3D

 49 50  0  0  0  0  0  0  0  0999 V2000
    1.0050   27.0420  -24.9140 C   0  0  0  0  0  0  0  0  0  0  0  0
   -0.5310   27.1390  -25.0700 C   0  0  0  0  0  0  0  0  0  0  0  0
   -1.1650   26.7780  -23.7090 C   0  0  0  0  0  0  0  0  0  0  0  0
   -0.8760   28.6030  -25.4240 C   0  0  0  0  0  0  0  0  0  0  0  0
   -1.0890   26.2010  -26.1610 C   0  0  0  0  0  0  0  0  0  0  0  0
   -0.3980   26.0680  -27.3860 C   0  0  0  0  0  0  0  0  0  0  0  0
   -0.8700   25.2260  -28.3950 C   0  0  0  0  0  0  0  0  0  0  0  0
   -2.0470   24.4910  -28.2100 C   0  0  0  0  0  0  0  0  0  0  0  0
   -2.5720   23.5970  -29.3010 C   0  0  0  0  0  0  0  0  0  0  0  0
   -4.0090   23.7810  -29.4670 N   0  0  0  0  0  0  0  0  0  0  0  0
   -4.5870   24.7860  -30.3070 C   0  0  0  0  0  0  0  0  0  0  0  0
   -3.8620   25.6660  -30.8450 O   0  0  0  0  0  0  0  0  0  0  0  0
   -6.0580   24.7780  -30.5670 C   0  0  0  0  0  0  0  0  0  0  0  0
   -6.4970   23.4180  -31.0360 C   0  0  0  0  0  0  0  0  0  0  0  0
   -7.6140   22.7960  -30.4560 C   0  0  0  0  0  0  0  0  0  0  0  0
   -8.0020   21.5160  -30.8700 C   0  0  0  0  0  0  0  0  0  0  0  0
   -7.2750   20.8450  -31.8620 C   0  0  0  0  0  0  0  0  0  0  0  0
   -7.7460   19.2320  -32.3850 S   0  0  0  0  0  0  0  0  0  0  0  0
   -6.5650   18.6270  -33.5710 C   0  0  0  0  0  0  0  0  0  0  0  0
   -9.1120   19.2860  -33.0120 O   0  0  0  0  0  0  0  0  0  0  0  0
   -7.7920   18.2970  -31.2080 O   0  0  0  0  0  0  0  0  0  0  0  0
   -6.1480   21.4570  -32.4270 C   0  0  0  0  0  0  0  0  0  0  0  0
   -5.7590   22.7340  -32.0140 C   0  0  0  0  0  0  0  0  0  0  0  0
   -2.7500   24.6150  -27.0050 C   0  0  0  0  0  0  0  0  0  0  0  0
   -2.2800   25.4550  -25.9940 C   0  0  0  0  0  0  0  0  0  0  0  0
    1.2647   27.0256  -23.8452 H   0  0  0  0  0  0  0  0  0  0  0  0
    1.3647   26.1194  -25.3929 H   0  0  0  0  0  0  0  0  0  0  0  0
    1.4779   27.9121  -25.3929 H   0  0  0  0  0  0  0  0  0  0  0  0
   -0.5212   27.1446  -22.8959 H   0  0  0  0  0  0  0  0  0  0  0  0
   -2.1571   27.2466  -23.6308 H   0  0  0  0  0  0  0  0  0  0  0  0
   -1.2683   25.6857  -23.6308 H   0  0  0  0  0  0  0  0  0  0  0  0
   -1.0124   29.1817  -24.4985 H   0  0  0  0  0  0  0  0  0  0  0  0
   -0.0564   29.0408  -26.0128 H   0  0  0  0  0  0  0  0  0  0  0  0
   -1.8048   28.6288  -26.0128 H   0  0  0  0  0  0  0  0  0  0  0  0
    0.5287   26.6381  -27.5479 H   0  0  0  0  0  0  0  0  0  0  0  0
   -0.3140   25.1398  -29.3402 H   0  0  0  0  0  0  0  0  0  0  0  0
   -2.0644   23.8426  -30.2455 H   0  0  0  0  0  0  0  0  0  0  0  0
   -2.3775   22.5498  -29.0262 H   0  0  0  0  0  0  0  0  0  0  0  0
   -6.5920   25.0320  -29.6394 H   0  0  0  0  0  0  0  0  0  0  0  0
   -6.2877   25.5176  -31.3482 H   0  0  0  0  0  0  0  0  0  0  0  0
   -8.1863   23.3160  -29.6737 H   0  0  0  0  0  0  0  0  0  0  0  0
   -8.8806   21.0356  -30.4148 H   0  0  0  0  0  0  0  0  0  0  0  0
   -5.7066   18.1873  -33.0421 H   0  0  0  0  0  0  0  0  0  0  0  0
   -7.0387   17.8605  -34.2020 H   0  0  0  0  0  0  0  0  0  0  0  0
   -6.2197   19.4593  -34.2020 H   0  0  0  0  0  0  0  0  0  0  0  0
   -5.5674   20.9301  -33.1985 H   0  0  0  0  0  0  0  0  0  0  0  0
   -4.8697   23.2054  -32.4578 H   0  0  0  0  0  0  0  0  0  0  0  0
   -3.6794   24.0462  -26.8542 H   0  0  0  0  0  0  0  0  0  0  0  0
   -2.8439   25.5384  -25.0532 H   0  0  0  0  0  0  0  0  0  0  0  0
  1  2  1  0
  2  3  1  0
  2  4  1  0
  2  5  1  0
  5  6  2  0
  6  7  1  0
  7  8  2  0
  8  9  1  0
  9 10  1  0
 10 11  1  0
 11 12  2  0
 11 13  1  0
 13 14  1  0
 14 15  2  0
 15 16  1  0
 16 17  2  0
 17 18  1  0
 18 19  1  0
 18 20  2  0
 18 21  2  0
 17 22  1  0
 22 23  2  0
  8 24  1  0
 24 25  2  0
 25  5  1  0
 23 14  1  0
  1 26  1  0
  1 27  1  0
  1 28  1  0
  3 29  1  0
  3 30  1  0
  3 31  1  0
  4 32  1  0
  4 33  1  0
  4 34  1  0
  6 35  1  0
  7 36  1  0
  9 37  1  0
  9 38  1  0
 13 39  1  0
 13 40  1  0
 15 41  1  0
 16 42  1  0
 19 43  1  0
 19 44  1  0
 19 45  1  0
 22 46  1  0
 23 47  1  0
 24 48  1  0
 25 49  1  0
M  CHG  1  10  -1
M  END
>  <UniqueID>  (40) 
35

>  <SMILES>  (40) 
CC(C)(C)c1ccc(C[N-]C(=O)Cc2ccc(S(C)(=O)=O)cc2)cc1

>  <Energy>  (40) 
42.91582056896998

>  <Genealogy>  (40) 
CC(C)(C)c1ccc(C[N-]C(=O)Cc2ccc(S(C)(=O)=O)cc2)cc1 (protonated)
CC(C)(C)c1ccc(C[N-]C(=O)Cc2ccc(S(C)(=O)=O)cc2)cc1 (3D coordinates assigned)
CC(C)(C)c1ccc(C[N-]C(=O)Cc2ccc(S(C)(=O)=O)cc2)cc1 (optimized conformer: 42.91582056896998 kcal/mol)

>  <smiles>  (40) 
CC(C)(C)c1ccc(CNC(=O)Cc2ccc(S(C)(=O)=O)cc2)cc1

>  <score_type>  (40) 
oracle

>  <origin>  (40) 
adgpu

>  <m_score__min__energy>  (40) 
-10.81

>  <m_primary>  (40) 
energy

$$$$
41:0
     RDKit          3D

 47 49  0  0  0  0  0  0  0  0999 V2000
   -4.6650   15.3470  -32.6870 C   0  0  0  0  0  0  0  0  0  0  0  0
   -4.8390   15.4600  -34.1970 C   0  0  0  0  0  0  0  0  0  0  0  0
   -5.9220   16.3340  -34.5180 O   0  0  0  0  0  0  0  0  0  0  0  0
   -6.1980   17.5560  -33.8810 C   0  0  0  0  0  0  0  0  0  0  0  0
   -7.2320   17.7070  -32.9380 C   0  0  0  0  0  0  0  0  0  0  0  0
   -7.4490   18.9410  -32.3200 C   0  0  0  0  0  0  0  0  0  0  0  0
   -6.6360   20.0450  -32.6300 C   0  0  0  0  0  0  0  0  0  0  0  0
   -6.8120   21.3290  -31.9240 C   0  0  0  0  0  0  0  0  0  0  0  0
   -5.9800   22.3820  -32.0690 N   0  0  0  0  0  0  0  0  0  0  0  0
   -6.5500   23.3300  -31.3030 C   0  0  0  0  0  0  0  0  0  0  0  0
   -6.0950   24.7550  -31.2540 C   0  0  0  0  0  0  0  0  0  0  0  0
   -4.6270   24.7990  -31.1500 N   0  0  0  0  0  0  0  0  0  0  0  0
   -4.1550   24.9490  -29.7630 C   0  0  0  0  0  0  0  0  0  0  0  0
   -2.9410   24.0910  -29.4880 C   0  0  0  0  0  0  0  0  0  0  0  0
   -3.0260   22.6980  -29.6310 C   0  0  0  0  0  0  0  0  0  0  0  0
   -1.9030   21.8970  -29.4140 C   0  0  0  0  0  0  0  0  0  0  0  0
   -0.6840   22.4770  -29.0620 C   0  0  0  0  0  0  0  0  0  0  0  0
   -0.5780   23.8730  -28.9170 C   0  0  0  0  0  0  0  0  0  0  0  0
    0.6370   24.4980  -28.5940 O   0  0  0  0  0  0  0  0  0  0  0  0
    0.9580   25.0160  -27.3060 C   0  0  0  0  0  0  0  0  0  0  0  0
   -1.7130   24.6730  -29.1140 C   0  0  0  0  0  0  0  0  0  0  0  0
   -1.6130   26.0520  -28.9530 O   0  0  0  0  0  0  0  0  0  0  0  0
   -7.6960   22.8300  -30.7270 C   0  0  0  0  0  0  0  0  0  0  0  0
   -7.8250   21.5900  -31.1260 O   0  0  0  0  0  0  0  0  0  0  0  0
   -5.6200   19.8970  -33.5870 C   0  0  0  0  0  0  0  0  0  0  0  0
   -5.4090   18.6630  -34.2070 C   0  0  0  0  0  0  0  0  0  0  0  0
   -5.4848   15.8794  -32.1826 H   0  0  0  0  0  0  0  0  0  0  0  0
   -4.6815   14.2868  -32.3943 H   0  0  0  0  0  0  0  0  0  0  0  0
   -3.7031   15.7933  -32.3943 H   0  0  0  0  0  0  0  0  0  0  0  0
   -3.9126   15.8563  -34.6383 H   0  0  0  0  0  0  0  0  0  0  0  0
   -5.0592   14.4615  -34.6026 H   0  0  0  0  0  0  0  0  0  0  0  0
   -7.8726   16.8489  -32.6863 H   0  0  0  0  0  0  0  0  0  0  0  0
   -8.2612   19.0494  -31.5862 H   0  0  0  0  0  0  0  0  0  0  0  0
   -6.4132   25.2731  -32.1707 H   0  0  0  0  0  0  0  0  0  0  0  0
   -6.5393   25.2515  -30.3787 H   0  0  0  0  0  0  0  0  0  0  0  0
   -4.2920   25.6380  -31.6790 H   0  0  0  0  0  0  0  0  0  0  0  0
   -3.8934   26.0030  -29.5878 H   0  0  0  0  0  0  0  0  0  0  0  0
   -4.9625   24.6253  -29.0898 H   0  0  0  0  0  0  0  0  0  0  0  0
   -3.9821   22.2344  -29.9155 H   0  0  0  0  0  0  0  0  0  0  0  0
   -1.9798   20.8049  -29.5210 H   0  0  0  0  0  0  0  0  0  0  0  0
    0.1980   21.8407  -28.8971 H   0  0  0  0  0  0  0  0  0  0  0  0
    0.5468   24.3524  -26.5310 H   0  0  0  0  0  0  0  0  0  0  0  0
    2.0509   25.0746  -27.1963 H   0  0  0  0  0  0  0  0  0  0  0  0
    0.5241   26.0208  -27.1963 H   0  0  0  0  0  0  0  0  0  0  0  0
   -8.3776   23.3725  -30.0553 H   0  0  0  0  0  0  0  0  0  0  0  0
   -4.9867   20.7570  -33.8502 H   0  0  0  0  0  0  0  0  0  0  0  0
   -4.6134   18.5613  -34.9598 H   0  0  0  0  0  0  0  0  0  0  0  0
  1  2  1  0
  2  3  1  0
  3  4  1  0
  4  5  2  0
  5  6  1  0
  6  7  2  0
  7  8  1  0
  8  9  2  0
  9 10  1  0
 10 11  1  0
 11 12  1  0
 12 13  1  0
 13 14  1  0
 14 15  2  0
 15 16  1  0
 16 17  2  0
 17 18  1  0
 18 19  1  0
 19 20  1  0
 18 21  2  0
 21 22  1  0
 10 23  2  0
 23 24  1  0
  7 25  1  0
 25 26  2  0
 26  4  1  0
 24  8  1  0
 21 14  1  0
  1 27  1  0
  1 28  1  0
  1 29  1  0
  2 30  1  0
  2 31  1  0
  5 32  1  0
  6 33  1  0
 11 34  1  0
 11 35  1  0
 12 36  1  0
 13 37  1  0
 13 38  1  0
 15 39  1  0
 16 40  1  0
 17 41  1  0
 20 42  1  0
 20 43  1  0
 20 44  1  0
 23 45  1  0
 25 46  1  0
 26 47  1  0
M  CHG  1  22  -1
M  END
>  <UniqueID>  (41) 
36

>  <SMILES>  (41) 
CCOc1ccc(-c2nc(CNCc3cccc(OC)c3[O-])co2)cc1

>  <Energy>  (41) 
71.07740610815253

>  <Genealogy>  (41) 
CCOc1ccc(-c2nc(CNCc3cccc(OC)c3[O-])co2)cc1 (protonated)
CCOc1ccc(-c2nc(CNCc3cccc(OC)c3[O-])co2)cc1 (3D coordinates assigned)
CCOc1ccc(-c2nc(CNCc3cccc(OC)c3[O-])co2)cc1 (optimized conformer: 71.07740610815253 kcal/mol)

>  <smiles>  (41) 
CCOc1ccc(-c2nc(CNCc3cccc(OC)c3O)co2)cc1

>  <score_type>  (41) 
oracle

>  <origin>  (41) 
adgpu

>  <m_score__min__energy>  (41) 
-11.699999999999999

>  <m_primary>  (41) 
energy

$$$$
42:0
     RDKit          3D

 64 68  0  0  0  0  0  0  0  0999 V2000
   -1.6920   25.2330  -27.7510 C   0  0  0  0  0  0  0  0  0  0  0  0
   -2.3680   25.2530  -28.9990 O   0  0  0  0  0  0  0  0  0  0  0  0
   -2.7550   24.1070  -29.7160 C   0  0  0  0  0  0  0  0  0  0  0  0
   -1.8360   23.1130  -30.0890 C   0  0  0  0  0  0  0  0  0  0  0  0
   -2.2490   21.9660  -30.7870 C   0  0  0  0  0  0  0  0  0  0  0  0
   -3.5960   21.8430  -31.1710 C   0  0  0  0  0  0  0  0  0  0  0  0
   -4.5340   22.8330  -30.7910 C   0  0  0  0  0  0  0  0  0  0  0  0
   -5.9530   22.6990  -31.1830 C   0  0  0  0  0  0  0  0  0  0  0  0
   -6.6570   23.8030  -31.6880 C   0  0  0  0  0  0  0  0  0  0  0  0
   -7.9870   23.6640  -32.0910 C   0  0  0  0  0  0  0  0  0  0  0  0
   -8.6240   22.4220  -31.9900 C   0  0  0  0  0  0  0  0  0  0  0  0
   -7.9310   21.3170  -31.4820 C   0  0  0  0  0  0  0  0  0  0  0  0
   -8.7490   19.7310  -31.3480 S   0  0  0  0  0  0  0  0  0  0  0  0
   -7.4230   18.8700  -32.1870 C   0  0  0  0  0  0  0  0  0  0  0  0
   -6.8390   17.7420  -31.5990 C   0  0  0  0  0  0  0  0  0  0  0  0
   -5.8000   17.0730  -32.2490 C   0  0  0  0  0  0  0  0  0  0  0  0
   -5.3420   17.5280  -33.4870 C   0  0  0  0  0  0  0  0  0  0  0  0
   -5.9250   18.6510  -34.0800 C   0  0  0  0  0  0  0  0  0  0  0  0
   -6.9670   19.3220  -33.4320 C   0  0  0  0  0  0  0  0  0  0  0  0
   -6.5980   21.4560  -31.0770 C   0  0  0  0  0  0  0  0  0  0  0  0
   -4.1020   23.9660  -30.0640 C   0  0  0  0  0  0  0  0  0  0  0  0
   -4.9870   24.9840  -29.6960 O   0  0  0  0  0  0  0  0  0  0  0  0
   -3.9990   20.7480  -31.9980 N   0  0  0  0  0  0  0  0  0  0  0  0
   -3.4000   20.6100  -33.2860 C   0  0  0  0  0  0  0  0  0  0  0  0
   -2.0790   20.5330  -33.4600 C   0  0  0  0  0  0  0  0  0  0  0  0
   -1.1080   20.3360  -32.3560 C   0  0  0  0  0  0  0  0  0  0  0  0
    0.0090   19.5410  -32.6380 C   0  0  0  0  0  0  0  0  0  0  0  0
    0.9510   19.2300  -31.6490 C   0  0  0  0  0  0  0  0  0  0  0  0
    2.0890   18.4530  -31.9240 O   0  0  0  0  0  0  0  0  0  0  0  0
    3.4020   18.9760  -32.1030 C   0  0  0  0  0  0  0  0  0  0  0  0
    0.7620   19.6830  -30.3400 C   0  0  0  0  0  0  0  0  0  0  0  0
    1.7370   19.3040  -29.3970 O   0  0  0  0  0  0  0  0  0  0  0  0
    1.6350   18.2500  -28.4460 C   0  0  0  0  0  0  0  0  0  0  0  0
   -0.3750   20.4700  -30.0270 C   0  0  0  0  0  0  0  0  0  0  0  0
   -0.6170   20.8270  -28.6950 O   0  0  0  0  0  0  0  0  0  0  0  0
   -1.5090   20.1040  -27.8510 C   0  0  0  0  0  0  0  0  0  0  0  0
   -1.2610   20.8830  -31.0580 C   0  0  0  0  0  0  0  0  0  0  0  0
   -2.4288   25.2548  -26.9345 H   0  0  0  0  0  0  0  0  0  0  0  0
   -1.0882   24.3166  -27.6757 H   0  0  0  0  0  0  0  0  0  0  0  0
   -1.0351   26.1121  -27.6757 H   0  0  0  0  0  0  0  0  0  0  0  0
   -0.7739   23.2346  -29.8300 H   0  0  0  0  0  0  0  0  0  0  0  0
   -6.1597   24.7810  -31.7667 H   0  0  0  0  0  0  0  0  0  0  0  0
   -8.5343   24.5316  -32.4882 H   0  0  0  0  0  0  0  0  0  0  0  0
   -9.6708   22.3140  -32.3103 H   0  0  0  0  0  0  0  0  0  0  0  0
   -7.1990   17.3822  -30.6238 H   0  0  0  0  0  0  0  0  0  0  0  0
   -5.3420   16.1868  -31.7854 H   0  0  0  0  0  0  0  0  0  0  0  0
   -4.5212   17.0018  -33.9962 H   0  0  0  0  0  0  0  0  0  0  0  0
   -5.5644   19.0072  -35.0563 H   0  0  0  0  0  0  0  0  0  0  0  0
   -7.4283   20.2043  -33.8998 H   0  0  0  0  0  0  0  0  0  0  0  0
   -6.0541   20.5887  -30.6744 H   0  0  0  0  0  0  0  0  0  0  0  0
   -4.7910   25.6510  -28.9610 H   0  0  0  0  0  0  0  0  0  0  0  0
   -4.9620   20.3610  -31.8870 H   0  0  0  0  0  0  0  0  0  0  0  0
   -4.0528   20.5653  -34.1702 H   0  0  0  0  0  0  0  0  0  0  0  0
   -1.6866   20.6209  -34.4839 H   0  0  0  0  0  0  0  0  0  0  0  0
    0.1500   19.1524  -33.6574 H   0  0  0  0  0  0  0  0  0  0  0  0
    3.8610   19.1588  -31.1202 H   0  0  0  0  0  0  0  0  0  0  0  0
    4.0118   18.2521  -32.6635 H   0  0  0  0  0  0  0  0  0  0  0  0
    3.3471   19.9209  -32.6635 H   0  0  0  0  0  0  0  0  0  0  0  0
    1.6755   18.6682  -27.4294 H   0  0  0  0  0  0  0  0  0  0  0  0
    0.6814   17.7201  -28.5868 H   0  0  0  0  0  0  0  0  0  0  0  0
    2.4693   17.5471  -28.5868 H   0  0  0  0  0  0  0  0  0  0  0  0
   -1.2613   20.3047  -26.7982 H   0  0  0  0  0  0  0  0  0  0  0  0
   -2.5426   20.4223  -28.0516 H   0  0  0  0  0  0  0  0  0  0  0  0
   -1.4116   19.0269  -28.0516 H   0  0  0  0  0  0  0  0  0  0  0  0
  1  2  1  0
  2  3  1  0
  3  4  2  0
  4  5  1  0
  5  6  2  0
  6  7  1  0
  7  8  1  0
  8  9  2  0
  9 10  1  0
 10 11  2  0
 11 12  1  0
 12 13  1  0
 13 14  1  0
 14 15  2  0
 15 16  1  0
 16 17  2  0
 17 18  1  0
 18 19  2  0
 12 20  2  0
  7 21  2  0
 21 22  1  0
  6 23  1  0
 23 24  1  0
 24 25  2  0
 25 26  1  0
 26 27  2  0
 27 28  1  0
 28 29  1  0
 29 30  1  0
 28 31  2  0
 31 32  1  0
 32 33  1  0
 31 34  1  0
 34 35  1  0
 35 36  1  0
 34 37  2  0
 21  3  1  0
 37 26  1  0
 37  5  1  0
 20  8  1  0
 19 14  1  0
  1 38  1  0
  1 39  1  0
  1 40  1  0
  4 41  1  0
  9 42  1  0
 10 43  1  0
 11 44  1  0
 15 45  1  0
 16 46  1  0
 17 47  1  0
 18 48  1  0
 19 49  1  0
 20 50  1  0
 22 51  1  0
 23 52  1  0
 24 53  1  0
 25 54  1  0
 27 55  1  0
 30 56  1  0
 30 57  1  0
 30 58  1  0
 33 59  1  0
 33 60  1  0
 33 61  1  0
 36 62  1  0
 36 63  1  0
 36 64  1  0
M  END
>  <UniqueID>  (42) 
37

>  <SMILES>  (42) 
COc1cc2c(c(-c3cccc(Sc4ccccc4)c3)c1O)NC=Cc1cc(OC)c(OC)c(OC)c1-2

>  <Energy>  (42) 
104.93047760345858

>  <Genealogy>  (42) 
COc1cc2c(c(-c3cccc(Sc4ccccc4)c3)c1O)NC=Cc1cc(OC)c(OC)c(OC)c1-2 (3D coordinates assigned)
COc1cc2c(c(-c3cccc(Sc4ccccc4)c3)c1O)NC=Cc1cc(OC)c(OC)c(OC)c1-2 (nonaromatic ring conformer: 104.93047760345858 kcal/mol)

>  <smiles>  (42) 
COc1cc2c(c(-c3cccc(Sc4ccccc4)c3)c1O)NC=Cc1cc(OC)c(OC)c(OC)c1-2

>  <score_type>  (42) 
oracle

>  <origin>  (42) 
adgpu

>  <m_score__min__energy>  (42) 
-10.279999999999999

>  <m_primary>  (42) 
energy

$$$$
43:0
     RDKit          3D

 29 31  0  0  0  0  0  0  0  0999 V2000
   -1.5540   25.7690  -29.2470 O   0  0  0  0  0  0  0  0  0  0  0  0
   -2.2820   24.5880  -29.3400 C   0  0  0  0  0  0  0  0  0  0  0  0
   -1.8530   23.4520  -28.6450 C   0  0  0  0  0  0  0  0  0  0  0  0
   -2.5750   22.2490  -28.7330 C   0  0  0  0  0  0  0  0  0  0  0  0
   -2.1450   21.0340  -28.0070 C   0  0  0  0  0  0  0  0  0  0  0  0
   -2.5510   20.7330  -26.7940 O   0  0  0  0  0  0  0  0  0  0  0  0
   -2.0060   19.6310  -26.3690 N   0  0  0  0  0  0  0  0  0  0  0  0
   -1.2020   19.1760  -27.3490 C   0  0  0  0  0  0  0  0  0  0  0  0
   -1.2750   20.0360  -28.4230 C   0  0  0  0  0  0  0  0  0  0  0  0
   -0.5900   19.8670  -29.7200 C   0  0  0  0  0  0  0  0  0  0  0  0
   -0.9410   20.7130  -30.7840 C   0  0  0  0  0  0  0  0  0  0  0  0
   -0.3530   20.5530  -32.0410 C   0  0  0  0  0  0  0  0  0  0  0  0
    0.5960   19.5520  -32.2460 C   0  0  0  0  0  0  0  0  0  0  0  0
    0.9730   18.7190  -31.1910 C   0  0  0  0  0  0  0  0  0  0  0  0
    0.4020   18.8770  -29.9210 C   0  0  0  0  0  0  0  0  0  0  0  0
    0.8560   18.0570  -28.8870 O   0  0  0  0  0  0  0  0  0  0  0  0
   -3.7510   22.2120  -29.5020 C   0  0  0  0  0  0  0  0  0  0  0  0
   -4.1790   23.3480  -30.1970 C   0  0  0  0  0  0  0  0  0  0  0  0
   -5.3360   23.2920  -30.9640 O   0  0  0  0  0  0  0  0  0  0  0  0
   -3.4430   24.5360  -30.1190 C   0  0  0  0  0  0  0  0  0  0  0  0
   -3.8670   25.6650  -30.8120 O   0  0  0  0  0  0  0  0  0  0  0  0
   -0.9451   23.5005  -28.0259 H   0  0  0  0  0  0  0  0  0  0  0  0
   -0.5868   18.2654  -27.2999 H   0  0  0  0  0  0  0  0  0  0  0  0
   -1.6848   21.5080  -30.6266 H   0  0  0  0  0  0  0  0  0  0  0  0
   -0.6388   21.2172  -32.8699 H   0  0  0  0  0  0  0  0  0  0  0  0
    1.0480   19.4186  -33.2399 H   0  0  0  0  0  0  0  0  0  0  0  0
    1.7239   17.9327  -31.3579 H   0  0  0  0  0  0  0  0  0  0  0  0
    1.6830   17.4810  -28.9640 H   0  0  0  0  0  0  0  0  0  0  0  0
   -4.3385   21.2837  -29.5576 H   0  0  0  0  0  0  0  0  0  0  0  0
  1  2  1  0
  2  3  2  0
  3  4  1  0
  4  5  1  0
  5  6  1  0
  6  7  1  0
  7  8  2  0
  8  9  1  0
  9 10  1  0
 10 11  2  0
 11 12  1  0
 12 13  2  0
 13 14  1  0
 14 15  2  0
 15 16  1  0
  4 17  2  0
 17 18  1  0
 18 19  1  0
 18 20  2  0
 20 21  1  0
 20  2  1  0
  9  5  2  0
 15 10  1  0
  3 22  1  0
  8 23  1  0
 11 24  1  0
 12 25  1  0
 13 26  1  0
 14 27  1  0
 16 28  1  0
 17 29  1  0
M  CHG  3   1  -1  19  -1  21  -1
M  END
>  <UniqueID>  (43) 
38

>  <SMILES>  (43) 
[O-]c1cc(-c2oncc2-c2ccccc2O)cc([O-])c1[O-]

>  <Energy>  (43) 
72.99197057153809

>  <Genealogy>  (43) 
[O-]c1cc(-c2oncc2-c2ccccc2O)cc([O-])c1[O-] (protonated)
[O-]c1cc(-c2oncc2-c2ccccc2O)cc([O-])c1[O-] (3D coordinates assigned)
[O-]c1cc(-c2oncc2-c2ccccc2O)cc([O-])c1[O-] (optimized conformer: 72.99197057153809 kcal/mol)

>  <smiles>  (43) 
Oc1ccccc1-c1cnoc1-c1cc(O)c(O)c(O)c1

>  <score_type>  (43) 
oracle

>  <origin>  (43) 
adgpu

>  <m_score__min__energy>  (43) 
-12.050000000000001

>  <m_primary>  (43) 
energy

$$$$
44:0
     RDKit          3D

 36 38  0  0  0  0  0  0  0  0999 V2000
   -4.9750   24.3590  -28.5530 N   0  0  0  0  0  0  0  0  0  0  0  0
   -4.0880   24.5400  -30.0250 S   0  0  0  0  0  0  0  0  0  0  0  0
   -2.6630   24.9020  -29.7100 O   0  0  0  0  0  0  0  0  0  0  0  0
   -4.6950   25.6440  -30.8450 O   0  0  0  0  0  0  0  0  0  0  0  0
   -4.1340   23.0320  -30.9320 C   0  0  0  0  0  0  0  0  0  0  0  0
   -3.4650   21.9000  -30.4490 C   0  0  0  0  0  0  0  0  0  0  0  0
   -3.4810   20.7070  -31.1780 C   0  0  0  0  0  0  0  0  0  0  0  0
   -4.1560   20.6380  -32.4080 C   0  0  0  0  0  0  0  0  0  0  0  0
   -4.1640   19.3790  -33.1930 C   0  0  0  0  0  0  0  0  0  0  0  0
   -2.9590   18.9170  -33.7490 C   0  0  0  0  0  0  0  0  0  0  0  0
   -2.9410   17.8030  -34.5260 N   0  0  0  0  0  0  0  0  0  0  0  0
   -4.0700   17.0980  -34.7910 C   0  0  0  0  0  0  0  0  0  0  0  0
   -5.2910   17.5050  -34.2550 C   0  0  0  0  0  0  0  0  0  0  0  0
   -5.3520   18.6450  -33.4390 C   0  0  0  0  0  0  0  0  0  0  0  0
   -6.6510   19.0150  -32.8250 C   0  0  0  0  0  0  0  0  0  0  0  0
   -7.2200   18.2150  -31.8190 C   0  0  0  0  0  0  0  0  0  0  0  0
   -8.4410   18.5730  -31.2390 C   0  0  0  0  0  0  0  0  0  0  0  0
   -9.1060   19.7270  -31.6640 C   0  0  0  0  0  0  0  0  0  0  0  0
   -8.5540   20.5210  -32.6720 C   0  0  0  0  0  0  0  0  0  0  0  0
   -7.3330   20.1670  -33.2540 C   0  0  0  0  0  0  0  0  0  0  0  0
   -4.8310   21.7720  -32.8860 C   0  0  0  0  0  0  0  0  0  0  0  0
   -4.8140   22.9640  -32.1550 C   0  0  0  0  0  0  0  0  0  0  0  0
   -5.9700   24.1800  -28.8180 H   0  0  0  0  0  0  0  0  0  0  0  0
   -4.9540   25.2840  -28.0690 H   0  0  0  0  0  0  0  0  0  0  0  0
   -2.9248   21.9499  -29.4921 H   0  0  0  0  0  0  0  0  0  0  0  0
   -2.9630   19.8190  -30.7868 H   0  0  0  0  0  0  0  0  0  0  0  0
   -2.0234   19.4615  -33.5536 H   0  0  0  0  0  0  0  0  0  0  0  0
   -4.0216   16.2038  -35.4299 H   0  0  0  0  0  0  0  0  0  0  0  0
   -6.2054   16.9332  -34.4715 H   0  0  0  0  0  0  0  0  0  0  0  0
   -6.7024   17.3031  -31.4865 H   0  0  0  0  0  0  0  0  0  0  0  0
   -8.8785   17.9463  -30.4479 H   0  0  0  0  0  0  0  0  0  0  0  0
  -10.0645   20.0099  -31.2043 H   0  0  0  0  0  0  0  0  0  0  0  0
   -9.0807   21.4262  -33.0084 H   0  0  0  0  0  0  0  0  0  0  0  0
   -6.9043   20.7925  -34.0508 H   0  0  0  0  0  0  0  0  0  0  0  0
   -5.3760   21.7228  -33.8402 H   0  0  0  0  0  0  0  0  0  0  0  0
   -5.3364   23.8515  -32.5416 H   0  0  0  0  0  0  0  0  0  0  0  0
  1  2  1  0
  2  3  2  0
  2  4  2  0
  2  5  1  0
  5  6  2  0
  6  7  1  0
  7  8  2  0
  8  9  1  0
  9 10  2  0
 10 11  1  0
 11 12  2  0
 12 13  1  0
 13 14  2  0
 14 15  1  0
 15 16  2  0
 16 17  1  0
 17 18  2  0
 18 19  1  0
 19 20  2  0
  8 21  1  0
 21 22  2  0
 22  5  1  0
 14  9  1  0
 20 15  1  0
  1 23  1  0
  1 24  1  0
  6 25  1  0
  7 26  1  0
 10 27  1  0
 12 28  1  0
 13 29  1  0
 16 30  1  0
 17 31  1  0
 18 32  1  0
 19 33  1  0
 20 34  1  0
 21 35  1  0
 22 36  1  0
M  END
>  <UniqueID>  (44) 
39

>  <SMILES>  (44) 
NS(=O)(=O)c1ccc(-c2cnccc2-c2ccccc2)cc1

>  <Energy>  (44) 
50.711963200774306

>  <Genealogy>  (44) 
NS(=O)(=O)c1ccc(-c2cnccc2-c2ccccc2)cc1 (3D coordinates assigned)
NS(=O)(=O)c1ccc(-c2cnccc2-c2ccccc2)cc1 (optimized conformer: 50.711963200774306 kcal/mol)

>  <smiles>  (44) 
NS(=O)(=O)c1ccc(-c2cnccc2-c2ccccc2)cc1

>  <score_type>  (44) 
oracle

>  <origin>  (44) 
adgpu

>  <m_score__min__energy>  (44) 
-9.4000000000000004

>  <m_primary>  (44) 
energy

$$$$
45:0
     RDKit          3D

 36 38  0  0  0  0  0  0  0  0999 V2000
   -7.0300   14.5750  -34.3380 C   0  0  0  0  0  0  0  0  0  0  0  0
   -7.2160   15.8710  -33.7810 O   0  0  0  0  0  0  0  0  0  0  0  0
   -6.2300   16.8700  -33.7330 C   0  0  0  0  0  0  0  0  0  0  0  0
   -4.9900   16.7170  -34.3760 C   0  0  0  0  0  0  0  0  0  0  0  0
   -4.0260   17.7220  -34.3160 C   0  0  0  0  0  0  0  0  0  0  0  0
   -2.8150   17.5180  -34.9710 O   0  0  0  0  0  0  0  0  0  0  0  0
   -4.2880   18.9120  -33.6060 C   0  0  0  0  0  0  0  0  0  0  0  0
   -3.3520   19.9640  -33.5180 C   0  0  0  0  0  0  0  0  0  0  0  0
   -2.2180   19.8850  -34.0650 O   0  0  0  0  0  0  0  0  0  0  0  0
   -3.6790   21.1190  -32.8120 C   0  0  0  0  0  0  0  0  0  0  0  0
   -4.9350   21.2170  -32.1990 C   0  0  0  0  0  0  0  0  0  0  0  0
   -5.3340   22.4290  -31.4420 C   0  0  0  0  0  0  0  0  0  0  0  0
   -6.6020   22.5340  -30.8400 C   0  0  0  0  0  0  0  0  0  0  0  0
   -6.9510   23.6780  -30.1190 C   0  0  0  0  0  0  0  0  0  0  0  0
   -6.0420   24.7310  -29.9790 C   0  0  0  0  0  0  0  0  0  0  0  0
   -6.4170   25.8610  -29.2540 O   0  0  0  0  0  0  0  0  0  0  0  0
   -4.7720   24.6330  -30.5670 C   0  0  0  0  0  0  0  0  0  0  0  0
   -3.8530   25.6680  -30.4390 O   0  0  0  0  0  0  0  0  0  0  0  0
   -4.4220   23.4870  -31.2890 C   0  0  0  0  0  0  0  0  0  0  0  0
   -5.7890   20.2000  -32.2870 O   0  0  0  0  0  0  0  0  0  0  0  0
   -5.5360   19.0740  -32.9520 C   0  0  0  0  0  0  0  0  0  0  0  0
   -6.5090   18.0430  -33.0160 C   0  0  0  0  0  0  0  0  0  0  0  0
   -7.7720   18.1210  -32.3980 O   0  0  0  0  0  0  0  0  0  0  0  0
   -8.6130   19.2660  -32.3320 C   0  0  0  0  0  0  0  0  0  0  0  0
   -6.9244   13.8391  -33.5272 H   0  0  0  0  0  0  0  0  0  0  0  0
   -7.8999   14.3144  -34.9587 H   0  0  0  0  0  0  0  0  0  0  0  0
   -6.1219   14.5695  -34.9587 H   0  0  0  0  0  0  0  0  0  0  0  0
   -4.7774   15.7929  -34.9335 H   0  0  0  0  0  0  0  0  0  0  0  0
   -2.9581   21.9464  -32.7364 H   0  0  0  0  0  0  0  0  0  0  0  0
   -7.3231   21.7092  -30.9381 H   0  0  0  0  0  0  0  0  0  0  0  0
   -7.9472   23.7510  -29.6584 H   0  0  0  0  0  0  0  0  0  0  0  0
   -5.7440   26.5580  -28.9580 H   0  0  0  0  0  0  0  0  0  0  0  0
   -3.4222   23.4133  -31.7418 H   0  0  0  0  0  0  0  0  0  0  0  0
   -8.8013   19.5224  -31.2790 H   0  0  0  0  0  0  0  0  0  0  0  0
   -8.1202   20.1123  -32.8330 H   0  0  0  0  0  0  0  0  0  0  0  0
   -9.5679   19.0489  -32.8330 H   0  0  0  0  0  0  0  0  0  0  0  0
  1  2  1  0
  2  3  1  0
  3  4  2  0
  4  5  1  0
  5  6  1  0
  5  7  2  0
  7  8  1  0
  8  9  2  0
  8 10  1  0
 10 11  2  0
 11 12  1  0
 12 13  2  0
 13 14  1  0
 14 15  2  0
 15 16  1  0
 15 17  1  0
 17 18  1  0
 17 19  2  0
 11 20  1  0
 20 21  1  0
 21 22  2  0
 22 23  1  0
 23 24  1  0
 22  3  1  0
 21  7  1  0
 19 12  1  0
  1 25  1  0
  1 26  1  0
  1 27  1  0
  4 28  1  0
 10 29  1  0
 13 30  1  0
 14 31  1  0
 16 32  1  0
 19 33  1  0
 24 34  1  0
 24 35  1  0
 24 36  1  0
M  CHG  2   6  -1  18  -1
M  END
>  <UniqueID>  (45) 
40

>  <SMILES>  (45) 
COc1cc([O-])c2c(=O)cc(-c3ccc(O)c([O-])c3)oc2c1OC

>  <Energy>  (45) 
50.82987524368815

>  <Genealogy>  (45) 
COc1cc([O-])c2c(=O)cc(-c3ccc(O)c([O-])c3)oc2c1OC (protonated)
COc1cc([O-])c2c(=O)cc(-c3ccc(O)c([O-])c3)oc2c1OC (3D coordinates assigned)
COc1cc([O-])c2c(=O)cc(-c3ccc(O)c([O-])c3)oc2c1OC (optimized conformer: 50.82987524368815 kcal/mol)

>  <smiles>  (45) 
COc1cc(O)c2c(=O)cc(-c3ccc(O)c(O)c3)oc2c1OC

>  <score_type>  (45) 
oracle

>  <origin>  (45) 
adgpu

>  <m_score__min__energy>  (45) 
-10.1

>  <m_primary>  (45) 
energy

$$$$
46:0
     RDKit          3D

 43 46  0  0  0  0  0  0  0  0999 V2000
    0.5000   26.6990  -21.9080 H   0  0  0  0  0  0  0  0  0  0  0  0
   -0.0980   27.1760  -22.6200 N   0  0  0  0  0  0  0  0  0  0  0  0
   -0.3620   26.6360  -23.7680 C   0  0  0  0  0  0  0  0  0  0  0  0
   -1.1700   27.3110  -24.6840 C   0  0  0  0  0  0  0  0  0  0  0  0
   -1.5835   28.3001  -24.4375 H   0  0  0  0  0  0  0  0  0  0  0  0
   -1.4470   26.7190  -25.9130 C   0  0  0  0  0  0  0  0  0  0  0  0
   -2.0944   27.2280  -26.6423 H   0  0  0  0  0  0  0  0  0  0  0  0
   -0.8930   25.4700  -26.2100 C   0  0  0  0  0  0  0  0  0  0  0  0
   -1.1850   24.8060  -27.4460 N   0  0  0  0  0  0  0  0  0  0  0  0
   -0.2600   24.5790  -28.3630 N   0  0  0  0  0  0  0  0  0  0  0  0
   -0.8510   23.9700  -29.4090 C   0  0  0  0  0  0  0  0  0  0  0  0
   -0.3376   23.6358  -30.3226 H   0  0  0  0  0  0  0  0  0  0  0  0
   -2.2040   23.8300  -29.1560 C   0  0  0  0  0  0  0  0  0  0  0  0
   -3.2040   23.2570  -30.0850 C   0  0  0  0  0  0  0  0  0  0  0  0
   -2.9520   22.0220  -30.7040 C   0  0  0  0  0  0  0  0  0  0  0  0
   -2.0175   21.4835  -30.4877 H   0  0  0  0  0  0  0  0  0  0  0  0
   -3.8800   21.4720  -31.5930 C   0  0  0  0  0  0  0  0  0  0  0  0
   -3.6814   20.4947  -32.0572 H   0  0  0  0  0  0  0  0  0  0  0  0
   -5.0660   22.1630  -31.8960 C   0  0  0  0  0  0  0  0  0  0  0  0
   -6.0290   21.6370  -32.7700 O   0  0  0  0  0  0  0  0  0  0  0  0
   -6.9220   20.5980  -32.4660 C   0  0  0  0  0  0  0  0  0  0  0  0
   -6.6020   19.2480  -32.7020 C   0  0  0  0  0  0  0  0  0  0  0  0
   -5.6219   18.9821  -33.1248 H   0  0  0  0  0  0  0  0  0  0  0  0
   -7.5280   18.2430  -32.4000 C   0  0  0  0  0  0  0  0  0  0  0  0
   -7.2708   17.1879  -32.5753 H   0  0  0  0  0  0  0  0  0  0  0  0
   -8.7790   18.5790  -31.8760 C   0  0  0  0  0  0  0  0  0  0  0  0
   -9.5043   17.7881  -31.6343 H   0  0  0  0  0  0  0  0  0  0  0  0
   -9.1090   19.9190  -31.6590 C   0  0  0  0  0  0  0  0  0  0  0  0
  -10.0962   20.1827  -31.2516 H   0  0  0  0  0  0  0  0  0  0  0  0
   -8.1860   20.9250  -31.9590 C   0  0  0  0  0  0  0  0  0  0  0  0
   -8.4539   21.9794  -31.7960 H   0  0  0  0  0  0  0  0  0  0  0  0
   -5.3190   23.3910  -31.2770 C   0  0  0  0  0  0  0  0  0  0  0  0
   -6.2547   23.9278  -31.4919 H   0  0  0  0  0  0  0  0  0  0  0  0
   -4.3920   23.9420  -30.3870 C   0  0  0  0  0  0  0  0  0  0  0  0
   -4.5945   24.9175  -29.9208 H   0  0  0  0  0  0  0  0  0  0  0  0
   -2.3870   24.3620  -27.8850 C   0  0  0  0  0  0  0  0  0  0  0  0
   -3.6980   24.5460  -27.1750 C   0  0  0  0  0  0  0  0  0  0  0  0
   -3.5326   24.5228  -26.0878 H   0  0  0  0  0  0  0  0  0  0  0  0
   -4.1359   25.5144  -27.4587 H   0  0  0  0  0  0  0  0  0  0  0  0
   -4.3855   23.7355  -27.4587 H   0  0  0  0  0  0  0  0  0  0  0  0
   -0.1320   24.8440  -25.2740 N   0  0  0  0  0  0  0  0  0  0  0  0
    0.1340   25.4070  -24.0920 N   0  0  0  0  0  0  0  0  0  0  0  0
    0.7310   24.8840  -23.4140 H   0  0  0  0  0  0  0  0  0  0  0  0
  1  2  1  0
  2  3  2  0
  3  4  1  0
  4  5  1  0
  4  6  2  0
  6  7  1  0
  6  8  1  0
  8  9  1  0
  9 10  1  0
 10 11  2  0
 11 12  1  0
 11 13  1  0
 13 14  1  0
 14 15  2  0
 15 16  1  0
 15 17  1  0
 17 18  1  0
 17 19  2  0
 19 20  1  0
 20 21  1  0
 21 22  2  0
 22 23  1  0
 22 24  1  0
 24 25  1  0
 24 26  2  0
 26 27  1  0
 26 28  1  0
 28 29  1  0
 28 30  2  0
 30 31  1  0
 19 32  1  0
 32 33  1  0
 32 34  2  0
 34 35  1  0
 13 36  2  0
 36 37  1  0
 37 38  1  0
 37 39  1  0
 37 40  1  0
  8 41  2  0
 41 42  1  0
 42 43  1  0
 42  3  1  0
 36  9  1  0
 34 14  1  0
 30 21  1  0
M  END
>  <UniqueID>  (46) 
41

>  <SMILES>  (46) 
[H]/N=c1/ccc(-n2ncc(-c3ccc(Oc4ccccc4)cc3)c2C)n[nH]1

>  <Energy>  (46) 
95.99182586017308

>  <Genealogy>  (46) 
[H]/N=c1/ccc(-n2ncc(-c3ccc(Oc4ccccc4)cc3)c2C)n[nH]1 (cis-trans isomerization)
[H]/N=c1/ccc(-n2ncc(-c3ccc(Oc4ccccc4)cc3)c2C)n[nH]1 (3D coordinates assigned)
[H]/N=c1/ccc(-n2ncc(-c3ccc(Oc4ccccc4)cc3)c2C)n[nH]1 (optimized conformer: 95.99182586017308 kcal/mol)

>  <smiles>  (46) 
Cc1c(-c2ccc(Oc3ccccc3)cc2)cnn1-c1ccc(=N)[nH]n1

>  <score_type>  (46) 
oracle

>  <origin>  (46) 
adgpu

>  <m_score__min__energy>  (46) 
-9.3900000000000006

>  <m_primary>  (46) 
energy

$$$$
47:0
     RDKit          3D

 44 45  0  0  0  0  0  0  0  0999 V2000
   -9.1080   18.9570  -32.0460 C   0  0  0  0  0  0  0  0  0  0  0  0
   -8.6350   20.3810  -32.0470 C   0  0  0  0  0  0  0  0  0  0  0  0
   -9.5600   21.4320  -31.9940 C   0  0  0  0  0  0  0  0  0  0  0  0
   -9.1190   22.7560  -31.9630 C   0  0  0  0  0  0  0  0  0  0  0  0
   -7.7510   23.0410  -31.9670 C   0  0  0  0  0  0  0  0  0  0  0  0
   -6.8060   22.0000  -31.9920 C   0  0  0  0  0  0  0  0  0  0  0  0
   -5.3510   22.2910  -31.9930 C   0  0  0  0  0  0  0  0  0  0  0  0
   -4.9550   23.4750  -31.8120 O   0  0  0  0  0  0  0  0  0  0  0  0
   -4.3900   21.2500  -32.2400 N   0  0  0  0  0  0  0  0  0  0  0  0
   -3.0000   21.3600  -31.8880 C   0  0  0  0  0  0  0  0  0  0  0  0
   -2.6150   22.0470  -30.7200 C   0  0  0  0  0  0  0  0  0  0  0  0
   -1.2680   22.1440  -30.3650 C   0  0  0  0  0  0  0  0  0  0  0  0
   -0.2890   21.5580  -31.1670 C   0  0  0  0  0  0  0  0  0  0  0  0
   -0.6540   20.8610  -32.3190 C   0  0  0  0  0  0  0  0  0  0  0  0
   -2.0040   20.7410  -32.6780 C   0  0  0  0  0  0  0  0  0  0  0  0
   -2.4200   19.8510  -34.1880 S   0  0  0  0  0  0  0  0  0  0  0  0
   -2.8020   18.2670  -33.3570 C   0  0  0  0  0  0  0  0  0  0  0  0
   -4.0970   17.6620  -33.9070 C   0  0  0  0  0  0  0  0  0  0  0  0
   -5.2710   18.4230  -33.4250 N   0  0  0  0  0  0  0  0  0  0  0  0
   -6.0840   18.9130  -34.5510 C   0  0  0  0  0  0  0  0  0  0  0  0
   -6.1040   17.5790  -32.5530 C   0  0  0  0  0  0  0  0  0  0  0  0
   -7.2600   20.6690  -32.0340 C   0  0  0  0  0  0  0  0  0  0  0  0
   -9.2234   18.6097  -31.0087 H   0  0  0  0  0  0  0  0  0  0  0  0
  -10.0760   18.8918  -32.5643 H   0  0  0  0  0  0  0  0  0  0  0  0
   -8.3713   18.3256  -32.5643 H   0  0  0  0  0  0  0  0  0  0  0  0
  -10.6378   21.2129  -31.9768 H   0  0  0  0  0  0  0  0  0  0  0  0
   -9.8503   23.5772  -31.9353 H   0  0  0  0  0  0  0  0  0  0  0  0
   -7.4110   24.0870  -31.9505 H   0  0  0  0  0  0  0  0  0  0  0  0
   -4.7070   20.4120  -32.7770 H   0  0  0  0  0  0  0  0  0  0  0  0
   -3.3819   22.5109  -30.0823 H   0  0  0  0  0  0  0  0  0  0  0  0
   -0.9785   22.6836  -29.4512 H   0  0  0  0  0  0  0  0  0  0  0  0
    0.7722   21.6455  -30.8909 H   0  0  0  0  0  0  0  0  0  0  0  0
    0.1221   20.4027  -32.9496 H   0  0  0  0  0  0  0  0  0  0  0  0
   -1.9745   17.5623  -33.5263 H   0  0  0  0  0  0  0  0  0  0  0  0
   -2.9305   18.4557  -32.2810 H   0  0  0  0  0  0  0  0  0  0  0  0
   -4.0724   17.6926  -35.0063 H   0  0  0  0  0  0  0  0  0  0  0  0
   -4.1798   16.6221  -33.5580 H   0  0  0  0  0  0  0  0  0  0  0  0
   -6.9655   19.4443  -34.1629 H   0  0  0  0  0  0  0  0  0  0  0  0
   -5.4832   19.5996  -35.1656 H   0  0  0  0  0  0  0  0  0  0  0  0
   -6.4105   18.0611  -35.1656 H   0  0  0  0  0  0  0  0  0  0  0  0
   -5.8799   17.8060  -31.5003 H   0  0  0  0  0  0  0  0  0  0  0  0
   -7.1665   17.7810  -32.7535 H   0  0  0  0  0  0  0  0  0  0  0  0
   -5.8881   16.5192  -32.7535 H   0  0  0  0  0  0  0  0  0  0  0  0
   -6.5310   19.8456  -32.0569 H   0  0  0  0  0  0  0  0  0  0  0  0
  1  2  1  0
  2  3  2  0
  3  4  1  0
  4  5  2  0
  5  6  1  0
  6  7  1  0
  7  8  2  0
  7  9  1  0
  9 10  1  0
 10 11  2  0
 11 12  1  0
 12 13  2  0
 13 14  1  0
 14 15  2  0
 15 16  1  0
 16 17  1  0
 17 18  1  0
 18 19  1  0
 19 20  1  0
 19 21  1  0
  6 22  2  0
 22  2  1  0
 15 10  1  0
  1 23  1  0
  1 24  1  0
  1 25  1  0
  3 26  1  0
  4 27  1  0
  5 28  1  0
  9 29  1  0
 11 30  1  0
 12 31  1  0
 13 32  1  0
 14 33  1  0
 17 34  1  0
 17 35  1  0
 18 36  1  0
 18 37  1  0
 20 38  1  0
 20 39  1  0
 20 40  1  0
 21 41  1  0
 21 42  1  0
 21 43  1  0
 22 44  1  0
M  END
>  <UniqueID>  (47) 
42

>  <SMILES>  (47) 
Cc1cccc(C(=O)Nc2ccccc2SCCN(C)C)c1

>  <Energy>  (47) 
45.03694203198851

>  <Genealogy>  (47) 
Cc1cccc(C(=O)Nc2ccccc2SCCN(C)C)c1 (3D coordinates assigned)
Cc1cccc(C(=O)Nc2ccccc2SCCN(C)C)c1 (optimized conformer: 45.03694203198851 kcal/mol)

>  <smiles>  (47) 
Cc1cccc(C(=O)Nc2ccccc2SCCN(C)C)c1

>  <score_type>  (47) 
oracle

>  <origin>  (47) 
adgpu

>  <m_score__min__energy>  (47) 
-7.9100000000000001

>  <m_primary>  (47) 
energy

$$$$
48:0
     RDKit          3D

 30 31  0  0  0  0  0  0  0  0999 V2000
   -4.0670   21.7440  -31.0870 C   0  0  0  0  0  0  0  0  0  0  0  0
   -4.3780   23.1660  -30.7490 C   0  0  0  0  0  0  0  0  0  0  0  0
   -3.4910   24.1750  -30.8610 N   0  0  0  0  0  0  0  0  0  0  0  0
   -4.0970   25.2600  -30.4740 O   0  0  0  0  0  0  0  0  0  0  0  0
   -5.3360   25.0110  -30.1130 C   0  0  0  0  0  0  0  0  0  0  0  0
   -6.2900   26.0480  -29.6200 C   0  0  0  0  0  0  0  0  0  0  0  0
   -5.5840   23.6630  -30.2920 C   0  0  0  0  0  0  0  0  0  0  0  0
   -6.8340   22.8960  -29.9630 C   0  0  0  0  0  0  0  0  0  0  0  0
   -7.5450   22.5410  -31.1500 O   0  0  0  0  0  0  0  0  0  0  0  0
   -7.6530   21.2420  -31.6730 C   0  0  0  0  0  0  0  0  0  0  0  0
   -8.6780   20.3560  -31.2950 C   0  0  0  0  0  0  0  0  0  0  0  0
   -8.7340   19.0730  -31.8430 C   0  0  0  0  0  0  0  0  0  0  0  0
   -7.7750   18.6610  -32.7700 C   0  0  0  0  0  0  0  0  0  0  0  0
   -6.7460   19.5330  -33.1640 C   0  0  0  0  0  0  0  0  0  0  0  0
   -5.7580   19.1080  -34.1210 N   0  0  0  0  0  0  0  0  0  0  0  0
   -6.1010   18.5770  -35.1970 O   0  0  0  0  0  0  0  0  0  0  0  0
   -4.4170   19.2810  -33.8650 O   0  0  0  0  0  0  0  0  0  0  0  0
   -6.6970   20.8250  -32.6070 C   0  0  0  0  0  0  0  0  0  0  0  0
   -3.9406   21.1659  -30.1597 H   0  0  0  0  0  0  0  0  0  0  0  0
   -4.8932   21.3178  -31.6750 H   0  0  0  0  0  0  0  0  0  0  0  0
   -3.1383   21.7016  -31.6750 H   0  0  0  0  0  0  0  0  0  0  0  0
   -6.2924   26.0506  -28.5200 H   0  0  0  0  0  0  0  0  0  0  0  0
   -5.9793   27.0368  -29.9884 H   0  0  0  0  0  0  0  0  0  0  0  0
   -7.3012   25.8207  -29.9884 H   0  0  0  0  0  0  0  0  0  0  0  0
   -6.5609   21.9793  -29.4197 H   0  0  0  0  0  0  0  0  0  0  0  0
   -7.4827   23.5328  -29.3436 H   0  0  0  0  0  0  0  0  0  0  0  0
   -9.4374   20.6747  -30.5658 H   0  0  0  0  0  0  0  0  0  0  0  0
   -9.5372   18.3839  -31.5430 H   0  0  0  0  0  0  0  0  0  0  0  0
   -7.8252   17.6475  -33.1946 H   0  0  0  0  0  0  0  0  0  0  0  0
   -5.8967   21.5163  -32.9097 H   0  0  0  0  0  0  0  0  0  0  0  0
  1  2  1  0
  2  3  2  0
  3  4  1  0
  4  5  1  0
  5  6  1  0
  5  7  2  0
  7  8  1  0
  8  9  1  0
  9 10  1  0
 10 11  2  0
 11 12  1  0
 12 13  2  0
 13 14  1  0
 14 15  1  0
 15 16  2  0
 15 17  1  0
 14 18  2  0
  7  2  1  0
 18 10  1  0
  1 19  1  0
  1 20  1  0
  1 21  1  0
  6 22  1  0
  6 23  1  0
  6 24  1  0
  8 25  1  0
  8 26  1  0
 11 27  1  0
 12 28  1  0
 13 29  1  0
 18 30  1  0
M  CHG  2  15   1  17  -1
M  END
>  <UniqueID>  (48) 
43

>  <SMILES>  (48) 
Cc1noc(C)c1COc1cccc([N+](=O)[O-])c1

>  <Energy>  (48) 
58.72501630573602

>  <Genealogy>  (48) 
Cc1noc(C)c1COc1cccc([N+](=O)[O-])c1 (3D coordinates assigned)
Cc1noc(C)c1COc1cccc([N+](=O)[O-])c1 (optimized conformer: 58.72501630573602 kcal/mol)

>  <smiles>  (48) 
Cc1noc(C)c1COc1cccc([N+](=O)[O-])c1

>  <score_type>  (48) 
oracle

>  <origin>  (48) 
adgpu

>  <m_score__min__energy>  (48) 
-7.8799999999999999

>  <m_primary>  (48) 
energy

$$$$
49:0
     RDKit          3D

 32 33  0  0  0  0  0  0  0  0999 V2000
   -3.3540   21.2540  -33.3840 C   0  0  0  0  0  0  0  0  0  0  0  0
   -3.3310   21.5870  -31.5960 S   0  0  0  0  0  0  0  0  0  0  0  0
   -4.9790   22.3060  -31.5900 C   0  0  0  0  0  0  0  0  0  0  0  0
   -5.9480   21.6810  -32.3130 N   0  0  0  0  0  0  0  0  0  0  0  0
   -7.2320   22.1230  -32.3370 C   0  0  0  0  0  0  0  0  0  0  0  0
   -7.5950   23.2470  -31.6010 C   0  0  0  0  0  0  0  0  0  0  0  0
   -6.6290   23.9130  -30.8480 C   0  0  0  0  0  0  0  0  0  0  0  0
   -5.3010   23.4590  -30.8340 C   0  0  0  0  0  0  0  0  0  0  0  0
   -4.2920   24.1980  -30.0380 C   0  0  0  0  0  0  0  0  0  0  0  0
   -3.8400   25.2970  -30.4600 O   0  0  0  0  0  0  0  0  0  0  0  0
   -3.8160   23.6570  -28.7940 N   0  0  0  0  0  0  0  0  0  0  0  0
   -3.0300   24.4120  -27.8550 C   0  0  0  0  0  0  0  0  0  0  0  0
   -3.6240   24.9190  -26.6840 C   0  0  0  0  0  0  0  0  0  0  0  0
   -2.8630   25.6200  -25.7490 C   0  0  0  0  0  0  0  0  0  0  0  0
   -1.4960   25.8150  -25.9600 C   0  0  0  0  0  0  0  0  0  0  0  0
   -0.4570   26.7680  -24.6720 Br  0  0  0  0  0  0  0  0  0  0  0  0
   -0.8890   25.3070  -27.1110 C   0  0  0  0  0  0  0  0  0  0  0  0
   -1.6450   24.6070  -28.0680 C   0  0  0  0  0  0  0  0  0  0  0  0
   -0.9650   24.0710  -29.2990 C   0  0  0  0  0  0  0  0  0  0  0  0
   -3.4289   20.1698  -33.5541 H   0  0  0  0  0  0  0  0  0  0  0  0
   -4.2195   21.7573  -33.8396 H   0  0  0  0  0  0  0  0  0  0  0  0
   -2.4275   21.6335  -33.8396 H   0  0  0  0  0  0  0  0  0  0  0  0
   -7.9851   21.5925  -32.9382 H   0  0  0  0  0  0  0  0  0  0  0  0
   -8.6345   23.6066  -31.6133 H   0  0  0  0  0  0  0  0  0  0  0  0
   -6.9095   24.8000  -30.2611 H   0  0  0  0  0  0  0  0  0  0  0  0
   -3.9820   22.6430  -28.6060 H   0  0  0  0  0  0  0  0  0  0  0  0
   -4.6977   24.7609  -26.5048 H   0  0  0  0  0  0  0  0  0  0  0  0
   -3.3406   26.0206  -24.8427 H   0  0  0  0  0  0  0  0  0  0  0  0
    0.1892   25.4558  -27.2701 H   0  0  0  0  0  0  0  0  0  0  0  0
   -0.1331   23.4153  -29.0023 H   0  0  0  0  0  0  0  0  0  0  0  0
   -1.6884   23.4976  -29.8972 H   0  0  0  0  0  0  0  0  0  0  0  0
   -0.5764   24.9083  -29.8972 H   0  0  0  0  0  0  0  0  0  0  0  0
  1  2  1  0
  2  3  1  0
  3  4  2  0
  4  5  1  0
  5  6  2  0
  6  7  1  0
  7  8  2  0
  8  9  1  0
  9 10  2  0
  9 11  1  0
 11 12  1  0
 12 13  2  0
 13 14  1  0
 14 15  2  0
 15 16  1  0
 15 17  1  0
 17 18  2  0
 18 19  1  0
  8  3  1  0
 18 12  1  0
  1 20  1  0
  1 21  1  0
  1 22  1  0
  5 23  1  0
  6 24  1  0
  7 25  1  0
 11 26  1  0
 13 27  1  0
 14 28  1  0
 17 29  1  0
 19 30  1  0
 19 31  1  0
 19 32  1  0
M  END
>  <UniqueID>  (49) 
44

>  <SMILES>  (49) 
CSc1ncccc1C(=O)Nc1ccc(Br)cc1C

>  <Energy>  (49) 
37.793496080799784

>  <Genealogy>  (49) 
CSc1ncccc1C(=O)Nc1ccc(Br)cc1C (3D coordinates assigned)
CSc1ncccc1C(=O)Nc1ccc(Br)cc1C (optimized conformer: 37.793496080799784 kcal/mol)

>  <smiles>  (49) 
CSc1ncccc1C(=O)Nc1ccc(Br)cc1C

>  <score_type>  (49) 
oracle

>  <origin>  (49) 
adgpu

>  <m_score__min__energy>  (49) 
-7.4699999999999998

>  <m_primary>  (49) 
energy

$$$$
