0:0
     RDKit          3D

 54 57  0  0  0  0  0  0  0  0999 V2000
   -5.4810   16.2517  -34.1380 H   0  0  0  0  0  0  0  0  0  0  0  0
   -5.6400   17.2850  -33.7960 C   0  0  0  0  0  0  0  0  0  0  0  0
   -6.9140   17.7000  -33.4020 C   0  0  0  0  0  0  0  0  0  0  0  0
   -7.7559   16.9931  -33.4402 H   0  0  0  0  0  0  0  0  0  0  0  0
   -7.1260   19.0160  -32.9570 C   0  0  0  0  0  0  0  0  0  0  0  0
   -8.4710   19.4630  -32.5260 C   0  0  0  0  0  0  0  0  0  0  0  0
   -9.3530   18.6030  -32.2610 O   0  0  0  0  0  0  0  0  0  0  0  0
   -8.7910   20.8500  -32.3510 N   0  0  0  0  0  0  0  0  0  0  0  0
   -7.9350   21.8450  -31.7690 C   0  0  0  0  0  0  0  0  0  0  0  0
   -7.8270   21.9140  -30.3760 C   0  0  0  0  0  0  0  0  0  0  0  0
   -8.3898   21.2072  -29.7485 H   0  0  0  0  0  0  0  0  0  0  0  0
   -7.0080   22.8760  -29.7760 C   0  0  0  0  0  0  0  0  0  0  0  0
   -6.9171   22.9128  -28.6804 H   0  0  0  0  0  0  0  0  0  0  0  0
   -6.3030   23.7930  -30.5670 C   0  0  0  0  0  0  0  0  0  0  0  0
   -5.2680   25.0080  -29.8230 S   0  0  0  0  0  0  0  0  0  0  0  0
   -4.3840   25.6550  -30.8530 O   0  0  0  0  0  0  0  0  0  0  0  0
   -6.1310   26.0610  -29.1850 O   0  0  0  0  0  0  0  0  0  0  0  0
   -4.2730   24.2710  -28.6080 N   0  0  0  0  0  0  0  0  0  0  0  0
   -2.9970   24.4810  -28.5160 C   0  0  0  0  0  0  0  0  0  0  0  0
   -2.2930   25.2830  -29.3390 N   0  0  0  0  0  0  0  0  0  0  0  0
   -1.0580   25.2280  -28.9290 O   0  0  0  0  0  0  0  0  0  0  0  0
   -0.9390   24.4320  -27.8900 C   0  0  0  0  0  0  0  0  0  0  0  0
    0.3410   24.1560  -27.1760 C   0  0  0  0  0  0  0  0  0  0  0  0
    0.1703   24.1928  -26.0899 H   0  0  0  0  0  0  0  0  0  0  0  0
    0.7090   23.1579  -27.4557 H   0  0  0  0  0  0  0  0  0  0  0  0
    1.0877   24.9138  -27.4557 H   0  0  0  0  0  0  0  0  0  0  0  0
   -2.1760   23.9130  -27.5690 C   0  0  0  0  0  0  0  0  0  0  0  0
   -2.4403   23.2183  -26.7581 H   0  0  0  0  0  0  0  0  0  0  0  0
   -6.4270   23.7420  -31.9610 C   0  0  0  0  0  0  0  0  0  0  0  0
   -5.8782   24.4614  -32.5866 H   0  0  0  0  0  0  0  0  0  0  0  0
   -7.2450   22.7810  -32.5600 C   0  0  0  0  0  0  0  0  0  0  0  0
   -7.3499   22.7563  -33.6547 H   0  0  0  0  0  0  0  0  0  0  0  0
   -6.0460   19.9150  -32.9360 C   0  0  0  0  0  0  0  0  0  0  0  0
   -6.2064   20.9542  -32.6131 H   0  0  0  0  0  0  0  0  0  0  0  0
   -4.7650   19.4960  -33.3240 C   0  0  0  0  0  0  0  0  0  0  0  0
   -3.4020   20.6170  -33.2460 S   0  0  0  0  0  0  0  0  0  0  0  0
   -3.8660   21.9880  -33.6530 O   0  0  0  0  0  0  0  0  0  0  0  0
   -2.3470   20.1750  -34.2210 O   0  0  0  0  0  0  0  0  0  0  0  0
   -2.7150   20.6920  -31.6430 N   0  0  0  0  0  0  0  0  0  0  0  0
   -1.5580   21.6020  -31.6180 C   0  0  0  0  0  0  0  0  0  0  0  0
   -0.7398   21.1622  -32.2071 H   0  0  0  0  0  0  0  0  0  0  0  0
   -1.8592   22.5693  -32.0464 H   0  0  0  0  0  0  0  0  0  0  0  0
   -1.0750   21.8290  -30.1710 C   0  0  0  0  0  0  0  0  0  0  0  0
    0.0126   21.6703  -30.1266 H   0  0  0  0  0  0  0  0  0  0  0  0
   -1.3290   22.8579  -29.8762 H   0  0  0  0  0  0  0  0  0  0  0  0
   -1.7090   20.9360  -29.2740 O   0  0  0  0  0  0  0  0  0  0  0  0
   -3.1040   21.1830  -29.2550 C   0  0  0  0  0  0  0  0  0  0  0  0
   -3.5901   20.4218  -28.6271 H   0  0  0  0  0  0  0  0  0  0  0  0
   -3.2627   22.1944  -28.8526 H   0  0  0  0  0  0  0  0  0  0  0  0
   -3.7240   21.1320  -30.6680 C   0  0  0  0  0  0  0  0  0  0  0  0
   -4.5665   20.4248  -30.6710 H   0  0  0  0  0  0  0  0  0  0  0  0
   -4.0794   22.1359  -30.9434 H   0  0  0  0  0  0  0  0  0  0  0  0
   -4.5680   18.1780  -33.7570 C   0  0  0  0  0  0  0  0  0  0  0  0
   -3.5660   17.8463  -34.0669 H   0  0  0  0  0  0  0  0  0  0  0  0
  1  2  1  0
  2  3  2  0
  3  4  1  0
  3  5  1  0
  5  6  1  0
  6  7  2  0
  6  8  1  0
  8  9  1  0
  9 10  2  0
 10 11  1  0
 10 12  1  0
 12 13  1  0
 12 14  2  0
 14 15  1  0
 15 16  2  0
 15 17  2  0
 15 18  1  0
 18 19  2  0
 19 20  1  0
 20 21  1  0
 21 22  1  0
 22 23  1  0
 23 24  1  0
 23 25  1  0
 23 26  1  0
 22 27  2  0
 27 28  1  0
 14 29  1  0
 29 30  1  0
 29 31  2  0
 31 32  1  0
  5 33  2  0
 33 34  1  0
 33 35  1  0
 35 36  1  0
 36 37  2  0
 36 38  2  0
 36 39  1  0
 39 40  1  0
 40 41  1  0
 40 42  1  0
 40 43  1  0
 43 44  1  0
 43 45  1  0
 43 46  1  0
 46 47  1  0
 47 48  1  0
 47 49  1  0
 47 50  1  0
 50 51  1  0
 50 52  1  0
 35 53  2  0
 53 54  1  0
 53  2  1  0
 31  9  1  0
 50 39  1  0
 27 19  1  0
M  CHG  2   8  -1  20  -1
M  END
>  <UniqueID>  (1) 
1

>  <SMILES>  (1) 
Cc1c/c(=N/S(=O)(=O)c2ccc([N-]C(=O)c3cccc(S(=O)(=O)N4CCOCC4)c3)cc2)[n-]o1

>  <Energy>  (1) 
103.19725004189755

>  <Genealogy>  (1) 
Cc1cc(=NS(=O)(=O)c2ccc([N-]C(=O)c3cccc(S(=O)(=O)N4CCOCC4)c3)cc2)[n-]o1 (protonated)
Cc1c/c(=N/S(=O)(=O)c2ccc([N-]C(=O)c3cccc(S(=O)(=O)N4CCOCC4)c3)cc2)[n-]o1 (cis-trans isomerization)
Cc1c/c(=N/S(=O)(=O)c2ccc([N-]C(=O)c3cccc(S(=O)(=O)N4CCOCC4)c3)cc2)[n-]o1 (3D coordinates assigned)
Cc1c/c(=N/S(=O)(=O)c2ccc([N-]C(=O)c3cccc(S(=O)(=O)N4CCOCC4)c3)cc2)[n-]o1 (nonaromatic ring conformer: 103.19725004189755 kcal/mol)

>  <smiles>  (1) 
Cc1cc(=NS(=O)(=O)c2ccc(NC(=O)c3cccc(S(=O)(=O)N4CCOCC4)c3)cc2)[nH]o1

>  <score_type>  (1) 
oracle

>  <origin>  (1) 
adgpu

>  <m_score__min__energy>  (1) 
-12.44

>  <m_primary>  (1) 
energy

$$$$
1:0
     RDKit          3D

 61 66  0  0  0  0  0  0  0  0999 V2000
   -1.4830   20.9510  -30.2000 O   0  0  0  0  0  0  0  0  0  0  0  0
   -2.4500   21.6210  -30.6590 C   0  0  0  0  0  0  0  0  0  0  0  0
   -3.1350   22.5060  -29.8180 C   0  0  0  0  0  0  0  0  0  0  0  0
   -2.7750   22.6310  -28.4610 C   0  0  0  0  0  0  0  0  0  0  0  0
   -3.4890   23.4750  -27.6150 C   0  0  0  0  0  0  0  0  0  0  0  0
   -4.5680   24.1980  -28.1080 C   0  0  0  0  0  0  0  0  0  0  0  0
   -4.9360   24.0920  -29.4500 C   0  0  0  0  0  0  0  0  0  0  0  0
   -4.2210   23.2480  -30.3430 C   0  0  0  0  0  0  0  0  0  0  0  0
   -4.5360   23.1360  -31.6850 N   0  0  0  0  0  0  0  0  0  0  0  0
   -5.7300   23.7750  -32.2910 C   0  0  0  0  0  0  0  0  0  0  0  0
   -6.9660   22.9740  -31.9600 C   0  0  0  0  0  0  0  0  0  0  0  0
   -8.2370   23.4300  -32.3520 C   0  0  0  0  0  0  0  0  0  0  0  0
   -9.3870   22.7350  -31.9650 C   0  0  0  0  0  0  0  0  0  0  0  0
   -9.2790   21.5810  -31.1850 C   0  0  0  0  0  0  0  0  0  0  0  0
   -8.0210   21.1170  -30.7960 C   0  0  0  0  0  0  0  0  0  0  0  0
   -6.8680   21.8090  -31.1790 C   0  0  0  0  0  0  0  0  0  0  0  0
   -3.7920   22.3030  -32.4920 C   0  0  0  0  0  0  0  0  0  0  0  0
   -4.0110   22.2810  -33.7370 O   0  0  0  0  0  0  0  0  0  0  0  0
   -2.8300   21.4780  -31.9660 N   0  0  0  0  0  0  0  0  0  0  0  0
   -2.2060   20.4390  -32.8190 C   0  0  0  0  0  0  0  0  0  0  0  0
   -2.6670   18.9950  -32.4820 C   0  0  0  0  0  0  0  0  0  0  0  0
   -4.1190   18.5660  -32.8650 C   0  0  1  0  0  0  0  0  0  0  0  0
   -5.0760   19.0970  -31.7530 C   0  0  0  0  0  0  0  0  0  0  0  0
   -6.5380   18.7110  -32.0570 C   0  0  2  0  0  0  0  0  0  0  0  0
   -6.6600   17.1750  -32.1170 C   0  0  0  0  0  0  0  0  0  0  0  0
   -5.7390   16.6320  -33.2280 C   0  0  1  0  0  0  0  0  0  0  0  0
   -6.1540   17.2400  -34.5870 C   0  0  0  0  0  0  0  0  0  0  0  0
   -6.0330   18.7790  -34.5250 C   0  0  1  0  0  0  0  0  0  0  0  0
   -6.9560   19.3190  -33.4120 C   0  0  0  0  0  0  0  0  0  0  0  0
   -4.5690   19.1730  -34.2230 C   0  0  0  0  0  0  0  0  0  0  0  0
   -4.2760   17.0160  -32.9230 C   0  0  0  0  0  0  0  0  0  0  0  0
   -1.9231   22.0571  -28.0674 H   0  0  0  0  0  0  0  0  0  0  0  0
   -3.1994   23.5693  -26.5580 H   0  0  0  0  0  0  0  0  0  0  0  0
   -5.1360   24.8583  -27.4362 H   0  0  0  0  0  0  0  0  0  0  0  0
   -5.7936   24.6711  -29.8230 H   0  0  0  0  0  0  0  0  0  0  0  0
   -5.8391   24.7948  -31.8934 H   0  0  0  0  0  0  0  0  0  0  0  0
   -5.6050   23.8128  -33.3832 H   0  0  0  0  0  0  0  0  0  0  0  0
   -8.3271   24.3381  -32.9662 H   0  0  0  0  0  0  0  0  0  0  0  0
  -10.3782   23.0974  -32.2752 H   0  0  0  0  0  0  0  0  0  0  0  0
  -10.1849   21.0381  -30.8774 H   0  0  0  0  0  0  0  0  0  0  0  0
   -7.9367   20.2050  -30.1868 H   0  0  0  0  0  0  0  0  0  0  0  0
   -5.8795   21.4402  -30.8678 H   0  0  0  0  0  0  0  0  0  0  0  0
   -2.4633   20.6499  -33.8675 H   0  0  0  0  0  0  0  0  0  0  0  0
   -1.1221   20.4813  -32.6361 H   0  0  0  0  0  0  0  0  0  0  0  0
   -1.9794   18.3068  -32.9954 H   0  0  0  0  0  0  0  0  0  0  0  0
   -2.6579   18.9599  -31.3826 H   0  0  0  0  0  0  0  0  0  0  0  0
   -4.9958   20.1929  -31.7015 H   0  0  0  0  0  0  0  0  0  0  0  0
   -4.7850   18.6458  -30.7930 H   0  0  0  0  0  0  0  0  0  0  0  0
   -7.1958   19.0980  -31.2648 H   0  0  0  0  0  0  0  0  0  0  0  0
   -7.7018   16.8977  -32.3356 H   0  0  0  0  0  0  0  0  0  0  0  0
   -6.3625   16.7443  -31.1495 H   0  0  0  0  0  0  0  0  0  0  0  0
   -5.8297   15.5366  -33.2709 H   0  0  0  0  0  0  0  0  0  0  0  0
   -7.1952   16.9633  -34.8091 H   0  0  0  0  0  0  0  0  0  0  0  0
   -5.4936   16.8532  -35.3771 H   0  0  0  0  0  0  0  0  0  0  0  0
   -6.3316   19.2107  -35.4917 H   0  0  0  0  0  0  0  0  0  0  0  0
   -7.9974   19.0417  -33.6326 H   0  0  0  0  0  0  0  0  0  0  0  0
   -6.8704   20.4146  -33.3642 H   0  0  0  0  0  0  0  0  0  0  0  0
   -4.4903   20.2691  -34.1749 H   0  0  0  0  0  0  0  0  0  0  0  0
   -3.9206   18.7845  -35.0222 H   0  0  0  0  0  0  0  0  0  0  0  0
   -3.9834   16.5860  -31.9537 H   0  0  0  0  0  0  0  0  0  0  0  0
   -3.6309   16.6228  -33.7225 H   0  0  0  0  0  0  0  0  0  0  0  0
  1  2  2  0
  2  3  1  0
  3  4  2  0
  4  5  1  0
  5  6  2  0
  6  7  1  0
  7  8  2  0
  8  9  1  0
  9 10  1  0
 10 11  1  0
 11 12  2  0
 12 13  1  0
 13 14  2  0
 14 15  1  0
 15 16  2  0
  9 17  1  0
 17 18  2  0
 17 19  1  0
 19 20  1  0
 20 21  1  0
 22 21  1  1
 22 23  1  0
 23 24  1  0
 24 25  1  0
 25 26  1  0
 26 27  1  0
 27 28  1  0
 28 29  1  0
 28 30  1  0
 26 31  1  0
 19  2  1  0
 30 22  1  0
  8  3  1  0
 16 11  1  0
 31 22  1  0
 29 24  1  0
  4 32  1  0
  5 33  1  0
  6 34  1  0
  7 35  1  0
 10 36  1  0
 10 37  1  0
 12 38  1  0
 13 39  1  0
 14 40  1  0
 15 41  1  0
 16 42  1  0
 20 43  1  0
 20 44  1  0
 21 45  1  0
 21 46  1  0
 23 47  1  0
 23 48  1  0
 24 49  1  1
 25 50  1  0
 25 51  1  0
 26 52  1  6
 27 53  1  0
 27 54  1  0
 28 55  1  6
 29 56  1  0
 29 57  1  0
 30 58  1  0
 30 59  1  0
 31 60  1  0
 31 61  1  0
M  END
>  <UniqueID>  (2) 
2

>  <SMILES>  (2) 
O=c1c2ccccc2n(Cc2ccccc2)c(=O)n1CCC12CC3CC(CC(C3)C1)C2

>  <Energy>  (2) 
81.41127448337203

>  <Genealogy>  (2) 
O=c1c2ccccc2n(Cc2ccccc2)c(=O)n1CCC12CC3CC(CC(C3)C1)C2 (3D coordinates assigned)
O=c1c2ccccc2n(Cc2ccccc2)c(=O)n1CCC12CC3CC(CC(C3)C1)C2 (nonaromatic ring conformer: 81.41127448337203 kcal/mol)

>  <smiles>  (2) 
O=c1c2ccccc2n(Cc2ccccc2)c(=O)n1CCC12CC3CC(CC(C3)C1)C2

>  <score_type>  (2) 
oracle

>  <origin>  (2) 
adgpu

>  <m_score__min__energy>  (2) 
-9.9100000000000001

>  <m_primary>  (2) 
energy

$$$$
2:0
     RDKit          3D

 64 68  0  0  0  0  0  0  0  0999 V2000
   -7.5820   18.5830  -32.2640 O   0  0  0  0  0  0  0  0  0  0  0  0
   -6.4290   18.7370  -32.7440 C   0  0  0  0  0  0  0  0  0  0  0  0
   -5.7660   20.0130  -32.6510 N   0  0  0  0  0  0  0  0  0  0  0  0
   -6.3700   21.2060  -32.1190 C   0  0  0  0  0  0  0  0  0  0  0  0
   -7.7380   21.4300  -32.3260 C   0  0  0  0  0  0  0  0  0  0  0  0
   -8.3540   22.5750  -31.8190 C   0  0  0  0  0  0  0  0  0  0  0  0
   -7.6090   23.5050  -31.0930 C   0  0  0  0  0  0  0  0  0  0  0  0
   -6.2420   23.2940  -30.8650 C   0  0  0  0  0  0  0  0  0  0  0  0
   -5.2910   24.4970  -29.9910 S   0  0  0  0  0  0  0  0  0  0  0  0
   -6.2180   25.4400  -29.2760 O   0  0  0  0  0  0  0  0  0  0  0  0
   -4.4850   25.2990  -30.9750 O   0  0  0  0  0  0  0  0  0  0  0  0
   -4.2140   23.7490  -28.8310 N   0  0  0  0  0  0  0  0  0  0  0  0
   -4.1890   24.5240  -27.5690 C   0  0  0  0  0  0  0  0  0  0  0  0
   -2.9060   24.2790  -26.7720 C   0  0  0  0  0  0  0  0  0  0  0  0
   -1.6910   24.7770  -27.5670 C   0  0  0  0  0  0  0  0  0  0  0  0
   -1.8250   24.5280  -29.0840 C   0  0  0  0  0  0  0  0  0  0  0  0
   -2.8810   23.4600  -29.4160 C   0  0  0  0  0  0  0  0  0  0  0  0
   -5.6320   22.1290  -31.3540 C   0  0  0  0  0  0  0  0  0  0  0  0
   -5.7590   17.5760  -33.3650 C   0  0  0  0  0  0  0  0  0  0  0  0
   -6.4950   16.4130  -33.6420 C   0  0  0  0  0  0  0  0  0  0  0  0
   -5.8630   15.2890  -34.1800 C   0  0  0  0  0  0  0  0  0  0  0  0
   -4.4890   15.3070  -34.4250 C   0  0  0  0  0  0  0  0  0  0  0  0
   -3.7390   16.4570  -34.1480 C   0  0  0  0  0  0  0  0  0  0  0  0
   -1.9870   16.4520  -34.3720 S   0  0  0  0  0  0  0  0  0  0  0  0
   -1.6710   17.0680  -35.7070 O   0  0  0  0  0  0  0  0  0  0  0  0
   -1.5070   15.0250  -34.3660 O   0  0  0  0  0  0  0  0  0  0  0  0
   -1.1770   17.3460  -33.1050 N   0  0  0  0  0  0  0  0  0  0  0  0
   -0.5890   16.5970  -31.9840 C   0  0  0  0  0  0  0  0  0  0  0  0
    0.5340   17.4010  -31.3300 C   0  0  0  0  0  0  0  0  0  0  0  0
    0.0700   18.7040  -30.9910 O   0  0  0  0  0  0  0  0  0  0  0  0
   -0.7550   19.4270  -31.8540 C   0  0  0  0  0  0  0  0  0  0  0  0
   -0.9860   20.7860  -31.6090 C   0  0  0  0  0  0  0  0  0  0  0  0
   -1.8030   21.5220  -32.4680 C   0  0  0  0  0  0  0  0  0  0  0  0
   -2.3790   20.9040  -33.5830 C   0  0  0  0  0  0  0  0  0  0  0  0
   -2.1590   19.5420  -33.8290 C   0  0  0  0  0  0  0  0  0  0  0  0
   -1.3590   18.7790  -32.9520 C   0  0  0  0  0  0  0  0  0  0  0  0
   -4.3780   17.5920  -33.6280 C   0  0  0  0  0  0  0  0  0  0  0  0
   -4.7550   20.0650  -32.9140 H   0  0  0  0  0  0  0  0  0  0  0  0
   -8.3310   20.6972  -32.8928 H   0  0  0  0  0  0  0  0  0  0  0  0
   -9.4271   22.7444  -31.9917 H   0  0  0  0  0  0  0  0  0  0  0  0
   -8.0968   24.4082  -30.6976 H   0  0  0  0  0  0  0  0  0  0  0  0
   -4.2593   25.5953  -27.8085 H   0  0  0  0  0  0  0  0  0  0  0  0
   -5.0397   24.1978  -26.9527 H   0  0  0  0  0  0  0  0  0  0  0  0
   -2.9623   24.8199  -25.8158 H   0  0  0  0  0  0  0  0  0  0  0  0
   -2.7976   23.2005  -26.5847 H   0  0  0  0  0  0  0  0  0  0  0  0
   -1.5790   25.8580  -27.3970 H   0  0  0  0  0  0  0  0  0  0  0  0
   -0.8130   24.2151  -27.2158 H   0  0  0  0  0  0  0  0  0  0  0  0
   -2.1119   25.4711  -29.5720 H   0  0  0  0  0  0  0  0  0  0  0  0
   -0.8541   24.1620  -29.4491 H   0  0  0  0  0  0  0  0  0  0  0  0
   -2.9853   23.4005  -30.5094 H   0  0  0  0  0  0  0  0  0  0  0  0
   -2.5330   22.5119  -28.9800 H   0  0  0  0  0  0  0  0  0  0  0  0
   -4.5708   21.9357  -31.1384 H   0  0  0  0  0  0  0  0  0  0  0  0
   -7.5749   16.3865  -33.4344 H   0  0  0  0  0  0  0  0  0  0  0  0
   -6.4497   14.3877  -34.4110 H   0  0  0  0  0  0  0  0  0  0  0  0
   -3.9937   14.4153  -34.8369 H   0  0  0  0  0  0  0  0  0  0  0  0
   -1.3698   16.3927  -31.2367 H   0  0  0  0  0  0  0  0  0  0  0  0
   -0.1729   15.6536  -32.3673 H   0  0  0  0  0  0  0  0  0  0  0  0
    0.8673   16.8847  -30.4176 H   0  0  0  0  0  0  0  0  0  0  0  0
    1.3719   17.4900  -32.0372 H   0  0  0  0  0  0  0  0  0  0  0  0
   -0.5230   21.2739  -30.7386 H   0  0  0  0  0  0  0  0  0  0  0  0
   -1.9939   22.5868  -32.2687 H   0  0  0  0  0  0  0  0  0  0  0  0
   -3.0075   21.4898  -34.2699 H   0  0  0  0  0  0  0  0  0  0  0  0
   -2.6124   19.0651  -34.7105 H   0  0  0  0  0  0  0  0  0  0  0  0
   -3.7942   18.5018  -33.4243 H   0  0  0  0  0  0  0  0  0  0  0  0
  1  2  2  0
  2  3  1  0
  3  4  1  0
  4  5  2  0
  5  6  1  0
  6  7  2  0
  7  8  1  0
  8  9  1  0
  9 10  2  0
  9 11  2  0
  9 12  1  0
 12 13  1  0
 13 14  1  0
 14 15  1  0
 15 16  1  0
 16 17  1  0
  8 18  2  0
  2 19  1  0
 19 20  2  0
 20 21  1  0
 21 22  2  0
 22 23  1  0
 23 24  1  0
 24 25  2  0
 24 26  2  0
 24 27  1  0
 27 28  1  0
 28 29  1  0
 29 30  1  0
 30 31  1  0
 31 32  2  0
 32 33  1  0
 33 34  2  0
 34 35  1  0
 35 36  2  0
 23 37  2  0
 18  4  1  0
 37 19  1  0
 17 12  1  0
 36 27  1  0
 36 31  1  0
  3 38  1  0
  5 39  1  0
  6 40  1  0
  7 41  1  0
 13 42  1  0
 13 43  1  0
 14 44  1  0
 14 45  1  0
 15 46  1  0
 15 47  1  0
 16 48  1  0
 16 49  1  0
 17 50  1  0
 17 51  1  0
 18 52  1  0
 20 53  1  0
 21 54  1  0
 22 55  1  0
 28 56  1  0
 28 57  1  0
 29 58  1  0
 29 59  1  0
 32 60  1  0
 33 61  1  0
 34 62  1  0
 35 63  1  0
 37 64  1  0
M  END
>  <UniqueID>  (3) 
3

>  <SMILES>  (3) 
O=C(Nc1cccc(S(=O)(=O)N2CCCCC2)c1)c1cccc(S(=O)(=O)N2CCOc3ccccc32)c1

>  <Energy>  (3) 
86.62551342034098

>  <Genealogy>  (3) 
O=C(Nc1cccc(S(=O)(=O)N2CCCCC2)c1)c1cccc(S(=O)(=O)N2CCOc3ccccc32)c1 (3D coordinates assigned)
O=C(Nc1cccc(S(=O)(=O)N2CCCCC2)c1)c1cccc(S(=O)(=O)N2CCOc3ccccc32)c1 (nonaromatic ring conformer: 86.62551342034098 kcal/mol)

>  <smiles>  (3) 
O=C(Nc1cccc(S(=O)(=O)N2CCCCC2)c1)c1cccc(S(=O)(=O)N2CCOc3ccccc32)c1

>  <score_type>  (3) 
oracle

>  <origin>  (3) 
adgpu

>  <m_score__min__energy>  (3) 
-10.92

>  <m_primary>  (3) 
energy

$$$$
3:0
     RDKit          3D

 50 52  0  0  0  0  0  0  0  0999 V2000
   -5.9620   25.2320  -29.4160 C   0  0  0  0  0  0  0  0  0  0  0  0
   -4.9870   24.9730  -30.5250 C   0  0  0  0  0  0  0  0  0  0  0  0
   -5.4070   24.4810  -31.6050 O   0  0  0  0  0  0  0  0  0  0  0  0
   -3.5850   25.2400  -30.3810 N   0  0  0  0  0  0  0  0  0  0  0  0
   -2.6750   24.4900  -29.5670 C   0  0  0  0  0  0  0  0  0  0  0  0
   -2.9020   23.1200  -29.3830 C   0  0  0  0  0  0  0  0  0  0  0  0
   -2.0390   22.3570  -28.5870 C   0  0  0  0  0  0  0  0  0  0  0  0
   -2.3470   20.6360  -28.3690 S   0  0  0  0  0  0  0  0  0  0  0  0
   -3.4470   20.2170  -29.3030 O   0  0  0  0  0  0  0  0  0  0  0  0
   -2.7720   20.3430  -26.9560 O   0  0  0  0  0  0  0  0  0  0  0  0
   -0.9120   19.7320  -28.7320 N   0  0  0  0  0  0  0  0  0  0  0  0
   -0.4790   19.3660  -30.0500 C   0  0  0  0  0  0  0  0  0  0  0  0
   -0.8900   20.0780  -31.1910 C   0  0  0  0  0  0  0  0  0  0  0  0
   -0.4500   19.6980  -32.4650 C   0  0  0  0  0  0  0  0  0  0  0  0
   -0.9540   20.6150  -33.8850 S   0  0  0  0  0  0  0  0  0  0  0  0
   -0.5980   19.8500  -35.1290 O   0  0  0  0  0  0  0  0  0  0  0  0
   -0.2170   21.9250  -33.9050 O   0  0  0  0  0  0  0  0  0  0  0  0
   -2.6740   20.9170  -33.8370 N   0  0  0  0  0  0  0  0  0  0  0  0
   -2.9980   21.8190  -32.7090 C   0  0  0  0  0  0  0  0  0  0  0  0
   -4.4900   21.7680  -32.3620 C   0  0  0  0  0  0  0  0  0  0  0  0
   -4.9030   20.3580  -31.9030 C   0  0  0  0  0  0  0  0  0  0  0  0
   -3.9830   19.2580  -32.4620 C   0  0  0  0  0  0  0  0  0  0  0  0
   -3.4370   19.6420  -33.8470 C   0  0  0  0  0  0  0  0  0  0  0  0
    0.4210   18.6100  -32.6010 C   0  0  0  0  0  0  0  0  0  0  0  0
    0.8350   17.8990  -31.4730 C   0  0  0  0  0  0  0  0  0  0  0  0
    0.3880   18.2730  -30.2010 C   0  0  0  0  0  0  0  0  0  0  0  0
    0.8110   17.5570  -29.0870 O   0  0  0  0  0  0  0  0  0  0  0  0
   -0.9290   22.9660  -27.9880 C   0  0  0  0  0  0  0  0  0  0  0  0
   -0.6750   24.3230  -28.1980 C   0  0  0  0  0  0  0  0  0  0  0  0
   -1.5340   25.0850  -28.9970 C   0  0  0  0  0  0  0  0  0  0  0  0
   -1.2310   26.4200  -29.2410 O   0  0  0  0  0  0  0  0  0  0  0  0
   -5.4590   25.0984  -28.4469 H   0  0  0  0  0  0  0  0  0  0  0  0
   -6.3406   26.2619  -29.4937 H   0  0  0  0  0  0  0  0  0  0  0  0
   -6.8018   24.5258  -29.4937 H   0  0  0  0  0  0  0  0  0  0  0  0
   -3.7649   22.6399  -29.8676 H   0  0  0  0  0  0  0  0  0  0  0  0
   -1.5631   20.9411  -31.0818 H   0  0  0  0  0  0  0  0  0  0  0  0
   -2.4151   21.5133  -31.8277 H   0  0  0  0  0  0  0  0  0  0  0  0
   -2.7469   22.8480  -33.0058 H   0  0  0  0  0  0  0  0  0  0  0  0
   -4.6955   22.4841  -31.5527 H   0  0  0  0  0  0  0  0  0  0  0  0
   -5.0676   22.0262  -33.2618 H   0  0  0  0  0  0  0  0  0  0  0  0
   -4.8679   20.3213  -30.8042 H   0  0  0  0  0  0  0  0  0  0  0  0
   -5.9172   20.1683  -32.2843 H   0  0  0  0  0  0  0  0  0  0  0  0
   -3.1393   19.1106  -31.7718 H   0  0  0  0  0  0  0  0  0  0  0  0
   -4.5679   18.3318  -32.5622 H   0  0  0  0  0  0  0  0  0  0  0  0
   -2.7723   18.8384  -34.1969 H   0  0  0  0  0  0  0  0  0  0  0  0
   -4.3004   19.7804  -34.5144 H   0  0  0  0  0  0  0  0  0  0  0  0
    0.7796   18.3150  -33.5982 H   0  0  0  0  0  0  0  0  0  0  0  0
    1.5151   17.0417  -31.5847 H   0  0  0  0  0  0  0  0  0  0  0  0
   -0.2557   22.3740  -27.3507 H   0  0  0  0  0  0  0  0  0  0  0  0
    0.2036   24.7944  -27.7335 H   0  0  0  0  0  0  0  0  0  0  0  0
  1  2  1  0
  2  3  2  0
  2  4  1  0
  4  5  1  0
  5  6  2  0
  6  7  1  0
  7  8  1  0
  8  9  2  0
  8 10  2  0
  8 11  1  0
 11 12  1  0
 12 13  2  0
 13 14  1  0
 14 15  1  0
 15 16  2  0
 15 17  2  0
 15 18  1  0
 18 19  1  0
 19 20  1  0
 20 21  1  0
 21 22  1  0
 22 23  1  0
 14 24  2  0
 24 25  1  0
 25 26  2  0
 26 27  1  0
  7 28  2  0
 28 29  1  0
 29 30  2  0
 30 31  1  0
 30  5  1  0
 26 12  1  0
 23 18  1  0
  1 32  1  0
  1 33  1  0
  1 34  1  0
  6 35  1  0
 13 36  1  0
 19 37  1  0
 19 38  1  0
 20 39  1  0
 20 40  1  0
 21 41  1  0
 21 42  1  0
 22 43  1  0
 22 44  1  0
 23 45  1  0
 23 46  1  0
 24 47  1  0
 25 48  1  0
 28 49  1  0
 29 50  1  0
M  CHG  4   4  -1  11  -1  27  -1  31  -1
M  END
>  <UniqueID>  (4) 
4

>  <SMILES>  (4) 
CC(=O)[N-]c1cc(S(=O)(=O)[N-]c2cc(S(=O)(=O)N3CCCCC3)ccc2[O-])ccc1[O-]

>  <Energy>  (4) 
63.95405368441692

>  <Genealogy>  (4) 
CC(=O)[N-]c1cc(S(=O)(=O)[N-]c2cc(S(=O)(=O)N3CCCCC3)ccc2[O-])ccc1[O-] (protonated)
CC(=O)[N-]c1cc(S(=O)(=O)[N-]c2cc(S(=O)(=O)N3CCCCC3)ccc2[O-])ccc1[O-] (3D coordinates assigned)
CC(=O)[N-]c1cc(S(=O)(=O)[N-]c2cc(S(=O)(=O)N3CCCCC3)ccc2[O-])ccc1[O-] (nonaromatic ring conformer: 63.95405368441692 kcal/mol)

>  <smiles>  (4) 
CC(=O)Nc1cc(S(=O)(=O)Nc2cc(S(=O)(=O)N3CCCCC3)ccc2O)ccc1O

>  <score_type>  (4) 
oracle

>  <origin>  (4) 
adgpu

>  <m_score__min__energy>  (4) 
-14.75

>  <m_primary>  (4) 
energy

$$$$
4:0
     RDKit          3D

 46 49  0  0  0  0  0  0  0  0999 V2000
   -4.2400   26.0200  -30.4730 O   0  0  0  0  0  0  0  0  0  0  0  0
   -4.9700   25.0040  -30.6160 C   0  0  0  0  0  0  0  0  0  0  0  0
   -4.6670   24.0050  -31.5800 N   0  0  0  0  0  0  0  0  0  0  0  0
   -5.6810   23.0170  -31.5710 C   0  0  0  0  0  0  0  0  0  0  0  0
   -5.6520   22.0390  -32.3620 O   0  0  0  0  0  0  0  0  0  0  0  0
   -6.7480   23.2630  -30.5950 C   0  0  0  0  0  0  0  0  0  0  0  0
   -7.8700   22.5480  -30.4320 C   0  0  0  0  0  0  0  0  0  0  0  0
   -8.2020   21.3370  -31.2050 C   0  0  0  0  0  0  0  0  0  0  0  0
   -9.4300   21.2240  -31.8730 C   0  0  0  0  0  0  0  0  0  0  0  0
   -9.7040   20.0950  -32.6480 C   0  0  0  0  0  0  0  0  0  0  0  0
   -8.7540   19.0770  -32.7610 C   0  0  0  0  0  0  0  0  0  0  0  0
   -7.5270   19.1700  -32.0780 C   0  0  0  0  0  0  0  0  0  0  0  0
   -6.5470   18.1710  -32.1570 O   0  0  0  0  0  0  0  0  0  0  0  0
   -5.3540   18.2360  -32.8930 C   0  0  0  0  0  0  0  0  0  0  0  0
   -4.9980   17.1410  -33.6890 C   0  0  0  0  0  0  0  0  0  0  0  0
   -3.8360   17.1780  -34.4630 C   0  0  0  0  0  0  0  0  0  0  0  0
   -3.0150   18.3100  -34.4460 C   0  0  0  0  0  0  0  0  0  0  0  0
   -3.3520   19.4130  -33.6480 C   0  0  0  0  0  0  0  0  0  0  0  0
   -2.4900   20.5580  -33.6210 N   0  0  0  0  0  0  0  0  0  0  0  0
   -1.2510   20.7390  -32.4170 S   0  0  0  0  0  0  0  0  0  0  0  0
   -0.7500   19.3740  -32.0280 O   0  0  0  0  0  0  0  0  0  0  0  0
   -0.1100   21.5280  -32.9980 O   0  0  0  0  0  0  0  0  0  0  0  0
   -1.8640   21.5860  -31.0000 C   0  0  0  0  0  0  0  0  0  0  0  0
   -1.1590   22.6760  -30.4680 C   0  0  0  0  0  0  0  0  0  0  0  0
   -1.6580   23.3590  -29.3540 C   0  0  0  0  0  0  0  0  0  0  0  0
   -2.8650   22.9570  -28.7690 C   0  0  0  0  0  0  0  0  0  0  0  0
   -3.5690   21.8710  -29.2940 C   0  0  0  0  0  0  0  0  0  0  0  0
   -3.0700   21.1830  -30.4040 C   0  0  0  0  0  0  0  0  0  0  0  0
   -4.5360   19.3790  -32.8970 C   0  0  0  0  0  0  0  0  0  0  0  0
   -7.2500   20.3170  -31.3290 C   0  0  0  0  0  0  0  0  0  0  0  0
   -6.4590   24.7600  -29.6430 S   0  0  0  0  0  0  0  0  0  0  0  0
   -8.5898   22.8866  -29.6723 H   0  0  0  0  0  0  0  0  0  0  0  0
  -10.1783   22.0256  -31.7864 H   0  0  0  0  0  0  0  0  0  0  0  0
  -10.6684   20.0073  -33.1698 H   0  0  0  0  0  0  0  0  0  0  0  0
   -8.9662   18.1979  -33.3873 H   0  0  0  0  0  0  0  0  0  0  0  0
   -5.6373   16.2460  -33.7050 H   0  0  0  0  0  0  0  0  0  0  0  0
   -3.5657   16.3140  -35.0879 H   0  0  0  0  0  0  0  0  0  0  0  0
   -2.1027   18.3354  -35.0600 H   0  0  0  0  0  0  0  0  0  0  0  0
   -2.4130   21.1530  -34.4760 H   0  0  0  0  0  0  0  0  0  0  0  0
   -0.2118   22.9942  -30.9279 H   0  0  0  0  0  0  0  0  0  0  0  0
   -1.1022   24.2120  -28.9375 H   0  0  0  0  0  0  0  0  0  0  0  0
   -3.2590   23.4969  -27.8953 H   0  0  0  0  0  0  0  0  0  0  0  0
   -4.5172   21.5566  -28.8336 H   0  0  0  0  0  0  0  0  0  0  0  0
   -3.6233   20.3240  -30.8115 H   0  0  0  0  0  0  0  0  0  0  0  0
   -4.8281   20.2579  -32.3036 H   0  0  0  0  0  0  0  0  0  0  0  0
   -6.2742   20.4198  -30.8317 H   0  0  0  0  0  0  0  0  0  0  0  0
  1  2  2  0
  2  3  1  0
  3  4  1  0
  4  5  2  0
  4  6  1  0
  6  7  2  3
  7  8  1  0
  8  9  2  0
  9 10  1  0
 10 11  2  0
 11 12  1  0
 12 13  1  0
 13 14  1  0
 14 15  2  0
 15 16  1  0
 16 17  2  0
 17 18  1  0
 18 19  1  0
 19 20  1  0
 20 21  2  0
 20 22  2  0
 20 23  1  0
 23 24  2  0
 24 25  1  0
 25 26  2  0
 26 27  1  0
 27 28  2  0
 18 29  2  0
 12 30  2  0
  6 31  1  0
 31  2  1  0
 30  8  1  0
 29 14  1  0
 28 23  1  0
  7 32  1  0
  9 33  1  0
 10 34  1  0
 11 35  1  0
 15 36  1  0
 16 37  1  0
 17 38  1  0
 19 39  1  0
 24 40  1  0
 25 41  1  0
 26 42  1  0
 27 43  1  0
 28 44  1  0
 29 45  1  0
 30 46  1  0
M  CHG  1   3  -1
M  END
>  <UniqueID>  (5) 
5

>  <SMILES>  (5) 
O=C1[N-]C(=O)C(=Cc2cccc(Oc3cccc(NS(=O)(=O)c4ccccc4)c3)c2)S1

>  <Energy>  (5) 
85.21099498839487

>  <Genealogy>  (5) 
O=C1[N-]C(=O)C(=Cc2cccc(Oc3cccc(NS(=O)(=O)c4ccccc4)c3)c2)S1 (protonated)
O=C1[N-]C(=O)C(=Cc2cccc(Oc3cccc(NS(=O)(=O)c4ccccc4)c3)c2)S1 (3D coordinates assigned)
O=C1[N-]C(=O)C(=Cc2cccc(Oc3cccc(NS(=O)(=O)c4ccccc4)c3)c2)S1 (nonaromatic ring conformer: 85.21099498839487 kcal/mol)

>  <smiles>  (5) 
O=C1NC(=O)C(=Cc2cccc(Oc3cccc(NS(=O)(=O)c4ccccc4)c3)c2)S1

>  <score_type>  (5) 
oracle

>  <origin>  (5) 
adgpu

>  <m_score__min__energy>  (5) 
-11.869999999999999

>  <m_primary>  (5) 
energy

$$$$
5:0
     RDKit          3D

 27 28  0  0  0  0  0  0  0  0999 V2000
   -9.1150   21.3360  -31.9890 C   0  0  0  0  0  0  0  0  0  0  0  0
   -8.5190   20.0070  -31.9090 N   0  0  0  0  0  0  0  0  0  0  0  0
   -8.9710   18.9550  -31.2050 C   0  0  0  0  0  0  0  0  0  0  0  0
   -8.2240   17.8580  -31.4400 N   0  0  0  0  0  0  0  0  0  0  0  0
   -7.2900   18.2010  -32.3160 N   0  0  0  0  0  0  0  0  0  0  0  0
   -7.4830   19.5010  -32.6020 C   0  0  0  0  0  0  0  0  0  0  0  0
   -6.4760   20.4170  -33.7710 S   0  0  0  0  0  0  0  0  0  0  0  0
   -5.4450   21.1210  -32.4770 C   0  0  0  0  0  0  0  0  0  0  0  0
   -5.6090   22.4750  -32.1560 C   0  0  0  0  0  0  0  0  0  0  0  0
   -4.8220   23.0830  -31.1640 C   0  0  0  0  0  0  0  0  0  0  0  0
   -4.9920   24.5180  -30.8380 C   0  0  0  0  0  0  0  0  0  0  0  0
   -3.8590   25.3340  -30.5400 N   0  0  0  0  0  0  0  0  0  0  0  0
   -6.1410   25.0350  -30.8180 O   0  0  0  0  0  0  0  0  0  0  0  0
   -3.8680   22.3060  -30.4850 C   0  0  0  0  0  0  0  0  0  0  0  0
   -3.7080   20.9530  -30.7910 C   0  0  0  0  0  0  0  0  0  0  0  0
   -4.4910   20.3470  -31.7820 C   0  0  0  0  0  0  0  0  0  0  0  0
   -4.3030   18.9540  -32.0670 N   0  0  0  0  0  0  0  0  0  0  0  0
   -9.2881   21.7220  -30.9736 H   0  0  0  0  0  0  0  0  0  0  0  0
   -8.4337   22.0116  -32.5269 H   0  0  0  0  0  0  0  0  0  0  0  0
  -10.0727   21.2766  -32.5269 H   0  0  0  0  0  0  0  0  0  0  0  0
   -9.8364   18.9853  -30.5266 H   0  0  0  0  0  0  0  0  0  0  0  0
   -6.3651   23.0705  -32.6886 H   0  0  0  0  0  0  0  0  0  0  0  0
   -3.5020   26.0300  -31.2320 H   0  0  0  0  0  0  0  0  0  0  0  0
   -3.2425   22.7672  -29.7065 H   0  0  0  0  0  0  0  0  0  0  0  0
   -2.9595   20.3569  -30.2484 H   0  0  0  0  0  0  0  0  0  0  0  0
   -3.3570   18.5190  -32.1090 H   0  0  0  0  0  0  0  0  0  0  0  0
   -5.1250   18.3350  -32.2490 H   0  0  0  0  0  0  0  0  0  0  0  0
  1  2  1  0
  2  3  1  0
  3  4  2  0
  4  5  1  0
  5  6  2  0
  6  7  1  0
  7  8  1  0
  8  9  2  0
  9 10  1  0
 10 11  1  0
 11 12  1  0
 11 13  2  0
 10 14  2  0
 14 15  1  0
 15 16  2  0
 16 17  1  0
  6  2  1  0
 16  8  1  0
  1 18  1  0
  1 19  1  0
  1 20  1  0
  3 21  1  0
  9 22  1  0
 12 23  1  0
 14 24  1  0
 15 25  1  0
 17 26  1  0
 17 27  1  0
M  CHG  1  12  -1
M  END
>  <UniqueID>  (6) 
6

>  <SMILES>  (6) 
Cn1cnnc1Sc1cc(C([NH-])=O)ccc1N

>  <Energy>  (6) 
57.327067504055876

>  <Genealogy>  (6) 
Cn1cnnc1Sc1cc(C([NH-])=O)ccc1N (protonated)
Cn1cnnc1Sc1cc(C([NH-])=O)ccc1N (3D coordinates assigned)
Cn1cnnc1Sc1cc(C([NH-])=O)ccc1N (optimized conformer: 57.327067504055876 kcal/mol)

>  <smiles>  (6) 
Cn1cnnc1Sc1cc(C(N)=O)ccc1N

>  <score_type>  (6) 
oracle

>  <origin>  (6) 
adgpu

>  <m_score__min__energy>  (6) 
-9.0600000000000005

>  <m_primary>  (6) 
energy

$$$$
6:0
     RDKit          3D

 53 56  0  0  0  0  0  0  0  0999 V2000
   -7.9460   20.4540  -32.4140 C   0  0  0  0  0  0  0  0  0  0  0  0
   -6.5660   21.0090  -32.4790 C   0  0  0  0  0  0  0  0  0  0  0  0
   -6.0350   21.9630  -31.6410 C   0  0  0  0  0  0  0  0  0  0  0  0
   -4.7490   22.1140  -32.1270 C   0  0  0  0  0  0  0  0  0  0  0  0
   -3.8290   22.9130  -31.6730 N   0  0  0  0  0  0  0  0  0  0  0  0
   -4.0290   23.9890  -30.3240 S   0  0  0  0  0  0  0  0  0  0  0  0
   -3.8870   25.4140  -30.7820 O   0  0  0  0  0  0  0  0  0  0  0  0
   -5.4150   23.8150  -29.7690 O   0  0  0  0  0  0  0  0  0  0  0  0
   -2.8640   23.5810  -29.0600 C   0  0  0  0  0  0  0  0  0  0  0  0
   -3.0130   22.3610  -28.3850 C   0  0  0  0  0  0  0  0  0  0  0  0
   -2.1260   21.9960  -27.3580 C   0  0  0  0  0  0  0  0  0  0  0  0
   -2.2640   20.7640  -26.6340 N   0  0  0  0  0  0  0  0  0  0  0  0
   -1.7820   19.4780  -27.0490 C   0  0  0  0  0  0  0  0  0  0  0  0
   -1.9680   18.4680  -26.3150 O   0  0  0  0  0  0  0  0  0  0  0  0
   -1.0150   19.3420  -28.3100 C   0  0  0  0  0  0  0  0  0  0  0  0
    0.1350   18.5300  -28.3600 C   0  0  0  0  0  0  0  0  0  0  0  0
    0.8630   18.4070  -29.5460 C   0  0  0  0  0  0  0  0  0  0  0  0
    0.4550   19.0850  -30.7010 C   0  0  0  0  0  0  0  0  0  0  0  0
    1.4060   18.9520  -32.1750 S   0  0  0  0  0  0  0  0  0  0  0  0
    1.7260   17.5100  -32.4510 O   0  0  0  0  0  0  0  0  0  0  0  0
    2.6960   19.7020  -31.9960 O   0  0  0  0  0  0  0  0  0  0  0  0
    0.5040   19.6430  -33.5000 N   0  0  0  0  0  0  0  0  0  0  0  0
    0.2700   21.0720  -33.2920 C   0  0  0  0  0  0  0  0  0  0  0  0
   -1.0010   21.4150  -34.0520 C   0  0  0  0  0  0  0  0  0  0  0  0
   -1.7450   20.0980  -34.2020 C   0  0  0  0  0  0  0  0  0  0  0  0
   -0.8230   19.0360  -33.6160 C   0  0  0  0  0  0  0  0  0  0  0  0
   -0.6860   19.8980  -30.6590 C   0  0  0  0  0  0  0  0  0  0  0  0
   -1.4170   20.0250  -29.4730 C   0  0  0  0  0  0  0  0  0  0  0  0
   -1.0500   22.8350  -27.0540 C   0  0  0  0  0  0  0  0  0  0  0  0
   -0.8900   24.0500  -27.7250 C   0  0  0  0  0  0  0  0  0  0  0  0
   -1.7970   24.4340  -28.7180 C   0  0  0  0  0  0  0  0  0  0  0  0
   -1.6230   25.6590  -29.3510 O   0  0  0  0  0  0  0  0  0  0  0  0
   -4.5450   21.2990  -33.1780 N   0  0  0  0  0  0  0  0  0  0  0  0
   -5.6570   20.6500  -33.3600 O   0  0  0  0  0  0  0  0  0  0  0  0
   -8.2439   20.3342  -31.3619 H   0  0  0  0  0  0  0  0  0  0  0  0
   -8.6420   21.1421  -32.9160 H   0  0  0  0  0  0  0  0  0  0  0  0
   -7.9717   19.4756  -32.9160 H   0  0  0  0  0  0  0  0  0  0  0  0
   -6.5143   22.4774  -30.7950 H   0  0  0  0  0  0  0  0  0  0  0  0
   -3.8331   21.6823  -28.6624 H   0  0  0  0  0  0  0  0  0  0  0  0
    0.4619   17.9894  -27.4595 H   0  0  0  0  0  0  0  0  0  0  0  0
    1.7620   17.7737  -29.5725 H   0  0  0  0  0  0  0  0  0  0  0  0
    0.1412   21.2842  -32.2204 H   0  0  0  0  0  0  0  0  0  0  0  0
    1.1211   21.6710  -33.6483 H   0  0  0  0  0  0  0  0  0  0  0  0
   -1.6064   22.1373  -33.4847 H   0  0  0  0  0  0  0  0  0  0  0  0
   -0.7846   21.8776  -35.0263 H   0  0  0  0  0  0  0  0  0  0  0  0
   -2.6952   20.1289  -33.6487 H   0  0  0  0  0  0  0  0  0  0  0  0
   -1.9910   19.8875  -35.2533 H   0  0  0  0  0  0  0  0  0  0  0  0
   -1.1851   18.7257  -32.6247 H   0  0  0  0  0  0  0  0  0  0  0  0
   -0.7930   18.1428  -34.2574 H   0  0  0  0  0  0  0  0  0  0  0  0
   -1.0078   20.4380  -31.5617 H   0  0  0  0  0  0  0  0  0  0  0  0
   -2.3125   20.6633  -29.4493 H   0  0  0  0  0  0  0  0  0  0  0  0
   -0.3252   22.5369  -26.2821 H   0  0  0  0  0  0  0  0  0  0  0  0
   -0.0461   24.7082  -27.4709 H   0  0  0  0  0  0  0  0  0  0  0  0
  1  2  1  0
  2  3  2  0
  3  4  1  0
  4  5  2  3
  5  6  1  0
  6  7  2  0
  6  8  2  0
  6  9  1  0
  9 10  2  0
 10 11  1  0
 11 12  1  0
 12 13  1  0
 13 14  2  0
 13 15  1  0
 15 16  2  0
 16 17  1  0
 17 18  2  0
 18 19  1  0
 19 20  2  0
 19 21  2  0
 19 22  1  0
 22 23  1  0
 23 24  1  0
 24 25  1  0
 25 26  1  0
 18 27  1  0
 27 28  2  0
 11 29  2  0
 29 30  1  0
 30 31  2  0
 31 32  1  0
  4 33  1  0
 33 34  1  0
 34  2  1  0
 31  9  1  0
 28 15  1  0
 26 22  1  0
  1 35  1  0
  1 36  1  0
  1 37  1  0
  3 38  1  0
 10 39  1  0
 16 40  1  0
 17 41  1  0
 23 42  1  0
 23 43  1  0
 24 44  1  0
 24 45  1  0
 25 46  1  0
 25 47  1  0
 26 48  1  0
 26 49  1  0
 27 50  1  0
 28 51  1  0
 29 52  1  0
 30 53  1  0
M  CHG  3  12  -1  32  -1  33  -1
M  END
>  <UniqueID>  (7) 
7

>  <SMILES>  (7) 
Cc1cc(=NS(=O)(=O)c2cc([N-]C(=O)c3ccc(S(=O)(=O)N4CCCC4)cc3)ccc2[O-])[n-]o1

>  <Energy>  (7) 
96.24595915111252

>  <Genealogy>  (7) 
Cc1cc(=NS(=O)(=O)c2cc([N-]C(=O)c3ccc(S(=O)(=O)N4CCCC4)cc3)ccc2[O-])[n-]o1 (protonated)
Cc1cc(=NS(=O)(=O)c2cc([N-]C(=O)c3ccc(S(=O)(=O)N4CCCC4)cc3)ccc2[O-])[n-]o1 (3D coordinates assigned)
Cc1cc(=NS(=O)(=O)c2cc([N-]C(=O)c3ccc(S(=O)(=O)N4CCCC4)cc3)ccc2[O-])[n-]o1 (nonaromatic ring conformer: 96.24595915111252 kcal/mol)

>  <smiles>  (7) 
Cc1cc(=NS(=O)(=O)c2cc(NC(=O)c3ccc(S(=O)(=O)N4CCCC4)cc3)ccc2O)[nH]o1

>  <score_type>  (7) 
oracle

>  <origin>  (7) 
adgpu

>  <m_score__min__energy>  (7) 
-14.57

>  <m_primary>  (7) 
energy

$$$$
7:0
     RDKit          3D

 53 56  0  0  0  0  0  0  0  0999 V2000
   -2.4610   21.2710  -30.2100 O   0  0  0  0  0  0  0  0  0  0  0  0
   -2.9690   21.5470  -31.3280 C   0  0  0  0  0  0  0  0  0  0  0  0
   -3.3460   22.9050  -31.5930 N   0  0  0  0  0  0  0  0  0  0  0  0
   -4.5750   23.5370  -31.2020 C   0  0  0  0  0  0  0  0  0  0  0  0
   -5.7800   23.2670  -31.8770 C   0  0  0  0  0  0  0  0  0  0  0  0
   -6.9620   23.9000  -31.4900 C   0  0  0  0  0  0  0  0  0  0  0  0
   -6.9540   24.8100  -30.4340 C   0  0  0  0  0  0  0  0  0  0  0  0
   -5.7600   25.1050  -29.7710 C   0  0  0  0  0  0  0  0  0  0  0  0
   -4.5570   24.4890  -30.1670 C   0  0  0  0  0  0  0  0  0  0  0  0
   -3.3210   24.7520  -29.4860 N   0  0  0  0  0  0  0  0  0  0  0  0
   -3.0060   24.4340  -28.1250 C   0  0  0  0  0  0  0  0  0  0  0  0
   -3.5670   23.4510  -27.5670 O   0  0  0  0  0  0  0  0  0  0  0  0
   -2.0770   25.2920  -27.3430 C   0  0  0  0  0  0  0  0  0  0  0  0
   -2.0250   25.1580  -25.9400 C   0  0  0  0  0  0  0  0  0  0  0  0
   -1.1710   25.9570  -25.1780 C   0  0  0  0  0  0  0  0  0  0  0  0
   -0.3510   26.8980  -25.8000 C   0  0  0  0  0  0  0  0  0  0  0  0
   -0.3810   27.0410  -27.1870 C   0  0  0  0  0  0  0  0  0  0  0  0
   -1.2350   26.2470  -27.9620 C   0  0  0  0  0  0  0  0  0  0  0  0
   -1.2260   26.4190  -29.3420 O   0  0  0  0  0  0  0  0  0  0  0  0
   -3.2120   20.4600  -32.3060 C   0  0  0  0  0  0  0  0  0  0  0  0
   -2.2670   20.1630  -33.3030 C   0  0  0  0  0  0  0  0  0  0  0  0
   -2.5070   19.1390  -34.2210 C   0  0  0  0  0  0  0  0  0  0  0  0
   -3.6970   18.4110  -34.1640 C   0  0  0  0  0  0  0  0  0  0  0  0
   -4.6620   18.7110  -33.1940 C   0  0  0  0  0  0  0  0  0  0  0  0
   -6.1690   17.7900  -33.1240 S   0  0  0  0  0  0  0  0  0  0  0  0
   -6.3290   17.0140  -34.4010 O   0  0  0  0  0  0  0  0  0  0  0  0
   -6.0890   16.8070  -31.9900 O   0  0  0  0  0  0  0  0  0  0  0  0
   -7.5730   18.8060  -32.8990 N   0  0  0  0  0  0  0  0  0  0  0  0
   -8.1060   18.7140  -31.5410 C   0  0  0  0  0  0  0  0  0  0  0  0
   -8.8640   20.0060  -31.2950 C   0  0  0  0  0  0  0  0  0  0  0  0
   -8.2830   21.0060  -32.2850 C   0  0  0  0  0  0  0  0  0  0  0  0
   -7.2720   20.2210  -33.1090 C   0  0  0  0  0  0  0  0  0  0  0  0
   -4.4140   19.7310  -32.2640 C   0  0  0  0  0  0  0  0  0  0  0  0
   -5.7902   22.5533  -32.7140 H   0  0  0  0  0  0  0  0  0  0  0  0
   -7.9012   23.6806  -32.0189 H   0  0  0  0  0  0  0  0  0  0  0  0
   -7.8897   25.2969  -30.1220 H   0  0  0  0  0  0  0  0  0  0  0  0
   -5.7596   25.8214  -28.9362 H   0  0  0  0  0  0  0  0  0  0  0  0
   -2.6647   24.4154  -25.4406 H   0  0  0  0  0  0  0  0  0  0  0  0
   -1.1447   25.8441  -24.0841 H   0  0  0  0  0  0  0  0  0  0  0  0
    0.3195   27.5275  -25.1966 H   0  0  0  0  0  0  0  0  0  0  0  0
    0.2698   27.7816  -27.6747 H   0  0  0  0  0  0  0  0  0  0  0  0
   -1.3327   20.7408  -33.3603 H   0  0  0  0  0  0  0  0  0  0  0  0
   -1.7569   18.9052  -34.9909 H   0  0  0  0  0  0  0  0  0  0  0  0
   -3.8774   17.5988  -34.8835 H   0  0  0  0  0  0  0  0  0  0  0  0
   -8.7838   17.8519  -31.4550 H   0  0  0  0  0  0  0  0  0  0  0  0
   -7.3019   18.5744  -30.8035 H   0  0  0  0  0  0  0  0  0  0  0  0
   -9.9392   19.8629  -31.4778 H   0  0  0  0  0  0  0  0  0  0  0  0
   -8.7615   20.3506  -30.2554 H   0  0  0  0  0  0  0  0  0  0  0  0
   -9.0750   21.4110  -32.9321 H   0  0  0  0  0  0  0  0  0  0  0  0
   -7.8174   21.8621  -31.7749 H   0  0  0  0  0  0  0  0  0  0  0  0
   -7.3703   20.4762  -34.1745 H   0  0  0  0  0  0  0  0  0  0  0  0
   -6.2418   20.4576  -32.8044 H   0  0  0  0  0  0  0  0  0  0  0  0
   -5.1659   19.9628  -31.4953 H   0  0  0  0  0  0  0  0  0  0  0  0
  1  2  2  0
  2  3  1  0
  3  4  1  0
  4  5  2  0
  5  6  1  0
  6  7  2  0
  7  8  1  0
  8  9  2  0
  9 10  1  0
 10 11  1  0
 11 12  2  0
 11 13  1  0
 13 14  2  0
 14 15  1  0
 15 16  2  0
 16 17  1  0
 17 18  2  0
 18 19  1  0
  2 20  1  0
 20 21  2  0
 21 22  1  0
 22 23  2  0
 23 24  1  0
 24 25  1  0
 25 26  2  0
 25 27  2  0
 25 28  1  0
 28 29  1  0
 29 30  1  0
 30 31  1  0
 31 32  1  0
 24 33  2  0
  9  4  1  0
 18 13  1  0
 33 20  1  0
 32 28  1  0
  5 34  1  0
  6 35  1  0
  7 36  1  0
  8 37  1  0
 14 38  1  0
 15 39  1  0
 16 40  1  0
 17 41  1  0
 21 42  1  0
 22 43  1  0
 23 44  1  0
 29 45  1  0
 29 46  1  0
 30 47  1  0
 30 48  1  0
 31 49  1  0
 31 50  1  0
 32 51  1  0
 32 52  1  0
 33 53  1  0
M  CHG  3   3  -1  10  -1  19  -1
M  END
>  <UniqueID>  (8) 
8

>  <SMILES>  (8) 
O=C([N-]c1ccccc1[N-]C(=O)c1ccccc1[O-])c1cccc(S(=O)(=O)N2CCCC2)c1

>  <Energy>  (8) 
71.20201680690835

>  <Genealogy>  (8) 
O=C([N-]c1ccccc1[N-]C(=O)c1ccccc1[O-])c1cccc(S(=O)(=O)N2CCCC2)c1 (protonated)
O=C([N-]c1ccccc1[N-]C(=O)c1ccccc1[O-])c1cccc(S(=O)(=O)N2CCCC2)c1 (3D coordinates assigned)
O=C([N-]c1ccccc1[N-]C(=O)c1ccccc1[O-])c1cccc(S(=O)(=O)N2CCCC2)c1 (nonaromatic ring conformer: 71.20201680690835 kcal/mol)

>  <smiles>  (8) 
O=C(Nc1ccccc1NC(=O)c1ccccc1O)c1cccc(S(=O)(=O)N2CCCC2)c1

>  <score_type>  (8) 
oracle

>  <origin>  (8) 
adgpu

>  <m_score__min__energy>  (8) 
-14.970000000000001

>  <m_primary>  (8) 
energy

$$$$
8:0
     RDKit          3D

 35 38  0  0  0  0  0  0  0  0999 V2000
   -5.7330   25.0650  -28.9630 O   0  0  0  0  0  0  0  0  0  0  0  0
   -5.2290   24.9180  -30.3720 S   0  0  0  0  0  0  0  0  0  0  0  0
   -5.7180   26.0790  -31.1920 O   0  0  0  0  0  0  0  0  0  0  0  0
   -3.4940   24.9280  -30.3550 N   0  0  0  0  0  0  0  0  0  0  0  0
   -2.6760   24.4050  -29.2990 C   0  0  0  0  0  0  0  0  0  0  0  0
   -3.1630   23.4320  -28.3810 C   0  0  0  0  0  0  0  0  0  0  0  0
   -2.3310   22.9300  -27.3630 C   0  0  0  0  0  0  0  0  0  0  0  0
   -1.0310   23.4220  -27.2910 C   0  0  0  0  0  0  0  0  0  0  0  0
   -0.0660   23.1020  -26.4220 N   0  0  0  0  0  0  0  0  0  0  0  0
    0.9840   23.8700  -26.8020 C   0  0  0  0  0  0  0  0  0  0  0  0
    0.7190   24.6590  -27.8760 N   0  0  0  0  0  0  0  0  0  0  0  0
   -0.5590   24.3550  -28.1620 C   0  0  0  0  0  0  0  0  0  0  0  0
   -1.3520   24.8740  -29.1820 C   0  0  0  0  0  0  0  0  0  0  0  0
   -5.8190   23.4240  -31.0910 C   0  0  0  0  0  0  0  0  0  0  0  0
   -4.9450   22.5880  -31.8000 C   0  0  0  0  0  0  0  0  0  0  0  0
   -5.4120   21.4090  -32.3840 C   0  0  0  0  0  0  0  0  0  0  0  0
   -6.7630   21.0510  -32.2670 C   0  0  0  0  0  0  0  0  0  0  0  0
   -7.2460   19.8720  -32.8550 C   0  0  0  0  0  0  0  0  0  0  0  0
   -8.5950   19.5270  -32.7280 C   0  0  0  0  0  0  0  0  0  0  0  0
   -9.4690   20.3530  -32.0180 C   0  0  0  0  0  0  0  0  0  0  0  0
   -9.0020   21.5310  -31.4290 C   0  0  0  0  0  0  0  0  0  0  0  0
   -7.6490   21.8890  -31.5470 C   0  0  0  0  0  0  0  0  0  0  0  0
   -7.1680   23.0690  -30.9610 C   0  0  0  0  0  0  0  0  0  0  0  0
   -4.1979   23.0696  -28.4681 H   0  0  0  0  0  0  0  0  0  0  0  0
   -2.6950   22.1758  -26.6498 H   0  0  0  0  0  0  0  0  0  0  0  0
   -0.1090   22.4210  -25.6320 H   0  0  0  0  0  0  0  0  0  0  0  0
    1.9575   23.8560  -26.2900 H   0  0  0  0  0  0  0  0  0  0  0  0
   -0.9562   25.6290  -29.8772 H   0  0  0  0  0  0  0  0  0  0  0  0
   -3.8843   22.8628  -31.8968 H   0  0  0  0  0  0  0  0  0  0  0  0
   -4.7184   20.7590  -32.9375 H   0  0  0  0  0  0  0  0  0  0  0  0
   -6.5624   19.2183  -33.4166 H   0  0  0  0  0  0  0  0  0  0  0  0
   -8.9694   18.6012  -33.1892 H   0  0  0  0  0  0  0  0  0  0  0  0
  -10.5290   20.0753  -31.9220 H   0  0  0  0  0  0  0  0  0  0  0  0
   -9.6950   22.1788  -30.8722 H   0  0  0  0  0  0  0  0  0  0  0  0
   -7.8531   23.7187  -30.3967 H   0  0  0  0  0  0  0  0  0  0  0  0
  1  2  2  0
  2  3  2  0
  2  4  1  0
  4  5  1  0
  5  6  2  0
  6  7  1  0
  7  8  2  0
  8  9  1  0
  9 10  1  0
 10 11  2  0
 11 12  1  0
 12 13  2  0
  2 14  1  0
 14 15  2  0
 15 16  1  0
 16 17  2  0
 17 18  1  0
 18 19  2  0
 19 20  1  0
 20 21  2  0
 21 22  1  0
 22 23  2  0
 13  5  1  0
 23 14  1  0
 12  8  1  0
 22 17  1  0
  6 24  1  0
  7 25  1  0
  9 26  1  0
 10 27  1  0
 13 28  1  0
 15 29  1  0
 16 30  1  0
 18 31  1  0
 19 32  1  0
 20 33  1  0
 21 34  1  0
 23 35  1  0
M  CHG  1   4  -1
M  END
>  <UniqueID>  (9) 
9

>  <SMILES>  (9) 
O=S(=O)([N-]c1ccc2[nH]cnc2c1)c1ccc2ccccc2c1

>  <Energy>  (9) 
81.89144675792002

>  <Genealogy>  (9) 
O=S(=O)([N-]c1ccc2[nH]cnc2c1)c1ccc2ccccc2c1 (protonated)
O=S(=O)([N-]c1ccc2[nH]cnc2c1)c1ccc2ccccc2c1 (3D coordinates assigned)
O=S(=O)([N-]c1ccc2[nH]cnc2c1)c1ccc2ccccc2c1 (optimized conformer: 81.89144675792002 kcal/mol)

>  <smiles>  (9) 
O=S(=O)(Nc1ccc2[nH]cnc2c1)c1ccc2ccccc2c1

>  <score_type>  (9) 
oracle

>  <origin>  (9) 
adgpu

>  <m_score__min__energy>  (9) 
-10.539999999999999

>  <m_primary>  (9) 
energy

$$$$
9:0
     RDKit          3D

 45 47  0  0  0  0  0  0  0  0999 V2000
   -9.7720   20.8150  -31.9860 C   0  0  0  0  0  0  0  0  0  0  0  0
   -8.2980   20.7840  -32.3720 C   0  0  0  0  0  0  0  0  0  0  0  0
   -7.9470   19.5120  -32.9140 O   0  0  0  0  0  0  0  0  0  0  0  0
   -7.8390   18.3490  -32.1420 C   0  0  0  0  0  0  0  0  0  0  0  0
   -7.9390   18.3980  -30.8870 O   0  0  0  0  0  0  0  0  0  0  0  0
   -7.6130   17.0870  -32.7740 N   0  0  0  0  0  0  0  0  0  0  0  0
   -6.3520   16.7270  -33.4150 C   0  0  0  0  0  0  0  0  0  0  0  0
   -5.2330   17.6830  -33.0050 C   0  0  0  0  0  0  0  0  0  0  0  0
   -4.7490   18.7480  -34.4050 S   0  0  0  0  0  0  0  0  0  0  0  0
   -4.5220   20.1900  -33.3710 C   0  0  0  0  0  0  0  0  0  0  0  0
   -5.5180   21.0610  -33.0840 N   0  0  0  0  0  0  0  0  0  0  0  0
   -5.0700   22.0510  -32.2720 C   0  0  0  0  0  0  0  0  0  0  0  0
   -5.8580   23.1030  -31.8040 C   0  0  0  0  0  0  0  0  0  0  0  0
   -5.2700   24.0640  -30.9640 C   0  0  0  0  0  0  0  0  0  0  0  0
   -3.9140   23.9640  -30.5870 C   0  0  0  0  0  0  0  0  0  0  0  0
   -3.3610   24.9690  -29.7250 N   0  0  0  0  0  0  0  0  0  0  0  0
   -2.1160   24.8890  -29.0160 C   0  0  0  0  0  0  0  0  0  0  0  0
   -1.3820   25.9090  -28.9690 O   0  0  0  0  0  0  0  0  0  0  0  0
   -1.6860   23.6570  -28.3120 C   0  0  0  0  0  0  0  0  0  0  0  0
   -2.6510   22.7030  -27.9450 C   0  0  0  0  0  0  0  0  0  0  0  0
   -2.2770   21.5440  -27.2610 C   0  0  0  0  0  0  0  0  0  0  0  0
   -0.9370   21.3200  -26.9440 C   0  0  0  0  0  0  0  0  0  0  0  0
    0.0360   22.2490  -27.3210 C   0  0  0  0  0  0  0  0  0  0  0  0
   -0.3280   23.4120  -28.0150 C   0  0  0  0  0  0  0  0  0  0  0  0
    0.6590   24.3090  -28.4240 O   0  0  0  0  0  0  0  0  0  0  0  0
   -3.1250   22.9070  -31.0930 C   0  0  0  0  0  0  0  0  0  0  0  0
   -3.7330   21.9680  -31.9200 C   0  0  0  0  0  0  0  0  0  0  0  0
   -3.0550   20.6120  -32.6400 S   0  0  0  0  0  0  0  0  0  0  0  0
   -9.8640   20.8169  -30.8899 H   0  0  0  0  0  0  0  0  0  0  0  0
  -10.2391   21.7232  -32.3948 H   0  0  0  0  0  0  0  0  0  0  0  0
  -10.2768   19.9273  -32.3948 H   0  0  0  0  0  0  0  0  0  0  0  0
   -8.1049   21.5631  -33.1242 H   0  0  0  0  0  0  0  0  0  0  0  0
   -7.6921   20.9651  -31.4720 H   0  0  0  0  0  0  0  0  0  0  0  0
   -6.0773   15.7041  -33.1179 H   0  0  0  0  0  0  0  0  0  0  0  0
   -6.4839   16.7911  -34.5052 H   0  0  0  0  0  0  0  0  0  0  0  0
   -5.5835   18.3145  -32.1753 H   0  0  0  0  0  0  0  0  0  0  0  0
   -4.3598   17.0917  -32.6922 H   0  0  0  0  0  0  0  0  0  0  0  0
   -6.9183   23.1787  -32.0869 H   0  0  0  0  0  0  0  0  0  0  0  0
   -5.8750   24.9055  -30.5954 H   0  0  0  0  0  0  0  0  0  0  0  0
   -3.7083   22.8704  -28.1983 H   0  0  0  0  0  0  0  0  0  0  0  0
   -3.0403   20.8066  -26.9718 H   0  0  0  0  0  0  0  0  0  0  0  0
   -0.6463   20.4112  -26.3968 H   0  0  0  0  0  0  0  0  0  0  0  0
    1.0921   22.0674  -27.0724 H   0  0  0  0  0  0  0  0  0  0  0  0
    0.4520   25.2860  -28.5950 H   0  0  0  0  0  0  0  0  0  0  0  0
   -2.0575   22.8285  -30.8396 H   0  0  0  0  0  0  0  0  0  0  0  0
  1  2  1  0
  2  3  1  0
  3  4  1  0
  4  5  2  0
  4  6  1  0
  6  7  1  0
  7  8  1  0
  8  9  1  0
  9 10  1  0
 10 11  2  0
 11 12  1  0
 12 13  2  0
 13 14  1  0
 14 15  2  0
 15 16  1  0
 16 17  1  0
 17 18  2  0
 17 19  1  0
 19 20  2  0
 20 21  1  0
 21 22  2  0
 22 23  1  0
 23 24  2  0
 24 25  1  0
 15 26  1  0
 26 27  2  0
 27 28  1  0
 28 10  1  0
 27 12  1  0
 24 19  1  0
  1 29  1  0
  1 30  1  0
  1 31  1  0
  2 32  1  0
  2 33  1  0
  7 34  1  0
  7 35  1  0
  8 36  1  0
  8 37  1  0
 13 38  1  0
 14 39  1  0
 20 40  1  0
 21 41  1  0
 22 42  1  0
 23 43  1  0
 25 44  1  0
 26 45  1  0
M  CHG  2   6  -1  16  -1
M  END
>  <UniqueID>  (10) 
10

>  <SMILES>  (10) 
CCOC(=O)[N-]CCSc1nc2ccc([N-]C(=O)c3ccccc3O)cc2s1

>  <Energy>  (10) 
76.89596228042308

>  <Genealogy>  (10) 
CCOC(=O)[N-]CCSc1nc2ccc([N-]C(=O)c3ccccc3O)cc2s1 (protonated)
CCOC(=O)[N-]CCSc1nc2ccc([N-]C(=O)c3ccccc3O)cc2s1 (3D coordinates assigned)
CCOC(=O)[N-]CCSc1nc2ccc([N-]C(=O)c3ccccc3O)cc2s1 (optimized conformer: 76.89596228042308 kcal/mol)

>  <smiles>  (10) 
CCOC(=O)NCCSc1nc2ccc(NC(=O)c3ccccc3O)cc2s1

>  <score_type>  (10) 
oracle

>  <origin>  (10) 
adgpu

>  <m_score__min__energy>  (10) 
-9.75

>  <m_primary>  (10) 
energy

$$$$
10:0
     RDKit          3D

 62 64  0  0  0  0  0  0  0  0999 V2000
   -8.8420   21.8520  -31.7020 Br  0  0  0  0  0  0  0  0  0  0  0  0
   -8.0170   20.2100  -32.2320 C   0  0  0  0  0  0  0  0  0  0  0  0
   -8.4210   19.0070  -31.6450 C   0  0  0  0  0  0  0  0  0  0  0  0
   -7.8160   17.8040  -32.0230 C   0  0  0  0  0  0  0  0  0  0  0  0
   -6.7890   17.7960  -32.9840 C   0  0  0  0  0  0  0  0  0  0  0  0
   -6.1520   16.5220  -33.3900 C   0  0  0  0  0  0  0  0  0  0  0  0
   -6.8520   15.5790  -34.1540 C   0  0  0  0  0  0  0  0  0  0  0  0
   -6.2550   14.3630  -34.4770 C   0  0  0  0  0  0  0  0  0  0  0  0
   -4.9670   14.0850  -34.0170 C   0  0  0  0  0  0  0  0  0  0  0  0
   -4.2840   15.0050  -33.2710 N   0  0  0  0  0  0  0  0  0  0  0  0
   -2.9740   14.6630  -32.7020 C   0  0  0  0  0  0  0  0  0  0  0  0
   -2.0230   15.8570  -32.8380 C   0  0  0  0  0  0  0  0  0  0  0  0
   -1.6020   16.0870  -34.2950 C   0  0  0  0  0  0  0  0  0  0  0  0
   -2.2590   17.3520  -34.8880 C   0  0  0  0  0  0  0  0  0  0  0  0
   -2.7950   18.3280  -33.8210 C   0  0  0  0  0  0  0  0  0  0  0  0
   -2.6610   19.8180  -34.1770 C   0  0  0  0  0  0  0  0  0  0  0  0
   -1.6090   20.5460  -33.3250 C   0  0  0  0  0  0  0  0  0  0  0  0
   -2.2850   21.4580  -32.2880 C   0  0  0  0  0  0  0  0  0  0  0  0
   -3.8050   21.5930  -32.5130 C   0  0  0  0  0  0  0  0  0  0  0  0
   -4.6330   21.4800  -31.2230 C   0  0  0  0  0  0  0  0  0  0  0  0
   -5.0230   22.7980  -30.7050 N   0  0  0  0  0  0  0  0  0  0  0  0
   -4.6390   23.1730  -29.4470 C   0  0  0  0  0  0  0  0  0  0  0  0
   -4.9950   24.4250  -28.9390 C   0  0  0  0  0  0  0  0  0  0  0  0
   -5.7400   25.2970  -29.7320 C   0  0  0  0  0  0  0  0  0  0  0  0
   -6.1190   24.9120  -31.0160 C   0  0  0  0  0  0  0  0  0  0  0  0
   -5.7520   23.6500  -31.4890 C   0  0  0  0  0  0  0  0  0  0  0  0
   -4.8500   16.2120  -32.9690 C   0  0  0  0  0  0  0  0  0  0  0  0
   -6.3910   19.0100  -33.5720 C   0  0  0  0  0  0  0  0  0  0  0  0
   -7.0060   20.2100  -33.1990 C   0  0  0  0  0  0  0  0  0  0  0  0
   -9.2159   19.0067  -30.8847 H   0  0  0  0  0  0  0  0  0  0  0  0
   -8.1451   16.8590  -31.5662 H   0  0  0  0  0  0  0  0  0  0  0  0
   -7.8731   15.7991  -34.4987 H   0  0  0  0  0  0  0  0  0  0  0  0
   -6.7949   13.6267  -35.0905 H   0  0  0  0  0  0  0  0  0  0  0  0
   -4.4981   13.1191  -34.2563 H   0  0  0  0  0  0  0  0  0  0  0  0
   -3.0925   14.4095  -31.6382 H   0  0  0  0  0  0  0  0  0  0  0  0
   -2.5560   13.8014  -33.2432 H   0  0  0  0  0  0  0  0  0  0  0  0
   -2.5300   16.7600  -32.4671 H   0  0  0  0  0  0  0  0  0  0  0  0
   -1.1182   15.6420  -32.2506 H   0  0  0  0  0  0  0  0  0  0  0  0
   -0.5087   16.2009  -34.3361 H   0  0  0  0  0  0  0  0  0  0  0  0
   -1.9315   15.2206  -34.8873 H   0  0  0  0  0  0  0  0  0  0  0  0
   -1.5102   17.8797  -35.4970 H   0  0  0  0  0  0  0  0  0  0  0  0
   -3.1224   17.0183  -35.4824 H   0  0  0  0  0  0  0  0  0  0  0  0
   -3.8615   18.1094  -33.6636 H   0  0  0  0  0  0  0  0  0  0  0  0
   -2.1795   18.1700  -32.9231 H   0  0  0  0  0  0  0  0  0  0  0  0
   -2.3736   19.9012  -35.2355 H   0  0  0  0  0  0  0  0  0  0  0  0
   -3.6328   20.2931  -33.9772 H   0  0  0  0  0  0  0  0  0  0  0  0
   -0.9900   19.8019  -32.8023 H   0  0  0  0  0  0  0  0  0  0  0  0
   -0.9851   21.1649  -33.9866 H   0  0  0  0  0  0  0  0  0  0  0  0
   -2.1138   21.0382  -31.2858 H   0  0  0  0  0  0  0  0  0  0  0  0
   -1.8442   22.4606  -32.3906 H   0  0  0  0  0  0  0  0  0  0  0  0
   -4.0029   22.5748  -32.9678 H   0  0  0  0  0  0  0  0  0  0  0  0
   -4.1088   20.7600  -33.1640 H   0  0  0  0  0  0  0  0  0  0  0  0
   -5.5420   20.8976  -31.4338 H   0  0  0  0  0  0  0  0  0  0  0  0
   -4.0122   20.9847  -30.4619 H   0  0  0  0  0  0  0  0  0  0  0  0
   -4.0448   22.4830  -28.8299 H   0  0  0  0  0  0  0  0  0  0  0  0
   -4.6907   24.7197  -27.9239 H   0  0  0  0  0  0  0  0  0  0  0  0
   -6.0275   26.2857  -29.3449 H   0  0  0  0  0  0  0  0  0  0  0  0
   -6.7017   25.5953  -31.6513 H   0  0  0  0  0  0  0  0  0  0  0  0
   -6.0517   23.3385  -32.5005 H   0  0  0  0  0  0  0  0  0  0  0  0
   -4.2772   16.9500  -32.3883 H   0  0  0  0  0  0  0  0  0  0  0  0
   -5.5925   19.0161  -34.3286 H   0  0  0  0  0  0  0  0  0  0  0  0
   -6.6940   21.1553  -33.6670 H   0  0  0  0  0  0  0  0  0  0  0  0
  1  2  1  0
  2  3  2  0
  3  4  1  0
  4  5  2  0
  5  6  1  0
  6  7  2  0
  7  8  1  0
  8  9  2  0
  9 10  1  0
 10 11  1  0
 11 12  1  0
 12 13  1  0
 13 14  1  0
 14 15  1  0
 15 16  1  0
 16 17  1  0
 17 18  1  0
 18 19  1  0
 19 20  1  0
 20 21  1  0
 21 22  2  0
 22 23  1  0
 23 24  2  0
 24 25  1  0
 25 26  2  0
 10 27  2  0
  5 28  1  0
 28 29  2  0
 29  2  1  0
 27  6  1  0
 26 21  1  0
  3 30  1  0
  4 31  1  0
  7 32  1  0
  8 33  1  0
  9 34  1  0
 11 35  1  0
 11 36  1  0
 12 37  1  0
 12 38  1  0
 13 39  1  0
 13 40  1  0
 14 41  1  0
 14 42  1  0
 15 43  1  0
 15 44  1  0
 16 45  1  0
 16 46  1  0
 17 47  1  0
 17 48  1  0
 18 49  1  0
 18 50  1  0
 19 51  1  0
 19 52  1  0
 20 53  1  0
 20 54  1  0
 22 55  1  0
 23 56  1  0
 24 57  1  0
 25 58  1  0
 26 59  1  0
 27 60  1  0
 28 61  1  0
 29 62  1  0
M  CHG  2  10   1  21   1
M  END
>  <UniqueID>  (11) 
11

>  <SMILES>  (11) 
Brc1ccc(-c2ccc[n+](CCCCCCCCCC[n+]3ccccc3)c2)cc1

>  <Energy>  (11) 
50.92023203179262

>  <Genealogy>  (11) 
Brc1ccc(-c2ccc[n+](CCCCCCCCCC[n+]3ccccc3)c2)cc1 (3D coordinates assigned)
Brc1ccc(-c2ccc[n+](CCCCCCCCCC[n+]3ccccc3)c2)cc1 (optimized conformer: 50.92023203179262 kcal/mol)

>  <smiles>  (11) 
Brc1ccc(-c2ccc[n+](CCCCCCCCCC[n+]3ccccc3)c2)cc1

>  <score_type>  (11) 
oracle

>  <origin>  (11) 
adgpu

>  <m_score__min__energy>  (11) 
-7.7199999999999998

>  <m_primary>  (11) 
energy

$$$$
11:0
     RDKit          3D

 65 68  0  0  0  0  0  0  0  0999 V2000
   -6.9919   24.9977  -31.5692 H   0  0  0  0  0  0  0  0  0  0  0  0
   -5.9870   24.6980  -31.2370 C   0  0  0  0  0  0  0  0  0  0  0  0
   -5.0850   25.6330  -30.8460 N   0  0  0  0  0  0  0  0  0  0  0  0
   -3.8640   25.2860  -30.4400 N   0  0  0  0  0  0  0  0  0  0  0  0
   -3.4870   23.9820  -30.4000 C   0  0  0  0  0  0  0  0  0  0  0  0
   -2.2800   23.6760  -30.0270 N   0  0  0  0  0  0  0  0  0  0  0  0
   -1.7920   22.3340  -29.9240 C   0  0  0  0  0  0  0  0  0  0  0  0
   -1.7150   21.5790  -28.7730 C   0  0  0  0  0  0  0  0  0  0  0  0
   -1.9970   22.0500  -27.3840 C   0  0  0  0  0  0  0  0  0  0  0  0
   -1.5708   21.3381  -26.6618 H   0  0  0  0  0  0  0  0  0  0  0  0
   -1.5434   23.0408  -27.2336 H   0  0  0  0  0  0  0  0  0  0  0  0
   -3.0845   22.1180  -27.2336 H   0  0  0  0  0  0  0  0  0  0  0  0
   -1.3250   20.3270  -29.0870 N   0  0  0  0  0  0  0  0  0  0  0  0
   -1.1750   20.2720  -30.4040 N   0  0  0  0  0  0  0  0  0  0  0  0
   -0.8290   19.0520  -31.1250 C   0  0  0  0  0  0  0  0  0  0  0  0
   -0.6022   18.2522  -30.4047 H   0  0  0  0  0  0  0  0  0  0  0  0
   -1.6760   18.7469  -31.7570 H   0  0  0  0  0  0  0  0  0  0  0  0
    0.0521   19.2370  -31.7570 H   0  0  0  0  0  0  0  0  0  0  0  0
   -1.4600   21.4740  -30.9530 C   0  0  0  0  0  0  0  0  0  0  0  0
   -1.6110   21.7350  -32.4210 C   0  0  0  0  0  0  0  0  0  0  0  0
   -2.1567   22.6782  -32.5715 H   0  0  0  0  0  0  0  0  0  0  0  0
   -0.6162   21.8090  -32.8845 H   0  0  0  0  0  0  0  0  0  0  0  0
   -2.1710   20.9094  -32.8845 H   0  0  0  0  0  0  0  0  0  0  0  0
   -4.3680   23.0220  -30.7940 N   0  0  0  0  0  0  0  0  0  0  0  0
   -5.6210   23.3440  -31.2120 C   0  0  0  0  0  0  0  0  0  0  0  0
   -6.5680   22.2890  -31.6670 C   0  0  0  0  0  0  0  0  0  0  0  0
   -7.9170   22.3950  -31.2870 C   0  0  0  0  0  0  0  0  0  0  0  0
   -8.2427   23.2522  -30.6795 H   0  0  0  0  0  0  0  0  0  0  0  0
   -8.8480   21.4310  -31.6680 C   0  0  0  0  0  0  0  0  0  0  0  0
   -9.9042   21.5443  -31.3822 H   0  0  0  0  0  0  0  0  0  0  0  0
   -8.4440   20.3260  -32.4090 C   0  0  0  0  0  0  0  0  0  0  0  0
   -9.1826   19.5632  -32.6963 H   0  0  0  0  0  0  0  0  0  0  0  0
   -7.1060   20.1750  -32.7930 C   0  0  0  0  0  0  0  0  0  0  0  0
   -6.7350   18.9870  -33.5070 N   0  0  0  0  0  0  0  0  0  0  0  0
   -7.0740   18.8850  -34.4890 H   0  0  0  0  0  0  0  0  0  0  0  0
   -6.2040   17.8330  -32.8340 C   0  0  0  0  0  0  0  0  0  0  0  0
   -6.2890   17.7580  -31.5770 O   0  0  0  0  0  0  0  0  0  0  0  0
   -5.5400   16.7390  -33.5880 C   0  0  0  0  0  0  0  0  0  0  0  0
   -4.3520   16.9630  -34.3030 C   0  0  0  0  0  0  0  0  0  0  0  0
   -3.9167   17.9727  -34.3333 H   0  0  0  0  0  0  0  0  0  0  0  0
   -3.7180   15.9160  -34.9760 C   0  0  0  0  0  0  0  0  0  0  0  0
   -2.7987   16.1195  -35.5448 H   0  0  0  0  0  0  0  0  0  0  0  0
   -4.2330   14.6020  -34.9410 C   0  0  0  0  0  0  0  0  0  0  0  0
   -3.4960   13.4720  -35.6900 C   0  0  0  0  0  0  0  0  0  0  0  0
   -2.8020   14.0620  -36.9360 C   0  0  0  0  0  0  0  0  0  0  0  0
   -1.9993   14.7444  -36.6199 H   0  0  0  0  0  0  0  0  0  0  0  0
   -2.3743   13.2467  -37.5380 H   0  0  0  0  0  0  0  0  0  0  0  0
   -3.5378   14.6153  -37.5380 H   0  0  0  0  0  0  0  0  0  0  0  0
   -4.4450   12.3400  -36.1590 C   0  0  0  0  0  0  0  0  0  0  0  0
   -4.8711   11.8317  -35.2815 H   0  0  0  0  0  0  0  0  0  0  0  0
   -5.2570   12.7694  -36.7642 H   0  0  0  0  0  0  0  0  0  0  0  0
   -3.8804   11.6154  -36.7642 H   0  0  0  0  0  0  0  0  0  0  0  0
   -2.4340   12.8320  -34.7660 C   0  0  0  0  0  0  0  0  0  0  0  0
   -2.7130   13.0001  -33.7153 H   0  0  0  0  0  0  0  0  0  0  0  0
   -2.3804   11.7511  -34.9627 H   0  0  0  0  0  0  0  0  0  0  0  0
   -1.4532   13.2896  -34.9627 H   0  0  0  0  0  0  0  0  0  0  0  0
   -5.4360   14.3890  -34.2280 C   0  0  0  0  0  0  0  0  0  0  0  0
   -5.8771   13.3818  -34.1974 H   0  0  0  0  0  0  0  0  0  0  0  0
   -6.0720   15.4400  -33.5620 C   0  0  0  0  0  0  0  0  0  0  0  0
   -7.0032   15.2467  -33.0092 H   0  0  0  0  0  0  0  0  0  0  0  0
   -6.1560   21.1820  -32.4650 C   0  0  0  0  0  0  0  0  0  0  0  0
   -4.7430   21.1090  -32.9980 C   0  0  0  0  0  0  0  0  0  0  0  0
   -4.0352   21.0724  -32.1567 H   0  0  0  0  0  0  0  0  0  0  0  0
   -4.6292   20.2038  -33.6125 H   0  0  0  0  0  0  0  0  0  0  0  0
   -4.5365   21.9977  -33.6125 H   0  0  0  0  0  0  0  0  0  0  0  0
  1  2  1  0
  2  3  1  0
  3  4  2  0
  4  5  1  0
  5  6  2  0
  6  7  1  0
  7  8  1  0
  8  9  1  0
  9 10  1  0
  9 11  1  0
  9 12  1  0
  8 13  2  0
 13 14  1  0
 14 15  1  0
 15 16  1  0
 15 17  1  0
 15 18  1  0
 14 19  1  0
 19 20  1  0
 20 21  1  0
 20 22  1  0
 20 23  1  0
  5 24  1  0
 24 25  1  0
 25 26  1  0
 26 27  2  0
 27 28  1  0
 27 29  1  0
 29 30  1  0
 29 31  2  0
 31 32  1  0
 31 33  1  0
 33 34  1  0
 34 35  1  0
 34 36  1  0
 36 37  2  0
 36 38  1  0
 38 39  2  0
 39 40  1  0
 39 41  1  0
 41 42  1  0
 41 43  2  0
 43 44  1  0
 44 45  1  0
 45 46  1  0
 45 47  1  0
 45 48  1  0
 44 49  1  0
 49 50  1  0
 49 51  1  0
 49 52  1  0
 44 53  1  0
 53 54  1  0
 53 55  1  0
 53 56  1  0
 43 57  1  0
 57 58  1  0
 57 59  2  0
 59 60  1  0
 33 61  2  0
 61 62  1  0
 62 63  1  0
 62 64  1  0
 62 65  1  0
 25  2  2  0
 61 26  1  0
 19  7  2  0
 59 38  1  0
M  CHG  1  24  -1
M  END
>  <UniqueID>  (12) 
12

>  <SMILES>  (12) 
Cc1nn(C)c(C)c1/N=c1/nncc(-c2cccc(NC(=O)c3ccc(C(C)(C)C)cc3)c2C)[n-]1

>  <Energy>  (12) 
124.41473267869763

>  <Genealogy>  (12) 
Cc1nn(C)c(C)c1N=c1nncc(-c2cccc(NC(=O)c3ccc(C(C)(C)C)cc3)c2C)[n-]1 (protonated)
Cc1nn(C)c(C)c1/N=c1/nncc(-c2cccc(NC(=O)c3ccc(C(C)(C)C)cc3)c2C)[n-]1 (cis-trans isomerization)
Cc1nn(C)c(C)c1/N=c1/nncc(-c2cccc(NC(=O)c3ccc(C(C)(C)C)cc3)c2C)[n-]1 (3D coordinates assigned)
Cc1nn(C)c(C)c1/N=c1/nncc(-c2cccc(NC(=O)c3ccc(C(C)(C)C)cc3)c2C)[n-]1 (optimized conformer: 124.41473267869763 kcal/mol)

>  <smiles>  (12) 
Cc1nn(C)c(C)c1N=c1nncc(-c2cccc(NC(=O)c3ccc(C(C)(C)C)cc3)c2C)[nH]1

>  <score_type>  (12) 
oracle

>  <origin>  (12) 
adgpu

>  <m_score__min__energy>  (12) 
-11.9

>  <m_primary>  (12) 
energy

$$$$
12:0
     RDKit          3D

 44 47  0  0  0  0  0  0  0  0999 V2000
   -7.6140   25.6500  -29.4050 O   0  0  0  0  0  0  0  0  0  0  0  0
   -7.0170   24.8440  -30.1670 C   0  0  0  0  0  0  0  0  0  0  0  0
   -7.7920   24.0340  -31.0600 N   0  0  0  0  0  0  0  0  0  0  0  0
   -7.4330   22.7310  -31.5430 C   0  0  0  0  0  0  0  0  0  0  0  0
   -8.2500   21.6410  -31.2390 C   0  0  0  0  0  0  0  0  0  0  0  0
   -7.9180   20.3650  -31.6970 C   0  0  0  0  0  0  0  0  0  0  0  0
   -6.7430   20.1790  -32.4520 C   0  0  0  0  0  0  0  0  0  0  0  0
   -6.3620   18.8740  -32.9540 N   0  0  0  0  0  0  0  0  0  0  0  0
   -5.8190   18.7340  -34.3150 C   0  0  0  0  0  0  0  0  0  0  0  0
   -5.6400   17.2660  -34.6890 C   0  0  0  0  0  0  0  0  0  0  0  0
   -4.9300   16.5880  -33.6050 N   0  0  0  0  0  0  0  0  0  0  0  0
   -5.7360   16.5140  -32.3720 C   0  0  0  0  0  0  0  0  0  0  0  0
   -6.7540   17.6670  -32.2070 C   0  0  0  0  0  0  0  0  0  0  0  0
   -5.9510   21.2580  -32.7070 N   0  0  0  0  0  0  0  0  0  0  0  0
   -6.2560   22.5090  -32.2720 C   0  0  0  0  0  0  0  0  0  0  0  0
   -5.5430   24.8070  -30.1540 C   0  0  0  0  0  0  0  0  0  0  0  0
   -4.7390   24.2390  -29.1860 C   0  0  0  0  0  0  0  0  0  0  0  0
   -3.4520   24.4440  -29.6510 C   0  0  0  0  0  0  0  0  0  0  0  0
   -2.1910   24.0390  -28.9750 C   0  0  0  0  0  0  0  0  0  0  0  0
   -2.0550   22.7390  -28.4510 C   0  0  0  0  0  0  0  0  0  0  0  0
   -0.8770   22.3510  -27.8060 C   0  0  0  0  0  0  0  0  0  0  0  0
    0.1780   23.2530  -27.6710 C   0  0  0  0  0  0  0  0  0  0  0  0
    0.0590   24.5450  -28.1820 C   0  0  0  0  0  0  0  0  0  0  0  0
   -1.1150   24.9450  -28.8320 C   0  0  0  0  0  0  0  0  0  0  0  0
   -1.1910   26.2380  -29.3370 O   0  0  0  0  0  0  0  0  0  0  0  0
   -3.5070   25.0840  -30.8360 N   0  0  0  0  0  0  0  0  0  0  0  0
   -4.7770   25.3010  -31.1440 N   0  0  0  0  0  0  0  0  0  0  0  0
   -9.1585   21.7880  -30.6365 H   0  0  0  0  0  0  0  0  0  0  0  0
   -8.5703   19.5090  -31.4697 H   0  0  0  0  0  0  0  0  0  0  0  0
   -6.5123   19.2040  -35.0281 H   0  0  0  0  0  0  0  0  0  0  0  0
   -4.8352   19.2249  -34.3498 H   0  0  0  0  0  0  0  0  0  0  0  0
   -6.6250   16.7987  -34.8352 H   0  0  0  0  0  0  0  0  0  0  0  0
   -5.0634   17.1851  -35.6222 H   0  0  0  0  0  0  0  0  0  0  0  0
   -4.7100   15.6130  -33.9160 H   0  0  0  0  0  0  0  0  0  0  0  0
   -6.2899   15.5637  -32.3790 H   0  0  0  0  0  0  0  0  0  0  0  0
   -5.0321   16.5923  -31.5303 H   0  0  0  0  0  0  0  0  0  0  0  0
   -7.7342   17.3278  -32.5733 H   0  0  0  0  0  0  0  0  0  0  0  0
   -6.7914   17.9308  -31.1398 H   0  0  0  0  0  0  0  0  0  0  0  0
   -5.5791   23.3477  -32.4920 H   0  0  0  0  0  0  0  0  0  0  0  0
   -5.0503   23.7381  -28.2575 H   0  0  0  0  0  0  0  0  0  0  0  0
   -2.8834   22.0221  -28.5501 H   0  0  0  0  0  0  0  0  0  0  0  0
   -0.7820   21.3315  -27.4039 H   0  0  0  0  0  0  0  0  0  0  0  0
    1.1033   22.9455  -27.1618 H   0  0  0  0  0  0  0  0  0  0  0  0
    0.8927   25.2544  -28.0738 H   0  0  0  0  0  0  0  0  0  0  0  0
  1  2  2  0
  2  3  1  0
  3  4  1  0
  4  5  2  0
  5  6  1  0
  6  7  2  0
  7  8  1  0
  8  9  1  0
  9 10  1  0
 10 11  1  0
 11 12  1  0
 12 13  1  0
  7 14  1  0
 14 15  2  0
  2 16  1  0
 16 17  1  0
 17 18  2  0
 18 19  1  0
 19 20  2  0
 20 21  1  0
 21 22  2  0
 22 23  1  0
 23 24  2  0
 24 25  1  0
 18 26  1  0
 26 27  1  0
 15  4  1  0
 27 16  2  0
 13  8  1  0
 24 19  1  0
  5 28  1  0
  6 29  1  0
  9 30  1  0
  9 31  1  0
 10 32  1  0
 10 33  1  0
 11 34  1  0
 12 35  1  0
 12 36  1  0
 13 37  1  0
 13 38  1  0
 15 39  1  0
 17 40  1  0
 20 41  1  0
 21 42  1  0
 22 43  1  0
 23 44  1  0
M  CHG  3   3  -1  25  -1  26  -1
M  END
>  <UniqueID>  (13) 
13

>  <SMILES>  (13) 
O=C([N-]c1ccc(N2CCNCC2)nc1)c1cc(-c2ccccc2[O-])[n-]n1

>  <Energy>  (13) 
91.45129433021462

>  <Genealogy>  (13) 
O=C([N-]c1ccc(N2CCNCC2)nc1)c1cc(-c2ccccc2[O-])[n-]n1 (protonated)
O=C([N-]c1ccc(N2CCNCC2)nc1)c1cc(-c2ccccc2[O-])[n-]n1 (3D coordinates assigned)
O=C([N-]c1ccc(N2CCNCC2)nc1)c1cc(-c2ccccc2[O-])[n-]n1 (nonaromatic ring conformer: 91.45129433021462 kcal/mol)

>  <smiles>  (13) 
O=C(Nc1ccc(N2CCNCC2)nc1)c1cc(-c2ccccc2O)[nH]n1

>  <score_type>  (13) 
oracle

>  <origin>  (13) 
adgpu

>  <m_score__min__energy>  (13) 
-13.74

>  <m_primary>  (13) 
energy

$$$$
13:0
     RDKit          3D

 52 55  0  0  0  0  0  0  0  0999 V2000
   -6.3330   19.9770  -32.4900 C   0  0  0  0  0  0  0  0  0  0  0  0
   -4.9170   20.1510  -32.9530 C   0  0  0  0  0  0  0  0  0  0  0  0
   -4.2720   21.3910  -32.8240 C   0  0  0  0  0  0  0  0  0  0  0  0
   -2.9390   21.5380  -33.2230 C   0  0  0  0  0  0  0  0  0  0  0  0
   -2.2340   20.4420  -33.7390 C   0  0  0  0  0  0  0  0  0  0  0  0
   -0.5620   20.6160  -34.2670 S   0  0  0  0  0  0  0  0  0  0  0  0
   -0.0300   21.9360  -33.7870 O   0  0  0  0  0  0  0  0  0  0  0  0
   -0.4860   20.6020  -35.7690 O   0  0  0  0  0  0  0  0  0  0  0  0
    0.3640   19.2750  -33.6370 N   0  0  0  0  0  0  0  0  0  0  0  0
    0.7520   18.2180  -34.5720 C   0  0  0  0  0  0  0  0  0  0  0  0
   -0.1000   16.9770  -34.3100 C   0  0  0  0  0  0  0  0  0  0  0  0
    0.0940   16.4790  -32.8720 C   0  0  0  0  0  0  0  0  0  0  0  0
    0.0790   17.5950  -31.8520 C   0  0  0  0  0  0  0  0  0  0  0  0
   -0.0680   17.2760  -30.4940 C   0  0  0  0  0  0  0  0  0  0  0  0
    0.0100   18.2750  -29.5160 C   0  0  0  0  0  0  0  0  0  0  0  0
   -0.1470   17.9510  -28.1690 O   0  0  0  0  0  0  0  0  0  0  0  0
    0.2720   19.5980  -29.8940 C   0  0  0  0  0  0  0  0  0  0  0  0
    0.3540   20.6330  -28.9150 N   0  0  0  0  0  0  0  0  0  0  0  0
   -1.0250   21.0600  -27.9610 S   0  0  0  0  0  0  0  0  0  0  0  0
   -1.9310   19.8700  -27.8180 O   0  0  0  0  0  0  0  0  0  0  0  0
   -0.5700   21.4910  -26.5950 O   0  0  0  0  0  0  0  0  0  0  0  0
   -1.8720   22.4010  -28.7270 C   0  0  0  0  0  0  0  0  0  0  0  0
   -2.9910   22.1720  -29.5410 C   0  0  0  0  0  0  0  0  0  0  0  0
   -3.6560   23.2460  -30.1400 C   0  0  0  0  0  0  0  0  0  0  0  0
   -3.2040   24.5540  -29.9350 C   0  0  0  0  0  0  0  0  0  0  0  0
   -3.8730   25.6190  -30.5280 O   0  0  0  0  0  0  0  0  0  0  0  0
   -2.0760   24.7860  -29.1380 C   0  0  0  0  0  0  0  0  0  0  0  0
   -1.6140   26.0820  -28.9430 O   0  0  0  0  0  0  0  0  0  0  0  0
   -1.4120   23.7120  -28.5370 C   0  0  0  0  0  0  0  0  0  0  0  0
    0.4500   19.9180  -31.2420 C   0  0  0  0  0  0  0  0  0  0  0  0
    0.3090   18.9360  -32.2360 C   0  0  0  0  0  0  0  0  0  0  0  0
   -2.8710   19.2000  -33.8500 C   0  0  0  0  0  0  0  0  0  0  0  0
   -4.2040   19.0540  -33.4590 C   0  0  0  0  0  0  0  0  0  0  0  0
   -6.3614   19.9735  -31.3904 H   0  0  0  0  0  0  0  0  0  0  0  0
   -6.9476   20.8064  -32.8700 H   0  0  0  0  0  0  0  0  0  0  0  0
   -6.7285   19.0235  -32.8700 H   0  0  0  0  0  0  0  0  0  0  0  0
   -4.8169   22.2510  -32.4074 H   0  0  0  0  0  0  0  0  0  0  0  0
   -2.4433   22.5157  -33.1315 H   0  0  0  0  0  0  0  0  0  0  0  0
    0.5918   18.5629  -35.6042 H   0  0  0  0  0  0  0  0  0  0  0  0
    1.8150   17.9726  -34.4315 H   0  0  0  0  0  0  0  0  0  0  0  0
   -1.1598   17.2273  -34.4654 H   0  0  0  0  0  0  0  0  0  0  0  0
    0.2105   16.1822  -35.0042 H   0  0  0  0  0  0  0  0  0  0  0  0
   -0.7165   15.7749  -32.6328 H   0  0  0  0  0  0  0  0  0  0  0  0
    1.0831   16.0003  -32.8207 H   0  0  0  0  0  0  0  0  0  0  0  0
   -0.2460   16.2325  -30.1949 H   0  0  0  0  0  0  0  0  0  0  0  0
   -0.1990   18.6670  -27.4540 H   0  0  0  0  0  0  0  0  0  0  0  0
   -3.3463   21.1445  -29.7086 H   0  0  0  0  0  0  0  0  0  0  0  0
   -4.5362   23.0623  -30.7736 H   0  0  0  0  0  0  0  0  0  0  0  0
   -0.5253   23.8963  -27.9127 H   0  0  0  0  0  0  0  0  0  0  0  0
    0.7032   20.9496  -31.5278 H   0  0  0  0  0  0  0  0  0  0  0  0
   -2.3191   18.3352  -34.2470 H   0  0  0  0  0  0  0  0  0  0  0  0
   -4.6968   18.0746  -33.5483 H   0  0  0  0  0  0  0  0  0  0  0  0
  1  2  1  0
  2  3  2  0
  3  4  1  0
  4  5  2  0
  5  6  1  0
  6  7  2  0
  6  8  2  0
  6  9  1  0
  9 10  1  0
 10 11  1  0
 11 12  1  0
 12 13  1  0
 13 14  2  0
 14 15  1  0
 15 16  1  0
 15 17  2  0
 17 18  1  0
 18 19  1  0
 19 20  2  0
 19 21  2  0
 19 22  1  0
 22 23  2  0
 23 24  1  0
 24 25  2  0
 25 26  1  0
 25 27  1  0
 27 28  1  0
 27 29  2  0
 17 30  1  0
 30 31  2  0
  5 32  1  0
 32 33  2  0
 33  2  1  0
 31  9  1  0
 31 13  1  0
 29 22  1  0
  1 34  1  0
  1 35  1  0
  1 36  1  0
  3 37  1  0
  4 38  1  0
 10 39  1  0
 10 40  1  0
 11 41  1  0
 11 42  1  0
 12 43  1  0
 12 44  1  0
 14 45  1  0
 16 46  1  0
 23 47  1  0
 24 48  1  0
 29 49  1  0
 30 50  1  0
 32 51  1  0
 33 52  1  0
M  CHG  3  18  -1  26  -1  28  -1
M  END
>  <UniqueID>  (14) 
14

>  <SMILES>  (14) 
Cc1ccc(S(=O)(=O)N2CCCc3cc(O)c([N-]S(=O)(=O)c4ccc([O-])c([O-])c4)cc32)cc1

>  <Energy>  (14) 
65.35374498431989

>  <Genealogy>  (14) 
Cc1ccc(S(=O)(=O)N2CCCc3cc(O)c([N-]S(=O)(=O)c4ccc([O-])c([O-])c4)cc32)cc1 (protonated)
Cc1ccc(S(=O)(=O)N2CCCc3cc(O)c([N-]S(=O)(=O)c4ccc([O-])c([O-])c4)cc32)cc1 (3D coordinates assigned)
Cc1ccc(S(=O)(=O)N2CCCc3cc(O)c([N-]S(=O)(=O)c4ccc([O-])c([O-])c4)cc32)cc1 (nonaromatic ring conformer: 65.35374498431989 kcal/mol)

>  <smiles>  (14) 
Cc1ccc(S(=O)(=O)N2CCCc3cc(O)c(NS(=O)(=O)c4ccc(O)c(O)c4)cc32)cc1

>  <score_type>  (14) 
oracle

>  <origin>  (14) 
adgpu

>  <m_score__min__energy>  (14) 
-14.460000000000001

>  <m_primary>  (14) 
energy

$$$$
14:0
     RDKit          3D

 42 44  0  0  0  0  0  0  0  0999 V2000
   -7.0350   13.4430  -34.5760 C   0  0  0  0  0  0  0  0  0  0  0  0
   -7.4010   14.8190  -34.5810 O   0  0  0  0  0  0  0  0  0  0  0  0
   -6.5930   15.8540  -34.0860 C   0  0  0  0  0  0  0  0  0  0  0  0
   -5.1890   15.8140  -34.1520 C   0  0  0  0  0  0  0  0  0  0  0  0
   -4.4290   16.8720  -33.6450 C   0  0  0  0  0  0  0  0  0  0  0  0
   -5.0540   17.9900  -33.0630 C   0  0  0  0  0  0  0  0  0  0  0  0
   -4.2690   19.0830  -32.5370 N   0  0  0  0  0  0  0  0  0  0  0  0
   -2.8810   19.2880  -32.9710 C   0  0  0  0  0  0  0  0  0  0  0  0
   -2.5260   20.7800  -32.9070 C   0  0  0  0  0  0  0  0  0  0  0  0
   -2.7670   21.3880  -31.5690 N   0  0  0  0  0  0  0  0  0  0  0  0
   -1.2600   21.6350  -30.7170 S   0  0  0  0  0  0  0  0  0  0  0  0
   -0.1090   21.5430  -31.6800 O   0  0  0  0  0  0  0  0  0  0  0  0
   -1.0880   20.5680  -29.6710 O   0  0  0  0  0  0  0  0  0  0  0  0
   -1.2780   23.2090  -29.9110 C   0  0  0  0  0  0  0  0  0  0  0  0
   -0.1780   23.5970  -29.1410 C   0  0  0  0  0  0  0  0  0  0  0  0
   -0.1770   24.7970  -28.5050 N   0  0  0  0  0  0  0  0  0  0  0  0
   -1.2380   25.6380  -28.6010 C   0  0  0  0  0  0  0  0  0  0  0  0
   -1.2190   26.7460  -28.0060 O   0  0  0  0  0  0  0  0  0  0  0  0
   -2.3220   25.2830  -29.3380 N   0  0  0  0  0  0  0  0  0  0  0  0
   -2.3690   24.0920  -29.9910 C   0  0  0  0  0  0  0  0  0  0  0  0
   -3.3950   23.7960  -30.6580 O   0  0  0  0  0  0  0  0  0  0  0  0
   -3.7030   20.6280  -30.7070 C   0  0  0  0  0  0  0  0  0  0  0  0
   -4.8300   19.9780  -31.5160 C   0  0  0  0  0  0  0  0  0  0  0  0
   -6.4580   18.0220  -32.9990 C   0  0  0  0  0  0  0  0  0  0  0  0
   -7.2180   16.9640  -33.5060 C   0  0  0  0  0  0  0  0  0  0  0  0
   -6.9417   13.0922  -33.5376 H   0  0  0  0  0  0  0  0  0  0  0  0
   -7.8082   12.8560  -35.0933 H   0  0  0  0  0  0  0  0  0  0  0  0
   -6.0723   13.3178  -35.0933 H   0  0  0  0  0  0  0  0  0  0  0  0
   -4.6865   14.9464  -34.6046 H   0  0  0  0  0  0  0  0  0  0  0  0
   -3.3313   16.8300  -33.7017 H   0  0  0  0  0  0  0  0  0  0  0  0
   -2.2058   18.7242  -32.3106 H   0  0  0  0  0  0  0  0  0  0  0  0
   -2.7706   18.9346  -34.0068 H   0  0  0  0  0  0  0  0  0  0  0  0
   -1.4609   20.8961  -33.1561 H   0  0  0  0  0  0  0  0  0  0  0  0
   -3.1793   21.3004  -33.6228 H   0  0  0  0  0  0  0  0  0  0  0  0
   -3.1790   22.3400  -31.7200 H   0  0  0  0  0  0  0  0  0  0  0  0
    0.6903   22.9279  -29.0498 H   0  0  0  0  0  0  0  0  0  0  0  0
   -3.1425   19.8401  -30.1825 H   0  0  0  0  0  0  0  0  0  0  0  0
   -4.1585   21.3331  -29.9961 H   0  0  0  0  0  0  0  0  0  0  0  0
   -5.4755   19.3985  -30.8396 H   0  0  0  0  0  0  0  0  0  0  0  0
   -5.4170   20.7653  -32.0115 H   0  0  0  0  0  0  0  0  0  0  0  0
   -6.9632   18.8876  -32.5457 H   0  0  0  0  0  0  0  0  0  0  0  0
   -8.3158   17.0041  -33.4487 H   0  0  0  0  0  0  0  0  0  0  0  0
  1  2  1  0
  2  3  1  0
  3  4  2  0
  4  5  1  0
  5  6  2  0
  6  7  1  0
  7  8  1  0
  8  9  1  0
  9 10  1  0
 10 11  1  0
 11 12  2  0
 11 13  2  0
 11 14  1  0
 14 15  2  0
 15 16  1  0
 16 17  1  0
 17 18  2  0
 17 19  1  0
 19 20  1  0
 20 21  2  0
 10 22  1  0
 22 23  1  0
  6 24  1  0
 24 25  2  0
 25  3  1  0
 23  7  1  0
 20 14  1  0
  1 26  1  0
  1 27  1  0
  1 28  1  0
  4 29  1  0
  5 30  1  0
  8 31  1  0
  8 32  1  0
  9 33  1  0
  9 34  1  0
 10 35  1  0
 15 36  1  0
 22 37  1  0
 22 38  1  0
 23 39  1  0
 23 40  1  0
 24 41  1  0
 25 42  1  0
M  CHG  3  10   1  16  -1  19  -1
M  END
>  <UniqueID>  (15) 
15

>  <SMILES>  (15) 
COc1ccc(N2CC[NH+](S(=O)(=O)c3c[n-]c(=O)[n-]c3=O)CC2)cc1

>  <Energy>  (15) 
54.0932505748745

>  <Genealogy>  (15) 
COc1ccc(N2CC[NH+](S(=O)(=O)c3c[n-]c(=O)[n-]c3=O)CC2)cc1 (protonated)
COc1ccc(N2CC[NH+](S(=O)(=O)c3c[n-]c(=O)[n-]c3=O)CC2)cc1 (3D coordinates assigned)
COc1ccc(N2CC[NH+](S(=O)(=O)c3c[n-]c(=O)[n-]c3=O)CC2)cc1 (nonaromatic ring conformer: 54.0932505748745 kcal/mol)

>  <smiles>  (15) 
COc1ccc(N2CCN(S(=O)(=O)c3c[nH]c(=O)[nH]c3=O)CC2)cc1

>  <score_type>  (15) 
oracle

>  <origin>  (15) 
adgpu

>  <m_score__min__energy>  (15) 
-9.5299999999999994

>  <m_primary>  (15) 
energy

$$$$
15:0
     RDKit          3D

 47 50  0  0  0  0  0  0  0  0999 V2000
   -0.0010   21.9900  -34.9870 N   0  0  0  0  0  0  0  0  0  0  0  0
   -0.6510   21.2970  -33.5440 S   0  0  0  0  0  0  0  0  0  0  0  0
    0.2400   21.6500  -32.3850 O   0  0  0  0  0  0  0  0  0  0  0  0
   -2.0240   21.8550  -33.2860 O   0  0  0  0  0  0  0  0  0  0  0  0
   -0.7560   19.5430  -33.7270 C   0  0  0  0  0  0  0  0  0  0  0  0
   -0.2940   18.9380  -34.9090 C   0  0  0  0  0  0  0  0  0  0  0  0
   -0.3490   17.5510  -35.0590 C   0  0  0  0  0  0  0  0  0  0  0  0
   -0.8650   16.7560  -34.0350 C   0  0  0  0  0  0  0  0  0  0  0  0
   -1.3350   17.3460  -32.8570 C   0  0  0  0  0  0  0  0  0  0  0  0
   -1.2870   18.7440  -32.6910 C   0  0  0  0  0  0  0  0  0  0  0  0
   -1.7640   19.3710  -31.4900 N   0  0  0  0  0  0  0  0  0  0  0  0
   -0.7650   19.9500  -30.1960 S   0  0  0  0  0  0  0  0  0  0  0  0
   -1.0180   19.1170  -28.9700 O   0  0  0  0  0  0  0  0  0  0  0  0
    0.6780   19.8160  -30.5920 O   0  0  0  0  0  0  0  0  0  0  0  0
   -1.1500   21.6300  -29.8370 C   0  0  0  0  0  0  0  0  0  0  0  0
   -0.2170   22.4400  -29.1770 C   0  0  0  0  0  0  0  0  0  0  0  0
   -0.5070   23.7830  -28.9280 C   0  0  0  0  0  0  0  0  0  0  0  0
   -1.7310   24.3270  -29.3340 C   0  0  0  0  0  0  0  0  0  0  0  0
   -1.9910   25.6720  -29.0900 O   0  0  0  0  0  0  0  0  0  0  0  0
   -2.6770   23.5180  -29.9840 C   0  0  0  0  0  0  0  0  0  0  0  0
   -4.2280   24.1890  -30.4930 S   0  0  0  0  0  0  0  0  0  0  0  0
   -5.2140   24.0370  -29.3690 O   0  0  0  0  0  0  0  0  0  0  0  0
   -4.1020   25.6490  -30.8310 O   0  0  0  0  0  0  0  0  0  0  0  0
   -4.8170   23.3370  -31.8850 N   0  0  0  0  0  0  0  0  0  0  0  0
   -6.0290   22.5710  -31.9320 C   0  0  0  0  0  0  0  0  0  0  0  0
   -7.2590   23.2400  -31.7340 C   0  0  0  0  0  0  0  0  0  0  0  0
   -8.4740   22.5320  -31.7580 C   0  0  0  0  0  0  0  0  0  0  0  0
   -8.4210   21.1590  -31.9790 C   0  0  0  0  0  0  0  0  0  0  0  0
   -7.2470   20.5080  -32.1730 C   0  0  0  0  0  0  0  0  0  0  0  0
   -6.0220   21.1720  -32.1620 C   0  0  0  0  0  0  0  0  0  0  0  0
   -7.4940   19.1610  -32.3610 O   0  0  0  0  0  0  0  0  0  0  0  0
   -8.9120   18.9550  -32.2790 C   0  0  0  0  0  0  0  0  0  0  0  0
   -9.4660   20.2560  -32.0360 O   0  0  0  0  0  0  0  0  0  0  0  0
   -2.3820   22.1700  -30.2300 C   0  0  0  0  0  0  0  0  0  0  0  0
   -0.7400   22.6120  -35.3850 H   0  0  0  0  0  0  0  0  0  0  0  0
    0.1128   19.5605  -35.7196 H   0  0  0  0  0  0  0  0  0  0  0  0
    0.0151   17.0842  -35.9861 H   0  0  0  0  0  0  0  0  0  0  0  0
   -0.9023   15.6631  -34.1543 H   0  0  0  0  0  0  0  0  0  0  0  0
   -1.7447   16.7142  -32.0551 H   0  0  0  0  0  0  0  0  0  0  0  0
    0.7459   22.0173  -28.8543 H   0  0  0  0  0  0  0  0  0  0  0  0
    0.2293   24.4158  -28.4108 H   0  0  0  0  0  0  0  0  0  0  0  0
   -7.2656   24.3260  -31.5593 H   0  0  0  0  0  0  0  0  0  0  0  0
   -9.4345   23.0465  -31.6071 H   0  0  0  0  0  0  0  0  0  0  0  0
   -5.0800   20.6283  -32.3264 H   0  0  0  0  0  0  0  0  0  0  0  0
   -9.2972   18.5415  -33.2227 H   0  0  0  0  0  0  0  0  0  0  0  0
   -9.1791   18.2393  -31.4876 H   0  0  0  0  0  0  0  0  0  0  0  0
   -3.1223   21.5319  -30.7348 H   0  0  0  0  0  0  0  0  0  0  0  0
  1  2  1  0
  2  3  2  0
  2  4  2  0
  2  5  1  0
  5  6  2  0
  6  7  1  0
  7  8  2  0
  8  9  1  0
  9 10  2  0
 10 11  1  0
 11 12  1  0
 12 13  2  0
 12 14  2  0
 12 15  1  0
 15 16  2  0
 16 17  1  0
 17 18  2  0
 18 19  1  0
 18 20  1  0
 20 21  1  0
 21 22  2  0
 21 23  2  0
 21 24  1  0
 24 25  1  0
 25 26  2  0
 26 27  1  0
 27 28  2  0
 28 29  1  0
 29 30  2  0
 29 31  1  0
 31 32  1  0
 32 33  1  0
 20 34  2  0
 10  5  1  0
 34 15  1  0
 30 25  1  0
 33 28  1  0
  1 35  1  0
  6 36  1  0
  7 37  1  0
  8 38  1  0
  9 39  1  0
 16 40  1  0
 17 41  1  0
 26 42  1  0
 27 43  1  0
 30 44  1  0
 32 45  1  0
 32 46  1  0
 34 47  1  0
M  CHG  4   1  -1  11  -1  19  -1  24  -1
M  END
>  <UniqueID>  (16) 
16

>  <SMILES>  (16) 
[NH-]S(=O)(=O)c1ccccc1[N-]S(=O)(=O)c1ccc([O-])c(S(=O)(=O)[N-]c2ccc3c(c2)OCO3)c1

>  <Energy>  (16) 
86.0360436304958

>  <Genealogy>  (16) 
[NH-]S(=O)(=O)c1ccccc1[N-]S(=O)(=O)c1ccc([O-])c(S(=O)(=O)[N-]c2ccc3c(c2)OCO3)c1 (protonated)
[NH-]S(=O)(=O)c1ccccc1[N-]S(=O)(=O)c1ccc([O-])c(S(=O)(=O)[N-]c2ccc3c(c2)OCO3)c1 (3D coordinates assigned)
[NH-]S(=O)(=O)c1ccccc1[N-]S(=O)(=O)c1ccc([O-])c(S(=O)(=O)[N-]c2ccc3c(c2)OCO3)c1 (nonaromatic ring conformer: 86.0360436304958 kcal/mol)

>  <smiles>  (16) 
NS(=O)(=O)c1ccccc1NS(=O)(=O)c1ccc(O)c(S(=O)(=O)Nc2ccc3c(c2)OCO3)c1

>  <score_type>  (16) 
oracle

>  <origin>  (16) 
adgpu

>  <m_score__min__energy>  (16) 
-13.449999999999999

>  <m_primary>  (16) 
energy

$$$$
16:0
     RDKit          3D

 56 59  0  0  0  0  0  0  0  0999 V2000
   -1.9330   27.9930  -36.8670 C   0  0  0  0  0  0  0  0  0  0  0  0
   -0.7640   27.1160  -36.8910 N   0  0  0  0  0  0  0  0  0  0  0  0
   -0.3250   26.4070  -37.9480 C   0  0  0  0  0  0  0  0  0  0  0  0
    0.8410   25.7510  -37.6060 C   0  0  0  0  0  0  0  0  0  0  0  0
    1.5850   24.9290  -38.4400 O   0  0  0  0  0  0  0  0  0  0  0  0
    1.1330   26.0620  -36.2930 C   0  0  0  0  0  0  0  0  0  0  0  0
    2.3400   25.6430  -35.5020 C   0  0  0  0  0  0  0  0  0  0  0  0
    2.5900   24.1580  -35.6120 C   0  0  0  0  0  0  0  0  0  0  0  0
    3.9040   23.6660  -35.7450 C   0  0  0  0  0  0  0  0  0  0  0  0
    4.1420   22.2890  -35.8260 C   0  0  0  0  0  0  0  0  0  0  0  0
    3.0730   21.3910  -35.7820 C   0  0  0  0  0  0  0  0  0  0  0  0
    1.7570   21.8620  -35.6650 C   0  0  0  0  0  0  0  0  0  0  0  0
    0.6330   20.9090  -35.6700 C   0  0  0  0  0  0  0  0  0  0  0  0
    0.3350   20.3490  -36.7620 O   0  0  0  0  0  0  0  0  0  0  0  0
   -0.1440   20.6390  -34.4750 N   0  0  0  0  0  0  0  0  0  0  0  0
   -1.3970   19.8700  -34.6300 C   0  0  0  0  0  0  0  0  0  0  0  0
   -1.9280   19.3170  -33.3050 C   0  0  0  0  0  0  0  0  0  0  0  0
   -1.8250   20.3390  -32.2650 N   0  0  0  0  0  0  0  0  0  0  0  0
   -2.9820   21.0460  -31.7640 C   0  0  0  0  0  0  0  0  0  0  0  0
   -4.2430   20.4210  -31.7010 C   0  0  0  0  0  0  0  0  0  0  0  0
   -5.3620   21.1260  -31.2450 C   0  0  0  0  0  0  0  0  0  0  0  0
   -5.2400   22.4600  -30.8400 C   0  0  0  0  0  0  0  0  0  0  0  0
   -3.9880   23.1050  -30.8940 C   0  0  0  0  0  0  0  0  0  0  0  0
   -3.8530   24.5210  -30.4640 C   0  0  0  0  0  0  0  0  0  0  0  0
   -2.7740   24.9250  -29.6190 N   0  0  0  0  0  0  0  0  0  0  0  0
   -4.6930   25.3850  -30.8360 O   0  0  0  0  0  0  0  0  0  0  0  0
   -2.8660   22.3860  -31.3570 C   0  0  0  0  0  0  0  0  0  0  0  0
   -0.4780   20.8480  -32.0150 C   0  0  0  0  0  0  0  0  0  0  0  0
    0.0510   21.5030  -33.2900 C   0  0  0  0  0  0  0  0  0  0  0  0
    1.5180   23.2390  -35.5740 C   0  0  0  0  0  0  0  0  0  0  0  0
    0.1310   26.9270  -35.8930 C   0  0  0  0  0  0  0  0  0  0  0  0
    0.0570   27.5320  -34.6400 O   0  0  0  0  0  0  0  0  0  0  0  0
   -2.2126   28.2028  -35.8240 H   0  0  0  0  0  0  0  0  0  0  0  0
   -1.6941   28.9366  -37.3795 H   0  0  0  0  0  0  0  0  0  0  0  0
   -2.7721   27.4997  -37.3795 H   0  0  0  0  0  0  0  0  0  0  0  0
   -0.8179   26.3580  -38.9302 H   0  0  0  0  0  0  0  0  0  0  0  0
    3.2203   26.1821  -35.8820 H   0  0  0  0  0  0  0  0  0  0  0  0
    2.1579   25.8833  -34.4441 H   0  0  0  0  0  0  0  0  0  0  0  0
    4.7488   24.3693  -35.7854 H   0  0  0  0  0  0  0  0  0  0  0  0
    5.1714   21.9139  -35.9244 H   0  0  0  0  0  0  0  0  0  0  0  0
    3.2641   20.3093  -35.8394 H   0  0  0  0  0  0  0  0  0  0  0  0
   -2.1615   20.5300  -35.0658 H   0  0  0  0  0  0  0  0  0  0  0  0
   -1.1769   19.0105  -35.2803 H   0  0  0  0  0  0  0  0  0  0  0  0
   -2.9815   19.0252  -33.4271 H   0  0  0  0  0  0  0  0  0  0  0  0
   -1.3319   18.4400  -33.0126 H   0  0  0  0  0  0  0  0  0  0  0  0
   -4.3485   19.3713  -32.0125 H   0  0  0  0  0  0  0  0  0  0  0  0
   -6.3426   20.6293  -31.2046 H   0  0  0  0  0  0  0  0  0  0  0  0
   -6.1235   23.0066  -30.4786 H   0  0  0  0  0  0  0  0  0  0  0  0
   -1.8790   25.2860  -30.0220 H   0  0  0  0  0  0  0  0  0  0  0  0
   -1.8851   22.8820  -31.4001 H   0  0  0  0  0  0  0  0  0  0  0  0
   -0.5091   21.5909  -31.2043 H   0  0  0  0  0  0  0  0  0  0  0  0
    0.1835   20.0198  -31.7207 H   0  0  0  0  0  0  0  0  0  0  0  0
   -0.4819   22.4519  -33.4500 H   0  0  0  0  0  0  0  0  0  0  0  0
    1.1308   21.6714  -33.1644 H   0  0  0  0  0  0  0  0  0  0  0  0
    0.4867   23.6079  -35.4721 H   0  0  0  0  0  0  0  0  0  0  0  0
    0.8610   27.5880  -34.0290 H   0  0  0  0  0  0  0  0  0  0  0  0
  1  2  1  0
  2  3  1  0
  3  4  2  0
  4  5  1  0
  4  6  1  0
  6  7  1  0
  7  8  1  0
  8  9  2  0
  9 10  1  0
 10 11  2  0
 11 12  1  0
 12 13  1  0
 13 14  2  0
 13 15  1  0
 15 16  1  0
 16 17  1  0
 17 18  1  0
 18 19  1  0
 19 20  2  0
 20 21  1  0
 21 22  2  0
 22 23  1  0
 23 24  1  0
 24 25  1  0
 24 26  2  0
 23 27  2  0
 18 28  1  0
 28 29  1  0
 12 30  2  0
  6 31  2  0
 31 32  1  0
 31  2  1  0
 30  8  1  0
 29 15  1  0
 27 19  1  0
  1 33  1  0
  1 34  1  0
  1 35  1  0
  3 36  1  0
  7 37  1  0
  7 38  1  0
  9 39  1  0
 10 40  1  0
 11 41  1  0
 16 42  1  0
 16 43  1  0
 17 44  1  0
 17 45  1  0
 20 46  1  0
 21 47  1  0
 22 48  1  0
 25 49  1  0
 27 50  1  0
 28 51  1  0
 28 52  1  0
 29 53  1  0
 29 54  1  0
 30 55  1  0
 32 56  1  0
M  CHG  2   5  -1  25  -1
M  END
>  <UniqueID>  (17) 
17

>  <SMILES>  (17) 
Cn1cc([O-])c(Cc2cccc(C(=O)N3CCN(c4cccc(C([NH-])=O)c4)CC3)c2)c1O

>  <Energy>  (17) 
99.22092607480069

>  <Genealogy>  (17) 
Cn1cc([O-])c(Cc2cccc(C(=O)N3CCN(c4cccc(C([NH-])=O)c4)CC3)c2)c1O (protonated)
Cn1cc([O-])c(Cc2cccc(C(=O)N3CCN(c4cccc(C([NH-])=O)c4)CC3)c2)c1O (3D coordinates assigned)
Cn1cc([O-])c(Cc2cccc(C(=O)N3CCN(c4cccc(C([NH-])=O)c4)CC3)c2)c1O (nonaromatic ring conformer: 99.22092607480069 kcal/mol)

>  <smiles>  (17) 
Cn1cc(O)c(Cc2cccc(C(=O)N3CCN(c4cccc(C(N)=O)c4)CC3)c2)c1O

>  <score_type>  (17) 
oracle

>  <origin>  (17) 
adgpu

>  <m_score__min__energy>  (17) 
-12.41

>  <m_primary>  (17) 
energy

$$$$
17:0
     RDKit          3D

 44 47  0  0  0  0  0  0  0  0999 V2000
   -3.8600   22.2480  -33.8650 O   0  0  0  0  0  0  0  0  0  0  0  0
   -4.4730   22.2730  -32.4920 S   0  0  0  0  0  0  0  0  0  0  0  0
   -5.2640   23.5420  -32.3450 O   0  0  0  0  0  0  0  0  0  0  0  0
   -5.5550   20.9020  -32.2640 C   0  0  0  0  0  0  0  0  0  0  0  0
   -6.9190   21.0280  -32.5670 C   0  0  0  0  0  0  0  0  0  0  0  0
   -7.7830   19.9470  -32.3760 C   0  0  0  0  0  0  0  0  0  0  0  0
   -7.2900   18.7330  -31.8880 C   0  0  0  0  0  0  0  0  0  0  0  0
   -5.9290   18.5990  -31.5940 C   0  0  0  0  0  0  0  0  0  0  0  0
   -5.0630   19.6800  -31.7840 C   0  0  0  0  0  0  0  0  0  0  0  0
   -3.1850   22.2560  -31.2950 C   0  0  0  0  0  0  0  0  0  0  0  0
   -3.2030   23.0350  -30.1970 N   0  0  0  0  0  0  0  0  0  0  0  0
   -2.0060   22.8000  -29.6150 C   0  0  0  0  0  0  0  0  0  0  0  0
   -1.5680   23.4440  -28.3550 C   0  0  0  0  0  0  0  0  0  0  0  0
   -1.2950   22.6520  -27.2240 C   0  0  0  0  0  0  0  0  0  0  0  0
   -0.8800   23.2410  -26.0270 C   0  0  0  0  0  0  0  0  0  0  0  0
   -0.7330   24.6270  -25.9420 C   0  0  0  0  0  0  0  0  0  0  0  0
   -0.9990   25.4260  -27.0550 C   0  0  0  0  0  0  0  0  0  0  0  0
   -1.4150   24.8450  -28.2590 C   0  0  0  0  0  0  0  0  0  0  0  0
   -1.6730   25.6710  -29.3480 O   0  0  0  0  0  0  0  0  0  0  0  0
   -1.2750   21.9440  -30.2960 O   0  0  0  0  0  0  0  0  0  0  0  0
   -1.9770   21.5830  -31.3400 C   0  0  0  0  0  0  0  0  0  0  0  0
   -1.5100   20.6470  -32.3270 N   0  0  0  0  0  0  0  0  0  0  0  0
   -1.8180   19.2200  -32.1730 C   0  0  0  0  0  0  0  0  0  0  0  0
   -2.4690   18.6530  -33.4570 C   0  0  0  0  0  0  0  0  0  0  0  0
   -2.3840   19.5180  -34.5790 O   0  0  0  0  0  0  0  0  0  0  0  0
   -1.0870   20.0670  -34.6780 C   0  0  0  0  0  0  0  0  0  0  0  0
   -0.8910   21.1090  -33.5740 C   0  0  0  0  0  0  0  0  0  0  0  0
   -7.3091   21.9802  -32.9559 H   0  0  0  0  0  0  0  0  0  0  0  0
   -8.8528   20.0510  -32.6099 H   0  0  0  0  0  0  0  0  0  0  0  0
   -7.9721   17.8836  -31.7353 H   0  0  0  0  0  0  0  0  0  0  0  0
   -5.5401   17.6431  -31.2133 H   0  0  0  0  0  0  0  0  0  0  0  0
   -3.9923   19.5715  -31.5562 H   0  0  0  0  0  0  0  0  0  0  0  0
   -1.4094   21.5596  -27.2830 H   0  0  0  0  0  0  0  0  0  0  0  0
   -0.6687   22.6117  -25.1499 H   0  0  0  0  0  0  0  0  0  0  0  0
   -0.4077   25.0889  -24.9982 H   0  0  0  0  0  0  0  0  0  0  0  0
   -0.8812   26.5175  -26.9859 H   0  0  0  0  0  0  0  0  0  0  0  0
   -0.8871   18.6708  -31.9687 H   0  0  0  0  0  0  0  0  0  0  0  0
   -2.5254   19.1016  -31.3390 H   0  0  0  0  0  0  0  0  0  0  0  0
   -1.9670   17.7076  -33.7106 H   0  0  0  0  0  0  0  0  0  0  0  0
   -3.5389   18.5200  -33.2387 H   0  0  0  0  0  0  0  0  0  0  0  0
   -0.3402   19.2673  -34.5648 H   0  0  0  0  0  0  0  0  0  0  0  0
   -0.9642   20.5452  -35.6610 H   0  0  0  0  0  0  0  0  0  0  0  0
    0.1852   21.2660  -33.4092 H   0  0  0  0  0  0  0  0  0  0  0  0
   -1.3648   22.0526  -33.8823 H   0  0  0  0  0  0  0  0  0  0  0  0
  1  2  2  0
  2  3  2  0
  2  4  1  0
  4  5  2  0
  5  6  1  0
  6  7  2  0
  7  8  1  0
  8  9  2  0
  2 10  1  0
 10 11  1  0
 11 12  2  0
 12 13  1  0
 13 14  2  0
 14 15  1  0
 15 16  2  0
 16 17  1  0
 17 18  2  0
 18 19  1  0
 12 20  1  0
 20 21  1  0
 21 22  1  0
 22 23  1  0
 23 24  1  0
 24 25  1  0
 25 26  1  0
 26 27  1  0
  9  4  1  0
 21 10  2  0
 27 22  1  0
 18 13  1  0
  5 28  1  0
  6 29  1  0
  7 30  1  0
  8 31  1  0
  9 32  1  0
 14 33  1  0
 15 34  1  0
 16 35  1  0
 17 36  1  0
 23 37  1  0
 23 38  1  0
 24 39  1  0
 24 40  1  0
 26 41  1  0
 26 42  1  0
 27 43  1  0
 27 44  1  0
M  CHG  1  19  -1
M  END
>  <UniqueID>  (18) 
18

>  <SMILES>  (18) 
O=S(=O)(c1ccccc1)c1nc(-c2ccccc2[O-])oc1N1CCOCC1

>  <Energy>  (18) 
91.00251372861239

>  <Genealogy>  (18) 
O=S(=O)(c1ccccc1)c1nc(-c2ccccc2[O-])oc1N1CCOCC1 (protonated)
O=S(=O)(c1ccccc1)c1nc(-c2ccccc2[O-])oc1N1CCOCC1 (3D coordinates assigned)
O=S(=O)(c1ccccc1)c1nc(-c2ccccc2[O-])oc1N1CCOCC1 (nonaromatic ring conformer: 91.00251372861239 kcal/mol)

>  <smiles>  (18) 
O=S(=O)(c1ccccc1)c1nc(-c2ccccc2O)oc1N1CCOCC1

>  <score_type>  (18) 
oracle

>  <origin>  (18) 
adgpu

>  <m_score__min__energy>  (18) 
-11.18

>  <m_primary>  (18) 
energy

$$$$
18:0
     RDKit          3D

 50 53  0  0  0  0  0  0  0  0999 V2000
   -4.6160   13.3140  -31.4270 C   0  0  0  0  0  0  0  0  0  0  0  0
   -4.4870   13.9830  -32.7860 C   0  0  0  0  0  0  0  0  0  0  0  0
   -5.7280   13.9030  -33.4770 O   0  0  0  0  0  0  0  0  0  0  0  0
   -6.3740   15.0270  -34.0010 C   0  0  0  0  0  0  0  0  0  0  0  0
   -7.2540   14.9030  -34.8950 O   0  0  0  0  0  0  0  0  0  0  0  0
   -6.0230   16.3640  -33.5020 C   0  0  0  0  0  0  0  0  0  0  0  0
   -6.8330   17.2530  -32.8010 C   0  0  0  0  0  0  0  0  0  0  0  0
   -6.1410   18.3850  -32.5250 N   0  0  0  0  0  0  0  0  0  0  0  0
   -4.9260   18.2280  -33.0290 N   0  0  0  0  0  0  0  0  0  0  0  0
   -3.9000   19.1200  -32.9970 C   0  0  0  0  0  0  0  0  0  0  0  0
   -4.0780   20.4230  -32.3280 C   0  0  0  0  0  0  0  0  0  0  0  0
   -3.7480   20.5630  -30.9720 C   0  0  0  0  0  0  0  0  0  0  0  0
   -3.8820   21.8010  -30.3400 C   0  0  0  0  0  0  0  0  0  0  0  0
   -4.3660   22.9080  -31.0510 C   0  0  0  0  0  0  0  0  0  0  0  0
   -4.5040   24.4690  -30.2480 S   0  0  0  0  0  0  0  0  0  0  0  0
   -2.9640   24.9340  -29.6180 N   0  0  0  0  0  0  0  0  0  0  0  0
   -4.9750   25.5100  -31.2240 O   0  0  0  0  0  0  0  0  0  0  0  0
   -5.5010   24.3720  -29.1280 O   0  0  0  0  0  0  0  0  0  0  0  0
   -4.7160   22.7640  -32.4000 C   0  0  0  0  0  0  0  0  0  0  0  0
   -4.5810   21.5260  -33.0330 C   0  0  0  0  0  0  0  0  0  0  0  0
   -2.6760   18.7310  -33.6050 C   0  0  0  0  0  0  0  0  0  0  0  0
   -1.2280   19.7540  -33.5850 S   0  0  0  0  0  0  0  0  0  0  0  0
   -1.5000   20.9970  -34.3850 O   0  0  0  0  0  0  0  0  0  0  0  0
   -0.0720   19.0250  -34.2100 O   0  0  0  0  0  0  0  0  0  0  0  0
   -0.7740   20.1680  -31.9330 C   0  0  0  0  0  0  0  0  0  0  0  0
   -0.7580   21.5060  -31.5080 C   0  0  0  0  0  0  0  0  0  0  0  0
   -0.4400   21.8180  -30.1840 C   0  0  0  0  0  0  0  0  0  0  0  0
   -0.1320   20.7990  -29.2790 C   0  0  0  0  0  0  0  0  0  0  0  0
   -0.1350   19.4650  -29.7000 C   0  0  0  0  0  0  0  0  0  0  0  0
   -0.4520   19.1500  -31.0250 C   0  0  0  0  0  0  0  0  0  0  0  0
   -2.6120   17.4620  -34.2260 C   0  0  0  0  0  0  0  0  0  0  0  0
   -3.6900   16.6280  -34.2260 N   0  0  0  0  0  0  0  0  0  0  0  0
   -4.8290   17.0330  -33.6190 C   0  0  0  0  0  0  0  0  0  0  0  0
   -4.4716   14.0630  -30.6344 H   0  0  0  0  0  0  0  0  0  0  0  0
   -5.6168   12.8675  -31.3316 H   0  0  0  0  0  0  0  0  0  0  0  0
   -3.8530   12.5274  -31.3316 H   0  0  0  0  0  0  0  0  0  0  0  0
   -4.2114   15.0391  -32.6495 H   0  0  0  0  0  0  0  0  0  0  0  0
   -3.7089   13.4723  -33.3722 H   0  0  0  0  0  0  0  0  0  0  0  0
   -7.8781   17.0648  -32.5141 H   0  0  0  0  0  0  0  0  0  0  0  0
   -3.3824   19.6946  -30.4044 H   0  0  0  0  0  0  0  0  0  0  0  0
   -3.6068   21.9080  -29.2804 H   0  0  0  0  0  0  0  0  0  0  0  0
   -2.4010   25.2900  -30.4220 H   0  0  0  0  0  0  0  0  0  0  0  0
   -5.0983   23.6285  -32.9625 H   0  0  0  0  0  0  0  0  0  0  0  0
   -4.8704   21.4159  -34.0885 H   0  0  0  0  0  0  0  0  0  0  0  0
   -0.9964   22.3105  -32.2193 H   0  0  0  0  0  0  0  0  0  0  0  0
   -0.4321   22.8672  -29.8535 H   0  0  0  0  0  0  0  0  0  0  0  0
    0.1129   21.0458  -28.2354 H   0  0  0  0  0  0  0  0  0  0  0  0
    0.1121   18.6634  -28.9884 H   0  0  0  0  0  0  0  0  0  0  0  0
   -0.4486   18.1008  -31.3555 H   0  0  0  0  0  0  0  0  0  0  0  0
   -1.6797   17.1438  -34.7156 H   0  0  0  0  0  0  0  0  0  0  0  0
  1  2  1  0
  2  3  1  0
  3  4  1  0
  4  5  2  0
  4  6  1  0
  6  7  1  0
  7  8  2  0
  8  9  1  0
  9 10  1  0
 10 11  1  0
 11 12  2  0
 12 13  1  0
 13 14  2  0
 14 15  1  0
 15 16  1  0
 15 17  2  0
 15 18  2  0
 14 19  1  0
 19 20  2  0
 10 21  2  0
 21 22  1  0
 22 23  2  0
 22 24  2  0
 22 25  1  0
 25 26  2  0
 26 27  1  0
 27 28  2  0
 28 29  1  0
 29 30  2  0
 21 31  1  0
 31 32  2  0
 32 33  1  0
 33  6  2  0
 33  9  1  0
 20 11  1  0
 30 25  1  0
  1 34  1  0
  1 35  1  0
  1 36  1  0
  2 37  1  0
  2 38  1  0
  7 39  1  0
 12 40  1  0
 13 41  1  0
 16 42  1  0
 19 43  1  0
 20 44  1  0
 26 45  1  0
 27 46  1  0
 28 47  1  0
 29 48  1  0
 30 49  1  0
 31 50  1  0
M  CHG  1  16  -1
M  END
>  <UniqueID>  (19) 
19

>  <SMILES>  (19) 
CCOC(=O)c1cnn2c(-c3ccc(S([NH-])(=O)=O)cc3)c(S(=O)(=O)c3ccccc3)cnc12

>  <Energy>  (19) 
92.0456427808115

>  <Genealogy>  (19) 
CCOC(=O)c1cnn2c(-c3ccc(S([NH-])(=O)=O)cc3)c(S(=O)(=O)c3ccccc3)cnc12 (protonated)
CCOC(=O)c1cnn2c(-c3ccc(S([NH-])(=O)=O)cc3)c(S(=O)(=O)c3ccccc3)cnc12 (3D coordinates assigned)
CCOC(=O)c1cnn2c(-c3ccc(S([NH-])(=O)=O)cc3)c(S(=O)(=O)c3ccccc3)cnc12 (optimized conformer: 92.0456427808115 kcal/mol)

>  <smiles>  (19) 
CCOC(=O)c1cnn2c(-c3ccc(S(N)(=O)=O)cc3)c(S(=O)(=O)c3ccccc3)cnc12

>  <score_type>  (19) 
oracle

>  <origin>  (19) 
adgpu

>  <m_score__min__energy>  (19) 
-10.130000000000001

>  <m_primary>  (19) 
energy

$$$$
19:0
     RDKit          3D

 38 40  0  0  0  0  0  0  0  0999 V2000
   -6.5404   16.1242  -35.3560 H   0  0  0  0  0  0  0  0  0  0  0  0
   -6.3310   16.8700  -34.5750 C   0  0  0  0  0  0  0  0  0  0  0  0
   -5.7360   18.0910  -34.9140 C   0  0  0  0  0  0  0  0  0  0  0  0
   -5.4816   18.3062  -35.9623 H   0  0  0  0  0  0  0  0  0  0  0  0
   -5.4650   19.0370  -33.9210 C   0  0  0  0  0  0  0  0  0  0  0  0
   -5.0008   19.9975  -34.1892 H   0  0  0  0  0  0  0  0  0  0  0  0
   -5.7840   18.7630  -32.5850 C   0  0  0  0  0  0  0  0  0  0  0  0
   -5.4220   19.9680  -31.3080 S   0  0  0  0  0  0  0  0  0  0  0  0
   -6.9460   20.8800  -31.6010 C   0  0  0  0  0  0  0  0  0  0  0  0
   -8.1490   20.1680  -31.6980 C   0  0  0  0  0  0  0  0  0  0  0  0
   -8.1493   19.0751  -31.5733 H   0  0  0  0  0  0  0  0  0  0  0  0
   -9.3470   20.8380  -31.9520 C   0  0  0  0  0  0  0  0  0  0  0  0
  -10.2871   20.2722  -32.0308 H   0  0  0  0  0  0  0  0  0  0  0  0
   -9.3530   22.2250  -32.1060 C   0  0  0  0  0  0  0  0  0  0  0  0
  -10.2979   22.7517  -32.3055 H   0  0  0  0  0  0  0  0  0  0  0  0
   -8.1600   22.9450  -32.0070 C   0  0  0  0  0  0  0  0  0  0  0  0
   -8.1720   24.0390  -32.1207 H   0  0  0  0  0  0  0  0  0  0  0  0
   -6.9430   22.2820  -31.7630 C   0  0  0  0  0  0  0  0  0  0  0  0
   -5.7230   23.0300  -31.6350 N   0  0  0  0  0  0  0  0  0  0  0  0
   -4.9640   22.8720  -32.3340 H   0  0  0  0  0  0  0  0  0  0  0  0
   -5.4860   23.9980  -30.5990 C   0  0  0  0  0  0  0  0  0  0  0  0
   -6.7150   24.9480  -30.0780 S   0  0  0  0  0  0  0  0  0  0  0  0
   -4.1480   24.4250  -30.3140 N   0  0  0  0  0  0  0  0  0  0  0  0
   -3.5970   24.5510  -29.1390 C   0  0  0  0  0  0  0  0  0  0  0  0
   -2.2360   24.8770  -29.0700 C   0  0  0  0  0  0  0  0  0  0  0  0
   -1.6549   25.0204  -29.9929 H   0  0  0  0  0  0  0  0  0  0  0  0
   -1.6210   25.0190  -27.8260 C   0  0  0  0  0  0  0  0  0  0  0  0
   -0.5510   25.2670  -27.7653 H   0  0  0  0  0  0  0  0  0  0  0  0
   -2.3650   24.8460  -26.6600 C   0  0  0  0  0  0  0  0  0  0  0  0
   -1.8862   24.9456  -25.6747 H   0  0  0  0  0  0  0  0  0  0  0  0
   -3.7240   24.5450  -26.7570 C   0  0  0  0  0  0  0  0  0  0  0  0
   -4.3222   24.4160  -25.8429 H   0  0  0  0  0  0  0  0  0  0  0  0
   -4.3140   24.4100  -27.9770 N   0  0  0  0  0  0  0  0  0  0  0  0
   -5.3420   24.2320  -27.9900 H   0  0  0  0  0  0  0  0  0  0  0  0
   -6.3900   17.5440  -32.2490 C   0  0  0  0  0  0  0  0  0  0  0  0
   -6.6538   17.3313  -31.2025 H   0  0  0  0  0  0  0  0  0  0  0  0
   -6.6590   16.5990  -33.2430 C   0  0  0  0  0  0  0  0  0  0  0  0
   -7.1293   15.6408  -32.9771 H   0  0  0  0  0  0  0  0  0  0  0  0
  1  2  1  0
  2  3  2  0
  3  4  1  0
  3  5  1  0
  5  6  1  0
  5  7  2  0
  7  8  1  0
  8  9  1  0
  9 10  2  0
 10 11  1  0
 10 12  1  0
 12 13  1  0
 12 14  2  0
 14 15  1  0
 14 16  1  0
 16 17  1  0
 16 18  2  0
 18 19  1  0
 19 20  1  0
 19 21  1  0
 21 22  2  0
 21 23  1  0
 23 24  2  0
 24 25  1  0
 25 26  1  0
 25 27  2  0
 27 28  1  0
 27 29  1  0
 29 30  1  0
 29 31  2  0
 31 32  1  0
 31 33  1  0
 33 34  1  0
  7 35  1  0
 35 36  1  0
 35 37  2  0
 37 38  1  0
 37  2  1  0
 18  9  1  0
 33 24  1  0
M  END
>  <UniqueID>  (20) 
20

>  <SMILES>  (20) 
S=C(/N=c1/cccc[nH]1)Nc1ccccc1Sc1ccccc1

>  <Energy>  (20) 
47.06816945828829

>  <Genealogy>  (20) 
S=C(/N=c1/cccc[nH]1)Nc1ccccc1Sc1ccccc1 (cis-trans isomerization)
S=C(/N=c1/cccc[nH]1)Nc1ccccc1Sc1ccccc1 (3D coordinates assigned)
S=C(/N=c1/cccc[nH]1)Nc1ccccc1Sc1ccccc1 (optimized conformer: 47.06816945828829 kcal/mol)

>  <smiles>  (20) 
S=C(N=c1cccc[nH]1)Nc1ccccc1Sc1ccccc1

>  <score_type>  (20) 
oracle

>  <origin>  (20) 
adgpu

>  <m_score__min__energy>  (20) 
-8.8699999999999992

>  <m_primary>  (20) 
energy

$$$$
20:0
     RDKit          3D

 60 63  0  0  0  0  0  0  0  0999 V2000
    2.2240   20.0620  -28.2440 C   0  0  0  0  0  0  0  0  0  0  0  0
    0.7910   19.7770  -27.8800 C   0  0  0  0  0  0  0  0  0  0  0  0
   -0.0660   20.8570  -27.6060 C   0  0  0  0  0  0  0  0  0  0  0  0
   -1.4110   20.6410  -27.2620 C   0  0  0  0  0  0  0  0  0  0  0  0
   -2.2790   21.7020  -26.9680 O   0  0  0  0  0  0  0  0  0  0  0  0
   -2.7000   22.6820  -27.8780 C   0  0  0  0  0  0  0  0  0  0  0  0
   -4.0580   22.8590  -28.2050 C   0  0  0  0  0  0  0  0  0  0  0  0
   -4.4400   23.8550  -29.1090 C   0  0  0  0  0  0  0  0  0  0  0  0
   -3.4740   24.6870  -29.6830 C   0  0  0  0  0  0  0  0  0  0  0  0
   -3.8540   25.6730  -30.5860 O   0  0  0  0  0  0  0  0  0  0  0  0
   -2.1260   24.5290  -29.3450 C   0  0  0  0  0  0  0  0  0  0  0  0
   -1.7420   23.5360  -28.4400 C   0  0  0  0  0  0  0  0  0  0  0  0
   -1.8870   19.3340  -27.1570 C   0  0  0  0  0  0  0  0  0  0  0  0
   -1.0530   18.2520  -27.4390 C   0  0  0  0  0  0  0  0  0  0  0  0
    0.2800   18.4560  -27.8300 C   0  0  0  0  0  0  0  0  0  0  0  0
    1.2810   17.0420  -28.2110 S   0  0  0  0  0  0  0  0  0  0  0  0
    1.1950   16.0660  -27.0730 O   0  0  0  0  0  0  0  0  0  0  0  0
    2.7130   17.4530  -28.4070 O   0  0  0  0  0  0  0  0  0  0  0  0
    0.7110   16.2630  -29.6610 N   0  0  0  0  0  0  0  0  0  0  0  0
    1.2910   16.8750  -30.8640 C   0  0  0  0  0  0  0  0  0  0  0  0
    1.4270   18.4010  -30.6350 C   0  0  0  0  0  0  0  0  0  0  0  0
    1.1300   19.2110  -31.8980 C   0  0  0  0  0  0  0  0  0  0  0  0
   -0.2220   18.9020  -32.3760 N   0  0  0  0  0  0  0  0  0  0  0  0
   -0.9420   19.9180  -33.0960 C   0  0  0  0  0  0  0  0  0  0  0  0
   -0.3530   20.5550  -34.0110 O   0  0  0  0  0  0  0  0  0  0  0  0
   -2.2700   20.3170  -32.7100 N   0  0  0  0  0  0  0  0  0  0  0  0
   -2.4860   21.7090  -32.3030 C   0  0  0  0  0  0  0  0  0  0  0  0
   -3.9360   22.1150  -32.5740 C   0  0  0  0  0  0  0  0  0  0  0  0
   -4.8300   21.1840  -31.9950 O   0  0  0  0  0  0  0  0  0  0  0  0
   -4.6950   19.9330  -32.6400 C   0  0  0  0  0  0  0  0  0  0  0  0
   -3.3080   19.3330  -32.3910 C   0  0  0  0  0  0  0  0  0  0  0  0
   -0.7180   17.5180  -32.3190 C   0  0  0  0  0  0  0  0  0  0  0  0
    0.4300   16.5250  -32.1010 C   0  0  0  0  0  0  0  0  0  0  0  0
    2.8188   20.1803  -27.3263 H   0  0  0  0  0  0  0  0  0  0  0  0
    2.6252   19.2261  -28.8358 H   0  0  0  0  0  0  0  0  0  0  0  0
    2.2748   20.9878  -28.8358 H   0  0  0  0  0  0  0  0  0  0  0  0
    0.3216   21.8850  -27.6617 H   0  0  0  0  0  0  0  0  0  0  0  0
   -4.8209   22.2117  -27.7478 H   0  0  0  0  0  0  0  0  0  0  0  0
   -5.5011   23.9840  -29.3687 H   0  0  0  0  0  0  0  0  0  0  0  0
   -1.3669   25.1875  -29.7923 H   0  0  0  0  0  0  0  0  0  0  0  0
   -0.6822   23.4242  -28.1674 H   0  0  0  0  0  0  0  0  0  0  0  0
   -2.9279   19.1552  -26.8495 H   0  0  0  0  0  0  0  0  0  0  0  0
   -1.4441   17.2274  -27.3541 H   0  0  0  0  0  0  0  0  0  0  0  0
    2.2974   16.4760  -31.0589 H   0  0  0  0  0  0  0  0  0  0  0  0
    0.7213   18.7039  -29.8475 H   0  0  0  0  0  0  0  0  0  0  0  0
    2.4683   18.6041  -30.3445 H   0  0  0  0  0  0  0  0  0  0  0  0
    1.2006   20.2846  -31.6691 H   0  0  0  0  0  0  0  0  0  0  0  0
    1.8608   18.9512  -32.6780 H   0  0  0  0  0  0  0  0  0  0  0  0
   -2.2739   21.8114  -31.2285 H   0  0  0  0  0  0  0  0  0  0  0  0
   -1.8146   22.3620  -32.8799 H   0  0  0  0  0  0  0  0  0  0  0  0
   -4.1198   23.1097  -32.1417 H   0  0  0  0  0  0  0  0  0  0  0  0
   -4.1011   22.1363  -33.6613 H   0  0  0  0  0  0  0  0  0  0  0  0
   -5.4597   19.2440  -32.2520 H   0  0  0  0  0  0  0  0  0  0  0  0
   -4.8230   20.0815  -33.7224 H   0  0  0  0  0  0  0  0  0  0  0  0
   -3.2215   19.0425  -31.3336 H   0  0  0  0  0  0  0  0  0  0  0  0
   -3.1768   18.4496  -33.0332 H   0  0  0  0  0  0  0  0  0  0  0  0
   -1.4332   17.4273  -31.4882 H   0  0  0  0  0  0  0  0  0  0  0  0
   -1.2041   17.2829  -33.2774 H   0  0  0  0  0  0  0  0  0  0  0  0
    0.0051   15.5200  -31.9618 H   0  0  0  0  0  0  0  0  0  0  0  0
    1.0826   16.5700  -32.9854 H   0  0  0  0  0  0  0  0  0  0  0  0
  1  2  1  0
  2  3  2  0
  3  4  1  0
  4  5  1  0
  5  6  1  0
  6  7  2  0
  7  8  1  0
  8  9  2  0
  9 10  1  0
  9 11  1  0
 11 12  2  0
  4 13  2  0
 13 14  1  0
 14 15  2  0
 15 16  1  0
 16 17  2  0
 16 18  2  0
 16 19  1  0
 19 20  1  0
 20 21  1  0
 21 22  1  0
 22 23  1  0
 23 24  1  0
 24 25  2  0
 24 26  1  0
 26 27  1  0
 27 28  1  0
 28 29  1  0
 29 30  1  0
 30 31  1  0
 23 32  1  0
 32 33  1  0
 15  2  1  0
 33 20  1  0
 12  6  1  0
 31 26  1  0
  1 34  1  0
  1 35  1  0
  1 36  1  0
  3 37  1  0
  7 38  1  0
  8 39  1  0
 11 40  1  0
 12 41  1  0
 13 42  1  0
 14 43  1  0
 20 44  1  0
 21 45  1  0
 21 46  1  0
 22 47  1  0
 22 48  1  0
 27 49  1  0
 27 50  1  0
 28 51  1  0
 28 52  1  0
 30 53  1  0
 30 54  1  0
 31 55  1  0
 31 56  1  0
 32 57  1  0
 32 58  1  0
 33 59  1  0
 33 60  1  0
M  CHG  2  10  -1  19  -1
M  END
>  <UniqueID>  (21) 
21

>  <SMILES>  (21) 
Cc1cc(Oc2ccc([O-])cc2)ccc1S(=O)(=O)[N-]C1CCN(C(=O)N2CCOCC2)CC1

>  <Energy>  (21) 
82.13217468688437

>  <Genealogy>  (21) 
Cc1cc(Oc2ccc([O-])cc2)ccc1S(=O)(=O)[N-]C1CCN(C(=O)N2CCOCC2)CC1 (protonated)
Cc1cc(Oc2ccc([O-])cc2)ccc1S(=O)(=O)[N-]C1CCN(C(=O)N2CCOCC2)CC1 (3D coordinates assigned)
Cc1cc(Oc2ccc([O-])cc2)ccc1S(=O)(=O)[N-]C1CCN(C(=O)N2CCOCC2)CC1 (nonaromatic ring conformer: 82.13217468688437 kcal/mol)

>  <smiles>  (21) 
Cc1cc(Oc2ccc(O)cc2)ccc1S(=O)(=O)NC1CCN(C(=O)N2CCOCC2)CC1

>  <score_type>  (21) 
oracle

>  <origin>  (21) 
adgpu

>  <m_score__min__energy>  (21) 
-11.460000000000001

>  <m_primary>  (21) 
energy

$$$$
21:0
     RDKit          3D

 52 55  0  0  0  0  0  0  0  0999 V2000
   -6.3930   13.2690  -34.5760 C   0  0  0  0  0  0  0  0  0  0  0  0
   -5.8160   14.6360  -34.4400 C   0  0  0  0  0  0  0  0  0  0  0  0
   -6.4630   15.6620  -33.8460 N   0  0  0  0  0  0  0  0  0  0  0  0
   -5.6960   16.7860  -33.7820 C   0  0  0  0  0  0  0  0  0  0  0  0
   -6.2000   18.0380  -33.1740 C   0  0  0  0  0  0  0  0  0  0  0  0
   -5.5210   19.2500  -33.3200 C   0  0  0  0  0  0  0  0  0  0  0  0
   -5.9630   20.4740  -32.7810 C   0  0  0  0  0  0  0  0  0  0  0  0
   -7.1520   20.6850  -32.0360 C   0  0  0  0  0  0  0  0  0  0  0  0
   -7.5480   22.3530  -31.5600 S   0  0  0  0  0  0  0  0  0  0  0  0
   -8.5040   22.3220  -30.4020 O   0  0  0  0  0  0  0  0  0  0  0  0
   -8.1910   23.0760  -32.7110 O   0  0  0  0  0  0  0  0  0  0  0  0
   -6.1000   23.2580  -31.1160 C   0  0  0  0  0  0  0  0  0  0  0  0
   -6.1660   24.6260  -30.8220 C   0  0  0  0  0  0  0  0  0  0  0  0
   -5.0290   25.3000  -30.3670 C   0  0  0  0  0  0  0  0  0  0  0  0
   -3.8260   24.6110  -30.1850 C   0  0  0  0  0  0  0  0  0  0  0  0
   -2.7230   25.2930  -29.6840 O   0  0  0  0  0  0  0  0  0  0  0  0
   -3.7470   23.2410  -30.4930 C   0  0  0  0  0  0  0  0  0  0  0  0
   -2.2770   22.3130  -30.1770 S   0  0  0  0  0  0  0  0  0  0  0  0
   -1.0790   23.2130  -30.3000 O   0  0  0  0  0  0  0  0  0  0  0  0
   -2.3200   21.7700  -28.7760 O   0  0  0  0  0  0  0  0  0  0  0  0
   -2.1570   20.9940  -31.3140 N   0  0  0  0  0  0  0  0  0  0  0  0
   -2.3920   21.4910  -32.6880 C   0  0  0  0  0  0  0  0  0  0  0  0
   -1.9470   20.4850  -33.7730 C   0  0  0  0  0  0  0  0  0  0  0  0
   -1.7930   19.0750  -33.1990 C   0  0  0  0  0  0  0  0  0  0  0  0
   -0.7940   19.0600  -32.0300 C   0  0  0  0  0  0  0  0  0  0  0  0
   -0.8350   20.3580  -31.2030 C   0  0  0  0  0  0  0  0  0  0  0  0
   -4.8850   22.5750  -30.9680 C   0  0  0  0  0  0  0  0  0  0  0  0
   -8.0070   19.6110  -31.6870 C   0  0  0  0  0  0  0  0  0  0  0  0
   -9.0590   19.7470  -30.9410 N   0  0  0  0  0  0  0  0  0  0  0  0
   -7.6240   18.0680  -32.2590 S   0  0  0  0  0  0  0  0  0  0  0  0
   -4.4130   16.6440  -34.3190 C   0  0  0  0  0  0  0  0  0  0  0  0
   -4.2540   15.0680  -34.8800 S   0  0  0  0  0  0  0  0  0  0  0  0
   -6.5718   12.8454  -33.5767 H   0  0  0  0  0  0  0  0  0  0  0  0
   -7.3440   13.3255  -35.1258 H   0  0  0  0  0  0  0  0  0  0  0  0
   -5.6891   12.6269  -35.1258 H   0  0  0  0  0  0  0  0  0  0  0  0
   -4.5815   19.2484  -33.8922 H   0  0  0  0  0  0  0  0  0  0  0  0
   -5.3238   21.3523  -32.9546 H   0  0  0  0  0  0  0  0  0  0  0  0
   -7.1134   25.1703  -30.9493 H   0  0  0  0  0  0  0  0  0  0  0  0
   -5.0809   26.3774  -30.1511 H   0  0  0  0  0  0  0  0  0  0  0  0
   -3.4671   21.6882  -32.8113 H   0  0  0  0  0  0  0  0  0  0  0  0
   -1.7922   22.4040  -32.8170 H   0  0  0  0  0  0  0  0  0  0  0  0
   -2.7014   20.4650  -34.5733 H   0  0  0  0  0  0  0  0  0  0  0  0
   -0.9708   20.8076  -34.1641 H   0  0  0  0  0  0  0  0  0  0  0  0
   -2.7718   18.7243  -32.8398 H   0  0  0  0  0  0  0  0  0  0  0  0
   -1.4131   18.4142  -33.9921 H   0  0  0  0  0  0  0  0  0  0  0  0
   -1.0356   18.2136  -31.3703 H   0  0  0  0  0  0  0  0  0  0  0  0
    0.2163   18.9660  -32.4548 H   0  0  0  0  0  0  0  0  0  0  0  0
   -0.6335   20.1221  -30.1477 H   0  0  0  0  0  0  0  0  0  0  0  0
   -0.0718   21.0507  -31.5873 H   0  0  0  0  0  0  0  0  0  0  0  0
   -4.8242   21.5076  -31.2268 H   0  0  0  0  0  0  0  0  0  0  0  0
   -9.3760   20.6430  -30.5150 H   0  0  0  0  0  0  0  0  0  0  0  0
   -3.6421   17.4273  -34.3661 H   0  0  0  0  0  0  0  0  0  0  0  0
  1  2  1  0
  2  3  2  0
  3  4  1  0
  4  5  1  0
  5  6  2  0
  6  7  1  0
  7  8  2  0
  8  9  1  0
  9 10  2  0
  9 11  2  0
  9 12  1  0
 12 13  2  0
 13 14  1  0
 14 15  2  0
 15 16  1  0
 15 17  1  0
 17 18  1  0
 18 19  2  0
 18 20  2  0
 18 21  1  0
 21 22  1  0
 22 23  1  0
 23 24  1  0
 24 25  1  0
 25 26  1  0
 17 27  2  0
  8 28  1  0
 28 29  2  3
 28 30  1  0
  4 31  2  0
 31 32  1  0
 32  2  1  0
 30  5  1  0
 27 12  1  0
 26 21  1  0
  1 33  1  0
  1 34  1  0
  1 35  1  0
  6 36  1  0
  7 37  1  0
 13 38  1  0
 14 39  1  0
 22 40  1  0
 22 41  1  0
 23 42  1  0
 23 43  1  0
 24 44  1  0
 24 45  1  0
 25 46  1  0
 25 47  1  0
 26 48  1  0
 26 49  1  0
 27 50  1  0
 29 51  1  0
 31 52  1  0
M  CHG  1  16  -1
M  END
>  <UniqueID>  (22) 
22

>  <SMILES>  (22) 
Cc1nc(-c2ccc(S(=O)(=O)c3ccc([O-])c(S(=O)(=O)N4CCCCC4)c3)c(=N)s2)cs1

>  <Energy>  (22) 
93.96750382981081

>  <Genealogy>  (22) 
Cc1nc(-c2ccc(S(=O)(=O)c3ccc([O-])c(S(=O)(=O)N4CCCCC4)c3)c(=N)s2)cs1 (protonated)
Cc1nc(-c2ccc(S(=O)(=O)c3ccc([O-])c(S(=O)(=O)N4CCCCC4)c3)c(=N)s2)cs1 (3D coordinates assigned)
Cc1nc(-c2ccc(S(=O)(=O)c3ccc([O-])c(S(=O)(=O)N4CCCCC4)c3)c(=N)s2)cs1 (nonaromatic ring conformer: 93.96750382981081 kcal/mol)

>  <smiles>  (22) 
Cc1nc(-c2ccc(S(=O)(=O)c3ccc(O)c(S(=O)(=O)N4CCCCC4)c3)c(=N)s2)cs1

>  <score_type>  (22) 
oracle

>  <origin>  (22) 
adgpu

>  <m_score__min__energy>  (22) 
-13.32

>  <m_primary>  (22) 
energy

$$$$
22:0
     RDKit          3D

 59 62  0  0  0  0  0  0  0  0999 V2000
   -3.4790   25.2770  -30.5020 O   0  0  0  0  0  0  0  0  0  0  0  0
   -3.9460   24.2890  -29.8710 C   0  0  0  0  0  0  0  0  0  0  0  0
   -3.2400   23.7670  -28.7290 N   0  0  0  0  0  0  0  0  0  0  0  0
   -1.9520   24.2390  -28.3010 C   0  0  0  0  0  0  0  0  0  0  0  0
   -1.8190   25.5610  -27.8500 C   0  0  0  0  0  0  0  0  0  0  0  0
   -0.5820   26.0380  -27.4060 C   0  0  0  0  0  0  0  0  0  0  0  0
    0.5360   25.1940  -27.3950 C   0  0  0  0  0  0  0  0  0  0  0  0
    2.0940   25.7750  -26.8110 S   0  0  0  0  0  0  0  0  0  0  0  0
    3.1710   24.8980  -27.3880 O   0  0  0  0  0  0  0  0  0  0  0  0
    2.3250   27.1820  -27.2880 O   0  0  0  0  0  0  0  0  0  0  0  0
    2.1680   25.7030  -25.0640 N   0  0  0  0  0  0  0  0  0  0  0  0
    1.5520   24.4700  -24.5300 C   0  0  0  0  0  0  0  0  0  0  0  0
    0.0140   24.4890  -24.6040 C   0  0  0  0  0  0  0  0  0  0  0  0
   -0.5900   25.8650  -24.2660 C   0  0  0  0  0  0  0  0  0  0  0  0
    0.4190   26.7760  -23.5690 C   0  0  0  0  0  0  0  0  0  0  0  0
    1.6780   26.9560  -24.4360 C   0  0  0  0  0  0  0  0  0  0  0  0
    0.4020   23.8650  -27.8140 C   0  0  0  0  0  0  0  0  0  0  0  0
   -0.8340   23.3870  -28.2600 C   0  0  0  0  0  0  0  0  0  0  0  0
   -5.2260   23.6930  -30.3230 C   0  0  0  0  0  0  0  0  0  0  0  0
   -6.0100   24.3670  -31.2770 C   0  0  0  0  0  0  0  0  0  0  0  0
   -7.2210   23.8240  -31.7150 C   0  0  0  0  0  0  0  0  0  0  0  0
   -7.6760   22.6060  -31.1960 C   0  0  0  0  0  0  0  0  0  0  0  0
   -9.1910   21.9150  -31.7680 S   0  0  0  0  0  0  0  0  0  0  0  0
   -9.8430   22.8780  -32.7210 O   0  0  0  0  0  0  0  0  0  0  0  0
  -10.1190   21.6910  -30.6050 O   0  0  0  0  0  0  0  0  0  0  0  0
   -8.8650   20.4120  -32.5920 N   0  0  0  0  0  0  0  0  0  0  0  0
   -7.4940   20.3690  -33.1000 C   0  0  0  0  0  0  0  0  0  0  0  0
   -7.0970   18.9020  -33.1560 C   0  0  0  0  0  0  0  0  0  0  0  0
   -8.0740   18.1840  -32.2380 C   0  0  0  0  0  0  0  0  0  0  0  0
   -8.9810   19.2720  -31.6840 C   0  0  0  0  0  0  0  0  0  0  0  0
   -6.9050   21.9310  -30.2410 C   0  0  0  0  0  0  0  0  0  0  0  0
   -5.6930   22.4710  -29.8020 C   0  0  0  0  0  0  0  0  0  0  0  0
   -3.6960   23.0400  -28.1360 H   0  0  0  0  0  0  0  0  0  0  0  0
   -2.6944   26.2270  -27.8457 H   0  0  0  0  0  0  0  0  0  0  0  0
   -0.4864   27.0792  -27.0643 H   0  0  0  0  0  0  0  0  0  0  0  0
    1.9210   23.6126  -25.1120 H   0  0  0  0  0  0  0  0  0  0  0  0
    1.8309   24.3942  -23.4686 H   0  0  0  0  0  0  0  0  0  0  0  0
   -0.2909   24.2139  -25.6245 H   0  0  0  0  0  0  0  0  0  0  0  0
   -0.3593   23.7741  -23.8560 H   0  0  0  0  0  0  0  0  0  0  0  0
   -0.9194   26.3472  -25.1982 H   0  0  0  0  0  0  0  0  0  0  0  0
   -1.4355   25.7064  -23.5805 H   0  0  0  0  0  0  0  0  0  0  0  0
   -0.0426   27.7590  -23.3939 H   0  0  0  0  0  0  0  0  0  0  0  0
    0.7102   26.3158  -22.6133 H   0  0  0  0  0  0  0  0  0  0  0  0
    1.4465   27.6751  -25.2356 H   0  0  0  0  0  0  0  0  0  0  0  0
    2.4763   27.3070  -23.7656 H   0  0  0  0  0  0  0  0  0  0  0  0
    1.2731   23.1937  -27.7923 H   0  0  0  0  0  0  0  0  0  0  0  0
   -0.9323   22.3393  -28.5804 H   0  0  0  0  0  0  0  0  0  0  0  0
   -5.6667   25.3304  -31.6820 H   0  0  0  0  0  0  0  0  0  0  0  0
   -7.8187   24.3555  -32.4702 H   0  0  0  0  0  0  0  0  0  0  0  0
   -7.4476   20.8133  -34.1052 H   0  0  0  0  0  0  0  0  0  0  0  0
   -6.8128   20.9398  -32.4518 H   0  0  0  0  0  0  0  0  0  0  0  0
   -7.1822   18.5192  -34.1837 H   0  0  0  0  0  0  0  0  0  0  0  0
   -6.0536   18.7483  -32.8435 H   0  0  0  0  0  0  0  0  0  0  0  0
   -8.6606   17.4445  -32.8029 H   0  0  0  0  0  0  0  0  0  0  0  0
   -7.5559   17.6360  -31.4372 H   0  0  0  0  0  0  0  0  0  0  0  0
  -10.0219   18.9179  -31.6498 H   0  0  0  0  0  0  0  0  0  0  0  0
   -8.6905   19.5484  -30.6597 H   0  0  0  0  0  0  0  0  0  0  0  0
   -7.2553   20.9708  -29.8344 H   0  0  0  0  0  0  0  0  0  0  0  0
   -5.0999   21.9378  -29.0444 H   0  0  0  0  0  0  0  0  0  0  0  0
  1  2  2  0
  2  3  1  0
  3  4  1  0
  4  5  2  0
  5  6  1  0
  6  7  2  0
  7  8  1  0
  8  9  2  0
  8 10  2  0
  8 11  1  0
 11 12  1  0
 12 13  1  0
 13 14  1  0
 14 15  1  0
 15 16  1  0
  7 17  1  0
 17 18  2  0
  2 19  1  0
 19 20  2  0
 20 21  1  0
 21 22  2  0
 22 23  1  0
 23 24  2  0
 23 25  2  0
 23 26  1  0
 26 27  1  0
 27 28  1  0
 28 29  1  0
 29 30  1  0
 22 31  1  0
 31 32  2  0
 18  4  1  0
 32 19  1  0
 16 11  1  0
 30 26  1  0
  3 33  1  0
  5 34  1  0
  6 35  1  0
 12 36  1  0
 12 37  1  0
 13 38  1  0
 13 39  1  0
 14 40  1  0
 14 41  1  0
 15 42  1  0
 15 43  1  0
 16 44  1  0
 16 45  1  0
 17 46  1  0
 18 47  1  0
 20 48  1  0
 21 49  1  0
 27 50  1  0
 27 51  1  0
 28 52  1  0
 28 53  1  0
 29 54  1  0
 29 55  1  0
 30 56  1  0
 30 57  1  0
 31 58  1  0
 32 59  1  0
M  END
>  <UniqueID>  (23) 
23

>  <SMILES>  (23) 
O=C(Nc1ccc(S(=O)(=O)N2CCCCC2)cc1)c1ccc(S(=O)(=O)N2CCCC2)cc1

>  <Energy>  (23) 
75.35684777940217

>  <Genealogy>  (23) 
O=C(Nc1ccc(S(=O)(=O)N2CCCCC2)cc1)c1ccc(S(=O)(=O)N2CCCC2)cc1 (3D coordinates assigned)
O=C(Nc1ccc(S(=O)(=O)N2CCCCC2)cc1)c1ccc(S(=O)(=O)N2CCCC2)cc1 (nonaromatic ring conformer: 75.35684777940217 kcal/mol)

>  <smiles>  (23) 
O=C(Nc1ccc(S(=O)(=O)N2CCCCC2)cc1)c1ccc(S(=O)(=O)N2CCCC2)cc1

>  <score_type>  (23) 
oracle

>  <origin>  (23) 
adgpu

>  <m_score__min__energy>  (23) 
-10.109999999999999

>  <m_primary>  (23) 
energy

$$$$
23:0
     RDKit          3D

 61 64  0  0  0  0  0  0  0  0999 V2000
   -5.3910   15.2940  -34.2160 C   0  0  0  0  0  0  0  0  0  0  0  0
   -4.0730   15.2120  -33.6840 O   0  0  0  0  0  0  0  0  0  0  0  0
   -3.0940   16.2100  -33.8200 C   0  0  0  0  0  0  0  0  0  0  0  0
   -1.8130   15.9260  -34.3310 C   0  0  0  0  0  0  0  0  0  0  0  0
   -0.8790   16.9480  -34.5090 C   0  0  0  0  0  0  0  0  0  0  0  0
   -1.2090   18.2710  -34.1950 C   0  0  0  0  0  0  0  0  0  0  0  0
   -0.0310   19.5660  -34.4350 S   0  0  0  0  0  0  0  0  0  0  0  0
   -0.3410   20.2760  -35.7240 O   0  0  0  0  0  0  0  0  0  0  0  0
    1.3410   18.9620  -34.5570 O   0  0  0  0  0  0  0  0  0  0  0  0
   -0.0270   20.7300  -33.1320 N   0  0  0  0  0  0  0  0  0  0  0  0
    0.2250   20.1040  -31.8360 C   0  0  0  0  0  0  0  0  0  0  0  0
   -0.3990   21.0160  -30.7910 C   0  0  0  0  0  0  0  0  0  0  0  0
   -1.4040   21.8700  -31.5500 C   0  0  0  0  0  0  0  0  0  0  0  0
   -1.3130   21.4080  -32.9960 C   0  0  0  0  0  0  0  0  0  0  0  0
   -2.4750   18.5570  -33.6660 C   0  0  0  0  0  0  0  0  0  0  0  0
   -3.4120   17.5360  -33.4570 C   0  0  0  0  0  0  0  0  0  0  0  0
   -4.7030   17.8740  -32.9270 N   0  0  0  0  0  0  0  0  0  0  0  0
   -5.7120   18.5460  -33.6980 C   0  0  0  0  0  0  0  0  0  0  0  0
   -5.6610   18.5080  -34.9570 O   0  0  0  0  0  0  0  0  0  0  0  0
   -6.8250   19.2640  -33.0310 C   0  0  0  0  0  0  0  0  0  0  0  0
   -8.0020   18.5790  -32.6810 C   0  0  0  0  0  0  0  0  0  0  0  0
   -9.0620   19.2580  -32.0760 C   0  0  0  0  0  0  0  0  0  0  0  0
   -8.9670   20.6270  -31.8250 C   0  0  0  0  0  0  0  0  0  0  0  0
   -7.8100   21.3300  -32.1860 C   0  0  0  0  0  0  0  0  0  0  0  0
   -7.6910   23.0620  -31.8790 S   0  0  0  0  0  0  0  0  0  0  0  0
   -7.0570   23.7250  -33.0700 O   0  0  0  0  0  0  0  0  0  0  0  0
   -9.0790   23.6230  -31.7320 O   0  0  0  0  0  0  0  0  0  0  0  0
   -6.7630   23.4470  -30.4460 N   0  0  0  0  0  0  0  0  0  0  0  0
   -6.6320   24.8960  -30.2000 C   0  0  0  0  0  0  0  0  0  0  0  0
   -5.3750   25.4930  -30.8450 C   0  0  0  0  0  0  0  0  0  0  0  0
   -4.2250   24.7730  -30.4580 O   0  0  0  0  0  0  0  0  0  0  0  0
   -4.3090   23.4620  -30.9730 C   0  0  0  0  0  0  0  0  0  0  0  0
   -5.4900   22.7040  -30.3500 C   0  0  0  0  0  0  0  0  0  0  0  0
   -6.7380   20.6450  -32.7730 C   0  0  0  0  0  0  0  0  0  0  0  0
   -6.1172   15.3392  -33.3911 H   0  0  0  0  0  0  0  0  0  0  0  0
   -5.4813   16.1995  -34.8340 H   0  0  0  0  0  0  0  0  0  0  0  0
   -5.5928   14.4067  -34.8340 H   0  0  0  0  0  0  0  0  0  0  0  0
   -1.5463   14.8912  -34.5918 H   0  0  0  0  0  0  0  0  0  0  0  0
    0.1223   16.7119  -34.8984 H   0  0  0  0  0  0  0  0  0  0  0  0
   -0.2396   19.1077  -31.7978 H   0  0  0  0  0  0  0  0  0  0  0  0
    1.3027   19.9729  -31.6589 H   0  0  0  0  0  0  0  0  0  0  0  0
   -0.9057   20.4228  -30.0155 H   0  0  0  0  0  0  0  0  0  0  0  0
    0.3568   21.6302  -30.2797 H   0  0  0  0  0  0  0  0  0  0  0  0
   -2.4192   21.7103  -31.1577 H   0  0  0  0  0  0  0  0  0  0  0  0
   -1.1886   22.9439  -31.4485 H   0  0  0  0  0  0  0  0  0  0  0  0
   -2.1350   20.7143  -33.2262 H   0  0  0  0  0  0  0  0  0  0  0  0
   -1.3919   22.2566  -33.6915 H   0  0  0  0  0  0  0  0  0  0  0  0
   -2.7362   19.5949  -33.4119 H   0  0  0  0  0  0  0  0  0  0  0  0
   -4.9750   17.4720  -32.0010 H   0  0  0  0  0  0  0  0  0  0  0  0
   -8.0885   17.5015  -32.8850 H   0  0  0  0  0  0  0  0  0  0  0  0
   -9.9748   18.7115  -31.7965 H   0  0  0  0  0  0  0  0  0  0  0  0
   -9.8023   21.1557  -31.3426 H   0  0  0  0  0  0  0  0  0  0  0  0
   -7.5154   25.4047  -30.6133 H   0  0  0  0  0  0  0  0  0  0  0  0
   -6.5503   25.0431  -29.1129 H   0  0  0  0  0  0  0  0  0  0  0  0
   -5.4761   25.4506  -31.9395 H   0  0  0  0  0  0  0  0  0  0  0  0
   -5.2679   26.5357  -30.5113 H   0  0  0  0  0  0  0  0  0  0  0  0
   -4.4474   23.5113  -32.0631 H   0  0  0  0  0  0  0  0  0  0  0  0
   -3.3793   22.9275  -30.7278 H   0  0  0  0  0  0  0  0  0  0  0  0
   -5.6045   21.7422  -30.8715 H   0  0  0  0  0  0  0  0  0  0  0  0
   -5.2676   22.5656  -29.2816 H   0  0  0  0  0  0  0  0  0  0  0  0
   -5.8199   21.1915  -33.0347 H   0  0  0  0  0  0  0  0  0  0  0  0
  1  2  1  0
  2  3  1  0
  3  4  2  0
  4  5  1  0
  5  6  2  0
  6  7  1  0
  7  8  2  0
  7  9  2  0
  7 10  1  0
 10 11  1  0
 11 12  1  0
 12 13  1  0
 13 14  1  0
  6 15  1  0
 15 16  2  0
 16 17  1  0
 17 18  1  0
 18 19  2  0
 18 20  1  0
 20 21  2  0
 21 22  1  0
 22 23  2  0
 23 24  1  0
 24 25  1  0
 25 26  2  0
 25 27  2  0
 25 28  1  0
 28 29  1  0
 29 30  1  0
 30 31  1  0
 31 32  1  0
 32 33  1  0
 24 34  2  0
 16  3  1  0
 34 20  1  0
 14 10  1  0
 33 28  1  0
  1 35  1  0
  1 36  1  0
  1 37  1  0
  4 38  1  0
  5 39  1  0
 11 40  1  0
 11 41  1  0
 12 42  1  0
 12 43  1  0
 13 44  1  0
 13 45  1  0
 14 46  1  0
 14 47  1  0
 15 48  1  0
 17 49  1  0
 21 50  1  0
 22 51  1  0
 23 52  1  0
 29 53  1  0
 29 54  1  0
 30 55  1  0
 30 56  1  0
 32 57  1  0
 32 58  1  0
 33 59  1  0
 33 60  1  0
 34 61  1  0
M  END
>  <UniqueID>  (24) 
24

>  <SMILES>  (24) 
COc1ccc(S(=O)(=O)N2CCCC2)cc1NC(=O)c1cccc(S(=O)(=O)N2CCOCC2)c1

>  <Energy>  (24) 
75.16524355423459

>  <Genealogy>  (24) 
COc1ccc(S(=O)(=O)N2CCCC2)cc1NC(=O)c1cccc(S(=O)(=O)N2CCOCC2)c1 (3D coordinates assigned)
COc1ccc(S(=O)(=O)N2CCCC2)cc1NC(=O)c1cccc(S(=O)(=O)N2CCOCC2)c1 (nonaromatic ring conformer: 75.16524355423459 kcal/mol)

>  <smiles>  (24) 
COc1ccc(S(=O)(=O)N2CCCC2)cc1NC(=O)c1cccc(S(=O)(=O)N2CCOCC2)c1

>  <score_type>  (24) 
oracle

>  <origin>  (24) 
adgpu

>  <m_score__min__energy>  (24) 
-10.81

>  <m_primary>  (24) 
energy

$$$$
24:0
     RDKit          3D

 42 44  0  0  0  0  0  0  0  0999 V2000
    0.4350   18.9690  -28.2130 O   0  0  0  0  0  0  0  0  0  0  0  0
   -0.1050   20.0430  -28.5910 C   0  0  0  0  0  0  0  0  0  0  0  0
   -0.1870   21.1330  -27.6630 N   0  0  0  0  0  0  0  0  0  0  0  0
   -0.5440   22.4870  -27.9770 C   0  0  0  0  0  0  0  0  0  0  0  0
    0.2880   23.5650  -27.6370 C   0  0  0  0  0  0  0  0  0  0  0  0
   -0.0840   24.8690  -27.9670 C   0  0  0  0  0  0  0  0  0  0  0  0
   -1.2770   25.1140  -28.6530 C   0  0  0  0  0  0  0  0  0  0  0  0
   -1.6100   26.4290  -28.9610 O   0  0  0  0  0  0  0  0  0  0  0  0
   -2.1170   24.0400  -29.0230 C   0  0  0  0  0  0  0  0  0  0  0  0
   -3.3890   24.2610  -29.7570 C   0  0  0  0  0  0  0  0  0  0  0  0
   -3.5450   25.2920  -30.4650 O   0  0  0  0  0  0  0  0  0  0  0  0
   -4.4300   23.3430  -29.6810 O   0  0  0  0  0  0  0  0  0  0  0  0
   -1.7280   22.7280  -28.6830 C   0  0  0  0  0  0  0  0  0  0  0  0
   -0.5880   20.1600  -29.9890 C   0  0  0  0  0  0  0  0  0  0  0  0
    0.3170   20.3050  -31.0510 C   0  0  0  0  0  0  0  0  0  0  0  0
   -0.1470   20.4090  -32.3620 C   0  0  0  0  0  0  0  0  0  0  0  0
   -1.5200   20.3620  -32.6400 C   0  0  0  0  0  0  0  0  0  0  0  0
   -1.9440   20.4480  -33.9640 O   0  0  0  0  0  0  0  0  0  0  0  0
   -2.4430   20.2150  -31.5790 C   0  0  0  0  0  0  0  0  0  0  0  0
   -3.8680   20.1590  -31.7640 N   0  0  0  0  0  0  0  0  0  0  0  0
   -4.7960   20.7760  -33.0920 S   0  0  0  0  0  0  0  0  0  0  0  0
   -4.1850   22.0510  -33.6050 O   0  0  0  0  0  0  0  0  0  0  0  0
   -4.8460   19.7600  -34.2000 O   0  0  0  0  0  0  0  0  0  0  0  0
   -6.4270   21.1180  -32.5250 C   0  0  0  0  0  0  0  0  0  0  0  0
   -7.4150   20.1230  -32.5480 C   0  0  0  0  0  0  0  0  0  0  0  0
   -8.7050   20.4040  -32.0870 C   0  0  0  0  0  0  0  0  0  0  0  0
   -9.0110   21.6760  -31.5930 C   0  0  0  0  0  0  0  0  0  0  0  0
   -8.0280   22.6680  -31.5610 C   0  0  0  0  0  0  0  0  0  0  0  0
   -6.7370   22.3900  -32.0240 C   0  0  0  0  0  0  0  0  0  0  0  0
   -1.9620   20.0980  -30.2680 C   0  0  0  0  0  0  0  0  0  0  0  0
    1.2355   23.3816  -27.1092 H   0  0  0  0  0  0  0  0  0  0  0  0
    0.5664   25.7102  -27.6852 H   0  0  0  0  0  0  0  0  0  0  0  0
   -2.3650   21.8809  -28.9772 H   0  0  0  0  0  0  0  0  0  0  0  0
    1.3978   20.3368  -30.8487 H   0  0  0  0  0  0  0  0  0  0  0  0
    0.5717   20.5291  -33.1861 H   0  0  0  0  0  0  0  0  0  0  0  0
   -2.8970   20.6970  -34.2050 H   0  0  0  0  0  0  0  0  0  0  0  0
   -7.1748   19.1196  -32.9294 H   0  0  0  0  0  0  0  0  0  0  0  0
   -9.4799   19.6237  -32.1130 H   0  0  0  0  0  0  0  0  0  0  0  0
  -10.0258   21.8954  -31.2296 H   0  0  0  0  0  0  0  0  0  0  0  0
   -8.2689   23.6682  -31.1717 H   0  0  0  0  0  0  0  0  0  0  0  0
   -5.9635   23.1716  -31.9947 H   0  0  0  0  0  0  0  0  0  0  0  0
   -2.6746   19.9549  -29.4423 H   0  0  0  0  0  0  0  0  0  0  0  0
  1  2  2  0
  2  3  1  0
  3  4  1  0
  4  5  2  0
  5  6  1  0
  6  7  2  0
  7  8  1  0
  7  9  1  0
  9 10  1  0
 10 11  2  0
 10 12  1  0
  9 13  2  0
  2 14  1  0
 14 15  2  0
 15 16  1  0
 16 17  2  0
 17 18  1  0
 17 19  1  0
 19 20  1  0
 20 21  1  0
 21 22  2  0
 21 23  2  0
 21 24  1  0
 24 25  2  0
 25 26  1  0
 26 27  2  0
 27 28  1  0
 28 29  2  0
 19 30  2  0
 13  4  1  0
 30 14  1  0
 29 24  1  0
  5 31  1  0
  6 32  1  0
 13 33  1  0
 15 34  1  0
 16 35  1  0
 18 36  1  0
 25 37  1  0
 26 38  1  0
 27 39  1  0
 28 40  1  0
 29 41  1  0
 30 42  1  0
M  CHG  4   3  -1   8  -1  12  -1  20  -1
M  END
>  <UniqueID>  (25) 
25

>  <SMILES>  (25) 
O=C([N-]c1ccc([O-])c(C(=O)[O-])c1)c1ccc(O)c([N-]S(=O)(=O)c2ccccc2)c1

>  <Energy>  (25) 
61.79918405272383

>  <Genealogy>  (25) 
O=C([N-]c1ccc([O-])c(C(=O)[O-])c1)c1ccc(O)c([N-]S(=O)(=O)c2ccccc2)c1 (protonated)
O=C([N-]c1ccc([O-])c(C(=O)[O-])c1)c1ccc(O)c([N-]S(=O)(=O)c2ccccc2)c1 (3D coordinates assigned)
O=C([N-]c1ccc([O-])c(C(=O)[O-])c1)c1ccc(O)c([N-]S(=O)(=O)c2ccccc2)c1 (optimized conformer: 61.79918405272383 kcal/mol)

>  <smiles>  (25) 
O=C(Nc1ccc(O)c(C(=O)O)c1)c1ccc(O)c(NS(=O)(=O)c2ccccc2)c1

>  <score_type>  (25) 
oracle

>  <origin>  (25) 
adgpu

>  <m_score__min__energy>  (25) 
-13.6

>  <m_primary>  (25) 
energy

$$$$
25:0
     RDKit          3D

 56 59  0  0  0  0  0  0  0  0999 V2000
   -1.2100   22.1550  -26.2440 C   0  0  0  0  0  0  0  0  0  0  0  0
   -1.8190   23.0070  -27.3270 C   0  0  0  0  0  0  0  0  0  0  0  0
   -3.0600   22.6180  -27.8560 C   0  0  0  0  0  0  0  0  0  0  0  0
   -3.6590   23.3490  -28.8780 C   0  0  0  0  0  0  0  0  0  0  0  0
   -3.0260   24.4720  -29.4090 C   0  0  0  0  0  0  0  0  0  0  0  0
   -3.6740   25.1800  -30.4730 N   0  0  0  0  0  0  0  0  0  0  0  0
   -5.0920   25.3070  -30.6430 C   0  0  0  0  0  0  0  0  0  0  0  0
   -5.6070   26.4310  -30.8850 O   0  0  0  0  0  0  0  0  0  0  0  0
   -5.9400   24.1600  -30.5410 N   0  0  0  0  0  0  0  0  0  0  0  0
   -5.8780   23.0120  -31.3990 C   0  0  0  0  0  0  0  0  0  0  0  0
   -4.6250   22.4560  -31.6860 C   0  0  0  0  0  0  0  0  0  0  0  0
   -4.5160   21.3310  -32.5130 C   0  0  0  0  0  0  0  0  0  0  0  0
   -2.9300   20.6480  -32.8830 S   0  0  0  0  0  0  0  0  0  0  0  0
   -2.2230   21.5410  -33.8640 O   0  0  0  0  0  0  0  0  0  0  0  0
   -3.1140   19.3020  -33.5300 O   0  0  0  0  0  0  0  0  0  0  0  0
   -1.9480   20.4680  -31.4510 N   0  0  0  0  0  0  0  0  0  0  0  0
   -1.2840   21.7360  -31.1170 C   0  0  0  0  0  0  0  0  0  0  0  0
   -0.4370   21.5650  -29.8380 C   0  0  0  0  0  0  0  0  0  0  0  0
   -0.3750   20.2140  -29.4110 O   0  0  0  0  0  0  0  0  0  0  0  0
    0.0650   19.3950  -30.4760 C   0  0  0  0  0  0  0  0  0  0  0  0
   -0.9460   19.4050  -31.6410 C   0  0  0  0  0  0  0  0  0  0  0  0
   -5.6740   20.7490  -33.0440 C   0  0  0  0  0  0  0  0  0  0  0  0
   -6.9300   21.2750  -32.7360 C   0  0  0  0  0  0  0  0  0  0  0  0
   -7.0430   22.3970  -31.9010 C   0  0  0  0  0  0  0  0  0  0  0  0
   -8.3040   22.8740  -31.5480 O   0  0  0  0  0  0  0  0  0  0  0  0
   -1.8130   24.9170  -28.8490 C   0  0  0  0  0  0  0  0  0  0  0  0
   -1.2310   26.0880  -29.3250 O   0  0  0  0  0  0  0  0  0  0  0  0
   -1.2020   24.1960  -27.7970 C   0  0  0  0  0  0  0  0  0  0  0  0
    0.3400   24.7740  -27.1210 S   0  0  0  0  0  0  0  0  0  0  0  0
    0.8750   23.7880  -26.1180 O   0  0  0  0  0  0  0  0  0  0  0  0
    1.3710   24.9180  -28.2050 O   0  0  0  0  0  0  0  0  0  0  0  0
    0.0610   26.3730  -26.3590 C   0  0  0  0  0  0  0  0  0  0  0  0
   -0.3400   26.3300  -24.8940 C   0  0  0  0  0  0  0  0  0  0  0  0
   -1.3800   26.6400  -25.9600 C   0  0  0  0  0  0  0  0  0  0  0  0
   -1.4953   22.5542  -25.2595 H   0  0  0  0  0  0  0  0  0  0  0  0
   -1.5757   21.1221  -26.3409 H   0  0  0  0  0  0  0  0  0  0  0  0
   -0.1143   22.1667  -26.3409 H   0  0  0  0  0  0  0  0  0  0  0  0
   -3.5648   21.7253  -27.4582 H   0  0  0  0  0  0  0  0  0  0  0  0
   -4.6389   23.0384  -29.2695 H   0  0  0  0  0  0  0  0  0  0  0  0
   -3.7178   22.9072  -31.2578 H   0  0  0  0  0  0  0  0  0  0  0  0
   -0.6307   22.0359  -31.9496 H   0  0  0  0  0  0  0  0  0  0  0  0
   -2.0468   22.5098  -30.9453 H   0  0  0  0  0  0  0  0  0  0  0  0
    0.5845   21.9195  -30.0400 H   0  0  0  0  0  0  0  0  0  0  0  0
   -0.9138   22.1497  -29.0375 H   0  0  0  0  0  0  0  0  0  0  0  0
    1.0343   19.7678  -30.8387 H   0  0  0  0  0  0  0  0  0  0  0  0
    0.1604   18.3635  -30.1061 H   0  0  0  0  0  0  0  0  0  0  0  0
   -0.4082   19.5800  -32.5845 H   0  0  0  0  0  0  0  0  0  0  0  0
   -1.4616   18.4338  -31.6705 H   0  0  0  0  0  0  0  0  0  0  0  0
   -5.5936   19.8743  -33.7061 H   0  0  0  0  0  0  0  0  0  0  0  0
   -7.8356   20.8075  -33.1500 H   0  0  0  0  0  0  0  0  0  0  0  0
   -8.4190   23.7280  -31.0150 H   0  0  0  0  0  0  0  0  0  0  0  0
    0.8253   26.9112  -26.9388 H   0  0  0  0  0  0  0  0  0  0  0  0
   -0.3695   25.3690  -24.3596 H   0  0  0  0  0  0  0  0  0  0  0  0
    0.0072   26.8289  -23.9772 H   0  0  0  0  0  0  0  0  0  0  0  0
   -2.1618   25.9032  -26.1965 H   0  0  0  0  0  0  0  0  0  0  0  0
   -2.0968   27.4561  -26.1335 H   0  0  0  0  0  0  0  0  0  0  0  0
  1  2  1  0
  2  3  2  0
  3  4  1  0
  4  5  2  0
  5  6  1  0
  6  7  1  0
  7  8  2  0
  7  9  1  0
  9 10  1  0
 10 11  2  0
 11 12  1  0
 12 13  1  0
 13 14  2  0
 13 15  2  0
 13 16  1  0
 16 17  1  0
 17 18  1  0
 18 19  1  0
 19 20  1  0
 20 21  1  0
 12 22  2  0
 22 23  1  0
 23 24  2  0
 24 25  1  0
  5 26  1  0
 26 27  1  0
 26 28  2  0
 28 29  1  0
 29 30  2  0
 29 31  2  0
 29 32  1  0
 32 33  1  0
 33 34  1  0
 28  2  1  0
 34 32  1  0
 24 10  1  0
 21 16  1  0
  1 35  1  0
  1 36  1  0
  1 37  1  0
  3 38  1  0
  4 39  1  0
 11 40  1  0
 17 41  1  0
 17 42  1  0
 18 43  1  0
 18 44  1  0
 20 45  1  0
 20 46  1  0
 21 47  1  0
 21 48  1  0
 22 49  1  0
 23 50  1  0
 25 51  1  0
 32 52  1  0
 33 53  1  0
 33 54  1  0
 34 55  1  0
 34 56  1  0
M  CHG  3   6  -1   9  -1  27  -1
M  END
>  <UniqueID>  (26) 
26

>  <SMILES>  (26) 
Cc1ccc([N-]C(=O)[N-]c2cc(S(=O)(=O)N3CCOCC3)ccc2O)c([O-])c1S(=O)(=O)C1CC1

>  <Energy>  (26) 
341.83826403991145

>  <Genealogy>  (26) 
Cc1ccc([N-]C(=O)[N-]c2cc(S(=O)(=O)N3CCOCC3)ccc2O)c([O-])c1S(=O)(=O)C1CC1 (protonated)
Cc1ccc([N-]C(=O)[N-]c2cc(S(=O)(=O)N3CCOCC3)ccc2O)c([O-])c1S(=O)(=O)C1CC1 (3D coordinates assigned)
Cc1ccc([N-]C(=O)[N-]c2cc(S(=O)(=O)N3CCOCC3)ccc2O)c([O-])c1S(=O)(=O)C1CC1 (nonaromatic ring conformer: 341.83826403991145 kcal/mol)

>  <smiles>  (26) 
Cc1ccc(NC(=O)Nc2cc(S(=O)(=O)N3CCOCC3)ccc2O)c(O)c1S(=O)(=O)C1CC1

>  <score_type>  (26) 
oracle

>  <origin>  (26) 
adgpu

>  <m_score__min__energy>  (26) 
-15.81

>  <m_primary>  (26) 
energy

$$$$
26:0
     RDKit          3D

 68 72  0  0  0  0  0  0  0  0999 V2000
   -7.5930   22.3680  -30.9510 C   0  0  0  0  0  0  0  0  0  0  0  0
   -7.1190   21.1190  -31.6450 C   0  0  0  0  0  0  0  0  0  0  0  0
   -7.9350   19.9750  -31.5940 C   0  0  0  0  0  0  0  0  0  0  0  0
   -7.5400   18.7850  -32.2010 C   0  0  0  0  0  0  0  0  0  0  0  0
   -6.3300   18.7130  -32.8880 C   0  0  0  0  0  0  0  0  0  0  0  0
   -5.9380   17.4540  -33.4510 N   0  0  0  0  0  0  0  0  0  0  0  0
   -5.0450   17.3240  -34.5610 C   0  0  0  0  0  0  0  0  0  0  0  0
   -5.3820   17.7640  -35.6920 O   0  0  0  0  0  0  0  0  0  0  0  0
   -3.8350   16.5770  -34.3950 N   0  0  0  0  0  0  0  0  0  0  0  0
   -2.5840   17.1390  -33.9830 C   0  0  0  0  0  0  0  0  0  0  0  0
   -2.4260   17.7610  -32.7330 C   0  0  0  0  0  0  0  0  0  0  0  0
   -1.2240   18.4010  -32.4150 C   0  0  0  0  0  0  0  0  0  0  0  0
   -0.1750   18.4350  -33.3450 C   0  0  0  0  0  0  0  0  0  0  0  0
    1.2750   19.3840  -33.0120 S   0  0  0  0  0  0  0  0  0  0  0  0
    2.4920   18.6000  -33.4190 O   0  0  0  0  0  0  0  0  0  0  0  0
    1.3620   19.6460  -31.5330 O   0  0  0  0  0  0  0  0  0  0  0  0
    1.2520   20.9040  -33.8730 N   0  0  0  0  0  0  0  0  0  0  0  0
    0.1270   20.9530  -34.8160 C   0  0  0  0  0  0  0  0  0  0  0  0
    0.0930   22.3330  -35.5130 C   0  0  0  0  0  0  0  0  0  0  0  0
    1.2950   23.0680  -35.3340 O   0  0  0  0  0  0  0  0  0  0  0  0
    2.4090   22.2470  -35.6220 C   0  0  0  0  0  0  0  0  0  0  0  0
    2.5260   21.1070  -34.5890 C   0  0  0  0  0  0  0  0  0  0  0  0
   -0.3140   17.7630  -34.5680 C   0  0  0  0  0  0  0  0  0  0  0  0
   -1.5090   17.1080  -34.8790 C   0  0  0  0  0  0  0  0  0  0  0  0
   -5.5350   19.8750  -33.0240 C   0  0  0  0  0  0  0  0  0  0  0  0
   -4.4140   19.8910  -33.8560 O   0  0  0  0  0  0  0  0  0  0  0  0
   -5.8840   21.0580  -32.3440 C   0  0  0  0  0  0  0  0  0  0  0  0
   -4.7170   22.4050  -32.3990 S   0  0  0  0  0  0  0  0  0  0  0  0
   -3.9500   22.3210  -33.6910 O   0  0  0  0  0  0  0  0  0  0  0  0
   -5.3640   23.7600  -32.3130 O   0  0  0  0  0  0  0  0  0  0  0  0
   -3.6230   22.2410  -31.0580 N   0  0  0  0  0  0  0  0  0  0  0  0
   -3.8130   22.8590  -29.7950 C   0  0  0  0  0  0  0  0  0  0  0  0
   -4.5890   23.9900  -29.5190 C   0  0  0  0  0  0  0  0  0  0  0  0
   -4.6150   24.4760  -28.2010 C   0  0  0  0  0  0  0  0  0  0  0  0
   -3.8790   23.8250  -27.1910 C   0  0  0  0  0  0  0  0  0  0  0  0
   -3.1120   22.6850  -27.4970 C   0  0  0  0  0  0  0  0  0  0  0  0
   -3.0960   22.2260  -28.8170 C   0  0  0  0  0  0  0  0  0  0  0  0
   -2.3510   21.0660  -29.3830 C   0  0  0  0  0  0  0  0  0  0  0  0
   -2.6440   21.1600  -30.9120 C   0  0  2  0  0  0  0  0  0  0  0  0
   -1.3790   21.4980  -31.7090 C   0  0  0  0  0  0  0  0  0  0  0  0
   -7.5388   22.2252  -29.8617 H   0  0  0  0  0  0  0  0  0  0  0  0
   -6.9536   23.2144  -31.2421 H   0  0  0  0  0  0  0  0  0  0  0  0
   -8.6330   22.5770  -31.2421 H   0  0  0  0  0  0  0  0  0  0  0  0
   -8.8995   20.0204  -31.0670 H   0  0  0  0  0  0  0  0  0  0  0  0
   -8.1868   17.8975  -32.1376 H   0  0  0  0  0  0  0  0  0  0  0  0
   -3.2491   17.7445  -32.0034 H   0  0  0  0  0  0  0  0  0  0  0  0
   -1.1009   18.8793  -31.4321 H   0  0  0  0  0  0  0  0  0  0  0  0
    0.2490   20.1638  -35.5725 H   0  0  0  0  0  0  0  0  0  0  0  0
   -0.8146   20.7970  -34.2692 H   0  0  0  0  0  0  0  0  0  0  0  0
   -0.0681   22.1792  -36.5902 H   0  0  0  0  0  0  0  0  0  0  0  0
   -0.7225   22.9145  -35.0583 H   0  0  0  0  0  0  0  0  0  0  0  0
    2.2888   21.8139  -36.6260 H   0  0  0  0  0  0  0  0  0  0  0  0
    3.3215   22.8598  -35.5782 H   0  0  0  0  0  0  0  0  0  0  0  0
    2.7971   20.1769  -35.1100 H   0  0  0  0  0  0  0  0  0  0  0  0
    3.2988   21.3794  -33.8551 H   0  0  0  0  0  0  0  0  0  0  0  0
    0.5202   17.7513  -35.2850 H   0  0  0  0  0  0  0  0  0  0  0  0
   -1.6050   16.5661  -35.8315 H   0  0  0  0  0  0  0  0  0  0  0  0
   -4.1470   19.1150  -34.4460 H   0  0  0  0  0  0  0  0  0  0  0  0
   -5.1645   24.4864  -30.3142 H   0  0  0  0  0  0  0  0  0  0  0  0
   -5.2116   25.3673  -27.9568 H   0  0  0  0  0  0  0  0  0  0  0  0
   -3.9039   24.2088  -26.1604 H   0  0  0  0  0  0  0  0  0  0  0  0
   -2.5380   22.1669  -26.7146 H   0  0  0  0  0  0  0  0  0  0  0  0
   -1.2731   21.1547  -29.1825 H   0  0  0  0  0  0  0  0  0  0  0  0
   -2.6567   20.1042  -28.9453 H   0  0  0  0  0  0  0  0  0  0  0  0
   -3.0136   20.1987  -31.2983 H   0  0  0  0  0  0  0  0  0  0  0  0
   -0.5555   21.7180  -31.0138 H   0  0  0  0  0  0  0  0  0  0  0  0
   -1.1050   20.6415  -32.3426 H   0  0  0  0  0  0  0  0  0  0  0  0
   -1.5687   22.3770  -32.3426 H   0  0  0  0  0  0  0  0  0  0  0  0
  1  2  1  0
  2  3  2  0
  3  4  1  0
  4  5  2  0
  5  6  1  0
  6  7  1  0
  7  8  2  0
  7  9  1  0
  9 10  1  0
 10 11  2  0
 11 12  1  0
 12 13  2  0
 13 14  1  0
 14 15  2  0
 14 16  2  0
 14 17  1  0
 17 18  1  0
 18 19  1  0
 19 20  1  0
 20 21  1  0
 21 22  1  0
 13 23  1  0
 23 24  2  0
  5 25  1  0
 25 26  1  0
 25 27  2  0
 27 28  1  0
 28 29  2  0
 28 30  2  0
 28 31  1  0
 31 32  1  0
 32 33  2  0
 33 34  1  0
 34 35  2  0
 35 36  1  0
 36 37  2  0
 37 38  1  0
 38 39  1  0
 39 40  1  0
 27  2  1  0
 39 31  1  0
 24 10  1  0
 37 32  1  0
 22 17  1  0
  1 41  1  0
  1 42  1  0
  1 43  1  0
  3 44  1  0
  4 45  1  0
 11 46  1  0
 12 47  1  0
 18 48  1  0
 18 49  1  0
 19 50  1  0
 19 51  1  0
 21 52  1  0
 21 53  1  0
 22 54  1  0
 22 55  1  0
 23 56  1  0
 24 57  1  0
 26 58  1  0
 33 59  1  0
 34 60  1  0
 35 61  1  0
 36 62  1  0
 38 63  1  0
 38 64  1  0
 39 65  1  6
 40 66  1  0
 40 67  1  0
 40 68  1  0
M  CHG  2   6  -1   9  -1
M  END
>  <UniqueID>  (27) 
27

>  <SMILES>  (27) 
Cc1ccc([N-]C(=O)[N-]c2ccc(S(=O)(=O)N3CCOCC3)cc2)c(O)c1S(=O)(=O)N1c2ccccc2C[C@@H]1C

>  <Energy>  (27) 
108.78532194623335

>  <Genealogy>  (27) 
Cc1ccc([N-]C(=O)[N-]c2ccc(S(=O)(=O)N3CCOCC3)cc2)c(O)c1S(=O)(=O)N1c2ccccc2CC1C (protonated)
Cc1ccc([N-]C(=O)[N-]c2ccc(S(=O)(=O)N3CCOCC3)cc2)c(O)c1S(=O)(=O)N1c2ccccc2C[C@@H]1C (chirality)
Cc1ccc([N-]C(=O)[N-]c2ccc(S(=O)(=O)N3CCOCC3)cc2)c(O)c1S(=O)(=O)N1c2ccccc2C[C@@H]1C (3D coordinates assigned)
Cc1ccc([N-]C(=O)[N-]c2ccc(S(=O)(=O)N3CCOCC3)cc2)c(O)c1S(=O)(=O)N1c2ccccc2C[C@@H]1C (nonaromatic ring conformer: 108.78532194623335 kcal/mol)

>  <smiles>  (27) 
Cc1ccc(NC(=O)Nc2ccc(S(=O)(=O)N3CCOCC3)cc2)c(O)c1S(=O)(=O)N1c2ccccc2CC1C

>  <score_type>  (27) 
oracle

>  <origin>  (27) 
adgpu

>  <m_score__min__energy>  (27) 
-15.130000000000001

>  <m_primary>  (27) 
energy

$$$$
27:0
     RDKit          3D

 46 48  0  0  0  0  0  0  0  0999 V2000
   -5.1160   15.4930  -34.0670 C   0  0  0  0  0  0  0  0  0  0  0  0
   -5.5570   16.8740  -34.2540 N   0  0  0  0  0  0  0  0  0  0  0  0
   -4.9860   17.6680  -35.3450 C   0  0  0  0  0  0  0  0  0  0  0  0
   -6.6100   17.3960  -33.4200 C   0  0  0  0  0  0  0  0  0  0  0  0
   -7.5760   16.6490  -33.1060 O   0  0  0  0  0  0  0  0  0  0  0  0
   -6.5890   18.7830  -32.9110 C   0  0  0  0  0  0  0  0  0  0  0  0
   -7.7670   19.4400  -32.5270 C   0  0  0  0  0  0  0  0  0  0  0  0
   -7.7110   20.7600  -32.0680 C   0  0  0  0  0  0  0  0  0  0  0  0
   -8.7750   21.3390  -31.7200 O   0  0  0  0  0  0  0  0  0  0  0  0
   -6.4720   21.4240  -32.0030 C   0  0  0  0  0  0  0  0  0  0  0  0
   -6.3590   22.7500  -31.5480 C   0  0  0  0  0  0  0  0  0  0  0  0
   -5.1050   23.3900  -31.5020 C   0  0  0  0  0  0  0  0  0  0  0  0
   -4.9910   24.7870  -31.0220 C   0  0  0  0  0  0  0  0  0  0  0  0
   -5.9590   25.5840  -31.1610 O   0  0  0  0  0  0  0  0  0  0  0  0
   -3.7990   25.2260  -30.3570 N   0  0  0  0  0  0  0  0  0  0  0  0
   -3.1350   24.5250  -29.2960 C   0  0  0  0  0  0  0  0  0  0  0  0
   -3.7270   23.3630  -28.7930 C   0  0  0  0  0  0  0  0  0  0  0  0
   -3.1220   22.6560  -27.7550 C   0  0  0  0  0  0  0  0  0  0  0  0
   -1.9040   23.0850  -27.2240 C   0  0  0  0  0  0  0  0  0  0  0  0
   -1.3460   22.3760  -26.1670 O   0  0  0  0  0  0  0  0  0  0  0  0
   -1.2620   24.2200  -27.7550 C   0  0  0  0  0  0  0  0  0  0  0  0
    0.2950   24.7620  -27.1030 S   0  0  0  0  0  0  0  0  0  0  0  0
    0.1070   26.3930  -26.4240 C   0  0  0  0  0  0  0  0  0  0  0  0
    1.3310   24.7890  -28.1920 O   0  0  0  0  0  0  0  0  0  0  0  0
    0.7710   23.8270  -26.0270 O   0  0  0  0  0  0  0  0  0  0  0  0
   -1.8840   24.9410  -28.7950 C   0  0  0  0  0  0  0  0  0  0  0  0
   -1.2510   26.0510  -29.3470 O   0  0  0  0  0  0  0  0  0  0  0  0
   -3.9630   22.6830  -31.9200 C   0  0  0  0  0  0  0  0  0  0  0  0
   -4.0670   21.3660  -32.3730 C   0  0  0  0  0  0  0  0  0  0  0  0
   -5.3120   20.7330  -32.4160 C   0  0  0  0  0  0  0  0  0  0  0  0
   -5.4040   19.4500  -32.8580 N   0  0  0  0  0  0  0  0  0  0  0  0
   -5.0457   15.2730  -32.9915 H   0  0  0  0  0  0  0  0  0  0  0  0
   -5.8408   14.8102  -34.5344 H   0  0  0  0  0  0  0  0  0  0  0  0
   -4.1296   15.3566  -34.5344 H   0  0  0  0  0  0  0  0  0  0  0  0
   -4.3922   18.4936  -34.9258 H   0  0  0  0  0  0  0  0  0  0  0  0
   -4.3394   17.0288  -35.9642 H   0  0  0  0  0  0  0  0  0  0  0  0
   -5.7977   18.0776  -35.9642 H   0  0  0  0  0  0  0  0  0  0  0  0
   -8.7334   18.9180  -32.5867 H   0  0  0  0  0  0  0  0  0  0  0  0
   -7.2593   23.2930  -31.2247 H   0  0  0  0  0  0  0  0  0  0  0  0
   -4.6758   23.0043  -29.2187 H   0  0  0  0  0  0  0  0  0  0  0  0
   -3.6071   21.7548  -27.3519 H   0  0  0  0  0  0  0  0  0  0  0  0
    0.1136   26.3359  -25.3255 H   0  0  0  0  0  0  0  0  0  0  0  0
    0.9377   27.0293  -26.7631 H   0  0  0  0  0  0  0  0  0  0  0  0
   -0.8467   26.8236  -26.7631 H   0  0  0  0  0  0  0  0  0  0  0  0
   -2.9783   23.1723  -31.8898 H   0  0  0  0  0  0  0  0  0  0  0  0
   -3.1657   20.8251  -32.6971 H   0  0  0  0  0  0  0  0  0  0  0  0
  1  2  1  0
  2  3  1  0
  2  4  1  0
  4  5  2  0
  4  6  1  0
  6  7  2  0
  7  8  1  0
  8  9  2  0
  8 10  1  0
 10 11  2  0
 11 12  1  0
 12 13  1  0
 13 14  2  0
 13 15  1  0
 15 16  1  0
 16 17  2  0
 17 18  1  0
 18 19  2  0
 19 20  1  0
 19 21  1  0
 21 22  1  0
 22 23  1  0
 22 24  2  0
 22 25  2  0
 21 26  2  0
 26 27  1  0
 12 28  2  0
 28 29  1  0
 29 30  2  0
 30 31  1  0
 31  6  1  0
 30 10  1  0
 26 16  1  0
  1 32  1  0
  1 33  1  0
  1 34  1  0
  3 35  1  0
  3 36  1  0
  3 37  1  0
  7 38  1  0
 11 39  1  0
 17 40  1  0
 18 41  1  0
 23 42  1  0
 23 43  1  0
 23 44  1  0
 28 45  1  0
 29 46  1  0
M  CHG  4  15  -1  20  -1  27  -1  31  -1
M  END
>  <UniqueID>  (28) 
28

>  <SMILES>  (28) 
CN(C)C(=O)c1cc(=O)c2cc(C(=O)[N-]c3ccc([O-])c(S(C)(=O)=O)c3[O-])ccc2[n-]1

>  <Energy>  (28) 
61.76416219617113

>  <Genealogy>  (28) 
CN(C)C(=O)c1cc(=O)c2cc(C(=O)[N-]c3ccc([O-])c(S(C)(=O)=O)c3[O-])ccc2[n-]1 (protonated)
CN(C)C(=O)c1cc(=O)c2cc(C(=O)[N-]c3ccc([O-])c(S(C)(=O)=O)c3[O-])ccc2[n-]1 (3D coordinates assigned)
CN(C)C(=O)c1cc(=O)c2cc(C(=O)[N-]c3ccc([O-])c(S(C)(=O)=O)c3[O-])ccc2[n-]1 (optimized conformer: 61.76416219617113 kcal/mol)

>  <smiles>  (28) 
CN(C)C(=O)c1cc(=O)c2cc(C(=O)Nc3ccc(O)c(S(C)(=O)=O)c3O)ccc2[nH]1

>  <score_type>  (28) 
oracle

>  <origin>  (28) 
adgpu

>  <m_score__min__energy>  (28) 
-14.800000000000001

>  <m_primary>  (28) 
energy

$$$$
28:0
     RDKit          3D

 58 61  0  0  0  0  0  0  0  0999 V2000
   -1.5700   18.9380  -26.1620 H   0  0  0  0  0  0  0  0  0  0  0  0
   -1.7000   19.2200  -27.1620 N   0  0  0  0  0  0  0  0  0  0  0  0
   -1.5390   20.4410  -27.5650 C   0  0  0  0  0  0  0  0  0  0  0  0
   -1.7260   20.7370  -28.8760 N   0  0  0  0  0  0  0  0  0  0  0  0
   -1.5760   21.9950  -29.3740 C   0  0  0  0  0  0  0  0  0  0  0  0
   -1.8150   22.2030  -30.8410 C   0  0  0  0  0  0  0  0  0  0  0  0
   -2.6381   22.9193  -30.9805 H   0  0  0  0  0  0  0  0  0  0  0  0
   -0.9014   22.5986  -31.3089 H   0  0  0  0  0  0  0  0  0  0  0  0
   -2.0807   21.2436  -31.3089 H   0  0  0  0  0  0  0  0  0  0  0  0
   -1.1860   23.0520  -28.5130 C   0  0  0  0  0  0  0  0  0  0  0  0
   -1.0000   24.4620  -29.0370 C   0  0  0  0  0  0  0  0  0  0  0  0
   -0.3232   25.0159  -28.3698 H   0  0  0  0  0  0  0  0  0  0  0  0
   -0.5662   24.4259  -30.0472 H   0  0  0  0  0  0  0  0  0  0  0  0
   -2.2920   25.1310  -29.0840 N   0  0  0  0  0  0  0  0  0  0  0  0
   -3.5480   24.5530  -28.7020 C   0  0  0  0  0  0  0  0  0  0  0  0
   -3.6670   24.0970  -27.5340 O   0  0  0  0  0  0  0  0  0  0  0  0
   -4.7150   24.5050  -29.6040 C   0  0  0  0  0  0  0  0  0  0  0  0
   -5.9280   25.1420  -29.4050 C   0  0  0  0  0  0  0  0  0  0  0  0
   -6.1643   25.8120  -28.5652 H   0  0  0  0  0  0  0  0  0  0  0  0
   -6.7740   24.8130  -30.4010 N   0  0  0  0  0  0  0  0  0  0  0  0
   -6.1320   23.9890  -31.2140 N   0  0  0  0  0  0  0  0  0  0  0  0
   -6.7410   23.3460  -32.3720 C   0  0  0  0  0  0  0  0  0  0  0  0
   -7.8314   23.3038  -32.2334 H   0  0  0  0  0  0  0  0  0  0  0  0
   -6.5012   23.9272  -33.2746 H   0  0  0  0  0  0  0  0  0  0  0  0
   -6.2010   21.9400  -32.5290 C   0  0  0  0  0  0  0  0  0  0  0  0
   -4.8410   21.8000  -32.8510 C   0  0  0  0  0  0  0  0  0  0  0  0
   -4.2202   22.6979  -32.9863 H   0  0  0  0  0  0  0  0  0  0  0  0
   -4.2690   20.5420  -33.0010 C   0  0  0  0  0  0  0  0  0  0  0  0
   -3.2059   20.4537  -33.2694 H   0  0  0  0  0  0  0  0  0  0  0  0
   -5.0320   19.3940  -32.8140 C   0  0  0  0  0  0  0  0  0  0  0  0
   -4.5698   18.4054  -32.9521 H   0  0  0  0  0  0  0  0  0  0  0  0
   -6.3890   19.4830  -32.4500 C   0  0  0  0  0  0  0  0  0  0  0  0
   -7.1720   18.3160  -32.2470 C   0  0  0  0  0  0  0  0  0  0  0  0
   -6.5900   17.0040  -32.3270 N   0  0  0  0  0  0  0  0  0  0  0  0
   -6.3620   16.4760  -31.4550 H   0  0  0  0  0  0  0  0  0  0  0  0
   -6.1460   16.2810  -33.8400 S   0  0  0  0  0  0  0  0  0  0  0  0
   -6.0510   17.3380  -34.9030 O   0  0  0  0  0  0  0  0  0  0  0  0
   -7.1950   15.2780  -34.2330 O   0  0  0  0  0  0  0  0  0  0  0  0
   -4.5890   15.4350  -33.6790 C   0  0  0  0  0  0  0  0  0  0  0  0
   -4.3506   15.3055  -32.6130 H   0  0  0  0  0  0  0  0  0  0  0  0
   -4.6557   14.4491  -34.1622 H   0  0  0  0  0  0  0  0  0  0  0  0
   -3.7981   16.0274  -34.1622 H   0  0  0  0  0  0  0  0  0  0  0  0
   -8.5310   18.4440  -31.9270 C   0  0  0  0  0  0  0  0  0  0  0  0
   -9.1425   17.5413  -31.7812 H   0  0  0  0  0  0  0  0  0  0  0  0
   -9.1140   19.6970  -31.7920 C   0  0  0  0  0  0  0  0  0  0  0  0
  -10.1814   19.7787  -31.5389 H   0  0  0  0  0  0  0  0  0  0  0  0
   -8.3560   20.8510  -31.9750 C   0  0  0  0  0  0  0  0  0  0  0  0
   -8.8294   21.8365  -31.8538 H   0  0  0  0  0  0  0  0  0  0  0  0
   -6.9880   20.7720  -32.3140 C   0  0  0  0  0  0  0  0  0  0  0  0
   -4.8850   23.7620  -30.7560 C   0  0  0  0  0  0  0  0  0  0  0  0
   -4.1356   23.1022  -31.2176 H   0  0  0  0  0  0  0  0  0  0  0  0
   -1.0270   22.7700  -27.1310 C   0  0  0  0  0  0  0  0  0  0  0  0
   -0.6560   23.8420  -26.1370 C   0  0  0  0  0  0  0  0  0  0  0  0
   -0.7893   23.4567  -25.1153 H   0  0  0  0  0  0  0  0  0  0  0  0
    0.3947   24.1318  -26.2854 H   0  0  0  0  0  0  0  0  0  0  0  0
   -1.3028   24.7193  -26.2854 H   0  0  0  0  0  0  0  0  0  0  0  0
   -1.1870   21.4550  -26.6700 C   0  0  0  0  0  0  0  0  0  0  0  0
   -1.0357   21.2222  -25.6056 H   0  0  0  0  0  0  0  0  0  0  0  0
  1  2  1  0
  2  3  2  0
  3  4  1  0
  4  5  1  0
  5  6  1  0
  6  7  1  0
  6  8  1  0
  6  9  1  0
  5 10  2  0
 10 11  1  0
 11 12  1  0
 11 13  1  0
 11 14  1  0
 14 15  1  0
 15 16  2  0
 15 17  1  0
 17 18  1  0
 18 19  1  0
 18 20  2  0
 20 21  1  0
 21 22  1  0
 22 23  1  0
 22 24  1  0
 22 25  1  0
 25 26  2  0
 26 27  1  0
 26 28  1  0
 28 29  1  0
 28 30  2  0
 30 31  1  0
 30 32  1  0
 32 33  2  0
 33 34  1  0
 34 35  1  0
 34 36  1  0
 36 37  2  0
 36 38  2  0
 36 39  1  0
 39 40  1  0
 39 41  1  0
 39 42  1  0
 33 43  1  0
 43 44  1  0
 43 45  2  0
 45 46  1  0
 45 47  1  0
 47 48  1  0
 47 49  2  0
 21 50  1  0
 50 51  1  0
 10 52  1  0
 52 53  1  0
 53 54  1  0
 53 55  1  0
 53 56  1  0
 52 57  2  0
 57 58  1  0
 57  3  1  0
 50 17  2  0
 49 25  1  0
 49 32  1  0
M  CHG  2   4  -1  14  -1
M  END
>  <UniqueID>  (29) 
29

>  <SMILES>  (29) 
[H]/N=c1\cc(C)c(C[N-]C(=O)c2cnn(Cc3cccc4c(NS(C)(=O)=O)cccc34)c2)c(C)[n-]1

>  <Energy>  (29) 
103.07311368084414

>  <Genealogy>  (29) 
Cc1cc(=N)[n-]c(C)c1C[N-]C(=O)c1cnn(Cc2cccc3c(NS(C)(=O)=O)cccc23)c1 (protonated)
[H]/N=c1\cc(C)c(C[N-]C(=O)c2cnn(Cc3cccc4c(NS(C)(=O)=O)cccc34)c2)c(C)[n-]1 (cis-trans isomerization)
[H]/N=c1\cc(C)c(C[N-]C(=O)c2cnn(Cc3cccc4c(NS(C)(=O)=O)cccc34)c2)c(C)[n-]1 (3D coordinates assigned)
[H]/N=c1\cc(C)c(C[N-]C(=O)c2cnn(Cc3cccc4c(NS(C)(=O)=O)cccc34)c2)c(C)[n-]1 (optimized conformer: 103.07311368084414 kcal/mol)

>  <smiles>  (29) 
Cc1cc(=N)[nH]c(C)c1CNC(=O)c1cnn(Cc2cccc3c(NS(C)(=O)=O)cccc23)c1

>  <score_type>  (29) 
oracle

>  <origin>  (29) 
adgpu

>  <m_score__min__energy>  (29) 
-12.25

>  <m_primary>  (29) 
energy

$$$$
29:0
     RDKit          3D

 64 67  0  0  0  0  0  0  0  0999 V2000
   -6.5040   25.6740  -29.4510 C   0  0  0  0  0  0  0  0  0  0  0  0
   -6.3500   25.1520  -30.7670 O   0  0  0  0  0  0  0  0  0  0  0  0
   -6.3630   23.7860  -31.0930 C   0  0  0  0  0  0  0  0  0  0  0  0
   -7.4270   23.2090  -31.8120 C   0  0  0  0  0  0  0  0  0  0  0  0
   -7.4050   21.8550  -32.1470 C   0  0  0  0  0  0  0  0  0  0  0  0
   -6.3160   21.0510  -31.7880 C   0  0  0  0  0  0  0  0  0  0  0  0
   -6.3220   19.6560  -32.1380 N   0  0  0  0  0  0  0  0  0  0  0  0
   -6.3580   19.1740  -33.4930 C   0  0  0  0  0  0  0  0  0  0  0  0
   -6.7600   19.9330  -34.4170 O   0  0  0  0  0  0  0  0  0  0  0  0
   -5.9590   17.7810  -33.8150 C   0  0  0  0  0  0  0  0  0  0  0  0
   -6.8500   16.7090  -33.6230 C   0  0  0  0  0  0  0  0  0  0  0  0
   -6.4570   15.4000  -33.9170 C   0  0  0  0  0  0  0  0  0  0  0  0
   -5.1710   15.1380  -34.4070 C   0  0  0  0  0  0  0  0  0  0  0  0
   -4.6810   13.4830  -34.7810 S   0  0  0  0  0  0  0  0  0  0  0  0
   -3.6830   13.5060  -35.9040 O   0  0  0  0  0  0  0  0  0  0  0  0
   -5.8810   12.7030  -35.2410 O   0  0  0  0  0  0  0  0  0  0  0  0
   -3.9760   12.6880  -33.3920 N   0  0  0  0  0  0  0  0  0  0  0  0
   -2.8300   13.4650  -32.8830 C   0  0  0  0  0  0  0  0  0  0  0  0
   -2.5160   13.0760  -31.4280 C   0  0  0  0  0  0  0  0  0  0  0  0
   -3.5930   13.2900  -30.5220 O   0  0  0  0  0  0  0  0  0  0  0  0
   -4.8670   13.3440  -31.1470 C   0  0  0  0  0  0  0  0  0  0  0  0
   -4.9880   12.3970  -32.3540 C   0  0  0  0  0  0  0  0  0  0  0  0
   -4.2750   16.1990  -34.5860 C   0  0  0  0  0  0  0  0  0  0  0  0
   -4.6640   17.5090  -34.2930 C   0  0  0  0  0  0  0  0  0  0  0  0
   -5.2650   21.6160  -31.0470 C   0  0  0  0  0  0  0  0  0  0  0  0
   -5.2800   22.9730  -30.6980 C   0  0  0  0  0  0  0  0  0  0  0  0
   -3.9060   23.6400  -29.8010 S   0  0  0  0  0  0  0  0  0  0  0  0
   -3.4340   24.9220  -30.4270 O   0  0  0  0  0  0  0  0  0  0  0  0
   -4.3590   23.9540  -28.4030 O   0  0  0  0  0  0  0  0  0  0  0  0
   -2.5890   22.5030  -29.7100 N   0  0  0  0  0  0  0  0  0  0  0  0
   -1.6230   22.6800  -30.7980 C   0  0  0  0  0  0  0  0  0  0  0  0
   -1.7050   21.5450  -31.8300 C   0  0  1  0  0  0  0  0  0  0  0  0
   -2.2620   20.2610  -31.2380 C   0  0  0  0  0  0  0  0  0  0  0  0
   -2.9640   19.6240  -32.4040 C   0  0  0  0  0  0  0  0  0  0  0  0
   -3.1120   20.7530  -33.4140 C   0  0  0  0  0  0  0  0  0  0  0  0
   -2.5480   21.9330  -32.8880 O   0  0  0  0  0  0  0  0  0  0  0  0
   -6.2725   24.8892  -28.7158 H   0  0  0  0  0  0  0  0  0  0  0  0
   -5.8178   26.5221  -29.3103 H   0  0  0  0  0  0  0  0  0  0  0  0
   -7.5407   26.0139  -29.3103 H   0  0  0  0  0  0  0  0  0  0  0  0
   -8.2830   23.8312  -32.1122 H   0  0  0  0  0  0  0  0  0  0  0  0
   -8.2498   21.4153  -32.6975 H   0  0  0  0  0  0  0  0  0  0  0  0
   -6.4420   18.9600  -31.3670 H   0  0  0  0  0  0  0  0  0  0  0  0
   -7.8625   16.9022  -33.2390 H   0  0  0  0  0  0  0  0  0  0  0  0
   -7.1623   14.5701  -33.7625 H   0  0  0  0  0  0  0  0  0  0  0  0
   -1.9489   13.2625  -33.5096 H   0  0  0  0  0  0  0  0  0  0  0  0
   -3.0834   14.5349  -32.9174 H   0  0  0  0  0  0  0  0  0  0  0  0
   -2.2530   12.0081  -31.4054 H   0  0  0  0  0  0  0  0  0  0  0  0
   -1.6913   13.7248  -31.0980 H   0  0  0  0  0  0  0  0  0  0  0  0
   -5.6321   13.0671  -30.4067 H   0  0  0  0  0  0  0  0  0  0  0  0
   -5.0063   14.3696  -31.5195 H   0  0  0  0  0  0  0  0  0  0  0  0
   -4.8534   11.3617  -32.0076 H   0  0  0  0  0  0  0  0  0  0  0  0
   -5.9829   12.5420  -32.8003 H   0  0  0  0  0  0  0  0  0  0  0  0
   -3.2595   16.0004  -34.9592 H   0  0  0  0  0  0  0  0  0  0  0  0
   -3.9515   18.3346  -34.4374 H   0  0  0  0  0  0  0  0  0  0  0  0
   -4.4191   20.9850  -30.7366 H   0  0  0  0  0  0  0  0  0  0  0  0
   -1.8283   23.6352  -31.3034 H   0  0  0  0  0  0  0  0  0  0  0  0
   -0.6135   22.6702  -30.3613 H   0  0  0  0  0  0  0  0  0  0  0  0
   -0.6791   21.3543  -32.1781 H   0  0  0  0  0  0  0  0  0  0  0  0
   -1.4537   19.6158  -30.8634 H   0  0  0  0  0  0  0  0  0  0  0  0
   -2.9241   20.4338  -30.3768 H   0  0  0  0  0  0  0  0  0  0  0  0
   -2.3613   18.8039  -32.8214 H   0  0  0  0  0  0  0  0  0  0  0  0
   -3.9309   19.1814  -32.1226 H   0  0  0  0  0  0  0  0  0  0  0  0
   -2.5926   20.4821  -34.3451 H   0  0  0  0  0  0  0  0  0  0  0  0
   -4.1790   20.9191  -33.6235 H   0  0  0  0  0  0  0  0  0  0  0  0
  1  2  1  0
  2  3  1  0
  3  4  2  0
  4  5  1  0
  5  6  2  0
  6  7  1  0
  7  8  1  0
  8  9  2  0
  8 10  1  0
 10 11  2  0
 11 12  1  0
 12 13  2  0
 13 14  1  0
 14 15  2  0
 14 16  2  0
 14 17  1  0
 17 18  1  0
 18 19  1  0
 19 20  1  0
 20 21  1  0
 21 22  1  0
 13 23  1  0
 23 24  2  0
  6 25  1  0
 25 26  2  0
 26 27  1  0
 27 28  2  0
 27 29  2  0
 27 30  1  0
 30 31  1  0
 31 32  1  0
 32 33  1  0
 33 34  1  0
 34 35  1  0
 35 36  1  0
 26  3  1  0
 36 32  1  0
 24 10  1  0
 22 17  1  0
  1 37  1  0
  1 38  1  0
  1 39  1  0
  4 40  1  0
  5 41  1  0
  7 42  1  0
 11 43  1  0
 12 44  1  0
 18 45  1  0
 18 46  1  0
 19 47  1  0
 19 48  1  0
 21 49  1  0
 21 50  1  0
 22 51  1  0
 22 52  1  0
 23 53  1  0
 24 54  1  0
 25 55  1  0
 31 56  1  0
 31 57  1  0
 32 58  1  6
 33 59  1  0
 33 60  1  0
 34 61  1  0
 34 62  1  0
 35 63  1  0
 35 64  1  0
M  CHG  1  30  -1
M  END
>  <UniqueID>  (30) 
30

>  <SMILES>  (30) 
COc1ccc(NC(=O)c2ccc(S(=O)(=O)N3CCOCC3)cc2)cc1S(=O)(=O)[N-]C[C@H]1CCCO1

>  <Energy>  (30) 
81.70141377252867

>  <Genealogy>  (30) 
COc1ccc(NC(=O)c2ccc(S(=O)(=O)N3CCOCC3)cc2)cc1S(=O)(=O)[N-]CC1CCCO1 (protonated)
COc1ccc(NC(=O)c2ccc(S(=O)(=O)N3CCOCC3)cc2)cc1S(=O)(=O)[N-]C[C@H]1CCCO1 (chirality)
COc1ccc(NC(=O)c2ccc(S(=O)(=O)N3CCOCC3)cc2)cc1S(=O)(=O)[N-]C[C@H]1CCCO1 (3D coordinates assigned)
COc1ccc(NC(=O)c2ccc(S(=O)(=O)N3CCOCC3)cc2)cc1S(=O)(=O)[N-]C[C@H]1CCCO1 (nonaromatic ring conformer: 81.70141377252867 kcal/mol)

>  <smiles>  (30) 
COc1ccc(NC(=O)c2ccc(S(=O)(=O)N3CCOCC3)cc2)cc1S(=O)(=O)NCC1CCCO1

>  <score_type>  (30) 
oracle

>  <origin>  (30) 
adgpu

>  <m_score__min__energy>  (30) 
-10.75

>  <m_primary>  (30) 
energy

$$$$
30:0
     RDKit          3D

 39 41  0  0  0  0  0  0  0  0999 V2000
    1.7310   24.1710  -27.1230 C   0  0  0  0  0  0  0  0  0  0  0  0
    0.8640   24.2110  -28.2520 O   0  0  0  0  0  0  0  0  0  0  0  0
   -0.5330   24.3190  -28.1740 C   0  0  0  0  0  0  0  0  0  0  0  0
   -1.1390   24.1980  -26.9190 C   0  0  0  0  0  0  0  0  0  0  0  0
   -2.5260   24.3090  -26.7890 C   0  0  0  0  0  0  0  0  0  0  0  0
   -3.3210   24.5330  -27.9160 C   0  0  0  0  0  0  0  0  0  0  0  0
   -2.7310   24.6340  -29.1880 C   0  0  0  0  0  0  0  0  0  0  0  0
   -3.5050   24.8830  -30.3690 N   0  0  0  0  0  0  0  0  0  0  0  0
   -4.6690   24.1640  -30.7970 C   0  0  0  0  0  0  0  0  0  0  0  0
   -5.3220   24.5340  -31.8100 O   0  0  0  0  0  0  0  0  0  0  0  0
   -5.1700   23.0220  -29.9740 C   0  0  0  0  0  0  0  0  0  0  0  0
   -3.8780   21.7400  -29.8190 S   0  0  0  0  0  0  0  0  0  0  0  0
   -3.6120   21.5700  -31.5890 C   0  0  0  0  0  0  0  0  0  0  0  0
   -2.4770   21.9440  -32.2050 N   0  0  0  0  0  0  0  0  0  0  0  0
   -2.6230   21.5560  -33.4640 N   0  0  0  0  0  0  0  0  0  0  0  0
   -3.7910   20.9520  -33.6200 N   0  0  0  0  0  0  0  0  0  0  0  0
   -4.4330   20.9520  -32.4640 N   0  0  0  0  0  0  0  0  0  0  0  0
   -5.6900   20.2900  -32.2410 C   0  0  0  0  0  0  0  0  0  0  0  0
   -5.7510   18.9300  -31.8890 C   0  0  0  0  0  0  0  0  0  0  0  0
   -6.9840   18.3110  -31.6640 C   0  0  0  0  0  0  0  0  0  0  0  0
   -8.1730   19.0450  -31.7760 C   0  0  0  0  0  0  0  0  0  0  0  0
   -9.4060   18.4380  -31.5560 O   0  0  0  0  0  0  0  0  0  0  0  0
   -8.1190   20.4010  -32.1100 C   0  0  0  0  0  0  0  0  0  0  0  0
   -6.8860   21.0220  -32.3340 C   0  0  0  0  0  0  0  0  0  0  0  0
   -1.3370   24.5460  -29.3080 C   0  0  0  0  0  0  0  0  0  0  0  0
    1.1329   24.1986  -26.2002 H   0  0  0  0  0  0  0  0  0  0  0  0
    2.3235   23.2446  -27.1483 H   0  0  0  0  0  0  0  0  0  0  0  0
    2.4063   25.0389  -27.1483 H   0  0  0  0  0  0  0  0  0  0  0  0
   -0.5197   24.0143  -26.0286 H   0  0  0  0  0  0  0  0  0  0  0  0
   -2.9930   24.2198  -25.7971 H   0  0  0  0  0  0  0  0  0  0  0  0
   -4.4113   24.6306  -27.8077 H   0  0  0  0  0  0  0  0  0  0  0  0
   -5.4410   23.3875  -28.9725 H   0  0  0  0  0  0  0  0  0  0  0  0
   -6.0514   22.5850  -30.4661 H   0  0  0  0  0  0  0  0  0  0  0  0
   -4.8221   18.3492  -31.7900 H   0  0  0  0  0  0  0  0  0  0  0  0
   -7.0214   17.2443  -31.3981 H   0  0  0  0  0  0  0  0  0  0  0  0
   -9.5420   17.7740  -30.8040 H   0  0  0  0  0  0  0  0  0  0  0  0
   -9.0492   20.9817  -32.1970 H   0  0  0  0  0  0  0  0  0  0  0  0
   -6.8521   22.0924  -32.5851 H   0  0  0  0  0  0  0  0  0  0  0  0
   -0.8670   24.6552  -30.2965 H   0  0  0  0  0  0  0  0  0  0  0  0
  1  2  1  0
  2  3  1  0
  3  4  2  0
  4  5  1  0
  5  6  2  0
  6  7  1  0
  7  8  1  0
  8  9  1  0
  9 10  2  0
  9 11  1  0
 11 12  1  0
 12 13  1  0
 13 14  2  0
 14 15  1  0
 15 16  2  0
 16 17  1  0
 17 18  1  0
 18 19  2  0
 19 20  1  0
 20 21  2  0
 21 22  1  0
 21 23  1  0
 23 24  2  0
  7 25  2  0
 25  3  1  0
 17 13  1  0
 24 18  1  0
  1 26  1  0
  1 27  1  0
  1 28  1  0
  4 29  1  0
  5 30  1  0
  6 31  1  0
 11 32  1  0
 11 33  1  0
 19 34  1  0
 20 35  1  0
 22 36  1  0
 23 37  1  0
 24 38  1  0
 25 39  1  0
M  CHG  1   8  -1
M  END
>  <UniqueID>  (31) 
31

>  <SMILES>  (31) 
COc1cccc([N-]C(=O)CSc2nnnn2-c2ccc(O)cc2)c1

>  <Energy>  (31) 
84.57269269055227

>  <Genealogy>  (31) 
COc1cccc([N-]C(=O)CSc2nnnn2-c2ccc(O)cc2)c1 (protonated)
COc1cccc([N-]C(=O)CSc2nnnn2-c2ccc(O)cc2)c1 (3D coordinates assigned)
COc1cccc([N-]C(=O)CSc2nnnn2-c2ccc(O)cc2)c1 (optimized conformer: 84.57269269055227 kcal/mol)

>  <smiles>  (31) 
COc1cccc(NC(=O)CSc2nnnn2-c2ccc(O)cc2)c1

>  <score_type>  (31) 
oracle

>  <origin>  (31) 
adgpu

>  <m_score__min__energy>  (31) 
-10.26

>  <m_primary>  (31) 
energy

$$$$
31:0
     RDKit          3D

 34 37  0  0  0  0  0  0  0  0999 V2000
    0.5710   24.1500  -28.5810 O   0  0  0  0  0  0  0  0  0  0  0  0
   -0.6740   24.1920  -28.7740 C   0  0  0  0  0  0  0  0  0  0  0  0
   -1.3300   25.3110  -29.1300 N   0  0  0  0  0  0  0  0  0  0  0  0
   -2.6070   24.9770  -29.2430 N   0  0  0  0  0  0  0  0  0  0  0  0
   -2.6990   23.6610  -28.9640 C   0  0  0  0  0  0  0  0  0  0  0  0
   -4.2640   22.7880  -28.8790 S   0  0  0  0  0  0  0  0  0  0  0  0
   -5.0000   23.8480  -30.1220 C   0  0  0  0  0  0  0  0  0  0  0  0
   -5.1130   25.1820  -30.0020 N   0  0  0  0  0  0  0  0  0  0  0  0
   -5.6230   25.5890  -31.1570 N   0  0  0  0  0  0  0  0  0  0  0  0
   -5.8090   24.5530  -31.9630 N   0  0  0  0  0  0  0  0  0  0  0  0
   -5.4270   23.4550  -31.3350 N   0  0  0  0  0  0  0  0  0  0  0  0
   -5.4540   22.1330  -31.8920 C   0  0  0  0  0  0  0  0  0  0  0  0
   -4.2580   21.5290  -32.3140 C   0  0  0  0  0  0  0  0  0  0  0  0
   -4.2680   20.2410  -32.8550 C   0  0  0  0  0  0  0  0  0  0  0  0
   -5.4710   19.5440  -32.9800 C   0  0  0  0  0  0  0  0  0  0  0  0
   -6.6680   20.1360  -32.5650 C   0  0  0  0  0  0  0  0  0  0  0  0
   -6.6670   21.4260  -32.0210 C   0  0  0  0  0  0  0  0  0  0  0  0
   -8.2050   22.1500  -31.5720 Cl  0  0  0  0  0  0  0  0  0  0  0  0
   -1.4940   23.1320  -28.6640 N   0  0  0  0  0  0  0  0  0  0  0  0
   -1.1720   21.7910  -28.2550 C   0  0  0  0  0  0  0  0  0  0  0  0
   -0.2240   21.0400  -28.9710 C   0  0  0  0  0  0  0  0  0  0  0  0
    0.0970   19.7410  -28.5690 C   0  0  0  0  0  0  0  0  0  0  0  0
   -0.5280   19.1780  -27.4540 C   0  0  0  0  0  0  0  0  0  0  0  0
   -1.4780   19.9140  -26.7390 C   0  0  0  0  0  0  0  0  0  0  0  0
   -1.8010   21.2150  -27.1390 C   0  0  0  0  0  0  0  0  0  0  0  0
   -3.3072   22.0738  -32.2178 H   0  0  0  0  0  0  0  0  0  0  0  0
   -3.3268   19.7755  -33.1829 H   0  0  0  0  0  0  0  0  0  0  0  0
   -5.4774   18.5294  -33.4048 H   0  0  0  0  0  0  0  0  0  0  0  0
   -7.6149   19.5855  -32.6665 H   0  0  0  0  0  0  0  0  0  0  0  0
    0.2678   21.4772  -29.8525 H   0  0  0  0  0  0  0  0  0  0  0  0
    0.8432   19.1607  -29.1316 H   0  0  0  0  0  0  0  0  0  0  0  0
   -0.2729   18.1556  -27.1383 H   0  0  0  0  0  0  0  0  0  0  0  0
   -1.9714   19.4699  -25.8619 H   0  0  0  0  0  0  0  0  0  0  0  0
   -2.5515   21.7899  -26.5766 H   0  0  0  0  0  0  0  0  0  0  0  0
  1  2  2  0
  2  3  1  0
  3  4  1  0
  4  5  2  0
  5  6  1  0
  6  7  1  0
  7  8  2  0
  8  9  1  0
  9 10  2  0
 10 11  1  0
 11 12  1  0
 12 13  2  0
 13 14  1  0
 14 15  2  0
 15 16  1  0
 16 17  2  0
 17 18  1  0
  5 19  1  0
 19 20  1  0
 20 21  2  0
 21 22  1  0
 22 23  2  0
 23 24  1  0
 24 25  2  0
 19  2  1  0
 25 20  1  0
 11  7  1  0
 17 12  1  0
 13 26  1  0
 14 27  1  0
 15 28  1  0
 16 29  1  0
 21 30  1  0
 22 31  1  0
 23 32  1  0
 24 33  1  0
 25 34  1  0
M  CHG  1   3  -1
M  END
>  <UniqueID>  (32) 
32

>  <SMILES>  (32) 
O=c1[n-]nc(Sc2nnnn2-c2ccccc2Cl)n1-c1ccccc1

>  <Energy>  (32) 
122.24535784240533

>  <Genealogy>  (32) 
O=c1[n-]nc(Sc2nnnn2-c2ccccc2Cl)n1-c1ccccc1 (protonated)
O=c1[n-]nc(Sc2nnnn2-c2ccccc2Cl)n1-c1ccccc1 (3D coordinates assigned)
O=c1[n-]nc(Sc2nnnn2-c2ccccc2Cl)n1-c1ccccc1 (optimized conformer: 122.24535784240533 kcal/mol)

>  <smiles>  (32) 
O=c1[nH]nc(Sc2nnnn2-c2ccccc2Cl)n1-c1ccccc1

>  <score_type>  (32) 
oracle

>  <origin>  (32) 
adgpu

>  <m_score__min__energy>  (32) 
-10.630000000000001

>  <m_primary>  (32) 
energy

$$$$
32:0
     RDKit          3D

 52 54  0  0  0  0  0  0  0  0999 V2000
   -6.2080   25.2970  -30.2940 C   0  0  0  0  0  0  0  0  0  0  0  0
   -6.3850   24.6760  -31.5630 O   0  0  0  0  0  0  0  0  0  0  0  0
   -6.7200   23.3260  -31.7500 C   0  0  0  0  0  0  0  0  0  0  0  0
   -8.0570   22.9050  -31.8950 C   0  0  0  0  0  0  0  0  0  0  0  0
   -8.3630   21.5480  -32.0200 C   0  0  0  0  0  0  0  0  0  0  0  0
   -7.3440   20.5890  -31.9960 C   0  0  0  0  0  0  0  0  0  0  0  0
   -7.7360   18.8710  -32.1090 S   0  0  0  0  0  0  0  0  0  0  0  0
   -9.2290   18.7080  -32.1760 O   0  0  0  0  0  0  0  0  0  0  0  0
   -7.2470   18.1680  -30.8730 O   0  0  0  0  0  0  0  0  0  0  0  0
   -7.0090   18.1400  -33.5220 N   0  0  0  0  0  0  0  0  0  0  0  0
   -6.1390   19.0990  -34.2480 C   0  0  0  0  0  0  0  0  0  0  0  0
   -4.6430   18.8550  -34.0050 C   0  0  0  0  0  0  0  0  0  0  0  0
   -4.2360   17.4310  -34.4240 C   0  0  0  0  0  0  0  0  0  0  0  0
   -5.3750   16.4100  -34.2450 C   0  0  0  0  0  0  0  0  0  0  0  0
   -6.3560   16.8630  -33.1600 C   0  0  0  0  0  0  0  0  0  0  0  0
   -6.0130   21.0010  -31.8690 C   0  0  0  0  0  0  0  0  0  0  0  0
   -5.6930   22.3610  -31.7640 C   0  0  0  0  0  0  0  0  0  0  0  0
   -4.3160   22.7390  -31.6110 N   0  0  0  0  0  0  0  0  0  0  0  0
   -3.2300   21.8160  -31.7960 C   0  0  0  0  0  0  0  0  0  0  0  0
   -3.4630   20.6170  -32.1020 O   0  0  0  0  0  0  0  0  0  0  0  0
   -1.8680   22.2240  -31.6180 N   0  0  0  0  0  0  0  0  0  0  0  0
   -1.3600   23.0270  -30.5090 C   0  0  0  0  0  0  0  0  0  0  0  0
   -2.3630   23.0800  -29.3830 C   0  0  0  0  0  0  0  0  0  0  0  0
   -2.4950   21.9890  -28.5050 C   0  0  0  0  0  0  0  0  0  0  0  0
   -3.4210   22.0320  -27.4590 C   0  0  0  0  0  0  0  0  0  0  0  0
   -4.2320   23.1560  -27.2870 C   0  0  0  0  0  0  0  0  0  0  0  0
   -4.1230   24.2370  -28.1630 C   0  0  0  0  0  0  0  0  0  0  0  0
   -3.1980   24.2040  -29.2120 C   0  0  0  0  0  0  0  0  0  0  0  0
   -3.1140   25.2860  -30.0810 O   0  0  0  0  0  0  0  0  0  0  0  0
   -6.4158   24.5680  -29.4969 H   0  0  0  0  0  0  0  0  0  0  0  0
   -5.1720   25.6552  -30.2024 H   0  0  0  0  0  0  0  0  0  0  0  0
   -6.8995   26.1476  -30.2024 H   0  0  0  0  0  0  0  0  0  0  0  0
   -8.8656   23.6506  -31.9098 H   0  0  0  0  0  0  0  0  0  0  0  0
   -9.4099   21.2315  -32.1379 H   0  0  0  0  0  0  0  0  0  0  0  0
   -6.3386   19.0066  -35.3258 H   0  0  0  0  0  0  0  0  0  0  0  0
   -6.3734   20.1056  -33.8715 H   0  0  0  0  0  0  0  0  0  0  0  0
   -4.0611   19.5816  -34.5911 H   0  0  0  0  0  0  0  0  0  0  0  0
   -4.4409   18.9730  -32.9302 H   0  0  0  0  0  0  0  0  0  0  0  0
   -3.9410   17.4468  -35.4836 H   0  0  0  0  0  0  0  0  0  0  0  0
   -3.4049   17.1186  -33.7747 H   0  0  0  0  0  0  0  0  0  0  0  0
   -5.9159   16.3046  -35.1970 H   0  0  0  0  0  0  0  0  0  0  0  0
   -4.9371   15.4479  -33.9405 H   0  0  0  0  0  0  0  0  0  0  0  0
   -7.1281   16.0903  -33.0304 H   0  0  0  0  0  0  0  0  0  0  0  0
   -5.7942   17.0139  -32.2264 H   0  0  0  0  0  0  0  0  0  0  0  0
   -5.2097   20.2497  -31.8514 H   0  0  0  0  0  0  0  0  0  0  0  0
   -4.1270   23.6730  -31.1910 H   0  0  0  0  0  0  0  0  0  0  0  0
   -0.4253   22.5805  -30.1388 H   0  0  0  0  0  0  0  0  0  0  0  0
   -1.1789   24.0507  -30.8686 H   0  0  0  0  0  0  0  0  0  0  0  0
   -1.8660   21.0971  -28.6424 H   0  0  0  0  0  0  0  0  0  0  0  0
   -3.5112   21.1792  -26.7701 H   0  0  0  0  0  0  0  0  0  0  0  0
   -4.9571   23.1893  -26.4605 H   0  0  0  0  0  0  0  0  0  0  0  0
   -4.7670   25.1185  -28.0281 H   0  0  0  0  0  0  0  0  0  0  0  0
  1  2  1  0
  2  3  1  0
  3  4  2  0
  4  5  1  0
  5  6  2  0
  6  7  1  0
  7  8  2  0
  7  9  2  0
  7 10  1  0
 10 11  1  0
 11 12  1  0
 12 13  1  0
 13 14  1  0
 14 15  1  0
  6 16  1  0
 16 17  2  0
 17 18  1  0
 18 19  1  0
 19 20  2  0
 19 21  1  0
 21 22  1  0
 22 23  1  0
 23 24  2  0
 24 25  1  0
 25 26  2  0
 26 27  1  0
 27 28  2  0
 28 29  1  0
 17  3  1  0
 28 23  1  0
 15 10  1  0
  1 30  1  0
  1 31  1  0
  1 32  1  0
  4 33  1  0
  5 34  1  0
 11 35  1  0
 11 36  1  0
 12 37  1  0
 12 38  1  0
 13 39  1  0
 13 40  1  0
 14 41  1  0
 14 42  1  0
 15 43  1  0
 15 44  1  0
 16 45  1  0
 18 46  1  0
 22 47  1  0
 22 48  1  0
 24 49  1  0
 25 50  1  0
 26 51  1  0
 27 52  1  0
M  CHG  2  21  -1  29  -1
M  END
>  <UniqueID>  (33) 
33

>  <SMILES>  (33) 
COc1ccc(S(=O)(=O)N2CCCCC2)cc1NC(=O)[N-]Cc1ccccc1[O-]

>  <Energy>  (33) 
60.3726619290944

>  <Genealogy>  (33) 
COc1ccc(S(=O)(=O)N2CCCCC2)cc1NC(=O)[N-]Cc1ccccc1[O-] (protonated)
COc1ccc(S(=O)(=O)N2CCCCC2)cc1NC(=O)[N-]Cc1ccccc1[O-] (3D coordinates assigned)
COc1ccc(S(=O)(=O)N2CCCCC2)cc1NC(=O)[N-]Cc1ccccc1[O-] (nonaromatic ring conformer: 60.3726619290944 kcal/mol)

>  <smiles>  (33) 
COc1ccc(S(=O)(=O)N2CCCCC2)cc1NC(=O)NCc1ccccc1O

>  <score_type>  (33) 
oracle

>  <origin>  (33) 
adgpu

>  <m_score__min__energy>  (33) 
-12.77

>  <m_primary>  (33) 
energy

$$$$
33:0
     RDKit          3D

 68 71  0  0  0  0  0  0  0  0999 V2000
    1.2090   25.5110  -37.3390 C   0  0  0  0  0  0  0  0  0  0  0  0
    1.7700   24.1740  -37.2050 N   0  0  0  0  0  0  0  0  0  0  0  0
    1.3500   23.2150  -36.2270 C   0  0  0  0  0  0  0  0  0  0  0  0
    0.2360   23.3750  -35.6590 O   0  0  0  0  0  0  0  0  0  0  0  0
    2.1990   22.0780  -35.8290 C   0  0  0  0  0  0  0  0  0  0  0  0
    3.5680   22.0630  -36.1380 C   0  0  0  0  0  0  0  0  0  0  0  0
    4.3630   20.9790  -35.7550 C   0  0  0  0  0  0  0  0  0  0  0  0
    3.8000   19.9080  -35.0610 C   0  0  0  0  0  0  0  0  0  0  0  0
    2.4340   19.8980  -34.7570 C   0  0  0  0  0  0  0  0  0  0  0  0
    1.9210   18.8260  -34.0130 O   0  0  0  0  0  0  0  0  0  0  0  0
    1.4020   18.9410  -32.7180 C   0  0  0  0  0  0  0  0  0  0  0  0
    2.2500   19.1890  -31.6300 C   0  0  0  0  0  0  0  0  0  0  0  0
    1.7270   19.2880  -30.3390 C   0  0  0  0  0  0  0  0  0  0  0  0
    0.3440   19.1610  -30.1260 C   0  0  0  0  0  0  0  0  0  0  0  0
   -0.2040   19.2480  -28.7990 N   0  0  0  0  0  0  0  0  0  0  0  0
   -0.0010   18.1640  -27.8390 C   0  0  0  0  0  0  0  0  0  0  0  0
   -1.2950   20.5420  -28.3950 S   0  0  0  0  0  0  0  0  0  0  0  0
   -1.8580   20.3660  -26.7150 C   0  0  0  0  0  0  0  0  0  0  0  0
   -0.5960   21.8630  -28.5520 O   0  0  0  0  0  0  0  0  0  0  0  0
   -2.4780   20.5150  -29.3220 O   0  0  0  0  0  0  0  0  0  0  0  0
   -0.5030   18.9330  -31.2210 C   0  0  0  0  0  0  0  0  0  0  0  0
    0.0230   18.7960  -32.5150 C   0  0  0  0  0  0  0  0  0  0  0  0
   -0.8110   18.4560  -33.6310 N   0  0  0  0  0  0  0  0  0  0  0  0
   -2.0980   19.0240  -33.8890 C   0  0  0  0  0  0  0  0  0  0  0  0
   -3.0810   18.2560  -34.0460 O   0  0  0  0  0  0  0  0  0  0  0  0
   -2.2900   20.4430  -33.8260 N   0  0  0  0  0  0  0  0  0  0  0  0
   -3.3030   21.1340  -33.0790 C   0  0  0  0  0  0  0  0  0  0  0  0
   -4.6350   20.8970  -33.4120 C   0  0  0  0  0  0  0  0  0  0  0  0
   -5.6610   21.5100  -32.7020 C   0  0  0  0  0  0  0  0  0  0  0  0
   -5.3770   22.3960  -31.6510 C   0  0  0  0  0  0  0  0  0  0  0  0
   -6.5360   23.0170  -30.9190 C   0  0  0  0  0  0  0  0  0  0  0  0
   -4.0230   22.6770  -31.3170 C   0  0  0  0  0  0  0  0  0  0  0  0
   -3.5980   23.9030  -30.0960 S   0  0  0  0  0  0  0  0  0  0  0  0
   -2.1290   23.8200  -29.7910 O   0  0  0  0  0  0  0  0  0  0  0  0
   -3.8650   25.2940  -30.6010 O   0  0  0  0  0  0  0  0  0  0  0  0
   -4.5330   23.5630  -28.6040 C   0  0  0  0  0  0  0  0  0  0  0  0
   -3.7170   22.9220  -27.4940 C   0  0  0  0  0  0  0  0  0  0  0  0
   -4.1430   24.3770  -27.3800 C   0  0  0  0  0  0  0  0  0  0  0  0
   -2.9920   21.9610  -31.9800 C   0  0  0  0  0  0  0  0  0  0  0  0
   -1.6670   22.0050  -31.5350 O   0  0  0  0  0  0  0  0  0  0  0  0
    1.6310   20.9840  -35.1560 C   0  0  0  0  0  0  0  0  0  0  0  0
    1.0308   25.9357  -36.3401 H   0  0  0  0  0  0  0  0  0  0  0  0
    1.9144   26.1512  -37.8891 H   0  0  0  0  0  0  0  0  0  0  0  0
    0.2580   25.4562  -37.8891 H   0  0  0  0  0  0  0  0  0  0  0  0
    4.0165   22.9066  -36.6831 H   0  0  0  0  0  0  0  0  0  0  0  0
    5.4350   20.9705  -36.0014 H   0  0  0  0  0  0  0  0  0  0  0  0
    4.4345   19.0649  -34.7503 H   0  0  0  0  0  0  0  0  0  0  0  0
    3.3314   19.3061  -31.7936 H   0  0  0  0  0  0  0  0  0  0  0  0
    2.3994   19.4658  -29.4868 H   0  0  0  0  0  0  0  0  0  0  0  0
   -0.0754   18.5615  -26.8160 H   0  0  0  0  0  0  0  0  0  0  0  0
   -0.7702   17.3922  -27.9894 H   0  0  0  0  0  0  0  0  0  0  0  0
    0.9954   17.7228  -27.9894 H   0  0  0  0  0  0  0  0  0  0  0  0
   -1.0400   20.6217  -26.0255 H   0  0  0  0  0  0  0  0  0  0  0  0
   -2.7089   21.0410  -26.5408 H   0  0  0  0  0  0  0  0  0  0  0  0
   -2.1729   19.3265  -26.5408 H   0  0  0  0  0  0  0  0  0  0  0  0
   -1.5893   18.8610  -31.0639 H   0  0  0  0  0  0  0  0  0  0  0  0
   -4.8768   20.2190  -34.2438 H   0  0  0  0  0  0  0  0  0  0  0  0
   -6.7074   21.2983  -32.9669 H   0  0  0  0  0  0  0  0  0  0  0  0
   -6.3737   22.9301  -29.8345 H   0  0  0  0  0  0  0  0  0  0  0  0
   -6.6165   24.0791  -31.1937 H   0  0  0  0  0  0  0  0  0  0  0  0
   -7.4649   22.4958  -31.1937 H   0  0  0  0  0  0  0  0  0  0  0  0
   -5.4835   23.3440  -29.1125 H   0  0  0  0  0  0  0  0  0  0  0  0
   -4.1748   22.1624  -26.8433 H   0  0  0  0  0  0  0  0  0  0  0  0
   -2.7574   22.3865  -27.4442 H   0  0  0  0  0  0  0  0  0  0  0  0
   -4.9093   24.6701  -26.6472 H   0  0  0  0  0  0  0  0  0  0  0  0
   -3.6198   25.3302  -27.2139 H   0  0  0  0  0  0  0  0  0  0  0  0
   -1.3960   21.9310  -30.5650 H   0  0  0  0  0  0  0  0  0  0  0  0
    0.5526   20.9753  -34.9392 H   0  0  0  0  0  0  0  0  0  0  0  0
  1  2  1  0
  2  3  1  0
  3  4  2  0
  3  5  1  0
  5  6  2  0
  6  7  1  0
  7  8  2  0
  8  9  1  0
  9 10  1  0
 10 11  1  0
 11 12  2  0
 12 13  1  0
 13 14  2  0
 14 15  1  0
 15 16  1  0
 15 17  1  0
 17 18  1  0
 17 19  2  0
 17 20  2  0
 14 21  1  0
 21 22  2  0
 22 23  1  0
 23 24  1  0
 24 25  2  0
 24 26  1  0
 26 27  1  0
 27 28  2  0
 28 29  1  0
 29 30  2  0
 30 31  1  0
 30 32  1  0
 32 33  1  0
 33 34  2  0
 33 35  2  0
 33 36  1  0
 36 37  1  0
 37 38  1  0
 32 39  2  0
 39 40  1  0
  9 41  2  0
 41  5  1  0
 22 11  1  0
 39 27  1  0
 38 36  1  0
  1 42  1  0
  1 43  1  0
  1 44  1  0
  6 45  1  0
  7 46  1  0
  8 47  1  0
 12 48  1  0
 13 49  1  0
 16 50  1  0
 16 51  1  0
 16 52  1  0
 18 53  1  0
 18 54  1  0
 18 55  1  0
 21 56  1  0
 28 57  1  0
 29 58  1  0
 31 59  1  0
 31 60  1  0
 31 61  1  0
 36 62  1  0
 37 63  1  0
 37 64  1  0
 38 65  1  0
 38 66  1  0
 40 67  1  0
 41 68  1  0
M  CHG  3   2  -1  23  -1  26  -1
M  END
>  <UniqueID>  (34) 
34

>  <SMILES>  (34) 
C[N-]C(=O)c1cccc(Oc2ccc(N(C)S(C)(=O)=O)cc2[N-]C(=O)[N-]c2ccc(C)c(S(=O)(=O)C3CC3)c2O)c1

>  <Energy>  (34) 
360.4009365999935

>  <Genealogy>  (34) 
C[N-]C(=O)c1cccc(Oc2ccc(N(C)S(C)(=O)=O)cc2[N-]C(=O)[N-]c2ccc(C)c(S(=O)(=O)C3CC3)c2O)c1 (protonated)
C[N-]C(=O)c1cccc(Oc2ccc(N(C)S(C)(=O)=O)cc2[N-]C(=O)[N-]c2ccc(C)c(S(=O)(=O)C3CC3)c2O)c1 (3D coordinates assigned)
C[N-]C(=O)c1cccc(Oc2ccc(N(C)S(C)(=O)=O)cc2[N-]C(=O)[N-]c2ccc(C)c(S(=O)(=O)C3CC3)c2O)c1 (nonaromatic ring conformer: 360.4009365999935 kcal/mol)

>  <smiles>  (34) 
CNC(=O)c1cccc(Oc2ccc(N(C)S(C)(=O)=O)cc2NC(=O)Nc2ccc(C)c(S(=O)(=O)C3CC3)c2O)c1

>  <score_type>  (34) 
oracle

>  <origin>  (34) 
adgpu

>  <m_score__min__energy>  (34) 
-14.94

>  <m_primary>  (34) 
energy

$$$$
34:0
     RDKit          3D

 42 44  0  0  0  0  0  0  0  0999 V2000
   -1.5150   26.7350  -25.1450 C   0  0  0  0  0  0  0  0  0  0  0  0
   -1.9010   25.8960  -26.3270 C   0  0  0  0  0  0  0  0  0  0  0  0
   -1.0530   25.8080  -27.4410 C   0  0  0  0  0  0  0  0  0  0  0  0
   -1.3980   25.0010  -28.5290 C   0  0  0  0  0  0  0  0  0  0  0  0
   -2.5910   24.2590  -28.5130 C   0  0  0  0  0  0  0  0  0  0  0  0
   -2.9630   23.4070  -29.6590 C   0  0  0  0  0  0  0  0  0  0  0  0
   -3.8160   23.7920  -30.6370 N   0  0  0  0  0  0  0  0  0  0  0  0
   -3.8670   22.7180  -31.4470 C   0  0  0  0  0  0  0  0  0  0  0  0
   -4.6470   22.6710  -32.7200 C   0  0  0  0  0  0  0  0  0  0  0  0
   -6.4260   22.7560  -32.3430 S   0  0  0  0  0  0  0  0  0  0  0  0
   -6.6840   20.9910  -32.5850 C   0  0  0  0  0  0  0  0  0  0  0  0
   -5.7630   20.2810  -33.3610 C   0  0  0  0  0  0  0  0  0  0  0  0
   -5.9270   18.9120  -33.5740 C   0  0  0  0  0  0  0  0  0  0  0  0
   -7.0160   18.2420  -33.0180 C   0  0  0  0  0  0  0  0  0  0  0  0
   -7.9590   18.9360  -32.2410 C   0  0  0  0  0  0  0  0  0  0  0  0
   -9.1220   18.1870  -31.6430 C   0  0  0  0  0  0  0  0  0  0  0  0
   -7.7900   20.3230  -32.0200 C   0  0  0  0  0  0  0  0  0  0  0  0
   -8.7400   21.0550  -31.2100 C   0  0  0  0  0  0  0  0  0  0  0  0
   -9.4980   21.6390  -30.5610 N   0  0  0  0  0  0  0  0  0  0  0  0
   -3.0370   21.7360  -30.9480 C   0  0  0  0  0  0  0  0  0  0  0  0
   -2.7790   20.3840  -31.5280 C   0  0  0  0  0  0  0  0  0  0  0  0
   -2.5010   22.1880  -29.8420 O   0  0  0  0  0  0  0  0  0  0  0  0
   -3.4290   24.3330  -27.3870 C   0  0  0  0  0  0  0  0  0  0  0  0
   -3.0830   25.1420  -26.3010 C   0  0  0  0  0  0  0  0  0  0  0  0
   -1.7622   26.1977  -24.2176 H   0  0  0  0  0  0  0  0  0  0  0  0
   -0.4339   26.9359  -25.1753 H   0  0  0  0  0  0  0  0  0  0  0  0
   -2.0658   27.6867  -25.1753 H   0  0  0  0  0  0  0  0  0  0  0  0
   -0.1117   26.3770  -27.4585 H   0  0  0  0  0  0  0  0  0  0  0  0
   -0.7317   24.9466  -29.4026 H   0  0  0  0  0  0  0  0  0  0  0  0
   -4.3652   23.5241  -33.3547 H   0  0  0  0  0  0  0  0  0  0  0  0
   -4.4284   21.7324  -33.2503 H   0  0  0  0  0  0  0  0  0  0  0  0
   -4.9042   20.8047  -33.8061 H   0  0  0  0  0  0  0  0  0  0  0  0
   -5.1953   18.3598  -34.1821 H   0  0  0  0  0  0  0  0  0  0  0  0
   -7.1379   17.1622  -33.1888 H   0  0  0  0  0  0  0  0  0  0  0  0
   -9.0590   18.2276  -30.5456 H   0  0  0  0  0  0  0  0  0  0  0  0
  -10.0643   18.6485  -31.9735 H   0  0  0  0  0  0  0  0  0  0  0  0
   -9.0916   17.1383  -31.9735 H   0  0  0  0  0  0  0  0  0  0  0  0
   -2.6402   19.6565  -30.7147 H   0  0  0  0  0  0  0  0  0  0  0  0
   -3.6356   20.0815  -32.1482 H   0  0  0  0  0  0  0  0  0  0  0  0
   -1.8712   20.4182  -32.1482 H   0  0  0  0  0  0  0  0  0  0  0  0
   -4.3621   23.7511  -27.3603 H   0  0  0  0  0  0  0  0  0  0  0  0
   -3.7415   25.1875  -25.4211 H   0  0  0  0  0  0  0  0  0  0  0  0
  1  2  1  0
  2  3  2  0
  3  4  1  0
  4  5  2  0
  5  6  1  0
  6  7  2  0
  7  8  1  0
  8  9  1  0
  9 10  1  0
 10 11  1  0
 11 12  2  0
 12 13  1  0
 13 14  2  0
 14 15  1  0
 15 16  1  0
 15 17  2  0
 17 18  1  0
 18 19  3  0
  8 20  2  0
 20 21  1  0
 20 22  1  0
  5 23  1  0
 23 24  2  0
 24  2  1  0
 22  6  1  0
 17 11  1  0
  1 25  1  0
  1 26  1  0
  1 27  1  0
  3 28  1  0
  4 29  1  0
  9 30  1  0
  9 31  1  0
 12 32  1  0
 13 33  1  0
 14 34  1  0
 16 35  1  0
 16 36  1  0
 16 37  1  0
 21 38  1  0
 21 39  1  0
 21 40  1  0
 23 41  1  0
 24 42  1  0
M  END
>  <UniqueID>  (35) 
35

>  <SMILES>  (35) 
Cc1ccc(-c2nc(CSc3cccc(C)c3C#N)c(C)o2)cc1

>  <Energy>  (35) 
67.53065342335077

>  <Genealogy>  (35) 
Cc1ccc(-c2nc(CSc3cccc(C)c3C#N)c(C)o2)cc1 (3D coordinates assigned)
Cc1ccc(-c2nc(CSc3cccc(C)c3C#N)c(C)o2)cc1 (optimized conformer: 67.53065342335077 kcal/mol)

>  <smiles>  (35) 
Cc1ccc(-c2nc(CSc3cccc(C)c3C#N)c(C)o2)cc1

>  <score_type>  (35) 
oracle

>  <origin>  (35) 
adgpu

>  <m_score__min__energy>  (35) 
-8.9700000000000006

>  <m_primary>  (35) 
energy

$$$$
35:0
     RDKit          3D

 54 56  0  0  0  0  0  0  0  0999 V2000
   -8.9770   18.3760  -31.5910 C   0  0  0  0  0  0  0  0  0  0  0  0
   -8.8240   19.4780  -32.6330 C   0  0  0  0  0  0  0  0  0  0  0  0
   -7.5710   20.2640  -32.3860 C   0  0  0  0  0  0  0  0  0  0  0  0
   -6.4440   20.0890  -33.1990 C   0  0  0  0  0  0  0  0  0  0  0  0
   -5.3170   20.8840  -32.9880 C   0  0  0  0  0  0  0  0  0  0  0  0
   -5.3200   21.8620  -31.9860 C   0  0  0  0  0  0  0  0  0  0  0  0
   -4.1620   22.6950  -31.8160 N   0  0  0  0  0  0  0  0  0  0  0  0
   -3.0330   22.3060  -31.0180 C   0  0  0  0  0  0  0  0  0  0  0  0
   -2.4550   21.0410  -31.2160 C   0  0  0  0  0  0  0  0  0  0  0  0
   -1.4120   20.6080  -30.4060 C   0  0  0  0  0  0  0  0  0  0  0  0
   -0.9630   21.4270  -29.3760 C   0  0  0  0  0  0  0  0  0  0  0  0
    0.0700   20.9790  -28.5450 O   0  0  0  0  0  0  0  0  0  0  0  0
    0.4310   19.6350  -28.3830 C   0  0  0  0  0  0  0  0  0  0  0  0
    1.6200   19.1180  -28.9220 C   0  0  0  0  0  0  0  0  0  0  0  0
    1.9600   17.7780  -28.7260 C   0  0  0  0  0  0  0  0  0  0  0  0
    1.1260   16.9430  -27.9730 C   0  0  0  0  0  0  0  0  0  0  0  0
    1.5570   15.2550  -27.7340 S   0  0  0  0  0  0  0  0  0  0  0  0
    3.2500   15.1460  -27.2050 C   0  0  0  0  0  0  0  0  0  0  0  0
    1.3820   14.4950  -29.0190 O   0  0  0  0  0  0  0  0  0  0  0  0
    0.6630   14.6470  -26.6890 O   0  0  0  0  0  0  0  0  0  0  0  0
   -0.0540   17.4600  -27.4220 C   0  0  0  0  0  0  0  0  0  0  0  0
   -0.3940   18.8010  -27.6200 C   0  0  0  0  0  0  0  0  0  0  0  0
   -1.5120   22.6630  -29.2100 N   0  0  0  0  0  0  0  0  0  0  0  0
   -2.5190   23.1430  -29.9910 C   0  0  0  0  0  0  0  0  0  0  0  0
   -2.9970   24.5480  -29.7920 C   0  0  0  0  0  0  0  0  0  0  0  0
   -2.6650   25.1770  -28.7530 O   0  0  0  0  0  0  0  0  0  0  0  0
   -3.8600   25.2290  -30.7180 N   0  0  0  0  0  0  0  0  0  0  0  0
   -5.2180   25.7070  -30.4830 C   0  0  0  0  0  0  0  0  0  0  0  0
   -6.4610   21.9850  -31.1620 C   0  0  0  0  0  0  0  0  0  0  0  0
   -6.5200   22.9550  -30.0200 C   0  0  0  0  0  0  0  0  0  0  0  0
   -7.5480   21.2010  -31.4010 N   0  0  0  0  0  0  0  0  0  0  0  0
   -8.9163   18.8131  -30.5834 H   0  0  0  0  0  0  0  0  0  0  0  0
   -9.9522   17.8833  -31.7188 H   0  0  0  0  0  0  0  0  0  0  0  0
   -8.1729   17.6363  -31.7188 H   0  0  0  0  0  0  0  0  0  0  0  0
   -8.7758   19.0252  -33.6343 H   0  0  0  0  0  0  0  0  0  0  0  0
   -9.6881   20.1552  -32.5642 H   0  0  0  0  0  0  0  0  0  0  0  0
   -6.4474   19.3316  -33.9967 H   0  0  0  0  0  0  0  0  0  0  0  0
   -4.4221   20.7418  -33.6116 H   0  0  0  0  0  0  0  0  0  0  0  0
   -4.2470   23.7060  -32.0670 H   0  0  0  0  0  0  0  0  0  0  0  0
   -2.8307   20.3885  -32.0179 H   0  0  0  0  0  0  0  0  0  0  0  0
   -0.9460   19.6265  -30.5781 H   0  0  0  0  0  0  0  0  0  0  0  0
    2.2874   19.7724  -29.5020 H   0  0  0  0  0  0  0  0  0  0  0  0
    2.8858   17.3773  -29.1645 H   0  0  0  0  0  0  0  0  0  0  0  0
    3.2912   15.1433  -26.1058 H   0  0  0  0  0  0  0  0  0  0  0  0
    3.6957   14.2173  -27.5909 H   0  0  0  0  0  0  0  0  0  0  0  0
    3.8111   16.0099  -27.5909 H   0  0  0  0  0  0  0  0  0  0  0  0
   -0.7149   16.8083  -26.8317 H   0  0  0  0  0  0  0  0  0  0  0  0
   -1.3154   19.2032  -27.1736 H   0  0  0  0  0  0  0  0  0  0  0  0
   -5.4017   25.7717  -29.4004 H   0  0  0  0  0  0  0  0  0  0  0  0
   -5.3399   26.7021  -30.9357 H   0  0  0  0  0  0  0  0  0  0  0  0
   -5.9364   25.0077  -30.9357 H   0  0  0  0  0  0  0  0  0  0  0  0
   -6.4865   22.4038  -29.0686 H   0  0  0  0  0  0  0  0  0  0  0  0
   -5.6619   23.6409  -30.0768 H   0  0  0  0  0  0  0  0  0  0  0  0
   -7.4549   23.5318  -30.0768 H   0  0  0  0  0  0  0  0  0  0  0  0
  1  2  1  0
  2  3  1  0
  3  4  2  0
  4  5  1  0
  5  6  2  0
  6  7  1  0
  7  8  1  0
  8  9  2  0
  9 10  1  0
 10 11  2  0
 11 12  1  0
 12 13  1  0
 13 14  2  0
 14 15  1  0
 15 16  2  0
 16 17  1  0
 17 18  1  0
 17 19  2  0
 17 20  2  0
 16 21  1  0
 21 22  2  0
 11 23  1  0
 23 24  2  0
 24 25  1  0
 25 26  2  0
 25 27  1  0
 27 28  1  0
  6 29  1  0
 29 30  1  0
 29 31  2  0
 31  3  1  0
 24  8  1  0
 22 13  1  0
  1 32  1  0
  1 33  1  0
  1 34  1  0
  2 35  1  0
  2 36  1  0
  4 37  1  0
  5 38  1  0
  7 39  1  0
  9 40  1  0
 10 41  1  0
 14 42  1  0
 15 43  1  0
 18 44  1  0
 18 45  1  0
 18 46  1  0
 21 47  1  0
 22 48  1  0
 28 49  1  0
 28 50  1  0
 28 51  1  0
 30 52  1  0
 30 53  1  0
 30 54  1  0
M  CHG  1  27  -1
M  END
>  <UniqueID>  (36) 
36

>  <SMILES>  (36) 
CCc1ccc(Nc2ccc(Oc3ccc(S(C)(=O)=O)cc3)nc2C(=O)[N-]C)c(C)n1

>  <Energy>  (36) 
65.66819695802377

>  <Genealogy>  (36) 
CCc1ccc(Nc2ccc(Oc3ccc(S(C)(=O)=O)cc3)nc2C(=O)[N-]C)c(C)n1 (protonated)
CCc1ccc(Nc2ccc(Oc3ccc(S(C)(=O)=O)cc3)nc2C(=O)[N-]C)c(C)n1 (3D coordinates assigned)
CCc1ccc(Nc2ccc(Oc3ccc(S(C)(=O)=O)cc3)nc2C(=O)[N-]C)c(C)n1 (optimized conformer: 65.66819695802377 kcal/mol)

>  <smiles>  (36) 
CCc1ccc(Nc2ccc(Oc3ccc(S(C)(=O)=O)cc3)nc2C(=O)NC)c(C)n1

>  <score_type>  (36) 
oracle

>  <origin>  (36) 
adgpu

>  <m_score__min__energy>  (36) 
-9.9000000000000004

>  <m_primary>  (36) 
energy

$$$$
36:0
     RDKit          3D

 62 64  0  0  0  0  0  0  0  0999 V2000
    0.0160   19.1450  -29.1200 C   0  0  0  0  0  0  0  0  0  0  0  0
   -0.7680   20.4090  -28.9200 C   0  0  0  0  0  0  0  0  0  0  0  0
   -2.1580   20.3610  -28.7480 C   0  0  0  0  0  0  0  0  0  0  0  0
   -2.8900   21.5380  -28.5840 C   0  0  0  0  0  0  0  0  0  0  0  0
   -2.2460   22.7850  -28.6150 C   0  0  0  0  0  0  0  0  0  0  0  0
   -3.0380   24.0510  -28.4270 C   0  0  0  0  0  0  0  0  0  0  0  0
   -3.2180   24.6990  -29.7180 N   0  0  0  0  0  0  0  0  0  0  0  0
   -4.4870   24.8370  -30.3660 C   0  0  0  0  0  0  0  0  0  0  0  0
   -4.6310   25.6840  -31.2870 O   0  0  0  0  0  0  0  0  0  0  0  0
   -5.6750   24.0230  -29.9080 C   0  0  1  0  0  0  0  0  0  0  0  0
   -6.8990   24.9200  -29.6740 C   0  0  0  0  0  0  0  0  0  0  0  0
   -6.0040   22.8950  -30.8710 C   0  0  0  0  0  0  0  0  0  0  0  0
   -5.0050   22.3690  -31.7080 C   0  0  0  0  0  0  0  0  0  0  0  0
   -5.3030   21.3530  -32.6190 C   0  0  0  0  0  0  0  0  0  0  0  0
   -6.6090   20.8360  -32.7170 C   0  0  0  0  0  0  0  0  0  0  0  0
   -6.9460   19.7930  -33.6510 N   0  0  0  0  0  0  0  0  0  0  0  0
   -6.5380   18.1180  -33.4400 S   0  0  0  0  0  0  0  0  0  0  0  0
   -4.9950   17.9670  -32.5640 C   0  0  0  0  0  0  0  0  0  0  0  0
   -7.6130   17.4560  -32.6260 O   0  0  0  0  0  0  0  0  0  0  0  0
   -6.4550   17.4340  -34.7750 O   0  0  0  0  0  0  0  0  0  0  0  0
   -7.6110   21.3730  -31.8880 C   0  0  0  0  0  0  0  0  0  0  0  0
   -8.8850   20.9100  -31.9620 F   0  0  0  0  0  0  0  0  0  0  0  0
   -7.3110   22.3880  -30.9750 C   0  0  0  0  0  0  0  0  0  0  0  0
   -0.8540   22.8450  -28.8200 C   0  0  0  0  0  0  0  0  0  0  0  0
   -0.2150   24.0960  -28.8260 O   0  0  0  0  0  0  0  0  0  0  0  0
   -0.1380   24.9800  -27.7400 C   0  0  0  0  0  0  0  0  0  0  0  0
    0.5470   24.5700  -26.5910 C   0  0  0  0  0  0  0  0  0  0  0  0
    0.6260   25.4090  -25.4750 C   0  0  0  0  0  0  0  0  0  0  0  0
    0.0140   26.6680  -25.4960 C   0  0  0  0  0  0  0  0  0  0  0  0
    0.1280   27.7170  -24.0850 S   0  0  0  0  0  0  0  0  0  0  0  0
    1.7790   27.6460  -23.4240 C   0  0  0  0  0  0  0  0  0  0  0  0
   -0.1810   29.1400  -24.4660 O   0  0  0  0  0  0  0  0  0  0  0  0
   -0.8600   27.2640  -23.0440 O   0  0  0  0  0  0  0  0  0  0  0  0
   -0.6850   27.0780  -26.6410 C   0  0  0  0  0  0  0  0  0  0  0  0
   -0.7690   26.2360  -27.7530 C   0  0  0  0  0  0  0  0  0  0  0  0
   -0.1210   21.6530  -28.9640 C   0  0  0  0  0  0  0  0  0  0  0  0
    0.2804   18.7187  -28.1410 H   0  0  0  0  0  0  0  0  0  0  0  0
   -0.5921   18.4215  -29.6828 H   0  0  0  0  0  0  0  0  0  0  0  0
    0.9344   19.3683  -29.6828 H   0  0  0  0  0  0  0  0  0  0  0  0
   -2.6751   19.3901  -28.7422 H   0  0  0  0  0  0  0  0  0  0  0  0
   -3.9780   21.4882  -28.4295 H   0  0  0  0  0  0  0  0  0  0  0  0
   -4.0209   23.8095  -27.9963 H   0  0  0  0  0  0  0  0  0  0  0  0
   -2.4991   24.7265  -27.7463 H   0  0  0  0  0  0  0  0  0  0  0  0
   -5.3972   23.5587  -28.9503 H   0  0  0  0  0  0  0  0  0  0  0  0
   -7.0638   25.0408  -28.5931 H   0  0  0  0  0  0  0  0  0  0  0  0
   -6.7241   25.9054  -30.1306 H   0  0  0  0  0  0  0  0  0  0  0  0
   -7.7859   24.4565  -30.1306 H   0  0  0  0  0  0  0  0  0  0  0  0
   -3.9791   22.7610  -31.6451 H   0  0  0  0  0  0  0  0  0  0  0  0
   -4.5091   20.9526  -33.2666 H   0  0  0  0  0  0  0  0  0  0  0  0
   -7.5360   20.0240  -34.4800 H   0  0  0  0  0  0  0  0  0  0  0  0
   -5.1850   17.9856  -31.4807 H   0  0  0  0  0  0  0  0  0  0  0  0
   -4.5109   17.0172  -32.8351 H   0  0  0  0  0  0  0  0  0  0  0  0
   -4.3359   18.8049  -32.8351 H   0  0  0  0  0  0  0  0  0  0  0  0
   -8.1054   22.7940  -30.3316 H   0  0  0  0  0  0  0  0  0  0  0  0
    1.0269   23.5805  -26.5653 H   0  0  0  0  0  0  0  0  0  0  0  0
    1.1705   25.0788  -24.5781 H   0  0  0  0  0  0  0  0  0  0  0  0
    1.7343   27.6479  -22.3249 H   0  0  0  0  0  0  0  0  0  0  0  0
    2.2729   26.7258  -23.7693 H   0  0  0  0  0  0  0  0  0  0  0  0
    2.3501   28.5204  -23.7693 H   0  0  0  0  0  0  0  0  0  0  0  0
   -1.1687   28.0657  -26.6636 H   0  0  0  0  0  0  0  0  0  0  0  0
   -1.3312   26.5574  -28.6422 H   0  0  0  0  0  0  0  0  0  0  0  0
    0.9681   21.6967  -29.1123 H   0  0  0  0  0  0  0  0  0  0  0  0
  1  2  1  0
  2  3  2  0
  3  4  1  0
  4  5  2  0
  5  6  1  0
  6  7  1  0
  7  8  1  0
  8  9  2  0
  8 10  1  0
 10 11  1  0
 10 12  1  0
 12 13  2  0
 13 14  1  0
 14 15  2  0
 15 16  1  0
 16 17  1  0
 17 18  1  0
 17 19  2  0
 17 20  2  0
 15 21  1  0
 21 22  1  0
 21 23  2  0
  5 24  1  0
 24 25  1  0
 25 26  1  0
 26 27  2  0
 27 28  1  0
 28 29  2  0
 29 30  1  0
 30 31  1  0
 30 32  2  0
 30 33  2  0
 29 34  1  0
 34 35  2  0
 24 36  2  0
 36  2  1  0
 23 12  1  0
 35 26  1  0
  1 37  1  0
  1 38  1  0
  1 39  1  0
  3 40  1  0
  4 41  1  0
  6 42  1  0
  6 43  1  0
 10 44  1  1
 11 45  1  0
 11 46  1  0
 11 47  1  0
 13 48  1  0
 14 49  1  0
 16 50  1  0
 18 51  1  0
 18 52  1  0
 18 53  1  0
 23 54  1  0
 27 55  1  0
 28 56  1  0
 31 57  1  0
 31 58  1  0
 31 59  1  0
 34 60  1  0
 35 61  1  0
 36 62  1  0
M  CHG  1   7  -1
M  END
>  <UniqueID>  (37) 
37

>  <SMILES>  (37) 
Cc1ccc(C[N-]C(=O)[C@@H](C)c2ccc(NS(C)(=O)=O)c(F)c2)c(Oc2ccc(S(C)(=O)=O)cc2)c1

>  <Energy>  (37) 
62.29979610744364

>  <Genealogy>  (37) 
Cc1ccc(C[N-]C(=O)C(C)c2ccc(NS(C)(=O)=O)c(F)c2)c(Oc2ccc(S(C)(=O)=O)cc2)c1 (protonated)
Cc1ccc(C[N-]C(=O)[C@@H](C)c2ccc(NS(C)(=O)=O)c(F)c2)c(Oc2ccc(S(C)(=O)=O)cc2)c1 (chirality)
Cc1ccc(C[N-]C(=O)[C@@H](C)c2ccc(NS(C)(=O)=O)c(F)c2)c(Oc2ccc(S(C)(=O)=O)cc2)c1 (3D coordinates assigned)
Cc1ccc(C[N-]C(=O)[C@@H](C)c2ccc(NS(C)(=O)=O)c(F)c2)c(Oc2ccc(S(C)(=O)=O)cc2)c1 (optimized conformer: 62.29979610744364 kcal/mol)

>  <smiles>  (37) 
Cc1ccc(CNC(=O)C(C)c2ccc(NS(C)(=O)=O)c(F)c2)c(Oc2ccc(S(C)(=O)=O)cc2)c1

>  <score_type>  (37) 
oracle

>  <origin>  (37) 
adgpu

>  <m_score__min__energy>  (37) 
-11.720000000000001

>  <m_primary>  (37) 
energy

$$$$
37:0
     RDKit          3D

 35 36  0  0  0  0  0  0  0  0999 V2000
   -8.7540   19.5750  -32.4820 C   0  0  0  0  0  0  0  0  0  0  0  0
   -7.8520   20.5500  -32.9960 O   0  0  0  0  0  0  0  0  0  0  0  0
   -6.4600   20.5310  -32.8210 C   0  0  0  0  0  0  0  0  0  0  0  0
   -5.8070   21.5500  -32.0940 C   0  0  0  0  0  0  0  0  0  0  0  0
   -4.4240   21.5110  -31.8770 C   0  0  0  0  0  0  0  0  0  0  0  0
   -3.7920   22.5780  -31.1490 N   0  0  0  0  0  0  0  0  0  0  0  0
   -3.3310   22.4600  -29.7920 C   0  0  0  0  0  0  0  0  0  0  0  0
   -3.7840   21.5450  -29.0520 O   0  0  0  0  0  0  0  0  0  0  0  0
   -2.3700   23.4450  -29.2350 C   0  0  0  0  0  0  0  0  0  0  0  0
   -2.4840   24.8190  -29.5220 C   0  0  0  0  0  0  0  0  0  0  0  0
   -3.4850   25.2940  -30.3630 O   0  0  0  0  0  0  0  0  0  0  0  0
   -1.5920   25.6990  -28.9980 N   0  0  0  0  0  0  0  0  0  0  0  0
   -0.5790   25.2820  -28.2000 C   0  0  0  0  0  0  0  0  0  0  0  0
    0.2340   26.1170  -27.7260 O   0  0  0  0  0  0  0  0  0  0  0  0
   -0.4370   23.9630  -27.9160 N   0  0  0  0  0  0  0  0  0  0  0  0
   -1.3000   23.0390  -28.4110 C   0  0  0  0  0  0  0  0  0  0  0  0
   -1.1380   21.8260  -28.1120 O   0  0  0  0  0  0  0  0  0  0  0  0
   -3.6770   20.4570  -32.4220 C   0  0  0  0  0  0  0  0  0  0  0  0
   -4.3090   19.4480  -33.1470 C   0  0  0  0  0  0  0  0  0  0  0  0
   -5.6920   19.4720  -33.3630 C   0  0  0  0  0  0  0  0  0  0  0  0
   -6.2510   18.3910  -34.1300 N   0  0  0  0  0  0  0  0  0  0  0  0
   -6.0810   16.6860  -33.8620 S   0  0  0  0  0  0  0  0  0  0  0  0
   -4.5230   16.1580  -34.5350 C   0  0  0  0  0  0  0  0  0  0  0  0
   -7.1840   15.9410  -34.5600 O   0  0  0  0  0  0  0  0  0  0  0  0
   -6.1050   16.3880  -32.3890 O   0  0  0  0  0  0  0  0  0  0  0  0
   -8.7320   19.5987  -31.3825 H   0  0  0  0  0  0  0  0  0  0  0  0
   -9.7726   19.7965  -32.8333 H   0  0  0  0  0  0  0  0  0  0  0  0
   -8.4540   18.5767  -32.8333 H   0  0  0  0  0  0  0  0  0  0  0  0
   -6.3942   22.3885  -31.6914 H   0  0  0  0  0  0  0  0  0  0  0  0
   -3.7590   23.5240  -31.5930 H   0  0  0  0  0  0  0  0  0  0  0  0
   -2.5871   20.4262  -32.2768 H   0  0  0  0  0  0  0  0  0  0  0  0
   -3.7116   18.6198  -33.5559 H   0  0  0  0  0  0  0  0  0  0  0  0
   -3.8297   15.9230  -33.7140 H   0  0  0  0  0  0  0  0  0  0  0  0
   -4.6758   15.2615  -35.1538 H   0  0  0  0  0  0  0  0  0  0  0  0
   -4.0993   16.9627  -35.1538 H   0  0  0  0  0  0  0  0  0  0  0  0
  1  2  1  0
  2  3  1  0
  3  4  2  0
  4  5  1  0
  5  6  1  0
  6  7  1  0
  7  8  2  0
  7  9  1  0
  9 10  2  0
 10 11  1  0
 10 12  1  0
 12 13  1  0
 13 14  2  0
 13 15  1  0
 15 16  1  0
 16 17  2  0
  5 18  2  0
 18 19  1  0
 19 20  2  0
 20 21  1  0
 21 22  1  0
 22 23  1  0
 22 24  2  0
 22 25  2  0
 20  3  1  0
 16  9  1  0
  1 26  1  0
  1 27  1  0
  1 28  1  0
  4 29  1  0
  6 30  1  0
 18 31  1  0
 19 32  1  0
 23 33  1  0
 23 34  1  0
 23 35  1  0
M  CHG  4  11  -1  12  -1  15  -1  21  -1
M  END
>  <UniqueID>  (38) 
38

>  <SMILES>  (38) 
COc1cc(NC(=O)c2c([O-])[n-]c(=O)[n-]c2=O)ccc1[N-]S(C)(=O)=O

>  <Energy>  (38) 
47.537346395951595

>  <Genealogy>  (38) 
COc1cc(NC(=O)c2c([O-])[n-]c(=O)[n-]c2=O)ccc1[N-]S(C)(=O)=O (protonated)
COc1cc(NC(=O)c2c([O-])[n-]c(=O)[n-]c2=O)ccc1[N-]S(C)(=O)=O (3D coordinates assigned)
COc1cc(NC(=O)c2c([O-])[n-]c(=O)[n-]c2=O)ccc1[N-]S(C)(=O)=O (optimized conformer: 47.537346395951595 kcal/mol)

>  <smiles>  (38) 
COc1cc(NC(=O)c2c(O)[nH]c(=O)[nH]c2=O)ccc1NS(C)(=O)=O

>  <score_type>  (38) 
oracle

>  <origin>  (38) 
adgpu

>  <m_score__min__energy>  (38) 
-11.84

>  <m_primary>  (38) 
energy

$$$$
38:0
     RDKit          3D

 57 60  0  0  0  0  0  0  0  0999 V2000
   -5.1830   23.9900  -31.5240 O   0  0  0  0  0  0  0  0  0  0  0  0
   -5.1010   23.4540  -30.3850 C   0  0  0  0  0  0  0  0  0  0  0  0
   -6.1050   22.5140  -29.9660 N   0  0  0  0  0  0  0  0  0  0  0  0
   -6.9580   21.7960  -30.8750 C   0  0  0  0  0  0  0  0  0  0  0  0
   -8.3230   22.1120  -31.0030 C   0  0  0  0  0  0  0  0  0  0  0  0
   -9.1280   21.4090  -31.9040 C   0  0  0  0  0  0  0  0  0  0  0  0
   -8.5770   20.3980  -32.6950 C   0  0  0  0  0  0  0  0  0  0  0  0
   -7.2130   20.0930  -32.5980 C   0  0  0  0  0  0  0  0  0  0  0  0
   -6.5070   18.8140  -33.5800 S   0  0  0  0  0  0  0  0  0  0  0  0
   -7.3430   17.5670  -33.4800 O   0  0  0  0  0  0  0  0  0  0  0  0
   -6.4790   19.2580  -35.0160 O   0  0  0  0  0  0  0  0  0  0  0  0
   -4.8800   18.5040  -33.0330 N   0  0  0  0  0  0  0  0  0  0  0  0
   -4.3260   17.3060  -33.6640 C   0  0  0  0  0  0  0  0  0  0  0  0
   -2.8160   17.4900  -33.6940 C   0  0  0  0  0  0  0  0  0  0  0  0
   -2.5880   18.9840  -33.5190 C   0  0  0  0  0  0  0  0  0  0  0  0
   -3.9770   19.5930  -33.4060 C   0  0  0  0  0  0  0  0  0  0  0  0
   -6.4090   20.7940  -31.6900 C   0  0  0  0  0  0  0  0  0  0  0  0
   -3.9960   23.8420  -29.4760 C   0  0  0  0  0  0  0  0  0  0  0  0
   -4.2490   24.1950  -28.1370 C   0  0  0  0  0  0  0  0  0  0  0  0
   -3.1990   24.5530  -27.2860 C   0  0  0  0  0  0  0  0  0  0  0  0
   -1.8800   24.5540  -27.7530 C   0  0  0  0  0  0  0  0  0  0  0  0
   -0.5520   24.9870  -26.6710 S   0  0  0  0  0  0  0  0  0  0  0  0
    0.5270   25.6740  -27.4620 O   0  0  0  0  0  0  0  0  0  0  0  0
    0.0320   23.7350  -26.0790 O   0  0  0  0  0  0  0  0  0  0  0  0
   -1.0870   26.0400  -25.3810 N   0  0  0  0  0  0  0  0  0  0  0  0
   -0.8980   27.4660  -25.7240 C   0  0  0  0  0  0  0  0  0  0  0  0
    0.3010   28.0850  -24.9800 C   0  0  0  0  0  0  0  0  0  0  0  0
    0.1890   28.0000  -23.5660 O   0  0  0  0  0  0  0  0  0  0  0  0
   -0.4860   26.8320  -23.1120 C   0  0  0  0  0  0  0  0  0  0  0  0
   -0.4470   25.6610  -24.1060 C   0  0  0  0  0  0  0  0  0  0  0  0
   -1.6190   24.2030  -29.0840 C   0  0  0  0  0  0  0  0  0  0  0  0
   -2.6670   23.8450  -29.9370 C   0  0  0  0  0  0  0  0  0  0  0  0
   -6.3080   22.4370  -28.9440 H   0  0  0  0  0  0  0  0  0  0  0  0
   -8.7587   22.9158  -30.3914 H   0  0  0  0  0  0  0  0  0  0  0  0
  -10.1973   21.6523  -31.9903 H   0  0  0  0  0  0  0  0  0  0  0  0
   -9.2155   19.8400  -33.3957 H   0  0  0  0  0  0  0  0  0  0  0  0
   -4.5880   16.4126  -33.0781 H   0  0  0  0  0  0  0  0  0  0  0  0
   -4.7294   17.1689  -34.6781 H   0  0  0  0  0  0  0  0  0  0  0  0
   -2.3436   16.9298  -32.8736 H   0  0  0  0  0  0  0  0  0  0  0  0
   -2.3766   17.1159  -34.6305 H   0  0  0  0  0  0  0  0  0  0  0  0
   -2.0061   19.1804  -32.6064 H   0  0  0  0  0  0  0  0  0  0  0  0
   -2.0200   19.4126  -34.3579 H   0  0  0  0  0  0  0  0  0  0  0  0
   -3.9867   20.3760  -32.6334 H   0  0  0  0  0  0  0  0  0  0  0  0
   -4.2854   20.0579  -34.3540 H   0  0  0  0  0  0  0  0  0  0  0  0
   -5.3375   20.5569  -31.6151 H   0  0  0  0  0  0  0  0  0  0  0  0
   -5.2813   24.1891  -27.7571 H   0  0  0  0  0  0  0  0  0  0  0  0
   -3.4109   24.8353  -26.2442 H   0  0  0  0  0  0  0  0  0  0  0  0
   -0.7260   27.5509  -26.8072 H   0  0  0  0  0  0  0  0  0  0  0  0
   -1.8040   28.0112  -25.4209 H   0  0  0  0  0  0  0  0  0  0  0  0
    1.2149   27.5572  -25.2903 H   0  0  0  0  0  0  0  0  0  0  0  0
    0.3307   29.1531  -25.2411 H   0  0  0  0  0  0  0  0  0  0  0  0
   -0.0163   26.5042  -22.1729 H   0  0  0  0  0  0  0  0  0  0  0  0
   -1.5438   27.1054  -22.9840 H   0  0  0  0  0  0  0  0  0  0  0  0
    0.6002   25.3827  -24.2959 H   0  0  0  0  0  0  0  0  0  0  0  0
   -0.9944   24.8105  -23.6736 H   0  0  0  0  0  0  0  0  0  0  0  0
   -0.5850   24.2092  -29.4594 H   0  0  0  0  0  0  0  0  0  0  0  0
   -2.4505   23.5631  -30.9780 H   0  0  0  0  0  0  0  0  0  0  0  0
  1  2  2  0
  2  3  1  0
  3  4  1  0
  4  5  2  0
  5  6  1  0
  6  7  2  0
  7  8  1  0
  8  9  1  0
  9 10  2  0
  9 11  2  0
  9 12  1  0
 12 13  1  0
 13 14  1  0
 14 15  1  0
 15 16  1  0
  8 17  2  0
  2 18  1  0
 18 19  2  0
 19 20  1  0
 20 21  2  0
 21 22  1  0
 22 23  2  0
 22 24  2  0
 22 25  1  0
 25 26  1  0
 26 27  1  0
 27 28  1  0
 28 29  1  0
 29 30  1  0
 21 31  1  0
 31 32  2  0
 17  4  1  0
 32 18  1  0
 16 12  1  0
 30 25  1  0
  3 33  1  0
  5 34  1  0
  6 35  1  0
  7 36  1  0
 13 37  1  0
 13 38  1  0
 14 39  1  0
 14 40  1  0
 15 41  1  0
 15 42  1  0
 16 43  1  0
 16 44  1  0
 17 45  1  0
 19 46  1  0
 20 47  1  0
 26 48  1  0
 26 49  1  0
 27 50  1  0
 27 51  1  0
 29 52  1  0
 29 53  1  0
 30 54  1  0
 30 55  1  0
 31 56  1  0
 32 57  1  0
M  END
>  <UniqueID>  (39) 
39

>  <SMILES>  (39) 
O=C(Nc1cccc(S(=O)(=O)N2CCCC2)c1)c1ccc(S(=O)(=O)N2CCOCC2)cc1

>  <Energy>  (39) 
76.86845268742205

>  <Genealogy>  (39) 
O=C(Nc1cccc(S(=O)(=O)N2CCCC2)c1)c1ccc(S(=O)(=O)N2CCOCC2)cc1 (3D coordinates assigned)
O=C(Nc1cccc(S(=O)(=O)N2CCCC2)c1)c1ccc(S(=O)(=O)N2CCOCC2)cc1 (nonaromatic ring conformer: 76.86845268742205 kcal/mol)

>  <smiles>  (39) 
O=C(Nc1cccc(S(=O)(=O)N2CCCC2)c1)c1ccc(S(=O)(=O)N2CCOCC2)cc1

>  <score_type>  (39) 
oracle

>  <origin>  (39) 
adgpu

>  <m_score__min__energy>  (39) 
-10.51

>  <m_primary>  (39) 
energy

$$$$
39:0
     RDKit          3D

 65 68  0  0  0  0  0  0  0  0999 V2000
   -4.6880   17.5830  -33.4670 O   0  0  0  0  0  0  0  0  0  0  0  0
   -4.7940   18.8370  -33.3890 C   0  0  0  0  0  0  0  0  0  0  0  0
   -3.7000   19.6700  -33.8120 N   0  0  0  0  0  0  0  0  0  0  0  0
   -2.4090   19.1190  -34.2190 C   0  0  0  0  0  0  0  0  0  0  0  0
   -1.6680   18.5360  -33.0060 C   0  0  0  0  0  0  0  0  0  0  0  0
   -0.8360   19.5610  -32.3370 N   0  0  0  0  0  0  0  0  0  0  0  0
   -0.7680   19.3380  -30.8700 C   0  0  0  0  0  0  0  0  0  0  0  0
   -0.3960   20.6230  -30.1170 C   0  0  0  0  0  0  0  0  0  0  0  0
   -1.3880   21.7090  -30.3280 N   0  0  0  0  0  0  0  0  0  0  0  0
   -2.3040   21.8400  -29.1740 C   0  0  0  0  0  0  0  0  0  0  0  0
   -2.0990   23.1580  -28.4710 C   0  0  0  0  0  0  0  0  0  0  0  0
   -1.0500   24.0060  -28.8610 C   0  0  0  0  0  0  0  0  0  0  0  0
   -0.8690   25.2400  -28.2280 C   0  0  0  0  0  0  0  0  0  0  0  0
   -1.7360   25.6360  -27.2060 C   0  0  0  0  0  0  0  0  0  0  0  0
   -2.7870   24.8010  -26.8180 C   0  0  0  0  0  0  0  0  0  0  0  0
   -2.9720   23.5650  -27.4470 C   0  0  0  0  0  0  0  0  0  0  0  0
   -2.1390   21.5720  -31.6010 C   0  0  0  0  0  0  0  0  0  0  0  0
   -1.2740   20.9340  -32.6960 C   0  0  0  0  0  0  0  0  0  0  0  0
   -6.0540   19.4270  -32.8760 C   0  0  0  0  0  0  0  0  0  0  0  0
   -7.1530   18.5960  -32.5940 C   0  0  0  0  0  0  0  0  0  0  0  0
   -8.3450   19.1370  -32.1040 C   0  0  0  0  0  0  0  0  0  0  0  0
   -8.4530   20.5110  -31.8860 C   0  0  0  0  0  0  0  0  0  0  0  0
   -7.3660   21.3530  -32.1530 C   0  0  0  0  0  0  0  0  0  0  0  0
   -7.4740   23.0860  -31.8550 S   0  0  0  0  0  0  0  0  0  0  0  0
   -8.9020   23.5400  -31.9870 O   0  0  0  0  0  0  0  0  0  0  0  0
   -6.6460   23.7980  -32.8900 O   0  0  0  0  0  0  0  0  0  0  0  0
   -6.8650   23.4290  -30.2490 N   0  0  0  0  0  0  0  0  0  0  0  0
   -6.8740   24.8790  -29.9550 C   0  0  0  0  0  0  0  0  0  0  0  0
   -5.4930   25.5340  -30.1480 C   0  0  0  0  0  0  0  0  0  0  0  0
   -4.7820   24.8860  -31.1780 O   0  0  0  0  0  0  0  0  0  0  0  0
   -4.4160   23.5780  -30.7720 C   0  0  0  0  0  0  0  0  0  0  0  0
   -5.5420   22.8210  -30.0260 C   0  0  0  0  0  0  0  0  0  0  0  0
   -6.1680   20.8100  -32.6380 C   0  0  0  0  0  0  0  0  0  0  0  0
   -3.8250   20.7050  -33.8750 H   0  0  0  0  0  0  0  0  0  0  0  0
   -2.5724   18.3231  -34.9606 H   0  0  0  0  0  0  0  0  0  0  0  0
   -1.7997   19.9240  -34.6557 H   0  0  0  0  0  0  0  0  0  0  0  0
   -2.4061   18.1496  -32.2877 H   0  0  0  0  0  0  0  0  0  0  0  0
   -1.0073   17.7303  -33.3587 H   0  0  0  0  0  0  0  0  0  0  0  0
   -1.7495   18.9892  -30.5166 H   0  0  0  0  0  0  0  0  0  0  0  0
    0.0115   18.5873  -30.6730 H   0  0  0  0  0  0  0  0  0  0  0  0
   -0.3405   20.3990  -29.0415 H   0  0  0  0  0  0  0  0  0  0  0  0
    0.5720   20.9720  -30.5058 H   0  0  0  0  0  0  0  0  0  0  0  0
   -3.3430   21.7797  -29.5303 H   0  0  0  0  0  0  0  0  0  0  0  0
   -2.0933   21.0266  -28.4641 H   0  0  0  0  0  0  0  0  0  0  0  0
   -0.3680   23.6986  -29.6674 H   0  0  0  0  0  0  0  0  0  0  0  0
   -0.0436   25.8993  -28.5348 H   0  0  0  0  0  0  0  0  0  0  0  0
   -1.5910   26.6054  -26.7068 H   0  0  0  0  0  0  0  0  0  0  0  0
   -3.4707   25.1162  -26.0160 H   0  0  0  0  0  0  0  0  0  0  0  0
   -3.8014   22.9110  -27.1399 H   0  0  0  0  0  0  0  0  0  0  0  0
   -3.0224   20.9395  -31.4290 H   0  0  0  0  0  0  0  0  0  0  0  0
   -2.4370   22.5762  -31.9367 H   0  0  0  0  0  0  0  0  0  0  0  0
   -1.8585   20.8873  -33.6267 H   0  0  0  0  0  0  0  0  0  0  0  0
   -0.3738   21.5540  -32.8189 H   0  0  0  0  0  0  0  0  0  0  0  0
   -7.0739   17.5115  -32.7604 H   0  0  0  0  0  0  0  0  0  0  0  0
   -9.1996   18.4784  -31.8898 H   0  0  0  0  0  0  0  0  0  0  0  0
   -9.3938   20.9338  -31.5037 H   0  0  0  0  0  0  0  0  0  0  0  0
   -7.5932   25.3698  -30.6272 H   0  0  0  0  0  0  0  0  0  0  0  0
   -7.1549   25.0018  -28.8986 H   0  0  0  0  0  0  0  0  0  0  0  0
   -5.6279   26.5934  -30.4116 H   0  0  0  0  0  0  0  0  0  0  0  0
   -4.9227   25.4474  -29.2114 H   0  0  0  0  0  0  0  0  0  0  0  0
   -4.1427   23.0000  -31.6671 H   0  0  0  0  0  0  0  0  0  0  0  0
   -3.5771   23.6823  -30.0681 H   0  0  0  0  0  0  0  0  0  0  0  0
   -5.5658   21.7807  -30.3827 H   0  0  0  0  0  0  0  0  0  0  0  0
   -5.3253   22.8706  -28.9487 H   0  0  0  0  0  0  0  0  0  0  0  0
   -5.3100   21.4698  -32.8342 H   0  0  0  0  0  0  0  0  0  0  0  0
  1  2  2  0
  2  3  1  0
  3  4  1  0
  4  5  1  0
  5  6  1  0
  6  7  1  0
  7  8  1  0
  8  9  1  0
  9 10  1  0
 10 11  1  0
 11 12  2  0
 12 13  1  0
 13 14  2  0
 14 15  1  0
 15 16  2  0
  9 17  1  0
 17 18  1  0
  2 19  1  0
 19 20  2  0
 20 21  1  0
 21 22  2  0
 22 23  1  0
 23 24  1  0
 24 25  2  0
 24 26  2  0
 24 27  1  0
 27 28  1  0
 28 29  1  0
 29 30  1  0
 30 31  1  0
 31 32  1  0
 23 33  2  0
 18  6  1  0
 33 19  1  0
 16 11  1  0
 32 27  1  0
  3 34  1  0
  4 35  1  0
  4 36  1  0
  5 37  1  0
  5 38  1  0
  7 39  1  0
  7 40  1  0
  8 41  1  0
  8 42  1  0
 10 43  1  0
 10 44  1  0
 12 45  1  0
 13 46  1  0
 14 47  1  0
 15 48  1  0
 16 49  1  0
 17 50  1  0
 17 51  1  0
 18 52  1  0
 18 53  1  0
 20 54  1  0
 21 55  1  0
 22 56  1  0
 28 57  1  0
 28 58  1  0
 29 59  1  0
 29 60  1  0
 31 61  1  0
 31 62  1  0
 32 63  1  0
 32 64  1  0
 33 65  1  0
M  END
>  <UniqueID>  (40) 
40

>  <SMILES>  (40) 
O=C(NCCN1CCN(Cc2ccccc2)CC1)c1cccc(S(=O)(=O)N2CCOCC2)c1

>  <Energy>  (40) 
90.8559543042335

>  <Genealogy>  (40) 
O=C(NCCN1CCN(Cc2ccccc2)CC1)c1cccc(S(=O)(=O)N2CCOCC2)c1 (3D coordinates assigned)
O=C(NCCN1CCN(Cc2ccccc2)CC1)c1cccc(S(=O)(=O)N2CCOCC2)c1 (nonaromatic ring conformer: 90.8559543042335 kcal/mol)

>  <smiles>  (40) 
O=C(NCCN1CCN(Cc2ccccc2)CC1)c1cccc(S(=O)(=O)N2CCOCC2)c1

>  <score_type>  (40) 
oracle

>  <origin>  (40) 
adgpu

>  <m_score__min__energy>  (40) 
-10.359999999999999

>  <m_primary>  (40) 
energy

$$$$
40:0
     RDKit          3D

 57 60  0  0  0  0  0  0  0  0999 V2000
   -0.8440   18.9980  -28.8980 O   0  0  0  0  0  0  0  0  0  0  0  0
   -0.5530   19.9990  -29.6080 C   0  0  0  0  0  0  0  0  0  0  0  0
   -0.4870   19.8630  -31.0380 N   0  0  0  0  0  0  0  0  0  0  0  0
   -0.8610   18.6290  -31.7290 C   0  0  0  0  0  0  0  0  0  0  0  0
    0.2440   18.2030  -32.7000 C   0  0  0  0  0  0  0  0  0  0  0  0
    0.2370   19.0480  -33.9130 N   0  0  0  0  0  0  0  0  0  0  0  0
    1.3580   20.0120  -33.8870 C   0  0  0  0  0  0  0  0  0  0  0  0
    1.0880   21.1930  -34.8340 C   0  0  0  0  0  0  0  0  0  0  0  0
   -0.0790   21.9390  -34.5100 O   0  0  0  0  0  0  0  0  0  0  0  0
   -1.0430   21.2000  -33.7720 C   0  0  0  0  0  0  0  0  0  0  0  0
   -1.0750   19.7050  -34.1380 C   0  0  0  0  0  0  0  0  0  0  0  0
   -0.2770   21.2990  -28.9480 C   0  0  0  0  0  0  0  0  0  0  0  0
    0.0430   21.3690  -27.5790 C   0  0  0  0  0  0  0  0  0  0  0  0
    0.3180   22.6010  -26.9760 C   0  0  0  0  0  0  0  0  0  0  0  0
    0.2940   23.7820  -27.7310 C   0  0  0  0  0  0  0  0  0  0  0  0
    0.5750   25.1040  -27.0720 C   0  0  0  0  0  0  0  0  0  0  0  0
   -0.9610   25.8460  -26.4170 S   0  0  0  0  0  0  0  0  0  0  0  0
   -2.0440   24.9190  -27.5000 C   0  0  0  0  0  0  0  0  0  0  0  0
   -2.3530   25.4070  -28.7270 N   0  0  0  0  0  0  0  0  0  0  0  0
   -3.1920   24.7380  -29.5600 C   0  0  0  0  0  0  0  0  0  0  0  0
   -3.4990   25.2900  -30.7980 O   0  0  0  0  0  0  0  0  0  0  0  0
   -3.7540   23.5140  -29.1560 C   0  0  0  0  0  0  0  0  0  0  0  0
   -4.6800   22.7680  -30.0440 C   0  0  0  0  0  0  0  0  0  0  0  0
   -6.0510   23.0810  -30.0670 C   0  0  0  0  0  0  0  0  0  0  0  0
   -6.9220   22.3770  -30.9040 C   0  0  0  0  0  0  0  0  0  0  0  0
   -6.4330   21.3540  -31.7230 C   0  0  0  0  0  0  0  0  0  0  0  0
   -7.6240   20.3980  -32.8690 Br  0  0  0  0  0  0  0  0  0  0  0  0
   -5.0710   21.0340  -31.7040 C   0  0  0  0  0  0  0  0  0  0  0  0
   -4.1990   21.7360  -30.8670 C   0  0  0  0  0  0  0  0  0  0  0  0
   -3.4080   23.0250  -27.8810 C   0  0  0  0  0  0  0  0  0  0  0  0
   -3.8530   21.9210  -27.4690 O   0  0  0  0  0  0  0  0  0  0  0  0
   -2.5660   23.7360  -27.0890 N   0  0  0  0  0  0  0  0  0  0  0  0
   -0.0200   23.7170  -29.0970 C   0  0  0  0  0  0  0  0  0  0  0  0
   -0.3010   22.4880  -29.7000 C   0  0  0  0  0  0  0  0  0  0  0  0
   -0.0170   20.6000  -31.6070 H   0  0  0  0  0  0  0  0  0  0  0  0
   -1.0184   17.8321  -30.9873 H   0  0  0  0  0  0  0  0  0  0  0  0
   -1.7860   18.8055  -32.2975 H   0  0  0  0  0  0  0  0  0  0  0  0
    1.2191   18.2991  -32.2001 H   0  0  0  0  0  0  0  0  0  0  0  0
    0.0656   17.1594  -32.9984 H   0  0  0  0  0  0  0  0  0  0  0  0
    1.4818   20.3929  -32.8625 H   0  0  0  0  0  0  0  0  0  0  0  0
    2.2719   19.4974  -34.2186 H   0  0  0  0  0  0  0  0  0  0  0  0
    1.9534   21.8710  -34.7969 H   0  0  0  0  0  0  0  0  0  0  0  0
    0.9260   20.7675  -35.8354 H   0  0  0  0  0  0  0  0  0  0  0  0
   -0.8088   21.2924  -32.7012 H   0  0  0  0  0  0  0  0  0  0  0  0
   -2.0309   21.6168  -34.0177 H   0  0  0  0  0  0  0  0  0  0  0  0
   -1.8336   19.2041  -33.5186 H   0  0  0  0  0  0  0  0  0  0  0  0
   -1.3165   19.6228  -35.2080 H   0  0  0  0  0  0  0  0  0  0  0  0
    0.0771   20.4479  -26.9787 H   0  0  0  0  0  0  0  0  0  0  0  0
    0.5546   22.6433  -25.9026 H   0  0  0  0  0  0  0  0  0  0  0  0
    1.2823   24.9503  -26.2437 H   0  0  0  0  0  0  0  0  0  0  0  0
    1.0029   25.7862  -27.8213 H   0  0  0  0  0  0  0  0  0  0  0  0
   -6.4399   23.8837  -29.4233 H   0  0  0  0  0  0  0  0  0  0  0  0
   -7.9929   22.6279  -30.9184 H   0  0  0  0  0  0  0  0  0  0  0  0
   -4.6863   20.2296  -32.3481 H   0  0  0  0  0  0  0  0  0  0  0  0
   -3.1296   21.4788  -30.8526 H   0  0  0  0  0  0  0  0  0  0  0  0
   -0.0451   24.6388  -29.6967 H   0  0  0  0  0  0  0  0  0  0  0  0
   -0.5432   22.4498  -30.7723 H   0  0  0  0  0  0  0  0  0  0  0  0
  1  2  2  0
  2  3  1  0
  3  4  1  0
  4  5  1  0
  5  6  1  0
  6  7  1  0
  7  8  1  0
  8  9  1  0
  9 10  1  0
 10 11  1  0
  2 12  1  0
 12 13  2  0
 13 14  1  0
 14 15  2  0
 15 16  1  0
 16 17  1  0
 17 18  1  0
 18 19  2  0
 19 20  1  0
 20 21  1  0
 20 22  2  0
 22 23  1  0
 23 24  2  0
 24 25  1  0
 25 26  2  0
 26 27  1  0
 26 28  1  0
 28 29  2  0
 22 30  1  0
 30 31  2  0
 30 32  1  0
 15 33  1  0
 33 34  2  0
 11  6  1  0
 34 12  1  0
 32 18  1  0
 29 23  1  0
  3 35  1  0
  4 36  1  0
  4 37  1  0
  5 38  1  0
  5 39  1  0
  7 40  1  0
  7 41  1  0
  8 42  1  0
  8 43  1  0
 10 44  1  0
 10 45  1  0
 11 46  1  0
 11 47  1  0
 13 48  1  0
 14 49  1  0
 16 50  1  0
 16 51  1  0
 24 52  1  0
 25 53  1  0
 28 54  1  0
 29 55  1  0
 33 56  1  0
 34 57  1  0
M  CHG  2  21  -1  32  -1
M  END
>  <UniqueID>  (41) 
41

>  <SMILES>  (41) 
O=C(NCCN1CCOCC1)c1ccc(CSc2nc([O-])c(-c3ccc(Br)cc3)c(=O)[n-]2)cc1

>  <Energy>  (41) 
77.57450573017623

>  <Genealogy>  (41) 
O=C(NCCN1CCOCC1)c1ccc(CSc2nc([O-])c(-c3ccc(Br)cc3)c(=O)[n-]2)cc1 (protonated)
O=C(NCCN1CCOCC1)c1ccc(CSc2nc([O-])c(-c3ccc(Br)cc3)c(=O)[n-]2)cc1 (3D coordinates assigned)
O=C(NCCN1CCOCC1)c1ccc(CSc2nc([O-])c(-c3ccc(Br)cc3)c(=O)[n-]2)cc1 (nonaromatic ring conformer: 77.57450573017623 kcal/mol)

>  <smiles>  (41) 
O=C(NCCN1CCOCC1)c1ccc(CSc2nc(O)c(-c3ccc(Br)cc3)c(=O)[nH]2)cc1

>  <score_type>  (41) 
oracle

>  <origin>  (41) 
adgpu

>  <m_score__min__energy>  (41) 
-12.65

>  <m_primary>  (41) 
energy

$$$$
41:0
     RDKit          3D

 57 60  0  0  0  0  0  0  0  0999 V2000
   -3.7920   22.2980  -33.8280 O   0  0  0  0  0  0  0  0  0  0  0  0
   -3.7650   22.2100  -32.5700 C   0  0  0  0  0  0  0  0  0  0  0  0
   -4.7470   22.8910  -31.7830 N   0  0  0  0  0  0  0  0  0  0  0  0
   -6.1430   22.5640  -31.7690 C   0  0  0  0  0  0  0  0  0  0  0  0
   -7.0870   23.5990  -31.7630 C   0  0  0  0  0  0  0  0  0  0  0  0
   -8.4540   23.3070  -31.8440 C   0  0  0  0  0  0  0  0  0  0  0  0
   -8.8830   21.9820  -31.9660 C   0  0  0  0  0  0  0  0  0  0  0  0
   -7.9440   20.9410  -32.0000 C   0  0  0  0  0  0  0  0  0  0  0  0
   -8.4620   19.2730  -32.2310 S   0  0  0  0  0  0  0  0  0  0  0  0
   -9.7030   19.2380  -33.0850 O   0  0  0  0  0  0  0  0  0  0  0  0
   -8.7680   18.6660  -30.8890 O   0  0  0  0  0  0  0  0  0  0  0  0
   -7.1810   18.3700  -33.0010 N   0  0  0  0  0  0  0  0  0  0  0  0
   -6.1600   17.9580  -32.0390 C   0  0  0  0  0  0  0  0  0  0  0  0
   -4.8870   17.7550  -32.8400 C   0  0  0  0  0  0  0  0  0  0  0  0
   -5.0520   18.6330  -34.0730 C   0  0  0  0  0  0  0  0  0  0  0  0
   -6.4730   19.1780  -33.9960 C   0  0  0  0  0  0  0  0  0  0  0  0
   -6.5790   21.2330  -31.8760 C   0  0  0  0  0  0  0  0  0  0  0  0
   -2.6870   21.4610  -31.8990 C   0  0  0  0  0  0  0  0  0  0  0  0
   -2.6600   21.4550  -30.4950 C   0  0  0  0  0  0  0  0  0  0  0  0
   -1.6160   20.8320  -29.8020 C   0  0  0  0  0  0  0  0  0  0  0  0
   -1.6020   20.8760  -28.0430 S   0  0  0  0  0  0  0  0  0  0  0  0
   -0.2870   20.3280  -27.5570 O   0  0  0  0  0  0  0  0  0  0  0  0
   -2.7200   20.0320  -27.4890 O   0  0  0  0  0  0  0  0  0  0  0  0
   -1.7910   22.5300  -27.5100 N   0  0  0  0  0  0  0  0  0  0  0  0
   -0.7110   23.3910  -28.0430 C   0  0  0  0  0  0  0  0  0  0  0  0
   -1.1880   24.2560  -29.2250 C   0  0  0  0  0  0  0  0  0  0  0  0
   -2.2970   25.0900  -28.9140 O   0  0  0  0  0  0  0  0  0  0  0  0
   -3.1580   24.5540  -27.9160 C   0  0  0  0  0  0  0  0  0  0  0  0
   -3.1410   23.0180  -27.8480 C   0  0  0  0  0  0  0  0  0  0  0  0
   -0.5930   20.1970  -30.5160 C   0  0  0  0  0  0  0  0  0  0  0  0
   -0.6180   20.1800  -31.9130 C   0  0  0  0  0  0  0  0  0  0  0  0
   -1.6610   20.8000  -32.6150 C   0  0  0  0  0  0  0  0  0  0  0  0
   -1.6570   20.7180  -34.0080 O   0  0  0  0  0  0  0  0  0  0  0  0
   -6.7531   24.6449  -31.6944 H   0  0  0  0  0  0  0  0  0  0  0  0
   -9.1921   24.1220  -31.8116 H   0  0  0  0  0  0  0  0  0  0  0  0
   -9.9573   21.7560  -32.0353 H   0  0  0  0  0  0  0  0  0  0  0  0
   -6.0129   18.7400  -31.2795 H   0  0  0  0  0  0  0  0  0  0  0  0
   -6.4532   17.0395  -31.5094 H   0  0  0  0  0  0  0  0  0  0  0  0
   -4.0090   18.0692  -32.2565 H   0  0  0  0  0  0  0  0  0  0  0  0
   -4.7290   16.6988  -33.1035 H   0  0  0  0  0  0  0  0  0  0  0  0
   -4.3229   19.4565  -34.0591 H   0  0  0  0  0  0  0  0  0  0  0  0
   -4.8803   18.0694  -35.0019 H   0  0  0  0  0  0  0  0  0  0  0  0
   -6.4579   20.2333  -33.6860 H   0  0  0  0  0  0  0  0  0  0  0  0
   -6.9706   19.1243  -34.9755 H   0  0  0  0  0  0  0  0  0  0  0  0
   -5.8442   20.4145  -31.8624 H   0  0  0  0  0  0  0  0  0  0  0  0
   -3.4687   21.9456  -29.9335 H   0  0  0  0  0  0  0  0  0  0  0  0
   -0.3565   24.0533  -27.2394 H   0  0  0  0  0  0  0  0  0  0  0  0
    0.0950   22.7366  -28.4064 H   0  0  0  0  0  0  0  0  0  0  0  0
   -0.3525   24.8952  -29.5466 H   0  0  0  0  0  0  0  0  0  0  0  0
   -1.5176   23.5655  -30.0153 H   0  0  0  0  0  0  0  0  0  0  0  0
   -2.8449   24.9488  -26.9382 H   0  0  0  0  0  0  0  0  0  0  0  0
   -4.1830   24.8537  -28.1797 H   0  0  0  0  0  0  0  0  0  0  0  0
   -3.8506   22.6821  -27.0775 H   0  0  0  0  0  0  0  0  0  0  0  0
   -3.4287   22.6156  -28.8305 H   0  0  0  0  0  0  0  0  0  0  0  0
    0.2325   19.7102  -29.9760 H   0  0  0  0  0  0  0  0  0  0  0  0
    0.1877   19.6757  -32.4667 H   0  0  0  0  0  0  0  0  0  0  0  0
   -2.2040   21.3310  -34.5990 H   0  0  0  0  0  0  0  0  0  0  0  0
  1  2  2  0
  2  3  1  0
  3  4  1  0
  4  5  2  0
  5  6  1  0
  6  7  2  0
  7  8  1  0
  8  9  1  0
  9 10  2  0
  9 11  2  0
  9 12  1  0
 12 13  1  0
 13 14  1  0
 14 15  1  0
 15 16  1  0
  8 17  2  0
  2 18  1  0
 18 19  2  0
 19 20  1  0
 20 21  1  0
 21 22  2  0
 21 23  2  0
 21 24  1  0
 24 25  1  0
 25 26  1  0
 26 27  1  0
 27 28  1  0
 28 29  1  0
 20 30  2  0
 30 31  1  0
 31 32  2  0
 32 33  1  0
 17  4  1  0
 32 18  1  0
 16 12  1  0
 29 24  1  0
  5 34  1  0
  6 35  1  0
  7 36  1  0
 13 37  1  0
 13 38  1  0
 14 39  1  0
 14 40  1  0
 15 41  1  0
 15 42  1  0
 16 43  1  0
 16 44  1  0
 17 45  1  0
 19 46  1  0
 25 47  1  0
 25 48  1  0
 26 49  1  0
 26 50  1  0
 28 51  1  0
 28 52  1  0
 29 53  1  0
 29 54  1  0
 30 55  1  0
 31 56  1  0
 33 57  1  0
M  CHG  1   3  -1
M  END
>  <UniqueID>  (42) 
42

>  <SMILES>  (42) 
O=C([N-]c1cccc(S(=O)(=O)N2CCCC2)c1)c1cc(S(=O)(=O)N2CCOCC2)ccc1O

>  <Energy>  (42) 
82.29176338862558

>  <Genealogy>  (42) 
O=C([N-]c1cccc(S(=O)(=O)N2CCCC2)c1)c1cc(S(=O)(=O)N2CCOCC2)ccc1O (protonated)
O=C([N-]c1cccc(S(=O)(=O)N2CCCC2)c1)c1cc(S(=O)(=O)N2CCOCC2)ccc1O (3D coordinates assigned)
O=C([N-]c1cccc(S(=O)(=O)N2CCCC2)c1)c1cc(S(=O)(=O)N2CCOCC2)ccc1O (nonaromatic ring conformer: 82.29176338862558 kcal/mol)

>  <smiles>  (42) 
O=C(Nc1cccc(S(=O)(=O)N2CCCC2)c1)c1cc(S(=O)(=O)N2CCOCC2)ccc1O

>  <score_type>  (42) 
oracle

>  <origin>  (42) 
adgpu

>  <m_score__min__energy>  (42) 
-11.92

>  <m_primary>  (42) 
energy

$$$$
42:0
     RDKit          3D

 56 59  0  0  0  0  0  0  0  0999 V2000
   -0.4380   16.8800  -31.8910 O   0  0  0  0  0  0  0  0  0  0  0  0
   -0.6570   18.1190  -31.9080 C   0  0  0  0  0  0  0  0  0  0  0  0
   -1.1180   18.7640  -33.1890 C   0  0  0  0  0  0  0  0  0  0  0  0
   -2.5160   19.2900  -33.0580 C   0  0  0  0  0  0  0  0  0  0  0  0
   -3.8820   18.3680  -32.7180 S   0  0  0  0  0  0  0  0  0  0  0  0
   -4.9310   19.6890  -32.8270 C   0  0  0  0  0  0  0  0  0  0  0  0
   -6.3600   19.6400  -32.6490 N   0  0  0  0  0  0  0  0  0  0  0  0
   -7.1350   18.4390  -33.0000 C   0  0  0  0  0  0  0  0  0  0  0  0
   -8.2310   18.1940  -31.9560 C   0  0  0  0  0  0  0  0  0  0  0  0
   -9.0940   19.4440  -31.6630 C   0  0  0  0  0  0  0  0  0  0  0  0
   -8.5790   20.7200  -32.3410 C   0  0  0  0  0  0  0  0  0  0  0  0
   -7.0590   20.8550  -32.1970 C   0  0  0  0  0  0  0  0  0  0  0  0
   -4.2620   20.8260  -33.1320 N   0  0  0  0  0  0  0  0  0  0  0  0
   -2.9260   20.6060  -33.2650 C   0  0  0  0  0  0  0  0  0  0  0  0
   -2.0420   21.6310  -33.5870 O   0  0  0  0  0  0  0  0  0  0  0  0
   -0.3110   18.8930  -30.7520 N   0  0  0  0  0  0  0  0  0  0  0  0
   -0.8700   20.1590  -30.3780 C   0  0  0  0  0  0  0  0  0  0  0  0
   -0.4100   21.3570  -30.9480 C   0  0  0  0  0  0  0  0  0  0  0  0
   -0.9810   22.5790  -30.5770 C   0  0  0  0  0  0  0  0  0  0  0  0
   -2.0340   22.6110  -29.6510 C   0  0  0  0  0  0  0  0  0  0  0  0
   -2.7290   24.1500  -29.1480 S   0  0  0  0  0  0  0  0  0  0  0  0
   -1.6850   25.2240  -29.2860 O   0  0  0  0  0  0  0  0  0  0  0  0
   -3.1450   24.0730  -27.7030 O   0  0  0  0  0  0  0  0  0  0  0  0
   -4.1010   24.5380  -30.1550 N   0  0  0  0  0  0  0  0  0  0  0  0
   -4.3720   23.4340  -31.0940 C   0  0  0  0  0  0  0  0  0  0  0  0
   -5.7520   23.6080  -31.7620 C   0  0  0  0  0  0  0  0  0  0  0  0
   -6.2390   24.9230  -31.5820 O   0  0  0  0  0  0  0  0  0  0  0  0
   -6.4900   25.1580  -30.2050 C   0  0  0  0  0  0  0  0  0  0  0  0
   -5.2820   24.7960  -29.3160 C   0  0  0  0  0  0  0  0  0  0  0  0
   -2.5140   21.4130  -29.1070 C   0  0  0  0  0  0  0  0  0  0  0  0
   -1.9430   20.1920  -29.4800 C   0  0  0  0  0  0  0  0  0  0  0  0
   -0.4427   19.5968  -33.4348 H   0  0  0  0  0  0  0  0  0  0  0  0
   -1.1041   18.0057  -33.9858 H   0  0  0  0  0  0  0  0  0  0  0  0
   -7.5986   18.5811  -33.9874 H   0  0  0  0  0  0  0  0  0  0  0  0
   -6.4607   17.5703  -33.0240 H   0  0  0  0  0  0  0  0  0  0  0  0
   -8.8903   17.3942  -32.3243 H   0  0  0  0  0  0  0  0  0  0  0  0
   -7.7281   17.9204  -31.0167 H   0  0  0  0  0  0  0  0  0  0  0  0
  -10.1172   19.2508  -32.0176 H   0  0  0  0  0  0  0  0  0  0  0  0
   -9.0524   19.6168  -30.5775 H   0  0  0  0  0  0  0  0  0  0  0  0
   -8.8356   20.6858  -33.4101 H   0  0  0  0  0  0  0  0  0  0  0  0
   -9.0513   21.5858  -31.8538 H   0  0  0  0  0  0  0  0  0  0  0  0
   -6.7179   21.7084  -32.8014 H   0  0  0  0  0  0  0  0  0  0  0  0
   -6.8272   21.0086  -31.1327 H   0  0  0  0  0  0  0  0  0  0  0  0
   -1.9700   21.9730  -34.5370 H   0  0  0  0  0  0  0  0  0  0  0  0
    0.4025   21.3345  -31.6891 H   0  0  0  0  0  0  0  0  0  0  0  0
   -0.6036   23.5162  -31.0121 H   0  0  0  0  0  0  0  0  0  0  0  0
   -3.5940   23.4229  -31.8715 H   0  0  0  0  0  0  0  0  0  0  0  0
   -4.3684   22.4869  -30.5346 H   0  0  0  0  0  0  0  0  0  0  0  0
   -5.6590   23.4029  -32.8387 H   0  0  0  0  0  0  0  0  0  0  0  0
   -6.4585   22.9054  -31.2959 H   0  0  0  0  0  0  0  0  0  0  0  0
   -6.7242   26.2237  -30.0656 H   0  0  0  0  0  0  0  0  0  0  0  0
   -7.3317   24.5171  -29.9037 H   0  0  0  0  0  0  0  0  0  0  0  0
   -5.0686   25.6315  -28.6331 H   0  0  0  0  0  0  0  0  0  0  0  0
   -5.5180   23.8918  -28.7357 H   0  0  0  0  0  0  0  0  0  0  0  0
   -3.3428   21.4325  -28.3840 H   0  0  0  0  0  0  0  0  0  0  0  0
   -2.3391   19.2532  -29.0656 H   0  0  0  0  0  0  0  0  0  0  0  0
  1  2  2  0
  2  3  1  0
  3  4  1  0
  4  5  1  0
  5  6  1  0
  6  7  1  0
  7  8  1  0
  8  9  1  0
  9 10  1  0
 10 11  1  0
 11 12  1  0
  6 13  2  0
 13 14  1  0
 14 15  1  0
  2 16  1  0
 16 17  1  0
 17 18  2  0
 18 19  1  0
 19 20  2  0
 20 21  1  0
 21 22  2  0
 21 23  2  0
 21 24  1  0
 24 25  1  0
 25 26  1  0
 26 27  1  0
 27 28  1  0
 28 29  1  0
 20 30  1  0
 30 31  2  0
 14  4  2  0
 31 17  1  0
 12  7  1  0
 29 24  1  0
  3 32  1  0
  3 33  1  0
  8 34  1  0
  8 35  1  0
  9 36  1  0
  9 37  1  0
 10 38  1  0
 10 39  1  0
 11 40  1  0
 11 41  1  0
 12 42  1  0
 12 43  1  0
 15 44  1  0
 18 45  1  0
 19 46  1  0
 25 47  1  0
 25 48  1  0
 26 49  1  0
 26 50  1  0
 28 51  1  0
 28 52  1  0
 29 53  1  0
 29 54  1  0
 30 55  1  0
 31 56  1  0
M  CHG  1  16  -1
M  END
>  <UniqueID>  (43) 
43

>  <SMILES>  (43) 
O=C(Cc1sc(N2CCCCC2)nc1O)[N-]c1ccc(S(=O)(=O)N2CCOCC2)cc1

>  <Energy>  (43) 
99.20447951684679

>  <Genealogy>  (43) 
O=C(Cc1sc(N2CCCCC2)nc1O)[N-]c1ccc(S(=O)(=O)N2CCOCC2)cc1 (protonated)
O=C(Cc1sc(N2CCCCC2)nc1O)[N-]c1ccc(S(=O)(=O)N2CCOCC2)cc1 (3D coordinates assigned)
O=C(Cc1sc(N2CCCCC2)nc1O)[N-]c1ccc(S(=O)(=O)N2CCOCC2)cc1 (nonaromatic ring conformer: 99.20447951684679 kcal/mol)

>  <smiles>  (43) 
O=C(Cc1sc(N2CCCCC2)nc1O)Nc1ccc(S(=O)(=O)N2CCOCC2)cc1

>  <score_type>  (43) 
oracle

>  <origin>  (43) 
adgpu

>  <m_score__min__energy>  (43) 
-10.85

>  <m_primary>  (43) 
energy

$$$$
43:0
     RDKit          3D

 60 64  0  0  0  0  0  0  0  0999 V2000
    0.1390   28.6830  -38.3750 C   0  0  0  0  0  0  0  0  0  0  0  0
    0.7730   27.4390  -37.9000 N   0  0  0  0  0  0  0  0  0  0  0  0
   -0.0120   26.4540  -37.3450 C   0  0  0  0  0  0  0  0  0  0  0  0
   -1.2600   26.5830  -37.2400 O   0  0  0  0  0  0  0  0  0  0  0  0
    0.6020   25.2990  -36.8890 C   0  0  0  0  0  0  0  0  0  0  0  0
    0.0400   24.2270  -36.3000 N   0  0  0  0  0  0  0  0  0  0  0  0
    1.0590   23.3780  -36.0080 C   0  0  0  0  0  0  0  0  0  0  0  0
    0.8820   22.0750  -35.3080 C   0  0  0  0  0  0  0  0  0  0  0  0
   -0.2270   21.2540  -35.5900 C   0  0  0  0  0  0  0  0  0  0  0  0
   -0.4090   20.0440  -34.9160 C   0  0  0  0  0  0  0  0  0  0  0  0
    0.5190   19.6220  -33.9520 C   0  0  0  0  0  0  0  0  0  0  0  0
    0.3010   18.0900  -33.1050 S   0  0  0  0  0  0  0  0  0  0  0  0
   -0.5370   17.2000  -33.9790 O   0  0  0  0  0  0  0  0  0  0  0  0
    1.6310   17.4220  -32.8730 O   0  0  0  0  0  0  0  0  0  0  0  0
   -0.5170   18.2930  -31.5890 N   0  0  0  0  0  0  0  0  0  0  0  0
   -0.7290   19.5640  -30.9600 C   0  0  0  0  0  0  0  0  0  0  0  0
   -1.9270   20.2680  -31.1170 C   0  0  0  0  0  0  0  0  0  0  0  0
   -2.1410   21.4700  -30.4340 C   0  0  0  0  0  0  0  0  0  0  0  0
   -1.1320   22.0170  -29.6330 C   0  0  0  0  0  0  0  0  0  0  0  0
   -1.4030   23.5090  -28.7150 S   0  0  0  0  0  0  0  0  0  0  0  0
   -0.0710   24.1710  -28.4830 O   0  0  0  0  0  0  0  0  0  0  0  0
   -1.9930   23.1970  -27.3660 O   0  0  0  0  0  0  0  0  0  0  0  0
   -2.3930   24.6370  -29.5940 N   0  0  0  0  0  0  0  0  0  0  0  0
   -3.6750   24.5960  -29.8270 C   0  0  0  0  0  0  0  0  0  0  0  0
   -4.5080   23.5500  -29.3790 C   0  0  0  0  0  0  0  0  0  0  0  0
   -5.8730   23.5790  -29.6800 C   0  0  0  0  0  0  0  0  0  0  0  0
   -6.4050   24.6410  -30.4140 C   0  0  0  0  0  0  0  0  0  0  0  0
   -5.5570   25.6640  -30.8410 C   0  0  0  0  0  0  0  0  0  0  0  0
   -4.2310   25.6170  -30.5400 N   0  0  0  0  0  0  0  0  0  0  0  0
    0.1120   21.3680  -29.5710 C   0  0  0  0  0  0  0  0  0  0  0  0
    0.3140   20.1560  -30.2370 C   0  0  0  0  0  0  0  0  0  0  0  0
    1.6240   20.4290  -33.6680 C   0  0  0  0  0  0  0  0  0  0  0  0
    1.8080   21.6400  -34.3390 C   0  0  0  0  0  0  0  0  0  0  0  0
    2.2770   23.9320  -36.4200 C   0  0  0  0  0  0  0  0  0  0  0  0
    1.9480   25.1580  -36.9750 C   0  0  0  0  0  0  0  0  0  0  0  0
    2.7520   26.1290  -37.4940 N   0  0  0  0  0  0  0  0  0  0  0  0
    4.2090   25.9350  -37.5230 C   0  0  0  0  0  0  0  0  0  0  0  0
    2.1480   27.2830  -37.9530 C   0  0  0  0  0  0  0  0  0  0  0  0
    2.8590   28.2160  -38.4300 O   0  0  0  0  0  0  0  0  0  0  0  0
   -0.1703   29.2899  -37.5113 H   0  0  0  0  0  0  0  0  0  0  0  0
    0.8574   29.2513  -38.9840 H   0  0  0  0  0  0  0  0  0  0  0  0
   -0.7430   28.4357  -38.9840 H   0  0  0  0  0  0  0  0  0  0  0  0
   -0.9770   24.1200  -36.0830 H   0  0  0  0  0  0  0  0  0  0  0  0
   -0.9579   21.5690  -36.3493 H   0  0  0  0  0  0  0  0  0  0  0  0
   -1.2850   19.4184  -35.1424 H   0  0  0  0  0  0  0  0  0  0  0  0
   -0.8220   17.4210  -31.0950 H   0  0  0  0  0  0  0  0  0  0  0  0
   -2.7080   19.8732  -31.7834 H   0  0  0  0  0  0  0  0  0  0  0  0
   -3.1071   21.9878  -30.5270 H   0  0  0  0  0  0  0  0  0  0  0  0
   -4.0868   22.7171  -28.7968 H   0  0  0  0  0  0  0  0  0  0  0  0
   -6.5285   22.7644  -29.3383 H   0  0  0  0  0  0  0  0  0  0  0  0
   -7.4784   24.6710  -30.6526 H   0  0  0  0  0  0  0  0  0  0  0  0
   -5.9604   26.5075  -31.4204 H   0  0  0  0  0  0  0  0  0  0  0  0
    0.9337   21.8171  -28.9938 H   0  0  0  0  0  0  0  0  0  0  0  0
    1.2972   19.6646  -30.1930 H   0  0  0  0  0  0  0  0  0  0  0  0
    2.3542   20.1081  -32.9105 H   0  0  0  0  0  0  0  0  0  0  0  0
    2.6859   22.2614  -34.1084 H   0  0  0  0  0  0  0  0  0  0  0  0
    3.2793   23.4892  -36.3238 H   0  0  0  0  0  0  0  0  0  0  0  0
    4.5927   25.8839  -36.4933 H   0  0  0  0  0  0  0  0  0  0  0  0
    4.4437   24.9977  -38.0487 H   0  0  0  0  0  0  0  0  0  0  0  0
    4.6808   26.7783  -38.0487 H   0  0  0  0  0  0  0  0  0  0  0  0
  1  2  1  0
  2  3  1  0
  3  4  2  0
  3  5  1  0
  5  6  1  0
  6  7  1  0
  7  8  1  0
  8  9  2  0
  9 10  1  0
 10 11  2  0
 11 12  1  0
 12 13  2  0
 12 14  2  0
 12 15  1  0
 15 16  1  0
 16 17  2  0
 17 18  1  0
 18 19  2  0
 19 20  1  0
 20 21  2  0
 20 22  2  0
 20 23  1  0
 23 24  2  3
 24 25  1  0
 25 26  2  0
 26 27  1  0
 27 28  2  0
 28 29  1  0
 19 30  1  0
 30 31  2  0
 11 32  1  0
 32 33  2  0
  7 34  2  0
 34 35  1  0
 35 36  1  0
 36 37  1  0
 36 38  1  0
 38 39  2  0
 38  2  1  0
 35  5  2  0
 33  8  1  0
 31 16  1  0
 29 24  1  0
  1 40  1  0
  1 41  1  0
  1 42  1  0
  6 43  1  0
  9 44  1  0
 10 45  1  0
 15 46  1  0
 17 47  1  0
 18 48  1  0
 25 49  1  0
 26 50  1  0
 27 51  1  0
 28 52  1  0
 30 53  1  0
 31 54  1  0
 32 55  1  0
 33 56  1  0
 34 57  1  0
 37 58  1  0
 37 59  1  0
 37 60  1  0
M  CHG  1  29  -1
M  END
>  <UniqueID>  (44) 
44

>  <SMILES>  (44) 
Cn1c(=O)c2[nH]c(-c3ccc(S(=O)(=O)Nc4ccc(S(=O)(=O)N=c5cccc[n-]5)cc4)cc3)cc2n(C)c1=O

>  <Energy>  (44) 
125.06729959972392

>  <Genealogy>  (44) 
Cn1c(=O)c2[nH]c(-c3ccc(S(=O)(=O)Nc4ccc(S(=O)(=O)N=c5cccc[n-]5)cc4)cc3)cc2n(C)c1=O (protonated)
Cn1c(=O)c2[nH]c(-c3ccc(S(=O)(=O)Nc4ccc(S(=O)(=O)N=c5cccc[n-]5)cc4)cc3)cc2n(C)c1=O (3D coordinates assigned)
Cn1c(=O)c2[nH]c(-c3ccc(S(=O)(=O)Nc4ccc(S(=O)(=O)N=c5cccc[n-]5)cc4)cc3)cc2n(C)c1=O (optimized conformer: 125.06729959972392 kcal/mol)

>  <smiles>  (44) 
Cn1c(=O)c2[nH]c(-c3ccc(S(=O)(=O)Nc4ccc(S(=O)(=O)N=c5cccc[nH]5)cc4)cc3)cc2n(C)c1=O

>  <score_type>  (44) 
oracle

>  <origin>  (44) 
adgpu

>  <m_score__min__energy>  (44) 
-12.19

>  <m_primary>  (44) 
energy

$$$$
44:0
     RDKit          3D

 42 44  0  0  0  0  0  0  0  0999 V2000
   -1.2440   23.5220  -29.9820 O   0  0  0  0  0  0  0  0  0  0  0  0
   -1.9900   24.3060  -29.3350 C   0  0  0  0  0  0  0  0  0  0  0  0
   -3.1130   24.9270  -29.9750 N   0  0  0  0  0  0  0  0  0  0  0  0
   -4.3550   24.2950  -30.3190 C   0  0  0  0  0  0  0  0  0  0  0  0
   -4.5620   22.9660  -29.9310 C   0  0  0  0  0  0  0  0  0  0  0  0
   -5.7500   22.3080  -30.2600 C   0  0  0  0  0  0  0  0  0  0  0  0
   -6.7440   22.9700  -30.9950 C   0  0  0  0  0  0  0  0  0  0  0  0
   -8.2540   22.1460  -31.3950 S   0  0  0  0  0  0  0  0  0  0  0  0
   -9.1550   23.0970  -32.1340 O   0  0  0  0  0  0  0  0  0  0  0  0
   -8.9490   21.7400  -30.1250 O   0  0  0  0  0  0  0  0  0  0  0  0
   -7.9740   20.7310  -32.3830 N   0  0  0  0  0  0  0  0  0  0  0  0
   -6.5670   20.6490  -32.8340 C   0  0  0  0  0  0  0  0  0  0  0  0
   -5.7750   19.5780  -32.0630 C   0  0  0  0  0  0  0  0  0  0  0  0
   -6.3330   18.2760  -32.1760 O   0  0  0  0  0  0  0  0  0  0  0  0
   -7.7530   18.2670  -32.2710 C   0  0  0  0  0  0  0  0  0  0  0  0
   -8.4290   19.5160  -31.6830 C   0  0  0  0  0  0  0  0  0  0  0  0
   -6.5260   24.2890  -31.4150 C   0  0  0  0  0  0  0  0  0  0  0  0
   -5.3370   24.9490  -31.0840 C   0  0  0  0  0  0  0  0  0  0  0  0
   -1.6290   24.6800  -27.9520 C   0  0  0  0  0  0  0  0  0  0  0  0
   -2.6580   24.9980  -27.0480 C   0  0  0  0  0  0  0  0  0  0  0  0
   -2.3680   25.2860  -25.7120 C   0  0  0  0  0  0  0  0  0  0  0  0
   -1.0490   25.2610  -25.2620 C   0  0  0  0  0  0  0  0  0  0  0  0
   -0.0130   24.9680  -26.1510 C   0  0  0  0  0  0  0  0  0  0  0  0
   -0.2850   24.6960  -27.4980 C   0  0  0  0  0  0  0  0  0  0  0  0
    0.7980   24.4890  -28.3540 O   0  0  0  0  0  0  0  0  0  0  0  0
   -3.7836   22.4357  -29.3628 H   0  0  0  0  0  0  0  0  0  0  0  0
   -5.9061   21.2668  -29.9413 H   0  0  0  0  0  0  0  0  0  0  0  0
   -6.5516   20.3994  -33.9052 H   0  0  0  0  0  0  0  0  0  0  0  0
   -6.0927   21.6234  -32.6452 H   0  0  0  0  0  0  0  0  0  0  0  0
   -4.7479   19.5529  -32.4560 H   0  0  0  0  0  0  0  0  0  0  0  0
   -5.8050   19.8540  -30.9986 H   0  0  0  0  0  0  0  0  0  0  0  0
   -8.0277   18.1934  -33.3336 H   0  0  0  0  0  0  0  0  0  0  0  0
   -8.1051   17.4081  -31.6808 H   0  0  0  0  0  0  0  0  0  0  0  0
   -9.5195   19.4224  -31.7931 H   0  0  0  0  0  0  0  0  0  0  0  0
   -8.1592   19.5976  -30.6197 H   0  0  0  0  0  0  0  0  0  0  0  0
   -7.2933   24.8083  -32.0079 H   0  0  0  0  0  0  0  0  0  0  0  0
   -5.1703   25.9820  -31.4232 H   0  0  0  0  0  0  0  0  0  0  0  0
   -3.7013   25.0202  -27.3960 H   0  0  0  0  0  0  0  0  0  0  0  0
   -3.1818   25.5328  -25.0142 H   0  0  0  0  0  0  0  0  0  0  0  0
   -0.8242   25.4722  -24.2061 H   0  0  0  0  0  0  0  0  0  0  0  0
    1.0261   24.9506  -25.7904 H   0  0  0  0  0  0  0  0  0  0  0  0
    0.7100   24.4390  -29.3600 H   0  0  0  0  0  0  0  0  0  0  0  0
  1  2  2  0
  2  3  1  0
  3  4  1  0
  4  5  2  0
  5  6  1  0
  6  7  2  0
  7  8  1  0
  8  9  2  0
  8 10  2  0
  8 11  1  0
 11 12  1  0
 12 13  1  0
 13 14  1  0
 14 15  1  0
 15 16  1  0
  7 17  1  0
 17 18  2  0
  2 19  1  0
 19 20  2  0
 20 21  1  0
 21 22  2  0
 22 23  1  0
 23 24  2  0
 24 25  1  0
 18  4  1  0
 24 19  1  0
 16 11  1  0
  5 26  1  0
  6 27  1  0
 12 28  1  0
 12 29  1  0
 13 30  1  0
 13 31  1  0
 15 32  1  0
 15 33  1  0
 16 34  1  0
 16 35  1  0
 17 36  1  0
 18 37  1  0
 20 38  1  0
 21 39  1  0
 22 40  1  0
 23 41  1  0
 25 42  1  0
M  CHG  1   3  -1
M  END
>  <UniqueID>  (45) 
45

>  <SMILES>  (45) 
O=C([N-]c1ccc(S(=O)(=O)N2CCOCC2)cc1)c1ccccc1O

>  <Energy>  (45) 
64.47037014055492

>  <Genealogy>  (45) 
O=C([N-]c1ccc(S(=O)(=O)N2CCOCC2)cc1)c1ccccc1O (protonated)
O=C([N-]c1ccc(S(=O)(=O)N2CCOCC2)cc1)c1ccccc1O (3D coordinates assigned)
O=C([N-]c1ccc(S(=O)(=O)N2CCOCC2)cc1)c1ccccc1O (nonaromatic ring conformer: 64.47037014055492 kcal/mol)

>  <smiles>  (45) 
O=C(Nc1ccc(S(=O)(=O)N2CCOCC2)cc1)c1ccccc1O

>  <score_type>  (45) 
oracle

>  <origin>  (45) 
adgpu

>  <m_score__min__energy>  (45) 
-10.07

>  <m_primary>  (45) 
energy

$$$$
45:0
     RDKit          3D

 50 53  0  0  0  0  0  0  0  0999 V2000
    1.7490   16.4870  -27.7240 N   0  0  0  0  0  0  0  0  0  0  0  0
    0.8990   17.3990  -27.9630 C   0  0  0  0  0  0  0  0  0  0  0  0
    1.0750   18.1950  -29.0410 N   0  0  0  0  0  0  0  0  0  0  0  0
    0.1980   19.1700  -29.3350 C   0  0  0  0  0  0  0  0  0  0  0  0
    0.3640   19.9390  -30.3780 N   0  0  0  0  0  0  0  0  0  0  0  0
   -0.9010   19.3660  -28.5290 C   0  0  0  0  0  0  0  0  0  0  0  0
   -1.8110   20.3510  -28.8330 C   0  0  0  0  0  0  0  0  0  0  0  0
   -1.6720   21.4270  -30.2390 S   0  0  0  0  0  0  0  0  0  0  0  0
   -3.1990   22.1860  -30.6690 C   0  0  0  0  0  0  0  0  0  0  0  0
   -3.9590   21.5460  -31.6630 C   0  0  0  0  0  0  0  0  0  0  0  0
   -5.1600   22.0730  -32.0750 C   0  0  0  0  0  0  0  0  0  0  0  0
   -5.5680   23.2390  -31.4730 C   0  0  0  0  0  0  0  0  0  0  0  0
   -4.8250   23.8590  -30.5070 C   0  0  0  0  0  0  0  0  0  0  0  0
   -3.5950   23.3430  -30.0630 C   0  0  0  0  0  0  0  0  0  0  0  0
   -2.9090   24.0670  -29.0280 C   0  0  0  0  0  0  0  0  0  0  0  0
   -2.5930   25.2950  -29.2950 O   0  0  0  0  0  0  0  0  0  0  0  0
   -2.5230   23.6470  -27.7600 N   0  0  0  0  0  0  0  0  0  0  0  0
   -1.8410   24.6080  -26.9220 C   0  0  0  0  0  0  0  0  0  0  0  0
   -0.4690   24.8100  -27.0670 C   0  0  0  0  0  0  0  0  0  0  0  0
    0.0840   25.7630  -26.2200 C   0  0  0  0  0  0  0  0  0  0  0  0
   -0.6480   26.4720  -25.2980 C   0  0  0  0  0  0  0  0  0  0  0  0
    0.1060   27.6700  -24.2400 S   0  0  0  0  0  0  0  0  0  0  0  0
   -0.0680   27.1950  -22.6070 N   0  0  0  0  0  0  0  0  0  0  0  0
    1.5860   27.7230  -24.5550 O   0  0  0  0  0  0  0  0  0  0  0  0
   -0.4630   29.0360  -24.4740 O   0  0  0  0  0  0  0  0  0  0  0  0
   -2.0040   26.2530  -25.1780 C   0  0  0  0  0  0  0  0  0  0  0  0
   -2.5910   25.3150  -25.9980 C   0  0  0  0  0  0  0  0  0  0  0  0
   -2.9220   20.5150  -28.0050 C   0  0  0  0  0  0  0  0  0  0  0  0
   -3.0620   19.6880  -26.9200 C   0  0  0  0  0  0  0  0  0  0  0  0
   -2.1450   18.6990  -26.6190 C   0  0  0  0  0  0  0  0  0  0  0  0
   -1.0390   18.5190  -27.4280 C   0  0  0  0  0  0  0  0  0  0  0  0
   -0.1440   17.5520  -27.1580 N   0  0  0  0  0  0  0  0  0  0  0  0
    2.5910   16.2820  -28.2860 H   0  0  0  0  0  0  0  0  0  0  0  0
    1.9160   18.0550  -29.6750 H   0  0  0  0  0  0  0  0  0  0  0  0
    1.1980   19.7870  -30.9960 H   0  0  0  0  0  0  0  0  0  0  0  0
   -3.5892   20.6142  -32.1158 H   0  0  0  0  0  0  0  0  0  0  0  0
   -5.7667   21.5837  -32.8512 H   0  0  0  0  0  0  0  0  0  0  0  0
   -6.5243   23.6886  -31.7785 H   0  0  0  0  0  0  0  0  0  0  0  0
   -5.2020   24.7920  -30.0628 H   0  0  0  0  0  0  0  0  0  0  0  0
   -2.7100   22.6990  -27.4390 H   0  0  0  0  0  0  0  0  0  0  0  0
    0.1335   24.2540  -27.8004 H   0  0  0  0  0  0  0  0  0  0  0  0
    1.1639   25.9601  -26.2913 H   0  0  0  0  0  0  0  0  0  0  0  0
   -0.0980   28.0290  -21.9730 H   0  0  0  0  0  0  0  0  0  0  0  0
    0.7190   26.5540  -22.3080 H   0  0  0  0  0  0  0  0  0  0  0  0
   -2.6025   26.8139  -24.4451 H   0  0  0  0  0  0  0  0  0  0  0  0
   -3.6715   25.1249  -25.9175 H   0  0  0  0  0  0  0  0  0  0  0  0
   -3.6707   21.2922  -28.2183 H   0  0  0  0  0  0  0  0  0  0  0  0
   -3.9365   19.8167  -26.2652 H   0  0  0  0  0  0  0  0  0  0  0  0
   -2.2948   18.0571  -25.7384 H   0  0  0  0  0  0  0  0  0  0  0  0
   -0.3130   16.9570  -26.3200 H   0  0  0  0  0  0  0  0  0  0  0  0
  1  2  2  3
  2  3  1  0
  3  4  1  0
  4  5  2  3
  4  6  1  0
  6  7  2  0
  7  8  1  0
  8  9  1  0
  9 10  2  0
 10 11  1  0
 11 12  2  0
 12 13  1  0
 13 14  2  0
 14 15  1  0
 15 16  2  0
 15 17  1  0
 17 18  1  0
 18 19  2  0
 19 20  1  0
 20 21  2  0
 21 22  1  0
 22 23  1  0
 22 24  2  0
 22 25  2  0
 21 26  1  0
 26 27  2  0
  7 28  1  0
 28 29  2  0
 29 30  1  0
 30 31  2  0
 31 32  1  0
 32  2  1  0
 31  6  1  0
 14  9  1  0
 27 18  1  0
  1 33  1  0
  3 34  1  0
  5 35  1  0
 10 36  1  0
 11 37  1  0
 12 38  1  0
 13 39  1  0
 17 40  1  0
 19 41  1  0
 20 42  1  0
 23 43  1  0
 23 44  1  0
 26 45  1  0
 27 46  1  0
 28 47  1  0
 29 48  1  0
 30 49  1  0
 32 50  1  0
M  END
>  <smiles>  (46) 
N=c1[nH]c(=N)c2c(Sc3ccccc3C(=O)Nc3ccc(S(N)(=O)=O)cc3)cccc2[nH]1

>  <score_type>  (46) 
oracle

>  <origin>  (46) 
adgpu

>  <m_score__min__energy>  (46) 
-9.5099999999999998

>  <m_primary>  (46) 
energy

$$$$
46:0
     RDKit          3D

 25 27  0  0  0  0  0  0  0  0999 V2000
   -0.8030   24.2080  -28.9910 O   0  0  0  0  0  0  0  0  0  0  0  0
   -1.9540   24.2360  -29.4960 C   0  0  0  0  0  0  0  0  0  0  0  0
   -2.7930   25.2920  -29.3370 N   0  0  0  0  0  0  0  0  0  0  0  0
   -3.8740   24.8970  -30.0260 C   0  0  0  0  0  0  0  0  0  0  0  0
   -5.0650   25.5900  -30.2100 C   0  0  0  0  0  0  0  0  0  0  0  0
   -6.0710   24.9740  -30.9780 C   0  0  0  0  0  0  0  0  0  0  0  0
   -5.8610   23.6860  -31.5450 C   0  0  0  0  0  0  0  0  0  0  0  0
   -6.8610   23.0330  -32.3390 N   0  0  0  0  0  0  0  0  0  0  0  0
   -8.2070   22.1380  -31.7130 S   0  0  0  0  0  0  0  0  0  0  0  0
   -9.4770   22.6570  -32.3270 O   0  0  0  0  0  0  0  0  0  0  0  0
   -8.2690   22.3200  -30.2240 O   0  0  0  0  0  0  0  0  0  0  0  0
   -8.0110   20.4330  -32.0730 C   0  0  0  0  0  0  0  0  0  0  0  0
   -8.7970   19.4060  -31.5740 C   0  0  0  0  0  0  0  0  0  0  0  0
   -8.3930   18.1440  -32.0230 C   0  0  0  0  0  0  0  0  0  0  0  0
   -7.2930   18.1810  -32.8720 C   0  0  0  0  0  0  0  0  0  0  0  0
   -6.8210   19.7850  -33.0650 S   0  0  0  0  0  0  0  0  0  0  0  0
   -4.6370   23.0210  -31.3300 C   0  0  0  0  0  0  0  0  0  0  0  0
   -3.6680   23.6630  -30.5640 C   0  0  0  0  0  0  0  0  0  0  0  0
   -2.4460   23.2130  -30.2420 N   0  0  0  0  0  0  0  0  0  0  0  0
   -5.2162   26.5868  -29.7700 H   0  0  0  0  0  0  0  0  0  0  0  0
   -7.0273   25.4926  -31.1412 H   0  0  0  0  0  0  0  0  0  0  0  0
   -9.6486   19.5663  -30.8964 H   0  0  0  0  0  0  0  0  0  0  0  0
   -8.8979   17.2111  -31.7318 H   0  0  0  0  0  0  0  0  0  0  0  0
   -6.8120   17.3089  -33.3390 H   0  0  0  0  0  0  0  0  0  0  0  0
   -4.4527   22.0234  -31.7553 H   0  0  0  0  0  0  0  0  0  0  0  0
  1  2  2  0
  2  3  1  0
  3  4  1  0
  4  5  2  0
  5  6  1  0
  6  7  2  0
  7  8  1  0
  8  9  1  0
  9 10  2  0
  9 11  2  0
  9 12  1  0
 12 13  2  0
 13 14  1  0
 14 15  2  0
 15 16  1  0
  7 17  1  0
 17 18  2  0
 18 19  1  0
 19  2  1  0
 18  4  1  0
 16 12  1  0
  5 20  1  0
  6 21  1  0
 13 22  1  0
 14 23  1  0
 15 24  1  0
 17 25  1  0
M  CHG  3   3  -1   8  -1  19  -1
M  END
>  <UniqueID>  (47) 
46

>  <SMILES>  (47) 
O=c1[n-]c2ccc([N-]S(=O)(=O)c3cccs3)cc2[n-]1

>  <Energy>  (47) 
91.93204771223378

>  <Genealogy>  (47) 
O=c1[n-]c2ccc([N-]S(=O)(=O)c3cccs3)cc2[n-]1 (protonated)
O=c1[n-]c2ccc([N-]S(=O)(=O)c3cccs3)cc2[n-]1 (3D coordinates assigned)
O=c1[n-]c2ccc([N-]S(=O)(=O)c3cccs3)cc2[n-]1 (optimized conformer: 91.93204771223378 kcal/mol)

>  <smiles>  (47) 
O=c1[nH]c2ccc(NS(=O)(=O)c3cccs3)cc2[nH]1

>  <score_type>  (47) 
oracle

>  <origin>  (47) 
adgpu

>  <m_score__min__energy>  (47) 
-9.7400000000000002

>  <m_primary>  (47) 
energy

$$$$
47:0
     RDKit          3D

 45 48  0  0  0  0  0  0  0  0999 V2000
   -0.5262   18.5349  -35.0606 H   0  0  0  0  0  0  0  0  0  0  0  0
   -1.3560   17.8230  -34.9400 C   0  0  0  0  0  0  0  0  0  0  0  0
   -1.3460   16.6510  -35.6250 N   0  0  0  0  0  0  0  0  0  0  0  0
   -2.3370   15.7220  -35.5220 C   0  0  0  0  0  0  0  0  0  0  0  0
   -2.2170   14.5020  -36.2870 N   0  0  0  0  0  0  0  0  0  0  0  0
   -2.7550   14.3010  -37.6260 C   0  0  0  0  0  0  0  0  0  0  0  0
   -3.7355   14.7901  -37.7226 H   0  0  0  0  0  0  0  0  0  0  0  0
   -2.1000   14.7352  -38.3957 H   0  0  0  0  0  0  0  0  0  0  0  0
   -2.8950   12.7940  -37.7930 C   0  0  0  0  0  0  0  0  0  0  0  0
   -3.9333   12.4808  -37.6092 H   0  0  0  0  0  0  0  0  0  0  0  0
   -2.6403   12.4689  -38.8125 H   0  0  0  0  0  0  0  0  0  0  0  0
   -1.9620   12.1860  -36.7530 C   0  0  1  0  0  0  0  0  0  0  0  0
   -2.3447   11.2334  -36.3579 H   0  0  0  0  0  0  0  0  0  0  0  0
   -0.7230   11.9410  -37.3240 F   0  0  0  0  0  0  0  0  0  0  0  0
   -1.8300   13.2430  -35.6660 C   0  0  0  0  0  0  0  0  0  0  0  0
   -2.4974   13.0108  -34.8230 H   0  0  0  0  0  0  0  0  0  0  0  0
   -0.8061   13.2868  -35.2664 H   0  0  0  0  0  0  0  0  0  0  0  0
   -3.4450   16.0030  -34.6890 C   0  0  0  0  0  0  0  0  0  0  0  0
   -4.5870   15.1290  -34.5810 C   0  0  0  0  0  0  0  0  0  0  0  0
   -5.5090   14.4350  -34.4890 N   0  0  0  0  0  0  0  0  0  0  0  0
   -3.4710   17.2070  -33.9740 C   0  0  0  0  0  0  0  0  0  0  0  0
   -4.3273   17.4319  -33.3212 H   0  0  0  0  0  0  0  0  0  0  0  0
   -2.4200   18.1300  -34.0790 C   0  0  0  0  0  0  0  0  0  0  0  0
   -2.4670   19.4060  -33.3190 C   0  0  0  0  0  0  0  0  0  0  0  0
   -3.6740   19.9430  -32.9910 N   0  0  0  0  0  0  0  0  0  0  0  0
   -3.7820   21.1090  -32.3000 C   0  0  0  0  0  0  0  0  0  0  0  0
   -4.9730   21.5560  -32.0180 N   0  0  0  0  0  0  0  0  0  0  0  0
   -5.3080   22.8040  -31.3960 C   0  0  0  0  0  0  0  0  0  0  0  0
   -4.3180   23.7000  -31.1370 N   0  0  0  0  0  0  0  0  0  0  0  0
   -4.5590   24.8760  -30.4970 C   0  0  0  0  0  0  0  0  0  0  0  0
   -3.7354   25.5833  -30.3201 H   0  0  0  0  0  0  0  0  0  0  0  0
   -5.8530   25.1880  -30.0630 C   0  0  0  0  0  0  0  0  0  0  0  0
   -6.1170   26.4210  -29.3890 N   0  0  0  0  0  0  0  0  0  0  0  0
   -6.8490   26.4790  -28.6460 H   0  0  0  0  0  0  0  0  0  0  0  0
   -5.5810   27.2860  -29.6290 H   0  0  0  0  0  0  0  0  0  0  0  0
   -6.8820   24.2670  -30.2880 C   0  0  0  0  0  0  0  0  0  0  0  0
   -7.9041   24.4900  -29.9481 H   0  0  0  0  0  0  0  0  0  0  0  0
   -6.6110   23.0650  -30.9440 C   0  0  0  0  0  0  0  0  0  0  0  0
   -7.4119   22.3285  -31.1054 H   0  0  0  0  0  0  0  0  0  0  0  0
   -2.6470   21.7530  -31.8890 N   0  0  0  0  0  0  0  0  0  0  0  0
   -2.6860   22.6160  -31.3030 H   0  0  0  0  0  0  0  0  0  0  0  0
   -1.4200   21.2520  -32.1890 C   0  0  0  0  0  0  0  0  0  0  0  0
   -0.5162   21.7846  -31.8582 H   0  0  0  0  0  0  0  0  0  0  0  0
   -1.3000   20.0680  -32.9130 C   0  0  0  0  0  0  0  0  0  0  0  0
   -0.3089   19.6605  -33.1613 H   0  0  0  0  0  0  0  0  0  0  0  0
  1  2  1  0
  2  3  2  0
  3  4  1  0
  4  5  1  0
  5  6  1  0
  6  7  1  0
  6  8  1  0
  6  9  1  0
  9 10  1  0
  9 11  1  0
  9 12  1  0
 12 13  1  1
 12 14  1  0
 12 15  1  0
 15 16  1  0
 15 17  1  0
  4 18  2  0
 18 19  1  0
 19 20  3  0
 18 21  1  0
 21 22  1  0
 21 23  2  0
 23 24  1  0
 24 25  2  0
 25 26  1  0
 26 27  2  0
 27 28  1  0
 28 29  2  0
 29 30  1  0
 30 31  1  0
 30 32  2  0
 32 33  1  0
 33 34  1  0
 33 35  1  0
 32 36  1  0
 36 37  1  0
 36 38  2  0
 38 39  1  0
 26 40  1  0
 40 41  1  0
 40 42  1  0
 42 43  1  0
 42 44  2  0
 44 45  1  0
 23  2  1  0
 44 24  1  0
 15  5  1  0
 38 28  1  0
M  END
>  <UniqueID>  (48) 
47

>  <SMILES>  (48) 
N#Cc1cc(-c2cc[nH]/c(=N\c3ccc(N)cn3)n2)cnc1N1CC[C@@H](F)C1

>  <Energy>  (48) 
66.57779751007675

>  <Genealogy>  (48) 
N#Cc1cc(-c2cc[nH]c(=Nc3ccc(N)cn3)n2)cnc1N1CC[C@@H](F)C1 (chirality)
N#Cc1cc(-c2cc[nH]/c(=N\c3ccc(N)cn3)n2)cnc1N1CC[C@@H](F)C1 (cis-trans isomerization)
N#Cc1cc(-c2cc[nH]/c(=N\c3ccc(N)cn3)n2)cnc1N1CC[C@@H](F)C1 (3D coordinates assigned)
N#Cc1cc(-c2cc[nH]/c(=N\c3ccc(N)cn3)n2)cnc1N1CC[C@@H](F)C1 (nonaromatic ring conformer: 66.57779751007675 kcal/mol)

>  <smiles>  (48) 
N#Cc1cc(-c2cc[nH]c(=Nc3ccc(N)cn3)n2)cnc1N1CCC(F)C1

>  <score_type>  (48) 
oracle

>  <origin>  (48) 
adgpu

>  <m_score__min__energy>  (48) 
-7.8499999999999996

>  <m_primary>  (48) 
energy

$$$$
48:0
     RDKit          3D

 53 56  0  0  0  0  0  0  0  0999 V2000
   -6.4210   25.7570  -29.9160 O   0  0  0  0  0  0  0  0  0  0  0  0
   -5.2000   24.9020  -30.1120 S   0  0  0  0  0  0  0  0  0  0  0  0
   -4.1950   25.6640  -30.9290 O   0  0  0  0  0  0  0  0  0  0  0  0
   -4.5080   24.5240  -28.5650 N   0  0  0  0  0  0  0  0  0  0  0  0
   -3.3080   23.7440  -28.4040 C   0  0  0  0  0  0  0  0  0  0  0  0
   -3.3490   22.4470  -27.8580 C   0  0  0  0  0  0  0  0  0  0  0  0
   -2.1700   21.7070  -27.6930 C   0  0  0  0  0  0  0  0  0  0  0  0
   -0.9390   22.2580  -28.0710 C   0  0  0  0  0  0  0  0  0  0  0  0
   -0.8900   23.5440  -28.6210 C   0  0  0  0  0  0  0  0  0  0  0  0
   -2.0650   24.2820  -28.7920 C   0  0  0  0  0  0  0  0  0  0  0  0
   -1.9890   25.5590  -29.3380 O   0  0  0  0  0  0  0  0  0  0  0  0
    0.3100   21.4520  -27.8410 C   0  0  0  0  0  0  0  0  0  0  0  0
    0.0880   19.9950  -28.2760 C   0  0  0  0  0  0  0  0  0  0  0  0
   -1.2350   19.3690  -27.7610 C   0  0  0  0  0  0  0  0  0  0  0  0
   -2.1840   20.3500  -27.0410 C   0  0  0  0  0  0  0  0  0  0  0  0
   -5.6760   23.4160  -30.9280 C   0  0  0  0  0  0  0  0  0  0  0  0
   -7.0270   23.0600  -31.0350 C   0  0  0  0  0  0  0  0  0  0  0  0
   -7.3950   21.8990  -31.7210 C   0  0  0  0  0  0  0  0  0  0  0  0
   -6.4160   21.0800  -32.2980 C   0  0  0  0  0  0  0  0  0  0  0  0
   -6.8980   19.6210  -33.1600 S   0  0  0  0  0  0  0  0  0  0  0  0
   -8.3960   19.5060  -33.0870 O   0  0  0  0  0  0  0  0  0  0  0  0
   -6.4880   19.7240  -34.6030 O   0  0  0  0  0  0  0  0  0  0  0  0
   -6.1560   18.2230  -32.4060 N   0  0  0  0  0  0  0  0  0  0  0  0
   -4.7120   18.1240  -32.6960 C   0  0  0  0  0  0  0  0  0  0  0  0
   -4.4320   17.4560  -34.0540 C   0  0  0  0  0  0  0  0  0  0  0  0
   -5.0760   16.2020  -34.1420 O   0  0  0  0  0  0  0  0  0  0  0  0
   -6.4750   16.3860  -34.0700 C   0  0  0  0  0  0  0  0  0  0  0  0
   -6.8770   16.9730  -32.7080 C   0  0  0  0  0  0  0  0  0  0  0  0
   -5.0650   21.4330  -32.1870 C   0  0  0  0  0  0  0  0  0  0  0  0
   -4.6970   22.5960  -31.5050 C   0  0  0  0  0  0  0  0  0  0  0  0
   -5.0690   24.7860  -27.7250 H   0  0  0  0  0  0  0  0  0  0  0  0
   -4.3135   22.0110  -27.5586 H   0  0  0  0  0  0  0  0  0  0  0  0
    0.0766   23.9757  -28.9198 H   0  0  0  0  0  0  0  0  0  0  0  0
    1.1347   21.8845  -28.4265 H   0  0  0  0  0  0  0  0  0  0  0  0
    0.5590   21.4731  -26.7698 H   0  0  0  0  0  0  0  0  0  0  0  0
    0.0799   19.9612  -29.3755 H   0  0  0  0  0  0  0  0  0  0  0  0
    0.9068   19.4068  -27.8360 H   0  0  0  0  0  0  0  0  0  0  0  0
   -1.7712   18.9468  -28.6237 H   0  0  0  0  0  0  0  0  0  0  0  0
   -0.9476   18.6149  -27.0135 H   0  0  0  0  0  0  0  0  0  0  0  0
   -3.2072   19.9475  -27.0744 H   0  0  0  0  0  0  0  0  0  0  0  0
   -1.8421   20.4621  -26.0015 H   0  0  0  0  0  0  0  0  0  0  0  0
   -7.7998   23.6956  -30.5781 H   0  0  0  0  0  0  0  0  0  0  0  0
   -8.4574   21.6275  -31.8081 H   0  0  0  0  0  0  0  0  0  0  0  0
   -4.2830   19.1369  -32.7052 H   0  0  0  0  0  0  0  0  0  0  0  0
   -4.2543   17.5002  -31.9141 H   0  0  0  0  0  0  0  0  0  0  0  0
   -4.8020   18.1080  -34.8590 H   0  0  0  0  0  0  0  0  0  0  0  0
   -3.3474   17.3013  -34.1522 H   0  0  0  0  0  0  0  0  0  0  0  0
   -6.7899   17.0753  -34.8673 H   0  0  0  0  0  0  0  0  0  0  0  0
   -6.9666   15.4097  -34.1929 H   0  0  0  0  0  0  0  0  0  0  0  0
   -7.9573   17.1802  -32.7164 H   0  0  0  0  0  0  0  0  0  0  0  0
   -6.6167   16.2372  -31.9329 H   0  0  0  0  0  0  0  0  0  0  0  0
   -4.2919   20.7933  -32.6377 H   0  0  0  0  0  0  0  0  0  0  0  0
   -3.6347   22.8688  -31.4208 H   0  0  0  0  0  0  0  0  0  0  0  0
  1  2  2  0
  2  3  2  0
  2  4  1  0
  4  5  1  0
  5  6  2  0
  6  7  1  0
  7  8  2  0
  8  9  1  0
  9 10  2  0
 10 11  1  0
  8 12  1  0
 12 13  1  0
 13 14  1  0
 14 15  1  0
  2 16  1  0
 16 17  2  0
 17 18  1  0
 18 19  2  0
 19 20  1  0
 20 21  2  0
 20 22  2  0
 20 23  1  0
 23 24  1  0
 24 25  1  0
 25 26  1  0
 26 27  1  0
 27 28  1  0
 19 29  1  0
 29 30  2  0
 10  5  1  0
 30 16  1  0
 15  7  1  0
 28 23  1  0
  4 31  1  0
  6 32  1  0
  9 33  1  0
 12 34  1  0
 12 35  1  0
 13 36  1  0
 13 37  1  0
 14 38  1  0
 14 39  1  0
 15 40  1  0
 15 41  1  0
 17 42  1  0
 18 43  1  0
 24 44  1  0
 24 45  1  0
 25 46  1  0
 25 47  1  0
 27 48  1  0
 27 49  1  0
 28 50  1  0
 28 51  1  0
 29 52  1  0
 30 53  1  0
M  CHG  1  11  -1
M  END
>  <UniqueID>  (49) 
48

>  <SMILES>  (49) 
O=S(=O)(Nc1cc2c(cc1[O-])CCCC2)c1ccc(S(=O)(=O)N2CCOCC2)cc1

>  <Energy>  (49) 
67.41691869044949

>  <Genealogy>  (49) 
O=S(=O)(Nc1cc2c(cc1[O-])CCCC2)c1ccc(S(=O)(=O)N2CCOCC2)cc1 (protonated)
O=S(=O)(Nc1cc2c(cc1[O-])CCCC2)c1ccc(S(=O)(=O)N2CCOCC2)cc1 (3D coordinates assigned)
O=S(=O)(Nc1cc2c(cc1[O-])CCCC2)c1ccc(S(=O)(=O)N2CCOCC2)cc1 (nonaromatic ring conformer: 67.41691869044949 kcal/mol)

>  <smiles>  (49) 
O=S(=O)(Nc1cc2c(cc1O)CCCC2)c1ccc(S(=O)(=O)N2CCOCC2)cc1

>  <score_type>  (49) 
oracle

>  <origin>  (49) 
adgpu

>  <m_score__min__energy>  (49) 
-14.380000000000001

>  <m_primary>  (49) 
energy

$$$$
