0:0
     RDKit          3D

 57 60  0  0  0  0  0  0  0  0999 V2000
   -3.7260   22.2800  -28.2190 O   0  0  0  0  0  0  0  0  0  0  0  0
   -3.6420   23.2360  -29.0370 C   0  0  0  0  0  0  0  0  0  0  0  0
   -2.4290   24.0040  -29.1170 N   0  0  0  0  0  0  0  0  0  0  0  0
   -1.4570   24.0730  -28.0600 C   0  0  0  0  0  0  0  0  0  0  0  0
   -1.8330   23.9740  -26.7090 C   0  0  0  0  0  0  0  0  0  0  0  0
   -0.8710   24.0620  -25.6990 C   0  0  0  0  0  0  0  0  0  0  0  0
    0.4790   24.2550  -26.0230 C   0  0  0  0  0  0  0  0  0  0  0  0
    1.6970   24.3410  -24.7510 S   0  0  0  0  0  0  0  0  0  0  0  0
    1.5100   23.1710  -23.8240 O   0  0  0  0  0  0  0  0  0  0  0  0
    3.0640   24.2220  -25.3670 O   0  0  0  0  0  0  0  0  0  0  0  0
    1.6040   25.8260  -23.8270 N   0  0  0  0  0  0  0  0  0  0  0  0
    0.2150   26.2950  -23.6350 C   0  0  0  0  0  0  0  0  0  0  0  0
   -0.1600   27.4540  -24.5730 C   0  0  0  0  0  0  0  0  0  0  0  0
    0.5600   27.3630  -25.7790 O   0  0  0  0  0  0  0  0  0  0  0  0
    1.9250   27.6460  -25.5420 C   0  0  0  0  0  0  0  0  0  0  0  0
    2.5120   26.8690  -24.3400 C   0  0  0  0  0  0  0  0  0  0  0  0
    0.8530   24.3850  -27.3670 C   0  0  0  0  0  0  0  0  0  0  0  0
   -0.1090   24.2990  -28.3780 C   0  0  0  0  0  0  0  0  0  0  0  0
   -4.7720   23.5070  -29.9570 C   0  0  0  0  0  0  0  0  0  0  0  0
   -5.8180   22.5710  -30.0610 C   0  0  0  0  0  0  0  0  0  0  0  0
   -6.9020   22.8000  -30.9200 C   0  0  0  0  0  0  0  0  0  0  0  0
   -8.2010   21.6070  -31.0510 S   0  0  0  0  0  0  0  0  0  0  0  0
   -9.0490   21.9380  -32.2470 O   0  0  0  0  0  0  0  0  0  0  0  0
   -9.0690   21.6940  -29.8270 O   0  0  0  0  0  0  0  0  0  0  0  0
   -7.6060   19.9710  -31.2110 N   0  0  0  0  0  0  0  0  0  0  0  0
   -6.5560   19.8650  -32.2220 C   0  0  0  0  0  0  0  0  0  0  0  0
   -6.5760   18.4250  -32.7110 C   0  0  0  0  0  0  0  0  0  0  0  0
   -7.9470   17.8880  -32.3250 C   0  0  0  0  0  0  0  0  0  0  0  0
   -8.6530   19.0450  -31.6360 C   0  0  0  0  0  0  0  0  0  0  0  0
   -6.9370   23.9680  -31.6910 C   0  0  0  0  0  0  0  0  0  0  0  0
   -5.9140   24.9110  -31.5850 C   0  0  0  0  0  0  0  0  0  0  0  0
   -4.8390   24.6940  -30.7170 C   0  0  0  0  0  0  0  0  0  0  0  0
   -3.8610   25.6760  -30.6030 O   0  0  0  0  0  0  0  0  0  0  0  0
   -2.1910   24.4430  -30.0350 H   0  0  0  0  0  0  0  0  0  0  0  0
   -2.8907   23.8264  -26.4453 H   0  0  0  0  0  0  0  0  0  0  0  0
   -1.1747   23.9794  -24.6450 H   0  0  0  0  0  0  0  0  0  0  0  0
   -0.4687   25.4545  -23.8249 H   0  0  0  0  0  0  0  0  0  0  0  0
    0.1313   26.6655  -22.6026 H   0  0  0  0  0  0  0  0  0  0  0  0
   -1.2375   27.4102  -24.7902 H   0  0  0  0  0  0  0  0  0  0  0  0
    0.0884   28.4057  -24.0805 H   0  0  0  0  0  0  0  0  0  0  0  0
    2.4980   27.3804  -26.4427 H   0  0  0  0  0  0  0  0  0  0  0  0
    1.9988   28.7175  -25.3043 H   0  0  0  0  0  0  0  0  0  0  0  0
    3.4508   26.3912  -24.6566 H   0  0  0  0  0  0  0  0  0  0  0  0
    2.6724   27.5932  -23.5277 H   0  0  0  0  0  0  0  0  0  0  0  0
    1.9079   24.5554  -27.6279 H   0  0  0  0  0  0  0  0  0  0  0  0
    0.1929   24.4093  -29.4300 H   0  0  0  0  0  0  0  0  0  0  0  0
   -5.7846   21.6493  -29.4615 H   0  0  0  0  0  0  0  0  0  0  0  0
   -6.7596   20.5530  -33.0558 H   0  0  0  0  0  0  0  0  0  0  0  0
   -5.5732   20.1318  -31.8063 H   0  0  0  0  0  0  0  0  0  0  0  0
   -6.4405   18.3868  -33.8020 H   0  0  0  0  0  0  0  0  0  0  0  0
   -5.7634   17.8305  -32.2680 H   0  0  0  0  0  0  0  0  0  0  0  0
   -8.5041   17.5752  -33.2204 H   0  0  0  0  0  0  0  0  0  0  0  0
   -7.8724   17.0062  -31.6717 H   0  0  0  0  0  0  0  0  0  0  0  0
   -9.3403   19.5427  -32.3359 H   0  0  0  0  0  0  0  0  0  0  0  0
   -9.2493   18.6962  -30.7799 H   0  0  0  0  0  0  0  0  0  0  0  0
   -7.7740   24.1430  -32.3829 H   0  0  0  0  0  0  0  0  0  0  0  0
   -5.9532   25.8304  -32.1876 H   0  0  0  0  0  0  0  0  0  0  0  0
  1  2  2  0
  2  3  1  0
  3  4  1  0
  4  5  2  0
  5  6  1  0
  6  7  2  0
  7  8  1  0
  8  9  2  0
  8 10  2  0
  8 11  1  0
 11 12  1  0
 12 13  1  0
 13 14  1  0
 14 15  1  0
 15 16  1  0
  7 17  1  0
 17 18  2  0
  2 19  1  0
 19 20  2  0
 20 21  1  0
 21 22  1  0
 22 23  2  0
 22 24  2  0
 22 25  1  0
 25 26  1  0
 26 27  1  0
 27 28  1  0
 28 29  1  0
 21 30  2  0
 30 31  1  0
 31 32  2  0
 32 33  1  0
 18  4  1  0
 32 19  1  0
 16 11  1  0
 29 25  1  0
  3 34  1  0
  5 35  1  0
  6 36  1  0
 12 37  1  0
 12 38  1  0
 13 39  1  0
 13 40  1  0
 15 41  1  0
 15 42  1  0
 16 43  1  0
 16 44  1  0
 17 45  1  0
 18 46  1  0
 20 47  1  0
 26 48  1  0
 26 49  1  0
 27 50  1  0
 27 51  1  0
 28 52  1  0
 28 53  1  0
 29 54  1  0
 29 55  1  0
 30 56  1  0
 31 57  1  0
M  CHG  1  33  -1
M  END
>  <UniqueID>  (1) 
1

>  <SMILES>  (1) 
O=C(Nc1ccc(S(=O)(=O)N2CCOCC2)cc1)c1cc(S(=O)(=O)N2CCCC2)ccc1[O-]

>  <Energy>  (1) 
78.18104677098066

>  <Genealogy>  (1) 
O=C(Nc1ccc(S(=O)(=O)N2CCOCC2)cc1)c1cc(S(=O)(=O)N2CCCC2)ccc1[O-] (protonated)
O=C(Nc1ccc(S(=O)(=O)N2CCOCC2)cc1)c1cc(S(=O)(=O)N2CCCC2)ccc1[O-] (3D coordinates assigned)
O=C(Nc1ccc(S(=O)(=O)N2CCOCC2)cc1)c1cc(S(=O)(=O)N2CCCC2)ccc1[O-] (nonaromatic ring conformer: 78.18104677098066 kcal/mol)

>  <smiles>  (1) 
O=C(Nc1ccc(S(=O)(=O)N2CCOCC2)cc1)c1cc(S(=O)(=O)N2CCCC2)ccc1O

>  <score_type>  (1) 
oracle

>  <origin>  (1) 
adgpu

>  <m_score__min__energy>  (1) 
-12.93

>  <m_primary>  (1) 
energy

$$$$
1:0
     RDKit          3D

 40 42  0  0  0  0  0  0  0  0999 V2000
   -2.7070   19.5990  -33.1490 C   0  0  0  0  0  0  0  0  0  0  0  0
   -3.5890   18.5820  -33.8770 C   0  0  0  0  0  0  0  0  0  0  0  0
   -2.7750   17.3470  -34.2610 C   0  0  0  0  0  0  0  0  0  0  0  0
   -4.6890   18.1700  -32.9990 N   0  0  0  0  0  0  0  0  0  0  0  0
   -6.2140   18.7940  -33.5550 S   0  0  0  0  0  0  0  0  0  0  0  0
   -6.1160   19.0820  -35.0270 O   0  0  0  0  0  0  0  0  0  0  0  0
   -7.2950   17.7700  -33.3470 O   0  0  0  0  0  0  0  0  0  0  0  0
   -6.5850   20.2990  -32.7050 C   0  0  0  0  0  0  0  0  0  0  0  0
   -5.5280   21.0280  -32.1420 C   0  0  0  0  0  0  0  0  0  0  0  0
   -5.7700   22.2280  -31.4560 C   0  0  0  0  0  0  0  0  0  0  0  0
   -4.6580   22.9800  -30.8360 C   0  0  0  0  0  0  0  0  0  0  0  0
   -4.6160   24.3250  -31.0270 N   0  0  0  0  0  0  0  0  0  0  0  0
   -3.6770   25.0930  -30.4760 N   0  0  0  0  0  0  0  0  0  0  0  0
   -2.7030   24.5740  -29.6880 C   0  0  0  0  0  0  0  0  0  0  0  0
   -1.8430   25.3450  -29.1840 O   0  0  0  0  0  0  0  0  0  0  0  0
   -2.6640   23.1900  -29.4550 C   0  0  0  0  0  0  0  0  0  0  0  0
   -1.6590   22.6090  -28.6590 C   0  0  0  0  0  0  0  0  0  0  0  0
   -1.6220   21.2260  -28.4690 C   0  0  0  0  0  0  0  0  0  0  0  0
   -2.5750   20.4100  -29.0760 C   0  0  0  0  0  0  0  0  0  0  0  0
   -3.5810   20.9700  -29.8670 C   0  0  0  0  0  0  0  0  0  0  0  0
   -3.6530   22.3680  -30.0500 C   0  0  0  0  0  0  0  0  0  0  0  0
   -7.0880   22.6750  -31.2960 C   0  0  0  0  0  0  0  0  0  0  0  0
   -8.1480   21.9500  -31.8440 C   0  0  0  0  0  0  0  0  0  0  0  0
   -7.9070   20.7620  -32.5480 C   0  0  0  0  0  0  0  0  0  0  0  0
   -8.9770   20.0460  -33.0800 O   0  0  0  0  0  0  0  0  0  0  0  0
   -2.8189   19.4700  -32.0623 H   0  0  0  0  0  0  0  0  0  0  0  0
   -1.6556   19.4406  -33.4307 H   0  0  0  0  0  0  0  0  0  0  0  0
   -3.0126   20.6175  -33.4307 H   0  0  0  0  0  0  0  0  0  0  0  0
   -3.9865   19.0522  -34.7886 H   0  0  0  0  0  0  0  0  0  0  0  0
   -2.4363   16.8331  -33.3493 H   0  0  0  0  0  0  0  0  0  0  0  0
   -3.4013   16.6652  -34.8550 H   0  0  0  0  0  0  0  0  0  0  0  0
   -1.9015   17.6537  -34.8550 H   0  0  0  0  0  0  0  0  0  0  0  0
   -4.4977   20.6552  -32.2391 H   0  0  0  0  0  0  0  0  0  0  0  0
   -0.8992   23.2473  -28.1844 H   0  0  0  0  0  0  0  0  0  0  0  0
   -0.8388   20.7795  -27.8387 H   0  0  0  0  0  0  0  0  0  0  0  0
   -2.5348   19.3203  -28.9316 H   0  0  0  0  0  0  0  0  0  0  0  0
   -4.3224   20.3170  -30.3507 H   0  0  0  0  0  0  0  0  0  0  0  0
   -7.2886   23.6006  -30.7365 H   0  0  0  0  0  0  0  0  0  0  0  0
   -9.1791   22.3135  -31.7225 H   0  0  0  0  0  0  0  0  0  0  0  0
   -8.8350   19.2560  -33.6990 H   0  0  0  0  0  0  0  0  0  0  0  0
  1  2  1  0
  2  3  1  0
  2  4  1  0
  4  5  1  0
  5  6  2  0
  5  7  2  0
  5  8  1  0
  8  9  2  0
  9 10  1  0
 10 11  1  0
 11 12  2  0
 12 13  1  0
 13 14  1  0
 14 15  2  0
 14 16  1  0
 16 17  2  0
 17 18  1  0
 18 19  2  0
 19 20  1  0
 20 21  2  0
 10 22  2  0
 22 23  1  0
 23 24  2  0
 24 25  1  0
 24  8  1  0
 21 11  1  0
 21 16  1  0
  1 26  1  0
  1 27  1  0
  1 28  1  0
  2 29  1  0
  3 30  1  0
  3 31  1  0
  3 32  1  0
  9 33  1  0
 17 34  1  0
 18 35  1  0
 19 36  1  0
 20 37  1  0
 22 38  1  0
 23 39  1  0
 25 40  1  0
M  CHG  2   4  -1  13  -1
M  END
>  <UniqueID>  (2) 
2

>  <SMILES>  (2) 
CC(C)[N-]S(=O)(=O)c1cc(-c2n[n-]c(=O)c3ccccc23)ccc1O

>  <Energy>  (2) 
52.13708873713317

>  <Genealogy>  (2) 
CC(C)[N-]S(=O)(=O)c1cc(-c2n[n-]c(=O)c3ccccc23)ccc1O (protonated)
CC(C)[N-]S(=O)(=O)c1cc(-c2n[n-]c(=O)c3ccccc23)ccc1O (3D coordinates assigned)
CC(C)[N-]S(=O)(=O)c1cc(-c2n[n-]c(=O)c3ccccc23)ccc1O (optimized conformer: 52.13708873713317 kcal/mol)

>  <smiles>  (2) 
CC(C)NS(=O)(=O)c1cc(-c2n[nH]c(=O)c3ccccc23)ccc1O

>  <score_type>  (2) 
oracle

>  <origin>  (2) 
adgpu

>  <m_score__min__energy>  (2) 
-10.84

>  <m_primary>  (2) 
energy

$$$$
2:0
     RDKit          3D

 49 52  0  0  0  0  0  0  0  0999 V2000
   -5.4200   23.9150  -29.0430 O   0  0  0  0  0  0  0  0  0  0  0  0
   -5.0450   24.3030  -30.4470 S   0  0  0  0  0  0  0  0  0  0  0  0
   -6.0780   25.2530  -30.9830 O   0  0  0  0  0  0  0  0  0  0  0  0
   -3.4940   25.0830  -30.4390 N   0  0  0  0  0  0  0  0  0  0  0  0
   -2.5240   24.2610  -29.7130 C   0  0  0  0  0  0  0  0  0  0  0  0
   -2.5720   24.6010  -28.2240 C   0  0  0  0  0  0  0  0  0  0  0  0
   -1.8750   23.5470  -27.4110 C   0  0  0  0  0  0  0  0  0  0  0  0
   -0.9000   23.7610  -26.4400 C   0  0  0  0  0  0  0  0  0  0  0  0
   -0.5520   22.5920  -25.8530 N   0  0  0  0  0  0  0  0  0  0  0  0
   -1.3070   21.6450  -26.4360 C   0  0  0  0  0  0  0  0  0  0  0  0
   -1.3200   20.2820  -26.1460 C   0  0  0  0  0  0  0  0  0  0  0  0
   -2.2270   19.4700  -26.8500 C   0  0  0  0  0  0  0  0  0  0  0  0
   -3.0830   20.0310  -27.8240 C   0  0  0  0  0  0  0  0  0  0  0  0
   -3.0410   21.4090  -28.1030 C   0  0  0  0  0  0  0  0  0  0  0  0
   -2.1330   22.1900  -27.3860 C   0  0  0  0  0  0  0  0  0  0  0  0
   -4.9750   22.8820  -31.4840 C   0  0  0  0  0  0  0  0  0  0  0  0
   -6.1520   22.2750  -31.9450 C   0  0  0  0  0  0  0  0  0  0  0  0
   -6.0840   21.1310  -32.7430 C   0  0  0  0  0  0  0  0  0  0  0  0
   -4.8430   20.5910  -33.0890 C   0  0  0  0  0  0  0  0  0  0  0  0
   -3.6610   21.1920  -32.6370 C   0  0  0  0  0  0  0  0  0  0  0  0
   -2.1060   20.5120  -33.1050 S   0  0  0  0  0  0  0  0  0  0  0  0
   -1.3720   21.4890  -33.9790 O   0  0  0  0  0  0  0  0  0  0  0  0
   -2.3000   19.2350  -33.8740 O   0  0  0  0  0  0  0  0  0  0  0  0
   -1.1680   20.1650  -31.6550 C   0  0  0  0  0  0  0  0  0  0  0  0
   -0.8640   21.1940  -30.7520 C   0  0  0  0  0  0  0  0  0  0  0  0
   -0.0890   20.9290  -29.6170 C   0  0  0  0  0  0  0  0  0  0  0  0
    0.3960   19.6380  -29.3870 C   0  0  0  0  0  0  0  0  0  0  0  0
    0.1040   18.6100  -30.2890 C   0  0  0  0  0  0  0  0  0  0  0  0
   -0.6790   18.8700  -31.4190 C   0  0  0  0  0  0  0  0  0  0  0  0
   -3.7310   22.3350  -31.8280 C   0  0  0  0  0  0  0  0  0  0  0  0
   -2.7684   23.1977  -29.8532 H   0  0  0  0  0  0  0  0  0  0  0  0
   -1.5142   24.4624  -30.1000 H   0  0  0  0  0  0  0  0  0  0  0  0
   -2.0764   25.5692  -28.0594 H   0  0  0  0  0  0  0  0  0  0  0  0
   -3.6246   24.6498  -27.9082 H   0  0  0  0  0  0  0  0  0  0  0  0
   -0.4727   24.7422  -26.1857 H   0  0  0  0  0  0  0  0  0  0  0  0
    0.1490   22.4610  -25.0890 H   0  0  0  0  0  0  0  0  0  0  0  0
   -0.6431   19.8553  -25.3912 H   0  0  0  0  0  0  0  0  0  0  0  0
   -2.2703   18.3909  -26.6410 H   0  0  0  0  0  0  0  0  0  0  0  0
   -3.7877   19.3852  -28.3683 H   0  0  0  0  0  0  0  0  0  0  0  0
   -3.7014   21.8561  -28.8606 H   0  0  0  0  0  0  0  0  0  0  0  0
   -7.1304   22.7006  -31.6776 H   0  0  0  0  0  0  0  0  0  0  0  0
   -7.0090   20.6544  -33.0996 H   0  0  0  0  0  0  0  0  0  0  0  0
   -4.7937   19.6905  -33.7188 H   0  0  0  0  0  0  0  0  0  0  0  0
   -1.2358   22.2127  -30.9363 H   0  0  0  0  0  0  0  0  0  0  0  0
    0.1386   21.7367  -28.9058 H   0  0  0  0  0  0  0  0  0  0  0  0
    1.0074   19.4309  -28.4963 H   0  0  0  0  0  0  0  0  0  0  0  0
    0.4904   17.5958  -30.1099 H   0  0  0  0  0  0  0  0  0  0  0  0
   -0.9120   18.0584  -32.1239 H   0  0  0  0  0  0  0  0  0  0  0  0
   -2.8060   22.8044  -31.4618 H   0  0  0  0  0  0  0  0  0  0  0  0
  1  2  2  0
  2  3  2  0
  2  4  1  0
  4  5  1  0
  5  6  1  0
  6  7  1  0
  7  8  2  0
  8  9  1  0
  9 10  1  0
 10 11  2  0
 11 12  1  0
 12 13  2  0
 13 14  1  0
 14 15  2  0
  2 16  1  0
 16 17  2  0
 17 18  1  0
 18 19  2  0
 19 20  1  0
 20 21  1  0
 21 22  2  0
 21 23  2  0
 21 24  1  0
 24 25  2  0
 25 26  1  0
 26 27  2  0
 27 28  1  0
 28 29  2  0
 20 30  2  0
 15  7  1  0
 30 16  1  0
 15 10  1  0
 29 24  1  0
  5 31  1  0
  5 32  1  0
  6 33  1  0
  6 34  1  0
  8 35  1  0
  9 36  1  0
 11 37  1  0
 12 38  1  0
 13 39  1  0
 14 40  1  0
 17 41  1  0
 18 42  1  0
 19 43  1  0
 25 44  1  0
 26 45  1  0
 27 46  1  0
 28 47  1  0
 29 48  1  0
 30 49  1  0
M  CHG  1   4  -1
M  END
>  <UniqueID>  (3) 
3

>  <SMILES>  (3) 
O=S(=O)([N-]CCc1c[nH]c2ccccc12)c1cccc(S(=O)(=O)c2ccccc2)c1

>  <Energy>  (3) 
79.87623139862445

>  <Genealogy>  (3) 
O=S(=O)([N-]CCc1c[nH]c2ccccc12)c1cccc(S(=O)(=O)c2ccccc2)c1 (protonated)
O=S(=O)([N-]CCc1c[nH]c2ccccc12)c1cccc(S(=O)(=O)c2ccccc2)c1 (3D coordinates assigned)
O=S(=O)([N-]CCc1c[nH]c2ccccc12)c1cccc(S(=O)(=O)c2ccccc2)c1 (optimized conformer: 79.87623139862445 kcal/mol)

>  <smiles>  (3) 
O=S(=O)(NCCc1c[nH]c2ccccc12)c1cccc(S(=O)(=O)c2ccccc2)c1

>  <score_type>  (3) 
oracle

>  <origin>  (3) 
adgpu

>  <m_score__min__energy>  (3) 
-11.91

>  <m_primary>  (3) 
energy

$$$$
3:0
     RDKit          3D

 43 46  0  0  0  0  0  0  0  0999 V2000
   -1.6520   25.8050  -26.7570 C   0  0  0  0  0  0  0  0  0  0  0  0
   -1.8070   25.2350  -28.1340 C   0  0  0  0  0  0  0  0  0  0  0  0
   -1.2500   25.8230  -29.1000 O   0  0  0  0  0  0  0  0  0  0  0  0
   -2.6080   24.0680  -28.3870 N   0  0  0  0  0  0  0  0  0  0  0  0
   -2.2910   22.7510  -27.8320 C   0  0  0  0  0  0  0  0  0  0  0  0
   -3.2400   21.7490  -28.5300 C   0  0  0  0  0  0  0  0  0  0  0  0
   -4.0840   22.6180  -29.3950 C   0  0  0  0  0  0  0  0  0  0  0  0
   -5.1590   22.2340  -30.1960 C   0  0  0  0  0  0  0  0  0  0  0  0
   -5.8740   23.2280  -30.8900 C   0  0  0  0  0  0  0  0  0  0  0  0
   -7.2170   22.7980  -31.9470 S   0  0  0  0  0  0  0  0  0  0  0  0
   -7.2280   23.7780  -33.0890 O   0  0  0  0  0  0  0  0  0  0  0  0
   -8.5190   22.9000  -31.2030 O   0  0  0  0  0  0  0  0  0  0  0  0
   -7.0280   21.1740  -32.5520 N   0  0  0  0  0  0  0  0  0  0  0  0
   -8.1940   20.2940  -32.6960 C   0  0  0  0  0  0  0  0  0  0  0  0
   -7.9250   18.9780  -31.9600 C   0  0  0  0  0  0  0  0  0  0  0  0
   -6.6860   18.4120  -32.3970 O   0  0  0  0  0  0  0  0  0  0  0  0
   -5.5800   19.2080  -32.7210 C   0  0  0  0  0  0  0  0  0  0  0  0
   -4.3400   18.6120  -32.9810 C   0  0  0  0  0  0  0  0  0  0  0  0
   -3.2420   19.4050  -33.3210 C   0  0  0  0  0  0  0  0  0  0  0  0
   -3.3830   20.7930  -33.4210 C   0  0  0  0  0  0  0  0  0  0  0  0
   -4.6230   21.3940  -33.1740 C   0  0  0  0  0  0  0  0  0  0  0  0
   -5.7270   20.6060  -32.8040 C   0  0  0  0  0  0  0  0  0  0  0  0
   -5.5020   24.5820  -30.7520 C   0  0  0  0  0  0  0  0  0  0  0  0
   -4.4200   24.9420  -29.9340 C   0  0  0  0  0  0  0  0  0  0  0  0
   -3.7020   23.9290  -29.2860 C   0  0  0  0  0  0  0  0  0  0  0  0
   -1.8642   25.0248  -26.0112 H   0  0  0  0  0  0  0  0  0  0  0  0
   -0.6223   26.1687  -26.6245 H   0  0  0  0  0  0  0  0  0  0  0  0
   -2.3557   26.6400  -26.6245 H   0  0  0  0  0  0  0  0  0  0  0  0
   -1.2425   22.4917  -28.0404 H   0  0  0  0  0  0  0  0  0  0  0  0
   -2.4227   22.7338  -26.7400 H   0  0  0  0  0  0  0  0  0  0  0  0
   -2.6730   21.0249  -29.1335 H   0  0  0  0  0  0  0  0  0  0  0  0
   -3.8282   21.1489  -27.8201 H   0  0  0  0  0  0  0  0  0  0  0  0
   -5.4426   21.1748  -30.2837 H   0  0  0  0  0  0  0  0  0  0  0  0
   -9.0796   20.7829  -32.2640 H   0  0  0  0  0  0  0  0  0  0  0  0
   -8.3749   20.0913  -33.7619 H   0  0  0  0  0  0  0  0  0  0  0  0
   -7.8751   19.1704  -30.8781 H   0  0  0  0  0  0  0  0  0  0  0  0
   -8.7393   18.2715  -32.1786 H   0  0  0  0  0  0  0  0  0  0  0  0
   -4.2307   17.5193  -32.9174 H   0  0  0  0  0  0  0  0  0  0  0  0
   -2.2646   18.9373  -33.5105 H   0  0  0  0  0  0  0  0  0  0  0  0
   -2.5172   21.4140  -33.6945 H   0  0  0  0  0  0  0  0  0  0  0  0
   -4.7337   22.4842  -33.2695 H   0  0  0  0  0  0  0  0  0  0  0  0
   -6.0637   25.3605  -31.2891 H   0  0  0  0  0  0  0  0  0  0  0  0
   -4.1415   25.9982  -29.8044 H   0  0  0  0  0  0  0  0  0  0  0  0
  1  2  1  0
  2  3  2  0
  2  4  1  0
  4  5  1  0
  5  6  1  0
  6  7  1  0
  7  8  2  0
  8  9  1  0
  9 10  1  0
 10 11  2  0
 10 12  2  0
 10 13  1  0
 13 14  1  0
 14 15  1  0
 15 16  1  0
 16 17  1  0
 17 18  2  0
 18 19  1  0
 19 20  2  0
 20 21  1  0
 21 22  2  0
  9 23  2  0
 23 24  1  0
 24 25  2  0
 25  4  1  0
 25  7  1  0
 22 13  1  0
 22 17  1  0
  1 26  1  0
  1 27  1  0
  1 28  1  0
  5 29  1  0
  5 30  1  0
  6 31  1  0
  6 32  1  0
  8 33  1  0
 14 34  1  0
 14 35  1  0
 15 36  1  0
 15 37  1  0
 18 38  1  0
 19 39  1  0
 20 40  1  0
 21 41  1  0
 23 42  1  0
 24 43  1  0
M  END
>  <UniqueID>  (4) 
4

>  <SMILES>  (4) 
CC(=O)N1CCc2cc(S(=O)(=O)N3CCOc4ccccc43)ccc21

>  <Energy>  (4) 
67.52065300317057

>  <Genealogy>  (4) 
CC(=O)N1CCc2cc(S(=O)(=O)N3CCOc4ccccc43)ccc21 (3D coordinates assigned)
CC(=O)N1CCc2cc(S(=O)(=O)N3CCOc4ccccc43)ccc21 (nonaromatic ring conformer: 67.52065300317057 kcal/mol)

>  <smiles>  (4) 
CC(=O)N1CCc2cc(S(=O)(=O)N3CCOc4ccccc43)ccc21

>  <score_type>  (4) 
oracle

>  <origin>  (4) 
adgpu

>  <m_score__min__energy>  (4) 
-9.2100000000000009

>  <m_primary>  (4) 
energy

$$$$
4:0
     RDKit          3D

 39 41  0  0  0  0  0  0  0  0999 V2000
   -1.6130   25.6760  -28.9660 O   0  0  0  0  0  0  0  0  0  0  0  0
   -2.4770   24.8390  -29.3370 C   0  0  0  0  0  0  0  0  0  0  0  0
   -3.5520   25.2850  -30.1760 N   0  0  0  0  0  0  0  0  0  0  0  0
   -4.6890   24.5030  -30.5690 C   0  0  0  0  0  0  0  0  0  0  0  0
   -6.0020   24.9340  -30.3120 C   0  0  0  0  0  0  0  0  0  0  0  0
   -7.0880   24.1480  -30.7030 C   0  0  0  0  0  0  0  0  0  0  0  0
   -6.8740   22.9330  -31.3570 C   0  0  0  0  0  0  0  0  0  0  0  0
   -5.5690   22.5000  -31.6310 C   0  0  0  0  0  0  0  0  0  0  0  0
   -5.2970   20.9460  -32.4210 S   0  0  0  0  0  0  0  0  0  0  0  0
   -4.8430   19.9440  -31.3960 O   0  0  0  0  0  0  0  0  0  0  0  0
   -4.2010   21.0940  -33.4390 O   0  0  0  0  0  0  0  0  0  0  0  0
   -6.7420   20.3540  -33.2170 N   0  0  0  0  0  0  0  0  0  0  0  0
   -6.4860   19.0870  -33.9120 C   0  0  0  0  0  0  0  0  0  0  0  0
   -6.9890   17.9450  -33.0390 C   0  0  0  0  0  0  0  0  0  0  0  0
   -7.7900   18.5930  -31.9290 C   0  0  0  0  0  0  0  0  0  0  0  0
   -7.8050   20.0800  -32.2450 C   0  0  0  0  0  0  0  0  0  0  0  0
   -4.4810   23.2990  -31.2520 C   0  0  0  0  0  0  0  0  0  0  0  0
   -2.3290   23.4260  -28.9300 C   0  0  0  0  0  0  0  0  0  0  0  0
   -3.1830   22.8420  -27.9790 C   0  0  0  0  0  0  0  0  0  0  0  0
   -3.0080   21.5010  -27.6320 C   0  0  0  0  0  0  0  0  0  0  0  0
   -2.0010   20.7510  -28.2380 C   0  0  0  0  0  0  0  0  0  0  0  0
   -1.1830   21.3550  -29.1950 C   0  0  0  0  0  0  0  0  0  0  0  0
   -1.3650   22.6630  -29.5180 N   0  0  0  0  0  0  0  0  0  0  0  0
   -6.1745   25.8930  -29.8015 H   0  0  0  0  0  0  0  0  0  0  0  0
   -8.1138   24.4866  -30.4954 H   0  0  0  0  0  0  0  0  0  0  0  0
   -7.7318   22.3138  -31.6581 H   0  0  0  0  0  0  0  0  0  0  0  0
   -7.0168   19.0788  -34.8754 H   0  0  0  0  0  0  0  0  0  0  0  0
   -5.4081   18.9713  -34.0986 H   0  0  0  0  0  0  0  0  0  0  0  0
   -7.6266   17.2672  -33.6255 H   0  0  0  0  0  0  0  0  0  0  0  0
   -6.1577   17.3452  -32.6401 H   0  0  0  0  0  0  0  0  0  0  0  0
   -8.8150   18.1942  -31.9129 H   0  0  0  0  0  0  0  0  0  0  0  0
   -7.3496   18.3928  -30.9411 H   0  0  0  0  0  0  0  0  0  0  0  0
   -8.7798   20.3601  -32.6708 H   0  0  0  0  0  0  0  0  0  0  0  0
   -7.6402   20.6644  -31.3278 H   0  0  0  0  0  0  0  0  0  0  0  0
   -3.4570   22.9775  -31.4930 H   0  0  0  0  0  0  0  0  0  0  0  0
   -3.9823   23.4362  -27.5121 H   0  0  0  0  0  0  0  0  0  0  0  0
   -3.6641   21.0366  -26.8811 H   0  0  0  0  0  0  0  0  0  0  0  0
   -1.8526   19.6957  -27.9654 H   0  0  0  0  0  0  0  0  0  0  0  0
   -0.3909   20.7722  -29.6878 H   0  0  0  0  0  0  0  0  0  0  0  0
  1  2  2  0
  2  3  1  0
  3  4  1  0
  4  5  2  0
  5  6  1  0
  6  7  2  0
  7  8  1  0
  8  9  1  0
  9 10  2  0
  9 11  2  0
  9 12  1  0
 12 13  1  0
 13 14  1  0
 14 15  1  0
 15 16  1  0
  8 17  2  0
  2 18  1  0
 18 19  2  0
 19 20  1  0
 20 21  2  0
 21 22  1  0
 22 23  2  0
 17  4  1  0
 23 18  1  0
 16 12  1  0
  5 24  1  0
  6 25  1  0
  7 26  1  0
 13 27  1  0
 13 28  1  0
 14 29  1  0
 14 30  1  0
 15 31  1  0
 15 32  1  0
 16 33  1  0
 16 34  1  0
 17 35  1  0
 19 36  1  0
 20 37  1  0
 21 38  1  0
 22 39  1  0
M  CHG  1   3  -1
M  END
>  <UniqueID>  (5) 
5

>  <SMILES>  (5) 
O=C([N-]c1cccc(S(=O)(=O)N2CCCC2)c1)c1ccccn1

>  <Energy>  (5) 
46.61736156962524

>  <Genealogy>  (5) 
O=C([N-]c1cccc(S(=O)(=O)N2CCCC2)c1)c1ccccn1 (protonated)
O=C([N-]c1cccc(S(=O)(=O)N2CCCC2)c1)c1ccccn1 (3D coordinates assigned)
O=C([N-]c1cccc(S(=O)(=O)N2CCCC2)c1)c1ccccn1 (nonaromatic ring conformer: 46.61736156962524 kcal/mol)

>  <smiles>  (5) 
O=C(Nc1cccc(S(=O)(=O)N2CCCC2)c1)c1ccccn1

>  <score_type>  (5) 
oracle

>  <origin>  (5) 
adgpu

>  <m_score__min__energy>  (5) 
-10.140000000000001

>  <m_primary>  (5) 
energy

$$$$
5:0
     RDKit          3D

 44 46  0  0  0  0  0  0  0  0999 V2000
   -7.2180   15.1810  -34.5100 N   0  0  0  0  0  0  0  0  0  0  0  0
   -5.9330   14.7330  -34.0610 C   0  0  0  0  0  0  0  0  0  0  0  0
   -5.4080   13.5400  -34.5830 C   0  0  0  0  0  0  0  0  0  0  0  0
   -4.1780   13.0510  -34.1370 C   0  0  0  0  0  0  0  0  0  0  0  0
   -3.4570   13.7510  -33.1700 C   0  0  0  0  0  0  0  0  0  0  0  0
   -3.9630   14.9430  -32.6470 C   0  0  0  0  0  0  0  0  0  0  0  0
   -5.2020   15.4460  -33.0820 C   0  0  0  0  0  0  0  0  0  0  0  0
   -5.6800   16.7050  -32.5770 N   0  0  0  0  0  0  0  0  0  0  0  0
   -6.1730   17.7500  -33.4330 C   0  0  0  0  0  0  0  0  0  0  0  0
   -5.8880   17.7340  -34.6620 O   0  0  0  0  0  0  0  0  0  0  0  0
   -6.9780   18.8690  -32.8860 C   0  0  0  0  0  0  0  0  0  0  0  0
   -8.3230   18.6820  -32.5200 C   0  0  0  0  0  0  0  0  0  0  0  0
   -9.0740   19.7480  -32.0200 C   0  0  0  0  0  0  0  0  0  0  0  0
   -8.4980   21.0130  -31.8880 C   0  0  0  0  0  0  0  0  0  0  0  0
   -7.1660   21.2220  -32.2650 C   0  0  0  0  0  0  0  0  0  0  0  0
   -6.4480   22.8280  -32.1260 S   0  0  0  0  0  0  0  0  0  0  0  0
   -5.0650   22.7920  -32.7130 O   0  0  0  0  0  0  0  0  0  0  0  0
   -7.2620   23.8020  -32.9320 O   0  0  0  0  0  0  0  0  0  0  0  0
   -6.3540   23.3820  -30.4670 N   0  0  0  0  0  0  0  0  0  0  0  0
   -5.0610   23.0640  -29.8350 C   0  0  0  0  0  0  0  0  0  0  0  0
   -3.9520   24.0910  -30.1720 C   0  0  0  0  0  0  0  0  0  0  0  0
   -4.4370   25.2360  -30.8450 O   0  0  0  0  0  0  0  0  0  0  0  0
   -5.5580   25.7470  -30.1630 C   0  0  0  0  0  0  0  0  0  0  0  0
   -6.7570   24.7960  -30.3110 C   0  0  0  0  0  0  0  0  0  0  0  0
   -6.4090   20.1500  -32.7570 C   0  0  0  0  0  0  0  0  0  0  0  0
   -7.3510   16.1620  -34.8420 H   0  0  0  0  0  0  0  0  0  0  0  0
   -8.0360   14.5360  -34.5830 H   0  0  0  0  0  0  0  0  0  0  0  0
   -5.9699   12.9860  -35.3494 H   0  0  0  0  0  0  0  0  0  0  0  0
   -3.7776   12.1129  -34.5489 H   0  0  0  0  0  0  0  0  0  0  0  0
   -2.4890   13.3640  -32.8189 H   0  0  0  0  0  0  0  0  0  0  0  0
   -3.3873   15.4932  -31.8882 H   0  0  0  0  0  0  0  0  0  0  0  0
   -5.6200   16.8840  -31.5510 H   0  0  0  0  0  0  0  0  0  0  0  0
   -8.7862   17.6902  -32.6282 H   0  0  0  0  0  0  0  0  0  0  0  0
  -10.1231   19.5905  -31.7291 H   0  0  0  0  0  0  0  0  0  0  0  0
   -9.0921   21.8473  -31.4869 H   0  0  0  0  0  0  0  0  0  0  0  0
   -5.2000   23.0440  -28.7440 H   0  0  0  0  0  0  0  0  0  0  0  0
   -4.7353   22.0889  -30.2263 H   0  0  0  0  0  0  0  0  0  0  0  0
   -3.4768   24.4126  -29.2335 H   0  0  0  0  0  0  0  0  0  0  0  0
   -3.2404   23.5929  -30.8469 H   0  0  0  0  0  0  0  0  0  0  0  0
   -5.3133   25.8580  -29.0963 H   0  0  0  0  0  0  0  0  0  0  0  0
   -5.8227   26.7236  -30.5946 H   0  0  0  0  0  0  0  0  0  0  0  0
   -7.3878   24.8843  -29.4142 H   0  0  0  0  0  0  0  0  0  0  0  0
   -7.2988   25.0874  -31.2229 H   0  0  0  0  0  0  0  0  0  0  0  0
   -5.3598   20.3113  -33.0452 H   0  0  0  0  0  0  0  0  0  0  0  0
  1  2  1  0
  2  3  2  0
  3  4  1  0
  4  5  2  0
  5  6  1  0
  6  7  2  0
  7  8  1  0
  8  9  1  0
  9 10  2  0
  9 11  1  0
 11 12  2  0
 12 13  1  0
 13 14  2  0
 14 15  1  0
 15 16  1  0
 16 17  2  0
 16 18  2  0
 16 19  1  0
 19 20  1  0
 20 21  1  0
 21 22  1  0
 22 23  1  0
 23 24  1  0
 15 25  2  0
  7  2  1  0
 25 11  1  0
 24 19  1  0
  1 26  1  0
  1 27  1  0
  3 28  1  0
  4 29  1  0
  5 30  1  0
  6 31  1  0
  8 32  1  0
 12 33  1  0
 13 34  1  0
 14 35  1  0
 20 36  1  0
 20 37  1  0
 21 38  1  0
 21 39  1  0
 23 40  1  0
 23 41  1  0
 24 42  1  0
 24 43  1  0
 25 44  1  0
M  END
>  <UniqueID>  (6) 
6

>  <SMILES>  (6) 
Nc1ccccc1NC(=O)c1cccc(S(=O)(=O)N2CCOCC2)c1

>  <Energy>  (6) 
62.69600586369123

>  <Genealogy>  (6) 
Nc1ccccc1NC(=O)c1cccc(S(=O)(=O)N2CCOCC2)c1 (3D coordinates assigned)
Nc1ccccc1NC(=O)c1cccc(S(=O)(=O)N2CCOCC2)c1 (nonaromatic ring conformer: 62.69600586369123 kcal/mol)

>  <smiles>  (6) 
Nc1ccccc1NC(=O)c1cccc(S(=O)(=O)N2CCOCC2)c1

>  <score_type>  (6) 
oracle

>  <origin>  (6) 
adgpu

>  <m_score__min__energy>  (6) 
-9.2799999999999994

>  <m_primary>  (6) 
energy

$$$$
6:0
     RDKit          3D

 55 58  0  0  0  0  0  0  0  0999 V2000
    0.6270   22.0480  -28.4250 O   0  0  0  0  0  0  0  0  0  0  0  0
   -0.1060   23.0710  -28.4240 C   0  0  0  0  0  0  0  0  0  0  0  0
    0.5200   24.3590  -28.3800 N   0  0  0  0  0  0  0  0  0  0  0  0
    0.2730   25.3980  -27.4220 C   0  0  0  0  0  0  0  0  0  0  0  0
    0.8680   25.3850  -26.1460 C   0  0  0  0  0  0  0  0  0  0  0  0
    0.5980   26.4080  -25.2310 C   0  0  0  0  0  0  0  0  0  0  0  0
   -0.2760   27.4430  -25.5750 C   0  0  0  0  0  0  0  0  0  0  0  0
   -0.8900   27.4490  -26.8310 C   0  0  0  0  0  0  0  0  0  0  0  0
   -0.6220   26.4260  -27.7510 C   0  0  0  0  0  0  0  0  0  0  0  0
   -1.2400   26.4380  -29.0000 O   0  0  0  0  0  0  0  0  0  0  0  0
   -1.5770   22.9020  -28.3750 C   0  0  0  0  0  0  0  0  0  0  0  0
   -2.1670   21.9240  -27.5540 C   0  0  0  0  0  0  0  0  0  0  0  0
   -3.5500   21.7220  -27.5750 C   0  0  0  0  0  0  0  0  0  0  0  0
   -4.3560   22.4840  -28.4260 C   0  0  0  0  0  0  0  0  0  0  0  0
   -3.7830   23.4520  -29.2570 C   0  0  0  0  0  0  0  0  0  0  0  0
   -4.7920   24.3380  -30.4000 S   0  0  0  0  0  0  0  0  0  0  0  0
   -4.1430   25.6500  -30.7560 O   0  0  0  0  0  0  0  0  0  0  0  0
   -6.1160   24.6260  -29.7540 O   0  0  0  0  0  0  0  0  0  0  0  0
   -5.0540   23.4090  -31.8520 N   0  0  0  0  0  0  0  0  0  0  0  0
   -6.4470   23.4880  -32.2920 C   0  0  0  0  0  0  0  0  0  0  0  0
   -7.1710   22.1790  -32.0470 C   0  0  0  0  0  0  0  0  0  0  0  0
   -8.5610   22.2040  -31.8290 C   0  0  0  0  0  0  0  0  0  0  0  0
   -9.2770   21.0130  -31.6600 C   0  0  0  0  0  0  0  0  0  0  0  0
   -8.6140   19.7840  -31.6780 C   0  0  0  0  0  0  0  0  0  0  0  0
   -7.2300   19.7420  -31.8510 C   0  0  0  0  0  0  0  0  0  0  0  0
   -6.4940   20.9270  -32.0260 C   0  0  0  0  0  0  0  0  0  0  0  0
   -5.0630   20.8360  -32.1450 N   0  0  0  0  0  0  0  0  0  0  0  0
   -4.4570   21.1070  -33.4600 C   0  0  0  0  0  0  0  0  0  0  0  0
   -2.9400   21.1760  -33.3980 C   0  0  0  0  0  0  0  0  0  0  0  0
   -2.4350   20.2500  -32.4560 O   0  0  0  0  0  0  0  0  0  0  0  0
   -2.7700   20.6910  -31.1610 C   0  0  0  0  0  0  0  0  0  0  0  0
   -4.2780   20.5850  -30.9200 C   0  0  0  0  0  0  0  0  0  0  0  0
   -2.3960   23.6640  -29.2240 C   0  0  0  0  0  0  0  0  0  0  0  0
    1.5482   24.5667  -25.8674 H   0  0  0  0  0  0  0  0  0  0  0  0
    1.0742   26.3979  -24.2394 H   0  0  0  0  0  0  0  0  0  0  0  0
   -0.4805   28.2520  -24.8583 H   0  0  0  0  0  0  0  0  0  0  0  0
   -1.5852   28.2586  -27.0979 H   0  0  0  0  0  0  0  0  0  0  0  0
   -1.5358   21.3141  -26.8910 H   0  0  0  0  0  0  0  0  0  0  0  0
   -4.0045   20.9629  -26.9214 H   0  0  0  0  0  0  0  0  0  0  0  0
   -5.4438   22.3217  -28.4420 H   0  0  0  0  0  0  0  0  0  0  0  0
   -6.9549   24.2893  -31.7352 H   0  0  0  0  0  0  0  0  0  0  0  0
   -6.4613   23.6988  -33.3715 H   0  0  0  0  0  0  0  0  0  0  0  0
   -9.0896   23.1679  -31.7911 H   0  0  0  0  0  0  0  0  0  0  0  0
  -10.3666   21.0453  -31.5124 H   0  0  0  0  0  0  0  0  0  0  0  0
   -9.1822   18.8501  -31.5559 H   0  0  0  0  0  0  0  0  0  0  0  0
   -6.7100   18.7727  -31.8504 H   0  0  0  0  0  0  0  0  0  0  0  0
   -4.7456   20.3037  -34.1538 H   0  0  0  0  0  0  0  0  0  0  0  0
   -4.8227   22.0867  -33.8013 H   0  0  0  0  0  0  0  0  0  0  0  0
   -2.5272   20.9427  -34.3905 H   0  0  0  0  0  0  0  0  0  0  0  0
   -2.6447   22.1899  -33.0901 H   0  0  0  0  0  0  0  0  0  0  0  0
   -2.2428   20.0702  -30.4217 H   0  0  0  0  0  0  0  0  0  0  0  0
   -2.4717   21.7450  -31.0609 H   0  0  0  0  0  0  0  0  0  0  0  0
   -4.5071   19.5730  -30.5549 H   0  0  0  0  0  0  0  0  0  0  0  0
   -4.5543   21.3522  -30.1817 H   0  0  0  0  0  0  0  0  0  0  0  0
   -1.9466   24.4337  -29.8687 H   0  0  0  0  0  0  0  0  0  0  0  0
  1  2  2  0
  2  3  1  0
  3  4  1  0
  4  5  2  0
  5  6  1  0
  6  7  2  0
  7  8  1  0
  8  9  2  0
  9 10  1  0
  2 11  1  0
 11 12  2  0
 12 13  1  0
 13 14  2  0
 14 15  1  0
 15 16  1  0
 16 17  2  0
 16 18  2  0
 16 19  1  0
 19 20  1  0
 20 21  1  0
 21 22  2  0
 22 23  1  0
 23 24  2  0
 24 25  1  0
 25 26  2  0
 26 27  1  0
 27 28  1  0
 28 29  1  0
 29 30  1  0
 30 31  1  0
 31 32  1  0
 15 33  2  0
  9  4  1  0
 33 11  1  0
 26 21  1  0
 32 27  1  0
  5 34  1  0
  6 35  1  0
  7 36  1  0
  8 37  1  0
 12 38  1  0
 13 39  1  0
 14 40  1  0
 20 41  1  0
 20 42  1  0
 22 43  1  0
 23 44  1  0
 24 45  1  0
 25 46  1  0
 28 47  1  0
 28 48  1  0
 29 49  1  0
 29 50  1  0
 31 51  1  0
 31 52  1  0
 32 53  1  0
 32 54  1  0
 33 55  1  0
M  CHG  3   3  -1  10  -1  19  -1
M  END
>  <UniqueID>  (7) 
7

>  <SMILES>  (7) 
O=C([N-]c1ccccc1[O-])c1cccc(S(=O)(=O)[N-]Cc2ccccc2N2CCOCC2)c1

>  <Energy>  (7) 
71.96603303153428

>  <Genealogy>  (7) 
O=C([N-]c1ccccc1[O-])c1cccc(S(=O)(=O)[N-]Cc2ccccc2N2CCOCC2)c1 (protonated)
O=C([N-]c1ccccc1[O-])c1cccc(S(=O)(=O)[N-]Cc2ccccc2N2CCOCC2)c1 (3D coordinates assigned)
O=C([N-]c1ccccc1[O-])c1cccc(S(=O)(=O)[N-]Cc2ccccc2N2CCOCC2)c1 (nonaromatic ring conformer: 71.96603303153428 kcal/mol)

>  <smiles>  (7) 
O=C(Nc1ccccc1O)c1cccc(S(=O)(=O)NCc2ccccc2N2CCOCC2)c1

>  <score_type>  (7) 
oracle

>  <origin>  (7) 
adgpu

>  <m_score__min__energy>  (7) 
-14.15

>  <m_primary>  (7) 
energy

$$$$
7:0
     RDKit          3D

 52 54  0  0  0  0  0  0  0  0999 V2000
   -3.8280   16.6250  -35.6630 C   0  0  0  0  0  0  0  0  0  0  0  0
   -5.0340   17.5930  -34.7840 S   0  0  0  0  0  0  0  0  0  0  0  0
   -5.7730   18.4780  -35.7470 O   0  0  0  0  0  0  0  0  0  0  0  0
   -6.0170   16.6670  -34.1220 O   0  0  0  0  0  0  0  0  0  0  0  0
   -4.2210   18.5880  -33.5810 C   0  0  0  0  0  0  0  0  0  0  0  0
   -2.8790   18.3650  -33.2570 C   0  0  0  0  0  0  0  0  0  0  0  0
   -2.2480   19.1620  -32.3020 C   0  0  0  0  0  0  0  0  0  0  0  0
   -2.9460   20.1950  -31.6580 C   0  0  0  0  0  0  0  0  0  0  0  0
   -2.2400   20.9610  -30.6140 C   0  0  0  0  0  0  0  0  0  0  0  0
   -1.4960   20.3490  -29.8000 O   0  0  0  0  0  0  0  0  0  0  0  0
   -2.4940   22.3650  -30.4560 N   0  0  0  0  0  0  0  0  0  0  0  0
   -2.1870   23.0540  -29.2340 C   0  0  0  0  0  0  0  0  0  0  0  0
   -1.1700   22.5410  -28.4160 C   0  0  0  0  0  0  0  0  0  0  0  0
   -0.7820   23.2150  -27.2580 C   0  0  0  0  0  0  0  0  0  0  0  0
   -1.4100   24.4090  -26.9010 C   0  0  0  0  0  0  0  0  0  0  0  0
   -0.9180   25.2560  -25.4460 Cl  0  0  0  0  0  0  0  0  0  0  0  0
   -2.4420   24.9200  -27.6910 C   0  0  0  0  0  0  0  0  0  0  0  0
   -2.8560   24.2450  -28.8550 C   0  0  0  0  0  0  0  0  0  0  0  0
   -4.0220   24.7520  -29.6180 C   0  0  0  0  0  0  0  0  0  0  0  0
   -3.9020   24.9950  -30.8490 O   0  0  0  0  0  0  0  0  0  0  0  0
   -5.3670   24.9300  -28.9760 C   0  0  0  0  0  0  0  0  0  0  0  0
   -6.3570   24.0940  -29.6450 N   0  0  0  0  0  0  0  0  0  0  0  0
   -4.2940   20.4490  -32.0050 C   0  0  0  0  0  0  0  0  0  0  0  0
   -5.1800   21.8300  -31.3390 S   0  0  0  0  0  0  0  0  0  0  0  0
   -4.7660   23.0810  -32.0620 O   0  0  0  0  0  0  0  0  0  0  0  0
   -4.8660   21.9830  -29.8770 O   0  0  0  0  0  0  0  0  0  0  0  0
   -6.9220   21.6360  -31.5340 C   0  0  0  0  0  0  0  0  0  0  0  0
   -7.5040   20.3610  -31.4800 C   0  0  0  0  0  0  0  0  0  0  0  0
   -8.8820   20.2090  -31.6670 C   0  0  0  0  0  0  0  0  0  0  0  0
   -9.6830   21.3290  -31.9110 C   0  0  0  0  0  0  0  0  0  0  0  0
   -9.1060   22.6010  -31.9730 C   0  0  0  0  0  0  0  0  0  0  0  0
   -7.7290   22.7560  -31.7870 C   0  0  0  0  0  0  0  0  0  0  0  0
   -4.9210   19.6270  -32.9580 C   0  0  0  0  0  0  0  0  0  0  0  0
   -3.1797   16.1047  -34.9426 H   0  0  0  0  0  0  0  0  0  0  0  0
   -4.3414   15.8854  -36.2950 H   0  0  0  0  0  0  0  0  0  0  0  0
   -3.2170   17.2863  -36.2950 H   0  0  0  0  0  0  0  0  0  0  0  0
   -2.3201   17.5597  -33.7561 H   0  0  0  0  0  0  0  0  0  0  0  0
   -1.1927   18.9790  -32.0512 H   0  0  0  0  0  0  0  0  0  0  0  0
   -3.2090   22.7990  -31.0840 H   0  0  0  0  0  0  0  0  0  0  0  0
   -0.6736   21.5984  -28.6901 H   0  0  0  0  0  0  0  0  0  0  0  0
    0.0195   22.8051  -26.6258 H   0  0  0  0  0  0  0  0  0  0  0  0
   -2.9362   25.8590  -27.4010 H   0  0  0  0  0  0  0  0  0  0  0  0
   -5.3049   24.6426  -27.9160 H   0  0  0  0  0  0  0  0  0  0  0  0
   -5.6696   25.9841  -29.0613 H   0  0  0  0  0  0  0  0  0  0  0  0
   -6.4930   23.2270  -29.0740 H   0  0  0  0  0  0  0  0  0  0  0  0
   -5.9500   23.7880  -30.5580 H   0  0  0  0  0  0  0  0  0  0  0  0
   -6.8754   19.4785  -31.2902 H   0  0  0  0  0  0  0  0  0  0  0  0
   -9.3357   19.2079  -31.6221 H   0  0  0  0  0  0  0  0  0  0  0  0
  -10.7670   21.2092  -32.0542 H   0  0  0  0  0  0  0  0  0  0  0  0
   -9.7363   23.4811  -32.1684 H   0  0  0  0  0  0  0  0  0  0  0  0
   -7.2773   23.7576  -31.8391 H   0  0  0  0  0  0  0  0  0  0  0  0
   -5.9755   19.8030  -33.2171 H   0  0  0  0  0  0  0  0  0  0  0  0
  1  2  1  0
  2  3  2  0
  2  4  2  0
  2  5  1  0
  5  6  2  0
  6  7  1  0
  7  8  2  0
  8  9  1  0
  9 10  2  0
  9 11  1  0
 11 12  1  0
 12 13  2  0
 13 14  1  0
 14 15  2  0
 15 16  1  0
 15 17  1  0
 17 18  2  0
 18 19  1  0
 19 20  2  0
 19 21  1  0
 21 22  1  0
  8 23  1  0
 23 24  1  0
 24 25  2  0
 24 26  2  0
 24 27  1  0
 27 28  2  0
 28 29  1  0
 29 30  2  0
 30 31  1  0
 31 32  2  0
 23 33  2  0
 33  5  1  0
 18 12  1  0
 32 27  1  0
  1 34  1  0
  1 35  1  0
  1 36  1  0
  6 37  1  0
  7 38  1  0
 11 39  1  0
 13 40  1  0
 14 41  1  0
 17 42  1  0
 21 43  1  0
 21 44  1  0
 22 45  1  0
 22 46  1  0
 28 47  1  0
 29 48  1  0
 30 49  1  0
 31 50  1  0
 32 51  1  0
 33 52  1  0
M  END
>  <UniqueID>  (8) 
8

>  <SMILES>  (8) 
CS(=O)(=O)c1ccc(C(=O)Nc2ccc(Cl)cc2C(=O)CN)c(S(=O)(=O)c2ccccc2)c1

>  <Energy>  (8) 
69.34474669606594

>  <Genealogy>  (8) 
CS(=O)(=O)c1ccc(C(=O)Nc2ccc(Cl)cc2C(=O)CN)c(S(=O)(=O)c2ccccc2)c1 (3D coordinates assigned)
CS(=O)(=O)c1ccc(C(=O)Nc2ccc(Cl)cc2C(=O)CN)c(S(=O)(=O)c2ccccc2)c1 (optimized conformer: 69.34474669606594 kcal/mol)

>  <smiles>  (8) 
CS(=O)(=O)c1ccc(C(=O)Nc2ccc(Cl)cc2C(=O)CN)c(S(=O)(=O)c2ccccc2)c1

>  <score_type>  (8) 
oracle

>  <origin>  (8) 
adgpu

>  <m_score__min__energy>  (8) 
-9.8000000000000007

>  <m_primary>  (8) 
energy

$$$$
8:0
     RDKit          3D

 25 25  0  0  0  0  0  0  0  0999 V2000
   -8.8770   19.7890  -31.9400 C   0  0  0  0  0  0  0  0  0  0  0  0
   -9.4910   21.1880  -31.9600 C   0  0  0  0  0  0  0  0  0  0  0  0
   -8.6160   22.2310  -31.2350 C   0  0  0  0  0  0  0  0  0  0  0  0
   -7.5830   22.9120  -32.1490 C   0  0  0  0  0  0  0  0  0  0  0  0
   -6.2210   23.0210  -31.5080 C   0  0  0  0  0  0  0  0  0  0  0  0
   -5.6660   24.2870  -31.2580 C   0  0  0  0  0  0  0  0  0  0  0  0
   -4.3940   24.4060  -30.6910 C   0  0  0  0  0  0  0  0  0  0  0  0
   -3.8610   25.6680  -30.4550 O   0  0  0  0  0  0  0  0  0  0  0  0
   -3.6630   23.2560  -30.3650 C   0  0  0  0  0  0  0  0  0  0  0  0
   -2.0630   23.3870  -29.6510 Cl  0  0  0  0  0  0  0  0  0  0  0  0
   -4.2080   21.9920  -30.6080 C   0  0  0  0  0  0  0  0  0  0  0  0
   -5.4830   21.8660  -31.1790 C   0  0  0  0  0  0  0  0  0  0  0  0
   -6.0170   20.6010  -31.4180 O   0  0  0  0  0  0  0  0  0  0  0  0
   -8.7351   19.4657  -30.8982 H   0  0  0  0  0  0  0  0  0  0  0  0
   -9.5494   19.0861  -32.4537 H   0  0  0  0  0  0  0  0  0  0  0  0
   -7.9045   19.8080  -32.4537 H   0  0  0  0  0  0  0  0  0  0  0  0
   -9.6185   21.5017  -33.0066 H   0  0  0  0  0  0  0  0  0  0  0  0
  -10.4542   21.1363  -31.4313 H   0  0  0  0  0  0  0  0  0  0  0  0
   -9.2744   23.0064  -30.8165 H   0  0  0  0  0  0  0  0  0  0  0  0
   -8.0534   21.6944  -30.4568 H   0  0  0  0  0  0  0  0  0  0  0  0
   -7.4905   22.3247  -33.0745 H   0  0  0  0  0  0  0  0  0  0  0  0
   -7.9387   23.9334  -32.3495 H   0  0  0  0  0  0  0  0  0  0  0  0
   -6.2373   25.1924  -31.5106 H   0  0  0  0  0  0  0  0  0  0  0  0
   -3.6333   21.0903  -30.3498 H   0  0  0  0  0  0  0  0  0  0  0  0
   -5.4370   19.7690  -31.4090 H   0  0  0  0  0  0  0  0  0  0  0  0
  1  2  1  0
  2  3  1  0
  3  4  1  0
  4  5  1  0
  5  6  2  0
  6  7  1  0
  7  8  1  0
  7  9  2  0
  9 10  1  0
  9 11  1  0
 11 12  2  0
 12 13  1  0
 12  5  1  0
  1 14  1  0
  1 15  1  0
  1 16  1  0
  2 17  1  0
  2 18  1  0
  3 19  1  0
  3 20  1  0
  4 21  1  0
  4 22  1  0
  6 23  1  0
 11 24  1  0
 13 25  1  0
M  CHG  1   8  -1
M  END
>  <UniqueID>  (9) 
9

>  <SMILES>  (9) 
CCCCc1cc([O-])c(Cl)cc1O

>  <Energy>  (9) 
18.730990052460204

>  <Genealogy>  (9) 
CCCCc1cc([O-])c(Cl)cc1O (protonated)
CCCCc1cc([O-])c(Cl)cc1O (3D coordinates assigned)
CCCCc1cc([O-])c(Cl)cc1O (optimized conformer: 18.730990052460204 kcal/mol)

>  <smiles>  (9) 
CCCCc1cc(O)c(Cl)cc1O

>  <score_type>  (9) 
oracle

>  <origin>  (9) 
adgpu

>  <m_score__min__energy>  (9) 
-8.0999999999999996

>  <m_primary>  (9) 
energy

$$$$
9:0
     RDKit          3D

 67 71  0  0  0  0  0  0  0  0999 V2000
   -9.4150   18.1250  -31.5970 C   0  0  0  0  0  0  0  0  0  0  0  0
   -8.3640   19.0560  -32.1240 C   0  0  0  0  0  0  0  0  0  0  0  0
   -7.3040   18.5550  -32.8990 C   0  0  0  0  0  0  0  0  0  0  0  0
   -6.3500   19.4280  -33.4340 C   0  0  0  0  0  0  0  0  0  0  0  0
   -5.3280   18.9400  -34.1810 F   0  0  0  0  0  0  0  0  0  0  0  0
   -6.4540   20.8040  -33.2090 C   0  0  0  0  0  0  0  0  0  0  0  0
   -7.5120   21.3150  -32.4440 C   0  0  0  0  0  0  0  0  0  0  0  0
   -7.6660   23.0560  -32.2080 S   0  0  0  0  0  0  0  0  0  0  0  0
   -7.2790   23.7850  -33.4660 O   0  0  0  0  0  0  0  0  0  0  0  0
   -9.1040   23.3660  -31.8920 O   0  0  0  0  0  0  0  0  0  0  0  0
   -6.6180   23.5440  -30.9100 N   0  0  0  0  0  0  0  0  0  0  0  0
   -6.9320   24.6520  -30.0090 C   0  0  0  0  0  0  0  0  0  0  0  0
   -5.7060   24.8110  -29.0820 C   0  0  0  0  0  0  0  0  0  0  0  0
   -4.7530   23.7890  -29.5930 C   0  0  0  0  0  0  0  0  0  0  0  0
   -3.4580   23.5330  -29.1430 C   0  0  0  0  0  0  0  0  0  0  0  0
   -2.7130   22.5180  -29.7740 C   0  0  0  0  0  0  0  0  0  0  0  0
   -1.0520   22.1940  -29.2890 S   0  0  0  0  0  0  0  0  0  0  0  0
   -0.1360   22.5580  -30.4240 O   0  0  0  0  0  0  0  0  0  0  0  0
   -0.8610   20.7350  -28.9850 O   0  0  0  0  0  0  0  0  0  0  0  0
   -0.6580   23.1450  -27.8480 C   0  0  0  0  0  0  0  0  0  0  0  0
   -0.0460   24.3960  -28.0210 C   0  0  0  0  0  0  0  0  0  0  0  0
    0.3210   25.1680  -26.9190 C   0  0  0  0  0  0  0  0  0  0  0  0
    0.0860   24.7050  -25.6180 C   0  0  0  0  0  0  0  0  0  0  0  0
    0.4290   25.5200  -24.4800 N   0  0  0  0  0  0  0  0  0  0  0  0
    1.8030   25.9780  -24.2590 C   0  0  0  0  0  0  0  0  0  0  0  0
    1.8470   27.5160  -24.1740 C   0  0  0  0  0  0  0  0  0  0  0  0
    0.6150   28.1240  -23.5900 N   0  0  0  0  0  0  0  0  0  0  0  0
   -0.2320   28.7310  -24.6370 C   0  0  0  0  0  0  0  0  0  0  0  0
   -0.1560   27.1810  -22.7460 C   0  0  0  0  0  0  0  0  0  0  0  0
   -0.6100   25.9410  -23.5350 C   0  0  0  0  0  0  0  0  0  0  0  0
   -0.5290   23.4580  -25.4370 C   0  0  0  0  0  0  0  0  0  0  0  0
   -0.9150   22.6750  -26.5370 C   0  0  0  0  0  0  0  0  0  0  0  0
   -1.5640   21.4180  -26.2950 N   0  0  0  0  0  0  0  0  0  0  0  0
   -2.5190   21.0550  -27.0120 O   0  0  0  0  0  0  0  0  0  0  0  0
   -1.3270   20.7430  -25.1190 O   0  0  0  0  0  0  0  0  0  0  0  0
   -3.2980   21.7630  -30.8110 C   0  0  0  0  0  0  0  0  0  0  0  0
   -4.6070   22.0320  -31.2380 C   0  0  0  0  0  0  0  0  0  0  0  0
   -5.3090   23.0760  -30.6210 C   0  0  0  0  0  0  0  0  0  0  0  0
   -8.4730   20.4420  -31.9140 C   0  0  0  0  0  0  0  0  0  0  0  0
   -9.3992   18.1390  -30.4972 H   0  0  0  0  0  0  0  0  0  0  0  0
  -10.4039   18.4489  -31.9536 H   0  0  0  0  0  0  0  0  0  0  0  0
   -9.2128   17.1042  -31.9536 H   0  0  0  0  0  0  0  0  0  0  0  0
   -7.2240   17.4739  -33.0855 H   0  0  0  0  0  0  0  0  0  0  0  0
   -5.7038   21.4875  -33.6333 H   0  0  0  0  0  0  0  0  0  0  0  0
   -7.0989   25.5754  -30.5831 H   0  0  0  0  0  0  0  0  0  0  0  0
   -7.8483   24.4546  -29.4333 H   0  0  0  0  0  0  0  0  0  0  0  0
   -5.2799   25.8219  -29.1627 H   0  0  0  0  0  0  0  0  0  0  0  0
   -5.9513   24.6758  -28.0183 H   0  0  0  0  0  0  0  0  0  0  0  0
   -3.0275   24.1118  -28.3125 H   0  0  0  0  0  0  0  0  0  0  0  0
    0.1463   24.7717  -29.0368 H   0  0  0  0  0  0  0  0  0  0  0  0
    0.7982   26.1471  -27.0725 H   0  0  0  0  0  0  0  0  0  0  0  0
    2.1807   25.5516  -23.3180 H   0  0  0  0  0  0  0  0  0  0  0  0
    2.4298   25.6481  -25.1006 H   0  0  0  0  0  0  0  0  0  0  0  0
    2.7053   27.8041  -23.5492 H   0  0  0  0  0  0  0  0  0  0  0  0
    1.9309   27.8909  -25.2047 H   0  0  0  0  0  0  0  0  0  0  0  0
    0.9150   28.9110  -22.9650 H   0  0  0  0  0  0  0  0  0  0  0  0
   -1.0397   29.3099  -24.1653 H   0  0  0  0  0  0  0  0  0  0  0  0
    0.3797   29.3976  -25.2627 H   0  0  0  0  0  0  0  0  0  0  0  0
   -0.6667   27.9375  -25.2627 H   0  0  0  0  0  0  0  0  0  0  0  0
    0.4770   26.8561  -21.9071 H   0  0  0  0  0  0  0  0  0  0  0  0
   -1.0550   27.7033  -22.3869 H   0  0  0  0  0  0  0  0  0  0  0  0
   -0.8130   25.1198  -22.8319 H   0  0  0  0  0  0  0  0  0  0  0  0
   -1.5200   26.1938  -24.0989 H   0  0  0  0  0  0  0  0  0  0  0  0
   -0.7119   23.0873  -24.4176 H   0  0  0  0  0  0  0  0  0  0  0  0
   -2.7233   20.9562  -31.2893 H   0  0  0  0  0  0  0  0  0  0  0  0
   -5.0714   21.4373  -32.0384 H   0  0  0  0  0  0  0  0  0  0  0  0
   -9.3155   20.8432  -31.3316 H   0  0  0  0  0  0  0  0  0  0  0  0
  1  2  1  0
  2  3  2  0
  3  4  1  0
  4  5  1  0
  4  6  2  0
  6  7  1  0
  7  8  1  0
  8  9  2  0
  8 10  2  0
  8 11  1  0
 11 12  1  0
 12 13  1  0
 13 14  1  0
 14 15  2  0
 15 16  1  0
 16 17  1  0
 17 18  2  0
 17 19  2  0
 17 20  1  0
 20 21  2  0
 21 22  1  0
 22 23  2  0
 23 24  1  0
 24 25  1  0
 25 26  1  0
 26 27  1  0
 27 28  1  0
 27 29  1  0
 29 30  1  0
 23 31  1  0
 31 32  2  0
 32 33  1  0
 33 34  2  0
 33 35  1  0
 16 36  2  0
 36 37  1  0
 37 38  2  0
  7 39  2  0
 39  2  1  0
 38 11  1  0
 38 14  1  0
 32 20  1  0
 30 24  1  0
  1 40  1  0
  1 41  1  0
  1 42  1  0
  3 43  1  0
  6 44  1  0
 12 45  1  0
 12 46  1  0
 13 47  1  0
 13 48  1  0
 15 49  1  0
 21 50  1  0
 22 51  1  0
 25 52  1  0
 25 53  1  0
 26 54  1  0
 26 55  1  0
 27 56  1  0
 28 57  1  0
 28 58  1  0
 28 59  1  0
 29 60  1  0
 29 61  1  0
 30 62  1  0
 30 63  1  0
 31 64  1  0
 36 65  1  0
 37 66  1  0
 39 67  1  0
M  CHG  3  27   1  33   1  35  -1
M  END
>  <UniqueID>  (10) 
10

>  <SMILES>  (10) 
Cc1cc(F)cc(S(=O)(=O)N2CCc3cc(S(=O)(=O)c4ccc(N5CC[NH+](C)CC5)cc4[N+](=O)[O-])ccc32)c1

>  <Energy>  (10) 
108.27315122464562

>  <Genealogy>  (10) 
Cc1cc(F)cc(S(=O)(=O)N2CCc3cc(S(=O)(=O)c4ccc(N5CC[NH+](C)CC5)cc4[N+](=O)[O-])ccc32)c1 (protonated)
Cc1cc(F)cc(S(=O)(=O)N2CCc3cc(S(=O)(=O)c4ccc(N5CC[NH+](C)CC5)cc4[N+](=O)[O-])ccc32)c1 (3D coordinates assigned)
Cc1cc(F)cc(S(=O)(=O)N2CCc3cc(S(=O)(=O)c4ccc(N5CC[NH+](C)CC5)cc4[N+](=O)[O-])ccc32)c1 (nonaromatic ring conformer: 108.27315122464562 kcal/mol)

>  <smiles>  (10) 
Cc1cc(F)cc(S(=O)(=O)N2CCc3cc(S(=O)(=O)c4ccc(N5CCN(C)CC5)cc4[N+](=O)[O-])ccc32)c1

>  <score_type>  (10) 
oracle

>  <origin>  (10) 
adgpu

>  <m_score__min__energy>  (10) 
-11.17

>  <m_primary>  (10) 
energy

$$$$
10:0
     RDKit          3D

 61 64  0  0  0  0  0  0  0  0999 V2000
   -6.0590   25.3940  -30.5950 O   0  0  0  0  0  0  0  0  0  0  0  0
   -5.1140   24.5810  -30.7720 C   0  0  0  0  0  0  0  0  0  0  0  0
   -3.7810   24.9950  -30.4520 N   0  0  0  0  0  0  0  0  0  0  0  0
   -2.9010   24.3410  -29.5290 C   0  0  0  0  0  0  0  0  0  0  0  0
   -3.1290   22.9980  -29.2070 C   0  0  0  0  0  0  0  0  0  0  0  0
   -2.3060   22.3430  -28.2880 C   0  0  0  0  0  0  0  0  0  0  0  0
   -1.2600   23.0320  -27.6680 C   0  0  0  0  0  0  0  0  0  0  0  0
   -1.0420   24.3860  -27.9540 C   0  0  0  0  0  0  0  0  0  0  0  0
    0.2530   25.2580  -27.1410 S   0  0  0  0  0  0  0  0  0  0  0  0
    1.5630   24.8490  -27.7520 O   0  0  0  0  0  0  0  0  0  0  0  0
    0.0600   26.7380  -27.3280 O   0  0  0  0  0  0  0  0  0  0  0  0
    0.2340   24.8660  -25.4330 N   0  0  0  0  0  0  0  0  0  0  0  0
   -1.0200   25.3120  -24.7730 C   0  0  0  0  0  0  0  0  0  0  0  0
   -0.8090   26.3580  -23.6650 C   0  0  0  0  0  0  0  0  0  0  0  0
    0.1830   27.4250  -24.1190 C   0  0  0  0  0  0  0  0  0  0  0  0
    1.5380   26.8160  -24.5240 C   0  0  0  0  0  0  0  0  0  0  0  0
    1.4740   25.2940  -24.7560 C   0  0  0  0  0  0  0  0  0  0  0  0
   -1.8650   25.0400  -28.8840 C   0  0  0  0  0  0  0  0  0  0  0  0
   -5.3750   23.2510  -31.2600 N   0  0  0  0  0  0  0  0  0  0  0  0
   -6.6860   22.7380  -31.5490 C   0  0  0  0  0  0  0  0  0  0  0  0
   -7.7460   23.6350  -31.7490 C   0  0  0  0  0  0  0  0  0  0  0  0
   -9.0230   23.1640  -32.0590 C   0  0  0  0  0  0  0  0  0  0  0  0
   -9.2520   21.7920  -32.1910 C   0  0  0  0  0  0  0  0  0  0  0  0
   -8.1970   20.8850  -32.0330 C   0  0  0  0  0  0  0  0  0  0  0  0
   -8.4820   19.1520  -32.1990 S   0  0  0  0  0  0  0  0  0  0  0  0
   -8.8470   18.5940  -30.8520 O   0  0  0  0  0  0  0  0  0  0  0  0
   -9.6580   18.9390  -33.1120 O   0  0  0  0  0  0  0  0  0  0  0  0
   -7.1020   18.2760  -32.8260 N   0  0  0  0  0  0  0  0  0  0  0  0
   -6.5390   18.8640  -34.0560 C   0  0  0  0  0  0  0  0  0  0  0  0
   -5.4260   19.8780  -33.7710 C   0  0  0  0  0  0  0  0  0  0  0  0
   -4.4380   19.3140  -32.9360 O   0  0  0  0  0  0  0  0  0  0  0  0
   -5.0050   19.0320  -31.6770 C   0  0  0  0  0  0  0  0  0  0  0  0
   -6.0920   17.9550  -31.7970 C   0  0  0  0  0  0  0  0  0  0  0  0
   -6.9170   21.3580  -31.7070 C   0  0  0  0  0  0  0  0  0  0  0  0
   -3.9607   22.4556  -29.6802 H   0  0  0  0  0  0  0  0  0  0  0  0
   -2.4814   21.2831  -28.0518 H   0  0  0  0  0  0  0  0  0  0  0  0
   -0.6063   22.5099  -26.9538 H   0  0  0  0  0  0  0  0  0  0  0  0
   -1.6774   25.7485  -25.5394 H   0  0  0  0  0  0  0  0  0  0  0  0
   -1.4583   24.4249  -24.2924 H   0  0  0  0  0  0  0  0  0  0  0  0
   -1.7717   26.8354  -23.4298 H   0  0  0  0  0  0  0  0  0  0  0  0
   -0.4071   25.8552  -22.7730 H   0  0  0  0  0  0  0  0  0  0  0  0
   -0.2395   27.9583  -24.9833 H   0  0  0  0  0  0  0  0  0  0  0  0
    0.3561   28.1097  -23.2756 H   0  0  0  0  0  0  0  0  0  0  0  0
    1.8738   27.2977  -25.4542 H   0  0  0  0  0  0  0  0  0  0  0  0
    2.2368   26.9910  -23.6927 H   0  0  0  0  0  0  0  0  0  0  0  0
    2.3325   24.9975  -25.3765 H   0  0  0  0  0  0  0  0  0  0  0  0
    1.4944   24.8093  -23.7688 H   0  0  0  0  0  0  0  0  0  0  0  0
   -1.6990   26.1038  -29.1093 H   0  0  0  0  0  0  0  0  0  0  0  0
   -4.5630   22.6290  -31.4680 H   0  0  0  0  0  0  0  0  0  0  0  0
   -7.5696   24.7172  -31.6609 H   0  0  0  0  0  0  0  0  0  0  0  0
   -9.8508   23.8746  -32.1997 H   0  0  0  0  0  0  0  0  0  0  0  0
  -10.2630   21.4237  -32.4195 H   0  0  0  0  0  0  0  0  0  0  0  0
   -6.1271   18.0545  -34.6765 H   0  0  0  0  0  0  0  0  0  0  0  0
   -7.3512   19.3981  -34.5708 H   0  0  0  0  0  0  0  0  0  0  0  0
   -4.9640   20.1834  -34.7214 H   0  0  0  0  0  0  0  0  0  0  0  0
   -5.8638   20.7491  -33.2616 H   0  0  0  0  0  0  0  0  0  0  0  0
   -4.2165   18.6744  -30.9984 H   0  0  0  0  0  0  0  0  0  0  0  0
   -5.4621   19.9515  -31.2825 H   0  0  0  0  0  0  0  0  0  0  0  0
   -5.6135   16.9999  -32.0595 H   0  0  0  0  0  0  0  0  0  0  0  0
   -6.6110   17.8977  -30.8288 H   0  0  0  0  0  0  0  0  0  0  0  0
   -6.0888   20.6464  -31.5740 H   0  0  0  0  0  0  0  0  0  0  0  0
  1  2  2  0
  2  3  1  0
  3  4  1  0
  4  5  2  0
  5  6  1  0
  6  7  2  0
  7  8  1  0
  8  9  1  0
  9 10  2  0
  9 11  2  0
  9 12  1  0
 12 13  1  0
 13 14  1  0
 14 15  1  0
 15 16  1  0
 16 17  1  0
  8 18  2  0
  2 19  1  0
 19 20  1  0
 20 21  2  0
 21 22  1  0
 22 23  2  0
 23 24  1  0
 24 25  1  0
 25 26  2  0
 25 27  2  0
 25 28  1  0
 28 29  1  0
 29 30  1  0
 30 31  1  0
 31 32  1  0
 32 33  1  0
 24 34  2  0
 18  4  1  0
 34 20  1  0
 17 12  1  0
 33 28  1  0
  5 35  1  0
  6 36  1  0
  7 37  1  0
 13 38  1  0
 13 39  1  0
 14 40  1  0
 14 41  1  0
 15 42  1  0
 15 43  1  0
 16 44  1  0
 16 45  1  0
 17 46  1  0
 17 47  1  0
 18 48  1  0
 19 49  1  0
 21 50  1  0
 22 51  1  0
 23 52  1  0
 29 53  1  0
 29 54  1  0
 30 55  1  0
 30 56  1  0
 32 57  1  0
 32 58  1  0
 33 59  1  0
 33 60  1  0
 34 61  1  0
M  CHG  1   3  -1
M  END
>  <UniqueID>  (11) 
11

>  <SMILES>  (11) 
O=C([N-]c1cccc(S(=O)(=O)N2CCCCC2)c1)Nc1cccc(S(=O)(=O)N2CCOCC2)c1

>  <Energy>  (11) 
83.41749948465262

>  <Genealogy>  (11) 
O=C([N-]c1cccc(S(=O)(=O)N2CCCCC2)c1)Nc1cccc(S(=O)(=O)N2CCOCC2)c1 (protonated)
O=C([N-]c1cccc(S(=O)(=O)N2CCCCC2)c1)Nc1cccc(S(=O)(=O)N2CCOCC2)c1 (3D coordinates assigned)
O=C([N-]c1cccc(S(=O)(=O)N2CCCCC2)c1)Nc1cccc(S(=O)(=O)N2CCOCC2)c1 (nonaromatic ring conformer: 83.41749948465262 kcal/mol)

>  <smiles>  (11) 
O=C(Nc1cccc(S(=O)(=O)N2CCCCC2)c1)Nc1cccc(S(=O)(=O)N2CCOCC2)c1

>  <score_type>  (11) 
oracle

>  <origin>  (11) 
adgpu

>  <m_score__min__energy>  (11) 
-12.43

>  <m_primary>  (11) 
energy

$$$$
11:0
     RDKit          3D

 51 53  0  0  0  0  0  0  0  0999 V2000
    3.7270   27.6260  -22.1980 C   0  0  0  0  0  0  0  0  0  0  0  0
    2.3590   28.2230  -22.3410 C   0  0  0  0  0  0  0  0  0  0  0  0
    1.9950   29.0930  -21.5030 O   0  0  0  0  0  0  0  0  0  0  0  0
    1.4350   27.8190  -23.4340 C   0  0  0  0  0  0  0  0  0  0  0  0
    1.7320   28.0900  -24.7840 C   0  0  0  0  0  0  0  0  0  0  0  0
    0.8530   27.7020  -25.7990 C   0  0  0  0  0  0  0  0  0  0  0  0
   -0.3360   27.0230  -25.4890 C   0  0  0  0  0  0  0  0  0  0  0  0
   -1.2680   26.6340  -26.5130 N   0  0  0  0  0  0  0  0  0  0  0  0
   -0.9190   25.8720  -27.6770 C   0  0  0  0  0  0  0  0  0  0  0  0
    0.2250   25.3520  -27.7830 O   0  0  0  0  0  0  0  0  0  0  0  0
   -1.8850   25.7100  -28.7210 N   0  0  0  0  0  0  0  0  0  0  0  0
   -2.4240   24.4570  -29.1650 C   0  0  0  0  0  0  0  0  0  0  0  0
   -1.8880   23.2810  -28.6440 C   0  0  0  0  0  0  0  0  0  0  0  0
   -2.3670   22.0400  -29.0560 C   0  0  0  0  0  0  0  0  0  0  0  0
   -3.3910   21.9460  -30.0130 C   0  0  0  0  0  0  0  0  0  0  0  0
   -3.8580   20.5730  -30.4190 C   0  0  0  0  0  0  0  0  0  0  0  0
   -3.9440   23.1360  -30.5590 C   0  0  0  0  0  0  0  0  0  0  0  0
   -5.2340   23.1350  -31.7900 S   0  0  0  0  0  0  0  0  0  0  0  0
   -4.6280   22.7300  -33.1050 O   0  0  0  0  0  0  0  0  0  0  0  0
   -5.8530   24.4930  -31.9710 O   0  0  0  0  0  0  0  0  0  0  0  0
   -6.4570   21.9760  -31.3360 N   0  0  0  0  0  0  0  0  0  0  0  0
   -7.7520   22.6490  -31.1590 C   0  0  0  0  0  0  0  0  0  0  0  0
   -8.8360   21.6200  -30.7740 C   0  0  0  0  0  0  0  0  0  0  0  0
   -8.3630   20.2870  -30.8500 O   0  0  0  0  0  0  0  0  0  0  0  0
   -7.8090   20.0500  -32.1290 C   0  0  0  0  0  0  0  0  0  0  0  0
   -6.5640   20.9280  -32.3660 C   0  0  0  0  0  0  0  0  0  0  0  0
   -3.4250   24.3840  -30.1540 C   0  0  0  0  0  0  0  0  0  0  0  0
   -3.8740   25.5520  -30.7640 O   0  0  0  0  0  0  0  0  0  0  0  0
   -0.6480   26.7720  -24.1470 C   0  0  0  0  0  0  0  0  0  0  0  0
    0.2300   27.1580  -23.1300 C   0  0  0  0  0  0  0  0  0  0  0  0
    3.9709   27.5196  -21.1307 H   0  0  0  0  0  0  0  0  0  0  0  0
    3.7476   26.6371  -22.6792 H   0  0  0  0  0  0  0  0  0  0  0  0
    4.4661   28.2834  -22.6792 H   0  0  0  0  0  0  0  0  0  0  0  0
    2.6651   28.6122  -25.0420 H   0  0  0  0  0  0  0  0  0  0  0  0
    1.0944   27.9302  -26.8476 H   0  0  0  0  0  0  0  0  0  0  0  0
   -2.2830   26.8340  -26.3590 H   0  0  0  0  0  0  0  0  0  0  0  0
   -1.0791   23.3334  -27.9004 H   0  0  0  0  0  0  0  0  0  0  0  0
   -1.9384   21.1223  -28.6269 H   0  0  0  0  0  0  0  0  0  0  0  0
   -4.0617   19.9740  -29.5192 H   0  0  0  0  0  0  0  0  0  0  0  0
   -4.7770   20.6603  -31.0172 H   0  0  0  0  0  0  0  0  0  0  0  0
   -3.0764   20.0818  -31.0172 H   0  0  0  0  0  0  0  0  0  0  0  0
   -7.6650   23.4015  -30.3614 H   0  0  0  0  0  0  0  0  0  0  0  0
   -8.0369   23.1359  -32.1033 H   0  0  0  0  0  0  0  0  0  0  0  0
   -9.1642   21.8207  -29.7435 H   0  0  0  0  0  0  0  0  0  0  0  0
   -9.6668   21.7235  -31.4875 H   0  0  0  0  0  0  0  0  0  0  0  0
   -7.5216   18.9910  -32.2054 H   0  0  0  0  0  0  0  0  0  0  0  0
   -8.5637   20.3016  -32.8887 H   0  0  0  0  0  0  0  0  0  0  0  0
   -5.6649   20.2952  -32.3310 H   0  0  0  0  0  0  0  0  0  0  0  0
   -6.6558   21.4102  -33.3504 H   0  0  0  0  0  0  0  0  0  0  0  0
   -1.5913   26.2672  -23.8912 H   0  0  0  0  0  0  0  0  0  0  0  0
   -0.0234   26.9430  -22.0814 H   0  0  0  0  0  0  0  0  0  0  0  0
  1  2  1  0
  2  3  2  0
  2  4  1  0
  4  5  2  0
  5  6  1  0
  6  7  2  0
  7  8  1  0
  8  9  1  0
  9 10  2  0
  9 11  1  0
 11 12  1  0
 12 13  2  0
 13 14  1  0
 14 15  2  0
 15 16  1  0
 15 17  1  0
 17 18  1  0
 18 19  2  0
 18 20  2  0
 18 21  1  0
 21 22  1  0
 22 23  1  0
 23 24  1  0
 24 25  1  0
 25 26  1  0
 17 27  2  0
 27 28  1  0
  7 29  1  0
 29 30  2  0
 30  4  1  0
 27 12  1  0
 26 21  1  0
  1 31  1  0
  1 32  1  0
  1 33  1  0
  5 34  1  0
  6 35  1  0
  8 36  1  0
 13 37  1  0
 14 38  1  0
 16 39  1  0
 16 40  1  0
 16 41  1  0
 22 42  1  0
 22 43  1  0
 23 44  1  0
 23 45  1  0
 25 46  1  0
 25 47  1  0
 26 48  1  0
 26 49  1  0
 29 50  1  0
 30 51  1  0
M  CHG  2  11  -1  28  -1
M  END
>  <UniqueID>  (12) 
12

>  <SMILES>  (12) 
CC(=O)c1ccc(NC(=O)[N-]c2ccc(C)c(S(=O)(=O)N3CCOCC3)c2[O-])cc1

>  <Energy>  (12) 
72.69151527288011

>  <Genealogy>  (12) 
CC(=O)c1ccc(NC(=O)[N-]c2ccc(C)c(S(=O)(=O)N3CCOCC3)c2[O-])cc1 (protonated)
CC(=O)c1ccc(NC(=O)[N-]c2ccc(C)c(S(=O)(=O)N3CCOCC3)c2[O-])cc1 (3D coordinates assigned)
CC(=O)c1ccc(NC(=O)[N-]c2ccc(C)c(S(=O)(=O)N3CCOCC3)c2[O-])cc1 (nonaromatic ring conformer: 72.69151527288011 kcal/mol)

>  <smiles>  (12) 
CC(=O)c1ccc(NC(=O)Nc2ccc(C)c(S(=O)(=O)N3CCOCC3)c2O)cc1

>  <score_type>  (12) 
oracle

>  <origin>  (12) 
adgpu

>  <m_score__min__energy>  (12) 
-12.25

>  <m_primary>  (12) 
energy

$$$$
12:0
     RDKit          3D

 50 54  0  0  0  0  0  0  0  0999 V2000
   -7.9260   19.5930  -33.1880 O   0  0  0  0  0  0  0  0  0  0  0  0
   -6.6990   19.8610  -33.0670 C   0  0  0  0  0  0  0  0  0  0  0  0
   -5.6840   19.0010  -33.7220 C   0  0  0  0  0  0  0  0  0  0  0  0
   -6.0760   17.8830  -34.4820 C   0  0  0  0  0  0  0  0  0  0  0  0
   -5.1170   17.0780  -35.1010 C   0  0  0  0  0  0  0  0  0  0  0  0
   -3.7600   17.3770  -34.9690 C   0  0  0  0  0  0  0  0  0  0  0  0
   -3.3550   18.4820  -34.2180 C   0  0  0  0  0  0  0  0  0  0  0  0
   -4.3110   19.3030  -33.5880 C   0  0  0  0  0  0  0  0  0  0  0  0
   -3.8860   20.4780  -32.7910 C   0  0  0  0  0  0  0  0  0  0  0  0
   -2.6580   20.7490  -32.6740 O   0  0  0  0  0  0  0  0  0  0  0  0
   -4.9010   21.3360  -32.1310 C   0  0  0  0  0  0  0  0  0  0  0  0
   -4.5080   22.4530  -31.3700 C   0  0  0  0  0  0  0  0  0  0  0  0
   -5.4680   23.2680  -30.7560 C   0  0  0  0  0  0  0  0  0  0  0  0
   -4.9830   24.6660  -29.8040 S   0  0  0  0  0  0  0  0  0  0  0  0
   -3.7700   25.2920  -30.4350 O   0  0  0  0  0  0  0  0  0  0  0  0
   -6.1060   25.6640  -29.7490 O   0  0  0  0  0  0  0  0  0  0  0  0
   -4.6090   24.1380  -28.1940 N   0  0  0  0  0  0  0  0  0  0  0  0
   -3.4240   24.4760  -27.4540 C   0  0  0  0  0  0  0  0  0  0  0  0
   -3.4900   25.2930  -26.3140 C   0  0  0  0  0  0  0  0  0  0  0  0
   -2.3320   25.6370  -25.6200 C   0  0  0  0  0  0  0  0  0  0  0  0
   -1.0880   25.1710  -26.0510 C   0  0  0  0  0  0  0  0  0  0  0  0
   -0.9940   24.3390  -27.1820 C   0  0  0  0  0  0  0  0  0  0  0  0
   -2.1720   23.9930  -27.8990 C   0  0  0  0  0  0  0  0  0  0  0  0
   -2.1220   23.1380  -29.1040 C   0  0  0  0  0  0  0  0  0  0  0  0
   -1.6150   23.5700  -30.1740 O   0  0  0  0  0  0  0  0  0  0  0  0
   -2.6880   21.8690  -29.0830 O   0  0  0  0  0  0  0  0  0  0  0  0
    0.3700   23.7520  -27.4810 C   0  0  0  0  0  0  0  0  0  0  0  0
    1.4730   24.8260  -27.4110 C   0  0  0  0  0  0  0  0  0  0  0  0
    1.3040   25.8470  -26.2570 C   0  0  0  0  0  0  0  0  0  0  0  0
    0.1650   25.5060  -25.2850 C   0  0  0  0  0  0  0  0  0  0  0  0
   -6.8260   22.9630  -30.8920 C   0  0  0  0  0  0  0  0  0  0  0  0
   -7.2280   21.8580  -31.6430 C   0  0  0  0  0  0  0  0  0  0  0  0
   -6.2740   21.0350  -32.2680 C   0  0  0  0  0  0  0  0  0  0  0  0
   -7.1439   17.6418  -34.5891 H   0  0  0  0  0  0  0  0  0  0  0  0
   -5.4318   16.2065  -35.6938 H   0  0  0  0  0  0  0  0  0  0  0  0
   -3.0078   16.7404  -35.4579 H   0  0  0  0  0  0  0  0  0  0  0  0
   -2.2842   18.7128  -34.1177 H   0  0  0  0  0  0  0  0  0  0  0  0
   -3.4393   22.6877  -31.2565 H   0  0  0  0  0  0  0  0  0  0  0  0
   -4.4649   25.6648  -25.9657 H   0  0  0  0  0  0  0  0  0  0  0  0
   -2.3978   26.2784  -24.7288 H   0  0  0  0  0  0  0  0  0  0  0  0
    0.5899   22.9649  -26.7448 H   0  0  0  0  0  0  0  0  0  0  0  0
    0.3531   23.3397  -28.5007 H   0  0  0  0  0  0  0  0  0  0  0  0
    2.4398   24.3176  -27.2810 H   0  0  0  0  0  0  0  0  0  0  0  0
    1.4110   25.3995  -28.3476 H   0  0  0  0  0  0  0  0  0  0  0  0
    2.2447   25.8853  -25.6881 H   0  0  0  0  0  0  0  0  0  0  0  0
    1.0501   26.8121  -26.7197 H   0  0  0  0  0  0  0  0  0  0  0  0
    0.4577   24.6417  -24.6708 H   0  0  0  0  0  0  0  0  0  0  0  0
   -0.0296   26.3756  -24.6400 H   0  0  0  0  0  0  0  0  0  0  0  0
   -7.5809   23.5974  -30.4045 H   0  0  0  0  0  0  0  0  0  0  0  0
   -8.2988   21.6288  -31.7470 H   0  0  0  0  0  0  0  0  0  0  0  0
  1  2  2  0
  2  3  1  0
  3  4  2  0
  4  5  1  0
  5  6  2  0
  6  7  1  0
  7  8  2  0
  8  9  1  0
  9 10  2  0
  9 11  1  0
 11 12  2  0
 12 13  1  0
 13 14  1  0
 14 15  2  0
 14 16  2  0
 14 17  1  0
 17 18  1  0
 18 19  2  0
 19 20  1  0
 20 21  2  0
 21 22  1  0
 22 23  2  0
 23 24  1  0
 24 25  2  0
 24 26  1  0
 22 27  1  0
 27 28  1  0
 28 29  1  0
 29 30  1  0
 13 31  2  0
 31 32  1  0
 32 33  2  0
 33  2  1  0
  8  3  1  0
 33 11  1  0
 23 18  1  0
 30 21  1  0
  4 34  1  0
  5 35  1  0
  6 36  1  0
  7 37  1  0
 12 38  1  0
 19 39  1  0
 20 40  1  0
 27 41  1  0
 27 42  1  0
 28 43  1  0
 28 44  1  0
 29 45  1  0
 29 46  1  0
 30 47  1  0
 30 48  1  0
 31 49  1  0
 32 50  1  0
M  CHG  2  17  -1  26  -1
M  END
>  <UniqueID>  (13) 
13

>  <SMILES>  (13) 
O=C1c2ccccc2C(=O)c2cc(S(=O)(=O)[N-]c3ccc4c(c3C(=O)[O-])CCCC4)ccc21

>  <Energy>  (13) 
78.3296789652537

>  <Genealogy>  (13) 
O=C1c2ccccc2C(=O)c2cc(S(=O)(=O)[N-]c3ccc4c(c3C(=O)[O-])CCCC4)ccc21 (protonated)
O=C1c2ccccc2C(=O)c2cc(S(=O)(=O)[N-]c3ccc4c(c3C(=O)[O-])CCCC4)ccc21 (3D coordinates assigned)
O=C1c2ccccc2C(=O)c2cc(S(=O)(=O)[N-]c3ccc4c(c3C(=O)[O-])CCCC4)ccc21 (nonaromatic ring conformer: 78.3296789652537 kcal/mol)

>  <smiles>  (13) 
O=C1c2ccccc2C(=O)c2cc(S(=O)(=O)Nc3ccc4c(c3C(=O)O)CCCC4)ccc21

>  <score_type>  (13) 
oracle

>  <origin>  (13) 
adgpu

>  <m_score__min__energy>  (13) 
-14.630000000000001

>  <m_primary>  (13) 
energy

$$$$
13:0
     RDKit          3D

 45 47  0  0  0  0  0  0  0  0999 V2000
   -3.4900   24.9300  -31.3240 H   0  0  0  0  0  0  0  0  0  0  0  0
   -4.4900   24.9950  -31.1850 O   0  0  0  0  0  0  0  0  0  0  0  0
   -5.2760   23.8730  -31.3110 N   0  0  0  0  0  0  0  0  0  0  0  0
   -6.4390   23.9440  -31.8740 C   0  0  0  0  0  0  0  0  0  0  0  0
   -6.7974   24.9130  -32.2517 H   0  0  0  0  0  0  0  0  0  0  0  0
   -7.2940   22.7490  -32.0190 C   0  0  0  0  0  0  0  0  0  0  0  0
   -8.6020   22.7740  -31.5140 C   0  0  0  0  0  0  0  0  0  0  0  0
   -8.9758   23.6764  -31.0080 H   0  0  0  0  0  0  0  0  0  0  0  0
   -9.4330   21.6590  -31.6500 C   0  0  0  0  0  0  0  0  0  0  0  0
  -10.4600   21.6895  -31.2572 H   0  0  0  0  0  0  0  0  0  0  0  0
   -8.9640   20.5060  -32.2830 C   0  0  0  0  0  0  0  0  0  0  0  0
   -9.6267   19.6356  -32.3980 H   0  0  0  0  0  0  0  0  0  0  0  0
   -7.6470   20.4540  -32.7740 C   0  0  0  0  0  0  0  0  0  0  0  0
   -7.1330   19.2990  -33.4530 N   0  0  0  0  0  0  0  0  0  0  0  0
   -6.2090   18.3360  -32.9250 C   0  0  0  0  0  0  0  0  0  0  0  0
   -6.6360   17.2990  -32.3490 O   0  0  0  0  0  0  0  0  0  0  0  0
   -4.7510   18.5860  -33.0080 C   0  0  0  0  0  0  0  0  0  0  0  0
   -3.8900   17.6280  -33.5750 C   0  0  0  0  0  0  0  0  0  0  0  0
   -4.3016   16.6828  -33.9587 H   0  0  0  0  0  0  0  0  0  0  0  0
   -2.5160   17.8690  -33.6540 C   0  0  0  0  0  0  0  0  0  0  0  0
   -1.8520   17.1136  -34.0995 H   0  0  0  0  0  0  0  0  0  0  0  0
   -1.9830   19.0640  -33.1700 C   0  0  0  0  0  0  0  0  0  0  0  0
   -0.9011   19.2506  -33.2390 H   0  0  0  0  0  0  0  0  0  0  0  0
   -2.8240   20.0270  -32.5960 C   0  0  0  0  0  0  0  0  0  0  0  0
   -2.1670   21.5510  -32.0020 S   0  0  0  0  0  0  0  0  0  0  0  0
   -3.1750   22.6500  -32.1950 O   0  0  0  0  0  0  0  0  0  0  0  0
   -0.9440   21.8860  -32.8100 O   0  0  0  0  0  0  0  0  0  0  0  0
   -1.7220   21.4120  -30.3120 N   0  0  0  0  0  0  0  0  0  0  0  0
   -2.8850   21.5700  -29.4210 C   0  0  0  0  0  0  0  0  0  0  0  0
   -3.7110   20.9531  -29.8047 H   0  0  0  0  0  0  0  0  0  0  0  0
   -2.5817   21.2528  -28.4123 H   0  0  0  0  0  0  0  0  0  0  0  0
   -3.3610   23.0390  -29.3320 C   0  0  0  0  0  0  0  0  0  0  0  0
   -4.2546   23.1539  -29.9630 H   0  0  0  0  0  0  0  0  0  0  0  0
   -3.5680   23.2475  -28.2720 H   0  0  0  0  0  0  0  0  0  0  0  0
   -2.3880   23.9770  -29.7580 O   0  0  0  0  0  0  0  0  0  0  0  0
   -1.1150   23.6180  -29.2690 C   0  0  0  0  0  0  0  0  0  0  0  0
   -0.4057   24.4344  -29.4699 H   0  0  0  0  0  0  0  0  0  0  0  0
   -1.1855   23.4378  -28.1862 H   0  0  0  0  0  0  0  0  0  0  0  0
   -0.6200   22.3340  -29.9590 C   0  0  0  0  0  0  0  0  0  0  0  0
   -0.0865   22.6129  -30.8796 H   0  0  0  0  0  0  0  0  0  0  0  0
    0.0371   21.8090  -29.2500 H   0  0  0  0  0  0  0  0  0  0  0  0
   -4.2030   19.7880  -32.5210 C   0  0  0  0  0  0  0  0  0  0  0  0
   -4.8638   20.5472  -32.0772 H   0  0  0  0  0  0  0  0  0  0  0  0
   -6.8270   21.5830  -32.6560 C   0  0  0  0  0  0  0  0  0  0  0  0
   -5.8064   21.5589  -33.0656 H   0  0  0  0  0  0  0  0  0  0  0  0
  1  2  1  0
  2  3  1  0
  3  4  2  0
  4  5  1  0
  4  6  1  0
  6  7  2  0
  7  8  1  0
  7  9  1  0
  9 10  1  0
  9 11  2  0
 11 12  1  0
 11 13  1  0
 13 14  1  0
 14 15  1  0
 15 16  2  0
 15 17  1  0
 17 18  2  0
 18 19  1  0
 18 20  1  0
 20 21  1  0
 20 22  2  0
 22 23  1  0
 22 24  1  0
 24 25  1  0
 25 26  2  0
 25 27  2  0
 25 28  1  0
 28 29  1  0
 29 30  1  0
 29 31  1  0
 29 32  1  0
 32 33  1  0
 32 34  1  0
 32 35  1  0
 35 36  1  0
 36 37  1  0
 36 38  1  0
 36 39  1  0
 39 40  1  0
 39 41  1  0
 24 42  2  0
 42 43  1  0
 13 44  2  0
 44 45  1  0
 44  6  1  0
 42 17  1  0
 39 28  1  0
M  CHG  1  14  -1
M  END
>  <UniqueID>  (14) 
14

>  <SMILES>  (14) 
O=C([N-]c1cccc(/C=N/O)c1)c1cccc(S(=O)(=O)N2CCOCC2)c1

>  <Energy>  (14) 
60.15517827581962

>  <Genealogy>  (14) 
O=C([N-]c1cccc(C=NO)c1)c1cccc(S(=O)(=O)N2CCOCC2)c1 (protonated)
O=C([N-]c1cccc(/C=N/O)c1)c1cccc(S(=O)(=O)N2CCOCC2)c1 (cis-trans isomerization)
O=C([N-]c1cccc(/C=N/O)c1)c1cccc(S(=O)(=O)N2CCOCC2)c1 (3D coordinates assigned)
O=C([N-]c1cccc(/C=N/O)c1)c1cccc(S(=O)(=O)N2CCOCC2)c1 (nonaromatic ring conformer: 60.15517827581962 kcal/mol)

>  <smiles>  (14) 
O=C(Nc1cccc(C=NO)c1)c1cccc(S(=O)(=O)N2CCOCC2)c1

>  <score_type>  (14) 
oracle

>  <origin>  (14) 
adgpu

>  <m_score__min__energy>  (14) 
-10.970000000000001

>  <m_primary>  (14) 
energy

$$$$
14:0
     RDKit          3D

 58 61  0  0  0  0  0  0  0  0999 V2000
    3.5400   18.4540  -27.4700 C   0  0  0  0  0  0  0  0  0  0  0  0
    2.8560   17.8940  -28.6820 C   0  0  0  0  0  0  0  0  0  0  0  0
    3.5050   17.1090  -29.4240 O   0  0  0  0  0  0  0  0  0  0  0  0
    1.4780   18.2120  -28.9880 N   0  0  0  0  0  0  0  0  0  0  0  0
    0.7330   19.1550  -28.1360 C   0  0  0  0  0  0  0  0  0  0  0  0
   -0.7440   19.2430  -28.5330 C   0  0  0  0  0  0  0  0  0  0  0  0
   -0.8700   19.3670  -29.9900 N   0  0  0  0  0  0  0  0  0  0  0  0
   -1.8710   20.2260  -30.5630 C   0  0  0  0  0  0  0  0  0  0  0  0
   -2.6410   19.7700  -31.4520 O   0  0  0  0  0  0  0  0  0  0  0  0
   -2.0020   21.6390  -30.1440 C   0  0  0  0  0  0  0  0  0  0  0  0
   -0.8640   22.4540  -30.0230 C   0  0  0  0  0  0  0  0  0  0  0  0
   -0.9920   23.7920  -29.6390 C   0  0  0  0  0  0  0  0  0  0  0  0
   -2.2530   24.3250  -29.3520 C   0  0  0  0  0  0  0  0  0  0  0  0
   -2.3630   25.6570  -28.9700 O   0  0  0  0  0  0  0  0  0  0  0  0
   -3.3940   23.5120  -29.4350 C   0  0  0  0  0  0  0  0  0  0  0  0
   -4.6860   24.0530  -29.1330 N   0  0  0  0  0  0  0  0  0  0  0  0
   -5.8170   24.4240  -30.3930 S   0  0  0  0  0  0  0  0  0  0  0  0
   -5.0830   25.0590  -31.5410 O   0  0  0  0  0  0  0  0  0  0  0  0
   -6.8280   25.4070  -29.8750 O   0  0  0  0  0  0  0  0  0  0  0  0
   -6.6290   22.9740  -30.9760 C   0  0  0  0  0  0  0  0  0  0  0  0
   -7.9210   22.6670  -30.5290 C   0  0  0  0  0  0  0  0  0  0  0  0
   -8.5760   21.5260  -31.0010 C   0  0  0  0  0  0  0  0  0  0  0  0
   -7.9450   20.6840  -31.9250 C   0  0  0  0  0  0  0  0  0  0  0  0
   -6.6500   20.9860  -32.3770 C   0  0  0  0  0  0  0  0  0  0  0  0
   -6.0010   22.1380  -31.9110 C   0  0  0  0  0  0  0  0  0  0  0  0
   -6.0160   20.1090  -33.4270 C   0  0  0  0  0  0  0  0  0  0  0  0
   -6.3200   18.6060  -33.2260 C   0  0  0  0  0  0  0  0  0  0  0  0
   -7.6300   18.2880  -32.4620 C   0  0  0  0  0  0  0  0  0  0  0  0
   -8.6250   19.4520  -32.4510 C   0  0  0  0  0  0  0  0  0  0  0  0
   -3.2630   22.1770  -29.8420 C   0  0  0  0  0  0  0  0  0  0  0  0
   -0.0990   18.4830  -30.8720 C   0  0  0  0  0  0  0  0  0  0  0  0
    0.7800   17.5090  -30.0770 C   0  0  0  0  0  0  0  0  0  0  0  0
    3.0589   18.0601  -26.5626 H   0  0  0  0  0  0  0  0  0  0  0  0
    4.6003   18.1613  -27.4793 H   0  0  0  0  0  0  0  0  0  0  0  0
    3.4624   19.5512  -27.4793 H   0  0  0  0  0  0  0  0  0  0  0  0
    0.8004   18.8188  -27.0908 H   0  0  0  0  0  0  0  0  0  0  0  0
    1.1789   20.1526  -28.2625 H   0  0  0  0  0  0  0  0  0  0  0  0
   -1.2649   18.3335  -28.1992 H   0  0  0  0  0  0  0  0  0  0  0  0
   -1.1918   20.1279  -28.0571 H   0  0  0  0  0  0  0  0  0  0  0  0
    0.1324   22.0372  -30.2314 H   0  0  0  0  0  0  0  0  0  0  0  0
   -0.0978   24.4280  -29.5622 H   0  0  0  0  0  0  0  0  0  0  0  0
   -5.0810   23.8920  -28.1800 H   0  0  0  0  0  0  0  0  0  0  0  0
   -8.4214   23.3261  -29.8043 H   0  0  0  0  0  0  0  0  0  0  0  0
   -9.5897   21.2889  -30.6457 H   0  0  0  0  0  0  0  0  0  0  0  0
   -4.9952   22.3873  -32.2801 H   0  0  0  0  0  0  0  0  0  0  0  0
   -6.3951   20.4140  -34.4135 H   0  0  0  0  0  0  0  0  0  0  0  0
   -4.9264   20.2369  -33.3471 H   0  0  0  0  0  0  0  0  0  0  0  0
   -6.3842   18.1372  -34.2190 H   0  0  0  0  0  0  0  0  0  0  0  0
   -5.5033   18.2128  -32.6028 H   0  0  0  0  0  0  0  0  0  0  0  0
   -8.1113   17.4223  -32.9403 H   0  0  0  0  0  0  0  0  0  0  0  0
   -7.3553   18.0855  -31.4163 H   0  0  0  0  0  0  0  0  0  0  0  0
   -8.9828   19.6387  -33.4743 H   0  0  0  0  0  0  0  0  0  0  0  0
   -9.4791   19.1995  -31.8055 H   0  0  0  0  0  0  0  0  0  0  0  0
   -4.1585   21.5437  -29.9257 H   0  0  0  0  0  0  0  0  0  0  0  0
   -0.7972   17.9048  -31.4950 H   0  0  0  0  0  0  0  0  0  0  0  0
    0.5595   19.1090  -31.4920 H   0  0  0  0  0  0  0  0  0  0  0  0
    0.1471   16.7176  -29.6492 H   0  0  0  0  0  0  0  0  0  0  0  0
    1.5286   17.0727  -30.7547 H   0  0  0  0  0  0  0  0  0  0  0  0
  1  2  1  0
  2  3  2  0
  2  4  1  0
  4  5  1  0
  5  6  1  0
  6  7  1  0
  7  8  1  0
  8  9  2  0
  8 10  1  0
 10 11  2  0
 11 12  1  0
 12 13  2  0
 13 14  1  0
 13 15  1  0
 15 16  1  0
 16 17  1  0
 17 18  2  0
 17 19  2  0
 17 20  1  0
 20 21  2  0
 21 22  1  0
 22 23  2  0
 23 24  1  0
 24 25  2  0
 24 26  1  0
 26 27  1  0
 27 28  1  0
 28 29  1  0
 15 30  2  0
  7 31  1  0
 31 32  1  0
 32  4  1  0
 30 10  1  0
 25 20  1  0
 29 23  1  0
  1 33  1  0
  1 34  1  0
  1 35  1  0
  5 36  1  0
  5 37  1  0
  6 38  1  0
  6 39  1  0
 11 40  1  0
 12 41  1  0
 16 42  1  0
 21 43  1  0
 22 44  1  0
 25 45  1  0
 26 46  1  0
 26 47  1  0
 27 48  1  0
 27 49  1  0
 28 50  1  0
 28 51  1  0
 29 52  1  0
 29 53  1  0
 30 54  1  0
 31 55  1  0
 31 56  1  0
 32 57  1  0
 32 58  1  0
M  CHG  1  14  -1
M  END
>  <UniqueID>  (15) 
15

>  <SMILES>  (15) 
CC(=O)N1CCN(C(=O)c2ccc([O-])c(NS(=O)(=O)c3ccc4c(c3)CCCC4)c2)CC1

>  <Energy>  (15) 
68.60330989835971

>  <Genealogy>  (15) 
CC(=O)N1CCN(C(=O)c2ccc([O-])c(NS(=O)(=O)c3ccc4c(c3)CCCC4)c2)CC1 (protonated)
CC(=O)N1CCN(C(=O)c2ccc([O-])c(NS(=O)(=O)c3ccc4c(c3)CCCC4)c2)CC1 (3D coordinates assigned)
CC(=O)N1CCN(C(=O)c2ccc([O-])c(NS(=O)(=O)c3ccc4c(c3)CCCC4)c2)CC1 (nonaromatic ring conformer: 68.60330989835971 kcal/mol)

>  <smiles>  (15) 
CC(=O)N1CCN(C(=O)c2ccc(O)c(NS(=O)(=O)c3ccc4c(c3)CCCC4)c2)CC1

>  <score_type>  (15) 
oracle

>  <origin>  (15) 
adgpu

>  <m_score__min__energy>  (15) 
-14.380000000000001

>  <m_primary>  (15) 
energy

$$$$
15:0
     RDKit          3D

 44 46  0  0  0  0  0  0  0  0999 V2000
   -5.8430   25.2920  -29.0320 O   0  0  0  0  0  0  0  0  0  0  0  0
   -5.2770   25.2010  -30.4210 S   0  0  0  0  0  0  0  0  0  0  0  0
   -5.7340   26.3910  -31.2180 O   0  0  0  0  0  0  0  0  0  0  0  0
   -3.5460   25.2120  -30.3280 N   0  0  0  0  0  0  0  0  0  0  0  0
   -2.7650   24.5300  -29.3360 C   0  0  0  0  0  0  0  0  0  0  0  0
   -3.1370   23.2690  -28.8320 C   0  0  0  0  0  0  0  0  0  0  0  0
   -2.3510   22.6390  -27.8620 C   0  0  0  0  0  0  0  0  0  0  0  0
   -1.1910   23.2570  -27.3890 C   0  0  0  0  0  0  0  0  0  0  0  0
   -0.8140   24.5080  -27.8860 C   0  0  0  0  0  0  0  0  0  0  0  0
   -1.5960   25.1430  -28.8560 C   0  0  0  0  0  0  0  0  0  0  0  0
   -1.2110   26.3890  -29.3370 O   0  0  0  0  0  0  0  0  0  0  0  0
   -5.8320   23.7050  -31.1640 C   0  0  0  0  0  0  0  0  0  0  0  0
   -7.2010   23.4710  -31.3510 C   0  0  0  0  0  0  0  0  0  0  0  0
   -7.6340   22.2790  -31.9400 C   0  0  0  0  0  0  0  0  0  0  0  0
   -6.7040   21.3170  -32.3410 C   0  0  0  0  0  0  0  0  0  0  0  0
   -5.3330   21.5410  -32.1530 C   0  0  0  0  0  0  0  0  0  0  0  0
   -4.1580   20.3160  -32.6410 S   0  0  0  0  0  0  0  0  0  0  0  0
   -3.4060   20.8050  -33.8470 O   0  0  0  0  0  0  0  0  0  0  0  0
   -3.1670   20.1080  -31.5280 O   0  0  0  0  0  0  0  0  0  0  0  0
   -4.9350   18.7980  -33.0190 N   0  0  0  0  0  0  0  0  0  0  0  0
   -5.8730   18.4210  -31.9410 C   0  0  0  0  0  0  0  0  0  0  0  0
   -6.7880   17.2410  -32.3430 C   0  0  0  0  0  0  0  0  0  0  0  0
   -6.2720   16.5180  -33.5890 C   0  0  0  0  0  0  0  0  0  0  0  0
   -6.1040   17.4940  -34.7660 C   0  0  0  0  0  0  0  0  0  0  0  0
   -5.6300   18.8880  -34.3130 C   0  0  0  0  0  0  0  0  0  0  0  0
   -4.9010   22.7370  -31.5640 C   0  0  0  0  0  0  0  0  0  0  0  0
   -4.0489   22.7778  -29.2025 H   0  0  0  0  0  0  0  0  0  0  0  0
   -2.6469   21.6545  -27.4706 H   0  0  0  0  0  0  0  0  0  0  0  0
   -0.5745   22.7595  -26.6258 H   0  0  0  0  0  0  0  0  0  0  0  0
    0.0997   24.9940  -27.5133 H   0  0  0  0  0  0  0  0  0  0  0  0
   -7.9357   24.2258  -31.0341 H   0  0  0  0  0  0  0  0  0  0  0  0
   -8.7090   22.0985  -32.0878 H   0  0  0  0  0  0  0  0  0  0  0  0
   -7.0483   20.3812  -32.8055 H   0  0  0  0  0  0  0  0  0  0  0  0
   -5.2925   18.1314  -31.0527 H   0  0  0  0  0  0  0  0  0  0  0  0
   -6.5159   19.2898  -31.7362 H   0  0  0  0  0  0  0  0  0  0  0  0
   -6.8322   16.5250  -31.5091 H   0  0  0  0  0  0  0  0  0  0  0  0
   -7.7852   17.6452  -32.5717 H   0  0  0  0  0  0  0  0  0  0  0  0
   -5.2985   16.0593  -33.3609 H   0  0  0  0  0  0  0  0  0  0  0  0
   -7.0044   15.7487  -33.8749 H   0  0  0  0  0  0  0  0  0  0  0  0
   -5.3629   17.0793  -35.4652 H   0  0  0  0  0  0  0  0  0  0  0  0
   -7.0875   17.6142  -35.2437 H   0  0  0  0  0  0  0  0  0  0  0  0
   -4.9419   19.2993  -35.0662 H   0  0  0  0  0  0  0  0  0  0  0  0
   -6.5058   19.5443  -34.2028 H   0  0  0  0  0  0  0  0  0  0  0  0
   -3.8261   22.9168  -31.4150 H   0  0  0  0  0  0  0  0  0  0  0  0
  1  2  2  0
  2  3  2  0
  2  4  1  0
  4  5  1  0
  5  6  2  0
  6  7  1  0
  7  8  2  0
  8  9  1  0
  9 10  2  0
 10 11  1  0
  2 12  1  0
 12 13  2  0
 13 14  1  0
 14 15  2  0
 15 16  1  0
 16 17  1  0
 17 18  2  0
 17 19  2  0
 17 20  1  0
 20 21  1  0
 21 22  1  0
 22 23  1  0
 23 24  1  0
 24 25  1  0
 16 26  2  0
 10  5  1  0
 26 12  1  0
 25 20  1  0
  6 27  1  0
  7 28  1  0
  8 29  1  0
  9 30  1  0
 13 31  1  0
 14 32  1  0
 15 33  1  0
 21 34  1  0
 21 35  1  0
 22 36  1  0
 22 37  1  0
 23 38  1  0
 23 39  1  0
 24 40  1  0
 24 41  1  0
 25 42  1  0
 25 43  1  0
 26 44  1  0
M  CHG  2   4  -1  11  -1
M  END
>  <UniqueID>  (16) 
16

>  <SMILES>  (16) 
O=S(=O)([N-]c1ccccc1[O-])c1cccc(S(=O)(=O)N2CCCCC2)c1

>  <Energy>  (16) 
50.607442141254865

>  <Genealogy>  (16) 
O=S(=O)([N-]c1ccccc1[O-])c1cccc(S(=O)(=O)N2CCCCC2)c1 (protonated)
O=S(=O)([N-]c1ccccc1[O-])c1cccc(S(=O)(=O)N2CCCCC2)c1 (3D coordinates assigned)
O=S(=O)([N-]c1ccccc1[O-])c1cccc(S(=O)(=O)N2CCCCC2)c1 (nonaromatic ring conformer: 50.607442141254865 kcal/mol)

>  <smiles>  (16) 
O=S(=O)(Nc1ccccc1O)c1cccc(S(=O)(=O)N2CCCCC2)c1

>  <score_type>  (16) 
oracle

>  <origin>  (16) 
adgpu

>  <m_score__min__energy>  (16) 
-14.210000000000001

>  <m_primary>  (16) 
energy

$$$$
16:0
     RDKit          3D

 47 50  0  0  0  0  0  0  0  0999 V2000
   -2.6320   20.3240  -31.4560 O   0  0  0  0  0  0  0  0  0  0  0  0
   -2.9320   20.1350  -32.6660 C   0  0  0  0  0  0  0  0  0  0  0  0
   -2.0360   19.2830  -33.5130 C   0  0  0  0  0  0  0  0  0  0  0  0
   -2.6340   17.5580  -33.5600 S   0  0  0  0  0  0  0  0  0  0  0  0
   -4.3460   17.9960  -33.8810 C   0  0  0  0  0  0  0  0  0  0  0  0
   -4.8100   18.4010  -35.0840 N   0  0  0  0  0  0  0  0  0  0  0  0
   -6.1170   18.6120  -34.9550 N   0  0  0  0  0  0  0  0  0  0  0  0
   -6.4180   18.3290  -33.6740 C   0  0  0  0  0  0  0  0  0  0  0  0
   -7.6720   18.3940  -33.0740 C   0  0  0  0  0  0  0  0  0  0  0  0
   -7.7570   18.0410  -31.7160 C   0  0  0  0  0  0  0  0  0  0  0  0
   -6.6050   17.6380  -31.0080 C   0  0  0  0  0  0  0  0  0  0  0  0
   -5.3680   17.5930  -31.6700 C   0  0  0  0  0  0  0  0  0  0  0  0
   -5.3380   17.9460  -32.9800 N   0  0  0  0  0  0  0  0  0  0  0  0
   -4.1540   20.6570  -33.2120 N   0  0  0  0  0  0  0  0  0  0  0  0
   -5.0680   21.4940  -32.4850 C   0  0  0  0  0  0  0  0  0  0  0  0
   -6.4480   21.2970  -32.6360 C   0  0  0  0  0  0  0  0  0  0  0  0
   -7.3570   22.1150  -31.9590 C   0  0  0  0  0  0  0  0  0  0  0  0
   -6.8950   23.1430  -31.1340 C   0  0  0  0  0  0  0  0  0  0  0  0
   -5.5200   23.3620  -30.9850 C   0  0  0  0  0  0  0  0  0  0  0  0
   -4.9420   24.6890  -29.9810 S   0  0  0  0  0  0  0  0  0  0  0  0
   -4.1900   25.6660  -30.8410 O   0  0  0  0  0  0  0  0  0  0  0  0
   -6.1120   25.4020  -29.3600 O   0  0  0  0  0  0  0  0  0  0  0  0
   -3.8790   24.0600  -28.7480 N   0  0  0  0  0  0  0  0  0  0  0  0
   -2.5120   23.9160  -29.2480 C   0  0  0  0  0  0  0  0  0  0  0  0
   -1.8680   22.8080  -28.4300 C   0  0  0  0  0  0  0  0  0  0  0  0
   -3.0270   22.0160  -27.8430 C   0  0  0  0  0  0  0  0  0  0  0  0
   -4.2840   22.7190  -28.3310 C   0  0  0  0  0  0  0  0  0  0  0  0
   -4.6080   22.5450  -31.6700 C   0  0  0  0  0  0  0  0  0  0  0  0
   -2.0172   19.6860  -34.5363 H   0  0  0  0  0  0  0  0  0  0  0  0
   -1.0257   19.2938  -33.0782 H   0  0  0  0  0  0  0  0  0  0  0  0
   -8.5612   18.7090  -33.6398 H   0  0  0  0  0  0  0  0  0  0  0  0
   -8.7286   18.0792  -31.2016 H   0  0  0  0  0  0  0  0  0  0  0  0
   -6.6757   17.3613  -29.9457 H   0  0  0  0  0  0  0  0  0  0  0  0
   -4.4532   17.2819  -31.1443 H   0  0  0  0  0  0  0  0  0  0  0  0
   -4.4590   20.3040  -34.1470 H   0  0  0  0  0  0  0  0  0  0  0  0
   -6.8174   20.4941  -33.2910 H   0  0  0  0  0  0  0  0  0  0  0  0
   -8.4381   21.9489  -32.0761 H   0  0  0  0  0  0  0  0  0  0  0  0
   -7.6133   23.7823  -30.5998 H   0  0  0  0  0  0  0  0  0  0  0  0
   -2.5238   23.6439  -30.3137 H   0  0  0  0  0  0  0  0  0  0  0  0
   -1.9521   24.8580  -29.1525 H   0  0  0  0  0  0  0  0  0  0  0  0
   -1.2485   22.1651  -29.0726 H   0  0  0  0  0  0  0  0  0  0  0  0
   -1.2067   23.2079  -27.6472 H   0  0  0  0  0  0  0  0  0  0  0  0
   -3.0035   20.9764  -28.2016 H   0  0  0  0  0  0  0  0  0  0  0  0
   -2.9807   21.9759  -26.7447 H   0  0  0  0  0  0  0  0  0  0  0  0
   -4.7185   22.1725  -29.1810 H   0  0  0  0  0  0  0  0  0  0  0  0
   -5.0458   22.7637  -27.5387 H   0  0  0  0  0  0  0  0  0  0  0  0
   -3.5278   22.7269  -31.5695 H   0  0  0  0  0  0  0  0  0  0  0  0
  1  2  2  0
  2  3  1  0
  3  4  1  0
  4  5  1  0
  5  6  2  0
  6  7  1  0
  7  8  2  0
  8  9  1  0
  9 10  2  0
 10 11  1  0
 11 12  2  0
 12 13  1  0
  2 14  1  0
 14 15  1  0
 15 16  2  0
 16 17  1  0
 17 18  2  0
 18 19  1  0
 19 20  1  0
 20 21  2  0
 20 22  2  0
 20 23  1  0
 23 24  1  0
 24 25  1  0
 25 26  1  0
 26 27  1  0
 19 28  2  0
 13  5  1  0
 28 15  1  0
 13  8  1  0
 27 23  1  0
  3 29  1  0
  3 30  1  0
  9 31  1  0
 10 32  1  0
 11 33  1  0
 12 34  1  0
 14 35  1  0
 16 36  1  0
 17 37  1  0
 18 38  1  0
 24 39  1  0
 24 40  1  0
 25 41  1  0
 25 42  1  0
 26 43  1  0
 26 44  1  0
 27 45  1  0
 27 46  1  0
 28 47  1  0
M  END
>  <UniqueID>  (17) 
17

>  <SMILES>  (17) 
O=C(CSc1nnc2ccccn12)Nc1cccc(S(=O)(=O)N2CCCC2)c1

>  <Energy>  (17) 
89.19280232393463

>  <Genealogy>  (17) 
O=C(CSc1nnc2ccccn12)Nc1cccc(S(=O)(=O)N2CCCC2)c1 (3D coordinates assigned)
O=C(CSc1nnc2ccccn12)Nc1cccc(S(=O)(=O)N2CCCC2)c1 (nonaromatic ring conformer: 89.19280232393463 kcal/mol)

>  <smiles>  (17) 
O=C(CSc1nnc2ccccn12)Nc1cccc(S(=O)(=O)N2CCCC2)c1

>  <score_type>  (17) 
oracle

>  <origin>  (17) 
adgpu

>  <m_score__min__energy>  (17) 
-10.35

>  <m_primary>  (17) 
energy

$$$$
17:0
     RDKit          3D

 28 29  0  0  0  0  0  0  0  0999 V2000
   -2.1120   25.3870  -28.9470 N   0  0  0  0  0  0  0  0  0  0  0  0
   -1.3850   23.8260  -28.7890 S   0  0  0  0  0  0  0  0  0  0  0  0
   -1.7510   23.2480  -27.4500 O   0  0  0  0  0  0  0  0  0  0  0  0
    0.1110   23.9550  -28.8600 O   0  0  0  0  0  0  0  0  0  0  0  0
   -1.9550   22.7690  -30.0870 C   0  0  0  0  0  0  0  0  0  0  0  0
   -1.3670   21.5050  -30.2590 C   0  0  0  0  0  0  0  0  0  0  0  0
   -1.8140   20.6490  -31.2670 C   0  0  0  0  0  0  0  0  0  0  0  0
   -2.8560   21.0420  -32.1060 C   0  0  0  0  0  0  0  0  0  0  0  0
   -3.4520   22.2950  -31.9440 C   0  0  0  0  0  0  0  0  0  0  0  0
   -3.0120   23.1690  -30.9320 C   0  0  0  0  0  0  0  0  0  0  0  0
   -3.6180   24.4580  -30.7400 N   0  0  0  0  0  0  0  0  0  0  0  0
   -5.1350   24.7490  -29.9540 S   0  0  0  0  0  0  0  0  0  0  0  0
   -4.9790   24.5140  -28.4780 O   0  0  0  0  0  0  0  0  0  0  0  0
   -5.5490   26.1750  -30.1840 O   0  0  0  0  0  0  0  0  0  0  0  0
   -6.3460   23.6480  -30.5820 C   0  0  0  0  0  0  0  0  0  0  0  0
   -7.1330   22.7910  -29.8270 C   0  0  0  0  0  0  0  0  0  0  0  0
   -8.0270   22.0470  -30.6070 C   0  0  0  0  0  0  0  0  0  0  0  0
   -7.9420   22.3210  -31.9670 C   0  0  0  0  0  0  0  0  0  0  0  0
   -6.7590   23.4940  -32.2020 S   0  0  0  0  0  0  0  0  0  0  0  0
   -2.0250   25.6690  -29.9480 H   0  0  0  0  0  0  0  0  0  0  0  0
   -3.1320   25.2700  -28.7530 H   0  0  0  0  0  0  0  0  0  0  0  0
   -0.5492   21.1877  -29.5953 H   0  0  0  0  0  0  0  0  0  0  0  0
   -1.3437   19.6635  -31.3995 H   0  0  0  0  0  0  0  0  0  0  0  0
   -3.2094   20.3641  -32.8969 H   0  0  0  0  0  0  0  0  0  0  0  0
   -4.2708   22.6008  -32.6119 H   0  0  0  0  0  0  0  0  0  0  0  0
   -7.0625   22.7049  -28.7326 H   0  0  0  0  0  0  0  0  0  0  0  0
   -8.7302   21.3148  -30.1833 H   0  0  0  0  0  0  0  0  0  0  0  0
   -8.5463   21.8503  -32.7565 H   0  0  0  0  0  0  0  0  0  0  0  0
  1  2  1  0
  2  3  2  0
  2  4  2  0
  2  5  1  0
  5  6  2  0
  6  7  1  0
  7  8  2  0
  8  9  1  0
  9 10  2  0
 10 11  1  0
 11 12  1  0
 12 13  2  0
 12 14  2  0
 12 15  1  0
 15 16  2  0
 16 17  1  0
 17 18  2  0
 18 19  1  0
 10  5  1  0
 19 15  1  0
  1 20  1  0
  1 21  1  0
  6 22  1  0
  7 23  1  0
  8 24  1  0
  9 25  1  0
 16 26  1  0
 17 27  1  0
 18 28  1  0
M  CHG  1  11  -1
M  END
>  <UniqueID>  (18) 
18

>  <SMILES>  (18) 
NS(=O)(=O)c1ccccc1[N-]S(=O)(=O)c1cccs1

>  <Energy>  (18) 
56.84689560925006

>  <Genealogy>  (18) 
NS(=O)(=O)c1ccccc1[N-]S(=O)(=O)c1cccs1 (protonated)
NS(=O)(=O)c1ccccc1[N-]S(=O)(=O)c1cccs1 (3D coordinates assigned)
NS(=O)(=O)c1ccccc1[N-]S(=O)(=O)c1cccs1 (optimized conformer: 56.84689560925006 kcal/mol)

>  <smiles>  (18) 
NS(=O)(=O)c1ccccc1NS(=O)(=O)c1cccs1

>  <score_type>  (18) 
oracle

>  <origin>  (18) 
adgpu

>  <m_score__min__energy>  (18) 
-8.4000000000000004

>  <m_primary>  (18) 
energy

$$$$
18:0
     RDKit          3D

 77 80  0  0  0  0  0  0  0  0999 V2000
   -7.2290   20.0290  -32.7970 C   0  0  0  0  0  0  0  0  0  0  0  0
   -6.6710   21.3330  -32.2850 C   0  0  0  0  0  0  0  0  0  0  0  0
   -5.2830   21.5410  -32.3150 C   0  0  0  0  0  0  0  0  0  0  0  0
   -4.7270   22.7170  -31.8090 C   0  0  0  0  0  0  0  0  0  0  0  0
   -5.5450   23.6950  -31.2330 C   0  0  0  0  0  0  0  0  0  0  0  0
   -4.9550   24.9430  -30.7070 C   0  0  0  0  0  0  0  0  0  0  0  0
   -5.7130   25.9030  -30.3960 O   0  0  0  0  0  0  0  0  0  0  0  0
   -3.5460   25.0650  -30.4760 N   0  0  0  0  0  0  0  0  0  0  0  0
   -2.8410   24.6190  -29.3080 C   0  0  0  0  0  0  0  0  0  0  0  0
   -1.4880   24.9330  -29.0940 C   0  0  0  0  0  0  0  0  0  0  0  0
   -0.8710   24.6040  -27.8810 C   0  0  0  0  0  0  0  0  0  0  0  0
   -1.5960   23.9610  -26.8590 C   0  0  0  0  0  0  0  0  0  0  0  0
   -0.9770   23.7200  -25.5300 C   0  0  0  0  0  0  0  0  0  0  0  0
   -0.9060   24.6560  -24.6890 O   0  0  0  0  0  0  0  0  0  0  0  0
   -0.4900   22.4120  -25.1890 N   0  0  0  0  0  0  0  0  0  0  0  0
   -1.2400   21.1650  -25.3510 C   0  0  0  0  0  0  0  0  0  0  0  0
   -1.1120   20.6080  -26.7820 C   0  0  0  0  0  0  0  0  0  0  0  0
    0.0840   21.2150  -27.5350 C   0  0  0  0  0  0  0  0  0  0  0  0
   -0.0220   21.0390  -29.0610 C   0  0  0  0  0  0  0  0  0  0  0  0
   -0.0510   19.5530  -29.4800 C   0  0  0  0  0  0  0  0  0  0  0  0
    0.2380   19.3020  -30.9760 C   0  0  0  0  0  0  0  0  0  0  0  0
   -0.9420   19.1380  -31.8690 N   0  0  0  0  0  0  0  0  0  0  0  0
   -0.6980   18.6140  -33.2430 C   0  0  0  0  0  0  0  0  0  0  0  0
   -1.4890   19.3430  -34.3390 C   0  0  0  0  0  0  0  0  0  0  0  0
   -1.2350   20.8600  -34.2790 C   0  0  0  0  0  0  0  0  0  0  0  0
    0.1030   21.1960  -34.9320 C   0  0  0  0  0  0  0  0  0  0  0  0
    1.1670   20.2720  -34.9660 C   0  0  0  0  0  0  0  0  0  0  0  0
    2.3050   20.5210  -35.7310 C   0  0  0  0  0  0  0  0  0  0  0  0
    2.4070   21.6930  -36.4740 C   0  0  0  0  0  0  0  0  0  0  0  0
    3.5260   21.9030  -37.2680 O   0  0  0  0  0  0  0  0  0  0  0  0
    1.3770   22.6370  -36.4330 C   0  0  0  0  0  0  0  0  0  0  0  0
    1.4740   23.8110  -37.1710 O   0  0  0  0  0  0  0  0  0  0  0  0
    0.2320   22.3910  -35.6650 C   0  0  0  0  0  0  0  0  0  0  0  0
   -1.3910   21.4170  -32.8350 C   0  0  0  0  0  0  0  0  0  0  0  0
   -1.8150   20.3350  -31.8190 C   0  0  0  0  0  0  0  0  0  0  0  0
   -2.9410   23.6200  -27.0940 C   0  0  0  0  0  0  0  0  0  0  0  0
   -3.5550   23.9540  -28.3050 C   0  0  0  0  0  0  0  0  0  0  0  0
   -6.9330   23.4960  -31.1940 C   0  0  0  0  0  0  0  0  0  0  0  0
   -7.5070   22.3230  -31.7190 C   0  0  0  0  0  0  0  0  0  0  0  0
   -9.0020   22.1410  -31.6530 C   0  0  0  0  0  0  0  0  0  0  0  0
   -7.5032   19.3882  -31.9460 H   0  0  0  0  0  0  0  0  0  0  0  0
   -8.1211   20.2271  -33.4092 H   0  0  0  0  0  0  0  0  0  0  0  0
   -6.4697   19.5205  -33.4092 H   0  0  0  0  0  0  0  0  0  0  0  0
   -4.6263   20.7687  -32.7420 H   0  0  0  0  0  0  0  0  0  0  0  0
   -3.6399   22.8757  -31.8634 H   0  0  0  0  0  0  0  0  0  0  0  0
   -0.9116   25.4391  -29.8824 H   0  0  0  0  0  0  0  0  0  0  0  0
    0.1897   24.8500  -27.7248 H   0  0  0  0  0  0  0  0  0  0  0  0
   -0.8509   20.4197  -24.6417 H   0  0  0  0  0  0  0  0  0  0  0  0
   -2.3023   21.3747  -25.1571 H   0  0  0  0  0  0  0  0  0  0  0  0
   -0.9801   19.5173  -26.7275 H   0  0  0  0  0  0  0  0  0  0  0  0
   -2.0275   20.8727  -27.3314 H   0  0  0  0  0  0  0  0  0  0  0  0
    0.1339   22.2901  -27.3076 H   0  0  0  0  0  0  0  0  0  0  0  0
    0.9890   20.6858  -27.2020 H   0  0  0  0  0  0  0  0  0  0  0  0
   -0.9465   21.5226  -29.4093 H   0  0  0  0  0  0  0  0  0  0  0  0
    0.8682   21.4989  -29.5150 H   0  0  0  0  0  0  0  0  0  0  0  0
    0.7051   19.0150  -28.8894 H   0  0  0  0  0  0  0  0  0  0  0  0
   -1.0753   19.1968  -29.2960 H   0  0  0  0  0  0  0  0  0  0  0  0
    0.8223   20.1557  -31.3499 H   0  0  0  0  0  0  0  0  0  0  0  0
    0.7614   18.3351  -31.0099 H   0  0  0  0  0  0  0  0  0  0  0  0
    0.3745   18.7139  -33.4659 H   0  0  0  0  0  0  0  0  0  0  0  0
   -1.0361   17.5673  -33.2492 H   0  0  0  0  0  0  0  0  0  0  0  0
   -1.1758   18.9635  -35.3228 H   0  0  0  0  0  0  0  0  0  0  0  0
   -2.5619   19.1586  -34.1814 H   0  0  0  0  0  0  0  0  0  0  0  0
   -2.0102   21.3765  -34.8641 H   0  0  0  0  0  0  0  0  0  0  0  0
    1.0982   19.3428  -34.3814 H   0  0  0  0  0  0  0  0  0  0  0  0
    3.1254   19.7885  -35.7475 H   0  0  0  0  0  0  0  0  0  0  0  0
   -0.5743   23.1387  -35.6342 H   0  0  0  0  0  0  0  0  0  0  0  0
   -0.4274   21.8406  -32.5157 H   0  0  0  0  0  0  0  0  0  0  0  0
   -2.1842   22.1788  -32.8578 H   0  0  0  0  0  0  0  0  0  0  0  0
   -1.7688   20.7636  -30.8070 H   0  0  0  0  0  0  0  0  0  0  0  0
   -2.8358   20.0159  -32.0761 H   0  0  0  0  0  0  0  0  0  0  0  0
   -3.5129   23.0873  -26.3200 H   0  0  0  0  0  0  0  0  0  0  0  0
   -4.6102   23.6913  -28.4709 H   0  0  0  0  0  0  0  0  0  0  0  0
   -7.5803   24.2655  -30.7480 H   0  0  0  0  0  0  0  0  0  0  0  0
   -9.3206   22.1022  -30.6008 H   0  0  0  0  0  0  0  0  0  0  0  0
   -9.4967   22.9856  -32.1550 H   0  0  0  0  0  0  0  0  0  0  0  0
   -9.2796   21.2024  -32.1550 H   0  0  0  0  0  0  0  0  0  0  0  0
  1  2  1  0
  2  3  2  0
  3  4  1  0
  4  5  2  0
  5  6  1  0
  6  7  2  0
  6  8  1  0
  8  9  1  0
  9 10  2  0
 10 11  1  0
 11 12  2  0
 12 13  1  0
 13 14  2  0
 13 15  1  0
 15 16  1  0
 16 17  1  0
 17 18  1  0
 18 19  1  0
 19 20  1  0
 20 21  1  0
 21 22  1  0
 22 23  1  0
 23 24  1  0
 24 25  1  0
 25 26  1  0
 26 27  2  0
 27 28  1  0
 28 29  2  0
 29 30  1  0
 29 31  1  0
 31 32  1  0
 31 33  2  0
 25 34  1  0
 34 35  1  0
 12 36  1  0
 36 37  2  0
  5 38  1  0
 38 39  2  0
 39 40  1  0
 39  2  1  0
 37  9  1  0
 35 22  1  0
 33 26  1  0
  1 41  1  0
  1 42  1  0
  1 43  1  0
  3 44  1  0
  4 45  1  0
 10 46  1  0
 11 47  1  0
 16 48  1  0
 16 49  1  0
 17 50  1  0
 17 51  1  0
 18 52  1  0
 18 53  1  0
 19 54  1  0
 19 55  1  0
 20 56  1  0
 20 57  1  0
 21 58  1  0
 21 59  1  0
 23 60  1  0
 23 61  1  0
 24 62  1  0
 24 63  1  0
 25 64  1  0
 27 65  1  0
 28 66  1  0
 33 67  1  0
 34 68  1  0
 34 69  1  0
 35 70  1  0
 35 71  1  0
 36 72  1  0
 37 73  1  0
 38 74  1  0
 40 75  1  0
 40 76  1  0
 40 77  1  0
M  CHG  4   8  -1  15  -1  30  -1  32  -1
M  END
>  <UniqueID>  (19) 
19

>  <SMILES>  (19) 
Cc1ccc(C(=O)[N-]c2ccc(C(=O)[N-]CCCCCCN3CCC(c4ccc([O-])c([O-])c4)CC3)cc2)cc1C

>  <Energy>  (19) 
100.99487847756505

>  <Genealogy>  (19) 
Cc1ccc(C(=O)[N-]c2ccc(C(=O)[N-]CCCCCCN3CCC(c4ccc([O-])c([O-])c4)CC3)cc2)cc1C (protonated)
Cc1ccc(C(=O)[N-]c2ccc(C(=O)[N-]CCCCCCN3CCC(c4ccc([O-])c([O-])c4)CC3)cc2)cc1C (3D coordinates assigned)
Cc1ccc(C(=O)[N-]c2ccc(C(=O)[N-]CCCCCCN3CCC(c4ccc([O-])c([O-])c4)CC3)cc2)cc1C (nonaromatic ring conformer: 100.99487847756505 kcal/mol)

>  <smiles>  (19) 
Cc1ccc(C(=O)Nc2ccc(C(=O)NCCCCCCN3CCC(c4ccc(O)c(O)c4)CC3)cc2)cc1C

>  <score_type>  (19) 
oracle

>  <origin>  (19) 
adgpu

>  <m_score__min__energy>  (19) 
-16.210000000000001

>  <m_primary>  (19) 
energy

$$$$
19:0
     RDKit          3D

 56 59  0  0  0  0  0  0  0  0999 V2000
   -4.0140   25.6750  -30.8480 O   0  0  0  0  0  0  0  0  0  0  0  0
   -4.3410   24.4670  -30.7210 C   0  0  0  0  0  0  0  0  0  0  0  0
   -5.0410   23.8240  -31.7920 N   0  0  0  0  0  0  0  0  0  0  0  0
   -5.5210   22.4720  -31.8040 C   0  0  0  0  0  0  0  0  0  0  0  0
   -6.8760   22.2400  -32.0730 C   0  0  0  0  0  0  0  0  0  0  0  0
   -7.3800   20.9370  -32.1090 C   0  0  0  0  0  0  0  0  0  0  0  0
   -6.5260   19.8460  -31.8950 C   0  0  0  0  0  0  0  0  0  0  0  0
   -7.1490   18.1990  -31.9200 S   0  0  0  0  0  0  0  0  0  0  0  0
   -8.6110   18.2340  -31.5670 O   0  0  0  0  0  0  0  0  0  0  0  0
   -6.4290   17.3660  -30.8960 O   0  0  0  0  0  0  0  0  0  0  0  0
   -6.9280   17.5270  -33.5210 N   0  0  0  0  0  0  0  0  0  0  0  0
   -6.1150   18.4160  -34.3920 C   0  0  0  0  0  0  0  0  0  0  0  0
   -4.7850   17.7970  -34.8560 C   0  0  0  0  0  0  0  0  0  0  0  0
   -4.0900   17.0870  -33.6960 C   0  0  0  0  0  0  0  0  0  0  0  0
   -4.9820   16.0000  -33.0690 C   0  0  0  0  0  0  0  0  0  0  0  0
   -6.4640   16.1260  -33.4690 C   0  0  0  0  0  0  0  0  0  0  0  0
   -5.1670   20.0720  -31.6490 C   0  0  0  0  0  0  0  0  0  0  0  0
   -4.6620   21.3750  -31.6140 C   0  0  0  0  0  0  0  0  0  0  0  0
   -4.0230   23.7460  -29.5240 N   0  0  0  0  0  0  0  0  0  0  0  0
   -2.7160   23.3460  -29.0830 C   0  0  0  0  0  0  0  0  0  0  0  0
   -2.4090   22.0030  -28.7960 C   0  0  0  0  0  0  0  0  0  0  0  0
   -1.1150   21.6300  -28.3800 C   0  0  0  0  0  0  0  0  0  0  0  0
   -0.8040   20.2480  -28.0760 N   0  0  0  0  0  0  0  0  0  0  0  0
    0.0610   19.4090  -28.8930 C   0  0  0  0  0  0  0  0  0  0  0  0
    0.2350   18.1110  -28.1180 C   0  0  0  0  0  0  0  0  0  0  0  0
   -0.8950   18.0840  -27.0960 C   0  0  0  0  0  0  0  0  0  0  0  0
   -1.3260   19.5340  -26.9200 C   0  0  0  0  0  0  0  0  0  0  0  0
   -0.1280   22.6270  -28.2730 C   0  0  0  0  0  0  0  0  0  0  0  0
   -0.4230   23.9560  -28.5850 C   0  0  0  0  0  0  0  0  0  0  0  0
   -1.7080   24.3140  -28.9950 C   0  0  0  0  0  0  0  0  0  0  0  0
   -1.9830   25.6420  -29.3080 O   0  0  0  0  0  0  0  0  0  0  0  0
   -7.5489   23.0904  -32.2574 H   0  0  0  0  0  0  0  0  0  0  0  0
   -8.4489   20.7671  -32.3056 H   0  0  0  0  0  0  0  0  0  0  0  0
   -6.7099   18.6641  -35.2833 H   0  0  0  0  0  0  0  0  0  0  0  0
   -5.8598   19.3013  -33.7910 H   0  0  0  0  0  0  0  0  0  0  0  0
   -4.9843   17.0704  -35.6575 H   0  0  0  0  0  0  0  0  0  0  0  0
   -4.1295   18.5996  -35.2250 H   0  0  0  0  0  0  0  0  0  0  0  0
   -3.1670   16.6183  -34.0680 H   0  0  0  0  0  0  0  0  0  0  0  0
   -3.8707   17.8361  -32.9209 H   0  0  0  0  0  0  0  0  0  0  0  0
   -4.6145   15.0156  -33.3944 H   0  0  0  0  0  0  0  0  0  0  0  0
   -4.9267   16.1214  -31.9771 H   0  0  0  0  0  0  0  0  0  0  0  0
   -6.5989   15.6745  -34.4629 H   0  0  0  0  0  0  0  0  0  0  0  0
   -7.0583   15.6097  -32.7008 H   0  0  0  0  0  0  0  0  0  0  0  0
   -4.4923   19.2194  -31.4822 H   0  0  0  0  0  0  0  0  0  0  0  0
   -3.5893   21.5427  -31.4373 H   0  0  0  0  0  0  0  0  0  0  0  0
   -3.1891   21.2342  -28.8977 H   0  0  0  0  0  0  0  0  0  0  0  0
   -0.4072   19.2123  -29.8688 H   0  0  0  0  0  0  0  0  0  0  0  0
    1.0280   19.8954  -29.0889 H   0  0  0  0  0  0  0  0  0  0  0  0
    0.1600   17.2474  -28.7952 H   0  0  0  0  0  0  0  0  0  0  0  0
    1.2210   18.0575  -27.6334 H   0  0  0  0  0  0  0  0  0  0  0  0
   -1.7337   17.4769  -27.4675 H   0  0  0  0  0  0  0  0  0  0  0  0
   -0.5709   17.6383  -26.1440 H   0  0  0  0  0  0  0  0  0  0  0  0
   -2.4232   19.6061  -26.8891 H   0  0  0  0  0  0  0  0  0  0  0  0
   -0.9460   19.9570  -25.9784 H   0  0  0  0  0  0  0  0  0  0  0  0
    0.8853   22.3573  -27.9406 H   0  0  0  0  0  0  0  0  0  0  0  0
    0.3609   24.7238  -28.5072 H   0  0  0  0  0  0  0  0  0  0  0  0
  1  2  2  0
  2  3  1  0
  3  4  1  0
  4  5  2  0
  5  6  1  0
  6  7  2  0
  7  8  1  0
  8  9  2  0
  8 10  2  0
  8 11  1  0
 11 12  1  0
 12 13  1  0
 13 14  1  0
 14 15  1  0
 15 16  1  0
  7 17  1  0
 17 18  2  0
  2 19  1  0
 19 20  1  0
 20 21  2  0
 21 22  1  0
 22 23  1  0
 23 24  1  0
 24 25  1  0
 25 26  1  0
 26 27  1  0
 22 28  2  0
 28 29  1  0
 29 30  2  0
 30 31  1  0
 18  4  1  0
 30 20  1  0
 16 11  1  0
 27 23  1  0
  5 32  1  0
  6 33  1  0
 12 34  1  0
 12 35  1  0
 13 36  1  0
 13 37  1  0
 14 38  1  0
 14 39  1  0
 15 40  1  0
 15 41  1  0
 16 42  1  0
 16 43  1  0
 17 44  1  0
 18 45  1  0
 21 46  1  0
 24 47  1  0
 24 48  1  0
 25 49  1  0
 25 50  1  0
 26 51  1  0
 26 52  1  0
 27 53  1  0
 27 54  1  0
 28 55  1  0
 29 56  1  0
M  CHG  3   3  -1  19  -1  31  -1
M  END
>  <UniqueID>  (20) 
20

>  <SMILES>  (20) 
O=C([N-]c1ccc(S(=O)(=O)N2CCCCC2)cc1)[N-]c1cc(N2CCCC2)ccc1[O-]

>  <Energy>  (20) 
73.59084815950658

>  <Genealogy>  (20) 
O=C([N-]c1ccc(S(=O)(=O)N2CCCCC2)cc1)[N-]c1cc(N2CCCC2)ccc1[O-] (protonated)
O=C([N-]c1ccc(S(=O)(=O)N2CCCCC2)cc1)[N-]c1cc(N2CCCC2)ccc1[O-] (3D coordinates assigned)
O=C([N-]c1ccc(S(=O)(=O)N2CCCCC2)cc1)[N-]c1cc(N2CCCC2)ccc1[O-] (nonaromatic ring conformer: 73.59084815950658 kcal/mol)

>  <smiles>  (20) 
O=C(Nc1ccc(S(=O)(=O)N2CCCCC2)cc1)Nc1cc(N2CCCC2)ccc1O

>  <score_type>  (20) 
oracle

>  <origin>  (20) 
adgpu

>  <m_score__min__energy>  (20) 
-15.99

>  <m_primary>  (20) 
energy

$$$$
20:0
     RDKit          3D

 58 61  0  0  0  0  0  0  0  0999 V2000
   -5.0060   25.2510  -30.9370 O   0  0  0  0  0  0  0  0  0  0  0  0
   -4.7300   24.1330  -30.4160 C   0  0  0  0  0  0  0  0  0  0  0  0
   -3.6660   24.0730  -29.3830 C   0  0  0  0  0  0  0  0  0  0  0  0
   -4.0000   24.2710  -28.0320 C   0  0  0  0  0  0  0  0  0  0  0  0
   -3.0180   24.1910  -27.0400 C   0  0  0  0  0  0  0  0  0  0  0  0
   -1.6860   23.9360  -27.3850 C   0  0  0  0  0  0  0  0  0  0  0  0
   -0.4470   23.8450  -26.1290 S   0  0  0  0  0  0  0  0  0  0  0  0
   -0.8540   22.8160  -25.1100 O   0  0  0  0  0  0  0  0  0  0  0  0
    0.8530   23.4030  -26.7450 O   0  0  0  0  0  0  0  0  0  0  0  0
   -0.2110   25.3840  -25.3340 N   0  0  0  0  0  0  0  0  0  0  0  0
   -0.7550   25.3540  -23.9680 C   0  0  0  0  0  0  0  0  0  0  0  0
   -0.4980   26.7080  -23.2710 C   0  0  0  0  0  0  0  0  0  0  0  0
    0.0070   27.6860  -24.1660 O   0  0  0  0  0  0  0  0  0  0  0  0
   -0.8370   27.7850  -25.3000 C   0  0  0  0  0  0  0  0  0  0  0  0
   -0.8420   26.4680  -26.1070 C   0  0  0  0  0  0  0  0  0  0  0  0
   -1.3430   23.7570  -28.7320 C   0  0  0  0  0  0  0  0  0  0  0  0
   -2.3240   23.8310  -29.7250 C   0  0  0  0  0  0  0  0  0  0  0  0
   -5.5070   22.9620  -30.7690 N   0  0  0  0  0  0  0  0  0  0  0  0
   -6.7720   23.3790  -31.4130 C   0  0  0  0  0  0  0  0  0  0  0  0
   -7.5680   22.1660  -31.9510 C   0  0  0  0  0  0  0  0  0  0  0  0
   -6.9380   20.8980  -31.5490 N   0  0  0  0  0  0  0  0  0  0  0  0
   -7.8730   19.5530  -32.1500 S   0  0  0  0  0  0  0  0  0  0  0  0
   -8.9090   20.0400  -33.1270 O   0  0  0  0  0  0  0  0  0  0  0  0
   -8.5720   18.8560  -31.0140 O   0  0  0  0  0  0  0  0  0  0  0  0
   -6.7950   18.4360  -32.9830 C   0  0  0  0  0  0  0  0  0  0  0  0
   -6.2210   18.7780  -34.2200 C   0  0  0  0  0  0  0  0  0  0  0  0
   -5.4010   17.8630  -34.8870 C   0  0  0  0  0  0  0  0  0  0  0  0
   -5.1530   16.6050  -34.3220 C   0  0  0  0  0  0  0  0  0  0  0  0
   -5.7220   16.2610  -33.0890 C   0  0  0  0  0  0  0  0  0  0  0  0
   -6.5420   17.1750  -32.4200 C   0  0  0  0  0  0  0  0  0  0  0  0
   -5.5580   20.8220  -32.0600 C   0  0  0  0  0  0  0  0  0  0  0  0
   -4.7390   22.0710  -31.6650 C   0  0  0  0  0  0  0  0  0  0  0  0
   -5.0412   24.4904  -27.7533 H   0  0  0  0  0  0  0  0  0  0  0  0
   -3.2936   24.3291  -25.9841 H   0  0  0  0  0  0  0  0  0  0  0  0
   -1.8378   25.1652  -24.0105 H   0  0  0  0  0  0  0  0  0  0  0  0
   -0.2605   24.5534  -23.3983 H   0  0  0  0  0  0  0  0  0  0  0  0
   -1.4448   27.0725  -22.8459 H   0  0  0  0  0  0  0  0  0  0  0  0
    0.2574   26.5458  -22.4880 H   0  0  0  0  0  0  0  0  0  0  0  0
   -1.8618   28.0059  -24.9668 H   0  0  0  0  0  0  0  0  0  0  0  0
   -0.4587   28.5897  -25.9475 H   0  0  0  0  0  0  0  0  0  0  0  0
   -1.8808   26.1897  -26.3384 H   0  0  0  0  0  0  0  0  0  0  0  0
   -0.2727   26.6191  -27.0360 H   0  0  0  0  0  0  0  0  0  0  0  0
   -0.2973   23.5574  -29.0090 H   0  0  0  0  0  0  0  0  0  0  0  0
   -2.0442   23.6991  -30.7806 H   0  0  0  0  0  0  0  0  0  0  0  0
   -5.7530   22.4270  -29.9030 H   0  0  0  0  0  0  0  0  0  0  0  0
   -7.3894   23.9112  -30.6744 H   0  0  0  0  0  0  0  0  0  0  0  0
   -6.5247   24.0311  -32.2636 H   0  0  0  0  0  0  0  0  0  0  0  0
   -8.5916   22.2016  -31.5498 H   0  0  0  0  0  0  0  0  0  0  0  0
   -7.5812   22.2165  -33.0498 H   0  0  0  0  0  0  0  0  0  0  0  0
   -6.4171   19.7656  -34.6630 H   0  0  0  0  0  0  0  0  0  0  0  0
   -4.9509   18.1304  -35.8544 H   0  0  0  0  0  0  0  0  0  0  0  0
   -4.5092   15.8850  -34.8485 H   0  0  0  0  0  0  0  0  0  0  0  0
   -5.5240   15.2731  -32.6476 H   0  0  0  0  0  0  0  0  0  0  0  0
   -6.9892   16.9058  -31.4518 H   0  0  0  0  0  0  0  0  0  0  0  0
   -5.0709   19.9284  -31.6427 H   0  0  0  0  0  0  0  0  0  0  0  0
   -5.5987   20.7687  -33.1580 H   0  0  0  0  0  0  0  0  0  0  0  0
   -3.8225   21.7489  -31.1489 H   0  0  0  0  0  0  0  0  0  0  0  0
   -4.4970   22.6289  -32.5816 H   0  0  0  0  0  0  0  0  0  0  0  0
  1  2  2  0
  2  3  1  0
  3  4  2  0
  4  5  1  0
  5  6  2  0
  6  7  1  0
  7  8  2  0
  7  9  2  0
  7 10  1  0
 10 11  1  0
 11 12  1  0
 12 13  1  0
 13 14  1  0
 14 15  1  0
  6 16  1  0
 16 17  2  0
  2 18  1  0
 18 19  1  0
 19 20  1  0
 20 21  1  0
 21 22  1  0
 22 23  2  0
 22 24  2  0
 22 25  1  0
 25 26  2  0
 26 27  1  0
 27 28  2  0
 28 29  1  0
 29 30  2  0
 21 31  1  0
 31 32  1  0
 17  3  1  0
 32 18  1  0
 15 10  1  0
 30 25  1  0
  4 33  1  0
  5 34  1  0
 11 35  1  0
 11 36  1  0
 12 37  1  0
 12 38  1  0
 14 39  1  0
 14 40  1  0
 15 41  1  0
 15 42  1  0
 16 43  1  0
 17 44  1  0
 18 45  1  0
 19 46  1  0
 19 47  1  0
 20 48  1  0
 20 49  1  0
 26 50  1  0
 27 51  1  0
 28 52  1  0
 29 53  1  0
 30 54  1  0
 31 55  1  0
 31 56  1  0
 32 57  1  0
 32 58  1  0
M  CHG  1  18   1
M  END
>  <UniqueID>  (21) 
21

>  <SMILES>  (21) 
O=C(c1ccc(S(=O)(=O)N2CCOCC2)cc1)[NH+]1CCN(S(=O)(=O)c2ccccc2)CC1

>  <Energy>  (21) 
80.05915944249112

>  <Genealogy>  (21) 
O=C(c1ccc(S(=O)(=O)N2CCOCC2)cc1)[NH+]1CCN(S(=O)(=O)c2ccccc2)CC1 (protonated)
O=C(c1ccc(S(=O)(=O)N2CCOCC2)cc1)[NH+]1CCN(S(=O)(=O)c2ccccc2)CC1 (3D coordinates assigned)
O=C(c1ccc(S(=O)(=O)N2CCOCC2)cc1)[NH+]1CCN(S(=O)(=O)c2ccccc2)CC1 (nonaromatic ring conformer: 80.05915944249112 kcal/mol)

>  <smiles>  (21) 
O=C(c1ccc(S(=O)(=O)N2CCOCC2)cc1)N1CCN(S(=O)(=O)c2ccccc2)CC1

>  <score_type>  (21) 
oracle

>  <origin>  (21) 
adgpu

>  <m_score__min__energy>  (21) 
-10.02

>  <m_primary>  (21) 
energy

$$$$
21:0
     RDKit          3D

 41 43  0  0  0  0  0  0  0  0999 V2000
   -1.9510   23.2990  -29.7200 O   0  0  0  0  0  0  0  0  0  0  0  0
   -2.9470   22.2990  -30.2400 S   0  0  0  0  0  0  0  0  0  0  0  0
   -3.1270   21.2360  -29.1920 O   0  0  0  0  0  0  0  0  0  0  0  0
   -2.3560   21.5710  -31.7290 C   0  0  0  0  0  0  0  0  0  0  0  0
   -3.2560   21.0180  -32.6510 C   0  0  0  0  0  0  0  0  0  0  0  0
   -2.7800   20.4080  -33.8160 C   0  0  0  0  0  0  0  0  0  0  0  0
   -1.4050   20.3400  -34.0590 C   0  0  0  0  0  0  0  0  0  0  0  0
   -0.5040   20.8830  -33.1390 C   0  0  0  0  0  0  0  0  0  0  0  0
   -0.9780   21.4960  -31.9750 C   0  0  0  0  0  0  0  0  0  0  0  0
   -4.4910   23.0820  -30.5750 C   0  0  0  0  0  0  0  0  0  0  0  0
   -5.6180   22.2910  -30.8310 C   0  0  0  0  0  0  0  0  0  0  0  0
   -6.8400   22.8830  -31.1750 C   0  0  0  0  0  0  0  0  0  0  0  0
   -8.2350   21.8770  -31.5630 S   0  0  0  0  0  0  0  0  0  0  0  0
   -8.7020   21.1790  -30.3160 O   0  0  0  0  0  0  0  0  0  0  0  0
   -9.3530   22.7610  -32.0400 O   0  0  0  0  0  0  0  0  0  0  0  0
   -7.8770   20.6870  -32.8000 N   0  0  0  0  0  0  0  0  0  0  0  0
   -8.9870   19.7380  -33.0130 C   0  0  0  0  0  0  0  0  0  0  0  0
   -8.9940   18.5720  -31.9970 C   0  0  0  0  0  0  0  0  0  0  0  0
   -7.8380   18.5310  -31.1850 O   0  0  0  0  0  0  0  0  0  0  0  0
   -6.6890   18.6230  -31.9930 C   0  0  0  0  0  0  0  0  0  0  0  0
   -6.5680   20.0310  -32.6010 C   0  0  0  0  0  0  0  0  0  0  0  0
   -6.9400   24.2790  -31.2360 C   0  0  0  0  0  0  0  0  0  0  0  0
   -5.8200   25.0740  -30.9810 C   0  0  0  0  0  0  0  0  0  0  0  0
   -4.5920   24.4830  -30.6640 C   0  0  0  0  0  0  0  0  0  0  0  0
   -3.4840   25.2930  -30.4490 O   0  0  0  0  0  0  0  0  0  0  0  0
   -4.3379   21.0640  -32.4578 H   0  0  0  0  0  0  0  0  0  0  0  0
   -3.4881   19.9814  -34.5417 H   0  0  0  0  0  0  0  0  0  0  0  0
   -1.0320   19.8587  -34.9751 H   0  0  0  0  0  0  0  0  0  0  0  0
    0.5778   20.8282  -33.3305 H   0  0  0  0  0  0  0  0  0  0  0  0
   -0.2676   21.9205  -31.2504 H   0  0  0  0  0  0  0  0  0  0  0  0
   -5.5429   21.1958  -30.7614 H   0  0  0  0  0  0  0  0  0  0  0  0
   -9.9370   20.2853  -32.9239 H   0  0  0  0  0  0  0  0  0  0  0  0
   -8.8554   19.2997  -34.0133 H   0  0  0  0  0  0  0  0  0  0  0  0
   -9.8741   18.6813  -31.3462 H   0  0  0  0  0  0  0  0  0  0  0  0
   -9.0194   17.6364  -32.5750 H   0  0  0  0  0  0  0  0  0  0  0  0
   -5.7988   18.4154  -31.3811 H   0  0  0  0  0  0  0  0  0  0  0  0
   -6.7685   17.8893  -32.8087 H   0  0  0  0  0  0  0  0  0  0  0  0
   -5.9626   20.6537  -31.9260 H   0  0  0  0  0  0  0  0  0  0  0  0
   -6.0993   19.9237  -33.5904 H   0  0  0  0  0  0  0  0  0  0  0  0
   -7.9023   24.7500  -31.4852 H   0  0  0  0  0  0  0  0  0  0  0  0
   -5.9039   26.1697  -31.0296 H   0  0  0  0  0  0  0  0  0  0  0  0
  1  2  2  0
  2  3  2  0
  2  4  1  0
  4  5  2  0
  5  6  1  0
  6  7  2  0
  7  8  1  0
  8  9  2  0
  2 10  1  0
 10 11  2  0
 11 12  1  0
 12 13  1  0
 13 14  2  0
 13 15  2  0
 13 16  1  0
 16 17  1  0
 17 18  1  0
 18 19  1  0
 19 20  1  0
 20 21  1  0
 12 22  2  0
 22 23  1  0
 23 24  2  0
 24 25  1  0
  9  4  1  0
 24 10  1  0
 21 16  1  0
  5 26  1  0
  6 27  1  0
  7 28  1  0
  8 29  1  0
  9 30  1  0
 11 31  1  0
 17 32  1  0
 17 33  1  0
 18 34  1  0
 18 35  1  0
 20 36  1  0
 20 37  1  0
 21 38  1  0
 21 39  1  0
 22 40  1  0
 23 41  1  0
M  CHG  1  25  -1
M  END
>  <UniqueID>  (22) 
22

>  <SMILES>  (22) 
O=S(=O)(c1ccccc1)c1cc(S(=O)(=O)N2CCOCC2)ccc1[O-]

>  <Energy>  (22) 
54.660667449698096

>  <Genealogy>  (22) 
O=S(=O)(c1ccccc1)c1cc(S(=O)(=O)N2CCOCC2)ccc1[O-] (protonated)
O=S(=O)(c1ccccc1)c1cc(S(=O)(=O)N2CCOCC2)ccc1[O-] (3D coordinates assigned)
O=S(=O)(c1ccccc1)c1cc(S(=O)(=O)N2CCOCC2)ccc1[O-] (nonaromatic ring conformer: 54.660667449698096 kcal/mol)

>  <smiles>  (22) 
O=S(=O)(c1ccccc1)c1cc(S(=O)(=O)N2CCOCC2)ccc1O

>  <score_type>  (22) 
oracle

>  <origin>  (22) 
adgpu

>  <m_score__min__energy>  (22) 
-11.82

>  <m_primary>  (22) 
energy

$$$$
22:0
     RDKit          3D

 36 38  0  0  0  0  0  0  0  0999 V2000
   -2.6570   19.2370  -26.4840 C   0  0  0  0  0  0  0  0  0  0  0  0
   -2.1040   20.5450  -26.8080 N   0  0  0  0  0  0  0  0  0  0  0  0
   -2.4050   21.2760  -27.8960 C   0  0  0  0  0  0  0  0  0  0  0  0
   -1.6870   22.4470  -27.8210 C   0  0  0  0  0  0  0  0  0  0  0  0
   -1.6600   23.7560  -28.9870 S   0  0  0  0  0  0  0  0  0  0  0  0
   -2.4340   24.9350  -28.4700 O   0  0  0  0  0  0  0  0  0  0  0  0
   -0.2340   24.1740  -29.2150 O   0  0  0  0  0  0  0  0  0  0  0  0
   -2.3460   23.2220  -30.4860 N   0  0  0  0  0  0  0  0  0  0  0  0
   -3.7480   23.1810  -30.7950 C   0  0  0  0  0  0  0  0  0  0  0  0
   -4.3980   21.9740  -31.1070 C   0  0  0  0  0  0  0  0  0  0  0  0
   -5.7620   21.9560  -31.4270 C   0  0  0  0  0  0  0  0  0  0  0  0
   -6.5020   23.1530  -31.3930 C   0  0  0  0  0  0  0  0  0  0  0  0
   -5.8530   24.3580  -31.0880 C   0  0  0  0  0  0  0  0  0  0  0  0
   -4.4890   24.3780  -30.7870 C   0  0  0  0  0  0  0  0  0  0  0  0
   -3.8870   25.6010  -30.4860 O   0  0  0  0  0  0  0  0  0  0  0  0
   -7.9620   23.1720  -31.7820 C   0  0  0  0  0  0  0  0  0  0  0  0
   -8.5910   21.8500  -31.6570 N   0  0  0  0  0  0  0  0  0  0  0  0
   -7.8090   20.8330  -32.3700 C   0  0  0  0  0  0  0  0  0  0  0  0
   -6.4360   20.6380  -31.7140 C   0  0  0  0  0  0  0  0  0  0  0  0
   -0.9630   22.3670  -26.6490 C   0  0  0  0  0  0  0  0  0  0  0  0
   -1.2380   21.1950  -26.0440 N   0  0  0  0  0  0  0  0  0  0  0  0
   -2.7064   19.1202  -25.3913 H   0  0  0  0  0  0  0  0  0  0  0  0
   -3.6684   19.1512  -26.9080 H   0  0  0  0  0  0  0  0  0  0  0  0
   -2.0139   18.4517  -26.9080 H   0  0  0  0  0  0  0  0  0  0  0  0
   -3.0992   20.9896  -28.6998 H   0  0  0  0  0  0  0  0  0  0  0  0
   -3.8290   21.0326  -31.0998 H   0  0  0  0  0  0  0  0  0  0  0  0
   -6.4243   25.2980  -31.0857 H   0  0  0  0  0  0  0  0  0  0  0  0
   -3.0910   25.6780  -29.8640 H   0  0  0  0  0  0  0  0  0  0  0  0
   -8.4929   23.8793  -31.1279 H   0  0  0  0  0  0  0  0  0  0  0  0
   -8.0245   23.4753  -32.8375 H   0  0  0  0  0  0  0  0  0  0  0  0
   -8.6450   21.5940  -30.6440 H   0  0  0  0  0  0  0  0  0  0  0  0
   -8.3562   19.8789  -32.3504 H   0  0  0  0  0  0  0  0  0  0  0  0
   -7.6585   21.1687  -33.4067 H   0  0  0  0  0  0  0  0  0  0  0  0
   -6.5672   20.0915  -30.7684 H   0  0  0  0  0  0  0  0  0  0  0  0
   -5.8003   20.0728  -32.4114 H   0  0  0  0  0  0  0  0  0  0  0  0
   -0.2732   23.1355  -26.2701 H   0  0  0  0  0  0  0  0  0  0  0  0
  1  2  1  0
  2  3  1  0
  3  4  2  0
  4  5  1  0
  5  6  2  0
  5  7  2  0
  5  8  1  0
  8  9  1  0
  9 10  2  0
 10 11  1  0
 11 12  2  0
 12 13  1  0
 13 14  2  0
 14 15  1  0
 12 16  1  0
 16 17  1  0
 17 18  1  0
 18 19  1  0
  4 20  1  0
 20 21  2  0
 21  2  1  0
 14  9  1  0
 19 11  1  0
  1 22  1  0
  1 23  1  0
  1 24  1  0
  3 25  1  0
 10 26  1  0
 13 27  1  0
 15 28  1  0
 16 29  1  0
 16 30  1  0
 17 31  1  0
 18 32  1  0
 18 33  1  0
 19 34  1  0
 19 35  1  0
 20 36  1  0
M  CHG  1   8  -1
M  END
>  <UniqueID>  (23) 
23

>  <SMILES>  (23) 
Cn1cc(S(=O)(=O)[N-]c2cc3c(cc2O)CNCC3)cn1

>  <Energy>  (23) 
71.6441423409535

>  <Genealogy>  (23) 
Cn1cc(S(=O)(=O)[N-]c2cc3c(cc2O)CNCC3)cn1 (protonated)
Cn1cc(S(=O)(=O)[N-]c2cc3c(cc2O)CNCC3)cn1 (3D coordinates assigned)
Cn1cc(S(=O)(=O)[N-]c2cc3c(cc2O)CNCC3)cn1 (nonaromatic ring conformer: 71.6441423409535 kcal/mol)

>  <smiles>  (23) 
Cn1cc(S(=O)(=O)Nc2cc3c(cc2O)CNCC3)cn1

>  <score_type>  (23) 
oracle

>  <origin>  (23) 
adgpu

>  <m_score__min__energy>  (23) 
-9.6699999999999999

>  <m_primary>  (23) 
energy

$$$$
23:0
     RDKit          3D

 59 62  0  0  0  0  0  0  0  0999 V2000
   -9.1780   21.5540  -30.4840 C   0  0  0  0  0  0  0  0  0  0  0  0
   -9.4770   21.2950  -31.9600 C   0  0  0  0  0  0  0  0  0  0  0  0
   -8.9280   19.9450  -32.4570 C   0  0  0  0  0  0  0  0  0  0  0  0
   -8.7580   18.8970  -31.3490 C   0  0  0  0  0  0  0  0  0  0  0  0
   -7.4050   18.3590  -31.3680 N   0  0  0  0  0  0  0  0  0  0  0  0
   -6.8970   17.5300  -32.4130 C   0  0  0  0  0  0  0  0  0  0  0  0
   -7.6040   17.2740  -33.4260 O   0  0  0  0  0  0  0  0  0  0  0  0
   -5.6390   16.9500  -32.2420 O   0  0  0  0  0  0  0  0  0  0  0  0
   -4.7860   16.4430  -33.2350 C   0  0  0  0  0  0  0  0  0  0  0  0
   -4.2540   15.1440  -33.1710 C   0  0  0  0  0  0  0  0  0  0  0  0
   -3.4010   14.6860  -34.1730 C   0  0  0  0  0  0  0  0  0  0  0  0
   -3.0860   15.5240  -35.2490 C   0  0  0  0  0  0  0  0  0  0  0  0
   -2.1610   15.0520  -36.3320 C   0  0  0  0  0  0  0  0  0  0  0  0
   -1.0860   15.9150  -36.4620 F   0  0  0  0  0  0  0  0  0  0  0  0
   -2.8400   14.9990  -37.5350 F   0  0  0  0  0  0  0  0  0  0  0  0
   -1.6870   13.7920  -36.0200 F   0  0  0  0  0  0  0  0  0  0  0  0
   -3.6270   16.7710  -35.3070 N   0  0  0  0  0  0  0  0  0  0  0  0
   -4.4740   17.2500  -34.3570 C   0  0  0  0  0  0  0  0  0  0  0  0
   -4.9660   18.5590  -34.5090 O   0  0  0  0  0  0  0  0  0  0  0  0
   -4.5830   19.6580  -33.7300 C   0  0  0  0  0  0  0  0  0  0  0  0
   -3.2260   19.8650  -33.4650 C   0  0  0  0  0  0  0  0  0  0  0  0
   -2.8270   20.8760  -32.5860 C   0  0  0  0  0  0  0  0  0  0  0  0
   -3.7830   21.6940  -31.9770 C   0  0  0  0  0  0  0  0  0  0  0  0
   -5.1460   21.5310  -32.2840 C   0  0  0  0  0  0  0  0  0  0  0  0
   -5.5380   20.5360  -33.1900 C   0  0  0  0  0  0  0  0  0  0  0  0
   -6.1700   22.4320  -31.6470 C   0  0  0  0  0  0  0  0  0  0  0  0
   -5.6800   22.9410  -30.2860 C   0  0  0  0  0  0  0  0  0  0  0  0
   -4.2810   23.5750  -30.4300 C   0  0  1  0  0  0  0  0  0  0  0  0
   -3.6720   24.0830  -29.1330 C   0  0  0  0  0  0  0  0  0  0  0  0
   -4.3800   24.1410  -27.9130 C   0  0  0  0  0  0  0  0  0  0  0  0
   -3.7490   24.5930  -26.7500 C   0  0  0  0  0  0  0  0  0  0  0  0
   -2.4130   24.9970  -26.7860 C   0  0  0  0  0  0  0  0  0  0  0  0
   -1.7040   24.9530  -27.9860 C   0  0  0  0  0  0  0  0  0  0  0  0
   -2.3280   24.5000  -29.1530 C   0  0  0  0  0  0  0  0  0  0  0  0
   -3.3780   22.6390  -31.0270 O   0  0  0  0  0  0  0  0  0  0  0  0
   -9.8634   20.9603  -29.8614 H   0  0  0  0  0  0  0  0  0  0  0  0
   -8.1396   21.2652  -30.2641 H   0  0  0  0  0  0  0  0  0  0  0  0
   -9.3157   22.6230  -30.2641 H   0  0  0  0  0  0  0  0  0  0  0  0
  -10.5675   21.3042  -32.1036 H   0  0  0  0  0  0  0  0  0  0  0  0
   -8.9798   22.0862  -32.5403 H   0  0  0  0  0  0  0  0  0  0  0  0
   -9.6234   19.5441  -33.2092 H   0  0  0  0  0  0  0  0  0  0  0  0
   -7.9267   20.1396  -32.8688 H   0  0  0  0  0  0  0  0  0  0  0  0
   -8.9485   19.3665  -30.3726 H   0  0  0  0  0  0  0  0  0  0  0  0
   -9.4722   18.0776  -31.5178 H   0  0  0  0  0  0  0  0  0  0  0  0
   -4.5117   14.4868  -32.3274 H   0  0  0  0  0  0  0  0  0  0  0  0
   -2.9777   13.6721  -34.1188 H   0  0  0  0  0  0  0  0  0  0  0  0
   -2.4697   19.2302  -33.9498 H   0  0  0  0  0  0  0  0  0  0  0  0
   -1.7586   21.0282  -32.3731 H   0  0  0  0  0  0  0  0  0  0  0  0
   -6.5952   20.4423  -33.4789 H   0  0  0  0  0  0  0  0  0  0  0  0
   -6.3542   23.2917  -32.3080 H   0  0  0  0  0  0  0  0  0  0  0  0
   -7.0965   21.8588  -31.4950 H   0  0  0  0  0  0  0  0  0  0  0  0
   -6.3839   23.6954  -29.9047 H   0  0  0  0  0  0  0  0  0  0  0  0
   -5.6218   22.0954  -29.5848 H   0  0  0  0  0  0  0  0  0  0  0  0
   -4.4316   24.4575  -31.0691 H   0  0  0  0  0  0  0  0  0  0  0  0
   -5.4342   23.8288  -27.8771 H   0  0  0  0  0  0  0  0  0  0  0  0
   -4.3073   24.6305  -25.8030 H   0  0  0  0  0  0  0  0  0  0  0  0
   -1.9199   25.3498  -25.8682 H   0  0  0  0  0  0  0  0  0  0  0  0
   -0.6526   25.2750  -28.0149 H   0  0  0  0  0  0  0  0  0  0  0  0
   -1.7625   24.4694  -30.0960 H   0  0  0  0  0  0  0  0  0  0  0  0
  1  2  1  0
  2  3  1  0
  3  4  1  0
  4  5  1  0
  5  6  1  0
  6  7  2  0
  6  8  1  0
  8  9  1  0
  9 10  2  0
 10 11  1  0
 11 12  2  0
 12 13  1  0
 13 14  1  0
 13 15  1  0
 13 16  1  0
 12 17  1  0
 17 18  2  0
 18 19  1  0
 19 20  1  0
 20 21  2  0
 21 22  1  0
 22 23  2  0
 23 24  1  0
 24 25  2  0
 24 26  1  0
 26 27  1  0
 27 28  1  0
 28 29  1  0
 29 30  2  0
 30 31  1  0
 31 32  2  0
 32 33  1  0
 33 34  2  0
 28 35  1  0
 18  9  1  0
 25 20  1  0
 34 29  1  0
 35 23  1  0
  1 36  1  0
  1 37  1  0
  1 38  1  0
  2 39  1  0
  2 40  1  0
  3 41  1  0
  3 42  1  0
  4 43  1  0
  4 44  1  0
 10 45  1  0
 11 46  1  0
 21 47  1  0
 22 48  1  0
 25 49  1  0
 26 50  1  0
 26 51  1  0
 27 52  1  0
 27 53  1  0
 28 54  1  6
 30 55  1  0
 31 56  1  0
 32 57  1  0
 33 58  1  0
 34 59  1  0
M  CHG  1   5  -1
M  END
>  <UniqueID>  (24) 
24

>  <SMILES>  (24) 
CCCC[N-]C(=O)Oc1ccc(C(F)(F)F)nc1Oc1ccc2c(c1)CC[C@@H](c1ccccc1)O2

>  <Energy>  (24) 
66.89951817723747

>  <Genealogy>  (24) 
CCCC[N-]C(=O)Oc1ccc(C(F)(F)F)nc1Oc1ccc2c(c1)CCC(c1ccccc1)O2 (protonated)
CCCC[N-]C(=O)Oc1ccc(C(F)(F)F)nc1Oc1ccc2c(c1)CC[C@@H](c1ccccc1)O2 (chirality)
CCCC[N-]C(=O)Oc1ccc(C(F)(F)F)nc1Oc1ccc2c(c1)CC[C@@H](c1ccccc1)O2 (3D coordinates assigned)
CCCC[N-]C(=O)Oc1ccc(C(F)(F)F)nc1Oc1ccc2c(c1)CC[C@@H](c1ccccc1)O2 (nonaromatic ring conformer: 66.89951817723747 kcal/mol)

>  <smiles>  (24) 
CCCCNC(=O)Oc1ccc(C(F)(F)F)nc1Oc1ccc2c(c1)CCC(c1ccccc1)O2

>  <score_type>  (24) 
oracle

>  <origin>  (24) 
adgpu

>  <m_score__min__energy>  (24) 
-10.67

>  <m_primary>  (24) 
energy

$$$$
24:0
     RDKit          3D

 45 48  0  0  0  0  0  0  0  0999 V2000
   -5.3310   17.6850  -34.9550 C   0  0  0  0  0  0  0  0  0  0  0  0
   -6.2260   18.2060  -33.8760 C   0  0  0  0  0  0  0  0  0  0  0  0
   -6.1190   19.5360  -33.4480 C   0  0  0  0  0  0  0  0  0  0  0  0
   -6.9720   20.0180  -32.4390 C   0  0  0  0  0  0  0  0  0  0  0  0
   -6.8860   21.4240  -31.9650 C   0  0  0  0  0  0  0  0  0  0  0  0
   -7.9390   22.3350  -31.8450 C   0  0  0  0  0  0  0  0  0  0  0  0
   -7.5490   23.5870  -31.3550 C   0  0  0  0  0  0  0  0  0  0  0  0
   -6.1910   23.6690  -31.0930 C   0  0  0  0  0  0  0  0  0  0  0  0
   -5.3570   25.0490  -30.4040 S   0  0  0  0  0  0  0  0  0  0  0  0
   -5.7450   25.2260  -28.9630 O   0  0  0  0  0  0  0  0  0  0  0  0
   -5.7410   26.2810  -31.1730 O   0  0  0  0  0  0  0  0  0  0  0  0
   -3.6400   24.8140  -30.5100 N   0  0  0  0  0  0  0  0  0  0  0  0
   -2.8740   24.1190  -29.5080 C   0  0  0  0  0  0  0  0  0  0  0  0
   -3.2360   22.8290  -29.0780 C   0  0  0  0  0  0  0  0  0  0  0  0
   -2.4630   22.1430  -28.1310 C   0  0  0  0  0  0  0  0  0  0  0  0
   -1.3410   22.7740  -27.5590 C   0  0  0  0  0  0  0  0  0  0  0  0
   -0.9820   24.0610  -27.9810 C   0  0  0  0  0  0  0  0  0  0  0  0
   -1.7420   24.7310  -28.9430 C   0  0  0  0  0  0  0  0  0  0  0  0
   -1.3550   26.0060  -29.3440 O   0  0  0  0  0  0  0  0  0  0  0  0
   -0.4600   22.0400  -26.5740 C   0  0  0  0  0  0  0  0  0  0  0  0
   -1.1590   20.9230  -25.9230 N   0  0  0  0  0  0  0  0  0  0  0  0
   -1.7810   20.0450  -26.9210 C   0  0  0  0  0  0  0  0  0  0  0  0
   -2.9000   20.7760  -27.6720 C   0  0  0  0  0  0  0  0  0  0  0  0
   -5.4720   22.1990  -31.4580 S   0  0  0  0  0  0  0  0  0  0  0  0
   -7.9230   19.1410  -31.8880 C   0  0  0  0  0  0  0  0  0  0  0  0
   -7.9990   17.8230  -32.3440 C   0  0  0  0  0  0  0  0  0  0  0  0
   -7.1580   17.3890  -33.3180 N   0  0  0  0  0  0  0  0  0  0  0  0
   -4.4649   17.1808  -34.5014 H   0  0  0  0  0  0  0  0  0  0  0  0
   -5.8867   16.9693  -35.5786 H   0  0  0  0  0  0  0  0  0  0  0  0
   -4.9830   18.5217  -35.5786 H   0  0  0  0  0  0  0  0  0  0  0  0
   -5.3693   20.2018  -33.9003 H   0  0  0  0  0  0  0  0  0  0  0  0
   -8.9781   22.0909  -32.1110 H   0  0  0  0  0  0  0  0  0  0  0  0
   -8.2490   24.4202  -31.1945 H   0  0  0  0  0  0  0  0  0  0  0  0
   -3.1830   25.0900  -31.4070 H   0  0  0  0  0  0  0  0  0  0  0  0
   -4.1376   22.3526  -29.4905 H   0  0  0  0  0  0  0  0  0  0  0  0
   -0.0942   24.5480  -27.5512 H   0  0  0  0  0  0  0  0  0  0  0  0
    0.4159   21.6449  -27.1094 H   0  0  0  0  0  0  0  0  0  0  0  0
   -0.1648   22.7537  -25.7907 H   0  0  0  0  0  0  0  0  0  0  0  0
   -1.9030   21.3090  -25.2940 H   0  0  0  0  0  0  0  0  0  0  0  0
   -1.0160   19.7205  -27.6417 H   0  0  0  0  0  0  0  0  0  0  0  0
   -2.2145   19.1766  -26.4033 H   0  0  0  0  0  0  0  0  0  0  0  0
   -3.1879   20.1801  -28.5507 H   0  0  0  0  0  0  0  0  0  0  0  0
   -3.7496   20.9007  -26.9845 H   0  0  0  0  0  0  0  0  0  0  0  0
   -8.6054   19.4920  -31.0999 H   0  0  0  0  0  0  0  0  0  0  0  0
   -8.7415   17.1351  -31.9133 H   0  0  0  0  0  0  0  0  0  0  0  0
  1  2  1  0
  2  3  2  0
  3  4  1  0
  4  5  1  0
  5  6  2  0
  6  7  1  0
  7  8  2  0
  8  9  1  0
  9 10  2  0
  9 11  2  0
  9 12  1  0
 12 13  1  0
 13 14  2  0
 14 15  1  0
 15 16  2  0
 16 17  1  0
 17 18  2  0
 18 19  1  0
 16 20  1  0
 20 21  1  0
 21 22  1  0
 22 23  1  0
  8 24  1  0
  4 25  2  0
 25 26  1  0
 26 27  2  0
 27  2  1  0
 24  5  1  0
 18 13  1  0
 23 15  1  0
  1 28  1  0
  1 29  1  0
  1 30  1  0
  3 31  1  0
  6 32  1  0
  7 33  1  0
 12 34  1  0
 14 35  1  0
 17 36  1  0
 20 37  1  0
 20 38  1  0
 21 39  1  0
 22 40  1  0
 22 41  1  0
 23 42  1  0
 23 43  1  0
 25 44  1  0
 26 45  1  0
M  CHG  1  19  -1
M  END
>  <UniqueID>  (25) 
25

>  <SMILES>  (25) 
Cc1cc(-c2ccc(S(=O)(=O)Nc3cc4c(cc3[O-])CNCC4)s2)ccn1

>  <Energy>  (25) 
81.42764808639836

>  <Genealogy>  (25) 
Cc1cc(-c2ccc(S(=O)(=O)Nc3cc4c(cc3[O-])CNCC4)s2)ccn1 (protonated)
Cc1cc(-c2ccc(S(=O)(=O)Nc3cc4c(cc3[O-])CNCC4)s2)ccn1 (3D coordinates assigned)
Cc1cc(-c2ccc(S(=O)(=O)Nc3cc4c(cc3[O-])CNCC4)s2)ccn1 (nonaromatic ring conformer: 81.42764808639836 kcal/mol)

>  <smiles>  (25) 
Cc1cc(-c2ccc(S(=O)(=O)Nc3cc4c(cc3O)CNCC4)s2)ccn1

>  <score_type>  (25) 
oracle

>  <origin>  (25) 
adgpu

>  <m_score__min__energy>  (25) 
-13.94

>  <m_primary>  (25) 
energy

$$$$
25:0
     RDKit          3D

 47 49  0  0  0  0  0  0  0  0999 V2000
   -0.8790   21.1160  -33.1400 C   0  0  0  0  0  0  0  0  0  0  0  0
   -1.3390   21.4700  -31.7370 C   0  0  0  0  0  0  0  0  0  0  0  0
   -3.1470   21.2480  -31.5270 S   0  0  0  0  0  0  0  0  0  0  0  0
   -3.2710   21.8990  -29.8460 C   0  0  0  0  0  0  0  0  0  0  0  0
   -2.6840   21.1810  -28.7940 C   0  0  0  0  0  0  0  0  0  0  0  0
   -2.7060   21.7010  -27.5010 C   0  0  0  0  0  0  0  0  0  0  0  0
   -3.2450   22.9260  -27.2700 N   0  0  0  0  0  0  0  0  0  0  0  0
   -3.7750   23.6710  -28.2730 C   0  0  0  0  0  0  0  0  0  0  0  0
   -3.8180   23.1750  -29.5850 C   0  0  0  0  0  0  0  0  0  0  0  0
   -4.2380   24.0860  -30.6710 C   0  0  0  0  0  0  0  0  0  0  0  0
   -3.8750   25.2900  -30.6140 O   0  0  0  0  0  0  0  0  0  0  0  0
   -4.9970   23.6510  -31.8070 N   0  0  0  0  0  0  0  0  0  0  0  0
   -6.2340   22.9240  -31.8180 C   0  0  0  0  0  0  0  0  0  0  0  0
   -7.4270   23.6280  -31.6160 C   0  0  0  0  0  0  0  0  0  0  0  0
   -8.6550   22.9630  -31.6570 C   0  0  0  0  0  0  0  0  0  0  0  0
   -8.6990   21.5870  -31.8930 C   0  0  0  0  0  0  0  0  0  0  0  0
   -7.5100   20.8640  -32.0600 C   0  0  0  0  0  0  0  0  0  0  0  0
   -7.5600   19.1300  -32.3950 S   0  0  0  0  0  0  0  0  0  0  0  0
   -8.9790   18.7250  -32.6850 O   0  0  0  0  0  0  0  0  0  0  0  0
   -7.1010   18.3810  -31.1740 O   0  0  0  0  0  0  0  0  0  0  0  0
   -6.5530   18.6870  -33.7550 N   0  0  0  0  0  0  0  0  0  0  0  0
   -6.4750   17.2360  -33.9460 C   0  0  0  0  0  0  0  0  0  0  0  0
   -5.1380   16.9510  -34.6200 C   0  0  0  0  0  0  0  0  0  0  0  0
   -4.3140   18.2190  -34.4490 C   0  0  0  0  0  0  0  0  0  0  0  0
   -5.1710   19.1440  -33.5990 C   0  0  0  0  0  0  0  0  0  0  0  0
   -6.2800   21.5290  -31.9800 C   0  0  0  0  0  0  0  0  0  0  0  0
   -0.0085   20.4461  -33.0823 H   0  0  0  0  0  0  0  0  0  0  0  0
   -1.6954   20.6110  -33.6771 H   0  0  0  0  0  0  0  0  0  0  0  0
   -0.5999   22.0345  -33.6771 H   0  0  0  0  0  0  0  0  0  0  0  0
   -0.8163   20.8218  -31.0183 H   0  0  0  0  0  0  0  0  0  0  0  0
   -1.1054   22.5305  -31.5615 H   0  0  0  0  0  0  0  0  0  0  0  0
   -2.2071   20.2091  -28.9890 H   0  0  0  0  0  0  0  0  0  0  0  0
   -2.2866   21.1189  -26.6672 H   0  0  0  0  0  0  0  0  0  0  0  0
   -4.1744   24.6726  -28.0555 H   0  0  0  0  0  0  0  0  0  0  0  0
   -7.3974   24.7107  -31.4239 H   0  0  0  0  0  0  0  0  0  0  0  0
   -9.5887   23.5239  -31.5032 H   0  0  0  0  0  0  0  0  0  0  0  0
   -9.6684   21.0700  -31.9479 H   0  0  0  0  0  0  0  0  0  0  0  0
   -6.9600   19.1210  -34.6170 H   0  0  0  0  0  0  0  0  0  0  0  0
   -6.5260   16.7230  -32.9743 H   0  0  0  0  0  0  0  0  0  0  0  0
   -7.3119   16.8736  -34.5611 H   0  0  0  0  0  0  0  0  0  0  0  0
   -4.6376   16.0998  -34.1353 H   0  0  0  0  0  0  0  0  0  0  0  0
   -5.2650   16.6885  -35.6806 H   0  0  0  0  0  0  0  0  0  0  0  0
   -3.3653   17.9960  -33.9388 H   0  0  0  0  0  0  0  0  0  0  0  0
   -4.0561   18.6737  -35.4169 H   0  0  0  0  0  0  0  0  0  0  0  0
   -4.8666   19.0817  -32.5438 H   0  0  0  0  0  0  0  0  0  0  0  0
   -5.0597   20.1920  -33.9141 H   0  0  0  0  0  0  0  0  0  0  0  0
   -5.3436   20.9554  -32.0444 H   0  0  0  0  0  0  0  0  0  0  0  0
  1  2  1  0
  2  3  1  0
  3  4  1  0
  4  5  2  0
  5  6  1  0
  6  7  2  0
  7  8  1  0
  8  9  2  0
  9 10  1  0
 10 11  2  0
 10 12  1  0
 12 13  1  0
 13 14  2  0
 14 15  1  0
 15 16  2  0
 16 17  1  0
 17 18  1  0
 18 19  2  0
 18 20  2  0
 18 21  1  0
 21 22  1  0
 22 23  1  0
 23 24  1  0
 24 25  1  0
 17 26  2  0
  9  4  1  0
 26 13  1  0
 25 21  1  0
  1 27  1  0
  1 28  1  0
  1 29  1  0
  2 30  1  0
  2 31  1  0
  5 32  1  0
  6 33  1  0
  8 34  1  0
 14 35  1  0
 15 36  1  0
 16 37  1  0
 21 38  1  0
 22 39  1  0
 22 40  1  0
 23 41  1  0
 23 42  1  0
 24 43  1  0
 24 44  1  0
 25 45  1  0
 25 46  1  0
 26 47  1  0
M  CHG  2  12  -1  21   1
M  END
>  <UniqueID>  (26) 
26

>  <SMILES>  (26) 
CCSc1ccncc1C(=O)[N-]c1cccc(S(=O)(=O)[NH+]2CCCC2)c1

>  <Energy>  (26) 
52.980161468152716

>  <Genealogy>  (26) 
CCSc1ccncc1C(=O)[N-]c1cccc(S(=O)(=O)[NH+]2CCCC2)c1 (protonated)
CCSc1ccncc1C(=O)[N-]c1cccc(S(=O)(=O)[NH+]2CCCC2)c1 (3D coordinates assigned)
CCSc1ccncc1C(=O)[N-]c1cccc(S(=O)(=O)[NH+]2CCCC2)c1 (nonaromatic ring conformer: 52.980161468152716 kcal/mol)

>  <smiles>  (26) 
CCSc1ccncc1C(=O)Nc1cccc(S(=O)(=O)N2CCCC2)c1

>  <score_type>  (26) 
oracle

>  <origin>  (26) 
adgpu

>  <m_score__min__energy>  (26) 
-9.7400000000000002

>  <m_primary>  (26) 
energy

$$$$
26:0
     RDKit          3D

 49 52  0  0  0  0  0  0  0  0999 V2000
   -3.5620   25.2820  -30.4960 O   0  0  0  0  0  0  0  0  0  0  0  0
   -3.1730   24.1030  -30.2650 C   0  0  0  0  0  0  0  0  0  0  0  0
   -3.9520   23.0420  -30.7100 O   0  0  0  0  0  0  0  0  0  0  0  0
   -1.9070   23.8490  -29.5290 C   0  0  0  0  0  0  0  0  0  0  0  0
   -1.4110   22.5340  -29.4550 C   0  0  0  0  0  0  0  0  0  0  0  0
   -0.2170   22.2530  -28.7790 C   0  0  0  0  0  0  0  0  0  0  0  0
    0.4100   20.6060  -28.7800 S   0  0  0  0  0  0  0  0  0  0  0  0
   -0.5540   19.7230  -28.0390 O   0  0  0  0  0  0  0  0  0  0  0  0
    1.7560   20.5340  -28.1090 O   0  0  0  0  0  0  0  0  0  0  0  0
    0.5540   20.0580  -30.4220 N   0  0  0  0  0  0  0  0  0  0  0  0
   -0.5640   19.7560  -31.2700 C   0  0  0  0  0  0  0  0  0  0  0  0
   -1.4260   20.7580  -31.7460 C   0  0  0  0  0  0  0  0  0  0  0  0
   -2.5230   20.4240  -32.5410 C   0  0  0  0  0  0  0  0  0  0  0  0
   -2.7800   19.0830  -32.8660 C   0  0  0  0  0  0  0  0  0  0  0  0
   -3.9440   18.7570  -33.7110 C   0  0  0  0  0  0  0  0  0  0  0  0
   -3.7390   18.4860  -34.9270 O   0  0  0  0  0  0  0  0  0  0  0  0
   -5.2950   18.7680  -33.1940 N   0  0  0  0  0  0  0  0  0  0  0  0
   -6.2890   17.8810  -33.8360 C   0  0  0  0  0  0  0  0  0  0  0  0
   -7.6180   17.8200  -33.0700 C   0  0  0  0  0  0  0  0  0  0  0  0
   -8.0640   19.1980  -32.6810 C   0  0  0  0  0  0  0  0  0  0  0  0
   -9.4140   19.5730  -32.7440 C   0  0  0  0  0  0  0  0  0  0  0  0
   -9.8110   20.8410  -32.3100 C   0  0  0  0  0  0  0  0  0  0  0  0
   -8.8660   21.7300  -31.7920 C   0  0  0  0  0  0  0  0  0  0  0  0
   -7.5190   21.3590  -31.7200 C   0  0  0  0  0  0  0  0  0  0  0  0
   -7.1100   20.0960  -32.1790 C   0  0  0  0  0  0  0  0  0  0  0  0
   -5.6700   19.6610  -32.0760 C   0  0  0  0  0  0  0  0  0  0  0  0
   -1.9090   18.0810  -32.4090 C   0  0  0  0  0  0  0  0  0  0  0  0
   -2.1300   16.7420  -32.7370 O   0  0  0  0  0  0  0  0  0  0  0  0
   -0.8010   18.4210  -31.6240 C   0  0  0  0  0  0  0  0  0  0  0  0
    0.4890   23.2910  -28.1550 C   0  0  0  0  0  0  0  0  0  0  0  0
    0.0110   24.6020  -28.2200 C   0  0  0  0  0  0  0  0  0  0  0  0
   -1.1760   24.8880  -28.9070 C   0  0  0  0  0  0  0  0  0  0  0  0
   -1.6140   26.2050  -28.9570 O   0  0  0  0  0  0  0  0  0  0  0  0
   -1.9686   21.7160  -29.9345 H   0  0  0  0  0  0  0  0  0  0  0  0
   -1.2352   21.8108  -31.4908 H   0  0  0  0  0  0  0  0  0  0  0  0
   -3.1894   21.2153  -32.9147 H   0  0  0  0  0  0  0  0  0  0  0  0
   -6.4864   18.2526  -34.8523 H   0  0  0  0  0  0  0  0  0  0  0  0
   -5.8670   16.8652  -33.8464 H   0  0  0  0  0  0  0  0  0  0  0  0
   -8.3842   17.3589  -33.7106 H   0  0  0  0  0  0  0  0  0  0  0  0
   -7.4758   17.2215  -32.1581 H   0  0  0  0  0  0  0  0  0  0  0  0
  -10.1619   18.8678  -33.1357 H   0  0  0  0  0  0  0  0  0  0  0  0
  -10.8678   21.1390  -32.3763 H   0  0  0  0  0  0  0  0  0  0  0  0
   -9.1815   22.7233  -31.4402 H   0  0  0  0  0  0  0  0  0  0  0  0
   -6.7787   22.0577  -31.3031 H   0  0  0  0  0  0  0  0  0  0  0  0
   -5.0247   20.5515  -32.0973 H   0  0  0  0  0  0  0  0  0  0  0  0
   -5.5417   19.1086  -31.1335 H   0  0  0  0  0  0  0  0  0  0  0  0
   -0.1116   17.6348  -31.2826 H   0  0  0  0  0  0  0  0  0  0  0  0
    1.4211   23.0727  -27.6132 H   0  0  0  0  0  0  0  0  0  0  0  0
    0.5690   25.4133  -27.7297 H   0  0  0  0  0  0  0  0  0  0  0  0
  1  2  2  0
  2  3  1  0
  2  4  1  0
  4  5  2  0
  5  6  1  0
  6  7  1  0
  7  8  2  0
  7  9  2  0
  7 10  1  0
 10 11  1  0
 11 12  2  0
 12 13  1  0
 13 14  2  0
 14 15  1  0
 15 16  2  0
 15 17  1  0
 17 18  1  0
 18 19  1  0
 19 20  1  0
 20 21  2  0
 21 22  1  0
 22 23  2  0
 23 24  1  0
 24 25  2  0
 25 26  1  0
 14 27  1  0
 27 28  1  0
 27 29  2  0
  6 30  2  0
 30 31  1  0
 31 32  2  0
 32 33  1  0
 32  4  1  0
 29 11  1  0
 26 17  1  0
 25 20  1  0
  5 34  1  0
 12 35  1  0
 13 36  1  0
 18 37  1  0
 18 38  1  0
 19 39  1  0
 19 40  1  0
 21 41  1  0
 22 42  1  0
 23 43  1  0
 24 44  1  0
 26 45  1  0
 26 46  1  0
 29 47  1  0
 30 48  1  0
 31 49  1  0
M  CHG  4   3  -1  10  -1  28  -1  33  -1
M  END
>  <UniqueID>  (27) 
27

>  <SMILES>  (27) 
O=C([O-])c1cc(S(=O)(=O)[N-]c2ccc(C(=O)N3CCc4ccccc4C3)c([O-])c2)ccc1[O-]

>  <Energy>  (27) 
68.53062000947665

>  <Genealogy>  (27) 
O=C([O-])c1cc(S(=O)(=O)[N-]c2ccc(C(=O)N3CCc4ccccc4C3)c([O-])c2)ccc1[O-] (protonated)
O=C([O-])c1cc(S(=O)(=O)[N-]c2ccc(C(=O)N3CCc4ccccc4C3)c([O-])c2)ccc1[O-] (3D coordinates assigned)
O=C([O-])c1cc(S(=O)(=O)[N-]c2ccc(C(=O)N3CCc4ccccc4C3)c([O-])c2)ccc1[O-] (nonaromatic ring conformer: 68.53062000947665 kcal/mol)

>  <smiles>  (27) 
O=C(O)c1cc(S(=O)(=O)Nc2ccc(C(=O)N3CCc4ccccc4C3)c(O)c2)ccc1O

>  <score_type>  (27) 
oracle

>  <origin>  (27) 
adgpu

>  <m_score__min__energy>  (27) 
-13.869999999999999

>  <m_primary>  (27) 
energy

$$$$
27:0
     RDKit          3D

 63 66  0  0  0  0  0  0  0  0999 V2000
   -0.2100   23.2690  -27.1580 C   0  0  0  0  0  0  0  0  0  0  0  0
   -1.5570   23.2620  -27.7470 N   0  0  0  0  0  0  0  0  0  0  0  0
   -2.3520   24.4030  -27.2330 C   0  0  0  0  0  0  0  0  0  0  0  0
   -3.8710   24.2140  -27.4320 C   0  0  0  0  0  0  0  0  0  0  0  0
   -4.1450   23.1940  -28.4520 N   0  0  0  0  0  0  0  0  0  0  0  0
   -4.9840   23.4980  -29.5820 C   0  0  0  0  0  0  0  0  0  0  0  0
   -6.1550   22.7530  -29.8000 C   0  0  0  0  0  0  0  0  0  0  0  0
   -7.0020   23.0570  -30.8740 C   0  0  0  0  0  0  0  0  0  0  0  0
   -8.4950   22.1550  -31.1110 S   0  0  0  0  0  0  0  0  0  0  0  0
   -9.1400   21.9080  -29.7760 O   0  0  0  0  0  0  0  0  0  0  0  0
   -9.4530   22.9440  -31.9600 O   0  0  0  0  0  0  0  0  0  0  0  0
   -8.1230   20.6510  -31.8940 N   0  0  0  0  0  0  0  0  0  0  0  0
   -9.2070   19.7560  -32.2930 C   0  0  0  0  0  0  0  0  0  0  0  0
   -6.7640   20.3190  -32.2140 C   0  0  0  0  0  0  0  0  0  0  0  0
   -6.1750   19.1630  -31.6820 C   0  0  0  0  0  0  0  0  0  0  0  0
   -4.8570   18.8300  -32.0050 C   0  0  0  0  0  0  0  0  0  0  0  0
   -4.1160   19.6440  -32.8720 C   0  0  0  0  0  0  0  0  0  0  0  0
   -2.4490   19.2310  -33.2730 S   0  0  0  0  0  0  0  0  0  0  0  0
   -2.4050   18.6930  -34.6760 O   0  0  0  0  0  0  0  0  0  0  0  0
   -1.9880   18.1370  -32.3510 O   0  0  0  0  0  0  0  0  0  0  0  0
   -1.3490   20.5880  -33.1410 N   0  0  0  0  0  0  0  0  0  0  0  0
    0.0230   20.1980  -32.7600 C   0  0  0  0  0  0  0  0  0  0  0  0
    0.2460   20.2230  -31.2420 C   0  0  0  0  0  0  0  0  0  0  0  0
   -0.1420   21.4650  -30.6990 O   0  0  0  0  0  0  0  0  0  0  0  0
   -1.5330   21.6270  -30.8680 C   0  0  0  0  0  0  0  0  0  0  0  0
   -1.8920   21.7150  -32.3580 C   0  0  0  0  0  0  0  0  0  0  0  0
   -4.6960   20.8100  -33.3890 C   0  0  0  0  0  0  0  0  0  0  0  0
   -6.0150   21.1410  -33.0700 C   0  0  0  0  0  0  0  0  0  0  0  0
   -6.6830   24.1190  -31.7290 C   0  0  0  0  0  0  0  0  0  0  0  0
   -5.5170   24.8590  -31.5240 C   0  0  0  0  0  0  0  0  0  0  0  0
   -4.6660   24.5530  -30.4570 C   0  0  0  0  0  0  0  0  0  0  0  0
   -3.5010   25.2910  -30.2850 O   0  0  0  0  0  0  0  0  0  0  0  0
   -3.4860   21.8850  -28.3560 C   0  0  0  0  0  0  0  0  0  0  0  0
   -2.2290   21.9770  -27.4860 C   0  0  0  0  0  0  0  0  0  0  0  0
   -0.2895   23.2686  -26.0609 H   0  0  0  0  0  0  0  0  0  0  0  0
    0.3384   22.3737  -27.4862 H   0  0  0  0  0  0  0  0  0  0  0  0
    0.3290   24.1700  -27.4862 H   0  0  0  0  0  0  0  0  0  0  0  0
   -2.1501   24.5154  -26.1575 H   0  0  0  0  0  0  0  0  0  0  0  0
   -2.0531   25.2964  -27.8009 H   0  0  0  0  0  0  0  0  0  0  0  0
   -4.3224   23.9003  -26.4792 H   0  0  0  0  0  0  0  0  0  0  0  0
   -4.3022   25.1690  -27.7666 H   0  0  0  0  0  0  0  0  0  0  0  0
   -6.4089   21.9246  -29.1223 H   0  0  0  0  0  0  0  0  0  0  0  0
   -9.6974   19.3511  -31.3954 H   0  0  0  0  0  0  0  0  0  0  0  0
   -9.9416   20.3142  -32.8920 H   0  0  0  0  0  0  0  0  0  0  0  0
   -8.7980   18.9290  -32.8920 H   0  0  0  0  0  0  0  0  0  0  0  0
   -6.7534   18.5151  -31.0070 H   0  0  0  0  0  0  0  0  0  0  0  0
   -4.3995   17.9257  -31.5772 H   0  0  0  0  0  0  0  0  0  0  0  0
    0.2138   19.1787  -33.1269 H   0  0  0  0  0  0  0  0  0  0  0  0
    0.7126   20.9279  -33.2091 H   0  0  0  0  0  0  0  0  0  0  0  0
   -0.3501   19.4241  -30.7768 H   0  0  0  0  0  0  0  0  0  0  0  0
    1.3164   20.0692  -31.0405 H   0  0  0  0  0  0  0  0  0  0  0  0
   -2.0536   20.7671  -30.4213 H   0  0  0  0  0  0  0  0  0  0  0  0
   -1.8430   22.5596  -30.3739 H   0  0  0  0  0  0  0  0  0  0  0  0
   -2.9876   21.7169  -32.4567 H   0  0  0  0  0  0  0  0  0  0  0  0
   -1.4470   22.6400  -32.7535 H   0  0  0  0  0  0  0  0  0  0  0  0
   -4.1104   21.4672  -34.0486 H   0  0  0  0  0  0  0  0  0  0  0  0
   -6.4687   22.0501  -33.4916 H   0  0  0  0  0  0  0  0  0  0  0  0
   -7.3528   24.3709  -32.5644 H   0  0  0  0  0  0  0  0  0  0  0  0
   -5.2665   25.6862  -32.2045 H   0  0  0  0  0  0  0  0  0  0  0  0
   -4.1831   21.1612  -27.9086 H   0  0  0  0  0  0  0  0  0  0  0  0
   -3.1955   21.5593  -29.3657 H   0  0  0  0  0  0  0  0  0  0  0  0
   -2.5103   21.9171  -26.4243 H   0  0  0  0  0  0  0  0  0  0  0  0
   -1.5490   21.1467  -27.7271 H   0  0  0  0  0  0  0  0  0  0  0  0
  1  2  1  0
  2  3  1  0
  3  4  1  0
  4  5  1  0
  5  6  1  0
  6  7  2  0
  7  8  1  0
  8  9  1  0
  9 10  2  0
  9 11  2  0
  9 12  1  0
 12 13  1  0
 12 14  1  0
 14 15  2  0
 15 16  1  0
 16 17  2  0
 17 18  1  0
 18 19  2  0
 18 20  2  0
 18 21  1  0
 21 22  1  0
 22 23  1  0
 23 24  1  0
 24 25  1  0
 25 26  1  0
 17 27  1  0
 27 28  2  0
  8 29  2  0
 29 30  1  0
 30 31  2  0
 31 32  1  0
  5 33  1  0
 33 34  1  0
 34  2  1  0
 31  6  1  0
 28 14  1  0
 26 21  1  0
  1 35  1  0
  1 36  1  0
  1 37  1  0
  3 38  1  0
  3 39  1  0
  4 40  1  0
  4 41  1  0
  7 42  1  0
 13 43  1  0
 13 44  1  0
 13 45  1  0
 15 46  1  0
 16 47  1  0
 22 48  1  0
 22 49  1  0
 23 50  1  0
 23 51  1  0
 25 52  1  0
 25 53  1  0
 26 54  1  0
 26 55  1  0
 27 56  1  0
 28 57  1  0
 29 58  1  0
 30 59  1  0
 33 60  1  0
 33 61  1  0
 34 62  1  0
 34 63  1  0
M  CHG  1  32  -1
M  END
>  <UniqueID>  (28) 
28

>  <SMILES>  (28) 
CN1CCN(c2cc(S(=O)(=O)N(C)c3ccc(S(=O)(=O)N4CCOCC4)cc3)ccc2[O-])CC1

>  <Energy>  (28) 
85.7172298218838

>  <Genealogy>  (28) 
CN1CCN(c2cc(S(=O)(=O)N(C)c3ccc(S(=O)(=O)N4CCOCC4)cc3)ccc2[O-])CC1 (protonated)
CN1CCN(c2cc(S(=O)(=O)N(C)c3ccc(S(=O)(=O)N4CCOCC4)cc3)ccc2[O-])CC1 (3D coordinates assigned)
CN1CCN(c2cc(S(=O)(=O)N(C)c3ccc(S(=O)(=O)N4CCOCC4)cc3)ccc2[O-])CC1 (nonaromatic ring conformer: 85.7172298218838 kcal/mol)

>  <smiles>  (28) 
CN1CCN(c2cc(S(=O)(=O)N(C)c3ccc(S(=O)(=O)N4CCOCC4)cc3)ccc2O)CC1

>  <score_type>  (28) 
oracle

>  <origin>  (28) 
adgpu

>  <m_score__min__energy>  (28) 
-12.08

>  <m_primary>  (28) 
energy

$$$$
28:0
     RDKit          3D

 44 47  0  0  0  0  0  0  0  0999 V2000
   -0.4910   22.7230  -24.9960 C   0  0  0  0  0  0  0  0  0  0  0  0
   -0.3400   23.4840  -26.2310 N   0  0  0  0  0  0  0  0  0  0  0  0
    0.8120   23.9570  -26.6970 N   0  0  0  0  0  0  0  0  0  0  0  0
    0.6390   24.5620  -27.8730 N   0  0  0  0  0  0  0  0  0  0  0  0
   -0.6740   24.4540  -28.1470 C   0  0  0  0  0  0  0  0  0  0  0  0
   -1.3720   24.9070  -29.2610 C   0  0  0  0  0  0  0  0  0  0  0  0
   -2.7570   24.6360  -29.3260 C   0  0  0  0  0  0  0  0  0  0  0  0
   -3.4900   25.1100  -30.4640 N   0  0  0  0  0  0  0  0  0  0  0  0
   -4.9090   25.2960  -30.5660 C   0  0  0  0  0  0  0  0  0  0  0  0
   -5.4210   26.4210  -30.3200 O   0  0  0  0  0  0  0  0  0  0  0  0
   -5.7820   24.1500  -30.9130 C   0  0  0  0  0  0  0  0  0  0  0  0
   -5.5500   23.4000  -32.0800 C   0  0  0  0  0  0  0  0  0  0  0  0
   -6.3760   22.3180  -32.4020 C   0  0  0  0  0  0  0  0  0  0  0  0
   -7.4460   21.9730  -31.5700 C   0  0  0  0  0  0  0  0  0  0  0  0
   -8.4790   20.6110  -31.9910 S   0  0  0  0  0  0  0  0  0  0  0  0
   -9.8500   21.1240  -32.3240 O   0  0  0  0  0  0  0  0  0  0  0  0
   -8.5880   19.6480  -30.8430 O   0  0  0  0  0  0  0  0  0  0  0  0
   -7.8330   19.7810  -33.3670 N   0  0  0  0  0  0  0  0  0  0  0  0
   -6.7980   18.7880  -33.3230 C   0  0  0  0  0  0  0  0  0  0  0  0
   -6.7940   17.7500  -32.3710 C   0  0  0  0  0  0  0  0  0  0  0  0
   -5.7710   16.7960  -32.3760 C   0  0  0  0  0  0  0  0  0  0  0  0
   -4.7440   16.8730  -33.3210 C   0  0  0  0  0  0  0  0  0  0  0  0
   -4.7410   17.9010  -34.2650 C   0  0  0  0  0  0  0  0  0  0  0  0
   -5.7660   18.8530  -34.2670 C   0  0  0  0  0  0  0  0  0  0  0  0
   -7.6880   22.7180  -30.4100 C   0  0  0  0  0  0  0  0  0  0  0  0
   -6.8600   23.7960  -30.0820 C   0  0  0  0  0  0  0  0  0  0  0  0
   -3.3930   23.9510  -28.2480 C   0  0  0  0  0  0  0  0  0  0  0  0
   -2.6480   23.5060  -27.1390 C   0  0  0  0  0  0  0  0  0  0  0  0
   -1.2830   23.7820  -27.1350 C   0  0  0  0  0  0  0  0  0  0  0  0
   -0.3580   23.3931  -24.1338 H   0  0  0  0  0  0  0  0  0  0  0  0
   -1.4954   22.2758  -24.9614 H   0  0  0  0  0  0  0  0  0  0  0  0
    0.2665   21.9262  -24.9614 H   0  0  0  0  0  0  0  0  0  0  0  0
   -0.8626   25.4582  -30.0652 H   0  0  0  0  0  0  0  0  0  0  0  0
   -4.7139   23.6659  -32.7435 H   0  0  0  0  0  0  0  0  0  0  0  0
   -6.1829   21.7352  -33.3147 H   0  0  0  0  0  0  0  0  0  0  0  0
   -7.5972   17.6894  -31.6218 H   0  0  0  0  0  0  0  0  0  0  0  0
   -5.7748   15.9834  -31.6346 H   0  0  0  0  0  0  0  0  0  0  0  0
   -3.9386   16.1238  -33.3207 H   0  0  0  0  0  0  0  0  0  0  0  0
   -3.9321   17.9627  -35.0079 H   0  0  0  0  0  0  0  0  0  0  0  0
   -5.7612   19.6587  -35.0159 H   0  0  0  0  0  0  0  0  0  0  0  0
   -8.5315   22.4548  -29.7549 H   0  0  0  0  0  0  0  0  0  0  0  0
   -7.0536   24.3726  -29.1654 H   0  0  0  0  0  0  0  0  0  0  0  0
   -4.4772   23.7685  -28.2836 H   0  0  0  0  0  0  0  0  0  0  0  0
   -3.1247   22.9626  -26.3098 H   0  0  0  0  0  0  0  0  0  0  0  0
  1  2  1  0
  2  3  1  0
  3  4  2  0
  4  5  1  0
  5  6  2  0
  6  7  1  0
  7  8  1  0
  8  9  1  0
  9 10  2  0
  9 11  1  0
 11 12  2  0
 12 13  1  0
 13 14  2  0
 14 15  1  0
 15 16  2  0
 15 17  2  0
 15 18  1  0
 18 19  1  0
 19 20  2  0
 20 21  1  0
 21 22  2  0
 22 23  1  0
 23 24  2  0
 14 25  1  0
 25 26  2  0
  7 27  2  0
 27 28  1  0
 28 29  2  0
 29  2  1  0
 29  5  1  0
 26 11  1  0
 24 19  1  0
  1 30  1  0
  1 31  1  0
  1 32  1  0
  6 33  1  0
 12 34  1  0
 13 35  1  0
 20 36  1  0
 21 37  1  0
 22 38  1  0
 23 39  1  0
 24 40  1  0
 25 41  1  0
 26 42  1  0
 27 43  1  0
 28 44  1  0
M  CHG  2   8  -1  18  -1
M  END
>  <UniqueID>  (29) 
29

>  <SMILES>  (29) 
Cn1nnc2cc([N-]C(=O)c3ccc(S(=O)(=O)[N-]c4ccccc4)cc3)ccc21

>  <Energy>  (29) 
100.17847962352262

>  <Genealogy>  (29) 
Cn1nnc2cc([N-]C(=O)c3ccc(S(=O)(=O)[N-]c4ccccc4)cc3)ccc21 (protonated)
Cn1nnc2cc([N-]C(=O)c3ccc(S(=O)(=O)[N-]c4ccccc4)cc3)ccc21 (3D coordinates assigned)
Cn1nnc2cc([N-]C(=O)c3ccc(S(=O)(=O)[N-]c4ccccc4)cc3)ccc21 (optimized conformer: 100.17847962352262 kcal/mol)

>  <smiles>  (29) 
Cn1nnc2cc(NC(=O)c3ccc(S(=O)(=O)Nc4ccccc4)cc3)ccc21

>  <score_type>  (29) 
oracle

>  <origin>  (29) 
adgpu

>  <m_score__min__energy>  (29) 
-11.73

>  <m_primary>  (29) 
energy

$$$$
29:0
     RDKit          3D

 51 54  0  0  0  0  0  0  0  0999 V2000
   -0.6500   20.3430  -33.9600 C   0  0  0  0  0  0  0  0  0  0  0  0
   -2.1030   20.3710  -33.5890 C   0  0  0  0  0  0  0  0  0  0  0  0
   -2.6930   21.5490  -33.1010 C   0  0  0  0  0  0  0  0  0  0  0  0
   -4.0530   21.5780  -32.7740 C   0  0  0  0  0  0  0  0  0  0  0  0
   -4.8330   20.4300  -32.9390 C   0  0  0  0  0  0  0  0  0  0  0  0
   -6.1500   20.4310  -32.6060 N   0  0  0  0  0  0  0  0  0  0  0  0
   -6.9250   19.3220  -32.7460 C   0  0  0  0  0  0  0  0  0  0  0  0
   -8.6010   19.4050  -32.1880 S   0  0  0  0  0  0  0  0  0  0  0  0
   -9.4450   18.5570  -33.0980 O   0  0  0  0  0  0  0  0  0  0  0  0
   -8.7290   18.8590  -30.7940 O   0  0  0  0  0  0  0  0  0  0  0  0
   -9.2180   21.0880  -32.2350 C   0  0  0  0  0  0  0  0  0  0  0  0
   -8.2620   22.0290  -31.5600 C   0  0  0  0  0  0  0  0  0  0  0  0
   -7.5150   22.9410  -32.3250 C   0  0  0  0  0  0  0  0  0  0  0  0
   -6.5250   23.7200  -31.7260 C   0  0  0  0  0  0  0  0  0  0  0  0
   -6.2690   23.6010  -30.3520 C   0  0  0  0  0  0  0  0  0  0  0  0
   -4.9490   24.4950  -29.6070 S   0  0  0  0  0  0  0  0  0  0  0  0
   -4.3340   25.4300  -30.6110 O   0  0  0  0  0  0  0  0  0  0  0  0
   -5.5010   25.3080  -28.4700 O   0  0  0  0  0  0  0  0  0  0  0  0
   -3.7570   23.3580  -29.0110 N   0  0  0  0  0  0  0  0  0  0  0  0
   -2.5910   23.2540  -29.9150 C   0  0  0  0  0  0  0  0  0  0  0  0
   -1.3890   24.0890  -29.4390 C   0  0  0  0  0  0  0  0  0  0  0  0
   -1.8310   25.2400  -28.7580 O   0  0  0  0  0  0  0  0  0  0  0  0
   -2.4250   24.8780  -27.5230 C   0  0  0  0  0  0  0  0  0  0  0  0
   -3.3660   23.6540  -27.6220 C   0  0  0  0  0  0  0  0  0  0  0  0
   -7.0240   22.7070  -29.5830 C   0  0  0  0  0  0  0  0  0  0  0  0
   -8.0160   21.9260  -30.1820 C   0  0  0  0  0  0  0  0  0  0  0  0
   -6.3380   18.1390  -33.2490 C   0  0  0  0  0  0  0  0  0  0  0  0
   -7.2240   16.6350  -33.4380 Cl  0  0  0  0  0  0  0  0  0  0  0  0
   -5.0210   18.1430  -33.5870 N   0  0  0  0  0  0  0  0  0  0  0  0
   -4.2530   19.2530  -33.4440 C   0  0  0  0  0  0  0  0  0  0  0  0
   -2.8950   19.2270  -33.7780 C   0  0  0  0  0  0  0  0  0  0  0  0
   -0.0383   20.3312  -33.0458 H   0  0  0  0  0  0  0  0  0  0  0  0
   -0.4403   19.4406  -34.5531 H   0  0  0  0  0  0  0  0  0  0  0  0
   -0.4057   21.2366  -34.5531 H   0  0  0  0  0  0  0  0  0  0  0  0
   -2.0815   22.4547  -32.9752 H   0  0  0  0  0  0  0  0  0  0  0  0
   -4.5074   22.5023  -32.3879 H   0  0  0  0  0  0  0  0  0  0  0  0
   -9.3459   21.3954  -33.2834 H   0  0  0  0  0  0  0  0  0  0  0  0
  -10.1804   21.1241  -31.7035 H   0  0  0  0  0  0  0  0  0  0  0  0
   -7.7122   23.0411  -33.4025 H   0  0  0  0  0  0  0  0  0  0  0  0
   -5.9434   24.4296  -32.3328 H   0  0  0  0  0  0  0  0  0  0  0  0
   -2.2848   22.1991  -29.9732 H   0  0  0  0  0  0  0  0  0  0  0  0
   -2.8976   23.6455  -30.8962 H   0  0  0  0  0  0  0  0  0  0  0  0
   -0.7710   23.4816  -28.7614 H   0  0  0  0  0  0  0  0  0  0  0  0
   -0.7984   24.3966  -30.3146 H   0  0  0  0  0  0  0  0  0  0  0  0
   -1.6233   24.6430  -26.8074 H   0  0  0  0  0  0  0  0  0  0  0  0
   -3.0393   25.7310  -27.1989 H   0  0  0  0  0  0  0  0  0  0  0  0
   -2.8495   22.7766  -27.2057 H   0  0  0  0  0  0  0  0  0  0  0  0
   -4.2812   23.8877  -27.0582 H   0  0  0  0  0  0  0  0  0  0  0  0
   -6.8355   22.6191  -28.5028 H   0  0  0  0  0  0  0  0  0  0  0  0
   -8.6066   21.2275  -29.5709 H   0  0  0  0  0  0  0  0  0  0  0  0
   -2.4473   18.3101  -34.1889 H   0  0  0  0  0  0  0  0  0  0  0  0
  1  2  1  0
  2  3  2  0
  3  4  1  0
  4  5  2  0
  5  6  1  0
  6  7  2  0
  7  8  1  0
  8  9  2  0
  8 10  2  0
  8 11  1  0
 11 12  1  0
 12 13  2  0
 13 14  1  0
 14 15  2  0
 15 16  1  0
 16 17  2  0
 16 18  2  0
 16 19  1  0
 19 20  1  0
 20 21  1  0
 21 22  1  0
 22 23  1  0
 23 24  1  0
 15 25  1  0
 25 26  2  0
  7 27  1  0
 27 28  1  0
 27 29  2  0
 29 30  1  0
 30 31  2  0
 31  2  1  0
 30  5  1  0
 26 12  1  0
 24 19  1  0
  1 32  1  0
  1 33  1  0
  1 34  1  0
  3 35  1  0
  4 36  1  0
 11 37  1  0
 11 38  1  0
 13 39  1  0
 14 40  1  0
 20 41  1  0
 20 42  1  0
 21 43  1  0
 21 44  1  0
 23 45  1  0
 23 46  1  0
 24 47  1  0
 24 48  1  0
 25 49  1  0
 26 50  1  0
 31 51  1  0
M  END
>  <UniqueID>  (30) 
30

>  <SMILES>  (30) 
Cc1ccc2nc(S(=O)(=O)Cc3ccc(S(=O)(=O)N4CCOCC4)cc3)c(Cl)nc2c1

>  <Energy>  (30) 
62.90980781195705

>  <Genealogy>  (30) 
Cc1ccc2nc(S(=O)(=O)Cc3ccc(S(=O)(=O)N4CCOCC4)cc3)c(Cl)nc2c1 (3D coordinates assigned)
Cc1ccc2nc(S(=O)(=O)Cc3ccc(S(=O)(=O)N4CCOCC4)cc3)c(Cl)nc2c1 (nonaromatic ring conformer: 62.90980781195705 kcal/mol)

>  <smiles>  (30) 
Cc1ccc2nc(S(=O)(=O)Cc3ccc(S(=O)(=O)N4CCOCC4)cc3)c(Cl)nc2c1

>  <score_type>  (30) 
oracle

>  <origin>  (30) 
adgpu

>  <m_score__min__energy>  (30) 
-10.970000000000001

>  <m_primary>  (30) 
energy

$$$$
30:0
     RDKit          3D

 51 54  0  0  0  0  0  0  0  0999 V2000
   -4.7650   14.3640  -35.2420 O   0  0  0  0  0  0  0  0  0  0  0  0
   -5.7110   14.7380  -34.1360 S   0  0  0  0  0  0  0  0  0  0  0  0
   -7.1250   14.5650  -34.6160 O   0  0  0  0  0  0  0  0  0  0  0  0
   -5.4330   16.4240  -33.7080 C   0  0  0  0  0  0  0  0  0  0  0  0
   -6.3740   17.1310  -32.9460 C   0  0  0  0  0  0  0  0  0  0  0  0
   -6.1450   18.4670  -32.6080 C   0  0  0  0  0  0  0  0  0  0  0  0
   -4.9750   19.1170  -33.0350 C   0  0  0  0  0  0  0  0  0  0  0  0
   -4.7320   20.4900  -32.6760 N   0  0  0  0  0  0  0  0  0  0  0  0
   -5.5490   21.1210  -31.6300 C   0  0  0  0  0  0  0  0  0  0  0  0
   -5.0650   22.5420  -31.2970 C   0  0  0  0  0  0  0  0  0  0  0  0
   -3.5980   22.5920  -31.2080 N   0  0  0  0  0  0  0  0  0  0  0  0
   -2.9470   23.4510  -30.2500 C   0  0  0  0  0  0  0  0  0  0  0  0
   -1.9880   23.0640  -29.3350 C   0  0  0  0  0  0  0  0  0  0  0  0
   -1.6480   24.2190  -28.6600 C   0  0  0  0  0  0  0  0  0  0  0  0
   -0.7120   24.2830  -27.6360 O   0  0  0  0  0  0  0  0  0  0  0  0
   -2.3260   25.2950  -29.1070 N   0  0  0  0  0  0  0  0  0  0  0  0
   -3.1170   24.8160  -30.0870 C   0  0  0  0  0  0  0  0  0  0  0  0
   -3.9580   25.6240  -30.8410 O   0  0  0  0  0  0  0  0  0  0  0  0
   -2.7680   21.8590  -32.1780 C   0  0  0  0  0  0  0  0  0  0  0  0
   -3.6210   21.2330  -33.2810 C   0  0  0  0  0  0  0  0  0  0  0  0
   -4.0360   18.4050  -33.7980 C   0  0  0  0  0  0  0  0  0  0  0  0
   -4.2650   17.0680  -34.1350 C   0  0  0  0  0  0  0  0  0  0  0  0
   -5.4300   13.7320  -32.7310 N   0  0  0  0  0  0  0  0  0  0  0  0
   -5.1950   12.3130  -33.1010 C   0  0  0  0  0  0  0  0  0  0  0  0
   -3.8050   11.7820  -32.7040 C   0  0  0  0  0  0  0  0  0  0  0  0
   -2.7240   12.8040  -33.0510 C   0  0  0  0  0  0  0  0  0  0  0  0
   -2.9780   14.1630  -32.3750 C   0  0  0  0  0  0  0  0  0  0  0  0
   -4.4120   14.3120  -31.8330 C   0  0  0  0  0  0  0  0  0  0  0  0
   -7.2960   16.6318  -32.6131 H   0  0  0  0  0  0  0  0  0  0  0  0
   -6.8848   19.0130  -32.0042 H   0  0  0  0  0  0  0  0  0  0  0  0
   -6.5914   21.1736  -31.9774 H   0  0  0  0  0  0  0  0  0  0  0  0
   -5.4626   20.5113  -30.7185 H   0  0  0  0  0  0  0  0  0  0  0  0
   -5.4011   23.2306  -32.0862 H   0  0  0  0  0  0  0  0  0  0  0  0
   -5.4853   22.8362  -30.3240 H   0  0  0  0  0  0  0  0  0  0  0  0
   -1.5826   22.0536  -29.1779 H   0  0  0  0  0  0  0  0  0  0  0  0
   -2.0496   22.5564  -32.6335 H   0  0  0  0  0  0  0  0  0  0  0  0
   -2.2441   21.0517  -31.6452 H   0  0  0  0  0  0  0  0  0  0  0  0
   -4.0204   22.0258  -33.9305 H   0  0  0  0  0  0  0  0  0  0  0  0
   -3.0028   20.5470  -33.8787 H   0  0  0  0  0  0  0  0  0  0  0  0
   -3.1139   18.9026  -34.1328 H   0  0  0  0  0  0  0  0  0  0  0  0
   -3.5256   16.5200  -34.7374 H   0  0  0  0  0  0  0  0  0  0  0  0
   -5.9563   11.6952  -32.6022 H   0  0  0  0  0  0  0  0  0  0  0  0
   -5.2547   12.2570  -34.1979 H   0  0  0  0  0  0  0  0  0  0  0  0
   -3.7867   11.5889  -31.6212 H   0  0  0  0  0  0  0  0  0  0  0  0
   -3.6073   10.8524  -33.2578 H   0  0  0  0  0  0  0  0  0  0  0  0
   -1.7497   12.4177  -32.7171 H   0  0  0  0  0  0  0  0  0  0  0  0
   -2.7387   12.9579  -34.1401 H   0  0  0  0  0  0  0  0  0  0  0  0
   -2.2742   14.2737  -31.5369 H   0  0  0  0  0  0  0  0  0  0  0  0
   -2.8350   14.9405  -33.1398 H   0  0  0  0  0  0  0  0  0  0  0  0
   -4.4733   13.8044  -30.8590 H   0  0  0  0  0  0  0  0  0  0  0  0
   -4.6221   15.3884  -31.7483 H   0  0  0  0  0  0  0  0  0  0  0  0
  1  2  2  0
  2  3  2  0
  2  4  1  0
  4  5  2  0
  5  6  1  0
  6  7  2  0
  7  8  1  0
  8  9  1  0
  9 10  1  0
 10 11  1  0
 11 12  1  0
 12 13  1  0
 13 14  2  0
 14 15  1  0
 14 16  1  0
 16 17  1  0
 17 18  1  0
 11 19  1  0
 19 20  1  0
  7 21  1  0
 21 22  2  0
  2 23  1  0
 23 24  1  0
 24 25  1  0
 25 26  1  0
 26 27  1  0
 27 28  1  0
 22  4  1  0
 28 23  1  0
 20  8  1  0
 17 12  2  0
  5 29  1  0
  6 30  1  0
  9 31  1  0
  9 32  1  0
 10 33  1  0
 10 34  1  0
 13 35  1  0
 19 36  1  0
 19 37  1  0
 20 38  1  0
 20 39  1  0
 21 40  1  0
 22 41  1  0
 24 42  1  0
 24 43  1  0
 25 44  1  0
 25 45  1  0
 26 46  1  0
 26 47  1  0
 27 48  1  0
 27 49  1  0
 28 50  1  0
 28 51  1  0
M  CHG  3  15  -1  16  -1  18  -1
M  END
>  <UniqueID>  (31) 
31

>  <SMILES>  (31) 
O=S(=O)(c1ccc(N2CCN(c3cc([O-])[n-]c3[O-])CC2)cc1)N1CCCCC1

>  <Energy>  (31) 
94.12626504698173

>  <Genealogy>  (31) 
O=S(=O)(c1ccc(N2CCN(c3cc([O-])[n-]c3[O-])CC2)cc1)N1CCCCC1 (protonated)
O=S(=O)(c1ccc(N2CCN(c3cc([O-])[n-]c3[O-])CC2)cc1)N1CCCCC1 (3D coordinates assigned)
O=S(=O)(c1ccc(N2CCN(c3cc([O-])[n-]c3[O-])CC2)cc1)N1CCCCC1 (nonaromatic ring conformer: 94.12626504698173 kcal/mol)

>  <smiles>  (31) 
O=S(=O)(c1ccc(N2CCN(c3cc(O)[nH]c3O)CC2)cc1)N1CCCCC1

>  <score_type>  (31) 
oracle

>  <origin>  (31) 
adgpu

>  <m_score__min__energy>  (31) 
-12.109999999999999

>  <m_primary>  (31) 
energy

$$$$
31:0
     RDKit          3D

 46 49  0  0  0  0  0  0  0  0999 V2000
    1.0270   16.8550  -31.8560 C   0  0  0  0  0  0  0  0  0  0  0  0
   -0.1840   17.5350  -31.5410 O   0  0  0  0  0  0  0  0  0  0  0  0
   -0.2520   18.7570  -30.8530 C   0  0  0  0  0  0  0  0  0  0  0  0
   -0.6750   19.9450  -31.4790 C   0  0  0  0  0  0  0  0  0  0  0  0
   -0.7400   21.1390  -30.7590 C   0  0  0  0  0  0  0  0  0  0  0  0
   -0.3990   21.1660  -29.4060 C   0  0  0  0  0  0  0  0  0  0  0  0
   -0.5150   22.6810  -28.5120 S   0  0  0  0  0  0  0  0  0  0  0  0
    0.0720   23.8210  -29.2980 O   0  0  0  0  0  0  0  0  0  0  0  0
    0.2580   22.5480  -27.2310 O   0  0  0  0  0  0  0  0  0  0  0  0
   -2.1760   23.0110  -28.1380 N   0  0  0  0  0  0  0  0  0  0  0  0
   -3.1860   23.4000  -29.0790 C   0  0  0  0  0  0  0  0  0  0  0  0
   -4.1240   22.4830  -29.5850 C   0  0  0  0  0  0  0  0  0  0  0  0
   -5.1110   22.8930  -30.4960 C   0  0  0  0  0  0  0  0  0  0  0  0
   -6.1030   21.9280  -31.0130 C   0  0  0  0  0  0  0  0  0  0  0  0
   -7.4260   22.2160  -31.1570 N   0  0  0  0  0  0  0  0  0  0  0  0
   -7.9120   21.0660  -31.6510 C   0  0  0  0  0  0  0  0  0  0  0  0
   -9.2190   20.7830  -32.0300 C   0  0  0  0  0  0  0  0  0  0  0  0
   -9.4840   19.5040  -32.5570 C   0  0  0  0  0  0  0  0  0  0  0  0
   -8.4470   18.5520  -32.6800 C   0  0  0  0  0  0  0  0  0  0  0  0
   -7.1340   18.8740  -32.2870 C   0  0  0  0  0  0  0  0  0  0  0  0
   -6.9140   20.1530  -31.7850 C   0  0  0  0  0  0  0  0  0  0  0  0
   -5.7930   20.6960  -31.3880 O   0  0  0  0  0  0  0  0  0  0  0  0
   -5.1420   24.2340  -30.9120 C   0  0  0  0  0  0  0  0  0  0  0  0
   -4.2130   25.1510  -30.4140 C   0  0  0  0  0  0  0  0  0  0  0  0
   -3.2420   24.7370  -29.4980 C   0  0  0  0  0  0  0  0  0  0  0  0
   -2.3380   25.6660  -28.9960 O   0  0  0  0  0  0  0  0  0  0  0  0
    0.0350   19.9920  -28.7780 C   0  0  0  0  0  0  0  0  0  0  0  0
    0.1170   18.7840  -29.4990 C   0  0  0  0  0  0  0  0  0  0  0  0
    0.5560   17.5910  -28.9050 O   0  0  0  0  0  0  0  0  0  0  0  0
    0.8690   17.4420  -27.5220 C   0  0  0  0  0  0  0  0  0  0  0  0
    1.5388   16.5676  -30.9257 H   0  0  0  0  0  0  0  0  0  0  0  0
    0.7990   15.9529  -32.4428 H   0  0  0  0  0  0  0  0  0  0  0  0
    1.6785   17.5192  -32.4428 H   0  0  0  0  0  0  0  0  0  0  0  0
   -0.9561   19.9322  -32.5424 H   0  0  0  0  0  0  0  0  0  0  0  0
   -1.0617   22.0636  -31.2607 H   0  0  0  0  0  0  0  0  0  0  0  0
   -4.0843   21.4318  -29.2634 H   0  0  0  0  0  0  0  0  0  0  0  0
  -10.0180   21.5313  -31.9222 H   0  0  0  0  0  0  0  0  0  0  0  0
  -10.5046   19.2446  -32.8748 H   0  0  0  0  0  0  0  0  0  0  0  0
   -8.6670   17.5533  -33.0853 H   0  0  0  0  0  0  0  0  0  0  0  0
   -6.3154   18.1443  -32.3733 H   0  0  0  0  0  0  0  0  0  0  0  0
   -5.9026   24.5645  -31.6346 H   0  0  0  0  0  0  0  0  0  0  0  0
   -4.2458   26.2001  -30.7432 H   0  0  0  0  0  0  0  0  0  0  0  0
    0.3139   20.0129  -27.7142 H   0  0  0  0  0  0  0  0  0  0  0  0
    0.0412   17.8361  -26.9142 H   0  0  0  0  0  0  0  0  0  0  0  0
    1.0176   16.3765  -27.2924 H   0  0  0  0  0  0  0  0  0  0  0  0
    1.7897   17.9984  -27.2924 H   0  0  0  0  0  0  0  0  0  0  0  0
  1  2  1  0
  2  3  1  0
  3  4  2  0
  4  5  1  0
  5  6  2  0
  6  7  1  0
  7  8  2  0
  7  9  2  0
  7 10  1  0
 10 11  1  0
 11 12  2  0
 12 13  1  0
 13 14  1  0
 14 15  2  0
 15 16  1  0
 16 17  2  0
 17 18  1  0
 18 19  2  0
 19 20  1  0
 20 21  2  0
 21 22  1  0
 13 23  2  0
 23 24  1  0
 24 25  2  0
 25 26  1  0
  6 27  1  0
 27 28  2  0
 28 29  1  0
 29 30  1  0
 28  3  1  0
 25 11  1  0
 22 14  1  0
 21 16  1  0
  1 31  1  0
  1 32  1  0
  1 33  1  0
  4 34  1  0
  5 35  1  0
 12 36  1  0
 17 37  1  0
 18 38  1  0
 19 39  1  0
 20 40  1  0
 23 41  1  0
 24 42  1  0
 27 43  1  0
 30 44  1  0
 30 45  1  0
 30 46  1  0
M  CHG  2  10  -1  26  -1
M  END
>  <UniqueID>  (32) 
32

>  <SMILES>  (32) 
COc1ccc(S(=O)(=O)[N-]c2cc(-c3nc4ccccc4o3)ccc2[O-])cc1OC

>  <Energy>  (32) 
89.79304735861953

>  <Genealogy>  (32) 
COc1ccc(S(=O)(=O)[N-]c2cc(-c3nc4ccccc4o3)ccc2[O-])cc1OC (protonated)
COc1ccc(S(=O)(=O)[N-]c2cc(-c3nc4ccccc4o3)ccc2[O-])cc1OC (3D coordinates assigned)
COc1ccc(S(=O)(=O)[N-]c2cc(-c3nc4ccccc4o3)ccc2[O-])cc1OC (optimized conformer: 89.79304735861953 kcal/mol)

>  <smiles>  (32) 
COc1ccc(S(=O)(=O)Nc2cc(-c3nc4ccccc4o3)ccc2O)cc1OC

>  <score_type>  (32) 
oracle

>  <origin>  (32) 
adgpu

>  <m_score__min__energy>  (32) 
-12.23

>  <m_primary>  (32) 
energy

$$$$
32:0
     RDKit          3D

 51 54  0  0  0  0  0  0  0  0999 V2000
   -2.2110   20.0630  -29.2520 O   0  0  0  0  0  0  0  0  0  0  0  0
   -1.0530   20.0800  -28.7530 C   0  0  0  0  0  0  0  0  0  0  0  0
   -0.7220   20.8030  -27.6620 N   0  0  0  0  0  0  0  0  0  0  0  0
   -1.5640   21.7430  -26.9250 C   0  0  0  0  0  0  0  0  0  0  0  0
   -2.1460   22.7580  -27.8680 C   0  0  0  0  0  0  0  0  0  0  0  0
   -3.4300   22.5670  -28.4060 C   0  0  0  0  0  0  0  0  0  0  0  0
   -3.9890   23.5310  -29.2510 C   0  0  0  0  0  0  0  0  0  0  0  0
   -3.2770   24.6940  -29.5590 C   0  0  0  0  0  0  0  0  0  0  0  0
   -3.8390   25.6470  -30.4010 O   0  0  0  0  0  0  0  0  0  0  0  0
   -2.0020   24.8970  -29.0170 C   0  0  0  0  0  0  0  0  0  0  0  0
   -1.2910   26.0540  -29.3160 O   0  0  0  0  0  0  0  0  0  0  0  0
   -1.4410   23.9360  -28.1690 C   0  0  0  0  0  0  0  0  0  0  0  0
    0.5870   20.5600  -27.4480 C   0  0  0  0  0  0  0  0  0  0  0  0
    1.0130   19.6750  -28.4160 C   0  0  0  0  0  0  0  0  0  0  0  0
    2.3120   19.2010  -28.5540 O   0  0  0  0  0  0  0  0  0  0  0  0
   -0.0120   19.3670  -29.2390 N   0  0  0  0  0  0  0  0  0  0  0  0
    0.0130   18.4980  -30.3870 C   0  0  0  0  0  0  0  0  0  0  0  0
    0.3070   17.1320  -30.2370 C   0  0  0  0  0  0  0  0  0  0  0  0
    0.3370   16.2900  -31.3510 C   0  0  0  0  0  0  0  0  0  0  0  0
    0.0800   16.8020  -32.6250 C   0  0  0  0  0  0  0  0  0  0  0  0
   -0.2070   18.1640  -32.7930 C   0  0  0  0  0  0  0  0  0  0  0  0
   -0.5160   18.8160  -34.4030 S   0  0  0  0  0  0  0  0  0  0  0  0
   -0.7860   17.6810  -35.3520 O   0  0  0  0  0  0  0  0  0  0  0  0
    0.7140   19.5340  -34.8840 O   0  0  0  0  0  0  0  0  0  0  0  0
   -1.8770   19.9140  -34.4210 N   0  0  0  0  0  0  0  0  0  0  0  0
   -1.6310   21.1370  -33.6180 C   0  0  0  0  0  0  0  0  0  0  0  0
   -2.8130   21.5280  -32.7230 C   0  0  0  0  0  0  0  0  0  0  0  0
   -3.2130   20.3360  -31.8610 C   0  0  0  0  0  0  0  0  0  0  0  0
   -3.5640   19.1020  -32.7100 C   0  0  0  0  0  0  0  0  0  0  0  0
   -3.1680   19.2280  -34.1960 C   0  0  0  0  0  0  0  0  0  0  0  0
   -0.2510   19.0050  -31.6710 C   0  0  0  0  0  0  0  0  0  0  0  0
   -2.3796   21.1931  -26.4326 H   0  0  0  0  0  0  0  0  0  0  0  0
   -0.9538   22.2595  -26.1694 H   0  0  0  0  0  0  0  0  0  0  0  0
   -3.9971   21.6566  -28.1618 H   0  0  0  0  0  0  0  0  0  0  0  0
   -4.9919   23.3737  -29.6746 H   0  0  0  0  0  0  0  0  0  0  0  0
   -0.4437   24.1031  -27.7359 H   0  0  0  0  0  0  0  0  0  0  0  0
    1.2041   20.9904  -26.6455 H   0  0  0  0  0  0  0  0  0  0  0  0
    0.5146   16.7237  -29.2369 H   0  0  0  0  0  0  0  0  0  0  0  0
    0.5636   15.2210  -31.2248 H   0  0  0  0  0  0  0  0  0  0  0  0
    0.1029   16.1346  -33.4991 H   0  0  0  0  0  0  0  0  0  0  0  0
   -0.7527   20.9633  -32.9789 H   0  0  0  0  0  0  0  0  0  0  0  0
   -1.4739   21.9636  -34.3266 H   0  0  0  0  0  0  0  0  0  0  0  0
   -2.5205   22.3675  -32.0751 H   0  0  0  0  0  0  0  0  0  0  0  0
   -3.6647   21.8291  -33.3507 H   0  0  0  0  0  0  0  0  0  0  0  0
   -2.3749   20.0822  -31.1952 H   0  0  0  0  0  0  0  0  0  0  0  0
   -4.1073   20.6179  -31.2858 H   0  0  0  0  0  0  0  0  0  0  0  0
   -3.0428   18.2310  -32.2860 H   0  0  0  0  0  0  0  0  0  0  0  0
   -4.6586   18.9969  -32.6806 H   0  0  0  0  0  0  0  0  0  0  0  0
   -3.1005   18.2163  -34.6225 H   0  0  0  0  0  0  0  0  0  0  0  0
   -3.9420   19.8422  -34.6795 H   0  0  0  0  0  0  0  0  0  0  0  0
   -0.4942   20.0703  -31.7972 H   0  0  0  0  0  0  0  0  0  0  0  0
  1  2  2  0
  2  3  1  0
  3  4  1  0
  4  5  1  0
  5  6  2  0
  6  7  1  0
  7  8  2  0
  8  9  1  0
  8 10  1  0
 10 11  1  0
 10 12  2  0
  3 13  1  0
 13 14  2  0
 14 15  1  0
 14 16  1  0
 16 17  1  0
 17 18  2  0
 18 19  1  0
 19 20  2  0
 20 21  1  0
 21 22  1  0
 22 23  2  0
 22 24  2  0
 22 25  1  0
 25 26  1  0
 26 27  1  0
 27 28  1  0
 28 29  1  0
 29 30  1  0
 21 31  2  0
 16  2  1  0
 31 17  1  0
 12  5  1  0
 30 25  1  0
  4 32  1  0
  4 33  1  0
  6 34  1  0
  7 35  1  0
 12 36  1  0
 13 37  1  0
 18 38  1  0
 19 39  1  0
 20 40  1  0
 26 41  1  0
 26 42  1  0
 27 43  1  0
 27 44  1  0
 28 45  1  0
 28 46  1  0
 29 47  1  0
 29 48  1  0
 30 49  1  0
 30 50  1  0
 31 51  1  0
M  CHG  3   9  -1  11  -1  15  -1
M  END
>  <UniqueID>  (33) 
33

>  <SMILES>  (33) 
O=c1n(Cc2ccc([O-])c([O-])c2)cc([O-])n1-c1cccc(S(=O)(=O)N2CCCCC2)c1

>  <Energy>  (33) 
99.4338130259762

>  <Genealogy>  (33) 
O=c1n(Cc2ccc([O-])c([O-])c2)cc([O-])n1-c1cccc(S(=O)(=O)N2CCCCC2)c1 (protonated)
O=c1n(Cc2ccc([O-])c([O-])c2)cc([O-])n1-c1cccc(S(=O)(=O)N2CCCCC2)c1 (3D coordinates assigned)
O=c1n(Cc2ccc([O-])c([O-])c2)cc([O-])n1-c1cccc(S(=O)(=O)N2CCCCC2)c1 (nonaromatic ring conformer: 99.4338130259762 kcal/mol)

>  <smiles>  (33) 
O=c1n(Cc2ccc(O)c(O)c2)cc(O)n1-c1cccc(S(=O)(=O)N2CCCCC2)c1

>  <score_type>  (33) 
oracle

>  <origin>  (33) 
adgpu

>  <m_score__min__energy>  (33) 
-14.25

>  <m_primary>  (33) 
energy

$$$$
33:0
     RDKit          3D

 36 38  0  0  0  0  0  0  0  0999 V2000
   -9.3220   21.9060  -31.1520 C   0  0  0  0  0  0  0  0  0  0  0  0
   -7.9960   21.6130  -31.7300 N   0  0  0  0  0  0  0  0  0  0  0  0
   -7.8530   20.5550  -32.6020 C   0  0  0  0  0  0  0  0  0  0  0  0
   -8.8390   19.8320  -32.9140 O   0  0  0  0  0  0  0  0  0  0  0  0
   -6.6110   20.2560  -33.1660 C   0  0  0  0  0  0  0  0  0  0  0  0
   -5.5030   21.0270  -32.8500 C   0  0  0  0  0  0  0  0  0  0  0  0
   -5.6320   22.1020  -31.9690 C   0  0  0  0  0  0  0  0  0  0  0  0
   -4.5120   22.8830  -31.6500 C   0  0  0  0  0  0  0  0  0  0  0  0
   -4.6230   23.9690  -30.7680 C   0  0  0  0  0  0  0  0  0  0  0  0
   -3.4900   24.7840  -30.4300 N   0  0  0  0  0  0  0  0  0  0  0  0
   -2.5550   24.6540  -28.9750 S   0  0  0  0  0  0  0  0  0  0  0  0
   -3.4400   24.9190  -27.7900 O   0  0  0  0  0  0  0  0  0  0  0  0
   -1.4600   25.6820  -29.0000 O   0  0  0  0  0  0  0  0  0  0  0  0
   -1.8300   23.0530  -28.8780 C   0  0  0  0  0  0  0  0  0  0  0  0
   -1.8870   22.3090  -27.6890 C   0  0  0  0  0  0  0  0  0  0  0  0
   -1.3190   21.0330  -27.6340 C   0  0  0  0  0  0  0  0  0  0  0  0
   -0.6890   20.4960  -28.7600 C   0  0  0  0  0  0  0  0  0  0  0  0
   -0.6290   21.2350  -29.9460 C   0  0  0  0  0  0  0  0  0  0  0  0
   -1.1980   22.5090  -30.0050 C   0  0  0  0  0  0  0  0  0  0  0  0
   -5.8740   24.2650  -30.1990 C   0  0  0  0  0  0  0  0  0  0  0  0
   -6.0310   25.3310  -29.3120 O   0  0  0  0  0  0  0  0  0  0  0  0
   -6.9930   23.4890  -30.5170 C   0  0  0  0  0  0  0  0  0  0  0  0
   -6.9000   22.3940  -31.4060 C   0  0  0  0  0  0  0  0  0  0  0  0
   -9.2548   21.8912  -30.0542 H   0  0  0  0  0  0  0  0  0  0  0  0
   -9.6559   22.8996  -31.4855 H   0  0  0  0  0  0  0  0  0  0  0  0
  -10.0435   21.1456  -31.4855 H   0  0  0  0  0  0  0  0  0  0  0  0
   -6.5118   19.4090  -33.8608 H   0  0  0  0  0  0  0  0  0  0  0  0
   -4.5239   20.7920  -33.2928 H   0  0  0  0  0  0  0  0  0  0  0  0
   -3.5358   22.6419  -32.0959 H   0  0  0  0  0  0  0  0  0  0  0  0
   -2.3790   22.7304  -26.8000 H   0  0  0  0  0  0  0  0  0  0  0  0
   -1.3680   20.4502  -26.7024 H   0  0  0  0  0  0  0  0  0  0  0  0
   -0.2405   19.4926  -28.7136 H   0  0  0  0  0  0  0  0  0  0  0  0
   -0.1335   20.8126  -30.8326 H   0  0  0  0  0  0  0  0  0  0  0  0
   -1.1501   23.0878  -30.9392 H   0  0  0  0  0  0  0  0  0  0  0  0
   -5.2720   25.6790  -28.7390 H   0  0  0  0  0  0  0  0  0  0  0  0
   -7.9655   23.7358  -30.0661 H   0  0  0  0  0  0  0  0  0  0  0  0
  1  2  1  0
  2  3  1  0
  3  4  2  0
  3  5  1  0
  5  6  2  0
  6  7  1  0
  7  8  2  0
  8  9  1  0
  9 10  1  0
 10 11  1  0
 11 12  2  0
 11 13  2  0
 11 14  1  0
 14 15  2  0
 15 16  1  0
 16 17  2  0
 17 18  1  0
 18 19  2  0
  9 20  2  0
 20 21  1  0
 20 22  1  0
 22 23  2  0
 23  2  1  0
 23  7  1  0
 19 14  1  0
  1 24  1  0
  1 25  1  0
  1 26  1  0
  5 27  1  0
  6 28  1  0
  8 29  1  0
 15 30  1  0
 16 31  1  0
 17 32  1  0
 18 33  1  0
 19 34  1  0
 21 35  1  0
 22 36  1  0
M  CHG  1  10  -1
M  END
>  <UniqueID>  (34) 
34

>  <SMILES>  (34) 
Cn1c(=O)ccc2cc([N-]S(=O)(=O)c3ccccc3)c(O)cc21

>  <Energy>  (34) 
51.954649063498856

>  <Genealogy>  (34) 
Cn1c(=O)ccc2cc([N-]S(=O)(=O)c3ccccc3)c(O)cc21 (protonated)
Cn1c(=O)ccc2cc([N-]S(=O)(=O)c3ccccc3)c(O)cc21 (3D coordinates assigned)
Cn1c(=O)ccc2cc([N-]S(=O)(=O)c3ccccc3)c(O)cc21 (optimized conformer: 51.954649063498856 kcal/mol)

>  <smiles>  (34) 
Cn1c(=O)ccc2cc(NS(=O)(=O)c3ccccc3)c(O)cc21

>  <score_type>  (34) 
oracle

>  <origin>  (34) 
adgpu

>  <m_score__min__energy>  (34) 
-9.6500000000000004

>  <m_primary>  (34) 
energy

$$$$
34:0
     RDKit          3D

 48 50  0  0  0  0  0  0  0  0999 V2000
   -2.3060   21.0300  -27.2990 C   0  0  0  0  0  0  0  0  0  0  0  0
   -2.0110   22.4030  -27.8260 C   0  0  0  0  0  0  0  0  0  0  0  0
   -0.8990   23.1180  -27.3600 C   0  0  0  0  0  0  0  0  0  0  0  0
   -0.6480   24.4090  -27.8260 C   0  0  0  0  0  0  0  0  0  0  0  0
   -1.5040   25.0000  -28.7620 C   0  0  0  0  0  0  0  0  0  0  0  0
   -1.2240   26.2830  -29.2210 O   0  0  0  0  0  0  0  0  0  0  0  0
   -2.6270   24.2990  -29.2370 C   0  0  0  0  0  0  0  0  0  0  0  0
   -3.4980   24.9110  -30.2060 N   0  0  0  0  0  0  0  0  0  0  0  0
   -5.0670   24.2840  -30.5980 S   0  0  0  0  0  0  0  0  0  0  0  0
   -5.7940   25.2660  -31.4730 O   0  0  0  0  0  0  0  0  0  0  0  0
   -5.8570   24.0860  -29.3330 O   0  0  0  0  0  0  0  0  0  0  0  0
   -4.8940   22.7670  -31.4760 C   0  0  0  0  0  0  0  0  0  0  0  0
   -3.6470   22.4160  -32.0100 C   0  0  0  0  0  0  0  0  0  0  0  0
   -3.4850   21.1980  -32.6740 C   0  0  0  0  0  0  0  0  0  0  0  0
   -4.5650   20.3210  -32.8040 C   0  0  0  0  0  0  0  0  0  0  0  0
   -5.8160   20.6600  -32.2700 C   0  0  0  0  0  0  0  0  0  0  0  0
   -7.1780   19.5470  -32.4240 S   0  0  0  0  0  0  0  0  0  0  0  0
   -8.1440   20.0830  -33.4460 O   0  0  0  0  0  0  0  0  0  0  0  0
   -7.8950   19.4630  -31.1050 O   0  0  0  0  0  0  0  0  0  0  0  0
   -6.6520   17.9510  -32.8990 N   0  0  0  0  0  0  0  0  0  0  0  0
   -5.6570   17.4360  -31.9450 C   0  0  0  0  0  0  0  0  0  0  0  0
   -5.3780   15.9450  -32.2140 C   0  0  0  0  0  0  0  0  0  0  0  0
   -5.7000   15.5400  -33.6630 C   0  0  0  0  0  0  0  0  0  0  0  0
   -5.3670   16.6720  -34.6380 C   0  0  0  0  0  0  0  0  0  0  0  0
   -6.1040   17.9800  -34.2710 C   0  0  0  0  0  0  0  0  0  0  0  0
   -5.9780   21.8870  -31.6100 C   0  0  0  0  0  0  0  0  0  0  0  0
   -2.8840   23.0060  -28.7430 C   0  0  0  0  0  0  0  0  0  0  0  0
   -2.3016   21.0506  -26.1992 H   0  0  0  0  0  0  0  0  0  0  0  0
   -3.2945   20.7049  -27.6557 H   0  0  0  0  0  0  0  0  0  0  0  0
   -1.5383   20.3276  -27.6557 H   0  0  0  0  0  0  0  0  0  0  0  0
   -0.2218   22.6596  -26.6243 H   0  0  0  0  0  0  0  0  0  0  0  0
    0.2264   24.9645  -27.4561 H   0  0  0  0  0  0  0  0  0  0  0  0
   -3.1330   25.6780  -30.8150 H   0  0  0  0  0  0  0  0  0  0  0  0
   -2.7932   23.1017  -31.9059 H   0  0  0  0  0  0  0  0  0  0  0  0
   -2.5053   20.9286  -33.0954 H   0  0  0  0  0  0  0  0  0  0  0  0
   -4.4332   19.3621  -33.3267 H   0  0  0  0  0  0  0  0  0  0  0  0
   -4.7220   18.0052  -32.0536 H   0  0  0  0  0  0  0  0  0  0  0  0
   -6.0503   17.5472  -30.9238 H   0  0  0  0  0  0  0  0  0  0  0  0
   -4.3142   15.7439  -32.0191 H   0  0  0  0  0  0  0  0  0  0  0  0
   -6.0278   15.3570  -31.5492 H   0  0  0  0  0  0  0  0  0  0  0  0
   -5.1077   14.6517  -33.9279 H   0  0  0  0  0  0  0  0  0  0  0  0
   -6.7759   15.3224  -33.7343 H   0  0  0  0  0  0  0  0  0  0  0  0
   -4.2827   16.8554  -34.6140 H   0  0  0  0  0  0  0  0  0  0  0  0
   -5.6936   16.3655  -35.6427 H   0  0  0  0  0  0  0  0  0  0  0  0
   -5.3967   18.8186  -34.3514 H   0  0  0  0  0  0  0  0  0  0  0  0
   -6.9477   18.0966  -34.9671 H   0  0  0  0  0  0  0  0  0  0  0  0
   -6.9596   22.1604  -31.1956 H   0  0  0  0  0  0  0  0  0  0  0  0
   -3.7792   22.4628  -29.0799 H   0  0  0  0  0  0  0  0  0  0  0  0
  1  2  1  0
  2  3  2  0
  3  4  1  0
  4  5  2  0
  5  6  1  0
  5  7  1  0
  7  8  1  0
  8  9  1  0
  9 10  2  0
  9 11  2  0
  9 12  1  0
 12 13  2  0
 13 14  1  0
 14 15  2  0
 15 16  1  0
 16 17  1  0
 17 18  2  0
 17 19  2  0
 17 20  1  0
 20 21  1  0
 21 22  1  0
 22 23  1  0
 23 24  1  0
 24 25  1  0
 16 26  2  0
  7 27  2  0
 27  2  1  0
 26 12  1  0
 25 20  1  0
  1 28  1  0
  1 29  1  0
  1 30  1  0
  3 31  1  0
  4 32  1  0
  8 33  1  0
 13 34  1  0
 14 35  1  0
 15 36  1  0
 21 37  1  0
 21 38  1  0
 22 39  1  0
 22 40  1  0
 23 41  1  0
 23 42  1  0
 24 43  1  0
 24 44  1  0
 25 45  1  0
 25 46  1  0
 26 47  1  0
 27 48  1  0
M  CHG  1   6  -1
M  END
>  <UniqueID>  (35) 
35

>  <SMILES>  (35) 
Cc1ccc([O-])c(NS(=O)(=O)c2cccc(S(=O)(=O)N3CCCCC3)c2)c1

>  <Energy>  (35) 
53.449649191433956

>  <Genealogy>  (35) 
Cc1ccc([O-])c(NS(=O)(=O)c2cccc(S(=O)(=O)N3CCCCC3)c2)c1 (protonated)
Cc1ccc([O-])c(NS(=O)(=O)c2cccc(S(=O)(=O)N3CCCCC3)c2)c1 (3D coordinates assigned)
Cc1ccc([O-])c(NS(=O)(=O)c2cccc(S(=O)(=O)N3CCCCC3)c2)c1 (nonaromatic ring conformer: 53.449649191433956 kcal/mol)

>  <smiles>  (35) 
Cc1ccc(O)c(NS(=O)(=O)c2cccc(S(=O)(=O)N3CCCCC3)c2)c1

>  <score_type>  (35) 
oracle

>  <origin>  (35) 
adgpu

>  <m_score__min__energy>  (35) 
-13.550000000000001

>  <m_primary>  (35) 
energy

$$$$
35:0
     RDKit          3D

 45 47  0  0  0  0  0  0  0  0999 V2000
   -6.6300   24.9160  -30.4330 O   0  0  0  0  0  0  0  0  0  0  0  0
   -5.2290   24.3750  -30.4590 S   0  0  0  0  0  0  0  0  0  0  0  0
   -4.3150   25.4120  -31.0470 O   0  0  0  0  0  0  0  0  0  0  0  0
   -4.7230   24.0290  -28.8360 N   0  0  0  0  0  0  0  0  0  0  0  0
   -3.5020   23.3670  -28.4720 C   0  0  0  0  0  0  0  0  0  0  0  0
   -3.4990   22.0910  -27.8750 C   0  0  0  0  0  0  0  0  0  0  0  0
   -2.2900   21.4800  -27.5280 C   0  0  0  0  0  0  0  0  0  0  0  0
   -1.0790   22.1280  -27.7770 C   0  0  0  0  0  0  0  0  0  0  0  0
   -1.0730   23.3920  -28.3700 C   0  0  0  0  0  0  0  0  0  0  0  0
   -2.2810   24.0150  -28.7200 C   0  0  0  0  0  0  0  0  0  0  0  0
   -2.2740   25.2760  -29.3120 O   0  0  0  0  0  0  0  0  0  0  0  0
   -5.2050   22.9030  -31.4250 C   0  0  0  0  0  0  0  0  0  0  0  0
   -6.4010   22.3300  -31.8760 C   0  0  0  0  0  0  0  0  0  0  0  0
   -6.3750   21.1680  -32.6520 C   0  0  0  0  0  0  0  0  0  0  0  0
   -5.1540   20.5640  -32.9800 C   0  0  0  0  0  0  0  0  0  0  0  0
   -5.1220   19.0830  -33.9400 S   0  0  0  0  0  0  0  0  0  0  0  0
   -3.7660   18.9330  -34.5750 O   0  0  0  0  0  0  0  0  0  0  0  0
   -6.1420   19.1840  -35.0410 O   0  0  0  0  0  0  0  0  0  0  0  0
   -5.4570   17.6750  -32.9590 N   0  0  0  0  0  0  0  0  0  0  0  0
   -4.2880   16.7670  -32.9460 C   0  0  0  0  0  0  0  0  0  0  0  0
   -4.6750   15.3670  -32.4610 C   0  0  0  0  0  0  0  0  0  0  0  0
   -5.6990   14.7170  -33.4080 C   0  0  0  0  0  0  0  0  0  0  0  0
   -6.5420   15.7530  -34.1730 C   0  0  0  0  0  0  0  0  0  0  0  0
   -6.7380   17.0310  -33.3450 C   0  0  0  0  0  0  0  0  0  0  0  0
   -3.9570   21.1390  -32.5290 C   0  0  0  0  0  0  0  0  0  0  0  0
   -3.9830   22.3010  -31.7530 C   0  0  0  0  0  0  0  0  0  0  0  0
   -4.4503   21.5739  -27.6813 H   0  0  0  0  0  0  0  0  0  0  0  0
   -2.2933   20.4857  -27.0574 H   0  0  0  0  0  0  0  0  0  0  0  0
   -0.1296   21.6429  -27.5061 H   0  0  0  0  0  0  0  0  0  0  0  0
   -0.1176   23.9017  -28.5637 H   0  0  0  0  0  0  0  0  0  0  0  0
   -3.1120   25.6790  -29.7150 H   0  0  0  0  0  0  0  0  0  0  0  0
   -7.3636   22.7961  -31.6186 H   0  0  0  0  0  0  0  0  0  0  0  0
   -7.3175   20.7255  -33.0069 H   0  0  0  0  0  0  0  0  0  0  0  0
   -3.8806   16.6931  -33.9651 H   0  0  0  0  0  0  0  0  0  0  0  0
   -3.5373   17.1781  -32.2551 H   0  0  0  0  0  0  0  0  0  0  0  0
   -3.7731   14.7385  -32.4208 H   0  0  0  0  0  0  0  0  0  0  0  0
   -5.1288   15.4556  -31.4629 H   0  0  0  0  0  0  0  0  0  0  0  0
   -5.1588   14.0953  -34.1372 H   0  0  0  0  0  0  0  0  0  0  0  0
   -6.3867   14.1180  -32.7930 H   0  0  0  0  0  0  0  0  0  0  0  0
   -6.0298   16.0091  -35.1122 H   0  0  0  0  0  0  0  0  0  0  0  0
   -7.5304   15.3153  -34.3767 H   0  0  0  0  0  0  0  0  0  0  0  0
   -7.3251   17.7469  -33.9391 H   0  0  0  0  0  0  0  0  0  0  0  0
   -7.2552   16.7455  -32.4171 H   0  0  0  0  0  0  0  0  0  0  0  0
   -2.9942   20.6737  -32.7870 H   0  0  0  0  0  0  0  0  0  0  0  0
   -3.0409   22.7445  -31.3985 H   0  0  0  0  0  0  0  0  0  0  0  0
  1  2  2  0
  2  3  2  0
  2  4  1  0
  4  5  1  0
  5  6  2  0
  6  7  1  0
  7  8  2  0
  8  9  1  0
  9 10  2  0
 10 11  1  0
  2 12  1  0
 12 13  2  0
 13 14  1  0
 14 15  2  0
 15 16  1  0
 16 17  2  0
 16 18  2  0
 16 19  1  0
 19 20  1  0
 20 21  1  0
 21 22  1  0
 22 23  1  0
 23 24  1  0
 15 25  1  0
 25 26  2  0
 10  5  1  0
 26 12  1  0
 24 19  1  0
  6 27  1  0
  7 28  1  0
  8 29  1  0
  9 30  1  0
 11 31  1  0
 13 32  1  0
 14 33  1  0
 20 34  1  0
 20 35  1  0
 21 36  1  0
 21 37  1  0
 22 38  1  0
 22 39  1  0
 23 40  1  0
 23 41  1  0
 24 42  1  0
 24 43  1  0
 25 44  1  0
 26 45  1  0
M  CHG  1   4  -1
M  END
>  <UniqueID>  (36) 
36

>  <SMILES>  (36) 
O=S(=O)([N-]c1ccccc1O)c1ccc(S(=O)(=O)N2CCCCC2)cc1

>  <Energy>  (36) 
53.61045206852913

>  <Genealogy>  (36) 
O=S(=O)([N-]c1ccccc1O)c1ccc(S(=O)(=O)N2CCCCC2)cc1 (protonated)
O=S(=O)([N-]c1ccccc1O)c1ccc(S(=O)(=O)N2CCCCC2)cc1 (3D coordinates assigned)
O=S(=O)([N-]c1ccccc1O)c1ccc(S(=O)(=O)N2CCCCC2)cc1 (nonaromatic ring conformer: 53.61045206852913 kcal/mol)

>  <smiles>  (36) 
O=S(=O)(Nc1ccccc1O)c1ccc(S(=O)(=O)N2CCCCC2)cc1

>  <score_type>  (36) 
oracle

>  <origin>  (36) 
adgpu

>  <m_score__min__energy>  (36) 
-12.06

>  <m_primary>  (36) 
energy

$$$$
36:0
     RDKit          3D

 47 49  0  0  0  0  0  0  0  0999 V2000
   -9.4800   21.7470  -31.2730 C   0  0  0  0  0  0  0  0  0  0  0  0
   -8.3820   20.6770  -31.2100 C   0  0  0  0  0  0  0  0  0  0  0  0
   -8.9550   19.2900  -31.5830 C   0  0  0  0  0  0  0  0  0  0  0  0
   -7.8590   18.3870  -32.1560 C   0  0  0  0  0  0  0  0  0  0  0  0
   -7.3240   18.9310  -33.4240 N   0  0  0  0  0  0  0  0  0  0  0  0
   -5.7870   18.1890  -33.8040 S   0  0  0  0  0  0  0  0  0  0  0  0
   -5.8280   16.7310  -33.4370 O   0  0  0  0  0  0  0  0  0  0  0  0
   -5.5430   18.2870  -35.2850 O   0  0  0  0  0  0  0  0  0  0  0  0
   -4.4580   18.9680  -32.9420 C   0  0  0  0  0  0  0  0  0  0  0  0
   -3.1990   19.0890  -33.5460 C   0  0  0  0  0  0  0  0  0  0  0  0
   -2.1530   19.7240  -32.8720 C   0  0  0  0  0  0  0  0  0  0  0  0
   -2.3430   20.2300  -31.5780 C   0  0  0  0  0  0  0  0  0  0  0  0
   -1.2570   20.8990  -30.9150 N   0  0  0  0  0  0  0  0  0  0  0  0
   -1.4000   22.1150  -30.1690 C   0  0  0  0  0  0  0  0  0  0  0  0
   -2.2820   23.1350  -30.4750 C   0  0  0  0  0  0  0  0  0  0  0  0
   -2.0720   24.1010  -29.5100 C   0  0  0  0  0  0  0  0  0  0  0  0
   -2.7770   25.2950  -29.4170 O   0  0  0  0  0  0  0  0  0  0  0  0
   -1.0880   23.7370  -28.6610 N   0  0  0  0  0  0  0  0  0  0  0  0
   -0.6280   24.4760  -27.4890 C   0  0  0  0  0  0  0  0  0  0  0  0
   -0.6710   22.5200  -29.0610 C   0  0  0  0  0  0  0  0  0  0  0  0
    0.3710   21.8250  -28.4510 O   0  0  0  0  0  0  0  0  0  0  0  0
   -3.6110   20.1170  -30.9800 C   0  0  0  0  0  0  0  0  0  0  0  0
   -4.6570   19.4830  -31.6540 C   0  0  0  0  0  0  0  0  0  0  0  0
   -7.2460   20.4120  -33.4810 C   0  0  0  0  0  0  0  0  0  0  0  0
   -7.1680   21.0640  -32.0910 C   0  0  0  0  0  0  0  0  0  0  0  0
   -9.7729   22.0324  -30.2518 H   0  0  0  0  0  0  0  0  0  0  0  0
   -9.1003   22.6311  -31.8062 H   0  0  0  0  0  0  0  0  0  0  0  0
  -10.3540   21.3446  -31.8062 H   0  0  0  0  0  0  0  0  0  0  0  0
   -8.0142   20.6159  -30.1751 H   0  0  0  0  0  0  0  0  0  0  0  0
   -9.3762   18.8194  -30.6824 H   0  0  0  0  0  0  0  0  0  0  0  0
   -9.7367   19.4240  -32.3452 H   0  0  0  0  0  0  0  0  0  0  0  0
   -7.0403   18.3092  -31.4255 H   0  0  0  0  0  0  0  0  0  0  0  0
   -8.2945   17.3974  -32.3585 H   0  0  0  0  0  0  0  0  0  0  0  0
   -3.0339   18.6824  -34.5547 H   0  0  0  0  0  0  0  0  0  0  0  0
   -1.1727   19.8279  -33.3601 H   0  0  0  0  0  0  0  0  0  0  0  0
   -0.2900   20.5300  -31.0550 H   0  0  0  0  0  0  0  0  0  0  0  0
   -2.9983   23.1698  -31.3091 H   0  0  0  0  0  0  0  0  0  0  0  0
   -0.9524   23.9548  -26.5763 H   0  0  0  0  0  0  0  0  0  0  0  0
    0.4700   24.5404  -27.5038 H   0  0  0  0  0  0  0  0  0  0  0  0
   -1.0550   25.4896  -27.5038 H   0  0  0  0  0  0  0  0  0  0  0  0
    0.7830   21.0020  -28.8730 H   0  0  0  0  0  0  0  0  0  0  0  0
   -3.7799   20.5307  -29.9749 H   0  0  0  0  0  0  0  0  0  0  0  0
   -5.6411   19.3875  -31.1719 H   0  0  0  0  0  0  0  0  0  0  0  0
   -6.3485   20.6939  -34.0511 H   0  0  0  0  0  0  0  0  0  0  0  0
   -8.1679   20.7715  -33.9615 H   0  0  0  0  0  0  0  0  0  0  0  0
   -6.2452   20.7324  -31.5926 H   0  0  0  0  0  0  0  0  0  0  0  0
   -7.1730   22.1561  -32.2227 H   0  0  0  0  0  0  0  0  0  0  0  0
  1  2  1  0
  2  3  1  0
  3  4  1  0
  4  5  1  0
  5  6  1  0
  6  7  2  0
  6  8  2  0
  6  9  1  0
  9 10  2  0
 10 11  1  0
 11 12  2  0
 12 13  1  0
 13 14  1  0
 14 15  1  0
 15 16  2  0
 16 17  1  0
 16 18  1  0
 18 19  1  0
 18 20  1  0
 20 21  1  0
 12 22  1  0
 22 23  2  0
  5 24  1  0
 24 25  1  0
 25  2  1  0
 23  9  1  0
 20 14  2  0
  1 26  1  0
  1 27  1  0
  1 28  1  0
  2 29  1  0
  3 30  1  0
  3 31  1  0
  4 32  1  0
  4 33  1  0
 10 34  1  0
 11 35  1  0
 13 36  1  0
 15 37  1  0
 19 38  1  0
 19 39  1  0
 19 40  1  0
 21 41  1  0
 22 42  1  0
 23 43  1  0
 24 44  1  0
 24 45  1  0
 25 46  1  0
 25 47  1  0
M  CHG  1  17  -1
M  END
>  <UniqueID>  (37) 
37

>  <SMILES>  (37) 
CC1CCN(S(=O)(=O)c2ccc(Nc3cc([O-])n(C)c3O)cc2)CC1

>  <Energy>  (37) 
85.19582006099405

>  <Genealogy>  (37) 
CC1CCN(S(=O)(=O)c2ccc(Nc3cc([O-])n(C)c3O)cc2)CC1 (protonated)
CC1CCN(S(=O)(=O)c2ccc(Nc3cc([O-])n(C)c3O)cc2)CC1 (3D coordinates assigned)
CC1CCN(S(=O)(=O)c2ccc(Nc3cc([O-])n(C)c3O)cc2)CC1 (nonaromatic ring conformer: 85.19582006099405 kcal/mol)

>  <smiles>  (37) 
CC1CCN(S(=O)(=O)c2ccc(Nc3cc(O)n(C)c3O)cc2)CC1

>  <score_type>  (37) 
oracle

>  <origin>  (37) 
adgpu

>  <m_score__min__energy>  (37) 
-10.369999999999999

>  <m_primary>  (37) 
energy

$$$$
37:0
     RDKit          3D

 44 46  0  0  0  0  0  0  0  0999 V2000
   -0.5050   22.8320  -24.9400 C   0  0  0  0  0  0  0  0  0  0  0  0
   -0.7120   23.8740  -26.0000 C   0  0  0  0  0  0  0  0  0  0  0  0
   -0.2060   25.1700  -25.8240 C   0  0  0  0  0  0  0  0  0  0  0  0
   -0.3720   26.1310  -26.8230 C   0  0  0  0  0  0  0  0  0  0  0  0
   -1.0260   25.8060  -28.0130 C   0  0  0  0  0  0  0  0  0  0  0  0
   -1.2180   26.7960  -28.9710 O   0  0  0  0  0  0  0  0  0  0  0  0
   -1.4980   24.4930  -28.2260 C   0  0  0  0  0  0  0  0  0  0  0  0
   -2.1410   24.0980  -29.5010 C   0  0  0  0  0  0  0  0  0  0  0  0
   -1.7320   23.0730  -30.1060 O   0  0  0  0  0  0  0  0  0  0  0  0
   -3.2340   24.8400  -30.0610 N   0  0  0  0  0  0  0  0  0  0  0  0
   -4.4930   24.2820  -30.4630 C   0  0  0  0  0  0  0  0  0  0  0  0
   -5.6890   24.6220  -29.8080 C   0  0  0  0  0  0  0  0  0  0  0  0
   -6.8890   24.0090  -30.1740 C   0  0  0  0  0  0  0  0  0  0  0  0
   -6.9100   23.0520  -31.1970 C   0  0  0  0  0  0  0  0  0  0  0  0
   -8.4010   22.1840  -31.5680 S   0  0  0  0  0  0  0  0  0  0  0  0
   -9.3370   23.0960  -32.3140 O   0  0  0  0  0  0  0  0  0  0  0  0
   -9.0710   21.7770  -30.2850 O   0  0  0  0  0  0  0  0  0  0  0  0
   -8.0820   20.7600  -32.5330 N   0  0  0  0  0  0  0  0  0  0  0  0
   -6.8890   20.0530  -32.0290 C   0  0  0  0  0  0  0  0  0  0  0  0
   -6.8970   18.5830  -32.4790 C   0  0  0  0  0  0  0  0  0  0  0  0
   -8.0210   17.8420  -32.0170 O   0  0  0  0  0  0  0  0  0  0  0  0
   -9.1570   18.6460  -31.7280 C   0  0  0  0  0  0  0  0  0  0  0  0
   -9.2730   19.8880  -32.6320 C   0  0  0  0  0  0  0  0  0  0  0  0
   -5.7280   22.7610  -31.8920 C   0  0  0  0  0  0  0  0  0  0  0  0
   -4.5280   23.3790  -31.5320 C   0  0  0  0  0  0  0  0  0  0  0  0
   -1.3480   23.5390  -27.2050 C   0  0  0  0  0  0  0  0  0  0  0  0
   -0.5972   23.2959  -23.9469 H   0  0  0  0  0  0  0  0  0  0  0  0
   -1.2640   22.0432  -25.0481 H   0  0  0  0  0  0  0  0  0  0  0  0
    0.4979   22.3932  -25.0481 H   0  0  0  0  0  0  0  0  0  0  0  0
    0.3235   25.4303  -24.8956 H   0  0  0  0  0  0  0  0  0  0  0  0
    0.0145   27.1497  -26.6718 H   0  0  0  0  0  0  0  0  0  0  0  0
   -5.6798   25.3733  -29.0046 H   0  0  0  0  0  0  0  0  0  0  0  0
   -7.8217   24.2786  -29.6570 H   0  0  0  0  0  0  0  0  0  0  0  0
   -5.9860   20.5451  -32.4194 H   0  0  0  0  0  0  0  0  0  0  0  0
   -6.8970   20.0860  -30.9295 H   0  0  0  0  0  0  0  0  0  0  0  0
   -6.8945   18.5579  -33.5787 H   0  0  0  0  0  0  0  0  0  0  0  0
   -6.0040   18.1118  -32.0424 H   0  0  0  0  0  0  0  0  0  0  0  0
  -10.0608   18.0330  -31.8599 H   0  0  0  0  0  0  0  0  0  0  0  0
   -9.0460   19.0057  -30.6944 H   0  0  0  0  0  0  0  0  0  0  0  0
   -9.3858   19.5583  -33.6754 H   0  0  0  0  0  0  0  0  0  0  0  0
  -10.1468   20.4683  -32.3008 H   0  0  0  0  0  0  0  0  0  0  0  0
   -5.7454   22.0426  -32.7248 H   0  0  0  0  0  0  0  0  0  0  0  0
   -3.6072   23.1552  -32.0906 H   0  0  0  0  0  0  0  0  0  0  0  0
   -1.7332   22.5192  -27.3520 H   0  0  0  0  0  0  0  0  0  0  0  0
  1  2  1  0
  2  3  2  0
  3  4  1  0
  4  5  2  0
  5  6  1  0
  5  7  1  0
  7  8  1  0
  8  9  2  0
  8 10  1  0
 10 11  1  0
 11 12  2  0
 12 13  1  0
 13 14  2  0
 14 15  1  0
 15 16  2  0
 15 17  2  0
 15 18  1  0
 18 19  1  0
 19 20  1  0
 20 21  1  0
 21 22  1  0
 22 23  1  0
 14 24  1  0
 24 25  2  0
  7 26  2  0
 26  2  1  0
 25 11  1  0
 23 18  1  0
  1 27  1  0
  1 28  1  0
  1 29  1  0
  3 30  1  0
  4 31  1  0
 12 32  1  0
 13 33  1  0
 19 34  1  0
 19 35  1  0
 20 36  1  0
 20 37  1  0
 22 38  1  0
 22 39  1  0
 23 40  1  0
 23 41  1  0
 24 42  1  0
 25 43  1  0
 26 44  1  0
M  CHG  2   6  -1  10  -1
M  END
>  <UniqueID>  (38) 
38

>  <SMILES>  (38) 
Cc1ccc([O-])c(C(=O)[N-]c2ccc(S(=O)(=O)N3CCOCC3)cc2)c1

>  <Energy>  (38) 
63.88329358117833

>  <Genealogy>  (38) 
Cc1ccc([O-])c(C(=O)[N-]c2ccc(S(=O)(=O)N3CCOCC3)cc2)c1 (protonated)
Cc1ccc([O-])c(C(=O)[N-]c2ccc(S(=O)(=O)N3CCOCC3)cc2)c1 (3D coordinates assigned)
Cc1ccc([O-])c(C(=O)[N-]c2ccc(S(=O)(=O)N3CCOCC3)cc2)c1 (nonaromatic ring conformer: 63.88329358117833 kcal/mol)

>  <smiles>  (38) 
Cc1ccc(O)c(C(=O)Nc2ccc(S(=O)(=O)N3CCOCC3)cc2)c1

>  <score_type>  (38) 
oracle

>  <origin>  (38) 
adgpu

>  <m_score__min__energy>  (38) 
-13.34

>  <m_primary>  (38) 
energy

$$$$
38:0
     RDKit          3D

 45 47  0  0  0  0  0  0  0  0999 V2000
   -2.4160   25.2740  -29.3420 N   0  0  0  0  0  0  0  0  0  0  0  0
   -3.4560   24.5940  -30.0420 C   0  0  0  0  0  0  0  0  0  0  0  0
   -4.1960   25.2350  -30.8360 O   0  0  0  0  0  0  0  0  0  0  0  0
   -3.6890   23.1220  -29.8220 C   0  0  2  0  0  0  0  0  0  0  0  0
   -2.3860   22.3330  -30.0750 C   0  0  0  0  0  0  0  0  0  0  0  0
   -2.6930   20.8570  -30.3610 C   0  0  0  0  0  0  0  0  0  0  0  0
   -3.5550   20.6660  -31.5610 N   0  0  2  0  0  0  0  0  0  0  0  0
   -2.6050   20.1650  -32.9400 S   0  0  0  0  0  0  0  0  0  0  0  0
   -3.3980   20.3370  -34.2060 O   0  0  0  0  0  0  0  0  0  0  0  0
   -1.3690   21.0170  -33.0310 O   0  0  0  0  0  0  0  0  0  0  0  0
   -2.1240   18.4780  -32.7880 C   0  0  0  0  0  0  0  0  0  0  0  0
   -1.0050   18.0270  -32.1160 C   0  0  0  0  0  0  0  0  0  0  0  0
   -0.9450   16.6840  -32.1770 N   0  0  0  0  0  0  0  0  0  0  0  0
   -2.0140   16.2650  -32.8800 C   0  0  0  0  0  0  0  0  0  0  0  0
   -2.7680   17.3520  -33.2790 C   0  0  0  0  0  0  0  0  0  0  0  0
   -4.2690   17.2610  -34.1900 S   0  0  0  0  0  0  0  0  0  0  0  0
   -4.0480   17.7940  -35.5780 O   0  0  0  0  0  0  0  0  0  0  0  0
   -4.7480   15.8390  -34.2820 O   0  0  0  0  0  0  0  0  0  0  0  0
   -5.5050   18.2130  -33.3720 C   0  0  0  0  0  0  0  0  0  0  0  0
   -6.0810   19.3140  -34.0200 C   0  0  0  0  0  0  0  0  0  0  0  0
   -7.0780   20.0620  -33.3860 C   0  0  0  0  0  0  0  0  0  0  0  0
   -7.5090   19.7090  -32.1020 C   0  0  0  0  0  0  0  0  0  0  0  0
   -8.7610   20.6460  -31.3080 Cl  0  0  0  0  0  0  0  0  0  0  0  0
   -6.9420   18.6060  -31.4550 C   0  0  0  0  0  0  0  0  0  0  0  0
   -5.9440   17.8570  -32.0880 C   0  0  0  0  0  0  0  0  0  0  0  0
   -4.3670   21.8540  -31.9250 C   0  0  0  0  0  0  0  0  0  0  0  0
   -4.8680   22.6000  -30.6820 C   0  0  0  0  0  0  0  0  0  0  0  0
   -1.5960   25.6700  -29.8520 H   0  0  0  0  0  0  0  0  0  0  0  0
   -3.9777   22.9650  -28.7722 H   0  0  0  0  0  0  0  0  0  0  0  0
   -1.8630   22.7672  -30.9398 H   0  0  0  0  0  0  0  0  0  0  0  0
   -1.7545   22.3954  -29.1765 H   0  0  0  0  0  0  0  0  0  0  0  0
   -1.7434   20.3260  -30.5229 H   0  0  0  0  0  0  0  0  0  0  0  0
   -3.2414   20.4600  -29.4941 H   0  0  0  0  0  0  0  0  0  0  0  0
   -4.2210   19.8870  -31.3530 H   0  0  0  0  0  0  0  0  0  0  0  0
   -0.2719   18.6698  -31.6067 H   0  0  0  0  0  0  0  0  0  0  0  0
   -0.2090   16.0780  -31.7520 H   0  0  0  0  0  0  0  0  0  0  0  0
   -2.2516   15.2145  -33.1033 H   0  0  0  0  0  0  0  0  0  0  0  0
   -5.7476   19.5908  -35.0311 H   0  0  0  0  0  0  0  0  0  0  0  0
   -7.5238   20.9283  -33.8967 H   0  0  0  0  0  0  0  0  0  0  0  0
   -7.2814   18.3269  -30.4466 H   0  0  0  0  0  0  0  0  0  0  0  0
   -5.5030   16.9878  -31.5781 H   0  0  0  0  0  0  0  0  0  0  0  0
   -3.7495   22.5374  -32.5264 H   0  0  0  0  0  0  0  0  0  0  0  0
   -5.2426   21.5098  -32.4950 H   0  0  0  0  0  0  0  0  0  0  0  0
   -5.4837   23.4539  -31.0011 H   0  0  0  0  0  0  0  0  0  0  0  0
   -5.4576   21.8996  -30.0723 H   0  0  0  0  0  0  0  0  0  0  0  0
  1  2  1  0
  2  3  2  0
  2  4  1  0
  4  5  1  0
  5  6  1  0
  6  7  1  0
  7  8  1  0
  8  9  2  0
  8 10  2  0
  8 11  1  0
 11 12  2  0
 12 13  1  0
 13 14  1  0
 14 15  2  0
 15 16  1  0
 16 17  2  0
 16 18  2  0
 16 19  1  0
 19 20  2  0
 20 21  1  0
 21 22  2  0
 22 23  1  0
 22 24  1  0
 24 25  2  0
  7 26  1  0
 26 27  1  0
 27  4  1  0
 15 11  1  0
 25 19  1  0
  1 28  1  0
  4 29  1  1
  5 30  1  0
  5 31  1  0
  6 32  1  0
  6 33  1  0
  7 34  1  1
 12 35  1  0
 13 36  1  0
 14 37  1  0
 20 38  1  0
 21 39  1  0
 24 40  1  0
 25 41  1  0
 26 42  1  0
 26 43  1  0
 27 44  1  0
 27 45  1  0
M  CHG  2   1  -1   7   1
M  END
>  <UniqueID>  (39) 
39

>  <SMILES>  (39) 
[NH-]C(=O)C1CC[NH+](S(=O)(=O)c2c[nH]cc2S(=O)(=O)c2ccc(Cl)cc2)CC1

>  <Energy>  (39) 
79.39087061812656

>  <Genealogy>  (39) 
[NH-]C(=O)C1CC[NH+](S(=O)(=O)c2c[nH]cc2S(=O)(=O)c2ccc(Cl)cc2)CC1 (protonated)
[NH-]C(=O)C1CC[NH+](S(=O)(=O)c2c[nH]cc2S(=O)(=O)c2ccc(Cl)cc2)CC1 (3D coordinates assigned)
[NH-]C(=O)C1CC[NH+](S(=O)(=O)c2c[nH]cc2S(=O)(=O)c2ccc(Cl)cc2)CC1 (nonaromatic ring conformer: 79.39087061812656 kcal/mol)

>  <smiles>  (39) 
NC(=O)C1CCN(S(=O)(=O)c2c[nH]cc2S(=O)(=O)c2ccc(Cl)cc2)CC1

>  <score_type>  (39) 
oracle

>  <origin>  (39) 
adgpu

>  <m_score__min__energy>  (39) 
-10.630000000000001

>  <m_primary>  (39) 
energy

$$$$
39:0
     RDKit          3D

 32 33  0  0  0  0  0  0  0  0999 V2000
   -9.1350   18.5960  -31.9650 C   0  0  0  0  0  0  0  0  0  0  0  0
   -8.3950   19.9000  -31.9910 C   0  0  0  0  0  0  0  0  0  0  0  0
   -7.1490   19.9940  -32.6300 C   0  0  0  0  0  0  0  0  0  0  0  0
   -6.4760   21.2180  -32.6860 C   0  0  0  0  0  0  0  0  0  0  0  0
   -7.0500   22.3690  -32.1250 C   0  0  0  0  0  0  0  0  0  0  0  0
   -6.3120   23.6750  -32.1530 C   0  0  0  0  0  0  0  0  0  0  0  0
   -4.8910   23.4270  -31.9240 N   0  0  0  0  0  0  0  0  0  0  0  0
   -4.3780   24.2110  -30.4620 S   0  0  0  0  0  0  0  0  0  0  0  0
   -4.1450   25.6670  -30.7480 O   0  0  0  0  0  0  0  0  0  0  0  0
   -5.4560   24.1050  -29.4190 O   0  0  0  0  0  0  0  0  0  0  0  0
   -2.8730   23.4940  -29.8750 C   0  0  0  0  0  0  0  0  0  0  0  0
   -2.7330   22.0970  -29.8870 C   0  0  0  0  0  0  0  0  0  0  0  0
   -1.5570   21.5000  -29.4170 C   0  0  0  0  0  0  0  0  0  0  0  0
   -1.4260   20.1170  -29.4350 O   0  0  0  0  0  0  0  0  0  0  0  0
   -0.5180   22.2940  -28.9270 C   0  0  0  0  0  0  0  0  0  0  0  0
   -0.6520   23.6840  -28.9040 C   0  0  0  0  0  0  0  0  0  0  0  0
   -1.8240   24.2880  -29.3700 C   0  0  0  0  0  0  0  0  0  0  0  0
   -1.9380   25.6730  -29.3200 O   0  0  0  0  0  0  0  0  0  0  0  0
   -8.2980   22.2750  -31.4880 C   0  0  0  0  0  0  0  0  0  0  0  0
   -8.9710   21.0510  -31.4310 C   0  0  0  0  0  0  0  0  0  0  0  0
   -9.3071   18.2928  -30.9217 H   0  0  0  0  0  0  0  0  0  0  0  0
  -10.1015   18.7126  -32.4771 H   0  0  0  0  0  0  0  0  0  0  0  0
   -8.5392   17.8261  -32.4771 H   0  0  0  0  0  0  0  0  0  0  0  0
   -6.7000   19.1007  -33.0887 H   0  0  0  0  0  0  0  0  0  0  0  0
   -5.4913   21.2792  -33.1724 H   0  0  0  0  0  0  0  0  0  0  0  0
   -6.4488   24.1542  -33.1336 H   0  0  0  0  0  0  0  0  0  0  0  0
   -6.7033   24.3382  -31.3675 H   0  0  0  0  0  0  0  0  0  0  0  0
   -3.5515   21.4683  -30.2676 H   0  0  0  0  0  0  0  0  0  0  0  0
    0.4062   21.8245  -28.5590 H   0  0  0  0  0  0  0  0  0  0  0  0
    0.1683   24.3067  -28.5175 H   0  0  0  0  0  0  0  0  0  0  0  0
   -8.7482   23.1689  -31.0316 H   0  0  0  0  0  0  0  0  0  0  0  0
   -9.9560   20.9897  -30.9453 H   0  0  0  0  0  0  0  0  0  0  0  0
  1  2  1  0
  2  3  2  0
  3  4  1  0
  4  5  2  0
  5  6  1  0
  6  7  1  0
  7  8  1  0
  8  9  2  0
  8 10  2  0
  8 11  1  0
 11 12  2  0
 12 13  1  0
 13 14  1  0
 13 15  2  0
 15 16  1  0
 16 17  2  0
 17 18  1  0
  5 19  1  0
 19 20  2  0
 20  2  1  0
 17 11  1  0
  1 21  1  0
  1 22  1  0
  1 23  1  0
  3 24  1  0
  4 25  1  0
  6 26  1  0
  6 27  1  0
 12 28  1  0
 15 29  1  0
 16 30  1  0
 19 31  1  0
 20 32  1  0
M  CHG  3   7  -1  14  -1  18  -1
M  END
>  <UniqueID>  (40) 
40

>  <SMILES>  (40) 
Cc1ccc(C[N-]S(=O)(=O)c2cc([O-])ccc2[O-])cc1

>  <Energy>  (40) 
30.742329537916945

>  <Genealogy>  (40) 
Cc1ccc(C[N-]S(=O)(=O)c2cc([O-])ccc2[O-])cc1 (protonated)
Cc1ccc(C[N-]S(=O)(=O)c2cc([O-])ccc2[O-])cc1 (3D coordinates assigned)
Cc1ccc(C[N-]S(=O)(=O)c2cc([O-])ccc2[O-])cc1 (optimized conformer: 30.742329537916945 kcal/mol)

>  <smiles>  (40) 
Cc1ccc(CNS(=O)(=O)c2cc(O)ccc2O)cc1

>  <score_type>  (40) 
oracle

>  <origin>  (40) 
adgpu

>  <m_score__min__energy>  (40) 
-11.720000000000001

>  <m_primary>  (40) 
energy

$$$$
40:0
     RDKit          3D

 40 43  0  0  0  0  0  0  0  0999 V2000
   -9.4470   18.9180  -33.1170 O   0  0  0  0  0  0  0  0  0  0  0  0
   -8.9890   19.9820  -32.6240 C   0  0  0  0  0  0  0  0  0  0  0  0
   -9.8480   20.8900  -31.9950 C   0  0  0  0  0  0  0  0  0  0  0  0
   -9.3270   22.0690  -31.4560 C   0  0  0  0  0  0  0  0  0  0  0  0
   -7.9540   22.3280  -31.5450 C   0  0  0  0  0  0  0  0  0  0  0  0
   -7.3970   23.4980  -31.0100 C   0  0  0  0  0  0  0  0  0  0  0  0
   -6.0160   23.7260  -31.1060 C   0  0  0  0  0  0  0  0  0  0  0  0
   -5.2960   25.1680  -30.3950 S   0  0  0  0  0  0  0  0  0  0  0  0
   -5.7570   25.3560  -28.9770 O   0  0  0  0  0  0  0  0  0  0  0  0
   -5.7060   26.3660  -31.2060 O   0  0  0  0  0  0  0  0  0  0  0  0
   -3.5670   25.0310  -30.4150 N   0  0  0  0  0  0  0  0  0  0  0  0
   -2.7850   24.2780  -29.4760 C   0  0  0  0  0  0  0  0  0  0  0  0
   -3.1520   22.9800  -29.0740 C   0  0  0  0  0  0  0  0  0  0  0  0
   -2.3480   22.2550  -28.1830 C   0  0  0  0  0  0  0  0  0  0  0  0
   -1.1890   22.8500  -27.6440 C   0  0  0  0  0  0  0  0  0  0  0  0
   -0.8250   24.1430  -28.0470 C   0  0  0  0  0  0  0  0  0  0  0  0
   -1.6180   24.8520  -28.9540 C   0  0  0  0  0  0  0  0  0  0  0  0
   -1.2370   26.1330  -29.3390 O   0  0  0  0  0  0  0  0  0  0  0  0
   -0.2780   22.0760  -26.7200 C   0  0  0  0  0  0  0  0  0  0  0  0
   -0.9640   20.9470  -26.0750 N   0  0  0  0  0  0  0  0  0  0  0  0
   -1.6420   20.1100  -27.0730 C   0  0  0  0  0  0  0  0  0  0  0  0
   -2.7830   20.8790  -27.7470 C   0  0  0  0  0  0  0  0  0  0  0  0
   -5.1950   22.7860  -31.7440 C   0  0  0  0  0  0  0  0  0  0  0  0
   -5.7450   21.6190  -32.2830 C   0  0  0  0  0  0  0  0  0  0  0  0
   -7.1210   21.3830  -32.1850 C   0  0  0  0  0  0  0  0  0  0  0  0
   -7.6570   20.2450  -32.7040 N   0  0  0  0  0  0  0  0  0  0  0  0
  -10.9250   20.6772  -31.9254 H   0  0  0  0  0  0  0  0  0  0  0  0
   -9.9937   22.7918  -30.9630 H   0  0  0  0  0  0  0  0  0  0  0  0
   -8.0431   24.2377  -30.5147 H   0  0  0  0  0  0  0  0  0  0  0  0
   -4.0778   22.5304  -29.4623 H   0  0  0  0  0  0  0  0  0  0  0  0
    0.0908   24.6024  -27.6467 H   0  0  0  0  0  0  0  0  0  0  0  0
    0.5700   21.6878  -27.3032 H   0  0  0  0  0  0  0  0  0  0  0  0
    0.0584   22.7614  -25.9282 H   0  0  0  0  0  0  0  0  0  0  0  0
   -1.6740   21.3200  -25.4010 H   0  0  0  0  0  0  0  0  0  0  0  0
   -0.9145   19.8011  -27.8381 H   0  0  0  0  0  0  0  0  0  0  0  0
   -2.0631   19.2295  -26.5657 H   0  0  0  0  0  0  0  0  0  0  0  0
   -3.1199   20.3155  -28.6296 H   0  0  0  0  0  0  0  0  0  0  0  0
   -3.5977   20.9927  -27.0167 H   0  0  0  0  0  0  0  0  0  0  0  0
   -4.1128   22.9673  -31.8210 H   0  0  0  0  0  0  0  0  0  0  0  0
   -5.0959   20.8860  -32.7843 H   0  0  0  0  0  0  0  0  0  0  0  0
  1  2  2  0
  2  3  1  0
  3  4  2  0
  4  5  1  0
  5  6  2  0
  6  7  1  0
  7  8  1  0
  8  9  2  0
  8 10  2  0
  8 11  1  0
 11 12  1  0
 12 13  2  0
 13 14  1  0
 14 15  2  0
 15 16  1  0
 16 17  2  0
 17 18  1  0
 15 19  1  0
 19 20  1  0
 20 21  1  0
 21 22  1  0
  7 23  2  0
 23 24  1  0
 24 25  2  0
 25 26  1  0
 26  2  1  0
 25  5  1  0
 17 12  1  0
 22 14  1  0
  3 27  1  0
  4 28  1  0
  6 29  1  0
 13 30  1  0
 16 31  1  0
 19 32  1  0
 19 33  1  0
 20 34  1  0
 21 35  1  0
 21 36  1  0
 22 37  1  0
 22 38  1  0
 23 39  1  0
 24 40  1  0
M  CHG  3  11  -1  18  -1  26  -1
M  END
>  <UniqueID>  (41) 
41

>  <SMILES>  (41) 
O=c1ccc2cc(S(=O)(=O)[N-]c3cc4c(cc3[O-])CNCC4)ccc2[n-]1

>  <Energy>  (41) 
52.22027870130556

>  <Genealogy>  (41) 
O=c1ccc2cc(S(=O)(=O)[N-]c3cc4c(cc3[O-])CNCC4)ccc2[n-]1 (protonated)
O=c1ccc2cc(S(=O)(=O)[N-]c3cc4c(cc3[O-])CNCC4)ccc2[n-]1 (3D coordinates assigned)
O=c1ccc2cc(S(=O)(=O)[N-]c3cc4c(cc3[O-])CNCC4)ccc2[n-]1 (nonaromatic ring conformer: 52.22027870130556 kcal/mol)

>  <smiles>  (41) 
O=c1ccc2cc(S(=O)(=O)Nc3cc4c(cc3O)CNCC4)ccc2[nH]1

>  <score_type>  (41) 
oracle

>  <origin>  (41) 
adgpu

>  <m_score__min__energy>  (41) 
-14.119999999999999

>  <m_primary>  (41) 
energy

$$$$
41:0
     RDKit          3D

 40 42  0  0  0  0  0  0  0  0999 V2000
   -9.1630   20.5170  -32.0060 C   0  0  0  0  0  0  0  0  0  0  0  0
   -8.7420   19.0830  -32.0880 C   0  0  0  0  0  0  0  0  0  0  0  0
   -9.2420   18.2450  -31.2930 O   0  0  0  0  0  0  0  0  0  0  0  0
   -7.7910   18.6390  -33.0610 N   0  0  0  0  0  0  0  0  0  0  0  0
   -6.7530   17.6500  -32.7900 C   0  0  0  0  0  0  0  0  0  0  0  0
   -5.6650   18.2370  -31.8820 C   0  0  0  0  0  0  0  0  0  0  0  0
   -4.6230   19.0000  -32.6580 C   0  0  0  0  0  0  0  0  0  0  0  0
   -4.6540   20.3480  -33.0220 C   0  0  0  0  0  0  0  0  0  0  0  0
   -6.0170   21.4880  -32.7670 S   0  0  0  0  0  0  0  0  0  0  0  0
   -5.0450   22.6240  -31.7800 C   0  0  0  0  0  0  0  0  0  0  0  0
   -3.7820   22.2440  -31.3100 C   0  0  0  0  0  0  0  0  0  0  0  0
   -3.0210   23.1380  -30.5520 C   0  0  0  0  0  0  0  0  0  0  0  0
   -3.5120   24.4170  -30.2700 C   0  0  0  0  0  0  0  0  0  0  0  0
   -2.7440   25.2940  -29.5120 O   0  0  0  0  0  0  0  0  0  0  0  0
   -4.7720   24.8070  -30.7540 C   0  0  0  0  0  0  0  0  0  0  0  0
   -5.2850   26.0770  -30.4940 O   0  0  0  0  0  0  0  0  0  0  0  0
   -5.5330   23.9070  -31.5080 C   0  0  0  0  0  0  0  0  0  0  0  0
   -3.5360   20.6890  -33.7010 N   0  0  0  0  0  0  0  0  0  0  0  0
   -2.7980   19.5710  -33.7800 C   0  0  0  0  0  0  0  0  0  0  0  0
   -1.5650   19.4200  -34.4130 C   0  0  0  0  0  0  0  0  0  0  0  0
   -0.9750   18.1440  -34.4100 C   0  0  0  0  0  0  0  0  0  0  0  0
   -1.6280   17.0550  -33.7900 C   0  0  0  0  0  0  0  0  0  0  0  0
   -2.8740   17.2350  -33.1630 C   0  0  0  0  0  0  0  0  0  0  0  0
   -3.4290   18.5170  -33.1660 C   0  0  0  0  0  0  0  0  0  0  0  0
   -9.2501   20.8138  -30.9504 H   0  0  0  0  0  0  0  0  0  0  0  0
   -8.4124   21.1486  -32.5037 H   0  0  0  0  0  0  0  0  0  0  0  0
  -10.1359   20.6425  -32.5037 H   0  0  0  0  0  0  0  0  0  0  0  0
   -7.2056   16.7789  -32.2937 H   0  0  0  0  0  0  0  0  0  0  0  0
   -6.2931   17.3513  -33.7435 H   0  0  0  0  0  0  0  0  0  0  0  0
   -6.1372   18.9185  -31.1591 H   0  0  0  0  0  0  0  0  0  0  0  0
   -5.1617   17.4002  -31.3755 H   0  0  0  0  0  0  0  0  0  0  0  0
   -3.3889   21.2421  -31.5373 H   0  0  0  0  0  0  0  0  0  0  0  0
   -2.0327   22.8349  -30.1759 H   0  0  0  0  0  0  0  0  0  0  0  0
   -5.0980   26.5650  -29.6260 H   0  0  0  0  0  0  0  0  0  0  0  0
   -6.5197   24.2094  -31.8888 H   0  0  0  0  0  0  0  0  0  0  0  0
   -3.3090   21.6250  -34.1070 H   0  0  0  0  0  0  0  0  0  0  0  0
   -1.0692   20.2728  -34.8997 H   0  0  0  0  0  0  0  0  0  0  0  0
    0.0014   17.9923  -34.8934 H   0  0  0  0  0  0  0  0  0  0  0  0
   -1.1588   16.0601  -33.7978 H   0  0  0  0  0  0  0  0  0  0  0  0
   -3.3953   16.3925  -32.6851 H   0  0  0  0  0  0  0  0  0  0  0  0
  1  2  1  0
  2  3  2  0
  2  4  1  0
  4  5  1  0
  5  6  1  0
  6  7  1  0
  7  8  2  0
  8  9  1  0
  9 10  1  0
 10 11  2  0
 11 12  1  0
 12 13  2  0
 13 14  1  0
 13 15  1  0
 15 16  1  0
 15 17  2  0
  8 18  1  0
 18 19  1  0
 19 20  2  0
 20 21  1  0
 21 22  2  0
 22 23  1  0
 23 24  2  0
 24  7  1  0
 17 10  1  0
 24 19  1  0
  1 25  1  0
  1 26  1  0
  1 27  1  0
  5 28  1  0
  5 29  1  0
  6 30  1  0
  6 31  1  0
 11 32  1  0
 12 33  1  0
 16 34  1  0
 17 35  1  0
 18 36  1  0
 20 37  1  0
 21 38  1  0
 22 39  1  0
 23 40  1  0
M  CHG  2   4  -1  14  -1
M  END
>  <UniqueID>  (42) 
42

>  <SMILES>  (42) 
CC(=O)[N-]CCc1c(Sc2ccc([O-])c(O)c2)[nH]c2ccccc12

>  <Energy>  (42) 
63.863931357635536

>  <Genealogy>  (42) 
CC(=O)[N-]CCc1c(Sc2ccc([O-])c(O)c2)[nH]c2ccccc12 (protonated)
CC(=O)[N-]CCc1c(Sc2ccc([O-])c(O)c2)[nH]c2ccccc12 (3D coordinates assigned)
CC(=O)[N-]CCc1c(Sc2ccc([O-])c(O)c2)[nH]c2ccccc12 (optimized conformer: 63.863931357635536 kcal/mol)

>  <smiles>  (42) 
CC(=O)NCCc1c(Sc2ccc(O)c(O)c2)[nH]c2ccccc12

>  <score_type>  (42) 
oracle

>  <origin>  (42) 
adgpu

>  <m_score__min__energy>  (42) 
-10.279999999999999

>  <m_primary>  (42) 
energy

$$$$
42:0
     RDKit          3D

 53 57  0  0  0  0  0  0  0  0999 V2000
   -4.0820   14.6270  -34.9060 N   0  0  0  0  0  0  0  0  0  0  0  0
   -4.6660   15.5370  -34.4930 C   0  0  0  0  0  0  0  0  0  0  0  0
   -5.3960   16.6660  -33.9760 C   0  0  0  0  0  0  0  0  0  0  0  0
   -6.4830   16.4590  -33.1200 C   0  0  0  0  0  0  0  0  0  0  0  0
   -7.2010   17.5500  -32.6250 C   0  0  0  0  0  0  0  0  0  0  0  0
   -6.8370   18.8600  -32.9790 C   0  0  0  0  0  0  0  0  0  0  0  0
   -7.6450   19.9910  -32.4790 C   0  0  0  0  0  0  0  0  0  0  0  0
   -9.0340   19.9600  -32.6910 C   0  0  0  0  0  0  0  0  0  0  0  0
   -9.8450   21.0020  -32.2410 C   0  0  0  0  0  0  0  0  0  0  0  0
   -9.2820   22.0910  -31.5760 C   0  0  0  0  0  0  0  0  0  0  0  0
   -7.8980   22.1540  -31.3640 C   0  0  0  0  0  0  0  0  0  0  0  0
   -7.3330   23.2780  -30.7430 C   0  0  0  0  0  0  0  0  0  0  0  0
   -5.9430   23.3830  -30.5970 C   0  0  0  0  0  0  0  0  0  0  0  0
   -5.2100   24.8950  -30.0570 S   0  0  0  0  0  0  0  0  0  0  0  0
   -5.8920   26.0780  -30.6920 O   0  0  0  0  0  0  0  0  0  0  0  0
   -5.3470   24.9890  -28.5630 O   0  0  0  0  0  0  0  0  0  0  0  0
   -3.5260   24.9110  -30.4830 N   0  0  0  0  0  0  0  0  0  0  0  0
   -2.5090   24.1780  -29.7790 C   0  0  0  0  0  0  0  0  0  0  0  0
   -2.4480   22.7750  -29.8280 C   0  0  0  0  0  0  0  0  0  0  0  0
   -1.5470   22.0680  -29.0170 C   0  0  0  0  0  0  0  0  0  0  0  0
   -0.6760   22.7780  -28.1640 C   0  0  0  0  0  0  0  0  0  0  0  0
   -0.6720   24.1810  -28.1890 C   0  0  0  0  0  0  0  0  0  0  0  0
   -1.5870   24.8760  -28.9870 C   0  0  0  0  0  0  0  0  0  0  0  0
   -1.5940   26.2630  -28.9690 O   0  0  0  0  0  0  0  0  0  0  0  0
    0.3050   22.0420  -27.2780 C   0  0  0  0  0  0  0  0  0  0  0  0
   -0.1090   20.6550  -27.0190 N   0  0  0  0  0  0  0  0  0  0  0  0
   -0.3980   19.9520  -28.2770 C   0  0  0  0  0  0  0  0  0  0  0  0
   -1.6160   20.5620  -28.9800 C   0  0  0  0  0  0  0  0  0  0  0  0
   -5.1220   22.3340  -31.0180 C   0  0  0  0  0  0  0  0  0  0  0  0
   -5.6710   21.1970  -31.6120 C   0  0  0  0  0  0  0  0  0  0  0  0
   -7.0630   21.0970  -31.8130 C   0  0  0  0  0  0  0  0  0  0  0  0
   -5.7320   19.0710  -33.8340 C   0  0  0  0  0  0  0  0  0  0  0  0
   -5.3180   20.3540  -34.1990 O   0  0  0  0  0  0  0  0  0  0  0  0
   -5.0220   17.9710  -34.3310 C   0  0  0  0  0  0  0  0  0  0  0  0
   -6.7724   15.4363  -32.8366 H   0  0  0  0  0  0  0  0  0  0  0  0
   -8.0565   17.3826  -31.9541 H   0  0  0  0  0  0  0  0  0  0  0  0
   -9.4859   19.1060  -33.2168 H   0  0  0  0  0  0  0  0  0  0  0  0
  -10.9311   20.9647  -32.4111 H   0  0  0  0  0  0  0  0  0  0  0  0
   -9.9280   22.9052  -31.2158 H   0  0  0  0  0  0  0  0  0  0  0  0
   -7.9845   24.0813  -30.3686 H   0  0  0  0  0  0  0  0  0  0  0  0
   -3.1137   22.2249  -30.5094 H   0  0  0  0  0  0  0  0  0  0  0  0
    0.0543   24.7371  -27.5781 H   0  0  0  0  0  0  0  0  0  0  0  0
    1.2882   22.0315  -27.7712 H   0  0  0  0  0  0  0  0  0  0  0  0
    0.3457   22.5670  -26.3122 H   0  0  0  0  0  0  0  0  0  0  0  0
   -0.9710   20.6650  -26.4270 H   0  0  0  0  0  0  0  0  0  0  0  0
    0.4759   20.0283  -28.9406 H   0  0  0  0  0  0  0  0  0  0  0  0
   -0.6169   18.8987  -28.0475 H   0  0  0  0  0  0  0  0  0  0  0  0
   -1.6586   20.1823  -30.0115 H   0  0  0  0  0  0  0  0  0  0  0  0
   -2.5152   20.2753  -28.4150 H   0  0  0  0  0  0  0  0  0  0  0  0
   -4.0330   22.4050  -30.8800 H   0  0  0  0  0  0  0  0  0  0  0  0
   -5.0133   20.3730  -31.9256 H   0  0  0  0  0  0  0  0  0  0  0  0
   -5.8480   21.1840  -33.9680 H   0  0  0  0  0  0  0  0  0  0  0  0
   -4.1663   18.1309  -35.0035 H   0  0  0  0  0  0  0  0  0  0  0  0
  1  2  3  0
  2  3  1  0
  3  4  2  0
  4  5  1  0
  5  6  2  0
  6  7  1  0
  7  8  2  0
  8  9  1  0
  9 10  2  0
 10 11  1  0
 11 12  2  0
 12 13  1  0
 13 14  1  0
 14 15  2  0
 14 16  2  0
 14 17  1  0
 17 18  1  0
 18 19  2  0
 19 20  1  0
 20 21  2  0
 21 22  1  0
 22 23  2  0
 23 24  1  0
 21 25  1  0
 25 26  1  0
 26 27  1  0
 27 28  1  0
 13 29  2  0
 29 30  1  0
 30 31  2  0
  6 32  1  0
 32 33  1  0
 32 34  2  0
 34  3  1  0
 31  7  1  0
 31 11  1  0
 23 18  1  0
 28 20  1  0
  4 35  1  0
  5 36  1  0
  8 37  1  0
  9 38  1  0
 10 39  1  0
 12 40  1  0
 19 41  1  0
 22 42  1  0
 25 43  1  0
 25 44  1  0
 26 45  1  0
 27 46  1  0
 27 47  1  0
 28 48  1  0
 28 49  1  0
 29 50  1  0
 30 51  1  0
 33 52  1  0
 34 53  1  0
M  CHG  2  17  -1  24  -1
M  END
>  <UniqueID>  (43) 
43

>  <SMILES>  (43) 
N#Cc1ccc(-c2cccc3cc(S(=O)(=O)[N-]c4cc5c(cc4[O-])CNCC5)ccc23)c(O)c1

>  <Energy>  (43) 
76.48991337380846

>  <Genealogy>  (43) 
N#Cc1ccc(-c2cccc3cc(S(=O)(=O)[N-]c4cc5c(cc4[O-])CNCC5)ccc23)c(O)c1 (protonated)
N#Cc1ccc(-c2cccc3cc(S(=O)(=O)[N-]c4cc5c(cc4[O-])CNCC5)ccc23)c(O)c1 (3D coordinates assigned)
N#Cc1ccc(-c2cccc3cc(S(=O)(=O)[N-]c4cc5c(cc4[O-])CNCC5)ccc23)c(O)c1 (nonaromatic ring conformer: 76.48991337380846 kcal/mol)

>  <smiles>  (43) 
N#Cc1ccc(-c2cccc3cc(S(=O)(=O)Nc4cc5c(cc4O)CNCC5)ccc23)c(O)c1

>  <score_type>  (43) 
oracle

>  <origin>  (43) 
adgpu

>  <m_score__min__energy>  (43) 
-17.210000000000001

>  <m_primary>  (43) 
energy

$$$$
43:0
     RDKit          3D

 58 61  0  0  0  0  0  0  0  0999 V2000
   -7.8320   19.9630  -32.7490 C   0  0  0  0  0  0  0  0  0  0  0  0
   -7.2100   21.1580  -32.0880 C   0  0  0  0  0  0  0  0  0  0  0  0
   -7.9680   21.9500  -31.2090 C   0  0  0  0  0  0  0  0  0  0  0  0
   -7.4040   23.0870  -30.6200 C   0  0  0  0  0  0  0  0  0  0  0  0
   -6.0800   23.4500  -30.9090 C   0  0  0  0  0  0  0  0  0  0  0  0
   -5.3790   24.8860  -30.1640 S   0  0  0  0  0  0  0  0  0  0  0  0
   -4.6520   25.6760  -31.2160 O   0  0  0  0  0  0  0  0  0  0  0  0
   -6.4540   25.7580  -29.5740 O   0  0  0  0  0  0  0  0  0  0  0  0
   -4.2570   24.4430  -28.9150 N   0  0  0  0  0  0  0  0  0  0  0  0
   -2.9530   23.8820  -29.1200 C   0  0  0  0  0  0  0  0  0  0  0  0
   -2.8550   22.4930  -29.2830 C   0  0  0  0  0  0  0  0  0  0  0  0
   -1.6130   21.8780  -29.5250 C   0  0  0  0  0  0  0  0  0  0  0  0
   -1.5240   20.4190  -29.7630 C   0  0  0  0  0  0  0  0  0  0  0  0
   -2.0910   19.9090  -30.7690 O   0  0  0  0  0  0  0  0  0  0  0  0
   -0.7540   19.5860  -28.8840 N   0  0  0  0  0  0  0  0  0  0  0  0
    0.3920   18.8120  -29.2670 C   0  0  0  0  0  0  0  0  0  0  0  0
    1.2040   18.2620  -28.2670 C   0  0  0  0  0  0  0  0  0  0  0  0
    2.3290   17.5060  -28.6080 C   0  0  0  0  0  0  0  0  0  0  0  0
    2.6450   17.2840  -29.9500 C   0  0  0  0  0  0  0  0  0  0  0  0
    1.8260   17.8030  -30.9700 C   0  0  0  0  0  0  0  0  0  0  0  0
    2.1530   17.5690  -32.3970 C   0  0  0  0  0  0  0  0  0  0  0  0
    1.2950   17.0360  -33.1530 O   0  0  0  0  0  0  0  0  0  0  0  0
    3.4170   18.0070  -32.9240 N   0  0  0  0  0  0  0  0  0  0  0  0
    3.6610   19.0860  -33.6110 C   0  0  0  0  0  0  0  0  0  0  0  0
    2.6130   20.0170  -34.0740 C   0  0  0  0  0  0  0  0  0  0  0  0
    1.4640   20.2040  -33.2940 C   0  0  0  0  0  0  0  0  0  0  0  0
    0.4650   21.0850  -33.7150 C   0  0  0  0  0  0  0  0  0  0  0  0
    0.6170   21.8110  -34.9050 C   0  0  0  0  0  0  0  0  0  0  0  0
   -0.3760   22.6920  -35.3280 O   0  0  0  0  0  0  0  0  0  0  0  0
    1.7790   21.6550  -35.6690 C   0  0  0  0  0  0  0  0  0  0  0  0
    1.9430   22.3910  -36.8380 O   0  0  0  0  0  0  0  0  0  0  0  0
    2.7770   20.7620  -35.2580 C   0  0  0  0  0  0  0  0  0  0  0  0
    3.9360   20.6260  -36.0170 O   0  0  0  0  0  0  0  0  0  0  0  0
    0.6910   18.5580  -30.6160 C   0  0  0  0  0  0  0  0  0  0  0  0
   -0.4570   22.6740  -29.5730 C   0  0  0  0  0  0  0  0  0  0  0  0
   -0.5420   24.0530  -29.3810 C   0  0  0  0  0  0  0  0  0  0  0  0
   -1.7780   24.6630  -29.1510 C   0  0  0  0  0  0  0  0  0  0  0  0
   -1.8130   26.0320  -28.9290 O   0  0  0  0  0  0  0  0  0  0  0  0
   -5.3200   22.6640  -31.7930 C   0  0  0  0  0  0  0  0  0  0  0  0
   -5.8860   21.5320  -32.3870 C   0  0  0  0  0  0  0  0  0  0  0  0
   -8.1949   19.2658  -31.9795 H   0  0  0  0  0  0  0  0  0  0  0  0
   -8.6752   20.2883  -33.3760 H   0  0  0  0  0  0  0  0  0  0  0  0
   -7.0818   19.4589  -33.3760 H   0  0  0  0  0  0  0  0  0  0  0  0
   -9.0088   21.6751  -30.9831 H   0  0  0  0  0  0  0  0  0  0  0  0
   -8.0011   23.6987  -29.9276 H   0  0  0  0  0  0  0  0  0  0  0  0
   -3.7627   21.8748  -29.2208 H   0  0  0  0  0  0  0  0  0  0  0  0
    0.9551   18.4258  -27.2081 H   0  0  0  0  0  0  0  0  0  0  0  0
    2.9672   17.0848  -27.8172 H   0  0  0  0  0  0  0  0  0  0  0  0
    3.5396   16.6998  -30.2115 H   0  0  0  0  0  0  0  0  0  0  0  0
    4.7072   19.3168  -33.8604 H   0  0  0  0  0  0  0  0  0  0  0  0
    1.3484   19.6555  -32.3475 H   0  0  0  0  0  0  0  0  0  0  0  0
   -0.4452   21.2098  -33.1101 H   0  0  0  0  0  0  0  0  0  0  0  0
   -0.4430   22.9890  -36.2930 H   0  0  0  0  0  0  0  0  0  0  0  0
    0.0322   18.9527  -31.4035 H   0  0  0  0  0  0  0  0  0  0  0  0
    0.5209   22.2075  -29.7631 H   0  0  0  0  0  0  0  0  0  0  0  0
    0.3714   24.6653  -29.4109 H   0  0  0  0  0  0  0  0  0  0  0  0
   -4.2791   22.9400  -32.0175 H   0  0  0  0  0  0  0  0  0  0  0  0
   -5.2936   20.9302  -33.0919 H   0  0  0  0  0  0  0  0  0  0  0  0
  1  2  1  0
  2  3  2  0
  3  4  1  0
  4  5  2  0
  5  6  1  0
  6  7  2  0
  6  8  2  0
  6  9  1  0
  9 10  1  0
 10 11  2  0
 11 12  1  0
 12 13  1  0
 13 14  2  0
 13 15  1  0
 15 16  1  0
 16 17  2  0
 17 18  1  0
 18 19  2  0
 19 20  1  0
 20 21  1  0
 21 22  2  0
 21 23  1  0
 23 24  2  3
 24 25  1  0
 25 26  2  0
 26 27  1  0
 27 28  2  0
 28 29  1  0
 28 30  1  0
 30 31  1  0
 30 32  2  0
 32 33  1  0
 20 34  2  0
 12 35  2  0
 35 36  1  0
 36 37  2  0
 37 38  1  0
  5 39  1  0
 39 40  2  0
 40  2  1  0
 37 10  1  0
 34 16  1  0
 32 25  1  0
  1 41  1  0
  1 42  1  0
  1 43  1  0
  3 44  1  0
  4 45  1  0
 11 46  1  0
 17 47  1  0
 18 48  1  0
 19 49  1  0
 24 50  1  0
 26 51  1  0
 27 52  1  0
 29 53  1  0
 34 54  1  0
 35 55  1  0
 36 56  1  0
 39 57  1  0
 40 58  1  0
M  CHG  5   9  -1  15  -1  31  -1  33  -1  38  -1
M  END
>  <UniqueID>  (44) 
44

>  <SMILES>  (44) 
Cc1ccc(S(=O)(=O)[N-]c2cc(C(=O)[N-]c3cccc(C(=O)N=Cc4ccc(O)c([O-])c4[O-])c3)ccc2[O-])cc1

>  <Energy>  (44) 
86.64226174616101

>  <Genealogy>  (44) 
Cc1ccc(S(=O)(=O)[N-]c2cc(C(=O)[N-]c3cccc(C(=O)N=Cc4ccc(O)c([O-])c4[O-])c3)ccc2[O-])cc1 (protonated)
Cc1ccc(S(=O)(=O)[N-]c2cc(C(=O)[N-]c3cccc(C(=O)N=Cc4ccc(O)c([O-])c4[O-])c3)ccc2[O-])cc1 (3D coordinates assigned)
Cc1ccc(S(=O)(=O)[N-]c2cc(C(=O)[N-]c3cccc(C(=O)N=Cc4ccc(O)c([O-])c4[O-])c3)ccc2[O-])cc1 (optimized conformer: 86.64226174616101 kcal/mol)

>  <smiles>  (44) 
Cc1ccc(S(=O)(=O)Nc2cc(C(=O)Nc3cccc(C(=O)N=Cc4ccc(O)c(O)c4O)c3)ccc2O)cc1

>  <score_type>  (44) 
oracle

>  <origin>  (44) 
adgpu

>  <m_score__min__energy>  (44) 
-16.079999999999998

>  <m_primary>  (44) 
energy

$$$$
44:0
     RDKit          3D

 46 48  0  0  0  0  0  0  0  0999 V2000
   -8.2340   19.1830  -32.3300 C   0  0  0  0  0  0  0  0  0  0  0  0
   -7.9390   20.4150  -32.9790 O   0  0  0  0  0  0  0  0  0  0  0  0
   -7.3530   21.5260  -32.3520 C   0  0  0  0  0  0  0  0  0  0  0  0
   -8.1160   22.4380  -31.5950 C   0  0  0  0  0  0  0  0  0  0  0  0
   -7.5120   23.5580  -31.0180 C   0  0  0  0  0  0  0  0  0  0  0  0
   -6.1440   23.7910  -31.1960 C   0  0  0  0  0  0  0  0  0  0  0  0
   -5.3780   25.1860  -30.4410 S   0  0  0  0  0  0  0  0  0  0  0  0
   -5.7400   26.4190  -31.2210 O   0  0  0  0  0  0  0  0  0  0  0  0
   -5.8500   25.3440  -29.0220 O   0  0  0  0  0  0  0  0  0  0  0  0
   -3.6540   24.9990  -30.4440 N   0  0  0  0  0  0  0  0  0  0  0  0
   -2.9030   24.2240  -29.4970 C   0  0  0  0  0  0  0  0  0  0  0  0
   -3.3090   22.9350  -29.1050 C   0  0  0  0  0  0  0  0  0  0  0  0
   -2.5310   22.1810  -28.2150 C   0  0  0  0  0  0  0  0  0  0  0  0
   -1.3590   22.7420  -27.6660 C   0  0  0  0  0  0  0  0  0  0  0  0
   -0.9590   24.0270  -28.0560 C   0  0  0  0  0  0  0  0  0  0  0  0
   -1.7270   24.7640  -28.9620 C   0  0  0  0  0  0  0  0  0  0  0  0
   -1.3080   26.0360  -29.3380 O   0  0  0  0  0  0  0  0  0  0  0  0
   -0.4770   21.9320  -26.7470 C   0  0  0  0  0  0  0  0  0  0  0  0
   -1.2200   20.8370  -26.1090 N   0  0  0  0  0  0  0  0  0  0  0  0
   -1.8850   20.0120  -27.1230 C   0  0  0  0  0  0  0  0  0  0  0  0
   -3.0040   20.8140  -27.7920 C   0  0  0  0  0  0  0  0  0  0  0  0
   -5.3820   22.8960  -31.9540 C   0  0  0  0  0  0  0  0  0  0  0  0
   -5.9690   21.7480  -32.5050 C   0  0  0  0  0  0  0  0  0  0  0  0
   -5.1460   20.8390  -33.2540 N   0  0  0  0  0  0  0  0  0  0  0  0
   -3.9410   20.2640  -32.7310 C   0  0  0  0  0  0  0  0  0  0  0  0
   -3.1740   19.2720  -33.5420 C   0  0  0  0  0  0  0  0  0  0  0  0
   -3.4770   20.6460  -31.6220 O   0  0  0  0  0  0  0  0  0  0  0  0
   -8.1999   19.3255  -31.2398 H   0  0  0  0  0  0  0  0  0  0  0  0
   -9.2385   18.8449  -32.6243 H   0  0  0  0  0  0  0  0  0  0  0  0
   -7.4916   18.4266  -32.6243 H   0  0  0  0  0  0  0  0  0  0  0  0
   -9.1939   22.2668  -31.4576 H   0  0  0  0  0  0  0  0  0  0  0  0
   -8.1143   24.2591  -30.4216 H   0  0  0  0  0  0  0  0  0  0  0  0
   -4.2455   22.5149  -29.5005 H   0  0  0  0  0  0  0  0  0  0  0  0
   -0.0340   24.4589  -27.6463 H   0  0  0  0  0  0  0  0  0  0  0  0
    0.3525   21.5073  -27.3314 H   0  0  0  0  0  0  0  0  0  0  0  0
   -0.1008   22.5981  -25.9566 H   0  0  0  0  0  0  0  0  0  0  0  0
   -0.5280   20.2320  -25.6070 H   0  0  0  0  0  0  0  0  0  0  0  0
   -1.1511   19.7052  -27.8828 H   0  0  0  0  0  0  0  0  0  0  0  0
   -2.3147   19.1212  -26.6416 H   0  0  0  0  0  0  0  0  0  0  0  0
   -3.3535   20.2668  -28.6799 H   0  0  0  0  0  0  0  0  0  0  0  0
   -3.8181   20.9421  -27.0634 H   0  0  0  0  0  0  0  0  0  0  0  0
   -4.3128   23.0945  -32.1193 H   0  0  0  0  0  0  0  0  0  0  0  0
   -5.3430   20.7240  -34.2740 H   0  0  0  0  0  0  0  0  0  0  0  0
   -2.6412   18.5829  -32.8703 H   0  0  0  0  0  0  0  0  0  0  0  0
   -3.8685   18.7018  -34.1765 H   0  0  0  0  0  0  0  0  0  0  0  0
   -2.4474   19.8006  -34.1765 H   0  0  0  0  0  0  0  0  0  0  0  0
  1  2  1  0
  2  3  1  0
  3  4  2  0
  4  5  1  0
  5  6  2  0
  6  7  1  0
  7  8  2  0
  7  9  2  0
  7 10  1  0
 10 11  1  0
 11 12  2  0
 12 13  1  0
 13 14  2  0
 14 15  1  0
 15 16  2  0
 16 17  1  0
 14 18  1  0
 18 19  1  0
 19 20  1  0
 20 21  1  0
  6 22  1  0
 22 23  2  0
 23 24  1  0
 24 25  1  0
 25 26  1  0
 25 27  2  0
 23  3  1  0
 16 11  1  0
 21 13  1  0
  1 28  1  0
  1 29  1  0
  1 30  1  0
  4 31  1  0
  5 32  1  0
 12 33  1  0
 15 34  1  0
 18 35  1  0
 18 36  1  0
 19 37  1  0
 20 38  1  0
 20 39  1  0
 21 40  1  0
 21 41  1  0
 22 42  1  0
 24 43  1  0
 26 44  1  0
 26 45  1  0
 26 46  1  0
M  CHG  2  10  -1  17  -1
M  END
>  <UniqueID>  (45) 
45

>  <SMILES>  (45) 
COc1ccc(S(=O)(=O)[N-]c2cc3c(cc2[O-])CNCC3)cc1NC(C)=O

>  <Energy>  (45) 
53.55863151074981

>  <Genealogy>  (45) 
COc1ccc(S(=O)(=O)[N-]c2cc3c(cc2[O-])CNCC3)cc1NC(C)=O (protonated)
COc1ccc(S(=O)(=O)[N-]c2cc3c(cc2[O-])CNCC3)cc1NC(C)=O (3D coordinates assigned)
COc1ccc(S(=O)(=O)[N-]c2cc3c(cc2[O-])CNCC3)cc1NC(C)=O (nonaromatic ring conformer: 53.55863151074981 kcal/mol)

>  <smiles>  (45) 
COc1ccc(S(=O)(=O)Nc2cc3c(cc2O)CNCC3)cc1NC(C)=O

>  <score_type>  (45) 
oracle

>  <origin>  (45) 
adgpu

>  <m_score__min__energy>  (45) 
-13.41

>  <m_primary>  (45) 
energy

$$$$
45:0
     RDKit          3D

 57 60  0  0  0  0  0  0  0  0999 V2000
    0.0980   17.1590  -32.0530 C   0  0  0  0  0  0  0  0  0  0  0  0
   -0.9700   16.2000  -33.1020 S   0  0  0  0  0  0  0  0  0  0  0  0
   -0.3900   16.1380  -34.4870 O   0  0  0  0  0  0  0  0  0  0  0  0
   -1.0840   14.8020  -32.5630 O   0  0  0  0  0  0  0  0  0  0  0  0
   -2.5640   16.9480  -33.1530 C   0  0  0  0  0  0  0  0  0  0  0  0
   -2.6910   18.3410  -33.1650 C   0  0  0  0  0  0  0  0  0  0  0  0
   -3.9580   18.9320  -33.1890 C   0  0  0  0  0  0  0  0  0  0  0  0
   -5.1180   18.1380  -33.2040 C   0  0  0  0  0  0  0  0  0  0  0  0
   -6.4550   18.7780  -33.2290 C   0  0  0  0  0  0  0  0  0  0  0  0
   -6.7010   19.6600  -34.0980 O   0  0  0  0  0  0  0  0  0  0  0  0
   -7.4780   18.4000  -32.2970 N   0  0  0  0  0  0  0  0  0  0  0  0
   -8.7550   19.1100  -32.2440 C   0  0  0  0  0  0  0  0  0  0  0  0
   -8.5420   20.5550  -31.9220 C   0  0  0  0  0  0  0  0  0  0  0  0
   -7.3550   21.0580  -31.5200 N   0  0  0  0  0  0  0  0  0  0  0  0
   -7.3950   22.4110  -31.3580 C   0  0  0  0  0  0  0  0  0  0  0  0
   -6.1950   23.1720  -30.9270 C   0  0  0  0  0  0  0  0  0  0  0  0
   -6.2290   24.5700  -30.7730 C   0  0  0  0  0  0  0  0  0  0  0  0
   -5.0880   25.2660  -30.3670 C   0  0  0  0  0  0  0  0  0  0  0  0
   -3.9000   24.5800  -30.1010 C   0  0  0  0  0  0  0  0  0  0  0  0
   -2.7740   25.2980  -29.7130 O   0  0  0  0  0  0  0  0  0  0  0  0
   -3.8520   23.1830  -30.2300 C   0  0  0  0  0  0  0  0  0  0  0  0
   -2.3590   22.2960  -29.9070 S   0  0  0  0  0  0  0  0  0  0  0  0
   -1.1730   23.1940  -30.1320 O   0  0  0  0  0  0  0  0  0  0  0  0
   -2.2840   21.1260  -30.8490 O   0  0  0  0  0  0  0  0  0  0  0  0
   -2.3410   21.7220  -28.2550 N   0  0  0  0  0  0  0  0  0  0  0  0
   -0.9570   21.6360  -27.7340 C   0  0  0  0  0  0  0  0  0  0  0  0
   -0.4700   20.1820  -27.6090 C   0  0  0  0  0  0  0  0  0  0  0  0
   -1.2980   19.3890  -26.7710 O   0  0  0  0  0  0  0  0  0  0  0  0
   -2.6830   19.6970  -26.8740 C   0  0  0  0  0  0  0  0  0  0  0  0
   -3.0730   20.4460  -28.1590 C   0  0  0  0  0  0  0  0  0  0  0  0
   -4.9960   22.4890  -30.6520 C   0  0  0  0  0  0  0  0  0  0  0  0
   -8.6310   22.9910  -31.6560 C   0  0  0  0  0  0  0  0  0  0  0  0
   -9.6830   21.7670  -32.1320 S   0  0  0  0  0  0  0  0  0  0  0  0
   -4.9820   16.7370  -33.1710 C   0  0  0  0  0  0  0  0  0  0  0  0
   -3.7140   16.1500  -33.1460 C   0  0  0  0  0  0  0  0  0  0  0  0
   -0.1370   16.9479  -30.9993 H   0  0  0  0  0  0  0  0  0  0  0  0
    1.1460   16.8929  -32.2553 H   0  0  0  0  0  0  0  0  0  0  0  0
   -0.0541   18.2295  -32.2553 H   0  0  0  0  0  0  0  0  0  0  0  0
   -1.7911   18.9736  -33.1555 H   0  0  0  0  0  0  0  0  0  0  0  0
   -4.0479   20.0283  -33.1962 H   0  0  0  0  0  0  0  0  0  0  0  0
   -7.3340   17.5610  -31.6880 H   0  0  0  0  0  0  0  0  0  0  0  0
   -9.2552   19.0273  -33.2202 H   0  0  0  0  0  0  0  0  0  0  0  0
   -9.3782   18.6599  -31.4572 H   0  0  0  0  0  0  0  0  0  0  0  0
   -7.1609   25.1189  -30.9738 H   0  0  0  0  0  0  0  0  0  0  0  0
   -5.1248   26.3598  -30.2561 H   0  0  0  0  0  0  0  0  0  0  0  0
   -0.2868   22.1760  -28.4191 H   0  0  0  0  0  0  0  0  0  0  0  0
   -0.9474   22.0819  -26.7285 H   0  0  0  0  0  0  0  0  0  0  0  0
   -0.4522   19.7309  -28.6121 H   0  0  0  0  0  0  0  0  0  0  0  0
    0.5305   20.2085  -27.1525 H   0  0  0  0  0  0  0  0  0  0  0  0
   -3.2486   18.7542  -26.8402 H   0  0  0  0  0  0  0  0  0  0  0  0
   -2.9186   20.3686  -26.0353 H   0  0  0  0  0  0  0  0  0  0  0  0
   -2.8277   19.8215  -29.0307 H   0  0  0  0  0  0  0  0  0  0  0  0
   -4.1525   20.6560  -28.1348 H   0  0  0  0  0  0  0  0  0  0  0  0
   -4.9550   21.3961  -30.7695 H   0  0  0  0  0  0  0  0  0  0  0  0
   -8.8740   24.0618  -31.5907 H   0  0  0  0  0  0  0  0  0  0  0  0
   -5.8792   16.1006  -33.1649 H   0  0  0  0  0  0  0  0  0  0  0  0
   -3.6191   15.0544  -33.1207 H   0  0  0  0  0  0  0  0  0  0  0  0
  1  2  1  0
  2  3  2  0
  2  4  2  0
  2  5  1  0
  5  6  2  0
  6  7  1  0
  7  8  2  0
  8  9  1  0
  9 10  2  0
  9 11  1  0
 11 12  1  0
 12 13  1  0
 13 14  2  0
 14 15  1  0
 15 16  1  0
 16 17  2  0
 17 18  1  0
 18 19  2  0
 19 20  1  0
 19 21  1  0
 21 22  1  0
 22 23  2  0
 22 24  2  0
 22 25  1  0
 25 26  1  0
 26 27  1  0
 27 28  1  0
 28 29  1  0
 29 30  1  0
 21 31  2  0
 15 32  2  0
 32 33  1  0
  8 34  1  0
 34 35  2  0
 35  5  1  0
 33 13  1  0
 31 16  1  0
 30 25  1  0
  1 36  1  0
  1 37  1  0
  1 38  1  0
  6 39  1  0
  7 40  1  0
 11 41  1  0
 12 42  1  0
 12 43  1  0
 17 44  1  0
 18 45  1  0
 26 46  1  0
 26 47  1  0
 27 48  1  0
 27 49  1  0
 29 50  1  0
 29 51  1  0
 30 52  1  0
 30 53  1  0
 31 54  1  0
 32 55  1  0
 34 56  1  0
 35 57  1  0
M  CHG  1  20  -1
M  END
>  <UniqueID>  (46) 
46

>  <SMILES>  (46) 
CS(=O)(=O)c1ccc(C(=O)NCc2nc(-c3ccc([O-])c(S(=O)(=O)N4CCOCC4)c3)cs2)cc1

>  <Energy>  (46) 
102.0104468883213

>  <Genealogy>  (46) 
CS(=O)(=O)c1ccc(C(=O)NCc2nc(-c3ccc([O-])c(S(=O)(=O)N4CCOCC4)c3)cs2)cc1 (protonated)
CS(=O)(=O)c1ccc(C(=O)NCc2nc(-c3ccc([O-])c(S(=O)(=O)N4CCOCC4)c3)cs2)cc1 (3D coordinates assigned)
CS(=O)(=O)c1ccc(C(=O)NCc2nc(-c3ccc([O-])c(S(=O)(=O)N4CCOCC4)c3)cs2)cc1 (nonaromatic ring conformer: 102.0104468883213 kcal/mol)

>  <smiles>  (46) 
CS(=O)(=O)c1ccc(C(=O)NCc2nc(-c3ccc(O)c(S(=O)(=O)N4CCOCC4)c3)cs2)cc1

>  <score_type>  (46) 
oracle

>  <origin>  (46) 
adgpu

>  <m_score__min__energy>  (46) 
-13.130000000000001

>  <m_primary>  (46) 
energy

$$$$
46:0
     RDKit          3D

 37 39  0  0  0  0  0  0  0  0999 V2000
   -2.7190   18.8520  -34.1360 C   0  0  0  0  0  0  0  0  0  0  0  0
   -4.1500   19.1590  -33.7970 C   0  0  0  0  0  0  0  0  0  0  0  0
   -4.4780   20.3410  -33.1120 C   0  0  0  0  0  0  0  0  0  0  0  0
   -5.8160   20.6450  -32.8000 C   0  0  0  0  0  0  0  0  0  0  0  0
   -6.1690   21.8920  -32.0840 C   0  0  0  0  0  0  0  0  0  0  0  0
   -5.2710   22.8600  -31.7910 N   0  0  0  0  0  0  0  0  0  0  0  0
   -5.8190   23.8930  -31.0970 C   0  0  0  0  0  0  0  0  0  0  0  0
   -5.0330   25.0680  -30.6600 C   0  0  0  0  0  0  0  0  0  0  0  0
   -5.6330   26.1580  -30.4640 O   0  0  0  0  0  0  0  0  0  0  0  0
   -3.6140   25.0290  -30.4410 N   0  0  0  0  0  0  0  0  0  0  0  0
   -2.7850   23.8570  -30.1650 C   0  0  0  0  0  0  0  0  0  0  0  0
   -2.1230   23.9650  -28.8190 C   0  0  0  0  0  0  0  0  0  0  0  0
   -2.2200   22.9260  -27.9440 N   0  0  0  0  0  0  0  0  0  0  0  0
   -1.6440   22.9600  -26.7140 C   0  0  0  0  0  0  0  0  0  0  0  0
   -0.9160   24.0820  -26.3150 C   0  0  0  0  0  0  0  0  0  0  0  0
   -0.7840   25.1580  -27.1940 C   0  0  0  0  0  0  0  0  0  0  0  0
   -1.3830   25.1050  -28.4560 C   0  0  0  0  0  0  0  0  0  0  0  0
   -1.2390   26.1750  -29.3330 O   0  0  0  0  0  0  0  0  0  0  0  0
   -7.1840   23.7630  -30.8450 C   0  0  0  0  0  0  0  0  0  0  0  0
   -7.6930   22.3000  -31.4950 S   0  0  0  0  0  0  0  0  0  0  0  0
   -6.8250   19.7470  -33.1880 C   0  0  0  0  0  0  0  0  0  0  0  0
   -6.5060   18.5750  -33.8750 C   0  0  0  0  0  0  0  0  0  0  0  0
   -5.1730   18.2760  -34.1850 C   0  0  0  0  0  0  0  0  0  0  0  0
   -4.8620   17.1060  -34.8770 O   0  0  0  0  0  0  0  0  0  0  0  0
   -2.1409   18.7280  -33.2084 H   0  0  0  0  0  0  0  0  0  0  0  0
   -2.6725   17.9235  -34.7239 H   0  0  0  0  0  0  0  0  0  0  0  0
   -2.2957   19.6798  -34.7239 H   0  0  0  0  0  0  0  0  0  0  0  0
   -3.6793   21.0371  -32.8161 H   0  0  0  0  0  0  0  0  0  0  0  0
   -3.4179   22.9575  -30.1826 H   0  0  0  0  0  0  0  0  0  0  0  0
   -2.0017   23.7948  -30.9348 H   0  0  0  0  0  0  0  0  0  0  0  0
   -1.7514   22.1032  -26.0326 H   0  0  0  0  0  0  0  0  0  0  0  0
   -0.4513   24.1178  -25.3186 H   0  0  0  0  0  0  0  0  0  0  0  0
   -0.2093   26.0467  -26.8941 H   0  0  0  0  0  0  0  0  0  0  0  0
   -7.8161   24.4901  -30.3142 H   0  0  0  0  0  0  0  0  0  0  0  0
   -7.8751   19.9699  -32.9481 H   0  0  0  0  0  0  0  0  0  0  0  0
   -7.3059   17.8820  -34.1748 H   0  0  0  0  0  0  0  0  0  0  0  0
   -4.0020   16.5990  -34.7040 H   0  0  0  0  0  0  0  0  0  0  0  0
  1  2  1  0
  2  3  2  0
  3  4  1  0
  4  5  1  0
  5  6  2  0
  6  7  1  0
  7  8  1  0
  8  9  2  0
  8 10  1  0
 10 11  1  0
 11 12  1  0
 12 13  2  0
 13 14  1  0
 14 15  2  0
 15 16  1  0
 16 17  2  0
 17 18  1  0
  7 19  2  0
 19 20  1  0
  4 21  2  0
 21 22  1  0
 22 23  2  0
 23 24  1  0
 23  2  1  0
 20  5  1  0
 17 12  1  0
  1 25  1  0
  1 26  1  0
  1 27  1  0
  3 28  1  0
 11 29  1  0
 11 30  1  0
 14 31  1  0
 15 32  1  0
 16 33  1  0
 19 34  1  0
 21 35  1  0
 22 36  1  0
 24 37  1  0
M  CHG  2  10  -1  18  -1
M  END
>  <UniqueID>  (47) 
47

>  <SMILES>  (47) 
Cc1cc(-c2nc(C(=O)[N-]Cc3ncccc3[O-])cs2)ccc1O

>  <Energy>  (47) 
69.33068514395188

>  <Genealogy>  (47) 
Cc1cc(-c2nc(C(=O)[N-]Cc3ncccc3[O-])cs2)ccc1O (protonated)
Cc1cc(-c2nc(C(=O)[N-]Cc3ncccc3[O-])cs2)ccc1O (3D coordinates assigned)
Cc1cc(-c2nc(C(=O)[N-]Cc3ncccc3[O-])cs2)ccc1O (optimized conformer: 69.33068514395188 kcal/mol)

>  <smiles>  (47) 
Cc1cc(-c2nc(C(=O)NCc3ncccc3O)cs2)ccc1O

>  <score_type>  (47) 
oracle

>  <origin>  (47) 
adgpu

>  <m_score__min__energy>  (47) 
-12.619999999999999

>  <m_primary>  (47) 
energy

$$$$
