0:0
     RDKit          3D

 58 62  0  0  0  0  0  0  0  0999 V2000
   -1.0540   15.2720  -34.0030 O   0  0  0  0  0  0  0  0  0  0  0  0
   -1.4020   16.4290  -34.3610 C   0  0  0  0  0  0  0  0  0  0  0  0
   -0.5050   17.5220  -34.1480 N   0  0  0  0  0  0  0  0  0  0  0  0
   -0.5330   18.4320  -33.0390 C   0  0  0  0  0  0  0  0  0  0  0  0
   -0.6670   19.7990  -33.2940 C   0  0  0  0  0  0  0  0  0  0  0  0
   -0.6850   20.7180  -32.2430 C   0  0  0  0  0  0  0  0  0  0  0  0
   -0.5560   20.2820  -30.9170 C   0  0  0  0  0  0  0  0  0  0  0  0
   -0.3580   18.9090  -30.6530 C   0  0  0  0  0  0  0  0  0  0  0  0
   -0.3630   17.9910  -31.7150 C   0  0  0  0  0  0  0  0  0  0  0  0
   -0.2130   18.4030  -29.2390 C   0  0  0  0  0  0  0  0  0  0  0  0
    0.1240   19.5310  -28.2600 C   0  0  0  0  0  0  0  0  0  0  0  0
   -0.7830   20.6660  -28.4970 N   0  0  0  0  0  0  0  0  0  0  0  0
   -0.8010   21.6340  -27.3770 C   0  0  0  0  0  0  0  0  0  0  0  0
   -0.8950   23.0820  -27.8160 C   0  0  0  0  0  0  0  0  0  0  0  0
    0.1020   23.9990  -27.4400 C   0  0  0  0  0  0  0  0  0  0  0  0
    0.0200   25.3360  -27.8400 C   0  0  0  0  0  0  0  0  0  0  0  0
    1.0110   26.2350  -27.4670 O   0  0  0  0  0  0  0  0  0  0  0  0
   -1.0600   25.7690  -28.6160 C   0  0  0  0  0  0  0  0  0  0  0  0
   -2.0560   24.8630  -28.9980 C   0  0  0  0  0  0  0  0  0  0  0  0
   -3.1320   25.2970  -29.7640 O   0  0  0  0  0  0  0  0  0  0  0  0
   -1.9730   23.5230  -28.6050 C   0  0  0  0  0  0  0  0  0  0  0  0
   -0.5040   21.2970  -29.8020 C   0  0  0  0  0  0  0  0  0  0  0  0
   -2.6770   16.6400  -34.9830 N   0  0  0  0  0  0  0  0  0  0  0  0
   -3.8900   16.9810  -34.2970 C   0  0  0  0  0  0  0  0  0  0  0  0
   -4.7410   15.9500  -33.8990 C   0  0  0  0  0  0  0  0  0  0  0  0
   -5.9160   16.2320  -33.2090 C   0  0  0  0  0  0  0  0  0  0  0  0
   -6.2600   17.5500  -32.8990 C   0  0  0  0  0  0  0  0  0  0  0  0
   -7.7380   17.8110  -31.9770 Cl  0  0  0  0  0  0  0  0  0  0  0  0
   -5.4060   18.6110  -33.2770 C   0  0  0  0  0  0  0  0  0  0  0  0
   -5.8170   20.3000  -32.8840 S   0  0  0  0  0  0  0  0  0  0  0  0
   -6.4120   20.3600  -31.5060 O   0  0  0  0  0  0  0  0  0  0  0  0
   -6.8610   20.8080  -33.8410 O   0  0  0  0  0  0  0  0  0  0  0  0
   -4.4130   21.4170  -32.9460 C   0  0  0  0  0  0  0  0  0  0  0  0
   -3.6940   21.5800  -31.6160 C   0  0  0  0  0  0  0  0  0  0  0  0
   -4.5320   22.7210  -32.1690 C   0  0  0  0  0  0  0  0  0  0  0  0
   -4.2020   18.3130  -33.9520 C   0  0  0  0  0  0  0  0  0  0  0  0
   -3.2950   19.3260  -34.2440 O   0  0  0  0  0  0  0  0  0  0  0  0
   -0.7591   20.1542  -34.3310 H   0  0  0  0  0  0  0  0  0  0  0  0
   -0.8011   21.7907  -32.4568 H   0  0  0  0  0  0  0  0  0  0  0  0
   -0.2329   16.9182  -31.5096 H   0  0  0  0  0  0  0  0  0  0  0  0
   -1.1594   17.9351  -28.9301 H   0  0  0  0  0  0  0  0  0  0  0  0
    0.6134   17.6772  -29.2200 H   0  0  0  0  0  0  0  0  0  0  0  0
    0.0008   19.1711  -27.2279 H   0  0  0  0  0  0  0  0  0  0  0  0
    1.1650   19.8525  -28.4114 H   0  0  0  0  0  0  0  0  0  0  0  0
   -1.6683   21.4088  -26.7389 H   0  0  0  0  0  0  0  0  0  0  0  0
    0.1556   21.5238  -26.8452 H   0  0  0  0  0  0  0  0  0  0  0  0
    0.9515   23.6626  -26.8275 H   0  0  0  0  0  0  0  0  0  0  0  0
   -1.1266   26.8222  -28.9263 H   0  0  0  0  0  0  0  0  0  0  0  0
   -2.7532   22.8118  -28.9139 H   0  0  0  0  0  0  0  0  0  0  0  0
   -1.2551   22.0780  -29.9915 H   0  0  0  0  0  0  0  0  0  0  0  0
    0.5059   21.7319  -29.7716 H   0  0  0  0  0  0  0  0  0  0  0  0
   -4.4815   14.9068  -34.1322 H   0  0  0  0  0  0  0  0  0  0  0  0
   -6.5801   15.4095  -32.9048 H   0  0  0  0  0  0  0  0  0  0  0  0
   -4.1309   21.1684  -33.9797 H   0  0  0  0  0  0  0  0  0  0  0  0
   -4.0389   21.0225  -30.7327 H   0  0  0  0  0  0  0  0  0  0  0  0
   -2.6529   21.4736  -31.2771 H   0  0  0  0  0  0  0  0  0  0  0  0
   -5.4835   22.9888  -31.6863 H   0  0  0  0  0  0  0  0  0  0  0  0
   -4.3489   23.7816  -32.3964 H   0  0  0  0  0  0  0  0  0  0  0  0
  1  2  2  0
  2  3  1  0
  3  4  1  0
  4  5  2  0
  5  6  1  0
  6  7  2  0
  7  8  1  0
  8  9  2  0
  8 10  1  0
 10 11  1  0
 11 12  1  0
 12 13  1  0
 13 14  1  0
 14 15  2  0
 15 16  1  0
 16 17  1  0
 16 18  2  0
 18 19  1  0
 19 20  1  0
 19 21  2  0
 12 22  1  0
  2 23  1  0
 23 24  1  0
 24 25  2  0
 25 26  1  0
 26 27  2  0
 27 28  1  0
 27 29  1  0
 29 30  1  0
 30 31  2  0
 30 32  2  0
 30 33  1  0
 33 34  1  0
 34 35  1  0
 29 36  2  0
 36 37  1  0
  9  4  1  0
 21 14  1  0
 36 24  1  0
 22  7  1  0
 35 33  1  0
  5 38  1  0
  6 39  1  0
  9 40  1  0
 10 41  1  0
 10 42  1  0
 11 43  1  0
 11 44  1  0
 13 45  1  0
 13 46  1  0
 15 47  1  0
 18 48  1  0
 21 49  1  0
 22 50  1  0
 22 51  1  0
 25 52  1  0
 26 53  1  0
 33 54  1  0
 34 55  1  0
 34 56  1  0
 35 57  1  0
 35 58  1  0
M  CHG  5   3  -1  17  -1  20  -1  23  -1  37  -1
M  END
>  <UniqueID>  (1) 
1

>  <SMILES>  (1) 
O=C([N-]c1ccc2c(c1)CCN(Cc1cc([O-])cc([O-])c1)C2)[N-]c1ccc(Cl)c(S(=O)(=O)C2CC2)c1[O-]

>  <Energy>  (1) 
344.19706840664014

>  <Genealogy>  (1) 
O=C([N-]c1ccc2c(c1)CCN(Cc1cc([O-])cc([O-])c1)C2)[N-]c1ccc(Cl)c(S(=O)(=O)C2CC2)c1[O-] (protonated)
O=C([N-]c1ccc2c(c1)CCN(Cc1cc([O-])cc([O-])c1)C2)[N-]c1ccc(Cl)c(S(=O)(=O)C2CC2)c1[O-] (3D coordinates assigned)
O=C([N-]c1ccc2c(c1)CCN(Cc1cc([O-])cc([O-])c1)C2)[N-]c1ccc(Cl)c(S(=O)(=O)C2CC2)c1[O-] (nonaromatic ring conformer: 344.19706840664014 kcal/mol)

>  <smiles>  (1) 
O=C(Nc1ccc2c(c1)CCN(Cc1cc(O)cc(O)c1)C2)Nc1ccc(Cl)c(S(=O)(=O)C2CC2)c1O

>  <score_type>  (1) 
oracle

>  <origin>  (1) 
adgpu

>  <m_score__min__energy>  (1) 
-16.780000000000001

>  <m_primary>  (1) 
energy

$$$$
1:0
     RDKit          3D

 47 50  0  0  0  0  0  0  0  0999 V2000
   -0.6870   22.3200  -31.1620 O   0  0  0  0  0  0  0  0  0  0  0  0
   -0.9630   22.8130  -29.7700 S   0  0  0  0  0  0  0  0  0  0  0  0
    0.2400   23.5220  -29.2160 O   0  0  0  0  0  0  0  0  0  0  0  0
   -2.3070   23.9080  -29.8280 N   0  0  0  0  0  0  0  0  0  0  0  0
   -3.6000   23.6780  -30.4130 C   0  0  0  0  0  0  0  0  0  0  0  0
   -3.9320   22.3580  -30.7420 C   0  0  0  0  0  0  0  0  0  0  0  0
   -5.1720   22.0410  -31.3150 C   0  0  0  0  0  0  0  0  0  0  0  0
   -6.1170   23.0670  -31.5390 C   0  0  0  0  0  0  0  0  0  0  0  0
   -5.7740   24.3930  -31.2390 C   0  0  0  0  0  0  0  0  0  0  0  0
   -4.5290   24.7060  -30.6860 C   0  0  0  0  0  0  0  0  0  0  0  0
   -4.2350   26.0400  -30.4400 O   0  0  0  0  0  0  0  0  0  0  0  0
   -7.4460   22.7890  -32.2020 C   0  0  0  0  0  0  0  0  0  0  0  0
   -7.8500   21.3140  -32.1160 C   0  0  0  0  0  0  0  0  0  0  0  0
   -6.6840   20.4180  -32.5370 C   0  0  0  0  0  0  0  0  0  0  0  0
   -5.5070   20.5890  -31.5740 C   0  0  0  0  0  0  0  0  0  0  0  0
   -1.3720   21.4670  -28.6940 C   0  0  0  0  0  0  0  0  0  0  0  0
   -0.6900   20.2520  -28.8740 C   0  0  0  0  0  0  0  0  0  0  0  0
   -0.9480   19.1600  -28.0450 C   0  0  0  0  0  0  0  0  0  0  0  0
   -1.8900   19.2650  -27.0230 C   0  0  0  0  0  0  0  0  0  0  0  0
   -2.5850   20.4610  -26.8380 C   0  0  0  0  0  0  0  0  0  0  0  0
   -2.3530   21.5620  -27.6750 C   0  0  0  0  0  0  0  0  0  0  0  0
   -3.3180   23.0540  -27.3730 S   0  0  0  0  0  0  0  0  0  0  0  0
   -1.9230   23.9810  -26.7290 C   0  0  0  0  0  0  0  0  0  0  0  0
   -0.9270   23.3300  -25.9920 C   0  0  0  0  0  0  0  0  0  0  0  0
    0.1580   24.0520  -25.4860 C   0  0  0  0  0  0  0  0  0  0  0  0
    0.2440   25.4300  -25.7060 C   0  0  0  0  0  0  0  0  0  0  0  0
   -0.7590   26.0870  -26.4250 C   0  0  0  0  0  0  0  0  0  0  0  0
   -1.8450   25.3670  -26.9300 C   0  0  0  0  0  0  0  0  0  0  0  0
   -3.2064   21.5545  -30.5473 H   0  0  0  0  0  0  0  0  0  0  0  0
   -6.4951   25.1986  -31.4418 H   0  0  0  0  0  0  0  0  0  0  0  0
   -8.2196   23.3955  -31.7085 H   0  0  0  0  0  0  0  0  0  0  0  0
   -7.3472   23.0459  -33.2670 H   0  0  0  0  0  0  0  0  0  0  0  0
   -8.1351   21.0758  -31.0806 H   0  0  0  0  0  0  0  0  0  0  0  0
   -8.6996   21.1361  -32.7916 H   0  0  0  0  0  0  0  0  0  0  0  0
   -7.0114   19.3679  -32.5268 H   0  0  0  0  0  0  0  0  0  0  0  0
   -6.3618   20.7028  -33.5494 H   0  0  0  0  0  0  0  0  0  0  0  0
   -5.7627   20.1106  -30.6171 H   0  0  0  0  0  0  0  0  0  0  0  0
   -4.6262   20.1223  -32.0391 H   0  0  0  0  0  0  0  0  0  0  0  0
    0.0557   20.1607  -29.6775 H   0  0  0  0  0  0  0  0  0  0  0  0
   -0.4071   18.2145  -28.1981 H   0  0  0  0  0  0  0  0  0  0  0  0
   -2.0853   18.4066  -26.3634 H   0  0  0  0  0  0  0  0  0  0  0  0
   -3.3232   20.5410  -26.0264 H   0  0  0  0  0  0  0  0  0  0  0  0
   -0.9981   22.2474  -25.8104 H   0  0  0  0  0  0  0  0  0  0  0  0
    0.9439   23.5360  -24.9149 H   0  0  0  0  0  0  0  0  0  0  0  0
    1.1008   25.9972  -25.3134 H   0  0  0  0  0  0  0  0  0  0  0  0
   -0.6932   27.1720  -26.5934 H   0  0  0  0  0  0  0  0  0  0  0  0
   -2.6391   25.8875  -27.4854 H   0  0  0  0  0  0  0  0  0  0  0  0
  1  2  2  0
  2  3  2  0
  2  4  1  0
  4  5  1  0
  5  6  2  0
  6  7  1  0
  7  8  2  0
  8  9  1  0
  9 10  2  0
 10 11  1  0
  8 12  1  0
 12 13  1  0
 13 14  1  0
 14 15  1  0
  2 16  1  0
 16 17  2  0
 17 18  1  0
 18 19  2  0
 19 20  1  0
 20 21  2  0
 21 22  1  0
 22 23  1  0
 23 24  2  0
 24 25  1  0
 25 26  2  0
 26 27  1  0
 27 28  2  0
 10  5  1  0
 21 16  1  0
 28 23  1  0
 15  7  1  0
  6 29  1  0
  9 30  1  0
 12 31  1  0
 12 32  1  0
 13 33  1  0
 13 34  1  0
 14 35  1  0
 14 36  1  0
 15 37  1  0
 15 38  1  0
 17 39  1  0
 18 40  1  0
 19 41  1  0
 20 42  1  0
 24 43  1  0
 25 44  1  0
 26 45  1  0
 27 46  1  0
 28 47  1  0
M  CHG  2   4  -1  11  -1
M  END
>  <UniqueID>  (2) 
2

>  <SMILES>  (2) 
O=S(=O)([N-]c1cc2c(cc1[O-])CCCC2)c1ccccc1Sc1ccccc1

>  <Energy>  (2) 
55.93038888152987

>  <Genealogy>  (2) 
O=S(=O)([N-]c1cc2c(cc1[O-])CCCC2)c1ccccc1Sc1ccccc1 (protonated)
O=S(=O)([N-]c1cc2c(cc1[O-])CCCC2)c1ccccc1Sc1ccccc1 (3D coordinates assigned)
O=S(=O)([N-]c1cc2c(cc1[O-])CCCC2)c1ccccc1Sc1ccccc1 (nonaromatic ring conformer: 55.93038888152987 kcal/mol)

>  <smiles>  (2) 
O=S(=O)(Nc1cc2c(cc1O)CCCC2)c1ccccc1Sc1ccccc1

>  <score_type>  (2) 
oracle

>  <origin>  (2) 
adgpu

>  <m_score__min__energy>  (2) 
-13.98

>  <m_primary>  (2) 
energy

$$$$
2:0
     RDKit          3D

 44 46  0  0  0  0  0  0  0  0999 V2000
   -3.9900   24.7790  -26.8150 C   0  0  0  0  0  0  0  0  0  0  0  0
   -2.9780   23.9530  -27.5370 C   0  0  0  0  0  0  0  0  0  0  0  0
   -2.3680   22.8770  -27.0000 N   0  0  0  0  0  0  0  0  0  0  0  0
   -1.6070   22.3330  -27.9410 N   0  0  0  0  0  0  0  0  0  0  0  0
   -0.8680   21.0890  -27.7560 C   0  0  0  0  0  0  0  0  0  0  0  0
   -1.7270   23.0310  -29.0910 C   0  0  0  0  0  0  0  0  0  0  0  0
   -1.1720   22.6120  -30.4170 C   0  0  0  0  0  0  0  0  0  0  0  0
   -2.5980   24.0750  -28.8600 C   0  0  0  0  0  0  0  0  0  0  0  0
   -3.1820   24.9210  -29.8500 N   0  0  0  0  0  0  0  0  0  0  0  0
   -4.8690   24.8180  -30.2130 S   0  0  0  0  0  0  0  0  0  0  0  0
   -5.6790   25.0400  -28.9660 O   0  0  0  0  0  0  0  0  0  0  0  0
   -5.2290   25.8760  -31.2180 O   0  0  0  0  0  0  0  0  0  0  0  0
   -5.2090   23.2310  -30.8960 C   0  0  0  0  0  0  0  0  0  0  0  0
   -4.2170   22.2420  -30.9170 C   0  0  0  0  0  0  0  0  0  0  0  0
   -4.4610   21.0130  -31.5350 C   0  0  0  0  0  0  0  0  0  0  0  0
   -5.7020   20.7560  -32.1460 C   0  0  0  0  0  0  0  0  0  0  0  0
   -5.9550   19.4570  -32.8210 C   0  0  0  0  0  0  0  0  0  0  0  0
   -6.9990   18.6190  -32.3870 C   0  0  0  0  0  0  0  0  0  0  0  0
   -7.2390   17.4000  -33.0260 C   0  0  0  0  0  0  0  0  0  0  0  0
   -6.4430   17.0030  -34.1020 C   0  0  0  0  0  0  0  0  0  0  0  0
   -5.4000   17.8240  -34.5480 C   0  0  0  0  0  0  0  0  0  0  0  0
   -4.5840   17.4160  -35.6500 N   0  0  0  0  0  0  0  0  0  0  0  0
   -5.1580   19.0490  -33.9080 C   0  0  0  0  0  0  0  0  0  0  0  0
   -6.6930   21.7530  -32.1200 C   0  0  0  0  0  0  0  0  0  0  0  0
   -6.4470   22.9810  -31.5010 C   0  0  0  0  0  0  0  0  0  0  0  0
   -3.8500   24.6647  -25.7300 H   0  0  0  0  0  0  0  0  0  0  0  0
   -3.8650   25.8363  -27.0915 H   0  0  0  0  0  0  0  0  0  0  0  0
   -5.0009   24.4447  -27.0915 H   0  0  0  0  0  0  0  0  0  0  0  0
   -0.7494   20.8894  -26.6808 H   0  0  0  0  0  0  0  0  0  0  0  0
   -1.4208   20.2611  -28.2239 H   0  0  0  0  0  0  0  0  0  0  0  0
    0.1235   21.1785  -28.2239 H   0  0  0  0  0  0  0  0  0  0  0  0
   -0.3031   21.9560  -30.2600 H   0  0  0  0  0  0  0  0  0  0  0  0
   -1.9438   22.0693  -30.9826 H   0  0  0  0  0  0  0  0  0  0  0  0
   -0.8614   23.5029  -30.9826 H   0  0  0  0  0  0  0  0  0  0  0  0
   -3.2421   22.4339  -30.4450 H   0  0  0  0  0  0  0  0  0  0  0  0
   -3.6775   20.2410  -31.5439 H   0  0  0  0  0  0  0  0  0  0  0  0
   -7.6298   18.9256  -31.5396 H   0  0  0  0  0  0  0  0  0  0  0  0
   -8.0574   16.7513  -32.6804 H   0  0  0  0  0  0  0  0  0  0  0  0
   -6.6358   16.0419  -34.6012 H   0  0  0  0  0  0  0  0  0  0  0  0
   -3.6540   16.9680  -35.4900 H   0  0  0  0  0  0  0  0  0  0  0  0
   -4.9040   17.5570  -36.6330 H   0  0  0  0  0  0  0  0  0  0  0  0
   -4.3397   19.6955  -34.2579 H   0  0  0  0  0  0  0  0  0  0  0  0
   -7.6693   21.5647  -32.5905 H   0  0  0  0  0  0  0  0  0  0  0  0
   -7.2289   23.7547  -31.4888 H   0  0  0  0  0  0  0  0  0  0  0  0
  1  2  1  0
  2  3  2  0
  3  4  1  0
  4  5  1  0
  4  6  1  0
  6  7  1  0
  6  8  2  0
  8  9  1  0
  9 10  1  0
 10 11  2  0
 10 12  2  0
 10 13  1  0
 13 14  2  0
 14 15  1  0
 15 16  2  0
 16 17  1  0
 17 18  2  0
 18 19  1  0
 19 20  2  0
 20 21  1  0
 21 22  1  0
 21 23  2  0
 16 24  1  0
 24 25  2  0
  8  2  1  0
 25 13  1  0
 23 17  1  0
  1 26  1  0
  1 27  1  0
  1 28  1  0
  5 29  1  0
  5 30  1  0
  5 31  1  0
  7 32  1  0
  7 33  1  0
  7 34  1  0
 14 35  1  0
 15 36  1  0
 18 37  1  0
 19 38  1  0
 20 39  1  0
 22 40  1  0
 22 41  1  0
 23 42  1  0
 24 43  1  0
 25 44  1  0
M  CHG  1   9  -1
M  END
>  <UniqueID>  (3) 
3

>  <SMILES>  (3) 
Cc1nn(C)c(C)c1[N-]S(=O)(=O)c1ccc(-c2cccc(N)c2)cc1

>  <Energy>  (3) 
86.55180759818856

>  <Genealogy>  (3) 
Cc1nn(C)c(C)c1[N-]S(=O)(=O)c1ccc(-c2cccc(N)c2)cc1 (protonated)
Cc1nn(C)c(C)c1[N-]S(=O)(=O)c1ccc(-c2cccc(N)c2)cc1 (3D coordinates assigned)
Cc1nn(C)c(C)c1[N-]S(=O)(=O)c1ccc(-c2cccc(N)c2)cc1 (optimized conformer: 86.55180759818856 kcal/mol)

>  <smiles>  (3) 
Cc1nn(C)c(C)c1NS(=O)(=O)c1ccc(-c2cccc(N)c2)cc1

>  <score_type>  (3) 
oracle

>  <origin>  (3) 
adgpu

>  <m_score__min__energy>  (3) 
-9.6999999999999993

>  <m_primary>  (3) 
energy

$$$$
3:0
     RDKit          3D

 52 55  0  0  0  0  0  0  0  0999 V2000
   -5.9870   26.1690  -30.1000 O   0  0  0  0  0  0  0  0  0  0  0  0
   -5.2710   25.3740  -30.7680 C   0  0  0  0  0  0  0  0  0  0  0  0
   -5.8490   24.5860  -31.8150 N   0  0  0  0  0  0  0  0  0  0  0  0
   -5.6300   23.1880  -32.0320 C   0  0  0  0  0  0  0  0  0  0  0  0
   -4.3550   22.6850  -32.3400 C   0  0  0  0  0  0  0  0  0  0  0  0
   -4.1850   21.3240  -32.6040 C   0  0  0  0  0  0  0  0  0  0  0  0
   -5.2810   20.4590  -32.5640 C   0  0  0  0  0  0  0  0  0  0  0  0
   -6.5580   20.9500  -32.2660 C   0  0  0  0  0  0  0  0  0  0  0  0
   -7.9310   19.8420  -32.1510 S   0  0  0  0  0  0  0  0  0  0  0  0
   -8.8800   20.1310  -33.2790 O   0  0  0  0  0  0  0  0  0  0  0  0
   -8.6580   20.0960  -30.8610 O   0  0  0  0  0  0  0  0  0  0  0  0
   -7.4700   18.1590  -32.2100 N   0  0  0  0  0  0  0  0  0  0  0  0
   -6.8510   17.8010  -33.4850 C   0  0  0  0  0  0  0  0  0  0  0  0
   -6.0130   16.5640  -33.2130 C   0  0  0  0  0  0  0  0  0  0  0  0
   -5.7040   16.6170  -31.7220 C   0  0  0  0  0  0  0  0  0  0  0  0
   -6.4830   17.8140  -31.1860 C   0  0  0  0  0  0  0  0  0  0  0  0
   -6.7270   22.3170  -32.0030 C   0  0  0  0  0  0  0  0  0  0  0  0
   -3.8750   25.2740  -30.4700 N   0  0  0  0  0  0  0  0  0  0  0  0
   -3.3250   24.4760  -29.4130 C   0  0  0  0  0  0  0  0  0  0  0  0
   -3.9650   23.2810  -29.0800 C   0  0  0  0  0  0  0  0  0  0  0  0
   -3.4250   22.4390  -28.1120 C   0  0  0  0  0  0  0  0  0  0  0  0
   -2.2230   22.7650  -27.4770 C   0  0  0  0  0  0  0  0  0  0  0  0
   -1.6810   21.8200  -26.6010 O   0  0  0  0  0  0  0  0  0  0  0  0
   -1.5970   24.0060  -27.7500 C   0  0  0  0  0  0  0  0  0  0  0  0
   -0.0650   24.4510  -26.9520 S   0  0  0  0  0  0  0  0  0  0  0  0
    0.4690   23.3040  -26.1390 O   0  0  0  0  0  0  0  0  0  0  0  0
    0.9720   24.8010  -27.9850 O   0  0  0  0  0  0  0  0  0  0  0  0
   -0.3850   25.8760  -25.9120 C   0  0  0  0  0  0  0  0  0  0  0  0
   -0.8420   25.5860  -24.4910 C   0  0  0  0  0  0  0  0  0  0  0  0
   -1.8560   26.0280  -25.5400 C   0  0  0  0  0  0  0  0  0  0  0  0
   -2.1730   24.8670  -28.7140 C   0  0  0  0  0  0  0  0  0  0  0  0
   -1.6140   26.1160  -28.9660 O   0  0  0  0  0  0  0  0  0  0  0  0
   -3.4898   23.3635  -32.3733 H   0  0  0  0  0  0  0  0  0  0  0  0
   -3.1855   20.9324  -32.8440 H   0  0  0  0  0  0  0  0  0  0  0  0
   -5.1403   19.3872  -32.7675 H   0  0  0  0  0  0  0  0  0  0  0  0
   -7.6238   17.5811  -34.2363 H   0  0  0  0  0  0  0  0  0  0  0  0
   -6.2368   18.6241  -33.8790 H   0  0  0  0  0  0  0  0  0  0  0  0
   -6.5779   15.6527  -33.4586 H   0  0  0  0  0  0  0  0  0  0  0  0
   -5.0985   16.5419  -33.8239 H   0  0  0  0  0  0  0  0  0  0  0  0
   -6.0340   15.6912  -31.2280 H   0  0  0  0  0  0  0  0  0  0  0  0
   -4.6249   16.7146  -31.5324 H   0  0  0  0  0  0  0  0  0  0  0  0
   -6.9879   17.5486  -30.2455 H   0  0  0  0  0  0  0  0  0  0  0  0
   -5.8147   18.6620  -30.9756 H   0  0  0  0  0  0  0  0  0  0  0  0
   -7.7287   22.7085  -31.7721 H   0  0  0  0  0  0  0  0  0  0  0  0
   -4.9016   23.0031  -29.5855 H   0  0  0  0  0  0  0  0  0  0  0  0
   -3.9485   21.5093  -27.8444 H   0  0  0  0  0  0  0  0  0  0  0  0
   -0.8120   21.9520  -26.1000 H   0  0  0  0  0  0  0  0  0  0  0  0
    0.3992   26.5152  -26.3438 H   0  0  0  0  0  0  0  0  0  0  0  0
   -0.8530   24.5514  -24.1174 H   0  0  0  0  0  0  0  0  0  0  0  0
   -0.5505   25.9439  -23.4925 H   0  0  0  0  0  0  0  0  0  0  0  0
   -2.5978   25.3125  -25.9244 H   0  0  0  0  0  0  0  0  0  0  0  0
   -2.5985   26.8363  -25.6136 H   0  0  0  0  0  0  0  0  0  0  0  0
  1  2  2  0
  2  3  1  0
  3  4  1  0
  4  5  2  0
  5  6  1  0
  6  7  2  0
  7  8  1  0
  8  9  1  0
  9 10  2  0
  9 11  2  0
  9 12  1  0
 12 13  1  0
 13 14  1  0
 14 15  1  0
 15 16  1  0
  8 17  2  0
  2 18  1  0
 18 19  1  0
 19 20  2  0
 20 21  1  0
 21 22  2  0
 22 23  1  0
 22 24  1  0
 24 25  1  0
 25 26  2  0
 25 27  2  0
 25 28  1  0
 28 29  1  0
 29 30  1  0
 24 31  2  0
 31 32  1  0
 17  4  1  0
 31 19  1  0
 16 12  1  0
 30 28  1  0
  5 33  1  0
  6 34  1  0
  7 35  1  0
 13 36  1  0
 13 37  1  0
 14 38  1  0
 14 39  1  0
 15 40  1  0
 15 41  1  0
 16 42  1  0
 16 43  1  0
 17 44  1  0
 20 45  1  0
 21 46  1  0
 23 47  1  0
 28 48  1  0
 29 49  1  0
 29 50  1  0
 30 51  1  0
 30 52  1  0
M  CHG  3   3  -1  18  -1  32  -1
M  END
>  <UniqueID>  (4) 
4

>  <SMILES>  (4) 
O=C([N-]c1cccc(S(=O)(=O)N2CCCC2)c1)[N-]c1ccc(O)c(S(=O)(=O)C2CC2)c1[O-]

>  <Energy>  (4) 
329.67621996028475

>  <Genealogy>  (4) 
O=C([N-]c1cccc(S(=O)(=O)N2CCCC2)c1)[N-]c1ccc(O)c(S(=O)(=O)C2CC2)c1[O-] (protonated)
O=C([N-]c1cccc(S(=O)(=O)N2CCCC2)c1)[N-]c1ccc(O)c(S(=O)(=O)C2CC2)c1[O-] (3D coordinates assigned)
O=C([N-]c1cccc(S(=O)(=O)N2CCCC2)c1)[N-]c1ccc(O)c(S(=O)(=O)C2CC2)c1[O-] (nonaromatic ring conformer: 329.67621996028475 kcal/mol)

>  <smiles>  (4) 
O=C(Nc1cccc(S(=O)(=O)N2CCCC2)c1)Nc1ccc(O)c(S(=O)(=O)C2CC2)c1O

>  <score_type>  (4) 
oracle

>  <origin>  (4) 
adgpu

>  <m_score__min__energy>  (4) 
-15.77

>  <m_primary>  (4) 
energy

$$$$
4:0
     RDKit          3D

 42 45  0  0  0  0  0  0  0  0999 V2000
   -5.8090   17.4870  -33.8670 C   0  0  0  0  0  0  0  0  0  0  0  0
   -6.4860   16.9790  -32.7550 C   0  0  0  0  0  0  0  0  0  0  0  0
   -7.3380   17.8050  -32.0140 C   0  0  0  0  0  0  0  0  0  0  0  0
   -7.5250   19.1470  -32.3890 C   0  0  0  0  0  0  0  0  0  0  0  0
   -8.4460   20.0370  -31.5950 C   0  0  0  0  0  0  0  0  0  0  0  0
   -8.3390   21.5400  -31.9540 C   0  0  0  0  0  0  0  0  0  0  0  0
   -7.3430   22.3410  -31.1930 N   0  0  2  0  0  0  0  0  0  0  0  0
   -7.6010   23.8060  -31.2440 C   0  0  0  0  0  0  0  0  0  0  0  0
   -6.7880   24.5560  -30.1620 C   0  0  0  0  0  0  0  0  0  0  0  0
   -5.3790   24.0510  -30.1410 C   0  0  0  0  0  0  0  0  0  0  0  0
   -4.3300   24.6460  -29.5270 N   0  0  0  0  0  0  0  0  0  0  0  0
   -3.2820   23.8260  -29.7480 C   0  0  0  0  0  0  0  0  0  0  0  0
   -1.9630   24.0130  -29.3390 C   0  0  0  0  0  0  0  0  0  0  0  0
   -1.0170   23.0350  -29.7000 C   0  0  0  0  0  0  0  0  0  0  0  0
   -1.4040   21.9060  -30.4560 C   0  0  0  0  0  0  0  0  0  0  0  0
   -2.7420   21.7410  -30.8570 C   0  0  0  0  0  0  0  0  0  0  0  0
   -3.6570   22.7220  -30.4790 C   0  0  0  0  0  0  0  0  0  0  0  0
   -5.0070   22.8500  -30.7130 C   0  0  0  0  0  0  0  0  0  0  0  0
   -5.9360   22.0170  -31.5420 C   0  0  0  0  0  0  0  0  0  0  0  0
   -6.8290   19.6540  -33.5000 C   0  0  0  0  0  0  0  0  0  0  0  0
   -5.9790   18.8240  -34.2360 C   0  0  0  0  0  0  0  0  0  0  0  0
   -5.1430   16.8350  -34.4512 H   0  0  0  0  0  0  0  0  0  0  0  0
   -6.3487   15.9277  -32.4618 H   0  0  0  0  0  0  0  0  0  0  0  0
   -7.8633   17.4031  -31.1351 H   0  0  0  0  0  0  0  0  0  0  0  0
   -9.4811   19.7117  -31.7757 H   0  0  0  0  0  0  0  0  0  0  0  0
   -8.1480   19.9411  -30.5405 H   0  0  0  0  0  0  0  0  0  0  0  0
   -8.0779   21.6099  -33.0203 H   0  0  0  0  0  0  0  0  0  0  0  0
   -9.3167   21.9697  -31.6903 H   0  0  0  0  0  0  0  0  0  0  0  0
   -7.4780   22.0510  -30.1930 H   0  0  0  0  0  0  0  0  0  0  0  0
   -7.3147   24.1863  -32.2357 H   0  0  0  0  0  0  0  0  0  0  0  0
   -8.6712   23.9777  -31.0565 H   0  0  0  0  0  0  0  0  0  0  0  0
   -6.7861   25.6325  -30.3882 H   0  0  0  0  0  0  0  0  0  0  0  0
   -7.2490   24.3831  -29.1783 H   0  0  0  0  0  0  0  0  0  0  0  0
   -4.3320   25.5510  -29.0060 H   0  0  0  0  0  0  0  0  0  0  0  0
   -1.6704   24.8966  -28.7528 H   0  0  0  0  0  0  0  0  0  0  0  0
    0.0323   23.1508  -29.3909 H   0  0  0  0  0  0  0  0  0  0  0  0
   -0.6537   21.1508  -30.7329 H   0  0  0  0  0  0  0  0  0  0  0  0
   -3.0554   20.8680  -31.4484 H   0  0  0  0  0  0  0  0  0  0  0  0
   -5.7652   22.2291  -32.6078 H   0  0  0  0  0  0  0  0  0  0  0  0
   -5.7467   20.9518  -31.3431 H   0  0  0  0  0  0  0  0  0  0  0  0
   -6.9538   20.7074  -33.7911 H   0  0  0  0  0  0  0  0  0  0  0  0
   -5.4421   19.2245  -35.1086 H   0  0  0  0  0  0  0  0  0  0  0  0
  1  2  2  0
  2  3  1  0
  3  4  2  0
  4  5  1  0
  5  6  1  0
  6  7  1  0
  7  8  1  0
  8  9  1  0
  9 10  1  0
 10 11  1  0
 11 12  1  0
 12 13  2  0
 13 14  1  0
 14 15  2  0
 15 16  1  0
 16 17  2  0
 17 18  1  0
 18 19  1  0
  4 20  1  0
 20 21  2  0
 21  1  1  0
 19  7  1  0
 18 10  2  0
 17 12  1  0
  1 22  1  0
  2 23  1  0
  3 24  1  0
  5 25  1  0
  5 26  1  0
  6 27  1  0
  6 28  1  0
  7 29  1  1
  8 30  1  0
  8 31  1  0
  9 32  1  0
  9 33  1  0
 11 34  1  0
 13 35  1  0
 14 36  1  0
 15 37  1  0
 16 38  1  0
 19 39  1  0
 19 40  1  0
 20 41  1  0
 21 42  1  0
M  CHG  1   7   1
M  END
>  <UniqueID>  (5) 
5

>  <SMILES>  (5) 
c1ccc(CC[N@@H+]2CCc3[nH]c4ccccc4c3C2)cc1

>  <Energy>  (5) 
87.41702839556811

>  <Genealogy>  (5) 
c1ccc(CC[NH+]2CCc3[nH]c4ccccc4c3C2)cc1 (protonated)
c1ccc(CC[N@@H+]2CCc3[nH]c4ccccc4c3C2)cc1 (chirality)
c1ccc(CC[N@@H+]2CCc3[nH]c4ccccc4c3C2)cc1 (3D coordinates assigned)
c1ccc(CC[N@@H+]2CCc3[nH]c4ccccc4c3C2)cc1 (nonaromatic ring conformer: 87.41702839556811 kcal/mol)

>  <smiles>  (5) 
c1ccc(CCN2CCc3[nH]c4ccccc4c3C2)cc1

>  <score_type>  (5) 
oracle

>  <origin>  (5) 
adgpu

>  <m_score__min__energy>  (5) 
-8.1500000000000004

>  <m_primary>  (5) 
energy

$$$$
5:0
     RDKit          3D

 60 63  0  0  0  0  0  0  0  0999 V2000
   -0.9940   21.3380  -33.7620 C   0  0  0  0  0  0  0  0  0  0  0  0
   -0.6910   21.5180  -32.3330 N   0  0  0  0  0  0  0  0  0  0  0  0
   -1.9330   21.6750  -31.5370 C   0  0  0  0  0  0  0  0  0  0  0  0
   -2.3460   20.3810  -30.8120 C   0  0  0  0  0  0  0  0  0  0  0  0
   -1.2400   19.8830  -29.8610 C   0  0  0  0  0  0  0  0  0  0  0  0
   -1.5350   20.4090  -28.1780 S   0  0  0  0  0  0  0  0  0  0  0  0
   -2.6970   19.6600  -27.6140 O   0  0  0  0  0  0  0  0  0  0  0  0
   -0.3340   20.0830  -27.3480 O   0  0  0  0  0  0  0  0  0  0  0  0
   -1.8480   22.1590  -28.1280 C   0  0  0  0  0  0  0  0  0  0  0  0
   -0.8270   23.0630  -27.7580 C   0  0  0  0  0  0  0  0  0  0  0  0
    0.8210   22.5380  -27.3860 Cl  0  0  0  0  0  0  0  0  0  0  0  0
   -1.0970   24.4320  -27.7000 C   0  0  0  0  0  0  0  0  0  0  0  0
   -2.3550   24.9250  -28.0430 C   0  0  0  0  0  0  0  0  0  0  0  0
   -3.3640   24.0530  -28.4690 C   0  0  0  0  0  0  0  0  0  0  0  0
   -4.6570   24.5450  -28.8480 N   0  0  0  0  0  0  0  0  0  0  0  0
   -4.9850   25.0120  -30.1610 C   0  0  0  0  0  0  0  0  0  0  0  0
   -4.1530   25.6670  -30.8420 O   0  0  0  0  0  0  0  0  0  0  0  0
   -6.2770   24.7380  -30.7150 N   0  0  0  0  0  0  0  0  0  0  0  0
   -6.6270   23.4800  -31.3030 C   0  0  0  0  0  0  0  0  0  0  0  0
   -7.9410   23.0130  -31.2070 C   0  0  0  0  0  0  0  0  0  0  0  0
   -8.2820   21.7600  -31.7280 C   0  0  0  0  0  0  0  0  0  0  0  0
   -7.3030   20.9520  -32.3270 C   0  0  0  0  0  0  0  0  0  0  0  0
   -5.9960   21.4410  -32.4890 C   0  0  0  0  0  0  0  0  0  0  0  0
   -5.6710   22.7090  -31.9850 C   0  0  0  0  0  0  0  0  0  0  0  0
   -4.9130   20.6070  -33.1510 C   0  0  0  0  0  0  0  0  0  0  0  0
   -5.3040   19.2030  -33.4800 N   0  0  0  0  0  0  0  0  0  0  0  0
   -4.1220   18.3120  -33.3920 C   0  0  0  0  0  0  0  0  0  0  0  0
   -6.3950   18.6860  -32.6270 C   0  0  0  0  0  0  0  0  0  0  0  0
   -7.6350   19.5630  -32.7840 C   0  0  0  0  0  0  0  0  0  0  0  0
   -3.1100   22.6710  -28.4940 C   0  0  0  0  0  0  0  0  0  0  0  0
   -4.1140   21.8200  -28.9040 O   0  0  0  0  0  0  0  0  0  0  0  0
    0.1680   20.3240  -30.3260 C   0  0  0  0  0  0  0  0  0  0  0  0
    0.2170   20.4500  -31.8510 C   0  0  0  0  0  0  0  0  0  0  0  0
   -1.9352   20.7789  -33.8697 H   0  0  0  0  0  0  0  0  0  0  0  0
   -1.0954   22.3225  -34.2422 H   0  0  0  0  0  0  0  0  0  0  0  0
   -0.1779   20.7781  -34.2422 H   0  0  0  0  0  0  0  0  0  0  0  0
   -1.7716   22.4623  -30.7859 H   0  0  0  0  0  0  0  0  0  0  0  0
   -2.7423   21.9357  -32.2349 H   0  0  0  0  0  0  0  0  0  0  0  0
   -3.2577   20.5750  -30.2280 H   0  0  0  0  0  0  0  0  0  0  0  0
   -2.5218   19.6039  -31.5705 H   0  0  0  0  0  0  0  0  0  0  0  0
   -1.2736   18.7839  -29.8900 H   0  0  0  0  0  0  0  0  0  0  0  0
   -0.3083   25.1289  -27.3801 H   0  0  0  0  0  0  0  0  0  0  0  0
   -2.5559   26.0046  -27.9786 H   0  0  0  0  0  0  0  0  0  0  0  0
   -5.4620   24.3260  -28.2130 H   0  0  0  0  0  0  0  0  0  0  0  0
   -8.7090   23.6323  -30.7205 H   0  0  0  0  0  0  0  0  0  0  0  0
   -9.3219   21.4066  -31.6679 H   0  0  0  0  0  0  0  0  0  0  0  0
   -4.6544   23.1048  -32.1256 H   0  0  0  0  0  0  0  0  0  0  0  0
   -4.6220   21.1074  -34.0864 H   0  0  0  0  0  0  0  0  0  0  0  0
   -4.0946   20.5329  -32.4197 H   0  0  0  0  0  0  0  0  0  0  0  0
   -3.8789   18.1287  -32.3350 H   0  0  0  0  0  0  0  0  0  0  0  0
   -4.3458   17.3559  -33.8879 H   0  0  0  0  0  0  0  0  0  0  0  0
   -3.2645   18.7904  -33.8879 H   0  0  0  0  0  0  0  0  0  0  0  0
   -6.6362   17.6556  -32.9273 H   0  0  0  0  0  0  0  0  0  0  0  0
   -6.0714   18.6999  -31.5758 H   0  0  0  0  0  0  0  0  0  0  0  0
   -7.9419   19.5843  -33.8401 H   0  0  0  0  0  0  0  0  0  0  0  0
   -8.4599   19.1570  -32.1800 H   0  0  0  0  0  0  0  0  0  0  0  0
    0.4092   21.2978  -29.8749 H   0  0  0  0  0  0  0  0  0  0  0  0
    0.8996   19.5662  -30.0091 H   0  0  0  0  0  0  0  0  0  0  0  0
    1.2459   20.6891  -32.1578 H   0  0  0  0  0  0  0  0  0  0  0  0
   -0.1078   19.4946  -32.2888 H   0  0  0  0  0  0  0  0  0  0  0  0
  1  2  1  0
  2  3  1  0
  3  4  1  0
  4  5  1  0
  5  6  1  0
  6  7  2  0
  6  8  2  0
  6  9  1  0
  9 10  2  0
 10 11  1  0
 10 12  1  0
 12 13  2  0
 13 14  1  0
 14 15  1  0
 15 16  1  0
 16 17  2  0
 16 18  1  0
 18 19  1  0
 19 20  2  0
 20 21  1  0
 21 22  2  0
 22 23  1  0
 23 24  2  0
 23 25  1  0
 25 26  1  0
 26 27  1  0
 26 28  1  0
 28 29  1  0
 14 30  2  0
 30 31  1  0
  5 32  1  0
 32 33  1  0
 33  2  1  0
 30  9  1  0
 24 19  1  0
 29 22  1  0
  1 34  1  0
  1 35  1  0
  1 36  1  0
  3 37  1  0
  3 38  1  0
  4 39  1  0
  4 40  1  0
  5 41  1  0
 12 42  1  0
 13 43  1  0
 15 44  1  0
 20 45  1  0
 21 46  1  0
 24 47  1  0
 25 48  1  0
 25 49  1  0
 27 50  1  0
 27 51  1  0
 27 52  1  0
 28 53  1  0
 28 54  1  0
 29 55  1  0
 29 56  1  0
 32 57  1  0
 32 58  1  0
 33 59  1  0
 33 60  1  0
M  CHG  2  18  -1  31  -1
M  END
>  <UniqueID>  (6) 
6

>  <SMILES>  (6) 
CN1CCC(S(=O)(=O)c2c(Cl)ccc(NC(=O)[N-]c3ccc4c(c3)CN(C)CC4)c2[O-])CC1

>  <Energy>  (6) 
85.07482317259507

>  <Genealogy>  (6) 
CN1CCC(S(=O)(=O)c2c(Cl)ccc(NC(=O)[N-]c3ccc4c(c3)CN(C)CC4)c2[O-])CC1 (protonated)
CN1CCC(S(=O)(=O)c2c(Cl)ccc(NC(=O)[N-]c3ccc4c(c3)CN(C)CC4)c2[O-])CC1 (3D coordinates assigned)
CN1CCC(S(=O)(=O)c2c(Cl)ccc(NC(=O)[N-]c3ccc4c(c3)CN(C)CC4)c2[O-])CC1 (nonaromatic ring conformer: 85.07482317259507 kcal/mol)

>  <smiles>  (6) 
CN1CCC(S(=O)(=O)c2c(Cl)ccc(NC(=O)Nc3ccc4c(c3)CN(C)CC4)c2O)CC1

>  <score_type>  (6) 
oracle

>  <origin>  (6) 
adgpu

>  <m_score__min__energy>  (6) 
-15.52

>  <m_primary>  (6) 
energy

$$$$
6:0
     RDKit          3D

 61 64  0  0  0  0  0  0  0  0999 V2000
   -0.6990   19.6020  -27.0030 N   0  0  0  0  0  0  0  0  0  0  0  0
   -1.3290   20.4300  -27.5070 C   0  0  0  0  0  0  0  0  0  0  0  0
   -2.1160   21.4560  -28.1400 C   0  0  0  0  0  0  0  0  0  0  0  0
   -3.4550   21.6430  -27.7720 C   0  0  0  0  0  0  0  0  0  0  0  0
   -4.2330   22.6040  -28.4230 C   0  0  0  0  0  0  0  0  0  0  0  0
   -3.6780   23.3860  -29.4460 C   0  0  0  0  0  0  0  0  0  0  0  0
   -4.7020   24.5010  -30.3520 S   0  0  0  0  0  0  0  0  0  0  0  0
   -3.8740   25.6560  -30.8440 O   0  0  0  0  0  0  0  0  0  0  0  0
   -5.7640   25.0330  -29.4280 O   0  0  0  0  0  0  0  0  0  0  0  0
   -5.4730   23.7380  -31.7110 N   0  0  0  0  0  0  0  0  0  0  0  0
   -5.8060   22.3480  -31.8090 C   0  0  0  0  0  0  0  0  0  0  0  0
   -4.8800   21.3410  -31.4940 C   0  0  0  0  0  0  0  0  0  0  0  0
   -5.2510   19.9960  -31.5600 C   0  0  0  0  0  0  0  0  0  0  0  0
   -6.5310   19.6360  -32.0020 C   0  0  0  0  0  0  0  0  0  0  0  0
   -6.9940   17.9300  -32.0760 S   0  0  0  0  0  0  0  0  0  0  0  0
   -6.3810   17.2420  -30.8890 O   0  0  0  0  0  0  0  0  0  0  0  0
   -8.4890   17.8360  -31.9270 O   0  0  0  0  0  0  0  0  0  0  0  0
   -6.4580   17.1060  -33.5430 N   0  0  1  0  0  0  0  0  0  0  0  0
   -6.0900   18.0360  -34.6450 C   0  0  0  0  0  0  0  0  0  0  0  0
   -4.5790   18.3610  -34.7320 C   0  0  0  0  0  0  0  0  0  0  0  0
   -3.8630   18.1180  -33.4030 C   0  0  2  0  0  0  0  0  0  0  0  0
   -2.4570   18.6050  -33.4730 N   0  0  0  0  0  0  0  0  0  0  0  0
   -1.5900   18.4790  -32.2780 C   0  0  0  0  0  0  0  0  0  0  0  0
   -1.5610   19.7540  -31.4080 C   0  0  0  0  0  0  0  0  0  0  0  0
   -1.3070   21.0040  -32.2480 C   0  0  0  0  0  0  0  0  0  0  0  0
   -2.3200   21.0940  -33.3860 C   0  0  0  0  0  0  0  0  0  0  0  0
   -2.2360   19.8390  -34.2580 C   0  0  0  0  0  0  0  0  0  0  0  0
   -4.0240   16.6420  -32.9840 C   0  0  0  0  0  0  0  0  0  0  0  0
   -5.4270   16.0740  -33.3040 C   0  0  0  0  0  0  0  0  0  0  0  0
   -7.4440   20.6420  -32.3570 C   0  0  0  0  0  0  0  0  0  0  0  0
   -7.0770   21.9890  -32.2720 C   0  0  0  0  0  0  0  0  0  0  0  0
   -2.3290   23.2180  -29.7920 C   0  0  0  0  0  0  0  0  0  0  0  0
   -1.5540   22.2520  -29.1450 C   0  0  0  0  0  0  0  0  0  0  0  0
   -3.8944   21.0324  -26.9694 H   0  0  0  0  0  0  0  0  0  0  0  0
   -5.2841   22.7475  -28.1320 H   0  0  0  0  0  0  0  0  0  0  0  0
   -3.8572   21.6125  -31.1937 H   0  0  0  0  0  0  0  0  0  0  0  0
   -4.5348   19.2155  -31.2635 H   0  0  0  0  0  0  0  0  0  0  0  0
   -7.3050   16.5870  -33.8740 H   0  0  0  0  0  0  0  0  0  0  0  0
   -6.6364   18.9790  -34.4958 H   0  0  0  0  0  0  0  0  0  0  0  0
   -6.3559   17.5292  -35.5844 H   0  0  0  0  0  0  0  0  0  0  0  0
   -4.4587   19.4179  -35.0121 H   0  0  0  0  0  0  0  0  0  0  0  0
   -4.1315   17.6961  -35.4854 H   0  0  0  0  0  0  0  0  0  0  0  0
   -4.3269   18.7064  -32.5976 H   0  0  0  0  0  0  0  0  0  0  0  0
   -1.9611   17.6454  -31.6637 H   0  0  0  0  0  0  0  0  0  0  0  0
   -0.5645   18.3053  -32.6361 H   0  0  0  0  0  0  0  0  0  0  0  0
   -2.5291   19.8588  -30.8963 H   0  0  0  0  0  0  0  0  0  0  0  0
   -0.7406   19.6557  -30.6819 H   0  0  0  0  0  0  0  0  0  0  0  0
   -1.3989   21.8949  -31.6094 H   0  0  0  0  0  0  0  0  0  0  0  0
   -0.2946   20.9481  -32.6745 H   0  0  0  0  0  0  0  0  0  0  0  0
   -3.3333   21.1796  -32.9665 H   0  0  0  0  0  0  0  0  0  0  0  0
   -2.0965   21.9782  -34.0010 H   0  0  0  0  0  0  0  0  0  0  0  0
   -3.0017   19.9013  -35.0453 H   0  0  0  0  0  0  0  0  0  0  0  0
   -1.2254   19.7914  -34.6898 H   0  0  0  0  0  0  0  0  0  0  0  0
   -3.8529   16.5643  -31.9002 H   0  0  0  0  0  0  0  0  0  0  0  0
   -3.2918   16.0547  -33.5576 H   0  0  0  0  0  0  0  0  0  0  0  0
   -5.7500   15.4537  -32.4549 H   0  0  0  0  0  0  0  0  0  0  0  0
   -5.3307   15.5009  -34.2379 H   0  0  0  0  0  0  0  0  0  0  0  0
   -8.4519   20.3697  -32.7033 H   0  0  0  0  0  0  0  0  0  0  0  0
   -7.7912   22.7704  -32.5707 H   0  0  0  0  0  0  0  0  0  0  0  0
   -1.8804   23.8480  -30.5742 H   0  0  0  0  0  0  0  0  0  0  0  0
   -0.4992   22.1166  -29.4262 H   0  0  0  0  0  0  0  0  0  0  0  0
  1  2  3  0
  2  3  1  0
  3  4  2  0
  4  5  1  0
  5  6  2  0
  6  7  1  0
  7  8  2  0
  7  9  2  0
  7 10  1  0
 10 11  1  0
 11 12  2  0
 12 13  1  0
 13 14  2  0
 14 15  1  0
 15 16  2  0
 15 17  2  0
 15 18  1  0
 18 19  1  0
 19 20  1  0
 20 21  1  0
 21 22  1  0
 22 23  1  0
 23 24  1  0
 24 25  1  0
 25 26  1  0
 26 27  1  0
 21 28  1  0
 28 29  1  0
 14 30  1  0
 30 31  2  0
  6 32  1  0
 32 33  2  0
 33  3  1  0
 31 11  1  0
 29 18  1  0
 27 22  1  0
  4 34  1  0
  5 35  1  0
 12 36  1  0
 13 37  1  0
 18 38  1  6
 19 39  1  0
 19 40  1  0
 20 41  1  0
 20 42  1  0
 21 43  1  1
 23 44  1  0
 23 45  1  0
 24 46  1  0
 24 47  1  0
 25 48  1  0
 25 49  1  0
 26 50  1  0
 26 51  1  0
 27 52  1  0
 27 53  1  0
 28 54  1  0
 28 55  1  0
 29 56  1  0
 29 57  1  0
 30 58  1  0
 31 59  1  0
 32 60  1  0
 33 61  1  0
M  CHG  2  10  -1  18   1
M  END
>  <UniqueID>  (7) 
7

>  <SMILES>  (7) 
N#Cc1ccc(S(=O)(=O)[N-]c2ccc(S(=O)(=O)[NH+]3CCC(N4CCCCC4)CC3)cc2)cc1

>  <Energy>  (7) 
90.65906661125956

>  <Genealogy>  (7) 
N#Cc1ccc(S(=O)(=O)[N-]c2ccc(S(=O)(=O)[NH+]3CCC(N4CCCCC4)CC3)cc2)cc1 (protonated)
N#Cc1ccc(S(=O)(=O)[N-]c2ccc(S(=O)(=O)[NH+]3CCC(N4CCCCC4)CC3)cc2)cc1 (3D coordinates assigned)
N#Cc1ccc(S(=O)(=O)[N-]c2ccc(S(=O)(=O)[NH+]3CCC(N4CCCCC4)CC3)cc2)cc1 (nonaromatic ring conformer: 90.65906661125956 kcal/mol)

>  <smiles>  (7) 
N#Cc1ccc(S(=O)(=O)Nc2ccc(S(=O)(=O)N3CCC(N4CCCCC4)CC3)cc2)cc1

>  <score_type>  (7) 
oracle

>  <origin>  (7) 
adgpu

>  <m_score__min__energy>  (7) 
-11.73

>  <m_primary>  (7) 
energy

$$$$
7:0
     RDKit          3D

 69 72  0  0  0  0  0  0  0  0999 V2000
   -7.1610   23.5500  -29.8370 C   0  0  0  0  0  0  0  0  0  0  0  0
   -7.8260   22.9830  -30.9640 O   0  0  0  0  0  0  0  0  0  0  0  0
   -7.3840   21.8530  -31.6700 C   0  0  0  0  0  0  0  0  0  0  0  0
   -8.1980   20.7090  -31.8010 C   0  0  0  0  0  0  0  0  0  0  0  0
   -7.7520   19.6010  -32.5190 C   0  0  0  0  0  0  0  0  0  0  0  0
   -6.4920   19.6150  -33.1240 C   0  0  0  0  0  0  0  0  0  0  0  0
   -5.9260   18.1980  -34.0060 S   0  0  0  0  0  0  0  0  0  0  0  0
   -6.7590   17.0000  -33.6390 O   0  0  0  0  0  0  0  0  0  0  0  0
   -6.0750   18.4740  -35.4760 O   0  0  0  0  0  0  0  0  0  0  0  0
   -4.2500   17.8870  -33.6170 N   0  0  0  0  0  0  0  0  0  0  0  0
   -3.8780   16.5410  -34.0930 C   0  0  0  0  0  0  0  0  0  0  0  0
   -2.3600   16.2790  -34.0400 C   0  0  0  0  0  0  0  0  0  0  0  0
   -1.6580   16.8970  -32.8160 C   0  0  0  0  0  0  0  0  0  0  0  0
   -1.1710   18.3610  -32.9820 C   0  0  0  0  0  0  0  0  0  0  0  0
   -2.2860   19.3990  -33.1990 C   0  0  0  0  0  0  0  0  0  0  0  0
   -3.3840   18.9400  -34.1900 C   0  0  0  0  0  0  0  0  0  0  0  0
   -5.6620   20.7300  -32.9730 C   0  0  0  0  0  0  0  0  0  0  0  0
   -6.0990   21.8650  -32.2650 C   0  0  0  0  0  0  0  0  0  0  0  0
   -5.2000   23.0390  -32.1130 C   0  0  0  0  0  0  0  0  0  0  0  0
   -5.6740   24.2020  -32.2150 O   0  0  0  0  0  0  0  0  0  0  0  0
   -3.8130   22.9020  -31.7750 N   0  0  0  0  0  0  0  0  0  0  0  0
   -3.1790   23.2250  -30.5260 C   0  0  0  0  0  0  0  0  0  0  0  0
   -2.5320   22.1950  -29.8310 C   0  0  0  0  0  0  0  0  0  0  0  0
   -1.9460   22.4330  -28.5810 C   0  0  0  0  0  0  0  0  0  0  0  0
   -1.1280   21.1230  -27.7270 S   0  0  0  0  0  0  0  0  0  0  0  0
   -1.7460   20.9860  -26.3630 O   0  0  0  0  0  0  0  0  0  0  0  0
    0.3180   21.4890  -27.5480 O   0  0  0  0  0  0  0  0  0  0  0  0
   -1.3100   19.6160  -28.6070 N   0  0  0  0  0  0  0  0  0  0  0  0
   -0.7600   19.6630  -29.9770 C   0  0  0  0  0  0  0  0  0  0  0  0
    0.7730   19.5480  -30.0180 C   0  0  0  0  0  0  0  0  0  0  0  0
    1.2560   18.3230  -29.2400 C   0  0  0  0  0  0  0  0  0  0  0  0
    0.6940   18.3260  -27.8190 C   0  0  0  0  0  0  0  0  0  0  0  0
   -0.8370   18.4460  -27.8400 C   0  0  0  0  0  0  0  0  0  0  0  0
   -2.0100   23.7130  -28.0190 C   0  0  0  0  0  0  0  0  0  0  0  0
   -2.6510   24.7460  -28.7020 C   0  0  0  0  0  0  0  0  0  0  0  0
   -3.2590   24.5080  -29.9450 C   0  0  0  0  0  0  0  0  0  0  0  0
   -3.9590   25.5320  -30.5780 O   0  0  0  0  0  0  0  0  0  0  0  0
   -7.6137   23.1640  -28.9117 H   0  0  0  0  0  0  0  0  0  0  0  0
   -6.0955   23.2782  -29.8650 H   0  0  0  0  0  0  0  0  0  0  0  0
   -7.2609   24.6451  -29.8650 H   0  0  0  0  0  0  0  0  0  0  0  0
   -9.1931   20.6910  -31.3326 H   0  0  0  0  0  0  0  0  0  0  0  0
   -8.3938   18.7123  -32.6100 H   0  0  0  0  0  0  0  0  0  0  0  0
   -4.3843   15.7946  -33.4632 H   0  0  0  0  0  0  0  0  0  0  0  0
   -4.1867   16.4687  -35.1463 H   0  0  0  0  0  0  0  0  0  0  0  0
   -2.1976   15.1913  -34.0188 H   0  0  0  0  0  0  0  0  0  0  0  0
   -1.9243   16.7560  -34.9303 H   0  0  0  0  0  0  0  0  0  0  0  0
   -2.3643   16.8702  -31.9731 H   0  0  0  0  0  0  0  0  0  0  0  0
   -0.7496   16.2969  -32.6592 H   0  0  0  0  0  0  0  0  0  0  0  0
   -0.6169   18.6409  -32.0739 H   0  0  0  0  0  0  0  0  0  0  0  0
   -0.5553   18.3776  -33.8934 H   0  0  0  0  0  0  0  0  0  0  0  0
   -2.7600   19.6067  -32.2283 H   0  0  0  0  0  0  0  0  0  0  0  0
   -1.8127   20.2905  -33.6362 H   0  0  0  0  0  0  0  0  0  0  0  0
   -4.0078   19.8068  -34.4537 H   0  0  0  0  0  0  0  0  0  0  0  0
   -2.8848   18.5210  -35.0762 H   0  0  0  0  0  0  0  0  0  0  0  0
   -4.6541   20.7199  -33.4134 H   0  0  0  0  0  0  0  0  0  0  0  0
   -2.4836   21.1883  -30.2716 H   0  0  0  0  0  0  0  0  0  0  0  0
   -1.1887   18.8308  -30.5547 H   0  0  0  0  0  0  0  0  0  0  0  0
   -1.0262   20.6416  -30.4030 H   0  0  0  0  0  0  0  0  0  0  0  0
    1.0984   19.4595  -31.0650 H   0  0  0  0  0  0  0  0  0  0  0  0
    1.2027   20.4478  -29.5534 H   0  0  0  0  0  0  0  0  0  0  0  0
    0.9217   17.4120  -29.7580 H   0  0  0  0  0  0  0  0  0  0  0  0
    2.3543   18.3511  -29.1847 H   0  0  0  0  0  0  0  0  0  0  0  0
    0.9757   17.3884  -27.3175 H   0  0  0  0  0  0  0  0  0  0  0  0
    1.1086   19.1887  -27.2770 H   0  0  0  0  0  0  0  0  0  0  0  0
   -1.2545   17.5356  -28.2950 H   0  0  0  0  0  0  0  0  0  0  0  0
   -1.1729   18.5743  -26.8004 H   0  0  0  0  0  0  0  0  0  0  0  0
   -1.5538   23.9046  -27.0366 H   0  0  0  0  0  0  0  0  0  0  0  0
   -2.6805   25.7545  -28.2638 H   0  0  0  0  0  0  0  0  0  0  0  0
   -4.1640   25.5030  -31.5700 H   0  0  0  0  0  0  0  0  0  0  0  0
  1  2  1  0
  2  3  1  0
  3  4  2  0
  4  5  1  0
  5  6  2  0
  6  7  1  0
  7  8  2  0
  7  9  2  0
  7 10  1  0
 10 11  1  0
 11 12  1  0
 12 13  1  0
 13 14  1  0
 14 15  1  0
 15 16  1  0
  6 17  1  0
 17 18  2  0
 18 19  1  0
 19 20  2  0
 19 21  1  0
 21 22  1  0
 22 23  2  0
 23 24  1  0
 24 25  1  0
 25 26  2  0
 25 27  2  0
 25 28  1  0
 28 29  1  0
 29 30  1  0
 30 31  1  0
 31 32  1  0
 32 33  1  0
 24 34  2  0
 34 35  1  0
 35 36  2  0
 36 37  1  0
 18  3  1  0
 36 22  1  0
 16 10  1  0
 33 28  1  0
  1 38  1  0
  1 39  1  0
  1 40  1  0
  4 41  1  0
  5 42  1  0
 11 43  1  0
 11 44  1  0
 12 45  1  0
 12 46  1  0
 13 47  1  0
 13 48  1  0
 14 49  1  0
 14 50  1  0
 15 51  1  0
 15 52  1  0
 16 53  1  0
 16 54  1  0
 17 55  1  0
 23 56  1  0
 29 57  1  0
 29 58  1  0
 30 59  1  0
 30 60  1  0
 31 61  1  0
 31 62  1  0
 32 63  1  0
 32 64  1  0
 33 65  1  0
 33 66  1  0
 34 67  1  0
 35 68  1  0
 37 69  1  0
M  CHG  1  21  -1
M  END
>  <UniqueID>  (8) 
8

>  <SMILES>  (8) 
COc1ccc(S(=O)(=O)N2CCCCCC2)cc1C(=O)[N-]c1cc(S(=O)(=O)N2CCCCC2)ccc1O

>  <Energy>  (8) 
86.5601722832004

>  <Genealogy>  (8) 
COc1ccc(S(=O)(=O)N2CCCCCC2)cc1C(=O)[N-]c1cc(S(=O)(=O)N2CCCCC2)ccc1O (protonated)
COc1ccc(S(=O)(=O)N2CCCCCC2)cc1C(=O)[N-]c1cc(S(=O)(=O)N2CCCCC2)ccc1O (3D coordinates assigned)
COc1ccc(S(=O)(=O)N2CCCCCC2)cc1C(=O)[N-]c1cc(S(=O)(=O)N2CCCCC2)ccc1O (nonaromatic ring conformer: 86.5601722832004 kcal/mol)

>  <smiles>  (8) 
COc1ccc(S(=O)(=O)N2CCCCCC2)cc1C(=O)Nc1cc(S(=O)(=O)N2CCCCC2)ccc1O

>  <score_type>  (8) 
oracle

>  <origin>  (8) 
adgpu

>  <m_score__min__energy>  (8) 
-10.41

>  <m_primary>  (8) 
energy

$$$$
8:0
     RDKit          3D

 54 56  0  0  0  0  0  0  0  0999 V2000
   -1.5220   21.7160  -29.0630 C   0  0  0  0  0  0  0  0  0  0  0  0
   -0.5560   22.7900  -29.5570 C   0  0  0  0  0  0  0  0  0  0  0  0
   -0.1050   23.6780  -28.4190 C   0  0  0  0  0  0  0  0  0  0  0  0
    0.8840   23.2040  -27.5420 C   0  0  0  0  0  0  0  0  0  0  0  0
    1.3360   23.9990  -26.4900 C   0  0  0  0  0  0  0  0  0  0  0  0
    0.8150   25.2790  -26.3030 C   0  0  0  0  0  0  0  0  0  0  0  0
   -0.1650   25.7850  -27.1730 C   0  0  0  0  0  0  0  0  0  0  0  0
   -0.7140   27.1720  -26.9180 C   0  0  0  0  0  0  0  0  0  0  0  0
   -1.2310   27.3110  -25.4880 C   0  0  0  0  0  0  0  0  0  0  0  0
   -0.6170   24.9850  -28.2500 C   0  0  0  0  0  0  0  0  0  0  0  0
   -1.6140   25.4800  -29.1520 N   0  0  0  0  0  0  0  0  0  0  0  0
   -2.9260   24.9210  -29.2330 C   0  0  0  0  0  0  0  0  0  0  0  0
   -3.3640   24.2460  -28.2640 O   0  0  0  0  0  0  0  0  0  0  0  0
   -3.6970   25.0740  -30.4330 N   0  0  0  0  0  0  0  0  0  0  0  0
   -4.8120   24.2780  -30.8560 C   0  0  0  0  0  0  0  0  0  0  0  0
   -4.5660   23.1670  -31.6710 C   0  0  0  0  0  0  0  0  0  0  0  0
   -5.6230   22.3770  -32.1310 C   0  0  0  0  0  0  0  0  0  0  0  0
   -6.9500   22.7070  -31.8030 C   0  0  0  0  0  0  0  0  0  0  0  0
   -8.0340   21.9330  -32.2420 O   0  0  0  0  0  0  0  0  0  0  0  0
   -8.0550   20.5320  -32.2930 C   0  0  0  0  0  0  0  0  0  0  0  0
   -9.0220   19.8410  -31.5580 C   0  0  0  0  0  0  0  0  0  0  0  0
   -9.0600   18.4460  -31.6090 C   0  0  0  0  0  0  0  0  0  0  0  0
   -8.1590   17.7680  -32.3680 N   0  0  0  0  0  0  0  0  0  0  0  0
   -7.2010   18.4060  -33.0950 C   0  0  0  0  0  0  0  0  0  0  0  0
   -6.2730   17.6070  -33.9170 C   0  0  0  0  0  0  0  0  0  0  0  0
   -6.5040   16.3790  -34.0680 O   0  0  0  0  0  0  0  0  0  0  0  0
   -5.0880   18.1600  -34.5090 N   0  0  0  0  0  0  0  0  0  0  0  0
   -4.0320   18.8600  -33.7900 C   0  0  0  0  0  0  0  0  0  0  0  0
   -7.1560   19.8070  -33.0940 C   0  0  0  0  0  0  0  0  0  0  0  0
   -7.1970   23.8160  -30.9900 C   0  0  0  0  0  0  0  0  0  0  0  0
   -6.1410   24.6090  -30.5290 C   0  0  0  0  0  0  0  0  0  0  0  0
   -1.5296   21.7076  -27.9631 H   0  0  0  0  0  0  0  0  0  0  0  0
   -2.5340   21.9339  -29.4350 H   0  0  0  0  0  0  0  0  0  0  0  0
   -1.1984   20.7327  -29.4350 H   0  0  0  0  0  0  0  0  0  0  0  0
    0.3236   22.3043  -30.0046 H   0  0  0  0  0  0  0  0  0  0  0  0
   -1.0741   23.4114  -30.3023 H   0  0  0  0  0  0  0  0  0  0  0  0
    1.3051   22.1981  -27.6862 H   0  0  0  0  0  0  0  0  0  0  0  0
    2.1064   23.6154  -25.8049 H   0  0  0  0  0  0  0  0  0  0  0  0
    1.1744   25.8975  -25.4674 H   0  0  0  0  0  0  0  0  0  0  0  0
    0.0853   27.9095  -27.0831 H   0  0  0  0  0  0  0  0  0  0  0  0
   -1.5527   27.3452  -27.6083 H   0  0  0  0  0  0  0  0  0  0  0  0
   -0.4172   27.0922  -24.7810 H   0  0  0  0  0  0  0  0  0  0  0  0
   -1.5909   28.3378  -25.3264 H   0  0  0  0  0  0  0  0  0  0  0  0
   -2.0573   26.6031  -25.3264 H   0  0  0  0  0  0  0  0  0  0  0  0
   -3.5329   22.9138  -31.9515 H   0  0  0  0  0  0  0  0  0  0  0  0
   -5.4161   21.4932  -32.7523 H   0  0  0  0  0  0  0  0  0  0  0  0
   -9.7486   20.3924  -30.9432 H   0  0  0  0  0  0  0  0  0  0  0  0
   -9.8196   17.8955  -31.0346 H   0  0  0  0  0  0  0  0  0  0  0  0
   -4.1929   18.7534  -32.7071 H   0  0  0  0  0  0  0  0  0  0  0  0
   -3.0566   18.4290  -34.0600 H   0  0  0  0  0  0  0  0  0  0  0  0
   -4.0491   19.9262  -34.0600 H   0  0  0  0  0  0  0  0  0  0  0  0
   -6.4204   20.3366  -33.7173 H   0  0  0  0  0  0  0  0  0  0  0  0
   -8.2306   24.0677  -30.7101 H   0  0  0  0  0  0  0  0  0  0  0  0
   -6.3493   25.4936  -29.9093 H   0  0  0  0  0  0  0  0  0  0  0  0
  1  2  1  0
  2  3  1  0
  3  4  2  0
  4  5  1  0
  5  6  2  0
  6  7  1  0
  7  8  1  0
  8  9  1  0
  7 10  2  0
 10 11  1  0
 11 12  1  0
 12 13  2  0
 12 14  1  0
 14 15  1  0
 15 16  2  0
 16 17  1  0
 17 18  2  0
 18 19  1  0
 19 20  1  0
 20 21  2  0
 21 22  1  0
 22 23  2  0
 23 24  1  0
 24 25  1  0
 25 26  2  0
 25 27  1  0
 27 28  1  0
 24 29  2  0
 18 30  1  0
 30 31  2  0
 10  3  1  0
 31 15  1  0
 29 20  1  0
  1 32  1  0
  1 33  1  0
  1 34  1  0
  2 35  1  0
  2 36  1  0
  4 37  1  0
  5 38  1  0
  6 39  1  0
  8 40  1  0
  8 41  1  0
  9 42  1  0
  9 43  1  0
  9 44  1  0
 16 45  1  0
 17 46  1  0
 21 47  1  0
 22 48  1  0
 28 49  1  0
 28 50  1  0
 28 51  1  0
 29 52  1  0
 30 53  1  0
 31 54  1  0
M  CHG  3  11  -1  14  -1  27  -1
M  END
>  <UniqueID>  (9) 
9

>  <SMILES>  (9) 
CCc1cccc(CC)c1[N-]C(=O)[N-]c1ccc(Oc2ccnc(C(=O)[N-]C)c2)cc1

>  <Energy>  (9) 
70.32933093265667

>  <Genealogy>  (9) 
CCc1cccc(CC)c1[N-]C(=O)[N-]c1ccc(Oc2ccnc(C(=O)[N-]C)c2)cc1 (protonated)
CCc1cccc(CC)c1[N-]C(=O)[N-]c1ccc(Oc2ccnc(C(=O)[N-]C)c2)cc1 (3D coordinates assigned)
CCc1cccc(CC)c1[N-]C(=O)[N-]c1ccc(Oc2ccnc(C(=O)[N-]C)c2)cc1 (optimized conformer: 70.32933093265667 kcal/mol)

>  <smiles>  (9) 
CCc1cccc(CC)c1NC(=O)Nc1ccc(Oc2ccnc(C(=O)NC)c2)cc1

>  <score_type>  (9) 
oracle

>  <origin>  (9) 
adgpu

>  <m_score__min__energy>  (9) 
-11.83

>  <m_primary>  (9) 
energy

$$$$
9:0
     RDKit          3D

 54 56  0  0  0  0  0  0  0  0999 V2000
   -8.4440   20.8380  -31.9070 C   0  0  0  0  0  0  0  0  0  0  0  0
   -7.5930   22.0050  -31.4980 C   0  0  0  0  0  0  0  0  0  0  0  0
   -6.8610   22.7170  -32.4600 C   0  0  0  0  0  0  0  0  0  0  0  0
   -6.0990   23.8280  -32.0870 C   0  0  0  0  0  0  0  0  0  0  0  0
   -6.0600   24.2410  -30.7470 C   0  0  0  0  0  0  0  0  0  0  0  0
   -5.2710   25.4560  -30.3540 C   0  0  0  0  0  0  0  0  0  0  0  0
   -3.8780   25.2690  -30.7470 N   0  0  0  0  0  0  0  0  0  0  0  0
   -3.1540   24.0240  -29.7770 S   0  0  0  0  0  0  0  0  0  0  0  0
   -1.8030   24.4850  -29.3070 O   0  0  0  0  0  0  0  0  0  0  0  0
   -4.0110   23.7550  -28.5710 O   0  0  0  0  0  0  0  0  0  0  0  0
   -2.9590   22.5540  -30.7290 C   0  0  0  0  0  0  0  0  0  0  0  0
   -4.0190   21.6440  -30.8260 C   0  0  0  0  0  0  0  0  0  0  0  0
   -3.8690   20.4650  -31.5620 C   0  0  0  0  0  0  0  0  0  0  0  0
   -2.6550   20.1830  -32.2010 C   0  0  0  0  0  0  0  0  0  0  0  0
   -2.4810   18.7030  -33.1430 S   0  0  0  0  0  0  0  0  0  0  0  0
   -1.7240   19.0100  -34.4040 O   0  0  0  0  0  0  0  0  0  0  0  0
   -1.6800   17.7150  -32.3380 O   0  0  0  0  0  0  0  0  0  0  0  0
   -4.0750   18.0540  -33.4900 N   0  0  0  0  0  0  0  0  0  0  0  0
   -4.9990   19.0680  -34.0520 C   0  0  0  0  0  0  0  0  0  0  0  0
   -6.5050   18.7790  -33.8760 C   0  0  0  0  0  0  0  0  0  0  0  0
   -6.7710   17.5520  -32.9950 C   0  0  0  0  0  0  0  0  0  0  0  0
   -6.5220   16.2130  -33.7080 C   0  0  0  0  0  0  0  0  0  0  0  0
   -5.0680   15.7180  -33.6800 C   0  0  0  0  0  0  0  0  0  0  0  0
   -4.0470   16.7520  -34.1960 C   0  0  0  0  0  0  0  0  0  0  0  0
   -1.5940   21.0940  -32.1060 C   0  0  0  0  0  0  0  0  0  0  0  0
   -1.7440   22.2730  -31.3710 C   0  0  0  0  0  0  0  0  0  0  0  0
   -6.8190   23.5490  -29.7900 C   0  0  0  0  0  0  0  0  0  0  0  0
   -7.5830   22.4390  -30.1640 C   0  0  0  0  0  0  0  0  0  0  0  0
   -8.8184   20.3246  -31.0090 H   0  0  0  0  0  0  0  0  0  0  0  0
   -9.2943   21.1963  -32.5058 H   0  0  0  0  0  0  0  0  0  0  0  0
   -7.8429   20.1379  -32.5058 H   0  0  0  0  0  0  0  0  0  0  0  0
   -6.8868   22.3995  -33.5129 H   0  0  0  0  0  0  0  0  0  0  0  0
   -5.5276   24.3806  -32.8474 H   0  0  0  0  0  0  0  0  0  0  0  0
   -5.6812   26.3415  -30.8616 H   0  0  0  0  0  0  0  0  0  0  0  0
   -5.3324   25.6014  -29.2654 H   0  0  0  0  0  0  0  0  0  0  0  0
   -4.9728   21.8576  -30.3214 H   0  0  0  0  0  0  0  0  0  0  0  0
   -4.7070   19.7566  -31.6395 H   0  0  0  0  0  0  0  0  0  0  0  0
   -4.4640   17.8330  -32.5430 H   0  0  0  0  0  0  0  0  0  0  0  0
   -4.7811   20.0296  -33.5643 H   0  0  0  0  0  0  0  0  0  0  0  0
   -4.8201   19.0646  -35.1374 H   0  0  0  0  0  0  0  0  0  0  0  0
   -6.9801   19.6558  -33.4117 H   0  0  0  0  0  0  0  0  0  0  0  0
   -6.9230   18.5710  -34.8720 H   0  0  0  0  0  0  0  0  0  0  0  0
   -6.1110   17.6056  -32.1166 H   0  0  0  0  0  0  0  0  0  0  0  0
   -7.8363   17.5774  -32.7220 H   0  0  0  0  0  0  0  0  0  0  0  0
   -7.1509   15.4492  -33.2272 H   0  0  0  0  0  0  0  0  0  0  0  0
   -6.7672   16.3807  -34.7671 H   0  0  0  0  0  0  0  0  0  0  0  0
   -4.8086   15.4632  -32.6418 H   0  0  0  0  0  0  0  0  0  0  0  0
   -5.0126   14.8502  -34.3537 H   0  0  0  0  0  0  0  0  0  0  0  0
   -3.0398   16.3238  -34.0856 H   0  0  0  0  0  0  0  0  0  0  0  0
   -4.3162   16.9596  -35.2421 H   0  0  0  0  0  0  0  0  0  0  0  0
   -0.6406   20.8803  -32.6114 H   0  0  0  0  0  0  0  0  0  0  0  0
   -0.9069   22.9827  -31.2957 H   0  0  0  0  0  0  0  0  0  0  0  0
   -6.8127   23.8813  -28.7414 H   0  0  0  0  0  0  0  0  0  0  0  0
   -8.1784   21.9042  -29.4093 H   0  0  0  0  0  0  0  0  0  0  0  0
  1  2  1  0
  2  3  2  0
  3  4  1  0
  4  5  2  0
  5  6  1  0
  6  7  1  0
  7  8  1  0
  8  9  2  0
  8 10  2  0
  8 11  1  0
 11 12  2  0
 12 13  1  0
 13 14  2  0
 14 15  1  0
 15 16  2  0
 15 17  2  0
 15 18  1  0
 18 19  1  0
 19 20  1  0
 20 21  1  0
 21 22  1  0
 22 23  1  0
 23 24  1  0
 14 25  1  0
 25 26  2  0
  5 27  1  0
 27 28  2  0
 28  2  1  0
 26 11  1  0
 24 18  1  0
  1 29  1  0
  1 30  1  0
  1 31  1  0
  3 32  1  0
  4 33  1  0
  6 34  1  0
  6 35  1  0
 12 36  1  0
 13 37  1  0
 18 38  1  0
 19 39  1  0
 19 40  1  0
 20 41  1  0
 20 42  1  0
 21 43  1  0
 21 44  1  0
 22 45  1  0
 22 46  1  0
 23 47  1  0
 23 48  1  0
 24 49  1  0
 24 50  1  0
 25 51  1  0
 26 52  1  0
 27 53  1  0
 28 54  1  0
M  CHG  2   7  -1  18   1
M  END
>  <UniqueID>  (10) 
10

>  <SMILES>  (10) 
Cc1ccc(C[N-]S(=O)(=O)c2ccc(S(=O)(=O)[NH+]3CCCCCC3)cc2)cc1

>  <Energy>  (10) 
61.88277617945624

>  <Genealogy>  (10) 
Cc1ccc(C[N-]S(=O)(=O)c2ccc(S(=O)(=O)[NH+]3CCCCCC3)cc2)cc1 (protonated)
Cc1ccc(C[N-]S(=O)(=O)c2ccc(S(=O)(=O)[NH+]3CCCCCC3)cc2)cc1 (3D coordinates assigned)
Cc1ccc(C[N-]S(=O)(=O)c2ccc(S(=O)(=O)[NH+]3CCCCCC3)cc2)cc1 (nonaromatic ring conformer: 61.88277617945624 kcal/mol)

>  <smiles>  (10) 
Cc1ccc(CNS(=O)(=O)c2ccc(S(=O)(=O)N3CCCCCC3)cc2)cc1

>  <score_type>  (10) 
oracle

>  <origin>  (10) 
adgpu

>  <m_score__min__energy>  (10) 
-8.7699999999999996

>  <m_primary>  (10) 
energy

$$$$
10:0
     RDKit          3D

 44 47  0  0  0  0  0  0  0  0999 V2000
   -1.2560   19.3930  -27.8560 C   0  0  0  0  0  0  0  0  0  0  0  0
   -1.8880   20.3150  -26.8200 C   0  0  0  0  0  0  0  0  0  0  0  0
   -2.4970   21.4720  -27.4740 N   0  0  0  0  0  0  0  0  0  0  0  0
   -3.8040   21.6870  -27.4870 N   0  0  0  0  0  0  0  0  0  0  0  0
   -4.0270   22.8500  -28.1290 C   0  0  0  0  0  0  0  0  0  0  0  0
   -2.8230   23.3860  -28.5420 C   0  0  0  0  0  0  0  0  0  0  0  0
   -2.6510   24.6500  -29.2880 C   0  0  0  0  0  0  0  0  0  0  0  0
   -1.7140   25.4260  -28.9650 O   0  0  0  0  0  0  0  0  0  0  0  0
   -3.5050   25.0160  -30.3780 N   0  0  0  0  0  0  0  0  0  0  0  0
   -4.6130   24.2490  -30.8710 C   0  0  0  0  0  0  0  0  0  0  0  0
   -4.3600   23.0470  -31.5420 C   0  0  0  0  0  0  0  0  0  0  0  0
   -5.4170   22.2660  -32.0160 C   0  0  0  0  0  0  0  0  0  0  0  0
   -6.7460   22.6850  -31.8290 C   0  0  0  0  0  0  0  0  0  0  0  0
   -7.8330   21.9240  -32.2840 O   0  0  0  0  0  0  0  0  0  0  0  0
   -7.9230   20.5290  -32.1920 C   0  0  0  0  0  0  0  0  0  0  0  0
   -8.7980   19.9680  -31.3090 N   0  0  0  0  0  0  0  0  0  0  0  0
   -8.9140   18.6080  -31.1760 C   0  0  0  0  0  0  0  0  0  0  0  0
   -8.1360   17.7700  -31.9220 N   0  0  0  0  0  0  0  0  0  0  0  0
   -7.2540   18.3170  -32.7930 C   0  0  0  0  0  0  0  0  0  0  0  0
   -6.3830   17.6460  -33.5630 N   0  0  0  0  0  0  0  0  0  0  0  0
   -5.6710   18.5970  -34.2120 C   0  0  0  0  0  0  0  0  0  0  0  0
   -6.0970   19.8720  -33.8450 C   0  0  0  0  0  0  0  0  0  0  0  0
   -7.1210   19.6650  -32.9440 C   0  0  0  0  0  0  0  0  0  0  0  0
   -6.9970   23.9110  -31.2050 C   0  0  0  0  0  0  0  0  0  0  0  0
   -5.9400   24.6920  -30.7280 C   0  0  0  0  0  0  0  0  0  0  0  0
   -1.8600   22.4980  -28.0820 C   0  0  0  0  0  0  0  0  0  0  0  0
   -0.3690   22.6310  -28.2040 C   0  0  0  0  0  0  0  0  0  0  0  0
   -0.7054   18.5897  -27.3446 H   0  0  0  0  0  0  0  0  0  0  0  0
   -2.0441   18.9541  -28.4856 H   0  0  0  0  0  0  0  0  0  0  0  0
   -0.5624   19.9697  -28.4856 H   0  0  0  0  0  0  0  0  0  0  0  0
   -2.6614   19.7624  -26.2664 H   0  0  0  0  0  0  0  0  0  0  0  0
   -1.1070   20.6649  -26.1289 H   0  0  0  0  0  0  0  0  0  0  0  0
   -5.0151   23.3028  -28.2982 H   0  0  0  0  0  0  0  0  0  0  0  0
   -3.3227   22.7153  -31.6971 H   0  0  0  0  0  0  0  0  0  0  0  0
   -5.2087   21.3200  -32.5373 H   0  0  0  0  0  0  0  0  0  0  0  0
   -9.6393   18.1892  -30.4629 H   0  0  0  0  0  0  0  0  0  0  0  0
   -6.2640   16.6120  -33.6310 H   0  0  0  0  0  0  0  0  0  0  0  0
   -4.8651   18.3911  -34.9318 H   0  0  0  0  0  0  0  0  0  0  0  0
   -5.7018   20.8360  -34.1978 H   0  0  0  0  0  0  0  0  0  0  0  0
   -8.0326   24.2632  -31.0887 H   0  0  0  0  0  0  0  0  0  0  0  0
   -6.1469   25.6556  -30.2395 H   0  0  0  0  0  0  0  0  0  0  0  0
    0.0789   22.6710  -27.2001 H   0  0  0  0  0  0  0  0  0  0  0  0
    0.0329   21.7651  -28.7506 H   0  0  0  0  0  0  0  0  0  0  0  0
   -0.1267   23.5543  -28.7506 H   0  0  0  0  0  0  0  0  0  0  0  0
  1  2  1  0
  2  3  1  0
  3  4  1  0
  4  5  2  0
  5  6  1  0
  6  7  1  0
  7  8  2  0
  7  9  1  0
  9 10  1  0
 10 11  2  0
 11 12  1  0
 12 13  2  0
 13 14  1  0
 14 15  1  0
 15 16  2  0
 16 17  1  0
 17 18  2  0
 18 19  1  0
 19 20  1  0
 20 21  1  0
 21 22  2  0
 22 23  1  0
 13 24  1  0
 24 25  2  0
  6 26  2  0
 26 27  1  0
 26  3  1  0
 25 10  1  0
 23 15  1  0
 23 19  2  0
  1 28  1  0
  1 29  1  0
  1 30  1  0
  2 31  1  0
  2 32  1  0
  5 33  1  0
 11 34  1  0
 12 35  1  0
 17 36  1  0
 20 37  1  0
 21 38  1  0
 22 39  1  0
 24 40  1  0
 25 41  1  0
 27 42  1  0
 27 43  1  0
 27 44  1  0
M  CHG  1   9  -1
M  END
>  <UniqueID>  (11) 
11

>  <SMILES>  (11) 
CCn1ncc(C(=O)[N-]c2ccc(Oc3ncnc4[nH]ccc34)cc2)c1C

>  <Energy>  (11) 
123.23118264141807

>  <Genealogy>  (11) 
CCn1ncc(C(=O)[N-]c2ccc(Oc3ncnc4[nH]ccc34)cc2)c1C (protonated)
CCn1ncc(C(=O)[N-]c2ccc(Oc3ncnc4[nH]ccc34)cc2)c1C (3D coordinates assigned)
CCn1ncc(C(=O)[N-]c2ccc(Oc3ncnc4[nH]ccc34)cc2)c1C (optimized conformer: 123.23118264141807 kcal/mol)

>  <smiles>  (11) 
CCn1ncc(C(=O)Nc2ccc(Oc3ncnc4[nH]ccc34)cc2)c1C

>  <score_type>  (11) 
oracle

>  <origin>  (11) 
adgpu

>  <m_score__min__energy>  (11) 
-10.52

>  <m_primary>  (11) 
energy

$$$$
11:0
     RDKit          3D

 57 60  0  0  0  0  0  0  0  0999 V2000
   -2.1270   25.4480  -28.9670 O   0  0  0  0  0  0  0  0  0  0  0  0
   -2.8440   24.5340  -29.4570 C   0  0  0  0  0  0  0  0  0  0  0  0
   -3.9280   24.9010  -30.3210 N   0  0  0  0  0  0  0  0  0  0  0  0
   -5.0810   24.1000  -30.6170 C   0  0  0  0  0  0  0  0  0  0  0  0
   -5.6210   24.1400  -31.9070 C   0  0  0  0  0  0  0  0  0  0  0  0
   -6.7340   23.3590  -32.2330 C   0  0  0  0  0  0  0  0  0  0  0  0
   -7.3080   22.5130  -31.2740 C   0  0  0  0  0  0  0  0  0  0  0  0
   -8.7010   21.5120  -31.6910 S   0  0  0  0  0  0  0  0  0  0  0  0
   -9.7450   22.3720  -32.3490 O   0  0  0  0  0  0  0  0  0  0  0  0
   -9.2940   20.9450  -30.4320 O   0  0  0  0  0  0  0  0  0  0  0  0
   -8.2660   20.2020  -32.7700 N   0  0  0  0  0  0  0  0  0  0  0  0
   -8.7550   18.9080  -32.2740 C   0  0  0  0  0  0  0  0  0  0  0  0
   -7.6040   18.2120  -31.5610 C   0  0  0  0  0  0  0  0  0  0  0  0
   -6.3490   18.9670  -31.9600 C   0  0  0  0  0  0  0  0  0  0  0  0
   -6.8090   20.0710  -32.9020 C   0  0  0  0  0  0  0  0  0  0  0  0
   -6.7620   22.4600  -29.9850 C   0  0  0  0  0  0  0  0  0  0  0  0
   -5.6480   23.2390  -29.6590 C   0  0  0  0  0  0  0  0  0  0  0  0
   -2.5780   23.1240  -29.0870 C   0  0  0  0  0  0  0  0  0  0  0  0
   -2.9750   22.6220  -27.8370 C   0  0  0  0  0  0  0  0  0  0  0  0
   -2.7280   21.2900  -27.5000 C   0  0  0  0  0  0  0  0  0  0  0  0
   -2.0770   20.4460  -28.4030 C   0  0  0  0  0  0  0  0  0  0  0  0
   -1.8540   19.1510  -28.0620 F   0  0  0  0  0  0  0  0  0  0  0  0
   -1.6600   20.9360  -29.6490 C   0  0  0  0  0  0  0  0  0  0  0  0
   -0.8630   19.8590  -30.7960 S   0  0  0  0  0  0  0  0  0  0  0  0
   -0.3680   18.6520  -30.0490 O   0  0  0  0  0  0  0  0  0  0  0  0
    0.3110   20.5550  -31.4250 O   0  0  0  0  0  0  0  0  0  0  0  0
   -2.0170   19.3790  -32.0230 N   0  0  0  0  0  0  0  0  0  0  0  0
   -3.3220   20.0560  -31.8510 C   0  0  0  0  0  0  0  0  0  0  0  0
   -3.5030   21.2520  -32.8020 C   0  0  0  0  0  0  0  0  0  0  0  0
   -2.2630   21.8770  -33.0410 O   0  0  0  0  0  0  0  0  0  0  0  0
   -1.4310   21.0330  -33.8170 C   0  0  0  0  0  0  0  0  0  0  0  0
   -1.4700   19.5490  -33.3810 C   0  0  0  0  0  0  0  0  0  0  0  0
   -1.9080   22.2760  -29.9850 C   0  0  0  0  0  0  0  0  0  0  0  0
   -5.1671   24.7900  -32.6696 H   0  0  0  0  0  0  0  0  0  0  0  0
   -7.1607   23.4086  -33.2457 H   0  0  0  0  0  0  0  0  0  0  0  0
   -8.6900   20.4070  -33.7050 H   0  0  0  0  0  0  0  0  0  0  0  0
   -9.5870   19.0675  -31.5723 H   0  0  0  0  0  0  0  0  0  0  0  0
   -9.1163   18.2904  -33.1095 H   0  0  0  0  0  0  0  0  0  0  0  0
   -7.7466   18.2560  -30.4712 H   0  0  0  0  0  0  0  0  0  0  0  0
   -7.5410   17.1494  -31.8383 H   0  0  0  0  0  0  0  0  0  0  0  0
   -5.8636   19.3988  -31.0723 H   0  0  0  0  0  0  0  0  0  0  0  0
   -5.6147   18.3046  -32.4417 H   0  0  0  0  0  0  0  0  0  0  0  0
   -6.3228   21.0197  -32.6310 H   0  0  0  0  0  0  0  0  0  0  0  0
   -6.5398   19.8249  -33.9398 H   0  0  0  0  0  0  0  0  0  0  0  0
   -7.2117   21.8027  -29.2263 H   0  0  0  0  0  0  0  0  0  0  0  0
   -5.2132   23.1788  -28.6504 H   0  0  0  0  0  0  0  0  0  0  0  0
   -3.4836   23.2823  -27.1191 H   0  0  0  0  0  0  0  0  0  0  0  0
   -3.0469   20.9039  -26.5206 H   0  0  0  0  0  0  0  0  0  0  0  0
   -4.1238   19.3283  -32.0449 H   0  0  0  0  0  0  0  0  0  0  0  0
   -3.3617   20.4422  -30.8218 H   0  0  0  0  0  0  0  0  0  0  0  0
   -3.9208   20.8975  -33.7558 H   0  0  0  0  0  0  0  0  0  0  0  0
   -4.1870   21.9782  -32.3385 H   0  0  0  0  0  0  0  0  0  0  0  0
   -1.7554   21.0952  -34.8662 H   0  0  0  0  0  0  0  0  0  0  0  0
   -0.3976   21.3824  -33.6755 H   0  0  0  0  0  0  0  0  0  0  0  0
   -2.0992   18.9889  -34.0884 H   0  0  0  0  0  0  0  0  0  0  0  0
   -0.4365   19.1722  -33.3770 H   0  0  0  0  0  0  0  0  0  0  0  0
   -1.5754   22.6652  -30.9586 H   0  0  0  0  0  0  0  0  0  0  0  0
  1  2  2  0
  2  3  1  0
  3  4  1  0
  4  5  2  0
  5  6  1  0
  6  7  2  0
  7  8  1  0
  8  9  2  0
  8 10  2  0
  8 11  1  0
 11 12  1  0
 12 13  1  0
 13 14  1  0
 14 15  1  0
  7 16  1  0
 16 17  2  0
  2 18  1  0
 18 19  2  0
 19 20  1  0
 20 21  2  0
 21 22  1  0
 21 23  1  0
 23 24  1  0
 24 25  2  0
 24 26  2  0
 24 27  1  0
 27 28  1  0
 28 29  1  0
 29 30  1  0
 30 31  1  0
 31 32  1  0
 23 33  2  0
 17  4  1  0
 33 18  1  0
 15 11  1  0
 32 27  1  0
  5 34  1  0
  6 35  1  0
 11 36  1  0
 12 37  1  0
 12 38  1  0
 13 39  1  0
 13 40  1  0
 14 41  1  0
 14 42  1  0
 15 43  1  0
 15 44  1  0
 16 45  1  0
 17 46  1  0
 19 47  1  0
 20 48  1  0
 28 49  1  0
 28 50  1  0
 29 51  1  0
 29 52  1  0
 31 53  1  0
 31 54  1  0
 32 55  1  0
 32 56  1  0
 33 57  1  0
M  CHG  2   3  -1  11   1
M  END
>  <UniqueID>  (12) 
12

>  <SMILES>  (12) 
O=C([N-]c1ccc(S(=O)(=O)[NH+]2CCCC2)cc1)c1ccc(F)c(S(=O)(=O)N2CCOCC2)c1

>  <Energy>  (12) 
77.32958288956847

>  <Genealogy>  (12) 
O=C([N-]c1ccc(S(=O)(=O)[NH+]2CCCC2)cc1)c1ccc(F)c(S(=O)(=O)N2CCOCC2)c1 (protonated)
O=C([N-]c1ccc(S(=O)(=O)[NH+]2CCCC2)cc1)c1ccc(F)c(S(=O)(=O)N2CCOCC2)c1 (3D coordinates assigned)
O=C([N-]c1ccc(S(=O)(=O)[NH+]2CCCC2)cc1)c1ccc(F)c(S(=O)(=O)N2CCOCC2)c1 (nonaromatic ring conformer: 77.32958288956847 kcal/mol)

>  <smiles>  (12) 
O=C(Nc1ccc(S(=O)(=O)N2CCCC2)cc1)c1ccc(F)c(S(=O)(=O)N2CCOCC2)c1

>  <score_type>  (12) 
oracle

>  <origin>  (12) 
adgpu

>  <m_score__min__energy>  (12) 
-11.92

>  <m_primary>  (12) 
energy

$$$$
12:0
     RDKit          3D

 53 56  0  0  0  0  0  0  0  0999 V2000
   -1.6570   26.0000  -27.3480 O   0  0  0  0  0  0  0  0  0  0  0  0
   -1.8170   25.0530  -28.1640 C   0  0  0  0  0  0  0  0  0  0  0  0
   -2.5700   25.3000  -29.3600 N   0  0  0  0  0  0  0  0  0  0  0  0
   -3.6330   24.4850  -29.8730 C   0  0  0  0  0  0  0  0  0  0  0  0
   -4.9740   24.9040  -29.8250 C   0  0  0  0  0  0  0  0  0  0  0  0
   -5.9880   24.0830  -30.3280 C   0  0  0  0  0  0  0  0  0  0  0  0
   -5.6830   22.8220  -30.8700 C   0  0  0  0  0  0  0  0  0  0  0  0
   -6.7590   21.9530  -31.4100 C   0  0  0  0  0  0  0  0  0  0  0  0
   -8.0980   22.3720  -31.3770 C   0  0  0  0  0  0  0  0  0  0  0  0
   -9.1100   21.5510  -31.8780 C   0  0  0  0  0  0  0  0  0  0  0  0
   -8.8070   20.2980  -32.4200 C   0  0  0  0  0  0  0  0  0  0  0  0
   -9.8610   19.5170  -32.8990 O   0  0  0  0  0  0  0  0  0  0  0  0
   -7.4630   19.8600  -32.4660 C   0  0  0  0  0  0  0  0  0  0  0  0
   -7.0910   18.5060  -33.0220 C   0  0  0  0  0  0  0  0  0  0  0  0
   -5.6260   18.3210  -32.9990 N   0  0  0  0  0  0  0  0  0  0  0  0
   -5.2910   16.8910  -32.8250 C   0  0  0  0  0  0  0  0  0  0  0  0
   -3.7960   16.6110  -33.0940 C   0  0  0  0  0  0  0  0  0  0  0  0
   -3.0040   17.8470  -33.0690 N   0  0  0  0  0  0  0  0  0  0  0  0
   -3.4600   18.7910  -34.1020 C   0  0  0  0  0  0  0  0  0  0  0  0
   -4.9980   18.8430  -34.2260 C   0  0  0  0  0  0  0  0  0  0  0  0
   -6.4530   20.6940  -31.9560 C   0  0  0  0  0  0  0  0  0  0  0  0
   -4.3410   22.3970  -30.8890 C   0  0  0  0  0  0  0  0  0  0  0  0
   -3.3300   23.2210  -30.3870 C   0  0  0  0  0  0  0  0  0  0  0  0
   -1.2850   23.7080  -27.8340 C   0  0  0  0  0  0  0  0  0  0  0  0
   -2.1470   22.7170  -27.3280 C   0  0  0  0  0  0  0  0  0  0  0  0
   -1.6570   21.4470  -27.0110 C   0  0  0  0  0  0  0  0  0  0  0  0
   -0.3030   21.1550  -27.1850 C   0  0  0  0  0  0  0  0  0  0  0  0
    0.5640   22.1320  -27.6760 C   0  0  0  0  0  0  0  0  0  0  0  0
    0.0830   23.4050  -28.0020 C   0  0  0  0  0  0  0  0  0  0  0  0
    0.9670   24.3550  -28.5030 O   0  0  0  0  0  0  0  0  0  0  0  0
   -5.2268   25.8821  -29.3898 H   0  0  0  0  0  0  0  0  0  0  0  0
   -7.0326   24.4264  -30.2994 H   0  0  0  0  0  0  0  0  0  0  0  0
   -8.3521   23.3548  -30.9532 H   0  0  0  0  0  0  0  0  0  0  0  0
  -10.1551   21.8928  -31.8461 H   0  0  0  0  0  0  0  0  0  0  0  0
   -9.9110   19.1760  -33.8510 H   0  0  0  0  0  0  0  0  0  0  0  0
   -7.5643   17.7221  -32.4125 H   0  0  0  0  0  0  0  0  0  0  0  0
   -7.4411   18.4409  -34.0628 H   0  0  0  0  0  0  0  0  0  0  0  0
   -5.5281   16.5936  -31.7929 H   0  0  0  0  0  0  0  0  0  0  0  0
   -5.8814   16.3126  -33.5508 H   0  0  0  0  0  0  0  0  0  0  0  0
   -3.4157   15.9271  -32.3209 H   0  0  0  0  0  0  0  0  0  0  0  0
   -3.7035   16.1620  -34.0939 H   0  0  0  0  0  0  0  0  0  0  0  0
   -3.1140   18.2950  -32.1280 H   0  0  0  0  0  0  0  0  0  0  0  0
   -3.0936   19.7962  -33.8463 H   0  0  0  0  0  0  0  0  0  0  0  0
   -3.0609   18.4452  -35.0669 H   0  0  0  0  0  0  0  0  0  0  0  0
   -5.3149   19.8849  -34.3813 H   0  0  0  0  0  0  0  0  0  0  0  0
   -5.3102   18.2240  -35.0800 H   0  0  0  0  0  0  0  0  0  0  0  0
   -5.4065   20.3563  -31.9845 H   0  0  0  0  0  0  0  0  0  0  0  0
   -4.0865   21.4097  -31.3018 H   0  0  0  0  0  0  0  0  0  0  0  0
   -2.2869   22.8719  -30.3965 H   0  0  0  0  0  0  0  0  0  0  0  0
   -3.2133   22.9435  -27.1811 H   0  0  0  0  0  0  0  0  0  0  0  0
   -2.3395   20.6762  -26.6237 H   0  0  0  0  0  0  0  0  0  0  0  0
    0.0805   20.1548  -26.9351 H   0  0  0  0  0  0  0  0  0  0  0  0
    1.6312   21.9002  -27.8075 H   0  0  0  0  0  0  0  0  0  0  0  0
  1  2  2  0
  2  3  1  0
  3  4  1  0
  4  5  2  0
  5  6  1  0
  6  7  2  0
  7  8  1  0
  8  9  2  0
  9 10  1  0
 10 11  2  0
 11 12  1  0
 11 13  1  0
 13 14  1  0
 14 15  1  0
 15 16  1  0
 16 17  1  0
 17 18  1  0
 18 19  1  0
 19 20  1  0
 13 21  2  0
  7 22  1  0
 22 23  2  0
  2 24  1  0
 24 25  2  0
 25 26  1  0
 26 27  2  0
 27 28  1  0
 28 29  2  0
 29 30  1  0
 23  4  1  0
 29 24  1  0
 21  8  1  0
 20 15  1  0
  5 31  1  0
  6 32  1  0
  9 33  1  0
 10 34  1  0
 12 35  1  0
 14 36  1  0
 14 37  1  0
 16 38  1  0
 16 39  1  0
 17 40  1  0
 17 41  1  0
 18 42  1  0
 19 43  1  0
 19 44  1  0
 20 45  1  0
 20 46  1  0
 21 47  1  0
 22 48  1  0
 23 49  1  0
 25 50  1  0
 26 51  1  0
 27 52  1  0
 28 53  1  0
M  CHG  2   3  -1  30  -1
M  END
>  <UniqueID>  (13) 
13

>  <SMILES>  (13) 
O=C([N-]c1ccc(-c2ccc(O)c(CN3CCNCC3)c2)cc1)c1ccccc1[O-]

>  <Energy>  (13) 
77.73529222470728

>  <Genealogy>  (13) 
O=C([N-]c1ccc(-c2ccc(O)c(CN3CCNCC3)c2)cc1)c1ccccc1[O-] (protonated)
O=C([N-]c1ccc(-c2ccc(O)c(CN3CCNCC3)c2)cc1)c1ccccc1[O-] (3D coordinates assigned)
O=C([N-]c1ccc(-c2ccc(O)c(CN3CCNCC3)c2)cc1)c1ccccc1[O-] (nonaromatic ring conformer: 77.73529222470728 kcal/mol)

>  <smiles>  (13) 
O=C(Nc1ccc(-c2ccc(O)c(CN3CCNCC3)c2)cc1)c1ccccc1O

>  <score_type>  (13) 
oracle

>  <origin>  (13) 
adgpu

>  <m_score__min__energy>  (13) 
-12.1

>  <m_primary>  (13) 
energy

$$$$
13:0
     RDKit          3D

 62 66  0  0  0  0  0  0  0  0999 V2000
    0.1240   21.7250  -35.9620 C   0  0  0  0  0  0  0  0  0  0  0  0
    0.4370   21.6800  -34.5220 N   0  0  0  0  0  0  0  0  0  0  0  0
   -0.7750   21.6120  -33.6800 C   0  0  0  0  0  0  0  0  0  0  0  0
   -1.4340   20.2240  -33.7230 C   0  0  0  0  0  0  0  0  0  0  0  0
   -0.4930   19.1440  -33.3730 N   0  0  0  0  0  0  0  0  0  0  0  0
   -0.1920   19.0190  -31.6500 S   0  0  0  0  0  0  0  0  0  0  0  0
    1.2820   18.9950  -31.3490 O   0  0  0  0  0  0  0  0  0  0  0  0
   -0.8020   17.7450  -31.1320 O   0  0  0  0  0  0  0  0  0  0  0  0
   -0.9330   20.3820  -30.8120 C   0  0  0  0  0  0  0  0  0  0  0  0
   -2.3250   20.4530  -30.6880 C   0  0  0  0  0  0  0  0  0  0  0  0
   -2.9280   21.6000  -30.1620 C   0  0  0  0  0  0  0  0  0  0  0  0
   -2.1420   22.6940  -29.7740 C   0  0  0  0  0  0  0  0  0  0  0  0
   -2.8950   24.2290  -29.3520 S   0  0  0  0  0  0  0  0  0  0  0  0
   -1.8430   25.3040  -29.3380 O   0  0  0  0  0  0  0  0  0  0  0  0
   -3.5340   24.1680  -27.9930 O   0  0  0  0  0  0  0  0  0  0  0  0
   -4.0790   24.6040  -30.5610 N   0  0  0  0  0  0  0  0  0  0  0  0
   -5.1050   23.6990  -30.9880 C   0  0  0  0  0  0  0  0  0  0  0  0
   -4.9020   22.9460  -32.1700 C   0  0  0  0  0  0  0  0  0  0  0  0
   -5.8670   22.0180  -32.6060 C   0  0  0  0  0  0  0  0  0  0  0  0
   -7.0310   21.8890  -31.8490 C   0  0  0  0  0  0  0  0  0  0  0  0
   -7.2420   22.6220  -30.7200 C   0  0  0  0  0  0  0  0  0  0  0  0
   -6.3060   23.5410  -30.2540 C   0  0  0  0  0  0  0  0  0  0  0  0
   -8.4240   22.3020  -30.1610 N   0  0  0  0  0  0  0  0  0  0  0  0
   -8.9140   21.3530  -30.9990 C   0  0  0  0  0  0  0  0  0  0  0  0
   -8.0870   21.0790  -32.0370 N   0  0  0  0  0  0  0  0  0  0  0  0
   -8.2760   20.0490  -33.0610 C   0  0  0  0  0  0  0  0  0  0  0  0
   -7.1470   19.0530  -33.0270 C   0  0  0  0  0  0  0  0  0  0  0  0
   -7.0840   18.0790  -32.0150 C   0  0  0  0  0  0  0  0  0  0  0  0
   -6.0430   17.1440  -31.9990 C   0  0  0  0  0  0  0  0  0  0  0  0
   -5.0580   17.1750  -32.9930 C   0  0  0  0  0  0  0  0  0  0  0  0
   -5.1160   18.1380  -34.0050 C   0  0  0  0  0  0  0  0  0  0  0  0
   -6.1560   19.0730  -34.0260 C   0  0  0  0  0  0  0  0  0  0  0  0
   -0.7450   22.6070  -29.8620 C   0  0  0  0  0  0  0  0  0  0  0  0
   -0.1440   21.4550  -30.3740 C   0  0  0  0  0  0  0  0  0  0  0  0
    0.7490   19.2000  -34.1690 C   0  0  0  0  0  0  0  0  0  0  0  0
    1.3960   20.6030  -34.1940 C   0  0  0  0  0  0  0  0  0  0  0  0
   -0.9565   21.8803  -36.0977 H   0  0  0  0  0  0  0  0  0  0  0  0
    0.6753   22.5531  -36.4314 H   0  0  0  0  0  0  0  0  0  0  0  0
    0.4197   20.7751  -36.4314 H   0  0  0  0  0  0  0  0  0  0  0  0
   -0.4975   21.8405  -32.6404 H   0  0  0  0  0  0  0  0  0  0  0  0
   -1.4992   22.3422  -34.0704 H   0  0  0  0  0  0  0  0  0  0  0  0
   -2.2711   20.2081  -33.0096 H   0  0  0  0  0  0  0  0  0  0  0  0
   -1.7786   20.0480  -34.7527 H   0  0  0  0  0  0  0  0  0  0  0  0
   -2.9474   19.6034  -31.0055 H   0  0  0  0  0  0  0  0  0  0  0  0
   -4.0217   21.6438  -30.0525 H   0  0  0  0  0  0  0  0  0  0  0  0
   -3.9805   23.0876  -32.7538 H   0  0  0  0  0  0  0  0  0  0  0  0
   -5.7082   21.4155  -33.5125 H   0  0  0  0  0  0  0  0  0  0  0  0
   -6.4936   24.1273  -29.3424 H   0  0  0  0  0  0  0  0  0  0  0  0
   -9.8843   20.8566  -30.8505 H   0  0  0  0  0  0  0  0  0  0  0  0
   -9.2255   19.5254  -32.8759 H   0  0  0  0  0  0  0  0  0  0  0  0
   -8.2933   20.5312  -34.0495 H   0  0  0  0  0  0  0  0  0  0  0  0
   -7.8565   18.0518  -31.2323 H   0  0  0  0  0  0  0  0  0  0  0  0
   -5.9987   16.3842  -31.2048 H   0  0  0  0  0  0  0  0  0  0  0  0
   -4.2382   16.4417  -32.9780 H   0  0  0  0  0  0  0  0  0  0  0  0
   -4.3420   18.1603  -34.7863 H   0  0  0  0  0  0  0  0  0  0  0  0
   -6.1995   19.8266  -34.8261 H   0  0  0  0  0  0  0  0  0  0  0  0
   -0.1209   23.4485  -29.5268 H   0  0  0  0  0  0  0  0  0  0  0  0
    0.9524   21.3893  -30.4338 H   0  0  0  0  0  0  0  0  0  0  0  0
    1.4712   18.4900  -33.7396 H   0  0  0  0  0  0  0  0  0  0  0  0
    0.4835   18.9451  -35.2056 H   0  0  0  0  0  0  0  0  0  0  0  0
    1.8261   20.8076  -33.2024 H   0  0  0  0  0  0  0  0  0  0  0  0
    2.1626   20.5959  -34.9828 H   0  0  0  0  0  0  0  0  0  0  0  0
  1  2  1  0
  2  3  1  0
  3  4  1  0
  4  5  1  0
  5  6  1  0
  6  7  2  0
  6  8  2  0
  6  9  1  0
  9 10  2  0
 10 11  1  0
 11 12  2  0
 12 13  1  0
 13 14  2  0
 13 15  2  0
 13 16  1  0
 16 17  1  0
 17 18  2  0
 18 19  1  0
 19 20  2  0
 20 21  1  0
 21 22  2  0
 21 23  1  0
 23 24  2  0
 24 25  1  0
 25 26  1  0
 26 27  1  0
 27 28  2  0
 28 29  1  0
 29 30  2  0
 30 31  1  0
 31 32  2  0
 12 33  1  0
 33 34  2  0
  5 35  1  0
 35 36  1  0
 36  2  1  0
 34  9  1  0
 22 17  1  0
 32 27  1  0
 25 20  1  0
  1 37  1  0
  1 38  1  0
  1 39  1  0
  3 40  1  0
  3 41  1  0
  4 42  1  0
  4 43  1  0
 10 44  1  0
 11 45  1  0
 18 46  1  0
 19 47  1  0
 22 48  1  0
 24 49  1  0
 26 50  1  0
 26 51  1  0
 28 52  1  0
 29 53  1  0
 30 54  1  0
 31 55  1  0
 32 56  1  0
 33 57  1  0
 34 58  1  0
 35 59  1  0
 35 60  1  0
 36 61  1  0
 36 62  1  0
M  CHG  1  16  -1
M  END
>  <UniqueID>  (14) 
14

>  <SMILES>  (14) 
CN1CCN(S(=O)(=O)c2ccc(S(=O)(=O)[N-]c3ccc4c(c3)ncn4Cc3ccccc3)cc2)CC1

>  <Energy>  (14) 
115.1672874645576

>  <Genealogy>  (14) 
CN1CCN(S(=O)(=O)c2ccc(S(=O)(=O)[N-]c3ccc4c(c3)ncn4Cc3ccccc3)cc2)CC1 (protonated)
CN1CCN(S(=O)(=O)c2ccc(S(=O)(=O)[N-]c3ccc4c(c3)ncn4Cc3ccccc3)cc2)CC1 (3D coordinates assigned)
CN1CCN(S(=O)(=O)c2ccc(S(=O)(=O)[N-]c3ccc4c(c3)ncn4Cc3ccccc3)cc2)CC1 (nonaromatic ring conformer: 115.1672874645576 kcal/mol)

>  <smiles>  (14) 
CN1CCN(S(=O)(=O)c2ccc(S(=O)(=O)Nc3ccc4c(c3)ncn4Cc3ccccc3)cc2)CC1

>  <score_type>  (14) 
oracle

>  <origin>  (14) 
adgpu

>  <m_score__min__energy>  (14) 
-12.24

>  <m_primary>  (14) 
energy

$$$$
14:0
     RDKit          3D

 49 51  0  0  0  0  0  0  0  0999 V2000
   -0.7810   22.2230  -26.2350 C   0  0  0  0  0  0  0  0  0  0  0  0
   -1.4670   23.0380  -27.2960 C   0  0  0  0  0  0  0  0  0  0  0  0
   -2.7770   22.7170  -27.6870 C   0  0  0  0  0  0  0  0  0  0  0  0
   -3.4260   23.4660  -28.6700 C   0  0  0  0  0  0  0  0  0  0  0  0
   -2.7760   24.5380  -29.2910 C   0  0  0  0  0  0  0  0  0  0  0  0
   -3.4900   25.2910  -30.2830 N   0  0  0  0  0  0  0  0  0  0  0  0
   -4.8230   25.0450  -30.7540 C   0  0  0  0  0  0  0  0  0  0  0  0
   -5.8020   25.6610  -30.2570 O   0  0  0  0  0  0  0  0  0  0  0  0
   -5.0610   24.0920  -31.7950 N   0  0  0  0  0  0  0  0  0  0  0  0
   -6.1690   23.1810  -31.8690 C   0  0  0  0  0  0  0  0  0  0  0  0
   -7.4850   23.6510  -31.9130 C   0  0  0  0  0  0  0  0  0  0  0  0
   -8.5520   22.7610  -31.9560 C   0  0  0  0  0  0  0  0  0  0  0  0
   -8.3350   21.3750  -31.9600 C   0  0  0  0  0  0  0  0  0  0  0  0
   -9.5480   20.4780  -31.9760 C   0  0  0  0  0  0  0  0  0  0  0  0
   -7.0040   20.8750  -31.8900 C   0  0  0  0  0  0  0  0  0  0  0  0
   -6.6400   19.1210  -31.8970 S   0  0  0  0  0  0  0  0  0  0  0  0
   -5.3880   18.8770  -31.0990 O   0  0  0  0  0  0  0  0  0  0  0  0
   -7.7350   18.3450  -31.2230 O   0  0  0  0  0  0  0  0  0  0  0  0
   -6.4310   18.4920  -33.5190 N   0  0  0  0  0  0  0  0  0  0  0  0
   -6.8780   17.0870  -33.6530 C   0  0  0  0  0  0  0  0  0  0  0  0
   -5.6920   16.1150  -33.7880 C   0  0  0  0  0  0  0  0  0  0  0  0
   -4.8580   16.4040  -34.9020 O   0  0  0  0  0  0  0  0  0  0  0  0
   -4.7490   17.7920  -35.1940 C   0  0  0  0  0  0  0  0  0  0  0  0
   -5.0540   18.7080  -33.9980 C   0  0  0  0  0  0  0  0  0  0  0  0
   -5.9300   21.7940  -31.8260 C   0  0  0  0  0  0  0  0  0  0  0  0
   -4.6200   21.3190  -31.7230 O   0  0  0  0  0  0  0  0  0  0  0  0
   -1.4750   24.8810  -28.8860 C   0  0  0  0  0  0  0  0  0  0  0  0
   -0.8190   24.1340  -27.8990 C   0  0  0  0  0  0  0  0  0  0  0  0
    0.8110   24.6060  -27.4320 Cl  0  0  0  0  0  0  0  0  0  0  0  0
   -1.0850   22.5842  -25.2414 H   0  0  0  0  0  0  0  0  0  0  0  0
   -1.0652   21.1659  -26.3437 H   0  0  0  0  0  0  0  0  0  0  0  0
    0.3091   22.3227  -26.3437 H   0  0  0  0  0  0  0  0  0  0  0  0
   -3.2954   21.8692  -27.2153 H   0  0  0  0  0  0  0  0  0  0  0  0
   -4.4565   23.2114  -28.9586 H   0  0  0  0  0  0  0  0  0  0  0  0
   -7.6777   24.7340  -31.9136 H   0  0  0  0  0  0  0  0  0  0  0  0
   -9.5808   23.1489  -31.9873 H   0  0  0  0  0  0  0  0  0  0  0  0
   -9.8516   20.2535  -30.9429 H   0  0  0  0  0  0  0  0  0  0  0  0
  -10.3724   20.9854  -32.4984 H   0  0  0  0  0  0  0  0  0  0  0  0
   -9.3044   19.5411  -32.4984 H   0  0  0  0  0  0  0  0  0  0  0  0
   -7.4617   16.8135  -32.7617 H   0  0  0  0  0  0  0  0  0  0  0  0
   -7.4864   17.0096  -34.5662 H   0  0  0  0  0  0  0  0  0  0  0  0
   -5.0855   16.1735  -32.8722 H   0  0  0  0  0  0  0  0  0  0  0  0
   -6.1087   15.1088  -33.9426 H   0  0  0  0  0  0  0  0  0  0  0  0
   -3.7221   17.9948  -35.5320 H   0  0  0  0  0  0  0  0  0  0  0  0
   -5.5006   18.0150  -35.9656 H   0  0  0  0  0  0  0  0  0  0  0  0
   -4.3487   18.4864  -33.1835 H   0  0  0  0  0  0  0  0  0  0  0  0
   -4.9490   19.7555  -34.3169 H   0  0  0  0  0  0  0  0  0  0  0  0
   -4.3600   20.5460  -31.1230 H   0  0  0  0  0  0  0  0  0  0  0  0
   -0.9683   25.7417  -29.3469 H   0  0  0  0  0  0  0  0  0  0  0  0
  1  2  1  0
  2  3  2  0
  3  4  1  0
  4  5  2  0
  5  6  1  0
  6  7  1  0
  7  8  2  0
  7  9  1  0
  9 10  1  0
 10 11  2  0
 11 12  1  0
 12 13  2  0
 13 14  1  0
 13 15  1  0
 15 16  1  0
 16 17  2  0
 16 18  2  0
 16 19  1  0
 19 20  1  0
 20 21  1  0
 21 22  1  0
 22 23  1  0
 23 24  1  0
 15 25  2  0
 25 26  1  0
  5 27  1  0
 27 28  2  0
 28 29  1  0
 28  2  1  0
 25 10  1  0
 24 19  1  0
  1 30  1  0
  1 31  1  0
  1 32  1  0
  3 33  1  0
  4 34  1  0
 11 35  1  0
 12 36  1  0
 14 37  1  0
 14 38  1  0
 14 39  1  0
 20 40  1  0
 20 41  1  0
 21 42  1  0
 21 43  1  0
 23 44  1  0
 23 45  1  0
 24 46  1  0
 24 47  1  0
 26 48  1  0
 27 49  1  0
M  CHG  2   6  -1   9  -1
M  END
>  <UniqueID>  (15) 
15

>  <SMILES>  (15) 
Cc1ccc([N-]C(=O)[N-]c2ccc(C)c(S(=O)(=O)N3CCOCC3)c2O)cc1Cl

>  <Energy>  (15) 
75.5466940999355

>  <Genealogy>  (15) 
Cc1ccc([N-]C(=O)[N-]c2ccc(C)c(S(=O)(=O)N3CCOCC3)c2O)cc1Cl (protonated)
Cc1ccc([N-]C(=O)[N-]c2ccc(C)c(S(=O)(=O)N3CCOCC3)c2O)cc1Cl (3D coordinates assigned)
Cc1ccc([N-]C(=O)[N-]c2ccc(C)c(S(=O)(=O)N3CCOCC3)c2O)cc1Cl (nonaromatic ring conformer: 75.5466940999355 kcal/mol)

>  <smiles>  (15) 
Cc1ccc(NC(=O)Nc2ccc(C)c(S(=O)(=O)N3CCOCC3)c2O)cc1Cl

>  <score_type>  (15) 
oracle

>  <origin>  (15) 
adgpu

>  <m_score__min__energy>  (15) 
-13.08

>  <m_primary>  (15) 
energy

$$$$
15:0
     RDKit          3D

 43 46  0  0  0  0  0  0  0  0999 V2000
   -8.6820   19.3430  -32.3550 C   0  0  0  0  0  0  0  0  0  0  0  0
   -7.2940   19.7770  -32.6180 N   0  0  0  0  0  0  0  0  0  0  0  0
   -6.4680   18.9870  -33.3750 C   0  0  0  0  0  0  0  0  0  0  0  0
   -6.8810   17.8910  -33.8490 O   0  0  0  0  0  0  0  0  0  0  0  0
   -5.1530   19.3780  -33.6350 C   0  0  0  0  0  0  0  0  0  0  0  0
   -4.4230   18.6200  -34.3340 O   0  0  0  0  0  0  0  0  0  0  0  0
   -4.6640   20.5600  -33.1420 N   0  0  0  0  0  0  0  0  0  0  0  0
   -3.2670   20.9490  -33.4260 C   0  0  0  0  0  0  0  0  0  0  0  0
   -5.4800   21.3710  -32.3810 C   0  0  0  0  0  0  0  0  0  0  0  0
   -5.0180   22.6040  -31.8550 C   0  0  0  0  0  0  0  0  0  0  0  0
   -5.8470   23.4140  -31.0750 C   0  0  0  0  0  0  0  0  0  0  0  0
   -5.2550   24.9280  -30.3980 S   0  0  0  0  0  0  0  0  0  0  0  0
   -5.7140   26.1060  -31.2110 O   0  0  0  0  0  0  0  0  0  0  0  0
   -5.7810   25.0720  -28.9980 O   0  0  0  0  0  0  0  0  0  0  0  0
   -3.5210   24.9050  -30.3540 N   0  0  0  0  0  0  0  0  0  0  0  0
   -2.7230   24.0370  -29.5350 C   0  0  0  0  0  0  0  0  0  0  0  0
   -2.8610   22.6360  -29.5840 C   0  0  0  0  0  0  0  0  0  0  0  0
   -2.0730   21.8170  -28.7720 C   0  0  0  0  0  0  0  0  0  0  0  0
   -1.1360   22.3780  -27.9020 C   0  0  0  0  0  0  0  0  0  0  0  0
   -0.9820   23.7690  -27.8410 C   0  0  0  0  0  0  0  0  0  0  0  0
   -0.0470   24.3570  -26.9780 C   0  0  0  0  0  0  0  0  0  0  0  0
    0.0830   25.7460  -26.9390 C   0  0  0  0  0  0  0  0  0  0  0  0
   -0.7200   26.5360  -27.7650 C   0  0  0  0  0  0  0  0  0  0  0  0
   -1.6230   25.9540  -28.5990 N   0  0  0  0  0  0  0  0  0  0  0  0
   -1.7770   24.6020  -28.6630 C   0  0  0  0  0  0  0  0  0  0  0  0
   -7.1530   23.0130  -30.8120 C   0  0  0  0  0  0  0  0  0  0  0  0
   -7.6390   21.8130  -31.3220 C   0  0  0  0  0  0  0  0  0  0  0  0
   -6.8220   20.9690  -32.1110 C   0  0  0  0  0  0  0  0  0  0  0  0
   -8.8502   19.2904  -31.2692 H   0  0  0  0  0  0  0  0  0  0  0  0
   -9.3825   20.0650  -32.8000 H   0  0  0  0  0  0  0  0  0  0  0  0
   -8.8464   18.3506  -32.8000 H   0  0  0  0  0  0  0  0  0  0  0  0
   -2.7283   21.0990  -32.4787 H   0  0  0  0  0  0  0  0  0  0  0  0
   -2.7754   20.1536  -34.0053 H   0  0  0  0  0  0  0  0  0  0  0  0
   -3.2573   21.8840  -34.0053 H   0  0  0  0  0  0  0  0  0  0  0  0
   -3.9882   22.9287  -32.0649 H   0  0  0  0  0  0  0  0  0  0  0  0
   -3.5950   22.1834  -30.2670 H   0  0  0  0  0  0  0  0  0  0  0  0
   -2.1912   20.7243  -28.8182 H   0  0  0  0  0  0  0  0  0  0  0  0
   -0.5188   21.7278  -27.2646 H   0  0  0  0  0  0  0  0  0  0  0  0
    0.5823   23.7256  -26.3335 H   0  0  0  0  0  0  0  0  0  0  0  0
    0.8126   26.2153  -26.2626 H   0  0  0  0  0  0  0  0  0  0  0  0
   -0.6218   27.6313  -27.7409 H   0  0  0  0  0  0  0  0  0  0  0  0
   -7.8061   23.6491  -30.1965 H   0  0  0  0  0  0  0  0  0  0  0  0
   -8.6761   21.5154  -31.1081 H   0  0  0  0  0  0  0  0  0  0  0  0
  1  2  1  0
  2  3  1  0
  3  4  2  0
  3  5  1  0
  5  6  2  0
  5  7  1  0
  7  8  1  0
  7  9  1  0
  9 10  2  0
 10 11  1  0
 11 12  1  0
 12 13  2  0
 12 14  2  0
 12 15  1  0
 15 16  1  0
 16 17  2  0
 17 18  1  0
 18 19  2  0
 19 20  1  0
 20 21  2  0
 21 22  1  0
 22 23  2  0
 23 24  1  0
 24 25  2  0
 11 26  2  0
 26 27  1  0
 27 28  2  0
 28  2  1  0
 28  9  1  0
 25 16  1  0
 25 20  1  0
  1 29  1  0
  1 30  1  0
  1 31  1  0
  8 32  1  0
  8 33  1  0
  8 34  1  0
 10 35  1  0
 17 36  1  0
 18 37  1  0
 19 38  1  0
 21 39  1  0
 22 40  1  0
 23 41  1  0
 26 42  1  0
 27 43  1  0
M  CHG  1  15  -1
M  END
>  <UniqueID>  (16) 
16

>  <SMILES>  (16) 
Cn1c(=O)c(=O)n(C)c2cc(S(=O)(=O)[N-]c3cccc4cccnc34)ccc21

>  <Energy>  (16) 
71.87546326656947

>  <Genealogy>  (16) 
Cn1c(=O)c(=O)n(C)c2cc(S(=O)(=O)[N-]c3cccc4cccnc34)ccc21 (protonated)
Cn1c(=O)c(=O)n(C)c2cc(S(=O)(=O)[N-]c3cccc4cccnc34)ccc21 (3D coordinates assigned)
Cn1c(=O)c(=O)n(C)c2cc(S(=O)(=O)[N-]c3cccc4cccnc34)ccc21 (optimized conformer: 71.87546326656947 kcal/mol)

>  <smiles>  (16) 
Cn1c(=O)c(=O)n(C)c2cc(S(=O)(=O)Nc3cccc4cccnc34)ccc21

>  <score_type>  (16) 
oracle

>  <origin>  (16) 
adgpu

>  <m_score__min__energy>  (16) 
-11.32

>  <m_primary>  (16) 
energy

$$$$
16:0
     RDKit          3D

 44 45  0  0  0  0  0  0  0  0999 V2000
   -1.2460   25.7380  -27.5860 C   0  0  0  0  0  0  0  0  0  0  0  0
   -1.8440   25.5860  -28.8680 O   0  0  0  0  0  0  0  0  0  0  0  0
   -2.3540   24.3760  -29.3670 C   0  0  0  0  0  0  0  0  0  0  0  0
   -1.8680   23.1240  -28.9420 C   0  0  0  0  0  0  0  0  0  0  0  0
   -2.4050   21.9440  -29.4650 C   0  0  0  0  0  0  0  0  0  0  0  0
   -3.4240   21.9960  -30.4290 C   0  0  0  0  0  0  0  0  0  0  0  0
   -4.0290   20.7260  -30.9660 C   0  0  0  0  0  0  0  0  0  0  0  0
   -5.5070   20.9410  -31.3210 C   0  0  0  0  0  0  0  0  0  0  0  0
   -6.2860   19.6870  -31.2240 N   0  0  0  0  0  0  0  0  0  0  0  0
   -6.8680   19.2050  -32.5020 C   0  0  0  0  0  0  0  0  0  0  0  0
   -8.3200   18.7320  -32.2510 C   0  0  0  0  0  0  0  0  0  0  0  0
   -6.9780   20.4250  -33.4550 C   0  0  0  0  0  0  0  0  0  0  0  0
   -6.0510   18.0220  -33.0920 C   0  0  0  0  0  0  0  0  0  0  0  0
   -5.6350   18.0280  -34.4460 C   0  0  0  0  0  0  0  0  0  0  0  0
   -4.8780   16.9760  -34.9540 C   0  0  0  0  0  0  0  0  0  0  0  0
   -4.5340   15.9120  -34.1340 C   0  0  0  0  0  0  0  0  0  0  0  0
   -4.9600   15.9080  -32.8110 C   0  0  0  0  0  0  0  0  0  0  0  0
   -5.7050   16.9380  -32.3100 N   0  0  0  0  0  0  0  0  0  0  0  0
   -6.1060   16.8660  -30.9920 O   0  0  0  0  0  0  0  0  0  0  0  0
   -3.9170   23.2420  -30.8430 C   0  0  0  0  0  0  0  0  0  0  0  0
   -3.3820   24.4230  -30.3190 C   0  0  0  0  0  0  0  0  0  0  0  0
   -3.8780   25.6500  -30.7470 O   0  0  0  0  0  0  0  0  0  0  0  0
   -1.9976   25.5470  -26.8058 H   0  0  0  0  0  0  0  0  0  0  0  0
   -0.4178   25.0218  -27.4805 H   0  0  0  0  0  0  0  0  0  0  0  0
   -0.8603   26.7627  -27.4805 H   0  0  0  0  0  0  0  0  0  0  0  0
   -1.0621   23.0746  -28.1950 H   0  0  0  0  0  0  0  0  0  0  0  0
   -2.0273   20.9704  -29.1195 H   0  0  0  0  0  0  0  0  0  0  0  0
   -3.4813   20.4179  -31.8688 H   0  0  0  0  0  0  0  0  0  0  0  0
   -3.9591   19.9453  -30.1942 H   0  0  0  0  0  0  0  0  0  0  0  0
   -5.9353   21.6801  -30.6280 H   0  0  0  0  0  0  0  0  0  0  0  0
   -5.5596   21.2953  -32.3611 H   0  0  0  0  0  0  0  0  0  0  0  0
   -5.7670   18.9370  -30.7130 H   0  0  0  0  0  0  0  0  0  0  0  0
   -8.5041   18.6720  -31.1682 H   0  0  0  0  0  0  0  0  0  0  0  0
   -9.0222   19.4479  -32.7032 H   0  0  0  0  0  0  0  0  0  0  0  0
   -8.4658   17.7399  -32.7032 H   0  0  0  0  0  0  0  0  0  0  0  0
   -7.0612   21.3475  -32.8616 H   0  0  0  0  0  0  0  0  0  0  0  0
   -6.0809   20.4768  -34.0894 H   0  0  0  0  0  0  0  0  0  0  0  0
   -7.8699   20.3155  -34.0894 H   0  0  0  0  0  0  0  0  0  0  0  0
   -5.9116   18.8684  -35.0996 H   0  0  0  0  0  0  0  0  0  0  0  0
   -4.5530   16.9887  -36.0048 H   0  0  0  0  0  0  0  0  0  0  0  0
   -3.9305   15.0802  -34.5263 H   0  0  0  0  0  0  0  0  0  0  0  0
   -4.6936   15.0637  -32.1581 H   0  0  0  0  0  0  0  0  0  0  0  0
   -6.5220   17.6570  -30.5140 H   0  0  0  0  0  0  0  0  0  0  0  0
   -4.7287   23.2905  -31.5838 H   0  0  0  0  0  0  0  0  0  0  0  0
  1  2  1  0
  2  3  1  0
  3  4  2  0
  4  5  1  0
  5  6  2  0
  6  7  1  0
  7  8  1  0
  8  9  1  0
  9 10  1  0
 10 11  1  0
 10 12  1  0
 10 13  1  0
 13 14  2  0
 14 15  1  0
 15 16  2  0
 16 17  1  0
 17 18  2  0
 18 19  1  0
  6 20  1  0
 20 21  2  0
 21 22  1  0
 21  3  1  0
 18 13  1  0
  1 23  1  0
  1 24  1  0
  1 25  1  0
  4 26  1  0
  5 27  1  0
  7 28  1  0
  7 29  1  0
  8 30  1  0
  8 31  1  0
  9 32  1  0
 11 33  1  0
 11 34  1  0
 11 35  1  0
 12 36  1  0
 12 37  1  0
 12 38  1  0
 14 39  1  0
 15 40  1  0
 16 41  1  0
 17 42  1  0
 19 43  1  0
 20 44  1  0
M  CHG  2  18   1  22  -1
M  END
>  <UniqueID>  (17) 
17

>  <SMILES>  (17) 
COc1ccc(CCNC(C)(C)c2cccc[n+]2O)cc1[O-]

>  <Energy>  (17) 
52.116998521012185

>  <Genealogy>  (17) 
COc1ccc(CCNC(C)(C)c2cccc[n+]2O)cc1[O-] (protonated)
COc1ccc(CCNC(C)(C)c2cccc[n+]2O)cc1[O-] (3D coordinates assigned)
COc1ccc(CCNC(C)(C)c2cccc[n+]2O)cc1[O-] (optimized conformer: 52.116998521012185 kcal/mol)

>  <smiles>  (17) 
COc1ccc(CCNC(C)(C)c2cccc[n+]2[O-])cc1O

>  <score_type>  (17) 
oracle

>  <origin>  (17) 
adgpu

>  <m_score__min__energy>  (17) 
-10.300000000000001

>  <m_primary>  (17) 
energy

$$$$
17:0
     RDKit          3D

 61 64  0  0  0  0  0  0  0  0999 V2000
   -1.5580   25.2340  -25.1200 C   0  0  0  0  0  0  0  0  0  0  0  0
   -2.2950   24.8050  -26.3610 C   0  0  0  0  0  0  0  0  0  0  0  0
   -3.6890   24.9830  -26.3980 C   0  0  0  0  0  0  0  0  0  0  0  0
   -4.4320   24.5990  -27.5120 C   0  0  0  0  0  0  0  0  0  0  0  0
   -3.7970   24.0350  -28.6240 C   0  0  0  0  0  0  0  0  0  0  0  0
   -4.5610   23.5960  -29.7600 N   0  0  0  0  0  0  0  0  0  0  0  0
   -4.8260   24.4220  -30.9080 C   0  0  0  0  0  0  0  0  0  0  0  0
   -4.4170   25.6140  -30.9460 O   0  0  0  0  0  0  0  0  0  0  0  0
   -5.5820   23.9200  -32.0150 N   0  0  0  0  0  0  0  0  0  0  0  0
   -6.6770   22.9970  -31.9390 C   0  0  0  0  0  0  0  0  0  0  0  0
   -8.0070   23.4420  -31.8560 C   0  0  0  0  0  0  0  0  0  0  0  0
   -9.0510   22.5170  -31.7690 C   0  0  0  0  0  0  0  0  0  0  0  0
   -8.7740   21.1470  -31.7450 C   0  0  0  0  0  0  0  0  0  0  0  0
   -7.4500   20.6920  -31.7950 C   0  0  0  0  0  0  0  0  0  0  0  0
   -7.1030   18.9610  -31.7500 S   0  0  0  0  0  0  0  0  0  0  0  0
   -5.8580   18.7350  -30.9370 O   0  0  0  0  0  0  0  0  0  0  0  0
   -8.2380   18.2510  -31.0660 O   0  0  0  0  0  0  0  0  0  0  0  0
   -6.8830   18.2690  -33.3390 N   0  0  0  0  0  0  0  0  0  0  0  0
   -6.4180   16.8860  -33.2740 C   0  0  0  0  0  0  0  0  0  0  0  0
   -5.7050   16.6130  -34.5860 C   0  0  0  0  0  0  0  0  0  0  0  0
   -5.3010   17.9830  -35.1110 C   0  0  0  0  0  0  0  0  0  0  0  0
   -5.8750   18.9850  -34.1200 C   0  0  0  0  0  0  0  0  0  0  0  0
   -6.4050   21.6250  -31.8730 C   0  0  0  0  0  0  0  0  0  0  0  0
   -2.4080   23.8350  -28.5990 C   0  0  0  0  0  0  0  0  0  0  0  0
   -1.7880   23.2440  -29.6970 O   0  0  0  0  0  0  0  0  0  0  0  0
   -1.6390   24.2300  -27.4840 C   0  0  0  0  0  0  0  0  0  0  0  0
    0.1180   23.9430  -27.5540 S   0  0  0  0  0  0  0  0  0  0  0  0
    0.8980   24.8750  -26.6720 O   0  0  0  0  0  0  0  0  0  0  0  0
    0.5680   24.1610  -28.9720 O   0  0  0  0  0  0  0  0  0  0  0  0
    0.4510   22.2920  -27.0900 N   0  0  0  0  0  0  0  0  0  0  0  0
    0.4230   21.4200  -28.2800 C   0  0  0  0  0  0  0  0  0  0  0  0
    0.2120   19.9550  -27.8700 C   0  0  0  0  0  0  0  0  0  0  0  0
   -0.9970   19.7150  -27.1590 O   0  0  0  0  0  0  0  0  0  0  0  0
   -1.5420   20.8740  -26.5490 C   0  0  0  0  0  0  0  0  0  0  0  0
   -0.4680   21.8420  -26.0210 C   0  0  0  0  0  0  0  0  0  0  0  0
   -2.1172   24.9085  -24.2305 H   0  0  0  0  0  0  0  0  0  0  0  0
   -0.5573   24.7772  -25.1115 H   0  0  0  0  0  0  0  0  0  0  0  0
   -1.4610   26.3297  -25.1115 H   0  0  0  0  0  0  0  0  0  0  0  0
   -4.2008   25.4323  -25.5342 H   0  0  0  0  0  0  0  0  0  0  0  0
   -5.5229   24.7398  -27.5175 H   0  0  0  0  0  0  0  0  0  0  0  0
   -4.8910   22.6070  -29.7660 H   0  0  0  0  0  0  0  0  0  0  0  0
   -8.2269   24.5198  -31.8595 H   0  0  0  0  0  0  0  0  0  0  0  0
  -10.0925   22.8676  -31.7193 H   0  0  0  0  0  0  0  0  0  0  0  0
   -9.5998   20.4226  -31.6866 H   0  0  0  0  0  0  0  0  0  0  0  0
   -5.7247   16.7568  -32.4299 H   0  0  0  0  0  0  0  0  0  0  0  0
   -7.2559   16.1896  -33.1224 H   0  0  0  0  0  0  0  0  0  0  0  0
   -4.8166   15.9860  -34.4194 H   0  0  0  0  0  0  0  0  0  0  0  0
   -6.3454   16.0716  -35.2979 H   0  0  0  0  0  0  0  0  0  0  0  0
   -4.2053   18.0701  -35.1544 H   0  0  0  0  0  0  0  0  0  0  0  0
   -5.6774   18.1562  -36.1300 H   0  0  0  0  0  0  0  0  0  0  0  0
   -5.0809   19.3630  -33.4593 H   0  0  0  0  0  0  0  0  0  0  0  0
   -6.3153   19.8490  -34.6392 H   0  0  0  0  0  0  0  0  0  0  0  0
   -5.3621   21.2753  -31.8824 H   0  0  0  0  0  0  0  0  0  0  0  0
   -0.4002   21.7334  -28.9389 H   0  0  0  0  0  0  0  0  0  0  0  0
    1.3849   21.5065  -28.8065 H   0  0  0  0  0  0  0  0  0  0  0  0
    0.2036   19.3397  -28.7818 H   0  0  0  0  0  0  0  0  0  0  0  0
    1.0355   19.6966  -27.1880 H   0  0  0  0  0  0  0  0  0  0  0  0
   -2.1561   21.4043  -27.2917 H   0  0  0  0  0  0  0  0  0  0  0  0
   -2.1356   20.5408  -25.6849 H   0  0  0  0  0  0  0  0  0  0  0  0
   -0.9660   22.7220  -25.5879 H   0  0  0  0  0  0  0  0  0  0  0  0
    0.1272   21.3077  -25.2658 H   0  0  0  0  0  0  0  0  0  0  0  0
  1  2  1  0
  2  3  2  0
  3  4  1  0
  4  5  2  0
  5  6  1  0
  6  7  1  0
  7  8  2  0
  7  9  1  0
  9 10  1  0
 10 11  2  0
 11 12  1  0
 12 13  2  0
 13 14  1  0
 14 15  1  0
 15 16  2  0
 15 17  2  0
 15 18  1  0
 18 19  1  0
 19 20  1  0
 20 21  1  0
 21 22  1  0
 14 23  2  0
  5 24  1  0
 24 25  1  0
 24 26  2  0
 26 27  1  0
 27 28  2  0
 27 29  2  0
 27 30  1  0
 30 31  1  0
 31 32  1  0
 32 33  1  0
 33 34  1  0
 34 35  1  0
 26  2  1  0
 35 30  1  0
 23 10  1  0
 22 18  1  0
  1 36  1  0
  1 37  1  0
  1 38  1  0
  3 39  1  0
  4 40  1  0
  6 41  1  0
 11 42  1  0
 12 43  1  0
 13 44  1  0
 19 45  1  0
 19 46  1  0
 20 47  1  0
 20 48  1  0
 21 49  1  0
 21 50  1  0
 22 51  1  0
 22 52  1  0
 23 53  1  0
 31 54  1  0
 31 55  1  0
 32 56  1  0
 32 57  1  0
 34 58  1  0
 34 59  1  0
 35 60  1  0
 35 61  1  0
M  CHG  2   9  -1  25  -1
M  END
>  <UniqueID>  (18) 
18

>  <SMILES>  (18) 
Cc1ccc(NC(=O)[N-]c2cccc(S(=O)(=O)N3CCCC3)c2)c([O-])c1S(=O)(=O)N1CCOCC1

>  <Energy>  (18) 
89.31758046254613

>  <Genealogy>  (18) 
Cc1ccc(NC(=O)[N-]c2cccc(S(=O)(=O)N3CCCC3)c2)c([O-])c1S(=O)(=O)N1CCOCC1 (protonated)
Cc1ccc(NC(=O)[N-]c2cccc(S(=O)(=O)N3CCCC3)c2)c([O-])c1S(=O)(=O)N1CCOCC1 (3D coordinates assigned)
Cc1ccc(NC(=O)[N-]c2cccc(S(=O)(=O)N3CCCC3)c2)c([O-])c1S(=O)(=O)N1CCOCC1 (nonaromatic ring conformer: 89.31758046254613 kcal/mol)

>  <smiles>  (18) 
Cc1ccc(NC(=O)Nc2cccc(S(=O)(=O)N3CCCC3)c2)c(O)c1S(=O)(=O)N1CCOCC1

>  <score_type>  (18) 
oracle

>  <origin>  (18) 
adgpu

>  <m_score__min__energy>  (18) 
-15

>  <m_primary>  (18) 
energy

$$$$
18:0
     RDKit          3D

 49 51  0  0  0  0  0  0  0  0999 V2000
   -1.4570   25.4830  -29.0140 O   0  0  0  0  0  0  0  0  0  0  0  0
   -2.5850   24.9240  -29.0640 C   0  0  0  0  0  0  0  0  0  0  0  0
   -2.9510   23.8820  -28.0430 C   0  0  0  0  0  0  0  0  0  0  0  0
   -2.2340   22.5990  -28.2400 N   0  0  0  0  0  0  0  0  0  0  0  0
   -3.1460   21.4280  -28.2510 C   0  0  0  0  0  0  0  0  0  0  0  0
   -2.3760   20.1110  -28.0780 C   0  0  0  0  0  0  0  0  0  0  0  0
   -1.6250   20.0760  -26.7330 C   0  0  0  0  0  0  0  0  0  0  0  0
   -1.2310   21.4770  -26.2310 C   0  0  0  0  0  0  0  0  0  0  0  0
   -1.0150   22.4470  -27.4030 C   0  0  0  0  0  0  0  0  0  0  0  0
   -3.5000   25.2260  -30.1260 N   0  0  0  0  0  0  0  0  0  0  0  0
   -4.6520   24.4440  -30.4560 C   0  0  0  0  0  0  0  0  0  0  0  0
   -4.4540   23.2060  -31.0790 C   0  0  0  0  0  0  0  0  0  0  0  0
   -5.5450   22.4300  -31.4900 C   0  0  0  0  0  0  0  0  0  0  0  0
   -5.2790   20.8870  -32.3060 S   0  0  0  0  0  0  0  0  0  0  0  0
   -4.8910   19.8520  -31.2880 O   0  0  0  0  0  0  0  0  0  0  0  0
   -4.1390   21.0330  -33.2750 O   0  0  0  0  0  0  0  0  0  0  0  0
   -6.7060   20.3380  -33.1600 N   0  0  0  0  0  0  0  0  0  0  0  0
   -7.8170   20.0770  -32.2340 C   0  0  0  0  0  0  0  0  0  0  0  0
   -7.9120   18.5750  -31.9990 C   0  0  0  0  0  0  0  0  0  0  0  0
   -6.9680   17.9350  -32.9970 C   0  0  0  0  0  0  0  0  0  0  0  0
   -6.4480   19.0770  -33.8610 C   0  0  0  0  0  0  0  0  0  0  0  0
   -6.8470   22.8890  -31.2520 C   0  0  0  0  0  0  0  0  0  0  0  0
   -7.0540   24.1020  -30.5910 C   0  0  0  0  0  0  0  0  0  0  0  0
   -5.9680   24.8730  -30.1640 C   0  0  0  0  0  0  0  0  0  0  0  0
   -6.2250   26.0290  -29.4230 O   0  0  0  0  0  0  0  0  0  0  0  0
   -2.7063   24.2701  -27.0432 H   0  0  0  0  0  0  0  0  0  0  0  0
   -4.0262   23.6777  -28.1531 H   0  0  0  0  0  0  0  0  0  0  0  0
   -3.8683   21.5302  -27.4276 H   0  0  0  0  0  0  0  0  0  0  0  0
   -3.6601   21.4011  -29.2231 H   0  0  0  0  0  0  0  0  0  0  0  0
   -3.0871   19.2725  -28.1136 H   0  0  0  0  0  0  0  0  0  0  0  0
   -1.6388   20.0298  -28.8903 H   0  0  0  0  0  0  0  0  0  0  0  0
   -2.2736   19.6031  -25.9809 H   0  0  0  0  0  0  0  0  0  0  0  0
   -0.6963   19.5073  -26.8879 H   0  0  0  0  0  0  0  0  0  0  0  0
   -2.0332   21.8659  -25.5866 H   0  0  0  0  0  0  0  0  0  0  0  0
   -0.2886   21.3936  -25.6698 H   0  0  0  0  0  0  0  0  0  0  0  0
   -0.7369   23.4322  -27.0004 H   0  0  0  0  0  0  0  0  0  0  0  0
   -0.2184   22.0344  -28.0395 H   0  0  0  0  0  0  0  0  0  0  0  0
   -3.4308   22.8389  -31.2474 H   0  0  0  0  0  0  0  0  0  0  0  0
   -7.6317   20.5904  -31.2790 H   0  0  0  0  0  0  0  0  0  0  0  0
   -8.7587   20.4503  -32.6627 H   0  0  0  0  0  0  0  0  0  0  0  0
   -7.6060   18.3289  -30.9715 H   0  0  0  0  0  0  0  0  0  0  0  0
   -8.9421   18.2115  -32.1287 H   0  0  0  0  0  0  0  0  0  0  0  0
   -6.1363   17.4391  -32.4751 H   0  0  0  0  0  0  0  0  0  0  0  0
   -7.4737   17.1665  -33.6001 H   0  0  0  0  0  0  0  0  0  0  0  0
   -5.3669   18.9570  -34.0251 H   0  0  0  0  0  0  0  0  0  0  0  0
   -6.9550   19.0752  -34.8372 H   0  0  0  0  0  0  0  0  0  0  0  0
   -7.7086   22.2926  -31.5865 H   0  0  0  0  0  0  0  0  0  0  0  0
   -8.0795   24.4537  -30.4048 H   0  0  0  0  0  0  0  0  0  0  0  0
   -5.5560   26.4230  -28.7720 H   0  0  0  0  0  0  0  0  0  0  0  0
  1  2  2  0
  2  3  1  0
  3  4  1  0
  4  5  1  0
  5  6  1  0
  6  7  1  0
  7  8  1  0
  8  9  1  0
  2 10  1  0
 10 11  1  0
 11 12  2  0
 12 13  1  0
 13 14  1  0
 14 15  2  0
 14 16  2  0
 14 17  1  0
 17 18  1  0
 18 19  1  0
 19 20  1  0
 20 21  1  0
 13 22  2  0
 22 23  1  0
 23 24  2  0
 24 25  1  0
  9  4  1  0
 24 11  1  0
 21 17  1  0
  3 26  1  0
  3 27  1  0
  5 28  1  0
  5 29  1  0
  6 30  1  0
  6 31  1  0
  7 32  1  0
  7 33  1  0
  8 34  1  0
  8 35  1  0
  9 36  1  0
  9 37  1  0
 12 38  1  0
 18 39  1  0
 18 40  1  0
 19 41  1  0
 19 42  1  0
 20 43  1  0
 20 44  1  0
 21 45  1  0
 21 46  1  0
 22 47  1  0
 23 48  1  0
 25 49  1  0
M  CHG  1  10  -1
M  END
>  <UniqueID>  (19) 
19

>  <SMILES>  (19) 
O=C(CN1CCCCC1)[N-]c1cc(S(=O)(=O)N2CCCC2)ccc1O

>  <Energy>  (19) 
61.89223043031021

>  <Genealogy>  (19) 
O=C(CN1CCCCC1)[N-]c1cc(S(=O)(=O)N2CCCC2)ccc1O (protonated)
O=C(CN1CCCCC1)[N-]c1cc(S(=O)(=O)N2CCCC2)ccc1O (3D coordinates assigned)
O=C(CN1CCCCC1)[N-]c1cc(S(=O)(=O)N2CCCC2)ccc1O (nonaromatic ring conformer: 61.89223043031021 kcal/mol)

>  <smiles>  (19) 
O=C(CN1CCCCC1)Nc1cc(S(=O)(=O)N2CCCC2)ccc1O

>  <score_type>  (19) 
oracle

>  <origin>  (19) 
adgpu

>  <m_score__min__energy>  (19) 
-10.77

>  <m_primary>  (19) 
energy

$$$$
19:0
     RDKit          3D

 47 49  0  0  0  0  0  0  0  0999 V2000
   -1.9680   25.6930  -28.6410 O   0  0  0  0  0  0  0  0  0  0  0  0
   -2.6020   24.8280  -29.3040 C   0  0  0  0  0  0  0  0  0  0  0  0
   -3.7480   25.2040  -30.0800 N   0  0  0  0  0  0  0  0  0  0  0  0
   -4.8910   24.3880  -30.3710 C   0  0  0  0  0  0  0  0  0  0  0  0
   -5.4350   23.4990  -29.4260 C   0  0  0  0  0  0  0  0  0  0  0  0
   -6.5660   22.7400  -29.7420 C   0  0  0  0  0  0  0  0  0  0  0  0
   -7.1710   22.8650  -30.9990 C   0  0  0  0  0  0  0  0  0  0  0  0
   -8.6080   21.9190  -31.3750 S   0  0  0  0  0  0  0  0  0  0  0  0
   -9.4850   22.7210  -32.2970 O   0  0  0  0  0  0  0  0  0  0  0  0
   -9.3720   21.6430  -30.1100 O   0  0  0  0  0  0  0  0  0  0  0  0
   -8.1110   20.4280  -32.1470 N   0  0  0  0  0  0  0  0  0  0  0  0
   -6.6960   20.4120  -32.5650 C   0  0  0  0  0  0  0  0  0  0  0  0
   -6.4250   19.7180  -33.9150 C   0  0  0  0  0  0  0  0  0  0  0  0
   -6.2490   18.1990  -33.7700 C   0  0  0  0  0  0  0  0  0  0  0  0
   -7.4110   17.5080  -33.0350 C   0  0  0  0  0  0  0  0  0  0  0  0
   -7.6650   18.0030  -31.6020 C   0  0  0  0  0  0  0  0  0  0  0  0
   -8.6310   19.2000  -31.5170 C   0  0  0  0  0  0  0  0  0  0  0  0
   -6.6500   23.7720  -31.9300 C   0  0  0  0  0  0  0  0  0  0  0  0
   -5.5200   24.5330  -31.6130 C   0  0  0  0  0  0  0  0  0  0  0  0
   -2.1450   23.4220  -29.2880 C   0  0  0  0  0  0  0  0  0  0  0  0
   -1.5800   22.9140  -28.1030 C   0  0  0  0  0  0  0  0  0  0  0  0
   -1.0650   21.6170  -28.0600 C   0  0  0  0  0  0  0  0  0  0  0  0
   -1.1070   20.8100  -29.1970 C   0  0  0  0  0  0  0  0  0  0  0  0
   -1.6840   21.2910  -30.3730 C   0  0  0  0  0  0  0  0  0  0  0  0
   -2.2250   22.5820  -30.4260 C   0  0  0  0  0  0  0  0  0  0  0  0
   -2.8600   22.9750  -31.6070 O   0  0  0  0  0  0  0  0  0  0  0  0
   -4.9687   23.4006  -28.4346 H   0  0  0  0  0  0  0  0  0  0  0  0
   -6.9822   22.0421  -29.0006 H   0  0  0  0  0  0  0  0  0  0  0  0
   -6.3505   21.4536  -32.6409 H   0  0  0  0  0  0  0  0  0  0  0  0
   -6.1566   19.8282  -31.8046 H   0  0  0  0  0  0  0  0  0  0  0  0
   -7.2730   19.9123  -34.5882 H   0  0  0  0  0  0  0  0  0  0  0  0
   -5.4868   20.1264  -34.3186 H   0  0  0  0  0  0  0  0  0  0  0  0
   -6.1655   17.7617  -34.7759 H   0  0  0  0  0  0  0  0  0  0  0  0
   -5.3448   18.0369  -33.1649 H   0  0  0  0  0  0  0  0  0  0  0  0
   -8.3286   17.6715  -33.6193 H   0  0  0  0  0  0  0  0  0  0  0  0
   -7.1296   16.4483  -32.9468 H   0  0  0  0  0  0  0  0  0  0  0  0
   -8.0902   17.1727  -31.0191 H   0  0  0  0  0  0  0  0  0  0  0  0
   -6.6973   18.3449  -31.2061 H   0  0  0  0  0  0  0  0  0  0  0  0
   -9.5707   18.9240  -32.0178 H   0  0  0  0  0  0  0  0  0  0  0  0
   -8.7738   19.4224  -30.4492 H   0  0  0  0  0  0  0  0  0  0  0  0
   -7.1305   23.8863  -32.9129 H   0  0  0  0  0  0  0  0  0  0  0  0
   -5.1226   25.2510  -32.3455 H   0  0  0  0  0  0  0  0  0  0  0  0
   -1.5439   23.5447  -27.2025 H   0  0  0  0  0  0  0  0  0  0  0  0
   -0.6256   21.2310  -27.1284 H   0  0  0  0  0  0  0  0  0  0  0  0
   -0.6853   19.7945  -29.1666 H   0  0  0  0  0  0  0  0  0  0  0  0
   -1.7143   20.6504  -31.2667 H   0  0  0  0  0  0  0  0  0  0  0  0
   -3.1660   23.9220  -31.7840 H   0  0  0  0  0  0  0  0  0  0  0  0
  1  2  2  0
  2  3  1  0
  3  4  1  0
  4  5  2  0
  5  6  1  0
  6  7  2  0
  7  8  1  0
  8  9  2  0
  8 10  2  0
  8 11  1  0
 11 12  1  0
 12 13  1  0
 13 14  1  0
 14 15  1  0
 15 16  1  0
 16 17  1  0
  7 18  1  0
 18 19  2  0
  2 20  1  0
 20 21  2  0
 21 22  1  0
 22 23  2  0
 23 24  1  0
 24 25  2  0
 25 26  1  0
 19  4  1  0
 25 20  1  0
 17 11  1  0
  5 27  1  0
  6 28  1  0
 12 29  1  0
 12 30  1  0
 13 31  1  0
 13 32  1  0
 14 33  1  0
 14 34  1  0
 15 35  1  0
 15 36  1  0
 16 37  1  0
 16 38  1  0
 17 39  1  0
 17 40  1  0
 18 41  1  0
 19 42  1  0
 21 43  1  0
 22 44  1  0
 23 45  1  0
 24 46  1  0
 26 47  1  0
M  CHG  1   3  -1
M  END
>  <UniqueID>  (20) 
20

>  <SMILES>  (20) 
O=C([N-]c1ccc(S(=O)(=O)N2CCCCCC2)cc1)c1ccccc1O

>  <Energy>  (20) 
67.5690645270678

>  <Genealogy>  (20) 
O=C([N-]c1ccc(S(=O)(=O)N2CCCCCC2)cc1)c1ccccc1O (protonated)
O=C([N-]c1ccc(S(=O)(=O)N2CCCCCC2)cc1)c1ccccc1O (3D coordinates assigned)
O=C([N-]c1ccc(S(=O)(=O)N2CCCCCC2)cc1)c1ccccc1O (nonaromatic ring conformer: 67.5690645270678 kcal/mol)

>  <smiles>  (20) 
O=C(Nc1ccc(S(=O)(=O)N2CCCCCC2)cc1)c1ccccc1O

>  <score_type>  (20) 
oracle

>  <origin>  (20) 
adgpu

>  <m_score__min__energy>  (20) 
-9.25

>  <m_primary>  (20) 
energy

$$$$
20:0
     RDKit          3D

 55 58  0  0  0  0  0  0  0  0999 V2000
   -2.8170   20.2630  -33.4670 C   0  0  0  0  0  0  0  0  0  0  0  0
   -2.0770   21.4210  -32.7990 C   0  0  0  0  0  0  0  0  0  0  0  0
   -2.0780   21.3050  -31.2700 C   0  0  0  0  0  0  0  0  0  0  0  0
   -2.3690   22.5880  -30.6280 N   0  0  0  0  0  0  0  0  0  0  0  0
   -3.6870   22.9500  -30.1760 C   0  0  0  0  0  0  0  0  0  0  0  0
   -4.0150   23.8520  -29.1590 C   0  0  0  0  0  0  0  0  0  0  0  0
   -3.0990   24.5470  -28.2310 C   0  0  0  0  0  0  0  0  0  0  0  0
   -3.3940   24.6160  -26.8610 C   0  0  0  0  0  0  0  0  0  0  0  0
   -2.5050   25.2540  -25.9950 C   0  0  0  0  0  0  0  0  0  0  0  0
   -1.3170   25.8120  -26.4880 C   0  0  0  0  0  0  0  0  0  0  0  0
   -0.3970   26.4880  -25.6060 N   0  0  0  0  0  0  0  0  0  0  0  0
   -0.9030   27.2540  -24.4600 C   0  0  0  0  0  0  0  0  0  0  0  0
    0.2200   27.5210  -23.4470 C   0  0  0  0  0  0  0  0  0  0  0  0
    1.0890   26.3420  -23.3330 N   0  0  0  0  0  0  0  0  0  0  0  0
    1.8150   26.0440  -24.5870 C   0  0  0  0  0  0  0  0  0  0  0  0
    1.0480   26.4660  -25.8570 C   0  0  0  0  0  0  0  0  0  0  0  0
   -1.0580   25.7210  -27.8630 C   0  0  0  0  0  0  0  0  0  0  0  0
   -1.9390   25.0930  -28.6870 N   0  0  0  0  0  0  0  0  0  0  0  0
   -5.3670   23.9930  -29.1000 N   0  0  0  0  0  0  0  0  0  0  0  0
   -5.8210   23.1760  -30.0720 C   0  0  0  0  0  0  0  0  0  0  0  0
   -7.1490   22.9720  -30.4210 C   0  0  0  0  0  0  0  0  0  0  0  0
   -7.4200   22.0840  -31.4810 C   0  0  0  0  0  0  0  0  0  0  0  0
   -8.8450   21.8350  -31.8950 C   0  0  0  0  0  0  0  0  0  0  0  0
   -6.3340   21.4480  -32.1440 C   0  0  0  0  0  0  0  0  0  0  0  0
   -6.5510   20.4970  -33.2850 C   0  0  0  0  0  0  0  0  0  0  0  0
   -5.0570   21.7050  -31.7370 N   0  0  0  0  0  0  0  0  0  0  0  0
   -4.8430   22.5430  -30.7260 N   0  0  0  0  0  0  0  0  0  0  0  0
   -3.2387   19.6031  -32.6946 H   0  0  0  0  0  0  0  0  0  0  0  0
   -3.6293   20.6598  -34.0937 H   0  0  0  0  0  0  0  0  0  0  0  0
   -2.1157   19.6925  -34.0937 H   0  0  0  0  0  0  0  0  0  0  0  0
   -1.0355   21.4269  -33.1530 H   0  0  0  0  0  0  0  0  0  0  0  0
   -2.5966   22.3528  -33.0670 H   0  0  0  0  0  0  0  0  0  0  0  0
   -2.8432   20.5744  -30.9688 H   0  0  0  0  0  0  0  0  0  0  0  0
   -1.0760   20.9822  -30.9508 H   0  0  0  0  0  0  0  0  0  0  0  0
   -1.5870   23.2600  -30.4760 H   0  0  0  0  0  0  0  0  0  0  0  0
   -4.3209   24.1696  -26.4717 H   0  0  0  0  0  0  0  0  0  0  0  0
   -2.7371   25.3194  -24.9218 H   0  0  0  0  0  0  0  0  0  0  0  0
   -1.3038   28.2144  -24.8163 H   0  0  0  0  0  0  0  0  0  0  0  0
   -1.6936   26.6703  -23.9658 H   0  0  0  0  0  0  0  0  0  0  0  0
    0.8168   28.3814  -23.7840 H   0  0  0  0  0  0  0  0  0  0  0  0
   -0.2255   27.7358  -22.4645 H   0  0  0  0  0  0  0  0  0  0  0  0
    0.5100   25.5130  -23.0600 H   0  0  0  0  0  0  0  0  0  0  0  0
    1.7850   26.5090  -22.5690 H   0  0  0  0  0  0  0  0  0  0  0  0
    2.7768   26.5774  -24.5677 H   0  0  0  0  0  0  0  0  0  0  0  0
    1.9442   24.9527  -24.6346 H   0  0  0  0  0  0  0  0  0  0  0  0
    1.3772   27.4707  -26.1607 H   0  0  0  0  0  0  0  0  0  0  0  0
    1.2575   25.7386  -26.6551 H   0  0  0  0  0  0  0  0  0  0  0  0
   -0.1381   26.1595  -28.2771 H   0  0  0  0  0  0  0  0  0  0  0  0
   -7.9624   23.4862  -29.8880 H   0  0  0  0  0  0  0  0  0  0  0  0
   -9.4733   21.7252  -30.9988 H   0  0  0  0  0  0  0  0  0  0  0  0
   -9.2063   22.6836  -32.4944 H   0  0  0  0  0  0  0  0  0  0  0  0
   -8.8971   20.9141  -32.4944 H   0  0  0  0  0  0  0  0  0  0  0  0
   -6.7794   19.4962  -32.8898 H   0  0  0  0  0  0  0  0  0  0  0  0
   -7.3920   20.8488  -33.9007 H   0  0  0  0  0  0  0  0  0  0  0  0
   -5.6407   20.4492  -33.9007 H   0  0  0  0  0  0  0  0  0  0  0  0
  1  2  1  0
  2  3  1  0
  3  4  1  0
  4  5  1  0
  5  6  2  0
  6  7  1  0
  7  8  2  0
  8  9  1  0
  9 10  2  0
 10 11  1  0
 11 12  1  0
 12 13  1  0
 13 14  1  0
 14 15  1  0
 15 16  1  0
 10 17  1  0
 17 18  2  0
  6 19  1  0
 19 20  2  0
 20 21  1  0
 21 22  2  0
 22 23  1  0
 22 24  1  0
 24 25  1  0
 24 26  2  0
 26 27  1  0
 27  5  1  0
 18  7  1  0
 27 20  1  0
 16 11  1  0
  1 28  1  0
  1 29  1  0
  1 30  1  0
  2 31  1  0
  2 32  1  0
  3 33  1  0
  3 34  1  0
  4 35  1  0
  8 36  1  0
  9 37  1  0
 12 38  1  0
 12 39  1  0
 13 40  1  0
 13 41  1  0
 14 42  1  0
 14 43  1  0
 15 44  1  0
 15 45  1  0
 16 46  1  0
 16 47  1  0
 17 48  1  0
 21 49  1  0
 23 50  1  0
 23 51  1  0
 23 52  1  0
 25 53  1  0
 25 54  1  0
 25 55  1  0
M  CHG  1  14   1
M  END
>  <UniqueID>  (21) 
21

>  <SMILES>  (21) 
CCCNc1c(-c2ccc(N3CC[NH2+]CC3)cn2)nc2cc(C)c(C)nn12

>  <Energy>  (21) 
100.72377054258689

>  <Genealogy>  (21) 
CCCNc1c(-c2ccc(N3CC[NH2+]CC3)cn2)nc2cc(C)c(C)nn12 (protonated)
CCCNc1c(-c2ccc(N3CC[NH2+]CC3)cn2)nc2cc(C)c(C)nn12 (3D coordinates assigned)
CCCNc1c(-c2ccc(N3CC[NH2+]CC3)cn2)nc2cc(C)c(C)nn12 (nonaromatic ring conformer: 100.72377054258689 kcal/mol)

>  <smiles>  (21) 
CCCNc1c(-c2ccc(N3CCNCC3)cn2)nc2cc(C)c(C)nn12

>  <score_type>  (21) 
oracle

>  <origin>  (21) 
adgpu

>  <m_score__min__energy>  (21) 
-8.9399999999999995

>  <m_primary>  (21) 
energy

$$$$
21:0
     RDKit          3D

 45 48  0  0  0  0  0  0  0  0999 V2000
   -0.9020   25.2990  -28.3810 C   0  0  0  0  0  0  0  0  0  0  0  0
   -1.9610   25.2990  -29.3330 O   0  0  0  0  0  0  0  0  0  0  0  0
   -3.0780   24.4530  -29.2750 C   0  0  0  0  0  0  0  0  0  0  0  0
   -3.1500   23.5180  -28.2360 C   0  0  0  0  0  0  0  0  0  0  0  0
   -4.2470   22.6580  -28.1320 C   0  0  0  0  0  0  0  0  0  0  0  0
   -5.2810   22.7240  -29.0670 C   0  0  0  0  0  0  0  0  0  0  0  0
   -5.2240   23.6510  -30.1200 C   0  0  0  0  0  0  0  0  0  0  0  0
   -6.3520   23.7500  -31.1140 C   0  0  0  0  0  0  0  0  0  0  0  0
   -6.6040   22.4390  -31.7360 N   0  0  0  0  0  0  0  0  0  0  0  0
   -7.8790   21.9150  -31.8130 C   0  0  0  0  0  0  0  0  0  0  0  0
   -8.8450   22.5510  -31.3070 O   0  0  0  0  0  0  0  0  0  0  0  0
   -8.1080   20.6970  -32.4340 N   0  0  0  0  0  0  0  0  0  0  0  0
   -9.4700   20.1420  -32.4790 C   0  0  0  0  0  0  0  0  0  0  0  0
   -7.0540   19.9730  -32.9450 C   0  0  0  0  0  0  0  0  0  0  0  0
   -7.2260   18.8400  -33.4730 O   0  0  0  0  0  0  0  0  0  0  0  0
   -5.7850   20.5170  -32.8650 C   0  0  0  0  0  0  0  0  0  0  0  0
   -4.6220   19.9980  -33.2830 N   0  0  0  0  0  0  0  0  0  0  0  0
   -3.7280   20.9620  -32.9300 C   0  0  0  0  0  0  0  0  0  0  0  0
   -2.2700   20.8030  -33.1290 C   0  0  0  0  0  0  0  0  0  0  0  0
   -1.8210   20.0540  -34.2310 C   0  0  0  0  0  0  0  0  0  0  0  0
   -0.4590   19.8100  -34.4200 C   0  0  0  0  0  0  0  0  0  0  0  0
    0.4740   20.3100  -33.5110 C   0  0  0  0  0  0  0  0  0  0  0  0
    0.0470   21.0720  -32.4230 C   0  0  0  0  0  0  0  0  0  0  0  0
   -1.3140   21.3450  -32.2330 C   0  0  0  0  0  0  0  0  0  0  0  0
   -1.6670   22.1810  -31.1720 O   0  0  0  0  0  0  0  0  0  0  0  0
   -4.2820   22.0300  -32.2960 N   0  0  0  0  0  0  0  0  0  0  0  0
   -5.5880   21.7150  -32.2820 C   0  0  0  0  0  0  0  0  0  0  0  0
   -4.1230   24.5150  -30.2180 C   0  0  0  0  0  0  0  0  0  0  0  0
   -0.6293   24.2619  -28.1359 H   0  0  0  0  0  0  0  0  0  0  0  0
   -0.0289   25.8175  -28.8038 H   0  0  0  0  0  0  0  0  0  0  0  0
   -1.2298   25.8175  -27.4679 H   0  0  0  0  0  0  0  0  0  0  0  0
   -2.3379   23.4595  -27.4964 H   0  0  0  0  0  0  0  0  0  0  0  0
   -4.2954   21.9274  -27.3111 H   0  0  0  0  0  0  0  0  0  0  0  0
   -6.1437   22.0473  -28.9787 H   0  0  0  0  0  0  0  0  0  0  0  0
   -7.2625   24.0869  -30.5968 H   0  0  0  0  0  0  0  0  0  0  0  0
   -6.0748   24.4699  -31.8982 H   0  0  0  0  0  0  0  0  0  0  0  0
   -9.8388   19.9917  -31.4536 H   0  0  0  0  0  0  0  0  0  0  0  0
  -10.1336   20.8414  -33.0085 H   0  0  0  0  0  0  0  0  0  0  0  0
   -9.4558   19.1779  -33.0085 H   0  0  0  0  0  0  0  0  0  0  0  0
   -2.5503   19.6560  -34.9519 H   0  0  0  0  0  0  0  0  0  0  0  0
   -0.1213   19.2228  -35.2867 H   0  0  0  0  0  0  0  0  0  0  0  0
    1.5452   20.1036  -33.6520 H   0  0  0  0  0  0  0  0  0  0  0  0
    0.7859   21.4621  -31.7076 H   0  0  0  0  0  0  0  0  0  0  0  0
   -2.6200   22.4450  -30.9700 H   0  0  0  0  0  0  0  0  0  0  0  0
   -4.0752   25.2469  -31.0378 H   0  0  0  0  0  0  0  0  0  0  0  0
  1  2  1  0
  2  3  1  0
  3  4  2  0
  4  5  1  0
  5  6  2  0
  6  7  1  0
  7  8  1  0
  8  9  1  0
  9 10  1  0
 10 11  2  0
 10 12  1  0
 12 13  1  0
 12 14  1  0
 14 15  2  0
 14 16  1  0
 16 17  1  0
 17 18  2  0
 18 19  1  0
 19 20  2  0
 20 21  1  0
 21 22  2  0
 22 23  1  0
 23 24  2  0
 24 25  1  0
 18 26  1  0
 26 27  1  0
  7 28  2  0
 28  3  1  0
 27  9  1  0
 27 16  2  0
 24 19  1  0
  1 29  1  0
  1 30  1  0
  1 31  1  0
  4 32  1  0
  5 33  1  0
  6 34  1  0
  8 35  1  0
  8 36  1  0
 13 37  1  0
 13 38  1  0
 13 39  1  0
 20 40  1  0
 21 41  1  0
 22 42  1  0
 23 43  1  0
 25 44  1  0
 28 45  1  0
M  CHG  1  26  -1
M  END
>  <UniqueID>  (22) 
22

>  <SMILES>  (22) 
COc1cccc(Cn2c(=O)n(C)c(=O)c3nc(-c4ccccc4O)[n-]c32)c1

>  <Energy>  (22) 
94.94675690755757

>  <Genealogy>  (22) 
COc1cccc(Cn2c(=O)n(C)c(=O)c3nc(-c4ccccc4O)[n-]c32)c1 (protonated)
COc1cccc(Cn2c(=O)n(C)c(=O)c3nc(-c4ccccc4O)[n-]c32)c1 (3D coordinates assigned)
COc1cccc(Cn2c(=O)n(C)c(=O)c3nc(-c4ccccc4O)[n-]c32)c1 (optimized conformer: 94.94675690755757 kcal/mol)

>  <smiles>  (22) 
COc1cccc(Cn2c(=O)n(C)c(=O)c3nc(-c4ccccc4O)[nH]c32)c1

>  <score_type>  (22) 
oracle

>  <origin>  (22) 
adgpu

>  <m_score__min__energy>  (22) 
-9.3000000000000007

>  <m_primary>  (22) 
energy

$$$$
22:0
     RDKit          3D

 68 72  0  0  0  0  0  0  0  0999 V2000
   -5.3260   25.0170  -31.4710 O   0  0  0  0  0  0  0  0  0  0  0  0
   -4.3930   24.4640  -30.8250 C   0  0  0  0  0  0  0  0  0  0  0  0
   -3.5380   25.2890  -30.0160 N   0  0  0  0  0  0  0  0  0  0  0  0
   -2.6610   24.8280  -28.9810 C   0  0  0  0  0  0  0  0  0  0  0  0
   -1.2960   25.1620  -28.9670 C   0  0  0  0  0  0  0  0  0  0  0  0
   -0.4740   24.7200  -27.9280 C   0  0  0  0  0  0  0  0  0  0  0  0
   -1.0010   23.9340  -26.8940 C   0  0  0  0  0  0  0  0  0  0  0  0
    0.0140   23.4260  -25.5390 S   0  0  0  0  0  0  0  0  0  0  0  0
   -0.6830   22.3330  -24.7800 O   0  0  0  0  0  0  0  0  0  0  0  0
    1.3090   22.8740  -26.0680 O   0  0  0  0  0  0  0  0  0  0  0  0
    0.3440   24.7570  -24.4540 N   0  0  0  0  0  0  0  0  0  0  0  0
    1.5280   25.5290  -24.9070 C   0  0  0  0  0  0  0  0  0  0  0  0
    1.2930   27.0460  -24.8450 C   0  0  0  0  0  0  0  0  0  0  0  0
    0.7250   27.4030  -23.5990 O   0  0  0  0  0  0  0  0  0  0  0  0
   -0.5630   26.8210  -23.4130 C   0  0  0  0  0  0  0  0  0  0  0  0
   -0.8630   25.5900  -24.3000 C   0  0  0  0  0  0  0  0  0  0  0  0
   -2.3500   23.5610  -26.9340 C   0  0  0  0  0  0  0  0  0  0  0  0
   -3.1710   23.9970  -27.9790 C   0  0  0  0  0  0  0  0  0  0  0  0
   -4.1500   23.0100  -31.0050 C   0  0  0  0  0  0  0  0  0  0  0  0
   -2.8420   22.5000  -30.8880 C   0  0  0  0  0  0  0  0  0  0  0  0
   -2.5740   21.1470  -31.1390 C   0  0  0  0  0  0  0  0  0  0  0  0
   -0.9490   20.4820  -30.9800 S   0  0  0  0  0  0  0  0  0  0  0  0
   -0.9410   19.1350  -31.6430 O   0  0  0  0  0  0  0  0  0  0  0  0
    0.0260   21.3800  -31.6940 O   0  0  0  0  0  0  0  0  0  0  0  0
   -0.4800   20.3010  -29.3020 N   0  0  0  0  0  0  0  0  0  0  0  0
   -0.1810   18.9080  -28.9570 C   0  0  0  0  0  0  0  0  0  0  0  0
   -0.4860   18.7490  -27.4740 C   0  0  0  0  0  0  0  0  0  0  0  0
   -1.3620   19.9340  -27.1150 C   0  0  0  0  0  0  0  0  0  0  0  0
   -1.5780   20.6850  -28.4160 C   0  0  0  0  0  0  0  0  0  0  0  0
   -3.6250   20.2920  -31.4870 C   0  0  0  0  0  0  0  0  0  0  0  0
   -4.9260   20.7750  -31.5930 C   0  0  0  0  0  0  0  0  0  0  0  0
   -5.1990   22.1310  -31.3640 C   0  0  0  0  0  0  0  0  0  0  0  0
   -6.5560   22.5820  -31.4160 N   0  0  0  0  0  0  0  0  0  0  0  0
   -7.1160   23.2520  -32.5780 C   0  0  0  0  0  0  0  0  0  0  0  0
   -8.6190   23.3210  -32.3130 C   0  0  0  0  0  0  0  0  0  0  0  0
   -8.8910   22.2660  -31.2400 C   0  0  0  0  0  0  0  0  0  0  0  0
   -7.5730   22.1020  -30.4960 C   0  0  0  0  0  0  0  0  0  0  0  0
   -0.8734   25.7739  -29.7775 H   0  0  0  0  0  0  0  0  0  0  0  0
    0.5923   24.9901  -27.9211 H   0  0  0  0  0  0  0  0  0  0  0  0
    2.3827   25.2767  -24.2622 H   0  0  0  0  0  0  0  0  0  0  0  0
    1.7234   25.2612  -25.9558 H   0  0  0  0  0  0  0  0  0  0  0  0
    2.2535   27.5676  -24.9691 H   0  0  0  0  0  0  0  0  0  0  0  0
    0.6014   27.3348  -25.6502 H   0  0  0  0  0  0  0  0  0  0  0  0
   -0.6479   26.5113  -22.3609 H   0  0  0  0  0  0  0  0  0  0  0  0
   -1.2916   27.5921  -23.7039 H   0  0  0  0  0  0  0  0  0  0  0  0
   -1.6583   24.9916  -23.8315 H   0  0  0  0  0  0  0  0  0  0  0  0
   -1.1843   25.9373  -25.2931 H   0  0  0  0  0  0  0  0  0  0  0  0
   -2.7657   22.9226  -26.1405 H   0  0  0  0  0  0  0  0  0  0  0  0
   -4.2250   23.6840  -28.0127 H   0  0  0  0  0  0  0  0  0  0  0  0
   -2.0211   23.1715  -30.5962 H   0  0  0  0  0  0  0  0  0  0  0  0
   -0.8109   18.2274  -29.5486 H   0  0  0  0  0  0  0  0  0  0  0  0
    0.8696   18.6638  -29.1731 H   0  0  0  0  0  0  0  0  0  0  0  0
   -1.0203   17.8053  -27.2898 H   0  0  0  0  0  0  0  0  0  0  0  0
    0.4315   18.7194  -26.8680 H   0  0  0  0  0  0  0  0  0  0  0  0
   -2.3232   19.5915  -26.7043 H   0  0  0  0  0  0  0  0  0  0  0  0
   -0.8953   20.5700  -26.3484 H   0  0  0  0  0  0  0  0  0  0  0  0
   -2.5431   20.4031  -28.8622 H   0  0  0  0  0  0  0  0  0  0  0  0
   -1.5950   21.7723  -28.2505 H   0  0  0  0  0  0  0  0  0  0  0  0
   -3.4214   19.2281  -31.6786 H   0  0  0  0  0  0  0  0  0  0  0  0
   -5.7443   20.0893  -31.8578 H   0  0  0  0  0  0  0  0  0  0  0  0
   -6.6953   24.2632  -32.6805 H   0  0  0  0  0  0  0  0  0  0  0  0
   -6.8866   22.7176  -33.5117 H   0  0  0  0  0  0  0  0  0  0  0  0
   -8.9003   24.3205  -31.9500 H   0  0  0  0  0  0  0  0  0  0  0  0
   -9.2042   23.1363  -33.2259 H   0  0  0  0  0  0  0  0  0  0  0  0
   -9.6806   22.6079  -30.5546 H   0  0  0  0  0  0  0  0  0  0  0  0
   -9.2372   21.3172  -31.6757 H   0  0  0  0  0  0  0  0  0  0  0  0
   -7.5731   22.7014  -29.5737 H   0  0  0  0  0  0  0  0  0  0  0  0
   -7.3969   21.0587  -30.1952 H   0  0  0  0  0  0  0  0  0  0  0  0
  1  2  2  0
  2  3  1  0
  3  4  1  0
  4  5  2  0
  5  6  1  0
  6  7  2  0
  7  8  1  0
  8  9  2  0
  8 10  2  0
  8 11  1  0
 11 12  1  0
 12 13  1  0
 13 14  1  0
 14 15  1  0
 15 16  1  0
  7 17  1  0
 17 18  2  0
  2 19  1  0
 19 20  2  0
 20 21  1  0
 21 22  1  0
 22 23  2  0
 22 24  2  0
 22 25  1  0
 25 26  1  0
 26 27  1  0
 27 28  1  0
 28 29  1  0
 21 30  2  0
 30 31  1  0
 31 32  2  0
 32 33  1  0
 33 34  1  0
 34 35  1  0
 35 36  1  0
 36 37  1  0
 18  4  1  0
 32 19  1  0
 37 33  1  0
 16 11  1  0
 29 25  1  0
  5 38  1  0
  6 39  1  0
 12 40  1  0
 12 41  1  0
 13 42  1  0
 13 43  1  0
 15 44  1  0
 15 45  1  0
 16 46  1  0
 16 47  1  0
 17 48  1  0
 18 49  1  0
 20 50  1  0
 26 51  1  0
 26 52  1  0
 27 53  1  0
 27 54  1  0
 28 55  1  0
 28 56  1  0
 29 57  1  0
 29 58  1  0
 30 59  1  0
 31 60  1  0
 34 61  1  0
 34 62  1  0
 35 63  1  0
 35 64  1  0
 36 65  1  0
 36 66  1  0
 37 67  1  0
 37 68  1  0
M  CHG  1   3  -1
M  END
>  <UniqueID>  (23) 
23

>  <SMILES>  (23) 
O=C([N-]c1ccc(S(=O)(=O)N2CCOCC2)cc1)c1cc(S(=O)(=O)N2CCCC2)ccc1N1CCCC1

>  <Energy>  (23) 
93.35383614215155

>  <Genealogy>  (23) 
O=C([N-]c1ccc(S(=O)(=O)N2CCOCC2)cc1)c1cc(S(=O)(=O)N2CCCC2)ccc1N1CCCC1 (protonated)
O=C([N-]c1ccc(S(=O)(=O)N2CCOCC2)cc1)c1cc(S(=O)(=O)N2CCCC2)ccc1N1CCCC1 (3D coordinates assigned)
O=C([N-]c1ccc(S(=O)(=O)N2CCOCC2)cc1)c1cc(S(=O)(=O)N2CCCC2)ccc1N1CCCC1 (nonaromatic ring conformer: 93.35383614215155 kcal/mol)

>  <smiles>  (23) 
O=C(Nc1ccc(S(=O)(=O)N2CCOCC2)cc1)c1cc(S(=O)(=O)N2CCCC2)ccc1N1CCCC1

>  <score_type>  (23) 
oracle

>  <origin>  (23) 
adgpu

>  <m_score__min__energy>  (23) 
-12.26

>  <m_primary>  (23) 
energy

$$$$
23:0
     RDKit          3D

 48 50  0  0  1  0  0  0  0  0999 V2000
   -4.7580   24.4510  -29.6050 C   0  0  0  0  0  0  0  0  0  0  0  0
   -4.3550   24.5430  -28.2200 N   0  0  0  0  0  0  0  0  0  0  0  0
   -2.6350   24.4990  -28.0720 S   0  0  0  0  0  0  0  0  0  0  0  0
   -2.0890   25.2900  -29.2290 O   0  0  0  0  0  0  0  0  0  0  0  0
   -2.2520   25.1150  -26.7670 O   0  0  0  0  0  0  0  0  0  0  0  0
   -2.1140   22.8120  -28.1460 C   0  0  0  0  0  0  0  0  0  0  0  0
   -2.3740   21.9460  -27.0890 C   0  0  0  0  0  0  0  0  0  0  0  0
   -1.9440   20.6450  -27.2240 C   0  0  0  0  0  0  0  0  0  0  0  0
   -1.2830   20.1890  -28.3400 C   0  0  0  0  0  0  0  0  0  0  0  0
   -1.0310   21.0510  -29.3800 C   0  0  0  0  0  0  0  0  0  0  0  0
   -0.3730   20.6950  -30.5780 N   0  0  0  0  0  0  0  0  0  0  0  0
   -0.9100   20.7490  -31.7360 C   0  0  0  0  0  0  0  0  0  0  0  0
   -2.2400   21.1850  -31.8540 C   0  0  0  0  0  0  0  0  0  0  0  0
   -2.7390   21.1900  -33.1390 C   0  0  0  0  0  0  0  0  0  0  0  0
   -4.0580   21.6030  -33.4640 N   0  0  0  0  0  0  0  0  0  0  0  0
   -5.1060   20.6470  -33.1950 C   0  0  0  0  0  0  0  0  0  0  0  0
   -6.3120   21.0680  -32.6340 C   0  0  0  0  0  0  0  0  0  0  0  0
   -7.3370   20.1830  -32.3510 C   0  0  0  0  0  0  0  0  0  0  0  0
   -8.6180   20.6670  -31.7380 C   0  0  0  0  0  0  0  0  0  0  0  0
   -7.1270   18.8540  -32.6460 C   0  0  0  0  0  0  0  0  0  0  0  0
   -5.9440   18.3870  -33.2070 C   0  0  0  0  0  0  0  0  0  0  0  0
   -5.7340   16.9510  -33.5200 C   0  0  0  0  0  0  0  0  0  0  0  0
   -4.9560   19.3070  -33.4680 C   0  0  0  0  0  0  0  0  0  0  0  0
   -1.9780   20.7960  -34.2050 N   0  0  0  0  0  0  0  0  0  0  0  0
   -0.6960   20.3840  -34.0330 C   0  0  0  0  0  0  0  0  0  0  0  0
   -0.1920   20.3710  -32.7960 N   0  0  0  0  0  0  0  0  0  0  0  0
   -1.4540   22.3810  -29.2760 C   0  0  0  0  0  0  0  0  0  0  0  0
   -5.8291   24.2065  -29.6597 H   0  0  0  0  0  0  0  0  0  0  0  0
   -4.5757   25.4139  -30.1047 H   0  0  0  0  0  0  0  0  0  0  0  0
   -4.1759   23.6626  -30.1047 H   0  0  0  0  0  0  0  0  0  0  0  0
   -4.7040   25.4590  -27.8540 H   0  0  0  0  0  0  0  0  0  0  0  0
   -2.9002   22.2857  -26.1847 H   0  0  0  0  0  0  0  0  0  0  0  0
   -2.1379   19.9393  -26.4028 H   0  0  0  0  0  0  0  0  0  0  0  0
   -0.9577   19.1399  -28.4000 H   0  0  0  0  0  0  0  0  0  0  0  0
   -2.8385   21.4989  -30.9861 H   0  0  0  0  0  0  0  0  0  0  0  0
   -4.3150   22.5170  -33.8720 H   0  0  0  0  0  0  0  0  0  0  0  0
   -6.4521   22.1358  -32.4099 H   0  0  0  0  0  0  0  0  0  0  0  0
   -8.5347   20.6355  -30.6416 H   0  0  0  0  0  0  0  0  0  0  0  0
   -8.8118   21.7003  -32.0615 H   0  0  0  0  0  0  0  0  0  0  0  0
   -9.4467   20.0200  -32.0615 H   0  0  0  0  0  0  0  0  0  0  0  0
   -7.9284   18.1325  -32.4287 H   0  0  0  0  0  0  0  0  0  0  0  0
   -5.6505   16.3800  -32.5835 H   0  0  0  0  0  0  0  0  0  0  0  0
   -6.5866   16.5746  -34.1042 H   0  0  0  0  0  0  0  0  0  0  0  0
   -4.8093   16.8345  -34.1042 H   0  0  0  0  0  0  0  0  0  0  0  0
   -4.0113   18.9589  -33.9112 H   0  0  0  0  0  0  0  0  0  0  0  0
   -2.3850   20.8090  -35.1870 H   0  0  0  0  0  0  0  0  0  0  0  0
   -0.0863   20.0682  -34.8924 H   0  0  0  0  0  0  0  0  0  0  0  0
   -1.2589   23.0844  -30.0989 H   0  0  0  0  0  0  0  0  0  0  0  0
  1  2  1  0
  2  3  1  0
  3  4  2  0
  3  5  2  0
  3  6  1  0
  6  7  2  0
  7  8  1  0
  8  9  2  0
  9 10  1  0
 10 11  1  0
 11 12  2  0
 12 13  1  0
 13 14  2  0
 14 15  1  0
 15 16  1  0
 16 17  2  0
 17 18  1  0
 18 19  1  0
 18 20  2  0
 20 21  1  0
 21 22  1  0
 21 23  2  0
 14 24  1  0
 24 25  1  0
 25 26  2  0
 10 27  2  0
 27  6  1  0
 26 12  1  0
 23 16  1  0
  1 28  1  0
  1 29  1  0
  1 30  1  0
  2 31  1  0
  7 32  1  0
  8 33  1  0
  9 34  1  0
 13 35  1  0
 15 36  1  0
 17 37  1  0
 19 38  1  0
 19 39  1  0
 19 40  1  0
 20 41  1  0
 22 42  1  0
 22 43  1  0
 22 44  1  0
 23 45  1  0
 24 46  1  0
 25 47  1  0
 27 48  1  0
M  END
>  <smiles>  (24) 
CNS(=O)(=O)c1cccc(N=c2cc(Nc3cc(C)cc(C)c3)[nH]cn2)c1

>  <score_type>  (24) 
oracle

>  <origin>  (24) 
adgpu

>  <m_score__min__energy>  (24) 
-9.3000000000000007

>  <m_primary>  (24) 
energy

$$$$
24:0
     RDKit          3D

 42 44  0  0  0  0  0  0  0  0999 V2000
   -3.8960   25.2010  -30.7990 O   0  0  0  0  0  0  0  0  0  0  0  0
   -3.7490   23.9530  -30.7230 C   0  0  0  0  0  0  0  0  0  0  0  0
   -4.4150   23.1220  -31.6800 N   0  0  0  0  0  0  0  0  0  0  0  0
   -5.8110   22.7950  -31.6800 C   0  0  0  0  0  0  0  0  0  0  0  0
   -6.7990   23.7870  -31.5470 C   0  0  0  0  0  0  0  0  0  0  0  0
   -8.1520   23.4390  -31.5800 C   0  0  0  0  0  0  0  0  0  0  0  0
   -8.5290   22.1070  -31.7630 C   0  0  0  0  0  0  0  0  0  0  0  0
   -7.5540   21.1130  -31.9240 C   0  0  0  0  0  0  0  0  0  0  0  0
   -8.0280   19.4290  -32.1610 S   0  0  0  0  0  0  0  0  0  0  0  0
   -8.4240   18.8350  -30.8380 O   0  0  0  0  0  0  0  0  0  0  0  0
   -9.2240   19.3780  -33.0700 O   0  0  0  0  0  0  0  0  0  0  0  0
   -6.7350   18.4830  -32.8580 N   0  0  0  0  0  0  0  0  0  0  0  0
   -7.1790   17.1040  -33.1030 C   0  0  0  0  0  0  0  0  0  0  0  0
   -6.0170   16.2760  -33.6940 C   0  0  0  0  0  0  0  0  0  0  0  0
   -4.8960   17.0790  -34.0180 O   0  0  0  0  0  0  0  0  0  0  0  0
   -5.2960   18.1510  -34.8500 C   0  0  0  0  0  0  0  0  0  0  0  0
   -6.2640   19.0960  -34.1100 C   0  0  0  0  0  0  0  0  0  0  0  0
   -6.1960   21.4650  -31.8930 C   0  0  0  0  0  0  0  0  0  0  0  0
   -2.9030   23.3770  -29.7090 N   0  0  0  0  0  0  0  0  0  0  0  0
   -2.2160   24.1380  -28.7040 C   0  0  0  0  0  0  0  0  0  0  0  0
   -2.8460   24.5330  -27.5110 C   0  0  0  0  0  0  0  0  0  0  0  0
   -2.1490   25.2950  -26.5720 C   0  0  0  0  0  0  0  0  0  0  0  0
   -0.8310   25.6710  -26.8380 C   0  0  0  0  0  0  0  0  0  0  0  0
   -0.2410   25.3030  -28.0060 N   0  0  0  0  0  0  0  0  0  0  0  0
   -0.8990   24.5600  -28.9360 C   0  0  0  0  0  0  0  0  0  0  0  0
   -6.5061   24.8392  -31.4167 H   0  0  0  0  0  0  0  0  0  0  0  0
   -8.9216   24.2160  -31.4616 H   0  0  0  0  0  0  0  0  0  0  0  0
   -9.5951   21.8368  -31.7809 H   0  0  0  0  0  0  0  0  0  0  0  0
   -7.5042   16.6514  -32.1546 H   0  0  0  0  0  0  0  0  0  0  0  0
   -8.0165   17.1140  -33.8161 H   0  0  0  0  0  0  0  0  0  0  0  0
   -5.7096   15.5205  -32.9559 H   0  0  0  0  0  0  0  0  0  0  0  0
   -6.3754   15.8075  -34.6225 H   0  0  0  0  0  0  0  0  0  0  0  0
   -4.4054   18.7183  -35.1583 H   0  0  0  0  0  0  0  0  0  0  0  0
   -5.8138   17.7377  -35.7281 H   0  0  0  0  0  0  0  0  0  0  0  0
   -5.7431   20.0366  -33.8777 H   0  0  0  0  0  0  0  0  0  0  0  0
   -7.1322   19.2898  -34.7570 H   0  0  0  0  0  0  0  0  0  0  0  0
   -5.4280   20.6908  -32.0370 H   0  0  0  0  0  0  0  0  0  0  0  0
   -2.8300   22.3370  -29.6540 H   0  0  0  0  0  0  0  0  0  0  0  0
   -3.8888   24.2414  -27.3174 H   0  0  0  0  0  0  0  0  0  0  0  0
   -2.6334   25.5964  -25.6315 H   0  0  0  0  0  0  0  0  0  0  0  0
   -0.2697   26.2654  -26.1020 H   0  0  0  0  0  0  0  0  0  0  0  0
   -0.3952   24.2886  -29.8754 H   0  0  0  0  0  0  0  0  0  0  0  0
  1  2  2  0
  2  3  1  0
  3  4  1  0
  4  5  2  0
  5  6  1  0
  6  7  2  0
  7  8  1  0
  8  9  1  0
  9 10  2  0
  9 11  2  0
  9 12  1  0
 12 13  1  0
 13 14  1  0
 14 15  1  0
 15 16  1  0
 16 17  1  0
  8 18  2  0
  2 19  1  0
 19 20  1  0
 20 21  2  0
 21 22  1  0
 22 23  2  0
 23 24  1  0
 24 25  2  0
 18  4  1  0
 25 20  1  0
 17 12  1  0
  5 26  1  0
  6 27  1  0
  7 28  1  0
 13 29  1  0
 13 30  1  0
 14 31  1  0
 14 32  1  0
 16 33  1  0
 16 34  1  0
 17 35  1  0
 17 36  1  0
 18 37  1  0
 19 38  1  0
 21 39  1  0
 22 40  1  0
 23 41  1  0
 25 42  1  0
M  CHG  1   3  -1
M  END
>  <UniqueID>  (25) 
24

>  <SMILES>  (25) 
O=C([N-]c1cccc(S(=O)(=O)N2CCOCC2)c1)Nc1cccnc1

>  <Energy>  (25) 
59.590292249050854

>  <Genealogy>  (25) 
O=C([N-]c1cccc(S(=O)(=O)N2CCOCC2)c1)Nc1cccnc1 (protonated)
O=C([N-]c1cccc(S(=O)(=O)N2CCOCC2)c1)Nc1cccnc1 (3D coordinates assigned)
O=C([N-]c1cccc(S(=O)(=O)N2CCOCC2)c1)Nc1cccnc1 (nonaromatic ring conformer: 59.590292249050854 kcal/mol)

>  <smiles>  (25) 
O=C(Nc1cccnc1)Nc1cccc(S(=O)(=O)N2CCOCC2)c1

>  <score_type>  (25) 
oracle

>  <origin>  (25) 
adgpu

>  <m_score__min__energy>  (25) 
-10.140000000000001

>  <m_primary>  (25) 
energy

$$$$
25:0
     RDKit          3D

 66 69  0  0  0  0  0  0  0  0999 V2000
   -2.7970   18.5980  -25.5970 C   0  0  0  0  0  0  0  0  0  0  0  0
   -2.3710   19.3050  -26.8500 C   0  0  0  0  0  0  0  0  0  0  0  0
   -1.2150   18.8970  -27.5330 C   0  0  0  0  0  0  0  0  0  0  0  0
   -0.8370   19.5290  -28.7220 C   0  0  0  0  0  0  0  0  0  0  0  0
   -1.6230   20.5610  -29.2540 C   0  0  0  0  0  0  0  0  0  0  0  0
   -1.1530   21.3620  -30.7540 S   0  0  0  0  0  0  0  0  0  0  0  0
   -0.0130   20.6200  -31.3970 O   0  0  0  0  0  0  0  0  0  0  0  0
   -2.3210   21.3480  -31.7030 O   0  0  0  0  0  0  0  0  0  0  0  0
   -0.6750   23.0070  -30.4580 N   0  0  0  0  0  0  0  0  0  0  0  0
   -0.5060   23.2360  -29.0190 C   0  0  0  0  0  0  0  0  0  0  0  0
   -1.1210   24.5750  -28.6020 C   0  0  0  0  0  0  0  0  0  0  0  0
   -2.4340   24.7750  -29.2080 N   0  0  0  0  0  0  0  0  0  0  0  0
   -3.6710   24.4890  -28.5450 C   0  0  0  0  0  0  0  0  0  0  0  0
   -3.7310   24.5410  -27.2860 O   0  0  0  0  0  0  0  0  0  0  0  0
   -4.8760   24.1240  -29.3290 C   0  0  0  0  0  0  0  0  0  0  0  0
   -5.7340   25.1320  -29.8470 C   0  0  0  0  0  0  0  0  0  0  0  0
   -6.8730   24.7930  -30.6030 C   0  0  0  0  0  0  0  0  0  0  0  0
   -7.1350   23.4350  -30.8130 C   0  0  0  0  0  0  0  0  0  0  0  0
   -6.3200   22.4630  -30.3130 C   0  0  0  0  0  0  0  0  0  0  0  0
   -5.1810   22.7630  -29.5720 C   0  0  0  0  0  0  0  0  0  0  0  0
   -6.7640   21.2430  -30.6660 N   0  0  0  0  0  0  0  0  0  0  0  0
   -7.8820   21.5180  -31.3830 C   0  0  0  0  0  0  0  0  0  0  0  0
   -8.6670   20.4360  -32.0620 C   0  0  0  0  0  0  0  0  0  0  0  0
   -7.9590   20.0010  -33.2650 N   0  0  0  0  0  0  0  0  0  0  0  0
   -6.6040   19.5210  -33.2620 C   0  0  0  0  0  0  0  0  0  0  0  0
   -5.5520   20.4350  -33.4180 C   0  0  0  0  0  0  0  0  0  0  0  0
   -4.2240   20.0030  -33.3840 C   0  0  0  0  0  0  0  0  0  0  0  0
   -3.9200   18.6470  -33.1780 C   0  0  0  0  0  0  0  0  0  0  0  0
   -2.5060   18.1990  -33.1200 C   0  0  0  0  0  0  0  0  0  0  0  0
   -1.4650   19.1530  -32.8740 N   0  0  0  0  0  0  0  0  0  0  0  0
   -2.1960   16.9480  -33.2880 N   0  0  0  0  0  0  0  0  0  0  0  0
   -4.9750   17.7330  -33.0020 C   0  0  0  0  0  0  0  0  0  0  0  0
   -6.3050   18.1670  -33.0410 C   0  0  0  0  0  0  0  0  0  0  0  0
   -8.1390   22.8510  -31.4920 N   0  0  0  0  0  0  0  0  0  0  0  0
   -9.1630   23.4880  -32.3240 C   0  0  0  0  0  0  0  0  0  0  0  0
   -2.7830   20.9630  -28.5800 C   0  0  0  0  0  0  0  0  0  0  0  0
   -3.1620   20.3330  -27.3900 C   0  0  0  0  0  0  0  0  0  0  0  0
   -2.4541   19.1670  -24.7203 H   0  0  0  0  0  0  0  0  0  0  0  0
   -3.8939   18.5179  -25.5761 H   0  0  0  0  0  0  0  0  0  0  0  0
   -2.3553   17.5908  -25.5761 H   0  0  0  0  0  0  0  0  0  0  0  0
   -0.6031   18.0760  -27.1312 H   0  0  0  0  0  0  0  0  0  0  0  0
    0.0803   19.2153  -29.2417 H   0  0  0  0  0  0  0  0  0  0  0  0
   -1.4590   23.6130  -30.7970 H   0  0  0  0  0  0  0  0  0  0  0  0
   -1.0005   22.4246  -28.4648 H   0  0  0  0  0  0  0  0  0  0  0  0
    0.5699   23.2576  -28.7909 H   0  0  0  0  0  0  0  0  0  0  0  0
   -1.2264   24.5939  -27.5072 H   0  0  0  0  0  0  0  0  0  0  0  0
   -0.4565   25.3811  -28.9465 H   0  0  0  0  0  0  0  0  0  0  0  0
   -5.5054   26.1907  -29.6549 H   0  0  0  0  0  0  0  0  0  0  0  0
   -7.5342   25.5699  -31.0144 H   0  0  0  0  0  0  0  0  0  0  0  0
   -4.5336   21.9625  -29.1846 H   0  0  0  0  0  0  0  0  0  0  0  0
   -8.7841   19.5832  -31.3771 H   0  0  0  0  0  0  0  0  0  0  0  0
   -9.6587   20.8223  -32.3401 H   0  0  0  0  0  0  0  0  0  0  0  0
   -8.5460   19.8030  -34.1090 H   0  0  0  0  0  0  0  0  0  0  0  0
   -5.7745   21.5017  -33.5685 H   0  0  0  0  0  0  0  0  0  0  0  0
   -3.4099   20.7303  -33.5196 H   0  0  0  0  0  0  0  0  0  0  0  0
   -0.4630   18.8640  -32.8810 H   0  0  0  0  0  0  0  0  0  0  0  0
   -1.6870   20.1470  -32.6410 H   0  0  0  0  0  0  0  0  0  0  0  0
   -1.2010   16.6360  -33.2390 H   0  0  0  0  0  0  0  0  0  0  0  0
   -2.9220   16.2280  -33.5030 H   0  0  0  0  0  0  0  0  0  0  0  0
   -4.7528   16.6691  -32.8324 H   0  0  0  0  0  0  0  0  0  0  0  0
   -7.1208   17.4432  -32.8977 H   0  0  0  0  0  0  0  0  0  0  0  0
   -9.9193   23.9585  -31.6786 H   0  0  0  0  0  0  0  0  0  0  0  0
   -8.6948   24.2545  -32.9590 H   0  0  0  0  0  0  0  0  0  0  0  0
   -9.6436   22.7293  -32.9590 H   0  0  0  0  0  0  0  0  0  0  0  0
   -3.3989   21.7779  -28.9883 H   0  0  0  0  0  0  0  0  0  0  0  0
   -4.0830   20.6436  -26.8749 H   0  0  0  0  0  0  0  0  0  0  0  0
  1  2  1  0
  2  3  2  0
  3  4  1  0
  4  5  2  0
  5  6  1  0
  6  7  2  0
  6  8  2  0
  6  9  1  0
  9 10  1  0
 10 11  1  0
 11 12  1  0
 12 13  1  0
 13 14  2  0
 13 15  1  0
 15 16  2  0
 16 17  1  0
 17 18  2  0
 18 19  1  0
 19 20  2  0
 19 21  1  0
 21 22  2  0
 22 23  1  0
 23 24  1  0
 24 25  1  0
 25 26  2  0
 26 27  1  0
 27 28  2  0
 28 29  1  0
 29 30  1  0
 29 31  2  0
 28 32  1  0
 32 33  2  0
 22 34  1  0
 34 35  1  0
  5 36  1  0
 36 37  2  0
 37  2  1  0
 20 15  1  0
 33 25  1  0
 34 18  1  0
  1 38  1  0
  1 39  1  0
  1 40  1  0
  3 41  1  0
  4 42  1  0
  9 43  1  0
 10 44  1  0
 10 45  1  0
 11 46  1  0
 11 47  1  0
 16 48  1  0
 17 49  1  0
 20 50  1  0
 23 51  1  0
 23 52  1  0
 24 53  1  0
 26 54  1  0
 27 55  1  0
 30 56  1  0
 30 57  1  0
 31 58  1  0
 31 59  1  0
 32 60  1  0
 33 61  1  0
 35 62  1  0
 35 63  1  0
 35 64  1  0
 36 65  1  0
 37 66  1  0
M  CHG  2  12  -1  31   1
M  END
>  <UniqueID>  (26) 
25

>  <SMILES>  (26) 
Cc1ccc(S(=O)(=O)NCC[N-]C(=O)c2ccc3c(c2)nc(CNc2ccc(C(N)=[NH2+])cc2)n3C)cc1

>  <Energy>  (26) 
105.62026240521786

>  <Genealogy>  (26) 
Cc1ccc(S(=O)(=O)NCC[N-]C(=O)c2ccc3c(c2)nc(CNc2ccc(C(N)=[NH2+])cc2)n3C)cc1 (protonated)
Cc1ccc(S(=O)(=O)NCC[N-]C(=O)c2ccc3c(c2)nc(CNc2ccc(C(N)=[NH2+])cc2)n3C)cc1 (3D coordinates assigned)
Cc1ccc(S(=O)(=O)NCC[N-]C(=O)c2ccc3c(c2)nc(CNc2ccc(C(N)=[NH2+])cc2)n3C)cc1 (optimized conformer: 105.62026240521786 kcal/mol)

>  <smiles>  (26) 
Cc1ccc(S(=O)(=O)NCCNC(=O)c2ccc3c(c2)nc(CNc2ccc(C(=N)N)cc2)n3C)cc1

>  <score_type>  (26) 
oracle

>  <origin>  (26) 
adgpu

>  <m_score__min__energy>  (26) 
-11.43

>  <m_primary>  (26) 
energy

$$$$
26:0
     RDKit          3D

 48 50  0  0  0  0  0  0  0  0999 V2000
   -3.5440   25.6840  -30.1320 H   0  0  0  0  0  0  0  0  0  0  0  0
   -4.2820   25.5930  -30.8660 N   0  0  0  0  0  0  0  0  0  0  0  0
   -5.6050   24.7440  -30.1480 S   0  0  0  0  0  0  0  0  0  0  0  0
   -6.8080   25.6440  -30.0950 O   0  0  0  0  0  0  0  0  0  0  0  0
   -5.2210   24.3430  -28.7530 O   0  0  0  0  0  0  0  0  0  0  0  0
   -5.9870   23.3150  -31.1020 C   0  0  0  0  0  0  0  0  0  0  0  0
   -5.2300   23.0070  -32.2400 C   0  0  0  0  0  0  0  0  0  0  0  0
   -4.3925   23.6572  -32.5331 H   0  0  0  0  0  0  0  0  0  0  0  0
   -5.5340   21.8780  -33.0040 C   0  0  0  0  0  0  0  0  0  0  0  0
   -4.9421   21.6500  -33.9027 H   0  0  0  0  0  0  0  0  0  0  0  0
   -6.5880   21.0350  -32.6320 C   0  0  0  0  0  0  0  0  0  0  0  0
   -6.8940   19.9010  -33.4550 N   0  0  0  0  0  0  0  0  0  0  0  0
   -5.9630   19.1420  -34.2380 C   0  0  0  0  0  0  0  0  0  0  0  0
   -6.1090   19.1050  -35.4880 O   0  0  0  0  0  0  0  0  0  0  0  0
   -4.7870   18.4400  -33.6170 C   0  0  0  0  0  0  0  0  0  0  0  0
   -4.1283   18.0614  -34.4125 H   0  0  0  0  0  0  0  0  0  0  0  0
   -5.1517   17.6041  -33.0019 H   0  0  0  0  0  0  0  0  0  0  0  0
   -4.0350   19.3680  -32.7660 N   0  0  0  0  0  0  0  0  0  0  0  0
   -2.8830   20.0300  -33.0450 C   0  0  0  0  0  0  0  0  0  0  0  0
   -2.2300   19.9640  -34.2070 C   0  0  0  0  0  0  0  0  0  0  0  0
   -2.6280   19.3487  -35.0274 H   0  0  0  0  0  0  0  0  0  0  0  0
   -1.2938   20.5249  -34.3444 H   0  0  0  0  0  0  0  0  0  0  0  0
   -2.4350   20.7730  -32.0040 N   0  0  0  0  0  0  0  0  0  0  0  0
   -3.3440   20.5680  -31.0270 C   0  0  0  0  0  0  0  0  0  0  0  0
   -3.2820   21.0930  -29.7940 C   0  0  0  0  0  0  0  0  0  0  0  0
   -4.0700   20.8184  -29.0773 H   0  0  0  0  0  0  0  0  0  0  0  0
   -2.2200   22.0190  -29.3360 C   0  0  0  0  0  0  0  0  0  0  0  0
   -2.3890   23.3950  -29.5370 C   0  0  0  0  0  0  0  0  0  0  0  0
   -3.3075   23.7671  -30.0143 H   0  0  0  0  0  0  0  0  0  0  0  0
   -1.4020   24.2990  -29.1370 C   0  0  0  0  0  0  0  0  0  0  0  0
   -1.6030   25.6600  -29.3360 O   0  0  0  0  0  0  0  0  0  0  0  0
   -0.2200   23.8330  -28.5400 C   0  0  0  0  0  0  0  0  0  0  0  0
    0.7720   24.7240  -28.1300 O   0  0  0  0  0  0  0  0  0  0  0  0
    0.6720   25.7260  -28.2340 H   0  0  0  0  0  0  0  0  0  0  0  0
   -0.0220   22.4570  -28.3560 C   0  0  0  0  0  0  0  0  0  0  0  0
    1.1800   22.0290  -27.7700 O   0  0  0  0  0  0  0  0  0  0  0  0
    1.6910   20.7020  -27.8530 C   0  0  0  0  0  0  0  0  0  0  0  0
    1.8443   20.3040  -26.8390 H   0  0  0  0  0  0  0  0  0  0  0  0
    0.9735   20.0658  -28.3920 H   0  0  0  0  0  0  0  0  0  0  0  0
    2.6498   20.7114  -28.3920 H   0  0  0  0  0  0  0  0  0  0  0  0
   -1.0220   21.5520  -28.7640 C   0  0  0  0  0  0  0  0  0  0  0  0
   -0.8649   20.4710  -28.6343 H   0  0  0  0  0  0  0  0  0  0  0  0
   -4.3100   19.7010  -31.4930 C   0  0  0  0  0  0  0  0  0  0  0  0
   -5.3010   19.2710  -30.8420 O   0  0  0  0  0  0  0  0  0  0  0  0
   -7.3690   21.3620  -31.5110 C   0  0  0  0  0  0  0  0  0  0  0  0
   -8.2226   20.7262  -31.2333 H   0  0  0  0  0  0  0  0  0  0  0  0
   -7.0650   22.4930  -30.7470 C   0  0  0  0  0  0  0  0  0  0  0  0
   -7.6740   22.7383  -29.8644 H   0  0  0  0  0  0  0  0  0  0  0  0
  1  2  1  0
  2  3  1  0
  3  4  2  0
  3  5  2  0
  3  6  1  0
  6  7  2  0
  7  8  1  0
  7  9  1  0
  9 10  1  0
  9 11  2  0
 11 12  1  0
 12 13  1  0
 13 14  2  0
 13 15  1  0
 15 16  1  0
 15 17  1  0
 15 18  1  0
 18 19  1  0
 19 20  2  0
 20 21  1  0
 20 22  1  0
 19 23  1  0
 23 24  1  0
 24 25  2  0
 25 26  1  0
 25 27  1  0
 27 28  2  0
 28 29  1  0
 28 30  1  0
 30 31  1  0
 30 32  2  0
 32 33  1  0
 33 34  1  0
 32 35  1  0
 35 36  1  0
 36 37  1  0
 37 38  1  0
 37 39  1  0
 37 40  1  0
 35 41  2  0
 41 42  1  0
 24 43  1  0
 43 44  2  0
 11 45  1  0
 45 46  1  0
 45 47  2  0
 47 48  1  0
 47  6  1  0
 43 18  1  0
 41 27  1  0
M  CHG  4   2  -1  12  -1  23  -1  31  -1
M  END
>  <UniqueID>  (27) 
26

>  <SMILES>  (27) 
C=c1[n-]/c(=C\c2cc([O-])c(O)c(OC)c2)c(=O)n1CC(=O)[N-]c1ccc(S([NH-])(=O)=O)cc1

>  <Energy>  (27) 
90.97062455982002

>  <Genealogy>  (27) 
C=c1[n-]c(=Cc2cc([O-])c(O)c(OC)c2)c(=O)n1CC(=O)[N-]c1ccc(S([NH-])(=O)=O)cc1 (protonated)
C=c1[n-]/c(=C\c2cc([O-])c(O)c(OC)c2)c(=O)n1CC(=O)[N-]c1ccc(S([NH-])(=O)=O)cc1 (cis-trans isomerization)
C=c1[n-]/c(=C\c2cc([O-])c(O)c(OC)c2)c(=O)n1CC(=O)[N-]c1ccc(S([NH-])(=O)=O)cc1 (3D coordinates assigned)
C=c1[n-]/c(=C\c2cc([O-])c(O)c(OC)c2)c(=O)n1CC(=O)[N-]c1ccc(S([NH-])(=O)=O)cc1 (optimized conformer: 90.97062455982002 kcal/mol)

>  <smiles>  (27) 
C=c1[nH]c(=Cc2cc(O)c(O)c(OC)c2)c(=O)n1CC(=O)Nc1ccc(S(N)(=O)=O)cc1

>  <score_type>  (27) 
oracle

>  <origin>  (27) 
adgpu

>  <m_score__min__energy>  (27) 
-12.48

>  <m_primary>  (27) 
energy

$$$$
27:0
     RDKit          3D

 31 33  0  0  0  0  0  0  0  0999 V2000
   -4.5050   19.1140  -25.5470 H   0  0  0  0  0  0  0  0  0  0  0  0
   -3.5700   18.6900  -25.7410 N   0  0  0  0  0  0  0  0  0  0  0  0
   -2.7500   19.2210  -26.5870 C   0  0  0  0  0  0  0  0  0  0  0  0
   -3.0910   20.3570  -27.2520 N   0  0  0  0  0  0  0  0  0  0  0  0
   -2.2470   20.9390  -28.1470 C   0  0  0  0  0  0  0  0  0  0  0  0
   -2.6640   22.1880  -28.8350 C   0  0  0  0  0  0  0  0  0  0  0  0
   -3.8100   22.1880  -29.6510 C   0  0  0  0  0  0  0  0  0  0  0  0
   -4.3945   21.2639  -29.7710 H   0  0  0  0  0  0  0  0  0  0  0  0
   -4.2120   23.3540  -30.3110 C   0  0  0  0  0  0  0  0  0  0  0  0
   -5.1135   23.3445  -30.9412 H   0  0  0  0  0  0  0  0  0  0  0  0
   -3.4720   24.5300  -30.1720 C   0  0  0  0  0  0  0  0  0  0  0  0
   -3.8790   25.6850  -30.8300 O   0  0  0  0  0  0  0  0  0  0  0  0
   -2.3220   24.5410  -29.3750 C   0  0  0  0  0  0  0  0  0  0  0  0
   -1.5770   25.7060  -29.2420 O   0  0  0  0  0  0  0  0  0  0  0  0
   -1.9180   23.3780  -28.7110 C   0  0  0  0  0  0  0  0  0  0  0  0
   -1.0118   23.3919  -28.0876 H   0  0  0  0  0  0  0  0  0  0  0  0
   -0.9910   20.3530  -28.3760 C   0  0  0  0  0  0  0  0  0  0  0  0
   -0.2796   20.8142  -29.0768 H   0  0  0  0  0  0  0  0  0  0  0  0
   -0.6570   19.1710  -27.6980 C   0  0  0  0  0  0  0  0  0  0  0  0
    0.6580   18.5150  -27.8890 C   0  0  0  0  0  0  0  0  0  0  0  0
    0.7070   17.1230  -28.0820 C   0  0  0  0  0  0  0  0  0  0  0  0
   -0.2259   16.5404  -28.0946 H   0  0  0  0  0  0  0  0  0  0  0  0
    1.9330   16.4740  -28.2580 C   0  0  0  0  0  0  0  0  0  0  0  0
    1.9616   15.3837  -28.4006 H   0  0  0  0  0  0  0  0  0  0  0  0
    3.1200   17.2070  -28.2530 C   0  0  0  0  0  0  0  0  0  0  0  0
    4.0838   16.6936  -28.3854 H   0  0  0  0  0  0  0  0  0  0  0  0
    3.0850   18.5920  -28.0800 C   0  0  0  0  0  0  0  0  0  0  0  0
    4.0226   19.1673  -28.0789 H   0  0  0  0  0  0  0  0  0  0  0  0
    1.8630   19.2520  -27.9080 C   0  0  0  0  0  0  0  0  0  0  0  0
    1.8580   20.6380  -27.7870 O   0  0  0  0  0  0  0  0  0  0  0  0
   -1.5440   18.6420  -26.8120 N   0  0  0  0  0  0  0  0  0  0  0  0
  1  2  1  0
  2  3  2  0
  3  4  1  0
  4  5  2  0
  5  6  1  0
  6  7  2  0
  7  8  1  0
  7  9  1  0
  9 10  1  0
  9 11  2  0
 11 12  1  0
 11 13  1  0
 13 14  1  0
 13 15  2  0
 15 16  1  0
  5 17  1  0
 17 18  1  0
 17 19  2  0
 19 20  1  0
 20 21  2  0
 21 22  1  0
 21 23  1  0
 23 24  1  0
 23 25  2  0
 25 26  1  0
 25 27  1  0
 27 28  1  0
 27 29  2  0
 29 30  1  0
 19 31  1  0
 31  3  1  0
 15  6  1  0
 29 20  1  0
M  CHG  4  12  -1  14  -1  30  -1  31  -1
M  END
>  <UniqueID>  (28) 
27

>  <SMILES>  (28) 
[H]/N=c1\nc(-c2ccc([O-])c([O-])c2)cc(-c2ccccc2[O-])[n-]1

>  <Energy>  (28) 
44.77363395436052

>  <Genealogy>  (28) 
N=c1nc(-c2ccc([O-])c([O-])c2)cc(-c2ccccc2[O-])[n-]1 (protonated)
[H]/N=c1\nc(-c2ccc([O-])c([O-])c2)cc(-c2ccccc2[O-])[n-]1 (cis-trans isomerization)
[H]/N=c1\nc(-c2ccc([O-])c([O-])c2)cc(-c2ccccc2[O-])[n-]1 (3D coordinates assigned)
[H]/N=c1\nc(-c2ccc([O-])c([O-])c2)cc(-c2ccccc2[O-])[n-]1 (optimized conformer: 44.77363395436052 kcal/mol)

>  <smiles>  (28) 
N=c1nc(-c2ccc(O)c(O)c2)cc(-c2ccccc2O)[nH]1

>  <score_type>  (28) 
oracle

>  <origin>  (28) 
adgpu

>  <m_score__min__energy>  (28) 
-13.630000000000001

>  <m_primary>  (28) 
energy

$$$$
28:0
     RDKit          3D

 49 52  0  0  0  0  0  0  0  0999 V2000
    0.8670   14.0310  -26.3350 N   0  0  0  0  0  0  0  0  0  0  0  0
    1.7640   14.5890  -27.2970 C   0  0  0  0  0  0  0  0  0  0  0  0
    2.6240   13.5850  -28.2690 S   0  0  0  0  0  0  0  0  0  0  0  0
    1.9030   16.0530  -27.4210 C   0  0  0  0  0  0  0  0  0  0  0  0
    1.0280   16.9180  -28.0510 C   0  0  0  0  0  0  0  0  0  0  0  0
    1.5930   18.1570  -27.8510 C   0  0  0  0  0  0  0  0  0  0  0  0
    0.9520   19.6880  -28.4180 S   0  0  0  0  0  0  0  0  0  0  0  0
    1.0690   19.7240  -29.9160 O   0  0  0  0  0  0  0  0  0  0  0  0
    1.7680   20.8180  -27.8590 O   0  0  0  0  0  0  0  0  0  0  0  0
   -0.7580   19.8490  -27.9600 C   0  0  0  0  0  0  0  0  0  0  0  0
   -1.2330   18.9960  -26.9480 C   0  0  0  0  0  0  0  0  0  0  0  0
   -2.5570   19.0620  -26.5150 C   0  0  0  0  0  0  0  0  0  0  0  0
   -3.4300   19.9830  -27.0830 C   0  0  0  0  0  0  0  0  0  0  0  0
   -2.9800   20.8500  -28.0800 C   0  0  0  0  0  0  0  0  0  0  0  0
   -1.6460   20.8080  -28.5260 C   0  0  0  0  0  0  0  0  0  0  0  0
   -1.1590   21.9620  -29.7830 S   0  0  0  0  0  0  0  0  0  0  0  0
    0.2110   22.4890  -29.4590 O   0  0  0  0  0  0  0  0  0  0  0  0
   -1.1230   21.2690  -31.1160 O   0  0  0  0  0  0  0  0  0  0  0  0
   -2.3120   23.2550  -29.8650 N   0  0  0  0  0  0  0  0  0  0  0  0
   -3.6280   23.2410  -30.4420 C   0  0  0  0  0  0  0  0  0  0  0  0
   -4.1830   21.9910  -30.7430 C   0  0  0  0  0  0  0  0  0  0  0  0
   -5.4660   21.8740  -31.2950 C   0  0  0  0  0  0  0  0  0  0  0  0
   -6.2270   23.0390  -31.5290 C   0  0  0  0  0  0  0  0  0  0  0  0
   -5.6670   24.2940  -31.2540 C   0  0  0  0  0  0  0  0  0  0  0  0
   -4.3840   24.4050  -30.7090 C   0  0  0  0  0  0  0  0  0  0  0  0
   -3.8900   25.6760  -30.4450 O   0  0  0  0  0  0  0  0  0  0  0  0
   -7.5930   22.9730  -32.1740 C   0  0  0  0  0  0  0  0  0  0  0  0
   -8.2420   21.5940  -32.0300 C   0  0  0  0  0  0  0  0  0  0  0  0
   -7.2580   20.4970  -32.4440 C   0  0  0  0  0  0  0  0  0  0  0  0
   -6.0410   20.4930  -31.5130 C   0  0  0  0  0  0  0  0  0  0  0  0
    2.7350   18.0390  -27.1510 N   0  0  0  0  0  0  0  0  0  0  0  0
    2.9240   16.7550  -26.8860 N   0  0  0  0  0  0  0  0  0  0  0  0
    0.2910   14.6440  -25.7170 H   0  0  0  0  0  0  0  0  0  0  0  0
    0.7720   12.9960  -26.2330 H   0  0  0  0  0  0  0  0  0  0  0  0
    0.0986   16.6736  -28.5863 H   0  0  0  0  0  0  0  0  0  0  0  0
   -0.5496   18.2653  -26.4908 H   0  0  0  0  0  0  0  0  0  0  0  0
   -2.9109   18.3849  -25.7236 H   0  0  0  0  0  0  0  0  0  0  0  0
   -4.4762   20.0284  -26.7464 H   0  0  0  0  0  0  0  0  0  0  0  0
   -3.6776   21.5760  -28.5231 H   0  0  0  0  0  0  0  0  0  0  0  0
   -3.5991   21.0808  -30.5417 H   0  0  0  0  0  0  0  0  0  0  0  0
   -6.2450   25.2047  -31.4700 H   0  0  0  0  0  0  0  0  0  0  0  0
   -8.2444   23.7211  -31.6985 H   0  0  0  0  0  0  0  0  0  0  0  0
   -7.4659   23.1726  -33.2482 H   0  0  0  0  0  0  0  0  0  0  0  0
   -8.5372   21.4397  -30.9816 H   0  0  0  0  0  0  0  0  0  0  0  0
   -9.1266   21.5454  -32.6820 H   0  0  0  0  0  0  0  0  0  0  0  0
   -7.7601   19.5198  -32.3886 H   0  0  0  0  0  0  0  0  0  0  0  0
   -6.9200   20.6901  -33.4728 H   0  0  0  0  0  0  0  0  0  0  0  0
   -6.3446   20.0809  -30.5393 H   0  0  0  0  0  0  0  0  0  0  0  0
   -5.2612   19.8809  -31.9897 H   0  0  0  0  0  0  0  0  0  0  0  0
  1  2  1  0
  2  3  2  0
  2  4  1  0
  4  5  1  0
  5  6  2  0
  6  7  1  0
  7  8  2  0
  7  9  2  0
  7 10  1  0
 10 11  2  0
 11 12  1  0
 12 13  2  0
 13 14  1  0
 14 15  2  0
 15 16  1  0
 16 17  2  0
 16 18  2  0
 16 19  1  0
 19 20  1  0
 20 21  2  0
 21 22  1  0
 22 23  2  0
 23 24  1  0
 24 25  2  0
 25 26  1  0
 23 27  1  0
 27 28  1  0
 28 29  1  0
 29 30  1  0
  6 31  1  0
 31 32  1  0
 32  4  2  0
 15 10  1  0
 25 20  1  0
 30 22  1  0
  1 33  1  0
  1 34  1  0
  5 35  1  0
 11 36  1  0
 12 37  1  0
 13 38  1  0
 14 39  1  0
 21 40  1  0
 24 41  1  0
 27 42  1  0
 27 43  1  0
 28 44  1  0
 28 45  1  0
 29 46  1  0
 29 47  1  0
 30 48  1  0
 30 49  1  0
M  CHG  3  19  -1  26  -1  31  -1
M  END
>  <UniqueID>  (29) 
28

>  <SMILES>  (29) 
NC(=S)c1cc(S(=O)(=O)c2ccccc2S(=O)(=O)[N-]c2cc3c(cc2[O-])CCCC3)[n-]n1

>  <Energy>  (29) 
90.93431907304237

>  <Genealogy>  (29) 
NC(=S)c1cc(S(=O)(=O)c2ccccc2S(=O)(=O)[N-]c2cc3c(cc2[O-])CCCC3)[n-]n1 (protonated)
NC(=S)c1cc(S(=O)(=O)c2ccccc2S(=O)(=O)[N-]c2cc3c(cc2[O-])CCCC3)[n-]n1 (3D coordinates assigned)
NC(=S)c1cc(S(=O)(=O)c2ccccc2S(=O)(=O)[N-]c2cc3c(cc2[O-])CCCC3)[n-]n1 (nonaromatic ring conformer: 90.93431907304237 kcal/mol)

>  <smiles>  (29) 
NC(=S)c1cc(S(=O)(=O)c2ccccc2S(=O)(=O)Nc2cc3c(cc2O)CCCC3)[nH]n1

>  <score_type>  (29) 
oracle

>  <origin>  (29) 
adgpu

>  <m_score__min__energy>  (29) 
-14.210000000000001

>  <m_primary>  (29) 
energy

$$$$
29:0
     RDKit          3D

 39 42  0  0  0  0  0  0  0  0999 V2000
   -9.5160   17.9510  -31.7170 O   0  0  0  0  0  0  0  0  0  0  0  0
   -8.2880   18.5400  -32.0060 C   0  0  0  0  0  0  0  0  0  0  0  0
   -7.0920   17.9410  -31.5890 C   0  0  0  0  0  0  0  0  0  0  0  0
   -5.8640   18.5410  -31.8860 C   0  0  0  0  0  0  0  0  0  0  0  0
   -5.8190   19.7420  -32.6140 C   0  0  0  0  0  0  0  0  0  0  0  0
   -4.5190   20.3800  -32.9110 C   0  0  0  0  0  0  0  0  0  0  0  0
   -3.4980   19.8220  -33.6560 C   0  0  0  0  0  0  0  0  0  0  0  0
   -2.4330   20.6520  -33.6150 N   0  0  0  0  0  0  0  0  0  0  0  0
   -1.1500   20.4590  -34.2480 C   0  0  0  0  0  0  0  0  0  0  0  0
   -0.3160   21.5510  -34.5690 C   0  0  0  0  0  0  0  0  0  0  0  0
    0.9220   21.3420  -35.1840 C   0  0  0  0  0  0  0  0  0  0  0  0
    1.3450   20.0460  -35.4880 C   0  0  0  0  0  0  0  0  0  0  0  0
    0.5280   18.9570  -35.1820 C   0  0  0  0  0  0  0  0  0  0  0  0
   -0.7110   19.1600  -34.5670 C   0  0  0  0  0  0  0  0  0  0  0  0
   -2.7330   21.7180  -32.8880 N   0  0  0  0  0  0  0  0  0  0  0  0
   -4.0000   21.5850  -32.4470 C   0  0  0  0  0  0  0  0  0  0  0  0
   -4.6870   22.6330  -31.6630 C   0  0  0  0  0  0  0  0  0  0  0  0
   -5.9100   23.1760  -32.0900 C   0  0  0  0  0  0  0  0  0  0  0  0
   -6.5200   24.1780  -31.3320 C   0  0  0  0  0  0  0  0  0  0  0  0
   -5.9250   24.6350  -30.1990 N   0  0  0  0  0  0  0  0  0  0  0  0
   -4.7330   24.1420  -29.7720 C   0  0  0  0  0  0  0  0  0  0  0  0
   -4.0880   23.1380  -30.4990 C   0  0  0  0  0  0  0  0  0  0  0  0
   -7.0240   20.3470  -33.0120 C   0  0  0  0  0  0  0  0  0  0  0  0
   -8.2490   19.7440  -32.7150 C   0  0  0  0  0  0  0  0  0  0  0  0
   -9.6770   17.4620  -30.8440 H   0  0  0  0  0  0  0  0  0  0  0  0
   -7.1189   16.9961  -31.0264 H   0  0  0  0  0  0  0  0  0  0  0  0
   -4.9289   18.0704  -31.5480 H   0  0  0  0  0  0  0  0  0  0  0  0
   -3.5445   18.8628  -34.1925 H   0  0  0  0  0  0  0  0  0  0  0  0
   -0.6425   22.5747  -34.3335 H   0  0  0  0  0  0  0  0  0  0  0  0
    1.5646   22.2005  -35.4291 H   0  0  0  0  0  0  0  0  0  0  0  0
    2.3213   19.8840  -35.9682 H   0  0  0  0  0  0  0  0  0  0  0  0
    0.8595   17.9367  -35.4252 H   0  0  0  0  0  0  0  0  0  0  0  0
   -1.3493   18.2960  -34.3300 H   0  0  0  0  0  0  0  0  0  0  0  0
   -6.3839   22.8147  -33.0146 H   0  0  0  0  0  0  0  0  0  0  0  0
   -7.4845   24.5983  -31.6530 H   0  0  0  0  0  0  0  0  0  0  0  0
   -4.2748   24.5341  -28.8521 H   0  0  0  0  0  0  0  0  0  0  0  0
   -3.1173   22.7462  -30.1611 H   0  0  0  0  0  0  0  0  0  0  0  0
   -7.0024   21.3004  -33.5603 H   0  0  0  0  0  0  0  0  0  0  0  0
   -9.1864   20.2187  -33.0404 H   0  0  0  0  0  0  0  0  0  0  0  0
  1  2  1  0
  2  3  2  0
  3  4  1  0
  4  5  2  0
  5  6  1  0
  6  7  2  0
  7  8  1  0
  8  9  1  0
  9 10  2  0
 10 11  1  0
 11 12  2  0
 12 13  1  0
 13 14  2  0
  8 15  1  0
 15 16  2  0
 16 17  1  0
 17 18  2  0
 18 19  1  0
 19 20  2  0
 20 21  1  0
 21 22  2  0
  5 23  1  0
 23 24  2  0
 24  2  1  0
 16  6  1  0
 22 17  1  0
 14  9  1  0
  1 25  1  0
  3 26  1  0
  4 27  1  0
  7 28  1  0
 10 29  1  0
 11 30  1  0
 12 31  1  0
 13 32  1  0
 14 33  1  0
 18 34  1  0
 19 35  1  0
 21 36  1  0
 22 37  1  0
 23 38  1  0
 24 39  1  0
M  END
>  <UniqueID>  (30) 
29

>  <SMILES>  (30) 
Oc1ccc(-c2cn(-c3ccccc3)nc2-c2ccncc2)cc1

>  <Energy>  (30) 
84.98535698465462

>  <Genealogy>  (30) 
Oc1ccc(-c2cn(-c3ccccc3)nc2-c2ccncc2)cc1 (3D coordinates assigned)
Oc1ccc(-c2cn(-c3ccccc3)nc2-c2ccncc2)cc1 (optimized conformer: 84.98535698465462 kcal/mol)

>  <smiles>  (30) 
Oc1ccc(-c2cn(-c3ccccc3)nc2-c2ccncc2)cc1

>  <score_type>  (30) 
oracle

>  <origin>  (30) 
adgpu

>  <m_score__min__energy>  (30) 
-7.8700000000000001

>  <m_primary>  (30) 
energy

$$$$
30:0
     RDKit          3D

 41 43  0  0  0  0  0  0  0  0999 V2000
   -1.4240   22.2990  -30.8410 C   0  0  0  0  0  0  0  0  0  0  0  0
   -1.9480   22.3430  -29.4780 N   0  0  0  0  0  0  0  0  0  0  0  0
   -2.0650   21.2840  -28.6530 C   0  0  0  0  0  0  0  0  0  0  0  0
   -2.5960   21.6850  -27.4440 C   0  0  0  0  0  0  0  0  0  0  0  0
   -2.8080   23.0470  -27.5350 C   0  0  0  0  0  0  0  0  0  0  0  0
   -2.4000   23.4250  -28.8030 C   0  0  0  0  0  0  0  0  0  0  0  0
   -2.4280   24.8110  -29.3270 C   0  0  0  0  0  0  0  0  0  0  0  0
   -1.5270   25.6210  -28.9860 O   0  0  0  0  0  0  0  0  0  0  0  0
   -3.4970   25.2810  -30.1570 N   0  0  0  0  0  0  0  0  0  0  0  0
   -4.7240   24.5880  -30.4290 C   0  0  0  0  0  0  0  0  0  0  0  0
   -5.9380   25.2450  -30.2010 C   0  0  0  0  0  0  0  0  0  0  0  0
   -7.1490   24.6000  -30.4640 C   0  0  0  0  0  0  0  0  0  0  0  0
   -7.1550   23.2990  -30.9710 C   0  0  0  0  0  0  0  0  0  0  0  0
   -5.9460   22.6390  -31.2360 C   0  0  0  0  0  0  0  0  0  0  0  0
   -5.9500   20.9920  -31.8760 S   0  0  0  0  0  0  0  0  0  0  0  0
   -4.8040   20.2300  -31.2740 O   0  0  0  0  0  0  0  0  0  0  0  0
   -5.7400   21.0480  -33.3640 O   0  0  0  0  0  0  0  0  0  0  0  0
   -7.4370   20.1370  -31.5440 N   0  0  0  0  0  0  0  0  0  0  0  0
   -7.2820   18.6910  -31.6760 C   0  0  0  0  0  0  0  0  0  0  0  0
   -8.6640   18.1390  -31.9860 C   0  0  0  0  0  0  0  0  0  0  0  0
   -9.4590   19.3220  -32.5200 C   0  0  0  0  0  0  0  0  0  0  0  0
   -8.5020   20.5030  -32.4760 C   0  0  0  0  0  0  0  0  0  0  0  0
   -4.7330   23.2880  -30.9680 C   0  0  0  0  0  0  0  0  0  0  0  0
   -0.3283   22.2070  -30.8098 H   0  0  0  0  0  0  0  0  0  0  0  0
   -1.8497   21.4334  -31.3697 H   0  0  0  0  0  0  0  0  0  0  0  0
   -1.6994   23.2234  -31.3697 H   0  0  0  0  0  0  0  0  0  0  0  0
   -1.7794   20.2523  -28.9059 H   0  0  0  0  0  0  0  0  0  0  0  0
   -2.8092   21.0441  -26.5758 H   0  0  0  0  0  0  0  0  0  0  0  0
   -3.2200   23.7025  -26.7536 H   0  0  0  0  0  0  0  0  0  0  0  0
   -5.9390   26.2742  -29.8128 H   0  0  0  0  0  0  0  0  0  0  0  0
   -8.0999   25.1182  -30.2712 H   0  0  0  0  0  0  0  0  0  0  0  0
   -8.1110   22.7900  -31.1632 H   0  0  0  0  0  0  0  0  0  0  0  0
   -6.5858   18.4559  -32.4946 H   0  0  0  0  0  0  0  0  0  0  0  0
   -6.8721   18.2478  -30.7565 H   0  0  0  0  0  0  0  0  0  0  0  0
   -8.6003   17.3442  -32.7437 H   0  0  0  0  0  0  0  0  0  0  0  0
   -9.1368   17.6949  -31.0976 H   0  0  0  0  0  0  0  0  0  0  0  0
   -9.7874   19.1308  -33.5523 H   0  0  0  0  0  0  0  0  0  0  0  0
  -10.3661   19.5075  -31.9260 H   0  0  0  0  0  0  0  0  0  0  0  0
   -8.0842   20.6915  -33.4760 H   0  0  0  0  0  0  0  0  0  0  0  0
   -9.0158   21.4207  -32.1538 H   0  0  0  0  0  0  0  0  0  0  0  0
   -3.7818   22.7779  -31.1803 H   0  0  0  0  0  0  0  0  0  0  0  0
  1  2  1  0
  2  3  1  0
  3  4  2  0
  4  5  1  0
  5  6  2  0
  6  7  1  0
  7  8  2  0
  7  9  1  0
  9 10  1  0
 10 11  2  0
 11 12  1  0
 12 13  2  0
 13 14  1  0
 14 15  1  0
 15 16  2  0
 15 17  2  0
 15 18  1  0
 18 19  1  0
 19 20  1  0
 20 21  1  0
 21 22  1  0
 14 23  2  0
  6  2  1  0
 23 10  1  0
 22 18  1  0
  1 24  1  0
  1 25  1  0
  1 26  1  0
  3 27  1  0
  4 28  1  0
  5 29  1  0
 11 30  1  0
 12 31  1  0
 13 32  1  0
 19 33  1  0
 19 34  1  0
 20 35  1  0
 20 36  1  0
 21 37  1  0
 21 38  1  0
 22 39  1  0
 22 40  1  0
 23 41  1  0
M  CHG  1   9  -1
M  END
>  <UniqueID>  (31) 
30

>  <SMILES>  (31) 
Cn1cccc1C(=O)[N-]c1cccc(S(=O)(=O)N2CCCC2)c1

>  <Energy>  (31) 
73.7737660291984

>  <Genealogy>  (31) 
Cn1cccc1C(=O)[N-]c1cccc(S(=O)(=O)N2CCCC2)c1 (protonated)
Cn1cccc1C(=O)[N-]c1cccc(S(=O)(=O)N2CCCC2)c1 (3D coordinates assigned)
Cn1cccc1C(=O)[N-]c1cccc(S(=O)(=O)N2CCCC2)c1 (nonaromatic ring conformer: 73.7737660291984 kcal/mol)

>  <smiles>  (31) 
Cn1cccc1C(=O)Nc1cccc(S(=O)(=O)N2CCCC2)c1

>  <score_type>  (31) 
oracle

>  <origin>  (31) 
adgpu

>  <m_score__min__energy>  (31) 
-9.8900000000000006

>  <m_primary>  (31) 
energy

$$$$
31:0
     RDKit          3D

 54 57  0  0  0  0  0  0  0  0999 V2000
    1.2030   24.5060  -26.5490 C   0  0  0  0  0  0  0  0  0  0  0  0
   -0.0490   24.4630  -27.3740 C   0  0  0  0  0  0  0  0  0  0  0  0
   -1.2430   25.0010  -26.8750 C   0  0  0  0  0  0  0  0  0  0  0  0
   -2.4190   24.9280  -27.6280 C   0  0  0  0  0  0  0  0  0  0  0  0
   -2.4250   24.2950  -28.8840 C   0  0  0  0  0  0  0  0  0  0  0  0
   -3.6240   24.2180  -29.6780 N   0  0  0  0  0  0  0  0  0  0  0  0
   -4.1440   25.2490  -30.3290 N   0  0  0  0  0  0  0  0  0  0  0  0
   -5.2450   24.7900  -30.9610 C   0  0  0  0  0  0  0  0  0  0  0  0
   -5.4330   23.4710  -30.7380 N   0  0  0  0  0  0  0  0  0  0  0  0
   -6.4840   22.6370  -31.2620 C   0  0  0  0  0  0  0  0  0  0  0  0
   -7.8180   23.0770  -31.2300 C   0  0  0  0  0  0  0  0  0  0  0  0
   -8.8400   22.2750  -31.7410 C   0  0  0  0  0  0  0  0  0  0  0  0
   -8.5430   21.0330  -32.3040 C   0  0  0  0  0  0  0  0  0  0  0  0
   -7.2140   20.5900  -32.3740 C   0  0  0  0  0  0  0  0  0  0  0  0
   -6.8410   19.0290  -33.1070 S   0  0  0  0  0  0  0  0  0  0  0  0
   -6.4980   19.2720  -34.5520 O   0  0  0  0  0  0  0  0  0  0  0  0
   -8.0800   18.1770  -33.0780 O   0  0  0  0  0  0  0  0  0  0  0  0
   -5.5040   18.1660  -32.3610 N   0  0  2  0  0  0  0  0  0  0  0  0
   -4.1710   18.6100  -32.8300 C   0  0  0  0  0  0  0  0  0  0  0  0
   -3.7610   17.9860  -34.1660 C   0  0  0  0  0  0  0  0  0  0  0  0
   -3.8110   16.4580  -34.0800 C   0  0  2  0  0  0  0  0  0  0  0  0
   -3.4110   15.8290  -35.4200 C   0  0  0  0  0  0  0  0  0  0  0  0
   -5.2170   16.0100  -33.6710 C   0  0  0  0  0  0  0  0  0  0  0  0
   -5.6750   16.6940  -32.3680 C   0  0  0  0  0  0  0  0  0  0  0  0
   -6.1920   21.3840  -31.8310 C   0  0  0  0  0  0  0  0  0  0  0  0
   -4.4020   23.1460  -29.9330 C   0  0  0  0  0  0  0  0  0  0  0  0
   -4.1890   21.9880  -29.4840 O   0  0  0  0  0  0  0  0  0  0  0  0
   -1.2250   23.7560  -29.3780 C   0  0  0  0  0  0  0  0  0  0  0  0
   -0.0490   23.8280  -28.6240 C   0  0  0  0  0  0  0  0  0  0  0  0
    0.9390   24.4969  -25.4812 H   0  0  0  0  0  0  0  0  0  0  0  0
    1.8249   23.6287  -26.7804 H   0  0  0  0  0  0  0  0  0  0  0  0
    1.7633   25.4239  -26.7804 H   0  0  0  0  0  0  0  0  0  0  0  0
   -1.2551   25.4830  -25.8863 H   0  0  0  0  0  0  0  0  0  0  0  0
   -3.3468   25.3692  -27.2349 H   0  0  0  0  0  0  0  0  0  0  0  0
   -5.9069   25.4128  -31.5807 H   0  0  0  0  0  0  0  0  0  0  0  0
   -8.0587   24.0602  -30.7993 H   0  0  0  0  0  0  0  0  0  0  0  0
   -9.8827   22.6231  -31.6998 H   0  0  0  0  0  0  0  0  0  0  0  0
   -9.3535   20.3997  -32.6940 H   0  0  0  0  0  0  0  0  0  0  0  0
   -5.5520   18.4510  -31.3540 H   0  0  0  0  0  0  0  0  0  0  0  0
   -4.1881   19.7037  -32.9460 H   0  0  0  0  0  0  0  0  0  0  0  0
   -3.4361   18.2845  -32.0790 H   0  0  0  0  0  0  0  0  0  0  0  0
   -4.4505   18.3274  -34.9521 H   0  0  0  0  0  0  0  0  0  0  0  0
   -2.7328   18.2962  -34.4037 H   0  0  0  0  0  0  0  0  0  0  0  0
   -3.0934   16.1190  -33.3184 H   0  0  0  0  0  0  0  0  0  0  0  0
   -2.8290   14.9138  -35.2363 H   0  0  0  0  0  0  0  0  0  0  0  0
   -4.3164   15.5790  -35.9925 H   0  0  0  0  0  0  0  0  0  0  0  0
   -2.8006   16.5429  -35.9925 H   0  0  0  0  0  0  0  0  0  0  0  0
   -5.9216   16.2671  -34.4756 H   0  0  0  0  0  0  0  0  0  0  0  0
   -5.1952   14.9237  -33.4995 H   0  0  0  0  0  0  0  0  0  0  0  0
   -6.7414   16.4701  -32.2174 H   0  0  0  0  0  0  0  0  0  0  0  0
   -5.0381   16.2984  -31.5631 H   0  0  0  0  0  0  0  0  0  0  0  0
   -5.1530   21.0232  -31.8505 H   0  0  0  0  0  0  0  0  0  0  0  0
   -1.2103   23.2732  -30.3663 H   0  0  0  0  0  0  0  0  0  0  0  0
    0.8794   23.3847  -29.0133 H   0  0  0  0  0  0  0  0  0  0  0  0
  1  2  1  0
  2  3  2  0
  3  4  1  0
  4  5  2  0
  5  6  1  0
  6  7  1  0
  7  8  2  0
  8  9  1  0
  9 10  1  0
 10 11  2  0
 11 12  1  0
 12 13  2  0
 13 14  1  0
 14 15  1  0
 15 16  2  0
 15 17  2  0
 15 18  1  0
 18 19  1  0
 19 20  1  0
 20 21  1  0
 21 22  1  0
 21 23  1  0
 23 24  1  0
 14 25  2  0
  9 26  1  0
 26 27  2  0
  5 28  1  0
 28 29  2  0
 29  2  1  0
 26  6  1  0
 25 10  1  0
 24 18  1  0
  1 30  1  0
  1 31  1  0
  1 32  1  0
  3 33  1  0
  4 34  1  0
  8 35  1  0
 11 36  1  0
 12 37  1  0
 13 38  1  0
 18 39  1  1
 19 40  1  0
 19 41  1  0
 20 42  1  0
 20 43  1  0
 21 44  1  1
 22 45  1  0
 22 46  1  0
 22 47  1  0
 23 48  1  0
 23 49  1  0
 24 50  1  0
 24 51  1  0
 25 52  1  0
 28 53  1  0
 29 54  1  0
M  CHG  1  18   1
M  END
>  <UniqueID>  (32) 
31

>  <SMILES>  (32) 
Cc1ccc(-n2ncn(-c3cccc(S(=O)(=O)[NH+]4CCC(C)CC4)c3)c2=O)cc1

>  <Energy>  (32) 
101.61888886455445

>  <Genealogy>  (32) 
Cc1ccc(-n2ncn(-c3cccc(S(=O)(=O)[NH+]4CCC(C)CC4)c3)c2=O)cc1 (protonated)
Cc1ccc(-n2ncn(-c3cccc(S(=O)(=O)[NH+]4CCC(C)CC4)c3)c2=O)cc1 (3D coordinates assigned)
Cc1ccc(-n2ncn(-c3cccc(S(=O)(=O)[NH+]4CCC(C)CC4)c3)c2=O)cc1 (nonaromatic ring conformer: 101.61888886455445 kcal/mol)

>  <smiles>  (32) 
Cc1ccc(-n2ncn(-c3cccc(S(=O)(=O)N4CCC(C)CC4)c3)c2=O)cc1

>  <score_type>  (32) 
oracle

>  <origin>  (32) 
adgpu

>  <m_score__min__energy>  (32) 
-9.8599999999999994

>  <m_primary>  (32) 
energy

$$$$
32:0
     RDKit          3D

 46 48  0  0  0  0  0  0  0  0999 V2000
   -3.2290   18.7610  -26.2600 N   0  0  0  0  0  0  0  0  0  0  0  0
   -2.7620   19.5760  -26.9370 C   0  0  0  0  0  0  0  0  0  0  0  0
   -2.1830   20.5910  -27.7790 C   0  0  0  0  0  0  0  0  0  0  0  0
   -1.1680   20.2560  -28.6830 C   0  0  0  0  0  0  0  0  0  0  0  0
   -0.6010   21.2420  -29.4940 C   0  0  0  0  0  0  0  0  0  0  0  0
   -1.0450   22.5650  -29.4060 C   0  0  0  0  0  0  0  0  0  0  0  0
   -2.0670   22.9080  -28.5070 C   0  0  0  0  0  0  0  0  0  0  0  0
   -2.5310   24.3350  -28.3820 C   0  0  0  0  0  0  0  0  0  0  0  0
   -2.7190   24.9160  -29.7060 N   0  0  0  0  0  0  0  0  0  0  0  0
   -3.8990   24.7240  -30.4960 C   0  0  0  0  0  0  0  0  0  0  0  0
   -4.6120   25.7100  -30.8190 O   0  0  0  0  0  0  0  0  0  0  0  0
   -4.2500   23.4220  -30.9720 N   0  0  0  0  0  0  0  0  0  0  0  0
   -5.5760   22.9740  -31.2920 C   0  0  0  0  0  0  0  0  0  0  0  0
   -6.6630   23.8690  -31.2820 C   0  0  0  0  0  0  0  0  0  0  0  0
   -7.9480   23.4240  -31.5980 C   0  0  0  0  0  0  0  0  0  0  0  0
   -8.1620   22.0890  -31.9380 C   0  0  0  0  0  0  0  0  0  0  0  0
   -7.0890   21.1960  -31.9770 C   0  0  0  0  0  0  0  0  0  0  0  0
   -5.7890   21.6340  -31.6780 C   0  0  0  0  0  0  0  0  0  0  0  0
   -4.4480   20.4800  -31.7350 S   0  0  0  0  0  0  0  0  0  0  0  0
   -5.0230   19.0920  -31.7720 O   0  0  0  0  0  0  0  0  0  0  0  0
   -3.6050   20.6360  -30.4980 O   0  0  0  0  0  0  0  0  0  0  0  0
   -3.4700   20.7660  -33.1610 N   0  0  0  0  0  0  0  0  0  0  0  0
   -2.2560   21.5520  -32.8480 C   0  0  0  0  0  0  0  0  0  0  0  0
   -0.9990   20.6750  -32.7020 C   0  0  0  0  0  0  0  0  0  0  0  0
   -1.3400   19.4140  -32.1710 O   0  0  0  0  0  0  0  0  0  0  0  0
   -2.0910   18.6700  -33.1160 C   0  0  0  0  0  0  0  0  0  0  0  0
   -3.1540   19.5100  -33.8660 C   0  0  0  0  0  0  0  0  0  0  0  0
   -2.6310   21.9150  -27.6900 C   0  0  0  0  0  0  0  0  0  0  0  0
   -0.8168   19.2160  -28.7548 H   0  0  0  0  0  0  0  0  0  0  0  0
    0.1967   20.9770  -30.2036 H   0  0  0  0  0  0  0  0  0  0  0  0
   -0.5922   23.3391  -30.0430 H   0  0  0  0  0  0  0  0  0  0  0  0
   -3.4844   24.3614  -27.8339 H   0  0  0  0  0  0  0  0  0  0  0  0
   -1.7715   24.9153  -27.8376 H   0  0  0  0  0  0  0  0  0  0  0  0
   -6.4987   24.9255  -31.0236 H   0  0  0  0  0  0  0  0  0  0  0  0
   -8.7931   24.1279  -31.5787 H   0  0  0  0  0  0  0  0  0  0  0  0
   -9.1772   21.7386  -32.1758 H   0  0  0  0  0  0  0  0  0  0  0  0
   -7.2634   20.1431  -32.2436 H   0  0  0  0  0  0  0  0  0  0  0  0
   -2.0873   22.2760  -33.6588 H   0  0  0  0  0  0  0  0  0  0  0  0
   -2.4249   22.0523  -31.8830 H   0  0  0  0  0  0  0  0  0  0  0  0
   -0.5348   20.5390  -33.6900 H   0  0  0  0  0  0  0  0  0  0  0  0
   -0.2940   21.1716  -32.0191 H   0  0  0  0  0  0  0  0  0  0  0  0
   -1.3962   18.2475  -33.8568 H   0  0  0  0  0  0  0  0  0  0  0  0
   -2.6316   17.8923  -32.5567 H   0  0  0  0  0  0  0  0  0  0  0  0
   -2.7711   19.7529  -34.8682 H   0  0  0  0  0  0  0  0  0  0  0  0
   -4.0766   18.9137  -33.9237 H   0  0  0  0  0  0  0  0  0  0  0  0
   -3.4271   22.1778  -26.9779 H   0  0  0  0  0  0  0  0  0  0  0  0
  1  2  3  0
  2  3  1  0
  3  4  2  0
  4  5  1  0
  5  6  2  0
  6  7  1  0
  7  8  1  0
  8  9  1  0
  9 10  1  0
 10 11  2  0
 10 12  1  0
 12 13  1  0
 13 14  2  0
 14 15  1  0
 15 16  2  0
 16 17  1  0
 17 18  2  0
 18 19  1  0
 19 20  2  0
 19 21  2  0
 19 22  1  0
 22 23  1  0
 23 24  1  0
 24 25  1  0
 25 26  1  0
 26 27  1  0
  7 28  2  0
 28  3  1  0
 18 13  1  0
 27 22  1  0
  4 29  1  0
  5 30  1  0
  6 31  1  0
  8 32  1  0
  8 33  1  0
 14 34  1  0
 15 35  1  0
 16 36  1  0
 17 37  1  0
 23 38  1  0
 23 39  1  0
 24 40  1  0
 24 41  1  0
 26 42  1  0
 26 43  1  0
 27 44  1  0
 27 45  1  0
 28 46  1  0
M  CHG  2   9  -1  12  -1
M  END
>  <UniqueID>  (33) 
32

>  <SMILES>  (33) 
N#Cc1cccc(C[N-]C(=O)[N-]c2ccccc2S(=O)(=O)N2CCOCC2)c1

>  <Energy>  (33) 
59.291952573438856

>  <Genealogy>  (33) 
N#Cc1cccc(C[N-]C(=O)[N-]c2ccccc2S(=O)(=O)N2CCOCC2)c1 (protonated)
N#Cc1cccc(C[N-]C(=O)[N-]c2ccccc2S(=O)(=O)N2CCOCC2)c1 (3D coordinates assigned)
N#Cc1cccc(C[N-]C(=O)[N-]c2ccccc2S(=O)(=O)N2CCOCC2)c1 (nonaromatic ring conformer: 59.291952573438856 kcal/mol)

>  <smiles>  (33) 
N#Cc1cccc(CNC(=O)Nc2ccccc2S(=O)(=O)N2CCOCC2)c1

>  <score_type>  (33) 
oracle

>  <origin>  (33) 
adgpu

>  <m_score__min__energy>  (33) 
-11.539999999999999

>  <m_primary>  (33) 
energy

$$$$
33:0
     RDKit          3D

 68 72  0  0  0  0  0  0  0  0999 V2000
   -0.1500   27.2842  -28.9631 H   0  0  0  0  0  0  0  0  0  0  0  0
   -0.6580   26.8090  -28.1110 C   0  0  0  0  0  0  0  0  0  0  0  0
   -1.5980   25.8530  -28.3280 N   0  0  0  0  0  0  0  0  0  0  0  0
   -2.2480   25.2540  -27.2880 C   0  0  0  0  0  0  0  0  0  0  0  0
   -3.1380   24.3220  -27.4880 N   0  0  0  0  0  0  0  0  0  0  0  0
   -3.6400   23.8570  -28.7530 C   0  0  0  0  0  0  0  0  0  0  0  0
   -4.8120   24.4330  -29.2610 C   0  0  0  0  0  0  0  0  0  0  0  0
   -5.3392   25.2041  -28.6801 H   0  0  0  0  0  0  0  0  0  0  0  0
   -5.3140   24.0330  -30.5010 C   0  0  0  0  0  0  0  0  0  0  0  0
   -6.2425   24.4793  -30.8865 H   0  0  0  0  0  0  0  0  0  0  0  0
   -4.6400   23.0670  -31.2540 C   0  0  0  0  0  0  0  0  0  0  0  0
   -5.0499   22.7457  -32.2229 H   0  0  0  0  0  0  0  0  0  0  0  0
   -3.4410   22.5030  -30.7810 C   0  0  0  0  0  0  0  0  0  0  0  0
   -2.7030   21.5020  -31.5920 C   0  0  0  0  0  0  0  0  0  0  0  0
   -2.7930   21.5010  -32.9960 C   0  0  0  0  0  0  0  0  0  0  0  0
   -3.3854   22.2756  -33.5049 H   0  0  0  0  0  0  0  0  0  0  0  0
   -2.1360   20.5240  -33.7500 C   0  0  0  0  0  0  0  0  0  0  0  0
   -2.2141   20.5349  -34.8472 H   0  0  0  0  0  0  0  0  0  0  0  0
   -1.3800   19.5330  -33.1160 C   0  0  0  0  0  0  0  0  0  0  0  0
   -0.5760   18.2890  -34.0740 S   0  0  0  0  0  0  0  0  0  0  0  0
    0.3940   17.5510  -33.1890 O   0  0  0  0  0  0  0  0  0  0  0  0
    0.1910   18.9380  -35.1970 O   0  0  0  0  0  0  0  0  0  0  0  0
   -1.7090   17.1580  -34.7480 N   0  0  0  0  0  0  0  0  0  0  0  0
   -3.0860   17.1080  -34.3620 C   0  0  0  0  0  0  0  0  0  0  0  0
   -3.9420   18.1840  -34.6330 C   0  0  0  0  0  0  0  0  0  0  0  0
   -3.5570   19.0611  -35.1738 H   0  0  0  0  0  0  0  0  0  0  0  0
   -5.2850   18.1570  -34.2230 C   0  0  0  0  0  0  0  0  0  0  0  0
   -5.7800   17.0310  -33.5240 C   0  0  0  0  0  0  0  0  0  0  0  0
   -4.9270   15.9300  -33.3180 C   0  0  0  0  0  0  0  0  0  0  0  0
   -5.3194   15.0275  -32.8267 H   0  0  0  0  0  0  0  0  0  0  0  0
   -3.5820   15.9630  -33.7290 C   0  0  0  0  0  0  0  0  0  0  0  0
   -2.7050   14.8860  -33.5040 O   0  0  0  0  0  0  0  0  0  0  0  0
   -1.5590   14.9380  -32.6570 C   0  0  0  0  0  0  0  0  0  0  0  0
   -1.8797   14.9234  -31.6049 H   0  0  0  0  0  0  0  0  0  0  0  0
   -0.9159   14.0681  -32.8564 H   0  0  0  0  0  0  0  0  0  0  0  0
   -0.9973   15.8626  -32.8564 H   0  0  0  0  0  0  0  0  0  0  0  0
   -7.2100   16.9190  -33.0170 C   0  0  0  0  0  0  0  0  0  0  0  0
   -7.2968   15.9525  -32.4990 H   0  0  0  0  0  0  0  0  0  0  0  0
   -7.8275   17.0401  -33.9193 H   0  0  0  0  0  0  0  0  0  0  0  0
   -7.7360   18.0110  -32.0440 C   0  0  0  0  0  0  0  0  0  0  0  0
   -7.0287   18.0803  -31.2044 H   0  0  0  0  0  0  0  0  0  0  0  0
   -8.7483   17.6874  -31.7603 H   0  0  0  0  0  0  0  0  0  0  0  0
   -7.9010   19.3760  -32.6110 N   0  0  1  0  0  0  0  0  0  0  0  0
   -8.5370   19.2460  -33.4370 H   0  0  0  0  0  0  0  0  0  0  0  0
   -8.6350   20.3010  -31.7190 C   0  0  0  0  0  0  0  0  0  0  0  0
   -8.4283   20.0405  -30.6705 H   0  0  0  0  0  0  0  0  0  0  0  0
   -8.3076   21.3333  -31.9118 H   0  0  0  0  0  0  0  0  0  0  0  0
   -9.7147   20.2167  -31.9118 H   0  0  0  0  0  0  0  0  0  0  0  0
   -6.6490   19.9740  -33.1620 C   0  0  0  0  0  0  0  0  0  0  0  0
   -5.8555   19.8542  -32.4096 H   0  0  0  0  0  0  0  0  0  0  0  0
   -6.8874   21.0238  -33.3881 H   0  0  0  0  0  0  0  0  0  0  0  0
   -6.1500   19.3570  -34.4820 C   0  0  0  0  0  0  0  0  0  0  0  0
   -5.5659   20.1093  -35.0323 H   0  0  0  0  0  0  0  0  0  0  0  0
   -7.0225   19.0390  -35.0716 H   0  0  0  0  0  0  0  0  0  0  0  0
   -1.2620   19.5450  -31.7200 C   0  0  0  0  0  0  0  0  0  0  0  0
   -0.6528   18.7804  -31.2158 H   0  0  0  0  0  0  0  0  0  0  0  0
   -1.9140   20.5230  -30.9650 C   0  0  0  0  0  0  0  0  0  0  0  0
   -1.8088   20.5266  -29.8701 H   0  0  0  0  0  0  0  0  0  0  0  0
   -2.9420   22.9110  -29.5300 C   0  0  0  0  0  0  0  0  0  0  0  0
   -1.9985   22.4876  -29.1552 H   0  0  0  0  0  0  0  0  0  0  0  0
   -1.9330   25.6050  -26.0120 N   0  0  0  0  0  0  0  0  0  0  0  0
   -1.0000   26.5610  -25.7460 C   0  0  0  0  0  0  0  0  0  0  0  0
   -0.6780   26.9220  -24.3260 C   0  0  0  0  0  0  0  0  0  0  0  0
   -1.8200   26.8190  -23.5520 F   0  0  0  0  0  0  0  0  0  0  0  0
    0.2910   26.0770  -23.8110 F   0  0  0  0  0  0  0  0  0  0  0  0
   -0.2100   28.2240  -24.2750 F   0  0  0  0  0  0  0  0  0  0  0  0
   -0.3370   27.1880  -26.8090 C   0  0  0  0  0  0  0  0  0  0  0  0
    0.4206   27.9628  -26.6200 H   0  0  0  0  0  0  0  0  0  0  0  0
  1  2  1  0
  2  3  1  0
  3  4  1  0
  4  5  2  0
  5  6  1  0
  6  7  2  0
  7  8  1  0
  7  9  1  0
  9 10  1  0
  9 11  2  0
 11 12  1  0
 11 13  1  0
 13 14  1  0
 14 15  2  0
 15 16  1  0
 15 17  1  0
 17 18  1  0
 17 19  2  0
 19 20  1  0
 20 21  2  0
 20 22  2  0
 20 23  1  0
 23 24  1  0
 24 25  2  0
 25 26  1  0
 25 27  1  0
 27 28  2  0
 28 29  1  0
 29 30  1  0
 29 31  2  0
 31 32  1  0
 32 33  1  0
 33 34  1  0
 33 35  1  0
 33 36  1  0
 28 37  1  0
 37 38  1  0
 37 39  1  0
 37 40  1  0
 40 41  1  0
 40 42  1  0
 40 43  1  0
 43 44  1  6
 43 45  1  0
 45 46  1  0
 45 47  1  0
 45 48  1  0
 43 49  1  0
 49 50  1  0
 49 51  1  0
 49 52  1  0
 52 53  1  0
 52 54  1  0
 19 55  1  0
 55 56  1  0
 55 57  2  0
 57 58  1  0
 13 59  2  0
 59 60  1  0
  4 61  1  0
 61 62  2  0
 62 63  1  0
 63 64  1  0
 63 65  1  0
 63 66  1  0
 62 67  1  0
 67 68  1  0
 67  2  2  0
 59  6  1  0
 57 14  1  0
 31 24  1  0
 52 27  1  0
M  CHG  3   3  -1  23  -1  43   1
M  END
>  <UniqueID>  (34) 
33

>  <SMILES>  (34) 
COc1cc2c(cc1[N-]S(=O)(=O)c1ccc(-c3cccc(/N=c4/nc(C(F)(F)F)cc[n-]4)c3)cc1)CC[N@H+](C)CC2

>  <Energy>  (34) 
108.0931635656808

>  <Genealogy>  (34) 
COc1cc2c(cc1[N-]S(=O)(=O)c1ccc(-c3cccc(N=c4nc(C(F)(F)F)cc[n-]4)c3)cc1)CC[NH+](C)CC2 (protonated)
COc1cc2c(cc1[N-]S(=O)(=O)c1ccc(-c3cccc(N=c4nc(C(F)(F)F)cc[n-]4)c3)cc1)CC[N@H+](C)CC2 (chirality)
COc1cc2c(cc1[N-]S(=O)(=O)c1ccc(-c3cccc(/N=c4/nc(C(F)(F)F)cc[n-]4)c3)cc1)CC[N@H+](C)CC2 (cis-trans isomerization)
COc1cc2c(cc1[N-]S(=O)(=O)c1ccc(-c3cccc(/N=c4/nc(C(F)(F)F)cc[n-]4)c3)cc1)CC[N@H+](C)CC2 (3D coordinates assigned)
COc1cc2c(cc1[N-]S(=O)(=O)c1ccc(-c3cccc(/N=c4/nc(C(F)(F)F)cc[n-]4)c3)cc1)CC[N@H+](C)CC2 (nonaromatic ring conformer: 108.0931635656808 kcal/mol)

>  <smiles>  (34) 
COc1cc2c(cc1NS(=O)(=O)c1ccc(-c3cccc(N=c4nc(C(F)(F)F)cc[nH]4)c3)cc1)CCN(C)CC2

>  <score_type>  (34) 
oracle

>  <origin>  (34) 
adgpu

>  <m_score__min__energy>  (34) 
-10.380000000000001

>  <m_primary>  (34) 
energy

$$$$
34:0
     RDKit          3D

 48 50  0  0  0  0  0  0  0  0999 V2000
   -0.0750   21.1330  -33.0290 C   0  0  0  0  0  0  0  0  0  0  0  0
   -1.2190   20.2220  -33.3580 C   0  0  0  0  0  0  0  0  0  0  0  0
   -0.9790   18.8980  -33.7560 C   0  0  0  0  0  0  0  0  0  0  0  0
   -2.0490   18.0410  -34.0210 C   0  0  0  0  0  0  0  0  0  0  0  0
   -3.3620   18.4980  -33.8940 C   0  0  0  0  0  0  0  0  0  0  0  0
   -3.6220   19.8230  -33.5130 C   0  0  0  0  0  0  0  0  0  0  0  0
   -4.9860   20.2680  -33.4110 N   0  0  0  0  0  0  0  0  0  0  0  0
   -5.8260   20.0310  -32.2690 C   0  0  0  0  0  0  0  0  0  0  0  0
   -5.5160   19.1640  -31.4080 O   0  0  0  0  0  0  0  0  0  0  0  0
   -7.0470   20.8350  -32.0730 C   0  0  0  0  0  0  0  0  0  0  0  0
   -8.2940   20.1920  -32.1580 C   0  0  0  0  0  0  0  0  0  0  0  0
   -9.4750   20.9090  -31.9680 C   0  0  0  0  0  0  0  0  0  0  0  0
   -9.4280   22.2760  -31.6960 C   0  0  0  0  0  0  0  0  0  0  0  0
   -8.1980   22.9330  -31.6250 C   0  0  0  0  0  0  0  0  0  0  0  0
   -6.9980   22.2300  -31.8210 C   0  0  0  0  0  0  0  0  0  0  0  0
   -5.4700   23.1330  -31.8010 S   0  0  0  0  0  0  0  0  0  0  0  0
   -4.5880   22.6920  -32.9350 O   0  0  0  0  0  0  0  0  0  0  0  0
   -5.7700   24.5960  -31.9670 O   0  0  0  0  0  0  0  0  0  0  0  0
   -4.6020   22.8400  -30.2930 C   0  0  0  0  0  0  0  0  0  0  0  0
   -3.7310   21.7480  -30.1700 C   0  0  0  0  0  0  0  0  0  0  0  0
   -2.9890   21.5620  -28.9950 C   0  0  0  0  0  0  0  0  0  0  0  0
   -2.0490   20.3990  -28.8780 C   0  0  0  0  0  0  0  0  0  0  0  0
   -3.1620   22.4480  -27.9200 C   0  0  0  0  0  0  0  0  0  0  0  0
   -4.0470   23.5310  -28.0280 C   0  0  0  0  0  0  0  0  0  0  0  0
   -4.1770   24.5160  -26.9050 C   0  0  0  0  0  0  0  0  0  0  0  0
   -4.7510   23.7320  -29.2250 C   0  0  0  0  0  0  0  0  0  0  0  0
   -2.5400   20.6730  -33.2110 C   0  0  0  0  0  0  0  0  0  0  0  0
    0.0268   21.2140  -31.9367 H   0  0  0  0  0  0  0  0  0  0  0  0
    0.8534   20.7242  -33.4544 H   0  0  0  0  0  0  0  0  0  0  0  0
   -0.2656   22.1293  -33.4544 H   0  0  0  0  0  0  0  0  0  0  0  0
    0.0541   18.5346  -33.8594 H   0  0  0  0  0  0  0  0  0  0  0  0
   -1.8569   17.0031  -34.3306 H   0  0  0  0  0  0  0  0  0  0  0  0
   -4.1996   17.8136  -34.0943 H   0  0  0  0  0  0  0  0  0  0  0  0
   -5.2950   21.0080  -34.0810 H   0  0  0  0  0  0  0  0  0  0  0  0
   -8.3387   19.1148  -32.3761 H   0  0  0  0  0  0  0  0  0  0  0  0
  -10.4455   20.3953  -32.0328 H   0  0  0  0  0  0  0  0  0  0  0  0
  -10.3607   22.8371  -31.5373 H   0  0  0  0  0  0  0  0  0  0  0  0
   -8.1685   24.0121  -31.4134 H   0  0  0  0  0  0  0  0  0  0  0  0
   -3.6293   21.0333  -31.0000 H   0  0  0  0  0  0  0  0  0  0  0  0
   -1.8701   20.1776  -27.8155 H   0  0  0  0  0  0  0  0  0  0  0  0
   -2.4923   19.5187  -29.3664 H   0  0  0  0  0  0  0  0  0  0  0  0
   -1.0953   20.6478  -29.3664 H   0  0  0  0  0  0  0  0  0  0  0  0
   -2.6002   22.2921  -26.9872 H   0  0  0  0  0  0  0  0  0  0  0  0
   -4.1072   23.9868  -25.9432 H   0  0  0  0  0  0  0  0  0  0  0  0
   -3.3692   25.2594  -26.9740 H   0  0  0  0  0  0  0  0  0  0  0  0
   -5.1500   25.0244  -26.9740 H   0  0  0  0  0  0  0  0  0  0  0  0
   -5.4243   24.5962  -29.3246 H   0  0  0  0  0  0  0  0  0  0  0  0
   -2.7316   21.6969  -32.8576 H   0  0  0  0  0  0  0  0  0  0  0  0
  1  2  1  0
  2  3  2  0
  3  4  1  0
  4  5  2  0
  5  6  1  0
  6  7  1  0
  7  8  1  0
  8  9  2  0
  8 10  1  0
 10 11  2  0
 11 12  1  0
 12 13  2  0
 13 14  1  0
 14 15  2  0
 15 16  1  0
 16 17  2  0
 16 18  2  0
 16 19  1  0
 19 20  2  0
 20 21  1  0
 21 22  1  0
 21 23  2  0
 23 24  1  0
 24 25  1  0
 24 26  2  0
  6 27  2  0
 27  2  1  0
 15 10  1  0
 26 19  1  0
  1 28  1  0
  1 29  1  0
  1 30  1  0
  3 31  1  0
  4 32  1  0
  5 33  1  0
  7 34  1  0
 11 35  1  0
 12 36  1  0
 13 37  1  0
 14 38  1  0
 20 39  1  0
 22 40  1  0
 22 41  1  0
 22 42  1  0
 23 43  1  0
 25 44  1  0
 25 45  1  0
 25 46  1  0
 26 47  1  0
 27 48  1  0
M  END
>  <UniqueID>  (35) 
34

>  <SMILES>  (35) 
Cc1cccc(NC(=O)c2ccccc2S(=O)(=O)c2cc(C)cc(C)c2)c1

>  <Energy>  (35) 
55.04501066364012

>  <Genealogy>  (35) 
Cc1cccc(NC(=O)c2ccccc2S(=O)(=O)c2cc(C)cc(C)c2)c1 (3D coordinates assigned)
Cc1cccc(NC(=O)c2ccccc2S(=O)(=O)c2cc(C)cc(C)c2)c1 (optimized conformer: 55.04501066364012 kcal/mol)

>  <smiles>  (35) 
Cc1cccc(NC(=O)c2ccccc2S(=O)(=O)c2cc(C)cc(C)c2)c1

>  <score_type>  (35) 
oracle

>  <origin>  (35) 
adgpu

>  <m_score__min__energy>  (35) 
-9.1500000000000004

>  <m_primary>  (35) 
energy

$$$$
35:0
     RDKit          3D

 49 51  0  0  0  0  0  0  0  0999 V2000
   -4.2880   22.0250  -32.5630 C   0  0  0  0  0  0  0  0  0  0  0  0
   -5.7510   22.1120  -32.2240 C   0  0  0  0  0  0  0  0  0  0  0  0
   -6.5500   20.9570  -32.2720 C   0  0  0  0  0  0  0  0  0  0  0  0
   -7.9110   21.0270  -31.9700 C   0  0  0  0  0  0  0  0  0  0  0  0
   -8.4850   22.2440  -31.6030 C   0  0  0  0  0  0  0  0  0  0  0  0
   -7.7010   23.4010  -31.5480 C   0  0  0  0  0  0  0  0  0  0  0  0
   -6.3350   23.3520  -31.8840 C   0  0  0  0  0  0  0  0  0  0  0  0
   -5.5100   24.5280  -31.8280 N   0  0  0  0  0  0  0  0  0  0  0  0
   -5.1420   25.2600  -30.6550 C   0  0  0  0  0  0  0  0  0  0  0  0
   -6.0120   25.8730  -29.9790 O   0  0  0  0  0  0  0  0  0  0  0  0
   -3.7660   25.2920  -30.2610 N   0  0  0  0  0  0  0  0  0  0  0  0
   -3.1560   24.4010  -29.3150 C   0  0  0  0  0  0  0  0  0  0  0  0
   -3.8570   23.2580  -28.9390 C   0  0  0  0  0  0  0  0  0  0  0  0
   -3.3030   22.3520  -28.0420 C   0  0  0  0  0  0  0  0  0  0  0  0
   -2.0310   22.5710  -27.4900 C   0  0  0  0  0  0  0  0  0  0  0  0
   -1.5000   21.5420  -26.5280 C   0  0  0  0  0  0  0  0  0  0  0  0
   -1.3020   23.7400  -27.8510 C   0  0  0  0  0  0  0  0  0  0  0  0
    0.2790   24.1390  -27.1240 S   0  0  0  0  0  0  0  0  0  0  0  0
    1.2860   24.5910  -28.1450 O   0  0  0  0  0  0  0  0  0  0  0  0
    0.8270   22.8990  -26.4750 O   0  0  0  0  0  0  0  0  0  0  0  0
    0.0600   25.3850  -25.9200 N   0  0  0  0  0  0  0  0  0  0  0  0
   -0.5720   24.8200  -24.7190 C   0  0  0  0  0  0  0  0  0  0  0  0
   -0.7750   25.9240  -23.6590 C   0  0  0  0  0  0  0  0  0  0  0  0
   -0.5070   27.2180  -24.1680 O   0  0  0  0  0  0  0  0  0  0  0  0
   -1.2430   27.4270  -25.3560 C   0  0  0  0  0  0  0  0  0  0  0  0
   -0.7620   26.4770  -26.4720 C   0  0  0  0  0  0  0  0  0  0  0  0
   -1.8540   24.6190  -28.8220 C   0  0  0  0  0  0  0  0  0  0  0  0
   -1.1220   25.6890  -29.3490 O   0  0  0  0  0  0  0  0  0  0  0  0
   -3.6981   21.9899  -31.6352 H   0  0  0  0  0  0  0  0  0  0  0  0
   -4.1014   21.1142  -33.1508 H   0  0  0  0  0  0  0  0  0  0  0  0
   -3.9947   22.9073  -33.1508 H   0  0  0  0  0  0  0  0  0  0  0  0
   -6.1003   19.9921  -32.5492 H   0  0  0  0  0  0  0  0  0  0  0  0
   -8.5320   20.1206  -32.0216 H   0  0  0  0  0  0  0  0  0  0  0  0
   -9.5558   22.2940  -31.3564 H   0  0  0  0  0  0  0  0  0  0  0  0
   -8.1546   24.3548  -31.2404 H   0  0  0  0  0  0  0  0  0  0  0  0
   -4.8577   23.0704  -29.3554 H   0  0  0  0  0  0  0  0  0  0  0  0
   -3.8688   21.4515  -27.7610 H   0  0  0  0  0  0  0  0  0  0  0  0
   -1.6746   21.8803  -25.4960 H   0  0  0  0  0  0  0  0  0  0  0  0
   -2.0168   20.5850  -26.6925 H   0  0  0  0  0  0  0  0  0  0  0  0
   -0.4206   21.4088  -26.6925 H   0  0  0  0  0  0  0  0  0  0  0  0
   -1.5481   24.3906  -24.9890 H   0  0  0  0  0  0  0  0  0  0  0  0
    0.0788   24.0365  -24.3036 H   0  0  0  0  0  0  0  0  0  0  0  0
   -1.8176   25.8909  -23.3098 H   0  0  0  0  0  0  0  0  0  0  0  0
   -0.0682   25.7340  -22.8378 H   0  0  0  0  0  0  0  0  0  0  0  0
   -2.3087   27.2402  -25.1577 H   0  0  0  0  0  0  0  0  0  0  0  0
   -1.0916   28.4651  -25.6868 H   0  0  0  0  0  0  0  0  0  0  0  0
   -1.6377   26.0464  -26.9798 H   0  0  0  0  0  0  0  0  0  0  0  0
   -0.1488   27.0524  -27.1812 H   0  0  0  0  0  0  0  0  0  0  0  0
   -0.1150   25.7100  -29.4120 H   0  0  0  0  0  0  0  0  0  0  0  0
  1  2  1  0
  2  3  2  0
  3  4  1  0
  4  5  2  0
  5  6  1  0
  6  7  2  0
  7  8  1  0
  8  9  1  0
  9 10  2  0
  9 11  1  0
 11 12  1  0
 12 13  2  0
 13 14  1  0
 14 15  2  0
 15 16  1  0
 15 17  1  0
 17 18  1  0
 18 19  2  0
 18 20  2  0
 18 21  1  0
 21 22  1  0
 22 23  1  0
 23 24  1  0
 24 25  1  0
 25 26  1  0
 17 27  2  0
 27 28  1  0
  7  2  1  0
 27 12  1  0
 26 21  1  0
  1 29  1  0
  1 30  1  0
  1 31  1  0
  3 32  1  0
  4 33  1  0
  5 34  1  0
  6 35  1  0
 13 36  1  0
 14 37  1  0
 16 38  1  0
 16 39  1  0
 16 40  1  0
 22 41  1  0
 22 42  1  0
 23 43  1  0
 23 44  1  0
 25 45  1  0
 25 46  1  0
 26 47  1  0
 26 48  1  0
 28 49  1  0
M  CHG  2   8  -1  11  -1
M  END
>  <UniqueID>  (36) 
35

>  <SMILES>  (36) 
Cc1ccccc1[N-]C(=O)[N-]c1ccc(C)c(S(=O)(=O)N2CCOCC2)c1O

>  <Energy>  (36) 
72.64846557730267

>  <Genealogy>  (36) 
Cc1ccccc1[N-]C(=O)[N-]c1ccc(C)c(S(=O)(=O)N2CCOCC2)c1O (protonated)
Cc1ccccc1[N-]C(=O)[N-]c1ccc(C)c(S(=O)(=O)N2CCOCC2)c1O (3D coordinates assigned)
Cc1ccccc1[N-]C(=O)[N-]c1ccc(C)c(S(=O)(=O)N2CCOCC2)c1O (nonaromatic ring conformer: 72.64846557730267 kcal/mol)

>  <smiles>  (36) 
Cc1ccccc1NC(=O)Nc1ccc(C)c(S(=O)(=O)N2CCOCC2)c1O

>  <score_type>  (36) 
oracle

>  <origin>  (36) 
adgpu

>  <m_score__min__energy>  (36) 
-12.460000000000001

>  <m_primary>  (36) 
energy

$$$$
36:0
     RDKit          3D

 45 47  0  0  0  0  0  0  0  0999 V2000
   -2.2550   18.3990  -32.1100 H   0  0  0  0  0  0  0  0  0  0  0  0
   -1.6010   17.6160  -32.3410 N   0  0  0  0  0  0  0  0  0  0  0  0
   -1.4050   17.6140  -34.0580 S   0  0  0  0  0  0  0  0  0  0  0  0
   -0.5660   16.4300  -34.4500 O   0  0  0  0  0  0  0  0  0  0  0  0
   -2.7490   17.5020  -34.7230 O   0  0  0  0  0  0  0  0  0  0  0  0
   -0.6250   19.1170  -34.5630 C   0  0  0  0  0  0  0  0  0  0  0  0
    0.3880   19.0850  -35.5340 C   0  0  0  0  0  0  0  0  0  0  0  0
    0.6943   18.1237  -35.9723 H   0  0  0  0  0  0  0  0  0  0  0  0
    1.0090   20.2640  -35.9470 C   0  0  0  0  0  0  0  0  0  0  0  0
    1.8016   20.2299  -36.7090 H   0  0  0  0  0  0  0  0  0  0  0  0
    0.6260   21.4850  -35.3950 C   0  0  0  0  0  0  0  0  0  0  0  0
    1.1188   22.4129  -35.7209 H   0  0  0  0  0  0  0  0  0  0  0  0
   -0.3820   21.5340  -34.4290 C   0  0  0  0  0  0  0  0  0  0  0  0
   -0.6813   22.5012  -33.9989 H   0  0  0  0  0  0  0  0  0  0  0  0
   -1.0170   20.3510  -34.0030 C   0  0  0  0  0  0  0  0  0  0  0  0
   -2.0600   20.3730  -33.0150 N   0  0  0  0  0  0  0  0  0  0  0  0
   -1.9140   20.9980  -31.4050 S   0  0  0  0  0  0  0  0  0  0  0  0
   -0.6050   21.7260  -31.2790 O   0  0  0  0  0  0  0  0  0  0  0  0
   -1.9350   19.8520  -30.4350 O   0  0  0  0  0  0  0  0  0  0  0  0
   -3.2550   22.0780  -31.0370 C   0  0  0  0  0  0  0  0  0  0  0  0
   -3.0380   23.4550  -30.8870 C   0  0  0  0  0  0  0  0  0  0  0  0
   -2.0232   23.8658  -30.9940 H   0  0  0  0  0  0  0  0  0  0  0  0
   -4.1080   24.3060  -30.6020 C   0  0  0  0  0  0  0  0  0  0  0  0
   -3.8910   25.6710  -30.4610 O   0  0  0  0  0  0  0  0  0  0  0  0
   -5.3980   23.7860  -30.4570 C   0  0  0  0  0  0  0  0  0  0  0  0
   -6.2389   24.4618  -30.2421 H   0  0  0  0  0  0  0  0  0  0  0  0
   -5.6260   22.4080  -30.5840 C   0  0  0  0  0  0  0  0  0  0  0  0
   -7.0040   21.8860  -30.4460 C   0  0  0  0  0  0  0  0  0  0  0  0
   -7.6341   22.3221  -29.6569 H   0  0  0  0  0  0  0  0  0  0  0  0
   -7.5460   20.9220  -31.2080 C   0  0  0  0  0  0  0  0  0  0  0  0
   -8.6223   20.7279  -31.0903 H   0  0  0  0  0  0  0  0  0  0  0  0
   -6.8090   20.1010  -32.1930 C   0  0  0  0  0  0  0  0  0  0  0  0
   -7.1180   20.2240  -33.5560 C   0  0  0  0  0  0  0  0  0  0  0  0
   -7.8966   20.9304  -33.8796 H   0  0  0  0  0  0  0  0  0  0  0  0
   -6.4400   19.4520  -34.5050 C   0  0  0  0  0  0  0  0  0  0  0  0
   -6.6752   19.5649  -35.5736 H   0  0  0  0  0  0  0  0  0  0  0  0
   -5.4650   18.5380  -34.0990 C   0  0  0  0  0  0  0  0  0  0  0  0
   -4.9270   17.9402  -34.8495 H   0  0  0  0  0  0  0  0  0  0  0  0
   -5.1710   18.3810  -32.7410 C   0  0  0  0  0  0  0  0  0  0  0  0
   -4.2120   17.4520  -32.3460 O   0  0  0  0  0  0  0  0  0  0  0  0
   -3.2340   17.5710  -32.5790 H   0  0  0  0  0  0  0  0  0  0  0  0
   -5.8470   19.1560  -31.7880 C   0  0  0  0  0  0  0  0  0  0  0  0
   -5.6247   19.0251  -30.7187 H   0  0  0  0  0  0  0  0  0  0  0  0
   -4.5490   21.5620  -30.9060 C   0  0  0  0  0  0  0  0  0  0  0  0
   -4.7256   20.4867  -31.0559 H   0  0  0  0  0  0  0  0  0  0  0  0
  1  2  1  0
  2  3  1  0
  3  4  2  0
  3  5  2  0
  3  6  1  0
  6  7  2  0
  7  8  1  0
  7  9  1  0
  9 10  1  0
  9 11  2  0
 11 12  1  0
 11 13  1  0
 13 14  1  0
 13 15  2  0
 15 16  1  0
 16 17  1  0
 17 18  2  0
 17 19  2  0
 17 20  1  0
 20 21  2  0
 21 22  1  0
 21 23  1  0
 23 24  1  0
 23 25  2  0
 25 26  1  0
 25 27  1  0
 27 28  1  0
 28 29  1  0
 28 30  2  0
 30 31  1  0
 30 32  1  0
 32 33  2  0
 33 34  1  0
 33 35  1  0
 35 36  1  0
 35 37  2  0
 37 38  1  0
 37 39  1  0
 39 40  1  0
 40 41  1  0
 39 42  2  0
 42 43  1  0
 27 44  2  0
 44 45  1  0
 15  6  1  0
 44 20  1  0
 42 32  1  0
M  CHG  3   2  -1  16  -1  24  -1
M  END
>  <UniqueID>  (37) 
36

>  <SMILES>  (37) 
[NH-]S(=O)(=O)c1ccccc1[N-]S(=O)(=O)c1cc([O-])cc(/C=C\c2cccc(O)c2)c1

>  <Energy>  (37) 
58.612672143090386

>  <Genealogy>  (37) 
[NH-]S(=O)(=O)c1ccccc1[N-]S(=O)(=O)c1cc([O-])cc(C=Cc2cccc(O)c2)c1 (protonated)
[NH-]S(=O)(=O)c1ccccc1[N-]S(=O)(=O)c1cc([O-])cc(/C=C\c2cccc(O)c2)c1 (cis-trans isomerization)
[NH-]S(=O)(=O)c1ccccc1[N-]S(=O)(=O)c1cc([O-])cc(/C=C\c2cccc(O)c2)c1 (3D coordinates assigned)
[NH-]S(=O)(=O)c1ccccc1[N-]S(=O)(=O)c1cc([O-])cc(/C=C\c2cccc(O)c2)c1 (optimized conformer: 58.612672143090386 kcal/mol)

>  <smiles>  (37) 
NS(=O)(=O)c1ccccc1NS(=O)(=O)c1cc(O)cc(C=Cc2cccc(O)c2)c1

>  <score_type>  (37) 
oracle

>  <origin>  (37) 
adgpu

>  <m_score__min__energy>  (37) 
-13.24

>  <m_primary>  (37) 
energy

$$$$
37:0
     RDKit          3D

 48 50  0  0  0  0  0  0  0  0999 V2000
   -1.2410   25.2400  -29.3190 O   0  0  0  0  0  0  0  0  0  0  0  0
   -2.2800   24.5270  -29.3570 C   0  0  0  0  0  0  0  0  0  0  0  0
   -3.4860   25.0290  -29.9430 N   0  0  0  0  0  0  0  0  0  0  0  0
   -4.6270   24.2560  -30.3440 C   0  0  0  0  0  0  0  0  0  0  0  0
   -5.8830   24.5900  -29.8210 C   0  0  0  0  0  0  0  0  0  0  0  0
   -7.0230   23.8770  -30.2030 C   0  0  0  0  0  0  0  0  0  0  0  0
   -6.9240   22.8330  -31.1330 C   0  0  0  0  0  0  0  0  0  0  0  0
   -8.3660   21.9480  -31.6340 S   0  0  0  0  0  0  0  0  0  0  0  0
   -9.3010   22.8890  -32.3400 O   0  0  0  0  0  0  0  0  0  0  0  0
   -9.0710   21.4230  -30.4140 O   0  0  0  0  0  0  0  0  0  0  0  0
   -7.9810   20.6110  -32.6980 N   0  0  0  0  0  0  0  0  0  0  0  0
   -6.9430   19.7530  -32.1170 C   0  0  0  0  0  0  0  0  0  0  0  0
   -7.6200   18.5550  -31.4650 C   0  0  0  0  0  0  0  0  0  0  0  0
   -9.0450   18.5550  -31.9820 C   0  0  0  0  0  0  0  0  0  0  0  0
   -9.1490   19.7520  -32.9150 C   0  0  0  0  0  0  0  0  0  0  0  0
   -5.6710   22.5050  -31.6700 C   0  0  0  0  0  0  0  0  0  0  0  0
   -4.5310   23.2170  -31.2870 C   0  0  0  0  0  0  0  0  0  0  0  0
   -2.2490   23.1830  -28.8620 N   0  0  0  0  0  0  0  0  0  0  0  0
   -1.0450   22.5940  -28.2600 C   0  0  0  0  0  0  0  0  0  0  0  0
   -1.3170   22.1630  -26.7920 C   0  0  0  0  0  0  0  0  0  0  0  0
   -1.6160   20.6600  -26.6240 C   0  0  0  0  0  0  0  0  0  0  0  0
   -2.3500   20.0960  -27.8420 C   0  0  0  0  0  0  0  0  0  0  0  0
   -1.4990   20.2120  -29.1200 C   0  0  0  0  0  0  0  0  0  0  0  0
   -0.5310   21.4140  -29.1090 C   0  0  0  0  0  0  0  0  0  0  0  0
   -5.9728   25.4196  -29.1043 H   0  0  0  0  0  0  0  0  0  0  0  0
   -8.0014   24.1362  -29.7722 H   0  0  0  0  0  0  0  0  0  0  0  0
   -6.2598   19.4090  -32.9075 H   0  0  0  0  0  0  0  0  0  0  0  0
   -6.3639   20.3138  -31.3686 H   0  0  0  0  0  0  0  0  0  0  0  0
   -7.1088   17.6237  -31.7504 H   0  0  0  0  0  0  0  0  0  0  0  0
   -7.5872   18.6188  -30.3673 H   0  0  0  0  0  0  0  0  0  0  0  0
   -9.2537   17.6239  -32.5292 H   0  0  0  0  0  0  0  0  0  0  0  0
   -9.7732   18.6187  -31.1600 H   0  0  0  0  0  0  0  0  0  0  0  0
   -9.1682   19.4081  -33.9597 H   0  0  0  0  0  0  0  0  0  0  0  0
  -10.0732   20.3120  -32.7096 H   0  0  0  0  0  0  0  0  0  0  0  0
   -5.5848   21.6833  -32.3962 H   0  0  0  0  0  0  0  0  0  0  0  0
   -3.5543   22.9636  -31.7250 H   0  0  0  0  0  0  0  0  0  0  0  0
   -3.1060   22.5990  -28.9960 H   0  0  0  0  0  0  0  0  0  0  0  0
   -0.2559   23.3601  -28.2413 H   0  0  0  0  0  0  0  0  0  0  0  0
   -0.4300   22.4085  -26.1896 H   0  0  0  0  0  0  0  0  0  0  0  0
   -2.2161   22.7047  -26.4631 H   0  0  0  0  0  0  0  0  0  0  0  0
   -0.6670   20.1187  -26.4960 H   0  0  0  0  0  0  0  0  0  0  0  0
   -2.2610   20.5324  -25.7421 H   0  0  0  0  0  0  0  0  0  0  0  0
   -2.5797   19.0356  -27.6610 H   0  0  0  0  0  0  0  0  0  0  0  0
   -3.2719   20.6780  -27.9883 H   0  0  0  0  0  0  0  0  0  0  0  0
   -0.9084   19.2905  -29.2297 H   0  0  0  0  0  0  0  0  0  0  0  0
   -2.1943   20.3646  -29.9586 H   0  0  0  0  0  0  0  0  0  0  0  0
    0.4348   21.0825  -28.7000 H   0  0  0  0  0  0  0  0  0  0  0  0
   -0.4375   21.7706  -30.1454 H   0  0  0  0  0  0  0  0  0  0  0  0
  1  2  2  0
  2  3  1  0
  3  4  1  0
  4  5  2  0
  5  6  1  0
  6  7  2  0
  7  8  1  0
  8  9  2  0
  8 10  2  0
  8 11  1  0
 11 12  1  0
 12 13  1  0
 13 14  1  0
 14 15  1  0
  7 16  1  0
 16 17  2  0
  2 18  1  0
 18 19  1  0
 19 20  1  0
 20 21  1  0
 21 22  1  0
 22 23  1  0
 23 24  1  0
 17  4  1  0
 24 19  1  0
 15 11  1  0
  5 25  1  0
  6 26  1  0
 12 27  1  0
 12 28  1  0
 13 29  1  0
 13 30  1  0
 14 31  1  0
 14 32  1  0
 15 33  1  0
 15 34  1  0
 16 35  1  0
 17 36  1  0
 18 37  1  0
 19 38  1  0
 20 39  1  0
 20 40  1  0
 21 41  1  0
 21 42  1  0
 22 43  1  0
 22 44  1  0
 23 45  1  0
 23 46  1  0
 24 47  1  0
 24 48  1  0
M  CHG  1   3  -1
M  END
>  <UniqueID>  (38) 
37

>  <SMILES>  (38) 
O=C([N-]c1ccc(S(=O)(=O)N2CCCC2)cc1)NC1CCCCC1

>  <Energy>  (38) 
51.67668905532481

>  <Genealogy>  (38) 
O=C([N-]c1ccc(S(=O)(=O)N2CCCC2)cc1)NC1CCCCC1 (protonated)
O=C([N-]c1ccc(S(=O)(=O)N2CCCC2)cc1)NC1CCCCC1 (3D coordinates assigned)
O=C([N-]c1ccc(S(=O)(=O)N2CCCC2)cc1)NC1CCCCC1 (nonaromatic ring conformer: 51.67668905532481 kcal/mol)

>  <smiles>  (38) 
O=C(Nc1ccc(S(=O)(=O)N2CCCC2)cc1)NC1CCCCC1

>  <score_type>  (38) 
oracle

>  <origin>  (38) 
adgpu

>  <m_score__min__energy>  (38) 
-11.289999999999999

>  <m_primary>  (38) 
energy

$$$$
38:0
     RDKit          3D

 61 64  0  0  0  0  0  0  0  0999 V2000
   -9.8890   20.4380  -32.3610 C   0  0  0  0  0  0  0  0  0  0  0  0
   -8.5440   21.0560  -32.0850 C   0  0  0  0  0  0  0  0  0  0  0  0
   -8.4810   22.4530  -31.9520 C   0  0  0  0  0  0  0  0  0  0  0  0
   -7.2820   23.0930  -31.6600 C   0  0  0  0  0  0  0  0  0  0  0  0
   -6.1130   22.3490  -31.4680 C   0  0  0  0  0  0  0  0  0  0  0  0
   -4.8610   23.0030  -31.1980 N   0  0  0  0  0  0  0  0  0  0  0  0
   -4.7510   24.3540  -30.7170 C   0  0  0  0  0  0  0  0  0  0  0  0
   -5.7740   25.0820  -30.6120 O   0  0  0  0  0  0  0  0  0  0  0  0
   -3.4740   24.9100  -30.3830 N   0  0  0  0  0  0  0  0  0  0  0  0
   -2.6960   24.5720  -29.2270 C   0  0  0  0  0  0  0  0  0  0  0  0
   -1.5280   25.2930  -28.9580 C   0  0  0  0  0  0  0  0  0  0  0  0
   -0.7580   24.9950  -27.8300 C   0  0  0  0  0  0  0  0  0  0  0  0
   -1.1570   23.9790  -26.9500 C   0  0  0  0  0  0  0  0  0  0  0  0
   -0.1810   23.5990  -25.5250 S   0  0  0  0  0  0  0  0  0  0  0  0
    1.2380   23.3500  -25.9570 O   0  0  0  0  0  0  0  0  0  0  0  0
   -0.7030   22.3370  -24.8970 O   0  0  0  0  0  0  0  0  0  0  0  0
   -0.1970   24.8760  -24.3330 N   0  0  0  0  0  0  0  0  0  0  0  0
    1.0480   25.6400  -24.3300 C   0  0  0  0  0  0  0  0  0  0  0  0
    0.7070   27.0110  -23.7680 C   0  0  0  0  0  0  0  0  0  0  0  0
   -0.7960   27.1580  -23.9560 C   0  0  0  0  0  0  0  0  0  0  0  0
   -1.2540   25.8530  -24.5880 C   0  0  0  0  0  0  0  0  0  0  0  0
   -2.3500   23.2860  -27.1940 C   0  0  0  0  0  0  0  0  0  0  0  0
   -3.1180   23.5820  -28.3220 C   0  0  0  0  0  0  0  0  0  0  0  0
   -6.1510   20.9540  -31.6070 C   0  0  0  0  0  0  0  0  0  0  0  0
   -4.9730   20.2330  -31.4290 O   0  0  0  0  0  0  0  0  0  0  0  0
   -7.3590   20.2850  -31.9220 C   0  0  0  0  0  0  0  0  0  0  0  0
   -7.3310   18.5000  -32.0830 S   0  0  0  0  0  0  0  0  0  0  0  0
   -8.7170   17.9340  -31.9530 O   0  0  0  0  0  0  0  0  0  0  0  0
   -6.5310   17.9320  -30.9440 O   0  0  0  0  0  0  0  0  0  0  0  0
   -6.6030   17.9450  -33.5800 N   0  0  0  0  0  0  0  0  0  0  0  0
   -5.8070   16.7180  -33.3780 C   0  0  0  0  0  0  0  0  0  0  0  0
   -4.8110   16.5220  -34.5320 C   0  0  0  0  0  0  0  0  0  0  0  0
   -3.8710   17.5840  -34.6600 O   0  0  0  0  0  0  0  0  0  0  0  0
   -4.3420   18.8300  -34.1620 C   0  0  0  0  0  0  0  0  0  0  0  0
   -5.8650   19.0040  -34.3010 C   0  0  0  0  0  0  0  0  0  0  0  0
  -10.3893   20.2081  -31.4087 H   0  0  0  0  0  0  0  0  0  0  0  0
  -10.5052   21.1433  -32.9380 H   0  0  0  0  0  0  0  0  0  0  0  0
   -9.7552   19.5111  -32.9380 H   0  0  0  0  0  0  0  0  0  0  0  0
   -9.3956   23.0504  -32.0810 H   0  0  0  0  0  0  0  0  0  0  0  0
   -7.2523   24.1897  -31.5795 H   0  0  0  0  0  0  0  0  0  0  0  0
   -3.9910   22.4340  -31.2910 H   0  0  0  0  0  0  0  0  0  0  0  0
   -1.2137   26.0988  -29.6377 H   0  0  0  0  0  0  0  0  0  0  0  0
    0.1648   25.5600  -27.6319 H   0  0  0  0  0  0  0  0  0  0  0  0
    1.7975   25.1441  -23.6956 H   0  0  0  0  0  0  0  0  0  0  0  0
    1.4717   25.7173  -25.3422 H   0  0  0  0  0  0  0  0  0  0  0  0
    0.9694   27.0665  -22.7012 H   0  0  0  0  0  0  0  0  0  0  0  0
    1.2646   27.8127  -24.2744 H   0  0  0  0  0  0  0  0  0  0  0  0
   -1.2920   27.3107  -22.9861 H   0  0  0  0  0  0  0  0  0  0  0  0
   -1.0466   28.0262  -24.5833 H   0  0  0  0  0  0  0  0  0  0  0  0
   -2.1977   25.5200  -24.1313 H   0  0  0  0  0  0  0  0  0  0  0  0
   -1.4325   25.9741  -25.6666 H   0  0  0  0  0  0  0  0  0  0  0  0
   -2.6830   22.5055  -26.4941 H   0  0  0  0  0  0  0  0  0  0  0  0
   -4.0570   23.0385  -28.5034 H   0  0  0  0  0  0  0  0  0  0  0  0
   -5.2521   16.7990  -32.4316 H   0  0  0  0  0  0  0  0  0  0  0  0
   -6.4882   15.8549  -33.3476 H   0  0  0  0  0  0  0  0  0  0  0  0
   -4.2580   15.5870  -34.3591 H   0  0  0  0  0  0  0  0  0  0  0  0
   -5.3967   16.4955  -35.4628 H   0  0  0  0  0  0  0  0  0  0  0  0
   -4.0780   18.9026  -33.0966 H   0  0  0  0  0  0  0  0  0  0  0  0
   -3.8674   19.6210  -34.7612 H   0  0  0  0  0  0  0  0  0  0  0  0
   -6.1514   19.9826  -33.8883 H   0  0  0  0  0  0  0  0  0  0  0  0
   -6.1225   18.9364  -35.3683 H   0  0  0  0  0  0  0  0  0  0  0  0
  1  2  1  0
  2  3  2  0
  3  4  1  0
  4  5  2  0
  5  6  1  0
  6  7  1  0
  7  8  2  0
  7  9  1  0
  9 10  1  0
 10 11  2  0
 11 12  1  0
 12 13  2  0
 13 14  1  0
 14 15  2  0
 14 16  2  0
 14 17  1  0
 17 18  1  0
 18 19  1  0
 19 20  1  0
 20 21  1  0
 13 22  1  0
 22 23  2  0
  5 24  1  0
 24 25  1  0
 24 26  2  0
 26 27  1  0
 27 28  2  0
 27 29  2  0
 27 30  1  0
 30 31  1  0
 31 32  1  0
 32 33  1  0
 33 34  1  0
 34 35  1  0
 26  2  1  0
 35 30  1  0
 23 10  1  0
 21 17  1  0
  1 36  1  0
  1 37  1  0
  1 38  1  0
  3 39  1  0
  4 40  1  0
  6 41  1  0
 11 42  1  0
 12 43  1  0
 18 44  1  0
 18 45  1  0
 19 46  1  0
 19 47  1  0
 20 48  1  0
 20 49  1  0
 21 50  1  0
 21 51  1  0
 22 52  1  0
 23 53  1  0
 31 54  1  0
 31 55  1  0
 32 56  1  0
 32 57  1  0
 34 58  1  0
 34 59  1  0
 35 60  1  0
 35 61  1  0
M  CHG  2   9  -1  25  -1
M  END
>  <UniqueID>  (39) 
38

>  <SMILES>  (39) 
Cc1ccc(NC(=O)[N-]c2ccc(S(=O)(=O)N3CCCC3)cc2)c([O-])c1S(=O)(=O)N1CCOCC1

>  <Energy>  (39) 
91.73311424238338

>  <Genealogy>  (39) 
Cc1ccc(NC(=O)[N-]c2ccc(S(=O)(=O)N3CCCC3)cc2)c([O-])c1S(=O)(=O)N1CCOCC1 (protonated)
Cc1ccc(NC(=O)[N-]c2ccc(S(=O)(=O)N3CCCC3)cc2)c([O-])c1S(=O)(=O)N1CCOCC1 (3D coordinates assigned)
Cc1ccc(NC(=O)[N-]c2ccc(S(=O)(=O)N3CCCC3)cc2)c([O-])c1S(=O)(=O)N1CCOCC1 (nonaromatic ring conformer: 91.73311424238338 kcal/mol)

>  <smiles>  (39) 
Cc1ccc(NC(=O)Nc2ccc(S(=O)(=O)N3CCCC3)cc2)c(O)c1S(=O)(=O)N1CCOCC1

>  <score_type>  (39) 
oracle

>  <origin>  (39) 
adgpu

>  <m_score__min__energy>  (39) 
-13.529999999999999

>  <m_primary>  (39) 
energy

$$$$
39:0
     RDKit          3D

 55 58  0  0  0  0  0  0  0  0999 V2000
   -4.5780   24.8780  -30.9330 O   0  0  0  0  0  0  0  0  0  0  0  0
   -4.6520   23.6200  -30.8910 C   0  0  0  0  0  0  0  0  0  0  0  0
   -3.5180   22.8810  -30.4190 N   0  0  0  0  0  0  0  0  0  0  0  0
   -2.7420   21.9680  -31.2100 C   0  0  0  0  0  0  0  0  0  0  0  0
   -2.8840   21.9230  -32.6070 C   0  0  0  0  0  0  0  0  0  0  0  0
   -2.1270   21.0260  -33.3650 C   0  0  0  0  0  0  0  0  0  0  0  0
   -1.2200   20.1710  -32.7350 C   0  0  0  0  0  0  0  0  0  0  0  0
   -1.0690   20.2110  -31.3470 C   0  0  0  0  0  0  0  0  0  0  0  0
   -1.8200   21.1100  -30.5800 C   0  0  0  0  0  0  0  0  0  0  0  0
   -1.6940   21.0910  -29.1520 N   0  0  0  0  0  0  0  0  0  0  0  0
   -0.8310   22.0720  -28.4930 C   0  0  0  0  0  0  0  0  0  0  0  0
   -0.4180   21.5490  -27.1140 C   0  0  0  0  0  0  0  0  0  0  0  0
   -1.5520   21.1440  -26.3690 O   0  0  0  0  0  0  0  0  0  0  0  0
   -2.1650   20.0330  -26.9950 C   0  0  0  0  0  0  0  0  0  0  0  0
   -2.7320   20.4250  -28.3630 C   0  0  0  0  0  0  0  0  0  0  0  0
   -5.9160   22.9470  -31.2750 C   0  0  0  0  0  0  0  0  0  0  0  0
   -7.0710   23.7040  -31.5390 C   0  0  0  0  0  0  0  0  0  0  0  0
   -8.2650   23.0690  -31.8920 C   0  0  0  0  0  0  0  0  0  0  0  0
   -8.3220   21.6750  -31.9750 C   0  0  0  0  0  0  0  0  0  0  0  0
   -7.1840   20.9070  -31.6980 C   0  0  0  0  0  0  0  0  0  0  0  0
   -7.2320   19.1470  -31.8050 S   0  0  0  0  0  0  0  0  0  0  0  0
   -6.1350   18.5550  -30.9630 O   0  0  0  0  0  0  0  0  0  0  0  0
   -8.5560   18.6840  -31.2630 O   0  0  0  0  0  0  0  0  0  0  0  0
   -7.0710   18.6170  -33.4700 N   0  0  0  0  0  0  0  0  0  0  0  0
   -6.8490   17.1520  -33.5560 C   0  0  0  0  0  0  0  0  0  0  0  0
   -5.3680   16.7850  -33.7590 C   0  0  0  0  0  0  0  0  0  0  0  0
   -4.5370   17.7170  -33.1050 O   0  0  0  0  0  0  0  0  0  0  0  0
   -4.6010   18.9740  -33.7570 C   0  0  0  0  0  0  0  0  0  0  0  0
   -6.0310   19.3790  -34.1890 C   0  0  0  0  0  0  0  0  0  0  0  0
   -5.9890   21.5450  -31.3460 C   0  0  0  0  0  0  0  0  0  0  0  0
   -3.5949   22.5975  -33.1067 H   0  0  0  0  0  0  0  0  0  0  0  0
   -2.2454   20.9932  -34.4581 H   0  0  0  0  0  0  0  0  0  0  0  0
   -0.6240   19.4654  -33.3325 H   0  0  0  0  0  0  0  0  0  0  0  0
   -0.3567   19.5330  -30.8541 H   0  0  0  0  0  0  0  0  0  0  0  0
    0.0674   22.2390  -29.1053 H   0  0  0  0  0  0  0  0  0  0  0  0
   -1.3780   23.0191  -28.3756 H   0  0  0  0  0  0  0  0  0  0  0  0
    0.2556   20.6888  -27.2416 H   0  0  0  0  0  0  0  0  0  0  0  0
    0.0916   22.3571  -26.5688 H   0  0  0  0  0  0  0  0  0  0  0  0
   -1.4180   19.2367  -27.1288 H   0  0  0  0  0  0  0  0  0  0  0  0
   -2.9902   19.6803  -26.3588 H   0  0  0  0  0  0  0  0  0  0  0  0
   -3.0706   19.5217  -28.8915 H   0  0  0  0  0  0  0  0  0  0  0  0
   -3.5813   21.1101  -28.2239 H   0  0  0  0  0  0  0  0  0  0  0  0
   -7.0348   24.8011  -31.4674 H   0  0  0  0  0  0  0  0  0  0  0  0
   -9.1625   23.6682  -32.1051 H   0  0  0  0  0  0  0  0  0  0  0  0
   -9.2626   21.1800  -32.2585 H   0  0  0  0  0  0  0  0  0  0  0  0
   -7.9870   18.8270  -33.9300 H   0  0  0  0  0  0  0  0  0  0  0  0
   -7.2017   16.6876  -32.6233 H   0  0  0  0  0  0  0  0  0  0  0  0
   -7.4049   16.7832  -34.4306 H   0  0  0  0  0  0  0  0  0  0  0  0
   -5.1831   15.7823  -33.3462 H   0  0  0  0  0  0  0  0  0  0  0  0
   -5.1413   16.7982  -34.8353 H   0  0  0  0  0  0  0  0  0  0  0  0
   -4.2154   19.7416  -33.0699 H   0  0  0  0  0  0  0  0  0  0  0  0
   -3.9995   18.8912  -34.6743 H   0  0  0  0  0  0  0  0  0  0  0  0
   -6.1723   20.4504  -33.9839 H   0  0  0  0  0  0  0  0  0  0  0  0
   -6.1335   19.1581  -35.2617 H   0  0  0  0  0  0  0  0  0  0  0  0
   -5.0965   20.9422  -31.1223 H   0  0  0  0  0  0  0  0  0  0  0  0
  1  2  2  0
  2  3  1  0
  3  4  1  0
  4  5  2  0
  5  6  1  0
  6  7  2  0
  7  8  1  0
  8  9  2  0
  9 10  1  0
 10 11  1  0
 11 12  1  0
 12 13  1  0
 13 14  1  0
 14 15  1  0
  2 16  1  0
 16 17  2  0
 17 18  1  0
 18 19  2  0
 19 20  1  0
 20 21  1  0
 21 22  2  0
 21 23  2  0
 21 24  1  0
 24 25  1  0
 25 26  1  0
 26 27  1  0
 27 28  1  0
 28 29  1  0
 20 30  2  0
  9  4  1  0
 15 10  1  0
 30 16  1  0
 29 24  1  0
  5 31  1  0
  6 32  1  0
  7 33  1  0
  8 34  1  0
 11 35  1  0
 11 36  1  0
 12 37  1  0
 12 38  1  0
 14 39  1  0
 14 40  1  0
 15 41  1  0
 15 42  1  0
 17 43  1  0
 18 44  1  0
 19 45  1  0
 24 46  1  0
 25 47  1  0
 25 48  1  0
 26 49  1  0
 26 50  1  0
 28 51  1  0
 28 52  1  0
 29 53  1  0
 29 54  1  0
 30 55  1  0
M  CHG  2   3  -1  24   1
M  END
>  <UniqueID>  (40) 
39

>  <SMILES>  (40) 
O=C([N-]c1ccccc1N1CCOCC1)c1cccc(S(=O)(=O)[NH+]2CCOCC2)c1

>  <Energy>  (40) 
79.83020512848927

>  <Genealogy>  (40) 
O=C([N-]c1ccccc1N1CCOCC1)c1cccc(S(=O)(=O)[NH+]2CCOCC2)c1 (protonated)
O=C([N-]c1ccccc1N1CCOCC1)c1cccc(S(=O)(=O)[NH+]2CCOCC2)c1 (3D coordinates assigned)
O=C([N-]c1ccccc1N1CCOCC1)c1cccc(S(=O)(=O)[NH+]2CCOCC2)c1 (nonaromatic ring conformer: 79.83020512848927 kcal/mol)

>  <smiles>  (40) 
O=C(Nc1ccccc1N1CCOCC1)c1cccc(S(=O)(=O)N2CCOCC2)c1

>  <score_type>  (40) 
oracle

>  <origin>  (40) 
adgpu

>  <m_score__min__energy>  (40) 
-9.6600000000000001

>  <m_primary>  (40) 
energy

$$$$
40:0
     RDKit          3D

 49 51  0  0  0  0  0  0  0  0999 V2000
   -6.4680   25.6960  -29.4330 C   0  0  0  0  0  0  0  0  0  0  0  0
   -5.1830   24.6330  -30.0540 S   0  0  0  0  0  0  0  0  0  0  0  0
   -4.1680   24.3670  -28.9780 O   0  0  0  0  0  0  0  0  0  0  0  0
   -4.4820   25.3410  -31.1800 O   0  0  0  0  0  0  0  0  0  0  0  0
   -5.8950   23.1280  -30.6680 C   0  0  0  0  0  0  0  0  0  0  0  0
   -7.2950   23.0870  -30.7780 C   0  0  0  0  0  0  0  0  0  0  0  0
   -7.9510   21.9530  -31.2670 C   0  0  0  0  0  0  0  0  0  0  0  0
   -9.3440   21.9300  -31.3340 O   0  0  0  0  0  0  0  0  0  0  0  0
   -7.2030   20.8420  -31.6810 C   0  0  0  0  0  0  0  0  0  0  0  0
   -7.9810   19.3760  -32.2760 S   0  0  0  0  0  0  0  0  0  0  0  0
   -9.1070   19.7360  -33.2060 O   0  0  0  0  0  0  0  0  0  0  0  0
   -8.5580   18.5790  -31.1370 O   0  0  0  0  0  0  0  0  0  0  0  0
   -6.7840   18.4250  -33.1460 C   0  0  0  0  0  0  0  0  0  0  0  0
   -6.4810   17.1240  -32.7160 C   0  0  0  0  0  0  0  0  0  0  0  0
   -5.5500   16.3530  -33.4180 C   0  0  0  0  0  0  0  0  0  0  0  0
   -4.9220   16.8730  -34.5540 C   0  0  0  0  0  0  0  0  0  0  0  0
   -5.2290   18.1660  -34.9920 C   0  0  0  0  0  0  0  0  0  0  0  0
   -6.1600   18.9400  -34.2910 C   0  0  0  0  0  0  0  0  0  0  0  0
   -5.8120   20.8640  -31.5550 C   0  0  0  0  0  0  0  0  0  0  0  0
   -5.1400   21.9790  -31.0270 C   0  0  0  0  0  0  0  0  0  0  0  0
   -3.3770   21.8680  -30.8440 S   0  0  0  0  0  0  0  0  0  0  0  0
   -2.7770   23.2450  -30.9260 O   0  0  0  0  0  0  0  0  0  0  0  0
   -3.0120   21.2500  -29.5250 O   0  0  0  0  0  0  0  0  0  0  0  0
   -2.6850   20.8500  -32.1090 C   0  0  0  0  0  0  0  0  0  0  0  0
   -3.2110   19.5710  -32.3390 C   0  0  0  0  0  0  0  0  0  0  0  0
   -2.7110   18.7830  -33.3800 C   0  0  0  0  0  0  0  0  0  0  0  0
   -1.6870   19.2680  -34.1970 C   0  0  0  0  0  0  0  0  0  0  0  0
   -1.1560   20.5470  -33.9760 C   0  0  0  0  0  0  0  0  0  0  0  0
    0.1080   21.1770  -35.0270 S   0  0  0  0  0  0  0  0  0  0  0  0
    1.6520   20.6720  -34.4390 N   0  0  0  0  0  0  0  0  0  0  0  0
   -0.0890   20.6580  -36.4240 O   0  0  0  0  0  0  0  0  0  0  0  0
    0.0480   22.6780  -35.0580 O   0  0  0  0  0  0  0  0  0  0  0  0
   -1.6610   21.3380  -32.9340 C   0  0  0  0  0  0  0  0  0  0  0  0
   -6.4539   25.6843  -28.3332 H   0  0  0  0  0  0  0  0  0  0  0  0
   -6.2997   26.7224  -29.7910 H   0  0  0  0  0  0  0  0  0  0  0  0
   -7.4447   25.3383  -29.7910 H   0  0  0  0  0  0  0  0  0  0  0  0
   -7.8862   23.9633  -30.4738 H   0  0  0  0  0  0  0  0  0  0  0  0
   -9.8430   21.1500  -31.7430 H   0  0  0  0  0  0  0  0  0  0  0  0
   -6.9767   16.7104  -31.8254 H   0  0  0  0  0  0  0  0  0  0  0  0
   -5.3109   15.3352  -33.0761 H   0  0  0  0  0  0  0  0  0  0  0  0
   -4.1871   16.2660  -35.1030 H   0  0  0  0  0  0  0  0  0  0  0  0
   -4.7381   18.5741  -35.8878 H   0  0  0  0  0  0  0  0  0  0  0  0
   -6.4030   19.9548  -34.6389 H   0  0  0  0  0  0  0  0  0  0  0  0
   -5.2294   19.9881  -31.8766 H   0  0  0  0  0  0  0  0  0  0  0  0
   -4.0189   19.1866  -31.6990 H   0  0  0  0  0  0  0  0  0  0  0  0
   -3.1248   17.7791  -33.5560 H   0  0  0  0  0  0  0  0  0  0  0  0
   -1.2963   18.6454  -35.0154 H   0  0  0  0  0  0  0  0  0  0  0  0
    1.7690   19.6710  -34.7110 H   0  0  0  0  0  0  0  0  0  0  0  0
   -1.2525   22.3449  -32.7630 H   0  0  0  0  0  0  0  0  0  0  0  0
  1  2  1  0
  2  3  2  0
  2  4  2  0
  2  5  1  0
  5  6  2  0
  6  7  1  0
  7  8  1  0
  7  9  2  0
  9 10  1  0
 10 11  2  0
 10 12  2  0
 10 13  1  0
 13 14  2  0
 14 15  1  0
 15 16  2  0
 16 17  1  0
 17 18  2  0
  9 19  1  0
 19 20  2  0
 20 21  1  0
 21 22  2  0
 21 23  2  0
 21 24  1  0
 24 25  2  0
 25 26  1  0
 26 27  2  0
 27 28  1  0
 28 29  1  0
 29 30  1  0
 29 31  2  0
 29 32  2  0
 28 33  2  0
 20  5  1  0
 33 24  1  0
 18 13  1  0
  1 34  1  0
  1 35  1  0
  1 36  1  0
  6 37  1  0
  8 38  1  0
 14 39  1  0
 15 40  1  0
 16 41  1  0
 17 42  1  0
 18 43  1  0
 19 44  1  0
 25 45  1  0
 26 46  1  0
 27 47  1  0
 30 48  1  0
 33 49  1  0
M  CHG  1  30  -1
M  END
>  <UniqueID>  (41) 
40

>  <SMILES>  (41) 
CS(=O)(=O)c1cc(O)c(S(=O)(=O)c2ccccc2)cc1S(=O)(=O)c1cccc(S([NH-])(=O)=O)c1

>  <Energy>  (41) 
57.03980657961514

>  <Genealogy>  (41) 
CS(=O)(=O)c1cc(O)c(S(=O)(=O)c2ccccc2)cc1S(=O)(=O)c1cccc(S([NH-])(=O)=O)c1 (protonated)
CS(=O)(=O)c1cc(O)c(S(=O)(=O)c2ccccc2)cc1S(=O)(=O)c1cccc(S([NH-])(=O)=O)c1 (3D coordinates assigned)
CS(=O)(=O)c1cc(O)c(S(=O)(=O)c2ccccc2)cc1S(=O)(=O)c1cccc(S([NH-])(=O)=O)c1 (optimized conformer: 57.03980657961514 kcal/mol)

>  <smiles>  (41) 
CS(=O)(=O)c1cc(O)c(S(=O)(=O)c2ccccc2)cc1S(=O)(=O)c1cccc(S(N)(=O)=O)c1

>  <score_type>  (41) 
oracle

>  <origin>  (41) 
adgpu

>  <m_score__min__energy>  (41) 
-13.869999999999999

>  <m_primary>  (41) 
energy

$$$$
41:0
     RDKit          3D

 58 61  0  0  0  0  0  0  0  0999 V2000
   -7.9820   23.2780  -32.7080 O   0  0  0  0  0  0  0  0  0  0  0  0
   -6.9590   22.3210  -32.1640 S   0  0  0  0  0  0  0  0  0  0  0  0
   -6.4090   21.5090  -33.3040 O   0  0  0  0  0  0  0  0  0  0  0  0
   -5.6270   23.2120  -31.4290 C   0  0  0  0  0  0  0  0  0  0  0  0
   -5.7920   24.5400  -31.0190 C   0  0  0  0  0  0  0  0  0  0  0  0
   -4.7340   25.2220  -30.4130 C   0  0  0  0  0  0  0  0  0  0  0  0
   -3.5070   24.5830  -30.2080 C   0  0  0  0  0  0  0  0  0  0  0  0
   -2.4800   25.2830  -29.5860 O   0  0  0  0  0  0  0  0  0  0  0  0
   -3.3300   23.2490  -30.6230 C   0  0  0  0  0  0  0  0  0  0  0  0
   -1.8200   22.3730  -30.3530 S   0  0  0  0  0  0  0  0  0  0  0  0
   -0.6460   23.3090  -30.4360 O   0  0  0  0  0  0  0  0  0  0  0  0
   -1.6740   21.3350  -31.4310 O   0  0  0  0  0  0  0  0  0  0  0  0
   -1.8810   21.6070  -28.7770 N   0  0  0  0  0  0  0  0  0  0  0  0
   -0.5540   21.5980  -28.1250 C   0  0  0  0  0  0  0  0  0  0  0  0
   -0.1150   23.0060  -27.7000 C   0  0  0  0  0  0  0  0  0  0  0  0
   -1.2190   23.7350  -27.0660 N   0  0  0  0  0  0  0  0  0  0  0  0
   -0.9580   25.0240  -26.4790 C   0  0  0  0  0  0  0  0  0  0  0  0
   -1.8310   25.5450  -25.5070 C   0  0  0  0  0  0  0  0  0  0  0  0
   -1.5740   26.7880  -24.9210 C   0  0  0  0  0  0  0  0  0  0  0  0
   -0.4490   27.5230  -25.3020 C   0  0  0  0  0  0  0  0  0  0  0  0
    0.4210   27.0170  -26.2710 C   0  0  0  0  0  0  0  0  0  0  0  0
    0.1700   25.7730  -26.8610 C   0  0  0  0  0  0  0  0  0  0  0  0
    1.0100   25.3180  -27.8240 F   0  0  0  0  0  0  0  0  0  0  0  0
   -2.4530   23.0180  -26.7330 C   0  0  0  0  0  0  0  0  0  0  0  0
   -2.9600   22.1950  -27.9320 C   0  0  0  0  0  0  0  0  0  0  0  0
   -4.3970   22.5730  -31.2330 C   0  0  0  0  0  0  0  0  0  0  0  0
   -7.7000   21.2480  -30.9950 N   0  0  0  0  0  0  0  0  0  0  0  0
   -9.1450   21.5050  -30.8400 C   0  0  0  0  0  0  0  0  0  0  0  0
   -9.9750   20.9990  -32.0340 C   0  0  0  0  0  0  0  0  0  0  0  0
   -9.4860   19.6450  -32.5800 C   0  0  0  0  0  0  0  0  0  0  0  0
   -8.5570   18.9350  -31.5980 C   0  0  0  0  0  0  0  0  0  0  0  0
   -7.3510   19.8270  -31.2490 C   0  0  0  0  0  0  0  0  0  0  0  0
   -6.7557   25.0472  -31.1741 H   0  0  0  0  0  0  0  0  0  0  0  0
   -4.8667   26.2668  -30.0955 H   0  0  0  0  0  0  0  0  0  0  0  0
   -2.1310   20.6060  -28.9590 H   0  0  0  0  0  0  0  0  0  0  0  0
   -0.6004   20.9557  -27.2332 H   0  0  0  0  0  0  0  0  0  0  0  0
    0.1796   21.2170  -28.8507 H   0  0  0  0  0  0  0  0  0  0  0  0
    0.7173   22.9224  -26.9857 H   0  0  0  0  0  0  0  0  0  0  0  0
    0.1993   23.5595  -28.5972 H   0  0  0  0  0  0  0  0  0  0  0  0
   -2.7203   24.9716  -25.2064 H   0  0  0  0  0  0  0  0  0  0  0  0
   -2.2588   27.1878  -24.1587 H   0  0  0  0  0  0  0  0  0  0  0  0
   -0.2480   28.5004  -24.8390 H   0  0  0  0  0  0  0  0  0  0  0  0
    1.3056   27.5979  -26.5710 H   0  0  0  0  0  0  0  0  0  0  0  0
   -2.2574   22.3398  -25.8894 H   0  0  0  0  0  0  0  0  0  0  0  0
   -3.2237   23.7563  -26.4666 H   0  0  0  0  0  0  0  0  0  0  0  0
   -3.5815   21.3732  -27.5468 H   0  0  0  0  0  0  0  0  0  0  0  0
   -3.5187   22.8903  -28.5758 H   0  0  0  0  0  0  0  0  0  0  0  0
   -4.2660   21.5311  -31.5604 H   0  0  0  0  0  0  0  0  0  0  0  0
   -9.4958   20.9984  -29.9288 H   0  0  0  0  0  0  0  0  0  0  0  0
   -9.2820   22.5948  -30.7810 H   0  0  0  0  0  0  0  0  0  0  0  0
  -11.0209   20.8892  -31.7116 H   0  0  0  0  0  0  0  0  0  0  0  0
   -9.8683   21.7364  -32.8432 H   0  0  0  0  0  0  0  0  0  0  0  0
  -10.3585   19.0030  -32.7712 H   0  0  0  0  0  0  0  0  0  0  0  0
   -8.9220   19.8350  -33.5051 H   0  0  0  0  0  0  0  0  0  0  0  0
   -9.1132   18.7032  -30.6777 H   0  0  0  0  0  0  0  0  0  0  0  0
   -8.1893   18.0092  -32.0646 H   0  0  0  0  0  0  0  0  0  0  0  0
   -6.8722   19.4222  -30.3452 H   0  0  0  0  0  0  0  0  0  0  0  0
   -6.6850   19.8160  -32.1244 H   0  0  0  0  0  0  0  0  0  0  0  0
  1  2  2  0
  2  3  2  0
  2  4  1  0
  4  5  2  0
  5  6  1  0
  6  7  2  0
  7  8  1  0
  7  9  1  0
  9 10  1  0
 10 11  2  0
 10 12  2  0
 10 13  1  0
 13 14  1  0
 14 15  1  0
 15 16  1  0
 16 17  1  0
 17 18  2  0
 18 19  1  0
 19 20  2  0
 20 21  1  0
 21 22  2  0
 22 23  1  0
 16 24  1  0
 24 25  1  0
  9 26  2  0
  2 27  1  0
 27 28  1  0
 28 29  1  0
 29 30  1  0
 30 31  1  0
 31 32  1  0
 26  4  1  0
 32 27  1  0
 25 13  1  0
 22 17  1  0
  5 33  1  0
  6 34  1  0
 13 35  1  0
 14 36  1  0
 14 37  1  0
 15 38  1  0
 15 39  1  0
 18 40  1  0
 19 41  1  0
 20 42  1  0
 21 43  1  0
 24 44  1  0
 24 45  1  0
 25 46  1  0
 25 47  1  0
 26 48  1  0
 28 49  1  0
 28 50  1  0
 29 51  1  0
 29 52  1  0
 30 53  1  0
 30 54  1  0
 31 55  1  0
 31 56  1  0
 32 57  1  0
 32 58  1  0
M  CHG  2   8  -1  13   1
M  END
>  <UniqueID>  (42) 
41

>  <SMILES>  (42) 
O=S(=O)(c1ccc([O-])c(S(=O)(=O)[NH+]2CCN(c3ccccc3F)CC2)c1)N1CCCCC1

>  <Energy>  (42) 
79.75172801077282

>  <Genealogy>  (42) 
O=S(=O)(c1ccc([O-])c(S(=O)(=O)[NH+]2CCN(c3ccccc3F)CC2)c1)N1CCCCC1 (protonated)
O=S(=O)(c1ccc([O-])c(S(=O)(=O)[NH+]2CCN(c3ccccc3F)CC2)c1)N1CCCCC1 (3D coordinates assigned)
O=S(=O)(c1ccc([O-])c(S(=O)(=O)[NH+]2CCN(c3ccccc3F)CC2)c1)N1CCCCC1 (nonaromatic ring conformer: 79.75172801077282 kcal/mol)

>  <smiles>  (42) 
O=S(=O)(c1ccc(O)c(S(=O)(=O)N2CCN(c3ccccc3F)CC2)c1)N1CCCCC1

>  <score_type>  (42) 
oracle

>  <origin>  (42) 
adgpu

>  <m_score__min__energy>  (42) 
-12.710000000000001

>  <m_primary>  (42) 
energy

$$$$
42:0
     RDKit          3D

 54 57  0  0  0  0  0  0  0  0999 V2000
   -8.7140   19.3700  -32.6720 C   0  0  0  0  0  0  0  0  0  0  0  0
   -7.7680   20.4890  -32.3140 C   0  0  0  0  0  0  0  0  0  0  0  0
   -8.2990   21.7340  -31.9490 C   0  0  0  0  0  0  0  0  0  0  0  0
   -7.4590   22.7910  -31.5960 C   0  0  0  0  0  0  0  0  0  0  0  0
   -6.0680   22.6240  -31.5880 C   0  0  0  0  0  0  0  0  0  0  0  0
   -5.1830   23.7430  -31.2000 C   0  0  0  0  0  0  0  0  0  0  0  0
   -3.9030   23.5990  -30.8120 N   0  0  0  0  0  0  0  0  0  0  0  0
   -3.4830   24.8310  -30.5780 N   0  0  0  0  0  0  0  0  0  0  0  0
   -4.4590   25.6910  -30.8170 N   0  0  0  0  0  0  0  0  0  0  0  0
   -5.5390   25.0400  -31.2100 N   0  0  0  0  0  0  0  0  0  0  0  0
   -5.5270   21.3810  -31.9520 C   0  0  0  0  0  0  0  0  0  0  0  0
   -6.3620   20.3120  -32.3200 C   0  0  0  0  0  0  0  0  0  0  0  0
   -5.6250   18.7750  -32.8050 S   0  0  0  0  0  0  0  0  0  0  0  0
   -5.7730   18.5490  -34.2850 O   0  0  0  0  0  0  0  0  0  0  0  0
   -6.3290   17.6670  -32.0740 O   0  0  0  0  0  0  0  0  0  0  0  0
   -3.9350   18.8090  -32.4090 N   0  0  0  0  0  0  0  0  0  0  0  0
   -2.9170   19.4600  -33.1770 C   0  0  0  0  0  0  0  0  0  0  0  0
   -1.9690   18.7390  -33.9250 C   0  0  0  0  0  0  0  0  0  0  0  0
   -0.9370   19.4100  -34.5840 C   0  0  0  0  0  0  0  0  0  0  0  0
   -0.8480   20.8080  -34.5160 C   0  0  0  0  0  0  0  0  0  0  0  0
    0.5310   21.6540  -35.2140 S   0  0  0  0  0  0  0  0  0  0  0  0
    1.6480   21.7380  -34.2120 O   0  0  0  0  0  0  0  0  0  0  0  0
    1.0100   20.9130  -36.4280 O   0  0  0  0  0  0  0  0  0  0  0  0
    0.0370   23.2600  -35.6610 N   0  0  0  0  0  0  0  0  0  0  0  0
    1.2150   24.1050  -35.8870 C   0  0  0  0  0  0  0  0  0  0  0  0
    0.9660   25.0500  -37.0650 C   0  0  0  0  0  0  0  0  0  0  0  0
    0.1510   26.2440  -36.6350 C   0  0  0  0  0  0  0  0  0  0  0  0
   -0.8220   26.7850  -37.4930 C   0  0  0  0  0  0  0  0  0  0  0  0
   -1.6130   27.8590  -37.0720 C   0  0  0  0  0  0  0  0  0  0  0  0
   -1.4440   28.3950  -35.7930 C   0  0  0  0  0  0  0  0  0  0  0  0
   -0.4850   27.8560  -34.9310 C   0  0  0  0  0  0  0  0  0  0  0  0
    0.3070   26.7820  -35.3450 C   0  0  0  0  0  0  0  0  0  0  0  0
   -1.8280   21.5300  -33.8220 C   0  0  0  0  0  0  0  0  0  0  0  0
   -2.8600   20.8600  -33.1640 C   0  0  0  0  0  0  0  0  0  0  0  0
   -9.1029   18.9100  -31.7516 H   0  0  0  0  0  0  0  0  0  0  0  0
   -9.5504   19.7718  -33.2628 H   0  0  0  0  0  0  0  0  0  0  0  0
   -8.1786   18.6121  -33.2628 H   0  0  0  0  0  0  0  0  0  0  0  0
   -9.3893   21.8793  -31.9408 H   0  0  0  0  0  0  0  0  0  0  0  0
   -7.8928   23.7639  -31.3216 H   0  0  0  0  0  0  0  0  0  0  0  0
   -4.4358   21.2418  -31.9492 H   0  0  0  0  0  0  0  0  0  0  0  0
   -2.0408   17.6433  -33.9910 H   0  0  0  0  0  0  0  0  0  0  0  0
   -0.1915   18.8404  -35.1583 H   0  0  0  0  0  0  0  0  0  0  0  0
   -0.4940   23.1830  -36.5610 H   0  0  0  0  0  0  0  0  0  0  0  0
    1.4172   24.6969  -34.9821 H   0  0  0  0  0  0  0  0  0  0  0  0
    2.0793   23.4642  -36.1159 H   0  0  0  0  0  0  0  0  0  0  0  0
    1.9327   25.3969  -37.4588 H   0  0  0  0  0  0  0  0  0  0  0  0
    0.4081   24.5049  -37.8406 H   0  0  0  0  0  0  0  0  0  0  0  0
   -0.9619   26.3624  -38.4989 H   0  0  0  0  0  0  0  0  0  0  0  0
   -2.3695   28.2823  -37.7492 H   0  0  0  0  0  0  0  0  0  0  0  0
   -2.0656   29.2410  -35.4645 H   0  0  0  0  0  0  0  0  0  0  0  0
   -0.3534   28.2785  -33.9239 H   0  0  0  0  0  0  0  0  0  0  0  0
    1.0548   26.3560  -34.6599 H   0  0  0  0  0  0  0  0  0  0  0  0
   -1.7836   22.6288  -33.7958 H   0  0  0  0  0  0  0  0  0  0  0  0
   -3.6331   21.4340  -32.6321 H   0  0  0  0  0  0  0  0  0  0  0  0
  1  2  1  0
  2  3  2  0
  3  4  1  0
  4  5  2  0
  5  6  1  0
  6  7  1  0
  7  8  2  0
  8  9  1  0
  9 10  1  0
  5 11  1  0
 11 12  2  0
 12 13  1  0
 13 14  2  0
 13 15  2  0
 13 16  1  0
 16 17  1  0
 17 18  2  0
 18 19  1  0
 19 20  2  0
 20 21  1  0
 21 22  2  0
 21 23  2  0
 21 24  1  0
 24 25  1  0
 25 26  1  0
 26 27  1  0
 27 28  2  0
 28 29  1  0
 29 30  2  0
 30 31  1  0
 31 32  2  0
 20 33  1  0
 33 34  2  0
 12  2  1  0
 34 17  1  0
 10  6  2  0
 32 27  1  0
  1 35  1  0
  1 36  1  0
  1 37  1  0
  3 38  1  0
  4 39  1  0
 11 40  1  0
 18 41  1  0
 19 42  1  0
 24 43  1  0
 25 44  1  0
 25 45  1  0
 26 46  1  0
 26 47  1  0
 28 48  1  0
 29 49  1  0
 30 50  1  0
 31 51  1  0
 32 52  1  0
 33 53  1  0
 34 54  1  0
M  CHG  2   9  -1  16  -1
M  END
>  <UniqueID>  (43) 
42

>  <SMILES>  (43) 
Cc1ccc(-c2nn[n-]n2)cc1S(=O)(=O)[N-]c1ccc(S(=O)(=O)NCCc2ccccc2)cc1

>  <Energy>  (43) 
96.14681952262292

>  <Genealogy>  (43) 
Cc1ccc(-c2nn[n-]n2)cc1S(=O)(=O)[N-]c1ccc(S(=O)(=O)NCCc2ccccc2)cc1 (protonated)
Cc1ccc(-c2nn[n-]n2)cc1S(=O)(=O)[N-]c1ccc(S(=O)(=O)NCCc2ccccc2)cc1 (3D coordinates assigned)
Cc1ccc(-c2nn[n-]n2)cc1S(=O)(=O)[N-]c1ccc(S(=O)(=O)NCCc2ccccc2)cc1 (optimized conformer: 96.14681952262292 kcal/mol)

>  <smiles>  (43) 
Cc1ccc(-c2nn[nH]n2)cc1S(=O)(=O)Nc1ccc(S(=O)(=O)NCCc2ccccc2)cc1

>  <score_type>  (43) 
oracle

>  <origin>  (43) 
adgpu

>  <m_score__min__energy>  (43) 
-14.130000000000001

>  <m_primary>  (43) 
energy

$$$$
43:0
     RDKit          3D

 58 61  0  0  0  0  0  0  0  0999 V2000
   -4.4450   25.7940  -30.5170 O   0  0  0  0  0  0  0  0  0  0  0  0
   -4.6710   24.5610  -30.6730 C   0  0  0  0  0  0  0  0  0  0  0  0
   -5.1100   24.1010  -31.9570 N   0  0  0  0  0  0  0  0  0  0  0  0
   -5.3590   22.7290  -32.2980 C   0  0  0  0  0  0  0  0  0  0  0  0
   -4.3200   21.9650  -32.8410 C   0  0  0  0  0  0  0  0  0  0  0  0
   -4.5480   20.6450  -33.2480 C   0  0  0  0  0  0  0  0  0  0  0  0
   -5.8240   20.0780  -33.1230 C   0  0  0  0  0  0  0  0  0  0  0  0
   -6.1330   18.4480  -33.7240 S   0  0  0  0  0  0  0  0  0  0  0  0
   -7.4920   18.0000  -33.2600 O   0  0  0  0  0  0  0  0  0  0  0  0
   -6.1430   18.4810  -35.2290 O   0  0  0  0  0  0  0  0  0  0  0  0
   -4.9450   17.2870  -33.1920 N   0  0  0  0  0  0  0  0  0  0  0  0
   -4.3940   16.5070  -34.2990 C   0  0  0  0  0  0  0  0  0  0  0  0
   -3.8620   15.2220  -33.6800 C   0  0  0  0  0  0  0  0  0  0  0  0
   -4.6100   15.0790  -32.3600 C   0  0  0  0  0  0  0  0  0  0  0  0
   -5.5120   16.3030  -32.2740 C   0  0  0  0  0  0  0  0  0  0  0  0
   -6.8690   20.8430  -32.5830 C   0  0  0  0  0  0  0  0  0  0  0  0
   -6.6380   22.1590  -32.1650 C   0  0  0  0  0  0  0  0  0  0  0  0
   -4.4330   23.6450  -29.5780 N   0  0  0  0  0  0  0  0  0  0  0  0
   -4.3260   24.1580  -28.2060 C   0  0  0  0  0  0  0  0  0  0  0  0
   -3.5580   23.1860  -27.2900 C   0  0  0  0  0  0  0  0  0  0  0  0
   -2.5290   22.4160  -28.0180 N   0  0  0  0  0  0  0  0  0  0  0  0
   -1.1980   23.0570  -28.1520 C   0  0  0  0  0  0  0  0  0  0  0  0
   -1.0540   24.3500  -27.3710 C   0  0  0  0  0  0  0  0  0  0  0  0
   -0.7360   24.3180  -26.0010 C   0  0  0  0  0  0  0  0  0  0  0  0
   -0.5700   25.5040  -25.2820 C   0  0  0  0  0  0  0  0  0  0  0  0
   -0.7400   26.7400  -25.9100 C   0  0  0  0  0  0  0  0  0  0  0  0
   -0.5560   27.9130  -25.1830 O   0  0  0  0  0  0  0  0  0  0  0  0
   -1.0930   26.7860  -27.2650 C   0  0  0  0  0  0  0  0  0  0  0  0
   -1.2550   25.6010  -27.9940 C   0  0  0  0  0  0  0  0  0  0  0  0
   -1.6080   25.6800  -29.3370 O   0  0  0  0  0  0  0  0  0  0  0  0
   -3.0060   21.6610  -29.2000 C   0  0  0  0  0  0  0  0  0  0  0  0
   -4.3220   22.1970  -29.7860 C   0  0  0  0  0  0  0  0  0  0  0  0
   -3.3174   22.4045  -32.9488 H   0  0  0  0  0  0  0  0  0  0  0  0
   -3.7229   20.0506  -33.6674 H   0  0  0  0  0  0  0  0  0  0  0  0
   -5.1791   16.2805  -35.0354 H   0  0  0  0  0  0  0  0  0  0  0  0
   -3.6023   17.0588  -34.8270 H   0  0  0  0  0  0  0  0  0  0  0  0
   -4.0679   14.3632  -34.3358 H   0  0  0  0  0  0  0  0  0  0  0  0
   -2.7721   15.2543  -33.5351 H   0  0  0  0  0  0  0  0  0  0  0  0
   -5.2101   14.1571  -32.3552 H   0  0  0  0  0  0  0  0  0  0  0  0
   -3.9222   15.0157  -31.5039 H   0  0  0  0  0  0  0  0  0  0  0  0
   -6.5373   16.0441  -32.5770 H   0  0  0  0  0  0  0  0  0  0  0  0
   -5.5639   16.6935  -31.2470 H   0  0  0  0  0  0  0  0  0  0  0  0
   -7.8743   20.4067  -32.4877 H   0  0  0  0  0  0  0  0  0  0  0  0
   -7.4590   22.7489  -31.7314 H   0  0  0  0  0  0  0  0  0  0  0  0
   -3.7961   25.1217  -28.2265 H   0  0  0  0  0  0  0  0  0  0  0  0
   -5.3434   24.2747  -27.8043 H   0  0  0  0  0  0  0  0  0  0  0  0
   -3.0676   23.7650  -26.4936 H   0  0  0  0  0  0  0  0  0  0  0  0
   -4.2843   22.4688  -26.8801 H   0  0  0  0  0  0  0  0  0  0  0  0
   -0.4358   22.3496  -27.7934 H   0  0  0  0  0  0  0  0  0  0  0  0
   -1.0731   23.3117  -29.2148 H   0  0  0  0  0  0  0  0  0  0  0  0
   -0.6170   23.3504  -25.4915 H   0  0  0  0  0  0  0  0  0  0  0  0
   -0.3039   25.4644  -24.2154 H   0  0  0  0  0  0  0  0  0  0  0  0
   -0.3980   27.8980  -24.1820 H   0  0  0  0  0  0  0  0  0  0  0  0
   -1.2437   27.7574  -27.7587 H   0  0  0  0  0  0  0  0  0  0  0  0
   -2.2322   21.7122  -29.9801 H   0  0  0  0  0  0  0  0  0  0  0  0
   -3.1987   20.6305  -28.8668 H   0  0  0  0  0  0  0  0  0  0  0  0
   -4.3494   21.9844  -30.8649 H   0  0  0  0  0  0  0  0  0  0  0  0
   -5.1622   21.7021  -29.2769 H   0  0  0  0  0  0  0  0  0  0  0  0
  1  2  2  0
  2  3  1  0
  3  4  1  0
  4  5  2  0
  5  6  1  0
  6  7  2  0
  7  8  1  0
  8  9  2  0
  8 10  2  0
  8 11  1  0
 11 12  1  0
 12 13  1  0
 13 14  1  0
 14 15  1  0
  7 16  1  0
 16 17  2  0
  2 18  1  0
 18 19  1  0
 19 20  1  0
 20 21  1  0
 21 22  1  0
 22 23  1  0
 23 24  2  0
 24 25  1  0
 25 26  2  0
 26 27  1  0
 26 28  1  0
 28 29  2  0
 29 30  1  0
 21 31  1  0
 31 32  1  0
 17  4  1  0
 32 18  1  0
 15 11  1  0
 29 23  1  0
  5 33  1  0
  6 34  1  0
 12 35  1  0
 12 36  1  0
 13 37  1  0
 13 38  1  0
 14 39  1  0
 14 40  1  0
 15 41  1  0
 15 42  1  0
 16 43  1  0
 17 44  1  0
 19 45  1  0
 19 46  1  0
 20 47  1  0
 20 48  1  0
 22 49  1  0
 22 50  1  0
 24 51  1  0
 25 52  1  0
 27 53  1  0
 28 54  1  0
 31 55  1  0
 31 56  1  0
 32 57  1  0
 32 58  1  0
M  CHG  2   3  -1  30  -1
M  END
>  <UniqueID>  (44) 
43

>  <SMILES>  (44) 
O=C([N-]c1ccc(S(=O)(=O)N2CCCC2)cc1)N1CCN(Cc2ccc(O)cc2[O-])CC1

>  <Energy>  (44) 
80.1692257241034

>  <Genealogy>  (44) 
O=C([N-]c1ccc(S(=O)(=O)N2CCCC2)cc1)N1CCN(Cc2ccc(O)cc2[O-])CC1 (protonated)
O=C([N-]c1ccc(S(=O)(=O)N2CCCC2)cc1)N1CCN(Cc2ccc(O)cc2[O-])CC1 (3D coordinates assigned)
O=C([N-]c1ccc(S(=O)(=O)N2CCCC2)cc1)N1CCN(Cc2ccc(O)cc2[O-])CC1 (nonaromatic ring conformer: 80.1692257241034 kcal/mol)

>  <smiles>  (44) 
O=C(Nc1ccc(S(=O)(=O)N2CCCC2)cc1)N1CCN(Cc2ccc(O)cc2O)CC1

>  <score_type>  (44) 
oracle

>  <origin>  (44) 
adgpu

>  <m_score__min__energy>  (44) 
-14.27

>  <m_primary>  (44) 
energy

$$$$
44:0
     RDKit          3D

 41 44  0  0  0  0  0  0  0  0999 V2000
   -3.9855   22.5550  -32.0621 H   0  0  0  0  0  0  0  0  0  0  0  0
   -4.5750   22.0750  -31.2670 C   0  0  0  0  0  0  0  0  0  0  0  0
   -4.2560   22.2760  -30.0260 N   0  0  0  0  0  0  0  0  0  0  0  0
   -3.1780   23.1070  -29.5620 C   0  0  0  0  0  0  0  0  0  0  0  0
   -2.1900   22.5340  -28.7560 C   0  0  0  0  0  0  0  0  0  0  0  0
   -2.2469   21.4665  -28.4968 H   0  0  0  0  0  0  0  0  0  0  0  0
   -1.1600   23.2880  -28.2910 N   0  0  0  0  0  0  0  0  0  0  0  0
   -0.4220   22.8380  -27.7020 H   0  0  0  0  0  0  0  0  0  0  0  0
   -1.0800   24.6130  -28.5840 C   0  0  0  0  0  0  0  0  0  0  0  0
   -0.1170   25.3000  -28.1530 O   0  0  0  0  0  0  0  0  0  0  0  0
   -2.0440   25.2010  -29.3370 N   0  0  0  0  0  0  0  0  0  0  0  0
   -3.0930   24.4890  -29.8230 C   0  0  0  0  0  0  0  0  0  0  0  0
   -3.9890   25.0860  -30.4740 O   0  0  0  0  0  0  0  0  0  0  0  0
   -5.7130   21.2150  -31.6280 C   0  0  0  0  0  0  0  0  0  0  0  0
   -5.6230   19.8610  -31.9240 C   0  0  0  0  0  0  0  0  0  0  0  0
   -4.6886   19.2805  -31.9271 H   0  0  0  0  0  0  0  0  0  0  0  0
   -6.8460   19.3560  -32.2080 N   0  0  0  0  0  0  0  0  0  0  0  0
   -7.1440   17.9520  -32.4930 C   0  0  0  0  0  0  0  0  0  0  0  0
   -7.2722   17.4079  -31.5456 H   0  0  0  0  0  0  0  0  0  0  0  0
   -8.0682   17.8940  -33.0867 H   0  0  0  0  0  0  0  0  0  0  0  0
   -6.0170   17.3310  -33.2750 C   0  0  0  0  0  0  0  0  0  0  0  0
   -5.6400   17.8500  -34.5230 C   0  0  0  0  0  0  0  0  0  0  0  0
   -6.1554   18.7337  -34.9271 H   0  0  0  0  0  0  0  0  0  0  0  0
   -4.6130   17.2490  -35.2540 C   0  0  0  0  0  0  0  0  0  0  0  0
   -4.3224   17.6628  -36.2309 H   0  0  0  0  0  0  0  0  0  0  0  0
   -3.9520   16.1240  -34.7510 C   0  0  0  0  0  0  0  0  0  0  0  0
   -2.6650   15.3950  -35.7020 Cl  0  0  0  0  0  0  0  0  0  0  0  0
   -4.3240   15.5970  -33.5030 C   0  0  0  0  0  0  0  0  0  0  0  0
   -3.5210   14.1820  -32.8340 Cl  0  0  0  0  0  0  0  0  0  0  0  0
   -5.3540   16.2010  -32.7710 C   0  0  0  0  0  0  0  0  0  0  0  0
   -5.6454   15.7870  -31.7944 H   0  0  0  0  0  0  0  0  0  0  0  0
   -7.7180   20.3790  -32.0820 C   0  0  0  0  0  0  0  0  0  0  0  0
   -9.1040   20.3510  -32.2560 C   0  0  0  0  0  0  0  0  0  0  0  0
   -9.6207   19.4207  -32.5344 H   0  0  0  0  0  0  0  0  0  0  0  0
   -9.8190   21.5460  -32.0650 C   0  0  0  0  0  0  0  0  0  0  0  0
  -10.9111   21.5561  -32.1965 H   0  0  0  0  0  0  0  0  0  0  0  0
   -9.1460   22.7320  -31.7060 C   0  0  0  0  0  0  0  0  0  0  0  0
   -9.7169   23.6608  -31.5594 H   0  0  0  0  0  0  0  0  0  0  0  0
   -7.7500   22.7360  -31.5340 C   0  0  0  0  0  0  0  0  0  0  0  0
   -7.2168   23.6561  -31.2528 H   0  0  0  0  0  0  0  0  0  0  0  0
   -7.0600   21.5360  -31.7310 C   0  0  0  0  0  0  0  0  0  0  0  0
  1  2  1  0
  2  3  2  0
  3  4  1  0
  4  5  2  0
  5  6  1  0
  5  7  1  0
  7  8  1  0
  7  9  1  0
  9 10  2  0
  9 11  1  0
 11 12  1  0
 12 13  2  0
  2 14  1  0
 14 15  2  0
 15 16  1  0
 15 17  1  0
 17 18  1  0
 18 19  1  0
 18 20  1  0
 18 21  1  0
 21 22  2  0
 22 23  1  0
 22 24  1  0
 24 25  1  0
 24 26  2  0
 26 27  1  0
 26 28  1  0
 28 29  1  0
 28 30  2  0
 30 31  1  0
 17 32  1  0
 32 33  2  0
 33 34  1  0
 33 35  1  0
 35 36  1  0
 35 37  2  0
 37 38  1  0
 37 39  1  0
 39 40  1  0
 39 41  2  0
 12  4  1  0
 41 14  1  0
 30 21  1  0
 41 32  1  0
M  CHG  1  11  -1
M  END
>  <UniqueID>  (45) 
44

>  <SMILES>  (45) 
O=c1[n-]c(=O)c(/N=C/c2cn(Cc3ccc(Cl)c(Cl)c3)c3ccccc23)c[nH]1

>  <Energy>  (45) 
84.8208006388321

>  <Genealogy>  (45) 
O=c1[n-]c(=O)c(N=Cc2cn(Cc3ccc(Cl)c(Cl)c3)c3ccccc23)c[nH]1 (protonated)
O=c1[n-]c(=O)c(/N=C/c2cn(Cc3ccc(Cl)c(Cl)c3)c3ccccc23)c[nH]1 (cis-trans isomerization)
O=c1[n-]c(=O)c(/N=C/c2cn(Cc3ccc(Cl)c(Cl)c3)c3ccccc23)c[nH]1 (3D coordinates assigned)
O=c1[n-]c(=O)c(/N=C/c2cn(Cc3ccc(Cl)c(Cl)c3)c3ccccc23)c[nH]1 (optimized conformer: 84.8208006388321 kcal/mol)

>  <smiles>  (45) 
O=c1[nH]cc(N=Cc2cn(Cc3ccc(Cl)c(Cl)c3)c3ccccc23)c(=O)[nH]1

>  <score_type>  (45) 
oracle

>  <origin>  (45) 
adgpu

>  <m_score__min__energy>  (45) 
-10.869999999999999

>  <m_primary>  (45) 
energy

$$$$
45:0
     RDKit          3D

 28 29  0  0  0  0  0  0  0  0999 V2000
   -6.2226   24.1096  -29.5588 H   0  0  0  0  0  0  0  0  0  0  0  0
   -5.3570   23.4790  -29.8100 C   0  0  0  0  0  0  0  0  0  0  0  0
   -5.5240   22.4440  -30.5760 N   0  0  0  0  0  0  0  0  0  0  0  0
   -6.7610   21.9890  -31.1540 C   0  0  0  0  0  0  0  0  0  0  0  0
   -7.9780   22.6820  -30.9700 C   0  0  0  0  0  0  0  0  0  0  0  0
   -7.9955   23.6099  -30.3795 H   0  0  0  0  0  0  0  0  0  0  0  0
   -9.1590   22.1950  -31.5340 C   0  0  0  0  0  0  0  0  0  0  0  0
  -10.1014   22.7441  -31.3914 H   0  0  0  0  0  0  0  0  0  0  0  0
   -9.1480   21.0140  -32.2780 C   0  0  0  0  0  0  0  0  0  0  0  0
  -10.0795   20.6369  -32.7254 H   0  0  0  0  0  0  0  0  0  0  0  0
   -7.9550   20.3120  -32.4540 C   0  0  0  0  0  0  0  0  0  0  0  0
   -7.9491   19.3800  -33.0382 H   0  0  0  0  0  0  0  0  0  0  0  0
   -6.7650   20.7890  -31.8900 C   0  0  0  0  0  0  0  0  0  0  0  0
   -5.2460   19.8590  -32.1430 S   0  0  0  0  0  0  0  0  0  0  0  0
   -5.7300   19.2800  -33.7970 C   0  0  0  0  0  0  0  0  0  0  0  0
   -6.4328   18.4393  -33.7001 H   0  0  0  0  0  0  0  0  0  0  0  0
   -6.2141   20.1012  -34.3458 H   0  0  0  0  0  0  0  0  0  0  0  0
   -4.8360   18.9491  -34.3458 H   0  0  0  0  0  0  0  0  0  0  0  0
   -4.0180   23.8280  -29.2660 C   0  0  0  0  0  0  0  0  0  0  0  0
   -3.3090   24.9200  -29.8010 C   0  0  0  0  0  0  0  0  0  0  0  0
   -3.8500   25.6760  -30.8370 O   0  0  0  0  0  0  0  0  0  0  0  0
   -2.0840   25.2480  -29.3110 N   0  0  0  0  0  0  0  0  0  0  0  0
   -1.5740   26.0620  -29.7240 H   0  0  0  0  0  0  0  0  0  0  0  0
   -1.5200   24.5340  -28.3010 C   0  0  0  0  0  0  0  0  0  0  0  0
   -0.0460   24.9390  -27.7210 S   0  0  0  0  0  0  0  0  0  0  0  0
   -2.1820   23.4790  -27.7650 N   0  0  0  0  0  0  0  0  0  0  0  0
   -3.4070   23.1080  -28.2160 C   0  0  0  0  0  0  0  0  0  0  0  0
   -3.9780   22.1220  -27.6810 O   0  0  0  0  0  0  0  0  0  0  0  0
  1  2  1  0
  2  3  2  0
  3  4  1  0
  4  5  2  0
  5  6  1  0
  5  7  1  0
  7  8  1  0
  7  9  2  0
  9 10  1  0
  9 11  1  0
 11 12  1  0
 11 13  2  0
 13 14  1  0
 14 15  1  0
 15 16  1  0
 15 17  1  0
 15 18  1  0
  2 19  1  0
 19 20  2  0
 20 21  1  0
 20 22  1  0
 22 23  1  0
 22 24  1  0
 24 25  2  0
 24 26  1  0
 26 27  1  0
 27 28  2  0
 13  4  1  0
 27 19  1  0
M  CHG  2  21  -1  26  -1
M  END
>  <UniqueID>  (46) 
45

>  <SMILES>  (46) 
CSc1ccccc1/N=C/c1c([O-])[nH]c(=S)[n-]c1=O

>  <Energy>  (46) 
30.946904230508864

>  <Genealogy>  (46) 
CSc1ccccc1N=Cc1c([O-])[nH]c(=S)[n-]c1=O (protonated)
CSc1ccccc1/N=C/c1c([O-])[nH]c(=S)[n-]c1=O (cis-trans isomerization)
CSc1ccccc1/N=C/c1c([O-])[nH]c(=S)[n-]c1=O (3D coordinates assigned)
CSc1ccccc1/N=C/c1c([O-])[nH]c(=S)[n-]c1=O (optimized conformer: 30.946904230508864 kcal/mol)

>  <smiles>  (46) 
CSc1ccccc1N=Cc1c(O)[nH]c(=S)[nH]c1=O

>  <score_type>  (46) 
oracle

>  <origin>  (46) 
adgpu

>  <m_score__min__energy>  (46) 
-11.789999999999999

>  <m_primary>  (46) 
energy

$$$$
46:0
     RDKit          3D

 42 45  0  0  0  0  0  0  0  0999 V2000
   -6.1090   25.8250  -30.0560 O   0  0  0  0  0  0  0  0  0  0  0  0
   -5.2710   25.2450  -30.7960 C   0  0  0  0  0  0  0  0  0  0  0  0
   -5.7350   24.5480  -31.9580 N   0  0  0  0  0  0  0  0  0  0  0  0
   -6.5240   23.3500  -31.9680 C   0  0  0  0  0  0  0  0  0  0  0  0
   -7.8830   23.4350  -31.6300 C   0  0  0  0  0  0  0  0  0  0  0  0
   -8.6810   22.2870  -31.6040 C   0  0  0  0  0  0  0  0  0  0  0  0
   -8.1190   21.0420  -31.8940 C   0  0  0  0  0  0  0  0  0  0  0  0
   -6.7630   20.9470  -32.2340 C   0  0  0  0  0  0  0  0  0  0  0  0
   -5.9600   22.0910  -32.2490 C   0  0  0  0  0  0  0  0  0  0  0  0
   -6.2290   19.6930  -32.5490 O   0  0  0  0  0  0  0  0  0  0  0  0
   -7.0780   18.5720  -32.8080 C   0  0  0  0  0  0  0  0  0  0  0  0
   -8.2780   18.5850  -31.8530 C   0  0  0  0  0  0  0  0  0  0  0  0
   -8.8910   19.8770  -31.8420 O   0  0  0  0  0  0  0  0  0  0  0  0
   -3.8730   25.2900  -30.4810 N   0  0  0  0  0  0  0  0  0  0  0  0
   -3.1950   24.4030  -29.5820 C   0  0  0  0  0  0  0  0  0  0  0  0
   -3.6210   23.0760  -29.5130 C   0  0  0  0  0  0  0  0  0  0  0  0
   -3.0030   22.1810  -28.6430 C   0  0  0  0  0  0  0  0  0  0  0  0
   -1.9300   22.5910  -27.8470 C   0  0  0  0  0  0  0  0  0  0  0  0
   -1.2440   21.4130  -26.7330 Cl  0  0  0  0  0  0  0  0  0  0  0  0
   -1.4420   23.9140  -27.9450 C   0  0  0  0  0  0  0  0  0  0  0  0
   -0.0630   24.4410  -26.9540 S   0  0  0  0  0  0  0  0  0  0  0  0
    0.2940   23.3630  -25.9700 O   0  0  0  0  0  0  0  0  0  0  0  0
    1.1460   24.7010  -27.8100 O   0  0  0  0  0  0  0  0  0  0  0  0
   -0.5430   25.9200  -26.0650 C   0  0  0  0  0  0  0  0  0  0  0  0
   -0.8960   25.6860  -24.6050 C   0  0  0  0  0  0  0  0  0  0  0  0
   -1.9940   25.9740  -25.6180 C   0  0  0  0  0  0  0  0  0  0  0  0
   -2.0850   24.8210  -28.8200 C   0  0  0  0  0  0  0  0  0  0  0  0
   -1.6120   26.1210  -28.9540 O   0  0  0  0  0  0  0  0  0  0  0  0
   -8.3241   24.4121  -31.3836 H   0  0  0  0  0  0  0  0  0  0  0  0
   -9.7498   22.3645  -31.3555 H   0  0  0  0  0  0  0  0  0  0  0  0
   -4.8878   22.0076  -32.4803 H   0  0  0  0  0  0  0  0  0  0  0  0
   -7.4390   18.6217  -33.8459 H   0  0  0  0  0  0  0  0  0  0  0  0
   -6.5061   17.6452  -32.6534 H   0  0  0  0  0  0  0  0  0  0  0  0
   -9.0136   17.8374  -32.1847 H   0  0  0  0  0  0  0  0  0  0  0  0
   -7.9291   18.3464  -30.8375 H   0  0  0  0  0  0  0  0  0  0  0  0
   -4.4503   22.7346  -30.1499 H   0  0  0  0  0  0  0  0  0  0  0  0
   -3.3624   21.1431  -28.5819 H   0  0  0  0  0  0  0  0  0  0  0  0
    0.1221   26.6031  -26.6136 H   0  0  0  0  0  0  0  0  0  0  0  0
   -0.7989   24.6804  -24.1698 H   0  0  0  0  0  0  0  0  0  0  0  0
   -0.5840   26.1299  -23.6481 H   0  0  0  0  0  0  0  0  0  0  0  0
   -2.6911   25.1767  -25.9152 H   0  0  0  0  0  0  0  0  0  0  0  0
   -2.8053   26.7127  -25.6969 H   0  0  0  0  0  0  0  0  0  0  0  0
  1  2  2  0
  2  3  1  0
  3  4  1  0
  4  5  2  0
  5  6  1  0
  6  7  2  0
  7  8  1  0
  8  9  2  0
  8 10  1  0
 10 11  1  0
 11 12  1  0
 12 13  1  0
  2 14  1  0
 14 15  1  0
 15 16  2  0
 16 17  1  0
 17 18  2  0
 18 19  1  0
 18 20  1  0
 20 21  1  0
 21 22  2  0
 21 23  2  0
 21 24  1  0
 24 25  1  0
 25 26  1  0
 20 27  2  0
 27 28  1  0
  9  4  1  0
 27 15  1  0
 13  7  1  0
 26 24  1  0
  5 29  1  0
  6 30  1  0
  9 31  1  0
 11 32  1  0
 11 33  1  0
 12 34  1  0
 12 35  1  0
 16 36  1  0
 17 37  1  0
 24 38  1  0
 25 39  1  0
 25 40  1  0
 26 41  1  0
 26 42  1  0
M  CHG  3   3  -1  14  -1  28  -1
M  END
>  <UniqueID>  (47) 
46

>  <SMILES>  (47) 
O=C([N-]c1ccc2c(c1)OCCO2)[N-]c1ccc(Cl)c(S(=O)(=O)C2CC2)c1[O-]

>  <Energy>  (47) 
321.13814722048835

>  <Genealogy>  (47) 
O=C([N-]c1ccc2c(c1)OCCO2)[N-]c1ccc(Cl)c(S(=O)(=O)C2CC2)c1[O-] (protonated)
O=C([N-]c1ccc2c(c1)OCCO2)[N-]c1ccc(Cl)c(S(=O)(=O)C2CC2)c1[O-] (3D coordinates assigned)
O=C([N-]c1ccc2c(c1)OCCO2)[N-]c1ccc(Cl)c(S(=O)(=O)C2CC2)c1[O-] (nonaromatic ring conformer: 321.13814722048835 kcal/mol)

>  <smiles>  (47) 
O=C(Nc1ccc2c(c1)OCCO2)Nc1ccc(Cl)c(S(=O)(=O)C2CC2)c1O

>  <score_type>  (47) 
oracle

>  <origin>  (47) 
adgpu

>  <m_score__min__energy>  (47) 
-15.050000000000001

>  <m_primary>  (47) 
energy

$$$$
47:0
     RDKit          3D

 52 54  0  0  0  0  0  0  0  0999 V2000
   -0.1050   24.3560  -28.2110 C   0  0  0  0  0  0  0  0  0  0  0  0
   -1.4780   23.7600  -28.1080 C   0  0  0  0  0  0  0  0  0  0  0  0
   -1.6340   22.3780  -27.9310 C   0  0  0  0  0  0  0  0  0  0  0  0
   -2.9150   21.8100  -27.8620 C   0  0  0  0  0  0  0  0  0  0  0  0
   -3.0760   20.3260  -27.7110 C   0  0  0  0  0  0  0  0  0  0  0  0
   -4.0440   22.6280  -28.0120 C   0  0  0  0  0  0  0  0  0  0  0  0
   -3.8990   24.0150  -28.2050 C   0  0  0  0  0  0  0  0  0  0  0  0
   -4.9980   24.8740  -28.3520 O   0  0  0  0  0  0  0  0  0  0  0  0
   -5.8190   24.9430  -29.5160 C   0  0  0  0  0  0  0  0  0  0  0  0
   -4.9560   24.8980  -30.7330 C   0  0  0  0  0  0  0  0  0  0  0  0
   -3.9520   25.6550  -30.8160 O   0  0  0  0  0  0  0  0  0  0  0  0
   -5.3030   24.0320  -31.8200 N   0  0  0  0  0  0  0  0  0  0  0  0
   -5.0860   22.6160  -31.8190 C   0  0  0  0  0  0  0  0  0  0  0  0
   -6.1730   21.7760  -32.0940 C   0  0  0  0  0  0  0  0  0  0  0  0
   -6.0050   20.3870  -32.1510 C   0  0  0  0  0  0  0  0  0  0  0  0
   -7.3750   19.3360  -32.4960 S   0  0  0  0  0  0  0  0  0  0  0  0
   -8.4840   20.1530  -33.0980 O   0  0  0  0  0  0  0  0  0  0  0  0
   -7.8770   18.7180  -31.2190 O   0  0  0  0  0  0  0  0  0  0  0  0
   -6.8810   18.1000  -33.6240 N   0  0  0  0  0  0  0  0  0  0  0  0
   -5.8750   18.6040  -34.5570 C   0  0  0  0  0  0  0  0  0  0  0  0
   -5.0690   17.3990  -35.0100 C   0  0  0  0  0  0  0  0  0  0  0  0
   -5.2660   16.3550  -33.9220 C   0  0  0  0  0  0  0  0  0  0  0  0
   -6.2480   16.9740  -32.9370 C   0  0  0  0  0  0  0  0  0  0  0  0
   -4.7450   19.8330  -31.9050 C   0  0  0  0  0  0  0  0  0  0  0  0
   -3.6620   20.6580  -31.5950 C   0  0  0  0  0  0  0  0  0  0  0  0
   -3.8220   22.0500  -31.5320 C   0  0  0  0  0  0  0  0  0  0  0  0
   -2.7150   22.8610  -31.1140 N   0  0  0  0  0  0  0  0  0  0  0  0
   -2.6140   24.5690  -28.2570 C   0  0  0  0  0  0  0  0  0  0  0  0
    0.2959   24.5300  -27.2015 H   0  0  0  0  0  0  0  0  0  0  0  0
    0.5555   23.6636  -28.7535 H   0  0  0  0  0  0  0  0  0  0  0  0
   -0.1597   25.3114  -28.7535 H   0  0  0  0  0  0  0  0  0  0  0  0
   -0.7459   21.7346  -27.8456 H   0  0  0  0  0  0  0  0  0  0  0  0
   -3.1041   20.0671  -26.6423 H   0  0  0  0  0  0  0  0  0  0  0  0
   -4.0139   20.0083  -28.1900 H   0  0  0  0  0  0  0  0  0  0  0  0
   -2.2281   19.8146  -28.1900 H   0  0  0  0  0  0  0  0  0  0  0  0
   -5.0495   22.1831  -27.9787 H   0  0  0  0  0  0  0  0  0  0  0  0
   -6.5136   24.0901  -29.5266 H   0  0  0  0  0  0  0  0  0  0  0  0
   -6.3931   25.8813  -29.5064 H   0  0  0  0  0  0  0  0  0  0  0  0
   -7.1681   22.2118  -32.2668 H   0  0  0  0  0  0  0  0  0  0  0  0
   -6.3618   19.0823  -35.4197 H   0  0  0  0  0  0  0  0  0  0  0  0
   -5.2314   19.3583  -34.0806 H   0  0  0  0  0  0  0  0  0  0  0  0
   -5.4427   17.0257  -35.9749 H   0  0  0  0  0  0  0  0  0  0  0  0
   -4.0069   17.6460  -35.1550 H   0  0  0  0  0  0  0  0  0  0  0  0
   -5.6807   15.4295  -34.3479 H   0  0  0  0  0  0  0  0  0  0  0  0
   -4.3158   16.0870  -33.4369 H   0  0  0  0  0  0  0  0  0  0  0  0
   -7.0072   16.2341  -32.6433 H   0  0  0  0  0  0  0  0  0  0  0  0
   -5.7341   17.3070  -32.0232 H   0  0  0  0  0  0  0  0  0  0  0  0
   -4.6064   18.7430  -31.9559 H   0  0  0  0  0  0  0  0  0  0  0  0
   -2.6755   20.2127  -31.3986 H   0  0  0  0  0  0  0  0  0  0  0  0
   -1.8800   22.4240  -30.6640 H   0  0  0  0  0  0  0  0  0  0  0  0
   -2.7520   23.9030  -31.1510 H   0  0  0  0  0  0  0  0  0  0  0  0
   -2.4942   25.6508  -28.4165 H   0  0  0  0  0  0  0  0  0  0  0  0
  1  2  1  0
  2  3  2  0
  3  4  1  0
  4  5  1  0
  4  6  2  0
  6  7  1  0
  7  8  1  0
  8  9  1  0
  9 10  1  0
 10 11  2  0
 10 12  1  0
 12 13  1  0
 13 14  2  0
 14 15  1  0
 15 16  1  0
 16 17  2  0
 16 18  2  0
 16 19  1  0
 19 20  1  0
 20 21  1  0
 21 22  1  0
 22 23  1  0
 15 24  2  0
 24 25  1  0
 25 26  2  0
 26 27  1  0
  7 28  2  0
 28  2  1  0
 26 13  1  0
 23 19  1  0
  1 29  1  0
  1 30  1  0
  1 31  1  0
  3 32  1  0
  5 33  1  0
  5 34  1  0
  5 35  1  0
  6 36  1  0
  9 37  1  0
  9 38  1  0
 14 39  1  0
 20 40  1  0
 20 41  1  0
 21 42  1  0
 21 43  1  0
 22 44  1  0
 22 45  1  0
 23 46  1  0
 23 47  1  0
 24 48  1  0
 25 49  1  0
 27 50  1  0
 27 51  1  0
 28 52  1  0
M  CHG  1  12  -1
M  END
>  <UniqueID>  (48) 
47

>  <SMILES>  (48) 
Cc1cc(C)cc(OCC(=O)[N-]c2cc(S(=O)(=O)N3CCCC3)ccc2N)c1

>  <Energy>  (48) 
56.542292896820136

>  <Genealogy>  (48) 
Cc1cc(C)cc(OCC(=O)[N-]c2cc(S(=O)(=O)N3CCCC3)ccc2N)c1 (protonated)
Cc1cc(C)cc(OCC(=O)[N-]c2cc(S(=O)(=O)N3CCCC3)ccc2N)c1 (3D coordinates assigned)
Cc1cc(C)cc(OCC(=O)[N-]c2cc(S(=O)(=O)N3CCCC3)ccc2N)c1 (nonaromatic ring conformer: 56.542292896820136 kcal/mol)

>  <smiles>  (48) 
Cc1cc(C)cc(OCC(=O)Nc2cc(S(=O)(=O)N3CCCC3)ccc2N)c1

>  <score_type>  (48) 
oracle

>  <origin>  (48) 
adgpu

>  <m_score__min__energy>  (48) 
-11.4

>  <m_primary>  (48) 
energy

$$$$
48:0
     RDKit          3D

 44 46  0  0  0  0  0  0  0  0999 V2000
   -4.3450   25.6460  -30.6890 O   0  0  0  0  0  0  0  0  0  0  0  0
   -3.4760   24.8330  -30.2720 C   0  0  0  0  0  0  0  0  0  0  0  0
   -2.4980   25.2780  -29.3240 N   0  0  0  0  0  0  0  0  0  0  0  0
   -2.4330   24.8050  -27.9460 C   0  0  0  0  0  0  0  0  0  0  0  0
   -1.0250   24.8600  -27.4500 C   0  0  0  0  0  0  0  0  0  0  0  0
   -0.6330   24.9310  -26.1270 C   0  0  0  0  0  0  0  0  0  0  0  0
    0.7440   24.9830  -26.1520 C   0  0  0  0  0  0  0  0  0  0  0  0
    1.1050   24.9440  -27.4830 C   0  0  0  0  0  0  0  0  0  0  0  0
    0.0290   24.8730  -28.2330 O   0  0  0  0  0  0  0  0  0  0  0  0
   -3.4830   23.4280  -30.7620 C   0  0  0  0  0  0  0  0  0  0  0  0
   -4.6530   22.9100  -31.3530 C   0  0  0  0  0  0  0  0  0  0  0  0
   -4.7000   21.5960  -31.8310 C   0  0  0  0  0  0  0  0  0  0  0  0
   -6.1860   20.9900  -32.5590 S   0  0  0  0  0  0  0  0  0  0  0  0
   -5.8610   20.0890  -33.7180 O   0  0  0  0  0  0  0  0  0  0  0  0
   -6.9830   22.1620  -33.0590 O   0  0  0  0  0  0  0  0  0  0  0  0
   -7.0920   20.1100  -31.3470 N   0  0  0  0  0  0  0  0  0  0  0  0
   -8.3410   20.8100  -30.9810 C   0  0  0  0  0  0  0  0  0  0  0  0
   -9.4340   20.6890  -32.0600 C   0  0  0  0  0  0  0  0  0  0  0  0
   -9.4940   19.2960  -32.7100 C   0  0  0  0  0  0  0  0  0  0  0  0
   -8.7310   18.2530  -31.8960 C   0  0  0  0  0  0  0  0  0  0  0  0
   -7.2660   18.6810  -31.7110 C   0  0  0  0  0  0  0  0  0  0  0  0
   -3.5720   20.7780  -31.7210 C   0  0  0  0  0  0  0  0  0  0  0  0
   -2.4040   21.2720  -31.1400 C   0  0  0  0  0  0  0  0  0  0  0  0
   -2.3470   22.5880  -30.6610 C   0  0  0  0  0  0  0  0  0  0  0  0
   -1.1600   23.0510  -30.0920 O   0  0  0  0  0  0  0  0  0  0  0  0
   -3.0671   25.4425  -27.3123 H   0  0  0  0  0  0  0  0  0  0  0  0
   -2.7885   23.7648  -27.9054 H   0  0  0  0  0  0  0  0  0  0  0  0
   -1.2834   24.9434  -25.2400 H   0  0  0  0  0  0  0  0  0  0  0  0
    1.4190   25.0434  -25.2856 H   0  0  0  0  0  0  0  0  0  0  0  0
    2.1383   24.9687  -27.8594 H   0  0  0  0  0  0  0  0  0  0  0  0
   -5.5439   23.5494  -31.4399 H   0  0  0  0  0  0  0  0  0  0  0  0
   -8.7234   20.3789  -30.0440 H   0  0  0  0  0  0  0  0  0  0  0  0
   -8.1013   21.8780  -30.8721 H   0  0  0  0  0  0  0  0  0  0  0  0
  -10.4085   20.9000  -31.5954 H   0  0  0  0  0  0  0  0  0  0  0  0
   -9.1896   21.4096  -32.8544 H   0  0  0  0  0  0  0  0  0  0  0  0
  -10.5463   18.9854  -32.7884 H   0  0  0  0  0  0  0  0  0  0  0  0
   -9.0247   19.3631  -33.7026 H   0  0  0  0  0  0  0  0  0  0  0  0
   -9.2046   18.1468  -30.9089 H   0  0  0  0  0  0  0  0  0  0  0  0
   -8.7563   17.2937  -32.4337 H   0  0  0  0  0  0  0  0  0  0  0  0
   -6.8246   18.0654  -30.9134 H   0  0  0  0  0  0  0  0  0  0  0  0
   -6.7695   18.5389  -32.6823 H   0  0  0  0  0  0  0  0  0  0  0  0
   -3.6054   19.7434  -32.0931 H   0  0  0  0  0  0  0  0  0  0  0  0
   -1.5198   20.6229  -31.0570 H   0  0  0  0  0  0  0  0  0  0  0  0
   -1.0150   24.0330  -29.8880 H   0  0  0  0  0  0  0  0  0  0  0  0
  1  2  2  0
  2  3  1  0
  3  4  1  0
  4  5  1  0
  5  6  2  0
  6  7  1  0
  7  8  2  0
  8  9  1  0
  2 10  1  0
 10 11  2  0
 11 12  1  0
 12 13  1  0
 13 14  2  0
 13 15  2  0
 13 16  1  0
 16 17  1  0
 17 18  1  0
 18 19  1  0
 19 20  1  0
 20 21  1  0
 12 22  2  0
 22 23  1  0
 23 24  2  0
 24 25  1  0
  9  5  1  0
 24 10  1  0
 21 16  1  0
  4 26  1  0
  4 27  1  0
  6 28  1  0
  7 29  1  0
  8 30  1  0
 11 31  1  0
 17 32  1  0
 17 33  1  0
 18 34  1  0
 18 35  1  0
 19 36  1  0
 19 37  1  0
 20 38  1  0
 20 39  1  0
 21 40  1  0
 21 41  1  0
 22 42  1  0
 23 43  1  0
 25 44  1  0
M  CHG  1   3  -1
M  END
>  <UniqueID>  (49) 
48

>  <SMILES>  (49) 
O=C([N-]Cc1ccco1)c1cc(S(=O)(=O)N2CCCCC2)ccc1O

>  <Energy>  (49) 
77.38273255743064

>  <Genealogy>  (49) 
O=C([N-]Cc1ccco1)c1cc(S(=O)(=O)N2CCCCC2)ccc1O (protonated)
O=C([N-]Cc1ccco1)c1cc(S(=O)(=O)N2CCCCC2)ccc1O (3D coordinates assigned)
O=C([N-]Cc1ccco1)c1cc(S(=O)(=O)N2CCCCC2)ccc1O (nonaromatic ring conformer: 77.38273255743064 kcal/mol)

>  <smiles>  (49) 
O=C(NCc1ccco1)c1cc(S(=O)(=O)N2CCCCC2)ccc1O

>  <score_type>  (49) 
oracle

>  <origin>  (49) 
adgpu

>  <m_score__min__energy>  (49) 
-10.33

>  <m_primary>  (49) 
energy

$$$$
49:0
     RDKit          3D

 64 68  0  0  0  0  0  0  0  0999 V2000
    2.9990   25.3850  -25.8340 H   0  0  0  0  0  0  0  0  0  0  0  0
    2.3150   26.0980  -26.0490 O   0  0  0  0  0  0  0  0  0  0  0  0
    1.1420   25.8430  -26.7650 C   0  0  0  0  0  0  0  0  0  0  0  0
    0.3470   26.9320  -27.1360 C   0  0  0  0  0  0  0  0  0  0  0  0
    0.6507   27.9503  -26.8516 H   0  0  0  0  0  0  0  0  0  0  0  0
   -0.8270   26.7390  -27.8630 C   0  0  0  0  0  0  0  0  0  0  0  0
   -1.4515   27.6038  -28.1316 H   0  0  0  0  0  0  0  0  0  0  0  0
   -1.2160   25.4540  -28.2530 C   0  0  0  0  0  0  0  0  0  0  0  0
   -2.4540   25.2980  -28.9680 N   0  0  0  0  0  0  0  0  0  0  0  0
   -2.8310   24.2720  -29.6800 C   0  0  0  0  0  0  0  0  0  0  0  0
   -1.9870   23.2270  -29.8900 N   0  0  0  0  0  0  0  0  0  0  0  0
   -2.3320   22.1750  -30.6290 N   0  0  0  0  0  0  0  0  0  0  0  0
   -3.5450   22.0790  -31.2300 C   0  0  0  0  0  0  0  0  0  0  0  0
   -3.8150   20.8810  -32.0510 C   0  0  0  0  0  0  0  0  0  0  0  0
   -4.9390   20.0890  -31.7800 C   0  0  0  0  0  0  0  0  0  0  0  0
   -5.6240   20.3699  -30.9664 H   0  0  0  0  0  0  0  0  0  0  0  0
   -5.1930   18.9430  -32.5400 C   0  0  0  0  0  0  0  0  0  0  0  0
   -6.0840   18.3331  -32.3298 H   0  0  0  0  0  0  0  0  0  0  0  0
   -4.3180   18.5680  -33.5680 C   0  0  0  0  0  0  0  0  0  0  0  0
   -4.6510   17.1350  -34.5430 S   0  0  0  0  0  0  0  0  0  0  0  0
   -6.1090   17.1120  -34.9040 O   0  0  0  0  0  0  0  0  0  0  0  0
   -3.8570   17.2050  -35.8170 O   0  0  0  0  0  0  0  0  0  0  0  0
   -4.2440   15.6660  -33.6880 N   0  0  0  0  0  0  0  0  0  0  0  0
   -2.7790   15.5210  -33.5880 C   0  0  0  0  0  0  0  0  0  0  0  0
   -2.3759   15.2754  -34.5816 H   0  0  0  0  0  0  0  0  0  0  0  0
   -2.3635   16.4705  -33.2194 H   0  0  0  0  0  0  0  0  0  0  0  0
   -2.3850   14.4040  -32.5970 C   0  0  0  0  0  0  0  0  0  0  0  0
   -1.5850   13.7959  -33.0445 H   0  0  0  0  0  0  0  0  0  0  0  0
   -2.0447   14.8769  -31.6640 H   0  0  0  0  0  0  0  0  0  0  0  0
   -3.5240   13.5340  -32.2810 N   0  0  0  0  0  0  0  0  0  0  0  0
   -3.8650   13.0950  -33.1690 H   0  0  0  0  0  0  0  0  0  0  0  0
   -4.6270   14.2970  -31.6710 C   0  0  0  0  0  0  0  0  0  0  0  0
   -5.5514   13.7065  -31.7538 H   0  0  0  0  0  0  0  0  0  0  0  0
   -4.3587   14.4874  -30.6214 H   0  0  0  0  0  0  0  0  0  0  0  0
   -4.8520   15.6640  -32.3500 C   0  0  0  0  0  0  0  0  0  0  0  0
   -5.9319   15.8527  -32.4402 H   0  0  0  0  0  0  0  0  0  0  0  0
   -4.3856   16.4516  -31.7400 H   0  0  0  0  0  0  0  0  0  0  0  0
   -3.1790   19.3430  -33.8210 C   0  0  0  0  0  0  0  0  0  0  0  0
   -2.4815   19.0472  -34.6185 H   0  0  0  0  0  0  0  0  0  0  0  0
   -2.9250   20.4900  -33.0650 C   0  0  0  0  0  0  0  0  0  0  0  0
   -2.0245   21.0893  -33.2646 H   0  0  0  0  0  0  0  0  0  0  0  0
   -4.4850   23.1210  -31.0490 C   0  0  0  0  0  0  0  0  0  0  0  0
   -5.7880   23.0610  -31.5870 C   0  0  0  0  0  0  0  0  0  0  0  0
   -6.1003   22.1771  -32.1625 H   0  0  0  0  0  0  0  0  0  0  0  0
   -6.6840   24.1140  -31.3950 C   0  0  0  0  0  0  0  0  0  0  0  0
   -7.6937   24.0607  -31.8281 H   0  0  0  0  0  0  0  0  0  0  0  0
   -6.3030   25.2330  -30.6560 C   0  0  0  0  0  0  0  0  0  0  0  0
   -7.0087   26.0654  -30.5179 H   0  0  0  0  0  0  0  0  0  0  0  0
   -5.0290   25.3000  -30.0910 C   0  0  0  0  0  0  0  0  0  0  0  0
   -4.7391   26.1819  -29.5009 H   0  0  0  0  0  0  0  0  0  0  0  0
   -4.1100   24.2450  -30.2710 C   0  0  0  0  0  0  0  0  0  0  0  0
   -0.4410   24.3510  -27.8540 C   0  0  0  0  0  0  0  0  0  0  0  0
   -0.7636   23.3342  -28.1224 H   0  0  0  0  0  0  0  0  0  0  0  0
    0.7430   24.5330  -27.1150 C   0  0  0  0  0  0  0  0  0  0  0  0
    1.5490   23.3230  -26.7080 C   0  0  0  0  0  0  0  0  0  0  0  0
    0.9529   22.4164  -26.8889 H   0  0  0  0  0  0  0  0  0  0  0  0
    1.8006   23.4124  -25.6409 H   0  0  0  0  0  0  0  0  0  0  0  0
    2.7900   23.2390  -27.4730 N   0  0  0  0  0  0  0  0  0  0  0  0
    3.9400   24.0740  -27.2940 C   0  0  0  0  0  0  0  0  0  0  0  0
    4.5950   23.9870  -26.2230 O   0  0  0  0  0  0  0  0  0  0  0  0
    4.4040   25.0230  -28.3570 C   0  0  0  0  0  0  0  0  0  0  0  0
    4.8406   25.9161  -27.8860 H   0  0  0  0  0  0  0  0  0  0  0  0
    5.1628   24.5303  -28.9826 H   0  0  0  0  0  0  0  0  0  0  0  0
    3.5491   25.3193  -28.9826 H   0  0  0  0  0  0  0  0  0  0  0  0
  1  2  1  0
  2  3  1  0
  3  4  2  0
  4  5  1  0
  4  6  1  0
  6  7  1  0
  6  8  2  0
  8  9  1  0
  9 10  2  0
 10 11  1  0
 11 12  1  0
 12 13  2  0
 13 14  1  0
 14 15  2  0
 15 16  1  0
 15 17  1  0
 17 18  1  0
 17 19  2  0
 19 20  1  0
 20 21  2  0
 20 22  2  0
 20 23  1  0
 23 24  1  0
 24 25  1  0
 24 26  1  0
 24 27  1  0
 27 28  1  0
 27 29  1  0
 27 30  1  0
 30 31  1  0
 30 32  1  0
 32 33  1  0
 32 34  1  0
 32 35  1  0
 35 36  1  0
 35 37  1  0
 19 38  1  0
 38 39  1  0
 38 40  2  0
 40 41  1  0
 13 42  1  0
 42 43  2  0
 43 44  1  0
 43 45  1  0
 45 46  1  0
 45 47  2  0
 47 48  1  0
 47 49  1  0
 49 50  1  0
 49 51  2  0
  8 52  1  0
 52 53  1  0
 52 54  2  0
 54 55  1  0
 55 56  1  0
 55 57  1  0
 55 58  1  0
 58 59  1  0
 59 60  2  0
 59 61  1  0
 61 62  1  0
 61 63  1  0
 61 64  1  0
 54  3  1  0
 51 10  1  0
 40 14  1  0
 51 42  1  0
 35 23  1  0
M  CHG  2  11  -1  58  -1
M  END
>  <UniqueID>  (50) 
49

>  <SMILES>  (50) 
CC(=O)[N-]Cc1cc(/N=c2\[n-]nc(-c3ccc(S(=O)(=O)N4CCNCC4)cc3)c3ccccc23)ccc1O

>  <Energy>  (50) 
92.68704887735228

>  <Genealogy>  (50) 
CC(=O)[N-]Cc1cc(N=c2[n-]nc(-c3ccc(S(=O)(=O)N4CCNCC4)cc3)c3ccccc23)ccc1O (protonated)
CC(=O)[N-]Cc1cc(/N=c2\[n-]nc(-c3ccc(S(=O)(=O)N4CCNCC4)cc3)c3ccccc23)ccc1O (cis-trans isomerization)
CC(=O)[N-]Cc1cc(/N=c2\[n-]nc(-c3ccc(S(=O)(=O)N4CCNCC4)cc3)c3ccccc23)ccc1O (3D coordinates assigned)
CC(=O)[N-]Cc1cc(/N=c2\[n-]nc(-c3ccc(S(=O)(=O)N4CCNCC4)cc3)c3ccccc23)ccc1O (nonaromatic ring conformer: 92.68704887735228 kcal/mol)

>  <smiles>  (50) 
CC(=O)NCc1cc(N=c2[nH]nc(-c3ccc(S(=O)(=O)N4CCNCC4)cc3)c3ccccc23)ccc1O

>  <score_type>  (50) 
oracle

>  <origin>  (50) 
adgpu

>  <m_score__min__energy>  (50) 
-10.76

>  <m_primary>  (50) 
energy

$$$$
