0:0
     RDKit          3D

 51 54  0  0  0  0  0  0  0  0999 V2000
   -9.5990   21.4910  -31.6670 C   0  0  0  0  0  0  0  0  0  0  0  0
   -8.3400   21.0130  -32.2300 N   0  0  0  0  0  0  0  0  0  0  0  0
   -8.1060   19.6840  -32.6990 C   0  0  0  0  0  0  0  0  0  0  0  0
   -9.0370   18.9030  -33.0350 O   0  0  0  0  0  0  0  0  0  0  0  0
   -6.6430   19.3190  -32.7330 C   0  0  0  0  0  0  0  0  0  0  0  0
   -6.3570   18.0940  -31.8550 C   0  0  0  0  0  0  0  0  0  0  0  0
   -6.1610   19.1110  -34.1750 C   0  0  0  0  0  0  0  0  0  0  0  0
   -6.0590   20.5750  -32.1430 C   0  0  0  0  0  0  0  0  0  0  0  0
   -4.7280   20.8390  -31.8110 C   0  0  0  0  0  0  0  0  0  0  0  0
   -4.4150   22.0600  -31.1960 C   0  0  0  0  0  0  0  0  0  0  0  0
   -5.4260   23.0110  -30.9320 C   0  0  0  0  0  0  0  0  0  0  0  0
   -5.0510   24.5130  -30.0820 S   0  0  0  0  0  0  0  0  0  0  0  0
   -5.8490   25.6410  -30.6760 O   0  0  0  0  0  0  0  0  0  0  0  0
   -5.4340   24.3520  -28.6370 O   0  0  0  0  0  0  0  0  0  0  0  0
   -3.3610   24.9120  -30.1780 N   0  0  0  0  0  0  0  0  0  0  0  0
   -2.3610   24.3700  -29.3110 C   0  0  0  0  0  0  0  0  0  0  0  0
   -2.4210   23.0340  -28.8840 C   0  0  0  0  0  0  0  0  0  0  0  0
   -1.5010   22.5380  -27.9410 C   0  0  0  0  0  0  0  0  0  0  0  0
   -1.6530   21.1550  -27.4170 C   0  0  0  0  0  0  0  0  0  0  0  0
   -0.6270   20.5130  -27.0640 O   0  0  0  0  0  0  0  0  0  0  0  0
   -2.9350   20.5260  -27.3100 N   0  0  0  0  0  0  0  0  0  0  0  0
   -3.0620   19.0770  -27.2040 C   0  0  0  0  0  0  0  0  0  0  0  0
   -4.2180   18.6460  -26.3180 C   0  0  0  0  0  0  0  0  0  0  0  0
   -2.7880   18.5340  -25.8130 C   0  0  0  0  0  0  0  0  0  0  0  0
   -0.4850   23.3950  -27.4740 C   0  0  0  0  0  0  0  0  0  0  0  0
   -0.3850   24.7030  -27.9540 C   0  0  0  0  0  0  0  0  0  0  0  0
   -1.3190   25.1920  -28.8680 C   0  0  0  0  0  0  0  0  0  0  0  0
   -1.2230   26.5060  -29.3150 O   0  0  0  0  0  0  0  0  0  0  0  0
   -6.7550   22.7370  -31.3020 C   0  0  0  0  0  0  0  0  0  0  0  0
   -7.0500   21.5020  -31.8870 C   0  0  0  0  0  0  0  0  0  0  0  0
   -9.5413   21.4691  -30.5687 H   0  0  0  0  0  0  0  0  0  0  0  0
   -9.7835   22.5217  -32.0040 H   0  0  0  0  0  0  0  0  0  0  0  0
  -10.4210   20.8424  -32.0040 H   0  0  0  0  0  0  0  0  0  0  0  0
   -6.4236   18.3792  -30.7947 H   0  0  0  0  0  0  0  0  0  0  0  0
   -7.0958   17.3080  -32.0704 H   0  0  0  0  0  0  0  0  0  0  0  0
   -5.3465   17.7164  -32.0704 H   0  0  0  0  0  0  0  0  0  0  0  0
   -5.1511   18.6752  -34.1648 H   0  0  0  0  0  0  0  0  0  0  0  0
   -6.8491   18.4297  -34.6969 H   0  0  0  0  0  0  0  0  0  0  0  0
   -6.1374   20.0790  -34.6969 H   0  0  0  0  0  0  0  0  0  0  0  0
   -3.9400   20.1028  -32.0279 H   0  0  0  0  0  0  0  0  0  0  0  0
   -3.3738   22.2790  -30.9169 H   0  0  0  0  0  0  0  0  0  0  0  0
   -3.1956   22.3673  -29.2908 H   0  0  0  0  0  0  0  0  0  0  0  0
   -3.7950   21.1040  -27.1990 H   0  0  0  0  0  0  0  0  0  0  0  0
   -2.7118   18.8272  -28.2164 H   0  0  0  0  0  0  0  0  0  0  0  0
   -4.8948   19.4006  -25.8908 H   0  0  0  0  0  0  0  0  0  0  0  0
   -5.0625   17.9493  -26.4246 H   0  0  0  0  0  0  0  0  0  0  0  0
   -2.4303   19.2075  -25.0202 H   0  0  0  0  0  0  0  0  0  0  0  0
   -2.1692   17.7224  -25.4026 H   0  0  0  0  0  0  0  0  0  0  0  0
    0.2348   23.0315  -26.7259 H   0  0  0  0  0  0  0  0  0  0  0  0
    0.4345   25.3510  -27.6096 H   0  0  0  0  0  0  0  0  0  0  0  0
   -7.5478   23.4808  -31.1341 H   0  0  0  0  0  0  0  0  0  0  0  0
  1  2  1  0
  2  3  1  0
  3  4  2  0
  3  5  1  0
  5  6  1  0
  5  7  1  0
  5  8  1  0
  8  9  2  0
  9 10  1  0
 10 11  2  0
 11 12  1  0
 12 13  2  0
 12 14  2  0
 12 15  1  0
 15 16  1  0
 16 17  2  0
 17 18  1  0
 18 19  1  0
 19 20  2  0
 19 21  1  0
 21 22  1  0
 22 23  1  0
 23 24  1  0
 18 25  2  0
 25 26  1  0
 26 27  2  0
 27 28  1  0
 11 29  1  0
 29 30  2  0
 30  2  1  0
 30  8  1  0
 27 16  1  0
 24 22  1  0
  1 31  1  0
  1 32  1  0
  1 33  1  0
  6 34  1  0
  6 35  1  0
  6 36  1  0
  7 37  1  0
  7 38  1  0
  7 39  1  0
  9 40  1  0
 10 41  1  0
 17 42  1  0
 21 43  1  0
 22 44  1  0
 23 45  1  0
 23 46  1  0
 24 47  1  0
 24 48  1  0
 25 49  1  0
 26 50  1  0
 29 51  1  0
M  CHG  2  15  -1  28  -1
M  END
>  <UniqueID>  (1) 
1

>  <SMILES>  (1) 
CN1C(=O)C(C)(C)c2ccc(S(=O)(=O)[N-]c3cc(C(=O)NC4CC4)ccc3[O-])cc21

>  <Energy>  (1) 
338.8923345124834

>  <Genealogy>  (1) 
CN1C(=O)C(C)(C)c2ccc(S(=O)(=O)[N-]c3cc(C(=O)NC4CC4)ccc3[O-])cc21 (protonated)
CN1C(=O)C(C)(C)c2ccc(S(=O)(=O)[N-]c3cc(C(=O)NC4CC4)ccc3[O-])cc21 (3D coordinates assigned)
CN1C(=O)C(C)(C)c2ccc(S(=O)(=O)[N-]c3cc(C(=O)NC4CC4)ccc3[O-])cc21 (nonaromatic ring conformer: 338.8923345124834 kcal/mol)

>  <smiles>  (1) 
CN1C(=O)C(C)(C)c2ccc(S(=O)(=O)Nc3cc(C(=O)NC4CC4)ccc3O)cc21

>  <score_type>  (1) 
oracle

>  <origin>  (1) 
adgpu

>  <m_score__min__energy>  (1) 
-15.300000000000001

>  <m_primary>  (1) 
energy

$$$$
1:0
     RDKit          3D

 63 66  0  0  0  0  0  0  0  0999 V2000
   -5.4680   19.9230  -34.1590 O   0  0  0  0  0  0  0  0  0  0  0  0
   -5.1090   20.3150  -33.0170 C   0  0  0  0  0  0  0  0  0  0  0  0
   -4.0080   19.6540  -32.3790 N   0  0  0  0  0  0  0  0  0  0  0  0
   -2.6350   20.0760  -32.4170 C   0  0  0  0  0  0  0  0  0  0  0  0
   -2.2350   21.2550  -31.7590 C   0  0  0  0  0  0  0  0  0  0  0  0
   -0.9110   21.6920  -31.8270 C   0  0  0  0  0  0  0  0  0  0  0  0
    0.0250   20.9670  -32.5620 C   0  0  0  0  0  0  0  0  0  0  0  0
   -0.3590   19.8070  -33.2370 C   0  0  0  0  0  0  0  0  0  0  0  0
   -1.6900   19.3520  -33.1830 C   0  0  0  0  0  0  0  0  0  0  0  0
   -2.0650   18.1050  -33.8970 C   0  0  0  0  0  0  0  0  0  0  0  0
   -1.1700   17.2740  -34.2170 O   0  0  0  0  0  0  0  0  0  0  0  0
   -3.4370   17.8410  -34.2340 N   0  0  0  0  0  0  0  0  0  0  0  0
   -3.8510   16.6390  -34.9610 C   0  0  0  0  0  0  0  0  0  0  0  0
   -5.2360   16.1750  -34.4660 C   0  0  0  0  0  0  0  0  0  0  0  0
   -5.7780   16.9580  -33.3330 N   0  0  0  0  0  0  0  0  0  0  0  0
   -5.3640   16.4410  -32.0130 C   0  0  0  0  0  0  0  0  0  0  0  0
   -6.1260   17.1600  -30.8820 C   0  0  0  0  0  0  0  0  0  0  0  0
   -6.6270   18.4030  -31.3320 O   0  0  0  0  0  0  0  0  0  0  0  0
   -7.6420   18.1980  -32.3020 C   0  0  0  0  0  0  0  0  0  0  0  0
   -7.2310   17.1850  -33.3940 C   0  0  0  0  0  0  0  0  0  0  0  0
   -5.8610   21.4050  -32.3520 C   0  0  0  0  0  0  0  0  0  0  0  0
   -7.2440   21.5500  -32.5520 C   0  0  0  0  0  0  0  0  0  0  0  0
   -7.9450   22.5790  -31.9170 C   0  0  0  0  0  0  0  0  0  0  0  0
   -7.2730   23.4760  -31.0850 C   0  0  0  0  0  0  0  0  0  0  0  0
   -5.8910   23.3530  -30.8890 C   0  0  0  0  0  0  0  0  0  0  0  0
   -5.0280   24.4640  -29.8290 S   0  0  0  0  0  0  0  0  0  0  0  0
   -5.9330   25.5910  -29.4100 O   0  0  0  0  0  0  0  0  0  0  0  0
   -3.8610   25.0350  -30.5860 O   0  0  0  0  0  0  0  0  0  0  0  0
   -4.4540   23.5970  -28.4200 N   0  0  0  0  0  0  0  0  0  0  0  0
   -3.8510   24.5240  -27.4540 C   0  0  0  0  0  0  0  0  0  0  0  0
   -2.3490   24.5590  -27.6980 C   0  0  0  0  0  0  0  0  0  0  0  0
   -2.0530   23.3790  -28.6050 C   0  0  0  0  0  0  0  0  0  0  0  0
   -3.3830   22.6660  -28.7910 C   0  0  0  0  0  0  0  0  0  0  0  0
   -5.1880   22.3210  -31.5260 C   0  0  0  0  0  0  0  0  0  0  0  0
   -2.9724   21.8367  -31.1864 H   0  0  0  0  0  0  0  0  0  0  0  0
   -0.6065   22.6085  -31.3005 H   0  0  0  0  0  0  0  0  0  0  0  0
    1.0691   21.3097  -32.6104 H   0  0  0  0  0  0  0  0  0  0  0  0
    0.3861   19.2427  -33.8170 H   0  0  0  0  0  0  0  0  0  0  0  0
   -4.1820   18.4040  -33.7640 H   0  0  0  0  0  0  0  0  0  0  0  0
   -3.9049   16.8640  -36.0364 H   0  0  0  0  0  0  0  0  0  0  0  0
   -3.1172   15.8389  -34.7840 H   0  0  0  0  0  0  0  0  0  0  0  0
   -5.9434   16.2503  -35.3050 H   0  0  0  0  0  0  0  0  0  0  0  0
   -5.1084   15.1451  -34.1013 H   0  0  0  0  0  0  0  0  0  0  0  0
   -5.5782   15.3632  -31.9641 H   0  0  0  0  0  0  0  0  0  0  0  0
   -4.2867   16.6226  -31.8844 H   0  0  0  0  0  0  0  0  0  0  0  0
   -6.9653   16.5293  -30.5537 H   0  0  0  0  0  0  0  0  0  0  0  0
   -5.4342   17.3381  -30.0455 H   0  0  0  0  0  0  0  0  0  0  0  0
   -8.5423   17.8216  -31.7944 H   0  0  0  0  0  0  0  0  0  0  0  0
   -7.8261   19.1626  -32.7976 H   0  0  0  0  0  0  0  0  0  0  0  0
   -7.7577   16.2337  -33.2281 H   0  0  0  0  0  0  0  0  0  0  0  0
   -7.4977   17.5851  -34.3834 H   0  0  0  0  0  0  0  0  0  0  0  0
   -7.7779   20.8501  -33.2117 H   0  0  0  0  0  0  0  0  0  0  0  0
   -9.0289   22.6822  -32.0733 H   0  0  0  0  0  0  0  0  0  0  0  0
   -7.8293   24.2809  -30.5823 H   0  0  0  0  0  0  0  0  0  0  0  0
   -4.2735   25.5304  -27.5908 H   0  0  0  0  0  0  0  0  0  0  0  0
   -4.0603   24.1900  -26.4270 H   0  0  0  0  0  0  0  0  0  0  0  0
   -2.0619   25.5010  -28.1881 H   0  0  0  0  0  0  0  0  0  0  0  0
   -1.7831   24.4996  -26.7566 H   0  0  0  0  0  0  0  0  0  0  0  0
   -1.6644   23.7266  -29.5736 H   0  0  0  0  0  0  0  0  0  0  0  0
   -1.2903   22.7140  -28.1737 H   0  0  0  0  0  0  0  0  0  0  0  0
   -3.4999   22.3627  -29.8419 H   0  0  0  0  0  0  0  0  0  0  0  0
   -3.4247   21.7658  -28.1603 H   0  0  0  0  0  0  0  0  0  0  0  0
   -4.1020   22.2276  -31.3782 H   0  0  0  0  0  0  0  0  0  0  0  0
  1  2  2  0
  2  3  1  0
  3  4  1  0
  4  5  2  0
  5  6  1  0
  6  7  2  0
  7  8  1  0
  8  9  2  0
  9 10  1  0
 10 11  2  0
 10 12  1  0
 12 13  1  0
 13 14  1  0
 14 15  1  0
 15 16  1  0
 16 17  1  0
 17 18  1  0
 18 19  1  0
 19 20  1  0
  2 21  1  0
 21 22  2  0
 22 23  1  0
 23 24  2  0
 24 25  1  0
 25 26  1  0
 26 27  2  0
 26 28  2  0
 26 29  1  0
 29 30  1  0
 30 31  1  0
 31 32  1  0
 32 33  1  0
 25 34  2  0
  9  4  1  0
 20 15  1  0
 34 21  1  0
 33 29  1  0
  5 35  1  0
  6 36  1  0
  7 37  1  0
  8 38  1  0
 12 39  1  0
 13 40  1  0
 13 41  1  0
 14 42  1  0
 14 43  1  0
 16 44  1  0
 16 45  1  0
 17 46  1  0
 17 47  1  0
 19 48  1  0
 19 49  1  0
 20 50  1  0
 20 51  1  0
 22 52  1  0
 23 53  1  0
 24 54  1  0
 30 55  1  0
 30 56  1  0
 31 57  1  0
 31 58  1  0
 32 59  1  0
 32 60  1  0
 33 61  1  0
 33 62  1  0
 34 63  1  0
M  CHG  1   3  -1
M  END
>  <UniqueID>  (2) 
2

>  <SMILES>  (2) 
O=C([N-]c1ccccc1C(=O)NCCN1CCOCC1)c1cccc(S(=O)(=O)N2CCCC2)c1

>  <Energy>  (2) 
87.28439492307099

>  <Genealogy>  (2) 
O=C([N-]c1ccccc1C(=O)NCCN1CCOCC1)c1cccc(S(=O)(=O)N2CCCC2)c1 (protonated)
O=C([N-]c1ccccc1C(=O)NCCN1CCOCC1)c1cccc(S(=O)(=O)N2CCCC2)c1 (3D coordinates assigned)
O=C([N-]c1ccccc1C(=O)NCCN1CCOCC1)c1cccc(S(=O)(=O)N2CCCC2)c1 (nonaromatic ring conformer: 87.28439492307099 kcal/mol)

>  <smiles>  (2) 
O=C(Nc1ccccc1C(=O)NCCN1CCOCC1)c1cccc(S(=O)(=O)N2CCCC2)c1

>  <score_type>  (2) 
oracle

>  <origin>  (2) 
adgpu

>  <m_score__min__energy>  (2) 
-11.199999999999999

>  <m_primary>  (2) 
energy

$$$$
2:0
     RDKit          3D

 51 55  0  0  0  0  0  0  0  0999 V2000
   -3.0520   17.4410  -35.0520 O   0  0  0  0  0  0  0  0  0  0  0  0
   -3.5040   18.1360  -34.1000 C   0  0  0  0  0  0  0  0  0  0  0  0
   -4.7070   17.7540  -33.5030 C   0  0  0  0  0  0  0  0  0  0  0  0
   -5.2100   18.5160  -32.4490 C   0  0  0  0  0  0  0  0  0  0  0  0
   -6.5130   18.1530  -31.7930 C   0  0  0  0  0  0  0  0  0  0  0  0
   -7.6550   18.6940  -32.5640 N   0  0  0  0  0  0  0  0  0  0  0  0
   -8.8260   19.0310  -31.7160 C   0  0  0  0  0  0  0  0  0  0  0  0
   -9.0380   20.5480  -31.5260 C   0  0  0  0  0  0  0  0  0  0  0  0
   -7.7400   21.2480  -31.4340 N   0  0  0  0  0  0  0  0  0  0  0  0
   -7.9240   22.6820  -31.1040 C   0  0  0  0  0  0  0  0  0  0  0  0
   -6.6220   23.3530  -30.7320 C   0  0  0  0  0  0  0  0  0  0  0  0
   -6.4950   24.7620  -30.8310 C   0  0  0  0  0  0  0  0  0  0  0  0
   -5.2810   25.3950  -30.5030 C   0  0  0  0  0  0  0  0  0  0  0  0
   -4.2240   24.5940  -30.0850 C   0  0  0  0  0  0  0  0  0  0  0  0
   -4.3380   23.2460  -29.9880 C   0  0  0  0  0  0  0  0  0  0  0  0
   -5.5180   22.5800  -30.3020 C   0  0  0  0  0  0  0  0  0  0  0  0
   -3.1390   22.7120  -29.5540 O   0  0  0  0  0  0  0  0  0  0  0  0
   -2.2160   23.7940  -29.3650 C   0  0  0  0  0  0  0  0  0  0  0  0
   -2.9490   24.9770  -29.7160 O   0  0  0  0  0  0  0  0  0  0  0  0
   -6.9740   21.1140  -32.7010 C   0  0  0  0  0  0  0  0  0  0  0  0
   -7.2700   19.8020  -33.4620 C   0  0  0  0  0  0  0  0  0  0  0  0
   -4.5290   19.6120  -32.0320 N   0  0  0  0  0  0  0  0  0  0  0  0
   -3.3590   19.9840  -32.6130 C   0  0  0  0  0  0  0  0  0  0  0  0
   -2.6970   21.1230  -32.1430 C   0  0  0  0  0  0  0  0  0  0  0  0
   -1.4980   21.5130  -32.7330 C   0  0  0  0  0  0  0  0  0  0  0  0
   -0.9700   20.7680  -33.7840 C   0  0  0  0  0  0  0  0  0  0  0  0
   -1.6510   19.6350  -34.2350 C   0  0  0  0  0  0  0  0  0  0  0  0
   -2.8330   19.2480  -33.6550 N   0  0  0  0  0  0  0  0  0  0  0  0
   -5.2496   16.8657  -33.8586 H   0  0  0  0  0  0  0  0  0  0  0  0
   -6.5986   17.0575  -31.7415 H   0  0  0  0  0  0  0  0  0  0  0  0
   -6.5324   18.5851  -30.7816 H   0  0  0  0  0  0  0  0  0  0  0  0
   -9.7274   18.6104  -32.1856 H   0  0  0  0  0  0  0  0  0  0  0  0
   -8.6347   18.6057  -30.7197 H   0  0  0  0  0  0  0  0  0  0  0  0
   -9.6022   20.9441  -32.3832 H   0  0  0  0  0  0  0  0  0  0  0  0
   -9.5966   20.7135  -30.5929 H   0  0  0  0  0  0  0  0  0  0  0  0
   -7.1810   20.8080  -30.6650 H   0  0  0  0  0  0  0  0  0  0  0  0
   -8.3499   23.1952  -31.9788 H   0  0  0  0  0  0  0  0  0  0  0  0
   -8.5970   22.7455  -30.2362 H   0  0  0  0  0  0  0  0  0  0  0  0
   -7.3516   25.3649  -31.1666 H   0  0  0  0  0  0  0  0  0  0  0  0
   -5.1722   26.4872  -30.5750 H   0  0  0  0  0  0  0  0  0  0  0  0
   -5.5906   21.4856  -30.2185 H   0  0  0  0  0  0  0  0  0  0  0  0
   -1.8858   23.8412  -28.3168 H   0  0  0  0  0  0  0  0  0  0  0  0
   -1.3098   23.6741  -29.9769 H   0  0  0  0  0  0  0  0  0  0  0  0
   -7.2299   21.9612  -33.3543 H   0  0  0  0  0  0  0  0  0  0  0  0
   -5.9067   21.1011  -32.4351 H   0  0  0  0  0  0  0  0  0  0  0  0
   -8.0930   19.9837  -34.1689 H   0  0  0  0  0  0  0  0  0  0  0  0
   -6.3463   19.5035  -33.9793 H   0  0  0  0  0  0  0  0  0  0  0  0
   -3.1210   21.7067  -31.3126 H   0  0  0  0  0  0  0  0  0  0  0  0
   -0.9695   22.4068  -32.3701 H   0  0  0  0  0  0  0  0  0  0  0  0
   -0.0232   21.0696  -34.2558 H   0  0  0  0  0  0  0  0  0  0  0  0
   -1.2348   19.0457  -35.0653 H   0  0  0  0  0  0  0  0  0  0  0  0
  1  2  2  0
  2  3  1  0
  3  4  2  0
  4  5  1  0
  5  6  1  0
  6  7  1  0
  7  8  1  0
  8  9  1  0
  9 10  1  0
 10 11  1  0
 11 12  2  0
 12 13  1  0
 13 14  2  0
 14 15  1  0
 15 16  2  0
 15 17  1  0
 17 18  1  0
 18 19  1  0
  9 20  1  0
 20 21  1  0
  4 22  1  0
 22 23  2  0
 23 24  1  0
 24 25  2  0
 25 26  1  0
 26 27  2  0
 27 28  1  0
 28  2  1  0
 21  6  1  0
 28 23  1  0
 16 11  1  0
 19 14  1  0
  3 29  1  0
  5 30  1  0
  5 31  1  0
  7 32  1  0
  7 33  1  0
  8 34  1  0
  8 35  1  0
  9 36  1  0
 10 37  1  0
 10 38  1  0
 12 39  1  0
 13 40  1  0
 16 41  1  0
 18 42  1  0
 18 43  1  0
 20 44  1  0
 20 45  1  0
 21 46  1  0
 21 47  1  0
 24 48  1  0
 25 49  1  0
 26 50  1  0
 27 51  1  0
M  CHG  1   9   1
M  END
>  <UniqueID>  (3) 
3

>  <SMILES>  (3) 
O=c1cc(CN2CC[NH+](Cc3ccc4c(c3)OCO4)CC2)nc2ccccn12

>  <Energy>  (3) 
102.7285350439271

>  <Genealogy>  (3) 
O=c1cc(CN2CC[NH+](Cc3ccc4c(c3)OCO4)CC2)nc2ccccn12 (protonated)
O=c1cc(CN2CC[NH+](Cc3ccc4c(c3)OCO4)CC2)nc2ccccn12 (3D coordinates assigned)
O=c1cc(CN2CC[NH+](Cc3ccc4c(c3)OCO4)CC2)nc2ccccn12 (nonaromatic ring conformer: 102.7285350439271 kcal/mol)

>  <smiles>  (3) 
O=c1cc(CN2CCN(Cc3ccc4c(c3)OCO4)CC2)nc2ccccn12

>  <score_type>  (3) 
oracle

>  <origin>  (3) 
adgpu

>  <m_score__min__energy>  (3) 
-8.0600000000000005

>  <m_primary>  (3) 
energy

$$$$
3:0
     RDKit          3D

 51 54  0  0  0  0  0  0  0  0999 V2000
   -1.2310   26.9760  -29.7910 H   0  0  0  0  0  0  0  0  0  0  0  0
   -1.2400   26.6180  -28.8460 O   0  0  0  0  0  0  0  0  0  0  0  0
   -1.3260   25.2560  -28.5530 C   0  0  0  0  0  0  0  0  0  0  0  0
   -0.4250   24.7160  -27.6290 C   0  0  0  0  0  0  0  0  0  0  0  0
    0.3593   25.3534  -27.1947 H   0  0  0  0  0  0  0  0  0  0  0  0
   -0.5140   23.3740  -27.2540 C   0  0  0  0  0  0  0  0  0  0  0  0
    0.2032   22.9584  -26.5309 H   0  0  0  0  0  0  0  0  0  0  0  0
   -1.5130   22.5550  -27.7950 C   0  0  0  0  0  0  0  0  0  0  0  0
   -1.6250   20.8560  -27.3200 S   0  0  0  0  0  0  0  0  0  0  0  0
   -1.6090   20.7670  -25.8190 O   0  0  0  0  0  0  0  0  0  0  0  0
   -2.9350   20.2990  -27.8040 O   0  0  0  0  0  0  0  0  0  0  0  0
   -0.3230   19.8820  -27.9610 N   0  0  0  0  0  0  0  0  0  0  0  0
   -0.3230   19.8590  -29.4210 C   0  0  0  0  0  0  0  0  0  0  0  0
   -1.3548   19.8600  -29.8022 H   0  0  0  0  0  0  0  0  0  0  0  0
    0.1815   20.7443  -29.8354 H   0  0  0  0  0  0  0  0  0  0  0  0
    0.3870   18.5770  -29.8260 C   0  0  0  0  0  0  0  0  0  0  0  0
   -0.1155   18.1140  -30.6881 H   0  0  0  0  0  0  0  0  0  0  0  0
    1.4287   18.7624  -30.1269 H   0  0  0  0  0  0  0  0  0  0  0  0
    0.3010   17.6690  -28.6080 C   0  0  0  0  0  0  0  0  0  0  0  0
   -0.2642   16.7562  -28.8474 H   0  0  0  0  0  0  0  0  0  0  0  0
    1.2958   17.3476  -28.2658 H   0  0  0  0  0  0  0  0  0  0  0  0
   -0.4270   18.4840  -27.5480 C   0  0  0  0  0  0  0  0  0  0  0  0
   -1.4830   18.1807  -27.4933 H   0  0  0  0  0  0  0  0  0  0  0  0
    0.0132   18.3279  -26.5521 H   0  0  0  0  0  0  0  0  0  0  0  0
   -2.4040   23.0860  -28.7370 C   0  0  0  0  0  0  0  0  0  0  0  0
   -3.1893   22.4452  -29.1644 H   0  0  0  0  0  0  0  0  0  0  0  0
   -2.3060   24.4220  -29.1400 C   0  0  0  0  0  0  0  0  0  0  0  0
   -3.2250   24.9090  -30.1260 N   0  0  0  0  0  0  0  0  0  0  0  0
   -4.5730   24.4520  -30.3120 C   0  0  0  0  0  0  0  0  0  0  0  0
   -5.5200   25.1920  -29.9370 O   0  0  0  0  0  0  0  0  0  0  0  0
   -4.8850   23.1370  -30.8950 C   0  0  0  0  0  0  0  0  0  0  0  0
   -4.3730   21.9630  -30.4710 N   0  0  0  0  0  0  0  0  0  0  0  0
   -4.9010   21.0220  -31.2390 N   0  0  0  0  0  0  0  0  0  0  0  0
   -5.7120   21.6660  -32.1000 C   0  0  0  0  0  0  0  0  0  0  0  0
   -6.4270   21.0850  -33.0170 N   0  0  0  0  0  0  0  0  0  0  0  0
   -6.4060   19.6790  -33.3100 C   0  0  0  0  0  0  0  0  0  0  0  0
   -5.4360   19.1930  -34.1940 C   0  0  0  0  0  0  0  0  0  0  0  0
   -4.7220   19.8899  -34.6571 H   0  0  0  0  0  0  0  0  0  0  0  0
   -5.3670   17.8310  -34.4930 C   0  0  0  0  0  0  0  0  0  0  0  0
   -4.6091   17.4600  -35.1987 H   0  0  0  0  0  0  0  0  0  0  0  0
   -6.2600   16.9410  -33.8960 C   0  0  0  0  0  0  0  0  0  0  0  0
   -6.2138   15.8699  -34.1423 H   0  0  0  0  0  0  0  0  0  0  0  0
   -7.2130   17.4060  -32.9860 C   0  0  0  0  0  0  0  0  0  0  0  0
   -7.9102   16.6978  -32.5144 H   0  0  0  0  0  0  0  0  0  0  0  0
   -7.2860   18.7770  -32.6690 C   0  0  0  0  0  0  0  0  0  0  0  0
   -8.1900   19.2670  -31.7120 O   0  0  0  0  0  0  0  0  0  0  0  0
   -9.1140   20.3260  -31.9400 C   0  0  0  0  0  0  0  0  0  0  0  0
   -9.4611   20.7239  -30.9750 H   0  0  0  0  0  0  0  0  0  0  0  0
   -8.6206   21.1266  -32.5106 H   0  0  0  0  0  0  0  0  0  0  0  0
   -9.9741   19.9457  -32.5106 H   0  0  0  0  0  0  0  0  0  0  0  0
   -5.7180   22.9590  -31.8940 O   0  0  0  0  0  0  0  0  0  0  0  0
  1  2  1  0
  2  3  1  0
  3  4  2  0
  4  5  1  0
  4  6  1  0
  6  7  1  0
  6  8  2  0
  8  9  1  0
  9 10  2  0
  9 11  2  0
  9 12  1  0
 12 13  1  0
 13 14  1  0
 13 15  1  0
 13 16  1  0
 16 17  1  0
 16 18  1  0
 16 19  1  0
 19 20  1  0
 19 21  1  0
 19 22  1  0
 22 23  1  0
 22 24  1  0
  8 25  1  0
 25 26  1  0
 25 27  2  0
 27 28  1  0
 28 29  1  0
 29 30  2  0
 29 31  1  0
 31 32  2  0
 32 33  1  0
 33 34  1  0
 34 35  2  0
 35 36  1  0
 36 37  2  0
 37 38  1  0
 37 39  1  0
 39 40  1  0
 39 41  2  0
 41 42  1  0
 41 43  1  0
 43 44  1  0
 43 45  2  0
 45 46  1  0
 46 47  1  0
 47 48  1  0
 47 49  1  0
 47 50  1  0
 34 51  1  0
 27  3  1  0
 51 31  1  0
 22 12  1  0
 45 36  1  0
M  CHG  2  28  -1  33  -1
M  END
>  <UniqueID>  (4) 
4

>  <SMILES>  (4) 
COc1ccccc1/N=c1\[n-]nc(C(=O)[N-]c2cc(S(=O)(=O)N3CCCC3)ccc2O)o1

>  <Energy>  (4) 
104.34717970213059

>  <Genealogy>  (4) 
COc1ccccc1N=c1[n-]nc(C(=O)[N-]c2cc(S(=O)(=O)N3CCCC3)ccc2O)o1 (protonated)
COc1ccccc1/N=c1\[n-]nc(C(=O)[N-]c2cc(S(=O)(=O)N3CCCC3)ccc2O)o1 (cis-trans isomerization)
COc1ccccc1/N=c1\[n-]nc(C(=O)[N-]c2cc(S(=O)(=O)N3CCCC3)ccc2O)o1 (3D coordinates assigned)
COc1ccccc1/N=c1\[n-]nc(C(=O)[N-]c2cc(S(=O)(=O)N3CCCC3)ccc2O)o1 (nonaromatic ring conformer: 104.34717970213059 kcal/mol)

>  <smiles>  (4) 
COc1ccccc1N=c1[nH]nc(C(=O)Nc2cc(S(=O)(=O)N3CCCC3)ccc2O)o1

>  <score_type>  (4) 
oracle

>  <origin>  (4) 
adgpu

>  <m_score__min__energy>  (4) 
-12.109999999999999

>  <m_primary>  (4) 
energy

$$$$
4:0
     RDKit          3D

 47 49  0  0  0  0  0  0  0  0999 V2000
   -9.1410   21.7770  -31.2740 C   0  0  0  0  0  0  0  0  0  0  0  0
   -7.7980   21.3630  -31.8110 C   0  0  0  0  0  0  0  0  0  0  0  0
   -7.7070   20.3300  -32.7600 C   0  0  0  0  0  0  0  0  0  0  0  0
   -6.4660   19.9510  -33.2730 C   0  0  0  0  0  0  0  0  0  0  0  0
   -5.3060   20.6040  -32.8530 C   0  0  0  0  0  0  0  0  0  0  0  0
   -5.3820   21.6380  -31.9150 C   0  0  0  0  0  0  0  0  0  0  0  0
   -6.6300   22.0320  -31.3880 C   0  0  0  0  0  0  0  0  0  0  0  0
   -6.7510   23.0780  -30.4550 O   0  0  0  0  0  0  0  0  0  0  0  0
   -5.6910   23.6080  -29.6600 C   0  0  0  0  0  0  0  0  0  0  0  0
   -4.8690   24.5870  -30.4520 C   0  0  0  0  0  0  0  0  0  0  0  0
   -5.2450   24.9080  -31.6100 O   0  0  0  0  0  0  0  0  0  0  0  0
   -3.6450   25.1320  -29.9450 N   0  0  0  0  0  0  0  0  0  0  0  0
   -2.5730   24.4010  -29.3310 C   0  0  0  0  0  0  0  0  0  0  0  0
   -2.7210   23.0490  -28.9740 C   0  0  0  0  0  0  0  0  0  0  0  0
   -1.6900   22.3710  -28.3070 C   0  0  0  0  0  0  0  0  0  0  0  0
   -1.8880   20.6750  -27.8500 S   0  0  0  0  0  0  0  0  0  0  0  0
   -2.1720   20.5990  -26.3770 O   0  0  0  0  0  0  0  0  0  0  0  0
   -3.0730   20.1090  -28.5810 O   0  0  0  0  0  0  0  0  0  0  0  0
   -0.4800   19.7030  -28.2130 N   0  0  0  0  0  0  0  0  0  0  0  0
   -0.4930   18.4300  -27.4950 C   0  0  0  0  0  0  0  0  0  0  0  0
    0.3760   17.4810  -28.3030 C   0  0  0  0  0  0  0  0  0  0  0  0
    0.3700   18.0440  -29.7180 C   0  0  0  0  0  0  0  0  0  0  0  0
   -0.4010   19.3540  -29.6320 C   0  0  0  0  0  0  0  0  0  0  0  0
   -0.5000   23.0480  -28.0070 C   0  0  0  0  0  0  0  0  0  0  0  0
   -0.3540   24.3960  -28.3460 C   0  0  0  0  0  0  0  0  0  0  0  0
   -1.3900   25.0740  -28.9960 C   0  0  0  0  0  0  0  0  0  0  0  0
   -1.2370   26.4200  -29.3110 O   0  0  0  0  0  0  0  0  0  0  0  0
   -9.1146   21.7689  -30.1743 H   0  0  0  0  0  0  0  0  0  0  0  0
   -9.3806   22.7907  -31.6275 H   0  0  0  0  0  0  0  0  0  0  0  0
   -9.9098   21.0741  -31.6275 H   0  0  0  0  0  0  0  0  0  0  0  0
   -8.6191   19.8177  -33.1000 H   0  0  0  0  0  0  0  0  0  0  0  0
   -6.4017   19.1365  -34.0095 H   0  0  0  0  0  0  0  0  0  0  0  0
   -4.3295   20.3043  -33.2611 H   0  0  0  0  0  0  0  0  0  0  0  0
   -4.4640   22.1470  -31.5862 H   0  0  0  0  0  0  0  0  0  0  0  0
   -6.1176   24.1199  -28.7848 H   0  0  0  0  0  0  0  0  0  0  0  0
   -5.0418   22.7798  -29.3397 H   0  0  0  0  0  0  0  0  0  0  0  0
   -3.6529   22.5187  -29.2198 H   0  0  0  0  0  0  0  0  0  0  0  0
   -0.0800   18.5581  -26.4835 H   0  0  0  0  0  0  0  0  0  0  0  0
   -1.5162   18.0418  -27.3842 H   0  0  0  0  0  0  0  0  0  0  0  0
    1.3997   17.4580  -27.9010 H   0  0  0  0  0  0  0  0  0  0  0  0
   -0.0005   16.4480  -28.2691 H   0  0  0  0  0  0  0  0  0  0  0  0
    1.3984   18.2253  -30.0639 H   0  0  0  0  0  0  0  0  0  0  0  0
   -0.0904   17.3460  -30.4327 H   0  0  0  0  0  0  0  0  0  0  0  0
    0.1280   20.1424  -30.1874 H   0  0  0  0  0  0  0  0  0  0  0  0
   -1.4045   19.2521  -30.0709 H   0  0  0  0  0  0  0  0  0  0  0  0
    0.3212   22.5170  -27.5034 H   0  0  0  0  0  0  0  0  0  0  0  0
    0.5786   24.9252  -28.1008 H   0  0  0  0  0  0  0  0  0  0  0  0
  1  2  1  0
  2  3  2  0
  3  4  1  0
  4  5  2  0
  5  6  1  0
  6  7  2  0
  7  8  1  0
  8  9  1  0
  9 10  1  0
 10 11  2  0
 10 12  1  0
 12 13  1  0
 13 14  2  0
 14 15  1  0
 15 16  1  0
 16 17  2  0
 16 18  2  0
 16 19  1  0
 19 20  1  0
 20 21  1  0
 21 22  1  0
 22 23  1  0
 15 24  2  0
 24 25  1  0
 25 26  2  0
 26 27  1  0
  7  2  1  0
 26 13  1  0
 23 19  1  0
  1 28  1  0
  1 29  1  0
  1 30  1  0
  3 31  1  0
  4 32  1  0
  5 33  1  0
  6 34  1  0
  9 35  1  0
  9 36  1  0
 14 37  1  0
 20 38  1  0
 20 39  1  0
 21 40  1  0
 21 41  1  0
 22 42  1  0
 22 43  1  0
 23 44  1  0
 23 45  1  0
 24 46  1  0
 25 47  1  0
M  CHG  2  12  -1  27  -1
M  END
>  <UniqueID>  (5) 
5

>  <SMILES>  (5) 
Cc1ccccc1OCC(=O)[N-]c1cc(S(=O)(=O)N2CCCC2)ccc1[O-]

>  <Energy>  (5) 
53.26736646764055

>  <Genealogy>  (5) 
Cc1ccccc1OCC(=O)[N-]c1cc(S(=O)(=O)N2CCCC2)ccc1[O-] (protonated)
Cc1ccccc1OCC(=O)[N-]c1cc(S(=O)(=O)N2CCCC2)ccc1[O-] (3D coordinates assigned)
Cc1ccccc1OCC(=O)[N-]c1cc(S(=O)(=O)N2CCCC2)ccc1[O-] (nonaromatic ring conformer: 53.26736646764055 kcal/mol)

>  <smiles>  (5) 
Cc1ccccc1OCC(=O)Nc1cc(S(=O)(=O)N2CCCC2)ccc1O

>  <score_type>  (5) 
oracle

>  <origin>  (5) 
adgpu

>  <m_score__min__energy>  (5) 
-13.6

>  <m_primary>  (5) 
energy

$$$$
5:0
     RDKit          3D

 47 49  0  0  0  0  0  0  0  0999 V2000
   -2.9790   24.5630  -29.4210 C   0  0  0  0  0  0  0  0  0  0  0  0
   -3.6800   25.2970  -30.4640 N   0  0  0  0  0  0  0  0  0  0  0  0
   -5.1060   25.3900  -30.5180 C   0  0  0  0  0  0  0  0  0  0  0  0
   -5.6800   26.4660  -30.1960 O   0  0  0  0  0  0  0  0  0  0  0  0
   -5.8970   24.2250  -30.9560 C   0  0  0  0  0  0  0  0  0  0  0  0
   -6.8800   23.6600  -30.1270 C   0  0  0  0  0  0  0  0  0  0  0  0
   -7.6070   22.5570  -30.5770 C   0  0  0  0  0  0  0  0  0  0  0  0
   -7.3630   22.0280  -31.8560 C   0  0  0  0  0  0  0  0  0  0  0  0
   -8.0540   20.9100  -32.3480 O   0  0  0  0  0  0  0  0  0  0  0  0
   -7.4640   19.7090  -32.7610 C   0  0  0  0  0  0  0  0  0  0  0  0
   -7.6730   18.5040  -32.0700 C   0  0  0  0  0  0  0  0  0  0  0  0
   -7.0730   17.3320  -32.5310 C   0  0  0  0  0  0  0  0  0  0  0  0
   -6.2870   17.3570  -33.6950 C   0  0  0  0  0  0  0  0  0  0  0  0
   -5.6200   16.1900  -34.1950 N   0  0  0  0  0  0  0  0  0  0  0  0
   -4.6300   15.4140  -33.5060 C   0  0  0  0  0  0  0  0  0  0  0  0
   -4.9720   14.4380  -32.7880 O   0  0  0  0  0  0  0  0  0  0  0  0
   -3.2370   15.6670  -33.7140 N   0  0  0  0  0  0  0  0  0  0  0  0
   -2.6210   16.9590  -33.8000 C   0  0  0  0  0  0  0  0  0  0  0  0
   -1.4720   17.1830  -34.5800 C   0  0  0  0  0  0  0  0  0  0  0  0
   -0.9120   18.4610  -34.6570 C   0  0  0  0  0  0  0  0  0  0  0  0
   -1.5000   19.5260  -33.9700 C   0  0  0  0  0  0  0  0  0  0  0  0
   -2.6620   19.3220  -33.2150 C   0  0  0  0  0  0  0  0  0  0  0  0
   -3.3970   20.6690  -32.3510 S   0  0  0  0  0  0  0  0  0  0  0  0
   -4.7020   20.2370  -31.7460 O   0  0  0  0  0  0  0  0  0  0  0  0
   -3.6590   21.7970  -33.3090 O   0  0  0  0  0  0  0  0  0  0  0  0
   -2.3000   21.2200  -31.0600 C   0  0  0  0  0  0  0  0  0  0  0  0
   -3.0370   21.5670  -29.9440 F   0  0  0  0  0  0  0  0  0  0  0  0
   -1.5840   22.3180  -31.4980 F   0  0  0  0  0  0  0  0  0  0  0  0
   -1.4220   20.2030  -30.7320 F   0  0  0  0  0  0  0  0  0  0  0  0
   -3.2190   18.0370  -33.1360 C   0  0  0  0  0  0  0  0  0  0  0  0
   -6.1040   18.5770  -34.3540 C   0  0  0  0  0  0  0  0  0  0  0  0
   -6.6990   19.7060  -33.8860 N   0  0  0  0  0  0  0  0  0  0  0  0
   -6.3620   22.6070  -32.6400 C   0  0  0  0  0  0  0  0  0  0  0  0
   -5.6650   23.6810  -32.1820 N   0  0  0  0  0  0  0  0  0  0  0  0
   -3.3157   24.9156  -28.4349 H   0  0  0  0  0  0  0  0  0  0  0  0
   -3.1952   23.4890  -29.5199 H   0  0  0  0  0  0  0  0  0  0  0  0
   -1.8962   24.7296  -29.5199 H   0  0  0  0  0  0  0  0  0  0  0  0
   -7.0753   24.0836  -29.1308 H   0  0  0  0  0  0  0  0  0  0  0  0
   -8.3714   22.1014  -29.9303 H   0  0  0  0  0  0  0  0  0  0  0  0
   -8.3061   18.4846  -31.1706 H   0  0  0  0  0  0  0  0  0  0  0  0
   -7.2153   16.3887  -31.9833 H   0  0  0  0  0  0  0  0  0  0  0  0
   -1.0127   16.3492  -35.1313 H   0  0  0  0  0  0  0  0  0  0  0  0
   -0.0070   18.6287  -35.2593 H   0  0  0  0  0  0  0  0  0  0  0  0
   -1.0490   20.5279  -34.0222 H   0  0  0  0  0  0  0  0  0  0  0  0
   -4.1338   17.8748  -32.5471 H   0  0  0  0  0  0  0  0  0  0  0  0
   -5.4754   18.6231  -35.2555 H   0  0  0  0  0  0  0  0  0  0  0  0
   -6.1364   22.1917  -33.6333 H   0  0  0  0  0  0  0  0  0  0  0  0
  1  2  1  0
  2  3  1  0
  3  4  2  0
  3  5  1  0
  5  6  2  0
  6  7  1  0
  7  8  2  0
  8  9  1  0
  9 10  1  0
 10 11  2  0
 11 12  1  0
 12 13  2  0
 13 14  1  0
 14 15  1  0
 15 16  2  0
 15 17  1  0
 17 18  1  0
 18 19  2  0
 19 20  1  0
 20 21  2  0
 21 22  1  0
 22 23  1  0
 23 24  2  0
 23 25  2  0
 23 26  1  0
 26 27  1  0
 26 28  1  0
 26 29  1  0
 22 30  2  0
 13 31  1  0
 31 32  2  0
  8 33  1  0
 33 34  2  0
 34  5  1  0
 32 10  1  0
 30 18  1  0
  1 35  1  0
  1 36  1  0
  1 37  1  0
  6 38  1  0
  7 39  1  0
 11 40  1  0
 12 41  1  0
 19 42  1  0
 20 43  1  0
 21 44  1  0
 30 45  1  0
 31 46  1  0
 33 47  1  0
M  CHG  3   2  -1  14  -1  17  -1
M  END
>  <UniqueID>  (6) 
6

>  <SMILES>  (6) 
C[N-]C(=O)c1ccc(Oc2ccc([N-]C(=O)[N-]c3cccc(S(=O)(=O)C(F)(F)F)c3)cn2)cn1

>  <Energy>  (6) 
58.861321597124096

>  <Genealogy>  (6) 
C[N-]C(=O)c1ccc(Oc2ccc([N-]C(=O)[N-]c3cccc(S(=O)(=O)C(F)(F)F)c3)cn2)cn1 (protonated)
C[N-]C(=O)c1ccc(Oc2ccc([N-]C(=O)[N-]c3cccc(S(=O)(=O)C(F)(F)F)c3)cn2)cn1 (3D coordinates assigned)
C[N-]C(=O)c1ccc(Oc2ccc([N-]C(=O)[N-]c3cccc(S(=O)(=O)C(F)(F)F)c3)cn2)cn1 (optimized conformer: 58.861321597124096 kcal/mol)

>  <smiles>  (6) 
CNC(=O)c1ccc(Oc2ccc(NC(=O)Nc3cccc(S(=O)(=O)C(F)(F)F)c3)cn2)cn1

>  <score_type>  (6) 
oracle

>  <origin>  (6) 
adgpu

>  <m_score__min__energy>  (6) 
-11.119999999999999

>  <m_primary>  (6) 
energy

$$$$
6:0
     RDKit          3D

 59 62  0  0  0  0  0  0  0  0999 V2000
   -6.1210   17.0740  -31.4270 C   0  0  0  0  0  0  0  0  0  0  0  0
   -6.5420   16.7470  -32.7990 N   0  0  0  0  0  0  0  0  0  0  0  0
   -5.5870   15.8310  -33.4560 C   0  0  0  0  0  0  0  0  0  0  0  0
   -4.3410   16.5670  -33.9890 C   0  0  0  0  0  0  0  0  0  0  0  0
   -4.6520   17.8080  -34.7530 N   0  0  0  0  0  0  0  0  0  0  0  0
   -3.9700   19.0100  -34.2090 C   0  0  0  0  0  0  0  0  0  0  0  0
   -4.1130   19.0860  -32.6810 C   0  0  0  0  0  0  0  0  0  0  0  0
   -4.4490   20.4750  -32.2100 C   0  0  0  0  0  0  0  0  0  0  0  0
   -5.7660   20.7960  -31.8430 C   0  0  0  0  0  0  0  0  0  0  0  0
   -6.0580   22.0450  -31.2920 C   0  0  0  0  0  0  0  0  0  0  0  0
   -5.0430   22.9910  -31.1100 C   0  0  0  0  0  0  0  0  0  0  0  0
   -5.4190   24.5230  -30.3310 S   0  0  0  0  0  0  0  0  0  0  0  0
   -5.1190   25.6840  -31.2380 O   0  0  0  0  0  0  0  0  0  0  0  0
   -6.8830   24.5450  -29.9950 O   0  0  0  0  0  0  0  0  0  0  0  0
   -4.4920   24.6650  -28.8700 N   0  0  0  0  0  0  0  0  0  0  0  0
   -3.3310   23.8660  -28.5730 C   0  0  0  0  0  0  0  0  0  0  0  0
   -3.4470   22.5580  -28.0680 C   0  0  0  0  0  0  0  0  0  0  0  0
   -2.3100   21.7680  -27.8390 C   0  0  0  0  0  0  0  0  0  0  0  0
   -1.0300   22.3030  -28.0810 C   0  0  0  0  0  0  0  0  0  0  0  0
   -0.9100   23.6070  -28.5800 C   0  0  0  0  0  0  0  0  0  0  0  0
   -2.0470   24.3820  -28.8260 C   0  0  0  0  0  0  0  0  0  0  0  0
   -1.8900   25.6700  -29.3260 O   0  0  0  0  0  0  0  0  0  0  0  0
    0.2110   21.4500  -27.9330 C   0  0  0  0  0  0  0  0  0  0  0  0
   -0.0080   20.2650  -27.0870 N   0  0  0  0  0  0  0  0  0  0  0  0
   -1.2120   19.5350  -27.5020 C   0  0  0  0  0  0  0  0  0  0  0  0
   -2.4690   20.3820  -27.2710 C   0  0  0  0  0  0  0  0  0  0  0  0
   -3.7330   22.6870  -31.5050 C   0  0  0  0  0  0  0  0  0  0  0  0
   -3.4370   21.4360  -32.0500 C   0  0  0  0  0  0  0  0  0  0  0  0
   -6.1030   18.0240  -34.9350 C   0  0  0  0  0  0  0  0  0  0  0  0
   -6.8460   17.9690  -33.5890 C   0  0  0  0  0  0  0  0  0  0  0  0
   -6.7796   16.5625  -30.7096 H   0  0  0  0  0  0  0  0  0  0  0  0
   -5.0835   16.7426  -31.2730 H   0  0  0  0  0  0  0  0  0  0  0  0
   -6.1853   18.1613  -31.2730 H   0  0  0  0  0  0  0  0  0  0  0  0
   -5.2650   15.0732  -32.7266 H   0  0  0  0  0  0  0  0  0  0  0  0
   -6.0986   15.3711  -34.3144 H   0  0  0  0  0  0  0  0  0  0  0  0
   -3.7062   16.8378  -33.1324 H   0  0  0  0  0  0  0  0  0  0  0  0
   -3.8394   15.8804  -34.6868 H   0  0  0  0  0  0  0  0  0  0  0  0
   -2.9018   18.9643  -34.4676 H   0  0  0  0  0  0  0  0  0  0  0  0
   -4.4373   19.9041  -34.6475 H   0  0  0  0  0  0  0  0  0  0  0  0
   -4.9143   18.4015  -32.3657 H   0  0  0  0  0  0  0  0  0  0  0  0
   -3.1472   18.8032  -32.2369 H   0  0  0  0  0  0  0  0  0  0  0  0
   -6.5706   20.0605  -31.9903 H   0  0  0  0  0  0  0  0  0  0  0  0
   -7.0905   22.2866  -30.9996 H   0  0  0  0  0  0  0  0  0  0  0  0
   -4.8810   25.2990  -28.1360 H   0  0  0  0  0  0  0  0  0  0  0  0
   -4.4442   22.1483  -27.8493 H   0  0  0  0  0  0  0  0  0  0  0  0
    0.0879   24.0244  -28.7799 H   0  0  0  0  0  0  0  0  0  0  0  0
    0.5282   21.1150  -28.9316 H   0  0  0  0  0  0  0  0  0  0  0  0
    0.9804   22.0669  -27.4457 H   0  0  0  0  0  0  0  0  0  0  0  0
   -0.1140   20.5720  -26.0920 H   0  0  0  0  0  0  0  0  0  0  0  0
   -1.1341   19.2894  -28.5714 H   0  0  0  0  0  0  0  0  0  0  0  0
   -1.2911   18.6159  -26.9028 H   0  0  0  0  0  0  0  0  0  0  0  0
   -3.3252   19.8919  -27.7576 H   0  0  0  0  0  0  0  0  0  0  0  0
   -2.6333   20.4690  -26.1868 H   0  0  0  0  0  0  0  0  0  0  0  0
   -2.9361   23.4358  -31.3854 H   0  0  0  0  0  0  0  0  0  0  0  0
   -2.4065   21.2019  -32.3555 H   0  0  0  0  0  0  0  0  0  0  0  0
   -6.2642   19.0106  -35.3940 H   0  0  0  0  0  0  0  0  0  0  0  0
   -6.4957   17.2264  -35.5828 H   0  0  0  0  0  0  0  0  0  0  0  0
   -6.5583   18.8491  -32.9952 H   0  0  0  0  0  0  0  0  0  0  0  0
   -7.9231   17.9533  -33.8118 H   0  0  0  0  0  0  0  0  0  0  0  0
  1  2  1  0
  2  3  1  0
  3  4  1  0
  4  5  1  0
  5  6  1  0
  6  7  1  0
  7  8  1  0
  8  9  2  0
  9 10  1  0
 10 11  2  0
 11 12  1  0
 12 13  2  0
 12 14  2  0
 12 15  1  0
 15 16  1  0
 16 17  2  0
 17 18  1  0
 18 19  2  0
 19 20  1  0
 20 21  2  0
 21 22  1  0
 19 23  1  0
 23 24  1  0
 24 25  1  0
 25 26  1  0
 11 27  1  0
 27 28  2  0
  5 29  1  0
 29 30  1  0
 30  2  1  0
 28  8  1  0
 21 16  1  0
 26 18  1  0
  1 31  1  0
  1 32  1  0
  1 33  1  0
  3 34  1  0
  3 35  1  0
  4 36  1  0
  4 37  1  0
  6 38  1  0
  6 39  1  0
  7 40  1  0
  7 41  1  0
  9 42  1  0
 10 43  1  0
 15 44  1  0
 17 45  1  0
 20 46  1  0
 23 47  1  0
 23 48  1  0
 24 49  1  0
 25 50  1  0
 25 51  1  0
 26 52  1  0
 26 53  1  0
 27 54  1  0
 28 55  1  0
 29 56  1  0
 29 57  1  0
 30 58  1  0
 30 59  1  0
M  CHG  1  22  -1
M  END
>  <UniqueID>  (7) 
7

>  <SMILES>  (7) 
CN1CCN(CCc2ccc(S(=O)(=O)Nc3cc4c(cc3[O-])CNCC4)cc2)CC1

>  <Energy>  (7) 
75.77555424513744

>  <Genealogy>  (7) 
CN1CCN(CCc2ccc(S(=O)(=O)Nc3cc4c(cc3[O-])CNCC4)cc2)CC1 (protonated)
CN1CCN(CCc2ccc(S(=O)(=O)Nc3cc4c(cc3[O-])CNCC4)cc2)CC1 (3D coordinates assigned)
CN1CCN(CCc2ccc(S(=O)(=O)Nc3cc4c(cc3[O-])CNCC4)cc2)CC1 (nonaromatic ring conformer: 75.77555424513744 kcal/mol)

>  <smiles>  (7) 
CN1CCN(CCc2ccc(S(=O)(=O)Nc3cc4c(cc3O)CNCC4)cc2)CC1

>  <score_type>  (7) 
oracle

>  <origin>  (7) 
adgpu

>  <m_score__min__energy>  (7) 
-14.27

>  <m_primary>  (7) 
energy

$$$$
7:0
     RDKit          3D

 44 46  0  0  0  0  0  0  0  0999 V2000
   -9.8740   20.7110  -32.3390 C   0  0  0  0  0  0  0  0  0  0  0  0
   -8.5440   21.2860  -31.9290 C   0  0  0  0  0  0  0  0  0  0  0  0
   -8.4380   22.6630  -31.6730 C   0  0  0  0  0  0  0  0  0  0  0  0
   -7.2190   23.2230  -31.2890 C   0  0  0  0  0  0  0  0  0  0  0  0
   -6.0850   22.4150  -31.1510 C   0  0  0  0  0  0  0  0  0  0  0  0
   -4.5460   23.1060  -30.6500 S   0  0  0  0  0  0  0  0  0  0  0  0
   -4.3490   22.9740  -29.1660 O   0  0  0  0  0  0  0  0  0  0  0  0
   -4.5870   24.5710  -30.9850 O   0  0  0  0  0  0  0  0  0  0  0  0
   -3.1900   22.3240  -31.4920 C   0  0  0  0  0  0  0  0  0  0  0  0
   -3.4540   21.7420  -32.7450 C   0  0  0  0  0  0  0  0  0  0  0  0
   -2.4510   21.0860  -33.4570 C   0  0  0  0  0  0  0  0  0  0  0  0
   -1.1680   20.9960  -32.9280 C   0  0  0  0  0  0  0  0  0  0  0  0
   -0.8800   21.5690  -31.6910 C   0  0  0  0  0  0  0  0  0  0  0  0
   -1.8700   22.2500  -30.9580 C   0  0  0  0  0  0  0  0  0  0  0  0
   -1.4050   22.9460  -29.3900 S   0  0  0  0  0  0  0  0  0  0  0  0
    0.0500   23.3190  -29.3750 O   0  0  0  0  0  0  0  0  0  0  0  0
   -2.2230   24.1770  -29.1200 O   0  0  0  0  0  0  0  0  0  0  0  0
   -1.6540   21.7810  -28.0830 C   0  0  0  0  0  0  0  0  0  0  0  0
   -1.0360   21.9940  -26.8420 C   0  0  0  0  0  0  0  0  0  0  0  0
   -1.2090   21.0770  -25.8010 C   0  0  0  0  0  0  0  0  0  0  0  0
   -1.9950   19.9400  -25.9930 C   0  0  0  0  0  0  0  0  0  0  0  0
   -2.6080   19.7150  -27.2280 C   0  0  0  0  0  0  0  0  0  0  0  0
   -2.4390   20.6280  -28.2750 C   0  0  0  0  0  0  0  0  0  0  0  0
   -3.0240   20.3740  -29.4720 F   0  0  0  0  0  0  0  0  0  0  0  0
   -6.1730   21.0450  -31.4230 C   0  0  0  0  0  0  0  0  0  0  0  0
   -7.3940   20.4690  -31.8150 C   0  0  0  0  0  0  0  0  0  0  0  0
   -7.4580   18.9860  -32.0770 C   0  0  0  0  0  0  0  0  0  0  0  0
  -10.4570   20.4589  -31.4409 H   0  0  0  0  0  0  0  0  0  0  0  0
  -10.4247   21.4514  -32.9378 H   0  0  0  0  0  0  0  0  0  0  0  0
   -9.7118   19.8026  -32.9378 H   0  0  0  0  0  0  0  0  0  0  0  0
   -9.3244   23.3061  -31.7762 H   0  0  0  0  0  0  0  0  0  0  0  0
   -7.1493   24.3033  -31.0941 H   0  0  0  0  0  0  0  0  0  0  0  0
   -4.4669   21.8054  -33.1693 H   0  0  0  0  0  0  0  0  0  0  0  0
   -2.6744   20.6396  -34.4372 H   0  0  0  0  0  0  0  0  0  0  0  0
   -0.3791   20.4715  -33.4871 H   0  0  0  0  0  0  0  0  0  0  0  0
    0.1374   21.4879  -31.2807 H   0  0  0  0  0  0  0  0  0  0  0  0
   -0.4123   22.8867  -26.6871 H   0  0  0  0  0  0  0  0  0  0  0  0
   -0.7247   21.2520  -24.8290 H   0  0  0  0  0  0  0  0  0  0  0  0
   -2.1319   19.2209  -25.1719 H   0  0  0  0  0  0  0  0  0  0  0  0
   -3.2256   18.8172  -27.3779 H   0  0  0  0  0  0  0  0  0  0  0  0
   -5.2779   20.4126  -31.3291 H   0  0  0  0  0  0  0  0  0  0  0  0
   -7.4813   18.4452  -31.1194 H   0  0  0  0  0  0  0  0  0  0  0  0
   -8.3670   18.7540  -32.6514 H   0  0  0  0  0  0  0  0  0  0  0  0
   -6.5724   18.6766  -32.6514 H   0  0  0  0  0  0  0  0  0  0  0  0
  1  2  1  0
  2  3  2  0
  3  4  1  0
  4  5  2  0
  5  6  1  0
  6  7  2  0
  6  8  2  0
  6  9  1  0
  9 10  2  0
 10 11  1  0
 11 12  2  0
 12 13  1  0
 13 14  2  0
 14 15  1  0
 15 16  2  0
 15 17  2  0
 15 18  1  0
 18 19  2  0
 19 20  1  0
 20 21  2  0
 21 22  1  0
 22 23  2  0
 23 24  1  0
  5 25  1  0
 25 26  2  0
 26 27  1  0
 26  2  1  0
 14  9  1  0
 23 18  1  0
  1 28  1  0
  1 29  1  0
  1 30  1  0
  3 31  1  0
  4 32  1  0
 10 33  1  0
 11 34  1  0
 12 35  1  0
 13 36  1  0
 19 37  1  0
 20 38  1  0
 21 39  1  0
 22 40  1  0
 25 41  1  0
 27 42  1  0
 27 43  1  0
 27 44  1  0
M  END
>  <UniqueID>  (8) 
8

>  <SMILES>  (8) 
Cc1ccc(S(=O)(=O)c2ccccc2S(=O)(=O)c2ccccc2F)cc1C

>  <Energy>  (8) 
55.399258200345194

>  <Genealogy>  (8) 
Cc1ccc(S(=O)(=O)c2ccccc2S(=O)(=O)c2ccccc2F)cc1C (3D coordinates assigned)
Cc1ccc(S(=O)(=O)c2ccccc2S(=O)(=O)c2ccccc2F)cc1C (optimized conformer: 55.399258200345194 kcal/mol)

>  <smiles>  (8) 
Cc1ccc(S(=O)(=O)c2ccccc2S(=O)(=O)c2ccccc2F)cc1C

>  <score_type>  (8) 
oracle

>  <origin>  (8) 
adgpu

>  <m_score__min__energy>  (8) 
-10.07

>  <m_primary>  (8) 
energy

$$$$
8:0
     RDKit          3D

 47 49  0  0  0  0  0  0  0  0999 V2000
   -3.4560   18.7670  -25.6240 N   0  0  0  0  0  0  0  0  0  0  0  0
   -2.6980   19.0700  -26.4470 C   0  0  0  0  0  0  0  0  0  0  0  0
   -1.7540   19.4490  -27.4760 C   0  0  0  0  0  0  0  0  0  0  0  0
   -0.6780   18.5940  -27.7960 C   0  0  0  0  0  0  0  0  0  0  0  0
   -0.4920   17.3430  -27.1220 N   0  0  0  0  0  0  0  0  0  0  0  0
    0.2370   18.9760  -28.7850 C   0  0  0  0  0  0  0  0  0  0  0  0
    0.0890   20.1880  -29.4560 C   0  0  0  0  0  0  0  0  0  0  0  0
   -0.9840   21.0350  -29.1670 C   0  0  0  0  0  0  0  0  0  0  0  0
   -1.1320   22.5810  -30.0880 S   0  0  0  0  0  0  0  0  0  0  0  0
   -2.8130   22.2290  -30.6400 C   0  0  0  0  0  0  0  0  0  0  0  0
   -3.1210   20.9180  -31.0290 C   0  0  0  0  0  0  0  0  0  0  0  0
   -4.4260   20.5690  -31.3780 C   0  0  0  0  0  0  0  0  0  0  0  0
   -5.4390   21.5330  -31.3600 C   0  0  0  0  0  0  0  0  0  0  0  0
   -7.0970   21.0980  -31.7630 S   0  0  0  0  0  0  0  0  0  0  0  0
   -7.6980   22.1390  -32.6660 O   0  0  0  0  0  0  0  0  0  0  0  0
   -7.9030   21.0380  -30.4950 O   0  0  0  0  0  0  0  0  0  0  0  0
   -7.1270   19.5380  -32.5490 N   0  0  0  0  0  0  0  0  0  0  0  0
   -6.6010   18.5030  -31.6320 C   0  0  0  0  0  0  0  0  0  0  0  0
   -6.2000   17.2340  -32.3890 C   0  0  0  0  0  0  0  0  0  0  0  0
   -5.0730   17.5220  -33.3980 C   0  0  0  0  0  0  0  0  0  0  0  0
   -5.0400   18.9930  -33.8490 C   0  0  0  0  0  0  0  0  0  0  0  0
   -6.4510   19.5970  -33.8700 C   0  0  0  0  0  0  0  0  0  0  0  0
   -5.1370   22.8510  -30.9970 C   0  0  0  0  0  0  0  0  0  0  0  0
   -3.8250   23.2180  -30.6540 C   0  0  0  0  0  0  0  0  0  0  0  0
   -3.5400   24.5940  -30.3520 N   0  0  0  0  0  0  0  0  0  0  0  0
   -4.2330   25.5040  -30.8540 O   0  0  0  0  0  0  0  0  0  0  0  0
   -2.6720   24.9070  -29.3330 O   0  0  0  0  0  0  0  0  0  0  0  0
   -1.9040   20.6770  -28.1600 C   0  0  0  0  0  0  0  0  0  0  0  0
   -2.9680   21.5850  -27.7980 C   0  0  0  0  0  0  0  0  0  0  0  0
   -3.8170   22.3110  -27.4980 N   0  0  0  0  0  0  0  0  0  0  0  0
   -1.0930   17.0860  -26.3080 H   0  0  0  0  0  0  0  0  0  0  0  0
    0.2400   16.6620  -27.4150 H   0  0  0  0  0  0  0  0  0  0  0  0
    1.0793   18.3138  -29.0340 H   0  0  0  0  0  0  0  0  0  0  0  0
    0.8238   20.4808  -30.2204 H   0  0  0  0  0  0  0  0  0  0  0  0
   -2.3267   20.1576  -31.0594 H   0  0  0  0  0  0  0  0  0  0  0  0
   -4.6585   19.5337  -31.6679 H   0  0  0  0  0  0  0  0  0  0  0  0
   -5.7184   18.9023  -31.1109 H   0  0  0  0  0  0  0  0  0  0  0  0
   -7.3937   18.2415  -30.9156 H   0  0  0  0  0  0  0  0  0  0  0  0
   -5.8519   16.4803  -31.6674 H   0  0  0  0  0  0  0  0  0  0  0  0
   -7.0770   16.8653  -32.9412 H   0  0  0  0  0  0  0  0  0  0  0  0
   -4.1091   17.2764  -32.9283 H   0  0  0  0  0  0  0  0  0  0  0  0
   -5.2603   16.9056  -34.2896 H   0  0  0  0  0  0  0  0  0  0  0  0
   -4.4133   19.5684  -33.1517 H   0  0  0  0  0  0  0  0  0  0  0  0
   -4.6263   19.0367  -34.8673 H   0  0  0  0  0  0  0  0  0  0  0  0
   -6.3770   20.6501  -34.1792 H   0  0  0  0  0  0  0  0  0  0  0  0
   -7.0525   19.0036  -34.5743 H   0  0  0  0  0  0  0  0  0  0  0  0
   -5.9356   23.6073  -30.9802 H   0  0  0  0  0  0  0  0  0  0  0  0
  1  2  3  0
  2  3  1  0
  3  4  2  0
  4  5  1  0
  4  6  1  0
  6  7  2  0
  7  8  1  0
  8  9  1  0
  9 10  1  0
 10 11  2  0
 11 12  1  0
 12 13  2  0
 13 14  1  0
 14 15  2  0
 14 16  2  0
 14 17  1  0
 17 18  1  0
 18 19  1  0
 19 20  1  0
 20 21  1  0
 21 22  1  0
 13 23  1  0
 23 24  2  0
 24 25  1  0
 25 26  2  0
 25 27  1  0
  8 28  2  0
 28 29  1  0
 29 30  3  0
 28  3  1  0
 24 10  1  0
 22 17  1  0
  5 31  1  0
  5 32  1  0
  6 33  1  0
  7 34  1  0
 11 35  1  0
 12 36  1  0
 18 37  1  0
 18 38  1  0
 19 39  1  0
 19 40  1  0
 20 41  1  0
 20 42  1  0
 21 43  1  0
 21 44  1  0
 22 45  1  0
 22 46  1  0
 23 47  1  0
M  CHG  2  25   1  27  -1
M  END
>  <UniqueID>  (9) 
9

>  <SMILES>  (9) 
N#Cc1c(N)ccc(Sc2ccc(S(=O)(=O)N3CCCCC3)cc2[N+](=O)[O-])c1C#N

>  <Energy>  (9) 
56.02485592661017

>  <Genealogy>  (9) 
N#Cc1c(N)ccc(Sc2ccc(S(=O)(=O)N3CCCCC3)cc2[N+](=O)[O-])c1C#N (3D coordinates assigned)
N#Cc1c(N)ccc(Sc2ccc(S(=O)(=O)N3CCCCC3)cc2[N+](=O)[O-])c1C#N (nonaromatic ring conformer: 56.02485592661017 kcal/mol)

>  <smiles>  (9) 
N#Cc1c(N)ccc(Sc2ccc(S(=O)(=O)N3CCCCC3)cc2[N+](=O)[O-])c1C#N

>  <score_type>  (9) 
oracle

>  <origin>  (9) 
adgpu

>  <m_score__min__energy>  (9) 
-10.81

>  <m_primary>  (9) 
energy

$$$$
9:0
     RDKit          3D

 34 35  0  0  0  0  0  0  0  0999 V2000
   -7.8720   19.8480  -33.4290 N   0  0  0  0  0  0  0  0  0  0  0  0
   -8.5820   20.5610  -32.0230 S   0  0  0  0  0  0  0  0  0  0  0  0
   -9.9980   20.9640  -32.3260 O   0  0  0  0  0  0  0  0  0  0  0  0
   -8.5970   19.5530  -30.9080 O   0  0  0  0  0  0  0  0  0  0  0  0
   -7.6550   21.9780  -31.5420 C   0  0  0  0  0  0  0  0  0  0  0  0
   -7.6050   22.3720  -30.1970 C   0  0  0  0  0  0  0  0  0  0  0  0
   -6.8650   23.4950  -29.8210 C   0  0  0  0  0  0  0  0  0  0  0  0
   -6.1560   24.2320  -30.7830 C   0  0  0  0  0  0  0  0  0  0  0  0
   -5.3320   25.4220  -30.3670 C   0  0  0  0  0  0  0  0  0  0  0  0
   -3.9510   25.2970  -30.8360 N   0  0  0  0  0  0  0  0  0  0  0  0
   -2.9780   24.3780  -29.7210 S   0  0  0  0  0  0  0  0  0  0  0  0
   -1.7710   25.1800  -29.3160 O   0  0  0  0  0  0  0  0  0  0  0  0
   -3.7910   24.0800  -28.4930 O   0  0  0  0  0  0  0  0  0  0  0  0
   -2.4840   22.8530  -30.4530 C   0  0  0  0  0  0  0  0  0  0  0  0
   -3.3190   22.2350  -31.3950 C   0  0  0  0  0  0  0  0  0  0  0  0
   -2.9270   21.0380  -32.0020 C   0  0  0  0  0  0  0  0  0  0  0  0
   -1.7050   20.4490  -31.6650 C   0  0  0  0  0  0  0  0  0  0  0  0
   -0.8710   21.0600  -30.7240 C   0  0  0  0  0  0  0  0  0  0  0  0
   -1.2590   22.2580  -30.1170 C   0  0  0  0  0  0  0  0  0  0  0  0
   -6.2080   23.8360  -32.1290 C   0  0  0  0  0  0  0  0  0  0  0  0
   -6.9480   22.7110  -32.5040 C   0  0  0  0  0  0  0  0  0  0  0  0
   -8.2550   20.3580  -34.2550 H   0  0  0  0  0  0  0  0  0  0  0  0
   -8.2300   18.8680  -33.4860 H   0  0  0  0  0  0  0  0  0  0  0  0
   -8.1503   21.7947  -29.4359 H   0  0  0  0  0  0  0  0  0  0  0  0
   -6.8374   23.8038  -28.7656 H   0  0  0  0  0  0  0  0  0  0  0  0
   -5.7755   26.3332  -30.7947 H   0  0  0  0  0  0  0  0  0  0  0  0
   -5.3243   25.4746  -29.2683 H   0  0  0  0  0  0  0  0  0  0  0  0
   -4.2843   22.6929  -31.6569 H   0  0  0  0  0  0  0  0  0  0  0  0
   -3.5811   20.5592  -32.7456 H   0  0  0  0  0  0  0  0  0  0  0  0
   -1.3997   19.5050  -32.1401 H   0  0  0  0  0  0  0  0  0  0  0  0
    0.0917   20.5975  -30.4609 H   0  0  0  0  0  0  0  0  0  0  0  0
   -0.6024   22.7350  -29.3745 H   0  0  0  0  0  0  0  0  0  0  0  0
   -5.6643   24.4133  -32.8914 H   0  0  0  0  0  0  0  0  0  0  0  0
   -6.9753   22.4000  -33.5588 H   0  0  0  0  0  0  0  0  0  0  0  0
  1  2  1  0
  2  3  2  0
  2  4  2  0
  2  5  1  0
  5  6  2  0
  6  7  1  0
  7  8  2  0
  8  9  1  0
  9 10  1  0
 10 11  1  0
 11 12  2  0
 11 13  2  0
 11 14  1  0
 14 15  2  0
 15 16  1  0
 16 17  2  0
 17 18  1  0
 18 19  2  0
  8 20  1  0
 20 21  2  0
 21  5  1  0
 19 14  1  0
  1 22  1  0
  1 23  1  0
  6 24  1  0
  7 25  1  0
  9 26  1  0
  9 27  1  0
 15 28  1  0
 16 29  1  0
 17 30  1  0
 18 31  1  0
 19 32  1  0
 20 33  1  0
 21 34  1  0
M  CHG  1  10  -1
M  END
>  <UniqueID>  (10) 
10

>  <SMILES>  (10) 
NS(=O)(=O)c1ccc(C[N-]S(=O)(=O)c2ccccc2)cc1

>  <Energy>  (10) 
27.75350127231433

>  <Genealogy>  (10) 
NS(=O)(=O)c1ccc(C[N-]S(=O)(=O)c2ccccc2)cc1 (protonated)
NS(=O)(=O)c1ccc(C[N-]S(=O)(=O)c2ccccc2)cc1 (3D coordinates assigned)
NS(=O)(=O)c1ccc(C[N-]S(=O)(=O)c2ccccc2)cc1 (optimized conformer: 27.75350127231433 kcal/mol)

>  <smiles>  (10) 
NS(=O)(=O)c1ccc(CNS(=O)(=O)c2ccccc2)cc1

>  <score_type>  (10) 
oracle

>  <origin>  (10) 
adgpu

>  <m_score__min__energy>  (10) 
-9.8599999999999994

>  <m_primary>  (10) 
energy

$$$$
10:0
     RDKit          3D

 50 54  0  0  1  0  0  0  0  0999 V2000
   -5.6660   24.1460  -29.5300 O   0  0  0  0  0  0  0  0  0  0  0  0
   -4.2220   24.1360  -29.9460 S   0  0  0  0  0  0  0  0  0  0  0  0
   -3.8880   25.3540  -30.7450 O   0  0  0  0  0  0  0  0  0  0  0  0
   -3.9490   22.6910  -30.8940 C   0  0  0  0  0  0  0  0  0  0  0  0
   -3.2990   21.5800  -30.4010 C   0  0  0  0  0  0  0  0  0  0  0  0
   -3.0870   20.4410  -31.1590 C   0  0  0  0  0  0  0  0  0  0  0  0
   -3.5560   20.4000  -32.5100 C   0  0  0  0  0  0  0  0  0  0  0  0
   -3.2620   19.3920  -33.2770 N   0  0  0  0  0  0  0  0  0  0  0  0
   -3.6570   18.3540  -33.7110 C   0  0  0  0  0  0  0  0  0  0  0  0
   -2.8300   17.6680  -34.5600 N   0  0  0  0  0  0  0  0  0  0  0  0
   -3.1630   16.5690  -35.2150 C   0  0  0  0  0  0  0  0  0  0  0  0
   -4.4050   16.1020  -35.0240 N   0  0  0  0  0  0  0  0  0  0  0  0
   -5.2250   16.7640  -34.1900 C   0  0  0  0  0  0  0  0  0  0  0  0
   -6.8550   16.2740  -33.8860 S   0  0  0  0  0  0  0  0  0  0  0  0
   -7.1660   17.6590  -32.7460 C   0  0  0  0  0  0  0  0  0  0  0  0
   -5.9310   18.3990  -32.7010 C   0  0  0  0  0  0  0  0  0  0  0  0
   -4.9690   17.8920  -33.4760 C   0  0  0  0  0  0  0  0  0  0  0  0
   -6.1980   19.4610  -31.6620 C   0  0  0  0  0  0  0  0  0  0  0  0
   -7.2770   20.3170  -32.2320 C   0  0  0  0  0  0  0  0  0  0  0  0
   -8.5760   19.5730  -32.0900 C   0  0  0  0  0  0  0  0  0  0  0  0
   -8.3220   18.1070  -32.0080 C   0  0  0  0  0  0  0  0  0  0  0  0
   -4.2210   21.5520  -32.9980 C   0  0  0  0  0  0  0  0  0  0  0  0
   -4.4000   22.6560  -32.1910 C   0  0  0  0  0  0  0  0  0  0  0  0
   -3.2390   24.0280  -28.5290 N   0  0  0  0  0  0  0  0  0  0  0  0
   -3.9460   24.5490  -27.3750 C   0  0  0  0  0  0  0  0  0  0  0  0
   -2.8210   24.8690  -26.3820 C   0  0  0  0  0  0  0  0  0  0  0  0
   -1.5830   25.1050  -27.2290 C   0  0  0  0  0  0  0  0  0  0  0  0
   -2.1260   24.9500  -28.6410 C   0  0  0  0  0  0  0  0  0  0  0  0
   -2.9340   21.5991  -29.3635 H   0  0  0  0  0  0  0  0  0  0  0  0
   -2.5630   19.5759  -30.7266 H   0  0  0  0  0  0  0  0  0  0  0  0
   -2.4540   16.0614  -35.8855 H   0  0  0  0  0  0  0  0  0  0  0  0
   -4.6730   15.2390  -35.5390 H   0  0  0  0  0  0  0  0  0  0  0  0
   -6.5302   19.0012  -30.7195 H   0  0  0  0  0  0  0  0  0  0  0  0
   -5.2935   20.0440  -31.4341 H   0  0  0  0  0  0  0  0  0  0  0  0
   -7.3289   21.2689  -31.6832 H   0  0  0  0  0  0  0  0  0  0  0  0
   -7.0740   20.5379  -33.2903 H   0  0  0  0  0  0  0  0  0  0  0  0
   -9.0870   19.9052  -31.1743 H   0  0  0  0  0  0  0  0  0  0  0  0
   -9.2064   19.7799  -32.9674 H   0  0  0  0  0  0  0  0  0  0  0  0
   -8.1786   17.8416  -30.9502 H   0  0  0  0  0  0  0  0  0  0  0  0
   -9.1939   17.6121  -32.4606 H   0  0  0  0  0  0  0  0  0  0  0  0
   -4.5984   21.5660  -34.0311 H   0  0  0  0  0  0  0  0  0  0  0  0
   -4.9199   23.5356  -32.5985 H   0  0  0  0  0  0  0  0  0  0  0  0
   -4.5103   25.4564  -27.6360 H   0  0  0  0  0  0  0  0  0  0  0  0
   -4.6868   23.8433  -26.9711 H   0  0  0  0  0  0  0  0  0  0  0  0
   -3.0664   25.7704  -25.8013 H   0  0  0  0  0  0  0  0  0  0  0  0
   -2.6707   24.0524  -25.6605 H   0  0  0  0  0  0  0  0  0  0  0  0
   -1.1751   26.1137  -27.0670 H   0  0  0  0  0  0  0  0  0  0  0  0
   -0.7526   24.4217  -26.9976 H   0  0  0  0  0  0  0  0  0  0  0  0
   -2.4683   25.9204  -29.0299 H   0  0  0  0  0  0  0  0  0  0  0  0
   -1.3575   24.5795  -29.3353 H   0  0  0  0  0  0  0  0  0  0  0  0
  1  2  2  0
  2  3  2  0
  2  4  1  0
  4  5  2  0
  5  6  1  0
  6  7  2  0
  7  8  1  0
  8  9  2  0
  9 10  1  0
 10 11  2  0
 11 12  1  0
 12 13  1  0
 13 14  1  0
 14 15  1  0
 15 16  2  0
 16 17  1  0
 16 18  1  0
 18 19  1  0
 19 20  1  0
 20 21  1  0
  7 22  1  0
 22 23  2  0
  2 24  1  0
 24 25  1  0
 25 26  1  0
 26 27  1  0
 27 28  1  0
 23  4  1  0
 28 24  1  0
 17  9  1  0
 17 13  2  0
 21 15  1  0
  5 29  1  0
  6 30  1  0
 11 31  1  0
 12 32  1  0
 18 33  1  0
 18 34  1  0
 19 35  1  0
 19 36  1  0
 20 37  1  0
 20 38  1  0
 21 39  1  0
 21 40  1  0
 22 41  1  0
 23 42  1  0
 25 43  1  0
 25 44  1  0
 26 45  1  0
 26 46  1  0
 27 47  1  0
 27 48  1  0
 28 49  1  0
 28 50  1  0
M  END
>  <smiles>  (11) 
O=S(=O)(c1ccc(N=c2nc[nH]c3sc4c(c23)CCCC4)cc1)N1CCCC1

>  <score_type>  (11) 
oracle

>  <origin>  (11) 
adgpu

>  <m_score__min__energy>  (11) 
-10.199999999999999

>  <m_primary>  (11) 
energy

$$$$
11:0
     RDKit          3D

 50 53  0  0  0  0  0  0  0  0999 V2000
   -3.8570   25.3340  -30.6690 O   0  0  0  0  0  0  0  0  0  0  0  0
   -3.9480   23.8970  -30.2380 S   0  0  0  0  0  0  0  0  0  0  0  0
   -5.0440   23.7750  -29.2170 O   0  0  0  0  0  0  0  0  0  0  0  0
   -4.3350   22.8880  -31.5920 N   0  0  0  0  0  0  0  0  0  0  0  0
   -5.5830   22.2040  -31.6950 C   0  0  0  0  0  0  0  0  0  0  0  0
   -5.5790   20.8260  -31.9330 C   0  0  0  0  0  0  0  0  0  0  0  0
   -6.7770   20.1330  -32.1100 C   0  0  0  0  0  0  0  0  0  0  0  0
   -8.0040   20.8120  -32.0010 C   0  0  0  0  0  0  0  0  0  0  0  0
   -8.0120   22.1880  -31.7380 C   0  0  0  0  0  0  0  0  0  0  0  0
   -6.8110   22.8860  -31.5670 C   0  0  0  0  0  0  0  0  0  0  0  0
   -6.8650   24.2430  -31.2500 O   0  0  0  0  0  0  0  0  0  0  0  0
   -9.3000   20.0730  -32.2260 C   0  0  0  0  0  0  0  0  0  0  0  0
   -9.1390   18.5630  -31.9990 C   0  0  0  0  0  0  0  0  0  0  0  0
   -7.9210   18.0400  -32.7630 C   0  0  0  0  0  0  0  0  0  0  0  0
   -6.7500   18.7600  -32.3790 O   0  0  0  0  0  0  0  0  0  0  0  0
   -2.3840   23.4030  -29.5830 C   0  0  0  0  0  0  0  0  0  0  0  0
   -2.1250   22.0330  -29.4410 C   0  0  0  0  0  0  0  0  0  0  0  0
   -0.8990   21.5850  -28.9310 C   0  0  0  0  0  0  0  0  0  0  0  0
   -0.5970   19.8580  -28.7300 S   0  0  0  0  0  0  0  0  0  0  0  0
   -1.7080   19.2550  -27.9160 O   0  0  0  0  0  0  0  0  0  0  0  0
    0.6870   19.6670  -27.9730 O   0  0  0  0  0  0  0  0  0  0  0  0
   -0.4900   19.0250  -30.2680 N   0  0  0  0  0  0  0  0  0  0  0  0
   -1.5140   19.5030  -31.2030 C   0  0  0  0  0  0  0  0  0  0  0  0
   -0.8800   20.5450  -32.1150 C   0  0  0  0  0  0  0  0  0  0  0  0
    0.6180   20.3780  -31.9480 C   0  0  0  0  0  0  0  0  0  0  0  0
    0.8020   19.2740  -30.9160 C   0  0  0  0  0  0  0  0  0  0  0  0
    0.0810   22.5180  -28.5770 C   0  0  0  0  0  0  0  0  0  0  0  0
   -0.1690   23.8850  -28.7110 C   0  0  0  0  0  0  0  0  0  0  0  0
   -1.3960   24.3340  -29.2100 C   0  0  0  0  0  0  0  0  0  0  0  0
   -1.6140   25.7020  -29.3290 O   0  0  0  0  0  0  0  0  0  0  0  0
   -4.6232   20.2837  -31.9811 H   0  0  0  0  0  0  0  0  0  0  0  0
   -8.9698   22.7241  -31.6653 H   0  0  0  0  0  0  0  0  0  0  0  0
   -6.0670   24.7510  -30.8890 H   0  0  0  0  0  0  0  0  0  0  0  0
  -10.0569   20.4598  -31.5278 H   0  0  0  0  0  0  0  0  0  0  0  0
   -9.6089   20.2320  -33.2697 H   0  0  0  0  0  0  0  0  0  0  0  0
   -9.0043   18.3695  -30.9245 H   0  0  0  0  0  0  0  0  0  0  0  0
  -10.0396   18.0475  -32.3638 H   0  0  0  0  0  0  0  0  0  0  0  0
   -7.7814   16.9726  -32.5368 H   0  0  0  0  0  0  0  0  0  0  0  0
   -8.0885   18.1774  -33.8415 H   0  0  0  0  0  0  0  0  0  0  0  0
   -2.8926   21.3012  -29.7331 H   0  0  0  0  0  0  0  0  0  0  0  0
   -1.8903   18.6622  -31.8042 H   0  0  0  0  0  0  0  0  0  0  0  0
   -2.3555   19.9454  -30.6497 H   0  0  0  0  0  0  0  0  0  0  0  0
   -1.1716   20.3680  -33.1608 H   0  0  0  0  0  0  0  0  0  0  0  0
   -1.2066   21.5633  -31.8573 H   0  0  0  0  0  0  0  0  0  0  0  0
    1.0797   20.0893  -32.9037 H   0  0  0  0  0  0  0  0  0  0  0  0
    1.0956   21.3153  -31.6264 H   0  0  0  0  0  0  0  0  0  0  0  0
    1.1516   18.3565  -31.4120 H   0  0  0  0  0  0  0  0  0  0  0  0
    1.5479   19.5779  -30.1668 H   0  0  0  0  0  0  0  0  0  0  0  0
    1.0520   22.1736  -28.1917 H   0  0  0  0  0  0  0  0  0  0  0  0
    0.6034   24.6131  -28.4225 H   0  0  0  0  0  0  0  0  0  0  0  0
  1  2  2  0
  2  3  2  0
  2  4  1  0
  4  5  1  0
  5  6  2  0
  6  7  1  0
  7  8  2  0
  8  9  1  0
  9 10  2  0
 10 11  1  0
  8 12  1  0
 12 13  1  0
 13 14  1  0
 14 15  1  0
  2 16  1  0
 16 17  2  0
 17 18  1  0
 18 19  1  0
 19 20  2  0
 19 21  2  0
 19 22  1  0
 22 23  1  0
 23 24  1  0
 24 25  1  0
 25 26  1  0
 18 27  2  0
 27 28  1  0
 28 29  2  0
 29 30  1  0
 10  5  1  0
 29 16  1  0
 15  7  1  0
 26 22  1  0
  6 31  1  0
  9 32  1  0
 11 33  1  0
 12 34  1  0
 12 35  1  0
 13 36  1  0
 13 37  1  0
 14 38  1  0
 14 39  1  0
 17 40  1  0
 23 41  1  0
 23 42  1  0
 24 43  1  0
 24 44  1  0
 25 45  1  0
 25 46  1  0
 26 47  1  0
 26 48  1  0
 27 49  1  0
 28 50  1  0
M  CHG  2   4  -1  30  -1
M  END
>  <UniqueID>  (12) 
11

>  <SMILES>  (12) 
O=S(=O)([N-]c1cc2c(cc1O)CCCO2)c1cc(S(=O)(=O)N2CCCC2)ccc1[O-]

>  <Energy>  (12) 
61.31949398657017

>  <Genealogy>  (12) 
O=S(=O)([N-]c1cc2c(cc1O)CCCO2)c1cc(S(=O)(=O)N2CCCC2)ccc1[O-] (protonated)
O=S(=O)([N-]c1cc2c(cc1O)CCCO2)c1cc(S(=O)(=O)N2CCCC2)ccc1[O-] (3D coordinates assigned)
O=S(=O)([N-]c1cc2c(cc1O)CCCO2)c1cc(S(=O)(=O)N2CCCC2)ccc1[O-] (nonaromatic ring conformer: 61.31949398657017 kcal/mol)

>  <smiles>  (12) 
O=S(=O)(Nc1cc2c(cc1O)CCCO2)c1cc(S(=O)(=O)N2CCCC2)ccc1O

>  <score_type>  (12) 
oracle

>  <origin>  (12) 
adgpu

>  <m_score__min__energy>  (12) 
-13.77

>  <m_primary>  (12) 
energy

$$$$
12:0
     RDKit          3D

 58 61  0  0  0  0  0  0  0  0999 V2000
   -5.9840   25.8080  -30.8600 O   0  0  0  0  0  0  0  0  0  0  0  0
   -5.0410   24.9790  -30.9610 C   0  0  0  0  0  0  0  0  0  0  0  0
   -3.7700   25.2930  -30.3900 N   0  0  0  0  0  0  0  0  0  0  0  0
   -3.1320   24.4830  -29.3950 C   0  0  0  0  0  0  0  0  0  0  0  0
   -3.7410   23.2900  -28.9940 C   0  0  0  0  0  0  0  0  0  0  0  0
   -3.1720   22.5110  -27.9860 C   0  0  0  0  0  0  0  0  0  0  0  0
   -1.9830   22.9140  -27.3790 C   0  0  0  0  0  0  0  0  0  0  0  0
   -1.3360   24.0850  -27.7950 C   0  0  0  0  0  0  0  0  0  0  0  0
    0.2180   24.5190  -27.0720 S   0  0  0  0  0  0  0  0  0  0  0  0
    0.7780   23.3380  -26.3310 O   0  0  0  0  0  0  0  0  0  0  0  0
    1.1890   24.8910  -28.1590 O   0  0  0  0  0  0  0  0  0  0  0  0
   -0.0090   25.8570  -25.9730 N   0  0  0  0  0  0  0  0  0  0  0  0
   -0.4910   25.3620  -24.6710 C   0  0  0  0  0  0  0  0  0  0  0  0
   -0.9410   26.5260  -23.7690 C   0  0  0  0  0  0  0  0  0  0  0  0
   -0.5560   27.7720  -24.3140 O   0  0  0  0  0  0  0  0  0  0  0  0
   -1.2190   27.9750  -25.5490 C   0  0  0  0  0  0  0  0  0  0  0  0
   -0.9660   26.8190  -26.5410 C   0  0  0  0  0  0  0  0  0  0  0  0
   -1.9040   24.8660  -28.8200 C   0  0  0  0  0  0  0  0  0  0  0  0
   -1.2450   25.9960  -29.2880 O   0  0  0  0  0  0  0  0  0  0  0  0
   -5.2010   23.7760  -31.7250 N   0  0  0  0  0  0  0  0  0  0  0  0
   -6.3780   22.9590  -31.8210 C   0  0  0  0  0  0  0  0  0  0  0  0
   -7.6650   23.5210  -31.8370 C   0  0  0  0  0  0  0  0  0  0  0  0
   -8.7870   22.7010  -31.9230 C   0  0  0  0  0  0  0  0  0  0  0  0
   -8.6410   21.3160  -31.9670 C   0  0  0  0  0  0  0  0  0  0  0  0
   -7.3680   20.7260  -31.9200 C   0  0  0  0  0  0  0  0  0  0  0  0
   -7.2710   18.9510  -31.8980 S   0  0  0  0  0  0  0  0  0  0  0  0
   -6.2890   18.4960  -30.8540 O   0  0  0  0  0  0  0  0  0  0  0  0
   -8.6180   18.4070  -31.5030 O   0  0  0  0  0  0  0  0  0  0  0  0
   -6.8300   18.2680  -33.4480 N   0  0  0  0  0  0  0  0  0  0  0  0
   -5.7070   18.9800  -34.0530 C   0  0  0  0  0  0  0  0  0  0  0  0
   -5.0130   17.9940  -34.9850 C   0  0  0  0  0  0  0  0  0  0  0  0
   -5.5290   16.6230  -34.5760 C   0  0  0  0  0  0  0  0  0  0  0  0
   -6.3980   16.8760  -33.3570 C   0  0  0  0  0  0  0  0  0  0  0  0
   -6.2240   21.5630  -31.8550 C   0  0  0  0  0  0  0  0  0  0  0  0
   -4.9230   21.0550  -31.8470 O   0  0  0  0  0  0  0  0  0  0  0  0
   -4.6743   22.9636  -29.4761 H   0  0  0  0  0  0  0  0  0  0  0  0
   -3.6617   21.5781  -27.6698 H   0  0  0  0  0  0  0  0  0  0  0  0
   -1.5504   22.3088  -26.5686 H   0  0  0  0  0  0  0  0  0  0  0  0
   -1.3424   24.6855  -24.8364 H   0  0  0  0  0  0  0  0  0  0  0  0
    0.3328   24.8308  -24.1718 H   0  0  0  0  0  0  0  0  0  0  0  0
   -2.0362   26.5006  -23.6697 H   0  0  0  0  0  0  0  0  0  0  0  0
   -0.4603   26.4117  -22.7862 H   0  0  0  0  0  0  0  0  0  0  0  0
   -2.3003   28.0522  -25.3626 H   0  0  0  0  0  0  0  0  0  0  0  0
   -0.8244   28.8987  -25.9975 H   0  0  0  0  0  0  0  0  0  0  0  0
   -1.9162   26.3053  -26.7491 H   0  0  0  0  0  0  0  0  0  0  0  0
   -0.5481   27.2316  -27.4711 H   0  0  0  0  0  0  0  0  0  0  0  0
   -7.7870   24.6128  -31.7814 H   0  0  0  0  0  0  0  0  0  0  0  0
   -9.7916   23.1479  -31.9563 H   0  0  0  0  0  0  0  0  0  0  0  0
   -9.5337   20.6774  -32.0394 H   0  0  0  0  0  0  0  0  0  0  0  0
   -6.0711   19.8478  -34.6226 H   0  0  0  0  0  0  0  0  0  0  0  0
   -5.0140   19.3516  -33.2838 H   0  0  0  0  0  0  0  0  0  0  0  0
   -5.2724   18.2064  -36.0327 H   0  0  0  0  0  0  0  0  0  0  0  0
   -3.9176   18.0592  -34.9085 H   0  0  0  0  0  0  0  0  0  0  0  0
   -6.1222   16.1757  -35.3872 H   0  0  0  0  0  0  0  0  0  0  0  0
   -4.7097   15.9214  -34.3602 H   0  0  0  0  0  0  0  0  0  0  0  0
   -7.2695   16.2048  -33.3637 H   0  0  0  0  0  0  0  0  0  0  0  0
   -5.8460   16.6872  -32.4244 H   0  0  0  0  0  0  0  0  0  0  0  0
   -4.0960   21.6250  -31.7800 H   0  0  0  0  0  0  0  0  0  0  0  0
  1  2  2  0
  2  3  1  0
  3  4  1  0
  4  5  2  0
  5  6  1  0
  6  7  2  0
  7  8  1  0
  8  9  1  0
  9 10  2  0
  9 11  2  0
  9 12  1  0
 12 13  1  0
 13 14  1  0
 14 15  1  0
 15 16  1  0
 16 17  1  0
  8 18  2  0
 18 19  1  0
  2 20  1  0
 20 21  1  0
 21 22  2  0
 22 23  1  0
 23 24  2  0
 24 25  1  0
 25 26  1  0
 26 27  2  0
 26 28  2  0
 26 29  1  0
 29 30  1  0
 30 31  1  0
 31 32  1  0
 32 33  1  0
 25 34  2  0
 34 35  1  0
 18  4  1  0
 34 21  1  0
 17 12  1  0
 33 29  1  0
  5 36  1  0
  6 37  1  0
  7 38  1  0
 13 39  1  0
 13 40  1  0
 14 41  1  0
 14 42  1  0
 16 43  1  0
 16 44  1  0
 17 45  1  0
 17 46  1  0
 22 47  1  0
 23 48  1  0
 24 49  1  0
 30 50  1  0
 30 51  1  0
 31 52  1  0
 31 53  1  0
 32 54  1  0
 32 55  1  0
 33 56  1  0
 33 57  1  0
 35 58  1  0
M  CHG  3   3  -1  19  -1  20  -1
M  END
>  <UniqueID>  (13) 
12

>  <SMILES>  (13) 
O=C([N-]c1cccc(S(=O)(=O)N2CCOCC2)c1[O-])[N-]c1cccc(S(=O)(=O)N2CCCC2)c1O

>  <Energy>  (13) 
82.90065882635182

>  <Genealogy>  (13) 
O=C([N-]c1cccc(S(=O)(=O)N2CCOCC2)c1[O-])[N-]c1cccc(S(=O)(=O)N2CCCC2)c1O (protonated)
O=C([N-]c1cccc(S(=O)(=O)N2CCOCC2)c1[O-])[N-]c1cccc(S(=O)(=O)N2CCCC2)c1O (3D coordinates assigned)
O=C([N-]c1cccc(S(=O)(=O)N2CCOCC2)c1[O-])[N-]c1cccc(S(=O)(=O)N2CCCC2)c1O (nonaromatic ring conformer: 82.90065882635182 kcal/mol)

>  <smiles>  (13) 
O=C(Nc1cccc(S(=O)(=O)N2CCCC2)c1O)Nc1cccc(S(=O)(=O)N2CCOCC2)c1O

>  <score_type>  (13) 
oracle

>  <origin>  (13) 
adgpu

>  <m_score__min__energy>  (13) 
-16.460000000000001

>  <m_primary>  (13) 
energy

$$$$
13:0
     RDKit          3D

 46 48  0  0  0  0  0  0  0  0999 V2000
   -0.8980   18.9020  -28.1180 C   0  0  0  0  0  0  0  0  0  0  0  0
   -0.5590   20.3690  -28.1650 C   0  0  0  0  0  0  0  0  0  0  0  0
   -0.1970   20.9930  -26.9610 C   0  0  0  0  0  0  0  0  0  0  0  0
    0.0920   22.3510  -26.9170 C   0  0  0  0  0  0  0  0  0  0  0  0
    0.0270   23.1290  -28.0790 C   0  0  0  0  0  0  0  0  0  0  0  0
    0.2950   24.5400  -28.0380 N   0  0  0  0  0  0  0  0  0  0  0  0
   -0.6830   25.5840  -28.0130 C   0  0  0  0  0  0  0  0  0  0  0  0
   -0.5770   26.5000  -27.1530 O   0  0  0  0  0  0  0  0  0  0  0  0
   -1.7710   25.5870  -28.9450 N   0  0  0  0  0  0  0  0  0  0  0  0
   -2.8740   24.6710  -28.9430 C   0  0  0  0  0  0  0  0  0  0  0  0
   -2.9810   23.7540  -27.8890 C   0  0  0  0  0  0  0  0  0  0  0  0
   -4.0440   22.8490  -27.8430 C   0  0  0  0  0  0  0  0  0  0  0  0
   -5.0190   22.8640  -28.8420 C   0  0  0  0  0  0  0  0  0  0  0  0
   -4.9430   23.7950  -29.8810 C   0  0  0  0  0  0  0  0  0  0  0  0
   -5.9100   23.8240  -30.8320 F   0  0  0  0  0  0  0  0  0  0  0  0
   -3.8830   24.7110  -29.9290 C   0  0  0  0  0  0  0  0  0  0  0  0
   -3.8620   25.6730  -30.9340 O   0  0  0  0  0  0  0  0  0  0  0  0
   -0.3750   22.5340  -29.2890 C   0  0  0  0  0  0  0  0  0  0  0  0
   -0.4920   23.3150  -30.4420 O   0  0  0  0  0  0  0  0  0  0  0  0
   -0.6560   21.1480  -29.3520 C   0  0  0  0  0  0  0  0  0  0  0  0
   -1.1190   20.4390  -30.9280 S   0  0  0  0  0  0  0  0  0  0  0  0
   -0.2090   20.9180  -32.0250 O   0  0  0  0  0  0  0  0  0  0  0  0
   -0.9630   18.9450  -30.8570 O   0  0  0  0  0  0  0  0  0  0  0  0
   -2.7720   20.8120  -31.3650 N   0  0  0  0  0  0  0  0  0  0  0  0
   -3.4140   19.6630  -32.0230 C   0  0  0  0  0  0  0  0  0  0  0  0
   -4.8000   20.0580  -32.5750 C   0  0  0  0  0  0  0  0  0  0  0  0
   -5.1980   21.3280  -32.0970 O   0  0  0  0  0  0  0  0  0  0  0  0
   -4.3050   22.3220  -32.5710 C   0  0  0  0  0  0  0  0  0  0  0  0
   -2.8340   21.9910  -32.2400 C   0  0  0  0  0  0  0  0  0  0  0  0
   -0.9732   18.5765  -27.0700 H   0  0  0  0  0  0  0  0  0  0  0  0
   -1.8592   18.7314  -28.6249 H   0  0  0  0  0  0  0  0  0  0  0  0
   -0.1091   18.3269  -28.6249 H   0  0  0  0  0  0  0  0  0  0  0  0
   -0.1413   20.3974  -26.0379 H   0  0  0  0  0  0  0  0  0  0  0  0
    0.3740   22.8185  -25.9621 H   0  0  0  0  0  0  0  0  0  0  0  0
   -2.2226   23.7467  -27.0922 H   0  0  0  0  0  0  0  0  0  0  0  0
   -4.1129   22.1238  -27.0188 H   0  0  0  0  0  0  0  0  0  0  0  0
   -5.8482   22.1419  -28.8111 H   0  0  0  0  0  0  0  0  0  0  0  0
   -0.7440   24.2960  -30.4200 H   0  0  0  0  0  0  0  0  0  0  0  0
   -2.7786   19.3203  -32.8529 H   0  0  0  0  0  0  0  0  0  0  0  0
   -3.5426   18.8578  -31.2847 H   0  0  0  0  0  0  0  0  0  0  0  0
   -4.7538   20.0865  -33.6737 H   0  0  0  0  0  0  0  0  0  0  0  0
   -5.5349   19.3126  -32.2368 H   0  0  0  0  0  0  0  0  0  0  0  0
   -4.4127   22.4033  -33.6627 H   0  0  0  0  0  0  0  0  0  0  0  0
   -4.5583   23.2689  -32.0718 H   0  0  0  0  0  0  0  0  0  0  0  0
   -2.2883   21.7827  -33.1721 H   0  0  0  0  0  0  0  0  0  0  0  0
   -2.3764   22.8488  -31.7253 H   0  0  0  0  0  0  0  0  0  0  0  0
  1  2  1  0
  2  3  2  0
  3  4  1  0
  4  5  2  0
  5  6  1  0
  6  7  1  0
  7  8  2  0
  7  9  1  0
  9 10  1  0
 10 11  2  0
 11 12  1  0
 12 13  2  0
 13 14  1  0
 14 15  1  0
 14 16  2  0
 16 17  1  0
  5 18  1  0
 18 19  1  0
 18 20  2  0
 20 21  1  0
 21 22  2  0
 21 23  2  0
 21 24  1  0
 24 25  1  0
 25 26  1  0
 26 27  1  0
 27 28  1  0
 28 29  1  0
 20  2  1  0
 29 24  1  0
 16 10  1  0
  1 30  1  0
  1 31  1  0
  1 32  1  0
  3 33  1  0
  4 34  1  0
 11 35  1  0
 12 36  1  0
 13 37  1  0
 19 38  1  0
 25 39  1  0
 25 40  1  0
 26 41  1  0
 26 42  1  0
 28 43  1  0
 28 44  1  0
 29 45  1  0
 29 46  1  0
M  CHG  3   6  -1   9  -1  17  -1
M  END
>  <UniqueID>  (14) 
13

>  <SMILES>  (14) 
Cc1ccc([N-]C(=O)[N-]c2cccc(F)c2[O-])c(O)c1S(=O)(=O)N1CCOCC1

>  <Energy>  (14) 
69.2822104598737

>  <Genealogy>  (14) 
Cc1ccc([N-]C(=O)[N-]c2cccc(F)c2[O-])c(O)c1S(=O)(=O)N1CCOCC1 (protonated)
Cc1ccc([N-]C(=O)[N-]c2cccc(F)c2[O-])c(O)c1S(=O)(=O)N1CCOCC1 (3D coordinates assigned)
Cc1ccc([N-]C(=O)[N-]c2cccc(F)c2[O-])c(O)c1S(=O)(=O)N1CCOCC1 (nonaromatic ring conformer: 69.2822104598737 kcal/mol)

>  <smiles>  (14) 
Cc1ccc(NC(=O)Nc2cccc(F)c2O)c(O)c1S(=O)(=O)N1CCOCC1

>  <score_type>  (14) 
oracle

>  <origin>  (14) 
adgpu

>  <m_score__min__energy>  (14) 
-14.460000000000001

>  <m_primary>  (14) 
energy

$$$$
14:0
     RDKit          3D

 60 63  0  0  0  0  0  0  0  0999 V2000
    2.6310   28.8410  -21.6570 C   0  0  0  0  0  0  0  0  0  0  0  0
    3.8250   28.3280  -22.4470 C   0  0  0  0  0  0  0  0  0  0  0  0
    3.3930   27.9000  -23.7360 O   0  0  0  0  0  0  0  0  0  0  0  0
    2.0630   27.6040  -24.0680 C   0  0  0  0  0  0  0  0  0  0  0  0
    1.3140   28.5760  -24.7430 C   0  0  0  0  0  0  0  0  0  0  0  0
   -0.0180   28.3340  -25.0870 C   0  0  0  0  0  0  0  0  0  0  0  0
   -0.6280   27.1120  -24.7490 C   0  0  0  0  0  0  0  0  0  0  0  0
   -1.9600   26.8250  -25.0790 O   0  0  0  0  0  0  0  0  0  0  0  0
   -2.3710   25.9270  -26.0740 C   0  0  0  0  0  0  0  0  0  0  0  0
   -3.6070   25.2860  -25.9470 C   0  0  0  0  0  0  0  0  0  0  0  0
   -4.0290   24.4040  -26.9450 C   0  0  0  0  0  0  0  0  0  0  0  0
   -3.2190   24.1770  -28.0610 C   0  0  0  0  0  0  0  0  0  0  0  0
   -3.6360   23.2670  -29.0950 C   0  0  0  0  0  0  0  0  0  0  0  0
   -3.9800   22.5030  -29.9630 C   0  0  0  0  0  0  0  0  0  0  0  0
   -4.3970   21.5900  -30.9930 C   0  0  0  0  0  0  0  0  0  0  0  0
   -3.4430   20.9090  -31.7590 C   0  0  0  0  0  0  0  0  0  0  0  0
   -3.8500   20.0160  -32.7540 C   0  0  0  0  0  0  0  0  0  0  0  0
   -5.2160   19.8030  -33.0030 C   0  0  0  0  0  0  0  0  0  0  0  0
   -5.6560   18.8470  -34.0430 C   0  0  0  0  0  0  0  0  0  0  0  0
   -6.1630   19.2950  -35.1080 O   0  0  0  0  0  0  0  0  0  0  0  0
   -5.5140   17.4230  -33.8710 N   0  0  0  0  0  0  0  0  0  0  0  0
   -6.4090   16.5150  -34.5960 C   0  0  0  0  0  0  0  0  0  0  0  0
   -6.4650   15.1550  -33.8860 C   0  0  0  0  0  0  0  0  0  0  0  0
   -5.1250   14.5500  -33.6560 N   0  0  0  0  0  0  0  0  0  0  0  0
   -4.9060   13.3850  -34.5270 C   0  0  0  0  0  0  0  0  0  0  0  0
   -3.9890   15.4930  -33.7700 C   0  0  0  0  0  0  0  0  0  0  0  0
   -4.3340   16.8700  -33.1930 C   0  0  0  0  0  0  0  0  0  0  0  0
   -6.1680   20.4770  -32.2190 C   0  0  0  0  0  0  0  0  0  0  0  0
   -5.7600   21.3700  -31.2240 C   0  0  0  0  0  0  0  0  0  0  0  0
   -1.9930   24.8450  -28.1610 C   0  0  0  0  0  0  0  0  0  0  0  0
   -1.6030   25.6980  -27.1770 N   0  0  0  0  0  0  0  0  0  0  0  0
    0.1280   26.1310  -24.0980 C   0  0  0  0  0  0  0  0  0  0  0  0
    1.4600   26.3730  -23.7510 C   0  0  0  0  0  0  0  0  0  0  0  0
    2.8381   28.7520  -20.5803 H   0  0  0  0  0  0  0  0  0  0  0  0
    2.4502   29.8962  -21.9096 H   0  0  0  0  0  0  0  0  0  0  0  0
    1.7411   28.2458  -21.9096 H   0  0  0  0  0  0  0  0  0  0  0  0
    4.5654   29.1340  -22.5573 H   0  0  0  0  0  0  0  0  0  0  0  0
    4.2816   27.4814  -21.9133 H   0  0  0  0  0  0  0  0  0  0  0  0
    1.7786   29.5382  -25.0045 H   0  0  0  0  0  0  0  0  0  0  0  0
   -0.5928   29.1024  -25.6247 H   0  0  0  0  0  0  0  0  0  0  0  0
   -4.2419   25.4745  -25.0687 H   0  0  0  0  0  0  0  0  0  0  0  0
   -4.9968   23.8893  -26.8525 H   0  0  0  0  0  0  0  0  0  0  0  0
   -2.3712   21.0772  -31.5773 H   0  0  0  0  0  0  0  0  0  0  0  0
   -3.0959   19.4765  -33.3459 H   0  0  0  0  0  0  0  0  0  0  0  0
   -7.4189   16.9497  -34.6306 H   0  0  0  0  0  0  0  0  0  0  0  0
   -6.0286   16.3732  -35.6183 H   0  0  0  0  0  0  0  0  0  0  0  0
   -6.9576   15.2908  -32.9119 H   0  0  0  0  0  0  0  0  0  0  0  0
   -7.0211   14.4698  -34.5427 H   0  0  0  0  0  0  0  0  0  0  0  0
   -4.7380   12.4911  -33.9084 H   0  0  0  0  0  0  0  0  0  0  0  0
   -5.7908   13.2304  -35.1620 H   0  0  0  0  0  0  0  0  0  0  0  0
   -4.0255   13.5623  -35.1620 H   0  0  0  0  0  0  0  0  0  0  0  0
   -3.1286   15.0822  -33.2214 H   0  0  0  0  0  0  0  0  0  0  0  0
   -3.7536   15.6181  -34.8372 H   0  0  0  0  0  0  0  0  0  0  0  0
   -4.5457   16.7709  -32.1181 H   0  0  0  0  0  0  0  0  0  0  0  0
   -3.4812   17.5476  -33.3469 H   0  0  0  0  0  0  0  0  0  0  0  0
   -7.2403   20.3008  -32.3894 H   0  0  0  0  0  0  0  0  0  0  0  0
   -6.5115   21.9010  -30.6213 H   0  0  0  0  0  0  0  0  0  0  0  0
   -1.3458   24.6799  -29.0350 H   0  0  0  0  0  0  0  0  0  0  0  0
   -0.3302   25.1604  -23.8571 H   0  0  0  0  0  0  0  0  0  0  0  0
    2.0393   25.5979  -23.2279 H   0  0  0  0  0  0  0  0  0  0  0  0
  1  2  1  0
  2  3  1  0
  3  4  1  0
  4  5  2  0
  5  6  1  0
  6  7  2  0
  7  8  1  0
  8  9  1  0
  9 10  2  0
 10 11  1  0
 11 12  2  0
 12 13  1  0
 13 14  3  0
 14 15  1  0
 15 16  2  0
 16 17  1  0
 17 18  2  0
 18 19  1  0
 19 20  2  0
 19 21  1  0
 21 22  1  0
 22 23  1  0
 23 24  1  0
 24 25  1  0
 24 26  1  0
 26 27  1  0
 18 28  1  0
 28 29  2  0
 12 30  1  0
 30 31  2  0
  7 32  1  0
 32 33  2  0
 33  4  1  0
 31  9  1  0
 29 15  1  0
 27 21  1  0
  1 34  1  0
  1 35  1  0
  1 36  1  0
  2 37  1  0
  2 38  1  0
  5 39  1  0
  6 40  1  0
 10 41  1  0
 11 42  1  0
 16 43  1  0
 17 44  1  0
 22 45  1  0
 22 46  1  0
 23 47  1  0
 23 48  1  0
 25 49  1  0
 25 50  1  0
 25 51  1  0
 26 52  1  0
 26 53  1  0
 27 54  1  0
 27 55  1  0
 28 56  1  0
 29 57  1  0
 30 58  1  0
 32 59  1  0
 33 60  1  0
M  END
>  <UniqueID>  (15) 
14

>  <SMILES>  (15) 
CCOc1ccc(Oc2ccc(C#Cc3ccc(C(=O)N4CCN(C)CC4)cc3)cn2)cc1

>  <Energy>  (15) 
72.47546927319955

>  <Genealogy>  (15) 
CCOc1ccc(Oc2ccc(C#Cc3ccc(C(=O)N4CCN(C)CC4)cc3)cn2)cc1 (3D coordinates assigned)
CCOc1ccc(Oc2ccc(C#Cc3ccc(C(=O)N4CCN(C)CC4)cc3)cn2)cc1 (nonaromatic ring conformer: 72.47546927319955 kcal/mol)

>  <smiles>  (15) 
CCOc1ccc(Oc2ccc(C#Cc3ccc(C(=O)N4CCN(C)CC4)cc3)cn2)cc1

>  <score_type>  (15) 
oracle

>  <origin>  (15) 
adgpu

>  <m_score__min__energy>  (15) 
-7.6399999999999997

>  <m_primary>  (15) 
energy

$$$$
15:0
     RDKit          3D

 57 60  0  0  0  0  0  0  0  0999 V2000
   -6.9180   17.8870  -31.1760 C   0  0  0  0  0  0  0  0  0  0  0  0
   -6.3500   18.4960  -32.3770 N   0  0  0  0  0  0  0  0  0  0  0  0
   -5.1980   17.9170  -33.0030 C   0  0  0  0  0  0  0  0  0  0  0  0
   -4.2080   18.7360  -33.5660 C   0  0  0  0  0  0  0  0  0  0  0  0
   -3.0810   18.1700  -34.1680 C   0  0  0  0  0  0  0  0  0  0  0  0
   -2.9210   16.7760  -34.2070 C   0  0  0  0  0  0  0  0  0  0  0  0
   -1.7280   16.1860  -34.8560 C   0  0  0  0  0  0  0  0  0  0  0  0
   -1.7700   15.9610  -36.0970 O   0  0  0  0  0  0  0  0  0  0  0  0
   -0.5260   15.8670  -34.1170 N   0  0  0  0  0  0  0  0  0  0  0  0
    0.3670   14.8330  -34.6800 C   0  0  0  0  0  0  0  0  0  0  0  0
    0.2820   13.4700  -33.9700 C   0  0  0  0  0  0  0  0  0  0  0  0
    0.5100   13.5490  -32.4500 C   0  0  0  0  0  0  0  0  0  0  0  0
   -0.4580   14.4760  -31.6980 C   0  0  0  0  0  0  0  0  0  0  0  0
   -0.0000   15.9440  -31.6480 C   0  0  0  0  0  0  0  0  0  0  0  0
   -0.1020   16.7150  -32.9840 C   0  0  0  0  0  0  0  0  0  0  0  0
   -3.9240   15.9570  -33.6630 C   0  0  0  0  0  0  0  0  0  0  0  0
   -5.0510   16.5250  -33.0620 C   0  0  0  0  0  0  0  0  0  0  0  0
   -7.1640   19.8380  -33.1220 S   0  0  0  0  0  0  0  0  0  0  0  0
   -6.8120   19.8860  -34.5820 O   0  0  0  0  0  0  0  0  0  0  0  0
   -8.6520   19.6910  -32.9950 O   0  0  0  0  0  0  0  0  0  0  0  0
   -6.6640   21.3160  -32.3120 C   0  0  0  0  0  0  0  0  0  0  0  0
   -7.6450   22.2630  -31.9330 C   0  0  0  0  0  0  0  0  0  0  0  0
   -7.2810   23.4430  -31.2610 C   0  0  0  0  0  0  0  0  0  0  0  0
   -5.9290   23.6440  -30.9800 C   0  0  0  0  0  0  0  0  0  0  0  0
   -4.9760   22.7240  -31.3460 C   0  0  0  0  0  0  0  0  0  0  0  0
   -5.3050   21.5470  -32.0120 C   0  0  0  0  0  0  0  0  0  0  0  0
   -3.7480   23.2050  -30.9390 C   0  0  0  0  0  0  0  0  0  0  0  0
   -4.0310   24.4230  -30.3360 C   0  0  0  0  0  0  0  0  0  0  0  0
   -3.0760   25.2680  -29.7840 O   0  0  0  0  0  0  0  0  0  0  0  0
   -5.3580   24.6910  -30.3530 N   0  0  0  0  0  0  0  0  0  0  0  0
   -6.0270   25.8810  -29.8320 C   0  0  0  0  0  0  0  0  0  0  0  0
   -6.4792   18.3575  -30.2837 H   0  0  0  0  0  0  0  0  0  0  0  0
   -8.0080   18.0352  -31.1702 H   0  0  0  0  0  0  0  0  0  0  0  0
   -6.6943   16.8100  -31.1702 H   0  0  0  0  0  0  0  0  0  0  0  0
   -4.3194   19.8299  -33.5334 H   0  0  0  0  0  0  0  0  0  0  0  0
   -2.3146   18.8209  -34.6140 H   0  0  0  0  0  0  0  0  0  0  0  0
    0.1025   14.6878  -35.7378 H   0  0  0  0  0  0  0  0  0  0  0  0
    1.3962   15.1964  -34.5435 H   0  0  0  0  0  0  0  0  0  0  0  0
   -0.7172   13.0465  -34.1498 H   0  0  0  0  0  0  0  0  0  0  0  0
    1.0847   12.8416  -34.3833 H   0  0  0  0  0  0  0  0  0  0  0  0
    0.4041   12.5356  -32.0354 H   0  0  0  0  0  0  0  0  0  0  0  0
    1.5151   13.9737  -32.3104 H   0  0  0  0  0  0  0  0  0  0  0  0
   -1.4366   14.4350  -32.1986 H   0  0  0  0  0  0  0  0  0  0  0  0
   -0.5012   14.1185  -30.6586 H   0  0  0  0  0  0  0  0  0  0  0  0
   -0.6196   16.4680  -30.9054 H   0  0  0  0  0  0  0  0  0  0  0  0
    1.0696   15.9198  -31.3923 H   0  0  0  0  0  0  0  0  0  0  0  0
   -0.8335   17.5276  -32.8632 H   0  0  0  0  0  0  0  0  0  0  0  0
    0.9035   17.0940  -33.2191 H   0  0  0  0  0  0  0  0  0  0  0  0
   -3.8221   14.8627  -33.7101 H   0  0  0  0  0  0  0  0  0  0  0  0
   -5.8275   15.8748  -32.6326 H   0  0  0  0  0  0  0  0  0  0  0  0
   -8.7031   22.0739  -32.1666 H   0  0  0  0  0  0  0  0  0  0  0  0
   -8.0381   24.1845  -30.9660 H   0  0  0  0  0  0  0  0  0  0  0  0
   -4.5298   20.8198  -32.2955 H   0  0  0  0  0  0  0  0  0  0  0  0
   -2.7642   22.7292  -31.0645 H   0  0  0  0  0  0  0  0  0  0  0  0
   -6.0137   25.8573  -28.7323 H   0  0  0  0  0  0  0  0  0  0  0  0
   -5.5026   26.7809  -30.1857 H   0  0  0  0  0  0  0  0  0  0  0  0
   -7.0684   25.9006  -30.1857 H   0  0  0  0  0  0  0  0  0  0  0  0
  1  2  1  0
  2  3  1  0
  3  4  2  0
  4  5  1  0
  5  6  2  0
  6  7  1  0
  7  8  2  0
  7  9  1  0
  9 10  1  0
 10 11  1  0
 11 12  1  0
 12 13  1  0
 13 14  1  0
 14 15  1  0
  6 16  1  0
 16 17  2  0
  2 18  1  0
 18 19  2  0
 18 20  2  0
 18 21  1  0
 21 22  2  0
 22 23  1  0
 23 24  2  0
 24 25  1  0
 25 26  2  0
 25 27  1  0
 27 28  2  0
 28 29  1  0
 28 30  1  0
 30 31  1  0
 17  3  1  0
 26 21  1  0
 15  9  1  0
 30 24  1  0
  1 32  1  0
  1 33  1  0
  1 34  1  0
  4 35  1  0
  5 36  1  0
 10 37  1  0
 10 38  1  0
 11 39  1  0
 11 40  1  0
 12 41  1  0
 12 42  1  0
 13 43  1  0
 13 44  1  0
 14 45  1  0
 14 46  1  0
 15 47  1  0
 15 48  1  0
 16 49  1  0
 17 50  1  0
 22 51  1  0
 23 52  1  0
 26 53  1  0
 27 54  1  0
 31 55  1  0
 31 56  1  0
 31 57  1  0
M  CHG  1  29  -1
M  END
>  <UniqueID>  (16) 
15

>  <SMILES>  (16) 
CN(c1ccc(C(=O)N2CCCCCC2)cc1)S(=O)(=O)c1ccc2c(c1)cc([O-])n2C

>  <Energy>  (16) 
108.51752250134604

>  <Genealogy>  (16) 
CN(c1ccc(C(=O)N2CCCCCC2)cc1)S(=O)(=O)c1ccc2c(c1)cc([O-])n2C (protonated)
CN(c1ccc(C(=O)N2CCCCCC2)cc1)S(=O)(=O)c1ccc2c(c1)cc([O-])n2C (3D coordinates assigned)
CN(c1ccc(C(=O)N2CCCCCC2)cc1)S(=O)(=O)c1ccc2c(c1)cc([O-])n2C (nonaromatic ring conformer: 108.51752250134604 kcal/mol)

>  <smiles>  (16) 
CN(c1ccc(C(=O)N2CCCCCC2)cc1)S(=O)(=O)c1ccc2c(c1)cc(O)n2C

>  <score_type>  (16) 
oracle

>  <origin>  (16) 
adgpu

>  <m_score__min__energy>  (16) 
-9.6199999999999992

>  <m_primary>  (16) 
energy

$$$$
16:0
     RDKit          3D

 67 71  0  0  0  0  0  0  0  0999 V2000
   -0.3680   21.6270  -31.2420 C   0  0  0  0  0  0  0  0  0  0  0  0
   -0.6190   20.3470  -31.9960 C   0  0  0  0  0  0  0  0  0  0  0  0
   -0.7470   19.1430  -31.2830 C   0  0  0  0  0  0  0  0  0  0  0  0
   -0.9690   17.9400  -31.9550 C   0  0  0  0  0  0  0  0  0  0  0  0
   -1.0630   17.9170  -33.3500 C   0  0  0  0  0  0  0  0  0  0  0  0
   -1.3600   16.3930  -34.1800 S   0  0  0  0  0  0  0  0  0  0  0  0
   -1.3160   16.5840  -35.6710 O   0  0  0  0  0  0  0  0  0  0  0  0
   -0.2840   15.4190  -33.7910 O   0  0  0  0  0  0  0  0  0  0  0  0
   -2.9590   15.7780  -33.7420 C   0  0  0  0  0  0  0  0  0  0  0  0
   -4.1450   16.4940  -33.9190 C   0  0  0  0  0  0  0  0  0  0  0  0
   -4.2250   17.8190  -34.4640 N   0  0  0  0  0  0  0  0  0  0  0  0
   -5.4080   18.6230  -34.5830 C   0  0  0  0  0  0  0  0  0  0  0  0
   -6.0870   18.5860  -35.6450 O   0  0  0  0  0  0  0  0  0  0  0  0
   -5.8280   19.4960  -33.4520 C   0  0  0  0  0  0  0  0  0  0  0  0
   -7.0890   19.2980  -32.8550 C   0  0  0  0  0  0  0  0  0  0  0  0
   -7.5240   20.1210  -31.8160 C   0  0  0  0  0  0  0  0  0  0  0  0
   -6.7160   21.1610  -31.3590 C   0  0  0  0  0  0  0  0  0  0  0  0
   -5.4600   21.3860  -31.9370 C   0  0  0  0  0  0  0  0  0  0  0  0
   -4.4610   22.7180  -31.3500 S   0  0  0  0  0  0  0  0  0  0  0  0
   -3.1220   22.6900  -32.0380 O   0  0  0  0  0  0  0  0  0  0  0  0
   -5.1280   24.0310  -31.6580 O   0  0  0  0  0  0  0  0  0  0  0  0
   -4.2500   22.5570  -29.5830 C   0  0  0  0  0  0  0  0  0  0  0  0
   -2.9270   23.1370  -29.1560 C   0  0  0  0  0  0  0  0  0  0  0  0
   -2.0220   22.3440  -28.4260 C   0  0  0  0  0  0  0  0  0  0  0  0
   -0.8010   22.8750  -28.0050 C   0  0  0  0  0  0  0  0  0  0  0  0
   -0.4740   24.2020  -28.3000 C   0  0  0  0  0  0  0  0  0  0  0  0
    0.7440   24.7250  -27.8860 O   0  0  0  0  0  0  0  0  0  0  0  0
   -1.3720   25.0030  -29.0130 C   0  0  0  0  0  0  0  0  0  0  0  0
   -2.5980   24.4790  -29.4360 C   0  0  0  0  0  0  0  0  0  0  0  0
   -3.4820   25.2980  -30.1350 O   0  0  0  0  0  0  0  0  0  0  0  0
   -5.0060   20.5440  -32.9720 C   0  0  0  0  0  0  0  0  0  0  0  0
   -3.7440   20.7570  -33.5180 O   0  0  0  0  0  0  0  0  0  0  0  0
   -5.4380   15.5930  -33.3190 S   0  0  0  0  0  0  0  0  0  0  0  0
   -4.5080   14.2850  -32.8250 C   0  0  0  0  0  0  0  0  0  0  0  0
   -3.1730   14.5160  -33.1510 C   0  0  0  0  0  0  0  0  0  0  0  0
   -2.0900   13.5380  -32.7750 C   0  0  0  0  0  0  0  0  0  0  0  0
   -2.6620   12.1430  -32.4610 C   0  0  0  0  0  0  0  0  0  0  0  0
   -3.8910   12.2360  -31.5410 C   0  0  0  0  0  0  0  0  0  0  0  0
   -5.0260   13.0190  -32.2170 C   0  0  0  0  0  0  0  0  0  0  0  0
   -0.9200   19.1090  -34.0730 C   0  0  0  0  0  0  0  0  0  0  0  0
   -0.6850   20.3270  -33.4110 C   0  0  0  0  0  0  0  0  0  0  0  0
   -0.5490   21.5910  -34.2200 C   0  0  0  0  0  0  0  0  0  0  0  0
   -0.4068   21.4292  -30.1606 H   0  0  0  0  0  0  0  0  0  0  0  0
    0.6244   22.0203  -31.5074 H   0  0  0  0  0  0  0  0  0  0  0  0
   -1.1383   22.3660  -31.5074 H   0  0  0  0  0  0  0  0  0  0  0  0
   -0.6716   19.1486  -30.1856 H   0  0  0  0  0  0  0  0  0  0  0  0
   -1.0705   17.0051  -31.3843 H   0  0  0  0  0  0  0  0  0  0  0  0
   -7.7380   18.4849  -33.2124 H   0  0  0  0  0  0  0  0  0  0  0  0
   -8.5081   19.9487  -31.3557 H   0  0  0  0  0  0  0  0  0  0  0  0
   -7.0662   21.8077  -30.5410 H   0  0  0  0  0  0  0  0  0  0  0  0
   -5.0627   23.0929  -29.0708 H   0  0  0  0  0  0  0  0  0  0  0  0
   -4.2737   21.4899  -29.3171 H   0  0  0  0  0  0  0  0  0  0  0  0
   -2.2776   21.3014  -28.1860 H   0  0  0  0  0  0  0  0  0  0  0  0
   -0.0952   22.2482  -27.4403 H   0  0  0  0  0  0  0  0  0  0  0  0
   -1.1135   26.0475  -29.2416 H   0  0  0  0  0  0  0  0  0  0  0  0
   -1.3817   13.4521  -33.6122 H   0  0  0  0  0  0  0  0  0  0  0  0
   -1.5896   13.9136  -31.8703 H   0  0  0  0  0  0  0  0  0  0  0  0
   -2.9555   11.6560  -33.4026 H   0  0  0  0  0  0  0  0  0  0  0  0
   -1.8862   11.5581  -31.9452 H   0  0  0  0  0  0  0  0  0  0  0  0
   -4.2436   11.2205  -31.3079 H   0  0  0  0  0  0  0  0  0  0  0  0
   -3.6008   12.7637  -30.6205 H   0  0  0  0  0  0  0  0  0  0  0  0
   -5.4738   12.3967  -33.0058 H   0  0  0  0  0  0  0  0  0  0  0  0
   -5.7798   13.2745  -31.4577 H   0  0  0  0  0  0  0  0  0  0  0  0
   -0.9924   19.0915  -35.1705 H   0  0  0  0  0  0  0  0  0  0  0  0
   -0.4563   22.4522  -33.5419 H   0  0  0  0  0  0  0  0  0  0  0  0
    0.3473   21.5257  -34.8543 H   0  0  0  0  0  0  0  0  0  0  0  0
   -1.4387   21.7179  -34.8543 H   0  0  0  0  0  0  0  0  0  0  0  0
  1  2  1  0
  2  3  2  0
  3  4  1  0
  4  5  2  0
  5  6  1  0
  6  7  2  0
  6  8  2  0
  6  9  1  0
  9 10  2  0
 10 11  1  0
 11 12  1  0
 12 13  2  0
 12 14  1  0
 14 15  2  0
 15 16  1  0
 16 17  2  0
 17 18  1  0
 18 19  1  0
 19 20  2  0
 19 21  2  0
 19 22  1  0
 22 23  1  0
 23 24  2  0
 24 25  1  0
 25 26  2  0
 26 27  1  0
 26 28  1  0
 28 29  2  0
 29 30  1  0
 18 31  2  0
 31 32  1  0
 10 33  1  0
 33 34  1  0
 34 35  2  0
 35 36  1  0
 36 37  1  0
 37 38  1  0
 38 39  1  0
  5 40  1  0
 40 41  2  0
 41 42  1  0
 41  2  1  0
 35  9  1  0
 31 14  1  0
 39 34  1  0
 29 23  1  0
  1 43  1  0
  1 44  1  0
  1 45  1  0
  3 46  1  0
  4 47  1  0
 15 48  1  0
 16 49  1  0
 17 50  1  0
 22 51  1  0
 22 52  1  0
 24 53  1  0
 25 54  1  0
 28 55  1  0
 36 56  1  0
 36 57  1  0
 37 58  1  0
 37 59  1  0
 38 60  1  0
 38 61  1  0
 39 62  1  0
 39 63  1  0
 40 64  1  0
 42 65  1  0
 42 66  1  0
 42 67  1  0
M  CHG  4  11  -1  27  -1  30  -1  32  -1
M  END
>  <UniqueID>  (17) 
16

>  <SMILES>  (17) 
Cc1ccc(S(=O)(=O)c2c([N-]C(=O)c3cccc(S(=O)(=O)Cc4ccc([O-])cc4[O-])c3[O-])sc3c2CCCC3)cc1C

>  <Energy>  (17) 
102.15743593858097

>  <Genealogy>  (17) 
Cc1ccc(S(=O)(=O)c2c([N-]C(=O)c3cccc(S(=O)(=O)Cc4ccc([O-])cc4[O-])c3[O-])sc3c2CCCC3)cc1C (protonated)
Cc1ccc(S(=O)(=O)c2c([N-]C(=O)c3cccc(S(=O)(=O)Cc4ccc([O-])cc4[O-])c3[O-])sc3c2CCCC3)cc1C (3D coordinates assigned)
Cc1ccc(S(=O)(=O)c2c([N-]C(=O)c3cccc(S(=O)(=O)Cc4ccc([O-])cc4[O-])c3[O-])sc3c2CCCC3)cc1C (nonaromatic ring conformer: 102.15743593858097 kcal/mol)

>  <smiles>  (17) 
Cc1ccc(S(=O)(=O)c2c(NC(=O)c3cccc(S(=O)(=O)Cc4ccc(O)cc4O)c3O)sc3c2CCCC3)cc1C

>  <score_type>  (17) 
oracle

>  <origin>  (17) 
adgpu

>  <m_score__min__energy>  (17) 
-15.82

>  <m_primary>  (17) 
energy

$$$$
17:0
     RDKit          3D

 49 52  0  0  0  0  0  0  0  0999 V2000
   -3.4120   18.2730  -33.7940 O   0  0  0  0  0  0  0  0  0  0  0  0
   -3.3170   19.0340  -32.7930 C   0  0  0  0  0  0  0  0  0  0  0  0
   -4.5520   19.6450  -32.2120 C   0  0  0  0  0  0  0  0  0  0  0  0
   -5.7460   20.0690  -33.5270 S   0  0  0  0  0  0  0  0  0  0  0  0
   -7.1340   20.2980  -32.4050 C   0  0  0  0  0  0  0  0  0  0  0  0
   -8.1440   19.4180  -32.2810 N   0  0  0  0  0  0  0  0  0  0  0  0
   -8.8900   19.8860  -31.2900 N   0  0  0  0  0  0  0  0  0  0  0  0
   -8.3640   21.0050  -30.8150 N   0  0  0  0  0  0  0  0  0  0  0  0
   -7.2710   21.2880  -31.5030 N   0  0  0  0  0  0  0  0  0  0  0  0
   -6.4150   22.4100  -31.2410 C   0  0  0  0  0  0  0  0  0  0  0  0
   -6.6310   23.6460  -31.8740 C   0  0  0  0  0  0  0  0  0  0  0  0
   -5.7900   24.7310  -31.6070 C   0  0  0  0  0  0  0  0  0  0  0  0
   -4.7320   24.5930  -30.7030 C   0  0  0  0  0  0  0  0  0  0  0  0
   -3.8950   25.6710  -30.4450 O   0  0  0  0  0  0  0  0  0  0  0  0
   -4.5220   23.3730  -30.0570 C   0  0  0  0  0  0  0  0  0  0  0  0
   -5.3630   22.2870  -30.3190 C   0  0  0  0  0  0  0  0  0  0  0  0
   -2.0590   19.2450  -32.1420 N   0  0  0  0  0  0  0  0  0  0  0  0
   -1.7090   20.3230  -31.2620 C   0  0  0  0  0  0  0  0  0  0  0  0
   -1.0110   20.1140  -30.0580 C   0  0  0  0  0  0  0  0  0  0  0  0
   -0.6740   21.1990  -29.2430 C   0  0  0  0  0  0  0  0  0  0  0  0
   -1.0180   22.5030  -29.6250 C   0  0  0  0  0  0  0  0  0  0  0  0
   -0.5750   23.8830  -28.6230 S   0  0  0  0  0  0  0  0  0  0  0  0
   -1.0800   25.1570  -29.2440 O   0  0  0  0  0  0  0  0  0  0  0  0
    0.9250   23.9510  -28.5440 O   0  0  0  0  0  0  0  0  0  0  0  0
   -1.2410   23.6860  -27.0160 N   0  0  0  0  0  0  0  0  0  0  0  0
   -2.6490   23.2800  -27.0850 C   0  0  0  0  0  0  0  0  0  0  0  0
   -3.4970   24.5340  -26.9910 C   0  0  0  0  0  0  0  0  0  0  0  0
   -2.6340   25.5260  -26.2410 C   0  0  0  0  0  0  0  0  0  0  0  0
   -1.2180   24.9620  -26.2850 C   0  0  0  0  0  0  0  0  0  0  0  0
   -1.6870   22.7130  -30.8360 C   0  0  0  0  0  0  0  0  0  0  0  0
   -2.0260   21.6300  -31.6510 C   0  0  0  0  0  0  0  0  0  0  0  0
   -5.0176   18.9282  -31.5196 H   0  0  0  0  0  0  0  0  0  0  0  0
   -4.2726   20.5659  -31.6791 H   0  0  0  0  0  0  0  0  0  0  0  0
   -7.4648   23.7605  -32.5823 H   0  0  0  0  0  0  0  0  0  0  0  0
   -5.9610   25.6947  -32.1090 H   0  0  0  0  0  0  0  0  0  0  0  0
   -3.6938   23.2661  -29.3410 H   0  0  0  0  0  0  0  0  0  0  0  0
   -5.1996   21.3310  -29.8000 H   0  0  0  0  0  0  0  0  0  0  0  0
   -0.7297   19.0940  -29.7572 H   0  0  0  0  0  0  0  0  0  0  0  0
   -0.1368   21.0286  -28.2983 H   0  0  0  0  0  0  0  0  0  0  0  0
   -2.8443   22.7665  -28.0380 H   0  0  0  0  0  0  0  0  0  0  0  0
   -2.8910   22.5895  -26.2637 H   0  0  0  0  0  0  0  0  0  0  0  0
   -3.7414   24.9132  -27.9943 H   0  0  0  0  0  0  0  0  0  0  0  0
   -4.4563   24.3508  -26.4849 H   0  0  0  0  0  0  0  0  0  0  0  0
   -2.6694   26.5108  -26.7299 H   0  0  0  0  0  0  0  0  0  0  0  0
   -2.9824   25.6648  -25.2069 H   0  0  0  0  0  0  0  0  0  0  0  0
   -0.5529   25.6713  -26.7994 H   0  0  0  0  0  0  0  0  0  0  0  0
   -0.8467   24.8012  -25.2621 H   0  0  0  0  0  0  0  0  0  0  0  0
   -1.9472   23.7353  -31.1477 H   0  0  0  0  0  0  0  0  0  0  0  0
   -2.5454   21.8054  -32.6046 H   0  0  0  0  0  0  0  0  0  0  0  0
  1  2  2  0
  2  3  1  0
  3  4  1  0
  4  5  1  0
  5  6  2  0
  6  7  1  0
  7  8  2  0
  8  9  1  0
  9 10  1  0
 10 11  2  0
 11 12  1  0
 12 13  2  0
 13 14  1  0
 13 15  1  0
 15 16  2  0
  2 17  1  0
 17 18  1  0
 18 19  2  0
 19 20  1  0
 20 21  2  0
 21 22  1  0
 22 23  2  0
 22 24  2  0
 22 25  1  0
 25 26  1  0
 26 27  1  0
 27 28  1  0
 28 29  1  0
 21 30  1  0
 30 31  2  0
  9  5  1  0
 16 10  1  0
 31 18  1  0
 29 25  1  0
  3 32  1  0
  3 33  1  0
 11 34  1  0
 12 35  1  0
 15 36  1  0
 16 37  1  0
 19 38  1  0
 20 39  1  0
 26 40  1  0
 26 41  1  0
 27 42  1  0
 27 43  1  0
 28 44  1  0
 28 45  1  0
 29 46  1  0
 29 47  1  0
 30 48  1  0
 31 49  1  0
M  CHG  2  14  -1  17  -1
M  END
>  <UniqueID>  (18) 
17

>  <SMILES>  (18) 
O=C(CSc1nnnn1-c1ccc([O-])cc1)[N-]c1ccc(S(=O)(=O)N2CCCC2)cc1

>  <Energy>  (18) 
96.5770899197346

>  <Genealogy>  (18) 
O=C(CSc1nnnn1-c1ccc([O-])cc1)[N-]c1ccc(S(=O)(=O)N2CCCC2)cc1 (protonated)
O=C(CSc1nnnn1-c1ccc([O-])cc1)[N-]c1ccc(S(=O)(=O)N2CCCC2)cc1 (3D coordinates assigned)
O=C(CSc1nnnn1-c1ccc([O-])cc1)[N-]c1ccc(S(=O)(=O)N2CCCC2)cc1 (nonaromatic ring conformer: 96.5770899197346 kcal/mol)

>  <smiles>  (18) 
O=C(CSc1nnnn1-c1ccc(O)cc1)Nc1ccc(S(=O)(=O)N2CCCC2)cc1

>  <score_type>  (18) 
oracle

>  <origin>  (18) 
adgpu

>  <m_score__min__energy>  (18) 
-12.81

>  <m_primary>  (18) 
energy

$$$$
18:0
     RDKit          3D

 55 58  0  0  0  0  0  0  0  0999 V2000
   -3.8300   16.0840  -35.3330 C   0  0  0  0  0  0  0  0  0  0  0  0
   -4.1340   17.0910  -34.2630 C   0  0  0  0  0  0  0  0  0  0  0  0
   -5.1560   16.8510  -33.3330 C   0  0  0  0  0  0  0  0  0  0  0  0
   -5.4540   17.8000  -32.3450 C   0  0  0  0  0  0  0  0  0  0  0  0
   -6.5100   17.5140  -31.3180 C   0  0  0  0  0  0  0  0  0  0  0  0
   -4.7140   18.9910  -32.2860 C   0  0  0  0  0  0  0  0  0  0  0  0
   -3.7200   19.2620  -33.2340 C   0  0  0  0  0  0  0  0  0  0  0  0
   -2.9870   20.4910  -33.1290 N   0  0  0  0  0  0  0  0  0  0  0  0
   -1.7140   20.6770  -32.4950 C   0  0  0  0  0  0  0  0  0  0  0  0
   -0.6530   20.4240  -33.1280 O   0  0  0  0  0  0  0  0  0  0  0  0
   -1.6430   21.2360  -31.1240 C   0  0  0  0  0  0  0  0  0  0  0  0
   -1.1570   20.4540  -30.0590 C   0  0  0  0  0  0  0  0  0  0  0  0
   -1.1030   20.9770  -28.7640 C   0  0  0  0  0  0  0  0  0  0  0  0
   -1.5310   22.2820  -28.5140 C   0  0  0  0  0  0  0  0  0  0  0  0
   -2.0100   23.0770  -29.5620 C   0  0  0  0  0  0  0  0  0  0  0  0
   -2.5340   24.7260  -29.2300 S   0  0  0  0  0  0  0  0  0  0  0  0
   -1.3520   25.6520  -29.2920 O   0  0  0  0  0  0  0  0  0  0  0  0
   -3.1370   24.8190  -27.8560 O   0  0  0  0  0  0  0  0  0  0  0  0
   -3.7230   25.2020  -30.3950 N   0  0  0  0  0  0  0  0  0  0  0  0
   -4.8950   24.4120  -30.6070 C   0  0  0  0  0  0  0  0  0  0  0  0
   -4.8470   23.3510  -31.5190 C   0  0  0  0  0  0  0  0  0  0  0  0
   -5.9950   22.5910  -31.7830 C   0  0  0  0  0  0  0  0  0  0  0  0
   -7.1950   22.8750  -31.1010 C   0  0  0  0  0  0  0  0  0  0  0  0
   -7.2370   23.9360  -30.1860 C   0  0  0  0  0  0  0  0  0  0  0  0
   -6.0930   24.6990  -29.9260 C   0  0  0  0  0  0  0  0  0  0  0  0
   -6.1690   25.7300  -28.9880 O   0  0  0  0  0  0  0  0  0  0  0  0
   -8.4520   22.1000  -31.4140 C   0  0  0  0  0  0  0  0  0  0  0  0
   -8.1390   20.7060  -31.9700 C   0  0  0  0  0  0  0  0  0  0  0  0
   -7.1540   20.8010  -33.1390 C   0  0  0  0  0  0  0  0  0  0  0  0
   -5.9440   21.5130  -32.7320 N   0  0  0  0  0  0  0  0  0  0  0  0
   -2.0630   22.5550  -30.8640 C   0  0  0  0  0  0  0  0  0  0  0  0
   -3.4260   18.3020  -34.2180 C   0  0  0  0  0  0  0  0  0  0  0  0
   -3.5420   15.1299  -34.8674 H   0  0  0  0  0  0  0  0  0  0  0  0
   -4.7224   15.9324  -35.9580 H   0  0  0  0  0  0  0  0  0  0  0  0
   -3.0028   16.4515  -35.9580 H   0  0  0  0  0  0  0  0  0  0  0  0
   -5.7274   15.9122  -33.3791 H   0  0  0  0  0  0  0  0  0  0  0  0
   -6.0829   17.6297  -30.3109 H   0  0  0  0  0  0  0  0  0  0  0  0
   -7.3454   18.2183  -31.4451 H   0  0  0  0  0  0  0  0  0  0  0  0
   -6.8758   16.4844  -31.4451 H   0  0  0  0  0  0  0  0  0  0  0  0
   -4.9170   19.7190  -31.4868 H   0  0  0  0  0  0  0  0  0  0  0  0
   -0.8176   19.4248  -30.2473 H   0  0  0  0  0  0  0  0  0  0  0  0
   -0.7218   20.3579  -27.9386 H   0  0  0  0  0  0  0  0  0  0  0  0
   -1.4918   22.6863  -27.4918 H   0  0  0  0  0  0  0  0  0  0  0  0
   -3.9033   23.1123  -32.0313 H   0  0  0  0  0  0  0  0  0  0  0  0
   -8.1781   24.1712  -29.6674 H   0  0  0  0  0  0  0  0  0  0  0  0
   -5.3660   26.0430  -28.4570 H   0  0  0  0  0  0  0  0  0  0  0  0
   -9.0419   21.9912  -30.4919 H   0  0  0  0  0  0  0  0  0  0  0  0
   -9.0135   22.6550  -32.1800 H   0  0  0  0  0  0  0  0  0  0  0  0
   -7.6964   20.0900  -31.1734 H   0  0  0  0  0  0  0  0  0  0  0  0
   -9.0730   20.2494  -32.3293 H   0  0  0  0  0  0  0  0  0  0  0  0
   -6.8838   19.7868  -33.4681 H   0  0  0  0  0  0  0  0  0  0  0  0
   -7.6313   21.3523  -33.9626 H   0  0  0  0  0  0  0  0  0  0  0  0
   -5.0490   21.2970  -33.2280 H   0  0  0  0  0  0  0  0  0  0  0  0
   -2.4356   23.1812  -31.6880 H   0  0  0  0  0  0  0  0  0  0  0  0
   -2.6362   18.5012  -34.9572 H   0  0  0  0  0  0  0  0  0  0  0  0
  1  2  1  0
  2  3  2  0
  3  4  1  0
  4  5  1  0
  4  6  2  0
  6  7  1  0
  7  8  1  0
  8  9  1  0
  9 10  2  0
  9 11  1  0
 11 12  2  0
 12 13  1  0
 13 14  2  0
 14 15  1  0
 15 16  1  0
 16 17  2  0
 16 18  2  0
 16 19  1  0
 19 20  1  0
 20 21  2  0
 21 22  1  0
 22 23  2  0
 23 24  1  0
 24 25  2  0
 25 26  1  0
 23 27  1  0
 27 28  1  0
 28 29  1  0
 29 30  1  0
 15 31  2  0
  7 32  2  0
 32  2  1  0
 31 11  1  0
 25 20  1  0
 30 22  1  0
  1 33  1  0
  1 34  1  0
  1 35  1  0
  3 36  1  0
  5 37  1  0
  5 38  1  0
  5 39  1  0
  6 40  1  0
 12 41  1  0
 13 42  1  0
 14 43  1  0
 21 44  1  0
 24 45  1  0
 26 46  1  0
 27 47  1  0
 27 48  1  0
 28 49  1  0
 28 50  1  0
 29 51  1  0
 29 52  1  0
 30 53  1  0
 31 54  1  0
 32 55  1  0
M  CHG  2   8  -1  19  -1
M  END
>  <UniqueID>  (19) 
18

>  <SMILES>  (19) 
Cc1cc(C)cc([N-]C(=O)c2cccc(S(=O)(=O)[N-]c3cc4c(cc3O)CCCN4)c2)c1

>  <Energy>  (19) 
69.85001111883581

>  <Genealogy>  (19) 
Cc1cc(C)cc([N-]C(=O)c2cccc(S(=O)(=O)[N-]c3cc4c(cc3O)CCCN4)c2)c1 (protonated)
Cc1cc(C)cc([N-]C(=O)c2cccc(S(=O)(=O)[N-]c3cc4c(cc3O)CCCN4)c2)c1 (3D coordinates assigned)
Cc1cc(C)cc([N-]C(=O)c2cccc(S(=O)(=O)[N-]c3cc4c(cc3O)CCCN4)c2)c1 (nonaromatic ring conformer: 69.85001111883581 kcal/mol)

>  <smiles>  (19) 
Cc1cc(C)cc(NC(=O)c2cccc(S(=O)(=O)Nc3cc4c(cc3O)CCCN4)c2)c1

>  <score_type>  (19) 
oracle

>  <origin>  (19) 
adgpu

>  <m_score__min__energy>  (19) 
-12.09

>  <m_primary>  (19) 
energy

$$$$
19:0
     RDKit          3D

 37 40  0  0  0  0  0  0  0  0999 V2000
   -6.6560   18.7760  -33.3820 C   0  0  0  0  0  0  0  0  0  0  0  0
   -7.2850   20.0040  -32.9110 N   0  0  0  0  0  0  0  0  0  0  0  0
   -8.6390   20.1290  -32.4720 C   0  0  0  0  0  0  0  0  0  0  0  0
   -9.5450   19.2910  -32.7190 O   0  0  0  0  0  0  0  0  0  0  0  0
   -8.7990   21.3440  -31.6870 C   0  0  0  0  0  0  0  0  0  0  0  0
   -9.8580   21.7750  -31.1570 O   0  0  0  0  0  0  0  0  0  0  0  0
   -7.4780   21.9460  -31.6270 C   0  0  0  0  0  0  0  0  0  0  0  0
   -7.0430   23.1030  -30.9860 C   0  0  0  0  0  0  0  0  0  0  0  0
   -5.6790   23.4420  -31.0800 C   0  0  0  0  0  0  0  0  0  0  0  0
   -5.0700   24.9150  -30.3320 S   0  0  0  0  0  0  0  0  0  0  0  0
   -6.1990   25.8950  -30.2010 O   0  0  0  0  0  0  0  0  0  0  0  0
   -3.9820   25.5350  -31.1640 O   0  0  0  0  0  0  0  0  0  0  0  0
   -4.4480   24.5480  -28.7540 N   0  0  0  0  0  0  0  0  0  0  0  0
   -3.2550   23.7930  -28.4930 C   0  0  0  0  0  0  0  0  0  0  0  0
   -3.3070   22.4870  -27.9510 C   0  0  0  0  0  0  0  0  0  0  0  0
   -2.1070   21.8200  -27.7250 C   0  0  0  0  0  0  0  0  0  0  0  0
   -0.8920   22.4000  -28.0150 C   0  0  0  0  0  0  0  0  0  0  0  0
   -0.8050   23.6770  -28.5560 C   0  0  0  0  0  0  0  0  0  0  0  0
   -2.0000   24.3790  -28.7980 C   0  0  0  0  0  0  0  0  0  0  0  0
   -1.9430   25.6570  -29.3420 O   0  0  0  0  0  0  0  0  0  0  0  0
    0.1450   21.4320  -27.6810 C   0  0  0  0  0  0  0  0  0  0  0  0
    1.3850   21.6050  -27.8130 O   0  0  0  0  0  0  0  0  0  0  0  0
   -0.4410   20.2330  -27.1790 N   0  0  0  0  0  0  0  0  0  0  0  0
   -1.8450   20.4820  -27.2120 C   0  0  0  0  0  0  0  0  0  0  0  0
   -2.7190   19.6460  -26.8620 O   0  0  0  0  0  0  0  0  0  0  0  0
   -4.7910   22.6120  -31.8010 C   0  0  0  0  0  0  0  0  0  0  0  0
   -5.2560   21.4460  -32.4330 C   0  0  0  0  0  0  0  0  0  0  0  0
   -6.6130   21.1320  -32.3380 C   0  0  0  0  0  0  0  0  0  0  0  0
   -6.3451   18.1689  -32.5190 H   0  0  0  0  0  0  0  0  0  0  0  0
   -7.3736   18.2068  -33.9912 H   0  0  0  0  0  0  0  0  0  0  0  0
   -5.7748   19.0257  -33.9912 H   0  0  0  0  0  0  0  0  0  0  0  0
   -7.7449   23.7347  -30.4219 H   0  0  0  0  0  0  0  0  0  0  0  0
   -4.2704   22.0117  -27.7146 H   0  0  0  0  0  0  0  0  0  0  0  0
    0.1715   24.1267  -28.7887 H   0  0  0  0  0  0  0  0  0  0  0  0
    0.0440   19.3560  -26.8870 H   0  0  0  0  0  0  0  0  0  0  0  0
   -3.7265   22.8810  -31.8681 H   0  0  0  0  0  0  0  0  0  0  0  0
   -4.5660   20.7952  -32.9902 H   0  0  0  0  0  0  0  0  0  0  0  0
  1  2  1  0
  2  3  1  0
  3  4  2  0
  3  5  1  0
  5  6  2  0
  5  7  1  0
  7  8  2  0
  8  9  1  0
  9 10  1  0
 10 11  2  0
 10 12  2  0
 10 13  1  0
 13 14  1  0
 14 15  2  0
 15 16  1  0
 16 17  2  0
 17 18  1  0
 18 19  2  0
 19 20  1  0
 17 21  1  0
 21 22  2  0
 21 23  1  0
 23 24  1  0
 24 25  2  0
  9 26  2  0
 26 27  1  0
 27 28  2  0
 28  2  1  0
 28  7  1  0
 19 14  1  0
 24 16  1  0
  1 29  1  0
  1 30  1  0
  1 31  1  0
  8 32  1  0
 15 33  1  0
 18 34  1  0
 23 35  1  0
 26 36  1  0
 27 37  1  0
M  CHG  2  13  -1  20  -1
M  END
>  <UniqueID>  (20) 
19

>  <SMILES>  (20) 
CN1C(=O)C(=O)c2cc(S(=O)(=O)[N-]c3cc4c(cc3[O-])C(=O)NC4=O)ccc21

>  <Energy>  (20) 
107.55343634553573

>  <Genealogy>  (20) 
CN1C(=O)C(=O)c2cc(S(=O)(=O)[N-]c3cc4c(cc3[O-])C(=O)NC4=O)ccc21 (protonated)
CN1C(=O)C(=O)c2cc(S(=O)(=O)[N-]c3cc4c(cc3[O-])C(=O)NC4=O)ccc21 (3D coordinates assigned)
CN1C(=O)C(=O)c2cc(S(=O)(=O)[N-]c3cc4c(cc3[O-])C(=O)NC4=O)ccc21 (nonaromatic ring conformer: 107.55343634553573 kcal/mol)

>  <smiles>  (20) 
CN1C(=O)C(=O)c2cc(S(=O)(=O)Nc3cc4c(cc3O)C(=O)NC4=O)ccc21

>  <score_type>  (20) 
oracle

>  <origin>  (20) 
adgpu

>  <m_score__min__energy>  (20) 
-14.720000000000001

>  <m_primary>  (20) 
energy

$$$$
20:0
     RDKit          3D

 45 47  0  0  0  0  0  0  0  0999 V2000
   -3.9380   25.5370  -30.6180 O   0  0  0  0  0  0  0  0  0  0  0  0
   -3.7040   24.3230  -30.3870 C   0  0  0  0  0  0  0  0  0  0  0  0
   -2.8470   23.9470  -29.3040 N   0  0  0  0  0  0  0  0  0  0  0  0
   -3.1640   24.1540  -27.8950 C   0  0  0  0  0  0  0  0  0  0  0  0
   -2.0850   24.9720  -27.2240 C   0  0  0  0  0  0  0  0  0  0  0  0
   -1.9470   24.8500  -25.8290 C   0  0  0  0  0  0  0  0  0  0  0  0
   -0.9640   25.5650  -25.1420 C   0  0  0  0  0  0  0  0  0  0  0  0
   -0.1020   26.4100  -25.8380 C   0  0  0  0  0  0  0  0  0  0  0  0
   -0.2170   26.5390  -27.2230 C   0  0  0  0  0  0  0  0  0  0  0  0
   -1.1950   25.8260  -27.9290 C   0  0  0  0  0  0  0  0  0  0  0  0
   -1.2400   26.0020  -29.3150 O   0  0  0  0  0  0  0  0  0  0  0  0
   -4.2610   23.3310  -31.2560 N   0  0  0  0  0  0  0  0  0  0  0  0
   -5.6560   23.0320  -31.4140 C   0  0  0  0  0  0  0  0  0  0  0  0
   -6.6370   24.0400  -31.4000 C   0  0  0  0  0  0  0  0  0  0  0  0
   -7.9820   23.7140  -31.5900 C   0  0  0  0  0  0  0  0  0  0  0  0
   -8.3590   22.3880  -31.8110 C   0  0  0  0  0  0  0  0  0  0  0  0
   -7.3880   21.3780  -31.8430 C   0  0  0  0  0  0  0  0  0  0  0  0
   -7.8440   19.7060  -32.1600 S   0  0  0  0  0  0  0  0  0  0  0  0
   -8.9940   19.6630  -33.1310 O   0  0  0  0  0  0  0  0  0  0  0  0
   -8.2800   19.0650  -30.8720 O   0  0  0  0  0  0  0  0  0  0  0  0
   -6.4670   18.8480  -32.8030 N   0  0  0  0  0  0  0  0  0  0  0  0
   -6.1310   19.3160  -34.1470 C   0  0  0  0  0  0  0  0  0  0  0  0
   -5.4420   18.1550  -34.8470 C   0  0  0  0  0  0  0  0  0  0  0  0
   -5.8720   16.9130  -34.0820 C   0  0  0  0  0  0  0  0  0  0  0  0
   -6.7480   17.4190  -32.9450 C   0  0  0  0  0  0  0  0  0  0  0  0
   -6.0380   21.7080  -31.6600 C   0  0  0  0  0  0  0  0  0  0  0  0
   -4.1238   24.6852  -27.8142 H   0  0  0  0  0  0  0  0  0  0  0  0
   -3.2292   23.1750  -27.3976 H   0  0  0  0  0  0  0  0  0  0  0  0
   -2.6220   24.1830  -25.2727 H   0  0  0  0  0  0  0  0  0  0  0  0
   -0.8700   25.4612  -24.0509 H   0  0  0  0  0  0  0  0  0  0  0  0
    0.6697   26.9758  -25.2955 H   0  0  0  0  0  0  0  0  0  0  0  0
    0.4674   27.2074  -27.7660 H   0  0  0  0  0  0  0  0  0  0  0  0
   -1.9910   25.6800  -29.9080 H   0  0  0  0  0  0  0  0  0  0  0  0
   -6.3442   25.0880  -31.2390 H   0  0  0  0  0  0  0  0  0  0  0  0
   -8.7465   24.5045  -31.5654 H   0  0  0  0  0  0  0  0  0  0  0  0
   -9.4193   22.1358  -31.9602 H   0  0  0  0  0  0  0  0  0  0  0  0
   -7.0444   19.5997  -34.6903 H   0  0  0  0  0  0  0  0  0  0  0  0
   -5.4797   20.2017  -34.1093 H   0  0  0  0  0  0  0  0  0  0  0  0
   -5.7645   18.0918  -35.8968 H   0  0  0  0  0  0  0  0  0  0  0  0
   -4.3483   18.2726  -34.8566 H   0  0  0  0  0  0  0  0  0  0  0  0
   -6.4429   16.2372  -34.7357 H   0  0  0  0  0  0  0  0  0  0  0  0
   -5.0078   16.3437  -33.7092 H   0  0  0  0  0  0  0  0  0  0  0  0
   -7.8099   17.2634  -33.1862 H   0  0  0  0  0  0  0  0  0  0  0  0
   -6.5355   16.8788  -32.0107 H   0  0  0  0  0  0  0  0  0  0  0  0
   -5.2723   20.9198  -31.7101 H   0  0  0  0  0  0  0  0  0  0  0  0
  1  2  2  0
  2  3  1  0
  3  4  1  0
  4  5  1  0
  5  6  2  0
  6  7  1  0
  7  8  2  0
  8  9  1  0
  9 10  2  0
 10 11  1  0
  2 12  1  0
 12 13  1  0
 13 14  2  0
 14 15  1  0
 15 16  2  0
 16 17  1  0
 17 18  1  0
 18 19  2  0
 18 20  2  0
 18 21  1  0
 21 22  1  0
 22 23  1  0
 23 24  1  0
 24 25  1  0
 17 26  2  0
 10  5  1  0
 26 13  1  0
 25 21  1  0
  4 27  1  0
  4 28  1  0
  6 29  1  0
  7 30  1  0
  8 31  1  0
  9 32  1  0
 11 33  1  0
 14 34  1  0
 15 35  1  0
 16 36  1  0
 22 37  1  0
 22 38  1  0
 23 39  1  0
 23 40  1  0
 24 41  1  0
 24 42  1  0
 25 43  1  0
 25 44  1  0
 26 45  1  0
M  CHG  2   3  -1  12  -1
M  END
>  <UniqueID>  (21) 
20

>  <SMILES>  (21) 
O=C([N-]Cc1ccccc1O)[N-]c1cccc(S(=O)(=O)N2CCCC2)c1

>  <Energy>  (21) 
51.06706341033668

>  <Genealogy>  (21) 
O=C([N-]Cc1ccccc1O)[N-]c1cccc(S(=O)(=O)N2CCCC2)c1 (protonated)
O=C([N-]Cc1ccccc1O)[N-]c1cccc(S(=O)(=O)N2CCCC2)c1 (3D coordinates assigned)
O=C([N-]Cc1ccccc1O)[N-]c1cccc(S(=O)(=O)N2CCCC2)c1 (nonaromatic ring conformer: 51.06706341033668 kcal/mol)

>  <smiles>  (21) 
O=C(NCc1ccccc1O)Nc1cccc(S(=O)(=O)N2CCCC2)c1

>  <score_type>  (21) 
oracle

>  <origin>  (21) 
adgpu

>  <m_score__min__energy>  (21) 
-12.44

>  <m_primary>  (21) 
energy

$$$$
21:0
     RDKit          3D

 56 59  0  0  0  0  0  0  0  0999 V2000
   -3.9510   25.5970  -30.2310 O   0  0  0  0  0  0  0  0  0  0  0  0
   -3.5120   24.4180  -30.2850 C   0  0  0  0  0  0  0  0  0  0  0  0
   -3.9830   23.5560  -31.3310 N   0  0  0  0  0  0  0  0  0  0  0  0
   -5.3370   23.1210  -31.5270 C   0  0  0  0  0  0  0  0  0  0  0  0
   -6.4310   23.8870  -31.0860 C   0  0  0  0  0  0  0  0  0  0  0  0
   -7.7350   23.4240  -31.2820 C   0  0  0  0  0  0  0  0  0  0  0  0
   -7.9580   22.1920  -31.9020 C   0  0  0  0  0  0  0  0  0  0  0  0
   -6.8740   21.4130  -32.3270 C   0  0  0  0  0  0  0  0  0  0  0  0
   -7.1670   19.8430  -33.0730 S   0  0  0  0  0  0  0  0  0  0  0  0
   -8.6270   19.5160  -32.9260 O   0  0  0  0  0  0  0  0  0  0  0  0
   -6.8430   19.9090  -34.5400 O   0  0  0  0  0  0  0  0  0  0  0  0
   -6.2150   18.6000  -32.2860 N   0  0  0  0  0  0  0  0  0  0  0  0
   -4.8300   18.5650  -32.7880 C   0  0  0  0  0  0  0  0  0  0  0  0
   -4.7360   17.9610  -34.2090 C   0  0  0  0  0  0  0  0  0  0  0  0
   -5.8670   17.1890  -34.5750 O   0  0  0  0  0  0  0  0  0  0  0  0
   -6.2890   16.3920  -33.4910 C   0  0  0  0  0  0  0  0  0  0  0  0
   -6.8710   17.2750  -32.3710 C   0  0  0  0  0  0  0  0  0  0  0  0
   -5.5660   21.8750  -32.1250 C   0  0  0  0  0  0  0  0  0  0  0  0
   -2.5510   23.9560  -29.2580 C   0  0  0  0  0  0  0  0  0  0  0  0
   -2.6750   22.6580  -28.7340 C   0  0  0  0  0  0  0  0  0  0  0  0
   -1.7910   22.1970  -27.7480 C   0  0  0  0  0  0  0  0  0  0  0  0
   -1.9770   20.5730  -27.0750 S   0  0  0  0  0  0  0  0  0  0  0  0
   -3.4310   20.1920  -27.1110 O   0  0  0  0  0  0  0  0  0  0  0  0
   -1.5360   20.5860  -25.6380 O   0  0  0  0  0  0  0  0  0  0  0  0
   -1.0550   19.3690  -27.9430 N   0  0  0  0  0  0  0  0  0  0  0  0
   -0.8100   18.1750  -27.1350 C   0  0  0  0  0  0  0  0  0  0  0  0
    0.4610   17.5390  -27.6790 C   0  0  0  0  0  0  0  0  0  0  0  0
    1.1440   18.6300  -28.4910 C   0  0  0  0  0  0  0  0  0  0  0  0
    0.2660   19.8600  -28.3270 C   0  0  0  0  0  0  0  0  0  0  0  0
   -0.7780   23.0430  -27.2800 C   0  0  0  0  0  0  0  0  0  0  0  0
   -0.6320   24.3250  -27.8110 C   0  0  0  0  0  0  0  0  0  0  0  0
   -1.5040   24.7830  -28.8030 C   0  0  0  0  0  0  0  0  0  0  0  0
   -1.3070   26.0490  -29.3430 O   0  0  0  0  0  0  0  0  0  0  0  0
   -6.2600   24.8518  -30.5861 H   0  0  0  0  0  0  0  0  0  0  0  0
   -8.5886   24.0316  -30.9470 H   0  0  0  0  0  0  0  0  0  0  0  0
   -8.9863   21.8332  -32.0567 H   0  0  0  0  0  0  0  0  0  0  0  0
   -4.4368   19.5920  -32.8134 H   0  0  0  0  0  0  0  0  0  0  0  0
   -4.2427   17.9268  -32.1114 H   0  0  0  0  0  0  0  0  0  0  0  0
   -4.6293   18.7846  -34.9303 H   0  0  0  0  0  0  0  0  0  0  0  0
   -3.8689   17.2842  -34.2143 H   0  0  0  0  0  0  0  0  0  0  0  0
   -7.0612   15.6890  -33.8368 H   0  0  0  0  0  0  0  0  0  0  0  0
   -5.4240   15.8386  -33.0965 H   0  0  0  0  0  0  0  0  0  0  0  0
   -7.9435   17.4254  -32.5635 H   0  0  0  0  0  0  0  0  0  0  0  0
   -6.6967   16.7571  -31.4163 H   0  0  0  0  0  0  0  0  0  0  0  0
   -4.7133   21.2547  -32.4383 H   0  0  0  0  0  0  0  0  0  0  0  0
   -3.4738   21.9968  -29.1011 H   0  0  0  0  0  0  0  0  0  0  0  0
   -0.6746   18.4518  -26.0791 H   0  0  0  0  0  0  0  0  0  0  0  0
   -1.6586   17.4772  -27.1886 H   0  0  0  0  0  0  0  0  0  0  0  0
    1.1101   17.2099  -26.8541 H   0  0  0  0  0  0  0  0  0  0  0  0
    0.2443   16.6500  -28.2895 H   0  0  0  0  0  0  0  0  0  0  0  0
    2.1549   18.8235  -28.1030 H   0  0  0  0  0  0  0  0  0  0  0  0
    1.2581   18.3450  -29.5473 H   0  0  0  0  0  0  0  0  0  0  0  0
    0.6716   20.5164  -27.5430 H   0  0  0  0  0  0  0  0  0  0  0  0
    0.2210   20.4473  -29.2560 H   0  0  0  0  0  0  0  0  0  0  0  0
   -0.0949   22.6956  -26.4909 H   0  0  0  0  0  0  0  0  0  0  0  0
    0.1740   24.9791  -27.4469 H   0  0  0  0  0  0  0  0  0  0  0  0
  1  2  2  0
  2  3  1  0
  3  4  1  0
  4  5  2  0
  5  6  1  0
  6  7  2  0
  7  8  1  0
  8  9  1  0
  9 10  2  0
  9 11  2  0
  9 12  1  0
 12 13  1  0
 13 14  1  0
 14 15  1  0
 15 16  1  0
 16 17  1  0
  8 18  2  0
  2 19  1  0
 19 20  2  0
 20 21  1  0
 21 22  1  0
 22 23  2  0
 22 24  2  0
 22 25  1  0
 25 26  1  0
 26 27  1  0
 27 28  1  0
 28 29  1  0
 21 30  2  0
 30 31  1  0
 31 32  2  0
 32 33  1  0
 18  4  1  0
 32 19  1  0
 17 12  1  0
 29 25  1  0
  5 34  1  0
  6 35  1  0
  7 36  1  0
 13 37  1  0
 13 38  1  0
 14 39  1  0
 14 40  1  0
 16 41  1  0
 16 42  1  0
 17 43  1  0
 17 44  1  0
 18 45  1  0
 20 46  1  0
 26 47  1  0
 26 48  1  0
 27 49  1  0
 27 50  1  0
 28 51  1  0
 28 52  1  0
 29 53  1  0
 29 54  1  0
 30 55  1  0
 31 56  1  0
M  CHG  2   3  -1  33  -1
M  END
>  <UniqueID>  (22) 
21

>  <SMILES>  (22) 
O=C([N-]c1cccc(S(=O)(=O)N2CCOCC2)c1)c1cc(S(=O)(=O)N2CCCC2)ccc1[O-]

>  <Energy>  (22) 
78.3125002339604

>  <Genealogy>  (22) 
O=C([N-]c1cccc(S(=O)(=O)N2CCOCC2)c1)c1cc(S(=O)(=O)N2CCCC2)ccc1[O-] (protonated)
O=C([N-]c1cccc(S(=O)(=O)N2CCOCC2)c1)c1cc(S(=O)(=O)N2CCCC2)ccc1[O-] (3D coordinates assigned)
O=C([N-]c1cccc(S(=O)(=O)N2CCOCC2)c1)c1cc(S(=O)(=O)N2CCCC2)ccc1[O-] (nonaromatic ring conformer: 78.3125002339604 kcal/mol)

>  <smiles>  (22) 
O=C(Nc1cccc(S(=O)(=O)N2CCOCC2)c1)c1cc(S(=O)(=O)N2CCCC2)ccc1O

>  <score_type>  (22) 
oracle

>  <origin>  (22) 
adgpu

>  <m_score__min__energy>  (22) 
-14.800000000000001

>  <m_primary>  (22) 
energy

$$$$
22:0
     RDKit          3D

 56 60  0  0  0  0  0  0  0  0999 V2000
   -1.7054   16.5025  -32.7439 H   0  0  0  0  0  0  0  0  0  0  0  0
   -2.7550   16.7090  -33.0000 C   0  0  0  0  0  0  0  0  0  0  0  0
   -3.7440   15.7560  -32.7450 C   0  0  0  0  0  0  0  0  0  0  0  0
   -3.4150   14.5650  -32.1890 F   0  0  0  0  0  0  0  0  0  0  0  0
   -5.0400   16.0200  -33.0640 N   0  0  0  0  0  0  0  0  0  0  0  0
   -5.4170   17.2060  -33.6200 C   0  0  0  0  0  0  0  0  0  0  0  0
   -6.8510   17.4280  -33.9950 C   0  0  0  0  0  0  0  0  0  0  0  0
   -7.3645   16.4577  -34.0637 H   0  0  0  0  0  0  0  0  0  0  0  0
   -6.8961   17.9419  -34.9665 H   0  0  0  0  0  0  0  0  0  0  0  0
   -7.5080   18.2540  -32.9820 N   0  0  0  0  0  0  0  0  0  0  0  0
   -8.4230   17.8480  -32.0670 C   0  0  0  0  0  0  0  0  0  0  0  0
   -8.8350   16.8286  -32.0348 H   0  0  0  0  0  0  0  0  0  0  0  0
   -8.7800   18.8260  -31.1940 N   0  0  0  0  0  0  0  0  0  0  0  0
   -8.0340   19.8740  -31.5920 C   0  0  0  0  0  0  0  0  0  0  0  0
   -7.9930   21.1480  -31.0310 C   0  0  0  0  0  0  0  0  0  0  0  0
   -8.6269   21.4093  -30.1708 H   0  0  0  0  0  0  0  0  0  0  0  0
   -7.1100   22.0970  -31.6020 C   0  0  0  0  0  0  0  0  0  0  0  0
   -7.0180   23.4070  -31.1100 O   0  0  0  0  0  0  0  0  0  0  0  0
   -5.8220   24.0590  -30.7830 C   0  0  0  0  0  0  0  0  0  0  0  0
   -4.6940   23.3940  -30.4670 N   0  0  0  0  0  0  0  0  0  0  0  0
   -3.8180   24.3860  -30.1900 C   0  0  0  0  0  0  0  0  0  0  0  0
   -2.5790   24.1880  -29.8420 N   0  0  0  0  0  0  0  0  0  0  0  0
   -1.9190   22.8870  -29.6780 C   0  0  0  0  0  0  0  0  0  0  0  0
   -1.6687   22.4990  -30.6764 H   0  0  0  0  0  0  0  0  0  0  0  0
   -2.8710   21.8270  -29.0550 C   0  0  0  0  0  0  0  0  0  0  0  0
   -3.0486   21.0350  -29.7974 H   0  0  0  0  0  0  0  0  0  0  0  0
   -3.8021   22.3420  -28.7762 H   0  0  0  0  0  0  0  0  0  0  0  0
   -2.3000   21.1880  -27.7850 C   0  0  0  0  0  0  0  0  0  0  0  0
   -2.9211   20.3261  -27.4999 H   0  0  0  0  0  0  0  0  0  0  0  0
   -2.3001   21.9320  -26.9748 H   0  0  0  0  0  0  0  0  0  0  0  0
   -0.9200   20.7360  -28.0260 N   0  0  0  0  0  0  0  0  0  0  0  0
   -0.4990   19.4110  -27.6260 C   0  0  0  0  0  0  0  0  0  0  0  0
   -1.3080   18.6340  -27.0470 O   0  0  0  0  0  0  0  0  0  0  0  0
    0.8940   18.9200  -27.8840 C   0  0  0  0  0  0  0  0  0  0  0  0
    1.4030   18.7406  -26.9255 H   0  0  0  0  0  0  0  0  0  0  0  0
    0.8519   17.9825  -28.4579 H   0  0  0  0  0  0  0  0  0  0  0  0
    1.4491   19.6767  -28.4579 H   0  0  0  0  0  0  0  0  0  0  0  0
    0.0450   21.6660  -28.6400 C   0  0  0  0  0  0  0  0  0  0  0  0
    0.4001   21.2351  -29.5878 H   0  0  0  0  0  0  0  0  0  0  0  0
    0.8755   21.8102  -27.9333 H   0  0  0  0  0  0  0  0  0  0  0  0
   -0.5810   23.0380  -28.9230 C   0  0  0  0  0  0  0  0  0  0  0  0
    0.1135   23.6314  -29.5358 H   0  0  0  0  0  0  0  0  0  0  0  0
   -0.7731   23.5416  -27.9641 H   0  0  0  0  0  0  0  0  0  0  0  0
   -4.3460   25.6200  -30.3100 N   0  0  0  0  0  0  0  0  0  0  0  0
   -3.8720   26.5360  -30.1430 H   0  0  0  0  0  0  0  0  0  0  0  0
   -5.6190   25.4220  -30.6820 C   0  0  0  0  0  0  0  0  0  0  0  0
   -6.3679   26.2048  -30.8727 H   0  0  0  0  0  0  0  0  0  0  0  0
   -6.3290   21.7410  -32.7260 C   0  0  0  0  0  0  0  0  0  0  0  0
   -5.6640   22.4880  -33.1839 H   0  0  0  0  0  0  0  0  0  0  0  0
   -6.3920   20.4430  -33.2660 C   0  0  0  0  0  0  0  0  0  0  0  0
   -5.7760   20.1545  -34.1305 H   0  0  0  0  0  0  0  0  0  0  0  0
   -7.2640   19.5360  -32.6650 C   0  0  0  0  0  0  0  0  0  0  0  0
   -4.4470   18.1810  -33.8990 C   0  0  0  0  0  0  0  0  0  0  0  0
   -4.7360   19.1361  -34.3619 H   0  0  0  0  0  0  0  0  0  0  0  0
   -3.1120   17.9260  -33.5830 C   0  0  0  0  0  0  0  0  0  0  0  0
   -2.3420   18.6830  -33.7930 H   0  0  0  0  0  0  0  0  0  0  0  0
  1  2  1  0
  2  3  2  0
  3  4  1  0
  3  5  1  0
  5  6  2  0
  6  7  1  0
  7  8  1  0
  7  9  1  0
  7 10  1  0
 10 11  1  0
 11 12  1  0
 11 13  2  0
 13 14  1  0
 14 15  2  0
 15 16  1  0
 15 17  1  0
 17 18  1  0
 18 19  1  0
 19 20  1  0
 20 21  1  0
 21 22  2  0
 22 23  1  0
 23 24  1  0
 23 25  1  0
 25 26  1  0
 25 27  1  0
 25 28  1  0
 28 29  1  0
 28 30  1  0
 28 31  1  0
 31 32  1  0
 32 33  2  0
 32 34  1  0
 34 35  1  0
 34 36  1  0
 34 37  1  0
 31 38  1  0
 38 39  1  0
 38 40  1  0
 38 41  1  0
 41 42  1  0
 41 43  1  0
 21 44  1  0
 44 45  1  0
 44 46  1  0
 46 47  1  0
 17 48  2  0
 48 49  1  0
 48 50  1  0
 50 51  1  0
 50 52  2  0
  6 53  1  0
 53 54  1  0
 53 55  2  0
 55 56  1  0
 55  2  1  0
 52 10  1  0
 52 14  1  0
 46 19  2  0
 41 23  1  0
M  CHG  1  20  -1
M  END
>  <UniqueID>  (23) 
22

>  <SMILES>  (23) 
CC(=O)N1CCC(/N=c2\[n-]c(Oc3ccc4c(c3)ncn4Cc3cccc(F)n3)c[nH]2)CC1

>  <Energy>  (23) 
134.41010881498102

>  <Genealogy>  (23) 
CC(=O)N1CCC(N=c2[n-]c(Oc3ccc4c(c3)ncn4Cc3cccc(F)n3)c[nH]2)CC1 (protonated)
CC(=O)N1CCC(/N=c2\[n-]c(Oc3ccc4c(c3)ncn4Cc3cccc(F)n3)c[nH]2)CC1 (cis-trans isomerization)
CC(=O)N1CCC(/N=c2\[n-]c(Oc3ccc4c(c3)ncn4Cc3cccc(F)n3)c[nH]2)CC1 (3D coordinates assigned)
CC(=O)N1CCC(/N=c2\[n-]c(Oc3ccc4c(c3)ncn4Cc3cccc(F)n3)c[nH]2)CC1 (nonaromatic ring conformer: 134.41010881498102 kcal/mol)

>  <smiles>  (23) 
CC(=O)N1CCC(N=c2[nH]cc(Oc3ccc4c(c3)ncn4Cc3cccc(F)n3)[nH]2)CC1

>  <score_type>  (23) 
oracle

>  <origin>  (23) 
adgpu

>  <m_score__min__energy>  (23) 
-10.359999999999999

>  <m_primary>  (23) 
energy

$$$$
23:0
     RDKit          3D

 54 57  0  0  0  0  0  0  0  0999 V2000
   -7.5820   19.4340  -32.8630 C   0  0  0  0  0  0  0  0  0  0  0  0
   -6.1480   19.8470  -32.9050 C   0  0  0  0  0  0  0  0  0  0  0  0
   -5.5930   20.9060  -32.2130 C   0  0  0  0  0  0  0  0  0  0  0  0
   -4.2500   20.8460  -32.5230 C   0  0  0  0  0  0  0  0  0  0  0  0
   -3.2320   21.7700  -31.9930 C   0  0  0  0  0  0  0  0  0  0  0  0
   -2.1300   21.8670  -32.5980 O   0  0  0  0  0  0  0  0  0  0  0  0
   -3.4700   22.5270  -30.7950 N   0  0  0  0  0  0  0  0  0  0  0  0
   -2.4270   23.1310  -30.0090 C   0  0  0  0  0  0  0  0  0  0  0  0
   -1.4010   22.3520  -29.4470 C   0  0  0  0  0  0  0  0  0  0  0  0
   -0.4580   22.9250  -28.5900 C   0  0  0  0  0  0  0  0  0  0  0  0
    0.8030   21.9030  -27.8260 S   0  0  0  0  0  0  0  0  0  0  0  0
   -0.3470   20.5670  -27.4460 C   0  0  0  0  0  0  0  0  0  0  0  0
   -1.4610   20.8710  -26.6510 C   0  0  0  0  0  0  0  0  0  0  0  0
   -2.3730   19.8770  -26.2950 C   0  0  0  0  0  0  0  0  0  0  0  0
   -2.1700   18.5630  -26.7140 C   0  0  0  0  0  0  0  0  0  0  0  0
   -1.0570   18.2390  -27.4910 C   0  0  0  0  0  0  0  0  0  0  0  0
   -0.1420   19.2340  -27.8880 C   0  0  0  0  0  0  0  0  0  0  0  0
    1.0860   18.8270  -28.6750 C   0  0  0  0  0  0  0  0  0  0  0  0
    0.9770   19.2130  -30.0850 N   0  0  0  0  0  0  0  0  0  0  0  0
   -0.2810   19.4730  -30.7600 C   0  0  0  0  0  0  0  0  0  0  0  0
    0.0780   19.7950  -32.2240 C   0  0  0  0  0  0  0  0  0  0  0  0
    1.5820   19.5360  -32.3960 C   0  0  0  0  0  0  0  0  0  0  0  0
    2.0340   19.2370  -31.0240 C   0  0  0  0  0  0  0  0  0  0  0  0
    3.2390   19.0440  -30.7130 O   0  0  0  0  0  0  0  0  0  0  0  0
   -0.5090   24.2960  -28.3180 C   0  0  0  0  0  0  0  0  0  0  0  0
   -1.5180   25.0840  -28.8760 C   0  0  0  0  0  0  0  0  0  0  0  0
   -2.4840   24.5040  -29.7070 C   0  0  0  0  0  0  0  0  0  0  0  0
   -3.4950   25.2990  -30.2340 O   0  0  0  0  0  0  0  0  0  0  0  0
   -4.0370   19.7770  -33.3240 N   0  0  0  0  0  0  0  0  0  0  0  0
   -2.7630   19.2860  -33.8400 C   0  0  0  0  0  0  0  0  0  0  0  0
   -5.1880   19.1670  -33.5600 N   0  0  0  0  0  0  0  0  0  0  0  0
   -7.9062   19.3406  -31.8160 H   0  0  0  0  0  0  0  0  0  0  0  0
   -8.1968   20.1916  -33.3710 H   0  0  0  0  0  0  0  0  0  0  0  0
   -7.6997   18.4655  -33.3710 H   0  0  0  0  0  0  0  0  0  0  0  0
   -6.1048   21.6313  -31.5634 H   0  0  0  0  0  0  0  0  0  0  0  0
   -4.4420   22.5900  -30.4260 H   0  0  0  0  0  0  0  0  0  0  0  0
   -1.3398   21.2797  -29.6844 H   0  0  0  0  0  0  0  0  0  0  0  0
   -1.6175   21.9032  -26.3045 H   0  0  0  0  0  0  0  0  0  0  0  0
   -3.2519   20.1301  -25.6839 H   0  0  0  0  0  0  0  0  0  0  0  0
   -2.8888   17.7797  -26.4315 H   0  0  0  0  0  0  0  0  0  0  0  0
   -0.8923   17.1953  -27.7968 H   0  0  0  0  0  0  0  0  0  0  0  0
    1.9685   19.3173  -28.2381 H   0  0  0  0  0  0  0  0  0  0  0  0
    1.1790   17.7321  -28.6247 H   0  0  0  0  0  0  0  0  0  0  0  0
   -0.9302   18.5863  -30.7123 H   0  0  0  0  0  0  0  0  0  0  0  0
   -0.8262   20.3036  -30.2879 H   0  0  0  0  0  0  0  0  0  0  0  0
   -0.4952   19.1466  -32.9030 H   0  0  0  0  0  0  0  0  0  0  0  0
   -0.1657   20.8408  -32.4625 H   0  0  0  0  0  0  0  0  0  0  0  0
    1.7607   18.6812  -33.0648 H   0  0  0  0  0  0  0  0  0  0  0  0
    2.1157   20.3841  -32.8498 H   0  0  0  0  0  0  0  0  0  0  0  0
    0.2469   24.7544  -27.6634 H   0  0  0  0  0  0  0  0  0  0  0  0
   -1.5538   26.1624  -28.6622 H   0  0  0  0  0  0  0  0  0  0  0  0
   -2.1009   19.0308  -32.9995 H   0  0  0  0  0  0  0  0  0  0  0  0
   -2.9370   18.3905  -34.4547 H   0  0  0  0  0  0  0  0  0  0  0  0
   -2.2910   20.0666  -34.4547 H   0  0  0  0  0  0  0  0  0  0  0  0
  1  2  1  0
  2  3  1  0
  3  4  2  0
  4  5  1  0
  5  6  2  0
  5  7  1  0
  7  8  1  0
  8  9  2  0
  9 10  1  0
 10 11  1  0
 11 12  1  0
 12 13  2  0
 13 14  1  0
 14 15  2  0
 15 16  1  0
 16 17  2  0
 17 18  1  0
 18 19  1  0
 19 20  1  0
 20 21  1  0
 21 22  1  0
 22 23  1  0
 23 24  2  0
 10 25  2  0
 25 26  1  0
 26 27  2  0
 27 28  1  0
  4 29  1  0
 29 30  1  0
 29 31  1  0
 31  2  2  0
 27  8  1  0
 17 12  1  0
 23 19  1  0
  1 32  1  0
  1 33  1  0
  1 34  1  0
  3 35  1  0
  7 36  1  0
  9 37  1  0
 13 38  1  0
 14 39  1  0
 15 40  1  0
 16 41  1  0
 18 42  1  0
 18 43  1  0
 20 44  1  0
 20 45  1  0
 21 46  1  0
 21 47  1  0
 22 48  1  0
 22 49  1  0
 25 50  1  0
 26 51  1  0
 30 52  1  0
 30 53  1  0
 30 54  1  0
M  CHG  1  28  -1
M  END
>  <UniqueID>  (24) 
23

>  <SMILES>  (24) 
Cc1cc(C(=O)Nc2cc(Sc3ccccc3CN3CCCC3=O)ccc2[O-])n(C)n1

>  <Energy>  (24) 
93.14512956656395

>  <Genealogy>  (24) 
Cc1cc(C(=O)Nc2cc(Sc3ccccc3CN3CCCC3=O)ccc2[O-])n(C)n1 (protonated)
Cc1cc(C(=O)Nc2cc(Sc3ccccc3CN3CCCC3=O)ccc2[O-])n(C)n1 (3D coordinates assigned)
Cc1cc(C(=O)Nc2cc(Sc3ccccc3CN3CCCC3=O)ccc2[O-])n(C)n1 (nonaromatic ring conformer: 93.14512956656395 kcal/mol)

>  <smiles>  (24) 
Cc1cc(C(=O)Nc2cc(Sc3ccccc3CN3CCCC3=O)ccc2O)n(C)n1

>  <score_type>  (24) 
oracle

>  <origin>  (24) 
adgpu

>  <m_score__min__energy>  (24) 
-10.800000000000001

>  <m_primary>  (24) 
energy

$$$$
24:0
     RDKit          3D

 50 52  0  0  0  0  0  0  0  0999 V2000
   -9.1870   21.3010  -30.9120 C   0  0  0  0  0  0  0  0  0  0  0  0
   -8.6460   19.8500  -31.7850 S   0  0  0  0  0  0  0  0  0  0  0  0
   -9.4440   19.6960  -33.0500 O   0  0  0  0  0  0  0  0  0  0  0  0
   -8.8630   18.6360  -30.9260 O   0  0  0  0  0  0  0  0  0  0  0  0
   -6.9360   20.0070  -32.1750 C   0  0  0  0  0  0  0  0  0  0  0  0
   -6.0670   18.9260  -31.9770 C   0  0  0  0  0  0  0  0  0  0  0  0
   -4.7130   19.0440  -32.2980 C   0  0  0  0  0  0  0  0  0  0  0  0
   -4.2080   20.2510  -32.8130 C   0  0  0  0  0  0  0  0  0  0  0  0
   -2.8190   20.3820  -33.1560 N   0  0  0  0  0  0  0  0  0  0  0  0
   -2.2930   19.8170  -34.2320 N   0  0  0  0  0  0  0  0  0  0  0  0
   -0.9710   20.0690  -34.2230 C   0  0  0  0  0  0  0  0  0  0  0  0
   -0.0320   19.6490  -35.3130 C   0  0  0  0  0  0  0  0  0  0  0  0
    0.2710   20.7970  -36.2880 C   0  0  0  0  0  0  0  0  0  0  0  0
    1.0750   21.9370  -35.6470 C   0  0  0  0  0  0  0  0  0  0  0  0
    0.2620   23.0520  -35.3960 O   0  0  0  0  0  0  0  0  0  0  0  0
   -0.6390   20.8250  -33.1150 C   0  0  0  0  0  0  0  0  0  0  0  0
   -1.8410   21.0150  -32.4600 C   0  0  0  0  0  0  0  0  0  0  0  0
   -2.0250   21.8720  -31.2680 C   0  0  0  0  0  0  0  0  0  0  0  0
   -3.2290   22.5690  -31.0840 C   0  0  0  0  0  0  0  0  0  0  0  0
   -3.4130   23.3770  -29.9570 C   0  0  0  0  0  0  0  0  0  0  0  0
   -2.4020   23.4820  -28.9930 C   0  0  0  0  0  0  0  0  0  0  0  0
   -2.6230   24.5160  -27.5850 S   0  0  0  0  0  0  0  0  0  0  0  0
   -4.3020   24.8720  -27.3850 N   0  0  0  0  0  0  0  0  0  0  0  0
   -1.8580   25.7970  -27.7690 O   0  0  0  0  0  0  0  0  0  0  0  0
   -2.1090   23.8210  -26.3560 O   0  0  0  0  0  0  0  0  0  0  0  0
   -1.2030   22.7780  -29.1670 C   0  0  0  0  0  0  0  0  0  0  0  0
   -1.0190   21.9700  -30.2930 C   0  0  0  0  0  0  0  0  0  0  0  0
   -5.0880   21.3210  -33.0380 C   0  0  0  0  0  0  0  0  0  0  0  0
   -6.4430   21.2010  -32.7170 C   0  0  0  0  0  0  0  0  0  0  0  0
   -9.1207   21.1231  -29.8285 H   0  0  0  0  0  0  0  0  0  0  0  0
   -8.5460   22.1527  -31.1836 H   0  0  0  0  0  0  0  0  0  0  0  0
  -10.2291   21.5251  -31.1836 H   0  0  0  0  0  0  0  0  0  0  0  0
   -6.4527   17.9808  -31.5672 H   0  0  0  0  0  0  0  0  0  0  0  0
   -4.0382   18.1885  -32.1472 H   0  0  0  0  0  0  0  0  0  0  0  0
    0.9110   19.3114  -34.8584 H   0  0  0  0  0  0  0  0  0  0  0  0
   -0.5129   18.8394  -35.8815 H   0  0  0  0  0  0  0  0  0  0  0  0
    0.8479   20.3946  -37.1338 H   0  0  0  0  0  0  0  0  0  0  0  0
   -0.6936   21.2170  -36.6091 H   0  0  0  0  0  0  0  0  0  0  0  0
    1.5033   21.5841  -34.6973 H   0  0  0  0  0  0  0  0  0  0  0  0
    1.8715   22.2364  -36.3441 H   0  0  0  0  0  0  0  0  0  0  0  0
   -0.6510   22.8150  -35.7040 H   0  0  0  0  0  0  0  0  0  0  0  0
    0.3555   21.1920  -32.8212 H   0  0  0  0  0  0  0  0  0  0  0  0
   -4.0324   22.4795  -31.8300 H   0  0  0  0  0  0  0  0  0  0  0  0
   -4.3542   23.9315  -29.8274 H   0  0  0  0  0  0  0  0  0  0  0  0
   -4.3670   25.6720  -26.7170 H   0  0  0  0  0  0  0  0  0  0  0  0
   -4.6520   25.2190  -28.3070 H   0  0  0  0  0  0  0  0  0  0  0  0
   -0.4041   22.8613  -28.4154 H   0  0  0  0  0  0  0  0  0  0  0  0
   -0.0814   21.4081  -30.4159 H   0  0  0  0  0  0  0  0  0  0  0  0
   -4.7091   22.2593  -33.4694 H   0  0  0  0  0  0  0  0  0  0  0  0
   -7.1245   22.0468  -32.8905 H   0  0  0  0  0  0  0  0  0  0  0  0
  1  2  1  0
  2  3  2  0
  2  4  2  0
  2  5  1  0
  5  6  2  0
  6  7  1  0
  7  8  2  0
  8  9  1  0
  9 10  1  0
 10 11  2  0
 11 12  1  0
 12 13  1  0
 13 14  1  0
 14 15  1  0
 11 16  1  0
 16 17  2  0
 17 18  1  0
 18 19  2  0
 19 20  1  0
 20 21  2  0
 21 22  1  0
 22 23  1  0
 22 24  2  0
 22 25  2  0
 21 26  1  0
 26 27  2  0
  8 28  1  0
 28 29  2  0
 29  5  1  0
 17  9  1  0
 27 18  1  0
  1 30  1  0
  1 31  1  0
  1 32  1  0
  6 33  1  0
  7 34  1  0
 12 35  1  0
 12 36  1  0
 13 37  1  0
 13 38  1  0
 14 39  1  0
 14 40  1  0
 15 41  1  0
 16 42  1  0
 19 43  1  0
 20 44  1  0
 23 45  1  0
 23 46  1  0
 26 47  1  0
 27 48  1  0
 28 49  1  0
 29 50  1  0
M  END
>  <UniqueID>  (25) 
24

>  <SMILES>  (25) 
CS(=O)(=O)c1ccc(-n2nc(CCCO)cc2-c2ccc(S(N)(=O)=O)cc2)cc1

>  <Energy>  (25) 
81.61820140733931

>  <Genealogy>  (25) 
CS(=O)(=O)c1ccc(-n2nc(CCCO)cc2-c2ccc(S(N)(=O)=O)cc2)cc1 (3D coordinates assigned)
CS(=O)(=O)c1ccc(-n2nc(CCCO)cc2-c2ccc(S(N)(=O)=O)cc2)cc1 (optimized conformer: 81.61820140733931 kcal/mol)

>  <smiles>  (25) 
CS(=O)(=O)c1ccc(-n2nc(CCCO)cc2-c2ccc(S(N)(=O)=O)cc2)cc1

>  <score_type>  (25) 
oracle

>  <origin>  (25) 
adgpu

>  <m_score__min__energy>  (25) 
-9.2100000000000009

>  <m_primary>  (25) 
energy

$$$$
25:0
     RDKit          3D

 52 55  0  0  0  0  0  0  0  0999 V2000
    0.2140   15.7720  -31.2810 C   0  0  0  0  0  0  0  0  0  0  0  0
   -0.7530   16.4550  -32.0750 O   0  0  0  0  0  0  0  0  0  0  0  0
   -0.5110   17.6560  -32.7660 C   0  0  0  0  0  0  0  0  0  0  0  0
   -0.2590   18.8680  -32.0880 C   0  0  0  0  0  0  0  0  0  0  0  0
   -0.0260   20.0470  -32.8050 C   0  0  0  0  0  0  0  0  0  0  0  0
   -0.0360   20.0320  -34.2020 C   0  0  0  0  0  0  0  0  0  0  0  0
    0.2790   21.6470  -35.1790 Br  0  0  0  0  0  0  0  0  0  0  0  0
   -0.2780   18.8370  -34.8870 C   0  0  0  0  0  0  0  0  0  0  0  0
   -0.5200   17.6460  -34.1770 C   0  0  0  0  0  0  0  0  0  0  0  0
   -0.8250   16.1480  -35.0660 S   0  0  0  0  0  0  0  0  0  0  0  0
   -0.2950   14.9860  -34.2690 O   0  0  0  0  0  0  0  0  0  0  0  0
   -0.1220   16.1680  -36.4000 O   0  0  0  0  0  0  0  0  0  0  0  0
   -2.5230   15.9170  -35.3380 N   0  0  0  0  0  0  0  0  0  0  0  0
   -3.5550   16.3660  -34.4480 C   0  0  0  0  0  0  0  0  0  0  0  0
   -4.4570   17.3870  -34.8310 C   0  0  0  0  0  0  0  0  0  0  0  0
   -5.4380   17.7750  -33.9240 C   0  0  0  0  0  0  0  0  0  0  0  0
   -5.5590   17.1780  -32.6890 C   0  0  0  0  0  0  0  0  0  0  0  0
   -4.6770   16.1870  -32.2690 C   0  0  0  0  0  0  0  0  0  0  0  0
   -3.6610   15.7790  -33.1550 C   0  0  0  0  0  0  0  0  0  0  0  0
   -2.7770   14.7860  -32.7400 O   0  0  0  0  0  0  0  0  0  0  0  0
   -6.6430   17.8470  -31.9780 C   0  0  0  0  0  0  0  0  0  0  0  0
   -7.0180   17.5870  -30.8060 O   0  0  0  0  0  0  0  0  0  0  0  0
   -7.2000   18.8920  -32.7890 N   0  0  0  0  0  0  0  0  0  0  0  0
   -7.8940   20.0730  -32.2770 C   0  0  0  0  0  0  0  0  0  0  0  0
   -6.9090   21.0070  -31.6260 C   0  0  0  0  0  0  0  0  0  0  0  0
   -5.5650   21.0160  -32.0370 C   0  0  0  0  0  0  0  0  0  0  0  0
   -4.6740   21.9610  -31.5200 C   0  0  0  0  0  0  0  0  0  0  0  0
   -5.1140   22.9070  -30.5830 C   0  0  0  0  0  0  0  0  0  0  0  0
   -4.0170   24.1550  -29.9990 S   0  0  0  0  0  0  0  0  0  0  0  0
   -4.3840   25.6490  -30.7900 N   0  0  0  0  0  0  0  0  0  0  0  0
   -2.5950   23.7720  -30.2950 O   0  0  0  0  0  0  0  0  0  0  0  0
   -4.1770   24.3240  -28.5120 O   0  0  0  0  0  0  0  0  0  0  0  0
   -6.4520   22.8970  -30.1650 C   0  0  0  0  0  0  0  0  0  0  0  0
   -7.3450   21.9530  -30.6840 C   0  0  0  0  0  0  0  0  0  0  0  0
   -6.4230   18.8490  -33.9940 C   0  0  0  0  0  0  0  0  0  0  0  0
   -6.5300   19.6790  -34.9390 O   0  0  0  0  0  0  0  0  0  0  0  0
   -0.0091   15.9296  -30.2155 H   0  0  0  0  0  0  0  0  0  0  0  0
    0.1805   14.6961  -31.5074 H   0  0  0  0  0  0  0  0  0  0  0  0
    1.2168   16.1633  -31.5074 H   0  0  0  0  0  0  0  0  0  0  0  0
   -0.2457   18.8860  -30.9882 H   0  0  0  0  0  0  0  0  0  0  0  0
    0.1654   20.9875  -32.2676 H   0  0  0  0  0  0  0  0  0  0  0  0
   -0.2792   18.8278  -35.9870 H   0  0  0  0  0  0  0  0  0  0  0  0
   -4.3843   17.8617  -35.8206 H   0  0  0  0  0  0  0  0  0  0  0  0
   -4.7708   15.7341  -31.2710 H   0  0  0  0  0  0  0  0  0  0  0  0
   -1.7930   14.8060  -32.9860 H   0  0  0  0  0  0  0  0  0  0  0  0
   -8.3927   20.5917  -33.1090 H   0  0  0  0  0  0  0  0  0  0  0  0
   -8.6402   19.7588  -31.5324 H   0  0  0  0  0  0  0  0  0  0  0  0
   -5.2122   20.2752  -32.7697 H   0  0  0  0  0  0  0  0  0  0  0  0
   -3.6244   21.9625  -31.8492 H   0  0  0  0  0  0  0  0  0  0  0  0
   -3.4980   25.9780  -31.2390 H   0  0  0  0  0  0  0  0  0  0  0  0
   -6.8011   23.6337  -29.4265 H   0  0  0  0  0  0  0  0  0  0  0  0
   -8.3939   21.9518  -30.3525 H   0  0  0  0  0  0  0  0  0  0  0  0
  1  2  1  0
  2  3  1  0
  3  4  2  0
  4  5  1  0
  5  6  2  0
  6  7  1  0
  6  8  1  0
  8  9  2  0
  9 10  1  0
 10 11  2  0
 10 12  2  0
 10 13  1  0
 13 14  1  0
 14 15  2  0
 15 16  1  0
 16 17  2  0
 17 18  1  0
 18 19  2  0
 19 20  1  0
 17 21  1  0
 21 22  2  0
 21 23  1  0
 23 24  1  0
 24 25  1  0
 25 26  2  0
 26 27  1  0
 27 28  2  0
 28 29  1  0
 29 30  1  0
 29 31  2  0
 29 32  2  0
 28 33  1  0
 33 34  2  0
 23 35  1  0
 35 36  2  0
  9  3  1  0
 19 14  1  0
 34 25  1  0
 35 16  1  0
  1 37  1  0
  1 38  1  0
  1 39  1  0
  4 40  1  0
  5 41  1  0
  8 42  1  0
 15 43  1  0
 18 44  1  0
 20 45  1  0
 24 46  1  0
 24 47  1  0
 26 48  1  0
 27 49  1  0
 30 50  1  0
 33 51  1  0
 34 52  1  0
M  CHG  2  13  -1  30  -1
M  END
>  <UniqueID>  (26) 
25

>  <SMILES>  (26) 
COc1ccc(Br)cc1S(=O)(=O)[N-]c1cc2c(cc1O)C(=O)N(Cc1ccc(S([NH-])(=O)=O)cc1)C2=O

>  <Energy>  (26) 
91.51152907074297

>  <Genealogy>  (26) 
COc1ccc(Br)cc1S(=O)(=O)[N-]c1cc2c(cc1O)C(=O)N(Cc1ccc(S([NH-])(=O)=O)cc1)C2=O (protonated)
COc1ccc(Br)cc1S(=O)(=O)[N-]c1cc2c(cc1O)C(=O)N(Cc1ccc(S([NH-])(=O)=O)cc1)C2=O (3D coordinates assigned)
COc1ccc(Br)cc1S(=O)(=O)[N-]c1cc2c(cc1O)C(=O)N(Cc1ccc(S([NH-])(=O)=O)cc1)C2=O (nonaromatic ring conformer: 91.51152907074297 kcal/mol)

>  <smiles>  (26) 
COc1ccc(Br)cc1S(=O)(=O)Nc1cc2c(cc1O)C(=O)N(Cc1ccc(S(N)(=O)=O)cc1)C2=O

>  <score_type>  (26) 
oracle

>  <origin>  (26) 
adgpu

>  <m_score__min__energy>  (26) 
-11.65

>  <m_primary>  (26) 
energy

$$$$
26:0
     RDKit          3D

 59 62  0  0  0  0  0  0  0  0999 V2000
   -0.0650   23.2580  -24.9550 C   0  0  0  0  0  0  0  0  0  0  0  0
    0.1870   23.5170  -26.3330 O   0  0  0  0  0  0  0  0  0  0  0  0
   -0.8150   23.6460  -27.3060 C   0  0  0  0  0  0  0  0  0  0  0  0
   -0.5440   23.5490  -28.6860 C   0  0  0  0  0  0  0  0  0  0  0  0
   -1.5750   23.6950  -29.6170 C   0  0  0  0  0  0  0  0  0  0  0  0
   -2.8890   23.9300  -29.1860 C   0  0  0  0  0  0  0  0  0  0  0  0
   -4.1900   24.1450  -30.3500 S   0  0  0  0  0  0  0  0  0  0  0  0
   -4.2100   25.5660  -30.8390 O   0  0  0  0  0  0  0  0  0  0  0  0
   -5.5030   23.8290  -29.6900 O   0  0  0  0  0  0  0  0  0  0  0  0
   -3.9230   23.0630  -31.6770 N   0  0  0  0  0  0  0  0  0  0  0  0
   -4.7870   21.9760  -32.0310 C   0  0  0  0  0  0  0  0  0  0  0  0
   -6.1840   22.0650  -31.8280 C   0  0  0  0  0  0  0  0  0  0  0  0
   -6.9630   20.9550  -32.1440 C   0  0  0  0  0  0  0  0  0  0  0  0
   -6.4150   19.8050  -32.6380 C   0  0  0  0  0  0  0  0  0  0  0  0
   -5.0460   19.6850  -32.8720 C   0  0  0  0  0  0  0  0  0  0  0  0
   -4.2220   20.7900  -32.5790 C   0  0  0  0  0  0  0  0  0  0  0  0
   -2.4800   20.6710  -32.8400 S   0  0  0  0  0  0  0  0  0  0  0  0
   -1.9960   21.9370  -33.4900 O   0  0  0  0  0  0  0  0  0  0  0  0
   -2.1550   19.5140  -33.7450 O   0  0  0  0  0  0  0  0  0  0  0  0
   -1.6810   20.4160  -31.2920 C   0  0  0  0  0  0  0  0  0  0  0  0
   -0.3110   20.1470  -31.2270 C   0  0  0  0  0  0  0  0  0  0  0  0
    0.3130   19.9700  -29.9900 C   0  0  0  0  0  0  0  0  0  0  0  0
   -0.4220   20.0720  -28.7960 C   0  0  0  0  0  0  0  0  0  0  0  0
    0.2790   19.8910  -27.4750 C   0  0  0  0  0  0  0  0  0  0  0  0
   -1.8140   20.3280  -28.8580 C   0  0  0  0  0  0  0  0  0  0  0  0
   -2.6510   20.4270  -27.6070 C   0  0  0  0  0  0  0  0  0  0  0  0
   -2.4270   20.5060  -30.1110 C   0  0  0  0  0  0  0  0  0  0  0  0
   -7.3840   18.8820  -32.7980 N   0  0  0  0  0  0  0  0  0  0  0  0
   -7.2320   17.4830  -33.1810 C   0  0  0  0  0  0  0  0  0  0  0  0
   -8.5110   19.5050  -32.3710 C   0  0  0  0  0  0  0  0  0  0  0  0
   -9.6390   18.9440  -32.3140 O   0  0  0  0  0  0  0  0  0  0  0  0
   -8.2930   20.7870  -31.9890 N   0  0  0  0  0  0  0  0  0  0  0  0
   -9.2540   21.7240  -31.4170 C   0  0  0  0  0  0  0  0  0  0  0  0
   -3.1580   24.0320  -27.8150 C   0  0  0  0  0  0  0  0  0  0  0  0
   -2.1270   23.8870  -26.8830 C   0  0  0  0  0  0  0  0  0  0  0  0
    0.5697   23.9103  -24.3373 H   0  0  0  0  0  0  0  0  0  0  0  0
   -1.1234   23.4582  -24.7319 H   0  0  0  0  0  0  0  0  0  0  0  0
    0.1641   22.2055  -24.7319 H   0  0  0  0  0  0  0  0  0  0  0  0
    0.4829   23.3577  -29.0308 H   0  0  0  0  0  0  0  0  0  0  0  0
   -1.3556   23.6254  -30.6926 H   0  0  0  0  0  0  0  0  0  0  0  0
   -6.6414   22.9838  -31.4323 H   0  0  0  0  0  0  0  0  0  0  0  0
   -4.6208   18.7536  -33.2742 H   0  0  0  0  0  0  0  0  0  0  0  0
    0.2778   20.0744  -32.1533 H   0  0  0  0  0  0  0  0  0  0  0  0
    1.3898   19.7487  -29.9497 H   0  0  0  0  0  0  0  0  0  0  0  0
   -0.4310   20.0743  -26.6550 H   0  0  0  0  0  0  0  0  0  0  0  0
    0.6654   18.8636  -27.4027 H   0  0  0  0  0  0  0  0  0  0  0  0
    1.1145   20.6029  -27.4027 H   0  0  0  0  0  0  0  0  0  0  0  0
   -2.0003   20.3500  -26.7234 H   0  0  0  0  0  0  0  0  0  0  0  0
   -3.1760   21.3935  -27.5926 H   0  0  0  0  0  0  0  0  0  0  0  0
   -3.3870   19.6097  -27.5926 H   0  0  0  0  0  0  0  0  0  0  0  0
   -3.5050   20.7184  -30.1637 H   0  0  0  0  0  0  0  0  0  0  0  0
   -7.1644   16.8605  -32.2766 H   0  0  0  0  0  0  0  0  0  0  0  0
   -8.1014   17.1696  -33.7776 H   0  0  0  0  0  0  0  0  0  0  0  0
   -6.3156   17.3637  -33.7776 H   0  0  0  0  0  0  0  0  0  0  0  0
   -9.2044   21.6756  -30.3192 H   0  0  0  0  0  0  0  0  0  0  0  0
   -9.0141   22.7445  -31.7503 H   0  0  0  0  0  0  0  0  0  0  0  0
  -10.2681   21.4583  -31.7503 H   0  0  0  0  0  0  0  0  0  0  0  0
   -4.1845   24.2269  -27.4709 H   0  0  0  0  0  0  0  0  0  0  0  0
   -2.3485   23.9629  -25.8082 H   0  0  0  0  0  0  0  0  0  0  0  0
  1  2  1  0
  2  3  1  0
  3  4  2  0
  4  5  1  0
  5  6  2  0
  6  7  1  0
  7  8  2  0
  7  9  2  0
  7 10  1  0
 10 11  1  0
 11 12  2  0
 12 13  1  0
 13 14  2  0
 14 15  1  0
 15 16  2  0
 16 17  1  0
 17 18  2  0
 17 19  2  0
 17 20  1  0
 20 21  2  0
 21 22  1  0
 22 23  2  0
 23 24  1  0
 23 25  1  0
 25 26  1  0
 25 27  2  0
 14 28  1  0
 28 29  1  0
 28 30  1  0
 30 31  2  0
 30 32  1  0
 32 33  1  0
  6 34  1  0
 34 35  2  0
 35  3  1  0
 16 11  1  0
 27 20  1  0
 32 13  1  0
  1 36  1  0
  1 37  1  0
  1 38  1  0
  4 39  1  0
  5 40  1  0
 12 41  1  0
 15 42  1  0
 21 43  1  0
 22 44  1  0
 24 45  1  0
 24 46  1  0
 24 47  1  0
 26 48  1  0
 26 49  1  0
 26 50  1  0
 27 51  1  0
 29 52  1  0
 29 53  1  0
 29 54  1  0
 33 55  1  0
 33 56  1  0
 33 57  1  0
 34 58  1  0
 35 59  1  0
M  CHG  1  10  -1
M  END
>  <UniqueID>  (27) 
26

>  <SMILES>  (27) 
COc1ccc(S(=O)(=O)[N-]c2cc3c(cc2S(=O)(=O)c2ccc(C)c(C)c2)n(C)c(=O)n3C)cc1

>  <Energy>  (27) 
104.8981613692595

>  <Genealogy>  (27) 
COc1ccc(S(=O)(=O)[N-]c2cc3c(cc2S(=O)(=O)c2ccc(C)c(C)c2)n(C)c(=O)n3C)cc1 (protonated)
COc1ccc(S(=O)(=O)[N-]c2cc3c(cc2S(=O)(=O)c2ccc(C)c(C)c2)n(C)c(=O)n3C)cc1 (3D coordinates assigned)
COc1ccc(S(=O)(=O)[N-]c2cc3c(cc2S(=O)(=O)c2ccc(C)c(C)c2)n(C)c(=O)n3C)cc1 (optimized conformer: 104.8981613692595 kcal/mol)

>  <smiles>  (27) 
COc1ccc(S(=O)(=O)Nc2cc3c(cc2S(=O)(=O)c2ccc(C)c(C)c2)n(C)c(=O)n3C)cc1

>  <score_type>  (27) 
oracle

>  <origin>  (27) 
adgpu

>  <m_score__min__energy>  (27) 
-10.84

>  <m_primary>  (27) 
energy

$$$$
27:0
     RDKit          3D

 63 66  0  0  0  0  0  0  0  0999 V2000
   -6.2320   18.1300  -33.7240 C   0  0  0  0  0  0  0  0  0  0  0  0
   -5.3660   19.3540  -33.7470 C   0  0  0  0  0  0  0  0  0  0  0  0
   -5.9150   20.4860  -33.6410 O   0  0  0  0  0  0  0  0  0  0  0  0
   -3.9280   19.2510  -33.8400 N   0  0  0  0  0  0  0  0  0  0  0  0
   -3.3060   17.9870  -34.2720 C   0  0  0  0  0  0  0  0  0  0  0  0
   -1.7800   18.0940  -34.2890 C   0  0  0  0  0  0  0  0  0  0  0  0
   -1.3310   18.7220  -33.0400 N   0  0  0  0  0  0  0  0  0  0  0  0
   -0.6520   17.9270  -32.0420 C   0  0  0  0  0  0  0  0  0  0  0  0
   -0.7860   16.6700  -32.0500 O   0  0  0  0  0  0  0  0  0  0  0  0
    0.1560   18.5470  -30.9670 C   0  0  0  0  0  0  0  0  0  0  0  0
    1.5430   18.7070  -31.1060 C   0  0  0  0  0  0  0  0  0  0  0  0
    2.2940   19.2710  -30.0740 C   0  0  0  0  0  0  0  0  0  0  0  0
    1.6700   19.6890  -28.8930 C   0  0  0  0  0  0  0  0  0  0  0  0
    2.4210   20.2430  -27.8610 O   0  0  0  0  0  0  0  0  0  0  0  0
    0.2820   19.5500  -28.7490 C   0  0  0  0  0  0  0  0  0  0  0  0
   -0.3460   19.9800  -27.5360 N   0  0  0  0  0  0  0  0  0  0  0  0
   -0.3940   21.6210  -26.9630 S   0  0  0  0  0  0  0  0  0  0  0  0
   -1.0440   21.6450  -25.6060 O   0  0  0  0  0  0  0  0  0  0  0  0
    1.0170   22.1240  -26.8240 O   0  0  0  0  0  0  0  0  0  0  0  0
   -1.2810   22.6970  -28.0430 C   0  0  0  0  0  0  0  0  0  0  0  0
   -1.0340   24.0740  -28.0310 C   0  0  0  0  0  0  0  0  0  0  0  0
   -1.7800   24.9250  -28.8450 C   0  0  0  0  0  0  0  0  0  0  0  0
   -2.7550   24.4050  -29.7000 C   0  0  0  0  0  0  0  0  0  0  0  0
   -3.4890   25.2750  -30.4970 O   0  0  0  0  0  0  0  0  0  0  0  0
   -2.9900   23.0180  -29.7530 C   0  0  0  0  0  0  0  0  0  0  0  0
   -4.2010   22.3850  -30.8920 S   0  0  0  0  0  0  0  0  0  0  0  0
   -4.0750   20.8870  -30.9190 O   0  0  0  0  0  0  0  0  0  0  0  0
   -3.8780   22.9130  -32.2620 O   0  0  0  0  0  0  0  0  0  0  0  0
   -5.8710   22.7690  -30.5330 N   0  0  0  0  0  0  0  0  0  0  0  0
   -6.3320   24.0040  -31.1800 C   0  0  0  0  0  0  0  0  0  0  0  0
   -7.6990   23.7300  -31.7980 C   0  0  0  0  0  0  0  0  0  0  0  0
   -8.0900   22.3390  -31.3300 C   0  0  0  0  0  0  0  0  0  0  0  0
   -6.7930   21.6850  -30.8880 C   0  0  0  0  0  0  0  0  0  0  0  0
   -2.2600   22.1750  -28.8990 C   0  0  0  0  0  0  0  0  0  0  0  0
   -0.4580   18.9340  -29.7670 C   0  0  0  0  0  0  0  0  0  0  0  0
   -1.8940   20.0320  -32.6710 C   0  0  0  0  0  0  0  0  0  0  0  0
   -3.0750   20.4240  -33.5730 C   0  0  0  0  0  0  0  0  0  0  0  0
   -6.4346   17.8437  -32.6814 H   0  0  0  0  0  0  0  0  0  0  0  0
   -7.1815   18.3430  -34.2369 H   0  0  0  0  0  0  0  0  0  0  0  0
   -5.7152   17.3055  -34.2369 H   0  0  0  0  0  0  0  0  0  0  0  0
   -3.6011   17.1869  -33.5772 H   0  0  0  0  0  0  0  0  0  0  0  0
   -3.6491   17.7631  -35.2929 H   0  0  0  0  0  0  0  0  0  0  0  0
   -1.3408   17.0892  -34.3753 H   0  0  0  0  0  0  0  0  0  0  0  0
   -1.4596   18.7029  -35.1473 H   0  0  0  0  0  0  0  0  0  0  0  0
    2.0408   18.3863  -32.0330 H   0  0  0  0  0  0  0  0  0  0  0  0
    3.3817   19.3876  -30.1892 H   0  0  0  0  0  0  0  0  0  0  0  0
    1.9830   20.7260  -27.0860 H   0  0  0  0  0  0  0  0  0  0  0  0
   -0.2501   24.4857  -27.3784 H   0  0  0  0  0  0  0  0  0  0  0  0
   -1.6004   26.0098  -28.8140 H   0  0  0  0  0  0  0  0  0  0  0  0
   -6.4140   24.8082  -30.4339 H   0  0  0  0  0  0  0  0  0  0  0  0
   -5.6181   24.3187  -31.9554 H   0  0  0  0  0  0  0  0  0  0  0  0
   -8.4328   24.4721  -31.4503 H   0  0  0  0  0  0  0  0  0  0  0  0
   -7.6690   23.7957  -32.8956 H   0  0  0  0  0  0  0  0  0  0  0  0
   -8.7967   22.3999  -30.4893 H   0  0  0  0  0  0  0  0  0  0  0  0
   -8.5888   21.7644  -32.1244 H   0  0  0  0  0  0  0  0  0  0  0  0
   -6.9725   21.0396  -30.0155 H   0  0  0  0  0  0  0  0  0  0  0  0
   -6.3746   21.0575  -31.6887 H   0  0  0  0  0  0  0  0  0  0  0  0
   -2.4590   21.0932  -28.9022 H   0  0  0  0  0  0  0  0  0  0  0  0
   -1.5332   18.7518  -29.6232 H   0  0  0  0  0  0  0  0  0  0  0  0
   -2.2422   19.9883  -31.6285 H   0  0  0  0  0  0  0  0  0  0  0  0
   -1.1052   20.7886  -32.7948 H   0  0  0  0  0  0  0  0  0  0  0  0
   -3.6721   21.2001  -33.0718 H   0  0  0  0  0  0  0  0  0  0  0  0
   -2.6841   20.8062  -34.5275 H   0  0  0  0  0  0  0  0  0  0  0  0
  1  2  1  0
  2  3  2  0
  2  4  1  0
  4  5  1  0
  5  6  1  0
  6  7  1  0
  7  8  1  0
  8  9  2  0
  8 10  1  0
 10 11  2  0
 11 12  1  0
 12 13  2  0
 13 14  1  0
 13 15  1  0
 15 16  1  0
 16 17  1  0
 17 18  2  0
 17 19  2  0
 17 20  1  0
 20 21  2  0
 21 22  1  0
 22 23  2  0
 23 24  1  0
 23 25  1  0
 25 26  1  0
 26 27  2  0
 26 28  2  0
 26 29  1  0
 29 30  1  0
 30 31  1  0
 31 32  1  0
 32 33  1  0
 25 34  2  0
 15 35  2  0
  7 36  1  0
 36 37  1  0
 37  4  1  0
 35 10  1  0
 34 20  1  0
 33 29  1  0
  1 38  1  0
  1 39  1  0
  1 40  1  0
  5 41  1  0
  5 42  1  0
  6 43  1  0
  6 44  1  0
 11 45  1  0
 12 46  1  0
 14 47  1  0
 21 48  1  0
 22 49  1  0
 30 50  1  0
 30 51  1  0
 31 52  1  0
 31 53  1  0
 32 54  1  0
 32 55  1  0
 33 56  1  0
 33 57  1  0
 34 58  1  0
 35 59  1  0
 36 60  1  0
 36 61  1  0
 37 62  1  0
 37 63  1  0
M  CHG  2  16  -1  24  -1
M  END
>  <UniqueID>  (28) 
27

>  <SMILES>  (28) 
CC(=O)N1CCN(C(=O)c2ccc(O)c([N-]S(=O)(=O)c3ccc([O-])c(S(=O)(=O)N4CCCC4)c3)c2)CC1

>  <Energy>  (28) 
78.84316185644424

>  <Genealogy>  (28) 
CC(=O)N1CCN(C(=O)c2ccc(O)c([N-]S(=O)(=O)c3ccc([O-])c(S(=O)(=O)N4CCCC4)c3)c2)CC1 (protonated)
CC(=O)N1CCN(C(=O)c2ccc(O)c([N-]S(=O)(=O)c3ccc([O-])c(S(=O)(=O)N4CCCC4)c3)c2)CC1 (3D coordinates assigned)
CC(=O)N1CCN(C(=O)c2ccc(O)c([N-]S(=O)(=O)c3ccc([O-])c(S(=O)(=O)N4CCCC4)c3)c2)CC1 (nonaromatic ring conformer: 78.84316185644424 kcal/mol)

>  <smiles>  (28) 
CC(=O)N1CCN(C(=O)c2ccc(O)c(NS(=O)(=O)c3ccc(O)c(S(=O)(=O)N4CCCC4)c3)c2)CC1

>  <score_type>  (28) 
oracle

>  <origin>  (28) 
adgpu

>  <m_score__min__energy>  (28) 
-13.76

>  <m_primary>  (28) 
energy

$$$$
28:0
     RDKit          3D

 51 55  0  0  0  0  0  0  0  0999 V2000
   -6.7810   17.4130  -32.7620 C   0  0  0  0  0  0  0  0  0  0  0  0
   -7.3550   18.7540  -32.3660 C   0  0  0  0  0  0  0  0  0  0  0  0
   -6.5970   19.8830  -32.3470 C   0  0  0  0  0  0  0  0  0  0  0  0
   -5.1240   19.9050  -32.6890 C   0  0  0  0  0  0  0  0  0  0  0  0
   -4.3260   20.4820  -31.5160 C   0  0  0  0  0  0  0  0  0  0  0  0
   -4.3520   21.9970  -31.3510 C   0  0  0  0  0  0  0  0  0  0  0  0
   -3.2500   22.5610  -30.6820 C   0  0  0  0  0  0  0  0  0  0  0  0
   -3.1670   23.9280  -30.4060 C   0  0  0  0  0  0  0  0  0  0  0  0
   -1.9820   24.3970  -29.7410 N   0  0  0  0  0  0  0  0  0  0  0  0
   -1.2010   23.7180  -28.3460 S   0  0  0  0  0  0  0  0  0  0  0  0
   -2.1470   23.7570  -27.1770 O   0  0  0  0  0  0  0  0  0  0  0  0
    0.0450   24.5030  -28.0400 O   0  0  0  0  0  0  0  0  0  0  0  0
   -0.7460   22.0420  -28.6670 C   0  0  0  0  0  0  0  0  0  0  0  0
   -0.5000   21.6310  -29.9960 C   0  0  0  0  0  0  0  0  0  0  0  0
   -0.1400   20.3050  -30.2170 C   0  0  0  0  0  0  0  0  0  0  0  0
   -0.0210   19.4140  -29.2040 C   0  0  0  0  0  0  0  0  0  0  0  0
   -0.2540   19.7660  -27.8790 C   0  0  0  0  0  0  0  0  0  0  0  0
   -0.6230   21.0980  -27.6040 C   0  0  0  0  0  0  0  0  0  0  0  0
   -0.9170   21.5460  -25.9270 Cl  0  0  0  0  0  0  0  0  0  0  0  0
    0.3460   18.1830  -29.7120 O   0  0  0  0  0  0  0  0  0  0  0  0
    0.4630   18.3100  -31.1360 C   0  0  0  0  0  0  0  0  0  0  0  0
    0.1440   19.6800  -31.4160 O   0  0  0  0  0  0  0  0  0  0  0  0
   -4.2390   24.7620  -30.7720 C   0  0  0  0  0  0  0  0  0  0  0  0
   -4.2380   26.1220  -30.4910 O   0  0  0  0  0  0  0  0  0  0  0  0
   -5.3500   24.2210  -31.4210 C   0  0  0  0  0  0  0  0  0  0  0  0
   -5.4420   22.8470  -31.7070 C   0  0  0  0  0  0  0  0  0  0  0  0
   -6.6630   22.3880  -32.4750 C   0  0  0  0  0  0  0  0  0  0  0  0
   -7.1970   21.1300  -31.9500 N   0  0  0  0  0  0  0  0  0  0  0  0
   -8.3760   21.1150  -31.0790 C   0  0  0  0  0  0  0  0  0  0  0  0
   -9.4190   20.1680  -31.6590 C   0  0  0  0  0  0  0  0  0  0  0  0
   -8.7910   18.8420  -31.9790 C   0  0  0  0  0  0  0  0  0  0  0  0
   -9.5130   17.8080  -31.9590 O   0  0  0  0  0  0  0  0  0  0  0  0
   -6.5348   16.8379  -31.8572 H   0  0  0  0  0  0  0  0  0  0  0  0
   -7.5209   16.8592  -33.3585 H   0  0  0  0  0  0  0  0  0  0  0  0
   -5.8695   17.5660  -33.3585 H   0  0  0  0  0  0  0  0  0  0  0  0
   -4.7817   18.8799  -32.8941 H   0  0  0  0  0  0  0  0  0  0  0  0
   -4.9676   20.5337  -33.5780 H   0  0  0  0  0  0  0  0  0  0  0  0
   -4.7246   20.0389  -30.5914 H   0  0  0  0  0  0  0  0  0  0  0  0
   -3.2762   20.2320  -31.7292 H   0  0  0  0  0  0  0  0  0  0  0  0
   -2.4266   21.9037  -30.3658 H   0  0  0  0  0  0  0  0  0  0  0  0
   -0.5905   22.3393  -30.8328 H   0  0  0  0  0  0  0  0  0  0  0  0
   -0.1534   19.0273  -27.0702 H   0  0  0  0  0  0  0  0  0  0  0  0
    1.4877   18.0777  -31.4616 H   0  0  0  0  0  0  0  0  0  0  0  0
   -0.2028   17.6146  -31.6681 H   0  0  0  0  0  0  0  0  0  0  0  0
   -6.1747   24.8863  -31.7163 H   0  0  0  0  0  0  0  0  0  0  0  0
   -7.4408   23.1624  -32.4022 H   0  0  0  0  0  0  0  0  0  0  0  0
   -6.3654   22.2220  -33.5209 H   0  0  0  0  0  0  0  0  0  0  0  0
   -8.0865   20.7721  -30.0747 H   0  0  0  0  0  0  0  0  0  0  0  0
   -8.7966   22.1291  -31.0110 H   0  0  0  0  0  0  0  0  0  0  0  0
  -10.2251   20.0211  -30.9251 H   0  0  0  0  0  0  0  0  0  0  0  0
   -9.8281   20.6047  -32.5820 H   0  0  0  0  0  0  0  0  0  0  0  0
  1  2  1  0
  2  3  2  0
  3  4  1  0
  4  5  1  0
  5  6  1  0
  6  7  2  0
  7  8  1  0
  8  9  1  0
  9 10  1  0
 10 11  2  0
 10 12  2  0
 10 13  1  0
 13 14  2  0
 14 15  1  0
 15 16  2  0
 16 17  1  0
 17 18  2  0
 18 19  1  0
 16 20  1  0
 20 21  1  0
 21 22  1  0
  8 23  2  0
 23 24  1  0
 23 25  1  0
 25 26  2  0
 26 27  1  0
 27 28  1  0
 28 29  1  0
 29 30  1  0
 30 31  1  0
 31 32  2  0
 31  2  1  0
 28  3  1  0
 26  6  1  0
 18 13  1  0
 22 15  1  0
  1 33  1  0
  1 34  1  0
  1 35  1  0
  4 36  1  0
  4 37  1  0
  5 38  1  0
  5 39  1  0
  7 40  1  0
 14 41  1  0
 17 42  1  0
 21 43  1  0
 21 44  1  0
 25 45  1  0
 27 46  1  0
 27 47  1  0
 29 48  1  0
 29 49  1  0
 30 50  1  0
 30 51  1  0
M  CHG  2   9  -1  24  -1
M  END
>  <UniqueID>  (29) 
28

>  <SMILES>  (29) 
CC1=C2CCc3cc([N-]S(=O)(=O)c4cc5c(cc4Cl)OCO5)c([O-])cc3CN2CCC1=O

>  <Energy>  (29) 
103.61494559265695

>  <Genealogy>  (29) 
CC1=C2CCc3cc([N-]S(=O)(=O)c4cc5c(cc4Cl)OCO5)c([O-])cc3CN2CCC1=O (protonated)
CC1=C2CCc3cc([N-]S(=O)(=O)c4cc5c(cc4Cl)OCO5)c([O-])cc3CN2CCC1=O (3D coordinates assigned)
CC1=C2CCc3cc([N-]S(=O)(=O)c4cc5c(cc4Cl)OCO5)c([O-])cc3CN2CCC1=O (nonaromatic ring conformer: 103.61494559265695 kcal/mol)

>  <smiles>  (29) 
CC1=C2CCc3cc(NS(=O)(=O)c4cc5c(cc4Cl)OCO5)c(O)cc3CN2CCC1=O

>  <score_type>  (29) 
oracle

>  <origin>  (29) 
adgpu

>  <m_score__min__energy>  (29) 
-12.1

>  <m_primary>  (29) 
energy

$$$$
29:0
     RDKit          3D

 44 46  0  0  0  0  0  0  0  0999 V2000
   -2.8250   24.7020  -26.9930 C   0  0  0  0  0  0  0  0  0  0  0  0
   -1.9550   24.9210  -28.2270 C   0  0  0  0  0  0  0  0  0  0  0  0
   -2.7530   25.2950  -29.3500 O   0  0  0  0  0  0  0  0  0  0  0  0
   -3.8930   24.6120  -29.8060 C   0  0  0  0  0  0  0  0  0  0  0  0
   -5.0870   25.2690  -30.1590 C   0  0  0  0  0  0  0  0  0  0  0  0
   -6.1900   24.5350  -30.6070 C   0  0  0  0  0  0  0  0  0  0  0  0
   -6.1220   23.1360  -30.7070 C   0  0  0  0  0  0  0  0  0  0  0  0
   -7.2850   22.3570  -31.1780 C   0  0  0  0  0  0  0  0  0  0  0  0
   -7.3260   21.0070  -31.1900 N   0  0  0  0  0  0  0  0  0  0  0  0
   -8.5480   20.7450  -31.6890 C   0  0  0  0  0  0  0  0  0  0  0  0
   -9.0710   19.3650  -31.9440 C   0  0  0  0  0  0  0  0  0  0  0  0
   -8.1090   18.3500  -31.4940 N   0  0  0  0  0  0  0  0  0  0  0  0
   -7.6880   17.4380  -32.5740 C   0  0  0  0  0  0  0  0  0  0  0  0
   -6.3660   17.8450  -33.1900 C   0  0  0  0  0  0  0  0  0  0  0  0
   -6.0900   17.4950  -34.5230 C   0  0  0  0  0  0  0  0  0  0  0  0
   -4.8710   17.8460  -35.1100 C   0  0  0  0  0  0  0  0  0  0  0  0
   -3.9160   18.5490  -34.3720 C   0  0  0  0  0  0  0  0  0  0  0  0
   -4.1780   18.9030  -33.0480 C   0  0  0  0  0  0  0  0  0  0  0  0
   -5.3990   18.5560  -32.4490 C   0  0  0  0  0  0  0  0  0  0  0  0
   -5.6480   18.9150  -31.1250 O   0  0  0  0  0  0  0  0  0  0  0  0
   -9.1990   21.9240  -31.9680 C   0  0  0  0  0  0  0  0  0  0  0  0
   -8.3920   22.9020  -31.6370 O   0  0  0  0  0  0  0  0  0  0  0  0
   -4.9310   22.4840  -30.3510 C   0  0  0  0  0  0  0  0  0  0  0  0
   -3.8290   23.2170  -29.9040 C   0  0  0  0  0  0  0  0  0  0  0  0
   -2.2206   24.8541  -26.0866 H   0  0  0  0  0  0  0  0  0  0  0  0
   -3.6601   25.4180  -27.0014 H   0  0  0  0  0  0  0  0  0  0  0  0
   -3.2216   23.6760  -27.0014 H   0  0  0  0  0  0  0  0  0  0  0  0
   -1.2284   25.7202  -28.0188 H   0  0  0  0  0  0  0  0  0  0  0  0
   -1.4338   23.9813  -28.4622 H   0  0  0  0  0  0  0  0  0  0  0  0
   -5.1527   26.3643  -30.0821 H   0  0  0  0  0  0  0  0  0  0  0  0
   -7.1178   25.0575  -30.8831 H   0  0  0  0  0  0  0  0  0  0  0  0
  -10.0171   19.2317  -31.3989 H   0  0  0  0  0  0  0  0  0  0  0  0
   -9.2312   19.2434  -33.0255 H   0  0  0  0  0  0  0  0  0  0  0  0
   -7.2670   18.8380  -31.1090 H   0  0  0  0  0  0  0  0  0  0  0  0
   -7.5879   16.4235  -32.1608 H   0  0  0  0  0  0  0  0  0  0  0  0
   -8.4526   17.4776  -33.3638 H   0  0  0  0  0  0  0  0  0  0  0  0
   -6.8386   16.9410  -35.1084 H   0  0  0  0  0  0  0  0  0  0  0  0
   -4.6636   17.5684  -36.1540 H   0  0  0  0  0  0  0  0  0  0  0  0
   -2.9567   18.8238  -34.8349 H   0  0  0  0  0  0  0  0  0  0  0  0
   -3.4234   19.4571  -32.4704 H   0  0  0  0  0  0  0  0  0  0  0  0
   -6.3340   19.6210  -30.8840 H   0  0  0  0  0  0  0  0  0  0  0  0
  -10.2094   22.0269  -32.3905 H   0  0  0  0  0  0  0  0  0  0  0  0
   -4.8650   21.3884  -30.4245 H   0  0  0  0  0  0  0  0  0  0  0  0
   -2.9024   22.6932  -29.6265 H   0  0  0  0  0  0  0  0  0  0  0  0
  1  2  1  0
  2  3  1  0
  3  4  1  0
  4  5  2  0
  5  6  1  0
  6  7  2  0
  7  8  1  0
  8  9  2  0
  9 10  1  0
 10 11  1  0
 11 12  1  0
 12 13  1  0
 13 14  1  0
 14 15  2  0
 15 16  1  0
 16 17  2  0
 17 18  1  0
 18 19  2  0
 19 20  1  0
 10 21  2  0
 21 22  1  0
  7 23  1  0
 23 24  2  0
 24  4  1  0
 22  8  1  0
 19 14  1  0
  1 25  1  0
  1 26  1  0
  1 27  1  0
  2 28  1  0
  2 29  1  0
  5 30  1  0
  6 31  1  0
 11 32  1  0
 11 33  1  0
 12 34  1  0
 13 35  1  0
 13 36  1  0
 15 37  1  0
 16 38  1  0
 17 39  1  0
 18 40  1  0
 20 41  1  0
 21 42  1  0
 23 43  1  0
 24 44  1  0
M  END
>  <UniqueID>  (30) 
29

>  <SMILES>  (30) 
CCOc1ccc(-c2nc(CNCc3ccccc3O)co2)cc1

>  <Energy>  (30) 
73.0434769847623

>  <Genealogy>  (30) 
CCOc1ccc(-c2nc(CNCc3ccccc3O)co2)cc1 (3D coordinates assigned)
CCOc1ccc(-c2nc(CNCc3ccccc3O)co2)cc1 (optimized conformer: 73.0434769847623 kcal/mol)

>  <smiles>  (30) 
CCOc1ccc(-c2nc(CNCc3ccccc3O)co2)cc1

>  <score_type>  (30) 
oracle

>  <origin>  (30) 
adgpu

>  <m_score__min__energy>  (30) 
-8.6400000000000006

>  <m_primary>  (30) 
energy

$$$$
30:0
     RDKit          3D

 46 48  0  0  0  0  0  0  0  0999 V2000
   -9.1890   21.0950  -30.9980 C   0  0  0  0  0  0  0  0  0  0  0  0
   -8.4030   22.2500  -31.5370 C   0  0  0  0  0  0  0  0  0  0  0  0
   -9.0030   23.1260  -32.2140 O   0  0  0  0  0  0  0  0  0  0  0  0
   -6.9510   22.3960  -31.2820 C   0  0  0  0  0  0  0  0  0  0  0  0
   -5.9960   21.4030  -31.4480 C   0  0  0  0  0  0  0  0  0  0  0  0
   -6.2470   19.9950  -31.8920 C   0  0  0  0  0  0  0  0  0  0  0  0
   -4.7700   21.8810  -31.1670 N   0  0  0  0  0  0  0  0  0  0  0  0
   -4.9130   23.1750  -30.8210 C   0  0  0  0  0  0  0  0  0  0  0  0
   -3.7650   24.0380  -30.4830 C   0  0  0  0  0  0  0  0  0  0  0  0
   -3.8890   25.2930  -30.4770 O   0  0  0  0  0  0  0  0  0  0  0  0
   -2.5320   23.4340  -30.1970 O   0  0  0  0  0  0  0  0  0  0  0  0
   -2.2850   22.5250  -29.1590 C   0  0  0  0  0  0  0  0  0  0  0  0
   -2.8390   21.2790  -29.1700 N   0  0  0  0  0  0  0  0  0  0  0  0
   -2.6240   20.3840  -28.1710 C   0  0  0  0  0  0  0  0  0  0  0  0
   -1.8200   20.7300  -27.0860 C   0  0  0  0  0  0  0  0  0  0  0  0
   -1.2390   21.9960  -27.0430 C   0  0  0  0  0  0  0  0  0  0  0  0
   -1.4580   22.9070  -28.0870 C   0  0  0  0  0  0  0  0  0  0  0  0
   -0.7240   24.5120  -28.0420 S   0  0  0  0  0  0  0  0  0  0  0  0
   -1.4610   25.4180  -28.9890 O   0  0  0  0  0  0  0  0  0  0  0  0
    0.7140   24.4290  -28.4730 O   0  0  0  0  0  0  0  0  0  0  0  0
   -0.7700   25.1830  -26.4140 C   0  0  0  0  0  0  0  0  0  0  0  0
   -0.0380   24.5710  -25.3860 C   0  0  0  0  0  0  0  0  0  0  0  0
   -0.0860   25.0840  -24.0870 C   0  0  0  0  0  0  0  0  0  0  0  0
   -0.8670   26.2090  -23.8060 C   0  0  0  0  0  0  0  0  0  0  0  0
   -1.6040   26.8200  -24.8260 C   0  0  0  0  0  0  0  0  0  0  0  0
   -1.5580   26.3080  -26.1270 C   0  0  0  0  0  0  0  0  0  0  0  0
   -6.2610   23.5300  -30.8550 C   0  0  0  0  0  0  0  0  0  0  0  0
   -6.8490   24.8550  -30.4710 C   0  0  0  0  0  0  0  0  0  0  0  0
   -9.1714   21.1208  -29.8984 H   0  0  0  0  0  0  0  0  0  0  0  0
  -10.2290   21.1632  -31.3498 H   0  0  0  0  0  0  0  0  0  0  0  0
   -8.7440   20.1526  -31.3498 H   0  0  0  0  0  0  0  0  0  0  0  0
   -6.3624   19.3475  -31.0103 H   0  0  0  0  0  0  0  0  0  0  0  0
   -7.1657   19.9592  -32.4959 H   0  0  0  0  0  0  0  0  0  0  0  0
   -5.3973   19.6440  -32.4959 H   0  0  0  0  0  0  0  0  0  0  0  0
   -3.8720   21.3500  -31.2250 H   0  0  0  0  0  0  0  0  0  0  0  0
   -3.0844   19.3861  -28.2182 H   0  0  0  0  0  0  0  0  0  0  0  0
   -1.6459   20.0110  -26.2720 H   0  0  0  0  0  0  0  0  0  0  0  0
   -0.6075   22.2815  -26.1888 H   0  0  0  0  0  0  0  0  0  0  0  0
    0.5758   23.6844  -25.6030 H   0  0  0  0  0  0  0  0  0  0  0  0
    0.4915   24.6020  -23.2844 H   0  0  0  0  0  0  0  0  0  0  0  0
   -0.9019   26.6134  -22.7836 H   0  0  0  0  0  0  0  0  0  0  0  0
   -2.2203   27.7039  -24.6048 H   0  0  0  0  0  0  0  0  0  0  0  0
   -2.1408   26.7883  -26.9268 H   0  0  0  0  0  0  0  0  0  0  0  0
   -6.8850   24.9362  -29.3746 H   0  0  0  0  0  0  0  0  0  0  0  0
   -6.2257   25.6647  -30.8784 H   0  0  0  0  0  0  0  0  0  0  0  0
   -7.8676   24.9360  -30.8784 H   0  0  0  0  0  0  0  0  0  0  0  0
  1  2  1  0
  2  3  2  0
  2  4  1  0
  4  5  2  0
  5  6  1  0
  5  7  1  0
  7  8  1  0
  8  9  1  0
  9 10  2  0
  9 11  1  0
 11 12  1  0
 12 13  2  0
 13 14  1  0
 14 15  2  0
 15 16  1  0
 16 17  2  0
 17 18  1  0
 18 19  2  0
 18 20  2  0
 18 21  1  0
 21 22  2  0
 22 23  1  0
 23 24  2  0
 24 25  1  0
 25 26  2  0
  8 27  2  0
 27 28  1  0
 27  4  1  0
 17 12  1  0
 26 21  1  0
  1 29  1  0
  1 30  1  0
  1 31  1  0
  6 32  1  0
  6 33  1  0
  6 34  1  0
  7 35  1  0
 14 36  1  0
 15 37  1  0
 16 38  1  0
 22 39  1  0
 23 40  1  0
 24 41  1  0
 25 42  1  0
 26 43  1  0
 28 44  1  0
 28 45  1  0
 28 46  1  0
M  END
>  <UniqueID>  (31) 
30

>  <SMILES>  (31) 
CC(=O)c1c(C)[nH]c(C(=O)Oc2ncccc2S(=O)(=O)c2ccccc2)c1C

>  <Energy>  (31) 
80.42321198727714

>  <Genealogy>  (31) 
CC(=O)c1c(C)[nH]c(C(=O)Oc2ncccc2S(=O)(=O)c2ccccc2)c1C (3D coordinates assigned)
CC(=O)c1c(C)[nH]c(C(=O)Oc2ncccc2S(=O)(=O)c2ccccc2)c1C (optimized conformer: 80.42321198727714 kcal/mol)

>  <smiles>  (31) 
CC(=O)c1c(C)[nH]c(C(=O)Oc2ncccc2S(=O)(=O)c2ccccc2)c1C

>  <score_type>  (31) 
oracle

>  <origin>  (31) 
adgpu

>  <m_score__min__energy>  (31) 
-9.8200000000000003

>  <m_primary>  (31) 
energy

$$$$
31:0
     RDKit          3D

 54 57  0  0  0  0  0  0  0  0999 V2000
   -3.4220   14.8620  -33.1760 C   0  0  0  0  0  0  0  0  0  0  0  0
   -4.0000   16.2140  -33.1200 N   0  0  0  0  0  0  0  0  0  0  0  0
   -4.1220   16.7720  -34.4780 C   0  0  0  0  0  0  0  0  0  0  0  0
   -4.4810   18.2550  -34.3850 C   0  0  0  0  0  0  0  0  0  0  0  0
   -5.6550   18.4780  -33.4680 C   0  0  0  0  0  0  0  0  0  0  0  0
   -6.3470   19.6970  -33.5240 C   0  0  0  0  0  0  0  0  0  0  0  0
   -7.4560   19.9270  -32.6880 C   0  0  0  0  0  0  0  0  0  0  0  0
   -8.1990   21.1540  -32.7350 N   0  0  0  0  0  0  0  0  0  0  0  0
   -8.4510   22.2220  -31.3900 S   0  0  0  0  0  0  0  0  0  0  0  0
   -8.7730   21.4110  -30.1690 O   0  0  0  0  0  0  0  0  0  0  0  0
   -9.6140   23.1320  -31.6810 O   0  0  0  0  0  0  0  0  0  0  0  0
   -6.9790   23.1420  -31.0910 C   0  0  0  0  0  0  0  0  0  0  0  0
   -7.0160   24.5360  -30.9430 C   0  0  0  0  0  0  0  0  0  0  0  0
   -5.8370   25.2460  -30.6960 C   0  0  0  0  0  0  0  0  0  0  0  0
   -4.6170   24.5720  -30.5860 C   0  0  0  0  0  0  0  0  0  0  0  0
   -3.4570   25.2970  -30.3300 O   0  0  0  0  0  0  0  0  0  0  0  0
   -4.5710   23.1750  -30.7320 C   0  0  0  0  0  0  0  0  0  0  0  0
   -3.0430   22.3050  -30.5610 S   0  0  0  0  0  0  0  0  0  0  0  0
   -2.1150   23.0690  -29.6580 O   0  0  0  0  0  0  0  0  0  0  0  0
   -3.3240   20.9620  -29.9480 O   0  0  0  0  0  0  0  0  0  0  0  0
   -2.3010   22.0910  -32.1340 N   0  0  0  0  0  0  0  0  0  0  0  0
   -3.0400   21.0970  -32.9170 C   0  0  0  0  0  0  0  0  0  0  0  0
   -2.3830   19.7410  -32.7030 C   0  0  0  0  0  0  0  0  0  0  0  0
   -1.0240   20.0380  -32.0990 C   0  0  0  0  0  0  0  0  0  0  0  0
   -0.9440   21.5530  -31.9980 C   0  0  0  0  0  0  0  0  0  0  0  0
   -5.7550   22.4700  -30.9870 C   0  0  0  0  0  0  0  0  0  0  0  0
   -7.8520   18.9340  -31.7840 C   0  0  0  0  0  0  0  0  0  0  0  0
   -8.9540   19.1530  -30.9610 O   0  0  0  0  0  0  0  0  0  0  0  0
   -7.1400   17.7310  -31.7040 C   0  0  0  0  0  0  0  0  0  0  0  0
   -6.0280   17.5020  -32.5250 C   0  0  0  0  0  0  0  0  0  0  0  0
   -5.3230   16.1680  -32.4650 C   0  0  0  0  0  0  0  0  0  0  0  0
   -3.2625   14.4888  -32.1536 H   0  0  0  0  0  0  0  0  0  0  0  0
   -4.1116   14.1902  -33.7081 H   0  0  0  0  0  0  0  0  0  0  0  0
   -2.4599   14.8963  -33.7081 H   0  0  0  0  0  0  0  0  0  0  0  0
   -3.1655   16.6582  -35.0092 H   0  0  0  0  0  0  0  0  0  0  0  0
   -4.9102   16.2360  -35.0270 H   0  0  0  0  0  0  0  0  0  0  0  0
   -3.6137   18.8099  -33.9980 H   0  0  0  0  0  0  0  0  0  0  0  0
   -4.7534   18.6097  -35.3900 H   0  0  0  0  0  0  0  0  0  0  0  0
   -6.0208   20.4785  -34.2260 H   0  0  0  0  0  0  0  0  0  0  0  0
   -7.9736   25.0715  -31.0213 H   0  0  0  0  0  0  0  0  0  0  0  0
   -5.8695   26.3402  -30.5877 H   0  0  0  0  0  0  0  0  0  0  0  0
   -4.0868   21.0611  -32.5808 H   0  0  0  0  0  0  0  0  0  0  0  0
   -3.0230   21.3639  -33.9840 H   0  0  0  0  0  0  0  0  0  0  0  0
   -2.9834   19.1276  -32.0150 H   0  0  0  0  0  0  0  0  0  0  0  0
   -2.2963   19.1773  -33.6436 H   0  0  0  0  0  0  0  0  0  0  0  0
   -0.9389   19.5816  -31.1018 H   0  0  0  0  0  0  0  0  0  0  0  0
   -0.2077   19.6271  -32.7113 H   0  0  0  0  0  0  0  0  0  0  0  0
   -0.5252   21.8400  -31.0222 H   0  0  0  0  0  0  0  0  0  0  0  0
   -0.2941   21.9539  -32.7898 H   0  0  0  0  0  0  0  0  0  0  0  0
   -5.7224   21.3770  -31.1067 H   0  0  0  0  0  0  0  0  0  0  0  0
   -9.3940   20.0670  -30.8900 H   0  0  0  0  0  0  0  0  0  0  0  0
   -7.4570   16.9575  -30.9890 H   0  0  0  0  0  0  0  0  0  0  0  0
   -5.1882   15.8842  -31.4108 H   0  0  0  0  0  0  0  0  0  0  0  0
   -5.9418   15.4312  -32.9982 H   0  0  0  0  0  0  0  0  0  0  0  0
  1  2  1  0
  2  3  1  0
  3  4  1  0
  4  5  1  0
  5  6  2  0
  6  7  1  0
  7  8  1  0
  8  9  1  0
  9 10  2  0
  9 11  2  0
  9 12  1  0
 12 13  2  0
 13 14  1  0
 14 15  2  0
 15 16  1  0
 15 17  1  0
 17 18  1  0
 18 19  2  0
 18 20  2  0
 18 21  1  0
 21 22  1  0
 22 23  1  0
 23 24  1  0
 24 25  1  0
 17 26  2  0
  7 27  2  0
 27 28  1  0
 27 29  1  0
 29 30  2  0
 30 31  1  0
 31  2  1  0
 30  5  1  0
 26 12  1  0
 25 21  1  0
  1 32  1  0
  1 33  1  0
  1 34  1  0
  3 35  1  0
  3 36  1  0
  4 37  1  0
  4 38  1  0
  6 39  1  0
 13 40  1  0
 14 41  1  0
 22 42  1  0
 22 43  1  0
 23 44  1  0
 23 45  1  0
 24 46  1  0
 24 47  1  0
 25 48  1  0
 25 49  1  0
 26 50  1  0
 28 51  1  0
 29 52  1  0
 31 53  1  0
 31 54  1  0
M  CHG  2   8  -1  16  -1
M  END
>  <UniqueID>  (32) 
31

>  <SMILES>  (32) 
CN1CCc2cc([N-]S(=O)(=O)c3ccc([O-])c(S(=O)(=O)N4CCCC4)c3)c(O)cc2C1

>  <Energy>  (32) 
62.942003194895754

>  <Genealogy>  (32) 
CN1CCc2cc([N-]S(=O)(=O)c3ccc([O-])c(S(=O)(=O)N4CCCC4)c3)c(O)cc2C1 (protonated)
CN1CCc2cc([N-]S(=O)(=O)c3ccc([O-])c(S(=O)(=O)N4CCCC4)c3)c(O)cc2C1 (3D coordinates assigned)
CN1CCc2cc([N-]S(=O)(=O)c3ccc([O-])c(S(=O)(=O)N4CCCC4)c3)c(O)cc2C1 (nonaromatic ring conformer: 62.942003194895754 kcal/mol)

>  <smiles>  (32) 
CN1CCc2cc(NS(=O)(=O)c3ccc(O)c(S(=O)(=O)N4CCCC4)c3)c(O)cc2C1

>  <score_type>  (32) 
oracle

>  <origin>  (32) 
adgpu

>  <m_score__min__energy>  (32) 
-12.41

>  <m_primary>  (32) 
energy

$$$$
32:0
     RDKit          3D

 29 30  0  0  0  0  0  0  0  0999 V2000
   -8.3430   18.6230  -31.7800 C   0  0  0  0  0  0  0  0  0  0  0  0
   -6.9850   18.8850  -32.3450 C   0  0  0  0  0  0  0  0  0  0  0  0
   -6.2210   19.9420  -32.0090 N   0  0  0  0  0  0  0  0  0  0  0  0
   -5.0760   19.8260  -32.6630 N   0  0  0  0  0  0  0  0  0  0  0  0
   -3.7670   20.9490  -32.4900 S   0  0  0  0  0  0  0  0  0  0  0  0
   -2.7000   20.3290  -31.6300 O   0  0  0  0  0  0  0  0  0  0  0  0
   -3.1850   21.2570  -33.8410 O   0  0  0  0  0  0  0  0  0  0  0  0
   -4.3610   22.4410  -31.7710 C   0  0  0  0  0  0  0  0  0  0  0  0
   -5.7150   22.7790  -31.8980 C   0  0  0  0  0  0  0  0  0  0  0  0
   -6.2030   23.9550  -31.3200 C   0  0  0  0  0  0  0  0  0  0  0  0
   -5.3440   24.8030  -30.6130 C   0  0  0  0  0  0  0  0  0  0  0  0
   -5.8550   25.9700  -30.0460 O   0  0  0  0  0  0  0  0  0  0  0  0
   -3.9850   24.4660  -30.4860 C   0  0  0  0  0  0  0  0  0  0  0  0
   -3.1160   25.2960  -29.7870 O   0  0  0  0  0  0  0  0  0  0  0  0
   -3.4980   23.2890  -31.0640 C   0  0  0  0  0  0  0  0  0  0  0  0
   -5.0880   18.7070  -33.4190 C   0  0  0  0  0  0  0  0  0  0  0  0
   -3.9320   18.1880  -34.2190 C   0  0  0  0  0  0  0  0  0  0  0  0
   -6.2970   18.0700  -33.2250 C   0  0  0  0  0  0  0  0  0  0  0  0
   -6.8280   16.5380  -33.8970 Cl  0  0  0  0  0  0  0  0  0  0  0  0
   -8.2912   18.6330  -30.6813 H   0  0  0  0  0  0  0  0  0  0  0  0
   -9.0390   19.4034  -32.1214 H   0  0  0  0  0  0  0  0  0  0  0  0
   -8.6987   17.6397  -32.1214 H   0  0  0  0  0  0  0  0  0  0  0  0
   -6.3957   22.1175  -32.4538 H   0  0  0  0  0  0  0  0  0  0  0  0
   -7.2671   24.2145  -31.4217 H   0  0  0  0  0  0  0  0  0  0  0  0
   -5.3410   26.5010  -29.3540 H   0  0  0  0  0  0  0  0  0  0  0  0
   -2.4341   23.0282  -30.9632 H   0  0  0  0  0  0  0  0  0  0  0  0
   -3.1441   17.8343  -33.5378 H   0  0  0  0  0  0  0  0  0  0  0  0
   -4.2695   17.3550  -34.8532 H   0  0  0  0  0  0  0  0  0  0  0  0
   -3.5338   18.9937  -34.8532 H   0  0  0  0  0  0  0  0  0  0  0  0
  1  2  1  0
  2  3  2  0
  3  4  1  0
  4  5  1  0
  5  6  2  0
  5  7  2  0
  5  8  1  0
  8  9  2  0
  9 10  1  0
 10 11  2  0
 11 12  1  0
 11 13  1  0
 13 14  1  0
 13 15  2  0
  4 16  1  0
 16 17  1  0
 16 18  2  0
 18 19  1  0
 18  2  1  0
 15  8  1  0
  1 20  1  0
  1 21  1  0
  1 22  1  0
  9 23  1  0
 10 24  1  0
 12 25  1  0
 15 26  1  0
 17 27  1  0
 17 28  1  0
 17 29  1  0
M  CHG  1  14  -1
M  END
>  <UniqueID>  (33) 
32

>  <SMILES>  (33) 
Cc1nn(S(=O)(=O)c2ccc(O)c([O-])c2)c(C)c1Cl

>  <Energy>  (33) 
59.66548735857592

>  <Genealogy>  (33) 
Cc1nn(S(=O)(=O)c2ccc(O)c([O-])c2)c(C)c1Cl (protonated)
Cc1nn(S(=O)(=O)c2ccc(O)c([O-])c2)c(C)c1Cl (3D coordinates assigned)
Cc1nn(S(=O)(=O)c2ccc(O)c([O-])c2)c(C)c1Cl (optimized conformer: 59.66548735857592 kcal/mol)

>  <smiles>  (33) 
Cc1nn(S(=O)(=O)c2ccc(O)c(O)c2)c(C)c1Cl

>  <score_type>  (33) 
oracle

>  <origin>  (33) 
adgpu

>  <m_score__min__energy>  (33) 
-10.32

>  <m_primary>  (33) 
energy

$$$$
33:0
     RDKit          3D

 44 46  0  0  0  0  0  0  0  0999 V2000
   -0.2750   26.7540  -26.0790 C   0  0  0  0  0  0  0  0  0  0  0  0
    0.1040   25.6680  -27.0390 C   0  0  0  0  0  0  0  0  0  0  0  0
    1.2780   25.6540  -27.4970 O   0  0  0  0  0  0  0  0  0  0  0  0
   -0.8660   24.6280  -27.4740 C   0  0  0  0  0  0  0  0  0  0  0  0
   -1.0020   23.4040  -26.7880 C   0  0  0  0  0  0  0  0  0  0  0  0
   -0.2510   23.1330  -25.6500 O   0  0  0  0  0  0  0  0  0  0  0  0
   -1.8710   22.4900  -27.2050 O   0  0  0  0  0  0  0  0  0  0  0  0
   -2.6630   22.6670  -28.2550 C   0  0  0  0  0  0  0  0  0  0  0  0
   -3.4680   21.7520  -28.5730 O   0  0  0  0  0  0  0  0  0  0  0  0
   -2.6160   23.8670  -28.9870 C   0  0  0  0  0  0  0  0  0  0  0  0
   -3.5140   24.0830  -30.1480 C   0  0  0  0  0  0  0  0  0  0  0  0
   -3.8070   25.2600  -30.4890 O   0  0  0  0  0  0  0  0  0  0  0  0
   -4.1010   22.9930  -30.8720 N   0  0  0  0  0  0  0  0  0  0  0  0
   -5.4840   22.8550  -31.2320 C   0  0  0  0  0  0  0  0  0  0  0  0
   -6.3530   23.9590  -31.2710 C   0  0  0  0  0  0  0  0  0  0  0  0
   -7.6950   23.7850  -31.6170 C   0  0  0  0  0  0  0  0  0  0  0  0
   -8.1840   22.5090  -31.9100 C   0  0  0  0  0  0  0  0  0  0  0  0
   -7.3330   21.4000  -31.8530 C   0  0  0  0  0  0  0  0  0  0  0  0
   -7.9650   19.7890  -32.1820 S   0  0  0  0  0  0  0  0  0  0  0  0
   -8.5030   19.2020  -30.9060 O   0  0  0  0  0  0  0  0  0  0  0  0
   -9.0880   19.8760  -33.1790 O   0  0  0  0  0  0  0  0  0  0  0  0
   -6.6780   18.7780  -32.7890 N   0  0  0  0  0  0  0  0  0  0  0  0
   -6.1510   19.2930  -34.0520 C   0  0  0  0  0  0  0  0  0  0  0  0
   -5.5830   18.0980  -34.8010 C   0  0  0  0  0  0  0  0  0  0  0  0
   -6.2550   16.8810  -34.1840 C   0  0  0  0  0  0  0  0  0  0  0  0
   -7.1570   17.4280  -33.0880 C   0  0  0  0  0  0  0  0  0  0  0  0
   -5.9870   21.5760  -31.4990 C   0  0  0  0  0  0  0  0  0  0  0  0
   -1.6870   24.8460  -28.5950 C   0  0  0  0  0  0  0  0  0  0  0  0
   -1.5540   26.0160  -29.3410 O   0  0  0  0  0  0  0  0  0  0  0  0
   -0.1488   26.3924  -25.0478 H   0  0  0  0  0  0  0  0  0  0  0  0
    0.3708   27.6294  -26.2422 H   0  0  0  0  0  0  0  0  0  0  0  0
   -1.3252   27.0376  -26.2422 H   0  0  0  0  0  0  0  0  0  0  0  0
   -5.9751   24.9631  -31.0283 H   0  0  0  0  0  0  0  0  0  0  0  0
   -8.3682   24.6539  -31.6589 H   0  0  0  0  0  0  0  0  0  0  0  0
   -9.2405   22.3763  -32.1861 H   0  0  0  0  0  0  0  0  0  0  0  0
   -6.9563   19.7608  -34.6374 H   0  0  0  0  0  0  0  0  0  0  0  0
   -5.3796   20.0579  -33.8792 H   0  0  0  0  0  0  0  0  0  0  0  0
   -5.8201   18.1670  -35.8729 H   0  0  0  0  0  0  0  0  0  0  0  0
   -4.4872   18.0464  -34.7200 H   0  0  0  0  0  0  0  0  0  0  0  0
   -6.8489   16.3454  -34.9392 H   0  0  0  0  0  0  0  0  0  0  0  0
   -5.5196   16.1650  -33.7884 H   0  0  0  0  0  0  0  0  0  0  0  0
   -8.1996   17.4635  -33.4367 H   0  0  0  0  0  0  0  0  0  0  0  0
   -7.1274   16.7888  -32.1933 H   0  0  0  0  0  0  0  0  0  0  0  0
   -5.3218   20.7026  -31.4307 H   0  0  0  0  0  0  0  0  0  0  0  0
  1  2  1  0
  2  3  2  0
  2  4  1  0
  4  5  2  0
  5  6  1  0
  5  7  1  0
  7  8  1  0
  8  9  2  0
  8 10  1  0
 10 11  1  0
 11 12  2  0
 11 13  1  0
 13 14  1  0
 14 15  2  0
 15 16  1  0
 16 17  2  0
 17 18  1  0
 18 19  1  0
 19 20  2  0
 19 21  2  0
 19 22  1  0
 22 23  1  0
 23 24  1  0
 24 25  1  0
 25 26  1  0
 18 27  2  0
 10 28  2  0
 28 29  1  0
 28  4  1  0
 27 14  1  0
 26 22  1  0
  1 30  1  0
  1 31  1  0
  1 32  1  0
 15 33  1  0
 16 34  1  0
 17 35  1  0
 23 36  1  0
 23 37  1  0
 24 38  1  0
 24 39  1  0
 25 40  1  0
 25 41  1  0
 26 42  1  0
 26 43  1  0
 27 44  1  0
M  CHG  3   6  -1  13  -1  29  -1
M  END
>  <UniqueID>  (34) 
33

>  <SMILES>  (34) 
CC(=O)c1c([O-])oc(=O)c(C(=O)[N-]c2cccc(S(=O)(=O)N3CCCC3)c2)c1[O-]

>  <Energy>  (34) 
61.36195072883474

>  <Genealogy>  (34) 
CC(=O)c1c([O-])oc(=O)c(C(=O)[N-]c2cccc(S(=O)(=O)N3CCCC3)c2)c1[O-] (protonated)
CC(=O)c1c([O-])oc(=O)c(C(=O)[N-]c2cccc(S(=O)(=O)N3CCCC3)c2)c1[O-] (3D coordinates assigned)
CC(=O)c1c([O-])oc(=O)c(C(=O)[N-]c2cccc(S(=O)(=O)N3CCCC3)c2)c1[O-] (nonaromatic ring conformer: 61.36195072883474 kcal/mol)

>  <smiles>  (34) 
CC(=O)c1c(O)oc(=O)c(C(=O)Nc2cccc(S(=O)(=O)N3CCCC3)c2)c1O

>  <score_type>  (34) 
oracle

>  <origin>  (34) 
adgpu

>  <m_score__min__energy>  (34) 
-14.16

>  <m_primary>  (34) 
energy

$$$$
34:0
     RDKit          3D

 51 54  0  0  0  0  0  0  0  0999 V2000
   -0.3520   20.0010  -30.6680 O   0  0  0  0  0  0  0  0  0  0  0  0
   -0.1630   18.8090  -31.0290 C   0  0  0  0  0  0  0  0  0  0  0  0
   -0.7740   18.2390  -32.1630 N   0  0  0  0  0  0  0  0  0  0  0  0
   -0.3310   16.8570  -32.2670 C   0  0  0  0  0  0  0  0  0  0  0  0
    0.5980   16.6170  -31.0490 C   0  0  0  0  0  0  0  0  0  0  0  0
    0.6770   17.8980  -30.3440 N   0  0  0  0  0  0  0  0  0  0  0  0
    1.3490   18.1690  -29.0620 C   0  0  0  0  0  0  0  0  0  0  0  0
    1.5840   19.6840  -28.8560 C   0  0  0  0  0  0  0  0  0  0  0  0
    0.5770   20.3330  -27.8940 C   0  0  0  0  0  0  0  0  0  0  0  0
   -0.7210   19.6540  -27.9850 N   0  0  0  0  0  0  0  0  0  0  0  0
   -1.9410   20.5820  -27.1550 S   0  0  0  0  0  0  0  0  0  0  0  0
   -3.1610   19.7350  -26.9160 O   0  0  0  0  0  0  0  0  0  0  0  0
   -1.4190   21.0530  -25.8240 O   0  0  0  0  0  0  0  0  0  0  0  0
   -2.3980   21.9650  -28.1450 C   0  0  0  0  0  0  0  0  0  0  0  0
   -1.8920   23.2340  -27.8430 C   0  0  0  0  0  0  0  0  0  0  0  0
   -2.2580   24.3380  -28.6170 C   0  0  0  0  0  0  0  0  0  0  0  0
   -3.1410   24.1860  -29.6920 C   0  0  0  0  0  0  0  0  0  0  0  0
   -3.4850   25.3020  -30.4460 O   0  0  0  0  0  0  0  0  0  0  0  0
   -3.6720   22.9160  -29.9940 C   0  0  0  0  0  0  0  0  0  0  0  0
   -4.6200   22.7150  -31.1500 C   0  0  0  0  0  0  0  0  0  0  0  0
   -4.1830   21.5470  -32.0010 C   0  0  0  0  0  0  0  0  0  0  0  0
   -5.1050   20.5560  -32.3660 C   0  0  0  0  0  0  0  0  0  0  0  0
   -4.7040   19.4870  -33.1020 N   0  0  0  0  0  0  0  0  0  0  0  0
   -3.4100   19.3540  -33.4900 C   0  0  0  0  0  0  0  0  0  0  0  0
   -3.0580   18.3560  -34.1700 O   0  0  0  0  0  0  0  0  0  0  0  0
   -2.4940   20.2970  -33.1450 N   0  0  0  0  0  0  0  0  0  0  0  0
   -2.8470   21.3840  -32.4120 C   0  0  0  0  0  0  0  0  0  0  0  0
   -1.9710   22.2380  -32.1120 O   0  0  0  0  0  0  0  0  0  0  0  0
   -3.2900   21.8100  -29.2150 C   0  0  0  0  0  0  0  0  0  0  0  0
   -0.6430   18.3010  -27.4040 C   0  0  0  0  0  0  0  0  0  0  0  0
    0.5980   17.5150  -27.8840 C   0  0  0  0  0  0  0  0  0  0  0  0
   -1.4230   18.7270  -32.8200 H   0  0  0  0  0  0  0  0  0  0  0  0
   -1.1932   16.1749  -32.2311 H   0  0  0  0  0  0  0  0  0  0  0  0
    0.1913   16.6702  -33.2169 H   0  0  0  0  0  0  0  0  0  0  0  0
    0.1740   15.8440  -30.3912 H   0  0  0  0  0  0  0  0  0  0  0  0
    1.5926   16.2676  -31.3631 H   0  0  0  0  0  0  0  0  0  0  0  0
    2.3443   17.7019  -29.0951 H   0  0  0  0  0  0  0  0  0  0  0  0
    2.5962   19.8277  -28.4501 H   0  0  0  0  0  0  0  0  0  0  0  0
    1.4558   20.1684  -29.8353 H   0  0  0  0  0  0  0  0  0  0  0  0
    0.9562   20.2554  -26.8644 H   0  0  0  0  0  0  0  0  0  0  0  0
    0.4489   21.3905  -28.1684 H   0  0  0  0  0  0  0  0  0  0  0  0
   -1.2044   23.3628  -26.9941 H   0  0  0  0  0  0  0  0  0  0  0  0
   -1.8500   25.3317  -28.3802 H   0  0  0  0  0  0  0  0  0  0  0  0
   -5.6296   22.5195  -30.7594 H   0  0  0  0  0  0  0  0  0  0  0  0
   -4.6201   23.6238  -31.7697 H   0  0  0  0  0  0  0  0  0  0  0  0
   -6.1565   20.6444  -32.0554 H   0  0  0  0  0  0  0  0  0  0  0  0
   -3.6948   20.8139  -29.4472 H   0  0  0  0  0  0  0  0  0  0  0  0
   -0.6004   18.3906  -26.3085 H   0  0  0  0  0  0  0  0  0  0  0  0
   -1.5344   17.7468  -27.7332 H   0  0  0  0  0  0  0  0  0  0  0  0
    1.2960   17.4241  -27.0387 H   0  0  0  0  0  0  0  0  0  0  0  0
    0.2335   16.5420  -28.2450 H   0  0  0  0  0  0  0  0  0  0  0  0
  1  2  2  0
  2  3  1  0
  3  4  1  0
  4  5  1  0
  5  6  1  0
  6  7  1  0
  7  8  1  0
  8  9  1  0
  9 10  1  0
 10 11  1  0
 11 12  2  0
 11 13  2  0
 11 14  1  0
 14 15  2  0
 15 16  1  0
 16 17  2  0
 17 18  1  0
 17 19  1  0
 19 20  1  0
 20 21  1  0
 21 22  2  0
 22 23  1  0
 23 24  1  0
 24 25  2  0
 24 26  1  0
 26 27  1  0
 27 28  2  0
 19 29  2  0
 10 30  1  0
 30 31  1  0
  6  2  1  0
 31  7  1  0
 29 14  1  0
 27 21  1  0
  3 32  1  0
  4 33  1  0
  4 34  1  0
  5 35  1  0
  5 36  1  0
  7 37  1  0
  8 38  1  0
  8 39  1  0
  9 40  1  0
  9 41  1  0
 15 42  1  0
 16 43  1  0
 20 44  1  0
 20 45  1  0
 22 46  1  0
 29 47  1  0
 30 48  1  0
 30 49  1  0
 31 50  1  0
 31 51  1  0
M  CHG  3  18  -1  23  -1  26  -1
M  END
>  <UniqueID>  (35) 
34

>  <SMILES>  (35) 
O=C1NCCN1C1CCN(S(=O)(=O)c2ccc([O-])c(Cc3c[n-]c(=O)[n-]c3=O)c2)CC1

>  <Energy>  (35) 
72.68269574176978

>  <Genealogy>  (35) 
O=C1NCCN1C1CCN(S(=O)(=O)c2ccc([O-])c(Cc3c[n-]c(=O)[n-]c3=O)c2)CC1 (protonated)
O=C1NCCN1C1CCN(S(=O)(=O)c2ccc([O-])c(Cc3c[n-]c(=O)[n-]c3=O)c2)CC1 (3D coordinates assigned)
O=C1NCCN1C1CCN(S(=O)(=O)c2ccc([O-])c(Cc3c[n-]c(=O)[n-]c3=O)c2)CC1 (nonaromatic ring conformer: 72.68269574176978 kcal/mol)

>  <smiles>  (35) 
O=C1NCCN1C1CCN(S(=O)(=O)c2ccc(O)c(Cc3c[nH]c(=O)[nH]c3=O)c2)CC1

>  <score_type>  (35) 
oracle

>  <origin>  (35) 
adgpu

>  <m_score__min__energy>  (35) 
-12.609999999999999

>  <m_primary>  (35) 
energy

$$$$
35:0
     RDKit          3D

 46 49  0  0  0  0  0  0  0  0999 V2000
    0.8500   19.9660  -34.5170 C   0  0  0  0  0  0  0  0  0  0  0  0
   -0.1400   20.5230  -33.5530 C   0  0  0  0  0  0  0  0  0  0  0  0
   -1.4450   20.6990  -33.8310 N   0  0  0  0  0  0  0  0  0  0  0  0
   -1.9050   21.1880  -32.6590 C   0  0  0  0  0  0  0  0  0  0  0  0
   -3.3150   21.5650  -32.4190 C   0  0  0  0  0  0  0  0  0  0  0  0
   -4.3590   20.7940  -32.9570 C   0  0  0  0  0  0  0  0  0  0  0  0
   -5.6900   21.1460  -32.7260 C   0  0  0  0  0  0  0  0  0  0  0  0
   -5.9980   22.2720  -31.9560 C   0  0  0  0  0  0  0  0  0  0  0  0
   -7.3300   22.6000  -31.7320 O   0  0  0  0  0  0  0  0  0  0  0  0
   -4.9660   23.0570  -31.4140 C   0  0  0  0  0  0  0  0  0  0  0  0
   -5.3480   24.4700  -30.4290 S   0  0  0  0  0  0  0  0  0  0  0  0
   -5.0240   25.7160  -31.2080 O   0  0  0  0  0  0  0  0  0  0  0  0
   -6.8130   24.4320  -30.0910 O   0  0  0  0  0  0  0  0  0  0  0  0
   -4.4130   24.4460  -28.9680 N   0  0  0  0  0  0  0  0  0  0  0  0
   -3.1730   23.7620  -28.7290 C   0  0  0  0  0  0  0  0  0  0  0  0
   -3.2430   22.4210  -28.3330 C   0  0  0  0  0  0  0  0  0  0  0  0
   -2.0830   21.6820  -28.0610 C   0  0  0  0  0  0  0  0  0  0  0  0
   -0.8210   22.2850  -28.2270 C   0  0  0  0  0  0  0  0  0  0  0  0
   -0.7450   23.6260  -28.6260 C   0  0  0  0  0  0  0  0  0  0  0  0
   -1.9040   24.3630  -28.8900 C   0  0  0  0  0  0  0  0  0  0  0  0
   -1.7660   25.6740  -29.3230 O   0  0  0  0  0  0  0  0  0  0  0  0
    0.4490   21.5410  -27.8830 C   0  0  0  0  0  0  0  0  0  0  0  0
    0.2830   20.0740  -27.9070 N   0  0  0  0  0  0  0  0  0  0  0  0
    0.2770   19.5410  -29.2810 C   0  0  0  0  0  0  0  0  0  0  0  0
   -0.8980   19.6530  -27.1280 C   0  0  0  0  0  0  0  0  0  0  0  0
   -2.2070   20.2290  -27.6880 C   0  0  0  0  0  0  0  0  0  0  0  0
   -3.6290   22.6970  -31.6470 C   0  0  0  0  0  0  0  0  0  0  0  0
   -0.9310   21.2920  -31.7320 N   0  0  0  0  0  0  0  0  0  0  0  0
    0.1440   20.8690  -32.3230 O   0  0  0  0  0  0  0  0  0  0  0  0
    1.6785   19.4999  -33.9635 H   0  0  0  0  0  0  0  0  0  0  0  0
    0.3608   19.2107  -35.1496 H   0  0  0  0  0  0  0  0  0  0  0  0
    1.2416   20.7762  -35.1496 H   0  0  0  0  0  0  0  0  0  0  0  0
   -4.1260   19.9070  -33.5644 H   0  0  0  0  0  0  0  0  0  0  0  0
   -6.4999   20.5351  -33.1514 H   0  0  0  0  0  0  0  0  0  0  0  0
   -4.2264   21.9382  -28.2334 H   0  0  0  0  0  0  0  0  0  0  0  0
    0.2392   24.1055  -28.7330 H   0  0  0  0  0  0  0  0  0  0  0  0
    1.2256   21.8178  -28.6112 H   0  0  0  0  0  0  0  0  0  0  0  0
    0.7283   21.8237  -26.8573 H   0  0  0  0  0  0  0  0  0  0  0  0
    0.2646   18.4416  -29.2477 H   0  0  0  0  0  0  0  0  0  0  0  0
   -0.6171   19.9019  -29.8104 H   0  0  0  0  0  0  0  0  0  0  0  0
    1.1790   19.8817  -29.8104 H   0  0  0  0  0  0  0  0  0  0  0  0
   -0.9595   18.5549  -27.1460 H   0  0  0  0  0  0  0  0  0  0  0  0
   -0.7761   20.0342  -26.1034 H   0  0  0  0  0  0  0  0  0  0  0  0
   -2.4892   19.6573  -28.5844 H   0  0  0  0  0  0  0  0  0  0  0  0
   -2.9714   20.1495  -26.9010 H   0  0  0  0  0  0  0  0  0  0  0  0
   -2.8189   23.3071  -31.2210 H   0  0  0  0  0  0  0  0  0  0  0  0
  1  2  1  0
  2  3  2  0
  3  4  1  0
  4  5  1  0
  5  6  2  0
  6  7  1  0
  7  8  2  0
  8  9  1  0
  8 10  1  0
 10 11  1  0
 11 12  2  0
 11 13  2  0
 11 14  1  0
 14 15  1  0
 15 16  2  0
 16 17  1  0
 17 18  2  0
 18 19  1  0
 19 20  2  0
 20 21  1  0
 18 22  1  0
 22 23  1  0
 23 24  1  0
 23 25  1  0
 25 26  1  0
 10 27  2  0
  4 28  2  0
 28 29  1  0
 29  2  1  0
 27  5  1  0
 20 15  1  0
 26 17  1  0
  1 30  1  0
  1 31  1  0
  1 32  1  0
  6 33  1  0
  7 34  1  0
 16 35  1  0
 19 36  1  0
 22 37  1  0
 22 38  1  0
 24 39  1  0
 24 40  1  0
 24 41  1  0
 25 42  1  0
 25 43  1  0
 26 44  1  0
 26 45  1  0
 27 46  1  0
M  CHG  3   9  -1  14  -1  21  -1
M  END
>  <UniqueID>  (36) 
35

>  <SMILES>  (36) 
Cc1nc(-c2ccc([O-])c(S(=O)(=O)[N-]c3cc4c(cc3[O-])CN(C)CC4)c2)no1

>  <Energy>  (36) 
95.26187731142286

>  <Genealogy>  (36) 
Cc1nc(-c2ccc([O-])c(S(=O)(=O)[N-]c3cc4c(cc3[O-])CN(C)CC4)c2)no1 (protonated)
Cc1nc(-c2ccc([O-])c(S(=O)(=O)[N-]c3cc4c(cc3[O-])CN(C)CC4)c2)no1 (3D coordinates assigned)
Cc1nc(-c2ccc([O-])c(S(=O)(=O)[N-]c3cc4c(cc3[O-])CN(C)CC4)c2)no1 (nonaromatic ring conformer: 95.26187731142286 kcal/mol)

>  <smiles>  (36) 
Cc1nc(-c2ccc(O)c(S(=O)(=O)Nc3cc4c(cc3O)CN(C)CC4)c2)no1

>  <score_type>  (36) 
oracle

>  <origin>  (36) 
adgpu

>  <m_score__min__energy>  (36) 
-13.199999999999999

>  <m_primary>  (36) 
energy

$$$$
36:0
     RDKit          3D

 36 37  0  0  0  0  0  0  0  0999 V2000
   -5.4180   26.5100  -29.1600 H   0  0  0  0  0  0  0  0  0  0  0  0
   -6.1280   26.0320  -29.7040 O   0  0  0  0  0  0  0  0  0  0  0  0
   -5.8690   24.8350  -30.3700 C   0  0  0  0  0  0  0  0  0  0  0  0
   -6.9380   23.9860  -30.6870 C   0  0  0  0  0  0  0  0  0  0  0  0
   -7.9625   24.2720  -30.4064 H   0  0  0  0  0  0  0  0  0  0  0  0
   -6.7130   22.7690  -31.3620 C   0  0  0  0  0  0  0  0  0  0  0  0
   -7.8090   21.8350  -31.7120 C   0  0  0  0  0  0  0  0  0  0  0  0
   -8.6004   22.1960  -32.3853 H   0  0  0  0  0  0  0  0  0  0  0  0
   -7.8940   20.5780  -31.2580 C   0  0  0  0  0  0  0  0  0  0  0  0
   -7.1044   20.1857  -30.6003 H   0  0  0  0  0  0  0  0  0  0  0  0
   -9.0490   19.6960  -31.6320 C   0  0  0  0  0  0  0  0  0  0  0  0
   -9.8909   20.3240  -31.9589 H   0  0  0  0  0  0  0  0  0  0  0  0
   -9.3343   19.0986  -30.7536 H   0  0  0  0  0  0  0  0  0  0  0  0
   -8.6890   18.8080  -32.6910 O   0  0  0  0  0  0  0  0  0  0  0  0
   -7.3770   18.4430  -33.0340 C   0  0  0  0  0  0  0  0  0  0  0  0
   -6.6260   19.3300  -33.8100 C   0  0  0  0  0  0  0  0  0  0  0  0
   -7.0689   20.2857  -34.1269 H   0  0  0  0  0  0  0  0  0  0  0  0
   -5.3190   19.0150  -34.1870 C   0  0  0  0  0  0  0  0  0  0  0  0
   -4.7421   19.7276  -34.7947 H   0  0  0  0  0  0  0  0  0  0  0  0
   -4.7310   17.7970  -33.7990 C   0  0  0  0  0  0  0  0  0  0  0  0
   -3.3400   17.5000  -34.2380 C   0  0  0  0  0  0  0  0  0  0  0  0
   -2.4620   18.4020  -34.1590 O   0  0  0  0  0  0  0  0  0  0  0  0
   -2.9350   16.1610  -34.7750 C   0  0  0  0  0  0  0  0  0  0  0  0
   -2.7283   15.4776  -33.9382 H   0  0  0  0  0  0  0  0  0  0  0  0
   -3.7494   15.7512  -35.3905 H   0  0  0  0  0  0  0  0  0  0  0  0
   -2.0300   16.2712  -35.3905 H   0  0  0  0  0  0  0  0  0  0  0  0
   -5.4820   16.9080  -32.9960 C   0  0  0  0  0  0  0  0  0  0  0  0
   -4.9390   15.7150  -32.5360 O   0  0  0  0  0  0  0  0  0  0  0  0
   -6.7930   17.2310  -32.6260 C   0  0  0  0  0  0  0  0  0  0  0  0
   -7.3727   16.5286  -32.0091 H   0  0  0  0  0  0  0  0  0  0  0  0
   -5.3950   22.4100  -31.6900 C   0  0  0  0  0  0  0  0  0  0  0  0
   -5.2009   21.4542  -32.1986 H   0  0  0  0  0  0  0  0  0  0  0  0
   -4.3290   23.2560  -31.3760 C   0  0  0  0  0  0  0  0  0  0  0  0
   -3.3027   22.9668  -31.6464 H   0  0  0  0  0  0  0  0  0  0  0  0
   -4.5600   24.4680  -30.7200 C   0  0  0  0  0  0  0  0  0  0  0  0
   -3.4890   25.2980  -30.4160 O   0  0  0  0  0  0  0  0  0  0  0  0
  1  2  1  0
  2  3  1  0
  3  4  2  0
  4  5  1  0
  4  6  1  0
  6  7  1  0
  7  8  1  0
  7  9  2  0
  9 10  1  0
  9 11  1  0
 11 12  1  0
 11 13  1  0
 11 14  1  0
 14 15  1  0
 15 16  2  0
 16 17  1  0
 16 18  1  0
 18 19  1  0
 18 20  2  0
 20 21  1  0
 21 22  2  0
 21 23  1  0
 23 24  1  0
 23 25  1  0
 23 26  1  0
 20 27  1  0
 27 28  1  0
 27 29  2  0
 29 30  1  0
  6 31  2  0
 31 32  1  0
 31 33  1  0
 33 34  1  0
 33 35  2  0
 35 36  1  0
 35  3  1  0
 29 15  1  0
M  CHG  2  28  -1  36  -1
M  END
>  <UniqueID>  (37) 
36

>  <SMILES>  (37) 
CC(=O)c1ccc(OC/C=C/c2ccc([O-])c(O)c2)cc1[O-]

>  <Energy>  (37) 
40.37754200403294

>  <Genealogy>  (37) 
CC(=O)c1ccc(OCC=Cc2ccc([O-])c(O)c2)cc1[O-] (protonated)
CC(=O)c1ccc(OC/C=C/c2ccc([O-])c(O)c2)cc1[O-] (cis-trans isomerization)
CC(=O)c1ccc(OC/C=C/c2ccc([O-])c(O)c2)cc1[O-] (3D coordinates assigned)
CC(=O)c1ccc(OC/C=C/c2ccc([O-])c(O)c2)cc1[O-] (optimized conformer: 40.37754200403294 kcal/mol)

>  <smiles>  (37) 
CC(=O)c1ccc(OCC=Cc2ccc(O)c(O)c2)cc1O

>  <score_type>  (37) 
oracle

>  <origin>  (37) 
adgpu

>  <m_score__min__energy>  (37) 
-10.529999999999999

>  <m_primary>  (37) 
energy

$$$$
37:0
     RDKit          3D

 50 53  0  0  0  0  0  0  0  0999 V2000
   -6.5170   16.0110  -34.1390 C   0  0  0  0  0  0  0  0  0  0  0  0
   -6.1210   17.0860  -33.1280 C   0  0  0  0  0  0  0  0  0  0  0  0
   -6.3520   18.4660  -33.6840 C   0  0  0  0  0  0  0  0  0  0  0  0
   -6.0120   18.7040  -34.8770 O   0  0  0  0  0  0  0  0  0  0  0  0
   -7.0470   19.4850  -32.9370 N   0  0  0  0  0  0  0  0  0  0  0  0
   -8.4940   19.4550  -32.7130 C   0  0  0  0  0  0  0  0  0  0  0  0
   -8.8170   20.6570  -31.7950 C   0  0  0  0  0  0  0  0  0  0  0  0
   -7.5030   21.3420  -31.6570 C   0  0  0  0  0  0  0  0  0  0  0  0
   -7.2380   22.5460  -31.0020 C   0  0  0  0  0  0  0  0  0  0  0  0
   -5.9240   23.0500  -31.0160 C   0  0  0  0  0  0  0  0  0  0  0  0
   -5.5660   24.5640  -30.1870 S   0  0  0  0  0  0  0  0  0  0  0  0
   -4.6270   25.3730  -31.0390 O   0  0  0  0  0  0  0  0  0  0  0  0
   -6.8190   25.3720  -29.9770 O   0  0  0  0  0  0  0  0  0  0  0  0
   -4.8040   24.2400  -28.6620 N   0  0  0  0  0  0  0  0  0  0  0  0
   -3.6600   23.3990  -28.4440 C   0  0  0  0  0  0  0  0  0  0  0  0
   -3.7860   22.1150  -27.8750 C   0  0  0  0  0  0  0  0  0  0  0  0
   -2.6550   21.3160  -27.6560 C   0  0  0  0  0  0  0  0  0  0  0  0
   -1.3810   21.7890  -28.0370 C   0  0  0  0  0  0  0  0  0  0  0  0
   -1.2560   23.0680  -28.5990 C   0  0  0  0  0  0  0  0  0  0  0  0
   -2.3830   23.8700  -28.8050 C   0  0  0  0  0  0  0  0  0  0  0  0
   -2.2090   25.1370  -29.3690 O   0  0  0  0  0  0  0  0  0  0  0  0
   -0.1410   20.9700  -27.7560 C   0  0  0  0  0  0  0  0  0  0  0  0
   -0.4560   19.5430  -27.5920 N   0  0  0  0  0  0  0  0  0  0  0  0
   -1.5110   19.3570  -26.5900 C   0  0  0  0  0  0  0  0  0  0  0  0
   -2.8290   19.9190  -27.1190 C   0  0  0  0  0  0  0  0  0  0  0  0
   -4.9120   22.3430  -31.7020 C   0  0  0  0  0  0  0  0  0  0  0  0
   -5.2090   21.1450  -32.3700 C   0  0  0  0  0  0  0  0  0  0  0  0
   -6.5170   20.6480  -32.3100 C   0  0  0  0  0  0  0  0  0  0  0  0
   -6.8492   15.1091  -33.6040 H   0  0  0  0  0  0  0  0  0  0  0  0
   -7.3362   16.3854  -34.7704 H   0  0  0  0  0  0  0  0  0  0  0  0
   -5.6506   15.7645  -34.7704 H   0  0  0  0  0  0  0  0  0  0  0  0
   -6.7235   16.9608  -32.2162 H   0  0  0  0  0  0  0  0  0  0  0  0
   -5.0500   16.9754  -32.9026 H   0  0  0  0  0  0  0  0  0  0  0  0
   -9.0294   19.5515  -33.6691 H   0  0  0  0  0  0  0  0  0  0  0  0
   -8.8075   18.5060  -32.2536 H   0  0  0  0  0  0  0  0  0  0  0  0
   -9.5607   21.3204  -32.2607 H   0  0  0  0  0  0  0  0  0  0  0  0
   -9.2512   20.3581  -30.8295 H   0  0  0  0  0  0  0  0  0  0  0  0
   -8.0414   23.0907  -30.4845 H   0  0  0  0  0  0  0  0  0  0  0  0
   -4.7816   21.7365  -27.6002 H   0  0  0  0  0  0  0  0  0  0  0  0
   -0.2614   23.4441  -28.8806 H   0  0  0  0  0  0  0  0  0  0  0  0
   -2.9790   25.6740  -29.7440 H   0  0  0  0  0  0  0  0  0  0  0  0
    0.5603   21.0859  -28.5955 H   0  0  0  0  0  0  0  0  0  0  0  0
    0.3035   21.3326  -26.8174 H   0  0  0  0  0  0  0  0  0  0  0  0
    0.4060   19.0680  -27.2380 H   0  0  0  0  0  0  0  0  0  0  0  0
   -1.6296   18.2840  -26.3790 H   0  0  0  0  0  0  0  0  0  0  0  0
   -1.2337   19.8869  -25.6668 H   0  0  0  0  0  0  0  0  0  0  0  0
   -3.1971   19.2686  -27.9262 H   0  0  0  0  0  0  0  0  0  0  0  0
   -3.5485   19.9548  -26.2877 H   0  0  0  0  0  0  0  0  0  0  0  0
   -3.8839   22.7340  -31.7128 H   0  0  0  0  0  0  0  0  0  0  0  0
   -4.4298   20.6069  -32.9297 H   0  0  0  0  0  0  0  0  0  0  0  0
  1  2  1  0
  2  3  1  0
  3  4  2  0
  3  5  1  0
  5  6  1  0
  6  7  1  0
  7  8  1  0
  8  9  2  0
  9 10  1  0
 10 11  1  0
 11 12  2  0
 11 13  2  0
 11 14  1  0
 14 15  1  0
 15 16  2  0
 16 17  1  0
 17 18  2  0
 18 19  1  0
 19 20  2  0
 20 21  1  0
 18 22  1  0
 22 23  1  0
 23 24  1  0
 24 25  1  0
 10 26  2  0
 26 27  1  0
 27 28  2  0
 28  5  1  0
 28  8  1  0
 20 15  1  0
 25 17  1  0
  1 29  1  0
  1 30  1  0
  1 31  1  0
  2 32  1  0
  2 33  1  0
  6 34  1  0
  6 35  1  0
  7 36  1  0
  7 37  1  0
  9 38  1  0
 16 39  1  0
 19 40  1  0
 21 41  1  0
 22 42  1  0
 22 43  1  0
 23 44  1  0
 24 45  1  0
 24 46  1  0
 25 47  1  0
 25 48  1  0
 26 49  1  0
 27 50  1  0
M  CHG  1  14  -1
M  END
>  <UniqueID>  (38) 
37

>  <SMILES>  (38) 
CCC(=O)N1CCc2cc(S(=O)(=O)[N-]c3cc4c(cc3O)CNCC4)ccc21

>  <Energy>  (38) 
73.31180596638258

>  <Genealogy>  (38) 
CCC(=O)N1CCc2cc(S(=O)(=O)[N-]c3cc4c(cc3O)CNCC4)ccc21 (protonated)
CCC(=O)N1CCc2cc(S(=O)(=O)[N-]c3cc4c(cc3O)CNCC4)ccc21 (3D coordinates assigned)
CCC(=O)N1CCc2cc(S(=O)(=O)[N-]c3cc4c(cc3O)CNCC4)ccc21 (nonaromatic ring conformer: 73.31180596638258 kcal/mol)

>  <smiles>  (38) 
CCC(=O)N1CCc2cc(S(=O)(=O)Nc3cc4c(cc3O)CNCC4)ccc21

>  <score_type>  (38) 
oracle

>  <origin>  (38) 
adgpu

>  <m_score__min__energy>  (38) 
-12.85

>  <m_primary>  (38) 
energy

$$$$
38:0
     RDKit          3D

 36 38  0  0  0  0  0  0  0  0999 V2000
   -4.3360   16.7080  -34.4160 C   0  0  0  0  0  0  0  0  0  0  0  0
   -4.3940   18.0740  -33.8110 C   0  0  0  0  0  0  0  0  0  0  0  0
   -3.3070   18.8480  -33.5990 N   0  0  0  0  0  0  0  0  0  0  0  0
   -3.7270   19.9800  -33.0450 N   0  0  0  0  0  0  0  0  0  0  0  0
   -5.0660   19.8760  -32.9310 C   0  0  0  0  0  0  0  0  0  0  0  0
   -5.9370   20.8270  -32.3870 C   0  0  0  0  0  0  0  0  0  0  0  0
   -5.3900   22.0920  -31.8530 C   0  0  0  0  0  0  0  0  0  0  0  0
   -6.0470   23.3070  -32.1020 C   0  0  0  0  0  0  0  0  0  0  0  0
   -5.5340   24.5020  -31.5860 C   0  0  0  0  0  0  0  0  0  0  0  0
   -4.3700   24.4880  -30.8120 C   0  0  0  0  0  0  0  0  0  0  0  0
   -3.8600   25.6750  -30.3000 O   0  0  0  0  0  0  0  0  0  0  0  0
   -3.7170   23.2780  -30.5530 C   0  0  0  0  0  0  0  0  0  0  0  0
   -4.2260   22.0820  -31.0690 C   0  0  0  0  0  0  0  0  0  0  0  0
   -7.3280   20.5100  -32.3650 C   0  0  0  0  0  0  0  0  0  0  0  0
   -8.3700   21.4960  -31.8490 C   0  0  0  0  0  0  0  0  0  0  0  0
   -9.7950   20.9960  -32.1240 C   0  0  0  0  0  0  0  0  0  0  0  0
   -8.1650   21.7810  -30.3570 C   0  0  0  0  0  0  0  0  0  0  0  0
   -7.7520   19.2460  -32.8570 C   0  0  0  0  0  0  0  0  0  0  0  0
   -6.8200   18.3390  -33.3780 C   0  0  0  0  0  0  0  0  0  0  0  0
   -7.1960   17.2190  -33.8180 O   0  0  0  0  0  0  0  0  0  0  0  0
   -5.5120   18.7010  -33.3960 N   0  0  0  0  0  0  0  0  0  0  0  0
   -4.3040   15.9537  -33.6160 H   0  0  0  0  0  0  0  0  0  0  0  0
   -5.2280   16.5445  -35.0386 H   0  0  0  0  0  0  0  0  0  0  0  0
   -3.4333   16.6207  -35.0386 H   0  0  0  0  0  0  0  0  0  0  0  0
   -6.9674   23.3197  -32.7043 H   0  0  0  0  0  0  0  0  0  0  0  0
   -6.0471   25.4535  -31.7896 H   0  0  0  0  0  0  0  0  0  0  0  0
   -2.8019   23.2674  -29.9426 H   0  0  0  0  0  0  0  0  0  0  0  0
   -3.7131   21.1316  -30.8600 H   0  0  0  0  0  0  0  0  0  0  0  0
   -8.2366   22.4407  -32.3965 H   0  0  0  0  0  0  0  0  0  0  0  0
  -10.3107   20.8151  -31.1694 H   0  0  0  0  0  0  0  0  0  0  0  0
  -10.3451   21.7548  -32.6998 H   0  0  0  0  0  0  0  0  0  0  0  0
   -9.7504   20.0598  -32.6998 H   0  0  0  0  0  0  0  0  0  0  0  0
   -8.7054   21.0296  -29.7625 H   0  0  0  0  0  0  0  0  0  0  0  0
   -7.0921   21.7345  -30.1189 H   0  0  0  0  0  0  0  0  0  0  0  0
   -8.5503   22.7834  -30.1189 H   0  0  0  0  0  0  0  0  0  0  0  0
   -8.8185   18.9781  -32.8286 H   0  0  0  0  0  0  0  0  0  0  0  0
  1  2  1  0
  2  3  2  0
  3  4  1  0
  4  5  1  0
  5  6  2  0
  6  7  1  0
  7  8  2  0
  8  9  1  0
  9 10  2  0
 10 11  1  0
 10 12  1  0
 12 13  2  0
  6 14  1  0
 14 15  1  0
 15 16  1  0
 15 17  1  0
 14 18  2  0
 18 19  1  0
 19 20  2  0
 19 21  1  0
 21  2  1  0
 21  5  1  0
 13  7  1  0
  1 22  1  0
  1 23  1  0
  1 24  1  0
  8 25  1  0
  9 26  1  0
 12 27  1  0
 13 28  1  0
 15 29  1  0
 16 30  1  0
 16 31  1  0
 16 32  1  0
 17 33  1  0
 17 34  1  0
 17 35  1  0
 18 36  1  0
M  CHG  2   4  -1  11  -1
M  END
>  <UniqueID>  (39) 
38

>  <SMILES>  (39) 
Cc1n[n-]c2c(-c3ccc([O-])cc3)c(C(C)C)cc(=O)n12

>  <Energy>  (39) 
84.42402405950806

>  <Genealogy>  (39) 
Cc1n[n-]c2c(-c3ccc([O-])cc3)c(C(C)C)cc(=O)n12 (protonated)
Cc1n[n-]c2c(-c3ccc([O-])cc3)c(C(C)C)cc(=O)n12 (3D coordinates assigned)
Cc1n[n-]c2c(-c3ccc([O-])cc3)c(C(C)C)cc(=O)n12 (optimized conformer: 84.42402405950806 kcal/mol)

>  <smiles>  (39) 
Cc1n[nH]c2c(-c3ccc(O)cc3)c(C(C)C)cc(=O)n12

>  <score_type>  (39) 
oracle

>  <origin>  (39) 
adgpu

>  <m_score__min__energy>  (39) 
-10.880000000000001

>  <m_primary>  (39) 
energy

$$$$
39:0
     RDKit          3D

 58 61  0  0  0  0  0  0  0  0999 V2000
   -6.6080   25.6910  -29.8550 O   0  0  0  0  0  0  0  0  0  0  0  0
   -5.5870   24.6270  -30.1370 S   0  0  0  0  0  0  0  0  0  0  0  0
   -4.6160   25.1520  -31.1540 O   0  0  0  0  0  0  0  0  0  0  0  0
   -4.7330   24.2360  -28.6790 N   0  0  0  0  0  0  0  0  0  0  0  0
   -3.5900   23.3720  -28.6010 C   0  0  0  0  0  0  0  0  0  0  0  0
   -3.6860   22.0590  -28.1050 C   0  0  0  0  0  0  0  0  0  0  0  0
   -2.5610   21.2250  -28.0760 C   0  0  0  0  0  0  0  0  0  0  0  0
   -1.3250   21.7020  -28.5410 C   0  0  0  0  0  0  0  0  0  0  0  0
   -1.2290   23.0030  -29.0430 C   0  0  0  0  0  0  0  0  0  0  0  0
   -2.3550   23.8400  -29.0720 C   0  0  0  0  0  0  0  0  0  0  0  0
   -2.2600   25.1300  -29.5900 O   0  0  0  0  0  0  0  0  0  0  0  0
   -0.1460   20.7630  -28.5700 C   0  0  0  0  0  0  0  0  0  0  0  0
   -0.0880   19.8350  -27.3350 C   0  0  0  0  0  0  0  0  0  0  0  0
   -1.4550   19.4950  -26.6910 C   0  0  0  0  0  0  0  0  0  0  0  0
   -2.6500   19.8040  -27.5980 C   0  0  0  0  0  0  0  0  0  0  0  0
   -6.3470   23.1710  -30.7730 C   0  0  0  0  0  0  0  0  0  0  0  0
   -7.7280   23.1270  -31.0100 C   0  0  0  0  0  0  0  0  0  0  0  0
   -8.3300   21.9430  -31.4440 C   0  0  0  0  0  0  0  0  0  0  0  0
   -7.5530   20.7950  -31.6600 C   0  0  0  0  0  0  0  0  0  0  0  0
   -8.3170   19.3020  -32.2100 S   0  0  0  0  0  0  0  0  0  0  0  0
   -9.6780   19.6270  -32.7660 O   0  0  0  0  0  0  0  0  0  0  0  0
   -8.5060   18.3780  -31.0390 O   0  0  0  0  0  0  0  0  0  0  0  0
   -7.3460   18.4910  -33.4230 N   0  0  0  0  0  0  0  0  0  0  0  0
   -6.7450   17.2480  -32.8810 C   0  0  0  0  0  0  0  0  0  0  0  0
   -5.5450   17.4500  -31.9300 C   0  0  0  0  0  0  0  0  0  0  0  0
   -4.3300   18.2120  -32.5180 C   0  0  0  0  0  0  0  0  0  0  0  0
   -4.1610   18.1190  -34.0410 C   0  0  0  0  0  0  0  0  0  0  0  0
   -5.3080   18.7490  -34.8620 C   0  0  0  0  0  0  0  0  0  0  0  0
   -6.4070   19.4440  -34.0420 C   0  0  0  0  0  0  0  0  0  0  0  0
   -6.1690   20.8440  -31.4380 C   0  0  0  0  0  0  0  0  0  0  0  0
   -5.5710   22.0250  -30.9930 C   0  0  0  0  0  0  0  0  0  0  0  0
   -4.6525   21.6842  -27.7369 H   0  0  0  0  0  0  0  0  0  0  0  0
   -0.2636   23.3735  -29.4181 H   0  0  0  0  0  0  0  0  0  0  0  0
   -3.0760   25.7120  -29.7140 H   0  0  0  0  0  0  0  0  0  0  0  0
   -0.2148   20.1405  -29.4743 H   0  0  0  0  0  0  0  0  0  0  0  0
    0.7665   21.3773  -28.5655 H   0  0  0  0  0  0  0  0  0  0  0  0
    0.3858   18.8911  -27.6424 H   0  0  0  0  0  0  0  0  0  0  0  0
    0.4774   20.3865  -26.5694 H   0  0  0  0  0  0  0  0  0  0  0  0
   -1.4691   18.4219  -26.4496 H   0  0  0  0  0  0  0  0  0  0  0  0
   -1.5568   20.1249  -25.7950 H   0  0  0  0  0  0  0  0  0  0  0  0
   -2.6391   19.1247  -28.4631 H   0  0  0  0  0  0  0  0  0  0  0  0
   -3.5842   19.6645  -27.0342 H   0  0  0  0  0  0  0  0  0  0  0  0
   -8.3399   24.0277  -30.8538 H   0  0  0  0  0  0  0  0  0  0  0  0
   -9.4159   21.9110  -31.6167 H   0  0  0  0  0  0  0  0  0  0  0  0
   -7.5272   16.7059  -32.3294 H   0  0  0  0  0  0  0  0  0  0  0  0
   -6.3531   16.6982  -33.7494 H   0  0  0  0  0  0  0  0  0  0  0  0
   -5.9015   18.0110  -31.0535 H   0  0  0  0  0  0  0  0  0  0  0  0
   -5.1768   16.4393  -31.6998 H   0  0  0  0  0  0  0  0  0  0  0  0
   -4.4370   19.2744  -32.2539 H   0  0  0  0  0  0  0  0  0  0  0  0
   -3.4382   17.7335  -32.0871 H   0  0  0  0  0  0  0  0  0  0  0  0
   -3.2255   18.6298  -34.3129 H   0  0  0  0  0  0  0  0  0  0  0  0
   -4.1586   17.0467  -34.2864 H   0  0  0  0  0  0  0  0  0  0  0  0
   -4.8686   19.4952  -35.5403 H   0  0  0  0  0  0  0  0  0  0  0  0
   -5.8016   17.9136  -35.3801 H   0  0  0  0  0  0  0  0  0  0  0  0
   -5.9309   20.0356  -33.2462 H   0  0  0  0  0  0  0  0  0  0  0  0
   -6.9842   20.0777  -34.7313 H   0  0  0  0  0  0  0  0  0  0  0  0
   -5.5530   19.9500  -31.6148 H   0  0  0  0  0  0  0  0  0  0  0  0
   -4.4860   22.0558  -30.8144 H   0  0  0  0  0  0  0  0  0  0  0  0
  1  2  2  0
  2  3  2  0
  2  4  1  0
  4  5  1  0
  5  6  2  0
  6  7  1  0
  7  8  2  0
  8  9  1  0
  9 10  2  0
 10 11  1  0
  8 12  1  0
 12 13  1  0
 13 14  1  0
 14 15  1  0
  2 16  1  0
 16 17  2  0
 17 18  1  0
 18 19  2  0
 19 20  1  0
 20 21  2  0
 20 22  2  0
 20 23  1  0
 23 24  1  0
 24 25  1  0
 25 26  1  0
 26 27  1  0
 27 28  1  0
 28 29  1  0
 19 30  1  0
 30 31  2  0
 10  5  1  0
 31 16  1  0
 15  7  1  0
 29 23  1  0
  6 32  1  0
  9 33  1  0
 11 34  1  0
 12 35  1  0
 12 36  1  0
 13 37  1  0
 13 38  1  0
 14 39  1  0
 14 40  1  0
 15 41  1  0
 15 42  1  0
 17 43  1  0
 18 44  1  0
 24 45  1  0
 24 46  1  0
 25 47  1  0
 25 48  1  0
 26 49  1  0
 26 50  1  0
 27 51  1  0
 27 52  1  0
 28 53  1  0
 28 54  1  0
 29 55  1  0
 29 56  1  0
 30 57  1  0
 31 58  1  0
M  CHG  1   4  -1
M  END
>  <UniqueID>  (40) 
39

>  <SMILES>  (40) 
O=S(=O)([N-]c1cc2c(cc1O)CCCC2)c1ccc(S(=O)(=O)N2CCCCCC2)cc1

>  <Energy>  (40) 
79.65738117021176

>  <Genealogy>  (40) 
O=S(=O)([N-]c1cc2c(cc1O)CCCC2)c1ccc(S(=O)(=O)N2CCCCCC2)cc1 (protonated)
O=S(=O)([N-]c1cc2c(cc1O)CCCC2)c1ccc(S(=O)(=O)N2CCCCCC2)cc1 (3D coordinates assigned)
O=S(=O)([N-]c1cc2c(cc1O)CCCC2)c1ccc(S(=O)(=O)N2CCCCCC2)cc1 (nonaromatic ring conformer: 79.65738117021176 kcal/mol)

>  <smiles>  (40) 
O=S(=O)(Nc1cc2c(cc1O)CCCC2)c1ccc(S(=O)(=O)N2CCCCCC2)cc1

>  <score_type>  (40) 
oracle

>  <origin>  (40) 
adgpu

>  <m_score__min__energy>  (40) 
-10.92

>  <m_primary>  (40) 
energy

$$$$
40:0
     RDKit          3D

 59 63  0  0  0  0  0  0  0  0999 V2000
    0.5085   25.9127  -24.2848 H   0  0  0  0  0  0  0  0  0  0  0  0
    0.7170   25.4030  -25.2370 C   0  0  0  0  0  0  0  0  0  0  0  0
   -0.3360   25.0570  -26.0880 C   0  0  0  0  0  0  0  0  0  0  0  0
   -1.3704   25.3081  -25.8104 H   0  0  0  0  0  0  0  0  0  0  0  0
   -0.0780   24.3900  -27.2960 C   0  0  0  0  0  0  0  0  0  0  0  0
   -1.1810   24.0460  -28.2180 C   0  0  0  0  0  0  0  0  0  0  0  0
   -1.7420   25.0520  -28.9290 N   0  0  0  0  0  0  0  0  0  0  0  0
   -2.7480   24.8540  -29.7770 N   0  0  0  0  0  0  0  0  0  0  0  0
   -3.1010   25.6750  -30.3200 H   0  0  0  0  0  0  0  0  0  0  0  0
   -3.2580   23.6160  -30.0220 C   0  0  0  0  0  0  0  0  0  0  0  0
   -4.0990   23.5090  -31.0210 N   0  0  0  0  0  0  0  0  0  0  0  0
   -4.5480   22.3500  -31.7360 C   0  0  0  0  0  0  0  0  0  0  0  0
   -5.8930   21.9470  -31.6860 C   0  0  0  0  0  0  0  0  0  0  0  0
   -6.6255   22.5511  -31.1305 H   0  0  0  0  0  0  0  0  0  0  0  0
   -6.3040   20.7820  -32.3390 C   0  0  0  0  0  0  0  0  0  0  0  0
   -7.3624   20.4834  -32.3148 H   0  0  0  0  0  0  0  0  0  0  0  0
   -5.3700   19.9930  -33.0250 C   0  0  0  0  0  0  0  0  0  0  0  0
   -5.8640   18.5140  -33.8420 S   0  0  0  0  0  0  0  0  0  0  0  0
   -7.1620   18.0150  -33.2680 O   0  0  0  0  0  0  0  0  0  0  0  0
   -6.0570   18.8060  -35.3030 O   0  0  0  0  0  0  0  0  0  0  0  0
   -4.6170   17.3080  -33.6460 N   0  0  0  0  0  0  0  0  0  0  0  0
   -5.1620   16.0640  -33.1020 C   0  0  0  0  0  0  0  0  0  0  0  0
   -5.1537   16.0951  -32.0025 H   0  0  0  0  0  0  0  0  0  0  0  0
   -6.2031   15.9135  -33.4236 H   0  0  0  0  0  0  0  0  0  0  0  0
   -4.2660   14.9400  -33.6020 C   0  0  0  0  0  0  0  0  0  0  0  0
   -3.5739   14.6185  -32.8098 H   0  0  0  0  0  0  0  0  0  0  0  0
   -4.8478   14.0544  -33.8973 H   0  0  0  0  0  0  0  0  0  0  0  0
   -3.4960   15.5270  -34.7750 C   0  0  0  0  0  0  0  0  0  0  0  0
   -2.4170   15.5368  -34.5614 H   0  0  0  0  0  0  0  0  0  0  0  0
   -3.6334   14.9362  -35.6926 H   0  0  0  0  0  0  0  0  0  0  0  0
   -4.0210   16.9450  -34.9300 C   0  0  0  0  0  0  0  0  0  0  0  0
   -3.1966   17.6311  -35.1741 H   0  0  0  0  0  0  0  0  0  0  0  0
   -4.7581   17.0102  -35.7439 H   0  0  0  0  0  0  0  0  0  0  0  0
   -4.0220   20.3770  -33.0460 C   0  0  0  0  0  0  0  0  0  0  0  0
   -3.2847   19.7594  -33.5798 H   0  0  0  0  0  0  0  0  0  0  0  0
   -3.6110   21.5420  -32.3910 C   0  0  0  0  0  0  0  0  0  0  0  0
   -2.5479   21.8245  -32.3904 H   0  0  0  0  0  0  0  0  0  0  0  0
   -2.8110   22.5270  -29.2130 C   0  0  0  0  0  0  0  0  0  0  0  0
   -3.4740   21.2790  -29.1460 C   0  0  0  0  0  0  0  0  0  0  0  0
   -4.4176   21.1362  -29.6930 H   0  0  0  0  0  0  0  0  0  0  0  0
   -2.9480   20.2270  -28.3960 C   0  0  0  0  0  0  0  0  0  0  0  0
   -3.4614   19.2543  -28.3806 H   0  0  0  0  0  0  0  0  0  0  0  0
   -1.7770   20.4040  -27.6680 C   0  0  0  0  0  0  0  0  0  0  0  0
   -1.3358   19.5569  -27.1223 H   0  0  0  0  0  0  0  0  0  0  0  0
   -1.1620   21.6530  -27.6290 C   0  0  0  0  0  0  0  0  0  0  0  0
   -0.2470   21.7920  -27.0345 H   0  0  0  0  0  0  0  0  0  0  0  0
   -1.7030   22.7420  -28.3460 C   0  0  0  0  0  0  0  0  0  0  0  0
    1.2480   24.1100  -27.6600 C   0  0  0  0  0  0  0  0  0  0  0  0
    1.4591   23.6097  -28.6166 H   0  0  0  0  0  0  0  0  0  0  0  0
    2.3050   24.4650  -26.8100 C   0  0  0  0  0  0  0  0  0  0  0  0
    3.9650   24.0800  -27.2550 S   0  0  0  0  0  0  0  0  0  0  0  0
    4.8630   24.2380  -26.0590 O   0  0  0  0  0  0  0  0  0  0  0  0
    4.0460   22.6570  -27.7340 O   0  0  0  0  0  0  0  0  0  0  0  0
    4.4980   25.1760  -28.5490 C   0  0  0  0  0  0  0  0  0  0  0  0
    4.9381   26.0810  -28.1049 H   0  0  0  0  0  0  0  0  0  0  0  0
    5.2506   24.6698  -29.1714 H   0  0  0  0  0  0  0  0  0  0  0  0
    3.6352   25.4554  -29.1714 H   0  0  0  0  0  0  0  0  0  0  0  0
    2.0330   25.1030  -25.5930 C   0  0  0  0  0  0  0  0  0  0  0  0
    2.8585   25.3683  -24.9161 H   0  0  0  0  0  0  0  0  0  0  0  0
  1  2  1  0
  2  3  2  0
  3  4  1  0
  3  5  1  0
  5  6  1  0
  6  7  2  0
  7  8  1  0
  8  9  1  0
  8 10  1  0
 10 11  2  0
 11 12  1  0
 12 13  2  0
 13 14  1  0
 13 15  1  0
 15 16  1  0
 15 17  2  0
 17 18  1  0
 18 19  2  0
 18 20  2  0
 18 21  1  0
 21 22  1  0
 22 23  1  0
 22 24  1  0
 22 25  1  0
 25 26  1  0
 25 27  1  0
 25 28  1  0
 28 29  1  0
 28 30  1  0
 28 31  1  0
 31 32  1  0
 31 33  1  0
 17 34  1  0
 34 35  1  0
 34 36  2  0
 36 37  1  0
 10 38  1  0
 38 39  2  0
 39 40  1  0
 39 41  1  0
 41 42  1  0
 41 43  2  0
 43 44  1  0
 43 45  1  0
 45 46  1  0
 45 47  2  0
  5 48  2  0
 48 49  1  0
 48 50  1  0
 50 51  1  0
 51 52  2  0
 51 53  2  0
 51 54  1  0
 54 55  1  0
 54 56  1  0
 54 57  1  0
 50 58  2  0
 58 59  1  0
 58  2  1  0
 47  6  1  0
 36 12  1  0
 47 38  1  0
 31 21  1  0
M  END
>  <UniqueID>  (41) 
40

>  <SMILES>  (41) 
CS(=O)(=O)c1cccc(-c2n[nH]/c(=N/c3ccc(S(=O)(=O)N4CCCC4)cc3)c3ccccc23)c1

>  <Energy>  (41) 
95.03775724323161

>  <Genealogy>  (41) 
CS(=O)(=O)c1cccc(-c2n[nH]/c(=N/c3ccc(S(=O)(=O)N4CCCC4)cc3)c3ccccc23)c1 (cis-trans isomerization)
CS(=O)(=O)c1cccc(-c2n[nH]/c(=N/c3ccc(S(=O)(=O)N4CCCC4)cc3)c3ccccc23)c1 (3D coordinates assigned)
CS(=O)(=O)c1cccc(-c2n[nH]/c(=N/c3ccc(S(=O)(=O)N4CCCC4)cc3)c3ccccc23)c1 (nonaromatic ring conformer: 95.03775724323161 kcal/mol)

>  <smiles>  (41) 
CS(=O)(=O)c1cccc(-c2n[nH]c(=Nc3ccc(S(=O)(=O)N4CCCC4)cc3)c3ccccc23)c1

>  <score_type>  (41) 
oracle

>  <origin>  (41) 
adgpu

>  <m_score__min__energy>  (41) 
-10.75

>  <m_primary>  (41) 
energy

$$$$
41:0
     RDKit          3D

 41 42  0  0  0  0  0  0  0  0999 V2000
   -2.8940   19.8130  -27.4680 C   0  0  0  0  0  0  0  0  0  0  0  0
   -3.2000   20.7210  -28.5220 O   0  0  0  0  0  0  0  0  0  0  0  0
   -2.7680   22.0540  -28.5700 C   0  0  0  0  0  0  0  0  0  0  0  0
   -1.7240   22.5380  -27.7620 C   0  0  0  0  0  0  0  0  0  0  0  0
   -1.3190   23.8710  -27.8580 C   0  0  0  0  0  0  0  0  0  0  0  0
   -1.9520   24.7500  -28.7580 C   0  0  0  0  0  0  0  0  0  0  0  0
   -1.5160   26.0740  -28.9170 O   0  0  0  0  0  0  0  0  0  0  0  0
   -0.8640   26.8410  -27.9080 C   0  0  0  0  0  0  0  0  0  0  0  0
   -3.0290   24.2750  -29.5370 C   0  0  0  0  0  0  0  0  0  0  0  0
   -3.7270   25.1120  -30.4710 N   0  0  0  0  0  0  0  0  0  0  0  0
   -5.1500   25.2340  -30.5990 C   0  0  0  0  0  0  0  0  0  0  0  0
   -5.8010   25.9880  -29.8270 O   0  0  0  0  0  0  0  0  0  0  0  0
   -5.8830   24.3650  -31.5720 C   0  0  0  0  0  0  0  0  0  0  0  0
   -6.8580   23.0820  -30.7100 S   0  0  0  0  0  0  0  0  0  0  0  0
   -6.3170   21.7340  -31.7690 C   0  0  0  0  0  0  0  0  0  0  0  0
   -4.7980   21.7920  -32.3820 S   0  0  0  0  0  0  0  0  0  0  0  0
   -7.1670   20.5930  -32.0000 N   0  0  0  0  0  0  0  0  0  0  0  0
   -6.8090   19.4720  -32.8540 C   0  0  0  0  0  0  0  0  0  0  0  0
   -7.9200   18.4460  -32.6770 C   0  0  0  0  0  0  0  0  0  0  0  0
   -9.0830   19.1920  -32.0310 C   0  0  0  0  0  0  0  0  0  0  0  0
   -8.4790   20.4380  -31.3960 C   0  0  0  0  0  0  0  0  0  0  0  0
   -3.4040   22.9280  -29.4560 C   0  0  0  0  0  0  0  0  0  0  0  0
   -3.0603   20.3065  -26.4991 H   0  0  0  0  0  0  0  0  0  0  0  0
   -3.5438   18.9288  -27.5455 H   0  0  0  0  0  0  0  0  0  0  0  0
   -1.8416   19.5025  -27.5455 H   0  0  0  0  0  0  0  0  0  0  0  0
   -1.2241   21.8637  -27.0511 H   0  0  0  0  0  0  0  0  0  0  0  0
   -0.4978   24.2379  -27.2247 H   0  0  0  0  0  0  0  0  0  0  0  0
   -1.1718   26.4789  -26.9159 H   0  0  0  0  0  0  0  0  0  0  0  0
    0.2258   26.7363  -28.0147 H   0  0  0  0  0  0  0  0  0  0  0  0
   -1.1428   27.8997  -28.0147 H   0  0  0  0  0  0  0  0  0  0  0  0
   -6.5623   24.9902  -32.1701 H   0  0  0  0  0  0  0  0  0  0  0  0
   -5.1450   23.8661  -32.2173 H   0  0  0  0  0  0  0  0  0  0  0  0
   -6.7485   19.7941  -33.9040 H   0  0  0  0  0  0  0  0  0  0  0  0
   -5.8265   19.0560  -32.5862 H   0  0  0  0  0  0  0  0  0  0  0  0
   -8.2225   18.0382  -33.6528 H   0  0  0  0  0  0  0  0  0  0  0  0
   -7.5909   17.5990  -32.0571 H   0  0  0  0  0  0  0  0  0  0  0  0
   -9.8271   19.4723  -32.7911 H   0  0  0  0  0  0  0  0  0  0  0  0
   -9.5985   18.5685  -31.2857 H   0  0  0  0  0  0  0  0  0  0  0  0
   -9.1046   21.3176  -31.6078 H   0  0  0  0  0  0  0  0  0  0  0  0
   -8.4128   20.3436  -30.3021 H   0  0  0  0  0  0  0  0  0  0  0  0
   -4.2123   22.5518  -30.1003 H   0  0  0  0  0  0  0  0  0  0  0  0
  1  2  1  0
  2  3  1  0
  3  4  2  0
  4  5  1  0
  5  6  2  0
  6  7  1  0
  7  8  1  0
  6  9  1  0
  9 10  1  0
 10 11  1  0
 11 12  2  0
 11 13  1  0
 13 14  1  0
 14 15  1  0
 15 16  2  0
 15 17  1  0
 17 18  1  0
 18 19  1  0
 19 20  1  0
 20 21  1  0
  9 22  2  0
 22  3  1  0
 21 17  1  0
  1 23  1  0
  1 24  1  0
  1 25  1  0
  4 26  1  0
  5 27  1  0
  8 28  1  0
  8 29  1  0
  8 30  1  0
 13 31  1  0
 13 32  1  0
 18 33  1  0
 18 34  1  0
 19 35  1  0
 19 36  1  0
 20 37  1  0
 20 38  1  0
 21 39  1  0
 21 40  1  0
 22 41  1  0
M  CHG  1  10  -1
M  END
>  <UniqueID>  (42) 
41

>  <SMILES>  (42) 
COc1ccc(OC)c([N-]C(=O)CSC(=S)N2CCCC2)c1

>  <Energy>  (42) 
37.90706202308833

>  <Genealogy>  (42) 
COc1ccc(OC)c([N-]C(=O)CSC(=S)N2CCCC2)c1 (protonated)
COc1ccc(OC)c([N-]C(=O)CSC(=S)N2CCCC2)c1 (3D coordinates assigned)
COc1ccc(OC)c([N-]C(=O)CSC(=S)N2CCCC2)c1 (nonaromatic ring conformer: 37.90706202308833 kcal/mol)

>  <smiles>  (42) 
COc1ccc(OC)c(NC(=O)CSC(=S)N2CCCC2)c1

>  <score_type>  (42) 
oracle

>  <origin>  (42) 
adgpu

>  <m_score__min__energy>  (42) 
-10.050000000000001

>  <m_primary>  (42) 
energy

$$$$
42:0
     RDKit          3D

 45 47  0  0  0  0  0  0  0  0999 V2000
   -3.8160   24.2200  -27.4060 C   0  0  0  0  0  0  0  0  0  0  0  0
   -3.9980   23.3760  -28.5370 O   0  0  0  0  0  0  0  0  0  0  0  0
   -4.9510   23.5950  -29.5440 C   0  0  0  0  0  0  0  0  0  0  0  0
   -6.1570   22.8700  -29.6060 C   0  0  0  0  0  0  0  0  0  0  0  0
   -7.0620   23.0760  -30.6630 C   0  0  0  0  0  0  0  0  0  0  0  0
   -8.3230   22.3060  -30.7640 C   0  0  0  0  0  0  0  0  0  0  0  0
   -8.4180   21.1070  -31.2690 N   0  0  0  0  0  0  0  0  0  0  0  0
   -7.3960   20.3600  -31.9520 C   0  0  0  0  0  0  0  0  0  0  0  0
   -6.1340   20.9180  -32.2150 C   0  0  0  0  0  0  0  0  0  0  0  0
   -5.1470   20.1690  -32.8670 C   0  0  0  0  0  0  0  0  0  0  0  0
   -3.5420   20.8550  -33.1330 S   0  0  0  0  0  0  0  0  0  0  0  0
   -2.8110   20.0210  -34.1460 O   0  0  0  0  0  0  0  0  0  0  0  0
   -3.6880   22.2440  -33.6920 O   0  0  0  0  0  0  0  0  0  0  0  0
   -2.6110   20.9240  -31.6570 N   0  0  0  0  0  0  0  0  0  0  0  0
   -3.4440   20.5460  -30.5040 C   0  0  0  0  0  0  0  0  0  0  0  0
   -2.6920   20.8070  -29.1810 C   0  0  0  0  0  0  0  0  0  0  0  0
   -1.3300   21.1090  -29.4190 O   0  0  0  0  0  0  0  0  0  0  0  0
   -1.2270   22.3140  -30.1580 C   0  0  0  0  0  0  0  0  0  0  0  0
   -2.0540   22.2700  -31.4610 C   0  0  0  0  0  0  0  0  0  0  0  0
   -5.4390   18.8680  -33.2990 C   0  0  0  0  0  0  0  0  0  0  0  0
   -6.7090   18.3260  -33.0860 C   0  0  0  0  0  0  0  0  0  0  0  0
   -7.6870   19.0690  -32.4180 C   0  0  0  0  0  0  0  0  0  0  0  0
   -8.9460   18.5160  -32.2080 O   0  0  0  0  0  0  0  0  0  0  0  0
   -6.7910   24.0680  -31.6130 C   0  0  0  0  0  0  0  0  0  0  0  0
   -5.6070   24.8050  -31.5440 C   0  0  0  0  0  0  0  0  0  0  0  0
   -4.6870   24.5650  -30.5200 C   0  0  0  0  0  0  0  0  0  0  0  0
   -3.5060   25.2960  -30.4720 O   0  0  0  0  0  0  0  0  0  0  0  0
   -3.9429   23.6317  -26.4853 H   0  0  0  0  0  0  0  0  0  0  0  0
   -2.8043   24.6511  -27.4292 H   0  0  0  0  0  0  0  0  0  0  0  0
   -4.5602   25.0297  -27.4292 H   0  0  0  0  0  0  0  0  0  0  0  0
   -6.3932   22.1364  -28.8211 H   0  0  0  0  0  0  0  0  0  0  0  0
   -9.2427   22.7775  -30.3873 H   0  0  0  0  0  0  0  0  0  0  0  0
   -5.9195   21.9517  -31.9062 H   0  0  0  0  0  0  0  0  0  0  0  0
   -4.3698   21.1399  -30.5168 H   0  0  0  0  0  0  0  0  0  0  0  0
   -3.6787   19.4735  -30.5727 H   0  0  0  0  0  0  0  0  0  0  0  0
   -3.1624   21.6551  -28.6619 H   0  0  0  0  0  0  0  0  0  0  0  0
   -2.7452   19.8978  -28.5642 H   0  0  0  0  0  0  0  0  0  0  0  0
   -1.5911   23.1442  -29.5349 H   0  0  0  0  0  0  0  0  0  0  0  0
   -0.1709   22.4534  -30.4322 H   0  0  0  0  0  0  0  0  0  0  0  0
   -2.8757   22.9984  -31.3958 H   0  0  0  0  0  0  0  0  0  0  0  0
   -1.4020   22.5186  -32.3114 H   0  0  0  0  0  0  0  0  0  0  0  0
   -4.6664   18.2722  -33.8070 H   0  0  0  0  0  0  0  0  0  0  0  0
   -6.9400   17.3121  -33.4448 H   0  0  0  0  0  0  0  0  0  0  0  0
   -7.5141   24.2678  -32.4175 H   0  0  0  0  0  0  0  0  0  0  0  0
   -5.3977   25.5775  -32.2986 H   0  0  0  0  0  0  0  0  0  0  0  0
  1  2  1  0
  2  3  1  0
  3  4  2  0
  4  5  1  0
  5  6  1  0
  6  7  2  3
  7  8  1  0
  8  9  2  0
  9 10  1  0
 10 11  1  0
 11 12  2  0
 11 13  2  0
 11 14  1  0
 14 15  1  0
 15 16  1  0
 16 17  1  0
 17 18  1  0
 18 19  1  0
 10 20  2  0
 20 21  1  0
 21 22  2  0
 22 23  1  0
  5 24  2  0
 24 25  1  0
 25 26  2  0
 26 27  1  0
 26  3  1  0
 22  8  1  0
 19 14  1  0
  1 28  1  0
  1 29  1  0
  1 30  1  0
  4 31  1  0
  6 32  1  0
  9 33  1  0
 15 34  1  0
 15 35  1  0
 16 36  1  0
 16 37  1  0
 18 38  1  0
 18 39  1  0
 19 40  1  0
 19 41  1  0
 20 42  1  0
 21 43  1  0
 24 44  1  0
 25 45  1  0
M  CHG  2  23  -1  27  -1
M  END
>  <UniqueID>  (43) 
42

>  <SMILES>  (43) 
COc1cc(C=Nc2cc(S(=O)(=O)N3CCOCC3)ccc2[O-])ccc1[O-]

>  <Energy>  (43) 
63.01445150127734

>  <Genealogy>  (43) 
COc1cc(C=Nc2cc(S(=O)(=O)N3CCOCC3)ccc2[O-])ccc1[O-] (protonated)
COc1cc(C=Nc2cc(S(=O)(=O)N3CCOCC3)ccc2[O-])ccc1[O-] (3D coordinates assigned)
COc1cc(C=Nc2cc(S(=O)(=O)N3CCOCC3)ccc2[O-])ccc1[O-] (nonaromatic ring conformer: 63.01445150127734 kcal/mol)

>  <smiles>  (43) 
COc1cc(C=Nc2cc(S(=O)(=O)N3CCOCC3)ccc2O)ccc1O

>  <score_type>  (43) 
oracle

>  <origin>  (43) 
adgpu

>  <m_score__min__energy>  (43) 
-11.539999999999999

>  <m_primary>  (43) 
energy

$$$$
43:0
     RDKit          3D

 66 69  0  0  0  0  0  0  0  0999 V2000
   -4.4000   21.1710  -32.7350 C   0  0  0  0  0  0  0  0  0  0  0  0
   -5.5020   20.1740  -32.3830 C   0  0  0  0  0  0  0  0  0  0  0  0
   -6.8420   20.5990  -32.9850 C   0  0  0  0  0  0  0  0  0  0  0  0
   -8.1640   20.5450  -31.7810 S   0  0  0  0  0  0  0  0  0  0  0  0
   -9.4530   20.8220  -32.5020 O   0  0  0  0  0  0  0  0  0  0  0  0
   -8.2680   19.1810  -31.1560 O   0  0  0  0  0  0  0  0  0  0  0  0
   -7.9490   21.7740  -30.5680 N   0  0  0  0  0  0  0  0  0  0  0  0
   -6.8800   22.7410  -30.5120 C   0  0  0  0  0  0  0  0  0  0  0  0
   -7.0120   23.9340  -31.2390 C   0  0  0  0  0  0  0  0  0  0  0  0
   -6.0010   24.8940  -31.2240 C   0  0  0  0  0  0  0  0  0  0  0  0
   -4.8390   24.6850  -30.4800 C   0  0  0  0  0  0  0  0  0  0  0  0
   -3.8570   25.6700  -30.4710 O   0  0  0  0  0  0  0  0  0  0  0  0
   -4.6800   23.4970  -29.7380 C   0  0  0  0  0  0  0  0  0  0  0  0
   -3.4410   23.2460  -28.9610 C   0  0  0  0  0  0  0  0  0  0  0  0
   -3.0220   24.1270  -27.9530 C   0  0  0  0  0  0  0  0  0  0  0  0
   -1.8490   23.8360  -27.2410 C   0  0  0  0  0  0  0  0  0  0  0  0
   -1.3710   24.7050  -26.1900 N   0  0  0  0  0  0  0  0  0  0  0  0
   -0.7030   24.1260  -25.0130 C   0  0  0  0  0  0  0  0  0  0  0  0
    0.3670   25.0860  -24.4860 C   0  0  0  0  0  0  0  0  0  0  0  0
   -0.1910   26.4890  -24.1710 C   0  0  0  0  0  0  0  0  0  0  0  0
   -1.5480   26.7790  -24.8330 C   0  0  0  0  0  0  0  0  0  0  0  0
   -1.6510   26.1530  -26.2280 C   0  0  0  0  0  0  0  0  0  0  0  0
   -1.1470   22.7160  -27.5600 N   0  0  0  0  0  0  0  0  0  0  0  0
   -1.5510   21.8670  -28.5440 C   0  0  0  0  0  0  0  0  0  0  0  0
   -0.7810   20.6840  -28.8510 N   0  0  0  0  0  0  0  0  0  0  0  0
   -0.2270   20.4970  -30.1990 C   0  0  0  0  0  0  0  0  0  0  0  0
   -0.1520   19.0040  -30.5510 C   0  0  0  0  0  0  0  0  0  0  0  0
    0.4990   18.2020  -29.4970 N   0  0  0  0  0  0  0  0  0  0  0  0
    1.9550   18.4130  -29.4410 C   0  0  0  0  0  0  0  0  0  0  0  0
   -0.1530   18.3880  -28.1860 C   0  0  0  0  0  0  0  0  0  0  0  0
   -0.2320   19.8620  -27.7650 C   0  0  0  0  0  0  0  0  0  0  0  0
   -2.6940   22.1430  -29.2280 N   0  0  0  0  0  0  0  0  0  0  0  0
   -5.7060   22.5330  -29.7640 C   0  0  0  0  0  0  0  0  0  0  0  0
   -3.9582   21.5707  -31.8103 H   0  0  0  0  0  0  0  0  0  0  0  0
   -3.6215   20.6642  -33.3241 H   0  0  0  0  0  0  0  0  0  0  0  0
   -4.8266   21.9962  -33.3241 H   0  0  0  0  0  0  0  0  0  0  0  0
   -5.2294   19.1836  -32.7764 H   0  0  0  0  0  0  0  0  0  0  0  0
   -5.6058   20.1402  -31.2884 H   0  0  0  0  0  0  0  0  0  0  0  0
   -6.7503   21.6268  -33.3660 H   0  0  0  0  0  0  0  0  0  0  0  0
   -7.0897   19.8958  -33.7938 H   0  0  0  0  0  0  0  0  0  0  0  0
   -8.6740   21.7960  -29.8160 H   0  0  0  0  0  0  0  0  0  0  0  0
   -7.9237   24.1139  -31.8276 H   0  0  0  0  0  0  0  0  0  0  0  0
   -6.1201   25.8221  -31.8023 H   0  0  0  0  0  0  0  0  0  0  0  0
   -3.6042   25.0319  -27.7245 H   0  0  0  0  0  0  0  0  0  0  0  0
   -1.4485   23.9449  -24.2247 H   0  0  0  0  0  0  0  0  0  0  0  0
   -0.2241   23.1789  -25.3022 H   0  0  0  0  0  0  0  0  0  0  0  0
    0.7954   24.6634  -23.5652 H   0  0  0  0  0  0  0  0  0  0  0  0
    1.1257   25.2008  -25.2741 H   0  0  0  0  0  0  0  0  0  0  0  0
   -0.3105   26.5783  -23.0812 H   0  0  0  0  0  0  0  0  0  0  0  0
    0.5261   27.2179  -24.5765 H   0  0  0  0  0  0  0  0  0  0  0  0
   -2.3475   26.3679  -24.1992 H   0  0  0  0  0  0  0  0  0  0  0  0
   -1.6474   27.8691  -24.9413 H   0  0  0  0  0  0  0  0  0  0  0  0
   -2.6677   26.3109  -26.6170 H   0  0  0  0  0  0  0  0  0  0  0  0
   -0.9053   26.6329  -26.8788 H   0  0  0  0  0  0  0  0  0  0  0  0
   -0.8718   21.0084  -30.9289 H   0  0  0  0  0  0  0  0  0  0  0  0
    0.7885   20.9190  -30.2264 H   0  0  0  0  0  0  0  0  0  0  0  0
   -1.1742   18.6259  -30.7000 H   0  0  0  0  0  0  0  0  0  0  0  0
    0.4545   18.9080  -31.4636 H   0  0  0  0  0  0  0  0  0  0  0  0
    2.2786   18.4599  -28.3907 H   0  0  0  0  0  0  0  0  0  0  0  0
    2.4659   17.5795  -29.9452 H   0  0  0  0  0  0  0  0  0  0  0  0
    2.2083   19.3572  -29.9452 H   0  0  0  0  0  0  0  0  0  0  0  0
   -1.1742   17.9829  -28.2407 H   0  0  0  0  0  0  0  0  0  0  0  0
    0.4552   17.8614  -27.4358 H   0  0  0  0  0  0  0  0  0  0  0  0
   -0.8813   19.9508  -26.8815 H   0  0  0  0  0  0  0  0  0  0  0  0
    0.7823   20.2175  -27.5309 H   0  0  0  0  0  0  0  0  0  0  0  0
   -5.5881   21.6019  -29.1902 H   0  0  0  0  0  0  0  0  0  0  0  0
  1  2  1  0
  2  3  1  0
  3  4  1  0
  4  5  2  0
  4  6  2  0
  4  7  1  0
  7  8  1  0
  8  9  2  0
  9 10  1  0
 10 11  2  0
 11 12  1  0
 11 13  1  0
 13 14  1  0
 14 15  2  0
 15 16  1  0
 16 17  1  0
 17 18  1  0
 18 19  1  0
 19 20  1  0
 20 21  1  0
 21 22  1  0
 16 23  2  0
 23 24  1  0
 24 25  1  0
 25 26  1  0
 26 27  1  0
 27 28  1  0
 28 29  1  0
 28 30  1  0
 30 31  1  0
 24 32  2  0
 13 33  2  0
 33  8  1  0
 32 14  1  0
 22 17  1  0
 31 25  1  0
  1 34  1  0
  1 35  1  0
  1 36  1  0
  2 37  1  0
  2 38  1  0
  3 39  1  0
  3 40  1  0
  7 41  1  0
  9 42  1  0
 10 43  1  0
 15 44  1  0
 18 45  1  0
 18 46  1  0
 19 47  1  0
 19 48  1  0
 20 49  1  0
 20 50  1  0
 21 51  1  0
 21 52  1  0
 22 53  1  0
 22 54  1  0
 26 55  1  0
 26 56  1  0
 27 57  1  0
 27 58  1  0
 29 59  1  0
 29 60  1  0
 29 61  1  0
 30 62  1  0
 30 63  1  0
 31 64  1  0
 31 65  1  0
 33 66  1  0
M  CHG  1  12  -1
M  END
>  <UniqueID>  (44) 
43

>  <SMILES>  (44) 
CCCS(=O)(=O)Nc1ccc([O-])c(-c2cc(N3CCCCC3)nc(N3CCN(C)CC3)n2)c1

>  <Energy>  (44) 
73.57088487754788

>  <Genealogy>  (44) 
CCCS(=O)(=O)Nc1ccc([O-])c(-c2cc(N3CCCCC3)nc(N3CCN(C)CC3)n2)c1 (protonated)
CCCS(=O)(=O)Nc1ccc([O-])c(-c2cc(N3CCCCC3)nc(N3CCN(C)CC3)n2)c1 (3D coordinates assigned)
CCCS(=O)(=O)Nc1ccc([O-])c(-c2cc(N3CCCCC3)nc(N3CCN(C)CC3)n2)c1 (nonaromatic ring conformer: 73.57088487754788 kcal/mol)

>  <smiles>  (44) 
CCCS(=O)(=O)Nc1ccc(O)c(-c2cc(N3CCCCC3)nc(N3CCN(C)CC3)n2)c1

>  <score_type>  (44) 
oracle

>  <origin>  (44) 
adgpu

>  <m_score__min__energy>  (44) 
-12.619999999999999

>  <m_primary>  (44) 
energy

$$$$
44:0
     RDKit          3D

 58 61  0  0  0  0  0  0  0  0999 V2000
   -7.2090   18.0930  -32.5740 O   0  0  0  0  0  0  0  0  0  0  0  0
   -6.4780   18.9860  -33.0780 C   0  0  0  0  0  0  0  0  0  0  0  0
   -6.9660   20.3350  -33.1170 N   0  0  0  0  0  0  0  0  0  0  0  0
   -6.8910   21.2950  -32.0530 C   0  0  0  0  0  0  0  0  0  0  0  0
   -8.0010   21.4690  -31.2180 C   0  0  0  0  0  0  0  0  0  0  0  0
   -7.9620   22.3970  -30.1730 C   0  0  0  0  0  0  0  0  0  0  0  0
   -6.8130   23.1660  -29.9630 C   0  0  0  0  0  0  0  0  0  0  0  0
   -5.7060   23.0210  -30.8070 C   0  0  0  0  0  0  0  0  0  0  0  0
   -4.2700   24.0080  -30.5460 S   0  0  0  0  0  0  0  0  0  0  0  0
   -3.1150   23.3780  -31.2710 O   0  0  0  0  0  0  0  0  0  0  0  0
   -4.4720   25.4000  -31.0750 O   0  0  0  0  0  0  0  0  0  0  0  0
   -3.9010   24.0910  -28.8550 N   0  0  0  0  0  0  0  0  0  0  0  0
   -2.6410   23.7420  -28.2590 C   0  0  0  0  0  0  0  0  0  0  0  0
   -2.4980   22.6200  -27.4200 C   0  0  0  0  0  0  0  0  0  0  0  0
   -1.2520   22.3060  -26.8700 C   0  0  0  0  0  0  0  0  0  0  0  0
   -0.1430   23.1100  -27.1420 C   0  0  0  0  0  0  0  0  0  0  0  0
   -0.2790   24.2310  -27.9670 C   0  0  0  0  0  0  0  0  0  0  0  0
   -1.5220   24.5460  -28.5250 C   0  0  0  0  0  0  0  0  0  0  0  0
   -1.6430   25.6650  -29.3440 O   0  0  0  0  0  0  0  0  0  0  0  0
   -5.7510   22.0970  -31.8600 C   0  0  0  0  0  0  0  0  0  0  0  0
   -5.1090   18.6430  -33.5190 C   0  0  0  0  0  0  0  0  0  0  0  0
   -4.1080   19.6270  -33.4470 C   0  0  0  0  0  0  0  0  0  0  0  0
   -2.7940   19.3460  -33.8400 C   0  0  0  0  0  0  0  0  0  0  0  0
   -1.5410   20.5800  -33.7000 S   0  0  0  0  0  0  0  0  0  0  0  0
   -0.7190   20.5980  -34.9590 O   0  0  0  0  0  0  0  0  0  0  0  0
   -2.1880   21.9280  -33.5470 O   0  0  0  0  0  0  0  0  0  0  0  0
   -0.5010   20.2810  -32.3250 N   0  0  0  0  0  0  0  0  0  0  0  0
   -0.7850   18.9490  -31.7460 C   0  0  0  0  0  0  0  0  0  0  0  0
   -0.2320   18.8290  -30.3230 C   0  0  0  0  0  0  0  0  0  0  0  0
   -0.8950   19.8510  -29.3820 C   0  0  0  0  0  0  0  0  0  0  0  0
   -1.4090   21.0950  -30.1240 C   0  0  0  0  0  0  0  0  0  0  0  0
   -0.5440   21.4030  -31.3550 C   0  0  0  0  0  0  0  0  0  0  0  0
   -2.4790   18.0700  -34.3210 C   0  0  0  0  0  0  0  0  0  0  0  0
   -3.4630   17.0830  -34.3980 C   0  0  0  0  0  0  0  0  0  0  0  0
   -4.7780   17.3570  -34.0080 C   0  0  0  0  0  0  0  0  0  0  0  0
   -5.7310   16.3440  -34.1490 O   0  0  0  0  0  0  0  0  0  0  0  0
   -8.9096   20.8719  -31.3851 H   0  0  0  0  0  0  0  0  0  0  0  0
   -8.8352   22.5223  -29.5159 H   0  0  0  0  0  0  0  0  0  0  0  0
   -6.7792   23.8865  -29.1325 H   0  0  0  0  0  0  0  0  0  0  0  0
   -3.3703   21.9882  -27.1966 H   0  0  0  0  0  0  0  0  0  0  0  0
   -1.1447   21.4239  -26.2216 H   0  0  0  0  0  0  0  0  0  0  0  0
    0.8367   22.8618  -26.7077 H   0  0  0  0  0  0  0  0  0  0  0  0
    0.5938   24.8665  -28.1775 H   0  0  0  0  0  0  0  0  0  0  0  0
   -4.8910   21.9983  -32.5388 H   0  0  0  0  0  0  0  0  0  0  0  0
   -4.3605   20.6316  -33.0768 H   0  0  0  0  0  0  0  0  0  0  0  0
   -1.8738   18.7943  -31.7211 H   0  0  0  0  0  0  0  0  0  0  0  0
   -0.2969   18.1879  -32.3725 H   0  0  0  0  0  0  0  0  0  0  0  0
   -0.4275   17.8142  -29.9461 H   0  0  0  0  0  0  0  0  0  0  0  0
    0.8491   19.0300  -30.3505 H   0  0  0  0  0  0  0  0  0  0  0  0
   -1.7441   19.3661  -28.8781 H   0  0  0  0  0  0  0  0  0  0  0  0
   -0.1318   20.1847  -28.6636 H   0  0  0  0  0  0  0  0  0  0  0  0
   -2.4448   20.9170  -30.4485 H   0  0  0  0  0  0  0  0  0  0  0  0
   -1.3599   21.9546  -29.4393 H   0  0  0  0  0  0  0  0  0  0  0  0
   -0.9558   22.2888  -31.8608 H   0  0  0  0  0  0  0  0  0  0  0  0
    0.4837   21.5743  -31.0022 H   0  0  0  0  0  0  0  0  0  0  0  0
   -1.4508   17.8438  -34.6400 H   0  0  0  0  0  0  0  0  0  0  0  0
   -3.2020   16.0808  -34.7687 H   0  0  0  0  0  0  0  0  0  0  0  0
   -6.6530   16.3870  -33.7350 H   0  0  0  0  0  0  0  0  0  0  0  0
  1  2  2  0
  2  3  1  0
  3  4  1  0
  4  5  2  0
  5  6  1  0
  6  7  2  0
  7  8  1  0
  8  9  1  0
  9 10  2  0
  9 11  2  0
  9 12  1  0
 12 13  1  0
 13 14  2  0
 14 15  1  0
 15 16  2  0
 16 17  1  0
 17 18  2  0
 18 19  1  0
  8 20  2  0
  2 21  1  0
 21 22  2  0
 22 23  1  0
 23 24  1  0
 24 25  2  0
 24 26  2  0
 24 27  1  0
 27 28  1  0
 28 29  1  0
 29 30  1  0
 30 31  1  0
 31 32  1  0
 23 33  2  0
 33 34  1  0
 34 35  2  0
 35 36  1  0
 20  4  1  0
 35 21  1  0
 18 13  1  0
 32 27  1  0
  5 37  1  0
  6 38  1  0
  7 39  1  0
 14 40  1  0
 15 41  1  0
 16 42  1  0
 17 43  1  0
 20 44  1  0
 22 45  1  0
 28 46  1  0
 28 47  1  0
 29 48  1  0
 29 49  1  0
 30 50  1  0
 30 51  1  0
 31 52  1  0
 31 53  1  0
 32 54  1  0
 32 55  1  0
 33 56  1  0
 34 57  1  0
 36 58  1  0
M  CHG  3   3  -1  12  -1  19  -1
M  END
>  <UniqueID>  (45) 
44

>  <SMILES>  (45) 
O=C([N-]c1cccc(S(=O)(=O)[N-]c2ccccc2[O-])c1)c1cc(S(=O)(=O)N2CCCCC2)ccc1O

>  <Energy>  (45) 
77.63356484537391

>  <Genealogy>  (45) 
O=C([N-]c1cccc(S(=O)(=O)[N-]c2ccccc2[O-])c1)c1cc(S(=O)(=O)N2CCCCC2)ccc1O (protonated)
O=C([N-]c1cccc(S(=O)(=O)[N-]c2ccccc2[O-])c1)c1cc(S(=O)(=O)N2CCCCC2)ccc1O (3D coordinates assigned)
O=C([N-]c1cccc(S(=O)(=O)[N-]c2ccccc2[O-])c1)c1cc(S(=O)(=O)N2CCCCC2)ccc1O (nonaromatic ring conformer: 77.63356484537391 kcal/mol)

>  <smiles>  (45) 
O=C(Nc1cccc(S(=O)(=O)Nc2ccccc2O)c1)c1cc(S(=O)(=O)N2CCCCC2)ccc1O

>  <score_type>  (45) 
oracle

>  <origin>  (45) 
adgpu

>  <m_score__min__energy>  (45) 
-14.9

>  <m_primary>  (45) 
energy

$$$$
45:0
     RDKit          3D

 35 37  0  0  0  0  0  0  0  0999 V2000
   -7.6710   24.7730  -31.0210 H   0  0  0  0  0  0  0  0  0  0  0  0
   -7.7030   23.8330  -31.4740 N   0  0  0  0  0  0  0  0  0  0  0  0
   -6.6580   23.0790  -31.6110 C   0  0  0  0  0  0  0  0  0  0  0  0
   -6.7750   21.8610  -32.2140 N   0  0  0  0  0  0  0  0  0  0  0  0
   -5.7050   21.0200  -32.3950 C   0  0  0  0  0  0  0  0  0  0  0  0
   -5.9090   19.7060  -33.0410 C   0  0  0  0  0  0  0  0  0  0  0  0
   -4.9020   19.2270  -33.8980 C   0  0  0  0  0  0  0  0  0  0  0  0
   -4.0274   19.8580  -34.1148 H   0  0  0  0  0  0  0  0  0  0  0  0
   -4.9990   17.9620  -34.4760 C   0  0  0  0  0  0  0  0  0  0  0  0
   -4.2068   17.6028  -35.1493 H   0  0  0  0  0  0  0  0  0  0  0  0
   -6.0990   17.1530  -34.2010 C   0  0  0  0  0  0  0  0  0  0  0  0
   -6.1658   16.1484  -34.6440 H   0  0  0  0  0  0  0  0  0  0  0  0
   -7.1160   17.6140  -33.3650 C   0  0  0  0  0  0  0  0  0  0  0  0
   -7.9756   16.9631  -33.1474 H   0  0  0  0  0  0  0  0  0  0  0  0
   -7.0580   18.9040  -32.7940 C   0  0  0  0  0  0  0  0  0  0  0  0
   -8.2210   19.3920  -31.9330 C   0  0  0  0  0  0  0  0  0  0  0  0
   -7.7966   19.9832  -31.1082 H   0  0  0  0  0  0  0  0  0  0  0  0
   -8.9860   18.2090  -31.3340 C   0  0  0  0  0  0  0  0  0  0  0  0
   -8.9489   18.2664  -30.2361 H   0  0  0  0  0  0  0  0  0  0  0  0
  -10.0336   18.2430  -31.6677 H   0  0  0  0  0  0  0  0  0  0  0  0
   -8.5252   17.2676  -31.6677 H   0  0  0  0  0  0  0  0  0  0  0  0
   -9.1630   20.3180  -32.7170 C   0  0  0  0  0  0  0  0  0  0  0  0
   -9.7653   20.9101  -32.0123 H   0  0  0  0  0  0  0  0  0  0  0  0
   -8.5695   20.9940  -33.3501 H   0  0  0  0  0  0  0  0  0  0  0  0
   -9.8287   19.7130  -33.3501 H   0  0  0  0  0  0  0  0  0  0  0  0
   -4.4280   21.3990  -31.9320 C   0  0  0  0  0  0  0  0  0  0  0  0
   -3.5573   20.7377  -32.0523 H   0  0  0  0  0  0  0  0  0  0  0  0
   -4.3120   22.6420  -31.3170 C   0  0  0  0  0  0  0  0  0  0  0  0
   -5.3930   23.4680  -31.1570 C   0  0  0  0  0  0  0  0  0  0  0  0
   -4.9490   24.6120  -30.5190 C   0  0  0  0  0  0  0  0  0  0  0  0
   -5.5394   25.4931  -30.2271 H   0  0  0  0  0  0  0  0  0  0  0  0
   -3.5910   24.3980  -30.3300 C   0  0  0  0  0  0  0  0  0  0  0  0
   -2.7270   25.2960  -29.7180 O   0  0  0  0  0  0  0  0  0  0  0  0
   -3.1980   23.1990  -30.8140 N   0  0  0  0  0  0  0  0  0  0  0  0
   -2.2340   22.7960  -30.7990 H   0  0  0  0  0  0  0  0  0  0  0  0
  1  2  1  0
  2  3  2  0
  3  4  1  0
  4  5  1  0
  5  6  1  0
  6  7  2  0
  7  8  1  0
  7  9  1  0
  9 10  1  0
  9 11  2  0
 11 12  1  0
 11 13  1  0
 13 14  1  0
 13 15  2  0
 15 16  1  0
 16 17  1  0
 16 18  1  0
 18 19  1  0
 18 20  1  0
 18 21  1  0
 16 22  1  0
 22 23  1  0
 22 24  1  0
 22 25  1  0
  5 26  2  0
 26 27  1  0
 26 28  1  0
 28 29  2  0
 29 30  1  0
 30 31  1  0
 30 32  2  0
 32 33  1  0
 32 34  1  0
 34 35  1  0
 29  3  1  0
 15  6  1  0
 34 28  1  0
M  CHG  2   4  -1  33  -1
M  END
>  <UniqueID>  (46) 
45

>  <SMILES>  (46) 
[H]/N=c1/[n-]c(-c2ccccc2C(C)C)cc2[nH]c([O-])cc12

>  <Energy>  (46) 
77.62291549487945

>  <Genealogy>  (46) 
CC(C)c1ccccc1-c1cc2[nH]c([O-])cc2c(=N)[n-]1 (protonated)
[H]/N=c1/[n-]c(-c2ccccc2C(C)C)cc2[nH]c([O-])cc12 (cis-trans isomerization)
[H]/N=c1/[n-]c(-c2ccccc2C(C)C)cc2[nH]c([O-])cc12 (3D coordinates assigned)
[H]/N=c1/[n-]c(-c2ccccc2C(C)C)cc2[nH]c([O-])cc12 (optimized conformer: 77.62291549487945 kcal/mol)

>  <smiles>  (46) 
CC(C)c1ccccc1-c1cc2[nH]c(O)cc2c(=N)[nH]1

>  <score_type>  (46) 
oracle

>  <origin>  (46) 
adgpu

>  <m_score__min__energy>  (46) 
-11.039999999999999

>  <m_primary>  (46) 
energy

$$$$
46:0
     RDKit          3D

 43 45  0  0  0  0  0  0  0  0999 V2000
   -3.5090   25.2200  -30.4790 N   0  0  0  0  0  0  0  0  0  0  0  0
   -4.7200   24.0360  -30.7990 S   0  0  0  0  0  0  0  0  0  0  0  0
   -5.6710   24.5820  -31.8260 O   0  0  0  0  0  0  0  0  0  0  0  0
   -5.4690   23.7410  -29.5300 O   0  0  0  0  0  0  0  0  0  0  0  0
   -3.9840   22.5640  -31.4120 C   0  0  0  0  0  0  0  0  0  0  0  0
   -3.9930   22.2900  -32.7880 C   0  0  0  0  0  0  0  0  0  0  0  0
   -3.4020   21.1230  -33.2750 C   0  0  0  0  0  0  0  0  0  0  0  0
   -2.7950   20.2170  -32.3940 C   0  0  0  0  0  0  0  0  0  0  0  0
   -2.2150   18.9270  -32.9210 C   0  0  0  0  0  0  0  0  0  0  0  0
   -3.1890   18.1750  -33.7360 N   0  0  0  0  0  0  0  0  0  0  0  0
   -4.4480   17.8960  -33.0180 C   0  0  0  0  0  0  0  0  0  0  0  0
   -5.6280   18.5320  -33.7090 C   0  0  0  0  0  0  0  0  0  0  0  0
   -5.5000   18.8930  -34.9080 O   0  0  0  0  0  0  0  0  0  0  0  0
   -6.8710   18.7560  -33.0220 N   0  0  0  0  0  0  0  0  0  0  0  0
   -7.7330   17.6940  -32.4920 C   0  0  0  0  0  0  0  0  0  0  0  0
   -8.7770   18.3960  -31.5930 C   0  0  0  0  0  0  0  0  0  0  0  0
   -8.4230   19.8380  -31.7100 C   0  0  0  0  0  0  0  0  0  0  0  0
   -9.0830   20.9330  -31.1530 C   0  0  0  0  0  0  0  0  0  0  0  0
   -8.6110   22.2200  -31.4510 C   0  0  0  0  0  0  0  0  0  0  0  0
   -7.5060   22.3910  -32.3030 C   0  0  0  0  0  0  0  0  0  0  0  0
   -6.8650   21.2740  -32.8630 C   0  0  0  0  0  0  0  0  0  0  0  0
   -7.3410   20.0000  -32.5330 C   0  0  0  0  0  0  0  0  0  0  0  0
   -2.7820   20.5010  -31.0200 C   0  0  0  0  0  0  0  0  0  0  0  0
   -3.3640   21.6710  -30.5320 C   0  0  0  0  0  0  0  0  0  0  0  0
   -4.0000   26.0450  -30.0600 H   0  0  0  0  0  0  0  0  0  0  0  0
   -4.4671   22.9968  -33.4849 H   0  0  0  0  0  0  0  0  0  0  0  0
   -3.4126   20.9133  -34.3548 H   0  0  0  0  0  0  0  0  0  0  0  0
   -1.3372   19.1597  -33.5417 H   0  0  0  0  0  0  0  0  0  0  0  0
   -1.9385   18.3017  -32.0592 H   0  0  0  0  0  0  0  0  0  0  0  0
   -2.7480   17.2710  -34.0300 H   0  0  0  0  0  0  0  0  0  0  0  0
   -3.4090   18.7060  -34.6120 H   0  0  0  0  0  0  0  0  0  0  0  0
   -4.6021   16.8077  -32.9754 H   0  0  0  0  0  0  0  0  0  0  0  0
   -4.3703   18.3191  -32.0056 H   0  0  0  0  0  0  0  0  0  0  0  0
   -8.2337   17.1627  -33.3148 H   0  0  0  0  0  0  0  0  0  0  0  0
   -7.1521   16.9501  -31.9269 H   0  0  0  0  0  0  0  0  0  0  0  0
   -9.7981   18.2109  -31.9580 H   0  0  0  0  0  0  0  0  0  0  0  0
   -8.7609   18.0338  -30.5545 H   0  0  0  0  0  0  0  0  0  0  0  0
   -9.9533   20.7909  -30.4954 H   0  0  0  0  0  0  0  0  0  0  0  0
   -9.1079   23.0996  -31.0159 H   0  0  0  0  0  0  0  0  0  0  0  0
   -7.1421   23.4035  -32.5319 H   0  0  0  0  0  0  0  0  0  0  0  0
   -6.0101   21.3974  -33.5441 H   0  0  0  0  0  0  0  0  0  0  0  0
   -2.3088   19.7950  -30.3217 H   0  0  0  0  0  0  0  0  0  0  0  0
   -3.3353   21.8914  -29.4547 H   0  0  0  0  0  0  0  0  0  0  0  0
  1  2  1  0
  2  3  2  0
  2  4  2  0
  2  5  1  0
  5  6  2  0
  6  7  1  0
  7  8  2  0
  8  9  1  0
  9 10  1  0
 10 11  1  0
 11 12  1  0
 12 13  2  0
 12 14  1  0
 14 15  1  0
 15 16  1  0
 16 17  1  0
 17 18  2  0
 18 19  1  0
 19 20  2  0
 20 21  1  0
 21 22  2  0
  8 23  1  0
 23 24  2  0
 24  5  1  0
 22 14  1  0
 22 17  1  0
  1 25  1  0
  6 26  1  0
  7 27  1  0
  9 28  1  0
  9 29  1  0
 10 30  1  0
 10 31  1  0
 11 32  1  0
 11 33  1  0
 15 34  1  0
 15 35  1  0
 16 36  1  0
 16 37  1  0
 18 38  1  0
 19 39  1  0
 20 40  1  0
 21 41  1  0
 23 42  1  0
 24 43  1  0
M  CHG  2   1  -1  10   1
M  END
>  <UniqueID>  (47) 
46

>  <SMILES>  (47) 
[NH-]S(=O)(=O)c1ccc(C[NH2+]CC(=O)N2CCc3ccccc32)cc1

>  <Energy>  (47) 
60.828254469956796

>  <Genealogy>  (47) 
[NH-]S(=O)(=O)c1ccc(C[NH2+]CC(=O)N2CCc3ccccc32)cc1 (protonated)
[NH-]S(=O)(=O)c1ccc(C[NH2+]CC(=O)N2CCc3ccccc32)cc1 (3D coordinates assigned)
[NH-]S(=O)(=O)c1ccc(C[NH2+]CC(=O)N2CCc3ccccc32)cc1 (nonaromatic ring conformer: 60.828254469956796 kcal/mol)

>  <smiles>  (47) 
NS(=O)(=O)c1ccc(CNCC(=O)N2CCc3ccccc32)cc1

>  <score_type>  (47) 
oracle

>  <origin>  (47) 
adgpu

>  <m_score__min__energy>  (47) 
-10.630000000000001

>  <m_primary>  (47) 
energy

$$$$
47:0
     RDKit          3D

 55 57  0  0  0  0  0  0  0  0999 V2000
   -4.1970   24.0370  -28.5430 C   0  0  0  0  0  0  0  0  0  0  0  0
   -3.4320   24.7070  -29.6320 C   0  0  0  0  0  0  0  0  0  0  0  0
   -3.8860   24.7070  -30.8070 O   0  0  0  0  0  0  0  0  0  0  0  0
   -2.1630   25.2960  -29.3430 N   0  0  0  0  0  0  0  0  0  0  0  0
   -1.0970   24.6040  -28.6290 C   0  0  0  0  0  0  0  0  0  0  0  0
   -0.9450   23.2080  -29.1520 C   0  0  0  0  0  0  0  0  0  0  0  0
   -0.3150   22.3610  -28.4640 O   0  0  0  0  0  0  0  0  0  0  0  0
   -1.5070   22.8440  -30.4220 N   0  0  0  0  0  0  0  0  0  0  0  0
   -1.3670   21.5070  -31.0090 C   0  0  2  0  0  0  0  0  0  0  0  0
   -0.2690   21.5500  -32.0840 C   0  0  0  0  0  0  0  0  0  0  0  0
   -0.2750   20.2710  -32.9160 C   0  0  0  0  0  0  0  0  0  0  0  0
   -1.5940   20.1500  -33.6810 C   0  0  0  0  0  0  0  0  0  0  0  0
   -2.7940   20.3310  -32.7840 C   0  0  0  0  0  0  0  0  0  0  0  0
   -4.0420   19.8630  -33.2270 C   0  0  0  0  0  0  0  0  0  0  0  0
   -5.1860   20.0320  -32.4400 C   0  0  0  0  0  0  0  0  0  0  0  0
   -6.7550   19.4500  -32.9900 S   0  0  0  0  0  0  0  0  0  0  0  0
   -7.7910   19.6460  -31.9160 O   0  0  0  0  0  0  0  0  0  0  0  0
   -7.1630   20.2390  -34.2040 O   0  0  0  0  0  0  0  0  0  0  0  0
   -6.6310   17.7540  -33.3930 N   0  0  0  0  0  0  0  0  0  0  0  0
   -6.0750   17.5680  -34.7540 C   0  0  0  0  0  0  0  0  0  0  0  0
   -4.6010   17.1400  -34.7330 C   0  0  0  0  0  0  0  0  0  0  0  0
   -4.4240   15.8610  -34.0070 N   0  0  0  0  0  0  0  0  0  0  0  0
   -3.0200   15.6990  -33.5990 C   0  0  0  0  0  0  0  0  0  0  0  0
   -5.3450   15.6990  -32.8540 C   0  0  0  0  0  0  0  0  0  0  0  0
   -5.8770   17.0430  -32.3390 C   0  0  0  0  0  0  0  0  0  0  0  0
   -5.0880   20.6790  -31.2060 C   0  0  0  0  0  0  0  0  0  0  0  0
   -3.8580   21.1650  -30.7610 C   0  0  0  0  0  0  0  0  0  0  0  0
   -2.7030   21.0270  -31.5530 C   0  0  0  0  0  0  0  0  0  0  0  0
   -3.8150   24.3715  -27.5672 H   0  0  0  0  0  0  0  0  0  0  0  0
   -5.2621   24.2981  -28.6289 H   0  0  0  0  0  0  0  0  0  0  0  0
   -4.0786   22.9468  -28.6289 H   0  0  0  0  0  0  0  0  0  0  0  0
   -0.1521   25.1494  -28.7693 H   0  0  0  0  0  0  0  0  0  0  0  0
   -1.3506   24.5609  -27.5595 H   0  0  0  0  0  0  0  0  0  0  0  0
   -2.0650   23.5550  -30.9460 H   0  0  0  0  0  0  0  0  0  0  0  0
   -1.0636   20.7790  -30.2422 H   0  0  0  0  0  0  0  0  0  0  0  0
   -0.4452   22.4112  -32.7453 H   0  0  0  0  0  0  0  0  0  0  0  0
    0.7078   21.6426  -31.5868 H   0  0  0  0  0  0  0  0  0  0  0  0
    0.5599   20.2982  -33.6317 H   0  0  0  0  0  0  0  0  0  0  0  0
   -0.1652   19.4048  -32.2469 H   0  0  0  0  0  0  0  0  0  0  0  0
   -1.6197   20.9200  -34.4661 H   0  0  0  0  0  0  0  0  0  0  0  0
   -1.6433   19.1381  -34.1096 H   0  0  0  0  0  0  0  0  0  0  0  0
   -4.1205   19.3590  -34.2016 H   0  0  0  0  0  0  0  0  0  0  0  0
   -6.6600   16.7933  -35.2713 H   0  0  0  0  0  0  0  0  0  0  0  0
   -6.1350   18.5351  -35.2748 H   0  0  0  0  0  0  0  0  0  0  0  0
   -4.2485   17.0168  -35.7677 H   0  0  0  0  0  0  0  0  0  0  0  0
   -4.0203   17.9174  -34.2149 H   0  0  0  0  0  0  0  0  0  0  0  0
   -2.9558   15.6916  -32.5009 H   0  0  0  0  0  0  0  0  0  0  0  0
   -2.6301   14.7499  -33.9955 H   0  0  0  0  0  0  0  0  0  0  0  0
   -2.4242   16.5344  -33.9955 H   0  0  0  0  0  0  0  0  0  0  0  0
   -6.1973   15.0779  -33.1668 H   0  0  0  0  0  0  0  0  0  0  0  0
   -4.7807   15.2256  -32.0370 H   0  0  0  0  0  0  0  0  0  0  0  0
   -6.5417   16.8618  -31.4814 H   0  0  0  0  0  0  0  0  0  0  0  0
   -5.0217   17.6664  -32.0392 H   0  0  0  0  0  0  0  0  0  0  0  0
   -5.9849   20.8060  -30.5819 H   0  0  0  0  0  0  0  0  0  0  0  0
   -3.7905   21.6609  -29.7814 H   0  0  0  0  0  0  0  0  0  0  0  0
  1  2  1  0
  2  3  2  0
  2  4  1  0
  4  5  1  0
  5  6  1  0
  6  7  2  0
  6  8  1  0
  8  9  1  0
  9 10  1  0
 10 11  1  0
 11 12  1  0
 12 13  1  0
 13 14  2  0
 14 15  1  0
 15 16  1  0
 16 17  2  0
 16 18  2  0
 16 19  1  0
 19 20  1  0
 20 21  1  0
 21 22  1  0
 22 23  1  0
 22 24  1  0
 24 25  1  0
 15 26  2  0
 26 27  1  0
 27 28  2  0
 28  9  1  0
 28 13  1  0
 25 19  1  0
  1 29  1  0
  1 30  1  0
  1 31  1  0
  5 32  1  0
  5 33  1  0
  8 34  1  0
  9 35  1  1
 10 36  1  0
 10 37  1  0
 11 38  1  0
 11 39  1  0
 12 40  1  0
 12 41  1  0
 14 42  1  0
 20 43  1  0
 20 44  1  0
 21 45  1  0
 21 46  1  0
 23 47  1  0
 23 48  1  0
 23 49  1  0
 24 50  1  0
 24 51  1  0
 25 52  1  0
 25 53  1  0
 26 54  1  0
 27 55  1  0
M  CHG  1   4  -1
M  END
>  <UniqueID>  (48) 
47

>  <SMILES>  (48) 
CC(=O)[N-]CC(=O)N[C@@H]1CCCc2cc(S(=O)(=O)N3CCN(C)CC3)ccc21

>  <Energy>  (48) 
59.146807343716965

>  <Genealogy>  (48) 
CC(=O)[N-]CC(=O)NC1CCCc2cc(S(=O)(=O)N3CCN(C)CC3)ccc21 (protonated)
CC(=O)[N-]CC(=O)N[C@@H]1CCCc2cc(S(=O)(=O)N3CCN(C)CC3)ccc21 (chirality)
CC(=O)[N-]CC(=O)N[C@@H]1CCCc2cc(S(=O)(=O)N3CCN(C)CC3)ccc21 (3D coordinates assigned)
CC(=O)[N-]CC(=O)N[C@@H]1CCCc2cc(S(=O)(=O)N3CCN(C)CC3)ccc21 (nonaromatic ring conformer: 59.146807343716965 kcal/mol)

>  <smiles>  (48) 
CC(=O)NCC(=O)NC1CCCc2cc(S(=O)(=O)N3CCN(C)CC3)ccc21

>  <score_type>  (48) 
oracle

>  <origin>  (48) 
adgpu

>  <m_score__min__energy>  (48) 
-11.949999999999999

>  <m_primary>  (48) 
energy

$$$$
48:0
     RDKit          3D

 62 65  0  0  0  0  0  0  0  0999 V2000
   -0.1630   20.2820  -32.9020 C   0  0  0  0  0  0  0  0  0  0  0  0
   -1.6220   19.9380  -33.0330 C   0  0  0  0  0  0  0  0  0  0  0  0
   -2.0580   19.1760  -34.1300 C   0  0  0  0  0  0  0  0  0  0  0  0
   -3.4070   18.8510  -34.2760 C   0  0  0  0  0  0  0  0  0  0  0  0
   -4.3470   19.3010  -33.3420 C   0  0  0  0  0  0  0  0  0  0  0  0
   -6.0580   18.9020  -33.5390 S   0  0  0  0  0  0  0  0  0  0  0  0
   -6.2290   17.4120  -33.4240 O   0  0  0  0  0  0  0  0  0  0  0  0
   -6.5010   19.3150  -34.9160 O   0  0  0  0  0  0  0  0  0  0  0  0
   -7.0790   19.6840  -32.3560 N   0  0  0  0  0  0  0  0  0  0  0  0
   -8.4900   19.3550  -32.5430 C   0  0  0  0  0  0  0  0  0  0  0  0
   -9.2820   20.5040  -31.9390 C   0  0  0  0  0  0  0  0  0  0  0  0
   -8.3060   21.6700  -31.8630 C   0  0  0  0  0  0  0  0  0  0  0  0
   -7.0030   21.1410  -32.4420 C   0  0  0  0  0  0  0  0  0  0  0  0
   -3.9210   20.0600  -32.2450 C   0  0  0  0  0  0  0  0  0  0  0  0
   -2.5620   20.3800  -32.0770 C   0  0  0  0  0  0  0  0  0  0  0  0
   -2.1450   21.2010  -30.9720 N   0  0  0  0  0  0  0  0  0  0  0  0
   -2.7600   22.4590  -30.6440 C   0  0  0  0  0  0  0  0  0  0  0  0
   -3.6860   22.9200  -31.3650 O   0  0  0  0  0  0  0  0  0  0  0  0
   -2.3140   23.2350  -29.4660 C   0  0  0  0  0  0  0  0  0  0  0  0
   -1.5340   22.6020  -28.4830 C   0  0  0  0  0  0  0  0  0  0  0  0
   -1.0990   23.3080  -27.3540 C   0  0  0  0  0  0  0  0  0  0  0  0
   -0.1470   22.4790  -26.1240 S   0  0  0  0  0  0  0  0  0  0  0  0
   -1.0510   21.5500  -25.3640 O   0  0  0  0  0  0  0  0  0  0  0  0
    0.9450   21.6700  -26.7690 O   0  0  0  0  0  0  0  0  0  0  0  0
    0.5510   23.6560  -25.0370 N   0  0  0  0  0  0  0  0  0  0  0  0
   -0.4680   24.1800  -24.0900 C   0  0  0  0  0  0  0  0  0  0  0  0
   -0.9780   25.5770  -24.4690 C   0  0  0  0  0  0  0  0  0  0  0  0
    0.1760   26.5920  -24.5320 C   0  0  0  0  0  0  0  0  0  0  0  0
    1.5040   25.9540  -24.9770 C   0  0  0  0  0  0  0  0  0  0  0  0
    1.2590   24.6960  -25.8160 C   0  0  0  0  0  0  0  0  0  0  0  0
   -1.4420   24.6570  -27.2030 C   0  0  0  0  0  0  0  0  0  0  0  0
   -2.2000   25.2990  -28.1840 C   0  0  0  0  0  0  0  0  0  0  0  0
   -2.6280   24.6020  -29.3180 C   0  0  0  0  0  0  0  0  0  0  0  0
   -3.3330   25.2860  -30.3020 O   0  0  0  0  0  0  0  0  0  0  0  0
    0.1046   20.3451  -31.8369 H   0  0  0  0  0  0  0  0  0  0  0  0
    0.4426   19.5020  -33.3867 H   0  0  0  0  0  0  0  0  0  0  0  0
    0.0304   21.2504  -33.3867 H   0  0  0  0  0  0  0  0  0  0  0  0
   -1.3299   18.8329  -34.8798 H   0  0  0  0  0  0  0  0  0  0  0  0
   -3.7332   18.2382  -35.1293 H   0  0  0  0  0  0  0  0  0  0  0  0
   -8.7191   19.2567  -33.6144 H   0  0  0  0  0  0  0  0  0  0  0  0
   -8.7439   18.3990  -32.0618 H   0  0  0  0  0  0  0  0  0  0  0  0
  -10.1387   20.7600  -32.5798 H   0  0  0  0  0  0  0  0  0  0  0  0
   -9.6893   20.2457  -30.9504 H   0  0  0  0  0  0  0  0  0  0  0  0
   -8.6742   22.5200  -32.4562 H   0  0  0  0  0  0  0  0  0  0  0  0
   -8.1795   22.0324  -30.8321 H   0  0  0  0  0  0  0  0  0  0  0  0
   -6.8963   21.4558  -33.4906 H   0  0  0  0  0  0  0  0  0  0  0  0
   -6.1334   21.5297  -31.8918 H   0  0  0  0  0  0  0  0  0  0  0  0
   -4.6575   20.4097  -31.5066 H   0  0  0  0  0  0  0  0  0  0  0  0
   -1.3720   20.8450  -30.3680 H   0  0  0  0  0  0  0  0  0  0  0  0
   -1.2627   21.5426  -28.6013 H   0  0  0  0  0  0  0  0  0  0  0  0
   -1.3222   23.4871  -24.0758 H   0  0  0  0  0  0  0  0  0  0  0  0
    0.0115   24.2617  -23.1034 H   0  0  0  0  0  0  0  0  0  0  0  0
   -1.4653   25.5261  -25.4538 H   0  0  0  0  0  0  0  0  0  0  0  0
   -1.6915   25.9079  -23.7000 H   0  0  0  0  0  0  0  0  0  0  0  0
   -0.0908   27.3844  -25.2468 H   0  0  0  0  0  0  0  0  0  0  0  0
    0.3227   26.9919  -23.5178 H   0  0  0  0  0  0  0  0  0  0  0  0
    2.0685   26.6821  -25.5780 H   0  0  0  0  0  0  0  0  0  0  0  0
    2.0724   25.6694  -24.0793 H   0  0  0  0  0  0  0  0  0  0  0  0
    0.6500   24.9633  -26.6922 H   0  0  0  0  0  0  0  0  0  0  0  0
    2.2339   24.2920  -26.1263 H   0  0  0  0  0  0  0  0  0  0  0  0
   -1.1141   25.2112  -26.3112 H   0  0  0  0  0  0  0  0  0  0  0  0
   -2.4623   26.3605  -28.0640 H   0  0  0  0  0  0  0  0  0  0  0  0
  1  2  1  0
  2  3  2  0
  3  4  1  0
  4  5  2  0
  5  6  1  0
  6  7  2  0
  6  8  2  0
  6  9  1  0
  9 10  1  0
 10 11  1  0
 11 12  1  0
 12 13  1  0
  5 14  1  0
 14 15  2  0
 15 16  1  0
 16 17  1  0
 17 18  2  0
 17 19  1  0
 19 20  2  0
 20 21  1  0
 21 22  1  0
 22 23  2  0
 22 24  2  0
 22 25  1  0
 25 26  1  0
 26 27  1  0
 27 28  1  0
 28 29  1  0
 29 30  1  0
 21 31  2  0
 31 32  1  0
 32 33  2  0
 33 34  1  0
 15  2  1  0
 33 19  1  0
 13  9  1  0
 30 25  1  0
  1 35  1  0
  1 36  1  0
  1 37  1  0
  3 38  1  0
  4 39  1  0
 10 40  1  0
 10 41  1  0
 11 42  1  0
 11 43  1  0
 12 44  1  0
 12 45  1  0
 13 46  1  0
 13 47  1  0
 14 48  1  0
 16 49  1  0
 20 50  1  0
 26 51  1  0
 26 52  1  0
 27 53  1  0
 27 54  1  0
 28 55  1  0
 28 56  1  0
 29 57  1  0
 29 58  1  0
 30 59  1  0
 30 60  1  0
 31 61  1  0
 32 62  1  0
M  CHG  1  34  -1
M  END
>  <UniqueID>  (49) 
48

>  <SMILES>  (49) 
Cc1ccc(S(=O)(=O)N2CCCC2)cc1NC(=O)c1cc(S(=O)(=O)N2CCCCC2)ccc1[O-]

>  <Energy>  (49) 
78.97029030868077

>  <Genealogy>  (49) 
Cc1ccc(S(=O)(=O)N2CCCC2)cc1NC(=O)c1cc(S(=O)(=O)N2CCCCC2)ccc1[O-] (protonated)
Cc1ccc(S(=O)(=O)N2CCCC2)cc1NC(=O)c1cc(S(=O)(=O)N2CCCCC2)ccc1[O-] (3D coordinates assigned)
Cc1ccc(S(=O)(=O)N2CCCC2)cc1NC(=O)c1cc(S(=O)(=O)N2CCCCC2)ccc1[O-] (nonaromatic ring conformer: 78.97029030868077 kcal/mol)

>  <smiles>  (49) 
Cc1ccc(S(=O)(=O)N2CCCC2)cc1NC(=O)c1cc(S(=O)(=O)N2CCCCC2)ccc1O

>  <score_type>  (49) 
oracle

>  <origin>  (49) 
adgpu

>  <m_score__min__energy>  (49) 
-14.07

>  <m_primary>  (49) 
energy

$$$$
49:0
     RDKit          3D

 68 72  0  0  0  0  0  0  0  0999 V2000
   -0.1610   17.9180  -34.5490 C   0  0  0  0  0  0  0  0  0  0  0  0
   -1.1260   18.9750  -34.0950 C   0  0  0  0  0  0  0  0  0  0  0  0
   -0.6640   20.2590  -33.7710 C   0  0  0  0  0  0  0  0  0  0  0  0
   -1.5620   21.2430  -33.3400 C   0  0  0  0  0  0  0  0  0  0  0  0
   -2.9290   20.9540  -33.2090 C   0  0  0  0  0  0  0  0  0  0  0  0
   -3.8380   22.0050  -32.8340 N   0  0  0  0  0  0  0  0  0  0  0  0
   -3.7640   22.7190  -31.5940 C   0  0  0  0  0  0  0  0  0  0  0  0
   -2.3460   23.0850  -30.7660 S   0  0  0  0  0  0  0  0  0  0  0  0
   -3.1610   23.9310  -29.5500 C   0  0  0  0  0  0  0  0  0  0  0  0
   -2.5300   24.5690  -28.3720 C   0  0  0  0  0  0  0  0  0  0  0  0
   -1.2740   25.1890  -28.4930 C   0  0  0  0  0  0  0  0  0  0  0  0
   -0.6720   25.7970  -27.3880 C   0  0  0  0  0  0  0  0  0  0  0  0
   -1.3120   25.7950  -26.1430 C   0  0  0  0  0  0  0  0  0  0  0  0
   -0.5420   26.5500  -24.7440 S   0  0  0  0  0  0  0  0  0  0  0  0
   -1.5780   26.7870  -23.6800 O   0  0  0  0  0  0  0  0  0  0  0  0
    0.0190   27.8860  -25.1510 O   0  0  0  0  0  0  0  0  0  0  0  0
    0.7380   25.5580  -24.0860 N   0  0  0  0  0  0  0  0  0  0  0  0
    1.9760   26.3450  -23.9340 C   0  0  0  0  0  0  0  0  0  0  0  0
    3.1790   25.4120  -23.7160 C   0  0  0  0  0  0  0  0  0  0  0  0
    3.3830   24.4540  -24.7500 O   0  0  0  0  0  0  0  0  0  0  0  0
    2.2710   24.2980  -25.6160 C   0  0  0  0  0  0  0  0  0  0  0  0
    0.9280   24.3150  -24.8670 C   0  0  0  0  0  0  0  0  0  0  0  0
   -2.5600   25.1710  -26.0130 C   0  0  0  0  0  0  0  0  0  0  0  0
   -3.1670   24.5660  -27.1180 C   0  0  0  0  0  0  0  0  0  0  0  0
   -4.4980   23.9420  -29.7750 N   0  0  0  0  0  0  0  0  0  0  0  0
   -4.8380   23.2820  -30.9140 C   0  0  0  0  0  0  0  0  0  0  0  0
   -6.5160   23.0920  -31.4030 S   0  0  0  0  0  0  0  0  0  0  0  0
   -7.4110   23.5610  -30.2890 O   0  0  0  0  0  0  0  0  0  0  0  0
   -6.7880   23.9410  -32.6150 O   0  0  0  0  0  0  0  0  0  0  0  0
   -6.8490   21.4060  -31.7940 C   0  0  0  0  0  0  0  0  0  0  0  0
   -5.8560   20.4390  -31.6050 C   0  0  0  0  0  0  0  0  0  0  0  0
   -6.1150   19.1020  -31.9010 C   0  0  0  0  0  0  0  0  0  0  0  0
   -7.3780   18.7050  -32.3800 C   0  0  0  0  0  0  0  0  0  0  0  0
   -7.6250   17.2520  -32.6860 C   0  0  0  0  0  0  0  0  0  0  0  0
   -8.3960   19.6760  -32.5450 C   0  0  0  0  0  0  0  0  0  0  0  0
   -9.7660   19.3050  -33.0500 C   0  0  0  0  0  0  0  0  0  0  0  0
   -8.1080   21.0240  -32.2750 C   0  0  0  0  0  0  0  0  0  0  0  0
   -3.3870   19.6600  -33.5210 C   0  0  0  0  0  0  0  0  0  0  0  0
   -2.4900   18.6780  -33.9510 C   0  0  0  0  0  0  0  0  0  0  0  0
    0.2861   17.4283  -33.6713 H   0  0  0  0  0  0  0  0  0  0  0  0
   -0.6944   17.1701  -35.1541 H   0  0  0  0  0  0  0  0  0  0  0  0
    0.6322   18.3812  -35.1541 H   0  0  0  0  0  0  0  0  0  0  0  0
    0.4073   20.4937  -33.8558 H   0  0  0  0  0  0  0  0  0  0  0  0
   -1.1927   22.2515  -33.1020 H   0  0  0  0  0  0  0  0  0  0  0  0
   -4.6320   22.2220  -33.4720 H   0  0  0  0  0  0  0  0  0  0  0  0
   -0.7607   25.1956  -29.4659 H   0  0  0  0  0  0  0  0  0  0  0  0
    0.3103   26.2799  -27.4972 H   0  0  0  0  0  0  0  0  0  0  0  0
    2.1401   26.9422  -24.8431 H   0  0  0  0  0  0  0  0  0  0  0  0
    1.8741   27.0068  -23.0613 H   0  0  0  0  0  0  0  0  0  0  0  0
    4.0844   26.0321  -23.6397 H   0  0  0  0  0  0  0  0  0  0  0  0
    2.9678   24.8409  -22.7999 H   0  0  0  0  0  0  0  0  0  0  0  0
    2.2765   25.1198  -26.3472 H   0  0  0  0  0  0  0  0  0  0  0  0
    2.3660   23.3173  -26.1051 H   0  0  0  0  0  0  0  0  0  0  0  0
    0.1125   24.2294  -25.6003 H   0  0  0  0  0  0  0  0  0  0  0  0
    0.9239   23.4701  -24.1626 H   0  0  0  0  0  0  0  0  0  0  0  0
   -3.0651   25.1570  -25.0359 H   0  0  0  0  0  0  0  0  0  0  0  0
   -4.1496   24.0844  -27.0057 H   0  0  0  0  0  0  0  0  0  0  0  0
   -4.8682   20.7346  -31.2218 H   0  0  0  0  0  0  0  0  0  0  0  0
   -5.3251   18.3497  -31.7590 H   0  0  0  0  0  0  0  0  0  0  0  0
   -7.7205   16.6902  -31.7451 H   0  0  0  0  0  0  0  0  0  0  0  0
   -8.5529   17.1525  -33.2683 H   0  0  0  0  0  0  0  0  0  0  0  0
   -6.7821   16.8515  -33.2683 H   0  0  0  0  0  0  0  0  0  0  0  0
  -10.4350   19.1238  -32.1958 H   0  0  0  0  0  0  0  0  0  0  0  0
  -10.1664   20.1271  -33.6615 H   0  0  0  0  0  0  0  0  0  0  0  0
   -9.6969   18.3932  -33.6615 H   0  0  0  0  0  0  0  0  0  0  0  0
   -8.8804   21.7889  -32.4433 H   0  0  0  0  0  0  0  0  0  0  0  0
   -4.4564   19.4204  -33.4259 H   0  0  0  0  0  0  0  0  0  0  0  0
   -2.8557   17.6657  -34.1780 H   0  0  0  0  0  0  0  0  0  0  0  0
  1  2  1  0
  2  3  2  0
  3  4  1  0
  4  5  2  0
  5  6  1  0
  6  7  1  0
  7  8  1  0
  8  9  1  0
  9 10  1  0
 10 11  2  0
 11 12  1  0
 12 13  2  0
 13 14  1  0
 14 15  2  0
 14 16  2  0
 14 17  1  0
 17 18  1  0
 18 19  1  0
 19 20  1  0
 20 21  1  0
 21 22  1  0
 13 23  1  0
 23 24  2  0
  9 25  2  0
 25 26  1  0
 26 27  1  0
 27 28  2  0
 27 29  2  0
 27 30  1  0
 30 31  2  0
 31 32  1  0
 32 33  2  0
 33 34  1  0
 33 35  1  0
 35 36  1  0
 35 37  2  0
  5 38  1  0
 38 39  2  0
 39  2  1  0
 26  7  2  0
 37 30  1  0
 24 10  1  0
 22 17  1  0
  1 40  1  0
  1 41  1  0
  1 42  1  0
  3 43  1  0
  4 44  1  0
  6 45  1  0
 11 46  1  0
 12 47  1  0
 18 48  1  0
 18 49  1  0
 19 50  1  0
 19 51  1  0
 21 52  1  0
 21 53  1  0
 22 54  1  0
 22 55  1  0
 23 56  1  0
 24 57  1  0
 31 58  1  0
 32 59  1  0
 34 60  1  0
 34 61  1  0
 34 62  1  0
 36 63  1  0
 36 64  1  0
 36 65  1  0
 37 66  1  0
 38 67  1  0
 39 68  1  0
M  END
>  <UniqueID>  (50) 
49

>  <SMILES>  (50) 
Cc1ccc(Nc2sc(-c3ccc(S(=O)(=O)N4CCOCC4)cc3)nc2S(=O)(=O)c2ccc(C)c(C)c2)cc1

>  <Energy>  (50) 
122.61161298790176

>  <Genealogy>  (50) 
Cc1ccc(Nc2sc(-c3ccc(S(=O)(=O)N4CCOCC4)cc3)nc2S(=O)(=O)c2ccc(C)c(C)c2)cc1 (3D coordinates assigned)
Cc1ccc(Nc2sc(-c3ccc(S(=O)(=O)N4CCOCC4)cc3)nc2S(=O)(=O)c2ccc(C)c(C)c2)cc1 (nonaromatic ring conformer: 122.61161298790176 kcal/mol)

>  <smiles>  (50) 
Cc1ccc(Nc2sc(-c3ccc(S(=O)(=O)N4CCOCC4)cc3)nc2S(=O)(=O)c2ccc(C)c(C)c2)cc1

>  <score_type>  (50) 
oracle

>  <origin>  (50) 
adgpu

>  <m_score__min__energy>  (50) 
-10.82

>  <m_primary>  (50) 
energy

$$$$
