0:0
     RDKit          3D

 51 53  0  0  0  0  0  0  0  0999 V2000
   -5.3960   18.5880  -34.2580 C   0  0  0  0  0  0  0  0  0  0  0  0
   -4.8150   19.8050  -33.8000 O   0  0  0  0  0  0  0  0  0  0  0  0
   -5.5120   20.8010  -33.0990 C   0  0  0  0  0  0  0  0  0  0  0  0
   -4.8620   21.8930  -32.4960 C   0  0  0  0  0  0  0  0  0  0  0  0
   -5.5940   22.8550  -31.7920 C   0  0  0  0  0  0  0  0  0  0  0  0
   -4.9010   23.9710  -31.2150 N   0  0  0  0  0  0  0  0  0  0  0  0
   -4.1710   23.9570  -29.9830 C   0  0  0  0  0  0  0  0  0  0  0  0
   -4.4860   23.1130  -29.1050 O   0  0  0  0  0  0  0  0  0  0  0  0
   -3.1200   24.9100  -29.7390 N   0  0  0  0  0  0  0  0  0  0  0  0
   -2.3070   24.9260  -28.5540 C   0  0  0  0  0  0  0  0  0  0  0  0
   -0.9460   25.2450  -28.6610 C   0  0  0  0  0  0  0  0  0  0  0  0
   -0.1360   25.2830  -27.5230 C   0  0  0  0  0  0  0  0  0  0  0  0
   -0.6800   25.0120  -26.2600 C   0  0  0  0  0  0  0  0  0  0  0  0
    0.3490   25.0390  -24.8280 S   0  0  0  0  0  0  0  0  0  0  0  0
    1.7850   25.1650  -25.2540 O   0  0  0  0  0  0  0  0  0  0  0  0
    0.2010   23.7310  -24.1010 O   0  0  0  0  0  0  0  0  0  0  0  0
   -0.0500   26.3510  -23.7360 N   0  0  0  0  0  0  0  0  0  0  0  0
   -1.2170   27.1360  -24.1870 C   0  0  0  0  0  0  0  0  0  0  0  0
   -0.8260   28.4740  -24.8350 C   0  0  0  0  0  0  0  0  0  0  0  0
    0.4350   28.3690  -25.4550 O   0  0  0  0  0  0  0  0  0  0  0  0
    1.4420   28.2460  -24.4710 C   0  0  0  0  0  0  0  0  0  0  0  0
    1.1220   27.1800  -23.3960 C   0  0  0  0  0  0  0  0  0  0  0  0
   -2.0470   24.7300  -26.1440 C   0  0  0  0  0  0  0  0  0  0  0  0
   -2.8580   24.6900  -27.2820 C   0  0  0  0  0  0  0  0  0  0  0  0
   -6.9940   22.7510  -31.7320 C   0  0  0  0  0  0  0  0  0  0  0  0
   -7.6550   21.6720  -32.3260 C   0  0  0  0  0  0  0  0  0  0  0  0
   -9.0530   21.6100  -32.2240 O   0  0  0  0  0  0  0  0  0  0  0  0
   -9.7730   21.6270  -30.9960 C   0  0  0  0  0  0  0  0  0  0  0  0
   -6.9040   20.6940  -33.0050 C   0  0  0  0  0  0  0  0  0  0  0  0
   -5.6893   17.9737  -33.3939 H   0  0  0  0  0  0  0  0  0  0  0  0
   -6.2843   18.8121  -34.8669 H   0  0  0  0  0  0  0  0  0  0  0  0
   -4.6632   18.0382  -34.8669 H   0  0  0  0  0  0  0  0  0  0  0  0
   -3.7695   21.9913  -32.5787 H   0  0  0  0  0  0  0  0  0  0  0  0
   -2.8740   25.5850  -30.4970 H   0  0  0  0  0  0  0  0  0  0  0  0
   -0.5128   25.4669  -29.6475 H   0  0  0  0  0  0  0  0  0  0  0  0
    0.9324   25.5265  -27.6187 H   0  0  0  0  0  0  0  0  0  0  0  0
   -1.7770   26.5404  -24.9230 H   0  0  0  0  0  0  0  0  0  0  0  0
   -1.8230   27.3653  -23.2981 H   0  0  0  0  0  0  0  0  0  0  0  0
   -1.5793   28.7454  -25.5892 H   0  0  0  0  0  0  0  0  0  0  0  0
   -0.7769   29.2478  -24.0547 H   0  0  0  0  0  0  0  0  0  0  0  0
    2.3834   27.9688  -24.9679 H   0  0  0  0  0  0  0  0  0  0  0  0
    1.5141   29.2155  -23.9564 H   0  0  0  0  0  0  0  0  0  0  0  0
    1.9962   26.5218  -23.2842 H   0  0  0  0  0  0  0  0  0  0  0  0
    0.8875   27.7139  -22.4633 H   0  0  0  0  0  0  0  0  0  0  0  0
   -2.4845   24.5391  -25.1529 H   0  0  0  0  0  0  0  0  0  0  0  0
   -3.9317   24.4730  -27.1820 H   0  0  0  0  0  0  0  0  0  0  0  0
   -7.5757   23.5266  -31.2123 H   0  0  0  0  0  0  0  0  0  0  0  0
   -9.0641   21.6103  -30.1551 H   0  0  0  0  0  0  0  0  0  0  0  0
  -10.3844   22.5398  -30.9420 H   0  0  0  0  0  0  0  0  0  0  0  0
  -10.4268   20.7440  -30.9420 H   0  0  0  0  0  0  0  0  0  0  0  0
   -7.4166   19.8370  -33.4663 H   0  0  0  0  0  0  0  0  0  0  0  0
  1  2  1  0
  2  3  1  0
  3  4  2  0
  4  5  1  0
  5  6  1  0
  6  7  1  0
  7  8  2  0
  7  9  1  0
  9 10  1  0
 10 11  2  0
 11 12  1  0
 12 13  2  0
 13 14  1  0
 14 15  2  0
 14 16  2  0
 14 17  1  0
 17 18  1  0
 18 19  1  0
 19 20  1  0
 20 21  1  0
 21 22  1  0
 13 23  1  0
 23 24  2  0
  5 25  2  0
 25 26  1  0
 26 27  1  0
 27 28  1  0
 26 29  2  0
 29  3  1  0
 24 10  1  0
 22 17  1  0
  1 30  1  0
  1 31  1  0
  1 32  1  0
  4 33  1  0
  9 34  1  0
 11 35  1  0
 12 36  1  0
 18 37  1  0
 18 38  1  0
 19 39  1  0
 19 40  1  0
 21 41  1  0
 21 42  1  0
 22 43  1  0
 22 44  1  0
 23 45  1  0
 24 46  1  0
 25 47  1  0
 28 48  1  0
 28 49  1  0
 28 50  1  0
 29 51  1  0
M  CHG  1   6  -1
M  END
>  <UniqueID>  (1) 
1

>  <SMILES>  (1) 
COc1cc([N-]C(=O)Nc2ccc(S(=O)(=O)N3CCOCC3)cc2)cc(OC)c1

>  <Energy>  (1) 
69.66156393058598

>  <Genealogy>  (1) 
COc1cc([N-]C(=O)Nc2ccc(S(=O)(=O)N3CCOCC3)cc2)cc(OC)c1 (protonated)
COc1cc([N-]C(=O)Nc2ccc(S(=O)(=O)N3CCOCC3)cc2)cc(OC)c1 (3D coordinates assigned)
COc1cc([N-]C(=O)Nc2ccc(S(=O)(=O)N3CCOCC3)cc2)cc(OC)c1 (nonaromatic ring conformer: 69.66156393058598 kcal/mol)

>  <smiles>  (1) 
COc1cc(NC(=O)Nc2ccc(S(=O)(=O)N3CCOCC3)cc2)cc(OC)c1

>  <score_type>  (1) 
oracle

>  <origin>  (1) 
adgpu

>  <m_score__min__energy>  (1) 
-9.8599999999999994

>  <m_primary>  (1) 
energy

$$$$
1:0
     RDKit          3D

 55 57  0  0  0  0  0  0  0  0999 V2000
   -8.0130   18.3670  -32.4540 C   0  0  0  0  0  0  0  0  0  0  0  0
   -8.0720   19.7280  -33.0020 N   0  0  0  0  0  0  0  0  0  0  0  0
   -6.7380   20.1880  -33.4030 C   0  0  0  0  0  0  0  0  0  0  0  0
   -8.7660   20.8190  -31.8280 S   0  0  0  0  0  0  0  0  0  0  0  0
  -10.0550   21.3840  -32.3620 O   0  0  0  0  0  0  0  0  0  0  0  0
   -9.0820   20.0580  -30.5690 O   0  0  0  0  0  0  0  0  0  0  0  0
   -7.6640   22.1410  -31.4390 C   0  0  0  0  0  0  0  0  0  0  0  0
   -7.2460   23.0350  -32.4370 C   0  0  0  0  0  0  0  0  0  0  0  0
   -6.3980   24.0990  -32.1200 C   0  0  0  0  0  0  0  0  0  0  0  0
   -5.9420   24.2750  -30.8000 C   0  0  0  0  0  0  0  0  0  0  0  0
   -5.0880   25.4270  -30.4480 C   0  0  0  0  0  0  0  0  0  0  0  0
   -5.6120   26.5290  -30.1440 O   0  0  0  0  0  0  0  0  0  0  0  0
   -3.6600   25.2950  -30.4670 N   0  0  0  0  0  0  0  0  0  0  0  0
   -2.8790   24.5370  -29.5350 C   0  0  0  0  0  0  0  0  0  0  0  0
   -2.0160   25.2190  -28.6690 C   0  0  0  0  0  0  0  0  0  0  0  0
   -1.1800   24.5090  -27.8060 C   0  0  0  0  0  0  0  0  0  0  0  0
   -1.1910   23.1120  -27.8100 C   0  0  0  0  0  0  0  0  0  0  0  0
   -2.0520   22.4170  -28.6660 C   0  0  0  0  0  0  0  0  0  0  0  0
   -2.0410   20.6560  -28.6750 S   0  0  0  0  0  0  0  0  0  0  0  0
   -3.1150   20.1320  -27.7630 O   0  0  0  0  0  0  0  0  0  0  0  0
   -0.7070   20.1860  -28.1680 O   0  0  0  0  0  0  0  0  0  0  0  0
   -2.2970   20.0720  -30.3040 N   0  0  0  0  0  0  0  0  0  0  0  0
   -1.1900   20.4980  -31.2070 C   0  0  0  0  0  0  0  0  0  0  0  0
   -1.5740   21.6680  -32.1250 C   0  0  0  0  0  0  0  0  0  0  0  0
   -2.7910   21.3110  -33.0000 C   0  0  0  0  0  0  0  0  0  0  0  0
   -3.7750   20.3570  -32.2950 C   0  0  0  0  0  0  0  0  0  0  0  0
   -3.6520   20.4590  -30.7700 C   0  0  0  0  0  0  0  0  0  0  0  0
   -2.8910   23.1290  -29.5320 C   0  0  0  0  0  0  0  0  0  0  0  0
   -6.3500   23.3600  -29.8090 C   0  0  0  0  0  0  0  0  0  0  0  0
   -7.2070   22.3070  -30.1270 C   0  0  0  0  0  0  0  0  0  0  0  0
   -8.0150   18.4138  -31.3550 H   0  0  0  0  0  0  0  0  0  0  0  0
   -8.8872   17.7949  -32.7982 H   0  0  0  0  0  0  0  0  0  0  0  0
   -7.0926   17.8727  -32.7982 H   0  0  0  0  0  0  0  0  0  0  0  0
   -8.6940   19.7250  -33.8420 H   0  0  0  0  0  0  0  0  0  0  0  0
   -6.1366   20.3954  -32.5056 H   0  0  0  0  0  0  0  0  0  0  0  0
   -6.2458   19.4077  -34.0020 H   0  0  0  0  0  0  0  0  0  0  0  0
   -6.8314   21.1059  -34.0020 H   0  0  0  0  0  0  0  0  0  0  0  0
   -7.5877   22.8972  -33.4735 H   0  0  0  0  0  0  0  0  0  0  0  0
   -6.0852   24.8025  -32.9056 H   0  0  0  0  0  0  0  0  0  0  0  0
   -1.9967   26.3188  -28.6687 H   0  0  0  0  0  0  0  0  0  0  0  0
   -0.5109   25.0506  -27.1211 H   0  0  0  0  0  0  0  0  0  0  0  0
   -0.5204   22.5566  -27.1378 H   0  0  0  0  0  0  0  0  0  0  0  0
   -0.3334   20.8051  -30.5891 H   0  0  0  0  0  0  0  0  0  0  0  0
   -0.9475   19.6415  -31.8533 H   0  0  0  0  0  0  0  0  0  0  0  0
   -1.8207   22.5437  -31.5067 H   0  0  0  0  0  0  0  0  0  0  0  0
   -0.7220   21.8881  -32.7850 H   0  0  0  0  0  0  0  0  0  0  0  0
   -3.3237   22.2387  -33.2563 H   0  0  0  0  0  0  0  0  0  0  0  0
   -2.4146   20.7954  -33.8958 H   0  0  0  0  0  0  0  0  0  0  0  0
   -4.8018   20.6187  -32.5902 H   0  0  0  0  0  0  0  0  0  0  0  0
   -3.5352   19.3262  -32.5950 H   0  0  0  0  0  0  0  0  0  0  0  0
   -3.8518   21.4966  -30.4644 H   0  0  0  0  0  0  0  0  0  0  0  0
   -4.3808   19.7694  -30.3192 H   0  0  0  0  0  0  0  0  0  0  0  0
   -3.5626   22.5858  -30.2131 H   0  0  0  0  0  0  0  0  0  0  0  0
   -5.9896   23.4774  -28.7764 H   0  0  0  0  0  0  0  0  0  0  0  0
   -7.5251   21.6039  -29.3431 H   0  0  0  0  0  0  0  0  0  0  0  0
  1  2  1  0
  2  3  1  0
  2  4  1  0
  4  5  2  0
  4  6  2  0
  4  7  1  0
  7  8  2  0
  8  9  1  0
  9 10  2  0
 10 11  1  0
 11 12  2  0
 11 13  1  0
 13 14  1  0
 14 15  2  0
 15 16  1  0
 16 17  2  0
 17 18  1  0
 18 19  1  0
 19 20  2  0
 19 21  2  0
 19 22  1  0
 22 23  1  0
 23 24  1  0
 24 25  1  0
 25 26  1  0
 26 27  1  0
 18 28  2  0
 10 29  1  0
 29 30  2  0
 30  7  1  0
 28 14  1  0
 27 22  1  0
  1 31  1  0
  1 32  1  0
  1 33  1  0
  2 34  1  0
  3 35  1  0
  3 36  1  0
  3 37  1  0
  8 38  1  0
  9 39  1  0
 15 40  1  0
 16 41  1  0
 17 42  1  0
 23 43  1  0
 23 44  1  0
 24 45  1  0
 24 46  1  0
 25 47  1  0
 25 48  1  0
 26 49  1  0
 26 50  1  0
 27 51  1  0
 27 52  1  0
 28 53  1  0
 29 54  1  0
 30 55  1  0
M  CHG  2   2   1  13  -1
M  END
>  <UniqueID>  (2) 
2

>  <SMILES>  (2) 
C[NH+](C)S(=O)(=O)c1ccc(C(=O)[N-]c2cccc(S(=O)(=O)N3CCCCC3)c2)cc1

>  <Energy>  (2) 
63.614284513671855

>  <Genealogy>  (2) 
C[NH+](C)S(=O)(=O)c1ccc(C(=O)[N-]c2cccc(S(=O)(=O)N3CCCCC3)c2)cc1 (protonated)
C[NH+](C)S(=O)(=O)c1ccc(C(=O)[N-]c2cccc(S(=O)(=O)N3CCCCC3)c2)cc1 (3D coordinates assigned)
C[NH+](C)S(=O)(=O)c1ccc(C(=O)[N-]c2cccc(S(=O)(=O)N3CCCCC3)c2)cc1 (nonaromatic ring conformer: 63.614284513671855 kcal/mol)

>  <smiles>  (2) 
CN(C)S(=O)(=O)c1ccc(C(=O)Nc2cccc(S(=O)(=O)N3CCCCC3)c2)cc1

>  <score_type>  (2) 
oracle

>  <origin>  (2) 
adgpu

>  <m_score__min__energy>  (2) 
-12.26

>  <m_primary>  (2) 
energy

$$$$
2:0
     RDKit          3D

 46 48  0  0  0  0  0  0  0  0999 V2000
   -6.1270   25.9640  -29.4750 C   0  0  0  0  0  0  0  0  0  0  0  0
   -5.8680   24.7440  -30.3110 C   0  0  0  0  0  0  0  0  0  0  0  0
   -6.9180   23.8620  -30.6160 C   0  0  0  0  0  0  0  0  0  0  0  0
   -6.6900   22.7260  -31.4110 C   0  0  0  0  0  0  0  0  0  0  0  0
   -7.8070   21.8330  -31.8040 C   0  0  0  0  0  0  0  0  0  0  0  0
   -8.8960   21.9050  -31.1730 O   0  0  0  0  0  0  0  0  0  0  0  0
   -7.7130   20.9160  -32.9050 N   0  0  0  0  0  0  0  0  0  0  0  0
   -7.0860   19.6220  -32.9070 C   0  0  0  0  0  0  0  0  0  0  0  0
   -7.7570   18.5460  -32.3160 C   0  0  0  0  0  0  0  0  0  0  0  0
   -7.2000   17.2620  -32.3480 C   0  0  0  0  0  0  0  0  0  0  0  0
   -5.9700   17.0480  -32.9740 C   0  0  0  0  0  0  0  0  0  0  0  0
   -5.2760   18.1230  -33.5420 C   0  0  0  0  0  0  0  0  0  0  0  0
   -3.7930   17.8440  -34.4440 S   0  0  0  0  0  0  0  0  0  0  0  0
   -4.1740   17.4260  -35.8370 O   0  0  0  0  0  0  0  0  0  0  0  0
   -2.9810   16.7640  -33.7880 O   0  0  0  0  0  0  0  0  0  0  0  0
   -2.8670   19.3110  -34.4870 N   0  0  0  0  0  0  0  0  0  0  0  0
   -2.1640   19.8930  -33.3790 C   0  0  0  0  0  0  0  0  0  0  0  0
   -2.8460   20.3670  -32.2420 C   0  0  0  0  0  0  0  0  0  0  0  0
   -2.1370   20.8860  -31.1570 C   0  0  0  0  0  0  0  0  0  0  0  0
   -0.7450   20.9500  -31.1960 C   0  0  0  0  0  0  0  0  0  0  0  0
   -0.0570   20.5100  -32.3310 C   0  0  0  0  0  0  0  0  0  0  0  0
   -0.7580   19.9900  -33.4310 C   0  0  0  0  0  0  0  0  0  0  0  0
    0.1300   19.4570  -34.8630 S   0  0  0  0  0  0  0  0  0  0  0  0
   -0.4460   17.9040  -35.3560 N   0  0  0  0  0  0  0  0  0  0  0  0
   -0.0720   20.4270  -35.9930 O   0  0  0  0  0  0  0  0  0  0  0  0
    1.5950   19.3740  -34.5420 O   0  0  0  0  0  0  0  0  0  0  0  0
   -5.8200   19.4110  -33.4800 C   0  0  0  0  0  0  0  0  0  0  0  0
   -5.3840   22.4420  -31.8400 C   0  0  0  0  0  0  0  0  0  0  0  0
   -4.3320   23.3020  -31.5170 C   0  0  0  0  0  0  0  0  0  0  0  0
   -4.5680   24.4520  -30.7590 C   0  0  0  0  0  0  0  0  0  0  0  0
   -3.5060   25.2960  -30.4530 O   0  0  0  0  0  0  0  0  0  0  0  0
   -6.0703   25.6971  -28.4094 H   0  0  0  0  0  0  0  0  0  0  0  0
   -5.3716   26.7309  -29.7016 H   0  0  0  0  0  0  0  0  0  0  0  0
   -7.1288   26.3578  -29.7016 H   0  0  0  0  0  0  0  0  0  0  0  0
   -7.9279   24.0625  -30.2289 H   0  0  0  0  0  0  0  0  0  0  0  0
   -8.7270   18.7097  -31.8238 H   0  0  0  0  0  0  0  0  0  0  0  0
   -7.7317   16.4207  -31.8795 H   0  0  0  0  0  0  0  0  0  0  0  0
   -5.5462   16.0340  -33.0208 H   0  0  0  0  0  0  0  0  0  0  0  0
   -3.9448   20.3281  -32.2084 H   0  0  0  0  0  0  0  0  0  0  0  0
   -2.6781   21.2453  -30.2692 H   0  0  0  0  0  0  0  0  0  0  0  0
   -0.1881   21.3465  -30.3342 H   0  0  0  0  0  0  0  0  0  0  0  0
    1.0408   20.5716  -32.3624 H   0  0  0  0  0  0  0  0  0  0  0  0
   -1.3910   17.7800  -34.9280 H   0  0  0  0  0  0  0  0  0  0  0  0
   -5.2532   20.2636  -33.8822 H   0  0  0  0  0  0  0  0  0  0  0  0
   -5.1880   21.5371  -32.4339 H   0  0  0  0  0  0  0  0  0  0  0  0
   -3.3126   23.0729  -31.8610 H   0  0  0  0  0  0  0  0  0  0  0  0
  1  2  1  0
  2  3  2  0
  3  4  1  0
  4  5  1  0
  5  6  2  0
  5  7  1  0
  7  8  1  0
  8  9  2  0
  9 10  1  0
 10 11  2  0
 11 12  1  0
 12 13  1  0
 13 14  2  0
 13 15  2  0
 13 16  1  0
 16 17  1  0
 17 18  2  0
 18 19  1  0
 19 20  2  0
 20 21  1  0
 21 22  2  0
 22 23  1  0
 23 24  1  0
 23 25  2  0
 23 26  2  0
 12 27  2  0
  4 28  2  0
 28 29  1  0
 29 30  2  0
 30 31  1  0
 30  2  1  0
 27  8  1  0
 22 17  1  0
  1 32  1  0
  1 33  1  0
  1 34  1  0
  3 35  1  0
  9 36  1  0
 10 37  1  0
 11 38  1  0
 18 39  1  0
 19 40  1  0
 20 41  1  0
 21 42  1  0
 24 43  1  0
 27 44  1  0
 28 45  1  0
 29 46  1  0
M  CHG  4   7  -1  16  -1  24  -1  31  -1
M  END
>  <UniqueID>  (3) 
3

>  <SMILES>  (3) 
Cc1cc(C(=O)[N-]c2cccc(S(=O)(=O)[N-]c3ccccc3S([NH-])(=O)=O)c2)ccc1[O-]

>  <Energy>  (3) 
58.45077673025543

>  <Genealogy>  (3) 
Cc1cc(C(=O)[N-]c2cccc(S(=O)(=O)[N-]c3ccccc3S([NH-])(=O)=O)c2)ccc1[O-] (protonated)
Cc1cc(C(=O)[N-]c2cccc(S(=O)(=O)[N-]c3ccccc3S([NH-])(=O)=O)c2)ccc1[O-] (3D coordinates assigned)
Cc1cc(C(=O)[N-]c2cccc(S(=O)(=O)[N-]c3ccccc3S([NH-])(=O)=O)c2)ccc1[O-] (optimized conformer: 58.45077673025543 kcal/mol)

>  <smiles>  (3) 
Cc1cc(C(=O)Nc2cccc(S(=O)(=O)Nc3ccccc3S(N)(=O)=O)c2)ccc1O

>  <score_type>  (3) 
oracle

>  <origin>  (3) 
adgpu

>  <m_score__min__energy>  (3) 
-13.529999999999999

>  <m_primary>  (3) 
energy

$$$$
3:0
     RDKit          3D

 56 59  0  0  0  0  0  0  0  0999 V2000
   -0.7660   19.9380  -33.1780 C   0  0  0  0  0  0  0  0  0  0  0  0
   -1.2480   20.6490  -31.9420 C   0  0  0  0  0  0  0  0  0  0  0  0
   -0.3430   20.8460  -30.8850 C   0  0  0  0  0  0  0  0  0  0  0  0
   -0.7420   21.4890  -29.7130 C   0  0  0  0  0  0  0  0  0  0  0  0
   -2.0550   21.9450  -29.5760 C   0  0  0  0  0  0  0  0  0  0  0  0
   -2.5840   22.7140  -28.0810 S   0  0  0  0  0  0  0  0  0  0  0  0
   -3.1680   21.6980  -27.1410 O   0  0  0  0  0  0  0  0  0  0  0  0
   -1.3970   23.3640  -27.4290 O   0  0  0  0  0  0  0  0  0  0  0  0
   -3.7820   23.9200  -28.4280 N   0  0  0  0  0  0  0  0  0  0  0  0
   -4.7670   23.7760  -29.4670 C   0  0  0  0  0  0  0  0  0  0  0  0
   -5.7390   22.7590  -29.4140 C   0  0  0  0  0  0  0  0  0  0  0  0
   -6.6750   22.6140  -30.4460 C   0  0  0  0  0  0  0  0  0  0  0  0
   -6.6540   23.4900  -31.5390 C   0  0  0  0  0  0  0  0  0  0  0  0
   -5.6930   24.5080  -31.5970 C   0  0  0  0  0  0  0  0  0  0  0  0
   -4.7610   24.6560  -30.5660 C   0  0  0  0  0  0  0  0  0  0  0  0
   -3.8160   25.6720  -30.6500 O   0  0  0  0  0  0  0  0  0  0  0  0
   -7.6300   23.2670  -32.6630 C   0  0  0  0  0  0  0  0  0  0  0  0
   -9.0390   22.9350  -32.1310 C   0  0  0  0  0  0  0  0  0  0  0  0
   -9.0680   22.0540  -30.8540 C   0  0  0  0  0  0  0  0  0  0  0  0
   -7.6950   21.5100  -30.4320 C   0  0  0  0  0  0  0  0  0  0  0  0
   -2.9660   21.7570  -30.6200 C   0  0  0  0  0  0  0  0  0  0  0  0
   -2.5870   21.0960  -31.7980 C   0  0  0  0  0  0  0  0  0  0  0  0
   -3.8230   20.8770  -33.0600 S   0  0  0  0  0  0  0  0  0  0  0  0
   -3.2290   20.0380  -34.1560 O   0  0  0  0  0  0  0  0  0  0  0  0
   -4.1790   22.2080  -33.6640 O   0  0  0  0  0  0  0  0  0  0  0  0
   -5.2570   20.0520  -32.4740 N   0  0  0  0  0  0  0  0  0  0  0  0
   -4.9750   18.6400  -32.1700 C   0  0  0  0  0  0  0  0  0  0  0  0
   -6.2580   17.9210  -31.7040 C   0  0  0  0  0  0  0  0  0  0  0  0
   -7.3590   18.8070  -31.6320 O   0  0  0  0  0  0  0  0  0  0  0  0
   -7.5990   19.3730  -32.9080 C   0  0  0  0  0  0  0  0  0  0  0  0
   -6.3760   20.1600  -33.4220 C   0  0  0  0  0  0  0  0  0  0  0  0
   -0.1707   19.0599  -32.8872 H   0  0  0  0  0  0  0  0  0  0  0  0
   -1.6309   19.6133  -33.7750 H   0  0  0  0  0  0  0  0  0  0  0  0
   -0.1441   20.6212  -33.7750 H   0  0  0  0  0  0  0  0  0  0  0  0
    0.6928   20.4888  -30.9830 H   0  0  0  0  0  0  0  0  0  0  0  0
   -0.0212   21.6371  -28.8953 H   0  0  0  0  0  0  0  0  0  0  0  0
   -3.6840   24.8350  -27.9350 H   0  0  0  0  0  0  0  0  0  0  0  0
   -5.7637   22.0724  -28.5549 H   0  0  0  0  0  0  0  0  0  0  0  0
   -5.6720   25.1933  -32.4572 H   0  0  0  0  0  0  0  0  0  0  0  0
   -7.6849   24.1794  -33.2750 H   0  0  0  0  0  0  0  0  0  0  0  0
   -7.2776   22.4143  -33.2618 H   0  0  0  0  0  0  0  0  0  0  0  0
   -9.5496   23.8824  -31.9034 H   0  0  0  0  0  0  0  0  0  0  0  0
   -9.5347   22.3495  -32.9193 H   0  0  0  0  0  0  0  0  0  0  0  0
   -9.4683   22.6587  -30.0269 H   0  0  0  0  0  0  0  0  0  0  0  0
   -9.6955   21.1810  -31.0869 H   0  0  0  0  0  0  0  0  0  0  0  0
   -7.7655   21.0927  -29.4167 H   0  0  0  0  0  0  0  0  0  0  0  0
   -7.3860   20.7256  -31.1386 H   0  0  0  0  0  0  0  0  0  0  0  0
   -3.9946   22.1328  -30.5162 H   0  0  0  0  0  0  0  0  0  0  0  0
   -4.5905   18.1449  -33.0739 H   0  0  0  0  0  0  0  0  0  0  0  0
   -4.2276   18.5919  -31.3643 H   0  0  0  0  0  0  0  0  0  0  0  0
   -6.4941   17.1164  -32.4160 H   0  0  0  0  0  0  0  0  0  0  0  0
   -6.0774   17.5167  -30.6971 H   0  0  0  0  0  0  0  0  0  0  0  0
   -7.8278   18.5654  -33.6189 H   0  0  0  0  0  0  0  0  0  0  0  0
   -8.4441   20.0716  -32.8199 H   0  0  0  0  0  0  0  0  0  0  0  0
   -6.0662   19.7519  -34.3954 H   0  0  0  0  0  0  0  0  0  0  0  0
   -6.6531   21.2195  -33.5252 H   0  0  0  0  0  0  0  0  0  0  0  0
  1  2  1  0
  2  3  2  0
  3  4  1  0
  4  5  2  0
  5  6  1  0
  6  7  2  0
  6  8  2  0
  6  9  1  0
  9 10  1  0
 10 11  2  0
 11 12  1  0
 12 13  2  0
 13 14  1  0
 14 15  2  0
 15 16  1  0
 13 17  1  0
 17 18  1  0
 18 19  1  0
 19 20  1  0
  5 21  1  0
 21 22  2  0
 22 23  1  0
 23 24  2  0
 23 25  2  0
 23 26  1  0
 26 27  1  0
 27 28  1  0
 28 29  1  0
 29 30  1  0
 30 31  1  0
 22  2  1  0
 31 26  1  0
 15 10  1  0
 20 12  1  0
  1 32  1  0
  1 33  1  0
  1 34  1  0
  3 35  1  0
  4 36  1  0
  9 37  1  0
 11 38  1  0
 14 39  1  0
 17 40  1  0
 17 41  1  0
 18 42  1  0
 18 43  1  0
 19 44  1  0
 19 45  1  0
 20 46  1  0
 20 47  1  0
 21 48  1  0
 27 49  1  0
 27 50  1  0
 28 51  1  0
 28 52  1  0
 30 53  1  0
 30 54  1  0
 31 55  1  0
 31 56  1  0
M  CHG  1  16  -1
M  END
>  <UniqueID>  (4) 
4

>  <SMILES>  (4) 
Cc1ccc(S(=O)(=O)Nc2cc3c(cc2[O-])CCCC3)cc1S(=O)(=O)N1CCOCC1

>  <Energy>  (4) 
76.90906970071745

>  <Genealogy>  (4) 
Cc1ccc(S(=O)(=O)Nc2cc3c(cc2[O-])CCCC3)cc1S(=O)(=O)N1CCOCC1 (protonated)
Cc1ccc(S(=O)(=O)Nc2cc3c(cc2[O-])CCCC3)cc1S(=O)(=O)N1CCOCC1 (3D coordinates assigned)
Cc1ccc(S(=O)(=O)Nc2cc3c(cc2[O-])CCCC3)cc1S(=O)(=O)N1CCOCC1 (nonaromatic ring conformer: 76.90906970071745 kcal/mol)

>  <smiles>  (4) 
Cc1ccc(S(=O)(=O)Nc2cc3c(cc2O)CCCC3)cc1S(=O)(=O)N1CCOCC1

>  <score_type>  (4) 
oracle

>  <origin>  (4) 
adgpu

>  <m_score__min__energy>  (4) 
-14.460000000000001

>  <m_primary>  (4) 
energy

$$$$
4:0
     RDKit          3D

 59 62  0  0  0  0  0  0  0  0999 V2000
   -6.0550   26.0530  -30.1940 O   0  0  0  0  0  0  0  0  0  0  0  0
   -5.1540   24.8550  -30.1210 S   0  0  0  0  0  0  0  0  0  0  0  0
   -3.8750   25.1620  -30.8470 O   0  0  0  0  0  0  0  0  0  0  0  0
   -4.7940   24.5240  -28.4540 N   0  0  0  0  0  0  0  0  0  0  0  0
   -3.6830   23.7620  -27.9620 C   0  0  0  0  0  0  0  0  0  0  0  0
   -3.7900   22.3670  -27.9330 C   0  0  0  0  0  0  0  0  0  0  0  0
   -2.6970   21.5820  -27.5580 C   0  0  0  0  0  0  0  0  0  0  0  0
   -1.4830   22.1830  -27.2230 C   0  0  0  0  0  0  0  0  0  0  0  0
   -1.3700   23.5800  -27.2170 C   0  0  0  0  0  0  0  0  0  0  0  0
    0.1870   24.3400  -26.8770 S   0  0  0  0  0  0  0  0  0  0  0  0
    0.7680   24.8640  -28.1610 O   0  0  0  0  0  0  0  0  0  0  0  0
    1.1270   23.3000  -26.3340 O   0  0  0  0  0  0  0  0  0  0  0  0
    0.0470   25.6490  -25.7270 N   0  0  0  0  0  0  0  0  0  0  0  0
   -0.7170   26.7710  -26.3050 C   0  0  0  0  0  0  0  0  0  0  0  0
   -1.0100   27.8490  -25.2360 C   0  0  0  0  0  0  0  0  0  0  0  0
   -0.3180   27.5820  -24.0300 O   0  0  0  0  0  0  0  0  0  0  0  0
   -0.7640   26.3540  -23.4860 C   0  0  0  0  0  0  0  0  0  0  0  0
   -0.5780   25.1830  -24.4760 C   0  0  0  0  0  0  0  0  0  0  0  0
   -2.4840   24.3670  -27.5430 C   0  0  0  0  0  0  0  0  0  0  0  0
   -5.9790   23.4940  -30.8810 C   0  0  0  0  0  0  0  0  0  0  0  0
   -7.3490   23.5820  -31.1660 C   0  0  0  0  0  0  0  0  0  0  0  0
   -8.0470   22.4580  -31.6170 C   0  0  0  0  0  0  0  0  0  0  0  0
   -7.3790   21.2370  -31.7920 C   0  0  0  0  0  0  0  0  0  0  0  0
   -8.2750   19.7810  -32.2320 S   0  0  0  0  0  0  0  0  0  0  0  0
   -8.8110   19.1430  -30.9810 O   0  0  0  0  0  0  0  0  0  0  0  0
   -9.4480   20.1620  -33.0950 O   0  0  0  0  0  0  0  0  0  0  0  0
   -7.2810   18.6270  -33.0830 N   0  0  0  0  0  0  0  0  0  0  0  0
   -6.5490   17.7750  -32.1340 C   0  0  0  0  0  0  0  0  0  0  0  0
   -5.6300   16.8020  -32.8980 C   0  0  0  0  0  0  0  0  0  0  0  0
   -5.7650   16.9480  -34.2990 O   0  0  0  0  0  0  0  0  0  0  0  0
   -5.4340   18.2720  -34.6770 C   0  0  0  0  0  0  0  0  0  0  0  0
   -6.3370   19.3090  -33.9780 C   0  0  0  0  0  0  0  0  0  0  0  0
   -6.0010   21.1640  -31.5510 C   0  0  0  0  0  0  0  0  0  0  0  0
   -5.3030   22.2870  -31.1030 C   0  0  0  0  0  0  0  0  0  0  0  0
   -4.7404   21.8857  -28.2071 H   0  0  0  0  0  0  0  0  0  0  0  0
   -2.7936   20.4867  -27.5267 H   0  0  0  0  0  0  0  0  0  0  0  0
   -0.6143   21.5601  -26.9635 H   0  0  0  0  0  0  0  0  0  0  0  0
    1.0210   25.9730  -25.5180 H   0  0  0  0  0  0  0  0  0  0  0  0
   -0.1326   27.2222  -27.1204 H   0  0  0  0  0  0  0  0  0  0  0  0
   -1.6741   26.3848  -26.6856 H   0  0  0  0  0  0  0  0  0  0  0  0
   -0.6935   28.8298  -25.6206 H   0  0  0  0  0  0  0  0  0  0  0  0
   -2.0895   27.8425  -25.0245 H   0  0  0  0  0  0  0  0  0  0  0  0
   -0.1905   26.1411  -22.5718 H   0  0  0  0  0  0  0  0  0  0  0  0
   -1.8381   26.4482  -23.2680 H   0  0  0  0  0  0  0  0  0  0  0  0
    0.0651   24.4192  -24.0144 H   0  0  0  0  0  0  0  0  0  0  0  0
   -1.5659   24.7605  -24.7117 H   0  0  0  0  0  0  0  0  0  0  0  0
   -2.4200   25.4628  -27.4707 H   0  0  0  0  0  0  0  0  0  0  0  0
   -7.8761   24.5384  -31.0343 H   0  0  0  0  0  0  0  0  0  0  0  0
   -9.1227   22.5312  -31.8352 H   0  0  0  0  0  0  0  0  0  0  0  0
   -5.9394   18.4077  -31.4721 H   0  0  0  0  0  0  0  0  0  0  0  0
   -7.2704   17.1968  -31.5379 H   0  0  0  0  0  0  0  0  0  0  0  0
   -4.5856   17.0030  -32.6173 H   0  0  0  0  0  0  0  0  0  0  0  0
   -5.9186   15.7749  -32.6302 H   0  0  0  0  0  0  0  0  0  0  0  0
   -4.3870   18.4694  -34.4034 H   0  0  0  0  0  0  0  0  0  0  0  0
   -5.5827   18.3653  -35.7629 H   0  0  0  0  0  0  0  0  0  0  0  0
   -5.7131   19.9999  -33.3920 H   0  0  0  0  0  0  0  0  0  0  0  0
   -6.8998   19.8703  -34.7384 H   0  0  0  0  0  0  0  0  0  0  0  0
   -5.4661   20.2170  -31.7156 H   0  0  0  0  0  0  0  0  0  0  0  0
   -4.2195   22.2241  -30.9238 H   0  0  0  0  0  0  0  0  0  0  0  0
  1  2  2  0
  2  3  2  0
  2  4  1  0
  4  5  1  0
  5  6  2  0
  6  7  1  0
  7  8  2  0
  8  9  1  0
  9 10  1  0
 10 11  2  0
 10 12  2  0
 10 13  1  0
 13 14  1  0
 14 15  1  0
 15 16  1  0
 16 17  1  0
 17 18  1  0
  9 19  2  0
  2 20  1  0
 20 21  2  0
 21 22  1  0
 22 23  2  0
 23 24  1  0
 24 25  2  0
 24 26  2  0
 24 27  1  0
 27 28  1  0
 28 29  1  0
 29 30  1  0
 30 31  1  0
 31 32  1  0
 23 33  1  0
 33 34  2  0
 19  5  1  0
 34 20  1  0
 18 13  1  0
 32 27  1  0
  6 35  1  0
  7 36  1  0
  8 37  1  0
 13 38  1  0
 14 39  1  0
 14 40  1  0
 15 41  1  0
 15 42  1  0
 17 43  1  0
 17 44  1  0
 18 45  1  0
 18 46  1  0
 19 47  1  0
 21 48  1  0
 22 49  1  0
 28 50  1  0
 28 51  1  0
 29 52  1  0
 29 53  1  0
 31 54  1  0
 31 55  1  0
 32 56  1  0
 32 57  1  0
 33 58  1  0
 34 59  1  0
M  CHG  2   4  -1  13   1
M  END
>  <UniqueID>  (5) 
5

>  <SMILES>  (5) 
O=S(=O)([N-]c1cccc(S(=O)(=O)[NH+]2CCOCC2)c1)c1ccc(S(=O)(=O)N2CCOCC2)cc1

>  <Energy>  (5) 
79.61100490437072

>  <Genealogy>  (5) 
O=S(=O)([N-]c1cccc(S(=O)(=O)[NH+]2CCOCC2)c1)c1ccc(S(=O)(=O)N2CCOCC2)cc1 (protonated)
O=S(=O)([N-]c1cccc(S(=O)(=O)[NH+]2CCOCC2)c1)c1ccc(S(=O)(=O)N2CCOCC2)cc1 (3D coordinates assigned)
O=S(=O)([N-]c1cccc(S(=O)(=O)[NH+]2CCOCC2)c1)c1ccc(S(=O)(=O)N2CCOCC2)cc1 (nonaromatic ring conformer: 79.61100490437072 kcal/mol)

>  <smiles>  (5) 
O=S(=O)(Nc1cccc(S(=O)(=O)N2CCOCC2)c1)c1ccc(S(=O)(=O)N2CCOCC2)cc1

>  <score_type>  (5) 
oracle

>  <origin>  (5) 
adgpu

>  <m_score__min__energy>  (5) 
-11.869999999999999

>  <m_primary>  (5) 
energy

$$$$
5:0
     RDKit          3D

 48 50  0  0  0  0  0  0  0  0999 V2000
   -1.0650   23.2560  -29.1130 C   0  0  0  0  0  0  0  0  0  0  0  0
   -2.0440   22.5430  -29.9240 N   0  0  0  0  0  0  0  0  0  0  0  0
   -2.8470   23.1520  -30.7790 N   0  0  0  0  0  0  0  0  0  0  0  0
   -3.6420   22.2180  -31.3400 C   0  0  0  0  0  0  0  0  0  0  0  0
   -4.5930   22.4900  -32.4810 C   0  0  0  0  0  0  0  0  0  0  0  0
   -5.9670   22.9000  -32.0780 N   0  0  2  0  0  0  0  0  0  0  0  0
   -6.0840   24.3580  -31.8110 C   0  0  0  0  0  0  0  0  0  0  0  0
   -5.3540   24.7970  -30.5290 C   0  0  0  0  0  0  0  0  0  0  0  0
   -4.2140   25.5460  -30.8480 O   0  0  0  0  0  0  0  0  0  0  0  0
   -6.5660   22.0210  -31.0350 C   0  0  0  0  0  0  0  0  0  0  0  0
   -7.1060   20.6980  -31.5380 C   0  0  0  0  0  0  0  0  0  0  0  0
   -6.2200   19.6930  -31.9610 C   0  0  0  0  0  0  0  0  0  0  0  0
   -6.7060   18.4820  -32.4590 C   0  0  0  0  0  0  0  0  0  0  0  0
   -8.0810   18.2660  -32.5510 C   0  0  0  0  0  0  0  0  0  0  0  0
   -8.9730   19.2720  -32.1680 C   0  0  0  0  0  0  0  0  0  0  0  0
   -8.4870   20.4900  -31.6800 C   0  0  0  0  0  0  0  0  0  0  0  0
   -3.2980   20.9680  -30.8590 C   0  0  0  0  0  0  0  0  0  0  0  0
   -2.2770   21.2120  -29.9610 C   0  0  0  0  0  0  0  0  0  0  0  0
   -1.5530   20.1800  -29.1890 C   0  0  0  0  0  0  0  0  0  0  0  0
   -1.9230   19.8700  -27.8710 C   0  0  0  0  0  0  0  0  0  0  0  0
   -1.2280   18.8920  -27.1530 C   0  0  0  0  0  0  0  0  0  0  0  0
   -0.1530   18.2220  -27.7410 C   0  0  0  0  0  0  0  0  0  0  0  0
    0.5140   17.2680  -27.0450 F   0  0  0  0  0  0  0  0  0  0  0  0
    0.2380   18.5400  -29.0430 C   0  0  0  0  0  0  0  0  0  0  0  0
   -0.4530   19.5210  -29.7630 C   0  0  0  0  0  0  0  0  0  0  0  0
   -1.2852   23.0957  -28.0473 H   0  0  0  0  0  0  0  0  0  0  0  0
   -0.0568   22.8792  -29.3399 H   0  0  0  0  0  0  0  0  0  0  0  0
   -1.1142   24.3312  -29.3399 H   0  0  0  0  0  0  0  0  0  0  0  0
   -4.1646   23.2948  -33.0965 H   0  0  0  0  0  0  0  0  0  0  0  0
   -4.7045   21.5370  -33.0189 H   0  0  0  0  0  0  0  0  0  0  0  0
   -6.5440   22.7220  -32.9360 H   0  0  0  0  0  0  0  0  0  0  0  0
   -5.6551   24.9056  -32.6632 H   0  0  0  0  0  0  0  0  0  0  0  0
   -7.1522   24.5818  -31.6735 H   0  0  0  0  0  0  0  0  0  0  0  0
   -6.0320   25.4112  -29.9182 H   0  0  0  0  0  0  0  0  0  0  0  0
   -5.0472   23.9014  -29.9688 H   0  0  0  0  0  0  0  0  0  0  0  0
   -3.5590   24.9160  -31.2470 H   0  0  0  0  0  0  0  0  0  0  0  0
   -5.7915   21.8086  -30.2833 H   0  0  0  0  0  0  0  0  0  0  0  0
   -7.4302   22.5701  -30.6329 H   0  0  0  0  0  0  0  0  0  0  0  0
   -5.1347   19.8613  -31.8995 H   0  0  0  0  0  0  0  0  0  0  0  0
   -6.0039   17.6980  -32.7789 H   0  0  0  0  0  0  0  0  0  0  0  0
   -8.4632   17.3046  -32.9247 H   0  0  0  0  0  0  0  0  0  0  0  0
  -10.0573   19.1060  -32.2503 H   0  0  0  0  0  0  0  0  0  0  0  0
   -9.1913   21.2893  -31.4060 H   0  0  0  0  0  0  0  0  0  0  0  0
   -3.7385   19.9973  -31.1305 H   0  0  0  0  0  0  0  0  0  0  0  0
   -2.7645   20.3995  -27.4003 H   0  0  0  0  0  0  0  0  0  0  0  0
   -1.5286   18.6499  -26.1229 H   0  0  0  0  0  0  0  0  0  0  0  0
    1.0903   18.0188  -29.5034 H   0  0  0  0  0  0  0  0  0  0  0  0
   -0.1332   19.7775  -30.7838 H   0  0  0  0  0  0  0  0  0  0  0  0
  1  2  1  0
  2  3  1  0
  3  4  2  0
  4  5  1  0
  5  6  1  0
  6  7  1  0
  7  8  1  0
  8  9  1  0
  6 10  1  0
 10 11  1  0
 11 12  2  0
 12 13  1  0
 13 14  2  0
 14 15  1  0
 15 16  2  0
  4 17  1  0
 17 18  2  0
 18 19  1  0
 19 20  2  0
 20 21  1  0
 21 22  2  0
 22 23  1  0
 22 24  1  0
 24 25  2  0
 18  2  1  0
 25 19  1  0
 16 11  1  0
  1 26  1  0
  1 27  1  0
  1 28  1  0
  5 29  1  0
  5 30  1  0
  6 31  1  6
  7 32  1  0
  7 33  1  0
  8 34  1  0
  8 35  1  0
  9 36  1  0
 10 37  1  0
 10 38  1  0
 12 39  1  0
 13 40  1  0
 14 41  1  0
 15 42  1  0
 16 43  1  0
 17 44  1  0
 20 45  1  0
 21 46  1  0
 24 47  1  0
 25 48  1  0
M  CHG  1   6   1
M  END
>  <UniqueID>  (6) 
6

>  <SMILES>  (6) 
Cn1nc(C[N@H+](CCO)Cc2ccccc2)cc1-c1ccc(F)cc1

>  <Energy>  (6) 
90.93946039763252

>  <Genealogy>  (6) 
Cn1nc(C[NH+](CCO)Cc2ccccc2)cc1-c1ccc(F)cc1 (protonated)
Cn1nc(C[N@H+](CCO)Cc2ccccc2)cc1-c1ccc(F)cc1 (chirality)
Cn1nc(C[N@H+](CCO)Cc2ccccc2)cc1-c1ccc(F)cc1 (3D coordinates assigned)
Cn1nc(C[N@H+](CCO)Cc2ccccc2)cc1-c1ccc(F)cc1 (optimized conformer: 90.93946039763252 kcal/mol)

>  <smiles>  (6) 
Cn1nc(CN(CCO)Cc2ccccc2)cc1-c1ccc(F)cc1

>  <score_type>  (6) 
oracle

>  <origin>  (6) 
adgpu

>  <m_score__min__energy>  (6) 
-7.5800000000000001

>  <m_primary>  (6) 
energy

$$$$
6:0
     RDKit          3D

 33 35  0  0  0  0  0  0  0  0999 V2000
   -3.9707   22.7147  -32.9070 H   0  0  0  0  0  0  0  0  0  0  0  0
   -3.8240   21.7310  -33.3770 C   0  0  0  0  0  0  0  0  0  0  0  0
   -3.0831   21.6106  -34.1811 H   0  0  0  0  0  0  0  0  0  0  0  0
   -4.5460   20.6820  -32.9710 C   0  0  0  0  0  0  0  0  0  0  0  0
   -5.6110   20.6510  -32.0550 C   0  0  0  0  0  0  0  0  0  0  0  0
   -6.1160   21.5940  -31.2350 C   0  0  0  0  0  0  0  0  0  0  0  0
   -7.0840   21.3820  -30.7574 H   0  0  0  0  0  0  0  0  0  0  0  0
   -5.4780   22.8850  -30.9260 C   0  0  0  0  0  0  0  0  0  0  0  0
   -4.1700   22.9110  -30.4250 C   0  0  0  0  0  0  0  0  0  0  0  0
   -3.6359   21.9716  -30.2193 H   0  0  0  0  0  0  0  0  0  0  0  0
   -3.5500   24.1400  -30.1890 C   0  0  0  0  0  0  0  0  0  0  0  0
   -2.5301   24.1701  -29.7780 H   0  0  0  0  0  0  0  0  0  0  0  0
   -4.2040   25.2990  -30.4660 N   0  0  0  0  0  0  0  0  0  0  0  0
   -5.4630   25.3020  -30.9800 C   0  0  0  0  0  0  0  0  0  0  0  0
   -5.9648   26.2562  -31.1984 H   0  0  0  0  0  0  0  0  0  0  0  0
   -6.1200   24.0950  -31.2310 C   0  0  0  0  0  0  0  0  0  0  0  0
   -7.1313   24.0931  -31.6638 H   0  0  0  0  0  0  0  0  0  0  0  0
   -6.0850   19.3510  -32.1550 C   0  0  0  0  0  0  0  0  0  0  0  0
   -7.0400   18.8660  -31.4880 O   0  0  0  0  0  0  0  0  0  0  0  0
   -5.3390   18.6510  -33.0350 N   0  0  0  0  0  0  0  0  0  0  0  0
   -5.4950   17.2700  -33.4150 C   0  0  0  0  0  0  0  0  0  0  0  0
   -6.7430   16.7960  -33.8540 C   0  0  0  0  0  0  0  0  0  0  0  0
   -7.5993   17.4840  -33.9125 H   0  0  0  0  0  0  0  0  0  0  0  0
   -6.9030   15.4550  -34.2170 C   0  0  0  0  0  0  0  0  0  0  0  0
   -7.8823   15.0927  -34.5629 H   0  0  0  0  0  0  0  0  0  0  0  0
   -5.8210   14.5750  -34.1410 C   0  0  0  0  0  0  0  0  0  0  0  0
   -5.9478   13.5212  -34.4300 H   0  0  0  0  0  0  0  0  0  0  0  0
   -4.5780   15.0330  -33.6980 C   0  0  0  0  0  0  0  0  0  0  0  0
   -3.7274   14.3383  -33.6354 H   0  0  0  0  0  0  0  0  0  0  0  0
   -4.4130   16.3730  -33.3340 C   0  0  0  0  0  0  0  0  0  0  0  0
   -3.4329   16.7280  -32.9826 H   0  0  0  0  0  0  0  0  0  0  0  0
   -4.4030   19.4550  -33.5160 N   0  0  0  0  0  0  0  0  0  0  0  0
   -3.7100   19.1850  -34.2520 H   0  0  0  0  0  0  0  0  0  0  0  0
  1  2  1  0
  2  3  1  0
  2  4  2  0
  4  5  1  0
  5  6  2  0
  6  7  1  0
  6  8  1  0
  8  9  2  0
  9 10  1  0
  9 11  1  0
 11 12  1  0
 11 13  2  0
 13 14  1  0
 14 15  1  0
 14 16  2  0
 16 17  1  0
  5 18  1  0
 18 19  2  0
 18 20  1  0
 20 21  1  0
 21 22  2  0
 22 23  1  0
 22 24  1  0
 24 25  1  0
 24 26  2  0
 26 27  1  0
 26 28  1  0
 28 29  1  0
 28 30  2  0
 30 31  1  0
 20 32  1  0
 32 33  1  0
 32  4  1  0
 16  8  1  0
 30 21  1  0
M  END
>  <UniqueID>  (7) 
7

>  <SMILES>  (7) 
C=c1[nH]n(-c2ccccc2)c(=O)/c1=C/c1ccncc1

>  <Energy>  (7) 
87.23998513452622

>  <Genealogy>  (7) 
C=c1[nH]n(-c2ccccc2)c(=O)/c1=C/c1ccncc1 (cis-trans isomerization)
C=c1[nH]n(-c2ccccc2)c(=O)/c1=C/c1ccncc1 (3D coordinates assigned)
C=c1[nH]n(-c2ccccc2)c(=O)/c1=C/c1ccncc1 (optimized conformer: 87.23998513452622 kcal/mol)

>  <smiles>  (7) 
C=c1[nH]n(-c2ccccc2)c(=O)c1=Cc1ccncc1

>  <score_type>  (7) 
oracle

>  <origin>  (7) 
adgpu

>  <m_score__min__energy>  (7) 
-6.8899999999999997

>  <m_primary>  (7) 
energy

$$$$
7:0
     RDKit          3D

 63 66  0  0  0  0  0  0  0  0999 V2000
    0.1970   25.6350  -26.3270 C   0  0  0  0  0  0  0  0  0  0  0  0
   -0.8860   25.3590  -27.3140 C   0  0  0  0  0  0  0  0  0  0  0  0
   -2.1490   24.8830  -27.0240 C   0  0  0  0  0  0  0  0  0  0  0  0
   -2.7460   24.8380  -28.2640 C   0  0  0  0  0  0  0  0  0  0  0  0
   -3.9650   24.4530  -28.4810 N   0  0  0  0  0  0  0  0  0  0  0  0
   -4.6840   24.4300  -30.0570 S   0  0  0  0  0  0  0  0  0  0  0  0
   -4.2360   25.6340  -30.8380 O   0  0  0  0  0  0  0  0  0  0  0  0
   -6.1790   24.4890  -29.9170 O   0  0  0  0  0  0  0  0  0  0  0  0
   -4.2410   22.9500  -30.9030 C   0  0  0  0  0  0  0  0  0  0  0  0
   -3.4260   22.0000  -30.2730 C   0  0  0  0  0  0  0  0  0  0  0  0
   -3.0900   20.8130  -30.9300 C   0  0  0  0  0  0  0  0  0  0  0  0
   -3.5450   20.5700  -32.2340 C   0  0  0  0  0  0  0  0  0  0  0  0
   -3.2290   19.3220  -32.8690 N   0  0  0  0  0  0  0  0  0  0  0  0
   -1.8900   18.8570  -33.1060 C   0  0  0  0  0  0  0  0  0  0  0  0
   -0.9010   19.5220  -32.6980 O   0  0  0  0  0  0  0  0  0  0  0  0
   -1.6540   17.6060  -33.8550 C   0  0  0  0  0  0  0  0  0  0  0  0
   -2.3560   16.4550  -33.4620 C   0  0  0  0  0  0  0  0  0  0  0  0
   -2.1350   15.2280  -34.0960 C   0  0  0  0  0  0  0  0  0  0  0  0
   -3.0280   13.8030  -33.5730 S   0  0  0  0  0  0  0  0  0  0  0  0
   -2.6440   12.6060  -34.3990 O   0  0  0  0  0  0  0  0  0  0  0  0
   -2.6850   13.5010  -32.1410 O   0  0  0  0  0  0  0  0  0  0  0  0
   -4.7400   14.0970  -33.7240 N   0  0  0  0  0  0  0  0  0  0  0  0
   -5.6120   13.0100  -34.1660 C   0  0  0  0  0  0  0  0  0  0  0  0
   -5.3120   15.3920  -33.4530 C   0  0  0  0  0  0  0  0  0  0  0  0
   -5.3660   15.9130  -32.1480 C   0  0  0  0  0  0  0  0  0  0  0  0
   -5.9430   17.1640  -31.9280 C   0  0  0  0  0  0  0  0  0  0  0  0
   -6.4690   17.8920  -33.0000 C   0  0  0  0  0  0  0  0  0  0  0  0
   -7.1930   19.4720  -32.7180 S   0  0  0  0  0  0  0  0  0  0  0  0
   -8.9120   19.3120  -32.6430 N   0  0  0  0  0  0  0  0  0  0  0  0
   -6.6950   20.0510  -31.4230 O   0  0  0  0  0  0  0  0  0  0  0  0
   -6.8210   20.3980  -33.8420 O   0  0  0  0  0  0  0  0  0  0  0  0
   -6.4110   17.3400  -34.2850 C   0  0  0  0  0  0  0  0  0  0  0  0
   -5.8440   16.1190  -34.4760 N   0  0  0  0  0  0  0  0  0  0  0  0
   -1.2030   15.1470  -35.1370 C   0  0  0  0  0  0  0  0  0  0  0  0
   -0.5200   16.2870  -35.5590 C   0  0  0  0  0  0  0  0  0  0  0  0
   -0.7530   17.5310  -34.9480 C   0  0  0  0  0  0  0  0  0  0  0  0
   -0.0290   18.7380  -35.4840 C   0  0  0  0  0  0  0  0  0  0  0  0
   -4.3680   21.5220  -32.8630 C   0  0  0  0  0  0  0  0  0  0  0  0
   -4.7080   22.7060  -32.2020 C   0  0  0  0  0  0  0  0  0  0  0  0
   -1.8930   25.2580  -29.2210 N   0  0  0  0  0  0  0  0  0  0  0  0
   -0.7850   25.5650  -28.6090 O   0  0  0  0  0  0  0  0  0  0  0  0
   -0.2019   25.5333  -25.3069 H   0  0  0  0  0  0  0  0  0  0  0  0
    1.0177   24.9173  -26.4730 H   0  0  0  0  0  0  0  0  0  0  0  0
    0.5741   26.6580  -26.4730 H   0  0  0  0  0  0  0  0  0  0  0  0
   -2.5726   24.6083  -26.0467 H   0  0  0  0  0  0  0  0  0  0  0  0
   -3.0491   22.1893  -29.2571 H   0  0  0  0  0  0  0  0  0  0  0  0
   -2.4647   20.0647  -30.4210 H   0  0  0  0  0  0  0  0  0  0  0  0
   -4.0270   18.7040  -33.1350 H   0  0  0  0  0  0  0  0  0  0  0  0
   -3.0894   16.5192  -32.6447 H   0  0  0  0  0  0  0  0  0  0  0  0
   -6.0269   12.4928  -33.2883 H   0  0  0  0  0  0  0  0  0  0  0  0
   -6.4332   13.4217  -34.7711 H   0  0  0  0  0  0  0  0  0  0  0  0
   -5.0320   12.2977  -34.7711 H   0  0  0  0  0  0  0  0  0  0  0  0
   -4.9556   15.3374  -31.3053 H   0  0  0  0  0  0  0  0  0  0  0  0
   -5.9843   17.5784  -30.9099 H   0  0  0  0  0  0  0  0  0  0  0  0
   -9.2580   19.2780  -33.6270 H   0  0  0  0  0  0  0  0  0  0  0  0
   -6.8243   17.8942  -35.1406 H   0  0  0  0  0  0  0  0  0  0  0  0
   -1.0086   14.1801  -35.6242 H   0  0  0  0  0  0  0  0  0  0  0  0
    0.2092   16.2119  -36.3791 H   0  0  0  0  0  0  0  0  0  0  0  0
    0.3371   19.3484  -34.6453 H   0  0  0  0  0  0  0  0  0  0  0  0
    0.8225   18.4116  -36.0991 H   0  0  0  0  0  0  0  0  0  0  0  0
   -0.7179   19.3356  -36.0991 H   0  0  0  0  0  0  0  0  0  0  0  0
   -4.7455   21.3340  -33.8790 H   0  0  0  0  0  0  0  0  0  0  0  0
   -5.3449   23.4495  -32.7035 H   0  0  0  0  0  0  0  0  0  0  0  0
  1  2  1  0
  2  3  2  0
  3  4  1  0
  4  5  2  3
  5  6  1  0
  6  7  2  0
  6  8  2  0
  6  9  1  0
  9 10  2  0
 10 11  1  0
 11 12  2  0
 12 13  1  0
 13 14  1  0
 14 15  2  0
 14 16  1  0
 16 17  2  0
 17 18  1  0
 18 19  1  0
 19 20  2  0
 19 21  2  0
 19 22  1  0
 22 23  1  0
 22 24  1  0
 24 25  2  0
 25 26  1  0
 26 27  2  0
 27 28  1  0
 28 29  1  0
 28 30  2  0
 28 31  2  0
 27 32  1  0
 32 33  2  0
 18 34  2  0
 34 35  1  0
 35 36  2  0
 36 37  1  0
 12 38  1  0
 38 39  2  0
  4 40  1  0
 40 41  1  0
 41  2  1  0
 39  9  1  0
 36 16  1  0
 33 24  1  0
  1 42  1  0
  1 43  1  0
  1 44  1  0
  3 45  1  0
 10 46  1  0
 11 47  1  0
 13 48  1  0
 17 49  1  0
 23 50  1  0
 23 51  1  0
 23 52  1  0
 25 53  1  0
 26 54  1  0
 29 55  1  0
 32 56  1  0
 34 57  1  0
 35 58  1  0
 37 59  1  0
 37 60  1  0
 37 61  1  0
 38 62  1  0
 39 63  1  0
M  CHG  2  29  -1  40  -1
M  END
>  <UniqueID>  (8) 
8

>  <SMILES>  (8) 
Cc1cc(=NS(=O)(=O)c2ccc(NC(=O)c3cc(S(=O)(=O)N(C)c4ccc(S([NH-])(=O)=O)cn4)ccc3C)cc2)[n-]o1

>  <Energy>  (8) 
113.21396443287266

>  <Genealogy>  (8) 
Cc1cc(=NS(=O)(=O)c2ccc(NC(=O)c3cc(S(=O)(=O)N(C)c4ccc(S([NH-])(=O)=O)cn4)ccc3C)cc2)[n-]o1 (protonated)
Cc1cc(=NS(=O)(=O)c2ccc(NC(=O)c3cc(S(=O)(=O)N(C)c4ccc(S([NH-])(=O)=O)cn4)ccc3C)cc2)[n-]o1 (3D coordinates assigned)
Cc1cc(=NS(=O)(=O)c2ccc(NC(=O)c3cc(S(=O)(=O)N(C)c4ccc(S([NH-])(=O)=O)cn4)ccc3C)cc2)[n-]o1 (optimized conformer: 113.21396443287266 kcal/mol)

>  <smiles>  (8) 
Cc1cc(=NS(=O)(=O)c2ccc(NC(=O)c3cc(S(=O)(=O)N(C)c4ccc(S(N)(=O)=O)cn4)ccc3C)cc2)[nH]o1

>  <score_type>  (8) 
oracle

>  <origin>  (8) 
adgpu

>  <m_score__min__energy>  (8) 
-14.34

>  <m_primary>  (8) 
energy

$$$$
8:0
     RDKit          3D

 37 38  0  0  0  0  0  0  0  0999 V2000
   -3.5750   25.6680  -29.8660 H   0  0  0  0  0  0  0  0  0  0  0  0
   -4.0610   25.6770  -30.7910 N   0  0  0  0  0  0  0  0  0  0  0  0
   -4.9690   24.2110  -30.8980 S   0  0  0  0  0  0  0  0  0  0  0  0
   -5.6860   24.1640  -32.2190 O   0  0  0  0  0  0  0  0  0  0  0  0
   -5.9880   24.1680  -29.7940 O   0  0  0  0  0  0  0  0  0  0  0  0
   -3.8800   22.8340  -30.7590 C   0  0  0  0  0  0  0  0  0  0  0  0
   -4.3920   21.5300  -30.7630 C   0  0  0  0  0  0  0  0  0  0  0  0
   -5.4752   21.3672  -30.8633 H   0  0  0  0  0  0  0  0  0  0  0  0
   -3.5320   20.4350  -30.6400 C   0  0  0  0  0  0  0  0  0  0  0  0
   -3.9410   19.4139  -30.6467 H   0  0  0  0  0  0  0  0  0  0  0  0
   -2.1490   20.6330  -30.5080 C   0  0  0  0  0  0  0  0  0  0  0  0
   -1.2180   19.4620  -30.3490 C   0  0  0  0  0  0  0  0  0  0  0  0
   -1.7127   18.5525  -30.7205 H   0  0  0  0  0  0  0  0  0  0  0  0
   -0.3004   19.6547  -30.9242 H   0  0  0  0  0  0  0  0  0  0  0  0
   -0.8670   19.2790  -28.9450 N   0  0  0  0  0  0  0  0  0  0  0  0
   -1.6600   19.7680  -27.8590 C   0  0  0  0  0  0  0  0  0  0  0  0
   -2.8890   19.9970  -28.0270 O   0  0  0  0  0  0  0  0  0  0  0  0
   -1.0000   20.0540  -26.5690 C   0  0  0  0  0  0  0  0  0  0  0  0
   -0.8555   19.2085  -25.8803 H   0  0  0  0  0  0  0  0  0  0  0  0
   -0.5610   21.2570  -26.1640 C   0  0  0  0  0  0  0  0  0  0  0  0
    0.0402   21.2912  -25.2434 H   0  0  0  0  0  0  0  0  0  0  0  0
   -0.8190   22.5380  -26.8530 C   0  0  0  0  0  0  0  0  0  0  0  0
    0.2360   23.3100  -27.3720 C   0  0  0  0  0  0  0  0  0  0  0  0
    1.2764   22.9805  -27.2338 H   0  0  0  0  0  0  0  0  0  0  0  0
   -0.0340   24.4950  -28.0630 C   0  0  0  0  0  0  0  0  0  0  0  0
    0.7953   25.1047  -28.4511 H   0  0  0  0  0  0  0  0  0  0  0  0
   -1.3540   24.9070  -28.2620 C   0  0  0  0  0  0  0  0  0  0  0  0
   -1.6120   26.0890  -28.9490 O   0  0  0  0  0  0  0  0  0  0  0  0
   -2.4130   24.1310  -27.7750 C   0  0  0  0  0  0  0  0  0  0  0  0
   -3.7270   24.5430  -27.9860 O   0  0  0  0  0  0  0  0  0  0  0  0
   -3.9980   25.0410  -28.8260 H   0  0  0  0  0  0  0  0  0  0  0  0
   -2.1430   22.9410  -27.0810 C   0  0  0  0  0  0  0  0  0  0  0  0
   -2.9743   22.3212  -26.7140 H   0  0  0  0  0  0  0  0  0  0  0  0
   -1.6400   21.9410  -30.4900 C   0  0  0  0  0  0  0  0  0  0  0  0
   -0.5583   22.1056  -30.3770 H   0  0  0  0  0  0  0  0  0  0  0  0
   -2.5010   23.0360  -30.6150 C   0  0  0  0  0  0  0  0  0  0  0  0
   -2.0947   24.0581  -30.6002 H   0  0  0  0  0  0  0  0  0  0  0  0
  1  2  1  0
  2  3  1  0
  3  4  2  0
  3  5  2  0
  3  6  1  0
  6  7  2  0
  7  8  1  0
  7  9  1  0
  9 10  1  0
  9 11  2  0
 11 12  1  0
 12 13  1  0
 12 14  1  0
 12 15  1  0
 15 16  1  0
 16 17  2  0
 16 18  1  0
 18 19  1  0
 18 20  2  0
 20 21  1  0
 20 22  1  0
 22 23  2  0
 23 24  1  0
 23 25  1  0
 25 26  1  0
 25 27  2  0
 27 28  1  0
 27 29  1  0
 29 30  1  0
 30 31  1  0
 29 32  2  0
 32 33  1  0
 11 34  1  0
 34 35  1  0
 34 36  2  0
 36 37  1  0
 36  6  1  0
 32 22  1  0
M  CHG  3   2  -1  15  -1  28  -1
M  END
>  <UniqueID>  (9) 
9

>  <SMILES>  (9) 
[NH-]S(=O)(=O)c1ccc(C[N-]C(=O)/C=C\c2ccc([O-])c(O)c2)cc1

>  <Energy>  (9) 
42.102344543740045

>  <Genealogy>  (9) 
[NH-]S(=O)(=O)c1ccc(C[N-]C(=O)C=Cc2ccc([O-])c(O)c2)cc1 (protonated)
[NH-]S(=O)(=O)c1ccc(C[N-]C(=O)/C=C\c2ccc([O-])c(O)c2)cc1 (cis-trans isomerization)
[NH-]S(=O)(=O)c1ccc(C[N-]C(=O)/C=C\c2ccc([O-])c(O)c2)cc1 (3D coordinates assigned)
[NH-]S(=O)(=O)c1ccc(C[N-]C(=O)/C=C\c2ccc([O-])c(O)c2)cc1 (optimized conformer: 42.102344543740045 kcal/mol)

>  <smiles>  (9) 
NS(=O)(=O)c1ccc(CNC(=O)C=Cc2ccc(O)c(O)c2)cc1

>  <score_type>  (9) 
oracle

>  <origin>  (9) 
adgpu

>  <m_score__min__energy>  (9) 
-11.57

>  <m_primary>  (9) 
energy

$$$$
9:0
     RDKit          3D

 55 58  0  0  0  0  0  0  0  0999 V2000
    0.9390   26.8470  -23.7440 C   0  0  0  0  0  0  0  0  0  0  0  0
    0.0420   26.3970  -24.8590 C   0  0  0  0  0  0  0  0  0  0  0  0
   -0.0360   27.1420  -26.0440 C   0  0  0  0  0  0  0  0  0  0  0  0
   -0.8420   26.7060  -27.1010 C   0  0  0  0  0  0  0  0  0  0  0  0
   -1.5820   25.5150  -26.9880 C   0  0  0  0  0  0  0  0  0  0  0  0
   -2.4060   25.0450  -28.0730 N   0  0  0  0  0  0  0  0  0  0  0  0
   -1.9830   24.9810  -29.3290 N   0  0  0  0  0  0  0  0  0  0  0  0
   -2.9750   24.4650  -30.0850 C   0  0  0  0  0  0  0  0  0  0  0  0
   -4.0710   24.1920  -29.2870 C   0  0  0  0  0  0  0  0  0  0  0  0
   -5.3530   23.6220  -29.7360 C   0  0  0  0  0  0  0  0  0  0  0  0
   -6.4200   24.0340  -29.2060 O   0  0  0  0  0  0  0  0  0  0  0  0
   -5.3840   22.5990  -30.7460 N   0  0  0  0  0  0  0  0  0  0  0  0
   -6.5900   22.0150  -31.2660 C   0  0  0  0  0  0  0  0  0  0  0  0
   -7.6950   22.8050  -31.6250 C   0  0  0  0  0  0  0  0  0  0  0  0
   -8.8630   22.2060  -32.1070 C   0  0  0  0  0  0  0  0  0  0  0  0
   -8.9440   20.8170  -32.2200 C   0  0  0  0  0  0  0  0  0  0  0  0
   -7.8600   20.0160  -31.8350 C   0  0  0  0  0  0  0  0  0  0  0  0
   -7.9450   18.2620  -31.9830 S   0  0  0  0  0  0  0  0  0  0  0  0
   -9.3780   17.8110  -31.9210 O   0  0  0  0  0  0  0  0  0  0  0  0
   -7.1970   17.6450  -30.8340 O   0  0  0  0  0  0  0  0  0  0  0  0
   -7.2250   17.7560  -33.4920 N   0  0  0  0  0  0  0  0  0  0  0  0
   -6.4540   16.5080  -33.2870 C   0  0  0  0  0  0  0  0  0  0  0  0
   -5.4540   16.2730  -34.4230 C   0  0  0  0  0  0  0  0  0  0  0  0
   -4.4130   17.4050  -34.4880 C   0  0  0  0  0  0  0  0  0  0  0  0
   -4.9390   18.7290  -33.9050 C   0  0  0  0  0  0  0  0  0  0  0  0
   -6.4550   18.8630  -34.1130 C   0  0  0  0  0  0  0  0  0  0  0  0
   -6.6890   20.6180  -31.3570 C   0  0  0  0  0  0  0  0  0  0  0  0
   -3.6630   24.5520  -28.0140 C   0  0  0  0  0  0  0  0  0  0  0  0
   -4.3030   24.3260  -26.9080 N   0  0  0  0  0  0  0  0  0  0  0  0
   -1.4730   24.7550  -25.8120 C   0  0  0  0  0  0  0  0  0  0  0  0
   -0.6670   25.1900  -24.7570 C   0  0  0  0  0  0  0  0  0  0  0  0
    0.4692   26.6113  -22.7777 H   0  0  0  0  0  0  0  0  0  0  0  0
    1.9055   26.3270  -23.8184 H   0  0  0  0  0  0  0  0  0  0  0  0
    1.1000   27.9326  -23.8184 H   0  0  0  0  0  0  0  0  0  0  0  0
    0.5395   28.0742  -26.1432 H   0  0  0  0  0  0  0  0  0  0  0  0
   -0.8975   27.2982  -28.0263 H   0  0  0  0  0  0  0  0  0  0  0  0
   -2.9201   24.2887  -31.1694 H   0  0  0  0  0  0  0  0  0  0  0  0
   -4.4810   22.2940  -31.1730 H   0  0  0  0  0  0  0  0  0  0  0  0
   -7.6411   23.8993  -31.5265 H   0  0  0  0  0  0  0  0  0  0  0  0
   -9.7202   22.8310  -32.3979 H   0  0  0  0  0  0  0  0  0  0  0  0
   -9.8598   20.3504  -32.6118 H   0  0  0  0  0  0  0  0  0  0  0  0
   -5.9049   16.5791  -32.3365 H   0  0  0  0  0  0  0  0  0  0  0  0
   -7.1604   15.6649  -33.2691 H   0  0  0  0  0  0  0  0  0  0  0  0
   -4.9358   15.3177  -34.2535 H   0  0  0  0  0  0  0  0  0  0  0  0
   -6.0053   16.2503  -35.3746 H   0  0  0  0  0  0  0  0  0  0  0  0
   -3.5234   17.0983  -33.9183 H   0  0  0  0  0  0  0  0  0  0  0  0
   -4.1767   17.5790  -35.5481 H   0  0  0  0  0  0  0  0  0  0  0  0
   -4.7205   18.7586  -32.8273 H   0  0  0  0  0  0  0  0  0  0  0  0
   -4.4409   19.5610  -34.4243 H   0  0  0  0  0  0  0  0  0  0  0  0
   -6.7872   19.8132  -33.6694 H   0  0  0  0  0  0  0  0  0  0  0  0
   -6.6432   18.8280  -35.1962 H   0  0  0  0  0  0  0  0  0  0  0  0
   -5.8394   19.9902  -31.0502 H   0  0  0  0  0  0  0  0  0  0  0  0
   -5.2380   23.8650  -26.8770 H   0  0  0  0  0  0  0  0  0  0  0  0
   -2.0270   23.8091  -25.7208 H   0  0  0  0  0  0  0  0  0  0  0  0
   -0.5877   24.5839  -23.8425 H   0  0  0  0  0  0  0  0  0  0  0  0
  1  2  1  0
  2  3  2  0
  3  4  1  0
  4  5  2  0
  5  6  1  0
  6  7  1  0
  7  8  1  0
  8  9  2  0
  9 10  1  0
 10 11  2  0
 10 12  1  0
 12 13  1  0
 13 14  2  0
 14 15  1  0
 15 16  2  0
 16 17  1  0
 17 18  1  0
 18 19  2  0
 18 20  2  0
 18 21  1  0
 21 22  1  0
 22 23  1  0
 23 24  1  0
 24 25  1  0
 25 26  1  0
 17 27  2  0
  9 28  1  0
 28 29  2  3
  5 30  1  0
 30 31  2  0
 31  2  1  0
 28  6  1  0
 27 13  1  0
 26 21  1  0
  1 32  1  0
  1 33  1  0
  1 34  1  0
  3 35  1  0
  4 36  1  0
  8 37  1  0
 12 38  1  0
 14 39  1  0
 15 40  1  0
 16 41  1  0
 22 42  1  0
 22 43  1  0
 23 44  1  0
 23 45  1  0
 24 46  1  0
 24 47  1  0
 25 48  1  0
 25 49  1  0
 26 50  1  0
 26 51  1  0
 27 52  1  0
 29 53  1  0
 30 54  1  0
 31 55  1  0
M  CHG  1   7  -1
M  END
>  <UniqueID>  (10) 
10

>  <SMILES>  (10) 
Cc1ccc(-n2[n-]cc(C(=O)Nc3cccc(S(=O)(=O)N4CCCCC4)c3)c2=N)cc1

>  <Energy>  (10) 
107.32893566452897

>  <Genealogy>  (10) 
Cc1ccc(-n2[n-]cc(C(=O)Nc3cccc(S(=O)(=O)N4CCCCC4)c3)c2=N)cc1 (protonated)
Cc1ccc(-n2[n-]cc(C(=O)Nc3cccc(S(=O)(=O)N4CCCCC4)c3)c2=N)cc1 (3D coordinates assigned)
Cc1ccc(-n2[n-]cc(C(=O)Nc3cccc(S(=O)(=O)N4CCCCC4)c3)c2=N)cc1 (nonaromatic ring conformer: 107.32893566452897 kcal/mol)

>  <smiles>  (10) 
Cc1ccc(-n2[nH]cc(C(=O)Nc3cccc(S(=O)(=O)N4CCCCC4)c3)c2=N)cc1

>  <score_type>  (10) 
oracle

>  <origin>  (10) 
adgpu

>  <m_score__min__energy>  (10) 
-11.19

>  <m_primary>  (10) 
energy

$$$$
10:0
     RDKit          3D

 57 60  0  0  0  0  0  0  0  0999 V2000
   -8.6540   19.7510  -32.2800 O   0  0  0  0  0  0  0  0  0  0  0  0
   -7.3970   19.8800  -32.2630 C   0  0  0  0  0  0  0  0  0  0  0  0
   -6.8140   21.1130  -31.6720 C   0  0  0  0  0  0  0  0  0  0  0  0
   -7.5480   21.8550  -30.7310 C   0  0  0  0  0  0  0  0  0  0  0  0
   -7.0140   23.0170  -30.1690 C   0  0  0  0  0  0  0  0  0  0  0  0
   -5.7320   23.4510  -30.5280 C   0  0  0  0  0  0  0  0  0  0  0  0
   -5.0470   24.9060  -29.8010 S   0  0  0  0  0  0  0  0  0  0  0  0
   -6.1630   25.7860  -29.3120 O   0  0  0  0  0  0  0  0  0  0  0  0
   -4.2840   25.6680  -30.8490 O   0  0  0  0  0  0  0  0  0  0  0  0
   -3.9790   24.5330  -28.4640 N   0  0  0  0  0  0  0  0  0  0  0  0
   -2.5740   24.5510  -28.8840 C   0  0  0  0  0  0  0  0  0  0  0  0
   -2.1310   23.1180  -29.1440 C   0  0  0  0  0  0  0  0  0  0  0  0
   -3.2120   22.2360  -28.5530 C   0  0  0  0  0  0  0  0  0  0  0  0
   -4.2340   23.1850  -27.9440 C   0  0  0  0  0  0  0  0  0  0  0  0
   -4.9920   22.7140  -31.4610 C   0  0  0  0  0  0  0  0  0  0  0  0
   -5.5240   21.5510  -32.0220 C   0  0  0  0  0  0  0  0  0  0  0  0
   -6.5600   18.8200  -32.7940 N   0  0  0  0  0  0  0  0  0  0  0  0
   -7.3820   17.7870  -33.4470 C   0  0  0  0  0  0  0  0  0  0  0  0
   -6.4770   16.7810  -34.1700 C   0  0  0  0  0  0  0  0  0  0  0  0
   -5.3200   16.3480  -33.3560 N   0  0  0  0  0  0  0  0  0  0  0  0
   -3.7760   16.6390  -34.1290 S   0  0  0  0  0  0  0  0  0  0  0  0
   -3.9840   16.7700  -35.6120 O   0  0  0  0  0  0  0  0  0  0  0  0
   -2.8780   15.4560  -33.8950 O   0  0  0  0  0  0  0  0  0  0  0  0
   -2.9730   18.0960  -33.5380 C   0  0  0  0  0  0  0  0  0  0  0  0
   -3.4760   19.3640  -33.8680 C   0  0  0  0  0  0  0  0  0  0  0  0
   -2.8210   20.5170  -33.4230 C   0  0  0  0  0  0  0  0  0  0  0  0
   -1.6540   20.4110  -32.6610 C   0  0  0  0  0  0  0  0  0  0  0  0
   -1.1430   19.1510  -32.3380 C   0  0  0  0  0  0  0  0  0  0  0  0
   -1.7980   17.9960  -32.7760 C   0  0  0  0  0  0  0  0  0  0  0  0
   -5.3460   16.7590  -31.9390 C   0  0  0  0  0  0  0  0  0  0  0  0
   -5.7100   18.2480  -31.7220 C   0  0  0  0  0  0  0  0  0  0  0  0
   -8.5521   21.5177  -30.4343 H   0  0  0  0  0  0  0  0  0  0  0  0
   -7.6033   23.5938  -29.4410 H   0  0  0  0  0  0  0  0  0  0  0  0
   -2.4690   25.1449  -29.8039 H   0  0  0  0  0  0  0  0  0  0  0  0
   -1.9507   25.0022  -28.0980 H   0  0  0  0  0  0  0  0  0  0  0  0
   -2.0374   22.9365  -30.2249 H   0  0  0  0  0  0  0  0  0  0  0  0
   -1.1491   22.9106  -28.6936 H   0  0  0  0  0  0  0  0  0  0  0  0
   -3.6785   21.6233  -29.3385 H   0  0  0  0  0  0  0  0  0  0  0  0
   -2.8041   21.5437  -27.8018 H   0  0  0  0  0  0  0  0  0  0  0  0
   -5.2495   22.8655  -28.2211 H   0  0  0  0  0  0  0  0  0  0  0  0
   -4.1492   23.1798  -26.8473 H   0  0  0  0  0  0  0  0  0  0  0  0
   -3.9871   23.0527  -31.7533 H   0  0  0  0  0  0  0  0  0  0  0  0
   -4.9290   20.9724  -32.7439 H   0  0  0  0  0  0  0  0  0  0  0  0
   -5.9440   19.2260  -33.5350 H   0  0  0  0  0  0  0  0  0  0  0  0
   -7.9784   17.2609  -32.6871 H   0  0  0  0  0  0  0  0  0  0  0  0
   -8.0505   18.2644  -34.1786 H   0  0  0  0  0  0  0  0  0  0  0  0
   -7.0752   15.8943  -34.4268 H   0  0  0  0  0  0  0  0  0  0  0  0
   -6.0782   17.2834  -35.0636 H   0  0  0  0  0  0  0  0  0  0  0  0
   -4.3873   19.4513  -34.4779 H   0  0  0  0  0  0  0  0  0  0  0  0
   -3.2250   21.5090  -33.6732 H   0  0  0  0  0  0  0  0  0  0  0  0
   -1.1380   21.3190  -32.3157 H   0  0  0  0  0  0  0  0  0  0  0  0
   -0.2245   19.0678  -31.7385 H   0  0  0  0  0  0  0  0  0  0  0  0
   -1.3914   17.0058  -32.5228 H   0  0  0  0  0  0  0  0  0  0  0  0
   -6.0888   16.1411  -31.4132 H   0  0  0  0  0  0  0  0  0  0  0  0
   -4.3270   16.6202  -31.5486 H   0  0  0  0  0  0  0  0  0  0  0  0
   -6.2492   18.3374  -30.7674 H   0  0  0  0  0  0  0  0  0  0  0  0
   -4.7657   18.8121  -31.7274 H   0  0  0  0  0  0  0  0  0  0  0  0
  1  2  2  0
  2  3  1  0
  3  4  2  0
  4  5  1  0
  5  6  2  0
  6  7  1  0
  7  8  2  0
  7  9  2  0
  7 10  1  0
 10 11  1  0
 11 12  1  0
 12 13  1  0
 13 14  1  0
  6 15  1  0
 15 16  2  0
  2 17  1  0
 17 18  1  0
 18 19  1  0
 19 20  1  0
 20 21  1  0
 21 22  2  0
 21 23  2  0
 21 24  1  0
 24 25  2  0
 25 26  1  0
 26 27  2  0
 27 28  1  0
 28 29  2  0
 20 30  1  0
 30 31  1  0
 16  3  1  0
 31 17  1  0
 14 10  1  0
 29 24  1  0
  4 32  1  0
  5 33  1  0
 11 34  1  0
 11 35  1  0
 12 36  1  0
 12 37  1  0
 13 38  1  0
 13 39  1  0
 14 40  1  0
 14 41  1  0
 15 42  1  0
 16 43  1  0
 17 44  1  0
 18 45  1  0
 18 46  1  0
 19 47  1  0
 19 48  1  0
 25 49  1  0
 26 50  1  0
 27 51  1  0
 28 52  1  0
 29 53  1  0
 30 54  1  0
 30 55  1  0
 31 56  1  0
 31 57  1  0
M  CHG  1  17   1
M  END
>  <UniqueID>  (11) 
11

>  <SMILES>  (11) 
O=C(c1ccc(S(=O)(=O)N2CCCC2)cc1)[NH+]1CCN(S(=O)(=O)c2ccccc2)CC1

>  <Energy>  (11) 
73.17334108252885

>  <Genealogy>  (11) 
O=C(c1ccc(S(=O)(=O)N2CCCC2)cc1)[NH+]1CCN(S(=O)(=O)c2ccccc2)CC1 (protonated)
O=C(c1ccc(S(=O)(=O)N2CCCC2)cc1)[NH+]1CCN(S(=O)(=O)c2ccccc2)CC1 (3D coordinates assigned)
O=C(c1ccc(S(=O)(=O)N2CCCC2)cc1)[NH+]1CCN(S(=O)(=O)c2ccccc2)CC1 (nonaromatic ring conformer: 73.17334108252885 kcal/mol)

>  <smiles>  (11) 
O=C(c1ccc(S(=O)(=O)N2CCCC2)cc1)N1CCN(S(=O)(=O)c2ccccc2)CC1

>  <score_type>  (11) 
oracle

>  <origin>  (11) 
adgpu

>  <m_score__min__energy>  (11) 
-9.8499999999999996

>  <m_primary>  (11) 
energy

$$$$
11:0
     RDKit          3D

 51 54  0  0  0  0  0  0  0  0999 V2000
   -1.9360   25.6010  -28.9630 O   0  0  0  0  0  0  0  0  0  0  0  0
   -2.6900   24.7160  -29.4500 C   0  0  0  0  0  0  0  0  0  0  0  0
   -3.8020   25.1290  -30.2560 N   0  0  0  0  0  0  0  0  0  0  0  0
   -4.9880   24.3660  -30.5120 C   0  0  0  0  0  0  0  0  0  0  0  0
   -5.5990   24.3560  -31.7780 C   0  0  0  0  0  0  0  0  0  0  0  0
   -6.7550   23.6030  -31.9960 C   0  0  0  0  0  0  0  0  0  0  0  0
   -7.3290   22.8720  -30.9470 C   0  0  0  0  0  0  0  0  0  0  0  0
   -8.7500   21.8790  -31.2450 S   0  0  0  0  0  0  0  0  0  0  0  0
   -9.6100   21.8110  -30.0140 O   0  0  0  0  0  0  0  0  0  0  0  0
   -9.5560   22.4920  -32.3550 O   0  0  0  0  0  0  0  0  0  0  0  0
   -8.2260   20.2560  -31.6810 C   0  0  0  0  0  0  0  0  0  0  0  0
   -9.1040   19.1680  -31.5910 C   0  0  0  0  0  0  0  0  0  0  0  0
   -8.6760   17.8900  -31.9630 C   0  0  0  0  0  0  0  0  0  0  0  0
   -7.3710   17.6930  -32.4240 C   0  0  0  0  0  0  0  0  0  0  0  0
   -6.4860   18.7750  -32.5110 C   0  0  0  0  0  0  0  0  0  0  0  0
   -4.8420   18.5420  -33.1000 S   0  0  0  0  0  0  0  0  0  0  0  0
   -4.7940   18.9410  -34.5470 O   0  0  0  0  0  0  0  0  0  0  0  0
   -4.4550   17.0940  -32.9720 O   0  0  0  0  0  0  0  0  0  0  0  0
   -3.7350   19.5370  -32.1760 N   0  0  0  0  0  0  0  0  0  0  0  0
   -4.0980   20.9530  -32.2920 C   0  0  0  0  0  0  0  0  0  0  0  0
   -3.3050   21.5490  -33.4450 C   0  0  0  0  0  0  0  0  0  0  0  0
   -2.1640   20.5830  -33.6950 C   0  0  0  0  0  0  0  0  0  0  0  0
   -2.3750   19.4350  -32.7180 C   0  0  0  0  0  0  0  0  0  0  0  0
   -6.9190   20.0560  -32.1440 C   0  0  0  0  0  0  0  0  0  0  0  0
   -6.7360   22.9020  -29.6780 C   0  0  0  0  0  0  0  0  0  0  0  0
   -5.5790   23.6560  -29.4600 C   0  0  0  0  0  0  0  0  0  0  0  0
   -2.4550   23.2930  -29.1200 C   0  0  0  0  0  0  0  0  0  0  0  0
   -2.8310   22.7650  -27.8760 C   0  0  0  0  0  0  0  0  0  0  0  0
   -2.6060   21.4510  -27.6090 N   0  0  0  0  0  0  0  0  0  0  0  0
   -2.0260   20.6350  -28.5280 C   0  0  0  0  0  0  0  0  0  0  0  0
   -1.6610   21.1520  -29.7700 C   0  0  0  0  0  0  0  0  0  0  0  0
   -1.8860   22.4650  -30.0390 N   0  0  0  0  0  0  0  0  0  0  0  0
   -5.1649   24.9436  -32.6003 H   0  0  0  0  0  0  0  0  0  0  0  0
   -7.2164   23.5836  -32.9943 H   0  0  0  0  0  0  0  0  0  0  0  0
  -10.1311   19.3193  -31.2273 H   0  0  0  0  0  0  0  0  0  0  0  0
   -9.3677   17.0376  -31.8928 H   0  0  0  0  0  0  0  0  0  0  0  0
   -7.0388   16.6867  -32.7188 H   0  0  0  0  0  0  0  0  0  0  0  0
   -5.1755   21.0469  -32.4922 H   0  0  0  0  0  0  0  0  0  0  0  0
   -3.8690   21.4839  -31.3562 H   0  0  0  0  0  0  0  0  0  0  0  0
   -3.9370   21.6373  -34.3410 H   0  0  0  0  0  0  0  0  0  0  0  0
   -2.9396   22.5594  -33.2092 H   0  0  0  0  0  0  0  0  0  0  0  0
   -2.1930   20.2150  -34.7312 H   0  0  0  0  0  0  0  0  0  0  0  0
   -1.1855   21.0643  -33.5508 H   0  0  0  0  0  0  0  0  0  0  0  0
   -2.2536   18.4746  -33.2404 H   0  0  0  0  0  0  0  0  0  0  0  0
   -1.6370   19.4888  -31.9041 H   0  0  0  0  0  0  0  0  0  0  0  0
   -6.2290   20.9093  -32.2198 H   0  0  0  0  0  0  0  0  0  0  0  0
   -7.1821   22.3306  -28.8507 H   0  0  0  0  0  0  0  0  0  0  0  0
   -5.1305   23.6916  -28.4562 H   0  0  0  0  0  0  0  0  0  0  0  0
   -3.3049   23.4099  -27.1213 H   0  0  0  0  0  0  0  0  0  0  0  0
   -1.8461   19.5754  -28.2937 H   0  0  0  0  0  0  0  0  0  0  0  0
   -1.1949   20.5028  -30.5258 H   0  0  0  0  0  0  0  0  0  0  0  0
  1  2  2  0
  2  3  1  0
  3  4  1  0
  4  5  2  0
  5  6  1  0
  6  7  2  0
  7  8  1  0
  8  9  2  0
  8 10  2  0
  8 11  1  0
 11 12  2  0
 12 13  1  0
 13 14  2  0
 14 15  1  0
 15 16  1  0
 16 17  2  0
 16 18  2  0
 16 19  1  0
 19 20  1  0
 20 21  1  0
 21 22  1  0
 22 23  1  0
 15 24  2  0
  7 25  1  0
 25 26  2  0
  2 27  1  0
 27 28  2  0
 28 29  1  0
 29 30  2  0
 30 31  1  0
 31 32  2  0
 26  4  1  0
 32 27  1  0
 24 11  1  0
 23 19  1  0
  5 33  1  0
  6 34  1  0
 12 35  1  0
 13 36  1  0
 14 37  1  0
 20 38  1  0
 20 39  1  0
 21 40  1  0
 21 41  1  0
 22 42  1  0
 22 43  1  0
 23 44  1  0
 23 45  1  0
 24 46  1  0
 25 47  1  0
 26 48  1  0
 28 49  1  0
 30 50  1  0
 31 51  1  0
M  CHG  1   3  -1
M  END
>  <UniqueID>  (12) 
12

>  <SMILES>  (12) 
O=C([N-]c1ccc(S(=O)(=O)c2cccc(S(=O)(=O)N3CCCC3)c2)cc1)c1cnccn1

>  <Energy>  (12) 
64.45792800669234

>  <Genealogy>  (12) 
O=C([N-]c1ccc(S(=O)(=O)c2cccc(S(=O)(=O)N3CCCC3)c2)cc1)c1cnccn1 (protonated)
O=C([N-]c1ccc(S(=O)(=O)c2cccc(S(=O)(=O)N3CCCC3)c2)cc1)c1cnccn1 (3D coordinates assigned)
O=C([N-]c1ccc(S(=O)(=O)c2cccc(S(=O)(=O)N3CCCC3)c2)cc1)c1cnccn1 (nonaromatic ring conformer: 64.45792800669234 kcal/mol)

>  <smiles>  (12) 
O=C(Nc1ccc(S(=O)(=O)c2cccc(S(=O)(=O)N3CCCC3)c2)cc1)c1cnccn1

>  <score_type>  (12) 
oracle

>  <origin>  (12) 
adgpu

>  <m_score__min__energy>  (12) 
-12.01

>  <m_primary>  (12) 
energy

$$$$
12:0
     RDKit          3D

 47 49  0  0  0  0  0  0  0  0999 V2000
   -4.1440   21.7140  -33.4110 O   0  0  0  0  0  0  0  0  0  0  0  0
   -3.2900   21.6880  -32.4840 C   0  0  0  0  0  0  0  0  0  0  0  0
   -3.4280   22.5800  -31.3650 N   0  0  0  0  0  0  0  0  0  0  0  0
   -4.6560   23.2540  -31.0490 C   0  0  0  0  0  0  0  0  0  0  0  0
   -5.8750   22.5860  -31.2470 C   0  0  0  0  0  0  0  0  0  0  0  0
   -7.0860   23.2200  -30.9530 C   0  0  0  0  0  0  0  0  0  0  0  0
   -7.0900   24.5310  -30.4700 C   0  0  0  0  0  0  0  0  0  0  0  0
   -5.8850   25.2150  -30.2950 C   0  0  0  0  0  0  0  0  0  0  0  0
   -4.6690   24.5890  -30.5920 C   0  0  0  0  0  0  0  0  0  0  0  0
   -3.4860   25.3070  -30.4580 O   0  0  0  0  0  0  0  0  0  0  0  0
   -2.1310   20.7660  -32.5840 C   0  0  0  0  0  0  0  0  0  0  0  0
   -1.8800   19.8330  -31.5610 C   0  0  0  0  0  0  0  0  0  0  0  0
   -0.7860   18.9670  -31.6440 C   0  0  0  0  0  0  0  0  0  0  0  0
    0.0790   19.0260  -32.7440 C   0  0  0  0  0  0  0  0  0  0  0  0
    1.4650   17.9440  -32.8570 S   0  0  0  0  0  0  0  0  0  0  0  0
    2.6800   18.7690  -33.1760 O   0  0  0  0  0  0  0  0  0  0  0  0
    1.2490   16.9450  -33.9600 O   0  0  0  0  0  0  0  0  0  0  0  0
    1.6880   17.1040  -31.3370 N   0  0  0  0  0  0  0  0  0  0  0  0
    2.3540   15.7940  -31.5510 C   0  0  0  0  0  0  0  0  0  0  0  0
    1.8920   14.6560  -30.6120 C   0  0  0  0  0  0  0  0  0  0  0  0
    1.9120   14.9700  -29.0940 C   0  0  0  0  0  0  0  0  0  0  0  0
    1.2820   16.3120  -28.6880 C   0  0  0  0  0  0  0  0  0  0  0  0
    2.1890   17.5410  -28.9110 C   0  0  0  0  0  0  0  0  0  0  0  0
    2.3450   18.0050  -30.3700 C   0  0  0  0  0  0  0  0  0  0  0  0
   -0.1620   19.9540  -33.7620 C   0  0  0  0  0  0  0  0  0  0  0  0
   -1.2550   20.8220  -33.6830 C   0  0  0  0  0  0  0  0  0  0  0  0
   -2.5600   22.8950  -30.8750 H   0  0  0  0  0  0  0  0  0  0  0  0
   -5.8773   21.5571  -31.6360 H   0  0  0  0  0  0  0  0  0  0  0  0
   -8.0362   22.6863  -31.1021 H   0  0  0  0  0  0  0  0  0  0  0  0
   -8.0426   25.0246  -30.2275 H   0  0  0  0  0  0  0  0  0  0  0  0
   -5.8917   26.2499  -29.9222 H   0  0  0  0  0  0  0  0  0  0  0  0
   -2.5496   19.7848  -30.6896 H   0  0  0  0  0  0  0  0  0  0  0  0
   -0.6037   18.2363  -30.8423 H   0  0  0  0  0  0  0  0  0  0  0  0
    2.1599   15.4794  -32.5870 H   0  0  0  0  0  0  0  0  0  0  0  0
    3.4197   15.9554  -31.3314 H   0  0  0  0  0  0  0  0  0  0  0  0
    0.8599   14.3926  -30.8866 H   0  0  0  0  0  0  0  0  0  0  0  0
    2.6200   13.8436  -30.7540 H   0  0  0  0  0  0  0  0  0  0  0  0
    1.3662   14.1684  -28.5748 H   0  0  0  0  0  0  0  0  0  0  0  0
    2.9734   15.0372  -28.8133 H   0  0  0  0  0  0  0  0  0  0  0  0
    0.3635   16.4520  -29.2769 H   0  0  0  0  0  0  0  0  0  0  0  0
    1.0957   16.2542  -27.6054 H   0  0  0  0  0  0  0  0  0  0  0  0
    1.7698   18.3784  -28.3339 H   0  0  0  0  0  0  0  0  0  0  0  0
    3.1940   17.2320  -28.5877 H   0  0  0  0  0  0  0  0  0  0  0  0
    1.9019   19.0070  -30.4681 H   0  0  0  0  0  0  0  0  0  0  0  0
    3.4205   18.0062  -30.6008 H   0  0  0  0  0  0  0  0  0  0  0  0
    0.5123   20.0012  -34.6298 H   0  0  0  0  0  0  0  0  0  0  0  0
   -1.4311   21.5535  -34.4855 H   0  0  0  0  0  0  0  0  0  0  0  0
  1  2  2  0
  2  3  1  0
  3  4  1  0
  4  5  2  0
  5  6  1  0
  6  7  2  0
  7  8  1  0
  8  9  2  0
  9 10  1  0
  2 11  1  0
 11 12  2  0
 12 13  1  0
 13 14  2  0
 14 15  1  0
 15 16  2  0
 15 17  2  0
 15 18  1  0
 18 19  1  0
 19 20  1  0
 20 21  1  0
 21 22  1  0
 22 23  1  0
 23 24  1  0
 14 25  1  0
 25 26  2  0
  9  4  1  0
 26 11  1  0
 24 18  1  0
  3 27  1  0
  5 28  1  0
  6 29  1  0
  7 30  1  0
  8 31  1  0
 12 32  1  0
 13 33  1  0
 19 34  1  0
 19 35  1  0
 20 36  1  0
 20 37  1  0
 21 38  1  0
 21 39  1  0
 22 40  1  0
 22 41  1  0
 23 42  1  0
 23 43  1  0
 24 44  1  0
 24 45  1  0
 25 46  1  0
 26 47  1  0
M  CHG  1  10  -1
M  END
>  <UniqueID>  (13) 
13

>  <SMILES>  (13) 
O=C(Nc1ccccc1[O-])c1ccc(S(=O)(=O)N2CCCCCC2)cc1

>  <Energy>  (13) 
68.30207631863473

>  <Genealogy>  (13) 
O=C(Nc1ccccc1[O-])c1ccc(S(=O)(=O)N2CCCCCC2)cc1 (protonated)
O=C(Nc1ccccc1[O-])c1ccc(S(=O)(=O)N2CCCCCC2)cc1 (3D coordinates assigned)
O=C(Nc1ccccc1[O-])c1ccc(S(=O)(=O)N2CCCCCC2)cc1 (nonaromatic ring conformer: 68.30207631863473 kcal/mol)

>  <smiles>  (13) 
O=C(Nc1ccccc1O)c1ccc(S(=O)(=O)N2CCCCCC2)cc1

>  <score_type>  (13) 
oracle

>  <origin>  (13) 
adgpu

>  <m_score__min__energy>  (13) 
-9.9800000000000004

>  <m_primary>  (13) 
energy

$$$$
13:0
     RDKit          3D

 43 45  0  0  1  0  0  0  0  0999 V2000
    0.5390   21.0990  -34.2350 C   0  0  0  0  0  0  0  0  0  0  0  0
   -0.8820   21.0460  -34.5150 N   0  0  0  0  0  0  0  0  0  0  0  0
   -1.7930   20.6870  -33.0880 S   0  0  0  0  0  0  0  0  0  0  0  0
   -0.9560   19.6700  -32.3250 O   0  0  0  0  0  0  0  0  0  0  0  0
   -1.9350   21.8790  -32.1850 O   0  0  0  0  0  0  0  0  0  0  0  0
   -3.3090   19.9280  -33.4140 C   0  0  0  0  0  0  0  0  0  0  0  0
   -3.3320   18.7810  -34.1670 C   0  0  0  0  0  0  0  0  0  0  0  0
   -4.5230   18.1460  -34.4490 C   0  0  0  0  0  0  0  0  0  0  0  0
   -5.7120   18.6820  -33.9590 C   0  0  0  0  0  0  0  0  0  0  0  0
   -5.7270   19.8310  -33.2000 C   0  0  0  0  0  0  0  0  0  0  0  0
   -6.9490   20.4230  -32.6700 C   0  0  0  0  0  0  0  0  0  0  0  0
   -6.8650   21.5030  -31.8740 N   0  0  0  0  0  0  0  0  0  0  0  0
   -7.9620   22.0840  -31.3600 C   0  0  0  0  0  0  0  0  0  0  0  0
   -7.7900   23.1310  -30.5930 N   0  0  0  0  0  0  0  0  0  0  0  0
   -6.4560   23.5760  -30.3600 C   0  0  0  0  0  0  0  0  0  0  0  0
   -5.6620   22.9990  -29.3740 C   0  0  0  0  0  0  0  0  0  0  0  0
   -4.3680   23.4610  -29.1790 C   0  0  0  0  0  0  0  0  0  0  0  0
   -3.8240   24.4840  -29.9340 C   0  0  0  0  0  0  0  0  0  0  0  0
   -2.5190   24.9300  -29.7170 O   0  0  0  0  0  0  0  0  0  0  0  0
   -1.6480   24.1490  -28.9540 C   0  0  0  0  0  0  0  0  0  0  0  0
   -4.6190   25.0260  -30.8870 N   0  0  0  0  0  0  0  0  0  0  0  0
   -5.8890   24.5970  -31.1010 C   0  0  0  0  0  0  0  0  0  0  0  0
   -9.2250   21.5950  -31.6310 C   0  0  0  0  0  0  0  0  0  0  0  0
   -9.3070   20.4940  -32.4450 C   0  0  0  0  0  0  0  0  0  0  0  0
   -8.1770   19.9490  -32.9330 N   0  0  0  0  0  0  0  0  0  0  0  0
   -4.5090   20.4260  -32.9480 C   0  0  0  0  0  0  0  0  0  0  0  0
    0.6983   21.1049  -33.1466 H   0  0  0  0  0  0  0  0  0  0  0  0
    1.0321   20.2186  -34.6729 H   0  0  0  0  0  0  0  0  0  0  0  0
    0.9651   22.0137  -34.6729 H   0  0  0  0  0  0  0  0  0  0  0  0
   -1.2730   21.9080  -34.9120 H   0  0  0  0  0  0  0  0  0  0  0  0
   -2.3893   18.3633  -34.5501 H   0  0  0  0  0  0  0  0  0  0  0  0
   -4.5343   17.2272  -35.0537 H   0  0  0  0  0  0  0  0  0  0  0  0
   -6.6620   18.1750  -34.1839 H   0  0  0  0  0  0  0  0  0  0  0  0
   -6.0574   22.1818  -28.7529 H   0  0  0  0  0  0  0  0  0  0  0  0
   -3.7522   22.9963  -28.3949 H   0  0  0  0  0  0  0  0  0  0  0  0
   -1.8412   24.3222  -27.8850 H   0  0  0  0  0  0  0  0  0  0  0  0
   -1.8080   23.0862  -29.1880 H   0  0  0  0  0  0  0  0  0  0  0  0
   -0.6088   24.4235  -29.1880 H   0  0  0  0  0  0  0  0  0  0  0  0
   -6.4868   25.0772  -31.8897 H   0  0  0  0  0  0  0  0  0  0  0  0
  -10.1257   22.0678  -31.2124 H   0  0  0  0  0  0  0  0  0  0  0  0
  -10.2863   20.0608  -32.6965 H   0  0  0  0  0  0  0  0  0  0  0  0
   -8.2990   19.1140  -33.5460 H   0  0  0  0  0  0  0  0  0  0  0  0
   -4.4928   21.3453  -32.3442 H   0  0  0  0  0  0  0  0  0  0  0  0
  1  2  1  0
  2  3  1  0
  3  4  2  0
  3  5  2  0
  3  6  1  0
  6  7  2  0
  7  8  1  0
  8  9  2  0
  9 10  1  0
 10 11  1  0
 11 12  2  0
 12 13  1  0
 13 14  2  0
 14 15  1  0
 15 16  2  0
 16 17  1  0
 17 18  2  0
 18 19  1  0
 19 20  1  0
 18 21  1  0
 21 22  2  0
 13 23  1  0
 23 24  2  0
 24 25  1  0
 10 26  2  0
 26  6  1  0
 25 11  1  0
 22 15  1  0
  1 27  1  0
  1 28  1  0
  1 29  1  0
  2 30  1  0
  7 31  1  0
  8 32  1  0
  9 33  1  0
 16 34  1  0
 17 35  1  0
 20 36  1  0
 20 37  1  0
 20 38  1  0
 22 39  1  0
 23 40  1  0
 24 41  1  0
 25 42  1  0
 26 43  1  0
M  END
>  <smiles>  (14) 
CNS(=O)(=O)c1cccc(-c2nc(=Nc3ccc(OC)nc3)cc[nH]2)c1

>  <score_type>  (14) 
oracle

>  <origin>  (14) 
adgpu

>  <m_score__min__energy>  (14) 
-10.1

>  <m_primary>  (14) 
energy

$$$$
14:0
     RDKit          3D

 52 55  0  0  0  0  0  0  0  0999 V2000
   -6.8800   16.4970  -34.1680 C   0  0  0  0  0  0  0  0  0  0  0  0
   -6.7030   17.0410  -32.8110 N   0  0  0  0  0  0  0  0  0  0  0  0
   -7.8560   17.8060  -32.2970 C   0  0  0  0  0  0  0  0  0  0  0  0
   -8.0460   19.2160  -32.9120 C   0  0  0  0  0  0  0  0  0  0  0  0
   -7.0120   20.2860  -32.5980 C   0  0  0  0  0  0  0  0  0  0  0  0
   -7.4690   21.4700  -31.9930 C   0  0  0  0  0  0  0  0  0  0  0  0
   -6.5880   22.5010  -31.6670 C   0  0  0  0  0  0  0  0  0  0  0  0
   -5.2180   22.3750  -31.9420 C   0  0  0  0  0  0  0  0  0  0  0  0
   -4.2780   23.4030  -31.5840 N   0  0  0  0  0  0  0  0  0  0  0  0
   -4.6100   24.5930  -30.8520 C   0  0  0  0  0  0  0  0  0  0  0  0
   -5.7500   25.1160  -30.9700 O   0  0  0  0  0  0  0  0  0  0  0  0
   -3.6240   25.2470  -30.0440 N   0  0  0  0  0  0  0  0  0  0  0  0
   -2.8310   24.5790  -29.0540 C   0  0  0  0  0  0  0  0  0  0  0  0
   -3.2210   23.3100  -28.6230 C   0  0  0  0  0  0  0  0  0  0  0  0
   -2.5260   22.6720  -27.5980 C   0  0  0  0  0  0  0  0  0  0  0  0
   -1.4210   23.2850  -26.9990 C   0  0  0  0  0  0  0  0  0  0  0  0
   -0.6760   22.4570  -25.6360 Cl  0  0  0  0  0  0  0  0  0  0  0  0
   -0.9690   24.5410  -27.4670 C   0  0  0  0  0  0  0  0  0  0  0  0
    0.4220   25.3590  -26.7120 S   0  0  0  0  0  0  0  0  0  0  0  0
    1.2350   26.0640  -27.7630 O   0  0  0  0  0  0  0  0  0  0  0  0
    1.3170   24.3420  -26.0650 O   0  0  0  0  0  0  0  0  0  0  0  0
   -0.0620   26.5690  -25.4760 C   0  0  0  0  0  0  0  0  0  0  0  0
   -1.5470   26.5550  -25.1450 C   0  0  0  0  0  0  0  0  0  0  0  0
   -0.5400   26.0340  -24.1340 C   0  0  0  0  0  0  0  0  0  0  0  0
   -1.6760   25.1740  -28.5130 C   0  0  0  0  0  0  0  0  0  0  0  0
   -1.2310   26.3900  -29.0230 O   0  0  0  0  0  0  0  0  0  0  0  0
   -4.7460   21.1830  -32.5050 C   0  0  0  0  0  0  0  0  0  0  0  0
   -5.6230   20.1320  -32.8240 C   0  0  0  0  0  0  0  0  0  0  0  0
   -5.0590   18.8770  -33.4300 C   0  0  0  0  0  0  0  0  0  0  0  0
   -5.3720   17.6440  -32.5660 C   0  0  0  0  0  0  0  0  0  0  0  0
   -7.2197   15.4528  -34.1030 H   0  0  0  0  0  0  0  0  0  0  0  0
   -7.6303   17.0938  -34.7073 H   0  0  0  0  0  0  0  0  0  0  0  0
   -5.9222   16.5380  -34.7073 H   0  0  0  0  0  0  0  0  0  0  0  0
   -8.7668   17.2228  -32.4976 H   0  0  0  0  0  0  0  0  0  0  0  0
   -7.6604   17.9662  -31.2265 H   0  0  0  0  0  0  0  0  0  0  0  0
   -8.0667   19.0942  -34.0050 H   0  0  0  0  0  0  0  0  0  0  0  0
   -8.9718   19.5903  -32.4508 H   0  0  0  0  0  0  0  0  0  0  0  0
   -8.5406   21.5853  -31.7728 H   0  0  0  0  0  0  0  0  0  0  0  0
   -6.9691   23.4171  -31.1921 H   0  0  0  0  0  0  0  0  0  0  0  0
   -3.2790   23.2730  -31.8630 H   0  0  0  0  0  0  0  0  0  0  0  0
   -4.0807   22.8116  -29.0947 H   0  0  0  0  0  0  0  0  0  0  0  0
   -2.8492   21.6774  -27.2569 H   0  0  0  0  0  0  0  0  0  0  0  0
    0.6814   27.3224  -25.7756 H   0  0  0  0  0  0  0  0  0  0  0  0
   -2.0771   27.5001  -24.9561 H   0  0  0  0  0  0  0  0  0  0  0  0
   -2.4472   26.1462  -25.6272 H   0  0  0  0  0  0  0  0  0  0  0  0
   -0.3411   26.6020  -23.2132 H   0  0  0  0  0  0  0  0  0  0  0  0
   -0.4093   25.0919  -23.5813 H   0  0  0  0  0  0  0  0  0  0  0  0
   -3.6698   21.0671  -32.7011 H   0  0  0  0  0  0  0  0  0  0  0  0
   -5.4972   18.7342  -34.4288 H   0  0  0  0  0  0  0  0  0  0  0  0
   -3.9662   18.9854  -33.4937 H   0  0  0  0  0  0  0  0  0  0  0  0
   -4.6068   16.8801  -32.7682 H   0  0  0  0  0  0  0  0  0  0  0  0
   -5.3730   17.9876  -31.5211 H   0  0  0  0  0  0  0  0  0  0  0  0
  1  2  1  0
  2  3  1  0
  3  4  1  0
  4  5  1  0
  5  6  2  0
  6  7  1  0
  7  8  2  0
  8  9  1  0
  9 10  1  0
 10 11  2  0
 10 12  1  0
 12 13  1  0
 13 14  2  0
 14 15  1  0
 15 16  2  0
 16 17  1  0
 16 18  1  0
 18 19  1  0
 19 20  2  0
 19 21  2  0
 19 22  1  0
 22 23  1  0
 23 24  1  0
 18 25  2  0
 25 26  1  0
  8 27  1  0
 27 28  2  0
 28 29  1  0
 29 30  1  0
 30  2  1  0
 28  5  1  0
 25 13  1  0
 24 22  1  0
  1 31  1  0
  1 32  1  0
  1 33  1  0
  3 34  1  0
  3 35  1  0
  4 36  1  0
  4 37  1  0
  6 38  1  0
  7 39  1  0
  9 40  1  0
 14 41  1  0
 15 42  1  0
 22 43  1  0
 23 44  1  0
 23 45  1  0
 24 46  1  0
 24 47  1  0
 27 48  1  0
 29 49  1  0
 29 50  1  0
 30 51  1  0
 30 52  1  0
M  CHG  2  12  -1  26  -1
M  END
>  <UniqueID>  (15) 
14

>  <SMILES>  (15) 
CN1CCc2ccc(NC(=O)[N-]c3ccc(Cl)c(S(=O)(=O)C4CC4)c3[O-])cc2CC1

>  <Energy>  (15) 
345.6226199421563

>  <Genealogy>  (15) 
CN1CCc2ccc(NC(=O)[N-]c3ccc(Cl)c(S(=O)(=O)C4CC4)c3[O-])cc2CC1 (protonated)
CN1CCc2ccc(NC(=O)[N-]c3ccc(Cl)c(S(=O)(=O)C4CC4)c3[O-])cc2CC1 (3D coordinates assigned)
CN1CCc2ccc(NC(=O)[N-]c3ccc(Cl)c(S(=O)(=O)C4CC4)c3[O-])cc2CC1 (nonaromatic ring conformer: 345.6226199421563 kcal/mol)

>  <smiles>  (15) 
CN1CCc2ccc(NC(=O)Nc3ccc(Cl)c(S(=O)(=O)C4CC4)c3O)cc2CC1

>  <score_type>  (15) 
oracle

>  <origin>  (15) 
adgpu

>  <m_score__min__energy>  (15) 
-12.5

>  <m_primary>  (15) 
energy

$$$$
15:0
     RDKit          3D

 61 65  0  0  0  0  0  0  0  0999 V2000
   -7.5280   24.2210  -30.8400 C   0  0  0  0  0  0  0  0  0  0  0  0
   -7.0760   22.8250  -31.1780 C   0  0  0  0  0  0  0  0  0  0  0  0
   -8.0360   21.8690  -31.5420 C   0  0  0  0  0  0  0  0  0  0  0  0
   -7.6550   20.5680  -31.8770 C   0  0  0  0  0  0  0  0  0  0  0  0
   -6.3070   20.1890  -31.8340 C   0  0  0  0  0  0  0  0  0  0  0  0
   -5.9080   18.8120  -32.2130 C   0  0  0  0  0  0  0  0  0  0  0  0
   -6.2590   17.8480  -31.4790 O   0  0  0  0  0  0  0  0  0  0  0  0
   -5.1490   18.5470  -33.4080 N   0  0  0  0  0  0  0  0  0  0  0  0
   -4.0200   19.4060  -33.7930 C   0  0  0  0  0  0  0  0  0  0  0  0
   -2.7710   18.5590  -34.0720 C   0  0  0  0  0  0  0  0  0  0  0  0
   -3.0570   17.2970  -34.9400 C   0  0  0  0  0  0  0  0  0  0  0  0
   -2.6010   16.0050  -34.2740 C   0  0  0  0  0  0  0  0  0  0  0  0
   -1.9280   16.0600  -33.0400 C   0  0  0  0  0  0  0  0  0  0  0  0
   -1.4600   14.8900  -32.4320 C   0  0  0  0  0  0  0  0  0  0  0  0
   -1.6500   13.6510  -33.0550 C   0  0  0  0  0  0  0  0  0  0  0  0
   -1.1690   12.4480  -32.4290 C   0  0  0  0  0  0  0  0  0  0  0  0
   -0.7840   11.4780  -31.9260 N   0  0  0  0  0  0  0  0  0  0  0  0
   -2.3060   13.5850  -34.2880 C   0  0  0  0  0  0  0  0  0  0  0  0
   -2.7730   14.7520  -34.8970 C   0  0  0  0  0  0  0  0  0  0  0  0
   -4.5300   17.1890  -35.3950 C   0  0  0  0  0  0  0  0  0  0  0  0
   -5.5140   17.3890  -34.2360 C   0  0  0  0  0  0  0  0  0  0  0  0
   -5.3420   21.1390  -31.4660 C   0  0  0  0  0  0  0  0  0  0  0  0
   -5.7100   22.4530  -31.1310 C   0  0  0  0  0  0  0  0  0  0  0  0
   -4.6580   23.4060  -30.7080 C   0  0  0  0  0  0  0  0  0  0  0  0
   -4.6440   24.7060  -31.0620 N   0  0  0  0  0  0  0  0  0  0  0  0
   -3.6000   25.2880  -30.4900 N   0  0  0  0  0  0  0  0  0  0  0  0
   -2.9380   24.3680  -29.7620 C   0  0  0  0  0  0  0  0  0  0  0  0
   -3.5750   23.1500  -29.8850 C   0  0  0  0  0  0  0  0  0  0  0  0
   -3.1780   21.8540  -29.2370 C   0  0  0  0  0  0  0  0  0  0  0  0
   -2.2110   21.1390  -30.0650 N   0  0  0  0  0  0  0  0  0  0  0  0
   -1.9530   21.3780  -31.4770 C   0  0  0  0  0  0  0  0  0  0  0  0
   -0.8360   20.3730  -31.8570 C   0  0  0  0  0  0  0  0  0  0  0  0
   -0.5280   19.6680  -30.6570 O   0  0  0  0  0  0  0  0  0  0  0  0
   -1.3300   20.1230  -29.6380 C   0  0  0  0  0  0  0  0  0  0  0  0
   -1.2800   19.6860  -28.4590 O   0  0  0  0  0  0  0  0  0  0  0  0
   -7.5664   24.3395  -29.7471 H   0  0  0  0  0  0  0  0  0  0  0  0
   -6.8194   24.9483  -31.2630 H   0  0  0  0  0  0  0  0  0  0  0  0
   -8.5284   24.3950  -31.2630 H   0  0  0  0  0  0  0  0  0  0  0  0
   -9.1000   22.1471  -31.5638 H   0  0  0  0  0  0  0  0  0  0  0  0
   -8.4189   19.8354  -32.1768 H   0  0  0  0  0  0  0  0  0  0  0  0
   -4.2860   19.9685  -34.7001 H   0  0  0  0  0  0  0  0  0  0  0  0
   -3.8026   20.0992  -32.9671 H   0  0  0  0  0  0  0  0  0  0  0  0
   -2.0364   19.1852  -34.5995 H   0  0  0  0  0  0  0  0  0  0  0  0
   -2.3963   18.2052  -33.1002 H   0  0  0  0  0  0  0  0  0  0  0  0
   -2.4485   17.4368  -35.8456 H   0  0  0  0  0  0  0  0  0  0  0  0
   -1.7683   17.0312  -32.5488 H   0  0  0  0  0  0  0  0  0  0  0  0
   -0.9420   14.9439  -31.4631 H   0  0  0  0  0  0  0  0  0  0  0  0
   -2.4546   12.6121  -34.7794 H   0  0  0  0  0  0  0  0  0  0  0  0
   -3.2796   14.6929  -35.8716 H   0  0  0  0  0  0  0  0  0  0  0  0
   -4.7216   17.9577  -36.1582 H   0  0  0  0  0  0  0  0  0  0  0  0
   -4.6845   16.1766  -35.7963 H   0  0  0  0  0  0  0  0  0  0  0  0
   -6.5218   17.5480  -34.6472 H   0  0  0  0  0  0  0  0  0  0  0  0
   -5.4847   16.4907  -33.6019 H   0  0  0  0  0  0  0  0  0  0  0  0
   -4.2808   20.8505  -31.4394 H   0  0  0  0  0  0  0  0  0  0  0  0
   -2.0339   24.5574  -29.1648 H   0  0  0  0  0  0  0  0  0  0  0  0
   -2.7279   22.0638  -28.2555 H   0  0  0  0  0  0  0  0  0  0  0  0
   -4.0747   21.2278  -29.1191 H   0  0  0  0  0  0  0  0  0  0  0  0
   -2.8591   21.1921  -32.0724 H   0  0  0  0  0  0  0  0  0  0  0  0
   -1.6557   22.4190  -31.6721 H   0  0  0  0  0  0  0  0  0  0  0  0
   -1.1931   19.6768  -32.6302 H   0  0  0  0  0  0  0  0  0  0  0  0
    0.0480   20.8837  -32.2665 H   0  0  0  0  0  0  0  0  0  0  0  0
  1  2  1  0
  2  3  2  0
  3  4  1  0
  4  5  2  0
  5  6  1  0
  6  7  2  0
  6  8  1  0
  8  9  1  0
  9 10  1  0
 10 11  1  0
 11 12  1  0
 12 13  2  0
 13 14  1  0
 14 15  2  0
 15 16  1  0
 16 17  3  0
 15 18  1  0
 18 19  2  0
 11 20  1  0
 20 21  1  0
  5 22  1  0
 22 23  2  0
 23 24  1  0
 24 25  2  0
 25 26  1  0
 26 27  1  0
 27 28  2  0
 28 29  1  0
 29 30  1  0
 30 31  1  0
 31 32  1  0
 32 33  1  0
 33 34  1  0
 34 35  2  0
 23  2  1  0
 28 24  1  0
 34 30  1  0
 21  8  1  0
 19 12  1  0
  1 36  1  0
  1 37  1  0
  1 38  1  0
  3 39  1  0
  4 40  1  0
  9 41  1  0
  9 42  1  0
 10 43  1  0
 10 44  1  0
 11 45  1  0
 13 46  1  0
 14 47  1  0
 18 48  1  0
 19 49  1  0
 20 50  1  0
 20 51  1  0
 21 52  1  0
 21 53  1  0
 22 54  1  0
 27 55  1  0
 29 56  1  0
 29 57  1  0
 31 58  1  0
 31 59  1  0
 32 60  1  0
 32 61  1  0
M  CHG  1  26  -1
M  END
>  <UniqueID>  (16) 
15

>  <SMILES>  (16) 
Cc1ccc(C(=O)N2CCC(c3ccc(C#N)cc3)CC2)cc1-c1n[n-]cc1CN1CCOC1=O

>  <Energy>  (16) 
121.07891389367963

>  <Genealogy>  (16) 
Cc1ccc(C(=O)N2CCC(c3ccc(C#N)cc3)CC2)cc1-c1n[n-]cc1CN1CCOC1=O (protonated)
Cc1ccc(C(=O)N2CCC(c3ccc(C#N)cc3)CC2)cc1-c1n[n-]cc1CN1CCOC1=O (3D coordinates assigned)
Cc1ccc(C(=O)N2CCC(c3ccc(C#N)cc3)CC2)cc1-c1n[n-]cc1CN1CCOC1=O (nonaromatic ring conformer: 121.07891389367963 kcal/mol)

>  <smiles>  (16) 
Cc1ccc(C(=O)N2CCC(c3ccc(C#N)cc3)CC2)cc1-c1n[nH]cc1CN1CCOC1=O

>  <score_type>  (16) 
oracle

>  <origin>  (16) 
adgpu

>  <m_score__min__energy>  (16) 
-11.970000000000001

>  <m_primary>  (16) 
energy

$$$$
16:0
     RDKit          3D

 57 60  0  0  0  0  0  0  0  0999 V2000
   -9.1290   19.2770  -32.7340 C   0  0  0  0  0  0  0  0  0  0  0  0
   -7.7160   19.0330  -32.4100 N   0  0  0  0  0  0  0  0  0  0  0  0
   -6.8400   19.2770  -33.5840 C   0  0  0  0  0  0  0  0  0  0  0  0
   -6.4600   17.9750  -34.3130 C   0  0  0  0  0  0  0  0  0  0  0  0
   -5.8000   16.9930  -33.4200 N   0  0  0  0  0  0  0  0  0  0  0  0
   -4.0700   16.9500  -33.6690 S   0  0  0  0  0  0  0  0  0  0  0  0
   -3.4990   15.7270  -33.0080 O   0  0  0  0  0  0  0  0  0  0  0  0
   -3.7840   16.8600  -35.1420 O   0  0  0  0  0  0  0  0  0  0  0  0
   -3.2840   18.3880  -33.0110 C   0  0  0  0  0  0  0  0  0  0  0  0
   -1.9060   18.3850  -32.7530 C   0  0  0  0  0  0  0  0  0  0  0  0
   -1.2790   19.5300  -32.2540 C   0  0  0  0  0  0  0  0  0  0  0  0
   -2.0240   20.6980  -32.0100 C   0  0  0  0  0  0  0  0  0  0  0  0
   -1.4070   21.8820  -31.4770 N   0  0  0  0  0  0  0  0  0  0  0  0
   -1.8750   22.5800  -30.3150 C   0  0  0  0  0  0  0  0  0  0  0  0
   -2.7030   22.0360  -29.5330 O   0  0  0  0  0  0  0  0  0  0  0  0
   -1.3260   23.8640  -30.0000 N   0  0  0  0  0  0  0  0  0  0  0  0
   -0.6280   24.1900  -28.7900 C   0  0  0  0  0  0  0  0  0  0  0  0
    0.0860   23.1800  -28.1420 C   0  0  0  0  0  0  0  0  0  0  0  0
    0.7640   23.4450  -26.9550 C   0  0  0  0  0  0  0  0  0  0  0  0
    0.7610   24.7320  -26.4090 C   0  0  0  0  0  0  0  0  0  0  0  0
    1.5910   24.9640  -24.8730 Cl  0  0  0  0  0  0  0  0  0  0  0  0
    0.0980   25.7840  -27.0800 C   0  0  0  0  0  0  0  0  0  0  0  0
    0.1070   27.4280  -26.4050 S   0  0  0  0  0  0  0  0  0  0  0  0
    1.4360   27.7070  -25.7620 O   0  0  0  0  0  0  0  0  0  0  0  0
   -0.1050   28.4530  -27.4840 O   0  0  0  0  0  0  0  0  0  0  0  0
   -1.1830   27.5340  -25.1650 C   0  0  0  0  0  0  0  0  0  0  0  0
   -0.9190   26.7110  -23.9160 C   0  0  0  0  0  0  0  0  0  0  0  0
   -1.9640   26.2530  -24.9220 C   0  0  0  0  0  0  0  0  0  0  0  0
   -0.6000   25.5020  -28.2760 C   0  0  0  0  0  0  0  0  0  0  0  0
   -1.2420   26.5230  -28.9690 O   0  0  0  0  0  0  0  0  0  0  0  0
   -3.4080   20.6850  -32.2360 C   0  0  0  0  0  0  0  0  0  0  0  0
   -4.0330   19.5410  -32.7390 C   0  0  0  0  0  0  0  0  0  0  0  0
   -6.1120   17.1790  -31.9890 C   0  0  0  0  0  0  0  0  0  0  0  0
   -7.5440   17.6920  -31.8050 C   0  0  0  0  0  0  0  0  0  0  0  0
   -9.7067   19.3768  -31.8032 H   0  0  0  0  0  0  0  0  0  0  0  0
   -9.2160   20.2035  -33.3206 H   0  0  0  0  0  0  0  0  0  0  0  0
   -9.5216   18.4334  -33.3206 H   0  0  0  0  0  0  0  0  0  0  0  0
   -7.3691   19.9352  -34.2889 H   0  0  0  0  0  0  0  0  0  0  0  0
   -5.9115   19.7407  -33.2193 H   0  0  0  0  0  0  0  0  0  0  0  0
   -7.3745   17.5204  -34.7217 H   0  0  0  0  0  0  0  0  0  0  0  0
   -5.7456   18.2348  -35.1080 H   0  0  0  0  0  0  0  0  0  0  0  0
   -1.3154   17.4769  -32.9443 H   0  0  0  0  0  0  0  0  0  0  0  0
   -0.1979   19.5178  -32.0511 H   0  0  0  0  0  0  0  0  0  0  0  0
   -0.5220   22.2210  -31.9170 H   0  0  0  0  0  0  0  0  0  0  0  0
    0.1130   22.1680  -28.5722 H   0  0  0  0  0  0  0  0  0  0  0  0
    1.3058   22.6360  -26.4433 H   0  0  0  0  0  0  0  0  0  0  0  0
   -1.4576   28.5783  -25.3750 H   0  0  0  0  0  0  0  0  0  0  0  0
    0.0251   26.1560  -23.8124 H   0  0  0  0  0  0  0  0  0  0  0  0
   -0.9170   26.9162  -22.8353 H   0  0  0  0  0  0  0  0  0  0  0  0
   -1.7757   25.3670  -25.5462 H   0  0  0  0  0  0  0  0  0  0  0  0
   -3.0308   25.9898  -24.8707 H   0  0  0  0  0  0  0  0  0  0  0  0
   -4.0058   21.5817  -32.0157 H   0  0  0  0  0  0  0  0  0  0  0  0
   -5.1176   19.5453  -32.9223 H   0  0  0  0  0  0  0  0  0  0  0  0
   -6.0046   16.2159  -31.4686 H   0  0  0  0  0  0  0  0  0  0  0  0
   -5.4159   17.9209  -31.5706 H   0  0  0  0  0  0  0  0  0  0  0  0
   -8.2410   16.9897  -32.2857 H   0  0  0  0  0  0  0  0  0  0  0  0
   -7.7504   17.7678  -30.7272 H   0  0  0  0  0  0  0  0  0  0  0  0
  1  2  1  0
  2  3  1  0
  3  4  1  0
  4  5  1  0
  5  6  1  0
  6  7  2  0
  6  8  2  0
  6  9  1  0
  9 10  2  0
 10 11  1  0
 11 12  2  0
 12 13  1  0
 13 14  1  0
 14 15  2  0
 14 16  1  0
 16 17  1  0
 17 18  2  0
 18 19  1  0
 19 20  2  0
 20 21  1  0
 20 22  1  0
 22 23  1  0
 23 24  2  0
 23 25  2  0
 23 26  1  0
 26 27  1  0
 27 28  1  0
 22 29  2  0
 29 30  1  0
 12 31  1  0
 31 32  2  0
  5 33  1  0
 33 34  1  0
 34  2  1  0
 32  9  1  0
 29 17  1  0
 28 26  1  0
  1 35  1  0
  1 36  1  0
  1 37  1  0
  3 38  1  0
  3 39  1  0
  4 40  1  0
  4 41  1  0
 10 42  1  0
 11 43  1  0
 13 44  1  0
 18 45  1  0
 19 46  1  0
 26 47  1  0
 27 48  1  0
 27 49  1  0
 28 50  1  0
 28 51  1  0
 31 52  1  0
 32 53  1  0
 33 54  1  0
 33 55  1  0
 34 56  1  0
 34 57  1  0
M  CHG  2  16  -1  30  -1
M  END
>  <UniqueID>  (17) 
16

>  <SMILES>  (17) 
CN1CCN(S(=O)(=O)c2ccc(NC(=O)[N-]c3ccc(Cl)c(S(=O)(=O)C4CC4)c3[O-])cc2)CC1

>  <Energy>  (17) 
343.50591562393214

>  <Genealogy>  (17) 
CN1CCN(S(=O)(=O)c2ccc(NC(=O)[N-]c3ccc(Cl)c(S(=O)(=O)C4CC4)c3[O-])cc2)CC1 (protonated)
CN1CCN(S(=O)(=O)c2ccc(NC(=O)[N-]c3ccc(Cl)c(S(=O)(=O)C4CC4)c3[O-])cc2)CC1 (3D coordinates assigned)
CN1CCN(S(=O)(=O)c2ccc(NC(=O)[N-]c3ccc(Cl)c(S(=O)(=O)C4CC4)c3[O-])cc2)CC1 (nonaromatic ring conformer: 343.50591562393214 kcal/mol)

>  <smiles>  (17) 
CN1CCN(S(=O)(=O)c2ccc(NC(=O)Nc3ccc(Cl)c(S(=O)(=O)C4CC4)c3O)cc2)CC1

>  <score_type>  (17) 
oracle

>  <origin>  (17) 
adgpu

>  <m_score__min__energy>  (17) 
-13.92

>  <m_primary>  (17) 
energy

$$$$
17:0
     RDKit          3D

 44 46  0  0  0  0  0  0  0  0999 V2000
   -6.1800   18.1980  -31.7650 C   0  0  0  0  0  0  0  0  0  0  0  0
   -7.1160   18.5610  -32.8370 N   0  0  0  0  0  0  0  0  0  0  0  0
   -6.4630   19.4670  -33.7900 C   0  0  0  0  0  0  0  0  0  0  0  0
   -8.5100   19.3540  -32.1480 S   0  0  0  0  0  0  0  0  0  0  0  0
   -9.6850   19.2340  -33.0790 O   0  0  0  0  0  0  0  0  0  0  0  0
   -8.8680   18.7080  -30.8380 O   0  0  0  0  0  0  0  0  0  0  0  0
   -8.1430   21.0530  -31.8520 C   0  0  0  0  0  0  0  0  0  0  0  0
   -9.0610   22.0520  -32.1940 C   0  0  0  0  0  0  0  0  0  0  0  0
   -8.7510   23.3950  -31.9650 C   0  0  0  0  0  0  0  0  0  0  0  0
   -7.5220   23.7460  -31.4020 C   0  0  0  0  0  0  0  0  0  0  0  0
   -6.5800   22.7550  -31.0660 C   0  0  0  0  0  0  0  0  0  0  0  0
   -5.2680   23.1050  -30.4640 C   0  0  0  0  0  0  0  0  0  0  0  0
   -4.6630   22.3050  -29.4840 C   0  0  0  0  0  0  0  0  0  0  0  0
   -3.4330   22.6860  -28.9510 C   0  0  0  0  0  0  0  0  0  0  0  0
   -2.8220   23.8680  -29.3950 C   0  0  0  0  0  0  0  0  0  0  0  0
   -1.5480   24.3090  -28.8740 N   0  0  0  0  0  0  0  0  0  0  0  0
   -0.3280   23.5200  -29.0880 C   0  0  0  0  0  0  0  0  0  0  0  0
    0.6940   23.8070  -27.9840 C   0  0  0  0  0  0  0  0  0  0  0  0
    0.8980   25.1980  -27.8350 O   0  0  0  0  0  0  0  0  0  0  0  0
   -0.2930   25.8010  -27.3690 C   0  0  0  0  0  0  0  0  0  0  0  0
   -1.4010   25.6980  -28.4200 C   0  0  0  0  0  0  0  0  0  0  0  0
   -3.4560   24.6070  -30.3450 N   0  0  0  0  0  0  0  0  0  0  0  0
   -4.6320   24.2430  -30.8570 N   0  0  0  0  0  0  0  0  0  0  0  0
   -6.9080   21.4040  -31.2910 C   0  0  0  0  0  0  0  0  0  0  0  0
   -6.6521   18.3811  -30.7885 H   0  0  0  0  0  0  0  0  0  0  0  0
   -5.9182   17.1331  -31.8518 H   0  0  0  0  0  0  0  0  0  0  0  0
   -5.2687   18.8079  -31.8518 H   0  0  0  0  0  0  0  0  0  0  0  0
   -5.9063   20.2394  -33.2391 H   0  0  0  0  0  0  0  0  0  0  0  0
   -5.7681   18.8951  -34.4225 H   0  0  0  0  0  0  0  0  0  0  0  0
   -7.2253   19.9454  -34.4225 H   0  0  0  0  0  0  0  0  0  0  0  0
  -10.0274   21.7799  -32.6435 H   0  0  0  0  0  0  0  0  0  0  0  0
   -9.4770   24.1781  -32.2289 H   0  0  0  0  0  0  0  0  0  0  0  0
   -7.2881   24.8053  -31.2196 H   0  0  0  0  0  0  0  0  0  0  0  0
   -5.1554   21.3840  -29.1387 H   0  0  0  0  0  0  0  0  0  0  0  0
   -2.9443   22.0637  -28.1869 H   0  0  0  0  0  0  0  0  0  0  0  0
   -0.5820   22.4498  -29.0774 H   0  0  0  0  0  0  0  0  0  0  0  0
    0.1091   23.7952  -30.0592 H   0  0  0  0  0  0  0  0  0  0  0  0
    0.3240   23.3934  -27.0342 H   0  0  0  0  0  0  0  0  0  0  0  0
    1.6504   23.3390  -28.2600 H   0  0  0  0  0  0  0  0  0  0  0  0
   -0.6192   25.2923  -26.4499 H   0  0  0  0  0  0  0  0  0  0  0  0
   -0.0950   26.8642  -27.1681 H   0  0  0  0  0  0  0  0  0  0  0  0
   -2.3503   26.0381  -27.9805 H   0  0  0  0  0  0  0  0  0  0  0  0
   -1.1359   26.3289  -29.2812 H   0  0  0  0  0  0  0  0  0  0  0  0
   -6.1877   20.6168  -31.0237 H   0  0  0  0  0  0  0  0  0  0  0  0
  1  2  1  0
  2  3  1  0
  2  4  1  0
  4  5  2  0
  4  6  2  0
  4  7  1  0
  7  8  2  0
  8  9  1  0
  9 10  2  0
 10 11  1  0
 11 12  1  0
 12 13  2  0
 13 14  1  0
 14 15  2  0
 15 16  1  0
 16 17  1  0
 17 18  1  0
 18 19  1  0
 19 20  1  0
 20 21  1  0
 15 22  1  0
 22 23  2  0
 11 24  2  0
 24  7  1  0
 23 12  1  0
 21 16  1  0
  1 25  1  0
  1 26  1  0
  1 27  1  0
  3 28  1  0
  3 29  1  0
  3 30  1  0
  8 31  1  0
  9 32  1  0
 10 33  1  0
 13 34  1  0
 14 35  1  0
 17 36  1  0
 17 37  1  0
 18 38  1  0
 18 39  1  0
 20 40  1  0
 20 41  1  0
 21 42  1  0
 21 43  1  0
 24 44  1  0
M  END
>  <UniqueID>  (18) 
17

>  <SMILES>  (18) 
CN(C)S(=O)(=O)c1cccc(-c2ccc(N3CCOCC3)nn2)c1

>  <Energy>  (18) 
52.067223525261234

>  <Genealogy>  (18) 
CN(C)S(=O)(=O)c1cccc(-c2ccc(N3CCOCC3)nn2)c1 (3D coordinates assigned)
CN(C)S(=O)(=O)c1cccc(-c2ccc(N3CCOCC3)nn2)c1 (nonaromatic ring conformer: 52.067223525261234 kcal/mol)

>  <smiles>  (18) 
CN(C)S(=O)(=O)c1cccc(-c2ccc(N3CCOCC3)nn2)c1

>  <score_type>  (18) 
oracle

>  <origin>  (18) 
adgpu

>  <m_score__min__energy>  (18) 
-9.2100000000000009

>  <m_primary>  (18) 
energy

$$$$
18:0
     RDKit          3D

 49 52  0  0  0  0  0  0  0  0999 V2000
   -9.3140   22.9010  -31.9770 C   0  0  0  0  0  0  0  0  0  0  0  0
   -8.0570   22.7240  -31.3340 O   0  0  0  0  0  0  0  0  0  0  0  0
   -6.9780   22.0000  -31.8670 C   0  0  0  0  0  0  0  0  0  0  0  0
   -7.1820   20.8510  -32.6560 C   0  0  0  0  0  0  0  0  0  0  0  0
   -6.0960   20.1420  -33.1750 C   0  0  0  0  0  0  0  0  0  0  0  0
   -4.7820   20.5660  -32.9240 C   0  0  0  0  0  0  0  0  0  0  0  0
   -3.6260   19.8060  -33.4670 C   0  0  0  0  0  0  0  0  0  0  0  0
   -3.7930   18.4870  -33.9260 C   0  0  0  0  0  0  0  0  0  0  0  0
   -2.7050   17.7710  -34.4370 C   0  0  0  0  0  0  0  0  0  0  0  0
   -1.4290   18.3550  -34.4860 C   0  0  0  0  0  0  0  0  0  0  0  0
   -0.2700   17.6010  -35.0670 C   0  0  0  0  0  0  0  0  0  0  0  0
   -1.2600   19.6750  -34.0470 C   0  0  0  0  0  0  0  0  0  0  0  0
   -2.3470   20.3930  -33.5370 C   0  0  0  0  0  0  0  0  0  0  0  0
   -4.5770   21.7160  -32.1450 C   0  0  0  0  0  0  0  0  0  0  0  0
   -5.6590   22.4320  -31.6140 C   0  0  0  0  0  0  0  0  0  0  0  0
   -5.3050   23.8700  -30.6460 S   0  0  0  0  0  0  0  0  0  0  0  0
   -6.1340   25.0520  -31.0680 O   0  0  0  0  0  0  0  0  0  0  0  0
   -5.6240   23.5740  -29.2060 O   0  0  0  0  0  0  0  0  0  0  0  0
   -3.6190   24.2640  -30.7820 N   0  0  0  0  0  0  0  0  0  0  0  0
   -2.5840   23.5610  -30.0660 C   0  0  0  0  0  0  0  0  0  0  0  0
   -2.5330   22.1530  -30.0710 C   0  0  0  0  0  0  0  0  0  0  0  0
   -1.5030   21.4800  -29.4010 C   0  0  0  0  0  0  0  0  0  0  0  0
   -1.4290   20.0810  -29.4000 C   0  0  0  0  0  0  0  0  0  0  0  0
   -0.3830   19.4410  -28.7330 C   0  0  0  0  0  0  0  0  0  0  0  0
    0.5800   20.2090  -28.0650 C   0  0  0  0  0  0  0  0  0  0  0  0
    1.5300   19.6460  -27.4570 O   0  0  0  0  0  0  0  0  0  0  0  0
    0.4910   21.5670  -28.0630 N   0  0  0  0  0  0  0  0  0  0  0  0
   -0.5160   22.2160  -28.7100 C   0  0  0  0  0  0  0  0  0  0  0  0
   -0.5790   23.6120  -28.6850 C   0  0  0  0  0  0  0  0  0  0  0  0
   -1.6080   24.2830  -29.3540 C   0  0  0  0  0  0  0  0  0  0  0  0
   -1.6460   25.6740  -29.3150 O   0  0  0  0  0  0  0  0  0  0  0  0
  -10.1020   23.0120  -31.2175 H   0  0  0  0  0  0  0  0  0  0  0  0
   -9.2806   23.8033  -32.6053 H   0  0  0  0  0  0  0  0  0  0  0  0
   -9.5311   22.0246  -32.6053 H   0  0  0  0  0  0  0  0  0  0  0  0
   -8.2062   20.5088  -32.8654 H   0  0  0  0  0  0  0  0  0  0  0  0
   -6.2723   19.2440  -33.7854 H   0  0  0  0  0  0  0  0  0  0  0  0
   -4.7857   18.0152  -33.8829 H   0  0  0  0  0  0  0  0  0  0  0  0
   -2.8502   16.7438  -34.8028 H   0  0  0  0  0  0  0  0  0  0  0  0
    0.3501   17.1976  -34.2529 H   0  0  0  0  0  0  0  0  0  0  0  0
   -0.6448   16.7734  -35.6871 H   0  0  0  0  0  0  0  0  0  0  0  0
    0.3347   18.2791  -35.6871 H   0  0  0  0  0  0  0  0  0  0  0  0
   -0.2687   20.1485  -34.1036 H   0  0  0  0  0  0  0  0  0  0  0  0
   -2.2018   21.4258  -33.1873 H   0  0  0  0  0  0  0  0  0  0  0  0
   -3.5511   22.0606  -31.9482 H   0  0  0  0  0  0  0  0  0  0  0  0
   -3.3550   24.9440  -31.5290 H   0  0  0  0  0  0  0  0  0  0  0  0
   -3.3058   21.5793  -30.6036 H   0  0  0  0  0  0  0  0  0  0  0  0
   -2.1934   19.4882  -29.9236 H   0  0  0  0  0  0  0  0  0  0  0  0
   -0.3153   18.3431  -28.7318 H   0  0  0  0  0  0  0  0  0  0  0  0
    0.1835   24.1852  -28.1372 H   0  0  0  0  0  0  0  0  0  0  0  0
  1  2  1  0
  2  3  1  0
  3  4  2  0
  4  5  1  0
  5  6  2  0
  6  7  1  0
  7  8  2  0
  8  9  1  0
  9 10  2  0
 10 11  1  0
 10 12  1  0
 12 13  2  0
  6 14  1  0
 14 15  2  0
 15 16  1  0
 16 17  2  0
 16 18  2  0
 16 19  1  0
 19 20  1  0
 20 21  2  0
 21 22  1  0
 22 23  1  0
 23 24  2  0
 24 25  1  0
 25 26  2  0
 25 27  1  0
 27 28  1  0
 28 29  1  0
 29 30  2  0
 30 31  1  0
 15  3  1  0
 30 20  1  0
 13  7  1  0
 28 22  2  0
  1 32  1  0
  1 33  1  0
  1 34  1  0
  4 35  1  0
  5 36  1  0
  8 37  1  0
  9 38  1  0
 11 39  1  0
 11 40  1  0
 11 41  1  0
 12 42  1  0
 13 43  1  0
 14 44  1  0
 19 45  1  0
 21 46  1  0
 23 47  1  0
 24 48  1  0
 29 49  1  0
M  CHG  2  27  -1  31  -1
M  END
>  <UniqueID>  (19) 
18

>  <SMILES>  (19) 
COc1ccc(-c2ccc(C)cc2)cc1S(=O)(=O)Nc1cc2ccc(=O)[n-]c2cc1[O-]

>  <Energy>  (19) 
66.36550505168205

>  <Genealogy>  (19) 
COc1ccc(-c2ccc(C)cc2)cc1S(=O)(=O)Nc1cc2ccc(=O)[n-]c2cc1[O-] (protonated)
COc1ccc(-c2ccc(C)cc2)cc1S(=O)(=O)Nc1cc2ccc(=O)[n-]c2cc1[O-] (3D coordinates assigned)
COc1ccc(-c2ccc(C)cc2)cc1S(=O)(=O)Nc1cc2ccc(=O)[n-]c2cc1[O-] (optimized conformer: 66.36550505168205 kcal/mol)

>  <smiles>  (19) 
COc1ccc(-c2ccc(C)cc2)cc1S(=O)(=O)Nc1cc2ccc(=O)[nH]c2cc1O

>  <score_type>  (19) 
oracle

>  <origin>  (19) 
adgpu

>  <m_score__min__energy>  (19) 
-13.09

>  <m_primary>  (19) 
energy

$$$$
19:0
     RDKit          3D

 62 65  0  0  0  0  0  0  0  0999 V2000
   -5.7550   18.2820  -34.6180 C   0  0  0  0  0  0  0  0  0  0  0  0
   -5.5020   18.2970  -33.1680 N   0  0  0  0  0  0  0  0  0  0  0  0
   -6.7890   18.4390  -32.4460 C   0  0  0  0  0  0  0  0  0  0  0  0
   -7.6580   19.5960  -32.9820 C   0  0  0  0  0  0  0  0  0  0  0  0
   -7.3140   20.9080  -32.3200 C   0  0  0  0  0  0  0  0  0  0  0  0
   -8.2610   21.5670  -31.5230 C   0  0  0  0  0  0  0  0  0  0  0  0
   -7.9360   22.7650  -30.8860 C   0  0  0  0  0  0  0  0  0  0  0  0
   -6.6540   23.3140  -31.0130 C   0  0  0  0  0  0  0  0  0  0  0  0
   -6.3750   24.5630  -30.3640 N   0  0  0  0  0  0  0  0  0  0  0  0
   -5.1790   25.3430  -30.4970 C   0  0  0  0  0  0  0  0  0  0  0  0
   -5.2280   26.6000  -30.4500 O   0  0  0  0  0  0  0  0  0  0  0  0
   -3.9100   24.7050  -30.6750 N   0  0  0  0  0  0  0  0  0  0  0  0
   -3.2500   23.8490  -29.7310 C   0  0  0  0  0  0  0  0  0  0  0  0
   -3.6640   22.5240  -29.5310 C   0  0  0  0  0  0  0  0  0  0  0  0
   -2.9790   21.7010  -28.6400 C   0  0  0  0  0  0  0  0  0  0  0  0
   -1.8670   22.1800  -27.9400 C   0  0  0  0  0  0  0  0  0  0  0  0
   -1.0310   21.0570  -26.8720 Cl  0  0  0  0  0  0  0  0  0  0  0  0
   -1.4320   23.5110  -28.1300 C   0  0  0  0  0  0  0  0  0  0  0  0
   -0.0050   24.1290  -27.2700 S   0  0  0  0  0  0  0  0  0  0  0  0
    1.1240   24.3230  -28.2420 O   0  0  0  0  0  0  0  0  0  0  0  0
    0.4510   23.1520  -26.2240 O   0  0  0  0  0  0  0  0  0  0  0  0
   -0.4120   25.6960  -26.4910 C   0  0  0  0  0  0  0  0  0  0  0  0
    0.7690   26.6940  -26.5790 C   0  0  0  0  0  0  0  0  0  0  0  0
    1.6040   26.7040  -25.2880 C   0  0  0  0  0  0  0  0  0  0  0  0
    0.8030   27.0460  -24.0830 N   0  0  0  0  0  0  0  0  0  0  0  0
    0.9860   28.4550  -23.6990 C   0  0  0  0  0  0  0  0  0  0  0  0
   -0.6410   26.7240  -24.1920 C   0  0  0  0  0  0  0  0  0  0  0  0
   -0.8750   25.4680  -25.0350 C   0  0  0  0  0  0  0  0  0  0  0  0
   -2.1210   24.3300  -29.0510 C   0  0  0  0  0  0  0  0  0  0  0  0
   -1.6910   25.6300  -29.3050 O   0  0  0  0  0  0  0  0  0  0  0  0
   -5.7040   22.6650  -31.8200 C   0  0  0  0  0  0  0  0  0  0  0  0
   -6.0200   21.4570  -32.4660 C   0  0  0  0  0  0  0  0  0  0  0  0
   -4.9880   20.7720  -33.3390 C   0  0  0  0  0  0  0  0  0  0  0  0
   -4.5450   19.3760  -32.8290 C   0  0  0  0  0  0  0  0  0  0  0  0
   -6.8378   18.2178  -34.8006 H   0  0  0  0  0  0  0  0  0  0  0  0
   -5.3613   19.2051  -35.0685 H   0  0  0  0  0  0  0  0  0  0  0  0
   -5.2550   17.4119  -35.0685 H   0  0  0  0  0  0  0  0  0  0  0  0
   -7.3535   17.5004  -32.5483 H   0  0  0  0  0  0  0  0  0  0  0  0
   -6.5532   18.6647  -31.3955 H   0  0  0  0  0  0  0  0  0  0  0  0
   -7.4958   19.6907  -34.0659 H   0  0  0  0  0  0  0  0  0  0  0  0
   -8.7101   19.3656  -32.7585 H   0  0  0  0  0  0  0  0  0  0  0  0
   -9.2659   21.1370  -31.3993 H   0  0  0  0  0  0  0  0  0  0  0  0
   -8.6932   23.2827  -30.2789 H   0  0  0  0  0  0  0  0  0  0  0  0
   -4.5333   22.1330  -30.0801 H   0  0  0  0  0  0  0  0  0  0  0  0
   -3.3157   20.6652  -28.4856 H   0  0  0  0  0  0  0  0  0  0  0  0
   -1.2491   26.1518  -27.0400 H   0  0  0  0  0  0  0  0  0  0  0  0
    1.4168   26.4061  -27.4201 H   0  0  0  0  0  0  0  0  0  0  0  0
    0.3549   27.7023  -26.7268 H   0  0  0  0  0  0  0  0  0  0  0  0
    2.0425   25.7052  -25.1460 H   0  0  0  0  0  0  0  0  0  0  0  0
    2.3770   27.4784  -25.4010 H   0  0  0  0  0  0  0  0  0  0  0  0
    0.9967   28.5377  -22.6022 H   0  0  0  0  0  0  0  0  0  0  0  0
    1.9397   28.8245  -24.1039 H   0  0  0  0  0  0  0  0  0  0  0  0
    0.1584   29.0559  -24.1039 H   0  0  0  0  0  0  0  0  0  0  0  0
   -1.0471   26.5579  -23.1833 H   0  0  0  0  0  0  0  0  0  0  0  0
   -1.1461   27.5683  -24.6841 H   0  0  0  0  0  0  0  0  0  0  0  0
   -0.3073   24.6312  -24.6020 H   0  0  0  0  0  0  0  0  0  0  0  0
   -1.9506   25.2377  -25.0370 H   0  0  0  0  0  0  0  0  0  0  0  0
   -4.7044   23.1061  -31.9473 H   0  0  0  0  0  0  0  0  0  0  0  0
   -5.4141   20.6515  -34.3459 H   0  0  0  0  0  0  0  0  0  0  0  0
   -4.0922   21.4102  -33.3271 H   0  0  0  0  0  0  0  0  0  0  0  0
   -3.5711   19.1329  -33.2789 H   0  0  0  0  0  0  0  0  0  0  0  0
   -4.4925   19.4318  -31.7317 H   0  0  0  0  0  0  0  0  0  0  0  0
  1  2  1  0
  2  3  1  0
  3  4  1  0
  4  5  1  0
  5  6  2  0
  6  7  1  0
  7  8  2  0
  8  9  1  0
  9 10  1  0
 10 11  2  0
 10 12  1  0
 12 13  1  0
 13 14  2  0
 14 15  1  0
 15 16  2  0
 16 17  1  0
 16 18  1  0
 18 19  1  0
 19 20  2  0
 19 21  2  0
 19 22  1  0
 22 23  1  0
 23 24  1  0
 24 25  1  0
 25 26  1  0
 25 27  1  0
 27 28  1  0
 18 29  2  0
 29 30  1  0
  8 31  1  0
 31 32  2  0
 32 33  1  0
 33 34  1  0
 34  2  1  0
 32  5  1  0
 29 13  1  0
 28 22  1  0
  1 35  1  0
  1 36  1  0
  1 37  1  0
  3 38  1  0
  3 39  1  0
  4 40  1  0
  4 41  1  0
  6 42  1  0
  7 43  1  0
 14 44  1  0
 15 45  1  0
 22 46  1  0
 23 47  1  0
 23 48  1  0
 24 49  1  0
 24 50  1  0
 26 51  1  0
 26 52  1  0
 26 53  1  0
 27 54  1  0
 27 55  1  0
 28 56  1  0
 28 57  1  0
 31 58  1  0
 33 59  1  0
 33 60  1  0
 34 61  1  0
 34 62  1  0
M  CHG  3   9  -1  12  -1  30  -1
M  END
>  <UniqueID>  (20) 
19

>  <SMILES>  (20) 
CN1CCc2ccc([N-]C(=O)[N-]c3ccc(Cl)c(S(=O)(=O)C4CCN(C)CC4)c3[O-])cc2CC1

>  <Energy>  (20) 
89.65967119909766

>  <Genealogy>  (20) 
CN1CCc2ccc([N-]C(=O)[N-]c3ccc(Cl)c(S(=O)(=O)C4CCN(C)CC4)c3[O-])cc2CC1 (protonated)
CN1CCc2ccc([N-]C(=O)[N-]c3ccc(Cl)c(S(=O)(=O)C4CCN(C)CC4)c3[O-])cc2CC1 (3D coordinates assigned)
CN1CCc2ccc([N-]C(=O)[N-]c3ccc(Cl)c(S(=O)(=O)C4CCN(C)CC4)c3[O-])cc2CC1 (nonaromatic ring conformer: 89.65967119909766 kcal/mol)

>  <smiles>  (20) 
CN1CCc2ccc(NC(=O)Nc3ccc(Cl)c(S(=O)(=O)C4CCN(C)CC4)c3O)cc2CC1

>  <score_type>  (20) 
oracle

>  <origin>  (20) 
adgpu

>  <m_score__min__energy>  (20) 
-15.5

>  <m_primary>  (20) 
energy

$$$$
20:0
     RDKit          3D

 59 62  0  0  0  0  0  0  0  0999 V2000
   -3.9490   25.6490  -30.5600 O   0  0  0  0  0  0  0  0  0  0  0  0
   -4.3410   24.4520  -30.6120 C   0  0  0  0  0  0  0  0  0  0  0  0
   -5.3060   24.0460  -31.5890 N   0  0  0  0  0  0  0  0  0  0  0  0
   -5.7830   22.7110  -31.8120 C   0  0  0  0  0  0  0  0  0  0  0  0
   -4.9190   21.6010  -31.8220 C   0  0  0  0  0  0  0  0  0  0  0  0
   -5.4270   20.3140  -32.0220 C   0  0  0  0  0  0  0  0  0  0  0  0
   -6.8000   20.1190  -32.2160 C   0  0  0  0  0  0  0  0  0  0  0  0
   -7.4430   18.4960  -32.4650 S   0  0  0  0  0  0  0  0  0  0  0  0
   -7.0820   17.6420  -31.2810 O   0  0  0  0  0  0  0  0  0  0  0  0
   -8.9420   18.5740  -32.5290 O   0  0  0  0  0  0  0  0  0  0  0  0
   -6.8520   17.7340  -33.9290 N   0  0  0  0  0  0  0  0  0  0  0  0
   -6.4780   16.3180  -33.7490 C   0  0  0  0  0  0  0  0  0  0  0  0
   -5.0000   16.1390  -33.3790 C   0  0  0  0  0  0  0  0  0  0  0  0
   -4.1690   16.8100  -34.3010 O   0  0  0  0  0  0  0  0  0  0  0  0
   -4.4050   18.1970  -34.2100 C   0  0  0  0  0  0  0  0  0  0  0  0
   -5.8390   18.5370  -34.6400 C   0  0  0  0  0  0  0  0  0  0  0  0
   -7.6660   21.2200  -32.1660 C   0  0  0  0  0  0  0  0  0  0  0  0
   -7.1600   22.5060  -31.9620 C   0  0  0  0  0  0  0  0  0  0  0  0
   -3.8360   23.4810  -29.6850 N   0  0  0  0  0  0  0  0  0  0  0  0
   -3.0330   23.7980  -28.5350 C   0  0  0  0  0  0  0  0  0  0  0  0
   -1.6720   23.4500  -28.4700 C   0  0  0  0  0  0  0  0  0  0  0  0
   -0.9090   23.7900  -27.3480 C   0  0  0  0  0  0  0  0  0  0  0  0
   -1.4910   24.4890  -26.2840 C   0  0  0  0  0  0  0  0  0  0  0  0
   -0.5320   24.9410  -24.8760 S   0  0  0  0  0  0  0  0  0  0  0  0
   -0.6360   23.8370  -23.8610 O   0  0  0  0  0  0  0  0  0  0  0  0
    0.9120   25.0840  -25.2700 O   0  0  0  0  0  0  0  0  0  0  0  0
   -1.1310   26.4300  -24.1730 N   0  0  0  0  0  0  0  0  0  0  0  0
   -1.2340   27.5090  -25.1710 C   0  0  0  0  0  0  0  0  0  0  0  0
    0.1510   28.0780  -25.5670 C   0  0  0  0  0  0  0  0  0  0  0  0
    1.1760   27.7710  -24.6370 O   0  0  0  0  0  0  0  0  0  0  0  0
    0.7030   27.9240  -23.3190 C   0  0  0  0  0  0  0  0  0  0  0  0
   -0.3380   26.8370  -22.9920 C   0  0  0  0  0  0  0  0  0  0  0  0
   -2.8380   24.8650  -26.3580 C   0  0  0  0  0  0  0  0  0  0  0  0
   -3.6020   24.5270  -27.4790 C   0  0  0  0  0  0  0  0  0  0  0  0
   -3.8390   21.7463  -31.6718 H   0  0  0  0  0  0  0  0  0  0  0  0
   -4.7452   19.4508  -32.0270 H   0  0  0  0  0  0  0  0  0  0  0  0
   -7.0962   15.8900  -32.9461 H   0  0  0  0  0  0  0  0  0  0  0  0
   -6.6451   15.8055  -34.7079 H   0  0  0  0  0  0  0  0  0  0  0  0
   -4.8276   16.5491  -32.3730 H   0  0  0  0  0  0  0  0  0  0  0  0
   -4.7579   15.0662  -33.4012 H   0  0  0  0  0  0  0  0  0  0  0  0
   -4.2545   18.5206  -33.1695 H   0  0  0  0  0  0  0  0  0  0  0  0
   -3.7042   18.7178  -34.8790 H   0  0  0  0  0  0  0  0  0  0  0  0
   -6.0253   19.6013  -34.4337 H   0  0  0  0  0  0  0  0  0  0  0  0
   -5.9272   18.3091  -35.7125 H   0  0  0  0  0  0  0  0  0  0  0  0
   -8.7490   21.0707  -32.2880 H   0  0  0  0  0  0  0  0  0  0  0  0
   -7.8479   23.3633  -31.9189 H   0  0  0  0  0  0  0  0  0  0  0  0
   -3.9920   22.4730  -29.9140 H   0  0  0  0  0  0  0  0  0  0  0  0
   -1.2052   22.9078  -29.3055 H   0  0  0  0  0  0  0  0  0  0  0  0
    0.1529   23.5069  -27.3016 H   0  0  0  0  0  0  0  0  0  0  0  0
   -1.7239   27.1117  -26.0722 H   0  0  0  0  0  0  0  0  0  0  0  0
   -1.8181   28.3266  -24.7234 H   0  0  0  0  0  0  0  0  0  0  0  0
    0.4321   27.6606  -26.5451 H   0  0  0  0  0  0  0  0  0  0  0  0
    0.0552   29.1735  -25.5926 H   0  0  0  0  0  0  0  0  0  0  0  0
    1.5473   27.8395  -22.6189 H   0  0  0  0  0  0  0  0  0  0  0  0
    0.2292   28.9120  -23.2226 H   0  0  0  0  0  0  0  0  0  0  0  0
    0.1873   25.9537  -22.5998 H   0  0  0  0  0  0  0  0  0  0  0  0
   -1.0358   27.2577  -22.2530 H   0  0  0  0  0  0  0  0  0  0  0  0
   -3.2963   25.4280  -25.5316 H   0  0  0  0  0  0  0  0  0  0  0  0
   -4.6567   24.8346  -27.5339 H   0  0  0  0  0  0  0  0  0  0  0  0
  1  2  2  0
  2  3  1  0
  3  4  1  0
  4  5  2  0
  5  6  1  0
  6  7  2  0
  7  8  1  0
  8  9  2  0
  8 10  2  0
  8 11  1  0
 11 12  1  0
 12 13  1  0
 13 14  1  0
 14 15  1  0
 15 16  1  0
  7 17  1  0
 17 18  2  0
  2 19  1  0
 19 20  1  0
 20 21  2  0
 21 22  1  0
 22 23  2  0
 23 24  1  0
 24 25  2  0
 24 26  2  0
 24 27  1  0
 27 28  1  0
 28 29  1  0
 29 30  1  0
 30 31  1  0
 31 32  1  0
 23 33  1  0
 33 34  2  0
 18  4  1  0
 34 20  1  0
 16 11  1  0
 32 27  1  0
  5 35  1  0
  6 36  1  0
 12 37  1  0
 12 38  1  0
 13 39  1  0
 13 40  1  0
 15 41  1  0
 15 42  1  0
 16 43  1  0
 16 44  1  0
 17 45  1  0
 18 46  1  0
 19 47  1  0
 21 48  1  0
 22 49  1  0
 28 50  1  0
 28 51  1  0
 29 52  1  0
 29 53  1  0
 31 54  1  0
 31 55  1  0
 32 56  1  0
 32 57  1  0
 33 58  1  0
 34 59  1  0
M  CHG  1   3  -1
M  END
>  <UniqueID>  (21) 
20

>  <SMILES>  (21) 
O=C([N-]c1ccc(S(=O)(=O)N2CCOCC2)cc1)Nc1ccc(S(=O)(=O)N2CCOCC2)cc1

>  <Energy>  (21) 
84.2970849130164

>  <Genealogy>  (21) 
O=C([N-]c1ccc(S(=O)(=O)N2CCOCC2)cc1)Nc1ccc(S(=O)(=O)N2CCOCC2)cc1 (protonated)
O=C([N-]c1ccc(S(=O)(=O)N2CCOCC2)cc1)Nc1ccc(S(=O)(=O)N2CCOCC2)cc1 (3D coordinates assigned)
O=C([N-]c1ccc(S(=O)(=O)N2CCOCC2)cc1)Nc1ccc(S(=O)(=O)N2CCOCC2)cc1 (nonaromatic ring conformer: 84.2970849130164 kcal/mol)

>  <smiles>  (21) 
O=C(Nc1ccc(S(=O)(=O)N2CCOCC2)cc1)Nc1ccc(S(=O)(=O)N2CCOCC2)cc1

>  <score_type>  (21) 
oracle

>  <origin>  (21) 
adgpu

>  <m_score__min__energy>  (21) 
-11.300000000000001

>  <m_primary>  (21) 
energy

$$$$
21:0
     RDKit          3D

 40 42  0  0  0  0  0  0  0  0999 V2000
   -9.4990   19.6620  -34.1250 H   0  0  0  0  0  0  0  0  0  0  0  0
   -9.6140   19.6680  -33.0870 N   0  0  0  0  0  0  0  0  0  0  0  0
   -8.1240   19.1100  -32.4110 S   0  0  0  0  0  0  0  0  0  0  0  0
   -7.3710   18.3240  -33.4470 O   0  0  0  0  0  0  0  0  0  0  0  0
   -8.4080   18.2140  -31.2380 O   0  0  0  0  0  0  0  0  0  0  0  0
   -7.1620   20.4890  -31.8900 C   0  0  0  0  0  0  0  0  0  0  0  0
   -7.7580   21.5270  -31.1610 C   0  0  0  0  0  0  0  0  0  0  0  0
   -8.8270   21.4751  -30.9068 H   0  0  0  0  0  0  0  0  0  0  0  0
   -6.9980   22.6280  -30.7560 C   0  0  0  0  0  0  0  0  0  0  0  0
   -7.4656   23.4286  -30.1641 H   0  0  0  0  0  0  0  0  0  0  0  0
   -5.6390   22.7160  -31.1020 C   0  0  0  0  0  0  0  0  0  0  0  0
   -4.8240   23.8090  -30.6490 N   0  0  0  0  0  0  0  0  0  0  0  0
   -3.7070   23.7450  -29.9790 C   0  0  0  0  0  0  0  0  0  0  0  0
   -3.0360   24.9010  -29.7280 N   0  0  0  0  0  0  0  0  0  0  0  0
   -1.8760   24.9410  -29.0200 C   0  0  0  0  0  0  0  0  0  0  0  0
   -1.2310   26.2050  -28.8160 N   0  0  0  0  0  0  0  0  0  0  0  0
   -1.0600   26.7960  -29.6610 H   0  0  0  0  0  0  0  0  0  0  0  0
   -0.9820   26.7780  -27.5210 C   0  0  0  0  0  0  0  0  0  0  0  0
   -1.5350   26.2220  -26.3510 C   0  0  0  0  0  0  0  0  0  0  0  0
   -2.1652   25.3228  -26.4172 H   0  0  0  0  0  0  0  0  0  0  0  0
   -1.2870   26.8070  -25.1070 C   0  0  0  0  0  0  0  0  0  0  0  0
   -1.7176   26.3637  -24.1970 H   0  0  0  0  0  0  0  0  0  0  0  0
   -0.4940   27.9530  -25.0150 C   0  0  0  0  0  0  0  0  0  0  0  0
   -0.2974   28.4069  -24.0325 H   0  0  0  0  0  0  0  0  0  0  0  0
    0.0520   28.5260  -26.1720 C   0  0  0  0  0  0  0  0  0  0  0  0
    0.8590   29.7030  -26.0800 N   0  0  0  0  0  0  0  0  0  0  0  0
    0.9510   30.2190  -25.1760 H   0  0  0  0  0  0  0  0  0  0  0  0
    1.3700   30.0680  -26.9140 H   0  0  0  0  0  0  0  0  0  0  0  0
   -0.1980   27.9390  -27.4210 C   0  0  0  0  0  0  0  0  0  0  0  0
    0.2237   28.3920  -28.3304 H   0  0  0  0  0  0  0  0  0  0  0  0
   -1.3140   23.7430  -28.5420 C   0  0  0  0  0  0  0  0  0  0  0  0
    0.3860   23.6920  -27.6560 Br  0  0  0  0  0  0  0  0  0  0  0  0
   -1.9920   22.5430  -28.7640 C   0  0  0  0  0  0  0  0  0  0  0  0
   -1.5758   21.5998  -28.3805 H   0  0  0  0  0  0  0  0  0  0  0  0
   -3.1950   22.5350  -29.4700 C   0  0  0  0  0  0  0  0  0  0  0  0
   -3.7393   21.5922  -29.6280 H   0  0  0  0  0  0  0  0  0  0  0  0
   -5.0400   21.6640  -31.8050 C   0  0  0  0  0  0  0  0  0  0  0  0
   -3.9659   21.7038  -32.0391 H   0  0  0  0  0  0  0  0  0  0  0  0
   -5.8000   20.5630  -32.2110 C   0  0  0  0  0  0  0  0  0  0  0  0
   -5.3272   19.7520  -32.7844 H   0  0  0  0  0  0  0  0  0  0  0  0
  1  2  1  0
  2  3  1  0
  3  4  2  0
  3  5  2  0
  3  6  1  0
  6  7  2  0
  7  8  1  0
  7  9  1  0
  9 10  1  0
  9 11  2  0
 11 12  1  0
 12 13  2  0
 13 14  1  0
 14 15  1  0
 15 16  1  0
 16 17  1  0
 16 18  1  0
 18 19  2  0
 19 20  1  0
 19 21  1  0
 21 22  1  0
 21 23  2  0
 23 24  1  0
 23 25  1  0
 25 26  1  0
 26 27  1  0
 26 28  1  0
 25 29  2  0
 29 30  1  0
 15 31  2  0
 31 32  1  0
 31 33  1  0
 33 34  1  0
 33 35  2  0
 35 36  1  0
 11 37  1  0
 37 38  1  0
 37 39  2  0
 39 40  1  0
 39  6  1  0
 35 13  1  0
 29 18  1  0
M  CHG  2   2  -1  14  -1
M  END
>  <UniqueID>  (22) 
21

>  <SMILES>  (22) 
[NH-]S(=O)(=O)c1ccc(/N=c2\ccc(Br)c(Nc3cccc(N)c3)[n-]2)cc1

>  <Energy>  (22) 
59.277833764838114

>  <Genealogy>  (22) 
[NH-]S(=O)(=O)c1ccc(N=c2ccc(Br)c(Nc3cccc(N)c3)[n-]2)cc1 (protonated)
[NH-]S(=O)(=O)c1ccc(/N=c2\ccc(Br)c(Nc3cccc(N)c3)[n-]2)cc1 (cis-trans isomerization)
[NH-]S(=O)(=O)c1ccc(/N=c2\ccc(Br)c(Nc3cccc(N)c3)[n-]2)cc1 (3D coordinates assigned)
[NH-]S(=O)(=O)c1ccc(/N=c2\ccc(Br)c(Nc3cccc(N)c3)[n-]2)cc1 (optimized conformer: 59.277833764838114 kcal/mol)

>  <smiles>  (22) 
Nc1cccc(Nc2[nH]c(=Nc3ccc(S(N)(=O)=O)cc3)ccc2Br)c1

>  <score_type>  (22) 
oracle

>  <origin>  (22) 
adgpu

>  <m_score__min__energy>  (22) 
-10.27

>  <m_primary>  (22) 
energy

$$$$
22:0
     RDKit          3D

 50 53  0  0  0  0  0  0  0  0999 V2000
   -3.3950   22.0300  -31.2390 N   0  0  0  0  0  0  0  0  0  0  0  0
   -4.1820   22.9500  -30.4630 C   0  0  0  0  0  0  0  0  0  0  0  0
   -3.7620   23.2760  -29.1550 C   0  0  0  0  0  0  0  0  0  0  0  0
   -2.5120   22.7870  -28.6240 N   0  0  0  0  0  0  0  0  0  0  0  0
   -2.5210   21.5380  -27.8480 C   0  0  0  0  0  0  0  0  0  0  0  0
   -1.4420   20.6090  -28.3350 C   0  0  0  0  0  0  0  0  0  0  0  0
   -0.4710   20.1220  -27.4470 C   0  0  0  0  0  0  0  0  0  0  0  0
    0.4990   19.2240  -27.8970 C   0  0  0  0  0  0  0  0  0  0  0  0
    0.4880   18.8170  -29.2320 C   0  0  0  0  0  0  0  0  0  0  0  0
   -0.4610   19.2920  -30.0800 N   0  0  0  0  0  0  0  0  0  0  0  0
   -1.4180   20.1670  -29.6670 C   0  0  0  0  0  0  0  0  0  0  0  0
   -1.2550   23.3870  -29.0200 C   0  0  0  0  0  0  0  0  0  0  0  0
   -0.6890   23.0030  -30.0800 O   0  0  0  0  0  0  0  0  0  0  0  0
   -0.6190   24.4690  -28.2440 C   0  0  0  0  0  0  0  0  0  0  0  0
    0.5470   24.3870  -27.4850 C   0  0  0  0  0  0  0  0  0  0  0  0
    0.8960   25.5960  -26.8720 C   0  0  0  0  0  0  0  0  0  0  0  0
    0.0140   26.6280  -27.1550 C   0  0  0  0  0  0  0  0  0  0  0  0
    0.1510   28.4210  -26.5230 Br  0  0  0  0  0  0  0  0  0  0  0  0
   -1.1950   26.0490  -28.1670 S   0  0  0  0  0  0  0  0  0  0  0  0
   -4.5510   24.1460  -28.3970 C   0  0  0  0  0  0  0  0  0  0  0  0
   -4.1980   24.4780  -27.2330 O   0  0  0  0  0  0  0  0  0  0  0  0
   -5.6850   24.6660  -28.9260 N   0  0  0  0  0  0  0  0  0  0  0  0
   -6.0730   24.3730  -30.1930 C   0  0  0  0  0  0  0  0  0  0  0  0
   -7.1240   24.9080  -30.6470 O   0  0  0  0  0  0  0  0  0  0  0  0
   -5.3360   23.5110  -30.9710 N   0  0  0  0  0  0  0  0  0  0  0  0
   -5.8050   23.2260  -32.3440 C   0  0  0  0  0  0  0  0  0  0  0  0
   -6.8450   22.1290  -32.3420 C   0  0  0  0  0  0  0  0  0  0  0  0
   -6.5130   20.8180  -32.7300 C   0  0  0  0  0  0  0  0  0  0  0  0
   -7.4820   19.8100  -32.7200 C   0  0  0  0  0  0  0  0  0  0  0  0
   -8.7870   20.0990  -32.3160 C   0  0  0  0  0  0  0  0  0  0  0  0
   -9.1260   21.3940  -31.9190 C   0  0  0  0  0  0  0  0  0  0  0  0
   -8.1600   22.4060  -31.9290 C   0  0  0  0  0  0  0  0  0  0  0  0
   -2.3540   22.0130  -31.1610 H   0  0  0  0  0  0  0  0  0  0  0  0
   -3.8070   21.4220  -31.9790 H   0  0  0  0  0  0  0  0  0  0  0  0
   -2.3478   21.7696  -26.7867 H   0  0  0  0  0  0  0  0  0  0  0  0
   -3.4974   21.0473  -27.9738 H   0  0  0  0  0  0  0  0  0  0  0  0
   -0.4739   20.4476  -26.3963 H   0  0  0  0  0  0  0  0  0  0  0  0
    1.2644   18.8411  -27.2060 H   0  0  0  0  0  0  0  0  0  0  0  0
    1.2483   18.1111  -29.5977 H   0  0  0  0  0  0  0  0  0  0  0  0
   -2.1746   20.5288  -30.3788 H   0  0  0  0  0  0  0  0  0  0  0  0
    1.1349   23.4634  -27.3782 H   0  0  0  0  0  0  0  0  0  0  0  0
    1.7812   25.7155  -26.2301 H   0  0  0  0  0  0  0  0  0  0  0  0
   -6.2620   25.3230  -28.3510 H   0  0  0  0  0  0  0  0  0  0  0  0
   -6.2455   24.1391  -32.7709 H   0  0  0  0  0  0  0  0  0  0  0  0
   -4.9465   22.8953  -32.9471 H   0  0  0  0  0  0  0  0  0  0  0  0
   -5.4847   20.5845  -33.0432 H   0  0  0  0  0  0  0  0  0  0  0  0
   -7.2161   18.7888  -33.0306 H   0  0  0  0  0  0  0  0  0  0  0  0
   -9.5488   19.3055  -32.3105 H   0  0  0  0  0  0  0  0  0  0  0  0
  -10.1538   21.6188  -31.5980 H   0  0  0  0  0  0  0  0  0  0  0  0
   -8.4309   23.4239  -31.6120 H   0  0  0  0  0  0  0  0  0  0  0  0
  1  2  1  0
  2  3  2  0
  3  4  1  0
  4  5  1  0
  5  6  1  0
  6  7  2  0
  7  8  1  0
  8  9  2  0
  9 10  1  0
 10 11  2  0
  4 12  1  0
 12 13  2  0
 12 14  1  0
 14 15  2  0
 15 16  1  0
 16 17  2  0
 17 18  1  0
 17 19  1  0
  3 20  1  0
 20 21  2  0
 20 22  1  0
 22 23  1  0
 23 24  2  0
 23 25  1  0
 25 26  1  0
 26 27  1  0
 27 28  2  0
 28 29  1  0
 29 30  2  0
 30 31  1  0
 31 32  2  0
 25  2  1  0
 32 27  1  0
 11  6  1  0
 19 14  1  0
  1 33  1  0
  1 34  1  0
  5 35  1  0
  5 36  1  0
  7 37  1  0
  8 38  1  0
  9 39  1  0
 11 40  1  0
 15 41  1  0
 16 42  1  0
 22 43  1  0
 26 44  1  0
 26 45  1  0
 28 46  1  0
 29 47  1  0
 30 48  1  0
 31 49  1  0
 32 50  1  0
M  END
>  <UniqueID>  (23) 
22

>  <SMILES>  (23) 
Nc1c(N(Cc2cccnc2)C(=O)c2ccc(Br)s2)c(=O)[nH]c(=O)n1Cc1ccccc1

>  <Energy>  (23) 
93.92230089141894

>  <Genealogy>  (23) 
Nc1c(N(Cc2cccnc2)C(=O)c2ccc(Br)s2)c(=O)[nH]c(=O)n1Cc1ccccc1 (3D coordinates assigned)
Nc1c(N(Cc2cccnc2)C(=O)c2ccc(Br)s2)c(=O)[nH]c(=O)n1Cc1ccccc1 (optimized conformer: 93.92230089141894 kcal/mol)

>  <smiles>  (23) 
Nc1c(N(Cc2cccnc2)C(=O)c2ccc(Br)s2)c(=O)[nH]c(=O)n1Cc1ccccc1

>  <score_type>  (23) 
oracle

>  <origin>  (23) 
adgpu

>  <m_score__min__energy>  (23) 
-9.3499999999999996

>  <m_primary>  (23) 
energy

$$$$
23:0
     RDKit          3D

 57 60  0  0  0  0  0  0  0  0999 V2000
   -4.3730   23.4000  -32.2090 O   0  0  0  0  0  0  0  0  0  0  0  0
   -4.4480   23.0140  -31.0130 C   0  0  0  0  0  0  0  0  0  0  0  0
   -4.0350   23.9060  -29.9710 N   0  0  0  0  0  0  0  0  0  0  0  0
   -3.1240   23.5920  -28.9060 C   0  0  0  0  0  0  0  0  0  0  0  0
   -3.2210   22.3860  -28.1970 C   0  0  0  0  0  0  0  0  0  0  0  0
   -2.3230   22.1010  -27.1710 C   0  0  0  0  0  0  0  0  0  0  0  0
   -1.2970   22.9960  -26.8560 C   0  0  0  0  0  0  0  0  0  0  0  0
   -0.2330   22.5780  -25.5150 Cl  0  0  0  0  0  0  0  0  0  0  0  0
   -1.1510   24.1930  -27.5940 C   0  0  0  0  0  0  0  0  0  0  0  0
    0.1550   25.3360  -27.2100 S   0  0  0  0  0  0  0  0  0  0  0  0
   -0.0520   26.6430  -27.9260 O   0  0  0  0  0  0  0  0  0  0  0  0
    1.4730   24.7700  -27.6580 O   0  0  0  0  0  0  0  0  0  0  0  0
    0.1870   25.5790  -25.4350 C   0  0  0  0  0  0  0  0  0  0  0  0
   -1.1680   25.8790  -24.8170 C   0  0  0  0  0  0  0  0  0  0  0  0
   -0.1360   26.9870  -24.9640 C   0  0  0  0  0  0  0  0  0  0  0  0
   -2.0830   24.4860  -28.6140 C   0  0  0  0  0  0  0  0  0  0  0  0
   -1.9960   25.6720  -29.3360 O   0  0  0  0  0  0  0  0  0  0  0  0
   -5.0350   21.7410  -30.6990 N   0  0  0  0  0  0  0  0  0  0  0  0
   -5.1230   20.6450  -31.6250 C   0  0  0  0  0  0  0  0  0  0  0  0
   -6.3500   20.2580  -32.1920 C   0  0  0  0  0  0  0  0  0  0  0  0
   -6.4040   19.2120  -33.1170 C   0  0  0  0  0  0  0  0  0  0  0  0
   -5.2300   18.5550  -33.5100 C   0  0  0  0  0  0  0  0  0  0  0  0
   -5.2750   17.2520  -34.6980 S   0  0  0  0  0  0  0  0  0  0  0  0
   -6.5210   16.4490  -34.4490 O   0  0  0  0  0  0  0  0  0  0  0  0
   -5.3670   17.8170  -36.0880 O   0  0  0  0  0  0  0  0  0  0  0  0
   -3.9020   16.1730  -34.5820 N   0  0  0  0  0  0  0  0  0  0  0  0
   -4.0850   14.9570  -33.7670 C   0  0  0  0  0  0  0  0  0  0  0  0
   -4.8680   13.8580  -34.5300 C   0  0  0  0  0  0  0  0  0  0  0  0
   -5.7400   12.9890  -33.6070 C   0  0  0  0  0  0  0  0  0  0  0  0
   -5.0070   12.6640  -32.3000 C   0  0  0  0  0  0  0  0  0  0  0  0
   -4.6270   13.9310  -31.5010 C   0  0  0  0  0  0  0  0  0  0  0  0
   -4.6320   15.2190  -32.3470 C   0  0  0  0  0  0  0  0  0  0  0  0
   -4.0060   18.9360  -32.9440 C   0  0  0  0  0  0  0  0  0  0  0  0
   -3.9520   19.9810  -32.0190 C   0  0  0  0  0  0  0  0  0  0  0  0
   -4.0092   21.6623  -28.4520 H   0  0  0  0  0  0  0  0  0  0  0  0
   -2.4223   21.1636  -26.6040 H   0  0  0  0  0  0  0  0  0  0  0  0
    0.9990   24.8638  -25.2369 H   0  0  0  0  0  0  0  0  0  0  0  0
   -2.0709   25.8813  -25.4454 H   0  0  0  0  0  0  0  0  0  0  0  0
   -1.7509   25.4646  -23.9812 H   0  0  0  0  0  0  0  0  0  0  0  0
   -0.2924   27.7906  -25.6987 H   0  0  0  0  0  0  0  0  0  0  0  0
    0.3368   27.7059  -24.2787 H   0  0  0  0  0  0  0  0  0  0  0  0
   -5.4850   21.6330  -29.7620 H   0  0  0  0  0  0  0  0  0  0  0  0
   -7.2737   20.7822  -31.9055 H   0  0  0  0  0  0  0  0  0  0  0  0
   -7.3719   18.9030  -33.5385 H   0  0  0  0  0  0  0  0  0  0  0  0
   -3.0720   14.5644  -33.5948 H   0  0  0  0  0  0  0  0  0  0  0  0
   -5.5189   14.3430  -35.2724 H   0  0  0  0  0  0  0  0  0  0  0  0
   -4.1280   13.1953  -35.0025 H   0  0  0  0  0  0  0  0  0  0  0  0
   -6.6676   13.5321  -33.3732 H   0  0  0  0  0  0  0  0  0  0  0  0
   -5.9647   12.0452  -34.1255 H   0  0  0  0  0  0  0  0  0  0  0  0
   -5.6607   12.0368  -31.6760 H   0  0  0  0  0  0  0  0  0  0  0  0
   -4.0743   12.1429  -32.5618 H   0  0  0  0  0  0  0  0  0  0  0  0
   -5.3473   14.0524  -30.6786 H   0  0  0  0  0  0  0  0  0  0  0  0
   -3.5984   13.7872  -31.1387 H   0  0  0  0  0  0  0  0  0  0  0  0
   -5.6633   15.5940  -32.4234 H   0  0  0  0  0  0  0  0  0  0  0  0
   -3.9848   15.9606  -31.8559 H   0  0  0  0  0  0  0  0  0  0  0  0
   -3.0834   18.4095  -33.2296 H   0  0  0  0  0  0  0  0  0  0  0  0
   -2.9834   20.2858  -31.5961 H   0  0  0  0  0  0  0  0  0  0  0  0
  1  2  2  0
  2  3  1  0
  3  4  1  0
  4  5  2  0
  5  6  1  0
  6  7  2  0
  7  8  1  0
  7  9  1  0
  9 10  1  0
 10 11  2  0
 10 12  2  0
 10 13  1  0
 13 14  1  0
 14 15  1  0
  9 16  2  0
 16 17  1  0
  2 18  1  0
 18 19  1  0
 19 20  2  0
 20 21  1  0
 21 22  2  0
 22 23  1  0
 23 24  2  0
 23 25  2  0
 23 26  1  0
 26 27  1  0
 27 28  1  0
 28 29  1  0
 29 30  1  0
 30 31  1  0
 31 32  1  0
 22 33  1  0
 33 34  2  0
 16  4  1  0
 34 19  1  0
 15 13  1  0
 32 27  1  0
  5 35  1  0
  6 36  1  0
 13 37  1  0
 14 38  1  0
 14 39  1  0
 15 40  1  0
 15 41  1  0
 18 42  1  0
 20 43  1  0
 21 44  1  0
 27 45  1  0
 28 46  1  0
 28 47  1  0
 29 48  1  0
 29 49  1  0
 30 50  1  0
 30 51  1  0
 31 52  1  0
 31 53  1  0
 32 54  1  0
 32 55  1  0
 33 56  1  0
 34 57  1  0
M  CHG  3   3  -1  17  -1  26  -1
M  END
>  <UniqueID>  (24) 
23

>  <SMILES>  (24) 
O=C([N-]c1ccc(Cl)c(S(=O)(=O)C2CC2)c1[O-])Nc1ccc(S(=O)(=O)[N-]C2CCCCC2)cc1

>  <Energy>  (24) 
339.2355249582563

>  <Genealogy>  (24) 
O=C([N-]c1ccc(Cl)c(S(=O)(=O)C2CC2)c1[O-])Nc1ccc(S(=O)(=O)[N-]C2CCCCC2)cc1 (protonated)
O=C([N-]c1ccc(Cl)c(S(=O)(=O)C2CC2)c1[O-])Nc1ccc(S(=O)(=O)[N-]C2CCCCC2)cc1 (3D coordinates assigned)
O=C([N-]c1ccc(Cl)c(S(=O)(=O)C2CC2)c1[O-])Nc1ccc(S(=O)(=O)[N-]C2CCCCC2)cc1 (nonaromatic ring conformer: 339.2355249582563 kcal/mol)

>  <smiles>  (24) 
O=C(Nc1ccc(S(=O)(=O)NC2CCCCC2)cc1)Nc1ccc(Cl)c(S(=O)(=O)C2CC2)c1O

>  <score_type>  (24) 
oracle

>  <origin>  (24) 
adgpu

>  <m_score__min__energy>  (24) 
-14.140000000000001

>  <m_primary>  (24) 
energy

$$$$
24:0
     RDKit          3D

 50 52  0  0  0  0  0  0  0  0999 V2000
   -9.7350   21.8860  -30.9040 C   0  0  0  0  0  0  0  0  0  0  0  0
   -8.7390   21.3170  -31.8700 C   0  0  0  0  0  0  0  0  0  0  0  0
   -9.1270   20.4240  -32.6710 O   0  0  0  0  0  0  0  0  0  0  0  0
   -7.3240   21.7770  -31.9010 C   0  0  0  0  0  0  0  0  0  0  0  0
   -6.3470   21.0910  -32.6450 C   0  0  0  0  0  0  0  0  0  0  0  0
   -5.0230   21.5350  -32.6600 C   0  0  0  0  0  0  0  0  0  0  0  0
   -4.6490   22.6720  -31.9350 C   0  0  0  0  0  0  0  0  0  0  0  0
   -3.3240   23.1040  -31.9560 O   0  0  0  0  0  0  0  0  0  0  0  0
   -5.6130   23.3720  -31.1880 C   0  0  0  0  0  0  0  0  0  0  0  0
   -5.1670   24.8280  -30.2960 S   0  0  0  0  0  0  0  0  0  0  0  0
   -5.7240   26.0420  -30.9850 O   0  0  0  0  0  0  0  0  0  0  0  0
   -5.7530   24.7730  -28.9150 O   0  0  0  0  0  0  0  0  0  0  0  0
   -3.4340   24.9690  -30.2660 N   0  0  0  0  0  0  0  0  0  0  0  0
   -2.5290   24.3600  -29.3330 C   0  0  0  0  0  0  0  0  0  0  0  0
   -2.7310   23.0620  -28.8300 C   0  0  0  0  0  0  0  0  0  0  0  0
   -1.8430   22.5160  -27.8940 C   0  0  0  0  0  0  0  0  0  0  0  0
   -2.0940   20.8870  -27.2630 S   0  0  0  0  0  0  0  0  0  0  0  0
   -1.5700   20.8290  -25.8560 O   0  0  0  0  0  0  0  0  0  0  0  0
   -3.5660   20.5720  -27.2400 O   0  0  0  0  0  0  0  0  0  0  0  0
   -1.2490   19.7180  -28.2480 N   0  0  0  0  0  0  0  0  0  0  0  0
   -0.8830   18.5380  -27.4330 C   0  0  0  0  0  0  0  0  0  0  0  0
    0.2500   17.7350  -28.0780 C   0  0  0  0  0  0  0  0  0  0  0  0
    1.5310   18.5760  -28.1800 C   0  0  0  0  0  0  0  0  0  0  0  0
    1.2410   20.0850  -28.2840 C   0  0  0  0  0  0  0  0  0  0  0  0
   -0.1110   20.3490  -28.9620 C   0  0  0  0  0  0  0  0  0  0  0  0
   -0.7440   23.2650  -27.4610 C   0  0  0  0  0  0  0  0  0  0  0  0
   -0.5490   24.5620  -27.9380 C   0  0  0  0  0  0  0  0  0  0  0  0
   -1.4420   25.1120  -28.8640 C   0  0  0  0  0  0  0  0  0  0  0  0
   -1.2390   26.4090  -29.3210 O   0  0  0  0  0  0  0  0  0  0  0  0
   -6.9420   22.9220  -31.1770 C   0  0  0  0  0  0  0  0  0  0  0  0
   -9.3985   21.6937  -29.8745 H   0  0  0  0  0  0  0  0  0  0  0  0
   -9.8230   22.9707  -31.0644 H   0  0  0  0  0  0  0  0  0  0  0  0
  -10.7141   21.4110  -31.0644 H   0  0  0  0  0  0  0  0  0  0  0  0
   -6.6284   20.1966  -33.2203 H   0  0  0  0  0  0  0  0  0  0  0  0
   -4.2695   20.9876  -33.2453 H   0  0  0  0  0  0  0  0  0  0  0  0
   -3.0650   24.0340  -31.6440 H   0  0  0  0  0  0  0  0  0  0  0  0
   -3.5927   22.4712  -29.1742 H   0  0  0  0  0  0  0  0  0  0  0  0
   -0.5579   18.8782  -26.4387 H   0  0  0  0  0  0  0  0  0  0  0  0
   -1.7657   17.8861  -27.3568 H   0  0  0  0  0  0  0  0  0  0  0  0
    0.4526   16.8435  -27.4663 H   0  0  0  0  0  0  0  0  0  0  0  0
   -0.0600   17.4437  -29.0924 H   0  0  0  0  0  0  0  0  0  0  0  0
    2.1433   18.3957  -27.2841 H   0  0  0  0  0  0  0  0  0  0  0  0
    2.0565   18.2733  -29.0977 H   0  0  0  0  0  0  0  0  0  0  0  0
    1.2248   20.5171  -27.2725 H   0  0  0  0  0  0  0  0  0  0  0  0
    2.0308   20.5486  -28.8933 H   0  0  0  0  0  0  0  0  0  0  0  0
   -0.2789   21.4355  -28.9987 H   0  0  0  0  0  0  0  0  0  0  0  0
   -0.0672   19.9070  -29.9683 H   0  0  0  0  0  0  0  0  0  0  0  0
   -0.0322   22.8311  -26.7433 H   0  0  0  0  0  0  0  0  0  0  0  0
    0.3088   25.1532  -27.5851 H   0  0  0  0  0  0  0  0  0  0  0  0
   -7.6959   23.4718  -30.5944 H   0  0  0  0  0  0  0  0  0  0  0  0
  1  2  1  0
  2  3  2  0
  2  4  1  0
  4  5  2  0
  5  6  1  0
  6  7  2  0
  7  8  1  0
  7  9  1  0
  9 10  1  0
 10 11  2  0
 10 12  2  0
 10 13  1  0
 13 14  1  0
 14 15  2  0
 15 16  1  0
 16 17  1  0
 17 18  2  0
 17 19  2  0
 17 20  1  0
 20 21  1  0
 21 22  1  0
 22 23  1  0
 23 24  1  0
 24 25  1  0
 16 26  2  0
 26 27  1  0
 27 28  2  0
 28 29  1  0
  9 30  2  0
 30  4  1  0
 28 14  1  0
 25 20  1  0
  1 31  1  0
  1 32  1  0
  1 33  1  0
  5 34  1  0
  6 35  1  0
  8 36  1  0
 15 37  1  0
 21 38  1  0
 21 39  1  0
 22 40  1  0
 22 41  1  0
 23 42  1  0
 23 43  1  0
 24 44  1  0
 24 45  1  0
 25 46  1  0
 25 47  1  0
 26 48  1  0
 27 49  1  0
 30 50  1  0
M  CHG  2  13  -1  29  -1
M  END
>  <UniqueID>  (25) 
24

>  <SMILES>  (25) 
CC(=O)c1ccc(O)c(S(=O)(=O)[N-]c2cc(S(=O)(=O)N3CCCCC3)ccc2[O-])c1

>  <Energy>  (25) 
63.8797719732001

>  <Genealogy>  (25) 
CC(=O)c1ccc(O)c(S(=O)(=O)[N-]c2cc(S(=O)(=O)N3CCCCC3)ccc2[O-])c1 (protonated)
CC(=O)c1ccc(O)c(S(=O)(=O)[N-]c2cc(S(=O)(=O)N3CCCCC3)ccc2[O-])c1 (3D coordinates assigned)
CC(=O)c1ccc(O)c(S(=O)(=O)[N-]c2cc(S(=O)(=O)N3CCCCC3)ccc2[O-])c1 (nonaromatic ring conformer: 63.8797719732001 kcal/mol)

>  <smiles>  (25) 
CC(=O)c1ccc(O)c(S(=O)(=O)Nc2cc(S(=O)(=O)N3CCCCC3)ccc2O)c1

>  <score_type>  (25) 
oracle

>  <origin>  (25) 
adgpu

>  <m_score__min__energy>  (25) 
-14.210000000000001

>  <m_primary>  (25) 
energy

$$$$
25:0
     RDKit          3D

 55 57  0  0  0  0  0  0  0  0999 V2000
   -7.4130   23.2300  -30.0850 C   0  0  0  0  0  0  0  0  0  0  0  0
   -6.2420   22.4900  -30.6770 C   0  0  0  0  0  0  0  0  0  0  0  0
   -6.4930   21.2550  -31.2980 C   0  0  0  0  0  0  0  0  0  0  0  0
   -5.4530   20.4860  -31.8370 C   0  0  0  0  0  0  0  0  0  0  0  0
   -5.7250   19.1400  -32.4870 C   0  0  1  0  0  0  0  0  0  0  0  0
   -6.8780   18.3920  -31.7760 C   0  0  0  0  0  0  0  0  0  0  0  0
   -7.5960   17.4030  -32.7110 C   0  0  0  0  0  0  0  0  0  0  0  0
   -6.6410   16.8690  -33.7860 C   0  0  0  0  0  0  0  0  0  0  0  0
   -6.1280   17.9510  -34.6770 N   0  0  2  0  0  0  0  0  0  0  0  0
   -4.8350   17.5650  -35.2940 C   0  0  0  0  0  0  0  0  0  0  0  0
   -3.6910   18.1630  -34.5850 C   0  0  0  0  0  0  0  0  0  0  0  0
   -2.7920   18.6320  -34.0290 N   0  0  0  0  0  0  0  0  0  0  0  0
   -6.0100   19.2760  -33.9970 C   0  0  0  0  0  0  0  0  0  0  0  0
   -4.1400   20.9590  -31.7370 C   0  0  0  0  0  0  0  0  0  0  0  0
   -3.8640   22.1890  -31.1350 C   0  0  0  0  0  0  0  0  0  0  0  0
   -2.1660   22.6430  -30.9940 Cl  0  0  0  0  0  0  0  0  0  0  0  0
   -4.9130   22.9910  -30.6250 C   0  0  0  0  0  0  0  0  0  0  0  0
   -4.5230   24.5530  -29.8560 S   0  0  0  0  0  0  0  0  0  0  0  0
   -5.7160   25.4590  -29.7520 O   0  0  0  0  0  0  0  0  0  0  0  0
   -3.4870   25.2750  -30.6710 O   0  0  0  0  0  0  0  0  0  0  0  0
   -3.8870   24.2500  -28.2760 N   0  0  0  0  0  0  0  0  0  0  0  0
   -2.5690   23.7330  -28.1110 C   0  0  0  0  0  0  0  0  0  0  0  0
   -2.2220   22.4310  -27.8080 C   0  0  0  0  0  0  0  0  0  0  0  0
   -3.1550   21.2810  -27.6140 C   0  0  0  0  0  0  0  0  0  0  0  0
   -0.8980   22.3740  -27.5590 N   0  0  0  0  0  0  0  0  0  0  0  0
   -0.4050   23.5950  -27.7180 N   0  0  0  0  0  0  0  0  0  0  0  0
    0.9940   23.9340  -27.4870 C   0  0  0  0  0  0  0  0  0  0  0  0
   -1.3930   24.4520  -28.0550 C   0  0  0  0  0  0  0  0  0  0  0  0
   -1.2430   25.9350  -28.2010 C   0  0  0  0  0  0  0  0  0  0  0  0
   -7.3535   23.1924  -28.9873 H   0  0  0  0  0  0  0  0  0  0  0  0
   -7.3905   24.2782  -30.4177 H   0  0  0  0  0  0  0  0  0  0  0  0
   -8.3501   22.7597  -30.4177 H   0  0  0  0  0  0  0  0  0  0  0  0
   -7.5267   20.8843  -31.3624 H   0  0  0  0  0  0  0  0  0  0  0  0
   -4.8090   18.5413  -32.3754 H   0  0  0  0  0  0  0  0  0  0  0  0
   -6.4650   17.8353  -30.9219 H   0  0  0  0  0  0  0  0  0  0  0  0
   -7.6141   19.1411  -31.4488 H   0  0  0  0  0  0  0  0  0  0  0  0
   -7.9771   16.5590  -32.1173 H   0  0  0  0  0  0  0  0  0  0  0  0
   -8.4237   17.9297  -33.2085 H   0  0  0  0  0  0  0  0  0  0  0  0
   -5.7868   16.3840  -33.2908 H   0  0  0  0  0  0  0  0  0  0  0  0
   -7.2014   16.1571  -34.4099 H   0  0  0  0  0  0  0  0  0  0  0  0
   -6.8200   18.0740  -35.4560 H   0  0  0  0  0  0  0  0  0  0  0  0
   -4.7392   16.4696  -35.2644 H   0  0  0  0  0  0  0  0  0  0  0  0
   -4.8265   17.9346  -36.3300 H   0  0  0  0  0  0  0  0  0  0  0  0
   -5.1878   19.8396  -34.4621 H   0  0  0  0  0  0  0  0  0  0  0  0
   -6.9718   19.7976  -34.1107 H   0  0  0  0  0  0  0  0  0  0  0  0
   -3.3135   20.3539  -32.1380 H   0  0  0  0  0  0  0  0  0  0  0  0
   -3.2992   21.1033  -26.5381 H   0  0  0  0  0  0  0  0  0  0  0  0
   -4.1240   21.5122  -28.0805 H   0  0  0  0  0  0  0  0  0  0  0  0
   -2.7290   20.3805  -28.0805 H   0  0  0  0  0  0  0  0  0  0  0  0
    1.1861   23.9806  -26.4049 H   0  0  0  0  0  0  0  0  0  0  0  0
    1.6372   23.1657  -27.9409 H   0  0  0  0  0  0  0  0  0  0  0  0
    1.2142   24.9115  -27.9409 H   0  0  0  0  0  0  0  0  0  0  0  0
   -1.1961   26.3986  -27.2046 H   0  0  0  0  0  0  0  0  0  0  0  0
   -0.3178   26.1574  -28.7528 H   0  0  0  0  0  0  0  0  0  0  0  0
   -2.1049   26.3382  -28.7528 H   0  0  0  0  0  0  0  0  0  0  0  0
  1  2  1  0
  2  3  2  0
  3  4  1  0
  4  5  1  0
  5  6  1  0
  6  7  1  0
  7  8  1  0
  8  9  1  0
  9 10  1  0
 10 11  1  0
 11 12  3  0
  9 13  1  0
  4 14  2  0
 14 15  1  0
 15 16  1  0
 15 17  2  0
 17 18  1  0
 18 19  2  0
 18 20  2  0
 18 21  1  0
 21 22  1  0
 22 23  1  0
 23 24  1  0
 23 25  2  0
 25 26  1  0
 26 27  1  0
 26 28  1  0
 28 29  1  0
 17  2  1  0
 28 22  2  0
 13  5  1  0
  1 30  1  0
  1 31  1  0
  1 32  1  0
  3 33  1  0
  5 34  1  6
  6 35  1  0
  6 36  1  0
  7 37  1  0
  7 38  1  0
  8 39  1  0
  8 40  1  0
  9 41  1  6
 10 42  1  0
 10 43  1  0
 13 44  1  0
 13 45  1  0
 14 46  1  0
 24 47  1  0
 24 48  1  0
 24 49  1  0
 27 50  1  0
 27 51  1  0
 27 52  1  0
 29 53  1  0
 29 54  1  0
 29 55  1  0
M  CHG  2   9   1  21  -1
M  END
>  <UniqueID>  (26) 
25

>  <SMILES>  (26) 
Cc1cc([C@H]2CCC[N@H+](CC#N)C2)cc(Cl)c1S(=O)(=O)[N-]c1c(C)nn(C)c1C

>  <Energy>  (26) 
106.39595320092198

>  <Genealogy>  (26) 
Cc1cc(C2CCC[NH+](CC#N)C2)cc(Cl)c1S(=O)(=O)[N-]c1c(C)nn(C)c1C (protonated)
Cc1cc([C@H]2CCC[N@H+](CC#N)C2)cc(Cl)c1S(=O)(=O)[N-]c1c(C)nn(C)c1C (chirality)
Cc1cc([C@H]2CCC[N@H+](CC#N)C2)cc(Cl)c1S(=O)(=O)[N-]c1c(C)nn(C)c1C (3D coordinates assigned)
Cc1cc([C@H]2CCC[N@H+](CC#N)C2)cc(Cl)c1S(=O)(=O)[N-]c1c(C)nn(C)c1C (nonaromatic ring conformer: 106.39595320092198 kcal/mol)

>  <smiles>  (26) 
Cc1cc(C2CCCN(CC#N)C2)cc(Cl)c1S(=O)(=O)Nc1c(C)nn(C)c1C

>  <score_type>  (26) 
oracle

>  <origin>  (26) 
adgpu

>  <m_score__min__energy>  (26) 
-10.380000000000001

>  <m_primary>  (26) 
energy

$$$$
26:0
     RDKit          3D

 40 41  0  0  0  0  0  0  0  0999 V2000
   -1.4390   25.6440  -28.9040 N   0  0  0  0  0  0  0  0  0  0  0  0
   -2.4690   24.4760  -28.1540 S   0  0  0  0  0  0  0  0  0  0  0  0
   -2.8220   24.9310  -26.7660 O   0  0  0  0  0  0  0  0  0  0  0  0
   -1.7380   23.1640  -28.0800 O   0  0  0  0  0  0  0  0  0  0  0  0
   -3.9420   24.2890  -29.1000 C   0  0  0  0  0  0  0  0  0  0  0  0
   -4.8020   23.2110  -28.8530 C   0  0  0  0  0  0  0  0  0  0  0  0
   -5.9680   23.0540  -29.6080 C   0  0  0  0  0  0  0  0  0  0  0  0
   -6.2750   23.9570  -30.6380 C   0  0  0  0  0  0  0  0  0  0  0  0
   -7.5620   23.7990  -31.4150 C   0  0  0  0  0  0  0  0  0  0  0  0
   -8.0900   22.4360  -31.3250 N   0  0  0  0  0  0  0  0  0  0  0  0
   -7.6240   21.2920  -31.7480 C   0  0  0  0  0  0  0  0  0  0  0  0
   -8.4020   20.1970  -31.5380 N   0  0  0  0  0  0  0  0  0  0  0  0
   -8.0580   18.9480  -31.9420 C   0  0  0  0  0  0  0  0  0  0  0  0
   -8.9170   17.8540  -31.6010 N   0  0  0  0  0  0  0  0  0  0  0  0
   -6.8420   18.7700  -32.6320 C   0  0  0  0  0  0  0  0  0  0  0  0
   -6.4080   17.4700  -33.1920 C   0  0  0  0  0  0  0  0  0  0  0  0
   -7.2010   16.4900  -33.1900 O   0  0  0  0  0  0  0  0  0  0  0  0
   -5.1240   17.3540  -33.8260 N   0  0  0  0  0  0  0  0  0  0  0  0
   -4.5400   16.1060  -34.2330 C   0  0  0  0  0  0  0  0  0  0  0  0
   -3.6870   16.0770  -35.3810 N   0  0  0  0  0  0  0  0  0  0  0  0
   -4.7190   15.0230  -33.5370 N   0  0  0  0  0  0  0  0  0  0  0  0
   -6.0440   19.8530  -32.8190 N   0  0  0  0  0  0  0  0  0  0  0  0
   -6.3770   21.1020  -32.4030 C   0  0  0  0  0  0  0  0  0  0  0  0
   -5.1770   22.3480  -32.7040 Cl  0  0  0  0  0  0  0  0  0  0  0  0
   -5.4230   25.0520  -30.8640 C   0  0  0  0  0  0  0  0  0  0  0  0
   -4.2580   25.2080  -30.1090 C   0  0  0  0  0  0  0  0  0  0  0  0
   -1.6060   25.5820  -29.9340 H   0  0  0  0  0  0  0  0  0  0  0  0
   -4.5590   22.4858  -28.0624 H   0  0  0  0  0  0  0  0  0  0  0  0
   -6.6493   22.2175  -29.3936 H   0  0  0  0  0  0  0  0  0  0  0  0
   -8.3095   24.4974  -31.0108 H   0  0  0  0  0  0  0  0  0  0  0  0
   -7.3503   24.0136  -32.4729 H   0  0  0  0  0  0  0  0  0  0  0  0
   -9.5630   17.9420  -30.7850 H   0  0  0  0  0  0  0  0  0  0  0  0
   -8.8310   16.9160  -32.0490 H   0  0  0  0  0  0  0  0  0  0  0  0
   -4.6130   18.2280  -34.0860 H   0  0  0  0  0  0  0  0  0  0  0  0
   -3.2240   15.1930  -35.6860 H   0  0  0  0  0  0  0  0  0  0  0  0
   -3.5230   16.9460  -35.9370 H   0  0  0  0  0  0  0  0  0  0  0  0
   -4.2780   14.1230  -33.8280 H   0  0  0  0  0  0  0  0  0  0  0  0
   -5.2700   15.0260  -32.6500 H   0  0  0  0  0  0  0  0  0  0  0  0
   -5.6750   25.7901  -31.6397 H   0  0  0  0  0  0  0  0  0  0  0  0
   -3.5860   26.0559  -30.3076 H   0  0  0  0  0  0  0  0  0  0  0  0
  1  2  1  0
  2  3  2  0
  2  4  2  0
  2  5  1  0
  5  6  2  0
  6  7  1  0
  7  8  2  0
  8  9  1  0
  9 10  1  0
 10 11  2  3
 11 12  1  0
 12 13  1  0
 13 14  1  0
 13 15  2  0
 15 16  1  0
 16 17  2  0
 16 18  1  0
 18 19  1  0
 19 20  1  0
 19 21  2  0
 15 22  1  0
 22 23  2  0
 23 24  1  0
  8 25  1  0
 25 26  2  0
 26  5  1  0
 23 11  1  0
  1 27  1  0
  6 28  1  0
  7 29  1  0
  9 30  1  0
  9 31  1  0
 14 32  1  0
 14 33  1  0
 18 34  1  0
 20 35  1  0
 20 36  1  0
 21 37  1  0
 21 38  1  0
 25 39  1  0
 26 40  1  0
M  CHG  3   1  -1  12  -1  21   1
M  END
>  <UniqueID>  (27) 
26

>  <SMILES>  (27) 
[NH-]S(=O)(=O)c1ccc(CN=c2[n-]c(N)c(C(=O)NC(N)=[NH2+])nc2Cl)cc1

>  <Energy>  (27) 
56.44544796075103

>  <Genealogy>  (27) 
[NH-]S(=O)(=O)c1ccc(CN=c2[n-]c(N)c(C(=O)NC(N)=[NH2+])nc2Cl)cc1 (protonated)
[NH-]S(=O)(=O)c1ccc(CN=c2[n-]c(N)c(C(=O)NC(N)=[NH2+])nc2Cl)cc1 (3D coordinates assigned)
[NH-]S(=O)(=O)c1ccc(CN=c2[n-]c(N)c(C(=O)NC(N)=[NH2+])nc2Cl)cc1 (optimized conformer: 56.44544796075103 kcal/mol)

>  <smiles>  (27) 
N=C(N)NC(=O)c1nc(Cl)c(=NCc2ccc(S(N)(=O)=O)cc2)[nH]c1N

>  <score_type>  (27) 
oracle

>  <origin>  (27) 
adgpu

>  <m_score__min__energy>  (27) 
-9.5500000000000007

>  <m_primary>  (27) 
energy

$$$$
27:0
     RDKit          3D

 53 56  0  0  0  0  0  0  0  0999 V2000
   -8.4310   20.8260  -30.4690 O   0  0  0  0  0  0  0  0  0  0  0  0
   -8.1960   21.8410  -31.5510 S   0  0  0  0  0  0  0  0  0  0  0  0
   -9.4480   22.6460  -31.7600 O   0  0  0  0  0  0  0  0  0  0  0  0
   -7.8030   21.0190  -33.0300 N   0  0  0  0  0  0  0  0  0  0  0  0
   -7.2040   19.7170  -33.1050 C   0  0  0  0  0  0  0  0  0  0  0  0
   -5.9780   19.5160  -33.7620 C   0  0  0  0  0  0  0  0  0  0  0  0
   -5.3060   18.2890  -33.6740 C   0  0  0  0  0  0  0  0  0  0  0  0
   -5.8940   17.2280  -32.9520 C   0  0  0  0  0  0  0  0  0  0  0  0
   -7.1660   17.4000  -32.3840 C   0  0  0  0  0  0  0  0  0  0  0  0
   -7.8160   18.6360  -32.4470 C   0  0  0  0  0  0  0  0  0  0  0  0
   -9.0570   18.7740  -31.8280 O   0  0  0  0  0  0  0  0  0  0  0  0
   -5.2130   15.8850  -32.8490 C   0  0  0  0  0  0  0  0  0  0  0  0
   -3.6980   15.9880  -33.0340 C   0  0  0  0  0  0  0  0  0  0  0  0
   -3.3730   16.7600  -34.3130 C   0  0  0  0  0  0  0  0  0  0  0  0
   -3.9080   18.1950  -34.2400 C   0  0  0  0  0  0  0  0  0  0  0  0
   -6.8610   22.8890  -31.0650 C   0  0  0  0  0  0  0  0  0  0  0  0
   -6.9150   24.2650  -31.3130 C   0  0  0  0  0  0  0  0  0  0  0  0
   -5.7930   25.0600  -31.0840 C   0  0  0  0  0  0  0  0  0  0  0  0
   -4.6050   24.4890  -30.6190 C   0  0  0  0  0  0  0  0  0  0  0  0
   -3.4960   25.3040  -30.4310 O   0  0  0  0  0  0  0  0  0  0  0  0
   -4.5470   23.1090  -30.3520 C   0  0  0  0  0  0  0  0  0  0  0  0
   -3.0550   22.3330  -29.8070 S   0  0  0  0  0  0  0  0  0  0  0  0
   -3.2670   21.6910  -28.4620 O   0  0  0  0  0  0  0  0  0  0  0  0
   -1.9900   23.3860  -29.6620 O   0  0  0  0  0  0  0  0  0  0  0  0
   -2.5340   21.1380  -30.9750 N   0  0  0  0  0  0  0  0  0  0  0  0
   -1.2400   21.5350  -31.5620 C   0  0  0  0  0  0  0  0  0  0  0  0
   -1.0040   20.8080  -32.8950 C   0  0  0  0  0  0  0  0  0  0  0  0
   -1.9900   21.0810  -33.8840 O   0  0  0  0  0  0  0  0  0  0  0  0
   -3.2250   21.5380  -33.3520 C   0  0  0  0  0  0  0  0  0  0  0  0
   -3.5790   20.9000  -31.9960 C   0  0  0  0  0  0  0  0  0  0  0  0
   -5.6910   22.3240  -30.5470 C   0  0  0  0  0  0  0  0  0  0  0  0
   -5.5396   20.3331  -34.3537 H   0  0  0  0  0  0  0  0  0  0  0  0
   -7.6570   16.5524  -31.8835 H   0  0  0  0  0  0  0  0  0  0  0  0
   -9.4850   19.6770  -31.6660 H   0  0  0  0  0  0  0  0  0  0  0  0
   -5.4202   15.4582  -31.8566 H   0  0  0  0  0  0  0  0  0  0  0  0
   -5.6078   15.2445  -33.6514 H   0  0  0  0  0  0  0  0  0  0  0  0
   -3.2616   16.5135  -32.1717 H   0  0  0  0  0  0  0  0  0  0  0  0
   -3.2762   14.9749  -33.1095 H   0  0  0  0  0  0  0  0  0  0  0  0
   -2.2817   16.7895  -34.4478 H   0  0  0  0  0  0  0  0  0  0  0  0
   -3.8527   16.2500  -35.1614 H   0  0  0  0  0  0  0  0  0  0  0  0
   -3.2338   18.7859  -33.6026 H   0  0  0  0  0  0  0  0  0  0  0  0
   -3.9497   18.5776  -35.2705 H   0  0  0  0  0  0  0  0  0  0  0  0
   -7.8434   24.7197  -31.6889 H   0  0  0  0  0  0  0  0  0  0  0  0
   -5.8429   26.1430  -31.2703 H   0  0  0  0  0  0  0  0  0  0  0  0
   -1.2409   22.6209  -31.7378 H   0  0  0  0  0  0  0  0  0  0  0  0
   -0.4355   21.2630  -30.8629 H   0  0  0  0  0  0  0  0  0  0  0  0
   -0.0242   21.1162  -33.2887 H   0  0  0  0  0  0  0  0  0  0  0  0
   -1.0545   19.7297  -32.6835 H   0  0  0  0  0  0  0  0  0  0  0  0
   -3.1657   22.6284  -33.2197 H   0  0  0  0  0  0  0  0  0  0  0  0
   -4.0126   21.2483  -34.0632 H   0  0  0  0  0  0  0  0  0  0  0  0
   -4.5268   21.3295  -31.6393 H   0  0  0  0  0  0  0  0  0  0  0  0
   -3.6625   19.8135  -32.1461 H   0  0  0  0  0  0  0  0  0  0  0  0
   -5.6689   21.2545  -30.2906 H   0  0  0  0  0  0  0  0  0  0  0  0
  1  2  2  0
  2  3  2  0
  2  4  1  0
  4  5  1  0
  5  6  2  0
  6  7  1  0
  7  8  2  0
  8  9  1  0
  9 10  2  0
 10 11  1  0
  8 12  1  0
 12 13  1  0
 13 14  1  0
 14 15  1  0
  2 16  1  0
 16 17  2  0
 17 18  1  0
 18 19  2  0
 19 20  1  0
 19 21  1  0
 21 22  1  0
 22 23  2  0
 22 24  2  0
 22 25  1  0
 25 26  1  0
 26 27  1  0
 27 28  1  0
 28 29  1  0
 29 30  1  0
 21 31  2  0
 10  5  1  0
 31 16  1  0
 15  7  1  0
 30 25  1  0
  6 32  1  0
  9 33  1  0
 11 34  1  0
 12 35  1  0
 12 36  1  0
 13 37  1  0
 13 38  1  0
 14 39  1  0
 14 40  1  0
 15 41  1  0
 15 42  1  0
 17 43  1  0
 18 44  1  0
 26 45  1  0
 26 46  1  0
 27 47  1  0
 27 48  1  0
 29 49  1  0
 29 50  1  0
 30 51  1  0
 30 52  1  0
 31 53  1  0
M  CHG  2   4  -1  20  -1
M  END
>  <UniqueID>  (28) 
27

>  <SMILES>  (28) 
O=S(=O)([N-]c1cc2c(cc1O)CCCC2)c1ccc([O-])c(S(=O)(=O)N2CCOCC2)c1

>  <Energy>  (28) 
72.11670870602424

>  <Genealogy>  (28) 
O=S(=O)([N-]c1cc2c(cc1O)CCCC2)c1ccc([O-])c(S(=O)(=O)N2CCOCC2)c1 (protonated)
O=S(=O)([N-]c1cc2c(cc1O)CCCC2)c1ccc([O-])c(S(=O)(=O)N2CCOCC2)c1 (3D coordinates assigned)
O=S(=O)([N-]c1cc2c(cc1O)CCCC2)c1ccc([O-])c(S(=O)(=O)N2CCOCC2)c1 (nonaromatic ring conformer: 72.11670870602424 kcal/mol)

>  <smiles>  (28) 
O=S(=O)(Nc1cc2c(cc1O)CCCC2)c1ccc(O)c(S(=O)(=O)N2CCOCC2)c1

>  <score_type>  (28) 
oracle

>  <origin>  (28) 
adgpu

>  <m_score__min__energy>  (28) 
-12.539999999999999

>  <m_primary>  (28) 
energy

$$$$
28:0
     RDKit          3D

 48 51  0  0  0  0  0  0  0  0999 V2000
   -4.2480   21.0350  -32.4840 H   0  0  0  0  0  0  0  0  0  0  0  0
   -4.9450   20.7730  -31.7960 O   0  0  0  0  0  0  0  0  0  0  0  0
   -6.1920   21.3880  -31.7390 C   0  0  0  0  0  0  0  0  0  0  0  0
   -7.3300   20.6570  -32.1130 C   0  0  0  0  0  0  0  0  0  0  0  0
   -7.2205   19.6221  -32.4692 H   0  0  0  0  0  0  0  0  0  0  0  0
   -8.5980   21.2310  -32.0370 C   0  0  0  0  0  0  0  0  0  0  0  0
   -9.4844   20.6481  -32.3278 H   0  0  0  0  0  0  0  0  0  0  0  0
   -8.7420   22.5450  -31.5920 C   0  0  0  0  0  0  0  0  0  0  0  0
   -9.7423   22.9988  -31.5341 H   0  0  0  0  0  0  0  0  0  0  0  0
   -7.6180   23.2850  -31.2200 C   0  0  0  0  0  0  0  0  0  0  0  0
   -7.7420   24.3180  -30.8629 H   0  0  0  0  0  0  0  0  0  0  0  0
   -6.3270   22.7260  -31.2960 C   0  0  0  0  0  0  0  0  0  0  0  0
   -5.1660   23.5580  -30.8790 C   0  0  0  0  0  0  0  0  0  0  0  0
   -5.0040   24.8430  -31.2560 N   0  0  0  0  0  0  0  0  0  0  0  0
   -3.8750   25.3010  -30.7410 N   0  0  0  0  0  0  0  0  0  0  0  0
   -3.3050   24.3130  -30.0280 C   0  0  0  0  0  0  0  0  0  0  0  0
   -2.0230   24.4280  -29.3040 C   0  0  0  0  0  0  0  0  0  0  0  0
   -1.6130   25.5700  -28.9640 O   0  0  0  0  0  0  0  0  0  0  0  0
   -1.2570   23.2810  -28.9120 N   0  0  0  0  0  0  0  0  0  0  0  0
   -0.9850   22.1090  -29.6950 C   0  0  0  0  0  0  0  0  0  0  0  0
   -0.1200   21.1380  -29.1750 C   0  0  0  0  0  0  0  0  0  0  0  0
    0.3318   21.2826  -28.1826 H   0  0  0  0  0  0  0  0  0  0  0  0
    0.1720   19.9860  -29.9110 C   0  0  0  0  0  0  0  0  0  0  0  0
    0.8525   19.2274  -29.4969 H   0  0  0  0  0  0  0  0  0  0  0  0
   -0.3990   19.7970  -31.1710 C   0  0  0  0  0  0  0  0  0  0  0  0
   -0.1813   18.8809  -31.7396 H   0  0  0  0  0  0  0  0  0  0  0  0
   -1.2490   20.7710  -31.7140 C   0  0  0  0  0  0  0  0  0  0  0  0
   -1.9860   20.5170  -33.2930 S   0  0  0  0  0  0  0  0  0  0  0  0
   -2.6640   21.7810  -33.7380 O   0  0  0  0  0  0  0  0  0  0  0  0
   -3.0140   19.4230  -33.2090 O   0  0  0  0  0  0  0  0  0  0  0  0
   -0.7770   20.1210  -34.4730 N   0  0  0  0  0  0  0  0  0  0  0  0
    0.1390   20.9490  -34.8670 C   0  0  0  0  0  0  0  0  0  0  0  0
    0.2700   22.1840  -34.4430 O   0  0  0  0  0  0  0  0  0  0  0  0
    1.3130   22.7470  -34.9830 N   0  0  0  0  0  0  0  0  0  0  0  0
    1.8790   21.8330  -35.8020 C   0  0  0  0  0  0  0  0  0  0  0  0
    3.1640   22.0540  -36.5310 C   0  0  0  0  0  0  0  0  0  0  0  0
    3.9782   22.1940  -35.8047 H   0  0  0  0  0  0  0  0  0  0  0  0
    3.3823   21.1802  -37.1625 H   0  0  0  0  0  0  0  0  0  0  0  0
    3.0778   22.9505  -37.1625 H   0  0  0  0  0  0  0  0  0  0  0  0
    1.1420   20.6630  -35.7640 C   0  0  0  0  0  0  0  0  0  0  0  0
    1.4650   19.3380  -36.3860 C   0  0  0  0  0  0  0  0  0  0  0  0
    1.6459   18.5958  -35.5946 H   0  0  0  0  0  0  0  0  0  0  0  0
    0.6205   19.0102  -37.0099 H   0  0  0  0  0  0  0  0  0  0  0  0
    2.3656   19.4356  -37.0099 H   0  0  0  0  0  0  0  0  0  0  0  0
   -1.5100   21.9420  -30.9890 C   0  0  0  0  0  0  0  0  0  0  0  0
   -2.1289   22.7347  -31.4347 H   0  0  0  0  0  0  0  0  0  0  0  0
   -4.0830   23.1770  -30.1050 C   0  0  0  0  0  0  0  0  0  0  0  0
   -3.8877   22.1927  -29.6543 H   0  0  0  0  0  0  0  0  0  0  0  0
  1  2  1  0
  2  3  1  0
  3  4  2  0
  4  5  1  0
  4  6  1  0
  6  7  1  0
  6  8  2  0
  8  9  1  0
  8 10  1  0
 10 11  1  0
 10 12  2  0
 12 13  1  0
 13 14  1  0
 14 15  1  0
 15 16  2  0
 16 17  1  0
 17 18  2  0
 17 19  1  0
 19 20  1  0
 20 21  2  0
 21 22  1  0
 21 23  1  0
 23 24  1  0
 23 25  2  0
 25 26  1  0
 25 27  1  0
 27 28  1  0
 28 29  2  0
 28 30  2  0
 28 31  1  0
 31 32  2  0
 32 33  1  0
 33 34  1  0
 34 35  1  0
 35 36  1  0
 36 37  1  0
 36 38  1  0
 36 39  1  0
 35 40  2  0
 40 41  1  0
 41 42  1  0
 41 43  1  0
 41 44  1  0
 27 45  2  0
 45 46  1  0
 16 47  1  0
 47 48  1  0
 12  3  1  0
 47 13  2  0
 45 20  1  0
 40 32  1  0
M  CHG  3  14  -1  19  -1  34  -1
M  END
>  <UniqueID>  (29) 
28

>  <SMILES>  (29) 
Cc1[n-]o/c(=N\S(=O)(=O)c2cccc([N-]C(=O)c3cc(-c4ccccc4O)[n-]n3)c2)c1C

>  <Energy>  (29) 
118.09087674356317

>  <Genealogy>  (29) 
Cc1[n-]oc(=NS(=O)(=O)c2cccc([N-]C(=O)c3cc(-c4ccccc4O)[n-]n3)c2)c1C (protonated)
Cc1[n-]o/c(=N\S(=O)(=O)c2cccc([N-]C(=O)c3cc(-c4ccccc4O)[n-]n3)c2)c1C (cis-trans isomerization)
Cc1[n-]o/c(=N\S(=O)(=O)c2cccc([N-]C(=O)c3cc(-c4ccccc4O)[n-]n3)c2)c1C (3D coordinates assigned)
Cc1[n-]o/c(=N\S(=O)(=O)c2cccc([N-]C(=O)c3cc(-c4ccccc4O)[n-]n3)c2)c1C (optimized conformer: 118.09087674356317 kcal/mol)

>  <smiles>  (29) 
Cc1[nH]oc(=NS(=O)(=O)c2cccc(NC(=O)c3cc(-c4ccccc4O)[nH]n3)c2)c1C

>  <score_type>  (29) 
oracle

>  <origin>  (29) 
adgpu

>  <m_score__min__energy>  (29) 
-13.199999999999999

>  <m_primary>  (29) 
energy

$$$$
29:0
     RDKit          3D

 55 58  0  0  0  0  0  0  0  0999 V2000
   -6.7821   20.5693  -32.8454 H   0  0  0  0  0  0  0  0  0  0  0  0
   -6.0380   21.2400  -32.3910 C   0  0  0  0  0  0  0  0  0  0  0  0
   -6.3410   22.5860  -32.1950 C   0  0  0  0  0  0  0  0  0  0  0  0
   -7.3224   22.9778  -32.5005 H   0  0  0  0  0  0  0  0  0  0  0  0
   -5.4020   23.4380  -31.6120 C   0  0  0  0  0  0  0  0  0  0  0  0
   -5.6519   24.4981  -31.4578 H   0  0  0  0  0  0  0  0  0  0  0  0
   -4.1390   22.9570  -31.2190 C   0  0  0  0  0  0  0  0  0  0  0  0
   -3.1680   23.8950  -30.5970 C   0  0  0  0  0  0  0  0  0  0  0  0
   -2.0480   23.4940  -30.1830 O   0  0  0  0  0  0  0  0  0  0  0  0
   -3.4850   25.2420  -30.4620 O   0  0  0  0  0  0  0  0  0  0  0  0
   -3.8250   21.5930  -31.4400 C   0  0  0  0  0  0  0  0  0  0  0  0
   -2.5760   21.0870  -31.0440 O   0  0  0  0  0  0  0  0  0  0  0  0
   -1.4930   20.8250  -31.8980 C   0  0  0  0  0  0  0  0  0  0  0  0
   -1.3200   21.5220  -33.1080 C   0  0  0  0  0  0  0  0  0  0  0  0
   -2.0458   22.2953  -33.4000 H   0  0  0  0  0  0  0  0  0  0  0  0
   -0.2310   21.2400  -33.9450 C   0  0  0  0  0  0  0  0  0  0  0  0
   -0.0360   22.0110  -35.2170 C   0  0  0  0  0  0  0  0  0  0  0  0
    0.2273   23.0520  -34.9781 H   0  0  0  0  0  0  0  0  0  0  0  0
    0.7746   21.5530  -35.8028 H   0  0  0  0  0  0  0  0  0  0  0  0
   -0.9669   21.9934  -35.8028 H   0  0  0  0  0  0  0  0  0  0  0  0
    0.7090   20.2770  -33.5510 C   0  0  0  0  0  0  0  0  0  0  0  0
    1.5733   20.0590  -34.1956 H   0  0  0  0  0  0  0  0  0  0  0  0
    0.5520   19.5940  -32.3440 C   0  0  0  0  0  0  0  0  0  0  0  0
    1.2802   18.8224  -32.0537 H   0  0  0  0  0  0  0  0  0  0  0  0
   -0.5300   19.8860  -31.4980 C   0  0  0  0  0  0  0  0  0  0  0  0
   -0.7250   19.1570  -30.2760 N   0  0  0  0  0  0  0  0  0  0  0  0
   -0.8860   19.6570  -29.0810 C   0  0  0  0  0  0  0  0  0  0  0  0
   -0.9590   18.7840  -27.9960 C   0  0  0  0  0  0  0  0  0  0  0  0
   -0.8827   17.6979  -28.1524 H   0  0  0  0  0  0  0  0  0  0  0  0
   -1.1290   19.2970  -26.7150 C   0  0  0  0  0  0  0  0  0  0  0  0
   -1.1784   18.6218  -25.8480 H   0  0  0  0  0  0  0  0  0  0  0  0
   -1.2360   20.6730  -26.5410 C   0  0  0  0  0  0  0  0  0  0  0  0
   -1.3830   21.1440  -25.3800 O   0  0  0  0  0  0  0  0  0  0  0  0
   -1.1840   21.5000  -27.6310 N   0  0  0  0  0  0  0  0  0  0  0  0
   -1.3090   22.9240  -27.4670 C   0  0  0  0  0  0  0  0  0  0  0  0
   -2.5880   23.5200  -27.4200 C   0  0  0  0  0  0  0  0  0  0  0  0
   -3.8290   22.6770  -27.5430 C   0  0  0  0  0  0  0  0  0  0  0  0
   -4.2014   22.4240  -26.5393 H   0  0  0  0  0  0  0  0  0  0  0  0
   -4.6009   23.2384  -28.0898 H   0  0  0  0  0  0  0  0  0  0  0  0
   -3.5916   21.7525  -28.0898 H   0  0  0  0  0  0  0  0  0  0  0  0
   -2.6990   24.9100  -27.2600 C   0  0  0  0  0  0  0  0  0  0  0  0
   -3.6932   25.3798  -27.2298 H   0  0  0  0  0  0  0  0  0  0  0  0
   -1.5540   25.6990  -27.1390 C   0  0  0  0  0  0  0  0  0  0  0  0
   -1.6500   26.7879  -27.0163 H   0  0  0  0  0  0  0  0  0  0  0  0
   -0.2880   25.1130  -27.1730 C   0  0  0  0  0  0  0  0  0  0  0  0
    0.6087   25.7425  -27.0746 H   0  0  0  0  0  0  0  0  0  0  0  0
   -0.1520   23.7250  -27.3320 C   0  0  0  0  0  0  0  0  0  0  0  0
    1.2170   23.1040  -27.3640 C   0  0  0  0  0  0  0  0  0  0  0  0
    1.5709   22.9434  -26.3349 H   0  0  0  0  0  0  0  0  0  0  0  0
    1.1698   22.1392  -27.8902 H   0  0  0  0  0  0  0  0  0  0  0  0
    1.9118   23.7750  -27.8902 H   0  0  0  0  0  0  0  0  0  0  0  0
   -1.0220   21.0020  -28.8640 N   0  0  0  0  0  0  0  0  0  0  0  0
   -1.0350   21.6660  -29.6710 H   0  0  0  0  0  0  0  0  0  0  0  0
   -4.7910   20.7430  -32.0110 C   0  0  0  0  0  0  0  0  0  0  0  0
   -4.5606   19.6776  -32.1589 H   0  0  0  0  0  0  0  0  0  0  0  0
  1  2  1  0
  2  3  2  0
  3  4  1  0
  3  5  1  0
  5  6  1  0
  5  7  2  0
  7  8  1  0
  8  9  2  0
  8 10  1  0
  7 11  1  0
 11 12  1  0
 12 13  1  0
 13 14  2  0
 14 15  1  0
 14 16  1  0
 16 17  1  0
 17 18  1  0
 17 19  1  0
 17 20  1  0
 16 21  2  0
 21 22  1  0
 21 23  1  0
 23 24  1  0
 23 25  2  0
 25 26  1  0
 26 27  2  0
 27 28  1  0
 28 29  1  0
 28 30  2  0
 30 31  1  0
 30 32  1  0
 32 33  2  0
 32 34  1  0
 34 35  1  0
 35 36  2  0
 36 37  1  0
 37 38  1  0
 37 39  1  0
 37 40  1  0
 36 41  1  0
 41 42  1  0
 41 43  2  0
 43 44  1  0
 43 45  1  0
 45 46  1  0
 45 47  2  0
 47 48  1  0
 48 49  1  0
 48 50  1  0
 48 51  1  0
 34 52  1  0
 52 53  1  0
 11 54  2  0
 54 55  1  0
 54  2  1  0
 25 13  1  0
 52 27  1  0
 47 35  1  0
M  CHG  1  10  -1
M  END
>  <UniqueID>  (30) 
29

>  <SMILES>  (30) 
Cc1ccc(/N=c2/ccc(=O)n(-c3c(C)cccc3C)[nH]2)c(Oc2ccccc2C(=O)[O-])c1

>  <Energy>  (30) 
84.14638398485309

>  <Genealogy>  (30) 
Cc1ccc(N=c2ccc(=O)n(-c3c(C)cccc3C)[nH]2)c(Oc2ccccc2C(=O)[O-])c1 (protonated)
Cc1ccc(/N=c2/ccc(=O)n(-c3c(C)cccc3C)[nH]2)c(Oc2ccccc2C(=O)[O-])c1 (cis-trans isomerization)
Cc1ccc(/N=c2/ccc(=O)n(-c3c(C)cccc3C)[nH]2)c(Oc2ccccc2C(=O)[O-])c1 (3D coordinates assigned)
Cc1ccc(/N=c2/ccc(=O)n(-c3c(C)cccc3C)[nH]2)c(Oc2ccccc2C(=O)[O-])c1 (optimized conformer: 84.14638398485309 kcal/mol)

>  <smiles>  (30) 
Cc1ccc(N=c2ccc(=O)n(-c3c(C)cccc3C)[nH]2)c(Oc2ccccc2C(=O)O)c1

>  <score_type>  (30) 
oracle

>  <origin>  (30) 
adgpu

>  <m_score__min__energy>  (30) 
-11.59

>  <m_primary>  (30) 
energy

$$$$
30:0
     RDKit          3D

 51 54  0  0  0  0  0  0  0  0999 V2000
   -5.7320   26.3440  -31.1960 O   0  0  0  0  0  0  0  0  0  0  0  0
   -5.3120   25.1680  -30.3570 S   0  0  0  0  0  0  0  0  0  0  0  0
   -5.7220   25.4300  -28.9350 O   0  0  0  0  0  0  0  0  0  0  0  0
   -3.5840   25.0160  -30.4240 N   0  0  0  0  0  0  0  0  0  0  0  0
   -2.8220   24.2210  -29.5080 C   0  0  0  0  0  0  0  0  0  0  0  0
   -3.2590   22.9460  -29.1170 C   0  0  0  0  0  0  0  0  0  0  0  0
   -2.5120   22.1770  -28.2150 C   0  0  0  0  0  0  0  0  0  0  0  0
   -1.3300   22.7150  -27.6520 C   0  0  0  0  0  0  0  0  0  0  0  0
   -0.9060   23.9960  -28.0360 C   0  0  0  0  0  0  0  0  0  0  0  0
   -1.6510   24.7500  -28.9470 C   0  0  0  0  0  0  0  0  0  0  0  0
   -1.2170   26.0230  -29.3040 O   0  0  0  0  0  0  0  0  0  0  0  0
   -0.4610   21.9030  -26.7190 C   0  0  0  0  0  0  0  0  0  0  0  0
   -1.2260   20.7500  -26.0600 C   0  0  0  0  0  0  0  0  0  0  0  0
   -2.0050   19.9560  -27.1100 C   0  0  0  0  0  0  0  0  0  0  0  0
   -3.0640   20.8430  -27.7710 C   0  0  0  0  0  0  0  0  0  0  0  0
   -6.1150   23.7030  -30.9110 C   0  0  0  0  0  0  0  0  0  0  0  0
   -5.6960   23.0630  -32.0880 C   0  0  0  0  0  0  0  0  0  0  0  0
   -6.2920   21.8640  -32.4860 C   0  0  0  0  0  0  0  0  0  0  0  0
   -7.3040   21.2860  -31.7080 C   0  0  0  0  0  0  0  0  0  0  0  0
   -8.0590   19.7690  -32.2110 S   0  0  0  0  0  0  0  0  0  0  0  0
   -8.8860   19.2340  -31.0750 O   0  0  0  0  0  0  0  0  0  0  0  0
   -8.9820   20.0450  -33.3660 O   0  0  0  0  0  0  0  0  0  0  0  0
   -6.8980   18.5520  -32.6850 N   0  0  0  0  0  0  0  0  0  0  0  0
   -5.7080   18.5570  -31.8370 C   0  0  0  0  0  0  0  0  0  0  0  0
   -4.5800   17.9680  -32.6750 C   0  0  0  0  0  0  0  0  0  0  0  0
   -5.0610   18.0570  -34.1170 C   0  0  0  0  0  0  0  0  0  0  0  0
   -6.4050   18.7640  -34.0440 C   0  0  0  0  0  0  0  0  0  0  0  0
   -7.7310   21.9330  -30.5380 C   0  0  0  0  0  0  0  0  0  0  0  0
   -7.1390   23.1350  -30.1420 C   0  0  0  0  0  0  0  0  0  0  0  0
   -4.1994   22.5455  -29.5236 H   0  0  0  0  0  0  0  0  0  0  0  0
    0.0220   24.4111  -27.6159 H   0  0  0  0  0  0  0  0  0  0  0  0
    0.3797   21.4862  -27.2931 H   0  0  0  0  0  0  0  0  0  0  0  0
   -0.1117   22.5728  -25.9194 H   0  0  0  0  0  0  0  0  0  0  0  0
   -0.5114   20.0818  -25.5573 H   0  0  0  0  0  0  0  0  0  0  0  0
   -1.9352   21.1650  -25.3288 H   0  0  0  0  0  0  0  0  0  0  0  0
   -1.3081   19.5894  -27.8781 H   0  0  0  0  0  0  0  0  0  0  0  0
   -2.5050   19.1083  -26.6186 H   0  0  0  0  0  0  0  0  0  0  0  0
   -3.4643   20.3174  -28.6505 H   0  0  0  0  0  0  0  0  0  0  0  0
   -3.8468   21.0393  -27.0235 H   0  0  0  0  0  0  0  0  0  0  0  0
   -4.8960   23.5070  -32.6987 H   0  0  0  0  0  0  0  0  0  0  0  0
   -5.9656   21.3716  -33.4139 H   0  0  0  0  0  0  0  0  0  0  0  0
   -5.4605   19.5853  -31.5349 H   0  0  0  0  0  0  0  0  0  0  0  0
   -5.8699   17.9726  -30.9192 H   0  0  0  0  0  0  0  0  0  0  0  0
   -3.6561   18.5497  -32.5406 H   0  0  0  0  0  0  0  0  0  0  0  0
   -4.3500   16.9327  -32.3829 H   0  0  0  0  0  0  0  0  0  0  0  0
   -4.3519   18.6376  -34.7254 H   0  0  0  0  0  0  0  0  0  0  0  0
   -5.1422   17.0653  -34.5861 H   0  0  0  0  0  0  0  0  0  0  0  0
   -6.2828   19.8389  -34.2429 H   0  0  0  0  0  0  0  0  0  0  0  0
   -7.1080   18.3716  -34.7935 H   0  0  0  0  0  0  0  0  0  0  0  0
   -8.5349   21.4920  -29.9304 H   0  0  0  0  0  0  0  0  0  0  0  0
   -7.4780   23.6368  -29.2237 H   0  0  0  0  0  0  0  0  0  0  0  0
  1  2  2  0
  2  3  2  0
  2  4  1  0
  4  5  1  0
  5  6  2  0
  6  7  1  0
  7  8  2  0
  8  9  1  0
  9 10  2  0
 10 11  1  0
  8 12  1  0
 12 13  1  0
 13 14  1  0
 14 15  1  0
  2 16  1  0
 16 17  2  0
 17 18  1  0
 18 19  2  0
 19 20  1  0
 20 21  2  0
 20 22  2  0
 20 23  1  0
 23 24  1  0
 24 25  1  0
 25 26  1  0
 26 27  1  0
 19 28  1  0
 28 29  2  0
 10  5  1  0
 29 16  1  0
 15  7  1  0
 27 23  1  0
  6 30  1  0
  9 31  1  0
 12 32  1  0
 12 33  1  0
 13 34  1  0
 13 35  1  0
 14 36  1  0
 14 37  1  0
 15 38  1  0
 15 39  1  0
 17 40  1  0
 18 41  1  0
 24 42  1  0
 24 43  1  0
 25 44  1  0
 25 45  1  0
 26 46  1  0
 26 47  1  0
 27 48  1  0
 27 49  1  0
 28 50  1  0
 29 51  1  0
M  CHG  2   4  -1  11  -1
M  END
>  <UniqueID>  (31) 
30

>  <SMILES>  (31) 
O=S(=O)([N-]c1cc2c(cc1[O-])CCCC2)c1ccc(S(=O)(=O)N2CCCC2)cc1

>  <Energy>  (31) 
59.043474874593876

>  <Genealogy>  (31) 
O=S(=O)([N-]c1cc2c(cc1[O-])CCCC2)c1ccc(S(=O)(=O)N2CCCC2)cc1 (protonated)
O=S(=O)([N-]c1cc2c(cc1[O-])CCCC2)c1ccc(S(=O)(=O)N2CCCC2)cc1 (3D coordinates assigned)
O=S(=O)([N-]c1cc2c(cc1[O-])CCCC2)c1ccc(S(=O)(=O)N2CCCC2)cc1 (nonaromatic ring conformer: 59.043474874593876 kcal/mol)

>  <smiles>  (31) 
O=S(=O)(Nc1cc2c(cc1O)CCCC2)c1ccc(S(=O)(=O)N2CCCC2)cc1

>  <score_type>  (31) 
oracle

>  <origin>  (31) 
adgpu

>  <m_score__min__energy>  (31) 
-15.890000000000001

>  <m_primary>  (31) 
energy

$$$$
31:0
     RDKit          3D

 40 42  0  0  0  0  0  0  0  0999 V2000
   -4.3040   19.9990  -33.0290 C   0  0  0  0  0  0  0  0  0  0  0  0
   -4.5000   21.4780  -32.7170 C   0  0  0  0  0  0  0  0  0  0  0  0
   -5.9230   21.7540  -32.2940 C   0  0  0  0  0  0  0  0  0  0  0  0
   -6.8610   20.7080  -32.3230 C   0  0  0  0  0  0  0  0  0  0  0  0
   -8.1810   20.9300  -31.9280 C   0  0  0  0  0  0  0  0  0  0  0  0
   -8.5790   22.1960  -31.5050 C   0  0  0  0  0  0  0  0  0  0  0  0
   -7.6630   23.2500  -31.4840 C   0  0  0  0  0  0  0  0  0  0  0  0
   -6.3310   23.0480  -31.8980 C   0  0  0  0  0  0  0  0  0  0  0  0
   -5.3480   24.0980  -31.8430 N   0  0  0  0  0  0  0  0  0  0  0  0
   -4.8900   24.8470  -30.7100 C   0  0  0  0  0  0  0  0  0  0  0  0
   -3.9410   25.6690  -30.8100 O   0  0  0  0  0  0  0  0  0  0  0  0
   -5.5460   24.6330  -29.3830 C   0  0  0  0  0  0  0  0  0  0  0  0
   -4.9590   23.0860  -28.6000 S   0  0  0  0  0  0  0  0  0  0  0  0
   -3.2100   23.4140  -28.8840 C   0  0  0  0  0  0  0  0  0  0  0  0
   -2.7090   24.6220  -28.5200 N   0  0  0  0  0  0  0  0  0  0  0  0
   -1.4140   24.9560  -28.7640 C   0  0  0  0  0  0  0  0  0  0  0  0
   -0.9790   26.0830  -28.4130 O   0  0  0  0  0  0  0  0  0  0  0  0
   -0.5900   24.0790  -29.3950 N   0  0  0  0  0  0  0  0  0  0  0  0
   -1.0370   22.8560  -29.7740 C   0  0  0  0  0  0  0  0  0  0  0  0
   -0.2050   22.0020  -30.4260 N   0  0  0  0  0  0  0  0  0  0  0  0
   -0.6340   20.7760  -30.8260 C   0  0  0  0  0  0  0  0  0  0  0  0
    0.2990   19.8540  -31.5350 C   0  0  0  0  0  0  0  0  0  0  0  0
   -1.9010   20.3730  -30.5390 N   0  0  0  0  0  0  0  0  0  0  0  0
   -2.7700   21.1900  -29.8910 C   0  0  0  0  0  0  0  0  0  0  0  0
   -2.3630   22.4760  -29.5050 C   0  0  0  0  0  0  0  0  0  0  0  0
   -4.2290   19.4328  -32.0889 H   0  0  0  0  0  0  0  0  0  0  0  0
   -5.1612   19.6304  -33.6116 H   0  0  0  0  0  0  0  0  0  0  0  0
   -3.3804   19.8664  -33.6116 H   0  0  0  0  0  0  0  0  0  0  0  0
   -3.8193   21.7679  -31.9030 H   0  0  0  0  0  0  0  0  0  0  0  0
   -4.2830   22.0610  -33.6242 H   0  0  0  0  0  0  0  0  0  0  0  0
   -6.5526   19.7071  -32.6594 H   0  0  0  0  0  0  0  0  0  0  0  0
   -8.9077   20.1045  -31.9507 H   0  0  0  0  0  0  0  0  0  0  0  0
   -9.6180   22.3662  -31.1865 H   0  0  0  0  0  0  0  0  0  0  0  0
   -7.9834   24.2451  -31.1418 H   0  0  0  0  0  0  0  0  0  0  0  0
   -5.3093   25.4815  -28.7242 H   0  0  0  0  0  0  0  0  0  0  0  0
   -6.6322   24.5557  -29.5385 H   0  0  0  0  0  0  0  0  0  0  0  0
    0.8792   19.2806  -30.7970 H   0  0  0  0  0  0  0  0  0  0  0  0
   -0.2783   19.1617  -32.1655 H   0  0  0  0  0  0  0  0  0  0  0  0
    0.9844   20.4394  -32.1655 H   0  0  0  0  0  0  0  0  0  0  0  0
   -3.7906   20.8447  -29.6691 H   0  0  0  0  0  0  0  0  0  0  0  0
  1  2  1  0
  2  3  1  0
  3  4  2  0
  4  5  1  0
  5  6  2  0
  6  7  1  0
  7  8  2  0
  8  9  1  0
  9 10  1  0
 10 11  2  0
 10 12  1  0
 12 13  1  0
 13 14  1  0
 14 15  2  0
 15 16  1  0
 16 17  2  0
 16 18  1  0
 18 19  1  0
 19 20  2  0
 20 21  1  0
 21 22  1  0
 21 23  2  0
 23 24  1  0
 24 25  2  0
  8  3  1  0
 25 14  1  0
 25 19  1  0
  1 26  1  0
  1 27  1  0
  1 28  1  0
  2 29  1  0
  2 30  1  0
  4 31  1  0
  5 32  1  0
  6 33  1  0
  7 34  1  0
 12 35  1  0
 12 36  1  0
 22 37  1  0
 22 38  1  0
 22 39  1  0
 24 40  1  0
M  CHG  2   9  -1  18  -1
M  END
>  <UniqueID>  (32) 
31

>  <SMILES>  (32) 
CCc1ccccc1[N-]C(=O)CSc1nc(=O)[n-]c2nc(C)ncc12

>  <Energy>  (32) 
38.46192630036877

>  <Genealogy>  (32) 
CCc1ccccc1[N-]C(=O)CSc1nc(=O)[n-]c2nc(C)ncc12 (protonated)
CCc1ccccc1[N-]C(=O)CSc1nc(=O)[n-]c2nc(C)ncc12 (3D coordinates assigned)
CCc1ccccc1[N-]C(=O)CSc1nc(=O)[n-]c2nc(C)ncc12 (optimized conformer: 38.46192630036877 kcal/mol)

>  <smiles>  (32) 
CCc1ccccc1NC(=O)CSc1nc(=O)[nH]c2nc(C)ncc12

>  <score_type>  (32) 
oracle

>  <origin>  (32) 
adgpu

>  <m_score__min__energy>  (32) 
-10.07

>  <m_primary>  (32) 
energy

$$$$
32:0
     RDKit          3D

 49 52  0  0  0  0  0  0  0  0999 V2000
   -9.1200   19.7870  -33.0750 C   0  0  0  0  0  0  0  0  0  0  0  0
   -8.3470   18.8800  -32.2090 N   0  0  0  0  0  0  0  0  0  0  0  0
   -7.5770   17.8800  -32.9750 C   0  0  0  0  0  0  0  0  0  0  0  0
   -6.4760   18.5170  -33.8350 C   0  0  0  0  0  0  0  0  0  0  0  0
   -5.7180   19.5880  -33.0960 C   0  0  0  0  0  0  0  0  0  0  0  0
   -4.5200   20.0740  -33.6370 C   0  0  0  0  0  0  0  0  0  0  0  0
   -3.8250   21.1060  -33.0040 C   0  0  0  0  0  0  0  0  0  0  0  0
   -4.3250   21.6870  -31.8330 C   0  0  0  0  0  0  0  0  0  0  0  0
   -3.5750   22.7310  -31.1870 N   0  0  0  0  0  0  0  0  0  0  0  0
   -4.1150   24.0110  -30.8310 C   0  0  0  0  0  0  0  0  0  0  0  0
   -5.2660   24.3520  -31.2170 O   0  0  0  0  0  0  0  0  0  0  0  0
   -3.3310   24.8990  -30.0270 N   0  0  0  0  0  0  0  0  0  0  0  0
   -2.5680   24.5170  -28.8740 C   0  0  0  0  0  0  0  0  0  0  0  0
   -2.8210   23.2740  -28.2920 C   0  0  0  0  0  0  0  0  0  0  0  0
   -2.1170   22.8690  -27.1600 C   0  0  0  0  0  0  0  0  0  0  0  0
   -1.1300   23.6890  -26.6080 C   0  0  0  0  0  0  0  0  0  0  0  0
   -0.3340   23.1270  -25.1390 Cl  0  0  0  0  0  0  0  0  0  0  0  0
   -0.8130   24.9240  -27.2160 C   0  0  0  0  0  0  0  0  0  0  0  0
    0.4570   25.9640  -26.5350 S   0  0  0  0  0  0  0  0  0  0  0  0
    0.7470   27.1240  -27.4470 O   0  0  0  0  0  0  0  0  0  0  0  0
    1.7270   25.1760  -26.3770 O   0  0  0  0  0  0  0  0  0  0  0  0
   -0.0890   26.5380  -24.9280 C   0  0  0  0  0  0  0  0  0  0  0  0
   -0.8710   27.8400  -24.9310 C   0  0  0  0  0  0  0  0  0  0  0  0
   -1.5950   26.5170  -24.7340 C   0  0  0  0  0  0  0  0  0  0  0  0
   -1.5430   25.3340  -28.3550 C   0  0  0  0  0  0  0  0  0  0  0  0
   -1.2370   26.5340  -28.9890 O   0  0  0  0  0  0  0  0  0  0  0  0
   -5.5190   21.1930  -31.2790 C   0  0  0  0  0  0  0  0  0  0  0  0
   -6.2320   20.1650  -31.9170 C   0  0  0  0  0  0  0  0  0  0  0  0
   -7.4820   19.6170  -31.2670 C   0  0  0  0  0  0  0  0  0  0  0  0
   -9.7079   20.4768  -32.4516 H   0  0  0  0  0  0  0  0  0  0  0  0
   -8.4311   20.3633  -33.7100 H   0  0  0  0  0  0  0  0  0  0  0  0
   -9.7982   19.1982  -33.7100 H   0  0  0  0  0  0  0  0  0  0  0  0
   -7.1105   17.1776  -32.2686 H   0  0  0  0  0  0  0  0  0  0  0  0
   -8.2760   17.3683  -33.6529 H   0  0  0  0  0  0  0  0  0  0  0  0
   -5.7692   17.7321  -34.1423 H   0  0  0  0  0  0  0  0  0  0  0  0
   -6.9591   18.9871  -34.7042 H   0  0  0  0  0  0  0  0  0  0  0  0
   -4.1246   19.6392  -34.5669 H   0  0  0  0  0  0  0  0  0  0  0  0
   -2.8764   21.4656  -33.4292 H   0  0  0  0  0  0  0  0  0  0  0  0
   -2.5480   22.5900  -31.0540 H   0  0  0  0  0  0  0  0  0  0  0  0
   -3.5809   22.6100  -28.7297 H   0  0  0  0  0  0  0  0  0  0  0  0
   -2.3401   21.8962  -26.6975 H   0  0  0  0  0  0  0  0  0  0  0  0
    0.7803   26.1597  -24.3702 H   0  0  0  0  0  0  0  0  0  0  0  0
   -0.7718   28.5433  -24.0910 H   0  0  0  0  0  0  0  0  0  0  0  0
   -0.9713   28.6858  -25.6270 H   0  0  0  0  0  0  0  0  0  0  0  0
   -2.0196   26.2632  -23.7515 H   0  0  0  0  0  0  0  0  0  0  0  0
   -2.4362   26.0092  -25.2285 H   0  0  0  0  0  0  0  0  0  0  0  0
   -5.8983   21.6157  -30.3369 H   0  0  0  0  0  0  0  0  0  0  0  0
   -7.1853   18.9349  -30.4566 H   0  0  0  0  0  0  0  0  0  0  0  0
   -8.0602   20.4742  -30.8916 H   0  0  0  0  0  0  0  0  0  0  0  0
  1  2  1  0
  2  3  1  0
  3  4  1  0
  4  5  1  0
  5  6  2  0
  6  7  1  0
  7  8  2  0
  8  9  1  0
  9 10  1  0
 10 11  2  0
 10 12  1  0
 12 13  1  0
 13 14  2  0
 14 15  1  0
 15 16  2  0
 16 17  1  0
 16 18  1  0
 18 19  1  0
 19 20  2  0
 19 21  2  0
 19 22  1  0
 22 23  1  0
 23 24  1  0
 18 25  2  0
 25 26  1  0
  8 27  1  0
 27 28  2  0
 28 29  1  0
 29  2  1  0
 28  5  1  0
 25 13  1  0
 24 22  1  0
  1 30  1  0
  1 31  1  0
  1 32  1  0
  3 33  1  0
  3 34  1  0
  4 35  1  0
  4 36  1  0
  6 37  1  0
  7 38  1  0
  9 39  1  0
 14 40  1  0
 15 41  1  0
 22 42  1  0
 23 43  1  0
 23 44  1  0
 24 45  1  0
 24 46  1  0
 27 47  1  0
 29 48  1  0
 29 49  1  0
M  CHG  2  12  -1  26  -1
M  END
>  <UniqueID>  (33) 
32

>  <SMILES>  (33) 
CN1CCc2ccc(NC(=O)[N-]c3ccc(Cl)c(S(=O)(=O)C4CC4)c3[O-])cc2C1

>  <Energy>  (33) 
331.5804029718837

>  <Genealogy>  (33) 
CN1CCc2ccc(NC(=O)[N-]c3ccc(Cl)c(S(=O)(=O)C4CC4)c3[O-])cc2C1 (protonated)
CN1CCc2ccc(NC(=O)[N-]c3ccc(Cl)c(S(=O)(=O)C4CC4)c3[O-])cc2C1 (3D coordinates assigned)
CN1CCc2ccc(NC(=O)[N-]c3ccc(Cl)c(S(=O)(=O)C4CC4)c3[O-])cc2C1 (nonaromatic ring conformer: 331.5804029718837 kcal/mol)

>  <smiles>  (33) 
CN1CCc2ccc(NC(=O)Nc3ccc(Cl)c(S(=O)(=O)C4CC4)c3O)cc2C1

>  <score_type>  (33) 
oracle

>  <origin>  (33) 
adgpu

>  <m_score__min__energy>  (33) 
-13.550000000000001

>  <m_primary>  (33) 
energy

$$$$
33:0
     RDKit          3D

 30 31  0  0  0  0  0  0  0  0999 V2000
   -2.2600   21.5170  -32.2140 C   0  0  0  0  0  0  0  0  0  0  0  0
   -3.1120   20.8790  -33.1600 O   0  0  0  0  0  0  0  0  0  0  0  0
   -4.4840   20.6420  -32.9660 C   0  0  0  0  0  0  0  0  0  0  0  0
   -5.2930   21.5260  -32.2270 C   0  0  0  0  0  0  0  0  0  0  0  0
   -6.6630   21.2790  -32.0580 C   0  0  0  0  0  0  0  0  0  0  0  0
   -7.6480   22.4280  -31.1400 S   0  0  0  0  0  0  0  0  0  0  0  0
   -8.2180   23.4760  -32.0550 O   0  0  0  0  0  0  0  0  0  0  0  0
   -8.7740   21.6860  -30.4780 O   0  0  0  0  0  0  0  0  0  0  0  0
   -6.7070   23.2180  -29.9150 N   0  0  0  0  0  0  0  0  0  0  0  0
   -5.5500   24.0010  -30.2230 C   0  0  0  0  0  0  0  0  0  0  0  0
   -5.5440   25.2710  -30.7470 C   0  0  0  0  0  0  0  0  0  0  0  0
   -4.2640   25.6770  -30.8630 N   0  0  0  0  0  0  0  0  0  0  0  0
   -3.4680   24.7090  -30.4280 N   0  0  0  0  0  0  0  0  0  0  0  0
   -4.2270   23.6700  -30.0280 C   0  0  0  0  0  0  0  0  0  0  0  0
   -7.2270   20.1120  -32.6110 C   0  0  0  0  0  0  0  0  0  0  0  0
   -9.0770   19.6540  -32.3860 Br  0  0  0  0  0  0  0  0  0  0  0  0
   -6.4240   19.2300  -33.3400 C   0  0  0  0  0  0  0  0  0  0  0  0
   -5.0600   19.4890  -33.5290 C   0  0  0  0  0  0  0  0  0  0  0  0
   -4.2110   18.5280  -34.3140 C   0  0  0  0  0  0  0  0  0  0  0  0
   -2.5921   21.2683  -31.1952 H   0  0  0  0  0  0  0  0  0  0  0  0
   -1.2265   21.1688  -32.3580 H   0  0  0  0  0  0  0  0  0  0  0  0
   -2.3032   22.6067  -32.3580 H   0  0  0  0  0  0  0  0  0  0  0  0
   -4.8441   22.4231  -31.7758 H   0  0  0  0  0  0  0  0  0  0  0  0
   -7.0060   23.1220  -28.9190 H   0  0  0  0  0  0  0  0  0  0  0  0
   -6.4327   25.8568  -31.0246 H   0  0  0  0  0  0  0  0  0  0  0  0
   -3.8542   22.7205  -29.6164 H   0  0  0  0  0  0  0  0  0  0  0  0
   -6.8687   18.3208  -33.7709 H   0  0  0  0  0  0  0  0  0  0  0  0
   -3.6454   17.8878  -33.6209 H   0  0  0  0  0  0  0  0  0  0  0  0
   -4.8563   17.9019  -34.9477 H   0  0  0  0  0  0  0  0  0  0  0  0
   -3.5101   19.0912  -34.9477 H   0  0  0  0  0  0  0  0  0  0  0  0
  1  2  1  0
  2  3  1  0
  3  4  2  0
  4  5  1  0
  5  6  1  0
  6  7  2  0
  6  8  2  0
  6  9  1  0
  9 10  1  0
 10 11  1  0
 11 12  2  0
 12 13  1  0
 13 14  1  0
  5 15  2  0
 15 16  1  0
 15 17  1  0
 17 18  2  0
 18 19  1  0
 18  3  1  0
 14 10  2  0
  1 20  1  0
  1 21  1  0
  1 22  1  0
  4 23  1  0
  9 24  1  0
 11 25  1  0
 14 26  1  0
 17 27  1  0
 19 28  1  0
 19 29  1  0
 19 30  1  0
M  CHG  1  13  -1
M  END
>  <UniqueID>  (34) 
33

>  <SMILES>  (34) 
COc1cc(S(=O)(=O)Nc2cn[n-]c2)c(Br)cc1C

>  <Energy>  (34) 
63.02189965213769

>  <Genealogy>  (34) 
COc1cc(S(=O)(=O)Nc2cn[n-]c2)c(Br)cc1C (protonated)
COc1cc(S(=O)(=O)Nc2cn[n-]c2)c(Br)cc1C (3D coordinates assigned)
COc1cc(S(=O)(=O)Nc2cn[n-]c2)c(Br)cc1C (optimized conformer: 63.02189965213769 kcal/mol)

>  <smiles>  (34) 
COc1cc(S(=O)(=O)Nc2cn[nH]c2)c(Br)cc1C

>  <score_type>  (34) 
oracle

>  <origin>  (34) 
adgpu

>  <m_score__min__energy>  (34) 
-9.9100000000000001

>  <m_primary>  (34) 
energy

$$$$
34:0
     RDKit          3D

 50 53  0  0  0  0  0  0  0  0999 V2000
   -8.1660   18.0510  -32.2460 C   0  0  0  0  0  0  0  0  0  0  0  0
   -7.2360   17.1570  -33.0660 C   0  0  0  0  0  0  0  0  0  0  0  0
   -6.4970   17.9340  -34.1640 C   0  0  0  0  0  0  0  0  0  0  0  0
   -5.7040   19.0820  -33.5990 C   0  0  0  0  0  0  0  0  0  0  0  0
   -6.3020   20.1150  -32.9490 N   0  0  0  0  0  0  0  0  0  0  0  0
   -5.2740   20.9340  -32.6660 C   0  0  0  0  0  0  0  0  0  0  0  0
   -5.3230   22.1530  -31.9950 C   0  0  0  0  0  0  0  0  0  0  0  0
   -4.1180   22.8620  -31.8180 C   0  0  0  0  0  0  0  0  0  0  0  0
   -4.1510   24.1140  -31.1190 N   0  0  0  0  0  0  0  0  0  0  0  0
   -4.1670   24.2870  -29.6940 C   0  0  0  0  0  0  0  0  0  0  0  0
   -5.1040   24.9550  -29.1810 O   0  0  0  0  0  0  0  0  0  0  0  0
   -3.0820   23.7640  -28.8290 C   0  0  0  0  0  0  0  0  0  0  0  0
   -3.2520   22.5450  -28.1470 C   0  0  0  0  0  0  0  0  0  0  0  0
   -2.2350   22.0400  -27.3330 C   0  0  0  0  0  0  0  0  0  0  0  0
   -1.0340   22.7380  -27.1980 C   0  0  0  0  0  0  0  0  0  0  0  0
   -0.8470   23.9440  -27.8780 C   0  0  0  0  0  0  0  0  0  0  0  0
   -1.8620   24.4600  -28.6930 C   0  0  0  0  0  0  0  0  0  0  0  0
   -1.6550   25.6690  -29.3460 O   0  0  0  0  0  0  0  0  0  0  0  0
   -2.8980   22.3050  -32.2890 C   0  0  0  0  0  0  0  0  0  0  0  0
   -2.8870   21.0720  -32.9640 C   0  0  0  0  0  0  0  0  0  0  0  0
   -4.1050   20.4140  -33.1350 C   0  0  0  0  0  0  0  0  0  0  0  0
   -4.3570   19.2370  -33.7340 N   0  0  0  0  0  0  0  0  0  0  0  0
   -3.3810   18.3250  -34.3400 C   0  0  0  0  0  0  0  0  0  0  0  0
   -3.7370   16.8930  -34.0360 C   0  0  0  0  0  0  0  0  0  0  0  0
   -3.7790   15.9400  -35.0680 C   0  0  0  0  0  0  0  0  0  0  0  0
   -4.1140   14.6110  -34.7890 C   0  0  0  0  0  0  0  0  0  0  0  0
   -4.4030   14.2220  -33.4770 C   0  0  0  0  0  0  0  0  0  0  0  0
   -4.8230   12.5550  -33.1290 Cl  0  0  0  0  0  0  0  0  0  0  0  0
   -4.3570   15.1630  -32.4440 C   0  0  0  0  0  0  0  0  0  0  0  0
   -4.0230   16.4930  -32.7210 C   0  0  0  0  0  0  0  0  0  0  0  0
   -7.9880   17.8799  -31.1741 H   0  0  0  0  0  0  0  0  0  0  0  0
   -7.9672   19.1057  -32.4869 H   0  0  0  0  0  0  0  0  0  0  0  0
   -9.2121   17.8107  -32.4869 H   0  0  0  0  0  0  0  0  0  0  0  0
   -6.4934   16.7063  -32.3912 H   0  0  0  0  0  0  0  0  0  0  0  0
   -7.8535   16.3895  -33.5555 H   0  0  0  0  0  0  0  0  0  0  0  0
   -5.8111   17.2495  -34.6845 H   0  0  0  0  0  0  0  0  0  0  0  0
   -7.2469   18.3443  -34.8564 H   0  0  0  0  0  0  0  0  0  0  0  0
   -6.2750   22.5512  -31.6140 H   0  0  0  0  0  0  0  0  0  0  0  0
   -4.1928   21.9854  -28.2556 H   0  0  0  0  0  0  0  0  0  0  0  0
   -2.3812   21.0904  -26.7974 H   0  0  0  0  0  0  0  0  0  0  0  0
   -0.2348   22.3386  -26.5563 H   0  0  0  0  0  0  0  0  0  0  0  0
    0.1018   24.4906  -27.7727 H   0  0  0  0  0  0  0  0  0  0  0  0
   -1.9534   22.8440  -32.1237 H   0  0  0  0  0  0  0  0  0  0  0  0
   -1.9494   20.6406  -33.3446 H   0  0  0  0  0  0  0  0  0  0  0  0
   -3.3755   18.4730  -35.4300 H   0  0  0  0  0  0  0  0  0  0  0  0
   -2.3862   18.5404  -33.9229 H   0  0  0  0  0  0  0  0  0  0  0  0
   -3.5472   16.2408  -36.1004 H   0  0  0  0  0  0  0  0  0  0  0  0
   -4.1502   13.8711  -35.6022 H   0  0  0  0  0  0  0  0  0  0  0  0
   -4.5837   14.8572  -31.4120 H   0  0  0  0  0  0  0  0  0  0  0  0
   -3.9843   17.2290  -31.9044 H   0  0  0  0  0  0  0  0  0  0  0  0
  1  2  1  0
  2  3  1  0
  3  4  1  0
  4  5  2  0
  5  6  1  0
  6  7  2  0
  7  8  1  0
  8  9  1  0
  9 10  1  0
 10 11  2  0
 10 12  1  0
 12 13  2  0
 13 14  1  0
 14 15  2  0
 15 16  1  0
 16 17  2  0
 17 18  1  0
  8 19  2  0
 19 20  1  0
 20 21  2  0
 21 22  1  0
 22 23  1  0
 23 24  1  0
 24 25  2  0
 25 26  1  0
 26 27  2  0
 27 28  1  0
 27 29  1  0
 29 30  2  0
 22  4  1  0
 30 24  1  0
 21  6  1  0
 17 12  1  0
  1 31  1  0
  1 32  1  0
  1 33  1  0
  2 34  1  0
  2 35  1  0
  3 36  1  0
  3 37  1  0
  7 38  1  0
 13 39  1  0
 14 40  1  0
 15 41  1  0
 16 42  1  0
 19 43  1  0
 20 44  1  0
 23 45  1  0
 23 46  1  0
 25 47  1  0
 26 48  1  0
 29 49  1  0
 30 50  1  0
M  CHG  2   9  -1  18  -1
M  END
>  <UniqueID>  (35) 
34

>  <SMILES>  (35) 
CCCc1nc2cc([N-]C(=O)c3ccccc3[O-])ccc2n1Cc1ccc(Cl)cc1

>  <Energy>  (35) 
93.0292854855354

>  <Genealogy>  (35) 
CCCc1nc2cc([N-]C(=O)c3ccccc3[O-])ccc2n1Cc1ccc(Cl)cc1 (protonated)
CCCc1nc2cc([N-]C(=O)c3ccccc3[O-])ccc2n1Cc1ccc(Cl)cc1 (3D coordinates assigned)
CCCc1nc2cc([N-]C(=O)c3ccccc3[O-])ccc2n1Cc1ccc(Cl)cc1 (optimized conformer: 93.0292854855354 kcal/mol)

>  <smiles>  (35) 
CCCc1nc2cc(NC(=O)c3ccccc3O)ccc2n1Cc1ccc(Cl)cc1

>  <score_type>  (35) 
oracle

>  <origin>  (35) 
adgpu

>  <m_score__min__energy>  (35) 
-13.359999999999999

>  <m_primary>  (35) 
energy

$$$$
35:0
     RDKit          3D

 41 42  0  0  0  0  0  0  0  0999 V2000
   -8.4488   21.4439  -30.0942 H   0  0  0  0  0  0  0  0  0  0  0  0
   -7.8140   21.6050  -30.9780 C   0  0  0  0  0  0  0  0  0  0  0  0
   -8.0260   20.8460  -32.0590 C   0  0  0  0  0  0  0  0  0  0  0  0
   -7.4286   21.0149  -32.9671 H   0  0  0  0  0  0  0  0  0  0  0  0
   -9.0650   19.7710  -32.0480 C   0  0  0  0  0  0  0  0  0  0  0  0
   -9.3145   19.5128  -31.0082 H   0  0  0  0  0  0  0  0  0  0  0  0
   -9.9683   20.1288  -32.5638 H   0  0  0  0  0  0  0  0  0  0  0  0
   -8.6767   18.8804  -32.5638 H   0  0  0  0  0  0  0  0  0  0  0  0
   -6.7660   22.6530  -30.9110 C   0  0  0  0  0  0  0  0  0  0  0  0
   -7.1090   23.9160  -30.4100 C   0  0  0  0  0  0  0  0  0  0  0  0
   -8.1471   24.1209  -30.1093 H   0  0  0  0  0  0  0  0  0  0  0  0
   -6.1420   24.9160  -30.2900 C   0  0  0  0  0  0  0  0  0  0  0  0
   -6.4225   25.9049  -29.8985 H   0  0  0  0  0  0  0  0  0  0  0  0
   -4.8200   24.6660  -30.6650 C   0  0  0  0  0  0  0  0  0  0  0  0
   -3.8630   25.6630  -30.5160 O   0  0  0  0  0  0  0  0  0  0  0  0
   -4.4560   23.4170  -31.1870 C   0  0  0  0  0  0  0  0  0  0  0  0
   -3.1070   23.2020  -31.5220 O   0  0  0  0  0  0  0  0  0  0  0  0
   -2.2150   22.3020  -30.8610 C   0  0  0  0  0  0  0  0  0  0  0  0
   -2.0057   21.4551  -31.5310 H   0  0  0  0  0  0  0  0  0  0  0  0
   -1.2967   22.8561  -30.6165 H   0  0  0  0  0  0  0  0  0  0  0  0
   -2.7890   21.7730  -29.5780 C   0  0  0  0  0  0  0  0  0  0  0  0
   -3.6070   20.8160  -29.6200 O   0  0  0  0  0  0  0  0  0  0  0  0
   -2.4020   22.3460  -28.3210 N   0  0  0  0  0  0  0  0  0  0  0  0
   -2.0810   23.5880  -28.1110 C   0  0  0  0  0  0  0  0  0  0  0  0
   -1.6000   24.1740  -26.6120 S   0  0  0  0  0  0  0  0  0  0  0  0
   -1.2750   25.6940  -27.2790 C   0  0  0  0  0  0  0  0  0  0  0  0
   -0.6700   26.8590  -26.5470 C   0  0  0  0  0  0  0  0  0  0  0  0
   -1.0195   27.7874  -27.0224 H   0  0  0  0  0  0  0  0  0  0  0  0
   -1.1270   26.8900  -25.0860 C   0  0  0  0  0  0  0  0  0  0  0  0
   -0.2491   26.8304  -24.4259 H   0  0  0  0  0  0  0  0  0  0  0  0
   -1.6693   27.8270  -24.8913 H   0  0  0  0  0  0  0  0  0  0  0  0
   -1.7909   26.0348  -24.8913 H   0  0  0  0  0  0  0  0  0  0  0  0
    0.8580   26.8090  -26.6450 C   0  0  0  0  0  0  0  0  0  0  0  0
    1.2900   26.7949  -25.6335 H   0  0  0  0  0  0  0  0  0  0  0  0
    1.1612   25.9005  -27.1859 H   0  0  0  0  0  0  0  0  0  0  0  0
    1.2199   27.6958  -27.1859 H   0  0  0  0  0  0  0  0  0  0  0  0
   -1.5130   25.7030  -28.6110 N   0  0  0  0  0  0  0  0  0  0  0  0
   -1.9660   24.5380  -29.0710 N   0  0  0  0  0  0  0  0  0  0  0  0
   -2.1540   24.3960  -30.0870 H   0  0  0  0  0  0  0  0  0  0  0  0
   -5.4440   22.4220  -31.3380 C   0  0  0  0  0  0  0  0  0  0  0  0
   -5.1795   21.4564  -31.7936 H   0  0  0  0  0  0  0  0  0  0  0  0
  1  2  1  0
  2  3  2  0
  3  4  1  0
  3  5  1  0
  5  6  1  0
  5  7  1  0
  5  8  1  0
  2  9  1  0
  9 10  2  0
 10 11  1  0
 10 12  1  0
 12 13  1  0
 12 14  2  0
 14 15  1  0
 14 16  1  0
 16 17  1  0
 17 18  1  0
 18 19  1  0
 18 20  1  0
 18 21  1  0
 21 22  2  0
 21 23  1  0
 23 24  2  0
 24 25  1  0
 25 26  1  0
 26 27  1  0
 27 28  1  0
 27 29  1  0
 29 30  1  0
 29 31  1  0
 29 32  1  0
 27 33  1  0
 33 34  1  0
 33 35  1  0
 33 36  1  0
 26 37  2  0
 37 38  1  0
 38 39  1  0
 16 40  2  0
 40 41  1  0
 40  9  1  0
 38 24  1  0
M  CHG  1  15  -1
M  END
>  <UniqueID>  (36) 
35

>  <SMILES>  (36) 
C/C=C/c1ccc([O-])c(OCC(=O)/N=c2\[nH]nc(C(C)C)s2)c1

>  <Energy>  (36) 
71.73098403931263

>  <Genealogy>  (36) 
CC=Cc1ccc([O-])c(OCC(=O)N=c2[nH]nc(C(C)C)s2)c1 (protonated)
C/C=C/c1ccc([O-])c(OCC(=O)/N=c2\[nH]nc(C(C)C)s2)c1 (cis-trans isomerization)
C/C=C/c1ccc([O-])c(OCC(=O)/N=c2\[nH]nc(C(C)C)s2)c1 (3D coordinates assigned)
C/C=C/c1ccc([O-])c(OCC(=O)/N=c2\[nH]nc(C(C)C)s2)c1 (optimized conformer: 71.73098403931263 kcal/mol)

>  <smiles>  (36) 
CC=Cc1ccc(O)c(OCC(=O)N=c2[nH]nc(C(C)C)s2)c1

>  <score_type>  (36) 
oracle

>  <origin>  (36) 
adgpu

>  <m_score__min__energy>  (36) 
-11.630000000000001

>  <m_primary>  (36) 
energy

$$$$
36:0
     RDKit          3D

 63 66  0  0  0  0  0  0  0  0999 V2000
   -9.1510   21.4510  -31.2610 C   0  0  0  0  0  0  0  0  0  0  0  0
   -7.7290   21.9390  -31.1850 C   0  0  0  0  0  0  0  0  0  0  0  0
   -7.4130   23.0370  -30.3690 C   0  0  0  0  0  0  0  0  0  0  0  0
   -6.1030   23.5130  -30.2970 C   0  0  0  0  0  0  0  0  0  0  0  0
   -5.0790   22.8860  -31.0280 C   0  0  0  0  0  0  0  0  0  0  0  0
   -3.7500   23.3380  -30.9870 O   0  0  0  0  0  0  0  0  0  0  0  0
   -3.0180   23.5510  -29.8100 C   0  0  0  0  0  0  0  0  0  0  0  0
   -3.6770   24.1080  -28.7120 C   0  0  0  0  0  0  0  0  0  0  0  0
   -3.0210   24.2480  -27.4880 C   0  0  0  0  0  0  0  0  0  0  0  0
   -1.6800   23.8600  -27.3510 C   0  0  0  0  0  0  0  0  0  0  0  0
   -1.0010   23.9210  -26.0060 C   0  0  0  0  0  0  0  0  0  0  0  0
    0.3050   24.3400  -26.1780 F   0  0  0  0  0  0  0  0  0  0  0  0
   -1.0000   22.6760  -25.4010 F   0  0  0  0  0  0  0  0  0  0  0  0
   -1.6540   24.8080  -25.1700 F   0  0  0  0  0  0  0  0  0  0  0  0
   -1.0110   23.3180  -28.4600 C   0  0  0  0  0  0  0  0  0  0  0  0
   -1.6510   23.2020  -29.7000 C   0  0  0  0  0  0  0  0  0  0  0  0
   -0.9030   22.6810  -30.8070 N   0  0  0  0  0  0  0  0  0  0  0  0
   -1.0370   21.3610  -31.3460 C   0  0  0  0  0  0  0  0  0  0  0  0
   -0.1030   20.5230  -31.2050 O   0  0  0  0  0  0  0  0  0  0  0  0
   -2.2250   21.0200  -32.0750 N   0  0  0  0  0  0  0  0  0  0  0  0
   -2.4290   19.7620  -32.7400 C   0  0  0  0  0  0  0  0  0  0  0  0
   -3.3410   19.6910  -33.8050 C   0  0  0  0  0  0  0  0  0  0  0  0
   -3.5830   18.4760  -34.4540 C   0  0  0  0  0  0  0  0  0  0  0  0
   -2.9340   17.3060  -34.0330 C   0  0  0  0  0  0  0  0  0  0  0  0
   -3.1820   15.9980  -34.7340 C   0  0  0  0  0  0  0  0  0  0  0  0
   -3.6850   15.0530  -33.8290 O   0  0  0  0  0  0  0  0  0  0  0  0
   -2.0210   17.3720  -32.9680 C   0  0  0  0  0  0  0  0  0  0  0  0
   -1.7770   18.5890  -32.3190 C   0  0  0  0  0  0  0  0  0  0  0  0
   -5.3890   21.7890  -31.8390 C   0  0  0  0  0  0  0  0  0  0  0  0
   -6.7060   21.3150  -31.9310 C   0  0  0  0  0  0  0  0  0  0  0  0
   -7.0050   20.1910  -32.8390 C   0  0  0  0  0  0  0  0  0  0  0  0
   -7.6230   20.4300  -33.9090 O   0  0  0  0  0  0  0  0  0  0  0  0
   -6.5710   18.8460  -32.5390 N   0  0  0  0  0  0  0  0  0  0  0  0
   -5.9770   18.5270  -31.2320 C   0  0  0  0  0  0  0  0  0  0  0  0
   -6.1140   17.0320  -30.9400 C   0  0  0  0  0  0  0  0  0  0  0  0
   -5.6280   16.2600  -32.0210 O   0  0  0  0  0  0  0  0  0  0  0  0
   -6.4520   16.4610  -33.1480 C   0  0  0  0  0  0  0  0  0  0  0  0
   -6.3490   17.9060  -33.6460 C   0  0  0  0  0  0  0  0  0  0  0  0
   -9.5469   21.3151  -30.2437 H   0  0  0  0  0  0  0  0  0  0  0  0
   -9.7641   22.1901  -31.7974 H   0  0  0  0  0  0  0  0  0  0  0  0
   -9.1811   20.4911  -31.7974 H   0  0  0  0  0  0  0  0  0  0  0  0
   -8.2042   23.5260  -29.7818 H   0  0  0  0  0  0  0  0  0  0  0  0
   -5.8707   24.3830  -29.6652 H   0  0  0  0  0  0  0  0  0  0  0  0
   -4.7212   24.4390  -28.8125 H   0  0  0  0  0  0  0  0  0  0  0  0
   -3.5595   24.6656  -26.6245 H   0  0  0  0  0  0  0  0  0  0  0  0
    0.0303   22.9798  -28.3533 H   0  0  0  0  0  0  0  0  0  0  0  0
   -2.8900   21.8000  -32.2940 H   0  0  0  0  0  0  0  0  0  0  0  0
   -3.8697   20.5986  -34.1317 H   0  0  0  0  0  0  0  0  0  0  0  0
   -4.2861   18.4377  -35.2991 H   0  0  0  0  0  0  0  0  0  0  0  0
   -3.9118   16.1515  -35.5426 H   0  0  0  0  0  0  0  0  0  0  0  0
   -2.2336   15.6277  -35.1504 H   0  0  0  0  0  0  0  0  0  0  0  0
   -4.0070   15.5570  -33.0340 H   0  0  0  0  0  0  0  0  0  0  0  0
   -1.4946   16.4629  -32.6417 H   0  0  0  0  0  0  0  0  0  0  0  0
   -1.0718   18.6276  -31.4757 H   0  0  0  0  0  0  0  0  0  0  0  0
   -4.5911   21.2927  -32.4109 H   0  0  0  0  0  0  0  0  0  0  0  0
   -4.9113   18.7992  -31.2411 H   0  0  0  0  0  0  0  0  0  0  0  0
   -6.5031   19.0949  -30.4505 H   0  0  0  0  0  0  0  0  0  0  0  0
   -5.5381   16.7875  -30.0352 H   0  0  0  0  0  0  0  0  0  0  0  0
   -7.1788   16.7989  -30.7924 H   0  0  0  0  0  0  0  0  0  0  0  0
   -6.1367   15.7792  -33.9516 H   0  0  0  0  0  0  0  0  0  0  0  0
   -7.4951   16.2598  -32.8627 H   0  0  0  0  0  0  0  0  0  0  0  0
   -5.3472   18.0733  -34.0683 H   0  0  0  0  0  0  0  0  0  0  0  0
   -7.1164   18.0737  -34.4160 H   0  0  0  0  0  0  0  0  0  0  0  0
  1  2  1  0
  2  3  2  0
  3  4  1  0
  4  5  2  0
  5  6  1  0
  6  7  1  0
  7  8  2  0
  8  9  1  0
  9 10  2  0
 10 11  1  0
 11 12  1  0
 11 13  1  0
 11 14  1  0
 10 15  1  0
 15 16  2  0
 16 17  1  0
 17 18  1  0
 18 19  2  0
 18 20  1  0
 20 21  1  0
 21 22  2  0
 22 23  1  0
 23 24  2  0
 24 25  1  0
 25 26  1  0
 24 27  1  0
 27 28  2  0
  5 29  1  0
 29 30  2  0
 30 31  1  0
 31 32  2  0
 31 33  1  0
 33 34  1  0
 34 35  1  0
 35 36  1  0
 36 37  1  0
 37 38  1  0
 30  2  1  0
 38 33  1  0
 16  7  1  0
 28 21  1  0
  1 39  1  0
  1 40  1  0
  1 41  1  0
  3 42  1  0
  4 43  1  0
  8 44  1  0
  9 45  1  0
 15 46  1  0
 20 47  1  0
 22 48  1  0
 23 49  1  0
 25 50  1  0
 25 51  1  0
 26 52  1  0
 27 53  1  0
 28 54  1  0
 29 55  1  0
 34 56  1  0
 34 57  1  0
 35 58  1  0
 35 59  1  0
 37 60  1  0
 37 61  1  0
 38 62  1  0
 38 63  1  0
M  CHG  1  17  -1
M  END
>  <UniqueID>  (37) 
36

>  <SMILES>  (37) 
Cc1ccc(Oc2ccc(C(F)(F)F)cc2[N-]C(=O)Nc2ccc(CO)cc2)cc1C(=O)N1CCOCC1

>  <Energy>  (37) 
88.85081444667817

>  <Genealogy>  (37) 
Cc1ccc(Oc2ccc(C(F)(F)F)cc2[N-]C(=O)Nc2ccc(CO)cc2)cc1C(=O)N1CCOCC1 (protonated)
Cc1ccc(Oc2ccc(C(F)(F)F)cc2[N-]C(=O)Nc2ccc(CO)cc2)cc1C(=O)N1CCOCC1 (3D coordinates assigned)
Cc1ccc(Oc2ccc(C(F)(F)F)cc2[N-]C(=O)Nc2ccc(CO)cc2)cc1C(=O)N1CCOCC1 (nonaromatic ring conformer: 88.85081444667817 kcal/mol)

>  <smiles>  (37) 
Cc1ccc(Oc2ccc(C(F)(F)F)cc2NC(=O)Nc2ccc(CO)cc2)cc1C(=O)N1CCOCC1

>  <score_type>  (37) 
oracle

>  <origin>  (37) 
adgpu

>  <m_score__min__energy>  (37) 
-11.140000000000001

>  <m_primary>  (37) 
energy

$$$$
37:0
     RDKit          3D

 38 40  0  0  0  0  0  0  0  0999 V2000
   -1.4720   22.3140  -30.9910 C   0  0  0  0  0  0  0  0  0  0  0  0
   -1.5470   22.4800  -29.4960 C   0  0  0  0  0  0  0  0  0  0  0  0
   -1.1540   21.4090  -28.6770 C   0  0  0  0  0  0  0  0  0  0  0  0
   -1.1590   21.5390  -27.2870 C   0  0  0  0  0  0  0  0  0  0  0  0
   -1.5540   22.7410  -26.7000 C   0  0  0  0  0  0  0  0  0  0  0  0
   -1.9670   23.8120  -27.4970 C   0  0  0  0  0  0  0  0  0  0  0  0
   -2.4760   25.3050  -26.7200 Cl  0  0  0  0  0  0  0  0  0  0  0  0
   -1.9990   23.6820  -28.8970 C   0  0  0  0  0  0  0  0  0  0  0  0
   -2.4450   24.7940  -29.6850 N   0  0  0  0  0  0  0  0  0  0  0  0
   -3.6480   24.7960  -30.4570 C   0  0  0  0  0  0  0  0  0  0  0  0
   -4.3370   25.8470  -30.5550 O   0  0  0  0  0  0  0  0  0  0  0  0
   -4.0140   23.6150  -31.1790 N   0  0  0  0  0  0  0  0  0  0  0  0
   -5.3510   23.1460  -31.4190 C   0  0  0  0  0  0  0  0  0  0  0  0
   -6.4630   23.9020  -31.0140 C   0  0  0  0  0  0  0  0  0  0  0  0
   -7.7550   23.4180  -31.2070 C   0  0  0  0  0  0  0  0  0  0  0  0
   -7.9580   22.1650  -31.7830 C   0  0  0  0  0  0  0  0  0  0  0  0
   -6.8630   21.3680  -32.1690 C   0  0  0  0  0  0  0  0  0  0  0  0
   -5.5500   21.8750  -32.0030 C   0  0  0  0  0  0  0  0  0  0  0  0
   -4.3610   21.0060  -32.3630 C   0  0  0  0  0  0  0  0  0  0  0  0
   -4.6870   20.0740  -33.4350 N   0  0  0  0  0  0  0  0  0  0  0  0
   -5.9880   19.5030  -33.5350 C   0  0  0  0  0  0  0  0  0  0  0  0
   -6.1860   18.5400  -34.3230 O   0  0  0  0  0  0  0  0  0  0  0  0
   -7.0630   20.0640  -32.7660 N   0  0  0  0  0  0  0  0  0  0  0  0
   -8.3560   19.3720  -32.6980 C   0  0  0  0  0  0  0  0  0  0  0  0
   -1.0299   21.3354  -31.2295 H   0  0  0  0  0  0  0  0  0  0  0  0
   -2.4842   22.3729  -31.4177 H   0  0  0  0  0  0  0  0  0  0  0  0
   -0.8472   23.1125  -31.4177 H   0  0  0  0  0  0  0  0  0  0  0  0
   -0.8395   20.4595  -29.1347 H   0  0  0  0  0  0  0  0  0  0  0  0
   -0.8513   20.6932  -26.6545 H   0  0  0  0  0  0  0  0  0  0  0  0
   -1.5404   22.8464  -25.6051 H   0  0  0  0  0  0  0  0  0  0  0  0
   -6.3128   24.8836  -30.5409 H   0  0  0  0  0  0  0  0  0  0  0  0
   -8.6190   24.0274  -30.9034 H   0  0  0  0  0  0  0  0  0  0  0  0
   -8.9825   21.7955  -31.9374 H   0  0  0  0  0  0  0  0  0  0  0  0
   -3.5323   21.6513  -32.6898 H   0  0  0  0  0  0  0  0  0  0  0  0
   -4.0764   20.4242  -31.4739 H   0  0  0  0  0  0  0  0  0  0  0  0
   -8.6366   19.2218  -31.6450 H   0  0  0  0  0  0  0  0  0  0  0  0
   -9.1239   19.9797  -33.1990 H   0  0  0  0  0  0  0  0  0  0  0  0
   -8.2763   18.3960  -33.1990 H   0  0  0  0  0  0  0  0  0  0  0  0
  1  2  1  0
  2  3  2  0
  3  4  1  0
  4  5  2  0
  5  6  1  0
  6  7  1  0
  6  8  2  0
  8  9  1  0
  9 10  1  0
 10 11  2  0
 10 12  1  0
 12 13  1  0
 13 14  2  0
 14 15  1  0
 15 16  2  0
 16 17  1  0
 17 18  2  0
 18 19  1  0
 19 20  1  0
 20 21  1  0
 21 22  2  0
 21 23  1  0
 23 24  1  0
  8  2  1  0
 18 13  1  0
 23 17  1  0
  1 25  1  0
  1 26  1  0
  1 27  1  0
  3 28  1  0
  4 29  1  0
  5 30  1  0
 14 31  1  0
 15 32  1  0
 16 33  1  0
 19 34  1  0
 19 35  1  0
 24 36  1  0
 24 37  1  0
 24 38  1  0
M  CHG  3   9  -1  12  -1  20  -1
M  END
>  <UniqueID>  (38) 
37

>  <SMILES>  (38) 
Cc1cccc(Cl)c1[N-]C(=O)[N-]c1cccc2c1C[N-]C(=O)N2C

>  <Energy>  (38) 
55.64467746672206

>  <Genealogy>  (38) 
Cc1cccc(Cl)c1[N-]C(=O)[N-]c1cccc2c1C[N-]C(=O)N2C (protonated)
Cc1cccc(Cl)c1[N-]C(=O)[N-]c1cccc2c1C[N-]C(=O)N2C (3D coordinates assigned)
Cc1cccc(Cl)c1[N-]C(=O)[N-]c1cccc2c1C[N-]C(=O)N2C (nonaromatic ring conformer: 55.64467746672206 kcal/mol)

>  <smiles>  (38) 
Cc1cccc(Cl)c1NC(=O)Nc1cccc2c1CNC(=O)N2C

>  <score_type>  (38) 
oracle

>  <origin>  (38) 
adgpu

>  <m_score__min__energy>  (38) 
-10.94

>  <m_primary>  (38) 
energy

$$$$
38:0
     RDKit          3D

 63 66  0  0  0  0  0  0  0  0999 V2000
   -2.2900   19.6780  -26.3690 C   0  0  0  0  0  0  0  0  0  0  0  0
   -1.8630   20.3140  -27.6570 C   0  0  0  0  0  0  0  0  0  0  0  0
   -2.1180   21.6750  -27.8910 C   0  0  0  0  0  0  0  0  0  0  0  0
   -1.7430   22.2690  -29.1050 C   0  0  0  0  0  0  0  0  0  0  0  0
   -1.9680   23.7320  -29.3410 C   0  0  0  0  0  0  0  0  0  0  0  0
   -1.0940   21.4990  -30.0800 C   0  0  0  0  0  0  0  0  0  0  0  0
   -0.8550   20.1350  -29.8640 C   0  0  0  0  0  0  0  0  0  0  0  0
   -0.0380   19.1920  -31.1070 S   0  0  0  0  0  0  0  0  0  0  0  0
   -0.8080   17.9290  -31.3710 O   0  0  0  0  0  0  0  0  0  0  0  0
    1.3270   18.8190  -30.5990 O   0  0  0  0  0  0  0  0  0  0  0  0
    0.1080   20.0810  -32.6340 C   0  0  0  0  0  0  0  0  0  0  0  0
    1.3780   20.2170  -33.2180 C   0  0  0  0  0  0  0  0  0  0  0  0
    1.5250   20.8150  -34.4710 C   0  0  0  0  0  0  0  0  0  0  0  0
    0.4040   21.2780  -35.1610 C   0  0  0  0  0  0  0  0  0  0  0  0
   -0.8640   21.1620  -34.5910 C   0  0  0  0  0  0  0  0  0  0  0  0
   -1.0260   20.5830  -33.3200 C   0  0  0  0  0  0  0  0  0  0  0  0
   -2.3720   20.5680  -32.7280 C   0  0  0  0  0  0  0  0  0  0  0  0
   -2.8360   19.4960  -32.2580 O   0  0  0  0  0  0  0  0  0  0  0  0
   -3.1870   21.7420  -32.8150 N   0  0  0  0  0  0  0  0  0  0  0  0
   -4.5080   21.9040  -32.2860 C   0  0  0  0  0  0  0  0  0  0  0  0
   -4.8800   23.0430  -31.5530 C   0  0  0  0  0  0  0  0  0  0  0  0
   -6.1700   23.1450  -31.0240 C   0  0  0  0  0  0  0  0  0  0  0  0
   -6.6300   24.5650  -30.1030 Cl  0  0  0  0  0  0  0  0  0  0  0  0
   -7.0930   22.1130  -31.2220 C   0  0  0  0  0  0  0  0  0  0  0  0
   -6.7440   20.9910  -31.9860 C   0  0  0  0  0  0  0  0  0  0  0  0
   -7.9000   19.6750  -32.2250 S   0  0  0  0  0  0  0  0  0  0  0  0
   -8.6470   19.4360  -30.9400 O   0  0  0  0  0  0  0  0  0  0  0  0
   -8.9020   20.0860  -33.2690 O   0  0  0  0  0  0  0  0  0  0  0  0
   -7.1170   18.1880  -32.7050 N   0  0  0  0  0  0  0  0  0  0  0  0
   -6.2000   17.7380  -31.6320 C   0  0  0  0  0  0  0  0  0  0  0  0
   -5.3180   16.5780  -32.1100 C   0  0  0  0  0  0  0  0  0  0  0  0
   -4.4590   16.9760  -33.3280 C   0  0  0  0  0  0  0  0  0  0  0  0
   -4.9450   18.2680  -34.0030 C   0  0  0  0  0  0  0  0  0  0  0  0
   -6.4800   18.3090  -34.0480 C   0  0  0  0  0  0  0  0  0  0  0  0
   -5.4560   20.9050  -32.5330 C   0  0  0  0  0  0  0  0  0  0  0  0
   -1.2590   19.5400  -28.6600 C   0  0  0  0  0  0  0  0  0  0  0  0
   -1.8976   20.2624  -25.5237 H   0  0  0  0  0  0  0  0  0  0  0  0
   -3.3886   19.6530  -26.3189 H   0  0  0  0  0  0  0  0  0  0  0  0
   -1.8972   18.6517  -26.3189 H   0  0  0  0  0  0  0  0  0  0  0  0
   -2.6149   22.2789  -27.1175 H   0  0  0  0  0  0  0  0  0  0  0  0
   -2.0479   24.2513  -28.3746 H   0  0  0  0  0  0  0  0  0  0  0  0
   -1.1229   24.1457  -29.9108 H   0  0  0  0  0  0  0  0  0  0  0  0
   -2.8983   23.8727  -29.9108 H   0  0  0  0  0  0  0  0  0  0  0  0
   -0.7702   21.9683  -31.0207 H   0  0  0  0  0  0  0  0  0  0  0  0
    2.2657   19.8487  -32.6829 H   0  0  0  0  0  0  0  0  0  0  0  0
    2.5258   20.9213  -34.9149 H   0  0  0  0  0  0  0  0  0  0  0  0
    0.5202   21.7347  -36.1549 H   0  0  0  0  0  0  0  0  0  0  0  0
   -1.7444   21.5266  -35.1405 H   0  0  0  0  0  0  0  0  0  0  0  0
   -4.1555   23.8555  -31.3951 H   0  0  0  0  0  0  0  0  0  0  0  0
   -8.0964   22.1822  -30.7765 H   0  0  0  0  0  0  0  0  0  0  0  0
   -7.8800   17.4750  -32.7820 H   0  0  0  0  0  0  0  0  0  0  0  0
   -5.5568   18.5788  -31.3330 H   0  0  0  0  0  0  0  0  0  0  0  0
   -6.8029   17.3905  -30.7801 H   0  0  0  0  0  0  0  0  0  0  0  0
   -4.6522   16.2749  -31.2885 H   0  0  0  0  0  0  0  0  0  0  0  0
   -5.9760   15.7497  -32.4115 H   0  0  0  0  0  0  0  0  0  0  0  0
   -3.4215   17.1232  -32.9933 H   0  0  0  0  0  0  0  0  0  0  0  0
   -4.5382   16.1659  -34.0679 H   0  0  0  0  0  0  0  0  0  0  0  0
   -4.5766   19.1341  -33.4337 H   0  0  0  0  0  0  0  0  0  0  0  0
   -4.5587   18.2977  -35.0325 H   0  0  0  0  0  0  0  0  0  0  0  0
   -6.7900   19.2647  -34.4957 H   0  0  0  0  0  0  0  0  0  0  0  0
   -6.8099   17.4441  -34.6422 H   0  0  0  0  0  0  0  0  0  0  0  0
   -5.1881   20.0437  -33.1626 H   0  0  0  0  0  0  0  0  0  0  0  0
   -1.1019   18.4629  -28.5012 H   0  0  0  0  0  0  0  0  0  0  0  0
  1  2  1  0
  2  3  2  0
  3  4  1  0
  4  5  1  0
  4  6  2  0
  6  7  1  0
  7  8  1  0
  8  9  2  0
  8 10  2  0
  8 11  1  0
 11 12  2  0
 12 13  1  0
 13 14  2  0
 14 15  1  0
 15 16  2  0
 16 17  1  0
 17 18  2  0
 17 19  1  0
 19 20  1  0
 20 21  2  0
 21 22  1  0
 22 23  1  0
 22 24  2  0
 24 25  1  0
 25 26  1  0
 26 27  2  0
 26 28  2  0
 26 29  1  0
 29 30  1  0
 30 31  1  0
 31 32  1  0
 32 33  1  0
 33 34  1  0
 25 35  2  0
  7 36  2  0
 36  2  1  0
 16 11  1  0
 35 20  1  0
 34 29  1  0
  1 37  1  0
  1 38  1  0
  1 39  1  0
  3 40  1  0
  5 41  1  0
  5 42  1  0
  5 43  1  0
  6 44  1  0
 12 45  1  0
 13 46  1  0
 14 47  1  0
 15 48  1  0
 21 49  1  0
 24 50  1  0
 29 51  1  0
 30 52  1  0
 30 53  1  0
 31 54  1  0
 31 55  1  0
 32 56  1  0
 32 57  1  0
 33 58  1  0
 33 59  1  0
 34 60  1  0
 34 61  1  0
 35 62  1  0
 36 63  1  0
M  CHG  2  19  -1  29   1
M  END
>  <UniqueID>  (39) 
38

>  <SMILES>  (39) 
Cc1cc(C)cc(S(=O)(=O)c2ccccc2C(=O)[N-]c2cc(Cl)cc(S(=O)(=O)[NH+]3CCCCC3)c2)c1

>  <Energy>  (39) 
75.56668809745808

>  <Genealogy>  (39) 
Cc1cc(C)cc(S(=O)(=O)c2ccccc2C(=O)[N-]c2cc(Cl)cc(S(=O)(=O)[NH+]3CCCCC3)c2)c1 (protonated)
Cc1cc(C)cc(S(=O)(=O)c2ccccc2C(=O)[N-]c2cc(Cl)cc(S(=O)(=O)[NH+]3CCCCC3)c2)c1 (3D coordinates assigned)
Cc1cc(C)cc(S(=O)(=O)c2ccccc2C(=O)[N-]c2cc(Cl)cc(S(=O)(=O)[NH+]3CCCCC3)c2)c1 (nonaromatic ring conformer: 75.56668809745808 kcal/mol)

>  <smiles>  (39) 
Cc1cc(C)cc(S(=O)(=O)c2ccccc2C(=O)Nc2cc(Cl)cc(S(=O)(=O)N3CCCCC3)c2)c1

>  <score_type>  (39) 
oracle

>  <origin>  (39) 
adgpu

>  <m_score__min__energy>  (39) 
-12.01

>  <m_primary>  (39) 
energy

$$$$
39:0
     RDKit          3D

 50 53  0  0  0  0  0  0  0  0999 V2000
   -5.4160   22.5980  -32.8180 O   0  0  0  0  0  0  0  0  0  0  0  0
   -5.4920   22.5690  -31.5590 C   0  0  0  0  0  0  0  0  0  0  0  0
   -6.4460   21.7090  -30.9120 N   0  0  0  0  0  0  0  0  0  0  0  0
   -7.0870   20.5960  -31.5590 C   0  0  0  0  0  0  0  0  0  0  0  0
   -8.4590   20.3800  -31.3560 C   0  0  0  0  0  0  0  0  0  0  0  0
   -9.0990   19.2900  -31.9510 C   0  0  0  0  0  0  0  0  0  0  0  0
   -8.3740   18.3990  -32.7460 C   0  0  0  0  0  0  0  0  0  0  0  0
   -7.0020   18.5940  -32.9480 C   0  0  0  0  0  0  0  0  0  0  0  0
   -6.0830   17.4380  -33.9110 S   0  0  0  0  0  0  0  0  0  0  0  0
   -6.6810   16.0710  -33.7240 O   0  0  0  0  0  0  0  0  0  0  0  0
   -6.1740   17.8040  -35.3680 O   0  0  0  0  0  0  0  0  0  0  0  0
   -4.4160   17.4260  -33.3940 N   0  0  0  0  0  0  0  0  0  0  0  0
   -3.7360   18.6520  -33.8660 C   0  0  0  0  0  0  0  0  0  0  0  0
   -2.1980   18.5600  -33.7510 C   0  0  0  0  0  0  0  0  0  0  0  0
   -1.7690   17.4270  -32.8150 C   0  0  0  0  0  0  0  0  0  0  0  0
   -2.3440   16.0790  -33.2820 C   0  0  0  0  0  0  0  0  0  0  0  0
   -3.7440   16.2210  -33.9080 C   0  0  0  0  0  0  0  0  0  0  0  0
   -6.3580   19.6840  -32.3440 C   0  0  0  0  0  0  0  0  0  0  0  0
   -4.6200   23.4570  -30.7720 C   0  0  0  0  0  0  0  0  0  0  0  0
   -3.7990   23.0930  -29.7240 C   0  0  0  0  0  0  0  0  0  0  0  0
   -3.1910   24.2790  -29.3420 C   0  0  0  0  0  0  0  0  0  0  0  0
   -2.1970   24.4600  -28.2490 C   0  0  0  0  0  0  0  0  0  0  0  0
   -2.1740   23.5700  -27.1540 C   0  0  0  0  0  0  0  0  0  0  0  0
   -1.2410   23.7290  -26.1260 C   0  0  0  0  0  0  0  0  0  0  0  0
   -0.3180   24.7740  -26.1720 C   0  0  0  0  0  0  0  0  0  0  0  0
   -0.3260   25.6630  -27.2470 C   0  0  0  0  0  0  0  0  0  0  0  0
   -1.2570   25.5150  -28.2820 C   0  0  0  0  0  0  0  0  0  0  0  0
   -1.2360   26.4290  -29.3300 O   0  0  0  0  0  0  0  0  0  0  0  0
   -3.6370   25.2760  -30.1330 N   0  0  0  0  0  0  0  0  0  0  0  0
   -4.5010   24.7780  -31.0030 N   0  0  0  0  0  0  0  0  0  0  0  0
   -6.7650   21.9630  -29.9510 H   0  0  0  0  0  0  0  0  0  0  0  0
   -9.0339   21.0733  -30.7245 H   0  0  0  0  0  0  0  0  0  0  0  0
  -10.1762   19.1330  -31.7931 H   0  0  0  0  0  0  0  0  0  0  0  0
   -8.8817   17.5428  -33.2141 H   0  0  0  0  0  0  0  0  0  0  0  0
   -4.0011   18.8182  -34.9206 H   0  0  0  0  0  0  0  0  0  0  0  0
   -4.0686   19.4841  -33.2281 H   0  0  0  0  0  0  0  0  0  0  0  0
   -1.7758   18.3767  -34.7501 H   0  0  0  0  0  0  0  0  0  0  0  0
   -1.8270   19.5084  -33.3353 H   0  0  0  0  0  0  0  0  0  0  0  0
   -0.6708   17.3654  -32.8045 H   0  0  0  0  0  0  0  0  0  0  0  0
   -2.1525   17.6412  -31.8065 H   0  0  0  0  0  0  0  0  0  0  0  0
   -1.6647   15.6461  -34.0311 H   0  0  0  0  0  0  0  0  0  0  0  0
   -2.4369   15.4307  -32.3982 H   0  0  0  0  0  0  0  0  0  0  0  0
   -3.6462   16.2988  -35.0009 H   0  0  0  0  0  0  0  0  0  0  0  0
   -4.3442   15.3377  -33.6442 H   0  0  0  0  0  0  0  0  0  0  0  0
   -5.2764   19.8266  -32.4850 H   0  0  0  0  0  0  0  0  0  0  0  0
   -3.6591   22.0915  -29.2911 H   0  0  0  0  0  0  0  0  0  0  0  0
   -2.8978   22.7429  -27.1093 H   0  0  0  0  0  0  0  0  0  0  0  0
   -1.2343   23.0282  -25.2781 H   0  0  0  0  0  0  0  0  0  0  0  0
    0.4154   24.8969  -25.3614 H   0  0  0  0  0  0  0  0  0  0  0  0
    0.4037   26.4854  -27.2817 H   0  0  0  0  0  0  0  0  0  0  0  0
  1  2  2  0
  2  3  1  0
  3  4  1  0
  4  5  2  0
  5  6  1  0
  6  7  2  0
  7  8  1  0
  8  9  1  0
  9 10  2  0
  9 11  2  0
  9 12  1  0
 12 13  1  0
 13 14  1  0
 14 15  1  0
 15 16  1  0
 16 17  1  0
  8 18  2  0
  2 19  1  0
 19 20  1  0
 20 21  2  0
 21 22  1  0
 22 23  2  0
 23 24  1  0
 24 25  2  0
 25 26  1  0
 26 27  2  0
 27 28  1  0
 21 29  1  0
 29 30  1  0
 18  4  1  0
 30 19  2  0
 17 12  1  0
 27 22  1  0
  3 31  1  0
  5 32  1  0
  6 33  1  0
  7 34  1  0
 13 35  1  0
 13 36  1  0
 14 37  1  0
 14 38  1  0
 15 39  1  0
 15 40  1  0
 16 41  1  0
 16 42  1  0
 17 43  1  0
 17 44  1  0
 18 45  1  0
 20 46  1  0
 23 47  1  0
 24 48  1  0
 25 49  1  0
 26 50  1  0
M  CHG  2  28  -1  29  -1
M  END
>  <UniqueID>  (40) 
39

>  <SMILES>  (40) 
O=C(Nc1cccc(S(=O)(=O)N2CCCCC2)c1)c1cc(-c2ccccc2[O-])[n-]n1

>  <Energy>  (40) 
91.47056663587605

>  <Genealogy>  (40) 
O=C(Nc1cccc(S(=O)(=O)N2CCCCC2)c1)c1cc(-c2ccccc2[O-])[n-]n1 (protonated)
O=C(Nc1cccc(S(=O)(=O)N2CCCCC2)c1)c1cc(-c2ccccc2[O-])[n-]n1 (3D coordinates assigned)
O=C(Nc1cccc(S(=O)(=O)N2CCCCC2)c1)c1cc(-c2ccccc2[O-])[n-]n1 (nonaromatic ring conformer: 91.47056663587605 kcal/mol)

>  <smiles>  (40) 
O=C(Nc1cccc(S(=O)(=O)N2CCCCC2)c1)c1cc(-c2ccccc2O)[nH]n1

>  <score_type>  (40) 
oracle

>  <origin>  (40) 
adgpu

>  <m_score__min__energy>  (40) 
-14.81

>  <m_primary>  (40) 
energy

$$$$
40:0
     RDKit          3D

 42 44  0  0  0  0  0  0  0  0999 V2000
   -4.0470   25.0100  -30.6750 O   0  0  0  0  0  0  0  0  0  0  0  0
   -3.4800   23.8840  -30.6360 C   0  0  0  0  0  0  0  0  0  0  0  0
   -3.6830   22.9490  -31.7040 N   0  0  0  0  0  0  0  0  0  0  0  0
   -4.8690   22.1810  -31.9570 C   0  0  0  0  0  0  0  0  0  0  0  0
   -4.8230   20.8040  -32.2310 C   0  0  0  0  0  0  0  0  0  0  0  0
   -6.0040   20.0900  -32.4470 C   0  0  0  0  0  0  0  0  0  0  0  0
   -7.2450   20.7320  -32.3790 C   0  0  0  0  0  0  0  0  0  0  0  0
   -8.4010   19.9840  -32.6040 O   0  0  0  0  0  0  0  0  0  0  0  0
   -7.2990   22.1080  -32.0810 C   0  0  0  0  0  0  0  0  0  0  0  0
   -8.8300   22.9660  -31.9680 Cl  0  0  0  0  0  0  0  0  0  0  0  0
   -6.1130   22.8190  -31.8640 C   0  0  0  0  0  0  0  0  0  0  0  0
   -2.6590   23.5150  -29.4500 C   0  0  0  0  0  0  0  0  0  0  0  0
   -2.7780   22.2220  -28.9030 C   0  0  0  0  0  0  0  0  0  0  0  0
   -2.0180   21.8390  -27.7890 C   0  0  0  0  0  0  0  0  0  0  0  0
   -2.1520   20.2080  -27.1320 S   0  0  0  0  0  0  0  0  0  0  0  0
   -3.5980   19.7960  -27.0750 O   0  0  0  0  0  0  0  0  0  0  0  0
   -1.5970   20.2020  -25.7350 O   0  0  0  0  0  0  0  0  0  0  0  0
   -1.2500   19.0890  -28.1260 N   0  0  0  0  0  0  0  0  0  0  0  0
   -0.4980   18.1510  -27.2710 C   0  0  0  0  0  0  0  0  0  0  0  0
    0.6650   17.5190  -28.0540 C   0  0  0  0  0  0  0  0  0  0  0  0
    1.6090   18.4580  -28.5560 O   0  0  0  0  0  0  0  0  0  0  0  0
    1.0940   19.7750  -28.6850 C   0  0  0  0  0  0  0  0  0  0  0  0
   -0.3900   19.8080  -29.0920 C   0  0  0  0  0  0  0  0  0  0  0  0
   -1.1220   22.7450  -27.2170 C   0  0  0  0  0  0  0  0  0  0  0  0
   -0.9960   24.0310  -27.7430 C   0  0  0  0  0  0  0  0  0  0  0  0
   -1.7560   24.4230  -28.8490 C   0  0  0  0  0  0  0  0  0  0  0  0
   -1.6040   25.7200  -29.3300 O   0  0  0  0  0  0  0  0  0  0  0  0
   -3.8535   20.2862  -32.2756 H   0  0  0  0  0  0  0  0  0  0  0  0
   -5.9578   19.0143  -32.6724 H   0  0  0  0  0  0  0  0  0  0  0  0
   -9.3220   20.3990  -32.6550 H   0  0  0  0  0  0  0  0  0  0  0  0
   -6.1581   23.8901  -31.6178 H   0  0  0  0  0  0  0  0  0  0  0  0
   -3.4767   21.5034  -29.3562 H   0  0  0  0  0  0  0  0  0  0  0  0
   -0.0964   18.6951  -26.4034 H   0  0  0  0  0  0  0  0  0  0  0  0
   -1.1770   17.3522  -26.9379 H   0  0  0  0  0  0  0  0  0  0  0  0
    1.1929   16.8230  -27.3855 H   0  0  0  0  0  0  0  0  0  0  0  0
    0.2224   17.0181  -28.9276 H   0  0  0  0  0  0  0  0  0  0  0  0
    1.2032   20.2894  -27.7188 H   0  0  0  0  0  0  0  0  0  0  0  0
    1.6635   20.2721  -29.4841 H   0  0  0  0  0  0  0  0  0  0  0  0
   -0.7190   20.8562  -29.1476 H   0  0  0  0  0  0  0  0  0  0  0  0
   -0.4844   19.3069  -30.0667 H   0  0  0  0  0  0  0  0  0  0  0  0
   -0.5148   22.4441  -26.3505 H   0  0  0  0  0  0  0  0  0  0  0  0
   -0.2933   24.7420  -27.2840 H   0  0  0  0  0  0  0  0  0  0  0  0
  1  2  2  0
  2  3  1  0
  3  4  1  0
  4  5  2  0
  5  6  1  0
  6  7  2  0
  7  8  1  0
  7  9  1  0
  9 10  1  0
  9 11  2  0
  2 12  1  0
 12 13  2  0
 13 14  1  0
 14 15  1  0
 15 16  2  0
 15 17  2  0
 15 18  1  0
 18 19  1  0
 19 20  1  0
 20 21  1  0
 21 22  1  0
 22 23  1  0
 14 24  2  0
 24 25  1  0
 25 26  2  0
 26 27  1  0
 11  4  1  0
 26 12  1  0
 23 18  1  0
  5 28  1  0
  6 29  1  0
  8 30  1  0
 11 31  1  0
 13 32  1  0
 19 33  1  0
 19 34  1  0
 20 35  1  0
 20 36  1  0
 22 37  1  0
 22 38  1  0
 23 39  1  0
 23 40  1  0
 24 41  1  0
 25 42  1  0
M  CHG  2   3  -1  27  -1
M  END
>  <UniqueID>  (41) 
40

>  <SMILES>  (41) 
O=C([N-]c1ccc(O)c(Cl)c1)c1cc(S(=O)(=O)N2CCOCC2)ccc1[O-]

>  <Energy>  (41) 
63.089703953780905

>  <Genealogy>  (41) 
O=C([N-]c1ccc(O)c(Cl)c1)c1cc(S(=O)(=O)N2CCOCC2)ccc1[O-] (protonated)
O=C([N-]c1ccc(O)c(Cl)c1)c1cc(S(=O)(=O)N2CCOCC2)ccc1[O-] (3D coordinates assigned)
O=C([N-]c1ccc(O)c(Cl)c1)c1cc(S(=O)(=O)N2CCOCC2)ccc1[O-] (nonaromatic ring conformer: 63.089703953780905 kcal/mol)

>  <smiles>  (41) 
O=C(Nc1ccc(O)c(Cl)c1)c1cc(S(=O)(=O)N2CCOCC2)ccc1O

>  <score_type>  (41) 
oracle

>  <origin>  (41) 
adgpu

>  <m_score__min__energy>  (41) 
-12.6

>  <m_primary>  (41) 
energy

$$$$
41:0
     RDKit          3D

 73 77  0  0  0  0  0  0  0  0999 V2000
   -4.1140   16.3940  -34.0140 C   0  0  0  0  0  0  0  0  0  0  0  0
   -3.4140   17.7050  -33.8150 C   0  0  0  0  0  0  0  0  0  0  0  0
   -3.8650   18.7690  -33.0540 C   0  0  0  0  0  0  0  0  0  0  0  0
   -5.0710   18.8480  -32.2990 N   0  0  0  0  0  0  0  0  0  0  0  0
   -6.5640   19.2710  -33.0620 S   0  0  0  0  0  0  0  0  0  0  0  0
   -6.3870   19.2500  -34.5540 O   0  0  0  0  0  0  0  0  0  0  0  0
   -7.6140   18.2650  -32.6870 O   0  0  0  0  0  0  0  0  0  0  0  0
   -7.0720   20.8650  -32.5170 C   0  0  0  0  0  0  0  0  0  0  0  0
   -8.4200   21.1320  -32.2400 C   0  0  0  0  0  0  0  0  0  0  0  0
   -8.8080   22.4010  -31.8040 C   0  0  0  0  0  0  0  0  0  0  0  0
   -7.8530   23.4070  -31.6320 C   0  0  0  0  0  0  0  0  0  0  0  0
   -6.4970   23.1440  -31.8890 C   0  0  0  0  0  0  0  0  0  0  0  0
   -5.4950   24.1580  -31.7390 N   0  0  0  0  0  0  0  0  0  0  0  0
   -4.3800   24.1010  -30.8410 C   0  0  0  0  0  0  0  0  0  0  0  0
   -3.8610   25.1800  -30.4500 O   0  0  0  0  0  0  0  0  0  0  0  0
   -3.7960   22.8400  -30.4780 N   0  0  0  0  0  0  0  0  0  0  0  0
   -2.8750   22.6550  -29.3880 C   0  0  0  0  0  0  0  0  0  0  0  0
   -2.7830   21.4320  -28.6990 C   0  0  0  0  0  0  0  0  0  0  0  0
   -1.8670   21.2780  -27.6560 C   0  0  0  0  0  0  0  0  0  0  0  0
   -1.0220   22.3320  -27.3020 C   0  0  0  0  0  0  0  0  0  0  0  0
   -1.0770   23.5430  -28.0020 C   0  0  0  0  0  0  0  0  0  0  0  0
    0.0260   24.8600  -27.5880 S   0  0  0  0  0  0  0  0  0  0  0  0
   -0.4690   26.1360  -28.2120 O   0  0  0  0  0  0  0  0  0  0  0  0
    1.3870   24.5630  -28.1540 O   0  0  0  0  0  0  0  0  0  0  0  0
    0.1540   25.0680  -25.8560 N   0  0  0  0  0  0  0  0  0  0  0  0
    0.9820   26.2510  -25.5400 C   0  0  0  0  0  0  0  0  0  0  0  0
    0.7800   26.7030  -24.0900 C   0  0  0  0  0  0  0  0  0  0  0  0
   -0.6780   27.1310  -23.8430 C   0  0  0  0  0  0  0  0  0  0  0  0
   -1.6690   26.4490  -24.8020 C   0  0  0  0  0  0  0  0  0  0  0  0
   -1.1790   25.0500  -25.2020 C   0  0  0  0  0  0  0  0  0  0  0  0
   -2.0030   23.7000  -29.0420 C   0  0  0  0  0  0  0  0  0  0  0  0
   -6.1180   21.8780  -32.3550 C   0  0  0  0  0  0  0  0  0  0  0  0
   -2.8510   19.6950  -33.0850 C   0  0  0  0  0  0  0  0  0  0  0  0
   -2.8560   20.8160  -32.5080 O   0  0  0  0  0  0  0  0  0  0  0  0
   -1.8410   19.2240  -33.8440 N   0  0  0  0  0  0  0  0  0  0  0  0
   -0.6050   19.9070  -34.1210 C   0  0  0  0  0  0  0  0  0  0  0  0
   -0.5210   20.8170  -35.1880 C   0  0  0  0  0  0  0  0  0  0  0  0
    0.6840   21.4760  -35.4560 C   0  0  0  0  0  0  0  0  0  0  0  0
    1.8070   21.2340  -34.6610 C   0  0  0  0  0  0  0  0  0  0  0  0
    1.7270   20.3370  -33.5920 C   0  0  0  0  0  0  0  0  0  0  0  0
    0.5250   19.6780  -33.3200 C   0  0  0  0  0  0  0  0  0  0  0  0
   -2.1730   18.0070  -34.2730 N   0  0  0  0  0  0  0  0  0  0  0  0
   -1.3240   17.1360  -35.0910 C   0  0  0  0  0  0  0  0  0  0  0  0
   -4.3500   15.9520  -33.0347 H   0  0  0  0  0  0  0  0  0  0  0  0
   -5.0450   16.5572  -34.5766 H   0  0  0  0  0  0  0  0  0  0  0  0
   -3.4605   15.7111  -34.5766 H   0  0  0  0  0  0  0  0  0  0  0  0
   -9.1736   20.3407  -32.3662 H   0  0  0  0  0  0  0  0  0  0  0  0
   -9.8678   22.6092  -31.5955 H   0  0  0  0  0  0  0  0  0  0  0  0
   -8.1638   24.4068  -31.2947 H   0  0  0  0  0  0  0  0  0  0  0  0
   -3.9770   22.0270  -31.1080 H   0  0  0  0  0  0  0  0  0  0  0  0
   -3.4355   20.5932  -28.9830 H   0  0  0  0  0  0  0  0  0  0  0  0
   -1.8110   20.3237  -27.1118 H   0  0  0  0  0  0  0  0  0  0  0  0
   -0.3115   22.2103  -26.4711 H   0  0  0  0  0  0  0  0  0  0  0  0
    2.0415   25.9972  -25.6915 H   0  0  0  0  0  0  0  0  0  0  0  0
    0.6790   27.0735  -26.2046 H   0  0  0  0  0  0  0  0  0  0  0  0
    1.0296   25.8705  -23.4157 H   0  0  0  0  0  0  0  0  0  0  0  0
    1.4355   27.5651  -23.8973 H   0  0  0  0  0  0  0  0  0  0  0  0
   -0.9512   26.8690  -22.8102 H   0  0  0  0  0  0  0  0  0  0  0  0
   -0.7396   28.2152  -24.0183 H   0  0  0  0  0  0  0  0  0  0  0  0
   -2.6458   26.3586  -24.3043 H   0  0  0  0  0  0  0  0  0  0  0  0
   -1.7530   27.0624  -25.7112 H   0  0  0  0  0  0  0  0  0  0  0  0
   -1.1172   24.4280  -24.2969 H   0  0  0  0  0  0  0  0  0  0  0  0
   -1.8975   24.6449  -25.9298 H   0  0  0  0  0  0  0  0  0  0  0  0
   -2.0473   24.6512  -29.5928 H   0  0  0  0  0  0  0  0  0  0  0  0
   -5.0634   21.6781  -32.5954 H   0  0  0  0  0  0  0  0  0  0  0  0
   -1.4042   21.0119  -35.8140 H   0  0  0  0  0  0  0  0  0  0  0  0
    0.7471   22.1857  -36.2940 H   0  0  0  0  0  0  0  0  0  0  0  0
    2.7545   21.7496  -34.8764 H   0  0  0  0  0  0  0  0  0  0  0  0
    2.6108   20.1497  -32.9644 H   0  0  0  0  0  0  0  0  0  0  0  0
    0.4640   18.9768  -32.4746 H   0  0  0  0  0  0  0  0  0  0  0  0
   -0.7077   16.5037  -34.4350 H   0  0  0  0  0  0  0  0  0  0  0  0
   -1.9568   16.4984  -35.7259 H   0  0  0  0  0  0  0  0  0  0  0  0
   -0.6705   17.7523  -35.7259 H   0  0  0  0  0  0  0  0  0  0  0  0
  1  2  1  0
  2  3  2  0
  3  4  1  0
  4  5  1  0
  5  6  2  0
  5  7  2  0
  5  8  1  0
  8  9  2  0
  9 10  1  0
 10 11  2  0
 11 12  1  0
 12 13  1  0
 13 14  1  0
 14 15  2  0
 14 16  1  0
 16 17  1  0
 17 18  2  0
 18 19  1  0
 19 20  2  0
 20 21  1  0
 21 22  1  0
 22 23  2  0
 22 24  2  0
 22 25  1  0
 25 26  1  0
 26 27  1  0
 27 28  1  0
 28 29  1  0
 29 30  1  0
 21 31  2  0
 12 32  2  0
  3 33  1  0
 33 34  2  0
 33 35  1  0
 35 36  1  0
 36 37  2  0
 37 38  1  0
 38 39  2  0
 39 40  1  0
 40 41  2  0
 35 42  1  0
 42 43  1  0
 42  2  1  0
 32  8  1  0
 41 36  1  0
 31 17  1  0
 30 25  1  0
  1 44  1  0
  1 45  1  0
  1 46  1  0
  9 47  1  0
 10 48  1  0
 11 49  1  0
 16 50  1  0
 18 51  1  0
 19 52  1  0
 20 53  1  0
 26 54  1  0
 26 55  1  0
 27 56  1  0
 27 57  1  0
 28 58  1  0
 28 59  1  0
 29 60  1  0
 29 61  1  0
 30 62  1  0
 30 63  1  0
 31 64  1  0
 32 65  1  0
 37 66  1  0
 38 67  1  0
 39 68  1  0
 40 69  1  0
 41 70  1  0
 43 71  1  0
 43 72  1  0
 43 73  1  0
M  CHG  2   4  -1  13  -1
M  END
>  <UniqueID>  (42) 
41

>  <SMILES>  (42) 
Cc1c([N-]S(=O)(=O)c2cccc([N-]C(=O)Nc3cccc(S(=O)(=O)N4CCCCC4)c3)c2)c(=O)n(-c2ccccc2)n1C

>  <Energy>  (42) 
139.85165332059782

>  <Genealogy>  (42) 
Cc1c([N-]S(=O)(=O)c2cccc([N-]C(=O)Nc3cccc(S(=O)(=O)N4CCCCC4)c3)c2)c(=O)n(-c2ccccc2)n1C (protonated)
Cc1c([N-]S(=O)(=O)c2cccc([N-]C(=O)Nc3cccc(S(=O)(=O)N4CCCCC4)c3)c2)c(=O)n(-c2ccccc2)n1C (3D coordinates assigned)
Cc1c([N-]S(=O)(=O)c2cccc([N-]C(=O)Nc3cccc(S(=O)(=O)N4CCCCC4)c3)c2)c(=O)n(-c2ccccc2)n1C (nonaromatic ring conformer: 139.85165332059782 kcal/mol)

>  <smiles>  (42) 
Cc1c(NS(=O)(=O)c2cccc(NC(=O)Nc3cccc(S(=O)(=O)N4CCCCC4)c3)c2)c(=O)n(-c2ccccc2)n1C

>  <score_type>  (42) 
oracle

>  <origin>  (42) 
adgpu

>  <m_score__min__energy>  (42) 
-13.640000000000001

>  <m_primary>  (42) 
energy

$$$$
42:0
     RDKit          3D

 54 57  0  0  0  0  0  0  0  0999 V2000
   -1.4000   19.7200  -32.3670 O   0  0  0  0  0  0  0  0  0  0  0  0
   -1.3340   20.0280  -31.1470 C   0  0  0  0  0  0  0  0  0  0  0  0
   -0.8540   19.0750  -30.1880 N   0  0  0  0  0  0  0  0  0  0  0  0
    0.4630   19.0060  -29.6190 C   0  0  0  0  0  0  0  0  0  0  0  0
    1.6110   19.3170  -30.3710 C   0  0  0  0  0  0  0  0  0  0  0  0
    2.8790   19.2330  -29.7910 C   0  0  0  0  0  0  0  0  0  0  0  0
    3.0170   18.8240  -28.4630 C   0  0  0  0  0  0  0  0  0  0  0  0
    1.8870   18.4870  -27.7160 C   0  0  0  0  0  0  0  0  0  0  0  0
    0.6110   18.5700  -28.2880 C   0  0  0  0  0  0  0  0  0  0  0  0
   -0.8210   18.1160  -27.3010 S   0  0  0  0  0  0  0  0  0  0  0  0
   -1.4260   19.8020  -27.2140 C   0  0  0  0  0  0  0  0  0  0  0  0
   -0.5810   20.8310  -26.7760 C   0  0  0  0  0  0  0  0  0  0  0  0
   -1.0560   22.1450  -26.7070 C   0  0  0  0  0  0  0  0  0  0  0  0
   -2.3720   22.4340  -27.0820 C   0  0  0  0  0  0  0  0  0  0  0  0
   -3.2140   21.4110  -27.5270 C   0  0  0  0  0  0  0  0  0  0  0  0
   -2.7430   20.0960  -27.5960 C   0  0  0  0  0  0  0  0  0  0  0  0
   -1.6970   21.3960  -30.7090 C   0  0  0  0  0  0  0  0  0  0  0  0
   -0.7380   22.2310  -30.1090 C   0  0  0  0  0  0  0  0  0  0  0  0
   -1.0790   23.5240  -29.7060 C   0  0  0  0  0  0  0  0  0  0  0  0
   -2.3780   24.0020  -29.8920 C   0  0  0  0  0  0  0  0  0  0  0  0
   -2.6940   25.2930  -29.4860 O   0  0  0  0  0  0  0  0  0  0  0  0
   -3.3500   23.1810  -30.4850 C   0  0  0  0  0  0  0  0  0  0  0  0
   -4.9970   23.7750  -30.7090 S   0  0  0  0  0  0  0  0  0  0  0  0
   -5.7050   23.7360  -29.3830 O   0  0  0  0  0  0  0  0  0  0  0  0
   -4.9780   25.1940  -31.2080 O   0  0  0  0  0  0  0  0  0  0  0  0
   -5.8300   22.7620  -31.8620 N   0  0  0  0  0  0  0  0  0  0  0  0
   -7.0750   23.4130  -32.3450 C   0  0  0  0  0  0  0  0  0  0  0  0
   -8.3440   22.8360  -31.7020 C   0  0  0  0  0  0  0  0  0  0  0  0
   -8.4630   21.3260  -31.9690 C   0  0  0  0  0  0  0  0  0  0  0  0
   -7.0940   20.6280  -32.0600 C   0  0  0  0  0  0  0  0  0  0  0  0
   -6.0220   21.4090  -31.2930 C   0  0  0  0  0  0  0  0  0  0  0  0
   -3.0050   21.8820  -30.8930 C   0  0  0  0  0  0  0  0  0  0  0  0
    1.5093   19.6279  -31.4212 H   0  0  0  0  0  0  0  0  0  0  0  0
    3.7708   19.4896  -30.3817 H   0  0  0  0  0  0  0  0  0  0  0  0
    4.0158   18.7674  -28.0057 H   0  0  0  0  0  0  0  0  0  0  0  0
    1.9990   18.1547  -26.6734 H   0  0  0  0  0  0  0  0  0  0  0  0
    0.4559   20.6052  -26.4864 H   0  0  0  0  0  0  0  0  0  0  0  0
   -0.3942   22.9512  -26.3577 H   0  0  0  0  0  0  0  0  0  0  0  0
   -2.7448   23.4674  -27.0267 H   0  0  0  0  0  0  0  0  0  0  0  0
   -4.2482   21.6404  -27.8233 H   0  0  0  0  0  0  0  0  0  0  0  0
   -3.4055   19.2923  -27.9499 H   0  0  0  0  0  0  0  0  0  0  0  0
    0.2874   21.8635  -29.9560 H   0  0  0  0  0  0  0  0  0  0  0  0
   -0.3202   24.1695  -29.2395 H   0  0  0  0  0  0  0  0  0  0  0  0
   -7.0217   24.4868  -32.1123 H   0  0  0  0  0  0  0  0  0  0  0  0
   -7.1428   23.2293  -33.4274 H   0  0  0  0  0  0  0  0  0  0  0  0
   -8.3059   23.0068  -30.6160 H   0  0  0  0  0  0  0  0  0  0  0  0
   -9.2180   23.3384  -32.1422 H   0  0  0  0  0  0  0  0  0  0  0  0
   -9.0374   20.8682  -31.1502 H   0  0  0  0  0  0  0  0  0  0  0  0
   -8.9652   21.1992  -32.9394 H   0  0  0  0  0  0  0  0  0  0  0  0
   -7.1770   19.6180  -31.6323 H   0  0  0  0  0  0  0  0  0  0  0  0
   -6.7982   20.5778  -33.1183 H   0  0  0  0  0  0  0  0  0  0  0  0
   -6.3312   21.5033  -30.2416 H   0  0  0  0  0  0  0  0  0  0  0  0
   -5.0712   20.8616  -31.3721 H   0  0  0  0  0  0  0  0  0  0  0  0
   -3.7644   21.2383  -31.3609 H   0  0  0  0  0  0  0  0  0  0  0  0
  1  2  2  0
  2  3  1  0
  3  4  1  0
  4  5  2  0
  5  6  1  0
  6  7  2  0
  7  8  1  0
  8  9  2  0
  9 10  1  0
 10 11  1  0
 11 12  2  0
 12 13  1  0
 13 14  2  0
 14 15  1  0
 15 16  2  0
  2 17  1  0
 17 18  2  0
 18 19  1  0
 19 20  2  0
 20 21  1  0
 20 22  1  0
 22 23  1  0
 23 24  2  0
 23 25  2  0
 23 26  1  0
 26 27  1  0
 27 28  1  0
 28 29  1  0
 29 30  1  0
 30 31  1  0
 22 32  2  0
  9  4  1  0
 16 11  1  0
 32 17  1  0
 31 26  1  0
  5 33  1  0
  6 34  1  0
  7 35  1  0
  8 36  1  0
 12 37  1  0
 13 38  1  0
 14 39  1  0
 15 40  1  0
 16 41  1  0
 18 42  1  0
 19 43  1  0
 27 44  1  0
 27 45  1  0
 28 46  1  0
 28 47  1  0
 29 48  1  0
 29 49  1  0
 30 50  1  0
 30 51  1  0
 31 52  1  0
 31 53  1  0
 32 54  1  0
M  CHG  2   3  -1  21  -1
M  END
>  <UniqueID>  (43) 
42

>  <SMILES>  (43) 
O=C([N-]c1ccccc1Sc1ccccc1)c1ccc([O-])c(S(=O)(=O)N2CCCCC2)c1

>  <Energy>  (43) 
62.868009806827885

>  <Genealogy>  (43) 
O=C([N-]c1ccccc1Sc1ccccc1)c1ccc([O-])c(S(=O)(=O)N2CCCCC2)c1 (protonated)
O=C([N-]c1ccccc1Sc1ccccc1)c1ccc([O-])c(S(=O)(=O)N2CCCCC2)c1 (3D coordinates assigned)
O=C([N-]c1ccccc1Sc1ccccc1)c1ccc([O-])c(S(=O)(=O)N2CCCCC2)c1 (nonaromatic ring conformer: 62.868009806827885 kcal/mol)

>  <smiles>  (43) 
O=C(Nc1ccccc1Sc1ccccc1)c1ccc(O)c(S(=O)(=O)N2CCCCC2)c1

>  <score_type>  (43) 
oracle

>  <origin>  (43) 
adgpu

>  <m_score__min__energy>  (43) 
-13.15

>  <m_primary>  (43) 
energy

$$$$
43:0
     RDKit          3D

 46 48  0  0  0  0  0  0  0  0999 V2000
   -4.5460   22.7870  -29.2170 O   0  0  0  0  0  0  0  0  0  0  0  0
   -4.6480   22.8300  -30.7180 S   0  0  0  0  0  0  0  0  0  0  0  0
   -4.2290   24.1950  -31.1860 O   0  0  0  0  0  0  0  0  0  0  0  0
   -6.3150   22.5360  -31.2040 C   0  0  0  0  0  0  0  0  0  0  0  0
   -7.2070   23.6090  -31.3410 C   0  0  0  0  0  0  0  0  0  0  0  0
   -8.5250   23.3790  -31.7430 C   0  0  0  0  0  0  0  0  0  0  0  0
   -8.9570   22.0780  -32.0170 C   0  0  0  0  0  0  0  0  0  0  0  0
   -8.0720   21.0000  -31.8910 C   0  0  0  0  0  0  0  0  0  0  0  0
   -8.6200   19.3580  -32.2370 S   0  0  0  0  0  0  0  0  0  0  0  0
   -8.9690   18.6750  -30.9450 O   0  0  0  0  0  0  0  0  0  0  0  0
   -9.8620   19.4180  -33.0830 O   0  0  0  0  0  0  0  0  0  0  0  0
   -7.3930   18.4330  -33.0690 N   0  0  0  0  0  0  0  0  0  0  0  0
   -6.6360   17.6060  -32.1100 C   0  0  0  0  0  0  0  0  0  0  0  0
   -5.6960   16.6260  -32.8410 C   0  0  0  0  0  0  0  0  0  0  0  0
   -5.2680   17.1370  -34.2260 C   0  0  0  0  0  0  0  0  0  0  0  0
   -5.1680   18.6640  -34.2460 C   0  0  0  0  0  0  0  0  0  0  0  0
   -6.5000   19.3340  -33.8370 C   0  0  0  0  0  0  0  0  0  0  0  0
   -6.7490   21.2340  -31.4890 C   0  0  0  0  0  0  0  0  0  0  0  0
   -3.6140   21.6240  -31.4410 N   0  0  0  0  0  0  0  0  0  0  0  0
   -2.2020   21.9310  -31.2200 C   0  0  0  0  0  0  0  0  0  0  0  0
   -1.4370   21.2960  -32.3690 C   0  0  0  0  0  0  0  0  0  0  0  0
   -2.4670   21.0770  -33.4670 C   0  0  0  0  0  0  0  0  0  0  0  0
   -3.7820   21.5810  -32.8930 C   0  0  0  0  0  0  0  0  0  0  0  0
   -6.8682   24.6343  -31.1315 H   0  0  0  0  0  0  0  0  0  0  0  0
   -9.2237   24.2226  -31.8441 H   0  0  0  0  0  0  0  0  0  0  0  0
   -9.9957   21.9004  -32.3327 H   0  0  0  0  0  0  0  0  0  0  0  0
   -7.8980   17.8020  -33.7370 H   0  0  0  0  0  0  0  0  0  0  0  0
   -6.0365   18.2638  -31.4636 H   0  0  0  0  0  0  0  0  0  0  0  0
   -7.3514   17.0226  -31.5118 H   0  0  0  0  0  0  0  0  0  0  0  0
   -4.7956   16.4776  -32.2268 H   0  0  0  0  0  0  0  0  0  0  0  0
   -6.2465   15.6853  -32.9892 H   0  0  0  0  0  0  0  0  0  0  0  0
   -4.2863   16.7098  -34.4784 H   0  0  0  0  0  0  0  0  0  0  0  0
   -6.0260   16.8280  -34.9608 H   0  0  0  0  0  0  0  0  0  0  0  0
   -4.3816   18.9782  -33.5440 H   0  0  0  0  0  0  0  0  0  0  0  0
   -4.9302   18.9768  -35.2734 H   0  0  0  0  0  0  0  0  0  0  0  0
   -6.2733   20.2139  -33.2170 H   0  0  0  0  0  0  0  0  0  0  0  0
   -7.0274   19.6071  -34.7629 H   0  0  0  0  0  0  0  0  0  0  0  0
   -6.0481   20.3913  -31.3968 H   0  0  0  0  0  0  0  0  0  0  0  0
   -2.0461   23.0199  -31.2156 H   0  0  0  0  0  0  0  0  0  0  0  0
   -1.8577   21.5424  -30.2502 H   0  0  0  0  0  0  0  0  0  0  0  0
   -0.6390   21.9678  -32.7181 H   0  0  0  0  0  0  0  0  0  0  0  0
   -0.9530   20.3551  -32.0681 H   0  0  0  0  0  0  0  0  0  0  0  0
   -2.1965   21.6473  -34.3678 H   0  0  0  0  0  0  0  0  0  0  0  0
   -2.5290   20.0200  -33.7650 H   0  0  0  0  0  0  0  0  0  0  0  0
   -4.0043   22.5866  -33.2794 H   0  0  0  0  0  0  0  0  0  0  0  0
   -4.6170   20.9235  -33.1768 H   0  0  0  0  0  0  0  0  0  0  0  0
  1  2  2  0
  2  3  2  0
  2  4  1  0
  4  5  2  0
  5  6  1  0
  6  7  2  0
  7  8  1  0
  8  9  1  0
  9 10  2  0
  9 11  2  0
  9 12  1  0
 12 13  1  0
 13 14  1  0
 14 15  1  0
 15 16  1  0
 16 17  1  0
  8 18  2  0
  2 19  1  0
 19 20  1  0
 20 21  1  0
 21 22  1  0
 22 23  1  0
 18  4  1  0
 23 19  1  0
 17 12  1  0
  5 24  1  0
  6 25  1  0
  7 26  1  0
 12 27  1  0
 13 28  1  0
 13 29  1  0
 14 30  1  0
 14 31  1  0
 15 32  1  0
 15 33  1  0
 16 34  1  0
 16 35  1  0
 17 36  1  0
 17 37  1  0
 18 38  1  0
 20 39  1  0
 20 40  1  0
 21 41  1  0
 21 42  1  0
 22 43  1  0
 22 44  1  0
 23 45  1  0
 23 46  1  0
M  CHG  1  12   1
M  END
>  <UniqueID>  (44) 
43

>  <SMILES>  (44) 
O=S(=O)(c1cccc(S(=O)(=O)[NH+]2CCCCC2)c1)N1CCCC1

>  <Energy>  (44) 
48.68541835333485

>  <Genealogy>  (44) 
O=S(=O)(c1cccc(S(=O)(=O)[NH+]2CCCCC2)c1)N1CCCC1 (protonated)
O=S(=O)(c1cccc(S(=O)(=O)[NH+]2CCCCC2)c1)N1CCCC1 (3D coordinates assigned)
O=S(=O)(c1cccc(S(=O)(=O)[NH+]2CCCCC2)c1)N1CCCC1 (nonaromatic ring conformer: 48.68541835333485 kcal/mol)

>  <smiles>  (44) 
O=S(=O)(c1cccc(S(=O)(=O)N2CCCC2)c1)N1CCCCC1

>  <score_type>  (44) 
oracle

>  <origin>  (44) 
adgpu

>  <m_score__min__energy>  (44) 
-9.2300000000000004

>  <m_primary>  (44) 
energy

$$$$
44:0
     RDKit          3D

 39 40  0  0  1  0  0  0  0  0999 V2000
   -0.5940   24.6620  -28.2670 C   0  0  0  0  0  0  0  0  0  0  0  0
   -1.9850   25.0880  -28.4690 N   0  0  0  0  0  0  0  0  0  0  0  0
   -2.7250   24.4570  -29.3240 C   0  0  0  0  0  0  0  0  0  0  0  0
   -2.1870   23.3830  -30.0390 C   0  0  0  0  0  0  0  0  0  0  0  0
   -2.9500   22.6880  -30.9610 C   0  0  0  0  0  0  0  0  0  0  0  0
   -2.4190   21.5400  -31.7440 C   0  0  0  0  0  0  0  0  0  0  0  0
   -4.2250   23.1150  -31.1140 N   0  0  0  0  0  0  0  0  0  0  0  0
   -4.7200   24.1510  -30.4130 C   0  0  0  0  0  0  0  0  0  0  0  0
   -6.4430   24.5840  -30.7460 S   0  0  0  0  0  0  0  0  0  0  0  0
   -6.8250   23.8030  -32.3530 C   0  0  0  0  0  0  0  0  0  0  0  0
   -7.4970   22.4880  -32.1750 C   0  0  0  0  0  0  0  0  0  0  0  0
   -8.7620   22.4030  -31.6180 C   0  0  0  0  0  0  0  0  0  0  0  0
   -9.3600   21.1780  -31.4650 C   0  0  0  0  0  0  0  0  0  0  0  0
   -8.7340   19.9990  -31.8540 C   0  0  0  0  0  0  0  0  0  0  0  0
   -7.4740   20.0710  -32.4100 C   0  0  0  0  0  0  0  0  0  0  0  0
   -6.7240   18.9010  -32.8520 C   0  0  0  0  0  0  0  0  0  0  0  0
   -6.2440   18.0710  -32.0280 O   0  0  0  0  0  0  0  0  0  0  0  0
   -6.4910   18.6270  -34.2270 N   0  0  0  0  0  0  0  0  0  0  0  0
   -5.7250   17.4210  -34.5360 C   0  0  0  0  0  0  0  0  0  0  0  0
   -6.8890   21.3120  -32.5560 C   0  0  0  0  0  0  0  0  0  0  0  0
   -3.9960   24.8430  -29.5100 N   0  0  0  0  0  0  0  0  0  0  0  0
   -0.3831   24.5974  -27.1893 H   0  0  0  0  0  0  0  0  0  0  0  0
   -0.4415   23.6760  -28.7302 H   0  0  0  0  0  0  0  0  0  0  0  0
    0.0845   25.3935  -28.7302 H   0  0  0  0  0  0  0  0  0  0  0  0
   -1.1420   23.0860  -29.8663 H   0  0  0  0  0  0  0  0  0  0  0  0
   -2.0590   20.7616  -31.0552 H   0  0  0  0  0  0  0  0  0  0  0  0
   -3.2179   21.1277  -32.3779 H   0  0  0  0  0  0  0  0  0  0  0  0
   -1.5875   21.8818  -32.3779 H   0  0  0  0  0  0  0  0  0  0  0  0
   -7.4882   24.4686  -32.9250 H   0  0  0  0  0  0  0  0  0  0  0  0
   -5.8790   23.6369  -32.8891 H   0  0  0  0  0  0  0  0  0  0  0  0
   -9.2862   23.3159  -31.2989 H   0  0  0  0  0  0  0  0  0  0  0  0
  -10.3652   21.1269  -31.0211 H   0  0  0  0  0  0  0  0  0  0  0  0
   -9.2338   19.0282  -31.7209 H   0  0  0  0  0  0  0  0  0  0  0  0
   -6.8420   19.2440  -34.9670 H   0  0  0  0  0  0  0  0  0  0  0  0
   -5.4153   16.9334  -33.5999 H   0  0  0  0  0  0  0  0  0  0  0  0
   -6.3498   16.7295  -35.1203 H   0  0  0  0  0  0  0  0  0  0  0  0
   -4.8335   17.6926  -35.1203 H   0  0  0  0  0  0  0  0  0  0  0  0
   -5.8840   21.3652  -33.0001 H   0  0  0  0  0  0  0  0  0  0  0  0
   -4.4260   25.6430  -28.9910 H   0  0  0  0  0  0  0  0  0  0  0  0
  1  2  1  0
  2  3  2  0
  3  4  1  0
  4  5  2  0
  5  6  1  0
  5  7  1  0
  7  8  2  0
  8  9  1  0
  9 10  1  0
 10 11  1  0
 11 12  2  0
 12 13  1  0
 13 14  2  0
 14 15  1  0
 15 16  1  0
 16 17  2  0
 16 18  1  0
 18 19  1  0
 15 20  2  0
  8 21  1  0
 21  3  1  0
 20 11  1  0
  1 22  1  0
  1 23  1  0
  1 24  1  0
  4 25  1  0
  6 26  1  0
  6 27  1  0
  6 28  1  0
 10 29  1  0
 10 30  1  0
 12 31  1  0
 13 32  1  0
 14 33  1  0
 18 34  1  0
 19 35  1  0
 19 36  1  0
 19 37  1  0
 20 38  1  0
 21 39  1  0
M  END
>  <smiles>  (45) 
CN=c1cc(C)nc(SCc2cccc(C(=O)NC)c2)[nH]1

>  <score_type>  (45) 
oracle

>  <origin>  (45) 
adgpu

>  <m_score__min__energy>  (45) 
-8.5899999999999999

>  <m_primary>  (45) 
energy

$$$$
45:0
     RDKit          3D

 50 53  0  0  0  0  0  0  0  0999 V2000
   -5.2750   15.0580  -33.9880 C   0  0  0  0  0  0  0  0  0  0  0  0
   -5.4150   16.5400  -33.6170 C   0  0  2  0  0  0  0  0  0  0  0  0
   -4.9580   16.8030  -32.1600 C   0  0  0  0  0  0  0  0  0  0  0  0
   -6.1390   17.0650  -31.2270 C   0  0  0  0  0  0  0  0  0  0  0  0
   -7.0040   18.2420  -31.7230 C   0  0  0  0  0  0  0  0  0  0  0  0
   -7.1630   18.3060  -33.2070 N   0  0  1  0  0  0  0  0  0  0  0  0
   -6.4000   19.3820  -33.8170 C   0  0  0  0  0  0  0  0  0  0  0  0
   -6.0510   19.3080  -35.0280 O   0  0  0  0  0  0  0  0  0  0  0  0
   -6.0780   20.6190  -33.0680 C   0  0  0  0  0  0  0  0  0  0  0  0
   -4.7880   21.0210  -32.7240 C   0  0  0  0  0  0  0  0  0  0  0  0
   -4.9470   22.2110  -32.0520 C   0  0  0  0  0  0  0  0  0  0  0  0
   -4.0060   23.0580  -31.4720 C   0  0  0  0  0  0  0  0  0  0  0  0
   -4.4650   24.2250  -30.8300 C   0  0  0  0  0  0  0  0  0  0  0  0
   -3.5040   25.0840  -30.1980 N   0  0  0  0  0  0  0  0  0  0  0  0
   -2.4230   24.6890  -29.3430 C   0  0  0  0  0  0  0  0  0  0  0  0
   -1.6140   25.5700  -28.9520 O   0  0  0  0  0  0  0  0  0  0  0  0
   -2.2740   23.3020  -28.8460 C   0  0  0  0  0  0  0  0  0  0  0  0
   -1.0570   22.6180  -29.0230 C   0  0  0  0  0  0  0  0  0  0  0  0
   -0.9040   21.3140  -28.5450 C   0  0  0  0  0  0  0  0  0  0  0  0
   -1.9580   20.6840  -27.8800 C   0  0  0  0  0  0  0  0  0  0  0  0
   -3.1660   21.3600  -27.6870 C   0  0  0  0  0  0  0  0  0  0  0  0
   -3.3240   22.6640  -28.1640 C   0  0  0  0  0  0  0  0  0  0  0  0
   -5.8610   24.4860  -30.7650 C   0  0  0  0  0  0  0  0  0  0  0  0
   -6.7840   23.6170  -31.3740 C   0  0  0  0  0  0  0  0  0  0  0  0
   -6.2870   22.4830  -32.0120 C   0  0  0  0  0  0  0  0  0  0  0  0
   -6.9920   21.5230  -32.6340 N   0  0  0  0  0  0  0  0  0  0  0  0
   -6.8660   17.0200  -33.8760 C   0  0  0  0  0  0  0  0  0  0  0  0
   -5.2180   14.4541  -33.0704 H   0  0  0  0  0  0  0  0  0  0  0  0
   -6.1475   14.7442  -34.5798 H   0  0  0  0  0  0  0  0  0  0  0  0
   -4.3592   14.9131  -34.5798 H   0  0  0  0  0  0  0  0  0  0  0  0
   -4.7477   17.1306  -34.2619 H   0  0  0  0  0  0  0  0  0  0  0  0
   -4.4070   15.9231  -31.7966 H   0  0  0  0  0  0  0  0  0  0  0  0
   -4.3209   17.6997  -32.1609 H   0  0  0  0  0  0  0  0  0  0  0  0
   -6.7623   16.1600  -31.1772 H   0  0  0  0  0  0  0  0  0  0  0  0
   -5.7424   17.3238  -30.2342 H   0  0  0  0  0  0  0  0  0  0  0  0
   -8.0035   18.1484  -31.2732 H   0  0  0  0  0  0  0  0  0  0  0  0
   -6.4841   19.1635  -31.4221 H   0  0  0  0  0  0  0  0  0  0  0  0
   -8.1740   18.5100  -33.3770 H   0  0  0  0  0  0  0  0  0  0  0  0
   -3.8451   20.4986  -32.9430 H   0  0  0  0  0  0  0  0  0  0  0  0
   -2.9324   22.8220  -31.5140 H   0  0  0  0  0  0  0  0  0  0  0  0
   -0.2217   23.1125  -29.5404 H   0  0  0  0  0  0  0  0  0  0  0  0
    0.0479   20.7830  -28.6927 H   0  0  0  0  0  0  0  0  0  0  0  0
   -1.8375   19.6558  -27.5081 H   0  0  0  0  0  0  0  0  0  0  0  0
   -3.9939   20.8647  -27.1586 H   0  0  0  0  0  0  0  0  0  0  0  0
   -4.2749   23.1936  -28.0048 H   0  0  0  0  0  0  0  0  0  0  0  0
   -6.2233   25.3777  -30.2324 H   0  0  0  0  0  0  0  0  0  0  0  0
   -7.8636   23.8262  -31.3473 H   0  0  0  0  0  0  0  0  0  0  0  0
   -8.0280   21.5030  -32.7560 H   0  0  0  0  0  0  0  0  0  0  0  0
   -7.5630   16.2568  -33.4995 H   0  0  0  0  0  0  0  0  0  0  0  0
   -6.9806   17.1714  -34.9595 H   0  0  0  0  0  0  0  0  0  0  0  0
  1  2  1  0
  2  3  1  0
  3  4  1  0
  4  5  1  0
  5  6  1  0
  6  7  1  0
  7  8  2  0
  7  9  1  0
  9 10  2  0
 10 11  1  0
 11 12  2  0
 12 13  1  0
 13 14  1  0
 14 15  1  0
 15 16  2  0
 15 17  1  0
 17 18  2  0
 18 19  1  0
 19 20  2  0
 20 21  1  0
 21 22  2  0
 13 23  2  0
 23 24  1  0
 24 25  2  0
 25 26  1  0
  6 27  1  0
 27  2  1  0
 26  9  1  0
 25 11  1  0
 22 17  1  0
  1 28  1  0
  1 29  1  0
  1 30  1  0
  2 31  1  6
  3 32  1  0
  3 33  1  0
  4 34  1  0
  4 35  1  0
  5 36  1  0
  5 37  1  0
  6 38  1  1
 10 39  1  0
 12 40  1  0
 18 41  1  0
 19 42  1  0
 20 43  1  0
 21 44  1  0
 22 45  1  0
 23 46  1  0
 24 47  1  0
 26 48  1  0
 27 49  1  0
 27 50  1  0
M  CHG  2   6   1  14  -1
M  END
>  <UniqueID>  (46) 
44

>  <SMILES>  (46) 
C[C@@H]1CCC[N@@H+](C(=O)c2cc3cc([N-]C(=O)c4ccccc4)ccc3[nH]2)C1

>  <Energy>  (46) 
102.47979241386945

>  <Genealogy>  (46) 
CC1CCC[NH+](C(=O)c2cc3cc([N-]C(=O)c4ccccc4)ccc3[nH]2)C1 (protonated)
C[C@@H]1CCC[N@@H+](C(=O)c2cc3cc([N-]C(=O)c4ccccc4)ccc3[nH]2)C1 (chirality)
C[C@@H]1CCC[N@@H+](C(=O)c2cc3cc([N-]C(=O)c4ccccc4)ccc3[nH]2)C1 (3D coordinates assigned)
C[C@@H]1CCC[N@@H+](C(=O)c2cc3cc([N-]C(=O)c4ccccc4)ccc3[nH]2)C1 (nonaromatic ring conformer: 102.47979241386945 kcal/mol)

>  <smiles>  (46) 
CC1CCCN(C(=O)c2cc3cc(NC(=O)c4ccccc4)ccc3[nH]2)C1

>  <score_type>  (46) 
oracle

>  <origin>  (46) 
adgpu

>  <m_score__min__energy>  (46) 
-10.75

>  <m_primary>  (46) 
energy

$$$$
46:0
     RDKit          3D

 55 57  0  0  0  0  0  0  0  0999 V2000
   -3.7230   14.8750  -32.6870 C   0  0  0  0  0  0  0  0  0  0  0  0
   -5.1620   15.0570  -32.5090 N   0  0  0  0  0  0  0  0  0  0  0  0
   -5.7860   16.0680  -33.7780 S   0  0  0  0  0  0  0  0  0  0  0  0
   -4.8370   16.0400  -34.9430 O   0  0  0  0  0  0  0  0  0  0  0  0
   -7.1170   15.5410  -34.2360 O   0  0  0  0  0  0  0  0  0  0  0  0
   -5.9530   17.7290  -33.2130 C   0  0  0  0  0  0  0  0  0  0  0  0
   -5.2570   18.7690  -33.8420 C   0  0  0  0  0  0  0  0  0  0  0  0
   -5.4070   20.0860  -33.3980 C   0  0  0  0  0  0  0  0  0  0  0  0
   -6.2580   20.3860  -32.3180 C   0  0  0  0  0  0  0  0  0  0  0  0
   -6.4210   21.7440  -31.8510 N   0  0  0  0  0  0  0  0  0  0  0  0
   -7.5430   22.5650  -32.3180 C   0  0  0  0  0  0  0  0  0  0  0  0
   -5.3960   22.3570  -31.0470 C   0  0  0  0  0  0  0  0  0  0  0  0
   -4.6210   21.5820  -30.1730 C   0  0  0  0  0  0  0  0  0  0  0  0
   -3.5960   22.1700  -29.4290 C   0  0  0  0  0  0  0  0  0  0  0  0
   -3.3300   23.5410  -29.5450 C   0  0  0  0  0  0  0  0  0  0  0  0
   -1.9690   24.2240  -28.6510 S   0  0  0  0  0  0  0  0  0  0  0  0
   -2.4210   24.5450  -27.2540 O   0  0  0  0  0  0  0  0  0  0  0  0
   -1.4910   25.4980  -29.2910 O   0  0  0  0  0  0  0  0  0  0  0  0
   -0.6640   23.0770  -28.5650 N   0  0  0  0  0  0  0  0  0  0  0  0
   -0.3520   22.5100  -29.8810 C   0  0  0  0  0  0  0  0  0  0  0  0
   -0.6520   21.0070  -29.9250 C   0  0  0  0  0  0  0  0  0  0  0  0
   -1.1840   20.5840  -31.2700 C   0  0  0  0  0  0  0  0  0  0  0  0
   -1.1540   19.2320  -31.6510 C   0  0  0  0  0  0  0  0  0  0  0  0
   -1.6250   18.8460  -32.9100 C   0  0  0  0  0  0  0  0  0  0  0  0
   -2.1210   19.8050  -33.7980 C   0  0  0  0  0  0  0  0  0  0  0  0
   -2.1460   21.1530  -33.4280 C   0  0  0  0  0  0  0  0  0  0  0  0
   -1.6750   21.5430  -32.1700 C   0  0  0  0  0  0  0  0  0  0  0  0
   -4.1080   24.3240  -30.4190 C   0  0  0  0  0  0  0  0  0  0  0  0
   -3.8640   25.6840  -30.5720 O   0  0  0  0  0  0  0  0  0  0  0  0
   -5.1340   23.7310  -31.1620 C   0  0  0  0  0  0  0  0  0  0  0  0
   -6.9610   19.3340  -31.6990 C   0  0  0  0  0  0  0  0  0  0  0  0
   -6.8080   18.0190  -32.1440 C   0  0  0  0  0  0  0  0  0  0  0  0
   -3.2366   14.8135  -31.7023 H   0  0  0  0  0  0  0  0  0  0  0  0
   -3.5373   13.9462  -33.2463 H   0  0  0  0  0  0  0  0  0  0  0  0
   -3.3119   15.7283  -33.2463 H   0  0  0  0  0  0  0  0  0  0  0  0
   -5.6180   14.1210  -32.6090 H   0  0  0  0  0  0  0  0  0  0  0  0
   -4.5899   18.5487  -34.6884 H   0  0  0  0  0  0  0  0  0  0  0  0
   -4.8546   20.8956  -33.8975 H   0  0  0  0  0  0  0  0  0  0  0  0
   -8.0900   22.9653  -31.4516 H   0  0  0  0  0  0  0  0  0  0  0  0
   -7.1599   23.3976  -32.9263 H   0  0  0  0  0  0  0  0  0  0  0  0
   -8.2206   21.9479  -32.9263 H   0  0  0  0  0  0  0  0  0  0  0  0
   -4.8214   20.5051  -30.0727 H   0  0  0  0  0  0  0  0  0  0  0  0
   -2.9930   21.5526  -28.7469 H   0  0  0  0  0  0  0  0  0  0  0  0
   -0.9594   23.0192  -30.6438 H   0  0  0  0  0  0  0  0  0  0  0  0
    0.7206   22.6560  -30.0767 H   0  0  0  0  0  0  0  0  0  0  0  0
    0.2750   20.4522  -29.7178 H   0  0  0  0  0  0  0  0  0  0  0  0
   -1.4198   20.7883  -29.1683 H   0  0  0  0  0  0  0  0  0  0  0  0
   -0.7591   18.4752  -30.9573 H   0  0  0  0  0  0  0  0  0  0  0  0
   -1.6051   17.7857  -33.2021 H   0  0  0  0  0  0  0  0  0  0  0  0
   -2.4915   19.4991  -34.7875 H   0  0  0  0  0  0  0  0  0  0  0  0
   -2.5364   21.9075  -34.1268 H   0  0  0  0  0  0  0  0  0  0  0  0
   -1.6894   22.6053  -31.8848 H   0  0  0  0  0  0  0  0  0  0  0  0
   -5.7407   24.3468  -31.8422 H   0  0  0  0  0  0  0  0  0  0  0  0
   -7.6363   19.5500  -30.8579 H   0  0  0  0  0  0  0  0  0  0  0  0
   -7.3627   17.2068  -31.6514 H   0  0  0  0  0  0  0  0  0  0  0  0
  1  2  1  0
  2  3  1  0
  3  4  2  0
  3  5  2  0
  3  6  1  0
  6  7  2  0
  7  8  1  0
  8  9  2  0
  9 10  1  0
 10 11  1  0
 10 12  1  0
 12 13  2  0
 13 14  1  0
 14 15  2  0
 15 16  1  0
 16 17  2  0
 16 18  2  0
 16 19  1  0
 19 20  1  0
 20 21  1  0
 21 22  1  0
 22 23  2  0
 23 24  1  0
 24 25  2  0
 25 26  1  0
 26 27  2  0
 15 28  1  0
 28 29  1  0
 28 30  2  0
  9 31  1  0
 31 32  2  0
 32  6  1  0
 30 12  1  0
 27 22  1  0
  1 33  1  0
  1 34  1  0
  1 35  1  0
  2 36  1  0
  7 37  1  0
  8 38  1  0
 11 39  1  0
 11 40  1  0
 11 41  1  0
 13 42  1  0
 14 43  1  0
 20 44  1  0
 20 45  1  0
 21 46  1  0
 21 47  1  0
 23 48  1  0
 24 49  1  0
 25 50  1  0
 26 51  1  0
 27 52  1  0
 30 53  1  0
 31 54  1  0
 32 55  1  0
M  CHG  2  19  -1  29  -1
M  END
>  <UniqueID>  (47) 
45

>  <SMILES>  (47) 
CNS(=O)(=O)c1ccc(N(C)c2ccc(S(=O)(=O)[N-]CCc3ccccc3)c([O-])c2)cc1

>  <Energy>  (47) 
59.74299042297082

>  <Genealogy>  (47) 
CNS(=O)(=O)c1ccc(N(C)c2ccc(S(=O)(=O)[N-]CCc3ccccc3)c([O-])c2)cc1 (protonated)
CNS(=O)(=O)c1ccc(N(C)c2ccc(S(=O)(=O)[N-]CCc3ccccc3)c([O-])c2)cc1 (3D coordinates assigned)
CNS(=O)(=O)c1ccc(N(C)c2ccc(S(=O)(=O)[N-]CCc3ccccc3)c([O-])c2)cc1 (optimized conformer: 59.74299042297082 kcal/mol)

>  <smiles>  (47) 
CNS(=O)(=O)c1ccc(N(C)c2ccc(S(=O)(=O)NCCc3ccccc3)c(O)c2)cc1

>  <score_type>  (47) 
oracle

>  <origin>  (47) 
adgpu

>  <m_score__min__energy>  (47) 
-12.859999999999999

>  <m_primary>  (47) 
energy

$$$$
47:0
     RDKit          3D

 53 55  0  0  0  0  0  0  0  0999 V2000
   -6.5020   15.6900  -34.0390 C   0  0  0  0  0  0  0  0  0  0  0  0
   -7.0760   16.9550  -33.7310 O   0  0  0  0  0  0  0  0  0  0  0  0
   -6.3450   18.1440  -33.5800 C   0  0  0  0  0  0  0  0  0  0  0  0
   -4.9770   18.2250  -33.8960 C   0  0  0  0  0  0  0  0  0  0  0  0
   -4.2820   19.4250  -33.7300 C   0  0  0  0  0  0  0  0  0  0  0  0
   -4.9360   20.5660  -33.2480 C   0  0  0  0  0  0  0  0  0  0  0  0
   -4.1900   21.7830  -33.0770 N   0  0  0  0  0  0  0  0  0  0  0  0
   -2.5890   21.8310  -32.3580 S   0  0  0  0  0  0  0  0  0  0  0  0
   -2.1020   20.3900  -32.4110 O   0  0  0  0  0  0  0  0  0  0  0  0
   -2.8920   22.1780  -30.6380 C   0  0  0  0  0  0  0  0  0  0  0  0
   -2.0950   21.7760  -29.5800 C   0  0  0  0  0  0  0  0  0  0  0  0
   -0.8470   20.9590  -29.6830 C   0  0  0  0  0  0  0  0  0  0  0  0
   -2.5140   22.3560  -28.4370 N   0  0  0  0  0  0  0  0  0  0  0  0
   -3.5840   23.1130  -28.7510 C   0  0  0  0  0  0  0  0  0  0  0  0
   -4.2980   23.9910  -27.7730 C   0  0  0  0  0  0  0  0  0  0  0  0
   -3.8430   23.0320  -30.1090 C   0  0  0  0  0  0  0  0  0  0  0  0
   -4.8650   23.7860  -30.8480 C   0  0  0  0  0  0  0  0  0  0  0  0
   -4.6000   24.9610  -31.2190 O   0  0  0  0  0  0  0  0  0  0  0  0
   -6.1550   23.2110  -31.1350 N   0  0  0  0  0  0  0  0  0  0  0  0
   -6.6350   22.0470  -30.3810 C   0  0  0  0  0  0  0  0  0  0  0  0
   -8.1670   22.0180  -30.3690 C   0  0  0  0  0  0  0  0  0  0  0  0
   -8.6810   22.1420  -31.6810 O   0  0  0  0  0  0  0  0  0  0  0  0
   -8.3660   23.4220  -32.1930 C   0  0  0  0  0  0  0  0  0  0  0  0
   -6.8530   23.5810  -32.3710 C   0  0  0  0  0  0  0  0  0  0  0  0
   -6.3030   20.4870  -32.9310 C   0  0  0  0  0  0  0  0  0  0  0  0
   -7.0110   19.2800  -33.0940 C   0  0  0  0  0  0  0  0  0  0  0  0
   -8.3760   19.1680  -32.7840 O   0  0  0  0  0  0  0  0  0  0  0  0
   -8.8920   18.5070  -31.6330 C   0  0  0  0  0  0  0  0  0  0  0  0
   -6.2613   15.1596  -33.1059 H   0  0  0  0  0  0  0  0  0  0  0  0
   -7.2183   15.0951  -34.6246 H   0  0  0  0  0  0  0  0  0  0  0  0
   -5.5826   15.8373  -34.6246 H   0  0  0  0  0  0  0  0  0  0  0  0
   -4.4508   17.3371  -34.2765 H   0  0  0  0  0  0  0  0  0  0  0  0
   -3.2119   19.4745  -33.9799 H   0  0  0  0  0  0  0  0  0  0  0  0
   -4.5850   22.6820  -33.4340 H   0  0  0  0  0  0  0  0  0  0  0  0
   -0.4812   20.7195  -28.6736 H   0  0  0  0  0  0  0  0  0  0  0  0
   -1.0628   20.0268  -30.2256 H   0  0  0  0  0  0  0  0  0  0  0  0
   -0.0789   21.5297  -30.2256 H   0  0  0  0  0  0  0  0  0  0  0  0
   -2.0690   22.2690  -27.4970 H   0  0  0  0  0  0  0  0  0  0  0  0
   -4.0452   23.6801  -26.7486 H   0  0  0  0  0  0  0  0  0  0  0  0
   -3.9901   25.0360  -27.9256 H   0  0  0  0  0  0  0  0  0  0  0  0
   -5.3838   23.9026  -27.9256 H   0  0  0  0  0  0  0  0  0  0  0  0
   -6.2581   21.1278  -30.8532 H   0  0  0  0  0  0  0  0  0  0  0  0
   -6.2696   22.1150  -29.3457 H   0  0  0  0  0  0  0  0  0  0  0  0
   -8.5065   21.0650  -29.9370 H   0  0  0  0  0  0  0  0  0  0  0  0
   -8.5314   22.8626  -29.7658 H   0  0  0  0  0  0  0  0  0  0  0  0
   -8.8591   23.5516  -33.1677 H   0  0  0  0  0  0  0  0  0  0  0  0
   -8.7184   24.1825  -31.4807 H   0  0  0  0  0  0  0  0  0  0  0  0
   -6.5131   22.9291  -33.1892 H   0  0  0  0  0  0  0  0  0  0  0  0
   -6.6284   24.6312  -32.6090 H   0  0  0  0  0  0  0  0  0  0  0  0
   -6.8258   21.3773  -32.5515 H   0  0  0  0  0  0  0  0  0  0  0  0
   -8.5091   18.9975  -30.7260 H   0  0  0  0  0  0  0  0  0  0  0  0
   -9.9907   18.5591  -31.6420 H   0  0  0  0  0  0  0  0  0  0  0  0
   -8.5748   17.4538  -31.6420 H   0  0  0  0  0  0  0  0  0  0  0  0
  1  2  1  0
  2  3  1  0
  3  4  2  0
  4  5  1  0
  5  6  2  0
  6  7  1  0
  8  7  1  6
  8  9  2  0
  8 10  1  0
 10 11  2  0
 11 12  1  0
 11 13  1  0
 13 14  1  0
 14 15  1  0
 14 16  2  0
 16 17  1  0
 17 18  2  0
 17 19  1  0
 19 20  1  0
 20 21  1  0
 21 22  1  0
 22 23  1  0
 23 24  1  0
  6 25  1  0
 25 26  2  0
 26 27  1  0
 27 28  1  0
 26  3  1  0
 16 10  1  0
 24 19  1  0
  1 29  1  0
  1 30  1  0
  1 31  1  0
  4 32  1  0
  5 33  1  0
  7 34  1  0
 12 35  1  0
 12 36  1  0
 12 37  1  0
 13 38  1  0
 15 39  1  0
 15 40  1  0
 15 41  1  0
 20 42  1  0
 20 43  1  0
 21 44  1  0
 21 45  1  0
 23 46  1  0
 23 47  1  0
 24 48  1  0
 24 49  1  0
 25 50  1  0
 28 51  1  0
 28 52  1  0
 28 53  1  0
M  END
>  <UniqueID>  (48) 
46

>  <SMILES>  (48) 
COc1ccc(N[S@](=O)c2c(C)[nH]c(C)c2C(=O)N2CCOCC2)cc1OC

>  <Energy>  (48) 
85.39129393605734

>  <Genealogy>  (48) 
COc1ccc(N[S@](=O)c2c(C)[nH]c(C)c2C(=O)N2CCOCC2)cc1OC (chirality)
COc1ccc(N[S@](=O)c2c(C)[nH]c(C)c2C(=O)N2CCOCC2)cc1OC (3D coordinates assigned)
COc1ccc(N[S@](=O)c2c(C)[nH]c(C)c2C(=O)N2CCOCC2)cc1OC (nonaromatic ring conformer: 85.39129393605734 kcal/mol)

>  <smiles>  (48) 
COc1ccc(NS(=O)c2c(C)[nH]c(C)c2C(=O)N2CCOCC2)cc1OC

>  <score_type>  (48) 
oracle

>  <origin>  (48) 
adgpu

>  <m_score__min__energy>  (48) 
-9.2699999999999996

>  <m_primary>  (48) 
energy

$$$$
