0:0
     RDKit          3D

 42 43  0  0  0  0  0  0  0  0999 V2000
   -1.2370   26.0230  -27.2130 C   0  0  0  0  0  0  0  0  0  0  0  0
   -1.0270   25.3100  -28.5430 C   0  0  0  0  0  0  0  0  0  0  0  0
   -2.2360   25.2900  -29.2990 O   0  0  0  0  0  0  0  0  0  0  0  0
   -3.3060   24.4330  -29.0150 C   0  0  0  0  0  0  0  0  0  0  0  0
   -3.7900   24.3730  -27.8520 O   0  0  0  0  0  0  0  0  0  0  0  0
   -3.8780   23.5950  -30.0950 C   0  0  0  0  0  0  0  0  0  0  0  0
   -3.0730   22.6130  -30.7310 C   0  0  0  0  0  0  0  0  0  0  0  0
   -1.6220   22.4280  -30.3220 C   0  0  0  0  0  0  0  0  0  0  0  0
   -3.6380   21.7930  -31.7340 C   0  0  0  0  0  0  0  0  0  0  0  0
   -2.8610   20.7410  -32.3570 C   0  0  0  0  0  0  0  0  0  0  0  0
   -2.2420   19.9010  -32.8550 N   0  0  0  0  0  0  0  0  0  0  0  0
   -4.9560   22.0090  -32.1700 C   0  0  0  0  0  0  0  0  0  0  0  0
   -5.4910   21.1940  -33.2310 N   0  0  0  0  0  0  0  0  0  0  0  0
   -6.1870   19.9500  -33.0260 C   0  0  0  0  0  0  0  0  0  0  0  0
   -7.2970   19.9310  -32.1660 C   0  0  0  0  0  0  0  0  0  0  0  0
   -8.0060   18.7470  -31.9460 C   0  0  0  0  0  0  0  0  0  0  0  0
   -7.6090   17.5670  -32.5760 C   0  0  0  0  0  0  0  0  0  0  0  0
   -6.4950   17.5640  -33.4180 C   0  0  0  0  0  0  0  0  0  0  0  0
   -5.7730   18.7450  -33.6420 C   0  0  0  0  0  0  0  0  0  0  0  0
   -4.6400   18.7140  -34.4550 O   0  0  0  0  0  0  0  0  0  0  0  0
   -5.7530   22.9910  -31.5500 C   0  0  0  0  0  0  0  0  0  0  0  0
   -7.1220   23.1690  -31.9900 C   0  0  0  0  0  0  0  0  0  0  0  0
   -8.2150   23.3110  -32.3420 N   0  0  0  0  0  0  0  0  0  0  0  0
   -5.2330   23.7640  -30.4850 C   0  0  0  0  0  0  0  0  0  0  0  0
   -6.1110   24.7830  -29.7820 C   0  0  0  0  0  0  0  0  0  0  0  0
   -1.0318   25.3262  -26.3870 H   0  0  0  0  0  0  0  0  0  0  0  0
   -0.5539   26.8826  -27.1459 H   0  0  0  0  0  0  0  0  0  0  0  0
   -2.2770   26.3750  -27.1459 H   0  0  0  0  0  0  0  0  0  0  0  0
   -0.2506   25.8371  -29.1169 H   0  0  0  0  0  0  0  0  0  0  0  0
   -0.7162   24.2737  -28.3442 H   0  0  0  0  0  0  0  0  0  0  0  0
   -1.5487   22.4187  -29.2245 H   0  0  0  0  0  0  0  0  0  0  0  0
   -1.2468   21.4747  -30.7227 H   0  0  0  0  0  0  0  0  0  0  0  0
   -1.0196   23.2566  -30.7227 H   0  0  0  0  0  0  0  0  0  0  0  0
   -5.3500   21.5270  -34.2120 H   0  0  0  0  0  0  0  0  0  0  0  0
   -7.6112   20.8563  -31.6610 H   0  0  0  0  0  0  0  0  0  0  0  0
   -8.8780   18.7453  -31.2754 H   0  0  0  0  0  0  0  0  0  0  0  0
   -8.1742   16.6381  -32.4092 H   0  0  0  0  0  0  0  0  0  0  0  0
   -6.1822   16.6302  -33.9081 H   0  0  0  0  0  0  0  0  0  0  0  0
   -3.7420   19.0520  -34.1300 H   0  0  0  0  0  0  0  0  0  0  0  0
   -6.0095   24.6653  -28.6930 H   0  0  0  0  0  0  0  0  0  0  0  0
   -5.7995   25.7974  -30.0717 H   0  0  0  0  0  0  0  0  0  0  0  0
   -7.1603   24.6249  -30.0717 H   0  0  0  0  0  0  0  0  0  0  0  0
  1  2  1  0
  2  3  1  0
  3  4  1  0
  4  5  2  0
  4  6  1  0
  6  7  2  0
  7  8  1  0
  7  9  1  0
  9 10  1  0
 10 11  3  0
  9 12  2  0
 12 13  1  0
 13 14  1  0
 14 15  2  0
 15 16  1  0
 16 17  2  0
 17 18  1  0
 18 19  2  0
 19 20  1  0
 12 21  1  0
 21 22  1  0
 22 23  3  0
 21 24  2  0
 24 25  1  0
 24  6  1  0
 19 14  1  0
  1 26  1  0
  1 27  1  0
  1 28  1  0
  2 29  1  0
  2 30  1  0
  8 31  1  0
  8 32  1  0
  8 33  1  0
 13 34  1  0
 15 35  1  0
 16 36  1  0
 17 37  1  0
 18 38  1  0
 20 39  1  0
 25 40  1  0
 25 41  1  0
 25 42  1  0
M  END
>  <UniqueID>  (1) 
1

>  <SMILES>  (1) 
CCOC(=O)c1c(C)c(C#N)c(Nc2ccccc2O)c(C#N)c1C

>  <Energy>  (1) 
59.36986348132001

>  <Genealogy>  (1) 
CCOC(=O)c1c(C)c(C#N)c(Nc2ccccc2O)c(C#N)c1C (3D coordinates assigned)
CCOC(=O)c1c(C)c(C#N)c(Nc2ccccc2O)c(C#N)c1C (optimized conformer: 59.36986348132001 kcal/mol)

>  <smiles>  (1) 
CCOC(=O)c1c(C)c(C#N)c(Nc2ccccc2O)c(C#N)c1C

>  <score_type>  (1) 
oracle

>  <origin>  (1) 
adgpu

>  <m_score__min__energy>  (1) 
-8.9000000000000004

>  <m_primary>  (1) 
energy

$$$$
1:0
     RDKit          3D

 48 50  0  0  0  0  0  0  0  0999 V2000
   -8.4350   21.8240  -31.5870 C   0  0  0  0  0  0  0  0  0  0  0  0
   -7.5510   22.8350  -32.3060 C   0  0  0  0  0  0  0  0  0  0  0  0
   -6.5320   23.4020  -31.3710 C   0  0  0  0  0  0  0  0  0  0  0  0
   -5.6110   24.3230  -31.7390 N   0  0  0  0  0  0  0  0  0  0  0  0
   -4.8510   24.7190  -30.6840 C   0  0  0  0  0  0  0  0  0  0  0  0
   -3.8530   25.6750  -30.8230 O   0  0  0  0  0  0  0  0  0  0  0  0
   -5.1570   24.1120  -29.4690 C   0  0  0  0  0  0  0  0  0  0  0  0
   -4.5640   24.4420  -28.1360 C   0  0  0  0  0  0  0  0  0  0  0  0
   -3.2960   23.6740  -27.9560 C   0  0  0  0  0  0  0  0  0  0  0  0
   -2.2290   24.2850  -27.6780 O   0  0  0  0  0  0  0  0  0  0  0  0
   -3.2950   22.2530  -28.1380 N   0  0  0  0  0  0  0  0  0  0  0  0
   -2.7890   21.5750  -29.2950 C   0  0  0  0  0  0  0  0  0  0  0  0
   -1.5720   20.8880  -29.2040 C   0  0  0  0  0  0  0  0  0  0  0  0
   -1.0820   20.1760  -30.3030 C   0  0  0  0  0  0  0  0  0  0  0  0
   -1.8150   20.1260  -31.4910 C   0  0  0  0  0  0  0  0  0  0  0  0
   -3.0440   20.7920  -31.5870 C   0  0  0  0  0  0  0  0  0  0  0  0
   -4.0060   20.6550  -33.0580 S   0  0  0  0  0  0  0  0  0  0  0  0
   -3.3880   19.6030  -33.9350 O   0  0  0  0  0  0  0  0  0  0  0  0
   -3.9830   21.9620  -33.8010 O   0  0  0  0  0  0  0  0  0  0  0  0
   -5.6550   20.1960  -32.6840 N   0  0  0  0  0  0  0  0  0  0  0  0
   -6.4270   19.8350  -33.8900 C   0  0  0  0  0  0  0  0  0  0  0  0
   -6.0190   18.4700  -34.4750 C   0  0  0  0  0  0  0  0  0  0  0  0
   -5.7300   17.4130  -33.3940 C   0  0  0  0  0  0  0  0  0  0  0  0
   -6.2840   17.8230  -32.0310 C   0  0  0  0  0  0  0  0  0  0  0  0
   -5.7160   19.1870  -31.5960 C   0  0  0  0  0  0  0  0  0  0  0  0
   -3.5300   21.5130  -30.4890 C   0  0  0  0  0  0  0  0  0  0  0  0
   -6.4550   23.0710  -29.7210 S   0  0  0  0  0  0  0  0  0  0  0  0
   -8.3256   21.9492  -30.4996 H   0  0  0  0  0  0  0  0  0  0  0  0
   -9.4850   21.9876  -31.8711 H   0  0  0  0  0  0  0  0  0  0  0  0
   -8.1328   20.8052  -31.8711 H   0  0  0  0  0  0  0  0  0  0  0  0
   -7.0374   22.3365  -33.1413 H   0  0  0  0  0  0  0  0  0  0  0  0
   -8.1821   23.6539  -32.6815 H   0  0  0  0  0  0  0  0  0  0  0  0
   -4.3510   25.5200  -28.0853 H   0  0  0  0  0  0  0  0  0  0  0  0
   -5.2740   24.1728  -27.3401 H   0  0  0  0  0  0  0  0  0  0  0  0
   -0.9997   20.9086  -28.2648 H   0  0  0  0  0  0  0  0  0  0  0  0
   -0.1165   19.6537  -30.2319 H   0  0  0  0  0  0  0  0  0  0  0  0
   -1.4268   19.5629  -32.3525 H   0  0  0  0  0  0  0  0  0  0  0  0
   -7.4943   19.7992  -33.6261 H   0  0  0  0  0  0  0  0  0  0  0  0
   -6.2205   20.5977  -34.6553 H   0  0  0  0  0  0  0  0  0  0  0  0
   -6.8367   18.1039  -35.1132 H   0  0  0  0  0  0  0  0  0  0  0  0
   -5.0895   18.6209  -35.0436 H   0  0  0  0  0  0  0  0  0  0  0  0
   -6.1936   16.4618  -33.6944 H   0  0  0  0  0  0  0  0  0  0  0  0
   -4.6387   17.3115  -33.3009 H   0  0  0  0  0  0  0  0  0  0  0  0
   -7.3800   17.8924  -32.0935 H   0  0  0  0  0  0  0  0  0  0  0  0
   -5.9893   17.0662  -31.2891 H   0  0  0  0  0  0  0  0  0  0  0  0
   -6.3522   19.5850  -30.7917 H   0  0  0  0  0  0  0  0  0  0  0  0
   -4.6801   19.0091  -31.2715 H   0  0  0  0  0  0  0  0  0  0  0  0
   -4.4964   22.0336  -30.5608 H   0  0  0  0  0  0  0  0  0  0  0  0
  1  2  1  0
  2  3  1  0
  3  4  2  0
  4  5  1  0
  5  6  1  0
  5  7  2  0
  7  8  1  0
  8  9  1  0
  9 10  2  0
  9 11  1  0
 11 12  1  0
 12 13  2  0
 13 14  1  0
 14 15  2  0
 15 16  1  0
 16 17  1  0
 17 18  2  0
 17 19  2  0
 17 20  1  0
 20 21  1  0
 21 22  1  0
 22 23  1  0
 23 24  1  0
 24 25  1  0
 16 26  2  0
  7 27  1  0
 27  3  1  0
 26 12  1  0
 25 20  1  0
  1 28  1  0
  1 29  1  0
  1 30  1  0
  2 31  1  0
  2 32  1  0
  8 33  1  0
  8 34  1  0
 13 35  1  0
 14 36  1  0
 15 37  1  0
 21 38  1  0
 21 39  1  0
 22 40  1  0
 22 41  1  0
 23 42  1  0
 23 43  1  0
 24 44  1  0
 24 45  1  0
 25 46  1  0
 25 47  1  0
 26 48  1  0
M  CHG  2   6  -1  11  -1
M  END
>  <UniqueID>  (2) 
2

>  <SMILES>  (2) 
CCc1nc([O-])c(CC(=O)[N-]c2cccc(S(=O)(=O)N3CCCCC3)c2)s1

>  <Energy>  (2) 
80.24464095774553

>  <Genealogy>  (2) 
CCc1nc([O-])c(CC(=O)[N-]c2cccc(S(=O)(=O)N3CCCCC3)c2)s1 (protonated)
CCc1nc([O-])c(CC(=O)[N-]c2cccc(S(=O)(=O)N3CCCCC3)c2)s1 (3D coordinates assigned)
CCc1nc([O-])c(CC(=O)[N-]c2cccc(S(=O)(=O)N3CCCCC3)c2)s1 (nonaromatic ring conformer: 80.24464095774553 kcal/mol)

>  <smiles>  (2) 
CCc1nc(O)c(CC(=O)Nc2cccc(S(=O)(=O)N3CCCCC3)c2)s1

>  <score_type>  (2) 
oracle

>  <origin>  (2) 
adgpu

>  <m_score__min__energy>  (2) 
-13.74

>  <m_primary>  (2) 
energy

$$$$
2:0
     RDKit          3D

 54 57  0  0  0  0  0  0  0  0999 V2000
    3.1770   20.5370  -34.9580 C   0  0  0  0  0  0  0  0  0  0  0  0
    1.7500   20.8240  -35.9790 S   0  0  0  0  0  0  0  0  0  0  0  0
    1.8280   19.9550  -37.2010 O   0  0  0  0  0  0  0  0  0  0  0  0
    1.7160   22.2640  -36.4100 O   0  0  0  0  0  0  0  0  0  0  0  0
    0.2960   20.4470  -35.0620 C   0  0  0  0  0  0  0  0  0  0  0  0
   -0.5000   21.4760  -34.5400 C   0  0  0  0  0  0  0  0  0  0  0  0
   -1.6690   21.1730  -33.8360 C   0  0  0  0  0  0  0  0  0  0  0  0
   -2.0660   19.8370  -33.6620 C   0  0  0  0  0  0  0  0  0  0  0  0
   -3.3140   19.5240  -32.9320 C   0  0  0  0  0  0  0  0  0  0  0  0
   -4.2140   18.5400  -33.2890 C   0  0  0  0  0  0  0  0  0  0  0  0
   -5.2330   18.6610  -32.3640 C   0  0  0  0  0  0  0  0  0  0  0  0
   -6.4120   17.7430  -32.2300 C   0  0  0  0  0  0  0  0  0  0  0  0
   -7.6870   18.3810  -32.7970 C   0  0  0  0  0  0  0  0  0  0  0  0
   -7.8910   19.7780  -32.2780 C   0  0  0  0  0  0  0  0  0  0  0  0
   -8.8950   20.0570  -31.3380 C   0  0  0  0  0  0  0  0  0  0  0  0
   -9.0890   21.3740  -30.9140 C   0  0  0  0  0  0  0  0  0  0  0  0
   -8.2930   22.3960  -31.4340 C   0  0  0  0  0  0  0  0  0  0  0  0
   -7.3130   22.0850  -32.3800 C   0  0  0  0  0  0  0  0  0  0  0  0
   -7.1380   20.7960  -32.7780 N   0  0  0  0  0  0  0  0  0  0  0  0
   -4.9480   19.6420  -31.4860 N   0  0  0  0  0  0  0  0  0  0  0  0
   -3.7840   20.1670  -31.8350 N   0  0  0  0  0  0  0  0  0  0  0  0
   -3.1270   21.1750  -31.0510 C   0  0  0  0  0  0  0  0  0  0  0  0
   -1.7620   21.0630  -30.7340 C   0  0  0  0  0  0  0  0  0  0  0  0
   -1.1400   22.0350  -29.9460 C   0  0  0  0  0  0  0  0  0  0  0  0
   -1.8740   23.1210  -29.4530 C   0  0  0  0  0  0  0  0  0  0  0  0
   -1.0770   24.3380  -28.4640 S   0  0  0  0  0  0  0  0  0  0  0  0
   -1.5800   25.9120  -28.9700 N   0  0  0  0  0  0  0  0  0  0  0  0
    0.4130   24.2130  -28.6220 O   0  0  0  0  0  0  0  0  0  0  0  0
   -1.4280   24.1430  -27.0150 O   0  0  0  0  0  0  0  0  0  0  0  0
   -3.2390   23.2290  -29.7570 C   0  0  0  0  0  0  0  0  0  0  0  0
   -3.8630   22.2550  -30.5430 C   0  0  0  0  0  0  0  0  0  0  0  0
   -1.2580   18.8080  -34.1750 C   0  0  0  0  0  0  0  0  0  0  0  0
   -0.0880   19.1120  -34.8770 C   0  0  0  0  0  0  0  0  0  0  0  0
    2.8874   20.5952  -33.8984 H   0  0  0  0  0  0  0  0  0  0  0  0
    3.5861   19.5386  -35.1720 H   0  0  0  0  0  0  0  0  0  0  0  0
    3.9403   21.2996  -35.1720 H   0  0  0  0  0  0  0  0  0  0  0  0
   -0.2037   22.5254  -34.6849 H   0  0  0  0  0  0  0  0  0  0  0  0
   -2.2810   21.9849  -33.4162 H   0  0  0  0  0  0  0  0  0  0  0  0
   -4.1373   17.8234  -34.1200 H   0  0  0  0  0  0  0  0  0  0  0  0
   -6.2042   16.8117  -32.7773 H   0  0  0  0  0  0  0  0  0  0  0  0
   -6.5728   17.5406  -31.1608 H   0  0  0  0  0  0  0  0  0  0  0  0
   -7.6101   18.4163  -33.8937 H   0  0  0  0  0  0  0  0  0  0  0  0
   -8.5451   17.7699  -32.4803 H   0  0  0  0  0  0  0  0  0  0  0  0
   -9.5230   19.2468  -30.9390 H   0  0  0  0  0  0  0  0  0  0  0  0
   -9.8674   21.6051  -30.1719 H   0  0  0  0  0  0  0  0  0  0  0  0
   -8.4358   23.4351  -31.1025 H   0  0  0  0  0  0  0  0  0  0  0  0
   -6.6834   22.8819  -32.8027 H   0  0  0  0  0  0  0  0  0  0  0  0
   -1.1813   20.2068  -31.1077 H   0  0  0  0  0  0  0  0  0  0  0  0
   -0.0688   21.9467  -29.7118 H   0  0  0  0  0  0  0  0  0  0  0  0
   -1.2330   26.0410  -29.9480 H   0  0  0  0  0  0  0  0  0  0  0  0
   -3.8201   24.0819  -29.3763 H   0  0  0  0  0  0  0  0  0  0  0  0
   -4.9375   22.3366  -30.7640 H   0  0  0  0  0  0  0  0  0  0  0  0
   -1.5477   17.7577  -34.0233 H   0  0  0  0  0  0  0  0  0  0  0  0
    0.5330   18.3011  -35.2853 H   0  0  0  0  0  0  0  0  0  0  0  0
  1  2  1  0
  2  3  2  0
  2  4  2  0
  2  5  1  0
  5  6  2  0
  6  7  1  0
  7  8  2  0
  8  9  1  0
  9 10  2  0
 10 11  1  0
 11 12  1  0
 12 13  1  0
 13 14  1  0
 14 15  2  0
 15 16  1  0
 16 17  2  0
 17 18  1  0
 18 19  2  0
 11 20  2  0
 20 21  1  0
 21 22  1  0
 22 23  2  0
 23 24  1  0
 24 25  2  0
 25 26  1  0
 26 27  1  0
 26 28  2  0
 26 29  2  0
 25 30  1  0
 30 31  2  0
  8 32  1  0
 32 33  2  0
 33  5  1  0
 21  9  1  0
 31 22  1  0
 19 14  1  0
  1 34  1  0
  1 35  1  0
  1 36  1  0
  6 37  1  0
  7 38  1  0
 10 39  1  0
 12 40  1  0
 12 41  1  0
 13 42  1  0
 13 43  1  0
 15 44  1  0
 16 45  1  0
 17 46  1  0
 18 47  1  0
 23 48  1  0
 24 49  1  0
 27 50  1  0
 30 51  1  0
 31 52  1  0
 32 53  1  0
 33 54  1  0
M  CHG  1  27  -1
M  END
>  <UniqueID>  (3) 
3

>  <SMILES>  (3) 
CS(=O)(=O)c1ccc(-c2cc(CCc3ccccn3)nn2-c2ccc(S([NH-])(=O)=O)cc2)cc1

>  <Energy>  (3) 
90.0607887422067

>  <Genealogy>  (3) 
CS(=O)(=O)c1ccc(-c2cc(CCc3ccccn3)nn2-c2ccc(S([NH-])(=O)=O)cc2)cc1 (protonated)
CS(=O)(=O)c1ccc(-c2cc(CCc3ccccn3)nn2-c2ccc(S([NH-])(=O)=O)cc2)cc1 (3D coordinates assigned)
CS(=O)(=O)c1ccc(-c2cc(CCc3ccccn3)nn2-c2ccc(S([NH-])(=O)=O)cc2)cc1 (optimized conformer: 90.0607887422067 kcal/mol)

>  <smiles>  (3) 
CS(=O)(=O)c1ccc(-c2cc(CCc3ccccn3)nn2-c2ccc(S(N)(=O)=O)cc2)cc1

>  <score_type>  (3) 
oracle

>  <origin>  (3) 
adgpu

>  <m_score__min__energy>  (3) 
-11.970000000000001

>  <m_primary>  (3) 
energy

$$$$
3:0
     RDKit          3D

 52 55  0  0  0  0  0  0  0  0999 V2000
   -6.8580   15.7620  -34.2070 C   0  0  0  0  0  0  0  0  0  0  0  0
   -6.5120   16.5200  -33.0530 O   0  0  0  0  0  0  0  0  0  0  0  0
   -6.8660   17.8650  -32.8420 C   0  0  0  0  0  0  0  0  0  0  0  0
   -8.0040   18.2230  -32.0930 C   0  0  0  0  0  0  0  0  0  0  0  0
   -8.3330   19.5680  -31.9110 C   0  0  0  0  0  0  0  0  0  0  0  0
   -7.5440   20.5670  -32.4800 C   0  0  0  0  0  0  0  0  0  0  0  0
   -6.4150   20.2270  -33.2270 C   0  0  0  0  0  0  0  0  0  0  0  0
   -6.0590   18.8790  -33.4000 C   0  0  0  0  0  0  0  0  0  0  0  0
   -4.8570   18.5280  -34.2410 C   0  0  0  0  0  0  0  0  0  0  0  0
   -4.2510   17.2850  -33.7560 N   0  0  0  0  0  0  0  0  0  0  0  0
   -2.5220   17.3680  -33.9230 S   0  0  0  0  0  0  0  0  0  0  0  0
   -2.1570   17.1690  -35.3680 O   0  0  0  0  0  0  0  0  0  0  0  0
   -1.8930   16.2730  -33.1080 O   0  0  0  0  0  0  0  0  0  0  0  0
   -1.9180   18.9250  -33.3500 C   0  0  0  0  0  0  0  0  0  0  0  0
   -1.7520   19.9960  -34.2390 C   0  0  0  0  0  0  0  0  0  0  0  0
   -1.3140   21.2370  -33.7660 C   0  0  0  0  0  0  0  0  0  0  0  0
   -1.0350   21.4120  -32.4090 C   0  0  0  0  0  0  0  0  0  0  0  0
   -1.1690   20.3430  -31.5140 C   0  0  0  0  0  0  0  0  0  0  0  0
   -0.9110   20.5690  -30.1220 N   0  0  0  0  0  0  0  0  0  0  0  0
   -0.9430   21.8360  -29.4500 C   0  0  0  0  0  0  0  0  0  0  0  0
    0.0240   22.1760  -28.7140 O   0  0  0  0  0  0  0  0  0  0  0  0
   -2.0940   22.7580  -29.6540 C   0  0  0  0  0  0  0  0  0  0  0  0
   -3.3600   22.2330  -29.9720 C   0  0  0  0  0  0  0  0  0  0  0  0
   -4.4560   23.0840  -30.1530 C   0  0  0  0  0  0  0  0  0  0  0  0
   -5.7240   22.5790  -30.4790 C   0  0  0  0  0  0  0  0  0  0  0  0
   -6.7990   23.4560  -30.6600 C   0  0  0  0  0  0  0  0  0  0  0  0
   -6.6160   24.8350  -30.5140 C   0  0  0  0  0  0  0  0  0  0  0  0
   -5.3550   25.3450  -30.1880 C   0  0  0  0  0  0  0  0  0  0  0  0
   -4.2740   24.4740  -30.0090 C   0  0  0  0  0  0  0  0  0  0  0  0
   -3.0460   24.9670  -29.6990 N   0  0  0  0  0  0  0  0  0  0  0  0
   -1.9660   24.1600  -29.5190 C   0  0  0  0  0  0  0  0  0  0  0  0
   -0.8600   24.6870  -29.2290 O   0  0  0  0  0  0  0  0  0  0  0  0
   -1.6230   19.1010  -31.9900 C   0  0  0  0  0  0  0  0  0  0  0  0
   -7.2963   14.8018  -33.8972 H   0  0  0  0  0  0  0  0  0  0  0  0
   -7.5896   16.3221  -34.8078 H   0  0  0  0  0  0  0  0  0  0  0  0
   -5.9555   15.5762  -34.8078 H   0  0  0  0  0  0  0  0  0  0  0  0
   -8.6363   17.4397  -31.6495 H   0  0  0  0  0  0  0  0  0  0  0  0
   -9.2177   19.8403  -31.3167 H   0  0  0  0  0  0  0  0  0  0  0  0
   -7.8117   21.6247  -32.3400 H   0  0  0  0  0  0  0  0  0  0  0  0
   -5.8012   21.0181  -33.6823 H   0  0  0  0  0  0  0  0  0  0  0  0
   -5.1704   18.3964  -35.2872 H   0  0  0  0  0  0  0  0  0  0  0  0
   -4.1186   19.3404  -34.1719 H   0  0  0  0  0  0  0  0  0  0  0  0
   -4.4540   17.1820  -32.7360 H   0  0  0  0  0  0  0  0  0  0  0  0
   -1.9664   19.8602  -35.3093 H   0  0  0  0  0  0  0  0  0  0  0  0
   -1.1889   22.0774  -34.4646 H   0  0  0  0  0  0  0  0  0  0  0  0
   -0.7079   22.3955  -32.0406 H   0  0  0  0  0  0  0  0  0  0  0  0
   -3.4892   21.1459  -30.0791 H   0  0  0  0  0  0  0  0  0  0  0  0
   -5.8726   21.4950  -30.5921 H   0  0  0  0  0  0  0  0  0  0  0  0
   -7.7920   23.0595  -30.9181 H   0  0  0  0  0  0  0  0  0  0  0  0
   -7.4652   25.5196  -30.6558 H   0  0  0  0  0  0  0  0  0  0  0  0
   -5.2130   26.4296  -30.0724 H   0  0  0  0  0  0  0  0  0  0  0  0
   -1.7479   18.2609  -31.2910 H   0  0  0  0  0  0  0  0  0  0  0  0
  1  2  1  0
  2  3  1  0
  3  4  2  0
  4  5  1  0
  5  6  2  0
  6  7  1  0
  7  8  2  0
  8  9  1  0
  9 10  1  0
 10 11  1  0
 11 12  2  0
 11 13  2  0
 11 14  1  0
 14 15  2  0
 15 16  1  0
 16 17  2  0
 17 18  1  0
 18 19  1  0
 19 20  1  0
 20 21  2  0
 20 22  1  0
 22 23  2  0
 23 24  1  0
 24 25  2  0
 25 26  1  0
 26 27  2  0
 27 28  1  0
 28 29  2  0
 29 30  1  0
 30 31  1  0
 31 32  2  0
 18 33  2  0
  8  3  1  0
 33 14  1  0
 31 22  1  0
 29 24  1  0
  1 34  1  0
  1 35  1  0
  1 36  1  0
  4 37  1  0
  5 38  1  0
  6 39  1  0
  7 40  1  0
  9 41  1  0
  9 42  1  0
 10 43  1  0
 15 44  1  0
 16 45  1  0
 17 46  1  0
 23 47  1  0
 25 48  1  0
 26 49  1  0
 27 50  1  0
 28 51  1  0
 33 52  1  0
M  CHG  2  19  -1  30  -1
M  END
>  <UniqueID>  (4) 
4

>  <SMILES>  (4) 
COc1ccccc1CNS(=O)(=O)c1cccc([N-]C(=O)c2cc3ccccc3[n-]c2=O)c1

>  <Energy>  (4) 
61.33374230394577

>  <Genealogy>  (4) 
COc1ccccc1CNS(=O)(=O)c1cccc([N-]C(=O)c2cc3ccccc3[n-]c2=O)c1 (protonated)
COc1ccccc1CNS(=O)(=O)c1cccc([N-]C(=O)c2cc3ccccc3[n-]c2=O)c1 (3D coordinates assigned)
COc1ccccc1CNS(=O)(=O)c1cccc([N-]C(=O)c2cc3ccccc3[n-]c2=O)c1 (optimized conformer: 61.33374230394577 kcal/mol)

>  <smiles>  (4) 
COc1ccccc1CNS(=O)(=O)c1cccc(NC(=O)c2cc3ccccc3[nH]c2=O)c1

>  <score_type>  (4) 
oracle

>  <origin>  (4) 
adgpu

>  <m_score__min__energy>  (4) 
-11.83

>  <m_primary>  (4) 
energy

$$$$
4:0
     RDKit          3D

 52 55  0  0  0  0  0  0  0  0999 V2000
   -6.9290   15.8540  -34.1800 C   0  0  0  0  0  0  0  0  0  0  0  0
   -5.4970   16.3030  -34.2210 C   0  0  0  0  0  0  0  0  0  0  0  0
   -4.4860   15.3940  -34.5620 C   0  0  0  0  0  0  0  0  0  0  0  0
   -3.1450   15.8000  -34.5790 C   0  0  0  0  0  0  0  0  0  0  0  0
   -2.0650   14.8140  -34.9120 C   0  0  0  0  0  0  0  0  0  0  0  0
   -2.8130   17.1120  -34.2100 C   0  0  0  0  0  0  0  0  0  0  0  0
   -3.8150   18.0310  -33.8480 C   0  0  0  0  0  0  0  0  0  0  0  0
   -3.4580   19.4200  -33.4590 C   0  0  0  0  0  0  0  0  0  0  0  0
   -2.4400   20.1820  -34.0140 C   0  0  0  0  0  0  0  0  0  0  0  0
   -2.4710   21.4050  -33.3790 C   0  0  0  0  0  0  0  0  0  0  0  0
   -3.4930   21.3370  -32.4530 C   0  0  0  0  0  0  0  0  0  0  0  0
   -3.9070   22.4340  -31.5600 C   0  0  0  0  0  0  0  0  0  0  0  0
   -4.7340   23.2890  -31.9790 O   0  0  0  0  0  0  0  0  0  0  0  0
   -3.3830   22.5480  -30.2280 N   0  0  0  0  0  0  0  0  0  0  0  0
   -1.9260   22.5850  -30.0230 C   0  0  0  0  0  0  0  0  0  0  0  0
   -1.5640   22.9400  -28.5760 C   0  0  0  0  0  0  0  0  0  0  0  0
   -2.3810   24.0690  -28.1100 N   0  0  0  0  0  0  0  0  0  0  0  0
   -1.7890   25.1080  -27.3080 C   0  0  0  0  0  0  0  0  0  0  0  0
   -1.7480   24.9750  -25.9080 C   0  0  0  0  0  0  0  0  0  0  0  0
   -1.1830   25.9800  -25.1180 C   0  0  0  0  0  0  0  0  0  0  0  0
   -0.6550   27.1270  -25.7140 C   0  0  0  0  0  0  0  0  0  0  0  0
   -0.6860   27.2690  -27.1040 C   0  0  0  0  0  0  0  0  0  0  0  0
   -1.2450   26.2640  -27.9030 C   0  0  0  0  0  0  0  0  0  0  0  0
   -1.2380   26.4140  -29.2860 O   0  0  0  0  0  0  0  0  0  0  0  0
   -3.8250   24.1100  -28.3900 C   0  0  0  0  0  0  0  0  0  0  0  0
   -4.2880   22.8430  -29.1110 C   0  0  0  0  0  0  0  0  0  0  0  0
   -4.0980   20.1340  -32.5090 N   0  0  0  0  0  0  0  0  0  0  0  0
   -5.1570   17.6130  -33.8550 C   0  0  0  0  0  0  0  0  0  0  0  0
   -7.2517   15.7528  -33.1333 H   0  0  0  0  0  0  0  0  0  0  0  0
   -7.5610   16.5971  -34.6883 H   0  0  0  0  0  0  0  0  0  0  0  0
   -7.0235   14.8831  -34.6883 H   0  0  0  0  0  0  0  0  0  0  0  0
   -4.7467   14.3564  -34.8176 H   0  0  0  0  0  0  0  0  0  0  0  0
   -1.6309   14.4177  -33.9822 H   0  0  0  0  0  0  0  0  0  0  0  0
   -2.4916   13.9873  -35.4990 H   0  0  0  0  0  0  0  0  0  0  0  0
   -1.2804   15.3139  -35.4990 H   0  0  0  0  0  0  0  0  0  0  0  0
   -1.7586   17.4255  -34.2036 H   0  0  0  0  0  0  0  0  0  0  0  0
   -1.7436   19.8707  -34.8066 H   0  0  0  0  0  0  0  0  0  0  0  0
   -1.8123   22.2646  -33.5717 H   0  0  0  0  0  0  0  0  0  0  0  0
   -1.5074   21.5964  -30.2626 H   0  0  0  0  0  0  0  0  0  0  0  0
   -1.5075   23.3611  -30.6807 H   0  0  0  0  0  0  0  0  0  0  0  0
   -1.7480   22.0680  -27.9312 H   0  0  0  0  0  0  0  0  0  0  0  0
   -0.5021   23.2233  -28.5312 H   0  0  0  0  0  0  0  0  0  0  0  0
   -2.1632   24.0744  -25.4322 H   0  0  0  0  0  0  0  0  0  0  0  0
   -1.1542   25.8671  -24.0242 H   0  0  0  0  0  0  0  0  0  0  0  0
   -0.2148   27.9185  -25.0897 H   0  0  0  0  0  0  0  0  0  0  0  0
   -0.2699   28.1733  -27.5720 H   0  0  0  0  0  0  0  0  0  0  0  0
   -4.3717   24.2015  -27.4399 H   0  0  0  0  0  0  0  0  0  0  0  0
   -4.0279   24.9733  -29.0408 H   0  0  0  0  0  0  0  0  0  0  0  0
   -4.2843   21.9992  -28.4053 H   0  0  0  0  0  0  0  0  0  0  0  0
   -5.3057   22.9971  -29.4990 H   0  0  0  0  0  0  0  0  0  0  0  0
   -4.9120   19.8280  -31.9340 H   0  0  0  0  0  0  0  0  0  0  0  0
   -5.9490   18.3213  -33.5703 H   0  0  0  0  0  0  0  0  0  0  0  0
  1  2  1  0
  2  3  2  0
  3  4  1  0
  4  5  1  0
  4  6  2  0
  6  7  1  0
  7  8  1  0
  8  9  2  0
  9 10  1  0
 10 11  2  0
 11 12  1  0
 12 13  2  0
 12 14  1  0
 14 15  1  0
 15 16  1  0
 16 17  1  0
 17 18  1  0
 18 19  2  0
 19 20  1  0
 20 21  2  0
 21 22  1  0
 22 23  2  0
 23 24  1  0
 17 25  1  0
 25 26  1  0
 11 27  1  0
  7 28  2  0
 28  2  1  0
 27  8  1  0
 26 14  1  0
 23 18  1  0
  1 29  1  0
  1 30  1  0
  1 31  1  0
  3 32  1  0
  5 33  1  0
  5 34  1  0
  5 35  1  0
  6 36  1  0
  9 37  1  0
 10 38  1  0
 15 39  1  0
 15 40  1  0
 16 41  1  0
 16 42  1  0
 19 43  1  0
 20 44  1  0
 21 45  1  0
 22 46  1  0
 25 47  1  0
 25 48  1  0
 26 49  1  0
 26 50  1  0
 27 51  1  0
 28 52  1  0
M  CHG  1  24  -1
M  END
>  <UniqueID>  (5) 
5

>  <SMILES>  (5) 
Cc1cc(C)cc(-c2ccc(C(=O)N3CCN(c4ccccc4[O-])CC3)[nH]2)c1

>  <Energy>  (5) 
90.76110358947533

>  <Genealogy>  (5) 
Cc1cc(C)cc(-c2ccc(C(=O)N3CCN(c4ccccc4[O-])CC3)[nH]2)c1 (protonated)
Cc1cc(C)cc(-c2ccc(C(=O)N3CCN(c4ccccc4[O-])CC3)[nH]2)c1 (3D coordinates assigned)
Cc1cc(C)cc(-c2ccc(C(=O)N3CCN(c4ccccc4[O-])CC3)[nH]2)c1 (nonaromatic ring conformer: 90.76110358947533 kcal/mol)

>  <smiles>  (5) 
Cc1cc(C)cc(-c2ccc(C(=O)N3CCN(c4ccccc4O)CC3)[nH]2)c1

>  <score_type>  (5) 
oracle

>  <origin>  (5) 
adgpu

>  <m_score__min__energy>  (5) 
-11.4

>  <m_primary>  (5) 
energy

$$$$
5:0
     RDKit          3D

 53 56  0  0  0  0  0  0  0  0999 V2000
   -5.7200   26.2870  -31.2180 O   0  0  0  0  0  0  0  0  0  0  0  0
   -5.2920   25.1480  -30.3350 S   0  0  0  0  0  0  0  0  0  0  0  0
   -5.6660   25.4590  -28.9120 O   0  0  0  0  0  0  0  0  0  0  0  0
   -3.5710   24.9570  -30.4420 N   0  0  0  0  0  0  0  0  0  0  0  0
   -2.7800   24.1790  -29.5330 C   0  0  0  0  0  0  0  0  0  0  0  0
   -3.1490   22.8750  -29.1590 C   0  0  0  0  0  0  0  0  0  0  0  0
   -2.3430   22.1250  -28.2900 C   0  0  0  0  0  0  0  0  0  0  0  0
   -1.1360   22.6750  -27.8100 C   0  0  0  0  0  0  0  0  0  0  0  0
   -0.7900   23.9890  -28.1540 C   0  0  0  0  0  0  0  0  0  0  0  0
   -1.6050   24.7350  -29.0090 C   0  0  0  0  0  0  0  0  0  0  0  0
   -1.2370   26.0340  -29.3440 O   0  0  0  0  0  0  0  0  0  0  0  0
   -0.2660   21.9030  -26.8470 C   0  0  0  0  0  0  0  0  0  0  0  0
   -0.5090   20.4550  -26.9140 N   0  0  0  0  0  0  0  0  0  0  0  0
   -1.9400   20.1640  -26.7640 C   0  0  0  0  0  0  0  0  0  0  0  0
   -2.7380   20.7110  -27.9540 C   0  0  0  0  0  0  0  0  0  0  0  0
   -6.0830   23.6740  -30.8850 C   0  0  0  0  0  0  0  0  0  0  0  0
   -5.6850   23.0810  -32.0890 C   0  0  0  0  0  0  0  0  0  0  0  0
   -6.2680   21.8850  -32.5120 C   0  0  0  0  0  0  0  0  0  0  0  0
   -7.2630   21.2720  -31.7380 C   0  0  0  0  0  0  0  0  0  0  0  0
   -8.0040   19.7620  -32.2760 S   0  0  0  0  0  0  0  0  0  0  0  0
   -8.9740   20.0550  -33.3870 O   0  0  0  0  0  0  0  0  0  0  0  0
   -8.7730   19.1540  -31.1350 O   0  0  0  0  0  0  0  0  0  0  0  0
   -6.8040   18.6190  -32.8340 N   0  0  0  0  0  0  0  0  0  0  0  0
   -5.6830   18.4880  -31.8680 C   0  0  0  0  0  0  0  0  0  0  0  0
   -4.4190   19.2370  -32.3100 C   0  0  0  0  0  0  0  0  0  0  0  0
   -3.9270   18.7430  -33.6820 C   0  0  0  0  0  0  0  0  0  0  0  0
   -5.0730   18.2530  -34.5840 C   0  0  0  0  0  0  0  0  0  0  0  0
   -6.3920   18.9410  -34.2190 C   0  0  0  0  0  0  0  0  0  0  0  0
   -7.6650   21.8690  -30.5340 C   0  0  0  0  0  0  0  0  0  0  0  0
   -7.0790   23.0650  -30.1100 C   0  0  0  0  0  0  0  0  0  0  0  0
   -4.0791   22.4385  -29.5518 H   0  0  0  0  0  0  0  0  0  0  0  0
    0.1295   24.4359  -27.7480 H   0  0  0  0  0  0  0  0  0  0  0  0
    0.7891   22.0963  -27.0905 H   0  0  0  0  0  0  0  0  0  0  0  0
   -0.5111   22.2387  -25.8286 H   0  0  0  0  0  0  0  0  0  0  0  0
   -0.1830   20.0990  -27.8450 H   0  0  0  0  0  0  0  0  0  0  0  0
   -2.0817   19.0747  -26.7057 H   0  0  0  0  0  0  0  0  0  0  0  0
   -2.3025   20.6487  -25.8455 H   0  0  0  0  0  0  0  0  0  0  0  0
   -2.5536   20.0721  -28.8302 H   0  0  0  0  0  0  0  0  0  0  0  0
   -3.8035   20.7095  -27.6807 H   0  0  0  0  0  0  0  0  0  0  0  0
   -4.9092   23.5596  -32.7047 H   0  0  0  0  0  0  0  0  0  0  0  0
   -5.9453   21.4220  -33.4562 H   0  0  0  0  0  0  0  0  0  0  0  0
   -6.0079   18.8912  -30.8975 H   0  0  0  0  0  0  0  0  0  0  0  0
   -5.4269   17.4201  -31.8045 H   0  0  0  0  0  0  0  0  0  0  0  0
   -4.6440   20.3117  -32.3758 H   0  0  0  0  0  0  0  0  0  0  0  0
   -3.6276   19.0495  -31.5694 H   0  0  0  0  0  0  0  0  0  0  0  0
   -3.4098   19.5709  -34.1891 H   0  0  0  0  0  0  0  0  0  0  0  0
   -3.2554   17.8898  -33.5060 H   0  0  0  0  0  0  0  0  0  0  0  0
   -4.8275   18.4791  -35.6322 H   0  0  0  0  0  0  0  0  0  0  0  0
   -5.1922   17.1689  -34.4411 H   0  0  0  0  0  0  0  0  0  0  0  0
   -6.2651   20.0298  -34.3107 H   0  0  0  0  0  0  0  0  0  0  0  0
   -7.1723   18.5799  -34.9051 H   0  0  0  0  0  0  0  0  0  0  0  0
   -8.4449   21.3938  -29.9208 H   0  0  0  0  0  0  0  0  0  0  0  0
   -7.4004   23.5292  -29.1659 H   0  0  0  0  0  0  0  0  0  0  0  0
  1  2  2  0
  2  3  2  0
  2  4  1  0
  4  5  1  0
  5  6  2  0
  6  7  1  0
  7  8  2  0
  8  9  1  0
  9 10  2  0
 10 11  1  0
  8 12  1  0
 12 13  1  0
 13 14  1  0
 14 15  1  0
  2 16  1  0
 16 17  2  0
 17 18  1  0
 18 19  2  0
 19 20  1  0
 20 21  2  0
 20 22  2  0
 20 23  1  0
 23 24  1  0
 24 25  1  0
 25 26  1  0
 26 27  1  0
 27 28  1  0
 19 29  1  0
 29 30  2  0
 10  5  1  0
 30 16  1  0
 15  7  1  0
 28 23  1  0
  6 31  1  0
  9 32  1  0
 12 33  1  0
 12 34  1  0
 13 35  1  0
 14 36  1  0
 14 37  1  0
 15 38  1  0
 15 39  1  0
 17 40  1  0
 18 41  1  0
 24 42  1  0
 24 43  1  0
 25 44  1  0
 25 45  1  0
 26 46  1  0
 26 47  1  0
 27 48  1  0
 27 49  1  0
 28 50  1  0
 28 51  1  0
 29 52  1  0
 30 53  1  0
M  CHG  2   4  -1  11  -1
M  END
>  <UniqueID>  (6) 
6

>  <SMILES>  (6) 
O=S(=O)([N-]c1cc2c(cc1[O-])CNCC2)c1ccc(S(=O)(=O)N2CCCCC2)cc1

>  <Energy>  (6) 
64.89428194929982

>  <Genealogy>  (6) 
O=S(=O)([N-]c1cc2c(cc1[O-])CNCC2)c1ccc(S(=O)(=O)N2CCCCC2)cc1 (protonated)
O=S(=O)([N-]c1cc2c(cc1[O-])CNCC2)c1ccc(S(=O)(=O)N2CCCCC2)cc1 (3D coordinates assigned)
O=S(=O)([N-]c1cc2c(cc1[O-])CNCC2)c1ccc(S(=O)(=O)N2CCCCC2)cc1 (nonaromatic ring conformer: 64.89428194929982 kcal/mol)

>  <smiles>  (6) 
O=S(=O)(Nc1cc2c(cc1O)CNCC2)c1ccc(S(=O)(=O)N2CCCCC2)cc1

>  <score_type>  (6) 
oracle

>  <origin>  (6) 
adgpu

>  <m_score__min__energy>  (6) 
-15.380000000000001

>  <m_primary>  (6) 
energy

$$$$
6:0
     RDKit          3D

 53 55  0  0  0  0  0  0  0  0999 V2000
   -8.1470   20.4200  -31.8100 C   0  0  0  0  0  0  0  0  0  0  0  0
   -7.6580   19.0770  -32.2620 C   0  0  0  0  0  0  0  0  0  0  0  0
   -8.4900   18.1320  -32.3260 O   0  0  0  0  0  0  0  0  0  0  0  0
   -6.2410   18.8280  -32.6400 C   0  0  0  0  0  0  0  0  0  0  0  0
   -5.7510   17.5090  -32.6020 C   0  0  0  0  0  0  0  0  0  0  0  0
   -4.4320   17.2240  -32.9600 C   0  0  0  0  0  0  0  0  0  0  0  0
   -3.5730   18.2470  -33.3800 C   0  0  0  0  0  0  0  0  0  0  0  0
   -2.1940   17.9280  -33.8170 C   0  0  0  0  0  0  0  0  0  0  0  0
   -2.0180   17.3260  -34.9110 O   0  0  0  0  0  0  0  0  0  0  0  0
   -1.0460   18.2550  -33.0200 N   0  0  0  0  0  0  0  0  0  0  0  0
   -1.0540   18.9990  -31.7920 C   0  0  0  0  0  0  0  0  0  0  0  0
   -0.4130   18.4640  -30.6710 C   0  0  0  0  0  0  0  0  0  0  0  0
   -0.4390   19.1430  -29.4520 C   0  0  0  0  0  0  0  0  0  0  0  0
   -1.1050   20.3720  -29.3340 C   0  0  0  0  0  0  0  0  0  0  0  0
   -1.1940   21.0010  -28.0440 N   0  0  0  0  0  0  0  0  0  0  0  0
   -2.3840   20.8350  -27.2120 C   0  0  0  0  0  0  0  0  0  0  0  0
    0.1430   21.9230  -27.4310 S   0  0  0  0  0  0  0  0  0  0  0  0
   -0.3210   22.7250  -25.9120 C   0  0  0  0  0  0  0  0  0  0  0  0
    1.3130   21.0150  -27.1750 O   0  0  0  0  0  0  0  0  0  0  0  0
    0.5450   22.9560  -28.4460 O   0  0  0  0  0  0  0  0  0  0  0  0
   -1.7150   20.9450  -30.4740 C   0  0  0  0  0  0  0  0  0  0  0  0
   -2.4000   22.2570  -30.4180 C   0  0  0  0  0  0  0  0  0  0  0  0
   -3.6750   22.4240  -30.9800 C   0  0  0  0  0  0  0  0  0  0  0  0
   -4.3190   23.6690  -30.9310 C   0  0  0  0  0  0  0  0  0  0  0  0
   -5.6150   23.8200  -31.5200 N   0  0  0  0  0  0  0  0  0  0  0  0
   -3.6850   24.7540  -30.3000 C   0  0  0  0  0  0  0  0  0  0  0  0
   -4.3090   25.9960  -30.2380 O   0  0  0  0  0  0  0  0  0  0  0  0
   -2.4190   24.5870  -29.7260 C   0  0  0  0  0  0  0  0  0  0  0  0
   -1.7900   25.6560  -29.0990 O   0  0  0  0  0  0  0  0  0  0  0  0
   -1.7810   23.3450  -29.7810 C   0  0  0  0  0  0  0  0  0  0  0  0
   -1.6670   20.2580  -31.6980 C   0  0  0  0  0  0  0  0  0  0  0  0
   -4.0460   19.5680  -33.4020 C   0  0  0  0  0  0  0  0  0  0  0  0
   -5.3690   19.8610  -33.0510 C   0  0  0  0  0  0  0  0  0  0  0  0
   -5.8010   21.1790  -33.1480 O   0  0  0  0  0  0  0  0  0  0  0  0
   -8.1596   20.4547  -30.7106 H   0  0  0  0  0  0  0  0  0  0  0  0
   -7.4762   21.2027  -32.1938 H   0  0  0  0  0  0  0  0  0  0  0  0
   -9.1640   20.5881  -32.1938 H   0  0  0  0  0  0  0  0  0  0  0  0
   -6.4162   16.6919  -32.2860 H   0  0  0  0  0  0  0  0  0  0  0  0
   -4.0648   16.1882  -32.9118 H   0  0  0  0  0  0  0  0  0  0  0  0
    0.1150   17.5022  -30.7501 H   0  0  0  0  0  0  0  0  0  0  0  0
    0.0671   18.7108  -28.5762 H   0  0  0  0  0  0  0  0  0  0  0  0
   -2.0978   20.8749  -26.1506 H   0  0  0  0  0  0  0  0  0  0  0  0
   -3.0990   21.6421  -27.4296 H   0  0  0  0  0  0  0  0  0  0  0  0
   -2.8508   19.8630  -27.4296 H   0  0  0  0  0  0  0  0  0  0  0  0
    0.0268   22.1239  -25.0589 H   0  0  0  0  0  0  0  0  0  0  0  0
    0.1391   23.7232  -25.8690 H   0  0  0  0  0  0  0  0  0  0  0  0
   -1.4157   22.8237  -25.8690 H   0  0  0  0  0  0  0  0  0  0  0  0
   -4.1737   21.5709  -31.4632 H   0  0  0  0  0  0  0  0  0  0  0  0
   -6.0330   23.0700  -32.1140 H   0  0  0  0  0  0  0  0  0  0  0  0
   -6.1740   24.6890  -31.3640 H   0  0  0  0  0  0  0  0  0  0  0  0
   -0.7889   23.2188  -29.3230 H   0  0  0  0  0  0  0  0  0  0  0  0
   -2.1153   20.7122  -32.5939 H   0  0  0  0  0  0  0  0  0  0  0  0
   -3.3691   20.3828  -33.6986 H   0  0  0  0  0  0  0  0  0  0  0  0
  1  2  1  0
  2  3  2  0
  2  4  1  0
  4  5  2  0
  5  6  1  0
  6  7  2  0
  7  8  1  0
  8  9  2  0
  8 10  1  0
 10 11  1  0
 11 12  2  0
 12 13  1  0
 13 14  2  0
 14 15  1  0
 15 16  1  0
 15 17  1  0
 17 18  1  0
 17 19  2  0
 17 20  2  0
 14 21  1  0
 21 22  1  0
 22 23  2  0
 23 24  1  0
 24 25  1  0
 24 26  2  0
 26 27  1  0
 26 28  1  0
 28 29  1  0
 28 30  2  0
 21 31  2  0
  7 32  1  0
 32 33  2  0
 33 34  1  0
 33  4  1  0
 31 11  1  0
 30 22  1  0
  1 35  1  0
  1 36  1  0
  1 37  1  0
  5 38  1  0
  6 39  1  0
 12 40  1  0
 13 41  1  0
 16 42  1  0
 16 43  1  0
 16 44  1  0
 18 45  1  0
 18 46  1  0
 18 47  1  0
 23 48  1  0
 25 49  1  0
 25 50  1  0
 30 51  1  0
 31 52  1  0
 32 53  1  0
M  CHG  4  10  -1  27  -1  29  -1  34  -1
M  END
>  <UniqueID>  (7) 
7

>  <SMILES>  (7) 
CC(=O)c1ccc(C(=O)[N-]c2ccc(N(C)S(C)(=O)=O)c(-c3cc(N)c([O-])c([O-])c3)c2)cc1[O-]

>  <Energy>  (7) 
70.63439464977179

>  <Genealogy>  (7) 
CC(=O)c1ccc(C(=O)[N-]c2ccc(N(C)S(C)(=O)=O)c(-c3cc(N)c([O-])c([O-])c3)c2)cc1[O-] (protonated)
CC(=O)c1ccc(C(=O)[N-]c2ccc(N(C)S(C)(=O)=O)c(-c3cc(N)c([O-])c([O-])c3)c2)cc1[O-] (3D coordinates assigned)
CC(=O)c1ccc(C(=O)[N-]c2ccc(N(C)S(C)(=O)=O)c(-c3cc(N)c([O-])c([O-])c3)c2)cc1[O-] (optimized conformer: 70.63439464977179 kcal/mol)

>  <smiles>  (7) 
CC(=O)c1ccc(C(=O)Nc2ccc(N(C)S(C)(=O)=O)c(-c3cc(N)c(O)c(O)c3)c2)cc1O

>  <score_type>  (7) 
oracle

>  <origin>  (7) 
adgpu

>  <m_score__min__energy>  (7) 
-12.789999999999999

>  <m_primary>  (7) 
energy

$$$$
7:0
     RDKit          3D

 55 58  0  0  0  0  0  0  0  0999 V2000
   -9.4900   21.5820  -30.3470 C   0  0  0  0  0  0  0  0  0  0  0  0
   -8.4570   21.6450  -31.3740 N   0  0  0  0  0  0  0  0  0  0  0  0
   -7.4980   22.6950  -31.5240 C   0  0  0  0  0  0  0  0  0  0  0  0
   -7.6050   23.8350  -30.9990 O   0  0  0  0  0  0  0  0  0  0  0  0
   -6.3800   22.2390  -32.3360 C   0  0  0  0  0  0  0  0  0  0  0  0
   -5.3620   22.9010  -32.6710 O   0  0  0  0  0  0  0  0  0  0  0  0
   -6.6690   20.8500  -32.6520 C   0  0  0  0  0  0  0  0  0  0  0  0
   -5.9180   19.9120  -33.3560 C   0  0  0  0  0  0  0  0  0  0  0  0
   -6.4270   18.6030  -33.4670 C   0  0  0  0  0  0  0  0  0  0  0  0
   -5.5160   17.3570  -34.3150 S   0  0  0  0  0  0  0  0  0  0  0  0
   -6.3440   16.1050  -34.3770 O   0  0  0  0  0  0  0  0  0  0  0  0
   -5.2060   17.8000  -35.7180 O   0  0  0  0  0  0  0  0  0  0  0  0
   -4.0400   17.0310  -33.4510 N   0  0  0  0  0  0  0  0  0  0  0  0
   -2.8990   17.7750  -34.0170 C   0  0  0  0  0  0  0  0  0  0  0  0
   -1.6020   17.5600  -33.1850 C   0  0  0  0  0  0  0  0  0  0  0  0
   -1.4650   18.5530  -32.0220 C   0  0  0  0  0  0  0  0  0  0  0  0
   -1.6720   19.9410  -32.4640 N   0  0  0  0  0  0  0  0  0  0  0  0
   -1.5440   21.0120  -31.5130 C   0  0  0  0  0  0  0  0  0  0  0  0
   -2.5480   21.9880  -31.4010 C   0  0  0  0  0  0  0  0  0  0  0  0
   -2.4290   23.0210  -30.4670 C   0  0  0  0  0  0  0  0  0  0  0  0
   -1.3050   23.0940  -29.6360 C   0  0  0  0  0  0  0  0  0  0  0  0
   -1.1750   24.3890  -28.4500 S   0  0  0  0  0  0  0  0  0  0  0  0
   -1.9040   23.8620  -26.9160 C   0  0  0  0  0  0  0  0  0  0  0  0
   -1.8890   25.6100  -28.9580 O   0  0  0  0  0  0  0  0  0  0  0  0
    0.2700   24.7350  -28.2190 O   0  0  0  0  0  0  0  0  0  0  0  0
   -0.3050   22.1180  -29.7360 C   0  0  0  0  0  0  0  0  0  0  0  0
   -0.4240   21.0830  -30.6700 C   0  0  0  0  0  0  0  0  0  0  0  0
   -2.1370   20.2090  -33.8310 C   0  0  0  0  0  0  0  0  0  0  0  0
   -3.2940   19.2670  -34.1570 C   0  0  0  0  0  0  0  0  0  0  0  0
   -7.6590   18.2690  -32.8610 C   0  0  0  0  0  0  0  0  0  0  0  0
   -8.3940   19.2330  -32.1510 C   0  0  0  0  0  0  0  0  0  0  0  0
   -7.8790   20.5280  -32.0620 C   0  0  0  0  0  0  0  0  0  0  0  0
   -9.0206   21.6106  -29.3526 H   0  0  0  0  0  0  0  0  0  0  0  0
  -10.1690   22.4404  -30.4568 H   0  0  0  0  0  0  0  0  0  0  0  0
  -10.0597   20.6474  -30.4568 H   0  0  0  0  0  0  0  0  0  0  0  0
   -4.9551   20.1853  -33.8123 H   0  0  0  0  0  0  0  0  0  0  0  0
   -3.8640   15.9990  -33.4790 H   0  0  0  0  0  0  0  0  0  0  0  0
   -2.6633   17.3876  -35.0192 H   0  0  0  0  0  0  0  0  0  0  0  0
   -1.6134   16.5393  -32.7751 H   0  0  0  0  0  0  0  0  0  0  0  0
   -0.7477   17.7219  -33.8588 H   0  0  0  0  0  0  0  0  0  0  0  0
   -2.2136   18.3081  -31.2541 H   0  0  0  0  0  0  0  0  0  0  0  0
   -0.4449   18.4701  -31.6189 H   0  0  0  0  0  0  0  0  0  0  0  0
   -3.4332   21.9390  -32.0522 H   0  0  0  0  0  0  0  0  0  0  0  0
   -3.2215   23.7794  -30.3847 H   0  0  0  0  0  0  0  0  0  0  0  0
   -1.3293   24.2775  -26.0751 H   0  0  0  0  0  0  0  0  0  0  0  0
   -2.9430   24.2191  -26.8620 H   0  0  0  0  0  0  0  0  0  0  0  0
   -1.8906   22.7634  -26.8620 H   0  0  0  0  0  0  0  0  0  0  0  0
    0.5758   22.1654  -29.0787 H   0  0  0  0  0  0  0  0  0  0  0  0
    0.3651   20.3202  -30.7441 H   0  0  0  0  0  0  0  0  0  0  0  0
   -2.4783   21.2520  -33.9065 H   0  0  0  0  0  0  0  0  0  0  0  0
   -1.3137   20.0458  -34.5420 H   0  0  0  0  0  0  0  0  0  0  0  0
   -4.1259   19.4782  -33.4690 H   0  0  0  0  0  0  0  0  0  0  0  0
   -3.5827   19.4405  -35.2042 H   0  0  0  0  0  0  0  0  0  0  0  0
   -8.0468   17.2431  -32.9461 H   0  0  0  0  0  0  0  0  0  0  0  0
   -9.3521   18.9740  -31.6766 H   0  0  0  0  0  0  0  0  0  0  0  0
  1  2  1  0
  2  3  1  0
  3  4  2  0
  3  5  1  0
  5  6  2  0
  5  7  1  0
  7  8  2  0
  8  9  1  0
  9 10  1  0
 10 11  2  0
 10 12  2  0
 10 13  1  0
 13 14  1  0
 14 15  1  0
 15 16  1  0
 16 17  1  0
 17 18  1  0
 18 19  2  0
 19 20  1  0
 20 21  2  0
 21 22  1  0
 22 23  1  0
 22 24  2  0
 22 25  2  0
 21 26  1  0
 26 27  2  0
 17 28  1  0
 28 29  1  0
  9 30  2  0
 30 31  1  0
 31 32  2  0
 32  2  1  0
 32  7  1  0
 29 14  1  0
 27 18  1  0
  1 33  1  0
  1 34  1  0
  1 35  1  0
  8 36  1  0
 13 37  1  0
 14 38  1  0
 15 39  1  0
 15 40  1  0
 16 41  1  0
 16 42  1  0
 19 43  1  0
 20 44  1  0
 23 45  1  0
 23 46  1  0
 23 47  1  0
 26 48  1  0
 27 49  1  0
 28 50  1  0
 28 51  1  0
 29 52  1  0
 29 53  1  0
 30 54  1  0
 31 55  1  0
M  END
>  <UniqueID>  (8) 
8

>  <SMILES>  (8) 
CN1C(=O)C(=O)c2cc(S(=O)(=O)NC3CCN(c4ccc(S(C)(=O)=O)cc4)CC3)ccc21

>  <Energy>  (8) 
93.88975995942042

>  <Genealogy>  (8) 
CN1C(=O)C(=O)c2cc(S(=O)(=O)NC3CCN(c4ccc(S(C)(=O)=O)cc4)CC3)ccc21 (3D coordinates assigned)
CN1C(=O)C(=O)c2cc(S(=O)(=O)NC3CCN(c4ccc(S(C)(=O)=O)cc4)CC3)ccc21 (nonaromatic ring conformer: 93.88975995942042 kcal/mol)

>  <smiles>  (8) 
CN1C(=O)C(=O)c2cc(S(=O)(=O)NC3CCN(c4ccc(S(C)(=O)=O)cc4)CC3)ccc21

>  <score_type>  (8) 
oracle

>  <origin>  (8) 
adgpu

>  <m_score__min__energy>  (8) 
-11.119999999999999

>  <m_primary>  (8) 
energy

$$$$
8:0
     RDKit          3D

 57 60  0  0  0  0  0  0  0  0999 V2000
   -5.7840   25.4340  -30.8500 O   0  0  0  0  0  0  0  0  0  0  0  0
   -4.9080   24.5300  -30.8070 C   0  0  0  0  0  0  0  0  0  0  0  0
   -3.5590   24.8970  -30.4900 N   0  0  0  0  0  0  0  0  0  0  0  0
   -2.6480   24.1320  -29.6880 C   0  0  0  0  0  0  0  0  0  0  0  0
   -2.7450   22.7330  -29.6090 C   0  0  0  0  0  0  0  0  0  0  0  0
   -1.8670   22.0110  -28.7960 C   0  0  0  0  0  0  0  0  0  0  0  0
   -0.9010   22.6790  -28.0420 C   0  0  0  0  0  0  0  0  0  0  0  0
   -0.8100   24.0770  -28.0890 C   0  0  0  0  0  0  0  0  0  0  0  0
    0.4180   24.9200  -27.1410 S   0  0  0  0  0  0  0  0  0  0  0  0
    0.5040   26.3610  -27.5640 O   0  0  0  0  0  0  0  0  0  0  0  0
    1.7470   24.2630  -27.3920 O   0  0  0  0  0  0  0  0  0  0  0  0
    0.0160   24.8160  -25.4400 N   0  0  0  0  0  0  0  0  0  0  0  0
   -1.4260   24.9950  -25.2400 C   0  0  0  0  0  0  0  0  0  0  0  0
   -1.6860   26.4660  -24.9550 C   0  0  0  0  0  0  0  0  0  0  0  0
   -0.3360   27.0570  -24.5970 C   0  0  0  0  0  0  0  0  0  0  0  0
    0.6540   25.9050  -24.6940 C   0  0  0  0  0  0  0  0  0  0  0  0
   -1.6900   24.8020  -28.9120 C   0  0  0  0  0  0  0  0  0  0  0  0
   -1.6110   26.1910  -28.9680 O   0  0  0  0  0  0  0  0  0  0  0  0
   -5.2500   23.1640  -31.0980 N   0  0  0  0  0  0  0  0  0  0  0  0
   -6.5830   22.7150  -31.3900 C   0  0  0  0  0  0  0  0  0  0  0  0
   -7.6460   23.6240  -31.5410 C   0  0  0  0  0  0  0  0  0  0  0  0
   -8.9290   23.1610  -31.8430 C   0  0  0  0  0  0  0  0  0  0  0  0
   -9.1580   21.7950  -32.0170 C   0  0  0  0  0  0  0  0  0  0  0  0
   -8.1030   20.8820  -31.9020 C   0  0  0  0  0  0  0  0  0  0  0  0
   -8.4150   19.1630  -32.1180 S   0  0  0  0  0  0  0  0  0  0  0  0
   -9.5450   18.9610  -33.0910 O   0  0  0  0  0  0  0  0  0  0  0  0
   -8.8060   18.5690  -30.7940 O   0  0  0  0  0  0  0  0  0  0  0  0
   -6.9640   18.3880  -32.7010 N   0  0  0  0  0  0  0  0  0  0  0  0
   -6.4250   19.0790  -33.8720 C   0  0  0  0  0  0  0  0  0  0  0  0
   -5.6710   18.0370  -34.6840 C   0  0  0  0  0  0  0  0  0  0  0  0
   -6.1820   16.6920  -34.1910 C   0  0  0  0  0  0  0  0  0  0  0  0
   -7.2330   17.0210  -33.1430 C   0  0  0  0  0  0  0  0  0  0  0  0
   -6.8160   21.3470  -31.5920 C   0  0  0  0  0  0  0  0  0  0  0  0
   -3.5150   22.2036  -30.1893 H   0  0  0  0  0  0  0  0  0  0  0  0
   -1.9374   20.9142  -28.7503 H   0  0  0  0  0  0  0  0  0  0  0  0
   -0.2082   22.1060  -27.4082 H   0  0  0  0  0  0  0  0  0  0  0  0
   -1.9687   24.6896  -26.1468 H   0  0  0  0  0  0  0  0  0  0  0  0
   -1.7729   24.3773  -24.3985 H   0  0  0  0  0  0  0  0  0  0  0  0
   -2.0985   26.9626  -25.8456 H   0  0  0  0  0  0  0  0  0  0  0  0
   -2.4171   26.6004  -24.1441 H   0  0  0  0  0  0  0  0  0  0  0  0
   -0.0666   27.8553  -25.3042 H   0  0  0  0  0  0  0  0  0  0  0  0
   -0.3415   27.5054  -23.5926 H   0  0  0  0  0  0  0  0  0  0  0  0
    1.5608   26.2364  -25.2211 H   0  0  0  0  0  0  0  0  0  0  0  0
    0.9382   25.5618  -23.6883 H   0  0  0  0  0  0  0  0  0  0  0  0
   -4.5050   22.4360  -31.0250 H   0  0  0  0  0  0  0  0  0  0  0  0
   -7.4664   24.7026  -31.4209 H   0  0  0  0  0  0  0  0  0  0  0  0
   -9.7604   23.8742  -31.9439 H   0  0  0  0  0  0  0  0  0  0  0  0
  -10.1718   21.4344  -32.2455 H   0  0  0  0  0  0  0  0  0  0  0  0
   -7.2432   19.5067  -34.4700 H   0  0  0  0  0  0  0  0  0  0  0  0
   -5.7623   19.9050  -33.5745 H   0  0  0  0  0  0  0  0  0  0  0  0
   -5.8818   18.1589  -35.7567 H   0  0  0  0  0  0  0  0  0  0  0  0
   -4.5822   18.1312  -34.5593 H   0  0  0  0  0  0  0  0  0  0  0  0
   -6.6290   16.1227  -35.0193 H   0  0  0  0  0  0  0  0  0  0  0  0
   -5.3722   16.0720  -33.7788 H   0  0  0  0  0  0  0  0  0  0  0  0
   -8.2400   16.9542  -33.5806 H   0  0  0  0  0  0  0  0  0  0  0  0
   -7.1900   16.3147  -32.3008 H   0  0  0  0  0  0  0  0  0  0  0  0
   -5.9835   20.6331  -31.5068 H   0  0  0  0  0  0  0  0  0  0  0  0
  1  2  2  0
  2  3  1  0
  3  4  1  0
  4  5  2  0
  5  6  1  0
  6  7  2  0
  7  8  1  0
  8  9  1  0
  9 10  2  0
  9 11  2  0
  9 12  1  0
 12 13  1  0
 13 14  1  0
 14 15  1  0
 15 16  1  0
  8 17  2  0
 17 18  1  0
  2 19  1  0
 19 20  1  0
 20 21  2  0
 21 22  1  0
 22 23  2  0
 23 24  1  0
 24 25  1  0
 25 26  2  0
 25 27  2  0
 25 28  1  0
 28 29  1  0
 29 30  1  0
 30 31  1  0
 31 32  1  0
 24 33  2  0
 17  4  1  0
 33 20  1  0
 16 12  1  0
 32 28  1  0
  5 34  1  0
  6 35  1  0
  7 36  1  0
 13 37  1  0
 13 38  1  0
 14 39  1  0
 14 40  1  0
 15 41  1  0
 15 42  1  0
 16 43  1  0
 16 44  1  0
 19 45  1  0
 21 46  1  0
 22 47  1  0
 23 48  1  0
 29 49  1  0
 29 50  1  0
 30 51  1  0
 30 52  1  0
 31 53  1  0
 31 54  1  0
 32 55  1  0
 32 56  1  0
 33 57  1  0
M  CHG  2   3  -1  18  -1
M  END
>  <UniqueID>  (9) 
9

>  <SMILES>  (9) 
O=C([N-]c1cccc(S(=O)(=O)N2CCCC2)c1[O-])Nc1cccc(S(=O)(=O)N2CCCC2)c1

>  <Energy>  (9) 
69.70793226811509

>  <Genealogy>  (9) 
O=C([N-]c1cccc(S(=O)(=O)N2CCCC2)c1[O-])Nc1cccc(S(=O)(=O)N2CCCC2)c1 (protonated)
O=C([N-]c1cccc(S(=O)(=O)N2CCCC2)c1[O-])Nc1cccc(S(=O)(=O)N2CCCC2)c1 (3D coordinates assigned)
O=C([N-]c1cccc(S(=O)(=O)N2CCCC2)c1[O-])Nc1cccc(S(=O)(=O)N2CCCC2)c1 (nonaromatic ring conformer: 69.70793226811509 kcal/mol)

>  <smiles>  (9) 
O=C(Nc1cccc(S(=O)(=O)N2CCCC2)c1)Nc1cccc(S(=O)(=O)N2CCCC2)c1O

>  <score_type>  (9) 
oracle

>  <origin>  (9) 
adgpu

>  <m_score__min__energy>  (9) 
-15.970000000000001

>  <m_primary>  (9) 
energy

$$$$
9:0
     RDKit          3D

 44 46  0  0  0  0  0  0  0  0999 V2000
   -2.2190   18.3550  -27.3960 H   0  0  0  0  0  0  0  0  0  0  0  0
   -1.3980   18.9530  -27.6430 N   0  0  0  0  0  0  0  0  0  0  0  0
   -1.4790   20.2420  -27.7300 C   0  0  0  0  0  0  0  0  0  0  0  0
   -0.3720   20.9610  -28.0560 N   0  0  0  0  0  0  0  0  0  0  0  0
   -0.4000   22.3170  -28.1580 C   0  0  0  0  0  0  0  0  0  0  0  0
    0.5146   22.8661  -28.4264 H   0  0  0  0  0  0  0  0  0  0  0  0
   -1.5910   23.0160  -27.9220 C   0  0  0  0  0  0  0  0  0  0  0  0
   -1.6230   24.7720  -28.0350 S   0  0  0  0  0  0  0  0  0  0  0  0
   -0.2410   25.3160  -28.2710 O   0  0  0  0  0  0  0  0  0  0  0  0
   -2.1570   25.3310  -26.7470 O   0  0  0  0  0  0  0  0  0  0  0  0
   -2.6560   25.2630  -29.3400 N   0  0  0  0  0  0  0  0  0  0  0  0
   -3.5870   24.4110  -30.0190 C   0  0  0  0  0  0  0  0  0  0  0  0
   -3.0940   23.3050  -30.7210 C   0  0  0  0  0  0  0  0  0  0  0  0
   -2.0132   23.1006  -30.7275 H   0  0  0  0  0  0  0  0  0  0  0  0
   -3.9640   22.4580  -31.4140 C   0  0  0  0  0  0  0  0  0  0  0  0
   -3.5629   21.5932  -31.9629 H   0  0  0  0  0  0  0  0  0  0  0  0
   -5.3470   22.7040  -31.4140 C   0  0  0  0  0  0  0  0  0  0  0  0
   -6.2470   21.8330  -32.1280 N   0  0  0  0  0  0  0  0  0  0  0  0
   -5.7030   20.7660  -32.9760 C   0  0  0  0  0  0  0  0  0  0  0  0
   -5.0031   21.2053  -33.7020 H   0  0  0  0  0  0  0  0  0  0  0  0
   -5.1859   20.0376  -32.3340 H   0  0  0  0  0  0  0  0  0  0  0  0
   -6.8240   20.0400  -33.7350 C   0  0  0  0  0  0  0  0  0  0  0  0
   -7.1933   20.6968  -34.5364 H   0  0  0  0  0  0  0  0  0  0  0  0
   -6.4083   19.1075  -34.1443 H   0  0  0  0  0  0  0  0  0  0  0  0
   -7.9570   19.6850  -32.8470 N   0  0  0  0  0  0  0  0  0  0  0  0
   -8.7210   19.3260  -33.4710 H   0  0  0  0  0  0  0  0  0  0  0  0
   -7.6000   18.5650  -31.9540 C   0  0  0  0  0  0  0  0  0  0  0  0
   -7.7019   18.8845  -30.9064 H   0  0  0  0  0  0  0  0  0  0  0  0
   -8.2718   17.7152  -32.1451 H   0  0  0  0  0  0  0  0  0  0  0  0
   -6.5603   18.2607  -32.1451 H   0  0  0  0  0  0  0  0  0  0  0  0
   -8.5070   20.8390  -32.0750 C   0  0  0  0  0  0  0  0  0  0  0  0
   -9.5226   21.0462  -32.4433 H   0  0  0  0  0  0  0  0  0  0  0  0
   -8.4859   20.5454  -31.0151 H   0  0  0  0  0  0  0  0  0  0  0  0
   -7.6810   22.1330  -32.1880 C   0  0  0  0  0  0  0  0  0  0  0  0
   -7.9082   22.6252  -33.1451 H   0  0  0  0  0  0  0  0  0  0  0  0
   -7.9414   22.7960  -31.3498 H   0  0  0  0  0  0  0  0  0  0  0  0
   -5.8420   23.8100  -30.7030 C   0  0  0  0  0  0  0  0  0  0  0  0
   -6.9233   24.0117  -30.6917 H   0  0  0  0  0  0  0  0  0  0  0  0
   -4.9720   24.6560  -30.0100 C   0  0  0  0  0  0  0  0  0  0  0  0
   -5.3721   25.5173  -29.4550 H   0  0  0  0  0  0  0  0  0  0  0  0
   -2.7440   22.2960  -27.5870 C   0  0  0  0  0  0  0  0  0  0  0  0
   -3.6899   22.8262  -27.4020 H   0  0  0  0  0  0  0  0  0  0  0  0
   -2.6920   20.9040  -27.4880 C   0  0  0  0  0  0  0  0  0  0  0  0
   -3.5935   20.3321  -27.2228 H   0  0  0  0  0  0  0  0  0  0  0  0
  1  2  1  0
  2  3  2  0
  3  4  1  0
  4  5  1  0
  5  6  1  0
  5  7  2  0
  7  8  1  0
  8  9  2  0
  8 10  2  0
  8 11  1  0
 11 12  1  0
 12 13  2  0
 13 14  1  0
 13 15  1  0
 15 16  1  0
 15 17  2  0
 17 18  1  0
 18 19  1  0
 19 20  1  0
 19 21  1  0
 19 22  1  0
 22 23  1  0
 22 24  1  0
 22 25  1  0
 25 26  1  0
 25 27  1  0
 27 28  1  0
 27 29  1  0
 27 30  1  0
 25 31  1  0
 31 32  1  0
 31 33  1  0
 31 34  1  0
 34 35  1  0
 34 36  1  0
 17 37  1  0
 37 38  1  0
 37 39  2  0
 39 40  1  0
  7 41  1  0
 41 42  1  0
 41 43  2  0
 43 44  1  0
 43  3  1  0
 39 12  1  0
 34 18  1  0
M  CHG  3   4  -1  11  -1  25   1
M  END
>  <UniqueID>  (10) 
10

>  <SMILES>  (10) 
[H]/N=c1\ccc(S(=O)(=O)[N-]c2ccc(N3CC[NH+](C)CC3)cc2)c[n-]1

>  <Energy>  (10) 
60.912683976164985

>  <Genealogy>  (10) 
C[NH+]1CCN(c2ccc([N-]S(=O)(=O)c3ccc(=N)[n-]c3)cc2)CC1 (protonated)
[H]/N=c1\ccc(S(=O)(=O)[N-]c2ccc(N3CC[NH+](C)CC3)cc2)c[n-]1 (cis-trans isomerization)
[H]/N=c1\ccc(S(=O)(=O)[N-]c2ccc(N3CC[NH+](C)CC3)cc2)c[n-]1 (3D coordinates assigned)
[H]/N=c1\ccc(S(=O)(=O)[N-]c2ccc(N3CC[NH+](C)CC3)cc2)c[n-]1 (nonaromatic ring conformer: 60.912683976164985 kcal/mol)

>  <smiles>  (10) 
CN1CCN(c2ccc(NS(=O)(=O)c3ccc(=N)[nH]c3)cc2)CC1

>  <score_type>  (10) 
oracle

>  <origin>  (10) 
adgpu

>  <m_score__min__energy>  (10) 
-9.6199999999999992

>  <m_primary>  (10) 
energy

$$$$
10:0
     RDKit          3D

 54 57  0  0  0  0  0  0  0  0999 V2000
    0.9590   20.3990  -33.5080 C   0  0  0  0  0  0  0  0  0  0  0  0
    0.6180   19.0930  -32.9330 N   0  0  0  0  0  0  0  0  0  0  0  0
    1.2560   17.8740  -33.4380 C   0  0  0  0  0  0  0  0  0  0  0  0
   -0.4120   18.9830  -31.9280 C   0  0  0  0  0  0  0  0  0  0  0  0
   -0.8350   17.8470  -31.5810 O   0  0  0  0  0  0  0  0  0  0  0  0
   -1.0070   20.1760  -31.3050 C   0  0  0  0  0  0  0  0  0  0  0  0
   -0.4990   20.7720  -30.2030 N   0  0  0  0  0  0  0  0  0  0  0  0
   -1.2460   21.8710  -30.0050 C   0  0  0  0  0  0  0  0  0  0  0  0
   -1.0620   22.8390  -29.0210 C   0  0  0  0  0  0  0  0  0  0  0  0
   -1.9110   23.9580  -29.0280 C   0  0  0  0  0  0  0  0  0  0  0  0
   -2.9280   24.0880  -30.0100 C   0  0  0  0  0  0  0  0  0  0  0  0
   -3.7740   25.2450  -30.0720 N   0  0  0  0  0  0  0  0  0  0  0  0
   -5.1560   25.2680  -30.4440 C   0  0  0  0  0  0  0  0  0  0  0  0
   -5.9630   25.9290  -29.7400 O   0  0  0  0  0  0  0  0  0  0  0  0
   -5.6110   24.5490  -31.5990 N   0  0  0  0  0  0  0  0  0  0  0  0
   -6.4050   23.3540  -31.6140 C   0  0  0  0  0  0  0  0  0  0  0  0
   -6.1960   22.4260  -32.6410 C   0  0  0  0  0  0  0  0  0  0  0  0
   -6.9560   21.2540  -32.7040 C   0  0  0  0  0  0  0  0  0  0  0  0
   -7.9450   21.0060  -31.7460 C   0  0  0  0  0  0  0  0  0  0  0  0
   -8.7250   19.7970  -31.8060 C   0  0  0  0  0  0  0  0  0  0  0  0
   -9.3500   18.8250  -31.8540 N   0  0  0  0  0  0  0  0  0  0  0  0
   -8.1780   21.9410  -30.7290 C   0  0  0  0  0  0  0  0  0  0  0  0
   -7.4180   23.1140  -30.6660 C   0  0  0  0  0  0  0  0  0  0  0  0
   -3.0670   23.1010  -31.0050 C   0  0  0  0  0  0  0  0  0  0  0  0
   -2.2200   21.9910  -30.9640 C   0  0  0  0  0  0  0  0  0  0  0  0
   -2.0920   20.8960  -31.8030 C   0  0  0  0  0  0  0  0  0  0  0  0
   -2.9140   20.6000  -33.3320 S   0  0  0  0  0  0  0  0  0  0  0  0
   -3.5390   21.8740  -33.8270 O   0  0  0  0  0  0  0  0  0  0  0  0
   -1.9540   20.1150  -34.3820 O   0  0  0  0  0  0  0  0  0  0  0  0
   -4.1510   19.3790  -33.0570 C   0  0  0  0  0  0  0  0  0  0  0  0
   -4.4660   18.4650  -34.0720 C   0  0  0  0  0  0  0  0  0  0  0  0
   -5.4130   17.4610  -33.8440 C   0  0  0  0  0  0  0  0  0  0  0  0
   -6.0430   17.3620  -32.6000 C   0  0  0  0  0  0  0  0  0  0  0  0
   -5.7250   18.2670  -31.5820 C   0  0  0  0  0  0  0  0  0  0  0  0
   -4.7800   19.2720  -31.8080 C   0  0  0  0  0  0  0  0  0  0  0  0
    1.1469   21.1187  -32.6976 H   0  0  0  0  0  0  0  0  0  0  0  0
    1.8619   20.3019  -34.1288 H   0  0  0  0  0  0  0  0  0  0  0  0
    0.1239   20.7557  -34.1288 H   0  0  0  0  0  0  0  0  0  0  0  0
    1.5813   17.2524  -32.5908 H   0  0  0  0  0  0  0  0  0  0  0  0
    0.5370   17.3109  -34.0511 H   0  0  0  0  0  0  0  0  0  0  0  0
    2.1285   18.1438  -34.0511 H   0  0  0  0  0  0  0  0  0  0  0  0
    0.3220   20.4580  -29.6390 H   0  0  0  0  0  0  0  0  0  0  0  0
   -0.2748   22.7305  -28.2604 H   0  0  0  0  0  0  0  0  0  0  0  0
   -1.7867   24.7410  -28.2654 H   0  0  0  0  0  0  0  0  0  0  0  0
   -5.4281   22.6203  -33.4042 H   0  0  0  0  0  0  0  0  0  0  0  0
   -6.7759   20.5256  -33.5083 H   0  0  0  0  0  0  0  0  0  0  0  0
   -8.9599   21.7525  -29.9786 H   0  0  0  0  0  0  0  0  0  0  0  0
   -7.6125   23.8512  -29.8731 H   0  0  0  0  0  0  0  0  0  0  0  0
   -3.8248   23.2019  -31.7959 H   0  0  0  0  0  0  0  0  0  0  0  0
   -3.9675   18.5374  -35.0499 H   0  0  0  0  0  0  0  0  0  0  0  0
   -5.6622   16.7487  -34.6444 H   0  0  0  0  0  0  0  0  0  0  0  0
   -6.7883   16.5729  -32.4218 H   0  0  0  0  0  0  0  0  0  0  0  0
   -6.2191   18.1878  -30.6024 H   0  0  0  0  0  0  0  0  0  0  0  0
   -4.5292   19.9803  -31.0046 H   0  0  0  0  0  0  0  0  0  0  0  0
  1  2  1  0
  2  3  1  0
  2  4  1  0
  4  5  2  0
  4  6  1  0
  6  7  1  0
  7  8  1  0
  8  9  2  0
  9 10  1  0
 10 11  2  0
 11 12  1  0
 12 13  1  0
 13 14  2  0
 13 15  1  0
 15 16  1  0
 16 17  2  0
 17 18  1  0
 18 19  2  0
 19 20  1  0
 20 21  3  0
 19 22  1  0
 22 23  2  0
 11 24  1  0
 24 25  2  0
 25 26  1  0
 26 27  1  0
 27 28  2  0
 27 29  2  0
 27 30  1  0
 30 31  2  0
 31 32  1  0
 32 33  2  0
 33 34  1  0
 34 35  2  0
 26  6  2  0
 35 30  1  0
 25  8  1  0
 23 16  1  0
  1 36  1  0
  1 37  1  0
  1 38  1  0
  3 39  1  0
  3 40  1  0
  3 41  1  0
  7 42  1  0
  9 43  1  0
 10 44  1  0
 17 45  1  0
 18 46  1  0
 22 47  1  0
 23 48  1  0
 24 49  1  0
 31 50  1  0
 32 51  1  0
 33 52  1  0
 34 53  1  0
 35 54  1  0
M  CHG  2  12  -1  15  -1
M  END
>  <UniqueID>  (11) 
11

>  <SMILES>  (11) 
CN(C)C(=O)c1[nH]c2ccc([N-]C(=O)[N-]c3ccc(C#N)cc3)cc2c1S(=O)(=O)c1ccccc1

>  <Energy>  (11) 
101.77690860017384

>  <Genealogy>  (11) 
CN(C)C(=O)c1[nH]c2ccc([N-]C(=O)[N-]c3ccc(C#N)cc3)cc2c1S(=O)(=O)c1ccccc1 (protonated)
CN(C)C(=O)c1[nH]c2ccc([N-]C(=O)[N-]c3ccc(C#N)cc3)cc2c1S(=O)(=O)c1ccccc1 (3D coordinates assigned)
CN(C)C(=O)c1[nH]c2ccc([N-]C(=O)[N-]c3ccc(C#N)cc3)cc2c1S(=O)(=O)c1ccccc1 (optimized conformer: 101.77690860017384 kcal/mol)

>  <smiles>  (11) 
CN(C)C(=O)c1[nH]c2ccc(NC(=O)Nc3ccc(C#N)cc3)cc2c1S(=O)(=O)c1ccccc1

>  <score_type>  (11) 
oracle

>  <origin>  (11) 
adgpu

>  <m_score__min__energy>  (11) 
-12.59

>  <m_primary>  (11) 
energy

$$$$
11:0
     RDKit          3D

 56 59  0  0  0  0  0  0  0  0999 V2000
   -5.3840   19.5350  -33.3290 C   0  0  0  0  0  0  0  0  0  0  0  0
   -5.2090   20.7720  -32.5000 C   0  0  0  0  0  0  0  0  0  0  0  0
   -6.3190   21.4080  -31.9220 C   0  0  0  0  0  0  0  0  0  0  0  0
   -6.1470   22.5730  -31.1600 C   0  0  0  0  0  0  0  0  0  0  0  0
   -4.8680   23.1230  -30.9990 C   0  0  0  0  0  0  0  0  0  0  0  0
   -4.6750   24.6120  -30.0750 S   0  0  0  0  0  0  0  0  0  0  0  0
   -3.9690   25.6670  -30.8870 O   0  0  0  0  0  0  0  0  0  0  0  0
   -6.0370   25.1390  -29.7190 O   0  0  0  0  0  0  0  0  0  0  0  0
   -3.7990   24.2920  -28.6100 N   0  0  0  0  0  0  0  0  0  0  0  0
   -2.4550   23.7950  -28.5250 C   0  0  0  0  0  0  0  0  0  0  0  0
   -2.1800   22.4370  -28.2850 C   0  0  0  0  0  0  0  0  0  0  0  0
   -0.8580   21.9750  -28.2450 C   0  0  0  0  0  0  0  0  0  0  0  0
   -0.5390   20.2520  -28.0780 S   0  0  0  0  0  0  0  0  0  0  0  0
   -1.3160   19.7080  -26.9100 O   0  0  0  0  0  0  0  0  0  0  0  0
    0.9240   20.0000  -27.8390 O   0  0  0  0  0  0  0  0  0  0  0  0
   -1.0720   19.4570  -29.5270 N   0  0  0  0  0  0  0  0  0  0  0  0
   -0.3700   19.5600  -30.7720 C   0  0  0  0  0  0  0  0  0  0  0  0
   -0.9430   20.2240  -31.8680 C   0  0  0  0  0  0  0  0  0  0  0  0
   -0.2420   20.3410  -33.0770 C   0  0  0  0  0  0  0  0  0  0  0  0
    1.0600   19.8020  -33.1840 C   0  0  0  0  0  0  0  0  0  0  0  0
    1.6220   19.1290  -32.0890 C   0  0  0  0  0  0  0  0  0  0  0  0
    0.9220   19.0230  -30.8820 C   0  0  0  0  0  0  0  0  0  0  0  0
    1.4990   18.3680  -29.7910 O   0  0  0  0  0  0  0  0  0  0  0  0
    1.8100   19.8500  -34.4920 C   0  0  0  0  0  0  0  0  0  0  0  0
    1.3620   20.9490  -35.3710 N   0  0  0  0  0  0  0  0  0  0  0  0
    1.8930   22.2550  -34.9350 C   0  0  0  0  0  0  0  0  0  0  0  0
   -0.1080   20.9540  -35.5270 C   0  0  0  0  0  0  0  0  0  0  0  0
   -0.8390   21.1610  -34.1940 C   0  0  0  0  0  0  0  0  0  0  0  0
    0.1970   22.8710  -28.4450 C   0  0  0  0  0  0  0  0  0  0  0  0
   -0.0670   24.2220  -28.6790 C   0  0  0  0  0  0  0  0  0  0  0  0
   -1.3870   24.6840  -28.7230 C   0  0  0  0  0  0  0  0  0  0  0  0
   -1.6340   26.0290  -28.9660 O   0  0  0  0  0  0  0  0  0  0  0  0
   -3.7570   22.4940  -31.5860 C   0  0  0  0  0  0  0  0  0  0  0  0
   -3.9280   21.3250  -32.3290 C   0  0  0  0  0  0  0  0  0  0  0  0
   -5.5071   18.6647  -32.6676 H   0  0  0  0  0  0  0  0  0  0  0  0
   -6.2759   19.6422  -33.9638 H   0  0  0  0  0  0  0  0  0  0  0  0
   -4.4973   19.3906  -33.9638 H   0  0  0  0  0  0  0  0  0  0  0  0
   -7.3267   20.9915  -32.0671 H   0  0  0  0  0  0  0  0  0  0  0  0
   -7.0162   23.0551  -30.6887 H   0  0  0  0  0  0  0  0  0  0  0  0
   -3.0094   21.7319  -28.1274 H   0  0  0  0  0  0  0  0  0  0  0  0
   -1.9505   20.6563  -31.7778 H   0  0  0  0  0  0  0  0  0  0  0  0
    2.6222   18.6804  -32.1800 H   0  0  0  0  0  0  0  0  0  0  0  0
    1.0640   18.3590  -28.8810 H   0  0  0  0  0  0  0  0  0  0  0  0
    2.8804   19.9857  -34.2781 H   0  0  0  0  0  0  0  0  0  0  0  0
    1.6147   18.9047  -35.0195 H   0  0  0  0  0  0  0  0  0  0  0  0
    1.9095   22.2957  -33.8359 H   0  0  0  0  0  0  0  0  0  0  0  0
    2.9146   22.3831  -35.3221 H   0  0  0  0  0  0  0  0  0  0  0  0
    1.2506   23.0597  -35.3221 H   0  0  0  0  0  0  0  0  0  0  0  0
   -0.3873   21.7675  -36.2127 H   0  0  0  0  0  0  0  0  0  0  0  0
   -0.4057   19.9718  -35.9228 H   0  0  0  0  0  0  0  0  0  0  0  0
   -0.7811   22.2250  -33.9209 H   0  0  0  0  0  0  0  0  0  0  0  0
   -1.8810   20.8355  -34.3290 H   0  0  0  0  0  0  0  0  0  0  0  0
    1.2361   22.5110  -28.4179 H   0  0  0  0  0  0  0  0  0  0  0  0
    0.7653   24.9253  -28.8292 H   0  0  0  0  0  0  0  0  0  0  0  0
   -2.7521   22.9232  -31.4599 H   0  0  0  0  0  0  0  0  0  0  0  0
   -3.0552   20.8335  -32.7835 H   0  0  0  0  0  0  0  0  0  0  0  0
  1  2  1  0
  2  3  2  0
  3  4  1  0
  4  5  2  0
  5  6  1  0
  6  7  2  0
  6  8  2  0
  6  9  1  0
  9 10  1  0
 10 11  2  0
 11 12  1  0
 12 13  1  0
 13 14  2  0
 13 15  2  0
 13 16  1  0
 16 17  1  0
 17 18  2  0
 18 19  1  0
 19 20  2  0
 20 21  1  0
 21 22  2  0
 22 23  1  0
 20 24  1  0
 24 25  1  0
 25 26  1  0
 25 27  1  0
 27 28  1  0
 12 29  2  0
 29 30  1  0
 30 31  2  0
 31 32  1  0
  5 33  1  0
 33 34  2  0
 34  2  1  0
 31 10  1  0
 22 17  1  0
 28 19  1  0
  1 35  1  0
  1 36  1  0
  1 37  1  0
  3 38  1  0
  4 39  1  0
 11 40  1  0
 18 41  1  0
 21 42  1  0
 23 43  1  0
 24 44  1  0
 24 45  1  0
 26 46  1  0
 26 47  1  0
 26 48  1  0
 27 49  1  0
 27 50  1  0
 28 51  1  0
 28 52  1  0
 29 53  1  0
 30 54  1  0
 33 55  1  0
 34 56  1  0
M  CHG  3   9  -1  16  -1  32  -1
M  END
>  <UniqueID>  (12) 
12

>  <SMILES>  (12) 
Cc1ccc(S(=O)(=O)[N-]c2cc(S(=O)(=O)[N-]c3cc4c(cc3O)CN(C)CC4)ccc2[O-])cc1

>  <Energy>  (12) 
74.82228188759451

>  <Genealogy>  (12) 
Cc1ccc(S(=O)(=O)[N-]c2cc(S(=O)(=O)[N-]c3cc4c(cc3O)CN(C)CC4)ccc2[O-])cc1 (protonated)
Cc1ccc(S(=O)(=O)[N-]c2cc(S(=O)(=O)[N-]c3cc4c(cc3O)CN(C)CC4)ccc2[O-])cc1 (3D coordinates assigned)
Cc1ccc(S(=O)(=O)[N-]c2cc(S(=O)(=O)[N-]c3cc4c(cc3O)CN(C)CC4)ccc2[O-])cc1 (nonaromatic ring conformer: 74.82228188759451 kcal/mol)

>  <smiles>  (12) 
Cc1ccc(S(=O)(=O)Nc2cc(S(=O)(=O)Nc3cc4c(cc3O)CN(C)CC4)ccc2O)cc1

>  <score_type>  (12) 
oracle

>  <origin>  (12) 
adgpu

>  <m_score__min__energy>  (12) 
-14.08

>  <m_primary>  (12) 
energy

$$$$
12:0
     RDKit          3D

 51 54  0  0  0  0  0  0  0  0999 V2000
   -1.5220   21.6200  -26.7210 C   0  0  0  0  0  0  0  0  0  0  0  0
   -2.0960   22.6200  -27.6910 C   0  0  0  0  0  0  0  0  0  0  0  0
   -3.2810   22.2880  -28.3650 C   0  0  0  0  0  0  0  0  0  0  0  0
   -3.8570   23.1730  -29.2720 C   0  0  0  0  0  0  0  0  0  0  0  0
   -3.2540   24.4010  -29.5420 C   0  0  0  0  0  0  0  0  0  0  0  0
   -3.8960   25.2830  -30.4720 N   0  0  0  0  0  0  0  0  0  0  0  0
   -5.2780   25.2370  -30.8440 C   0  0  0  0  0  0  0  0  0  0  0  0
   -6.0800   26.1170  -30.4340 O   0  0  0  0  0  0  0  0  0  0  0  0
   -5.7540   24.2200  -31.7300 N   0  0  0  0  0  0  0  0  0  0  0  0
   -6.6340   23.1340  -31.3140 C   0  0  0  0  0  0  0  0  0  0  0  0
   -6.3680   21.9020  -32.1290 C   0  0  0  0  0  0  0  0  0  0  0  0
   -7.3280   20.9940  -32.4100 N   0  0  0  0  0  0  0  0  0  0  0  0
   -6.6900   20.0450  -33.1250 C   0  0  0  0  0  0  0  0  0  0  0  0
   -5.3630   20.3860  -33.2650 C   0  0  0  0  0  0  0  0  0  0  0  0
   -5.1610   21.5510  -32.6260 N   0  0  0  0  0  0  0  0  0  0  0  0
   -3.9050   22.3000  -32.5810 C   0  0  0  0  0  0  0  0  0  0  0  0
   -2.7410   21.3560  -32.5130 C   0  0  0  0  0  0  0  0  0  0  0  0
   -2.0630   21.1440  -31.3030 C   0  0  0  0  0  0  0  0  0  0  0  0
   -1.0020   20.2380  -31.2620 C   0  0  0  0  0  0  0  0  0  0  0  0
   -0.6320   19.5500  -32.4190 C   0  0  0  0  0  0  0  0  0  0  0  0
   -1.3340   19.7800  -33.6050 C   0  0  0  0  0  0  0  0  0  0  0  0
   -2.3650   20.6660  -33.6240 N   0  0  0  0  0  0  0  0  0  0  0  0
   -2.0820   24.7690  -28.8530 C   0  0  0  0  0  0  0  0  0  0  0  0
   -1.5560   26.0440  -29.0340 O   0  0  0  0  0  0  0  0  0  0  0  0
   -1.4690   23.8670  -27.9530 C   0  0  0  0  0  0  0  0  0  0  0  0
    0.0420   24.3330  -27.1260 S   0  0  0  0  0  0  0  0  0  0  0  0
    0.6710   23.1120  -26.5170 O   0  0  0  0  0  0  0  0  0  0  0  0
    1.0250   24.8940  -28.1150 O   0  0  0  0  0  0  0  0  0  0  0  0
   -0.2110   25.5490  -25.8290 C   0  0  0  0  0  0  0  0  0  0  0  0
   -0.7020   25.0360  -24.4820 C   0  0  0  0  0  0  0  0  0  0  0  0
   -1.6690   25.7220  -25.4300 C   0  0  0  0  0  0  0  0  0  0  0  0
   -1.7147   21.9557  -25.6913 H   0  0  0  0  0  0  0  0  0  0  0  0
   -1.9951   20.6400  -26.8818 H   0  0  0  0  0  0  0  0  0  0  0  0
   -0.4372   21.5343  -26.8818 H   0  0  0  0  0  0  0  0  0  0  0  0
   -3.7606   21.3166  -28.1743 H   0  0  0  0  0  0  0  0  0  0  0  0
   -4.7945   22.9017  -29.7794 H   0  0  0  0  0  0  0  0  0  0  0  0
   -6.4566   22.9108  -30.2516 H   0  0  0  0  0  0  0  0  0  0  0  0
   -7.6785   23.4435  -31.4666 H   0  0  0  0  0  0  0  0  0  0  0  0
   -7.1580   19.1373  -33.5339 H   0  0  0  0  0  0  0  0  0  0  0  0
   -4.6009   19.8057  -33.8058 H   0  0  0  0  0  0  0  0  0  0  0  0
   -3.8184   22.9190  -33.4862 H   0  0  0  0  0  0  0  0  0  0  0  0
   -3.9007   22.9402  -31.6865 H   0  0  0  0  0  0  0  0  0  0  0  0
   -2.3648   21.6868  -30.3951 H   0  0  0  0  0  0  0  0  0  0  0  0
   -0.4590   20.0666  -30.3208 H   0  0  0  0  0  0  0  0  0  0  0  0
    0.2032   18.8345  -32.3972 H   0  0  0  0  0  0  0  0  0  0  0  0
   -1.0524   19.2441  -34.5235 H   0  0  0  0  0  0  0  0  0  0  0  0
    0.6175   26.2034  -26.1376 H   0  0  0  0  0  0  0  0  0  0  0  0
   -0.7829   23.9538  -24.3020 H   0  0  0  0  0  0  0  0  0  0  0  0
   -0.4000   25.1877  -23.4352 H   0  0  0  0  0  0  0  0  0  0  0  0
   -2.4506   25.1367  -25.9364 H   0  0  0  0  0  0  0  0  0  0  0  0
   -2.3576   26.5764  -25.3536 H   0  0  0  0  0  0  0  0  0  0  0  0
  1  2  1  0
  2  3  2  0
  3  4  1  0
  4  5  2  0
  5  6  1  0
  6  7  1  0
  7  8  2  0
  7  9  1  0
  9 10  1  0
 10 11  1  0
 11 12  2  0
 12 13  1  0
 13 14  2  0
 14 15  1  0
 15 16  1  0
 16 17  1  0
 17 18  2  0
 18 19  1  0
 19 20  2  0
 20 21  1  0
 21 22  2  0
  5 23  1  0
 23 24  1  0
 23 25  2  0
 25 26  1  0
 26 27  2  0
 26 28  2  0
 26 29  1  0
 29 30  1  0
 30 31  1  0
 25  2  1  0
 31 29  1  0
 15 11  1  0
 22 17  1  0
  1 32  1  0
  1 33  1  0
  1 34  1  0
  3 35  1  0
  4 36  1  0
 10 37  1  0
 10 38  1  0
 13 39  1  0
 14 40  1  0
 16 41  1  0
 16 42  1  0
 18 43  1  0
 19 44  1  0
 20 45  1  0
 21 46  1  0
 29 47  1  0
 30 48  1  0
 30 49  1  0
 31 50  1  0
 31 51  1  0
M  CHG  3   6  -1   9  -1  24  -1
M  END
>  <UniqueID>  (13) 
13

>  <SMILES>  (13) 
Cc1ccc([N-]C(=O)[N-]Cc2nccn2Cc2ccccn2)c([O-])c1S(=O)(=O)C1CC1

>  <Energy>  (13) 
350.8107749513887

>  <Genealogy>  (13) 
Cc1ccc([N-]C(=O)[N-]Cc2nccn2Cc2ccccn2)c([O-])c1S(=O)(=O)C1CC1 (protonated)
Cc1ccc([N-]C(=O)[N-]Cc2nccn2Cc2ccccn2)c([O-])c1S(=O)(=O)C1CC1 (3D coordinates assigned)
Cc1ccc([N-]C(=O)[N-]Cc2nccn2Cc2ccccn2)c([O-])c1S(=O)(=O)C1CC1 (nonaromatic ring conformer: 350.8107749513887 kcal/mol)

>  <smiles>  (13) 
Cc1ccc(NC(=O)NCc2nccn2Cc2ccccn2)c(O)c1S(=O)(=O)C1CC1

>  <score_type>  (13) 
oracle

>  <origin>  (13) 
adgpu

>  <m_score__min__energy>  (13) 
-15.380000000000001

>  <m_primary>  (13) 
energy

$$$$
13:0
     RDKit          3D

 72 75  0  0  0  0  0  0  0  0999 V2000
   -1.3780   25.7000  -26.8740 C   0  0  0  0  0  0  0  0  0  0  0  0
   -2.2830   24.4920  -26.6280 C   0  0  0  0  0  0  0  0  0  0  0  0
   -2.5850   23.8050  -27.8950 N   0  0  0  0  0  0  0  0  0  0  0  0
   -1.8670   22.5830  -28.1480 C   0  0  0  0  0  0  0  0  0  0  0  0
   -0.7680   22.5800  -29.0110 C   0  0  0  0  0  0  0  0  0  0  0  0
   -0.0650   21.3990  -29.2530 C   0  0  0  0  0  0  0  0  0  0  0  0
   -0.4470   20.1950  -28.6350 C   0  0  0  0  0  0  0  0  0  0  0  0
    0.5310   18.7400  -28.9180 S   0  0  0  0  0  0  0  0  0  0  0  0
    1.6280   18.9320  -30.3090 C   0  0  0  0  0  0  0  0  0  0  0  0
    1.3810   18.4530  -27.7100 O   0  0  0  0  0  0  0  0  0  0  0  0
   -0.3760   17.5720  -29.1790 O   0  0  0  0  0  0  0  0  0  0  0  0
   -1.5750   20.1910  -27.7720 C   0  0  0  0  0  0  0  0  0  0  0  0
   -2.0430   18.9760  -27.0800 C   0  0  0  0  0  0  0  0  0  0  0  0
   -1.1310   17.9350  -26.7300 N   0  0  0  0  0  0  0  0  0  0  0  0
   -3.2670   18.8540  -26.8110 O   0  0  0  0  0  0  0  0  0  0  0  0
   -2.2660   21.3910  -27.5310 C   0  0  0  0  0  0  0  0  0  0  0  0
   -3.8280   24.1410  -28.6380 C   0  0  0  0  0  0  0  0  0  0  0  0
   -4.9220   23.0370  -28.5320 C   0  0  0  0  0  0  0  0  0  0  0  0
   -5.8900   23.0670  -29.7170 C   0  0  0  0  0  0  0  0  0  0  0  0
   -5.1490   22.8480  -30.9700 N   0  0  0  0  0  0  0  0  0  0  0  0
   -5.7320   22.1260  -32.0770 C   0  0  0  0  0  0  0  0  0  0  0  0
   -5.0190   21.8030  -33.0640 O   0  0  0  0  0  0  0  0  0  0  0  0
   -7.1530   21.7360  -32.0870 C   0  0  0  0  0  0  0  0  0  0  0  0
   -8.1180   22.7510  -31.9810 C   0  0  0  0  0  0  0  0  0  0  0  0
   -9.4750   22.4340  -31.9430 C   0  0  0  0  0  0  0  0  0  0  0  0
   -9.8800   21.1020  -31.9970 C   0  0  0  0  0  0  0  0  0  0  0  0
   -8.9300   20.0810  -32.0930 C   0  0  0  0  0  0  0  0  0  0  0  0
   -7.5550   20.3770  -32.1450 C   0  0  0  0  0  0  0  0  0  0  0  0
   -6.3270   19.0860  -32.2640 S   0  0  0  0  0  0  0  0  0  0  0  0
   -7.0110   17.7700  -32.0100 O   0  0  0  0  0  0  0  0  0  0  0  0
   -5.3010   19.3070  -31.1880 O   0  0  0  0  0  0  0  0  0  0  0  0
   -5.4730   18.9600  -33.7860 N   0  0  0  0  0  0  0  0  0  0  0  0
   -4.0150   18.9760  -33.6340 C   0  0  0  0  0  0  0  0  0  0  0  0
   -3.4380   17.9260  -34.5780 C   0  0  0  0  0  0  0  0  0  0  0  0
   -4.6200   17.3730  -35.3590 C   0  0  0  0  0  0  0  0  0  0  0  0
   -5.8440   17.7740  -34.5600 C   0  0  0  0  0  0  0  0  0  0  0  0
   -3.7680   23.3470  -31.0870 C   0  0  0  0  0  0  0  0  0  0  0  0
   -3.5210   24.5070  -30.1190 C   0  0  0  0  0  0  0  0  0  0  0  0
   -1.0610   26.1231  -25.9094 H   0  0  0  0  0  0  0  0  0  0  0  0
   -0.4922   25.3844  -27.4448 H   0  0  0  0  0  0  0  0  0  0  0  0
   -1.9298   26.4614  -27.4448 H   0  0  0  0  0  0  0  0  0  0  0  0
   -1.7746   23.7916  -25.9491 H   0  0  0  0  0  0  0  0  0  0  0  0
   -3.2252   24.8399  -26.1795 H   0  0  0  0  0  0  0  0  0  0  0  0
   -0.4554   23.5133  -29.5021 H   0  0  0  0  0  0  0  0  0  0  0  0
    0.7979   21.4100  -29.9351 H   0  0  0  0  0  0  0  0  0  0  0  0
    2.6512   19.1111  -29.9471 H   0  0  0  0  0  0  0  0  0  0  0  0
    1.6098   18.0170  -30.9193 H   0  0  0  0  0  0  0  0  0  0  0  0
    1.3002   19.7864  -30.9193 H   0  0  0  0  0  0  0  0  0  0  0  0
   -1.4490   17.1290  -26.1460 H   0  0  0  0  0  0  0  0  0  0  0  0
   -0.1430   17.9580  -27.0640 H   0  0  0  0  0  0  0  0  0  0  0  0
   -3.1299   21.3938  -26.8501 H   0  0  0  0  0  0  0  0  0  0  0  0
   -4.2497   25.0317  -28.1492 H   0  0  0  0  0  0  0  0  0  0  0  0
   -4.4308   22.0533  -28.5006 H   0  0  0  0  0  0  0  0  0  0  0  0
   -5.5027   23.2237  -27.6166 H   0  0  0  0  0  0  0  0  0  0  0  0
   -6.6427   22.2743  -29.5942 H   0  0  0  0  0  0  0  0  0  0  0  0
   -6.3879   24.0471  -29.7553 H   0  0  0  0  0  0  0  0  0  0  0  0
   -7.8009   23.8030  -31.9276 H   0  0  0  0  0  0  0  0  0  0  0  0
  -10.2255   23.2349  -31.8704 H   0  0  0  0  0  0  0  0  0  0  0  0
  -10.9509   20.8529  -31.9640 H   0  0  0  0  0  0  0  0  0  0  0  0
   -9.2614   19.0327  -32.1284 H   0  0  0  0  0  0  0  0  0  0  0  0
   -3.6222   19.9699  -33.8944 H   0  0  0  0  0  0  0  0  0  0  0  0
   -3.7340   18.7545  -32.5938 H   0  0  0  0  0  0  0  0  0  0  0  0
   -2.7090   18.3855  -35.2617 H   0  0  0  0  0  0  0  0  0  0  0  0
   -2.9117   17.1329  -34.0266 H   0  0  0  0  0  0  0  0  0  0  0  0
   -4.6561   17.8119  -36.3670 H   0  0  0  0  0  0  0  0  0  0  0  0
   -4.5530   16.2830  -35.4909 H   0  0  0  0  0  0  0  0  0  0  0  0
   -6.6782   18.0094  -35.2373 H   0  0  0  0  0  0  0  0  0  0  0  0
   -6.1695   16.9570  -33.8993 H   0  0  0  0  0  0  0  0  0  0  0  0
   -3.0692   22.5298  -30.8552 H   0  0  0  0  0  0  0  0  0  0  0  0
   -3.6111   23.7078  -32.1142 H   0  0  0  0  0  0  0  0  0  0  0  0
   -2.4654   24.8071  -30.1940 H   0  0  0  0  0  0  0  0  0  0  0  0
   -4.2018   25.3228  -30.4036 H   0  0  0  0  0  0  0  0  0  0  0  0
  1  2  1  0
  2  3  1  0
  3  4  1  0
  4  5  2  0
  5  6  1  0
  6  7  2  0
  7  8  1  0
  8  9  1  0
  8 10  2  0
  8 11  2  0
  7 12  1  0
 12 13  1  0
 13 14  1  0
 13 15  2  0
 12 16  2  0
  3 17  1  0
 17 18  1  0
 18 19  1  0
 19 20  1  0
 20 21  1  0
 21 22  2  0
 21 23  1  0
 23 24  2  0
 24 25  1  0
 25 26  2  0
 26 27  1  0
 27 28  2  0
 28 29  1  0
 29 30  2  0
 29 31  2  0
 29 32  1  0
 32 33  1  0
 33 34  1  0
 34 35  1  0
 35 36  1  0
 20 37  1  0
 37 38  1  0
 16  4  1  0
 38 17  1  0
 28 23  1  0
 36 32  1  0
  1 39  1  0
  1 40  1  0
  1 41  1  0
  2 42  1  0
  2 43  1  0
  5 44  1  0
  6 45  1  0
  9 46  1  0
  9 47  1  0
  9 48  1  0
 14 49  1  0
 14 50  1  0
 16 51  1  0
 17 52  1  0
 18 53  1  0
 18 54  1  0
 19 55  1  0
 19 56  1  0
 24 57  1  0
 25 58  1  0
 26 59  1  0
 27 60  1  0
 33 61  1  0
 33 62  1  0
 34 63  1  0
 34 64  1  0
 35 65  1  0
 35 66  1  0
 36 67  1  0
 36 68  1  0
 37 69  1  0
 37 70  1  0
 38 71  1  0
 38 72  1  0
M  END
>  <UniqueID>  (14) 
14

>  <SMILES>  (14) 
CCN(c1ccc(S(C)(=O)=O)c(C(N)=O)c1)C1CCN(C(=O)c2ccccc2S(=O)(=O)N2CCCC2)CC1

>  <Energy>  (14) 
100.31846857132234

>  <Genealogy>  (14) 
CCN(c1ccc(S(C)(=O)=O)c(C(N)=O)c1)C1CCN(C(=O)c2ccccc2S(=O)(=O)N2CCCC2)CC1 (3D coordinates assigned)
CCN(c1ccc(S(C)(=O)=O)c(C(N)=O)c1)C1CCN(C(=O)c2ccccc2S(=O)(=O)N2CCCC2)CC1 (nonaromatic ring conformer: 100.31846857132234 kcal/mol)

>  <smiles>  (14) 
CCN(c1ccc(S(C)(=O)=O)c(C(N)=O)c1)C1CCN(C(=O)c2ccccc2S(=O)(=O)N2CCCC2)CC1

>  <score_type>  (14) 
oracle

>  <origin>  (14) 
adgpu

>  <m_score__min__energy>  (14) 
-11.210000000000001

>  <m_primary>  (14) 
energy

$$$$
14:0
     RDKit          3D

 56 58  0  0  0  0  0  0  0  0999 V2000
   -3.1730   18.7510  -26.4590 C   0  0  0  0  0  0  0  0  0  0  0  0
   -1.8080   19.2680  -26.6150 N   0  0  0  0  0  0  0  0  0  0  0  0
   -1.5930   20.4090  -25.7150 C   0  0  0  0  0  0  0  0  0  0  0  0
   -1.5600   19.7760  -28.2700 S   0  0  0  0  0  0  0  0  0  0  0  0
   -0.8450   18.6950  -29.0360 O   0  0  0  0  0  0  0  0  0  0  0  0
   -2.8810   20.0460  -28.9340 O   0  0  0  0  0  0  0  0  0  0  0  0
   -0.6110   21.2280  -28.3170 N   0  0  0  0  0  0  0  0  0  0  0  0
   -1.2430   22.5120  -28.3560 C   0  0  0  0  0  0  0  0  0  0  0  0
   -2.2900   22.7170  -29.2600 C   0  0  0  0  0  0  0  0  0  0  0  0
   -2.9470   23.9500  -29.3470 C   0  0  0  0  0  0  0  0  0  0  0  0
   -4.0240   24.1590  -30.3490 C   0  0  0  0  0  0  0  0  0  0  0  0
   -4.1750   25.3010  -30.8680 O   0  0  0  0  0  0  0  0  0  0  0  0
   -4.9420   23.0640  -30.7420 C   0  0  0  0  0  0  0  0  0  0  0  0
   -6.2930   23.0840  -30.3520 C   0  0  0  0  0  0  0  0  0  0  0  0
   -7.1690   22.0820  -30.7790 C   0  0  0  0  0  0  0  0  0  0  0  0
   -6.7030   21.0380  -31.5890 C   0  0  0  0  0  0  0  0  0  0  0  0
   -7.8090   19.8080  -32.1920 S   0  0  0  0  0  0  0  0  0  0  0  0
   -8.8470   20.4210  -33.0900 O   0  0  0  0  0  0  0  0  0  0  0  0
   -8.5090   19.1600  -31.0310 O   0  0  0  0  0  0  0  0  0  0  0  0
   -6.8890   18.6160  -33.1050 C   0  0  0  0  0  0  0  0  0  0  0  0
   -6.8790   17.2660  -32.7120 C   0  0  0  0  0  0  0  0  0  0  0  0
   -6.1270   16.3340  -33.4330 C   0  0  0  0  0  0  0  0  0  0  0  0
   -5.3840   16.7400  -34.5450 C   0  0  0  0  0  0  0  0  0  0  0  0
   -5.3870   18.0820  -34.9350 C   0  0  0  0  0  0  0  0  0  0  0  0
   -6.1360   19.0210  -34.2180 C   0  0  0  0  0  0  0  0  0  0  0  0
   -5.3520   20.9930  -31.9500 C   0  0  0  0  0  0  0  0  0  0  0  0
   -4.4720   21.9950  -31.5220 C   0  0  0  0  0  0  0  0  0  0  0  0
   -2.6000   24.9630  -28.4460 C   0  0  0  0  0  0  0  0  0  0  0  0
   -1.5750   24.7740  -27.5130 C   0  0  0  0  0  0  0  0  0  0  0  0
   -1.2680   26.0860  -26.3840 Cl  0  0  0  0  0  0  0  0  0  0  0  0
   -0.8490   23.5580  -27.4860 C   0  0  0  0  0  0  0  0  0  0  0  0
    0.5330   23.3410  -26.3880 S   0  0  0  0  0  0  0  0  0  0  0  0
   -0.0610   23.1960  -24.7190 C   0  0  0  0  0  0  0  0  0  0  0  0
    1.4740   24.5110  -26.4840 O   0  0  0  0  0  0  0  0  0  0  0  0
    1.3070   22.1030  -26.7500 O   0  0  0  0  0  0  0  0  0  0  0  0
   -3.4109   18.6609  -25.3888 H   0  0  0  0  0  0  0  0  0  0  0  0
   -3.8836   19.4423  -26.9356 H   0  0  0  0  0  0  0  0  0  0  0  0
   -3.2474   17.7624  -26.9356 H   0  0  0  0  0  0  0  0  0  0  0  0
   -1.6570   20.0694  -24.6707 H   0  0  0  0  0  0  0  0  0  0  0  0
   -0.5979   20.8397  -25.9002 H   0  0  0  0  0  0  0  0  0  0  0  0
   -2.3631   21.1723  -25.9002 H   0  0  0  0  0  0  0  0  0  0  0  0
    0.4060   21.1430  -28.5270 H   0  0  0  0  0  0  0  0  0  0  0  0
   -2.6039   21.8921  -29.9165 H   0  0  0  0  0  0  0  0  0  0  0  0
   -6.6630   23.8940  -29.7063 H   0  0  0  0  0  0  0  0  0  0  0  0
   -8.2267   22.1131  -30.4784 H   0  0  0  0  0  0  0  0  0  0  0  0
   -7.4628   16.9433  -31.8373 H   0  0  0  0  0  0  0  0  0  0  0  0
   -6.1200   15.2782  -33.1244 H   0  0  0  0  0  0  0  0  0  0  0  0
   -4.7970   16.0034  -35.1131 H   0  0  0  0  0  0  0  0  0  0  0  0
   -4.7988   18.4008  -35.8082 H   0  0  0  0  0  0  0  0  0  0  0  0
   -6.1348   20.0768  -34.5265 H   0  0  0  0  0  0  0  0  0  0  0  0
   -4.9792   20.1666  -32.5730 H   0  0  0  0  0  0  0  0  0  0  0  0
   -3.4084   21.9444  -31.7979 H   0  0  0  0  0  0  0  0  0  0  0  0
   -3.1405   25.9207  -28.4718 H   0  0  0  0  0  0  0  0  0  0  0  0
    0.7625   23.3970  -24.0180 H   0  0  0  0  0  0  0  0  0  0  0  0
   -0.8695   23.9231  -24.5531 H   0  0  0  0  0  0  0  0  0  0  0  0
   -0.4436   22.1781  -24.5531 H   0  0  0  0  0  0  0  0  0  0  0  0
  1  2  1  0
  2  3  1  0
  2  4  1  0
  4  5  2  0
  4  6  2  0
  4  7  1  0
  7  8  1  0
  8  9  2  0
  9 10  1  0
 10 11  1  0
 11 12  2  0
 11 13  1  0
 13 14  2  0
 14 15  1  0
 15 16  2  0
 16 17  1  0
 17 18  2  0
 17 19  2  0
 17 20  1  0
 20 21  2  0
 21 22  1  0
 22 23  2  0
 23 24  1  0
 24 25  2  0
 16 26  1  0
 26 27  2  0
 10 28  2  0
 28 29  1  0
 29 30  1  0
 29 31  2  0
 31 32  1  0
 32 33  1  0
 32 34  2  0
 32 35  2  0
 31  8  1  0
 27 13  1  0
 25 20  1  0
  1 36  1  0
  1 37  1  0
  1 38  1  0
  3 39  1  0
  3 40  1  0
  3 41  1  0
  7 42  1  0
  9 43  1  0
 14 44  1  0
 15 45  1  0
 21 46  1  0
 22 47  1  0
 23 48  1  0
 24 49  1  0
 25 50  1  0
 26 51  1  0
 27 52  1  0
 28 53  1  0
 33 54  1  0
 33 55  1  0
 33 56  1  0
M  END
>  <UniqueID>  (15) 
15

>  <SMILES>  (15) 
CN(C)S(=O)(=O)Nc1cc(C(=O)c2ccc(S(=O)(=O)c3ccccc3)cc2)cc(Cl)c1S(C)(=O)=O

>  <Energy>  (15) 
66.95785630084264

>  <Genealogy>  (15) 
CN(C)S(=O)(=O)Nc1cc(C(=O)c2ccc(S(=O)(=O)c3ccccc3)cc2)cc(Cl)c1S(C)(=O)=O (3D coordinates assigned)
CN(C)S(=O)(=O)Nc1cc(C(=O)c2ccc(S(=O)(=O)c3ccccc3)cc2)cc(Cl)c1S(C)(=O)=O (optimized conformer: 66.95785630084264 kcal/mol)

>  <smiles>  (15) 
CN(C)S(=O)(=O)Nc1cc(C(=O)c2ccc(S(=O)(=O)c3ccccc3)cc2)cc(Cl)c1S(C)(=O)=O

>  <score_type>  (15) 
oracle

>  <origin>  (15) 
adgpu

>  <m_score__min__energy>  (15) 
-11.210000000000001

>  <m_primary>  (15) 
energy

$$$$
15:0
     RDKit          3D

 48 50  0  0  0  0  0  0  0  0999 V2000
    0.4807   25.7921  -27.4101 H   0  0  0  0  0  0  0  0  0  0  0  0
   -0.2910   25.0300  -27.5940 C   0  0  0  0  0  0  0  0  0  0  0  0
   -0.3130   23.8620  -26.8320 C   0  0  0  0  0  0  0  0  0  0  0  0
    0.4462   23.7071  -26.0512 H   0  0  0  0  0  0  0  0  0  0  0  0
   -1.2930   22.8830  -27.0510 C   0  0  0  0  0  0  0  0  0  0  0  0
   -1.2570   21.4210  -25.9980 S   0  0  0  0  0  0  0  0  0  0  0  0
   -0.5190   20.3770  -27.2580 C   0  0  0  0  0  0  0  0  0  0  0  0
    0.4310   20.9050  -28.1370 C   0  0  0  0  0  0  0  0  0  0  0  0
    0.7329   21.9591  -28.0489 H   0  0  0  0  0  0  0  0  0  0  0  0
    0.9990   20.0980  -29.1280 C   0  0  0  0  0  0  0  0  0  0  0  0
    1.7390   20.5211  -29.8232 H   0  0  0  0  0  0  0  0  0  0  0  0
    0.6270   18.7510  -29.2370 C   0  0  0  0  0  0  0  0  0  0  0  0
    1.3210   17.7380  -30.5050 S   0  0  0  0  0  0  0  0  0  0  0  0
    0.7530   16.3500  -30.3960 O   0  0  0  0  0  0  0  0  0  0  0  0
    2.8080   17.6480  -30.3070 O   0  0  0  0  0  0  0  0  0  0  0  0
    0.9790   18.3860  -32.0910 N   0  0  0  0  0  0  0  0  0  0  0  0
    0.2820   19.1590  -31.9820 H   0  0  0  0  0  0  0  0  0  0  0  0
    2.2020   18.9350  -32.6920 C   0  0  0  0  0  0  0  0  0  0  0  0
    2.8943   19.2458  -31.8957 H   0  0  0  0  0  0  0  0  0  0  0  0
    2.6815   18.1658  -33.3152 H   0  0  0  0  0  0  0  0  0  0  0  0
    1.9459   19.8045  -33.3152 H   0  0  0  0  0  0  0  0  0  0  0  0
    0.4000   17.3460  -32.9520 C   0  0  0  0  0  0  0  0  0  0  0  0
   -0.0402   16.5554  -32.3266 H   0  0  0  0  0  0  0  0  0  0  0  0
   -0.3814   17.7888  -33.5871 H   0  0  0  0  0  0  0  0  0  0  0  0
    1.1880   16.9151  -33.5871 H   0  0  0  0  0  0  0  0  0  0  0  0
   -0.3070   18.2160  -28.3380 C   0  0  0  0  0  0  0  0  0  0  0  0
   -0.5951   17.1570  -28.4123 H   0  0  0  0  0  0  0  0  0  0  0  0
   -0.8730   19.0240  -27.3480 C   0  0  0  0  0  0  0  0  0  0  0  0
   -1.5973   18.5974  -26.6385 H   0  0  0  0  0  0  0  0  0  0  0  0
   -2.2470   23.0700  -28.0820 C   0  0  0  0  0  0  0  0  0  0  0  0
   -3.4930   21.8750  -28.4740 S   0  0  0  0  0  0  0  0  0  0  0  0
   -4.8010   22.3160  -27.8830 O   0  0  0  0  0  0  0  0  0  0  0  0
   -3.1210   20.5170  -27.9500 O   0  0  0  0  0  0  0  0  0  0  0  0
   -3.6500   21.7680  -30.1980 N   0  0  0  0  0  0  0  0  0  0  0  0
   -2.6700   21.4360  -30.9820 C   0  0  0  0  0  0  0  0  0  0  0  0
   -1.4270   21.1330  -30.5590 N   0  0  0  0  0  0  0  0  0  0  0  0
   -0.7300   20.8210  -31.6440 N   0  0  0  0  0  0  0  0  0  0  0  0
   -1.5570   20.9410  -32.7030 C   0  0  0  0  0  0  0  0  0  0  0  0
   -1.2675   20.7383  -33.7447 H   0  0  0  0  0  0  0  0  0  0  0  0
   -2.7820   21.3410  -32.3180 N   0  0  0  0  0  0  0  0  0  0  0  0
   -3.9740   21.4900  -33.1450 C   0  0  0  0  0  0  0  0  0  0  0  0
   -4.8572   21.6004  -32.4987 H   0  0  0  0  0  0  0  0  0  0  0  0
   -3.8705   22.3822  -33.7800 H   0  0  0  0  0  0  0  0  0  0  0  0
   -4.0933   20.5998  -33.7800 H   0  0  0  0  0  0  0  0  0  0  0  0
   -2.2190   24.2580  -28.8320 C   0  0  0  0  0  0  0  0  0  0  0  0
   -2.9701   24.4229  -29.6186 H   0  0  0  0  0  0  0  0  0  0  0  0
   -1.2470   25.2320  -28.5890 C   0  0  0  0  0  0  0  0  0  0  0  0
   -1.2300   26.4000  -29.3410 O   0  0  0  0  0  0  0  0  0  0  0  0
  1  2  1  0
  2  3  2  0
  3  4  1  0
  3  5  1  0
  5  6  1  0
  6  7  1  0
  7  8  2  0
  8  9  1  0
  8 10  1  0
 10 11  1  0
 10 12  2  0
 12 13  1  0
 13 14  2  0
 13 15  2  0
 13 16  1  0
 16 17  1  0
 16 18  1  0
 18 19  1  0
 18 20  1  0
 18 21  1  0
 16 22  1  0
 22 23  1  0
 22 24  1  0
 22 25  1  0
 12 26  1  0
 26 27  1  0
 26 28  2  0
 28 29  1  0
  5 30  2  0
 30 31  1  0
 31 32  2  0
 31 33  2  0
 31 34  1  0
 34 35  2  0
 35 36  1  0
 36 37  1  0
 37 38  2  0
 38 39  1  0
 38 40  1  0
 40 41  1  0
 41 42  1  0
 41 43  1  0
 41 44  1  0
 30 45  1  0
 45 46  1  0
 45 47  2  0
 47 48  1  0
 47  2  1  0
 28  7  1  0
 40 35  1  0
M  CHG  3  16   1  36  -1  48  -1
M  END
>  <UniqueID>  (16) 
16

>  <SMILES>  (16) 
Cn1cn[n-]/c1=N\S(=O)(=O)c1cc([O-])ccc1Sc1ccc(S(=O)(=O)[NH+](C)C)cc1

>  <Energy>  (16) 
83.36103177411182

>  <Genealogy>  (16) 
Cn1cn[n-]c1=NS(=O)(=O)c1cc([O-])ccc1Sc1ccc(S(=O)(=O)[NH+](C)C)cc1 (protonated)
Cn1cn[n-]/c1=N\S(=O)(=O)c1cc([O-])ccc1Sc1ccc(S(=O)(=O)[NH+](C)C)cc1 (cis-trans isomerization)
Cn1cn[n-]/c1=N\S(=O)(=O)c1cc([O-])ccc1Sc1ccc(S(=O)(=O)[NH+](C)C)cc1 (3D coordinates assigned)
Cn1cn[n-]/c1=N\S(=O)(=O)c1cc([O-])ccc1Sc1ccc(S(=O)(=O)[NH+](C)C)cc1 (optimized conformer: 83.36103177411182 kcal/mol)

>  <smiles>  (16) 
CN(C)S(=O)(=O)c1ccc(Sc2ccc(O)cc2S(=O)(=O)N=c2[nH]ncn2C)cc1

>  <score_type>  (16) 
oracle

>  <origin>  (16) 
adgpu

>  <m_score__min__energy>  (16) 
-10.35

>  <m_primary>  (16) 
energy

$$$$
16:0
     RDKit          3D

 61 63  0  0  0  0  0  0  0  0999 V2000
   -8.7260   20.0140  -31.9930 C   0  0  0  0  0  0  0  0  0  0  0  0
   -8.1670   21.2280  -31.9930 C   0  0  0  0  0  0  0  0  0  0  0  0
   -8.2040   22.1130  -30.7790 C   0  0  0  0  0  0  0  0  0  0  0  0
   -6.9580   22.9520  -30.6940 C   0  0  0  0  0  0  0  0  0  0  0  0
   -7.0400   24.3170  -30.3760 C   0  0  0  0  0  0  0  0  0  0  0  0
   -5.8800   25.0850  -30.2700 C   0  0  0  0  0  0  0  0  0  0  0  0
   -4.6250   24.5030  -30.4710 C   0  0  0  0  0  0  0  0  0  0  0  0
   -3.4860   25.2950  -30.3780 O   0  0  0  0  0  0  0  0  0  0  0  0
   -4.5240   23.1310  -30.7780 C   0  0  0  0  0  0  0  0  0  0  0  0
   -3.2040   22.4860  -30.9680 C   0  0  0  0  0  0  0  0  0  0  0  0
   -2.7360   22.2280  -32.2660 C   0  0  0  0  0  0  0  0  0  0  0  0
   -1.4870   21.6200  -32.4720 C   0  0  0  0  0  0  0  0  0  0  0  0
   -0.9910   21.3580  -33.7980 N   0  0  0  0  0  0  0  0  0  0  0  0
    0.2210   20.6330  -34.0690 C   0  0  0  0  0  0  0  0  0  0  0  0
    0.4570   19.4140  -33.4070 C   0  0  0  0  0  0  0  0  0  0  0  0
    1.6610   18.7320  -33.5840 C   0  0  0  0  0  0  0  0  0  0  0  0
    2.6490   19.2630  -34.4100 C   0  0  0  0  0  0  0  0  0  0  0  0
    2.4350   20.4750  -35.0700 C   0  0  0  0  0  0  0  0  0  0  0  0
    1.2210   21.1720  -34.9180 C   0  0  0  0  0  0  0  0  0  0  0  0
    1.0120   22.4280  -35.6790 C   0  0  0  0  0  0  0  0  0  0  0  0
   -0.0690   23.0690  -35.5690 O   0  0  0  0  0  0  0  0  0  0  0  0
    2.0280   22.8980  -36.5750 N   0  0  0  0  0  0  0  0  0  0  0  0
    2.7640   24.1450  -36.3940 C   0  0  0  0  0  0  0  0  0  0  0  0
    2.0690   25.0560  -35.3750 C   0  0  0  0  0  0  0  0  0  0  0  0
    0.9990   25.9430  -36.0080 C   0  0  0  0  0  0  0  0  0  0  0  0
   -0.6860   21.3120  -31.3650 C   0  0  0  0  0  0  0  0  0  0  0  0
   -1.1300   21.5830  -30.0660 C   0  0  0  0  0  0  0  0  0  0  0  0
   -0.0800   21.1680  -28.6670 S   0  0  0  0  0  0  0  0  0  0  0  0
   -0.1970   22.8110  -27.8680 C   0  0  0  0  0  0  0  0  0  0  0  0
   -0.0960   23.9570  -28.8770 C   0  0  0  0  0  0  0  0  0  0  0  0
   -1.2280   24.7820  -28.8040 O   0  0  0  0  0  0  0  0  0  0  0  0
   -2.3980   22.1480  -29.8630 C   0  0  0  0  0  0  0  0  0  0  0  0
   -2.8610   22.3580  -28.5680 O   0  0  0  0  0  0  0  0  0  0  0  0
   -5.6980   22.3650  -30.8840 C   0  0  0  0  0  0  0  0  0  0  0  0
   -8.6830   19.3887  -32.8969 H   0  0  0  0  0  0  0  0  0  0  0  0
   -9.2291   19.6402  -31.0891 H   0  0  0  0  0  0  0  0  0  0  0  0
   -7.6674   21.5884  -32.9043 H   0  0  0  0  0  0  0  0  0  0  0  0
   -9.0809   22.7742  -30.8408 H   0  0  0  0  0  0  0  0  0  0  0  0
   -8.2657   21.4798  -29.8816 H   0  0  0  0  0  0  0  0  0  0  0  0
   -8.0226   24.7828  -30.2098 H   0  0  0  0  0  0  0  0  0  0  0  0
   -5.9535   26.1552  -30.0267 H   0  0  0  0  0  0  0  0  0  0  0  0
   -3.3549   22.5053  -33.1320 H   0  0  0  0  0  0  0  0  0  0  0  0
   -1.5170   21.7510  -34.6110 H   0  0  0  0  0  0  0  0  0  0  0  0
   -0.3145   18.9952  -32.7442 H   0  0  0  0  0  0  0  0  0  0  0  0
    1.8304   17.7739  -33.0708 H   0  0  0  0  0  0  0  0  0  0  0  0
    3.6000   18.7264  -34.5427 H   0  0  0  0  0  0  0  0  0  0  0  0
    3.2233   20.8896  -35.7155 H   0  0  0  0  0  0  0  0  0  0  0  0
    3.7782   23.9143  -36.0360 H   0  0  0  0  0  0  0  0  0  0  0  0
    2.8037   24.6695  -37.3601 H   0  0  0  0  0  0  0  0  0  0  0  0
    1.5951   24.4271  -34.6070 H   0  0  0  0  0  0  0  0  0  0  0  0
    2.8355   25.7172  -34.9446 H   0  0  0  0  0  0  0  0  0  0  0  0
    0.4112   26.4303  -35.2162 H   0  0  0  0  0  0  0  0  0  0  0  0
    1.4808   26.7102  -36.6319 H   0  0  0  0  0  0  0  0  0  0  0  0
    0.3344   25.3273  -36.6319 H   0  0  0  0  0  0  0  0  0  0  0  0
    0.3017   20.8526  -31.5183 H   0  0  0  0  0  0  0  0  0  0  0  0
   -1.1631   22.8828  -27.3470 H   0  0  0  0  0  0  0  0  0  0  0  0
    0.6458   22.9048  -27.1674 H   0  0  0  0  0  0  0  0  0  0  0  0
    0.8011   24.5543  -28.6567 H   0  0  0  0  0  0  0  0  0  0  0  0
   -0.0321   23.5324  -29.8897 H   0  0  0  0  0  0  0  0  0  0  0  0
   -1.9910   24.2570  -29.1620 H   0  0  0  0  0  0  0  0  0  0  0  0
   -5.6279   21.2926  -31.1187 H   0  0  0  0  0  0  0  0  0  0  0  0
  1  2  2  0
  2  3  1  0
  3  4  1  0
  4  5  2  0
  5  6  1  0
  6  7  2  0
  7  8  1  0
  7  9  1  0
  9 10  1  0
 10 11  2  0
 11 12  1  0
 12 13  1  0
 13 14  1  0
 14 15  2  0
 15 16  1  0
 16 17  2  0
 17 18  1  0
 18 19  2  0
 19 20  1  0
 20 21  2  0
 20 22  1  0
 22 23  1  0
 23 24  1  0
 24 25  1  0
 12 26  2  0
 26 27  1  0
 27 28  1  0
 28 29  1  0
 29 30  1  0
 30 31  1  0
 27 32  2  0
 32 33  1  0
  9 34  2  0
 34  4  1  0
 32 10  1  0
 19 14  1  0
  1 35  1  0
  1 36  1  0
  2 37  1  0
  3 38  1  0
  3 39  1  0
  5 40  1  0
  6 41  1  0
 11 42  1  0
 13 43  1  0
 15 44  1  0
 16 45  1  0
 17 46  1  0
 18 47  1  0
 23 48  1  0
 23 49  1  0
 24 50  1  0
 24 51  1  0
 25 52  1  0
 25 53  1  0
 25 54  1  0
 26 55  1  0
 29 56  1  0
 29 57  1  0
 30 58  1  0
 30 59  1  0
 31 60  1  0
 34 61  1  0
M  CHG  3   8  -1  22  -1  33  -1
M  END
>  <UniqueID>  (17) 
17

>  <SMILES>  (17) 
C=CCc1ccc([O-])c(-c2cc(Nc3ccccc3C(=O)[N-]CCC)cc(SCCO)c2[O-])c1

>  <Energy>  (17) 
65.07736433923841

>  <Genealogy>  (17) 
C=CCc1ccc([O-])c(-c2cc(Nc3ccccc3C(=O)[N-]CCC)cc(SCCO)c2[O-])c1 (protonated)
C=CCc1ccc([O-])c(-c2cc(Nc3ccccc3C(=O)[N-]CCC)cc(SCCO)c2[O-])c1 (3D coordinates assigned)
C=CCc1ccc([O-])c(-c2cc(Nc3ccccc3C(=O)[N-]CCC)cc(SCCO)c2[O-])c1 (optimized conformer: 65.07736433923841 kcal/mol)

>  <smiles>  (17) 
C=CCc1ccc(O)c(-c2cc(Nc3ccccc3C(=O)NCCC)cc(SCCO)c2O)c1

>  <score_type>  (17) 
oracle

>  <origin>  (17) 
adgpu

>  <m_score__min__energy>  (17) 
-13.25

>  <m_primary>  (17) 
energy

$$$$
17:0
     RDKit          3D

 59 62  0  0  0  0  0  0  0  0999 V2000
   -6.5620   15.9110  -34.1230 C   0  0  0  0  0  0  0  0  0  0  0  0
   -6.5040   17.2820  -33.5180 C   0  0  0  0  0  0  0  0  0  0  0  0
   -6.9020   17.4810  -32.1870 C   0  0  0  0  0  0  0  0  0  0  0  0
   -6.8160   18.7510  -31.6090 C   0  0  0  0  0  0  0  0  0  0  0  0
   -6.3180   19.8320  -32.3490 C   0  0  0  0  0  0  0  0  0  0  0  0
   -6.2440   21.4350  -31.6160 S   0  0  0  0  0  0  0  0  0  0  0  0
   -6.4720   22.4340  -32.7160 O   0  0  0  0  0  0  0  0  0  0  0  0
   -7.3400   21.5650  -30.5950 O   0  0  0  0  0  0  0  0  0  0  0  0
   -4.6730   21.7090  -30.8350 C   0  0  0  0  0  0  0  0  0  0  0  0
   -3.8820   20.5860  -30.5550 C   0  0  0  0  0  0  0  0  0  0  0  0
   -2.6350   20.7250  -30.0480 N   0  0  0  0  0  0  0  0  0  0  0  0
   -2.0930   21.9370  -29.7710 C   0  0  0  0  0  0  0  0  0  0  0  0
   -0.7290   22.0150  -29.3280 N   0  0  0  0  0  0  0  0  0  0  0  0
   -0.1800   21.1700  -27.9200 S   0  0  0  0  0  0  0  0  0  0  0  0
    1.0150   20.3300  -28.2780 O   0  0  0  0  0  0  0  0  0  0  0  0
   -1.2720   20.2620  -27.4240 O   0  0  0  0  0  0  0  0  0  0  0  0
    0.2220   22.3270  -26.6560 C   0  0  0  0  0  0  0  0  0  0  0  0
    1.2110   23.3020  -26.8640 C   0  0  0  0  0  0  0  0  0  0  0  0
    1.4980   24.2330  -25.8630 C   0  0  0  0  0  0  0  0  0  0  0  0
    0.8030   24.1970  -24.6500 C   0  0  0  0  0  0  0  0  0  0  0  0
   -0.1840   23.2290  -24.4390 C   0  0  0  0  0  0  0  0  0  0  0  0
   -0.4760   22.2980  -25.4400 C   0  0  0  0  0  0  0  0  0  0  0  0
   -2.8630   23.1000  -29.9640 C   0  0  0  0  0  0  0  0  0  0  0  0
   -2.3330   24.3610  -29.6620 O   0  0  0  0  0  0  0  0  0  0  0  0
   -2.2140   24.8830  -28.3630 C   0  0  0  0  0  0  0  0  0  0  0  0
   -3.1760   24.5300  -27.4100 C   0  0  0  0  0  0  0  0  0  0  0  0
   -3.0960   25.0280  -26.1050 C   0  0  0  0  0  0  0  0  0  0  0  0
   -2.0470   25.8790  -25.7440 C   0  0  0  0  0  0  0  0  0  0  0  0
   -1.0770   26.2290  -26.6860 C   0  0  0  0  0  0  0  0  0  0  0  0
   -1.1530   25.7320  -27.9900 C   0  0  0  0  0  0  0  0  0  0  0  0
   -4.1710   22.9950  -30.4900 C   0  0  0  0  0  0  0  0  0  0  0  0
   -5.1160   24.4950  -30.6960 S   0  0  0  0  0  0  0  0  0  0  0  0
   -6.4350   24.5250  -29.5010 C   0  0  0  0  0  0  0  0  0  0  0  0
   -5.7150   24.5380  -32.0740 O   0  0  0  0  0  0  0  0  0  0  0  0
   -4.2640   25.7200  -30.5420 O   0  0  0  0  0  0  0  0  0  0  0  0
   -5.9090   19.6320  -33.6750 C   0  0  0  0  0  0  0  0  0  0  0  0
   -5.9930   18.3620  -34.2530 C   0  0  0  0  0  0  0  0  0  0  0  0
   -6.5939   15.1578  -33.3220 H   0  0  0  0  0  0  0  0  0  0  0  0
   -7.4647   15.8228  -34.7454 H   0  0  0  0  0  0  0  0  0  0  0  0
   -5.6700   15.7468  -34.7454 H   0  0  0  0  0  0  0  0  0  0  0  0
   -7.2830   16.6347  -31.5965 H   0  0  0  0  0  0  0  0  0  0  0  0
   -7.1406   18.9025  -30.5690 H   0  0  0  0  0  0  0  0  0  0  0  0
   -4.2799   19.5792  -30.7498 H   0  0  0  0  0  0  0  0  0  0  0  0
   -0.0170   22.5370  -29.8830 H   0  0  0  0  0  0  0  0  0  0  0  0
    1.7604   23.3326  -27.8165 H   0  0  0  0  0  0  0  0  0  0  0  0
    2.2725   24.9962  -26.0292 H   0  0  0  0  0  0  0  0  0  0  0  0
    1.0325   24.9297  -23.8623 H   0  0  0  0  0  0  0  0  0  0  0  0
   -0.7308   23.2002  -23.4850 H   0  0  0  0  0  0  0  0  0  0  0  0
   -1.2558   21.5402  -25.2734 H   0  0  0  0  0  0  0  0  0  0  0  0
   -4.0002   23.8568  -27.6886 H   0  0  0  0  0  0  0  0  0  0  0  0
   -3.8587   24.7499  -25.3627 H   0  0  0  0  0  0  0  0  0  0  0  0
   -1.9857   26.2726  -24.7187 H   0  0  0  0  0  0  0  0  0  0  0  0
   -0.2512   26.8974  -26.4009 H   0  0  0  0  0  0  0  0  0  0  0  0
   -0.3829   26.0042  -28.7268 H   0  0  0  0  0  0  0  0  0  0  0  0
   -6.0107   24.5153  -28.4862 H   0  0  0  0  0  0  0  0  0  0  0  0
   -7.0343   25.4370  -29.6392 H   0  0  0  0  0  0  0  0  0  0  0  0
   -7.0751   23.6412  -29.6392 H   0  0  0  0  0  0  0  0  0  0  0  0
   -5.5208   20.4771  -34.2624 H   0  0  0  0  0  0  0  0  0  0  0  0
   -5.6568   18.2088  -35.2891 H   0  0  0  0  0  0  0  0  0  0  0  0
  1  2  1  0
  2  3  2  0
  3  4  1  0
  4  5  2  0
  5  6  1  0
  6  7  2  0
  6  8  2  0
  6  9  1  0
  9 10  2  0
 10 11  1  0
 11 12  2  0
 12 13  1  0
 13 14  1  0
 14 15  2  0
 14 16  2  0
 14 17  1  0
 17 18  2  0
 18 19  1  0
 19 20  2  0
 20 21  1  0
 21 22  2  0
 12 23  1  0
 23 24  1  0
 24 25  1  0
 25 26  2  0
 26 27  1  0
 27 28  2  0
 28 29  1  0
 29 30  2  0
 23 31  2  0
 31 32  1  0
 32 33  1  0
 32 34  2  0
 32 35  2  0
  5 36  1  0
 36 37  2  0
 37  2  1  0
 31  9  1  0
 22 17  1  0
 30 25  1  0
  1 38  1  0
  1 39  1  0
  1 40  1  0
  3 41  1  0
  4 42  1  0
 10 43  1  0
 13 44  1  0
 18 45  1  0
 19 46  1  0
 20 47  1  0
 21 48  1  0
 22 49  1  0
 26 50  1  0
 27 51  1  0
 28 52  1  0
 29 53  1  0
 30 54  1  0
 33 55  1  0
 33 56  1  0
 33 57  1  0
 36 58  1  0
 37 59  1  0
M  END
>  <UniqueID>  (18) 
18

>  <SMILES>  (18) 
Cc1ccc(S(=O)(=O)c2cnc(NS(=O)(=O)c3ccccc3)c(Oc3ccccc3)c2S(C)(=O)=O)cc1

>  <Energy>  (18) 
78.45612850057148

>  <Genealogy>  (18) 
Cc1ccc(S(=O)(=O)c2cnc(NS(=O)(=O)c3ccccc3)c(Oc3ccccc3)c2S(C)(=O)=O)cc1 (3D coordinates assigned)
Cc1ccc(S(=O)(=O)c2cnc(NS(=O)(=O)c3ccccc3)c(Oc3ccccc3)c2S(C)(=O)=O)cc1 (optimized conformer: 78.45612850057148 kcal/mol)

>  <smiles>  (18) 
Cc1ccc(S(=O)(=O)c2cnc(NS(=O)(=O)c3ccccc3)c(Oc3ccccc3)c2S(C)(=O)=O)cc1

>  <score_type>  (18) 
oracle

>  <origin>  (18) 
adgpu

>  <m_score__min__energy>  (18) 
-11.81

>  <m_primary>  (18) 
energy

$$$$
18:0
     RDKit          3D

 45 48  0  0  0  0  0  0  0  0999 V2000
   -8.9840   19.9850  -33.1180 O   0  0  0  0  0  0  0  0  0  0  0  0
   -7.9150   19.8470  -32.4630 C   0  0  0  0  0  0  0  0  0  0  0  0
   -7.7340   20.5250  -31.2490 O   0  0  0  0  0  0  0  0  0  0  0  0
   -7.0710   21.7520  -31.0950 C   0  0  0  0  0  0  0  0  0  0  0  0
   -7.8530   22.9270  -30.9930 C   0  0  0  0  0  0  0  0  0  0  0  0
   -7.2470   24.1840  -30.8240 C   0  0  0  0  0  0  0  0  0  0  0  0
   -5.8580   24.2350  -30.7490 C   0  0  0  0  0  0  0  0  0  0  0  0
   -5.0910   23.1010  -30.8300 C   0  0  0  0  0  0  0  0  0  0  0  0
   -5.6610   21.8400  -30.9950 C   0  0  0  0  0  0  0  0  0  0  0  0
   -3.6990   23.5090  -30.6910 C   0  0  0  0  0  0  0  0  0  0  0  0
   -2.7080   22.7320  -30.7120 O   0  0  0  0  0  0  0  0  0  0  0  0
   -3.5890   24.9240  -30.5260 N   0  0  0  0  0  0  0  0  0  0  0  0
   -4.9500   25.3600  -30.5640 C   0  0  0  0  0  0  0  0  0  0  0  0
   -5.2990   26.5630  -30.4470 O   0  0  0  0  0  0  0  0  0  0  0  0
   -6.8680   18.9180  -32.9440 C   0  0  0  0  0  0  0  0  0  0  0  0
   -7.0540   17.5290  -32.8510 C   0  0  0  0  0  0  0  0  0  0  0  0
   -6.0650   16.6490  -33.3010 C   0  0  0  0  0  0  0  0  0  0  0  0
   -4.8750   17.1440  -33.8500 C   0  0  0  0  0  0  0  0  0  0  0  0
   -3.6220   16.0330  -34.4110 S   0  0  0  0  0  0  0  0  0  0  0  0
   -2.2770   16.5610  -33.9940 O   0  0  0  0  0  0  0  0  0  0  0  0
   -3.6520   15.9730  -35.9130 O   0  0  0  0  0  0  0  0  0  0  0  0
   -3.8390   14.4270  -33.7610 N   0  0  0  0  0  0  0  0  0  0  0  0
   -3.9610   14.4710  -32.2930 C   0  0  0  0  0  0  0  0  0  0  0  0
   -4.1580   13.0470  -31.7230 C   0  0  0  0  0  0  0  0  0  0  0  0
   -4.3570   12.0790  -32.7380 O   0  0  0  0  0  0  0  0  0  0  0  0
   -5.4010   12.4910  -33.5950 C   0  0  0  0  0  0  0  0  0  0  0  0
   -5.0190   13.7760  -34.3620 C   0  0  0  0  0  0  0  0  0  0  0  0
   -4.6850   18.5280  -33.9490 C   0  0  0  0  0  0  0  0  0  0  0  0
   -5.6710   19.4100  -33.4980 C   0  0  0  0  0  0  0  0  0  0  0  0
   -8.9494   22.8558  -31.0467 H   0  0  0  0  0  0  0  0  0  0  0  0
   -7.8522   25.0998  -30.7531 H   0  0  0  0  0  0  0  0  0  0  0  0
   -5.0333   20.9382  -31.0461 H   0  0  0  0  0  0  0  0  0  0  0  0
   -7.9847   17.1305  -32.4209 H   0  0  0  0  0  0  0  0  0  0  0  0
   -6.2221   15.5630  -33.2236 H   0  0  0  0  0  0  0  0  0  0  0  0
   -2.9840   13.8770  -34.0120 H   0  0  0  0  0  0  0  0  0  0  0  0
   -3.0461   14.9082  -31.8667 H   0  0  0  0  0  0  0  0  0  0  0  0
   -4.8342   15.0847  -32.0268 H   0  0  0  0  0  0  0  0  0  0  0  0
   -3.2642   12.7721  -31.1438 H   0  0  0  0  0  0  0  0  0  0  0  0
   -5.0597   13.0610  -31.0931 H   0  0  0  0  0  0  0  0  0  0  0  0
   -5.6086   11.6892  -34.3189 H   0  0  0  0  0  0  0  0  0  0  0  0
   -6.2911   12.7014  -32.9839 H   0  0  0  0  0  0  0  0  0  0  0  0
   -4.7920   13.5160  -35.4064 H   0  0  0  0  0  0  0  0  0  0  0  0
   -5.8659   14.4761  -34.3111 H   0  0  0  0  0  0  0  0  0  0  0  0
   -3.7550   18.9229  -34.3839 H   0  0  0  0  0  0  0  0  0  0  0  0
   -5.5107   20.4954  -33.5764 H   0  0  0  0  0  0  0  0  0  0  0  0
  1  2  2  0
  2  3  1  0
  3  4  1  0
  4  5  2  0
  5  6  1  0
  6  7  2  0
  7  8  1  0
  8  9  2  0
  8 10  1  0
 10 11  2  0
 10 12  1  0
 12 13  1  0
 13 14  2  0
  2 15  1  0
 15 16  2  0
 16 17  1  0
 17 18  2  0
 18 19  1  0
 19 20  2  0
 19 21  2  0
 19 22  1  0
 22 23  1  0
 23 24  1  0
 24 25  1  0
 25 26  1  0
 26 27  1  0
 18 28  1  0
 28 29  2  0
  9  4  1  0
 29 15  1  0
 13  7  1  0
 27 22  1  0
  5 30  1  0
  6 31  1  0
  9 32  1  0
 16 33  1  0
 17 34  1  0
 22 35  1  0
 23 36  1  0
 23 37  1  0
 24 38  1  0
 24 39  1  0
 26 40  1  0
 26 41  1  0
 27 42  1  0
 27 43  1  0
 28 44  1  0
 29 45  1  0
M  CHG  2  12  -1  22   1
M  END
>  <UniqueID>  (19) 
19

>  <SMILES>  (19) 
O=C(Oc1ccc2c(c1)C(=O)[N-]C2=O)c1ccc(S(=O)(=O)[NH+]2CCOCC2)cc1

>  <Energy>  (19) 
91.33948771640628

>  <Genealogy>  (19) 
O=C(Oc1ccc2c(c1)C(=O)[N-]C2=O)c1ccc(S(=O)(=O)[NH+]2CCOCC2)cc1 (protonated)
O=C(Oc1ccc2c(c1)C(=O)[N-]C2=O)c1ccc(S(=O)(=O)[NH+]2CCOCC2)cc1 (3D coordinates assigned)
O=C(Oc1ccc2c(c1)C(=O)[N-]C2=O)c1ccc(S(=O)(=O)[NH+]2CCOCC2)cc1 (nonaromatic ring conformer: 91.33948771640628 kcal/mol)

>  <smiles>  (19) 
O=C(Oc1ccc2c(c1)C(=O)NC2=O)c1ccc(S(=O)(=O)N2CCOCC2)cc1

>  <score_type>  (19) 
oracle

>  <origin>  (19) 
adgpu

>  <m_score__min__energy>  (19) 
-10.949999999999999

>  <m_primary>  (19) 
energy

$$$$
19:0
     RDKit          3D

 64 67  0  0  0  0  0  0  0  0999 V2000
   -5.8610   25.6330  -29.5190 O   0  0  0  0  0  0  0  0  0  0  0  0
   -5.1830   24.8830  -30.2720 C   0  0  0  0  0  0  0  0  0  0  0  0
   -3.7790   25.1420  -30.4150 N   0  0  0  0  0  0  0  0  0  0  0  0
   -2.7250   24.4760  -29.7030 C   0  0  0  0  0  0  0  0  0  0  0  0
   -1.8750   25.2300  -28.8850 C   0  0  0  0  0  0  0  0  0  0  0  0
   -0.8370   24.6090  -28.1840 C   0  0  0  0  0  0  0  0  0  0  0  0
   -0.6500   23.2280  -28.2850 C   0  0  0  0  0  0  0  0  0  0  0  0
   -1.5070   22.4590  -29.0850 C   0  0  0  0  0  0  0  0  0  0  0  0
   -1.3010   20.7130  -29.1780 S   0  0  0  0  0  0  0  0  0  0  0  0
   -1.1620   20.1380  -27.7960 O   0  0  0  0  0  0  0  0  0  0  0  0
   -2.5160   20.1060  -29.8220 O   0  0  0  0  0  0  0  0  0  0  0  0
    0.1060   20.3140  -30.1210 N   0  0  0  0  0  0  0  0  0  0  0  0
   -0.2150   20.1730  -31.5570 C   0  0  0  0  0  0  0  0  0  0  0  0
   -0.9350   18.8380  -31.8330 C   0  0  0  0  0  0  0  0  0  0  0  0
   -1.5700   18.6860  -33.2280 C   0  0  0  0  0  0  0  0  0  0  0  0
   -0.6890   19.0520  -34.4340 C   0  0  0  0  0  0  0  0  0  0  0  0
   -0.1310   20.4840  -34.4200 C   0  0  0  0  0  0  0  0  0  0  0  0
   -1.0490   21.4740  -33.6890 C   0  0  0  0  0  0  0  0  0  0  0  0
   -0.9700   21.3910  -32.1560 C   0  0  0  0  0  0  0  0  0  0  0  0
   -2.5520   23.0840  -29.7810 C   0  0  0  0  0  0  0  0  0  0  0  0
   -5.8610   23.7940  -31.0140 C   0  0  0  0  0  0  0  0  0  0  0  0
   -7.2510   23.8340  -31.2190 C   0  0  0  0  0  0  0  0  0  0  0  0
   -7.8920   22.8030  -31.9090 C   0  0  0  0  0  0  0  0  0  0  0  0
   -7.1560   21.7220  -32.4030 C   0  0  0  0  0  0  0  0  0  0  0  0
   -5.7710   21.6690  -32.2070 C   0  0  0  0  0  0  0  0  0  0  0  0
   -4.8290   20.3230  -32.8420 S   0  0  0  0  0  0  0  0  0  0  0  0
   -3.8270   20.8470  -33.8360 O   0  0  0  0  0  0  0  0  0  0  0  0
   -4.0840   19.6490  -31.7220 O   0  0  0  0  0  0  0  0  0  0  0  0
   -5.9060   19.1990  -33.6320 N   0  0  0  0  0  0  0  0  0  0  0  0
   -6.5980   18.3500  -32.6610 C   0  0  0  0  0  0  0  0  0  0  0  0
   -6.9140   17.0420  -33.3700 C   0  0  0  0  0  0  0  0  0  0  0  0
   -6.0110   17.0150  -34.5950 C   0  0  0  0  0  0  0  0  0  0  0  0
   -5.1720   18.2810  -34.5020 C   0  0  0  0  0  0  0  0  0  0  0  0
   -5.1250   22.7140  -31.5330 C   0  0  0  0  0  0  0  0  0  0  0  0
   -2.0246   26.3159  -28.7935 H   0  0  0  0  0  0  0  0  0  0  0  0
   -0.1661   25.2089  -27.5516 H   0  0  0  0  0  0  0  0  0  0  0  0
    0.1708   22.7434  -27.7360 H   0  0  0  0  0  0  0  0  0  0  0  0
    0.4970   19.4330  -29.7250 H   0  0  0  0  0  0  0  0  0  0  0  0
    0.7476   20.1551  -32.0890 H   0  0  0  0  0  0  0  0  0  0  0  0
   -0.2011   18.0283  -31.7079 H   0  0  0  0  0  0  0  0  0  0  0  0
   -1.7731   18.8019  -31.1215 H   0  0  0  0  0  0  0  0  0  0  0  0
   -1.8722   17.6346  -33.3434 H   0  0  0  0  0  0  0  0  0  0  0  0
   -2.3992   19.4085  -33.2473 H   0  0  0  0  0  0  0  0  0  0  0  0
    0.1613   18.3547  -34.4595 H   0  0  0  0  0  0  0  0  0  0  0  0
   -1.3370   18.9832  -35.3202 H   0  0  0  0  0  0  0  0  0  0  0  0
    0.8472   20.4749  -33.9171 H   0  0  0  0  0  0  0  0  0  0  0  0
   -0.0500   20.8177  -35.4650 H   0  0  0  0  0  0  0  0  0  0  0  0
   -0.7701   22.4933  -33.9943 H   0  0  0  0  0  0  0  0  0  0  0  0
   -2.0809   21.2136  -33.9673 H   0  0  0  0  0  0  0  0  0  0  0  0
   -0.4673   22.3020  -31.7992 H   0  0  0  0  0  0  0  0  0  0  0  0
   -2.0114   21.2766  -31.8206 H   0  0  0  0  0  0  0  0  0  0  0  0
   -3.2401   22.4808  -30.3915 H   0  0  0  0  0  0  0  0  0  0  0  0
   -7.8368   24.6817  -30.8340 H   0  0  0  0  0  0  0  0  0  0  0  0
   -8.9803   22.8416  -32.0644 H   0  0  0  0  0  0  0  0  0  0  0  0
   -7.6656   20.9125  -32.9461 H   0  0  0  0  0  0  0  0  0  0  0  0
   -5.9504   18.1630  -31.7917 H   0  0  0  0  0  0  0  0  0  0  0  0
   -7.5161   18.8338  -32.2962 H   0  0  0  0  0  0  0  0  0  0  0  0
   -6.6968   16.1866  -32.7134 H   0  0  0  0  0  0  0  0  0  0  0  0
   -7.9769   16.9732  -33.6449 H   0  0  0  0  0  0  0  0  0  0  0  0
   -5.3667   16.1236  -34.5794 H   0  0  0  0  0  0  0  0  0  0  0  0
   -6.5888   16.9732  -35.5301 H   0  0  0  0  0  0  0  0  0  0  0  0
   -4.1863   18.0534  -34.0699 H   0  0  0  0  0  0  0  0  0  0  0  0
   -5.0034   18.7218  -35.4956 H   0  0  0  0  0  0  0  0  0  0  0  0
   -4.0323   22.6893  -31.4088 H   0  0  0  0  0  0  0  0  0  0  0  0
  1  2  2  0
  2  3  1  0
  3  4  1  0
  4  5  2  0
  5  6  1  0
  6  7  2  0
  7  8  1  0
  8  9  1  0
  9 10  2  0
  9 11  2  0
  9 12  1  0
 12 13  1  0
 13 14  1  0
 14 15  1  0
 15 16  1  0
 16 17  1  0
 17 18  1  0
 18 19  1  0
  8 20  2  0
  2 21  1  0
 21 22  2  0
 22 23  1  0
 23 24  2  0
 24 25  1  0
 25 26  1  0
 26 27  2  0
 26 28  2  0
 26 29  1  0
 29 30  1  0
 30 31  1  0
 31 32  1  0
 32 33  1  0
 25 34  2  0
 20  4  1  0
 34 21  1  0
 19 13  1  0
 33 29  1  0
  5 35  1  0
  6 36  1  0
  7 37  1  0
 12 38  1  0
 13 39  1  0
 14 40  1  0
 14 41  1  0
 15 42  1  0
 15 43  1  0
 16 44  1  0
 16 45  1  0
 17 46  1  0
 17 47  1  0
 18 48  1  0
 18 49  1  0
 19 50  1  0
 19 51  1  0
 20 52  1  0
 22 53  1  0
 23 54  1  0
 24 55  1  0
 30 56  1  0
 30 57  1  0
 31 58  1  0
 31 59  1  0
 32 60  1  0
 32 61  1  0
 33 62  1  0
 33 63  1  0
 34 64  1  0
M  CHG  1   3  -1
M  END
>  <UniqueID>  (20) 
20

>  <SMILES>  (20) 
O=C([N-]c1cccc(S(=O)(=O)NC2CCCCCC2)c1)c1cccc(S(=O)(=O)N2CCCC2)c1

>  <Energy>  (20) 
75.22002761923692

>  <Genealogy>  (20) 
O=C([N-]c1cccc(S(=O)(=O)NC2CCCCCC2)c1)c1cccc(S(=O)(=O)N2CCCC2)c1 (protonated)
O=C([N-]c1cccc(S(=O)(=O)NC2CCCCCC2)c1)c1cccc(S(=O)(=O)N2CCCC2)c1 (3D coordinates assigned)
O=C([N-]c1cccc(S(=O)(=O)NC2CCCCCC2)c1)c1cccc(S(=O)(=O)N2CCCC2)c1 (nonaromatic ring conformer: 75.22002761923692 kcal/mol)

>  <smiles>  (20) 
O=C(Nc1cccc(S(=O)(=O)NC2CCCCCC2)c1)c1cccc(S(=O)(=O)N2CCCC2)c1

>  <score_type>  (20) 
oracle

>  <origin>  (20) 
adgpu

>  <m_score__min__energy>  (20) 
-9.9900000000000002

>  <m_primary>  (20) 
energy

$$$$
20:0
     RDKit          3D

 58 61  0  0  0  0  0  0  0  0999 V2000
   -2.9040   21.0770  -30.2040 O   0  0  0  0  0  0  0  0  0  0  0  0
   -2.7810   21.5060  -31.3830 C   0  0  0  0  0  0  0  0  0  0  0  0
   -3.3000   22.8040  -31.6980 N   0  0  0  0  0  0  0  0  0  0  0  0
   -4.5550   23.3250  -31.2380 C   0  0  0  0  0  0  0  0  0  0  0  0
   -5.7190   22.5780  -31.4670 C   0  0  0  0  0  0  0  0  0  0  0  0
   -6.9670   23.0570  -31.0480 C   0  0  0  0  0  0  0  0  0  0  0  0
   -8.4350   22.1430  -31.4030 S   0  0  0  0  0  0  0  0  0  0  0  0
   -9.0140   21.6170  -30.1180 O   0  0  0  0  0  0  0  0  0  0  0  0
   -9.4500   23.0590  -32.0290 O   0  0  0  0  0  0  0  0  0  0  0  0
   -8.1240   20.8010  -32.4870 N   0  0  0  0  0  0  0  0  0  0  0  0
   -9.3240   19.9700  -32.6770 C   0  0  0  0  0  0  0  0  0  0  0  0
   -9.0590   18.5910  -32.0870 C   0  0  0  0  0  0  0  0  0  0  0  0
   -7.7560   18.7180  -31.3310 C   0  0  0  0  0  0  0  0  0  0  0  0
   -7.0780   19.9200  -31.9520 C   0  0  0  0  0  0  0  0  0  0  0  0
   -7.0430   24.2740  -30.3580 C   0  0  0  0  0  0  0  0  0  0  0  0
   -5.8850   25.0130  -30.1060 C   0  0  0  0  0  0  0  0  0  0  0  0
   -4.6410   24.5430  -30.5370 C   0  0  0  0  0  0  0  0  0  0  0  0
   -3.4990   25.2820  -30.2410 O   0  0  0  0  0  0  0  0  0  0  0  0
   -2.1590   20.6410  -32.4140 C   0  0  0  0  0  0  0  0  0  0  0  0
   -2.4280   19.2610  -32.4540 C   0  0  0  0  0  0  0  0  0  0  0  0
   -1.8280   18.4510  -33.4200 C   0  0  0  0  0  0  0  0  0  0  0  0
   -0.9320   18.9990  -34.3470 C   0  0  0  0  0  0  0  0  0  0  0  0
   -0.3490   18.1800  -35.3140 O   0  0  0  0  0  0  0  0  0  0  0  0
   -0.6300   20.3730  -34.2980 C   0  0  0  0  0  0  0  0  0  0  0  0
    0.5060   21.0980  -35.4450 S   0  0  0  0  0  0  0  0  0  0  0  0
    0.2620   20.5000  -36.8030 O   0  0  0  0  0  0  0  0  0  0  0  0
    1.9220   20.8020  -35.0330 O   0  0  0  0  0  0  0  0  0  0  0  0
    0.2870   22.8240  -35.5420 N   0  0  0  0  0  0  0  0  0  0  0  0
    1.4940   23.4930  -36.0360 C   0  0  0  0  0  0  0  0  0  0  0  0
    1.1520   24.7770  -36.7490 C   0  0  0  0  0  0  0  0  0  0  0  0
   -0.0280   25.4670  -36.4200 C   0  0  0  0  0  0  0  0  0  0  0  0
   -0.3470   26.6640  -37.0640 C   0  0  0  0  0  0  0  0  0  0  0  0
    0.5040   27.1840  -38.0410 C   0  0  0  0  0  0  0  0  0  0  0  0
    1.6780   26.5010  -38.3850 C   0  0  0  0  0  0  0  0  0  0  0  0
    2.5190   27.0230  -39.3610 O   0  0  0  0  0  0  0  0  0  0  0  0
    2.0030   25.2990  -37.7440 C   0  0  0  0  0  0  0  0  0  0  0  0
    3.1700   24.6270  -38.1000 O   0  0  0  0  0  0  0  0  0  0  0  0
   -1.2560   21.1870  -33.3410 C   0  0  0  0  0  0  0  0  0  0  0  0
   -5.6518   21.6073  -31.9801 H   0  0  0  0  0  0  0  0  0  0  0  0
  -10.1804   20.4335  -32.1655 H   0  0  0  0  0  0  0  0  0  0  0  0
   -9.5541   19.8820  -33.7491 H   0  0  0  0  0  0  0  0  0  0  0  0
   -9.8723   18.3019  -31.4051 H   0  0  0  0  0  0  0  0  0  0  0  0
   -9.0042   17.8173  -32.8670 H   0  0  0  0  0  0  0  0  0  0  0  0
   -7.9419   18.8858  -30.2599 H   0  0  0  0  0  0  0  0  0  0  0  0
   -7.1414   17.8082  -31.3978 H   0  0  0  0  0  0  0  0  0  0  0  0
   -6.4929   20.4547  -31.1893 H   0  0  0  0  0  0  0  0  0  0  0  0
   -6.3958   19.6033  -32.7547 H   0  0  0  0  0  0  0  0  0  0  0  0
   -8.0181   24.6488  -30.0135 H   0  0  0  0  0  0  0  0  0  0  0  0
   -5.9521   25.9690  -29.5660 H   0  0  0  0  0  0  0  0  0  0  0  0
   -3.1157   18.8170  -31.7192 H   0  0  0  0  0  0  0  0  0  0  0  0
   -2.0602   17.3763  -33.4534 H   0  0  0  0  0  0  0  0  0  0  0  0
    0.3440   18.5320  -35.9630 H   0  0  0  0  0  0  0  0  0  0  0  0
    2.1527   23.7197  -35.1847 H   0  0  0  0  0  0  0  0  0  0  0  0
    1.9976   22.8225  -36.7479 H   0  0  0  0  0  0  0  0  0  0  0  0
   -0.7030   25.0619  -35.6517 H   0  0  0  0  0  0  0  0  0  0  0  0
   -1.2715   27.1989  -36.8009 H   0  0  0  0  0  0  0  0  0  0  0  0
    0.2526   28.1309  -38.5412 H   0  0  0  0  0  0  0  0  0  0  0  0
   -1.0369   22.2647  -33.3167 H   0  0  0  0  0  0  0  0  0  0  0  0
  1  2  2  0
  2  3  1  0
  3  4  1  0
  4  5  2  0
  5  6  1  0
  6  7  1  0
  7  8  2  0
  7  9  2  0
  7 10  1  0
 10 11  1  0
 11 12  1  0
 12 13  1  0
 13 14  1  0
  6 15  2  0
 15 16  1  0
 16 17  2  0
 17 18  1  0
  2 19  1  0
 19 20  2  0
 20 21  1  0
 21 22  2  0
 22 23  1  0
 22 24  1  0
 24 25  1  0
 25 26  2  0
 25 27  2  0
 25 28  1  0
 28 29  1  0
 29 30  1  0
 30 31  2  0
 31 32  1  0
 32 33  2  0
 33 34  1  0
 34 35  1  0
 34 36  2  0
 36 37  1  0
 24 38  2  0
 17  4  1  0
 38 19  1  0
 14 10  1  0
 36 30  1  0
  5 39  1  0
 11 40  1  0
 11 41  1  0
 12 42  1  0
 12 43  1  0
 13 44  1  0
 13 45  1  0
 14 46  1  0
 14 47  1  0
 15 48  1  0
 16 49  1  0
 20 50  1  0
 21 51  1  0
 23 52  1  0
 29 53  1  0
 29 54  1  0
 31 55  1  0
 32 56  1  0
 33 57  1  0
 38 58  1  0
M  CHG  5   3  -1  18  -1  28  -1  35  -1  37  -1
M  END
>  <UniqueID>  (21) 
21

>  <SMILES>  (21) 
O=C([N-]c1cc(S(=O)(=O)N2CCCC2)ccc1[O-])c1ccc(O)c(S(=O)(=O)[N-]Cc2cccc([O-])c2[O-])c1

>  <Energy>  (21) 
70.15261956339943

>  <Genealogy>  (21) 
O=C([N-]c1cc(S(=O)(=O)N2CCCC2)ccc1[O-])c1ccc(O)c(S(=O)(=O)[N-]Cc2cccc([O-])c2[O-])c1 (protonated)
O=C([N-]c1cc(S(=O)(=O)N2CCCC2)ccc1[O-])c1ccc(O)c(S(=O)(=O)[N-]Cc2cccc([O-])c2[O-])c1 (3D coordinates assigned)
O=C([N-]c1cc(S(=O)(=O)N2CCCC2)ccc1[O-])c1ccc(O)c(S(=O)(=O)[N-]Cc2cccc([O-])c2[O-])c1 (nonaromatic ring conformer: 70.15261956339943 kcal/mol)

>  <smiles>  (21) 
O=C(Nc1cc(S(=O)(=O)N2CCCC2)ccc1O)c1ccc(O)c(S(=O)(=O)NCc2cccc(O)c2O)c1

>  <score_type>  (21) 
oracle

>  <origin>  (21) 
adgpu

>  <m_score__min__energy>  (21) 
-17.18

>  <m_primary>  (21) 
energy

$$$$
21:0
     RDKit          3D

 60 63  0  0  0  0  0  0  0  0999 V2000
   -0.7060   22.2590  -25.8260 C   0  0  0  0  0  0  0  0  0  0  0  0
   -1.4360   22.7890  -27.0330 C   0  0  0  0  0  0  0  0  0  0  0  0
   -2.3750   21.9450  -27.6510 C   0  0  0  0  0  0  0  0  0  0  0  0
   -3.0660   22.3530  -28.7880 C   0  0  0  0  0  0  0  0  0  0  0  0
   -2.8350   23.6200  -29.3380 C   0  0  0  0  0  0  0  0  0  0  0  0
   -3.5230   24.0820  -30.5120 N   0  0  0  0  0  0  0  0  0  0  0  0
   -4.6330   23.4730  -31.1880 C   0  0  0  0  0  0  0  0  0  0  0  0
   -4.5330   23.1070  -32.3890 O   0  0  0  0  0  0  0  0  0  0  0  0
   -5.8260   23.1560  -30.4660 N   0  0  0  0  0  0  0  0  0  0  0  0
   -6.9300   22.4100  -30.9950 C   0  0  0  0  0  0  0  0  0  0  0  0
   -8.1720   23.0160  -31.2480 C   0  0  0  0  0  0  0  0  0  0  0  0
   -9.2310   22.2580  -31.7550 C   0  0  0  0  0  0  0  0  0  0  0  0
   -9.0610   20.8950  -32.0070 C   0  0  0  0  0  0  0  0  0  0  0  0
   -7.8240   20.2820  -31.7630 C   0  0  0  0  0  0  0  0  0  0  0  0
   -7.6270   18.5470  -32.0100 S   0  0  0  0  0  0  0  0  0  0  0  0
   -6.7860   17.9820  -30.8990 O   0  0  0  0  0  0  0  0  0  0  0  0
   -8.9740   17.8840  -31.9520 O   0  0  0  0  0  0  0  0  0  0  0  0
   -6.8660   18.1880  -33.5470 N   0  0  0  0  0  0  0  0  0  0  0  0
   -5.8750   17.1170  -33.4100 C   0  0  0  0  0  0  0  0  0  0  0  0
   -4.5010   17.7550  -33.2690 C   0  0  0  0  0  0  0  0  0  0  0  0
   -4.6600   19.1800  -33.7600 C   0  0  0  0  0  0  0  0  0  0  0  0
   -6.1410   19.3530  -34.0680 C   0  0  0  0  0  0  0  0  0  0  0  0
   -6.7550   21.0520  -31.2840 C   0  0  0  0  0  0  0  0  0  0  0  0
   -1.8680   24.4550  -28.7640 C   0  0  0  0  0  0  0  0  0  0  0  0
   -1.6070   25.6790  -29.3730 O   0  0  0  0  0  0  0  0  0  0  0  0
   -1.1700   24.0690  -27.5970 C   0  0  0  0  0  0  0  0  0  0  0  0
    0.0040   25.2130  -26.8780 S   0  0  0  0  0  0  0  0  0  0  0  0
   -0.1880   26.5680  -27.5010 O   0  0  0  0  0  0  0  0  0  0  0  0
    1.4140   24.7950  -27.1830 O   0  0  0  0  0  0  0  0  0  0  0  0
   -0.1710   25.3400  -25.1390 N   0  0  0  0  0  0  0  0  0  0  0  0
    1.1260   25.4680  -24.4390 C   0  0  0  0  0  0  0  0  0  0  0  0
    1.3480   26.8860  -23.8840 C   0  0  0  0  0  0  0  0  0  0  0  0
    0.3290   27.3010  -22.9830 O   0  0  0  0  0  0  0  0  0  0  0  0
   -0.9630   26.7980  -23.3060 C   0  0  0  0  0  0  0  0  0  0  0  0
   -1.1280   26.4030  -24.7810 C   0  0  0  0  0  0  0  0  0  0  0  0
   -1.2006   22.6181  -24.9114 H   0  0  0  0  0  0  0  0  0  0  0  0
   -0.7199   21.1592  -25.8427 H   0  0  0  0  0  0  0  0  0  0  0  0
    0.3354   22.6128  -25.8427 H   0  0  0  0  0  0  0  0  0  0  0  0
   -2.5665   20.9471  -27.2296 H   0  0  0  0  0  0  0  0  0  0  0  0
   -3.7967   21.6774  -29.2567 H   0  0  0  0  0  0  0  0  0  0  0  0
   -8.3111   24.0885  -31.0468 H   0  0  0  0  0  0  0  0  0  0  0  0
  -10.2010   22.7362  -31.9561 H   0  0  0  0  0  0  0  0  0  0  0  0
   -9.9000   20.3007  -32.3980 H   0  0  0  0  0  0  0  0  0  0  0  0
   -6.0990   16.5145  -32.5174 H   0  0  0  0  0  0  0  0  0  0  0  0
   -5.9003   16.4611  -34.2927 H   0  0  0  0  0  0  0  0  0  0  0  0
   -4.1793   17.7451  -32.2171 H   0  0  0  0  0  0  0  0  0  0  0  0
   -3.7384   17.2094  -33.8441 H   0  0  0  0  0  0  0  0  0  0  0  0
   -4.3458   19.8903  -32.9811 H   0  0  0  0  0  0  0  0  0  0  0  0
   -4.0381   19.3732  -34.6465 H   0  0  0  0  0  0  0  0  0  0  0  0
   -6.5154   20.2684  -33.5864 H   0  0  0  0  0  0  0  0  0  0  0  0
   -6.2922   19.4351  -35.1545 H   0  0  0  0  0  0  0  0  0  0  0  0
   -5.7705   20.5849  -31.1341 H   0  0  0  0  0  0  0  0  0  0  0  0
    1.1502   24.7526  -23.6038 H   0  0  0  0  0  0  0  0  0  0  0  0
    1.9248   25.2605  -25.1662 H   0  0  0  0  0  0  0  0  0  0  0  0
    2.3123   26.9074  -23.3551 H   0  0  0  0  0  0  0  0  0  0  0  0
    1.3301   27.5780  -24.7388 H   0  0  0  0  0  0  0  0  0  0  0  0
   -1.1531   25.9092  -22.6864 H   0  0  0  0  0  0  0  0  0  0  0  0
   -1.6788   27.6103  -23.1118 H   0  0  0  0  0  0  0  0  0  0  0  0
   -2.1527   26.0387  -24.9461 H   0  0  0  0  0  0  0  0  0  0  0  0
   -0.9339   27.2843  -25.4101 H   0  0  0  0  0  0  0  0  0  0  0  0
  1  2  1  0
  2  3  2  0
  3  4  1  0
  4  5  2  0
  5  6  1  0
  6  7  1  0
  7  8  2  0
  7  9  1  0
  9 10  1  0
 10 11  2  0
 11 12  1  0
 12 13  2  0
 13 14  1  0
 14 15  1  0
 15 16  2  0
 15 17  2  0
 15 18  1  0
 18 19  1  0
 19 20  1  0
 20 21  1  0
 21 22  1  0
 14 23  2  0
  5 24  1  0
 24 25  1  0
 24 26  2  0
 26 27  1  0
 27 28  2  0
 27 29  2  0
 27 30  1  0
 30 31  1  0
 31 32  1  0
 32 33  1  0
 33 34  1  0
 34 35  1  0
 26  2  1  0
 35 30  1  0
 23 10  1  0
 22 18  1  0
  1 36  1  0
  1 37  1  0
  1 38  1  0
  3 39  1  0
  4 40  1  0
 11 41  1  0
 12 42  1  0
 13 43  1  0
 19 44  1  0
 19 45  1  0
 20 46  1  0
 20 47  1  0
 21 48  1  0
 21 49  1  0
 22 50  1  0
 22 51  1  0
 23 52  1  0
 31 53  1  0
 31 54  1  0
 32 55  1  0
 32 56  1  0
 34 57  1  0
 34 58  1  0
 35 59  1  0
 35 60  1  0
M  CHG  3   6  -1   9  -1  25  -1
M  END
>  <UniqueID>  (22) 
22

>  <SMILES>  (22) 
Cc1ccc([N-]C(=O)[N-]c2cccc(S(=O)(=O)N3CCCC3)c2)c([O-])c1S(=O)(=O)N1CCOCC1

>  <Energy>  (22) 
86.69027158279455

>  <Genealogy>  (22) 
Cc1ccc([N-]C(=O)[N-]c2cccc(S(=O)(=O)N3CCCC3)c2)c([O-])c1S(=O)(=O)N1CCOCC1 (protonated)
Cc1ccc([N-]C(=O)[N-]c2cccc(S(=O)(=O)N3CCCC3)c2)c([O-])c1S(=O)(=O)N1CCOCC1 (3D coordinates assigned)
Cc1ccc([N-]C(=O)[N-]c2cccc(S(=O)(=O)N3CCCC3)c2)c([O-])c1S(=O)(=O)N1CCOCC1 (nonaromatic ring conformer: 86.69027158279455 kcal/mol)

>  <smiles>  (22) 
Cc1ccc(NC(=O)Nc2cccc(S(=O)(=O)N3CCCC3)c2)c(O)c1S(=O)(=O)N1CCOCC1

>  <score_type>  (22) 
oracle

>  <origin>  (22) 
adgpu

>  <m_score__min__energy>  (22) 
-16.870000000000001

>  <m_primary>  (22) 
energy

$$$$
22:0
     RDKit          3D

 54 57  0  0  0  0  0  0  0  0999 V2000
    1.4130   20.4000  -28.1500 C   0  0  0  0  0  0  0  0  0  0  0  0
    0.0390   19.9510  -27.9310 N   0  0  0  0  0  0  0  0  0  0  0  0
   -0.3810   18.6990  -27.6630 C   0  0  0  0  0  0  0  0  0  0  0  0
    0.6880   17.2700  -27.4580 S   0  0  0  0  0  0  0  0  0  0  0  0
    1.5750   17.5000  -29.0410 C   0  0  0  0  0  0  0  0  0  0  0  0
    0.6490   17.9220  -30.1420 C   0  0  0  0  0  0  0  0  0  0  0  0
   -0.2390   17.1190  -30.5410 O   0  0  0  0  0  0  0  0  0  0  0  0
    0.8130   19.2000  -30.7760 N   0  0  0  0  0  0  0  0  0  0  0  0
   -0.2030   19.8470  -31.5630 C   0  0  0  0  0  0  0  0  0  0  0  0
    0.0660   20.1670  -32.9020 C   0  0  0  0  0  0  0  0  0  0  0  0
   -0.8940   20.8160  -33.6810 C   0  0  0  0  0  0  0  0  0  0  0  0
   -2.1270   21.1680  -33.1270 C   0  0  0  0  0  0  0  0  0  0  0  0
   -2.4020   20.8820  -31.7830 C   0  0  0  0  0  0  0  0  0  0  0  0
   -3.9610   21.3330  -31.0790 S   0  0  0  0  0  0  0  0  0  0  0  0
   -3.8790   21.1880  -29.5840 O   0  0  0  0  0  0  0  0  0  0  0  0
   -5.0150   20.3870  -31.5800 O   0  0  0  0  0  0  0  0  0  0  0  0
   -4.4360   22.9690  -31.4660 N   0  0  0  0  0  0  0  0  0  0  0  0
   -4.0520   23.9160  -30.4210 C   0  0  0  0  0  0  0  0  0  0  0  0
   -5.0180   25.0870  -30.5270 C   0  0  0  0  0  0  0  0  0  0  0  0
   -6.2070   24.5600  -31.3170 C   0  0  0  0  0  0  0  0  0  0  0  0
   -5.8850   23.1020  -31.6000 C   0  0  0  0  0  0  0  0  0  0  0  0
   -1.4410   20.2200  -31.0060 C   0  0  0  0  0  0  0  0  0  0  0  0
   -1.7210   18.6350  -27.5630 N   0  0  0  0  0  0  0  0  0  0  0  0
   -2.1790   19.8640  -27.7520 N   0  0  0  0  0  0  0  0  0  0  0  0
   -1.1110   20.6610  -27.9580 C   0  0  0  0  0  0  0  0  0  0  0  0
   -1.2360   22.1170  -28.1830 C   0  0  0  0  0  0  0  0  0  0  0  0
   -2.2210   22.8760  -27.5260 C   0  0  0  0  0  0  0  0  0  0  0  0
   -2.3410   24.2470  -27.7750 C   0  0  0  0  0  0  0  0  0  0  0  0
   -1.4920   24.8690  -28.6940 C   0  0  0  0  0  0  0  0  0  0  0  0
   -1.6140   26.2300  -28.9420 O   0  0  0  0  0  0  0  0  0  0  0  0
   -0.5240   24.1180  -29.3690 C   0  0  0  0  0  0  0  0  0  0  0  0
   -0.4010   22.7480  -29.1210 C   0  0  0  0  0  0  0  0  0  0  0  0
    1.9053   20.5609  -27.1795 H   0  0  0  0  0  0  0  0  0  0  0  0
    1.9627   19.6348  -28.7176 H   0  0  0  0  0  0  0  0  0  0  0  0
    1.4048   21.3422  -28.7176 H   0  0  0  0  0  0  0  0  0  0  0  0
    2.3459   18.2734  -28.9081 H   0  0  0  0  0  0  0  0  0  0  0  0
    2.0255   16.5371  -29.3235 H   0  0  0  0  0  0  0  0  0  0  0  0
    1.7420   19.6690  -30.6880 H   0  0  0  0  0  0  0  0  0  0  0  0
    1.0398   19.9049  -33.3413 H   0  0  0  0  0  0  0  0  0  0  0  0
   -0.6787   21.0507  -34.7339 H   0  0  0  0  0  0  0  0  0  0  0  0
   -2.8838   21.6708  -33.7471 H   0  0  0  0  0  0  0  0  0  0  0  0
   -4.1336   23.4438  -29.4309 H   0  0  0  0  0  0  0  0  0  0  0  0
   -3.0100   24.2459  -30.5448 H   0  0  0  0  0  0  0  0  0  0  0  0
   -5.3359   25.4154  -29.5265 H   0  0  0  0  0  0  0  0  0  0  0  0
   -4.5547   25.9564  -31.0164 H   0  0  0  0  0  0  0  0  0  0  0  0
   -7.1304   24.6429  -30.7250 H   0  0  0  0  0  0  0  0  0  0  0  0
   -6.3704   25.1313  -32.2427 H   0  0  0  0  0  0  0  0  0  0  0  0
   -6.3959   22.4514  -30.8750 H   0  0  0  0  0  0  0  0  0  0  0  0
   -6.2228   22.8053  -32.6039 H   0  0  0  0  0  0  0  0  0  0  0  0
   -1.6561   19.9900  -29.9520 H   0  0  0  0  0  0  0  0  0  0  0  0
   -2.9011   22.3884  -26.8120 H   0  0  0  0  0  0  0  0  0  0  0  0
   -3.1048   24.8364  -27.2466 H   0  0  0  0  0  0  0  0  0  0  0  0
    0.1414   24.6064  -30.0961 H   0  0  0  0  0  0  0  0  0  0  0  0
    0.3540   22.1600  -29.6634 H   0  0  0  0  0  0  0  0  0  0  0  0
  1  2  1  0
  2  3  1  0
  3  4  1  0
  4  5  1  0
  5  6  1  0
  6  7  2  0
  6  8  1  0
  8  9  1  0
  9 10  2  0
 10 11  1  0
 11 12  2  0
 12 13  1  0
 13 14  1  0
 14 15  2  0
 14 16  2  0
 14 17  1  0
 17 18  1  0
 18 19  1  0
 19 20  1  0
 20 21  1  0
 13 22  2  0
  3 23  2  0
 23 24  1  0
 24 25  2  0
 25 26  1  0
 26 27  2  0
 27 28  1  0
 28 29  2  0
 29 30  1  0
 29 31  1  0
 31 32  2  0
 25  2  1  0
 32 26  1  0
 22  9  1  0
 21 17  1  0
  1 33  1  0
  1 34  1  0
  1 35  1  0
  5 36  1  0
  5 37  1  0
  8 38  1  0
 10 39  1  0
 11 40  1  0
 12 41  1  0
 18 42  1  0
 18 43  1  0
 19 44  1  0
 19 45  1  0
 20 46  1  0
 20 47  1  0
 21 48  1  0
 21 49  1  0
 22 50  1  0
 27 51  1  0
 28 52  1  0
 31 53  1  0
 32 54  1  0
M  CHG  1  30  -1
M  END
>  <UniqueID>  (23) 
23

>  <SMILES>  (23) 
Cn1c(SCC(=O)Nc2cccc(S(=O)(=O)N3CCCC3)c2)nnc1-c1ccc([O-])cc1

>  <Energy>  (23) 
93.47686664365162

>  <Genealogy>  (23) 
Cn1c(SCC(=O)Nc2cccc(S(=O)(=O)N3CCCC3)c2)nnc1-c1ccc([O-])cc1 (protonated)
Cn1c(SCC(=O)Nc2cccc(S(=O)(=O)N3CCCC3)c2)nnc1-c1ccc([O-])cc1 (3D coordinates assigned)
Cn1c(SCC(=O)Nc2cccc(S(=O)(=O)N3CCCC3)c2)nnc1-c1ccc([O-])cc1 (nonaromatic ring conformer: 93.47686664365162 kcal/mol)

>  <smiles>  (23) 
Cn1c(SCC(=O)Nc2cccc(S(=O)(=O)N3CCCC3)c2)nnc1-c1ccc(O)cc1

>  <score_type>  (23) 
oracle

>  <origin>  (23) 
adgpu

>  <m_score__min__energy>  (23) 
-12.67

>  <m_primary>  (23) 
energy

$$$$
23:0
     RDKit          3D

 31 33  0  0  0  0  0  0  0  0999 V2000
   -3.4170   22.4530  -31.9110 O   0  0  0  0  0  0  0  0  0  0  0  0
   -4.3950   23.1690  -31.5710 C   0  0  0  0  0  0  0  0  0  0  0  0
   -4.1500   24.5110  -31.1250 N   0  0  0  0  0  0  0  0  0  0  0  0
   -3.8570   24.9070  -29.7480 C   0  0  0  0  0  0  0  0  0  0  0  0
   -2.7040   24.1090  -29.1920 C   0  0  0  0  0  0  0  0  0  0  0  0
   -2.8850   22.7590  -28.8480 C   0  0  0  0  0  0  0  0  0  0  0  0
   -1.8360   22.0240  -28.2930 C   0  0  0  0  0  0  0  0  0  0  0  0
   -0.5930   22.6240  -28.0860 C   0  0  0  0  0  0  0  0  0  0  0  0
   -0.3890   23.9630  -28.4350 C   0  0  0  0  0  0  0  0  0  0  0  0
    0.8640   24.5340  -28.2210 O   0  0  0  0  0  0  0  0  0  0  0  0
   -1.4440   24.7090  -28.9900 C   0  0  0  0  0  0  0  0  0  0  0  0
   -1.2420   26.0420  -29.3380 O   0  0  0  0  0  0  0  0  0  0  0  0
   -5.7570   22.6210  -31.6840 C   0  0  0  0  0  0  0  0  0  0  0  0
   -6.8830   23.4840  -31.6640 C   0  0  0  0  0  0  0  0  0  0  0  0
   -8.1830   22.9650  -31.8080 C   0  0  0  0  0  0  0  0  0  0  0  0
   -8.3170   21.5880  -31.9630 C   0  0  0  0  0  0  0  0  0  0  0  0
   -9.4490   20.8880  -32.1250 N   0  0  0  0  0  0  0  0  0  0  0  0
   -8.9840   19.6170  -32.2230 C   0  0  0  0  0  0  0  0  0  0  0  0
   -9.7480   18.6310  -32.3880 O   0  0  0  0  0  0  0  0  0  0  0  0
   -7.6360   19.4840  -32.1320 N   0  0  0  0  0  0  0  0  0  0  0  0
   -7.2400   20.7540  -31.9660 C   0  0  0  0  0  0  0  0  0  0  0  0
   -5.9400   21.2280  -31.8200 C   0  0  0  0  0  0  0  0  0  0  0  0
   -3.5980   25.9759  -29.7280 H   0  0  0  0  0  0  0  0  0  0  0  0
   -4.7469   24.7157  -29.1304 H   0  0  0  0  0  0  0  0  0  0  0  0
   -3.8597   22.2780  -29.0171 H   0  0  0  0  0  0  0  0  0  0  0  0
   -1.9893   20.9700  -28.0183 H   0  0  0  0  0  0  0  0  0  0  0  0
    0.2299   22.0412  -27.6464 H   0  0  0  0  0  0  0  0  0  0  0  0
    1.0100   25.5370  -28.2470 H   0  0  0  0  0  0  0  0  0  0  0  0
   -6.7387   24.5668  -31.5350 H   0  0  0  0  0  0  0  0  0  0  0  0
   -9.0632   23.6247  -31.7984 H   0  0  0  0  0  0  0  0  0  0  0  0
   -5.0824   20.5393  -31.8109 H   0  0  0  0  0  0  0  0  0  0  0  0
  1  2  2  0
  2  3  1  0
  3  4  1  0
  4  5  1  0
  5  6  2  0
  6  7  1  0
  7  8  2  0
  8  9  1  0
  9 10  1  0
  9 11  2  0
 11 12  1  0
  2 13  1  0
 13 14  2  0
 14 15  1  0
 15 16  2  0
 16 17  1  0
 17 18  1  0
 18 19  2  0
 18 20  1  0
 20 21  1  0
 21 22  2  0
 11  5  1  0
 22 13  1  0
 21 16  1  0
  4 23  1  0
  4 24  1  0
  6 25  1  0
  7 26  1  0
  8 27  1  0
 10 28  1  0
 14 29  1  0
 15 30  1  0
 22 31  1  0
M  CHG  4   3  -1  12  -1  17  -1  20  -1
M  END
>  <UniqueID>  (24) 
24

>  <SMILES>  (24) 
O=C([N-]Cc1cccc(O)c1[O-])c1ccc2[n-]c(=O)[n-]c2c1

>  <Energy>  (24) 
71.87767525181566

>  <Genealogy>  (24) 
O=C([N-]Cc1cccc(O)c1[O-])c1ccc2[n-]c(=O)[n-]c2c1 (protonated)
O=C([N-]Cc1cccc(O)c1[O-])c1ccc2[n-]c(=O)[n-]c2c1 (3D coordinates assigned)
O=C([N-]Cc1cccc(O)c1[O-])c1ccc2[n-]c(=O)[n-]c2c1 (optimized conformer: 71.87767525181566 kcal/mol)

>  <smiles>  (24) 
O=C(NCc1cccc(O)c1O)c1ccc2[nH]c(=O)[nH]c2c1

>  <score_type>  (24) 
oracle

>  <origin>  (24) 
adgpu

>  <m_score__min__energy>  (24) 
-11.470000000000001

>  <m_primary>  (24) 
energy

$$$$
24:0
     RDKit          3D

 62 66  0  0  0  0  0  0  0  0999 V2000
   -1.9950   15.6060  -34.3670 O   0  0  0  0  0  0  0  0  0  0  0  0
   -1.8500   16.8470  -34.5190 C   0  0  0  0  0  0  0  0  0  0  0  0
   -0.7770   17.3460  -35.4060 C   0  0  0  0  0  0  0  0  0  0  0  0
   -0.1830   16.4960  -36.3510 C   0  0  0  0  0  0  0  0  0  0  0  0
    0.7850   16.9850  -37.2300 C   0  0  0  0  0  0  0  0  0  0  0  0
    1.1770   18.3250  -37.1690 C   0  0  0  0  0  0  0  0  0  0  0  0
    2.1270   18.8010  -38.0630 O   0  0  0  0  0  0  0  0  0  0  0  0
    0.6240   19.1800  -36.2040 C   0  0  0  0  0  0  0  0  0  0  0  0
    1.0040   20.5650  -36.2070 N   0  0  0  0  0  0  0  0  0  0  0  0
    0.8110   21.6630  -34.8770 S   0  0  0  0  0  0  0  0  0  0  0  0
   -0.4810   22.4260  -34.9700 O   0  0  0  0  0  0  0  0  0  0  0  0
    1.9380   22.6580  -34.9110 O   0  0  0  0  0  0  0  0  0  0  0  0
    0.8680   20.7550  -33.3710 C   0  0  0  0  0  0  0  0  0  0  0  0
    0.0020   21.0760  -32.3160 C   0  0  0  0  0  0  0  0  0  0  0  0
    0.0680   20.3670  -31.1130 C   0  0  0  0  0  0  0  0  0  0  0  0
    1.0000   19.3360  -30.9560 C   0  0  0  0  0  0  0  0  0  0  0  0
    1.0810   18.4470  -29.4460 Cl  0  0  0  0  0  0  0  0  0  0  0  0
    1.8690   19.0160  -32.0050 C   0  0  0  0  0  0  0  0  0  0  0  0
    1.8050   19.7240  -33.2100 C   0  0  0  0  0  0  0  0  0  0  0  0
   -0.3560   18.6850  -35.3250 C   0  0  0  0  0  0  0  0  0  0  0  0
   -2.7410   17.7540  -33.8420 N   0  0  0  0  0  0  0  0  0  0  0  0
   -2.1920   18.8880  -33.0840 C   0  0  0  0  0  0  0  0  0  0  0  0
   -3.0310   20.1540  -33.3120 C   0  0  0  0  0  0  0  0  0  0  0  0
   -4.5560   19.8720  -33.3490 C   0  0  0  0  0  0  0  0  0  0  0  0
   -5.3320   20.9200  -32.6390 N   0  0  0  0  0  0  0  0  0  0  0  0
   -4.5760   22.1350  -32.2740 C   0  0  0  0  0  0  0  0  0  0  0  0
   -5.3580   23.0670  -31.3500 C   0  0  0  0  0  0  0  0  0  0  0  0
   -6.7320   23.3520  -31.9330 C   0  0  0  0  0  0  0  0  0  0  0  0
   -7.4800   22.0640  -32.1170 C   0  0  0  0  0  0  0  0  0  0  0  0
   -8.8750   22.0490  -31.9700 C   0  0  0  0  0  0  0  0  0  0  0  0
   -9.5850   20.8590  -32.1100 C   0  0  0  0  0  0  0  0  0  0  0  0
   -8.9100   19.6770  -32.3990 C   0  0  0  0  0  0  0  0  0  0  0  0
   -7.5240   19.6820  -32.5690 C   0  0  0  0  0  0  0  0  0  0  0  0
   -6.7820   20.8790  -32.4590 C   0  0  0  0  0  0  0  0  0  0  0  0
   -4.9440   18.4450  -32.9040 C   0  0  0  0  0  0  0  0  0  0  0  0
   -4.1660   17.4020  -33.7170 C   0  0  0  0  0  0  0  0  0  0  0  0
   -0.4817   15.4384  -36.3996 H   0  0  0  0  0  0  0  0  0  0  0  0
    1.2405   16.3136  -37.9728 H   0  0  0  0  0  0  0  0  0  0  0  0
   -0.7310   21.8875  -32.4352 H   0  0  0  0  0  0  0  0  0  0  0  0
   -0.6144   20.6204  -30.2883 H   0  0  0  0  0  0  0  0  0  0  0  0
    2.6036   18.2065  -31.8820 H   0  0  0  0  0  0  0  0  0  0  0  0
    2.4906   19.4716  -34.0323 H   0  0  0  0  0  0  0  0  0  0  0  0
   -0.7966   19.3507  -34.5682 H   0  0  0  0  0  0  0  0  0  0  0  0
   -2.1960   18.6410  -32.0121 H   0  0  0  0  0  0  0  0  0  0  0  0
   -1.1652   19.0787  -33.4293 H   0  0  0  0  0  0  0  0  0  0  0  0
   -2.8252   20.8625  -32.4961 H   0  0  0  0  0  0  0  0  0  0  0  0
   -2.7483   20.5639  -34.2929 H   0  0  0  0  0  0  0  0  0  0  0  0
   -4.8372   19.9210  -34.4113 H   0  0  0  0  0  0  0  0  0  0  0  0
   -3.6495   21.8319  -31.7644 H   0  0  0  0  0  0  0  0  0  0  0  0
   -4.3707   22.6873  -33.2029 H   0  0  0  0  0  0  0  0  0  0  0  0
   -5.4728   22.5902  -30.3654 H   0  0  0  0  0  0  0  0  0  0  0  0
   -4.8083   24.0142  -31.2467 H   0  0  0  0  0  0  0  0  0  0  0  0
   -7.2918   24.0053  -31.2476 H   0  0  0  0  0  0  0  0  0  0  0  0
   -6.6184   23.8499  -32.9073 H   0  0  0  0  0  0  0  0  0  0  0  0
   -9.4111   22.9823  -31.7429 H   0  0  0  0  0  0  0  0  0  0  0  0
  -10.6787   20.8535  -31.9922 H   0  0  0  0  0  0  0  0  0  0  0  0
   -9.4703   18.7352  -32.4939 H   0  0  0  0  0  0  0  0  0  0  0  0
   -7.0021   18.7397  -32.7919 H   0  0  0  0  0  0  0  0  0  0  0  0
   -4.7090   18.3216  -31.8365 H   0  0  0  0  0  0  0  0  0  0  0  0
   -6.0211   18.2987  -33.0729 H   0  0  0  0  0  0  0  0  0  0  0  0
   -4.2486   16.4264  -33.2156 H   0  0  0  0  0  0  0  0  0  0  0  0
   -4.5982   17.3663  -34.7279 H   0  0  0  0  0  0  0  0  0  0  0  0
  1  2  2  0
  2  3  1  0
  3  4  2  0
  4  5  1  0
  5  6  2  0
  6  7  1  0
  6  8  1  0
  8  9  1  0
  9 10  1  0
 10 11  2  0
 10 12  2  0
 10 13  1  0
 13 14  2  0
 14 15  1  0
 15 16  2  0
 16 17  1  0
 16 18  1  0
 18 19  2  0
  8 20  2  0
  2 21  1  0
 21 22  1  0
 22 23  1  0
 23 24  1  0
 24 25  1  0
 25 26  1  0
 26 27  1  0
 27 28  1  0
 28 29  1  0
 29 30  2  0
 30 31  1  0
 31 32  2  0
 32 33  1  0
 33 34  2  0
 24 35  1  0
 35 36  1  0
 20  3  1  0
 36 21  1  0
 19 13  1  0
 34 25  1  0
 34 29  1  0
  4 37  1  0
  5 38  1  0
 14 39  1  0
 15 40  1  0
 18 41  1  0
 19 42  1  0
 20 43  1  0
 22 44  1  0
 22 45  1  0
 23 46  1  0
 23 47  1  0
 24 48  1  0
 26 49  1  0
 26 50  1  0
 27 51  1  0
 27 52  1  0
 28 53  1  0
 28 54  1  0
 30 55  1  0
 31 56  1  0
 32 57  1  0
 33 58  1  0
 35 59  1  0
 35 60  1  0
 36 61  1  0
 36 62  1  0
M  CHG  2   7  -1   9  -1
M  END
>  <UniqueID>  (25) 
25

>  <SMILES>  (25) 
O=C(c1ccc([O-])c([N-]S(=O)(=O)c2ccc(Cl)cc2)c1)N1CCC(N2CCCc3ccccc32)CC1

>  <Energy>  (25) 
86.60726904432586

>  <Genealogy>  (25) 
O=C(c1ccc([O-])c([N-]S(=O)(=O)c2ccc(Cl)cc2)c1)N1CCC(N2CCCc3ccccc32)CC1 (protonated)
O=C(c1ccc([O-])c([N-]S(=O)(=O)c2ccc(Cl)cc2)c1)N1CCC(N2CCCc3ccccc32)CC1 (3D coordinates assigned)
O=C(c1ccc([O-])c([N-]S(=O)(=O)c2ccc(Cl)cc2)c1)N1CCC(N2CCCc3ccccc32)CC1 (nonaromatic ring conformer: 86.60726904432586 kcal/mol)

>  <smiles>  (25) 
O=C(c1ccc(O)c(NS(=O)(=O)c2ccc(Cl)cc2)c1)N1CCC(N2CCCc3ccccc32)CC1

>  <score_type>  (25) 
oracle

>  <origin>  (25) 
adgpu

>  <m_score__min__energy>  (25) 
-14.26

>  <m_primary>  (25) 
energy

$$$$
25:0
     RDKit          3D

 40 43  0  0  0  0  0  0  0  0999 V2000
   -2.3720   20.7400  -33.9190 O   0  0  0  0  0  0  0  0  0  0  0  0
   -3.3950   20.7600  -32.8190 S   0  0  0  0  0  0  0  0  0  0  0  0
   -2.6910   20.6340  -31.4980 O   0  0  0  0  0  0  0  0  0  0  0  0
   -4.2580   22.2610  -32.8640 N   0  0  0  0  0  0  0  0  0  0  0  0
   -5.4210   22.5040  -32.0650 C   0  0  0  0  0  0  0  0  0  0  0  0
   -6.6800   22.2820  -32.6360 C   0  0  0  0  0  0  0  0  0  0  0  0
   -7.8420   22.4510  -31.8810 C   0  0  0  0  0  0  0  0  0  0  0  0
   -7.7550   22.8580  -30.5500 C   0  0  0  0  0  0  0  0  0  0  0  0
   -6.5040   23.0950  -29.9700 C   0  0  0  0  0  0  0  0  0  0  0  0
   -5.3250   22.9200  -30.7160 C   0  0  0  0  0  0  0  0  0  0  0  0
   -4.0160   23.2040  -30.0890 C   0  0  0  0  0  0  0  0  0  0  0  0
   -3.2650   22.2890  -29.4990 O   0  0  0  0  0  0  0  0  0  0  0  0
   -2.1900   22.8870  -29.0360 C   0  0  0  0  0  0  0  0  0  0  0  0
   -1.1320   22.3140  -28.3350 C   0  0  0  0  0  0  0  0  0  0  0  0
   -0.0850   23.1570  -27.9110 C   0  0  0  0  0  0  0  0  0  0  0  0
    0.9830   22.6020  -27.2060 O   0  0  0  0  0  0  0  0  0  0  0  0
   -0.1270   24.5480  -28.2020 C   0  0  0  0  0  0  0  0  0  0  0  0
    0.9000   25.3840  -27.7820 O   0  0  0  0  0  0  0  0  0  0  0  0
   -1.2100   25.0920  -28.9190 C   0  0  0  0  0  0  0  0  0  0  0  0
   -2.2210   24.2250  -29.3210 C   0  0  0  0  0  0  0  0  0  0  0  0
   -3.3900   24.4430  -30.0020 C   0  0  0  0  0  0  0  0  0  0  0  0
   -3.8650   25.6660  -30.4630 O   0  0  0  0  0  0  0  0  0  0  0  0
   -4.5010   19.4080  -33.0490 C   0  0  0  0  0  0  0  0  0  0  0  0
   -5.5200   19.1460  -32.1200 C   0  0  0  0  0  0  0  0  0  0  0  0
   -6.4230   18.1020  -32.3460 C   0  0  0  0  0  0  0  0  0  0  0  0
   -6.3090   17.3110  -33.4970 C   0  0  0  0  0  0  0  0  0  0  0  0
   -7.2090   16.2770  -33.7230 O   0  0  0  0  0  0  0  0  0  0  0  0
   -5.2860   17.5610  -34.4180 C   0  0  0  0  0  0  0  0  0  0  0  0
   -4.3860   18.6060  -34.1950 C   0  0  0  0  0  0  0  0  0  0  0  0
   -6.7541   21.9717  -33.6887 H   0  0  0  0  0  0  0  0  0  0  0  0
   -8.8258   22.2632  -32.3358 H   0  0  0  0  0  0  0  0  0  0  0  0
   -8.6707   22.9928  -29.9556 H   0  0  0  0  0  0  0  0  0  0  0  0
   -6.4422   23.4211  -28.9213 H   0  0  0  0  0  0  0  0  0  0  0  0
   -1.1139   21.2356  -28.1186 H   0  0  0  0  0  0  0  0  0  0  0  0
    1.7550   23.1660  -26.8680 H   0  0  0  0  0  0  0  0  0  0  0  0
   -1.2551   26.1658  -29.1532 H   0  0  0  0  0  0  0  0  0  0  0  0
   -5.6085   19.7624  -31.2132 H   0  0  0  0  0  0  0  0  0  0  0  0
   -7.2239   17.9016  -31.6191 H   0  0  0  0  0  0  0  0  0  0  0  0
   -5.1903   16.9350  -35.3174 H   0  0  0  0  0  0  0  0  0  0  0  0
   -3.5832   18.8012  -34.9212 H   0  0  0  0  0  0  0  0  0  0  0  0
  1  2  2  0
  2  3  2  0
  2  4  1  0
  4  5  1  0
  5  6  2  0
  6  7  1  0
  7  8  2  0
  8  9  1  0
  9 10  2  0
 10 11  1  0
 11 12  1  0
 12 13  1  0
 13 14  2  0
 14 15  1  0
 15 16  1  0
 15 17  2  0
 17 18  1  0
 17 19  1  0
 19 20  2  0
 20 21  1  0
 21 22  1  0
  2 23  1  0
 23 24  2  0
 24 25  1  0
 25 26  2  0
 26 27  1  0
 26 28  1  0
 28 29  2  0
 10  5  1  0
 21 11  2  0
 29 23  1  0
 20 13  1  0
  6 30  1  0
  7 31  1  0
  8 32  1  0
  9 33  1  0
 14 34  1  0
 16 35  1  0
 19 36  1  0
 24 37  1  0
 25 38  1  0
 28 39  1  0
 29 40  1  0
M  CHG  4   4  -1  18  -1  22  -1  27  -1
M  END
>  <UniqueID>  (26) 
26

>  <SMILES>  (26) 
O=S(=O)([N-]c1ccccc1-c1oc2cc(O)c([O-])cc2c1[O-])c1ccc([O-])cc1

>  <Energy>  (26) 
91.61341790990195

>  <Genealogy>  (26) 
O=S(=O)([N-]c1ccccc1-c1oc2cc(O)c([O-])cc2c1[O-])c1ccc([O-])cc1 (protonated)
O=S(=O)([N-]c1ccccc1-c1oc2cc(O)c([O-])cc2c1[O-])c1ccc([O-])cc1 (3D coordinates assigned)
O=S(=O)([N-]c1ccccc1-c1oc2cc(O)c([O-])cc2c1[O-])c1ccc([O-])cc1 (optimized conformer: 91.61341790990195 kcal/mol)

>  <smiles>  (26) 
O=S(=O)(Nc1ccccc1-c1oc2cc(O)c(O)cc2c1O)c1ccc(O)cc1

>  <score_type>  (26) 
oracle

>  <origin>  (26) 
adgpu

>  <m_score__min__energy>  (26) 
-11.67

>  <m_primary>  (26) 
energy

$$$$
26:0
     RDKit          3D

 55 58  0  0  0  0  0  0  0  0999 V2000
   -3.9430   16.0050  -34.6740 C   0  0  0  0  0  0  0  0  0  0  0  0
   -5.0630   16.9250  -34.9270 N   0  0  0  0  0  0  0  0  0  0  0  0
   -6.3670   16.2950  -34.5980 C   0  0  0  0  0  0  0  0  0  0  0  0
   -6.9420   16.8020  -33.2680 C   0  0  0  0  0  0  0  0  0  0  0  0
   -7.1640   18.2660  -33.3040 N   0  0  0  0  0  0  0  0  0  0  0  0
   -7.2660   18.8840  -31.6720 S   0  0  0  0  0  0  0  0  0  0  0  0
   -6.0030   18.5600  -30.9230 O   0  0  0  0  0  0  0  0  0  0  0  0
   -8.4260   18.2510  -30.9560 O   0  0  0  0  0  0  0  0  0  0  0  0
   -7.5140   20.6290  -31.7120 C   0  0  0  0  0  0  0  0  0  0  0  0
   -8.7840   21.1670  -31.9670 C   0  0  0  0  0  0  0  0  0  0  0  0
   -8.9700   22.5510  -31.9700 C   0  0  0  0  0  0  0  0  0  0  0  0
   -7.8950   23.4040  -31.7120 C   0  0  0  0  0  0  0  0  0  0  0  0
   -6.6220   22.8770  -31.4440 C   0  0  0  0  0  0  0  0  0  0  0  0
   -5.5140   23.7510  -31.1660 N   0  0  0  0  0  0  0  0  0  0  0  0
   -4.1850   23.4920  -31.1850 C   0  0  0  0  0  0  0  0  0  0  0  0
   -3.5500   22.2560  -31.6900 C   0  0  0  0  0  0  0  0  0  0  0  0
   -3.6490   21.9270  -33.0500 C   0  0  0  0  0  0  0  0  0  0  0  0
   -3.0570   20.7600  -33.5410 C   0  0  0  0  0  0  0  0  0  0  0  0
   -2.3770   19.8950  -32.6730 C   0  0  0  0  0  0  0  0  0  0  0  0
   -1.6130   18.4340  -33.2900 S   0  0  0  0  0  0  0  0  0  0  0  0
    0.1180   18.4590  -32.8840 C   0  0  0  0  0  0  0  0  0  0  0  0
   -2.2580   17.2260  -32.6730 O   0  0  0  0  0  0  0  0  0  0  0  0
   -1.7770   18.3620  -34.7820 O   0  0  0  0  0  0  0  0  0  0  0  0
   -2.2880   20.2120  -31.3110 C   0  0  0  0  0  0  0  0  0  0  0  0
   -2.8790   21.3800  -30.8200 C   0  0  0  0  0  0  0  0  0  0  0  0
   -3.4770   24.5450  -30.7230 N   0  0  0  0  0  0  0  0  0  0  0  0
   -4.3440   25.4960  -30.4040 N   0  0  0  0  0  0  0  0  0  0  0  0
   -5.5640   25.0030  -30.6750 C   0  0  0  0  0  0  0  0  0  0  0  0
   -6.6320   25.6370  -30.4590 O   0  0  0  0  0  0  0  0  0  0  0  0
   -6.4370   21.4860  -31.4550 C   0  0  0  0  0  0  0  0  0  0  0  0
   -6.1410   19.0050  -34.0910 C   0  0  0  0  0  0  0  0  0  0  0  0
   -4.8340   18.2150  -34.2360 C   0  0  0  0  0  0  0  0  0  0  0  0
   -3.8017   15.8889  -33.5893 H   0  0  0  0  0  0  0  0  0  0  0  0
   -4.1651   15.0251  -35.1218 H   0  0  0  0  0  0  0  0  0  0  0  0
   -3.0249   16.4132  -35.1218 H   0  0  0  0  0  0  0  0  0  0  0  0
   -7.0824   16.5227  -35.4020 H   0  0  0  0  0  0  0  0  0  0  0  0
   -6.2016   15.2118  -34.5011 H   0  0  0  0  0  0  0  0  0  0  0  0
   -7.9009   16.2983  -33.0764 H   0  0  0  0  0  0  0  0  0  0  0  0
   -6.2201   16.5787  -32.4686 H   0  0  0  0  0  0  0  0  0  0  0  0
   -8.0980   18.4390  -33.7470 H   0  0  0  0  0  0  0  0  0  0  0  0
   -9.6344   20.4980  -32.1648 H   0  0  0  0  0  0  0  0  0  0  0  0
   -9.9659   22.9703  -32.1761 H   0  0  0  0  0  0  0  0  0  0  0  0
   -8.0464   24.4935  -31.7188 H   0  0  0  0  0  0  0  0  0  0  0  0
   -4.1962   22.5918  -33.7346 H   0  0  0  0  0  0  0  0  0  0  0  0
   -3.1250   20.5197  -34.6123 H   0  0  0  0  0  0  0  0  0  0  0  0
    0.2382   18.4607  -31.7906 H   0  0  0  0  0  0  0  0  0  0  0  0
    0.6063   17.5678  -33.3051 H   0  0  0  0  0  0  0  0  0  0  0  0
    0.5804   19.3639  -33.3051 H   0  0  0  0  0  0  0  0  0  0  0  0
   -1.7512   19.5395  -30.6257 H   0  0  0  0  0  0  0  0  0  0  0  0
   -2.8184   21.6145  -29.7470 H   0  0  0  0  0  0  0  0  0  0  0  0
   -5.4391   21.0661  -31.2604 H   0  0  0  0  0  0  0  0  0  0  0  0
   -6.5448   19.2075  -35.0939 H   0  0  0  0  0  0  0  0  0  0  0  0
   -5.9124   19.9372  -33.5537 H   0  0  0  0  0  0  0  0  0  0  0  0
   -4.1165   18.8118  -34.8183 H   0  0  0  0  0  0  0  0  0  0  0  0
   -4.4388   18.0069  -33.2307 H   0  0  0  0  0  0  0  0  0  0  0  0
  1  2  1  0
  2  3  1  0
  3  4  1  0
  4  5  1  0
  5  6  1  0
  6  7  2  0
  6  8  2  0
  6  9  1  0
  9 10  2  0
 10 11  1  0
 11 12  2  0
 12 13  1  0
 13 14  1  0
 14 15  1  0
 15 16  1  0
 16 17  2  0
 17 18  1  0
 18 19  2  0
 19 20  1  0
 20 21  1  0
 20 22  2  0
 20 23  2  0
 19 24  1  0
 24 25  2  0
 15 26  2  0
 26 27  1  0
 27 28  1  0
 28 29  2  0
 13 30  2  0
  5 31  1  0
 31 32  1  0
 32  2  1  0
 30  9  1  0
 28 14  1  0
 25 16  1  0
  1 33  1  0
  1 34  1  0
  1 35  1  0
  3 36  1  0
  3 37  1  0
  4 38  1  0
  4 39  1  0
  5 40  1  0
 10 41  1  0
 11 42  1  0
 12 43  1  0
 17 44  1  0
 18 45  1  0
 21 46  1  0
 21 47  1  0
 21 48  1  0
 24 49  1  0
 25 50  1  0
 30 51  1  0
 31 52  1  0
 31 53  1  0
 32 54  1  0
 32 55  1  0
M  CHG  2   5   1  27  -1
M  END
>  <UniqueID>  (27) 
27

>  <SMILES>  (27) 
CN1CC[NH+](S(=O)(=O)c2cccc(-n3c(-c4ccc(S(C)(=O)=O)cc4)n[n-]c3=O)c2)CC1

>  <Energy>  (27) 
110.24589401522881

>  <Genealogy>  (27) 
CN1CC[NH+](S(=O)(=O)c2cccc(-n3c(-c4ccc(S(C)(=O)=O)cc4)n[n-]c3=O)c2)CC1 (protonated)
CN1CC[NH+](S(=O)(=O)c2cccc(-n3c(-c4ccc(S(C)(=O)=O)cc4)n[n-]c3=O)c2)CC1 (3D coordinates assigned)
CN1CC[NH+](S(=O)(=O)c2cccc(-n3c(-c4ccc(S(C)(=O)=O)cc4)n[n-]c3=O)c2)CC1 (nonaromatic ring conformer: 110.24589401522881 kcal/mol)

>  <smiles>  (27) 
CN1CCN(S(=O)(=O)c2cccc(-n3c(-c4ccc(S(C)(=O)=O)cc4)n[nH]c3=O)c2)CC1

>  <score_type>  (27) 
oracle

>  <origin>  (27) 
adgpu

>  <m_score__min__energy>  (27) 
-10.800000000000001

>  <m_primary>  (27) 
energy

$$$$
27:0
     RDKit          3D

 65 69  0  0  0  0  0  0  0  0999 V2000
    2.3530   19.3080  -31.4510 C   0  0  0  0  0  0  0  0  0  0  0  0
    1.1960   19.9320  -30.9070 O   0  0  0  0  0  0  0  0  0  0  0  0
    0.0270   20.2040  -31.6330 C   0  0  0  0  0  0  0  0  0  0  0  0
    0.0140   21.0540  -32.7570 C   0  0  0  0  0  0  0  0  0  0  0  0
   -1.1760   21.2850  -33.4540 C   0  0  0  0  0  0  0  0  0  0  0  0
   -2.3690   20.6740  -33.0420 C   0  0  0  0  0  0  0  0  0  0  0  0
   -3.6400   20.8940  -33.8220 C   0  0  0  0  0  0  0  0  0  0  0  0
   -4.6900   21.4420  -32.9470 N   0  0  0  0  0  0  0  0  0  0  0  0
   -4.4870   22.6600  -32.3360 C   0  0  0  0  0  0  0  0  0  0  0  0
   -5.4670   23.2400  -31.4930 C   0  0  0  0  0  0  0  0  0  0  0  0
   -5.2060   24.5390  -30.8180 C   0  0  0  0  0  0  0  0  0  0  0  0
   -6.1610   25.2980  -30.5060 O   0  0  0  0  0  0  0  0  0  0  0  0
   -3.8570   24.9530  -30.5610 N   0  0  0  0  0  0  0  0  0  0  0  0
   -2.8830   24.2370  -29.7860 C   0  0  0  0  0  0  0  0  0  0  0  0
   -2.6020   24.5740  -28.4480 C   0  0  0  0  0  0  0  0  0  0  0  0
   -1.6650   23.8360  -27.7180 C   0  0  0  0  0  0  0  0  0  0  0  0
   -1.0130   22.7440  -28.3050 C   0  0  0  0  0  0  0  0  0  0  0  0
    0.1800   21.8390  -27.3770 S   0  0  0  0  0  0  0  0  0  0  0  0
    1.5070   22.5390  -27.4850 O   0  0  0  0  0  0  0  0  0  0  0  0
   -0.2220   21.7960  -25.9290 O   0  0  0  0  0  0  0  0  0  0  0  0
    0.3160   20.2170  -28.0100 N   0  0  0  0  0  0  0  0  0  0  0  0
   -0.7310   19.3520  -27.4150 C   0  0  0  0  0  0  0  0  0  0  0  0
   -0.4140   17.8430  -27.5330 C   0  0  0  0  0  0  0  0  0  0  0  0
    0.5710   17.5600  -28.6650 C   0  0  0  0  0  0  0  0  0  0  0  0
    1.8850   18.3360  -28.4620 C   0  0  0  0  0  0  0  0  0  0  0  0
    1.6700   19.6920  -27.7570 C   0  0  0  0  0  0  0  0  0  0  0  0
   -1.3030   22.3970  -29.6310 C   0  0  0  0  0  0  0  0  0  0  0  0
   -2.2400   23.1340  -30.3630 C   0  0  0  0  0  0  0  0  0  0  0  0
   -6.6610   22.5170  -31.3340 C   0  0  0  0  0  0  0  0  0  0  0  0
   -7.8190   22.7780  -30.6170 C   0  0  0  0  0  0  0  0  0  0  0  0
   -8.6560   21.6950  -30.8520 C   0  0  0  0  0  0  0  0  0  0  0  0
   -8.0600   20.8000  -31.6670 N   0  0  0  0  0  0  0  0  0  0  0  0
   -6.8500   21.3100  -31.9510 C   0  0  0  0  0  0  0  0  0  0  0  0
   -5.8680   20.7530  -32.7620 C   0  0  0  0  0  0  0  0  0  0  0  0
   -6.0630   19.6350  -33.3140 O   0  0  0  0  0  0  0  0  0  0  0  0
   -2.3570   19.8310  -31.9200 C   0  0  0  0  0  0  0  0  0  0  0  0
   -1.1680   19.6020  -31.2230 C   0  0  0  0  0  0  0  0  0  0  0  0
    3.0002   18.9589  -30.6329 H   0  0  0  0  0  0  0  0  0  0  0  0
    2.0503   18.4508  -32.0703 H   0  0  0  0  0  0  0  0  0  0  0  0
    2.9030   20.0318  -32.0703 H   0  0  0  0  0  0  0  0  0  0  0  0
    0.9447   21.5382  -33.0877 H   0  0  0  0  0  0  0  0  0  0  0  0
   -1.1763   21.9498  -34.3304 H   0  0  0  0  0  0  0  0  0  0  0  0
   -3.4448   21.6017  -34.6412 H   0  0  0  0  0  0  0  0  0  0  0  0
   -3.9808   19.9304  -34.2286 H   0  0  0  0  0  0  0  0  0  0  0  0
   -3.5412   23.1951  -32.5068 H   0  0  0  0  0  0  0  0  0  0  0  0
   -3.1213   25.4207  -27.9754 H   0  0  0  0  0  0  0  0  0  0  0  0
   -1.4389   24.1143  -26.6781 H   0  0  0  0  0  0  0  0  0  0  0  0
    0.1630   20.2830  -29.0450 H   0  0  0  0  0  0  0  0  0  0  0  0
   -0.8304   19.6061  -26.3494 H   0  0  0  0  0  0  0  0  0  0  0  0
   -1.6617   19.5351  -27.9720 H   0  0  0  0  0  0  0  0  0  0  0  0
    0.0226   17.4952  -26.5852 H   0  0  0  0  0  0  0  0  0  0  0  0
   -1.3516   17.3117  -27.7533 H   0  0  0  0  0  0  0  0  0  0  0  0
    0.7901   16.4823  -28.6897 H   0  0  0  0  0  0  0  0  0  0  0  0
    0.1166   17.8835  -29.6131 H   0  0  0  0  0  0  0  0  0  0  0  0
    2.5645   17.7245  -27.8501 H   0  0  0  0  0  0  0  0  0  0  0  0
    2.3084   18.5407  -29.4564 H   0  0  0  0  0  0  0  0  0  0  0  0
    1.8062   19.5585  -26.6737 H   0  0  0  0  0  0  0  0  0  0  0  0
    2.4016   20.4107  -28.1548 H   0  0  0  0  0  0  0  0  0  0  0  0
   -0.7922   21.5421  -30.0981 H   0  0  0  0  0  0  0  0  0  0  0  0
   -2.4735   22.8456  -31.3985 H   0  0  0  0  0  0  0  0  0  0  0  0
   -8.0304   23.6587  -29.9927 H   0  0  0  0  0  0  0  0  0  0  0  0
   -9.6662   21.5823  -30.4314 H   0  0  0  0  0  0  0  0  0  0  0  0
   -8.4670   19.9020  -32.0100 H   0  0  0  0  0  0  0  0  0  0  0  0
   -3.2880   19.3484  -31.5878 H   0  0  0  0  0  0  0  0  0  0  0  0
   -1.1712   18.9419  -30.3431 H   0  0  0  0  0  0  0  0  0  0  0  0
  1  2  1  0
  2  3  1  0
  3  4  2  0
  4  5  1  0
  5  6  2  0
  6  7  1  0
  7  8  1  0
  8  9  1  0
  9 10  2  0
 10 11  1  0
 11 12  2  0
 11 13  1  0
 13 14  1  0
 14 15  2  0
 15 16  1  0
 16 17  2  0
 17 18  1  0
 18 19  2  0
 18 20  2  0
 18 21  1  0
 21 22  1  0
 22 23  1  0
 23 24  1  0
 24 25  1  0
 25 26  1  0
 17 27  1  0
 27 28  2  0
 10 29  1  0
 29 30  1  0
 30 31  2  0
 31 32  1  0
 32 33  1  0
 33 34  1  0
 34 35  2  0
  6 36  1  0
 36 37  2  0
 37  3  1  0
 34  8  1  0
 28 14  1  0
 33 29  2  0
 26 21  1  0
  1 38  1  0
  1 39  1  0
  1 40  1  0
  4 41  1  0
  5 42  1  0
  7 43  1  0
  7 44  1  0
  9 45  1  0
 15 46  1  0
 16 47  1  0
 21 48  1  0
 22 49  1  0
 22 50  1  0
 23 51  1  0
 23 52  1  0
 24 53  1  0
 24 54  1  0
 25 55  1  0
 25 56  1  0
 26 57  1  0
 26 58  1  0
 27 59  1  0
 28 60  1  0
 30 61  1  0
 31 62  1  0
 32 63  1  0
 36 64  1  0
 37 65  1  0
M  CHG  2  13  -1  21   1
M  END
>  <UniqueID>  (28) 
28

>  <SMILES>  (28) 
COc1ccc(Cn2cc(C(=O)[N-]c3ccc(S(=O)(=O)[NH+]4CCCCC4)cc3)c3cc[nH]c3c2=O)cc1

>  <Energy>  (28) 
112.95803721666331

>  <Genealogy>  (28) 
COc1ccc(Cn2cc(C(=O)[N-]c3ccc(S(=O)(=O)[NH+]4CCCCC4)cc3)c3cc[nH]c3c2=O)cc1 (protonated)
COc1ccc(Cn2cc(C(=O)[N-]c3ccc(S(=O)(=O)[NH+]4CCCCC4)cc3)c3cc[nH]c3c2=O)cc1 (3D coordinates assigned)
COc1ccc(Cn2cc(C(=O)[N-]c3ccc(S(=O)(=O)[NH+]4CCCCC4)cc3)c3cc[nH]c3c2=O)cc1 (nonaromatic ring conformer: 112.95803721666331 kcal/mol)

>  <smiles>  (28) 
COc1ccc(Cn2cc(C(=O)Nc3ccc(S(=O)(=O)N4CCCCC4)cc3)c3cc[nH]c3c2=O)cc1

>  <score_type>  (28) 
oracle

>  <origin>  (28) 
adgpu

>  <m_score__min__energy>  (28) 
-11.390000000000001

>  <m_primary>  (28) 
energy

$$$$
28:0
     RDKit          3D

 53 56  0  0  0  0  0  0  0  0999 V2000
   -0.0950   19.0820  -29.4510 C   0  0  0  0  0  0  0  0  0  0  0  0
   -0.3570   19.4140  -28.0390 N   0  0  0  0  0  0  0  0  0  0  0  0
    0.6300   20.3580  -27.4800 C   0  0  0  0  0  0  0  0  0  0  0  0
    0.5490   21.7510  -28.1280 C   0  0  0  0  0  0  0  0  0  0  0  0
   -0.8660   22.2180  -28.3410 C   0  0  0  0  0  0  0  0  0  0  0  0
   -1.1000   23.5440  -28.7400 C   0  0  0  0  0  0  0  0  0  0  0  0
   -2.3890   23.9730  -29.0740 C   0  0  0  0  0  0  0  0  0  0  0  0
   -2.5930   25.2940  -29.4670 O   0  0  0  0  0  0  0  0  0  0  0  0
   -3.4670   23.0790  -29.0190 C   0  0  0  0  0  0  0  0  0  0  0  0
   -4.7680   23.5380  -29.4200 N   0  0  0  0  0  0  0  0  0  0  0  0
   -5.2950   23.7760  -31.0550 S   0  0  0  0  0  0  0  0  0  0  0  0
   -4.1850   23.4200  -32.0060 O   0  0  0  0  0  0  0  0  0  0  0  0
   -5.6530   25.2220  -31.2540 O   0  0  0  0  0  0  0  0  0  0  0  0
   -6.7220   22.7900  -31.3390 C   0  0  0  0  0  0  0  0  0  0  0  0
   -7.9670   23.3730  -31.6050 C   0  0  0  0  0  0  0  0  0  0  0  0
   -9.0680   22.5650  -31.9010 C   0  0  0  0  0  0  0  0  0  0  0  0
   -8.9270   21.1740  -31.9450 C   0  0  0  0  0  0  0  0  0  0  0  0
   -7.6800   20.5840  -31.6900 C   0  0  0  0  0  0  0  0  0  0  0  0
   -7.4730   18.8340  -31.8110 S   0  0  0  0  0  0  0  0  0  0  0  0
   -6.3260   18.4100  -30.9330 O   0  0  0  0  0  0  0  0  0  0  0  0
   -8.7190   18.1510  -31.3150 O   0  0  0  0  0  0  0  0  0  0  0  0
   -7.1590   18.3310  -33.4610 N   0  0  0  0  0  0  0  0  0  0  0  0
   -6.0330   19.0780  -34.0470 C   0  0  0  0  0  0  0  0  0  0  0  0
   -4.9910   18.0720  -34.5300 C   0  0  0  0  0  0  0  0  0  0  0  0
   -5.3280   16.7970  -33.7940 C   0  0  0  0  0  0  0  0  0  0  0  0
   -6.8170   16.9040  -33.5340 C   0  0  0  0  0  0  0  0  0  0  0  0
   -6.5890   21.3960  -31.3640 C   0  0  0  0  0  0  0  0  0  0  0  0
   -3.2410   21.7580  -28.5920 C   0  0  0  0  0  0  0  0  0  0  0  0
   -1.9460   21.3150  -28.2790 C   0  0  0  0  0  0  0  0  0  0  0  0
   -1.7380   19.8840  -27.8280 C   0  0  0  0  0  0  0  0  0  0  0  0
    0.5856   18.2195  -29.5047 H   0  0  0  0  0  0  0  0  0  0  0  0
   -1.0426   18.8330  -29.9510 H   0  0  0  0  0  0  0  0  0  0  0  0
    0.3675   19.9457  -29.9510 H   0  0  0  0  0  0  0  0  0  0  0  0
    0.4471   20.4606  -26.4002 H   0  0  0  0  0  0  0  0  0  0  0  0
    1.6319   19.9528  -27.6850 H   0  0  0  0  0  0  0  0  0  0  0  0
    1.0617   22.4722  -27.4745 H   0  0  0  0  0  0  0  0  0  0  0  0
    1.0258   21.6826  -29.1169 H   0  0  0  0  0  0  0  0  0  0  0  0
   -0.2606   24.2531  -28.7905 H   0  0  0  0  0  0  0  0  0  0  0  0
   -8.0784   24.4671  -31.5810 H   0  0  0  0  0  0  0  0  0  0  0  0
  -10.0478   23.0238  -32.0998 H   0  0  0  0  0  0  0  0  0  0  0  0
   -9.7957   20.5414  -32.1800 H   0  0  0  0  0  0  0  0  0  0  0  0
   -6.3882   19.6819  -34.8950 H   0  0  0  0  0  0  0  0  0  0  0  0
   -5.5919   19.7501  -33.2962 H   0  0  0  0  0  0  0  0  0  0  0  0
   -5.0670   17.9251  -35.6175 H   0  0  0  0  0  0  0  0  0  0  0  0
   -3.9621   18.4086  -34.3348 H   0  0  0  0  0  0  0  0  0  0  0  0
   -5.1019   15.9168  -34.4137 H   0  0  0  0  0  0  0  0  0  0  0  0
   -4.7451   16.6764  -32.8690 H   0  0  0  0  0  0  0  0  0  0  0  0
   -7.3751   16.4269  -34.3531 H   0  0  0  0  0  0  0  0  0  0  0  0
   -7.0801   16.3973  -32.5938 H   0  0  0  0  0  0  0  0  0  0  0  0
   -5.6187   20.9361  -31.1253 H   0  0  0  0  0  0  0  0  0  0  0  0
   -4.0893   21.0635  -28.5022 H   0  0  0  0  0  0  0  0  0  0  0  0
   -1.9725   19.8159  -26.7554 H   0  0  0  0  0  0  0  0  0  0  0  0
   -2.4008   19.2467  -28.4317 H   0  0  0  0  0  0  0  0  0  0  0  0
  1  2  1  0
  2  3  1  0
  3  4  1  0
  4  5  1  0
  5  6  2  0
  6  7  1  0
  7  8  1  0
  7  9  2  0
  9 10  1  0
 10 11  1  0
 11 12  2  0
 11 13  2  0
 11 14  1  0
 14 15  2  0
 15 16  1  0
 16 17  2  0
 17 18  1  0
 18 19  1  0
 19 20  2  0
 19 21  2  0
 19 22  1  0
 22 23  1  0
 23 24  1  0
 24 25  1  0
 25 26  1  0
 18 27  2  0
  9 28  1  0
 28 29  2  0
 29 30  1  0
 30  2  1  0
 29  5  1  0
 27 14  1  0
 26 22  1  0
  1 31  1  0
  1 32  1  0
  1 33  1  0
  3 34  1  0
  3 35  1  0
  4 36  1  0
  4 37  1  0
  6 38  1  0
 15 39  1  0
 16 40  1  0
 17 41  1  0
 23 42  1  0
 23 43  1  0
 24 44  1  0
 24 45  1  0
 25 46  1  0
 25 47  1  0
 26 48  1  0
 26 49  1  0
 27 50  1  0
 28 51  1  0
 30 52  1  0
 30 53  1  0
M  CHG  2   8  -1  10  -1
M  END
>  <UniqueID>  (29) 
29

>  <SMILES>  (29) 
CN1CCc2cc([O-])c([N-]S(=O)(=O)c3cccc(S(=O)(=O)N4CCCC4)c3)cc2C1

>  <Energy>  (29) 
62.90788893625482

>  <Genealogy>  (29) 
CN1CCc2cc([O-])c([N-]S(=O)(=O)c3cccc(S(=O)(=O)N4CCCC4)c3)cc2C1 (protonated)
CN1CCc2cc([O-])c([N-]S(=O)(=O)c3cccc(S(=O)(=O)N4CCCC4)c3)cc2C1 (3D coordinates assigned)
CN1CCc2cc([O-])c([N-]S(=O)(=O)c3cccc(S(=O)(=O)N4CCCC4)c3)cc2C1 (nonaromatic ring conformer: 62.90788893625482 kcal/mol)

>  <smiles>  (29) 
CN1CCc2cc(O)c(NS(=O)(=O)c3cccc(S(=O)(=O)N4CCCC4)c3)cc2C1

>  <score_type>  (29) 
oracle

>  <origin>  (29) 
adgpu

>  <m_score__min__energy>  (29) 
-15.029999999999999

>  <m_primary>  (29) 
energy

$$$$
29:0
     RDKit          3D

 63 66  0  0  1  0  0  0  0  0999 V2000
    0.1460   21.5130  -27.9690 C   0  0  0  0  0  0  0  0  0  0  0  0
   -0.1120   22.0900  -29.2370 O   0  0  0  0  0  0  0  0  0  0  0  0
   -1.3380   22.7200  -29.4060 C   0  0  0  0  0  0  0  0  0  0  0  0
   -1.7900   23.7290  -28.5830 C   0  0  0  0  0  0  0  0  0  0  0  0
   -3.0170   24.3460  -28.7680 C   0  0  0  0  0  0  0  0  0  0  0  0
   -3.8330   23.9400  -29.8220 C   0  0  0  0  0  0  0  0  0  0  0  0
   -5.3850   24.7180  -30.0570 S   0  0  0  0  0  0  0  0  0  0  0  0
   -6.6670   23.5390  -30.4510 C   0  0  0  0  0  0  0  0  0  0  0  0
   -5.8250   25.4270  -28.7900 O   0  0  0  0  0  0  0  0  0  0  0  0
   -5.2680   25.6510  -31.2200 O   0  0  0  0  0  0  0  0  0  0  0  0
   -3.3810   22.9300  -30.6450 C   0  0  0  0  0  0  0  0  0  0  0  0
   -2.1560   22.3180  -30.4570 C   0  0  0  0  0  0  0  0  0  0  0  0
   -1.7460   21.2870  -31.3350 N   0  0  0  0  0  0  0  0  0  0  0  0
   -2.2250   21.3040  -32.7050 C   0  0  0  0  0  0  0  0  0  0  0  0
   -1.1520   20.5720  -33.5280 C   0  0  0  0  0  0  0  0  0  0  0  0
   -1.3100   19.1830  -33.1660 N   0  0  0  0  0  0  0  0  0  0  0  0
   -1.5650   18.1080  -34.0210 C   0  0  0  0  0  0  0  0  0  0  0  0
   -0.5890   17.3540  -34.6490 C   0  0  0  0  0  0  0  0  0  0  0  0
    0.7480   17.6060  -34.4890 O   0  0  0  0  0  0  0  0  0  0  0  0
   -0.8940   16.3070  -35.4700 N   0  0  0  0  0  0  0  0  0  0  0  0
   -2.1550   15.9480  -35.7170 C   0  0  0  0  0  0  0  0  0  0  0  0
   -3.1260   16.6550  -35.1270 N   0  0  0  0  0  0  0  0  0  0  0  0
   -2.8790   17.7070  -34.3010 C   0  0  0  0  0  0  0  0  0  0  0  0
   -3.9100   18.2750  -33.8160 N   0  0  0  0  0  0  0  0  0  0  0  0
   -5.5390   17.9020  -34.0630 S   0  0  0  0  0  0  0  0  0  0  0  0
   -5.9130   16.4550  -33.9580 O   0  0  0  0  0  0  0  0  0  0  0  0
   -5.7550   18.1760  -35.5560 O   0  0  0  0  0  0  0  0  0  0  0  0
   -6.6660   18.9670  -33.2490 C   0  0  0  0  0  0  0  0  0  0  0  0
   -7.8500   18.5230  -32.6950 C   0  0  0  0  0  0  0  0  0  0  0  0
   -8.7390   19.3730  -32.0490 C   0  0  0  0  0  0  0  0  0  0  0  0
   -8.4580   20.6970  -31.9440 C   0  0  0  0  0  0  0  0  0  0  0  0
   -9.4490   21.5790  -31.2370 C   0  0  0  0  0  0  0  0  0  0  0  0
   -7.3010   21.1810  -32.4760 C   0  0  0  0  0  0  0  0  0  0  0  0
   -6.4180   20.3370  -33.1170 C   0  0  0  0  0  0  0  0  0  0  0  0
   -1.1890   18.9290  -31.7140 C   0  0  0  0  0  0  0  0  0  0  0  0
   -0.8740   20.2050  -30.9500 C   0  0  0  0  0  0  0  0  0  0  0  0
   -0.1661   22.2110  -27.1782 H   0  0  0  0  0  0  0  0  0  0  0  0
   -0.4177   20.5734  -27.8722 H   0  0  0  0  0  0  0  0  0  0  0  0
    1.2221   21.3066  -27.8722 H   0  0  0  0  0  0  0  0  0  0  0  0
   -1.1530   24.0567  -27.7482 H   0  0  0  0  0  0  0  0  0  0  0  0
   -3.3435   25.1481  -28.0897 H   0  0  0  0  0  0  0  0  0  0  0  0
   -7.0987   23.1420  -29.5204 H   0  0  0  0  0  0  0  0  0  0  0  0
   -7.4540   24.0354  -31.0377 H   0  0  0  0  0  0  0  0  0  0  0  0
   -6.2381   22.7133  -31.0377 H   0  0  0  0  0  0  0  0  0  0  0  0
   -4.0171   22.6001  -31.4796 H   0  0  0  0  0  0  0  0  0  0  0  0
   -3.1899   20.7813  -32.7808 H   0  0  0  0  0  0  0  0  0  0  0  0
   -2.3856   22.3302  -33.0671 H   0  0  0  0  0  0  0  0  0  0  0  0
   -1.3220   20.7156  -34.6053 H   0  0  0  0  0  0  0  0  0  0  0  0
   -0.1380   20.9466  -33.3241 H   0  0  0  0  0  0  0  0  0  0  0  0
    1.2820   17.4080  -33.6560 H   0  0  0  0  0  0  0  0  0  0  0  0
   -2.3878   15.1024  -36.3809 H   0  0  0  0  0  0  0  0  0  0  0  0
   -4.1090   16.3580  -35.3340 H   0  0  0  0  0  0  0  0  0  0  0  0
   -8.0993   17.4541  -32.7679 H   0  0  0  0  0  0  0  0  0  0  0  0
   -9.6708   18.9731  -31.6225 H   0  0  0  0  0  0  0  0  0  0  0  0
   -9.3264   21.4699  -30.1493 H   0  0  0  0  0  0  0  0  0  0  0  0
   -9.2758   22.6272  -31.5222 H   0  0  0  0  0  0  0  0  0  0  0  0
  -10.4700   21.2854  -31.5222 H   0  0  0  0  0  0  0  0  0  0  0  0
   -7.0691   22.2531  -32.3938 H   0  0  0  0  0  0  0  0  0  0  0  0
   -5.4909   20.7541  -33.5370 H   0  0  0  0  0  0  0  0  0  0  0  0
   -2.1384   18.5153  -31.3431 H   0  0  0  0  0  0  0  0  0  0  0  0
   -0.3641   18.2189  -31.5552 H   0  0  0  0  0  0  0  0  0  0  0  0
   -0.9958   20.0150  -29.8734 H   0  0  0  0  0  0  0  0  0  0  0  0
    0.1599   20.4983  -31.1844 H   0  0  0  0  0  0  0  0  0  0  0  0
  1  2  1  0
  2  3  1  0
  3  4  2  0
  4  5  1  0
  5  6  2  0
  6  7  1  0
  7  8  1  0
  7  9  2  0
  7 10  2  0
  6 11  1  0
 11 12  2  0
 12 13  1  0
 13 14  1  0
 14 15  1  0
 15 16  1  0
 16 17  1  0
 17 18  2  0
 18 19  1  0
 18 20  1  0
 20 21  2  0
 21 22  1  0
 22 23  1  0
 23 24  2  0
 24 25  1  0
 25 26  2  0
 25 27  2  0
 25 28  1  0
 28 29  2  0
 29 30  1  0
 30 31  2  0
 31 32  1  0
 31 33  1  0
 33 34  2  0
 16 35  1  0
 35 36  1  0
 12  3  1  0
 36 13  1  0
 23 17  1  0
 34 28  1  0
  1 37  1  0
  1 38  1  0
  1 39  1  0
  4 40  1  0
  5 41  1  0
  8 42  1  0
  8 43  1  0
  8 44  1  0
 11 45  1  0
 14 46  1  0
 14 47  1  0
 15 48  1  0
 15 49  1  0
 19 50  1  0
 21 51  1  0
 22 52  1  0
 29 53  1  0
 30 54  1  0
 32 55  1  0
 32 56  1  0
 32 57  1  0
 33 58  1  0
 34 59  1  0
 35 60  1  0
 35 61  1  0
 36 62  1  0
 36 63  1  0
M  END
>  <smiles>  (30) 
COc1ccc(S(C)(=O)=O)cc1N1CCN(c2c(O)nc[nH]c2=NS(=O)(=O)c2ccc(C)cc2)CC1

>  <score_type>  (30) 
oracle

>  <origin>  (30) 
adgpu

>  <m_score__min__energy>  (30) 
-9.3900000000000006

>  <m_primary>  (30) 
energy

$$$$
30:0
     RDKit          3D

 54 56  0  0  0  0  0  0  0  0999 V2000
   -5.1810   15.4500  -34.4860 C   0  0  0  0  0  0  0  0  0  0  0  0
   -6.0050   16.4880  -33.7800 C   0  0  0  0  0  0  0  0  0  0  0  0
   -7.2420   16.2660  -33.6380 O   0  0  0  0  0  0  0  0  0  0  0  0
   -5.4180   17.7100  -33.2600 N   0  0  0  0  0  0  0  0  0  0  0  0
   -6.3140   18.7300  -32.6810 C   0  0  0  0  0  0  0  0  0  0  0  0
   -5.5890   19.5980  -31.6490 C   0  0  0  0  0  0  0  0  0  0  0  0
   -4.3200   20.0650  -32.2120 N   0  0  0  0  0  0  0  0  0  0  0  0
   -4.1820   21.4120  -32.7140 C   0  0  0  0  0  0  0  0  0  0  0  0
   -3.6080   21.6060  -33.8240 O   0  0  0  0  0  0  0  0  0  0  0  0
   -4.6900   22.5830  -31.9640 C   0  0  0  0  0  0  0  0  0  0  0  0
   -6.0400   22.9600  -32.0440 C   0  0  0  0  0  0  0  0  0  0  0  0
   -6.4850   24.1010  -31.3870 C   0  0  0  0  0  0  0  0  0  0  0  0
   -5.6020   24.8720  -30.6210 C   0  0  0  0  0  0  0  0  0  0  0  0
   -6.0810   26.0180  -29.9970 O   0  0  0  0  0  0  0  0  0  0  0  0
   -4.2650   24.4790  -30.4820 C   0  0  0  0  0  0  0  0  0  0  0  0
   -3.3810   25.2590  -29.6650 N   0  0  0  0  0  0  0  0  0  0  0  0
   -2.0930   24.5990  -28.7110 S   0  0  0  0  0  0  0  0  0  0  0  0
   -2.5120   24.6340  -27.2660 O   0  0  0  0  0  0  0  0  0  0  0  0
   -0.8770   25.4710  -28.8640 O   0  0  0  0  0  0  0  0  0  0  0  0
   -1.6900   22.9370  -29.1830 C   0  0  0  0  0  0  0  0  0  0  0  0
   -0.6100   22.7360  -30.0610 C   0  0  0  0  0  0  0  0  0  0  0  0
   -0.2470   21.4500  -30.4570 C   0  0  0  0  0  0  0  0  0  0  0  0
   -0.9670   20.3360  -30.0010 C   0  0  0  0  0  0  0  0  0  0  0  0
   -0.5550   18.9510  -30.4100 C   0  0  0  0  0  0  0  0  0  0  0  0
   -2.0280   20.5200  -29.1070 C   0  0  0  0  0  0  0  0  0  0  0  0
   -2.4120   21.8150  -28.6970 C   0  0  0  0  0  0  0  0  0  0  0  0
   -3.5500   21.9670  -27.7270 C   0  0  0  0  0  0  0  0  0  0  0  0
   -3.8180   23.3330  -31.1570 C   0  0  0  0  0  0  0  0  0  0  0  0
   -3.3910   19.0130  -32.6370 C   0  0  0  0  0  0  0  0  0  0  0  0
   -4.0670   18.1360  -33.6980 C   0  0  0  0  0  0  0  0  0  0  0  0
   -4.6766   14.8146  -33.7431 H   0  0  0  0  0  0  0  0  0  0  0  0
   -5.8348   14.8291  -35.1161 H   0  0  0  0  0  0  0  0  0  0  0  0
   -4.4279   15.9459  -35.1161 H   0  0  0  0  0  0  0  0  0  0  0  0
   -6.6896   19.3750  -33.4890 H   0  0  0  0  0  0  0  0  0  0  0  0
   -7.1417   18.2124  -32.1740 H   0  0  0  0  0  0  0  0  0  0  0  0
   -6.2169   20.4636  -31.3914 H   0  0  0  0  0  0  0  0  0  0  0  0
   -5.3933   19.0057  -30.7430 H   0  0  0  0  0  0  0  0  0  0  0  0
   -6.7465   22.3514  -32.6275 H   0  0  0  0  0  0  0  0  0  0  0  0
   -7.5401   24.4011  -31.4694 H   0  0  0  0  0  0  0  0  0  0  0  0
   -5.5860   26.4810  -29.2480 H   0  0  0  0  0  0  0  0  0  0  0  0
   -0.0465   23.6019  -30.4387 H   0  0  0  0  0  0  0  0  0  0  0  0
    0.6100   21.3077  -31.1318 H   0  0  0  0  0  0  0  0  0  0  0  0
   -0.3739   18.3421  -29.5120 H   0  0  0  0  0  0  0  0  0  0  0  0
   -1.3555   18.4921  -31.0088 H   0  0  0  0  0  0  0  0  0  0  0  0
    0.3662   19.0043  -31.0088 H   0  0  0  0  0  0  0  0  0  0  0  0
   -2.5694   19.6446  -28.7190 H   0  0  0  0  0  0  0  0  0  0  0  0
   -3.1642   21.9155  -26.6982 H   0  0  0  0  0  0  0  0  0  0  0  0
   -4.0404   22.9386  -27.8865 H   0  0  0  0  0  0  0  0  0  0  0  0
   -4.2782   21.1581  -27.8865 H   0  0  0  0  0  0  0  0  0  0  0  0
   -2.7695   23.0171  -31.0528 H   0  0  0  0  0  0  0  0  0  0  0  0
   -2.4862   19.4719  -33.0621 H   0  0  0  0  0  0  0  0  0  0  0  0
   -3.1143   18.3945  -31.7704 H   0  0  0  0  0  0  0  0  0  0  0  0
   -4.1569   18.7088  -34.6328 H   0  0  0  0  0  0  0  0  0  0  0  0
   -3.4511   17.2376  -33.8513 H   0  0  0  0  0  0  0  0  0  0  0  0
  1  2  1  0
  2  3  2  0
  2  4  1  0
  4  5  1  0
  5  6  1  0
  6  7  1  0
  7  8  1  0
  8  9  2  0
  8 10  1  0
 10 11  2  0
 11 12  1  0
 12 13  2  0
 13 14  1  0
 13 15  1  0
 15 16  1  0
 16 17  1  0
 17 18  2  0
 17 19  2  0
 17 20  1  0
 20 21  2  0
 21 22  1  0
 22 23  2  0
 23 24  1  0
 23 25  1  0
 25 26  2  0
 26 27  1  0
 15 28  2  0
  7 29  1  0
 29 30  1  0
 30  4  1  0
 28 10  1  0
 26 20  1  0
  1 31  1  0
  1 32  1  0
  1 33  1  0
  5 34  1  0
  5 35  1  0
  6 36  1  0
  6 37  1  0
 11 38  1  0
 12 39  1  0
 14 40  1  0
 21 41  1  0
 22 42  1  0
 24 43  1  0
 24 44  1  0
 24 45  1  0
 25 46  1  0
 27 47  1  0
 27 48  1  0
 27 49  1  0
 28 50  1  0
 29 51  1  0
 29 52  1  0
 30 53  1  0
 30 54  1  0
M  CHG  1  16  -1
M  END
>  <UniqueID>  (31) 
30

>  <SMILES>  (31) 
CC(=O)N1CCN(C(=O)c2ccc(O)c([N-]S(=O)(=O)c3ccc(C)cc3C)c2)CC1

>  <Energy>  (31) 
65.8624697133404

>  <Genealogy>  (31) 
CC(=O)N1CCN(C(=O)c2ccc(O)c([N-]S(=O)(=O)c3ccc(C)cc3C)c2)CC1 (protonated)
CC(=O)N1CCN(C(=O)c2ccc(O)c([N-]S(=O)(=O)c3ccc(C)cc3C)c2)CC1 (3D coordinates assigned)
CC(=O)N1CCN(C(=O)c2ccc(O)c([N-]S(=O)(=O)c3ccc(C)cc3C)c2)CC1 (nonaromatic ring conformer: 65.8624697133404 kcal/mol)

>  <smiles>  (31) 
CC(=O)N1CCN(C(=O)c2ccc(O)c(NS(=O)(=O)c3ccc(C)cc3C)c2)CC1

>  <score_type>  (31) 
oracle

>  <origin>  (31) 
adgpu

>  <m_score__min__energy>  (31) 
-10.67

>  <m_primary>  (31) 
energy

$$$$
31:0
     RDKit          3D

 47 50  0  0  0  0  0  0  0  0999 V2000
   -3.8620   25.4080  -30.8490 N   0  0  0  0  0  0  0  0  0  0  0  0
   -5.1920   24.8440  -29.8990 S   0  0  0  0  0  0  0  0  0  0  0  0
   -6.0520   26.0160  -29.5150 O   0  0  0  0  0  0  0  0  0  0  0  0
   -4.6780   24.1970  -28.6440 O   0  0  0  0  0  0  0  0  0  0  0  0
   -6.1330   23.6720  -30.8310 C   0  0  0  0  0  0  0  0  0  0  0  0
   -7.5320   23.7850  -30.8590 C   0  0  0  0  0  0  0  0  0  0  0  0
   -8.3040   22.8610  -31.5670 C   0  0  0  0  0  0  0  0  0  0  0  0
   -7.6880   21.8190  -32.2580 C   0  0  0  0  0  0  0  0  0  0  0  0
   -6.2970   21.6970  -32.2440 C   0  0  0  0  0  0  0  0  0  0  0  0
   -5.5060   22.6140  -31.5290 C   0  0  0  0  0  0  0  0  0  0  0  0
   -4.0720   22.4990  -31.5600 N   0  0  0  0  0  0  0  0  0  0  0  0
   -3.3910   21.3040  -31.9710 C   0  0  0  0  0  0  0  0  0  0  0  0
   -4.0360   20.2350  -32.1410 O   0  0  0  0  0  0  0  0  0  0  0  0
   -1.9310   21.3190  -32.1930 C   0  0  0  0  0  0  0  0  0  0  0  0
   -1.2920   21.2650  -33.4170 C   0  0  0  0  0  0  0  0  0  0  0  0
    0.0390   21.1850  -33.2050 N   0  0  0  0  0  0  0  0  0  0  0  0
    1.0820   21.1070  -34.2000 C   0  0  0  0  0  0  0  0  0  0  0  0
    1.2410   22.1090  -35.1800 C   0  0  0  0  0  0  0  0  0  0  0  0
    2.2580   22.0120  -36.1350 C   0  0  0  0  0  0  0  0  0  0  0  0
    3.1250   20.9180  -36.1280 C   0  0  0  0  0  0  0  0  0  0  0  0
    2.9760   19.9160  -35.1680 C   0  0  0  0  0  0  0  0  0  0  0  0
    1.9620   20.0070  -34.2100 C   0  0  0  0  0  0  0  0  0  0  0  0
    0.2770   21.1920  -31.9010 N   0  0  0  0  0  0  0  0  0  0  0  0
   -0.9040   21.2720  -31.2570 C   0  0  0  0  0  0  0  0  0  0  0  0
   -1.0140   21.3570  -29.7870 C   0  0  0  0  0  0  0  0  0  0  0  0
   -0.7300   20.2350  -28.9880 C   0  0  0  0  0  0  0  0  0  0  0  0
   -0.8640   20.3020  -27.5990 C   0  0  0  0  0  0  0  0  0  0  0  0
   -1.2940   21.4850  -26.9930 C   0  0  0  0  0  0  0  0  0  0  0  0
   -1.5970   22.6010  -27.7770 C   0  0  0  0  0  0  0  0  0  0  0  0
   -1.4640   22.5430  -29.1690 C   0  0  0  0  0  0  0  0  0  0  0  0
   -1.7670   23.6670  -29.9290 O   0  0  0  0  0  0  0  0  0  0  0  0
   -3.0030   25.2980  -30.2650 H   0  0  0  0  0  0  0  0  0  0  0  0
   -8.0240   24.6075  -30.3192 H   0  0  0  0  0  0  0  0  0  0  0  0
   -9.3998   22.9558  -31.5792 H   0  0  0  0  0  0  0  0  0  0  0  0
   -8.2979   21.0923  -32.8147 H   0  0  0  0  0  0  0  0  0  0  0  0
   -5.8159   20.8767  -32.7969 H   0  0  0  0  0  0  0  0  0  0  0  0
   -3.5010   23.2950  -31.1980 H   0  0  0  0  0  0  0  0  0  0  0  0
   -1.7854   21.2840  -34.4000 H   0  0  0  0  0  0  0  0  0  0  0  0
    0.5602   22.9729  -35.1932 H   0  0  0  0  0  0  0  0  0  0  0  0
    2.3750   22.7999  -36.8937 H   0  0  0  0  0  0  0  0  0  0  0  0
    3.9255   20.8457  -36.8790 H   0  0  0  0  0  0  0  0  0  0  0  0
    3.6579   19.0528  -35.1652 H   0  0  0  0  0  0  0  0  0  0  0  0
    1.8503   19.2126  -33.4573 H   0  0  0  0  0  0  0  0  0  0  0  0
   -0.4000   19.2979  -29.4601 H   0  0  0  0  0  0  0  0  0  0  0  0
   -0.6306   19.4220  -26.9816 H   0  0  0  0  0  0  0  0  0  0  0  0
   -1.3940   21.5378  -25.8988 H   0  0  0  0  0  0  0  0  0  0  0  0
   -1.9416   23.5294  -27.2981 H   0  0  0  0  0  0  0  0  0  0  0  0
  1  2  1  0
  2  3  2  0
  2  4  2  0
  2  5  1  0
  5  6  2  0
  6  7  1  0
  7  8  2  0
  8  9  1  0
  9 10  2  0
 10 11  1  0
 11 12  1  0
 12 13  2  0
 12 14  1  0
 14 15  2  0
 15 16  1  0
 16 17  1  0
 17 18  2  0
 18 19  1  0
 19 20  2  0
 20 21  1  0
 21 22  2  0
 16 23  1  0
 23 24  2  0
 24 25  1  0
 25 26  2  0
 26 27  1  0
 27 28  2  0
 28 29  1  0
 29 30  2  0
 30 31  1  0
 10  5  1  0
 24 14  1  0
 30 25  1  0
 22 17  1  0
  1 32  1  0
  6 33  1  0
  7 34  1  0
  8 35  1  0
  9 36  1  0
 11 37  1  0
 15 38  1  0
 18 39  1  0
 19 40  1  0
 20 41  1  0
 21 42  1  0
 22 43  1  0
 26 44  1  0
 27 45  1  0
 28 46  1  0
 29 47  1  0
M  CHG  2   1  -1  31  -1
M  END
>  <UniqueID>  (32) 
31

>  <SMILES>  (32) 
[NH-]S(=O)(=O)c1ccccc1NC(=O)c1cn(-c2ccccc2)nc1-c1ccccc1[O-]

>  <Energy>  (32) 
96.04808415434118

>  <Genealogy>  (32) 
[NH-]S(=O)(=O)c1ccccc1NC(=O)c1cn(-c2ccccc2)nc1-c1ccccc1[O-] (protonated)
[NH-]S(=O)(=O)c1ccccc1NC(=O)c1cn(-c2ccccc2)nc1-c1ccccc1[O-] (3D coordinates assigned)
[NH-]S(=O)(=O)c1ccccc1NC(=O)c1cn(-c2ccccc2)nc1-c1ccccc1[O-] (optimized conformer: 96.04808415434118 kcal/mol)

>  <smiles>  (32) 
NS(=O)(=O)c1ccccc1NC(=O)c1cn(-c2ccccc2)nc1-c1ccccc1O

>  <score_type>  (32) 
oracle

>  <origin>  (32) 
adgpu

>  <m_score__min__energy>  (32) 
-12.140000000000001

>  <m_primary>  (32) 
energy

$$$$
32:0
     RDKit          3D

 60 63  0  0  0  0  0  0  0  0999 V2000
   -5.1340   17.7690  -35.0200 C   0  0  0  0  0  0  0  0  0  0  0  0
   -5.5830   18.5690  -33.8330 C   0  0  0  0  0  0  0  0  0  0  0  0
   -6.8490   18.3500  -33.2700 C   0  0  0  0  0  0  0  0  0  0  0  0
   -7.2820   19.1130  -32.1750 C   0  0  0  0  0  0  0  0  0  0  0  0
   -8.6500   18.8940  -31.5990 C   0  0  0  0  0  0  0  0  0  0  0  0
   -6.4570   20.1290  -31.6690 C   0  0  0  0  0  0  0  0  0  0  0  0
   -5.1970   20.3650  -32.2370 C   0  0  0  0  0  0  0  0  0  0  0  0
   -4.1460   21.6300  -31.6030 S   0  0  0  0  0  0  0  0  0  0  0  0
   -3.2230   22.1250  -32.6810 O   0  0  0  0  0  0  0  0  0  0  0  0
   -3.3330   21.0260  -30.4930 O   0  0  0  0  0  0  0  0  0  0  0  0
   -5.1320   22.9860  -31.0220 C   0  0  0  0  0  0  0  0  0  0  0  0
   -6.3980   23.1700  -31.6010 C   0  0  0  0  0  0  0  0  0  0  0  0
   -7.2620   24.1580  -31.1290 C   0  0  0  0  0  0  0  0  0  0  0  0
   -6.8760   24.9750  -30.0690 C   0  0  0  0  0  0  0  0  0  0  0  0
   -5.6150   24.8210  -29.4920 C   0  0  0  0  0  0  0  0  0  0  0  0
   -4.7200   23.8510  -29.9750 C   0  0  0  0  0  0  0  0  0  0  0  0
   -3.3640   23.8130  -29.3890 C   0  0  0  0  0  0  0  0  0  0  0  0
   -2.9950   22.7800  -28.7710 O   0  0  0  0  0  0  0  0  0  0  0  0
   -2.4470   24.9120  -29.5040 N   0  0  0  0  0  0  0  0  0  0  0  0
   -1.3140   25.1880  -28.6670 C   0  0  0  0  0  0  0  0  0  0  0  0
   -0.3700   24.1750  -28.4570 C   0  0  0  0  0  0  0  0  0  0  0  0
    0.7520   24.4100  -27.6580 C   0  0  0  0  0  0  0  0  0  0  0  0
    0.9330   25.6550  -27.0520 C   0  0  0  0  0  0  0  0  0  0  0  0
   -0.0210   26.6670  -27.2250 C   0  0  0  0  0  0  0  0  0  0  0  0
    0.1870   28.2350  -26.4450 S   0  0  0  0  0  0  0  0  0  0  0  0
   -0.5240   29.2830  -27.2550 O   0  0  0  0  0  0  0  0  0  0  0  0
    1.6500   28.5840  -26.4210 O   0  0  0  0  0  0  0  0  0  0  0  0
   -0.4340   28.2420  -24.8070 N   0  0  0  0  0  0  0  0  0  0  0  0
   -1.2400   27.0460  -24.5270 C   0  0  0  0  0  0  0  0  0  0  0  0
   -0.3550   26.0420  -23.7990 C   0  0  0  0  0  0  0  0  0  0  0  0
    0.8760   26.8140  -23.3610 C   0  0  0  0  0  0  0  0  0  0  0  0
    0.6530   28.2490  -23.8190 C   0  0  0  0  0  0  0  0  0  0  0  0
   -1.1480   26.4250  -28.0210 C   0  0  0  0  0  0  0  0  0  0  0  0
   -4.7670   19.5900  -33.3220 C   0  0  0  0  0  0  0  0  0  0  0  0
   -4.6226   16.8579  -34.6759 H   0  0  0  0  0  0  0  0  0  0  0  0
   -6.0083   17.4917  -35.6272 H   0  0  0  0  0  0  0  0  0  0  0  0
   -4.4418   18.3708  -35.6272 H   0  0  0  0  0  0  0  0  0  0  0  0
   -7.5068   17.5748  -33.6899 H   0  0  0  0  0  0  0  0  0  0  0  0
   -8.5912   18.9034  -30.5006 H   0  0  0  0  0  0  0  0  0  0  0  0
   -9.3229   19.6959  -31.9370 H   0  0  0  0  0  0  0  0  0  0  0  0
   -9.0389   17.9222  -31.9370 H   0  0  0  0  0  0  0  0  0  0  0  0
   -6.8002   20.7429  -30.8232 H   0  0  0  0  0  0  0  0  0  0  0  0
   -6.7120   22.5273  -32.4367 H   0  0  0  0  0  0  0  0  0  0  0  0
   -8.2496   24.2922  -31.5945 H   0  0  0  0  0  0  0  0  0  0  0  0
   -7.5656   25.7420  -29.6866 H   0  0  0  0  0  0  0  0  0  0  0  0
   -5.3185   25.4650  -28.6510 H   0  0  0  0  0  0  0  0  0  0  0  0
   -0.5126   23.1891  -28.9235 H   0  0  0  0  0  0  0  0  0  0  0  0
    1.4943   23.6126  -27.5060 H   0  0  0  0  0  0  0  0  0  0  0  0
    1.8261   25.8418  -26.4376 H   0  0  0  0  0  0  0  0  0  0  0  0
   -1.0220   29.1020  -24.6930 H   0  0  0  0  0  0  0  0  0  0  0  0
   -2.0988   27.3143  -23.8942 H   0  0  0  0  0  0  0  0  0  0  0  0
   -1.6189   26.6124  -25.4642 H   0  0  0  0  0  0  0  0  0  0  0  0
   -0.8809   25.6320  -22.9242 H   0  0  0  0  0  0  0  0  0  0  0  0
   -0.0903   25.1929  -24.4463 H   0  0  0  0  0  0  0  0  0  0  0  0
    0.9838   26.7738  -22.2670 H   0  0  0  0  0  0  0  0  0  0  0  0
    1.7941   26.3898  -23.7937 H   0  0  0  0  0  0  0  0  0  0  0  0
    0.3736   28.8767  -22.9600 H   0  0  0  0  0  0  0  0  0  0  0  0
    1.5727   28.6576  -24.2630 H   0  0  0  0  0  0  0  0  0  0  0  0
   -1.9094   27.2097  -28.1414 H   0  0  0  0  0  0  0  0  0  0  0  0
   -3.7839   19.7830  -33.7761 H   0  0  0  0  0  0  0  0  0  0  0  0
  1  2  1  0
  2  3  2  0
  3  4  1  0
  4  5  1  0
  4  6  2  0
  6  7  1  0
  7  8  1  0
  8  9  2  0
  8 10  2  0
  8 11  1  0
 11 12  2  0
 12 13  1  0
 13 14  2  0
 14 15  1  0
 15 16  2  0
 16 17  1  0
 17 18  2  0
 17 19  1  0
 19 20  1  0
 20 21  2  0
 21 22  1  0
 22 23  2  0
 23 24  1  0
 24 25  1  0
 25 26  2  0
 25 27  2  0
 25 28  1  0
 28 29  1  0
 29 30  1  0
 30 31  1  0
 31 32  1  0
 24 33  2  0
  7 34  2  0
 34  2  1  0
 16 11  1  0
 33 20  1  0
 32 28  1  0
  1 35  1  0
  1 36  1  0
  1 37  1  0
  3 38  1  0
  5 39  1  0
  5 40  1  0
  5 41  1  0
  6 42  1  0
 12 43  1  0
 13 44  1  0
 14 45  1  0
 15 46  1  0
 21 47  1  0
 22 48  1  0
 23 49  1  0
 28 50  1  0
 29 51  1  0
 29 52  1  0
 30 53  1  0
 30 54  1  0
 31 55  1  0
 31 56  1  0
 32 57  1  0
 32 58  1  0
 33 59  1  0
 34 60  1  0
M  CHG  2  19  -1  28   1
M  END
>  <UniqueID>  (33) 
32

>  <SMILES>  (33) 
Cc1cc(C)cc(S(=O)(=O)c2ccccc2C(=O)[N-]c2cccc(S(=O)(=O)[NH+]3CCCC3)c2)c1

>  <Energy>  (33) 
73.4343512428049

>  <Genealogy>  (33) 
Cc1cc(C)cc(S(=O)(=O)c2ccccc2C(=O)[N-]c2cccc(S(=O)(=O)[NH+]3CCCC3)c2)c1 (protonated)
Cc1cc(C)cc(S(=O)(=O)c2ccccc2C(=O)[N-]c2cccc(S(=O)(=O)[NH+]3CCCC3)c2)c1 (3D coordinates assigned)
Cc1cc(C)cc(S(=O)(=O)c2ccccc2C(=O)[N-]c2cccc(S(=O)(=O)[NH+]3CCCC3)c2)c1 (nonaromatic ring conformer: 73.4343512428049 kcal/mol)

>  <smiles>  (33) 
Cc1cc(C)cc(S(=O)(=O)c2ccccc2C(=O)Nc2cccc(S(=O)(=O)N3CCCC3)c2)c1

>  <score_type>  (33) 
oracle

>  <origin>  (33) 
adgpu

>  <m_score__min__energy>  (33) 
-12.550000000000001

>  <m_primary>  (33) 
energy

$$$$
33:0
     RDKit          3D

 70 74  0  0  0  0  0  0  0  0999 V2000
   -6.5040   25.6710  -29.4300 C   0  0  0  0  0  0  0  0  0  0  0  0
   -5.6270   24.7240  -30.1390 N   0  0  0  0  0  0  0  0  0  0  0  0
   -5.9320   24.6570  -31.5900 C   0  0  0  0  0  0  0  0  0  0  0  0
   -6.8730   23.4910  -31.9580 C   0  0  0  0  0  0  0  0  0  0  0  0
   -7.7390   23.1610  -30.8190 N   0  0  0  0  0  0  0  0  0  0  0  0
   -8.9510   22.0080  -31.3090 S   0  0  0  0  0  0  0  0  0  0  0  0
   -9.7120   22.5260  -32.4990 O   0  0  0  0  0  0  0  0  0  0  0  0
   -9.9130   21.7670  -30.1780 O   0  0  0  0  0  0  0  0  0  0  0  0
   -8.1400   20.5130  -31.7590 C   0  0  0  0  0  0  0  0  0  0  0  0
   -8.8120   19.2810  -31.7070 C   0  0  0  0  0  0  0  0  0  0  0  0
   -8.1280   18.0970  -31.9920 C   0  0  0  0  0  0  0  0  0  0  0  0
   -6.7700   18.1330  -32.3250 C   0  0  0  0  0  0  0  0  0  0  0  0
   -6.0940   19.3610  -32.3870 C   0  0  0  0  0  0  0  0  0  0  0  0
   -4.3740   19.4180  -32.7550 S   0  0  0  0  0  0  0  0  0  0  0  0
   -3.7450   18.0820  -32.4730 O   0  0  0  0  0  0  0  0  0  0  0  0
   -4.1770   19.7290  -34.2120 O   0  0  0  0  0  0  0  0  0  0  0  0
   -3.6190   20.6630  -31.7670 C   0  0  0  0  0  0  0  0  0  0  0  0
   -3.7750   22.0120  -32.1010 C   0  0  0  0  0  0  0  0  0  0  0  0
   -3.1990   23.0060  -31.3090 C   0  0  0  0  0  0  0  0  0  0  0  0
   -2.4560   22.6720  -30.1650 C   0  0  0  0  0  0  0  0  0  0  0  0
   -1.7990   23.9870  -29.1650 S   0  0  0  0  0  0  0  0  0  0  0  0
   -0.4550   24.4140  -29.6770 O   0  0  0  0  0  0  0  0  0  0  0  0
   -2.7210   25.1710  -29.2720 O   0  0  0  0  0  0  0  0  0  0  0  0
   -1.6290   23.5410  -27.4830 N   0  0  0  0  0  0  0  0  0  0  0  0
   -1.9520   24.6400  -26.5800 C   0  0  0  0  0  0  0  0  0  0  0  0
   -1.2460   24.3210  -25.2810 C   0  0  0  0  0  0  0  0  0  0  0  0
    0.0030   23.5740  -25.7120 C   0  0  0  0  0  0  0  0  0  0  0  0
   -0.2670   23.1200  -27.1430 C   0  0  0  0  0  0  0  0  0  0  0  0
   -2.2880   21.3070  -29.8310 C   0  0  0  0  0  0  0  0  0  0  0  0
   -1.5050   20.9040  -28.7010 N   0  0  0  0  0  0  0  0  0  0  0  0
   -0.1590   20.3420  -28.8300 C   0  0  0  0  0  0  0  0  0  0  0  0
    0.1280   19.6110  -27.4980 C   0  0  0  0  0  0  0  0  0  0  0  0
   -1.1300   19.6150  -26.7680 N   0  0  0  0  0  0  0  0  0  0  0  0
   -2.0570   20.3670  -27.5150 C   0  0  0  0  0  0  0  0  0  0  0  0
   -3.2640   20.5020  -27.1780 O   0  0  0  0  0  0  0  0  0  0  0  0
   -2.8800   20.3170  -30.6310 C   0  0  0  0  0  0  0  0  0  0  0  0
   -6.7830   20.5490  -32.1030 C   0  0  0  0  0  0  0  0  0  0  0  0
   -6.9470   22.6240  -29.6970 C   0  0  0  0  0  0  0  0  0  0  0  0
   -5.6160   23.3890  -29.5060 C   0  0  0  0  0  0  0  0  0  0  0  0
   -6.3831   25.5404  -28.3445 H   0  0  0  0  0  0  0  0  0  0  0  0
   -6.2330   26.7002  -29.7080 H   0  0  0  0  0  0  0  0  0  0  0  0
   -7.5510   25.4797  -29.7080 H   0  0  0  0  0  0  0  0  0  0  0  0
   -6.4100   25.6009  -31.8911 H   0  0  0  0  0  0  0  0  0  0  0  0
   -4.9813   24.4899  -32.1174 H   0  0  0  0  0  0  0  0  0  0  0  0
   -7.4963   23.7837  -32.8158 H   0  0  0  0  0  0  0  0  0  0  0  0
   -6.2685   22.6093  -32.2172 H   0  0  0  0  0  0  0  0  0  0  0  0
   -9.8789   19.2484  -31.4414 H   0  0  0  0  0  0  0  0  0  0  0  0
   -8.6585   17.1341  -31.9545 H   0  0  0  0  0  0  0  0  0  0  0  0
   -6.2315   17.1979  -32.5385 H   0  0  0  0  0  0  0  0  0  0  0  0
   -4.3550   22.2911  -32.9930 H   0  0  0  0  0  0  0  0  0  0  0  0
   -3.3284   24.0632  -31.5838 H   0  0  0  0  0  0  0  0  0  0  0  0
   -1.5883   25.5936  -26.9904 H   0  0  0  0  0  0  0  0  0  0  0  0
   -3.0378   24.7439  -26.4379 H   0  0  0  0  0  0  0  0  0  0  0  0
   -0.9830   25.2436  -24.7428 H   0  0  0  0  0  0  0  0  0  0  0  0
   -1.8725   23.7342  -24.5931 H   0  0  0  0  0  0  0  0  0  0  0  0
    0.8791   24.2383  -25.6783 H   0  0  0  0  0  0  0  0  0  0  0  0
    0.2196   22.7240  -25.0482 H   0  0  0  0  0  0  0  0  0  0  0  0
    0.4542   23.5881  -27.8291 H   0  0  0  0  0  0  0  0  0  0  0  0
   -0.1626   22.0286  -27.2320 H   0  0  0  0  0  0  0  0  0  0  0  0
   -0.1197   19.6337  -29.6707 H   0  0  0  0  0  0  0  0  0  0  0  0
    0.5872   21.1256  -29.0281 H   0  0  0  0  0  0  0  0  0  0  0  0
    0.4568   18.5790  -27.6900 H   0  0  0  0  0  0  0  0  0  0  0  0
    0.9295   20.1044  -26.9286 H   0  0  0  0  0  0  0  0  0  0  0  0
   -1.3120   19.1470  -25.8550 H   0  0  0  0  0  0  0  0  0  0  0  0
   -2.7614   19.2572  -30.3614 H   0  0  0  0  0  0  0  0  0  0  0  0
   -6.2554   21.5130  -32.1506 H   0  0  0  0  0  0  0  0  0  0  0  0
   -7.5390   22.7061  -28.7736 H   0  0  0  0  0  0  0  0  0  0  0  0
   -6.7055   21.5752  -29.9241 H   0  0  0  0  0  0  0  0  0  0  0  0
   -5.4331   23.5125  -28.4284 H   0  0  0  0  0  0  0  0  0  0  0  0
   -4.8230   22.7997  -29.9896 H   0  0  0  0  0  0  0  0  0  0  0  0
  1  2  1  0
  2  3  1  0
  3  4  1  0
  4  5  1  0
  5  6  1  0
  6  7  2  0
  6  8  2  0
  6  9  1  0
  9 10  2  0
 10 11  1  0
 11 12  2  0
 12 13  1  0
 13 14  1  0
 14 15  2  0
 14 16  2  0
 14 17  1  0
 17 18  2  0
 18 19  1  0
 19 20  2  0
 20 21  1  0
 21 22  2  0
 21 23  2  0
 21 24  1  0
 24 25  1  0
 25 26  1  0
 26 27  1  0
 27 28  1  0
 20 29  1  0
 29 30  1  0
 30 31  1  0
 31 32  1  0
 32 33  1  0
 33 34  1  0
 34 35  2  0
 29 36  2  0
 13 37  2  0
  5 38  1  0
 38 39  1  0
 39  2  1  0
 37  9  1  0
 36 17  1  0
 28 24  1  0
 34 30  1  0
  1 40  1  0
  1 41  1  0
  1 42  1  0
  3 43  1  0
  3 44  1  0
  4 45  1  0
  4 46  1  0
 10 47  1  0
 11 48  1  0
 12 49  1  0
 18 50  1  0
 19 51  1  0
 25 52  1  0
 25 53  1  0
 26 54  1  0
 26 55  1  0
 27 56  1  0
 27 57  1  0
 28 58  1  0
 28 59  1  0
 31 60  1  0
 31 61  1  0
 32 62  1  0
 32 63  1  0
 33 64  1  0
 36 65  1  0
 37 66  1  0
 38 67  1  0
 38 68  1  0
 39 69  1  0
 39 70  1  0
M  END
>  <UniqueID>  (34) 
33

>  <SMILES>  (34) 
CN1CCN(S(=O)(=O)c2cccc(S(=O)(=O)c3ccc(S(=O)(=O)N4CCCC4)c(N4CCNC4=O)c3)c2)CC1

>  <Energy>  (34) 
103.16106255125467

>  <Genealogy>  (34) 
CN1CCN(S(=O)(=O)c2cccc(S(=O)(=O)c3ccc(S(=O)(=O)N4CCCC4)c(N4CCNC4=O)c3)c2)CC1 (3D coordinates assigned)
CN1CCN(S(=O)(=O)c2cccc(S(=O)(=O)c3ccc(S(=O)(=O)N4CCCC4)c(N4CCNC4=O)c3)c2)CC1 (nonaromatic ring conformer: 103.16106255125467 kcal/mol)

>  <smiles>  (34) 
CN1CCN(S(=O)(=O)c2cccc(S(=O)(=O)c3ccc(S(=O)(=O)N4CCCC4)c(N4CCNC4=O)c3)c2)CC1

>  <score_type>  (34) 
oracle

>  <origin>  (34) 
adgpu

>  <m_score__min__energy>  (34) 
-11.92

>  <m_primary>  (34) 
energy

$$$$
34:0
     RDKit          3D

 35 38  0  0  0  0  0  0  0  0999 V2000
   -2.1710   21.9200  -34.2520 H   0  0  0  0  0  0  0  0  0  0  0  0
   -2.6390   21.4860  -33.4650 O   0  0  0  0  0  0  0  0  0  0  0  0
   -2.0390   21.4130  -32.2090 C   0  0  0  0  0  0  0  0  0  0  0  0
   -1.0620   20.4510  -31.9450 C   0  0  0  0  0  0  0  0  0  0  0  0
   -0.8010   19.7069  -32.7120 H   0  0  0  0  0  0  0  0  0  0  0  0
   -0.4180   20.4340  -30.7100 C   0  0  0  0  0  0  0  0  0  0  0  0
    0.3767   19.6984  -30.5167 H   0  0  0  0  0  0  0  0  0  0  0  0
   -0.7780   21.3490  -29.7140 C   0  0  0  0  0  0  0  0  0  0  0  0
   -0.0470   21.3930  -28.5720 N   0  0  0  0  0  0  0  0  0  0  0  0
   -0.2890   22.2960  -27.5940 C   0  0  0  0  0  0  0  0  0  0  0  0
    0.5320   22.3170  -26.4600 C   0  0  0  0  0  0  0  0  0  0  0  0
    1.3683   21.6074  -26.3762 H   0  0  0  0  0  0  0  0  0  0  0  0
    0.2940   23.2340  -25.4360 C   0  0  0  0  0  0  0  0  0  0  0  0
    0.9463   23.2502  -24.5504 H   0  0  0  0  0  0  0  0  0  0  0  0
   -0.7710   24.1310  -25.5340 C   0  0  0  0  0  0  0  0  0  0  0  0
   -0.9560   24.8532  -24.7252 H   0  0  0  0  0  0  0  0  0  0  0  0
   -1.6030   24.1140  -26.6570 C   0  0  0  0  0  0  0  0  0  0  0  0
   -2.4452   24.8185  -26.7226 H   0  0  0  0  0  0  0  0  0  0  0  0
   -1.3710   23.1990  -27.7090 C   0  0  0  0  0  0  0  0  0  0  0  0
   -2.2230   23.1230  -28.8390 C   0  0  0  0  0  0  0  0  0  0  0  0
   -3.3350   23.8200  -28.8050 N   0  0  0  0  0  0  0  0  0  0  0  0
   -4.5260   23.7120  -29.5960 C   0  0  0  0  0  0  0  0  0  0  0  0
   -5.4920   22.7300  -29.3090 C   0  0  0  0  0  0  0  0  0  0  0  0
   -5.3151   22.0067  -28.4993 H   0  0  0  0  0  0  0  0  0  0  0  0
   -6.6760   22.6710  -30.0500 C   0  0  0  0  0  0  0  0  0  0  0  0
   -7.4186   21.8878  -29.8377 H   0  0  0  0  0  0  0  0  0  0  0  0
   -6.9170   23.6060  -31.0600 C   0  0  0  0  0  0  0  0  0  0  0  0
   -7.8450   23.5534  -31.6482 H   0  0  0  0  0  0  0  0  0  0  0  0
   -5.9780   24.6090  -31.3230 C   0  0  0  0  0  0  0  0  0  0  0  0
   -6.1739   25.3513  -32.1108 H   0  0  0  0  0  0  0  0  0  0  0  0
   -4.7900   24.6700  -30.5860 C   0  0  0  0  0  0  0  0  0  0  0  0
   -3.8700   25.6790  -30.8470 O   0  0  0  0  0  0  0  0  0  0  0  0
   -1.8510   22.2560  -29.9170 C   0  0  0  0  0  0  0  0  0  0  0  0
   -2.4130   22.3220  -31.2140 C   0  0  0  0  0  0  0  0  0  0  0  0
   -3.1556   23.1004  -31.4433 H   0  0  0  0  0  0  0  0  0  0  0  0
  1  2  1  0
  2  3  1  0
  3  4  2  0
  4  5  1  0
  4  6  1  0
  6  7  1  0
  6  8  2  0
  8  9  1  0
  9 10  1  0
 10 11  2  0
 11 12  1  0
 11 13  1  0
 13 14  1  0
 13 15  2  0
 15 16  1  0
 15 17  1  0
 17 18  1  0
 17 19  2  0
 19 20  1  0
 20 21  2  0
 21 22  1  0
 22 23  2  0
 23 24  1  0
 23 25  1  0
 25 26  1  0
 25 27  2  0
 27 28  1  0
 27 29  1  0
 29 30  1  0
 29 31  2  0
 31 32  1  0
 20 33  1  0
 33 34  2  0
 34 35  1  0
 34  3  1  0
 33  8  1  0
 19 10  1  0
 31 22  1  0
M  CHG  2   9  -1  32  -1
M  END
>  <UniqueID>  (35) 
34

>  <SMILES>  (35) 
[O-]c1ccccc1/N=c1/c2ccccc2[n-]c2ccc(O)cc12

>  <Energy>  (35) 
68.27634990245733

>  <Genealogy>  (35) 
[O-]c1ccccc1N=c1c2ccccc2[n-]c2ccc(O)cc12 (protonated)
[O-]c1ccccc1/N=c1/c2ccccc2[n-]c2ccc(O)cc12 (cis-trans isomerization)
[O-]c1ccccc1/N=c1/c2ccccc2[n-]c2ccc(O)cc12 (3D coordinates assigned)
[O-]c1ccccc1/N=c1/c2ccccc2[n-]c2ccc(O)cc12 (optimized conformer: 68.27634990245733 kcal/mol)

>  <smiles>  (35) 
Oc1ccc2[nH]c3ccccc3c(=Nc3ccccc3O)c2c1

>  <score_type>  (35) 
oracle

>  <origin>  (35) 
adgpu

>  <m_score__min__energy>  (35) 
-10.300000000000001

>  <m_primary>  (35) 
energy

$$$$
35:0
     RDKit          3D

 59 62  0  0  0  0  0  0  0  0999 V2000
   -3.7980   20.4070  -29.8480 O   0  0  0  0  0  0  0  0  0  0  0  0
   -2.8180   21.1270  -30.1830 C   0  0  0  0  0  0  0  0  0  0  0  0
   -3.0440   22.4710  -30.6440 N   0  0  0  0  0  0  0  0  0  0  0  0
   -4.3560   23.0470  -30.7490 C   0  0  0  0  0  0  0  0  0  0  0  0
   -5.4640   22.1990  -30.8860 C   0  0  0  0  0  0  0  0  0  0  0  0
   -6.7570   22.7310  -30.9860 C   0  0  0  0  0  0  0  0  0  0  0  0
   -8.1410   21.6640  -31.2090 S   0  0  0  0  0  0  0  0  0  0  0  0
   -8.9060   22.0930  -32.4310 O   0  0  0  0  0  0  0  0  0  0  0  0
   -9.0520   21.7610  -30.0170 O   0  0  0  0  0  0  0  0  0  0  0  0
   -7.5770   20.0260  -31.4220 N   0  0  0  0  0  0  0  0  0  0  0  0
   -8.6930   19.0970  -31.5970 C   0  0  0  0  0  0  0  0  0  0  0  0
   -8.1600   17.9290  -32.4090 C   0  0  0  0  0  0  0  0  0  0  0  0
   -6.9090   18.4530  -33.0980 C   0  0  0  0  0  0  0  0  0  0  0  0
   -6.7690   19.8960  -32.6340 C   0  0  0  0  0  0  0  0  0  0  0  0
   -6.9420   24.1190  -30.9430 C   0  0  0  0  0  0  0  0  0  0  0  0
   -5.8440   24.9670  -30.7760 C   0  0  0  0  0  0  0  0  0  0  0  0
   -4.5540   24.4380  -30.6650 C   0  0  0  0  0  0  0  0  0  0  0  0
   -3.4830   25.2980  -30.4490 O   0  0  0  0  0  0  0  0  0  0  0  0
   -1.4490   20.5650  -30.0880 C   0  0  0  0  0  0  0  0  0  0  0  0
   -0.7750   20.1730  -31.2580 C   0  0  0  0  0  0  0  0  0  0  0  0
    0.5120   19.6310  -31.1900 C   0  0  0  0  0  0  0  0  0  0  0  0
    1.1410   19.4590  -29.9510 C   0  0  0  0  0  0  0  0  0  0  0  0
    2.7550   18.7470  -29.8630 S   0  0  0  0  0  0  0  0  0  0  0  0
    3.3460   18.6880  -31.2440 O   0  0  0  0  0  0  0  0  0  0  0  0
    3.6360   19.6220  -29.0160 O   0  0  0  0  0  0  0  0  0  0  0  0
    2.7080   17.1350  -29.1850 N   0  0  0  0  0  0  0  0  0  0  0  0
    1.3300   16.5810  -29.1870 C   0  0  0  0  0  0  0  0  0  0  0  0
    0.6700   16.6140  -27.8000 C   0  0  0  0  0  0  0  0  0  0  0  0
    1.4980   15.8260  -26.7710 C   0  0  0  0  0  0  0  0  0  0  0  0
    3.0090   15.8580  -27.0720 C   0  0  0  0  0  0  0  0  0  0  0  0
    3.3840   17.1100  -27.8700 C   0  0  0  0  0  0  0  0  0  0  0  0
    0.4740   19.8450  -28.7810 C   0  0  0  0  0  0  0  0  0  0  0  0
   -0.8120   20.3880  -28.8460 C   0  0  0  0  0  0  0  0  0  0  0  0
   -2.2340   23.1040  -30.8180 H   0  0  0  0  0  0  0  0  0  0  0  0
   -5.3177   21.1092  -30.9152 H   0  0  0  0  0  0  0  0  0  0  0  0
   -9.0525   18.7465  -30.6183 H   0  0  0  0  0  0  0  0  0  0  0  0
   -9.5381   19.5826  -32.1069 H   0  0  0  0  0  0  0  0  0  0  0  0
   -7.9111   17.0840  -31.7501 H   0  0  0  0  0  0  0  0  0  0  0  0
   -8.9022   17.5618  -33.1330 H   0  0  0  0  0  0  0  0  0  0  0  0
   -6.0291   17.8649  -32.7982 H   0  0  0  0  0  0  0  0  0  0  0  0
   -6.9829   18.3798  -34.1931 H   0  0  0  0  0  0  0  0  0  0  0  0
   -5.7155   20.1233  -32.4139 H   0  0  0  0  0  0  0  0  0  0  0  0
   -7.1056   20.5970  -33.4120 H   0  0  0  0  0  0  0  0  0  0  0  0
   -7.9528   24.5418  -31.0408 H   0  0  0  0  0  0  0  0  0  0  0  0
   -5.9949   26.0557  -30.7316 H   0  0  0  0  0  0  0  0  0  0  0  0
   -1.2646   20.2938  -32.2356 H   0  0  0  0  0  0  0  0  0  0  0  0
    1.0326   19.3385  -32.1138 H   0  0  0  0  0  0  0  0  0  0  0  0
    0.7153   17.1716  -29.8823 H   0  0  0  0  0  0  0  0  0  0  0  0
    1.3985   15.5272  -29.4948 H   0  0  0  0  0  0  0  0  0  0  0  0
    0.5854   17.6592  -27.4677 H   0  0  0  0  0  0  0  0  0  0  0  0
   -0.3242   16.1495  -27.8763 H   0  0  0  0  0  0  0  0  0  0  0  0
    1.3284   16.2616  -25.7753 H   0  0  0  0  0  0  0  0  0  0  0  0
    1.1726   14.7762  -26.8171 H   0  0  0  0  0  0  0  0  0  0  0  0
    3.5648   15.8567  -26.1228 H   0  0  0  0  0  0  0  0  0  0  0  0
    3.2656   14.9715  -27.6705 H   0  0  0  0  0  0  0  0  0  0  0  0
    3.0867   18.0013  -27.2979 H   0  0  0  0  0  0  0  0  0  0  0  0
    4.4708   17.0993  -28.0399 H   0  0  0  0  0  0  0  0  0  0  0  0
    0.9657   19.7199  -27.8050 H   0  0  0  0  0  0  0  0  0  0  0  0
   -1.3297   20.6790  -27.9201 H   0  0  0  0  0  0  0  0  0  0  0  0
  1  2  2  0
  2  3  1  0
  3  4  1  0
  4  5  2  0
  5  6  1  0
  6  7  1  0
  7  8  2  0
  7  9  2  0
  7 10  1  0
 10 11  1  0
 11 12  1  0
 12 13  1  0
 13 14  1  0
  6 15  2  0
 15 16  1  0
 16 17  2  0
 17 18  1  0
  2 19  1  0
 19 20  2  0
 20 21  1  0
 21 22  2  0
 22 23  1  0
 23 24  2  0
 23 25  2  0
 23 26  1  0
 26 27  1  0
 27 28  1  0
 28 29  1  0
 29 30  1  0
 30 31  1  0
 22 32  1  0
 32 33  2  0
 17  4  1  0
 33 19  1  0
 14 10  1  0
 31 26  1  0
  3 34  1  0
  5 35  1  0
 11 36  1  0
 11 37  1  0
 12 38  1  0
 12 39  1  0
 13 40  1  0
 13 41  1  0
 14 42  1  0
 14 43  1  0
 15 44  1  0
 16 45  1  0
 20 46  1  0
 21 47  1  0
 27 48  1  0
 27 49  1  0
 28 50  1  0
 28 51  1  0
 29 52  1  0
 29 53  1  0
 30 54  1  0
 30 55  1  0
 31 56  1  0
 31 57  1  0
 32 58  1  0
 33 59  1  0
M  CHG  1  18  -1
M  END
>  <UniqueID>  (36) 
35

>  <SMILES>  (36) 
O=C(Nc1cc(S(=O)(=O)N2CCCC2)ccc1[O-])c1ccc(S(=O)(=O)N2CCCCC2)cc1

>  <Energy>  (36) 
74.37819557605724

>  <Genealogy>  (36) 
O=C(Nc1cc(S(=O)(=O)N2CCCC2)ccc1[O-])c1ccc(S(=O)(=O)N2CCCCC2)cc1 (protonated)
O=C(Nc1cc(S(=O)(=O)N2CCCC2)ccc1[O-])c1ccc(S(=O)(=O)N2CCCCC2)cc1 (3D coordinates assigned)
O=C(Nc1cc(S(=O)(=O)N2CCCC2)ccc1[O-])c1ccc(S(=O)(=O)N2CCCCC2)cc1 (nonaromatic ring conformer: 74.37819557605724 kcal/mol)

>  <smiles>  (36) 
O=C(Nc1cc(S(=O)(=O)N2CCCC2)ccc1O)c1ccc(S(=O)(=O)N2CCCCC2)cc1

>  <score_type>  (36) 
oracle

>  <origin>  (36) 
adgpu

>  <m_score__min__energy>  (36) 
-12.390000000000001

>  <m_primary>  (36) 
energy

$$$$
36:0
     RDKit          3D

 56 59  0  0  0  0  0  0  0  0999 V2000
   -1.7740   25.6880  -28.7150 O   0  0  0  0  0  0  0  0  0  0  0  0
   -2.4310   24.8160  -29.3450 C   0  0  0  0  0  0  0  0  0  0  0  0
   -3.4930   25.2210  -30.2180 N   0  0  0  0  0  0  0  0  0  0  0  0
   -4.6740   24.4670  -30.5300 C   0  0  0  0  0  0  0  0  0  0  0  0
   -5.8500   24.7360  -29.8210 C   0  0  0  0  0  0  0  0  0  0  0  0
   -7.0230   24.0270  -30.0990 C   0  0  0  0  0  0  0  0  0  0  0  0
   -7.0350   23.0450  -31.1000 C   0  0  0  0  0  0  0  0  0  0  0  0
   -8.5150   22.1430  -31.4450 S   0  0  0  0  0  0  0  0  0  0  0  0
   -9.2510   21.8990  -30.1580 O   0  0  0  0  0  0  0  0  0  0  0  0
   -9.3980   22.9730  -32.3350 O   0  0  0  0  0  0  0  0  0  0  0  0
   -8.2060   20.6090  -32.2220 N   0  0  0  0  0  0  0  0  0  0  0  0
   -9.3590   19.7160  -32.1450 C   0  0  0  0  0  0  0  0  0  0  0  0
   -8.8110   18.3060  -32.2710 C   0  0  0  0  0  0  0  0  0  0  0  0
   -7.3660   18.4000  -31.8070 C   0  0  0  0  0  0  0  0  0  0  0  0
   -7.1000   19.8850  -31.5950 C   0  0  0  0  0  0  0  0  0  0  0  0
   -5.8690   22.8040  -31.8390 C   0  0  0  0  0  0  0  0  0  0  0  0
   -4.6960   23.5100  -31.5600 C   0  0  0  0  0  0  0  0  0  0  0  0
   -2.0510   23.3810  -29.2270 C   0  0  0  0  0  0  0  0  0  0  0  0
   -1.9960   22.5860  -30.3890 C   0  0  0  0  0  0  0  0  0  0  0  0
   -1.6490   21.2310  -30.3180 C   0  0  0  0  0  0  0  0  0  0  0  0
   -1.6000   20.2320  -31.7680 S   0  0  0  0  0  0  0  0  0  0  0  0
   -1.0100   21.0120  -32.9130 O   0  0  0  0  0  0  0  0  0  0  0  0
   -0.7390   19.0290  -31.5020 O   0  0  0  0  0  0  0  0  0  0  0  0
   -3.2200   19.7160  -32.1660 N   0  0  0  0  0  0  0  0  0  0  0  0
   -3.8890   20.6910  -33.0250 C   0  0  0  0  0  0  0  0  0  0  0  0
   -4.9290   19.9210  -33.8210 C   0  0  0  0  0  0  0  0  0  0  0  0
   -4.4610   18.4740  -33.7970 C   0  0  0  0  0  0  0  0  0  0  0  0
   -3.2110   18.4660  -32.9270 C   0  0  0  0  0  0  0  0  0  0  0  0
   -1.3430   20.6590  -29.0810 C   0  0  0  0  0  0  0  0  0  0  0  0
   -1.3890   21.4320  -27.9200 C   0  0  0  0  0  0  0  0  0  0  0  0
   -1.7370   22.7890  -27.9800 C   0  0  0  0  0  0  0  0  0  0  0  0
   -1.7590   23.5370  -26.8040 O   0  0  0  0  0  0  0  0  0  0  0  0
   -5.8519   25.5103  -29.0397 H   0  0  0  0  0  0  0  0  0  0  0  0
   -7.9399   24.2405  -29.5301 H   0  0  0  0  0  0  0  0  0  0  0  0
   -9.8740   19.8403  -31.1810 H   0  0  0  0  0  0  0  0  0  0  0  0
  -10.0894   19.9348  -32.9379 H   0  0  0  0  0  0  0  0  0  0  0  0
   -9.3776   17.6129  -31.6318 H   0  0  0  0  0  0  0  0  0  0  0  0
   -8.8897   17.9235  -33.2993 H   0  0  0  0  0  0  0  0  0  0  0  0
   -7.2280   17.8470  -30.8662 H   0  0  0  0  0  0  0  0  0  0  0  0
   -6.6733   17.9630  -32.5413 H   0  0  0  0  0  0  0  0  0  0  0  0
   -7.0606   20.1124  -30.5195 H   0  0  0  0  0  0  0  0  0  0  0  0
   -6.1364   20.1792  -32.0366 H   0  0  0  0  0  0  0  0  0  0  0  0
   -5.8773   22.0542  -32.6439 H   0  0  0  0  0  0  0  0  0  0  0  0
   -3.7867   23.3165  -32.1480 H   0  0  0  0  0  0  0  0  0  0  0  0
   -2.2288   23.0358  -31.3654 H   0  0  0  0  0  0  0  0  0  0  0  0
   -4.3750   21.4659  -32.4139 H   0  0  0  0  0  0  0  0  0  0  0  0
   -3.1716   21.1948  -33.6895 H   0  0  0  0  0  0  0  0  0  0  0  0
   -5.9196   20.0135  -33.3519 H   0  0  0  0  0  0  0  0  0  0  0  0
   -5.0264   20.3039  -34.8476 H   0  0  0  0  0  0  0  0  0  0  0  0
   -5.2364   17.8262  -33.3622 H   0  0  0  0  0  0  0  0  0  0  0  0
   -4.2568   18.0939  -34.8089 H   0  0  0  0  0  0  0  0  0  0  0  0
   -3.2312   17.6053  -32.2424 H   0  0  0  0  0  0  0  0  0  0  0  0
   -2.3021   18.3833  -33.5411 H   0  0  0  0  0  0  0  0  0  0  0  0
   -1.0650   19.5964  -29.0218 H   0  0  0  0  0  0  0  0  0  0  0  0
   -1.1502   20.9728  -26.9494 H   0  0  0  0  0  0  0  0  0  0  0  0
   -1.8130   24.5480  -26.8160 H   0  0  0  0  0  0  0  0  0  0  0  0
  1  2  2  0
  2  3  1  0
  3  4  1  0
  4  5  2  0
  5  6  1  0
  6  7  2  0
  7  8  1  0
  8  9  2  0
  8 10  2  0
  8 11  1  0
 11 12  1  0
 12 13  1  0
 13 14  1  0
 14 15  1  0
  7 16  1  0
 16 17  2  0
  2 18  1  0
 18 19  2  0
 19 20  1  0
 20 21  1  0
 21 22  2  0
 21 23  2  0
 21 24  1  0
 24 25  1  0
 25 26  1  0
 26 27  1  0
 27 28  1  0
 20 29  2  0
 29 30  1  0
 30 31  2  0
 31 32  1  0
 17  4  1  0
 31 18  1  0
 15 11  1  0
 28 24  1  0
  5 33  1  0
  6 34  1  0
 12 35  1  0
 12 36  1  0
 13 37  1  0
 13 38  1  0
 14 39  1  0
 14 40  1  0
 15 41  1  0
 15 42  1  0
 16 43  1  0
 17 44  1  0
 19 45  1  0
 25 46  1  0
 25 47  1  0
 26 48  1  0
 26 49  1  0
 27 50  1  0
 27 51  1  0
 28 52  1  0
 28 53  1  0
 29 54  1  0
 30 55  1  0
 32 56  1  0
M  CHG  1   3  -1
M  END
>  <UniqueID>  (37) 
36

>  <SMILES>  (37) 
O=C([N-]c1ccc(S(=O)(=O)N2CCCC2)cc1)c1cc(S(=O)(=O)N2CCCC2)ccc1O

>  <Energy>  (37) 
65.78029617943886

>  <Genealogy>  (37) 
O=C([N-]c1ccc(S(=O)(=O)N2CCCC2)cc1)c1cc(S(=O)(=O)N2CCCC2)ccc1O (protonated)
O=C([N-]c1ccc(S(=O)(=O)N2CCCC2)cc1)c1cc(S(=O)(=O)N2CCCC2)ccc1O (3D coordinates assigned)
O=C([N-]c1ccc(S(=O)(=O)N2CCCC2)cc1)c1cc(S(=O)(=O)N2CCCC2)ccc1O (nonaromatic ring conformer: 65.78029617943886 kcal/mol)

>  <smiles>  (37) 
O=C(Nc1ccc(S(=O)(=O)N2CCCC2)cc1)c1cc(S(=O)(=O)N2CCCC2)ccc1O

>  <score_type>  (37) 
oracle

>  <origin>  (37) 
adgpu

>  <m_score__min__energy>  (37) 
-11.42

>  <m_primary>  (37) 
energy

$$$$
37:0
     RDKit          3D

 55 58  0  0  0  0  0  0  0  0999 V2000
   -4.6420   25.3540  -30.9230 O   0  0  0  0  0  0  0  0  0  0  0  0
   -4.3150   24.1460  -30.7790 C   0  0  0  0  0  0  0  0  0  0  0  0
   -4.7600   23.1940  -31.7550 N   0  0  0  0  0  0  0  0  0  0  0  0
   -6.0460   22.5570  -31.7900 C   0  0  0  0  0  0  0  0  0  0  0  0
   -7.2390   23.2990  -31.7650 C   0  0  0  0  0  0  0  0  0  0  0  0
   -8.4740   22.6440  -31.7840 C   0  0  0  0  0  0  0  0  0  0  0  0
   -8.5270   21.2480  -31.8110 C   0  0  0  0  0  0  0  0  0  0  0  0
   -7.3430   20.4990  -31.8090 C   0  0  0  0  0  0  0  0  0  0  0  0
   -7.3900   18.7380  -31.8480 S   0  0  0  0  0  0  0  0  0  0  0  0
   -6.3190   18.2150  -30.9320 O   0  0  0  0  0  0  0  0  0  0  0  0
   -8.7250   18.2440  -31.3610 O   0  0  0  0  0  0  0  0  0  0  0  0
   -7.0960   18.1810  -33.4810 N   0  0  0  0  0  0  0  0  0  0  0  0
   -6.4920   16.8440  -33.4700 C   0  0  0  0  0  0  0  0  0  0  0  0
   -4.9800   17.0050  -33.5260 C   0  0  0  0  0  0  0  0  0  0  0  0
   -4.7380   18.4360  -33.9640 C   0  0  0  0  0  0  0  0  0  0  0  0
   -6.1190   19.0460  -34.1510 C   0  0  0  0  0  0  0  0  0  0  0  0
   -6.1060   21.1580  -31.7950 C   0  0  0  0  0  0  0  0  0  0  0  0
   -3.5330   23.7420  -29.5860 C   0  0  0  0  0  0  0  0  0  0  0  0
   -3.8610   22.5770  -28.8710 C   0  0  0  0  0  0  0  0  0  0  0  0
   -3.1270   22.2120  -27.7400 C   0  0  0  0  0  0  0  0  0  0  0  0
   -2.0630   23.0070  -27.3080 C   0  0  0  0  0  0  0  0  0  0  0  0
   -1.7270   24.1730  -28.0070 C   0  0  0  0  0  0  0  0  0  0  0  0
   -0.4030   25.1920  -27.4460 S   0  0  0  0  0  0  0  0  0  0  0  0
   -0.4980   26.5450  -28.0950 O   0  0  0  0  0  0  0  0  0  0  0  0
    0.9060   24.5650  -27.8380 O   0  0  0  0  0  0  0  0  0  0  0  0
   -0.4820   25.3340  -25.7070 N   0  0  0  0  0  0  0  0  0  0  0  0
   -1.6040   26.1740  -25.2930 C   0  0  0  0  0  0  0  0  0  0  0  0
   -1.2260   26.7600  -23.9420 C   0  0  0  0  0  0  0  0  0  0  0  0
    0.2910   26.6690  -23.8780 C   0  0  0  0  0  0  0  0  0  0  0  0
    0.7120   25.9910  -25.1730 C   0  0  0  0  0  0  0  0  0  0  0  0
   -2.4690   24.5430  -29.1380 C   0  0  0  0  0  0  0  0  0  0  0  0
   -7.2011   24.3978  -31.7304 H   0  0  0  0  0  0  0  0  0  0  0  0
   -9.4057   23.2287  -31.7777 H   0  0  0  0  0  0  0  0  0  0  0  0
   -9.5003   20.7360  -31.8339 H   0  0  0  0  0  0  0  0  0  0  0  0
   -6.7762   16.3145  -32.5487 H   0  0  0  0  0  0  0  0  0  0  0  0
   -6.8443   16.2608  -34.3336 H   0  0  0  0  0  0  0  0  0  0  0  0
   -4.5380   16.8270  -32.5346 H   0  0  0  0  0  0  0  0  0  0  0  0
   -4.5194   16.2843  -34.2177 H   0  0  0  0  0  0  0  0  0  0  0  0
   -4.1775   18.9841  -33.1924 H   0  0  0  0  0  0  0  0  0  0  0  0
   -4.1436   18.4836  -34.8883 H   0  0  0  0  0  0  0  0  0  0  0  0
   -6.1453   20.0518  -33.7063 H   0  0  0  0  0  0  0  0  0  0  0  0
   -6.3561   19.1291  -35.2219 H   0  0  0  0  0  0  0  0  0  0  0  0
   -5.1753   20.5717  -31.7879 H   0  0  0  0  0  0  0  0  0  0  0  0
   -4.7006   21.9492  -29.2041 H   0  0  0  0  0  0  0  0  0  0  0  0
   -3.3875   21.2966  -27.1885 H   0  0  0  0  0  0  0  0  0  0  0  0
   -1.4876   22.7165  -26.4166 H   0  0  0  0  0  0  0  0  0  0  0  0
   -1.7668   26.9790  -26.0247 H   0  0  0  0  0  0  0  0  0  0  0  0
   -2.5353   25.5921  -25.2288 H   0  0  0  0  0  0  0  0  0  0  0  0
   -1.5529   27.8079  -23.8710 H   0  0  0  0  0  0  0  0  0  0  0  0
   -1.7055   26.2212  -23.1115 H   0  0  0  0  0  0  0  0  0  0  0  0
    0.7339   27.6735  -23.8083 H   0  0  0  0  0  0  0  0  0  0  0  0
    0.6294   26.1078  -22.9946 H   0  0  0  0  0  0  0  0  0  0  0  0
    1.0865   26.7380  -25.8884 H   0  0  0  0  0  0  0  0  0  0  0  0
    1.5196   25.2652  -24.9970 H   0  0  0  0  0  0  0  0  0  0  0  0
   -2.2162   25.4671  -29.6784 H   0  0  0  0  0  0  0  0  0  0  0  0
  1  2  2  0
  2  3  1  0
  3  4  1  0
  4  5  2  0
  5  6  1  0
  6  7  2  0
  7  8  1  0
  8  9  1  0
  9 10  2  0
  9 11  2  0
  9 12  1  0
 12 13  1  0
 13 14  1  0
 14 15  1  0
 15 16  1  0
  8 17  2  0
  2 18  1  0
 18 19  2  0
 19 20  1  0
 20 21  2  0
 21 22  1  0
 22 23  1  0
 23 24  2  0
 23 25  2  0
 23 26  1  0
 26 27  1  0
 27 28  1  0
 28 29  1  0
 29 30  1  0
 22 31  2  0
 17  4  1  0
 31 18  1  0
 16 12  1  0
 30 26  1  0
  5 32  1  0
  6 33  1  0
  7 34  1  0
 13 35  1  0
 13 36  1  0
 14 37  1  0
 14 38  1  0
 15 39  1  0
 15 40  1  0
 16 41  1  0
 16 42  1  0
 17 43  1  0
 19 44  1  0
 20 45  1  0
 21 46  1  0
 27 47  1  0
 27 48  1  0
 28 49  1  0
 28 50  1  0
 29 51  1  0
 29 52  1  0
 30 53  1  0
 30 54  1  0
 31 55  1  0
M  CHG  1   3  -1
M  END
>  <UniqueID>  (38) 
37

>  <SMILES>  (38) 
O=C([N-]c1cccc(S(=O)(=O)N2CCCC2)c1)c1cccc(S(=O)(=O)N2CCCC2)c1

>  <Energy>  (38) 
65.04867263490841

>  <Genealogy>  (38) 
O=C([N-]c1cccc(S(=O)(=O)N2CCCC2)c1)c1cccc(S(=O)(=O)N2CCCC2)c1 (protonated)
O=C([N-]c1cccc(S(=O)(=O)N2CCCC2)c1)c1cccc(S(=O)(=O)N2CCCC2)c1 (3D coordinates assigned)
O=C([N-]c1cccc(S(=O)(=O)N2CCCC2)c1)c1cccc(S(=O)(=O)N2CCCC2)c1 (nonaromatic ring conformer: 65.04867263490841 kcal/mol)

>  <smiles>  (38) 
O=C(Nc1cccc(S(=O)(=O)N2CCCC2)c1)c1cccc(S(=O)(=O)N2CCCC2)c1

>  <score_type>  (38) 
oracle

>  <origin>  (38) 
adgpu

>  <m_score__min__energy>  (38) 
-12.460000000000001

>  <m_primary>  (38) 
energy

$$$$
38:0
     RDKit          3D

 45 48  0  0  0  0  0  0  0  0999 V2000
   -3.3910   20.9270  -30.0620 O   0  0  0  0  0  0  0  0  0  0  0  0
   -3.4510   22.1780  -30.2210 C   0  0  0  0  0  0  0  0  0  0  0  0
   -2.2730   22.9700  -30.0270 N   0  0  0  0  0  0  0  0  0  0  0  0
   -1.7040   23.3200  -28.7580 C   0  0  0  0  0  0  0  0  0  0  0  0
   -1.3820   22.2920  -27.8620 C   0  0  0  0  0  0  0  0  0  0  0  0
   -0.8160   22.5860  -26.6190 C   0  0  0  0  0  0  0  0  0  0  0  0
   -0.5520   23.9120  -26.2670 C   0  0  0  0  0  0  0  0  0  0  0  0
   -0.8370   24.9430  -27.1670 C   0  0  0  0  0  0  0  0  0  0  0  0
   -1.3970   24.6550  -28.4170 C   0  0  0  0  0  0  0  0  0  0  0  0
   -1.6090   25.6910  -29.3180 O   0  0  0  0  0  0  0  0  0  0  0  0
   -4.7260   22.8040  -30.6700 C   0  0  0  0  0  0  0  0  0  0  0  0
   -5.8190   21.9790  -31.0010 C   0  0  0  0  0  0  0  0  0  0  0  0
   -7.0330   22.5300  -31.4270 C   0  0  0  0  0  0  0  0  0  0  0  0
   -8.3730   21.4690  -31.8520 S   0  0  0  0  0  0  0  0  0  0  0  0
   -9.5470   22.2830  -32.3220 O   0  0  0  0  0  0  0  0  0  0  0  0
   -8.7670   20.6790  -30.6350 O   0  0  0  0  0  0  0  0  0  0  0  0
   -7.8510   20.4010  -33.1150 N   0  0  0  0  0  0  0  0  0  0  0  0
   -6.8640   19.3600  -33.0210 C   0  0  0  0  0  0  0  0  0  0  0  0
   -7.3200   18.0640  -32.7460 C   0  0  0  0  0  0  0  0  0  0  0  0
   -6.4280   16.9930  -32.6530 C   0  0  0  0  0  0  0  0  0  0  0  0
   -5.0600   17.2020  -32.8200 C   0  0  0  0  0  0  0  0  0  0  0  0
   -4.5730   18.4930  -33.0680 C   0  0  0  0  0  0  0  0  0  0  0  0
   -3.1990   18.7260  -33.2080 C   0  0  0  0  0  0  0  0  0  0  0  0
   -2.7310   20.0230  -33.4240 C   0  0  0  0  0  0  0  0  0  0  0  0
   -3.6440   21.0760  -33.4940 C   0  0  0  0  0  0  0  0  0  0  0  0
   -4.9750   20.8350  -33.3610 N   0  0  0  0  0  0  0  0  0  0  0  0
   -5.4730   19.5840  -33.1650 C   0  0  0  0  0  0  0  0  0  0  0  0
   -7.1650   23.9180  -31.5360 C   0  0  0  0  0  0  0  0  0  0  0  0
   -6.0960   24.7490  -31.2050 C   0  0  0  0  0  0  0  0  0  0  0  0
   -4.8780   24.2070  -30.7700 C   0  0  0  0  0  0  0  0  0  0  0  0
   -3.8340   25.0690  -30.4320 O   0  0  0  0  0  0  0  0  0  0  0  0
   -1.5763   21.2454  -28.1394 H   0  0  0  0  0  0  0  0  0  0  0  0
   -0.5781   21.7731  -25.9171 H   0  0  0  0  0  0  0  0  0  0  0  0
   -0.1202   24.1446  -25.2824 H   0  0  0  0  0  0  0  0  0  0  0  0
   -0.6201   25.9856  -26.8915 H   0  0  0  0  0  0  0  0  0  0  0  0
   -5.7168   20.8865  -30.9235 H   0  0  0  0  0  0  0  0  0  0  0  0
   -8.3960   17.8873  -32.6012 H   0  0  0  0  0  0  0  0  0  0  0  0
   -6.8066   15.9809  -32.4472 H   0  0  0  0  0  0  0  0  0  0  0  0
   -4.3624   16.3538  -32.7572 H   0  0  0  0  0  0  0  0  0  0  0  0
   -2.4895   17.8876  -33.1478 H   0  0  0  0  0  0  0  0  0  0  0  0
   -1.6536   20.2132  -33.5379 H   0  0  0  0  0  0  0  0  0  0  0  0
   -3.2858   22.1032  -33.6571 H   0  0  0  0  0  0  0  0  0  0  0  0
   -8.1132   24.3543  -31.8832 H   0  0  0  0  0  0  0  0  0  0  0  0
   -6.2089   25.8402  -31.2858 H   0  0  0  0  0  0  0  0  0  0  0  0
   -2.9100   24.7230  -30.2030 H   0  0  0  0  0  0  0  0  0  0  0  0
  1  2  2  0
  2  3  1  0
  3  4  1  0
  4  5  2  0
  5  6  1  0
  6  7  2  0
  7  8  1  0
  8  9  2  0
  9 10  1  0
  2 11  1  0
 11 12  2  0
 12 13  1  0
 13 14  1  0
 14 15  2  0
 14 16  2  0
 14 17  1  0
 17 18  1  0
 18 19  2  0
 19 20  1  0
 20 21  2  0
 21 22  1  0
 22 23  2  0
 23 24  1  0
 24 25  2  0
 25 26  1  0
 26 27  2  0
 13 28  2  0
 28 29  1  0
 29 30  2  0
 30 31  1  0
  9  4  1  0
 30 11  1  0
 27 18  1  0
 27 22  1  0
  5 32  1  0
  6 33  1  0
  7 34  1  0
  8 35  1  0
 12 36  1  0
 19 37  1  0
 20 38  1  0
 21 39  1  0
 23 40  1  0
 24 41  1  0
 25 42  1  0
 28 43  1  0
 29 44  1  0
 31 45  1  0
M  CHG  3   3  -1  10  -1  17  -1
M  END
>  <UniqueID>  (39) 
38

>  <SMILES>  (39) 
O=C([N-]c1ccccc1[O-])c1cc(S(=O)(=O)[N-]c2cccc3cccnc23)ccc1O

>  <Energy>  (39) 
69.85658295275371

>  <Genealogy>  (39) 
O=C([N-]c1ccccc1[O-])c1cc(S(=O)(=O)[N-]c2cccc3cccnc23)ccc1O (protonated)
O=C([N-]c1ccccc1[O-])c1cc(S(=O)(=O)[N-]c2cccc3cccnc23)ccc1O (3D coordinates assigned)
O=C([N-]c1ccccc1[O-])c1cc(S(=O)(=O)[N-]c2cccc3cccnc23)ccc1O (optimized conformer: 69.85658295275371 kcal/mol)

>  <smiles>  (39) 
O=C(Nc1ccccc1O)c1cc(S(=O)(=O)Nc2cccc3cccnc23)ccc1O

>  <score_type>  (39) 
oracle

>  <origin>  (39) 
adgpu

>  <m_score__min__energy>  (39) 
-13.539999999999999

>  <m_primary>  (39) 
energy

$$$$
39:0
     RDKit          3D

 62 66  0  0  0  0  0  0  0  0999 V2000
   -5.6560   25.4420  -28.8910 O   0  0  0  0  0  0  0  0  0  0  0  0
   -5.2770   25.1070  -30.3050 S   0  0  0  0  0  0  0  0  0  0  0  0
   -5.7340   26.2160  -31.2110 O   0  0  0  0  0  0  0  0  0  0  0  0
   -3.5570   24.9430  -30.4220 N   0  0  0  0  0  0  0  0  0  0  0  0
   -2.8990   23.7380  -30.0210 C   0  0  0  0  0  0  0  0  0  0  0  0
   -2.8930   22.6560  -30.9040 C   0  0  0  0  0  0  0  0  0  0  0  0
   -2.2310   21.4760  -30.5720 C   0  0  0  0  0  0  0  0  0  0  0  0
   -1.5620   21.3560  -29.3500 C   0  0  0  0  0  0  0  0  0  0  0  0
   -0.9110   20.1140  -29.0440 N   0  0  0  0  0  0  0  0  0  0  0  0
   -1.3340   19.3590  -27.8610 C   0  0  0  0  0  0  0  0  0  0  0  0
   -0.3890   18.1790  -27.6090 C   0  0  0  0  0  0  0  0  0  0  0  0
    1.0000   18.5980  -27.8360 N   0  0  0  0  0  0  0  0  0  0  0  0
    1.2650   18.9170  -29.2540 C   0  0  0  0  0  0  0  0  0  0  0  0
    0.0590   19.5480  -29.9870 C   0  0  0  0  0  0  0  0  0  0  0  0
   -1.5640   22.4340  -28.4360 C   0  0  0  0  0  0  0  0  0  0  0  0
   -0.9030   22.3430  -27.1960 C   0  0  0  0  0  0  0  0  0  0  0  0
   -0.9360   23.4080  -26.2960 C   0  0  0  0  0  0  0  0  0  0  0  0
   -1.6250   24.5770  -26.6150 C   0  0  0  0  0  0  0  0  0  0  0  0
   -2.2780   24.6940  -27.8430 C   0  0  0  0  0  0  0  0  0  0  0  0
   -2.2490   23.6350  -28.7710 C   0  0  0  0  0  0  0  0  0  0  0  0
   -6.0270   23.5900  -30.7860 C   0  0  0  0  0  0  0  0  0  0  0  0
   -6.9840   22.9720  -29.9690 C   0  0  0  0  0  0  0  0  0  0  0  0
   -7.5910   21.7800  -30.3760 C   0  0  0  0  0  0  0  0  0  0  0  0
   -7.2480   21.1970  -31.6040 C   0  0  0  0  0  0  0  0  0  0  0  0
   -8.0420   19.7130  -32.1360 S   0  0  0  0  0  0  0  0  0  0  0  0
   -9.1200   19.3500  -31.1530 O   0  0  0  0  0  0  0  0  0  0  0  0
   -8.6920   19.9540  -33.4700 O   0  0  0  0  0  0  0  0  0  0  0  0
   -6.9140   18.3810  -32.2750 N   0  0  0  0  0  0  0  0  0  0  0  0
   -5.5430   18.8130  -31.9800 C   0  0  0  0  0  0  0  0  0  0  0  0
   -4.8230   19.0640  -33.2980 C   0  0  0  0  0  0  0  0  0  0  0  0
   -5.7020   18.4580  -34.3740 C   0  0  0  0  0  0  0  0  0  0  0  0
   -6.8900   17.8480  -33.6410 C   0  0  0  0  0  0  0  0  0  0  0  0
   -6.2770   21.8060  -32.4110 C   0  0  0  0  0  0  0  0  0  0  0  0
   -5.6710   22.9980  -32.0040 C   0  0  0  0  0  0  0  0  0  0  0  0
   -3.4149   22.7361  -31.8690 H   0  0  0  0  0  0  0  0  0  0  0  0
   -2.2346   20.6317  -31.2770 H   0  0  0  0  0  0  0  0  0  0  0  0
   -1.3239   20.0240  -26.9848 H   0  0  0  0  0  0  0  0  0  0  0  0
   -2.3490   18.9708  -28.0318 H   0  0  0  0  0  0  0  0  0  0  0  0
   -0.5020   17.8359  -26.5700 H   0  0  0  0  0  0  0  0  0  0  0  0
   -0.6389   17.3594  -28.2987 H   0  0  0  0  0  0  0  0  0  0  0  0
    1.2130   19.4370  -27.2440 H   0  0  0  0  0  0  0  0  0  0  0  0
    1.6410   17.8250  -27.5360 H   0  0  0  0  0  0  0  0  0  0  0  0
    2.1068   19.6236  -29.2991 H   0  0  0  0  0  0  0  0  0  0  0  0
    1.4863   17.9660  -29.7606 H   0  0  0  0  0  0  0  0  0  0  0  0
    0.4224   20.3483  -30.6485 H   0  0  0  0  0  0  0  0  0  0  0  0
   -0.4437   18.7583  -30.5646 H   0  0  0  0  0  0  0  0  0  0  0  0
   -0.3563   21.4248  -26.9351 H   0  0  0  0  0  0  0  0  0  0  0  0
   -0.4160   23.3251  -25.3302 H   0  0  0  0  0  0  0  0  0  0  0  0
   -1.6542   25.4097  -25.8968 H   0  0  0  0  0  0  0  0  0  0  0  0
   -2.8191   25.6199  -28.0877 H   0  0  0  0  0  0  0  0  0  0  0  0
   -7.2581   23.4260  -29.0053 H   0  0  0  0  0  0  0  0  0  0  0  0
   -8.3401   21.2981  -29.7306 H   0  0  0  0  0  0  0  0  0  0  0  0
   -5.5650   19.7390  -31.3867 H   0  0  0  0  0  0  0  0  0  0  0  0
   -5.0179   18.0361  -31.4049 H   0  0  0  0  0  0  0  0  0  0  0  0
   -4.7005   20.1440  -33.4674 H   0  0  0  0  0  0  0  0  0  0  0  0
   -3.8173   18.6184  -33.2999 H   0  0  0  0  0  0  0  0  0  0  0  0
   -6.0415   19.2351  -35.0746 H   0  0  0  0  0  0  0  0  0  0  0  0
   -5.1596   17.7053  -34.9649 H   0  0  0  0  0  0  0  0  0  0  0  0
   -7.8229   18.1135  -34.1599 H   0  0  0  0  0  0  0  0  0  0  0  0
   -6.7977   16.7521  -33.6177 H   0  0  0  0  0  0  0  0  0  0  0  0
   -5.9910   21.3444  -33.3676 H   0  0  0  0  0  0  0  0  0  0  0  0
   -4.9117   23.4727  -32.6428 H   0  0  0  0  0  0  0  0  0  0  0  0
  1  2  2  0
  2  3  2  0
  2  4  1  0
  4  5  1  0
  5  6  2  0
  6  7  1  0
  7  8  2  0
  8  9  1  0
  9 10  1  0
 10 11  1  0
 11 12  1  0
 12 13  1  0
 13 14  1  0
  8 15  1  0
 15 16  2  0
 16 17  1  0
 17 18  2  0
 18 19  1  0
 19 20  2  0
  2 21  1  0
 21 22  2  0
 22 23  1  0
 23 24  2  0
 24 25  1  0
 25 26  2  0
 25 27  2  0
 25 28  1  0
 28 29  1  0
 29 30  1  0
 30 31  1  0
 31 32  1  0
 24 33  1  0
 33 34  2  0
 20  5  1  0
 34 21  1  0
 14  9  1  0
 20 15  1  0
 32 28  1  0
  6 35  1  0
  7 36  1  0
 10 37  1  0
 10 38  1  0
 11 39  1  0
 11 40  1  0
 12 41  1  0
 12 42  1  0
 13 43  1  0
 13 44  1  0
 14 45  1  0
 14 46  1  0
 16 47  1  0
 17 48  1  0
 18 49  1  0
 19 50  1  0
 22 51  1  0
 23 52  1  0
 29 53  1  0
 29 54  1  0
 30 55  1  0
 30 56  1  0
 31 57  1  0
 31 58  1  0
 32 59  1  0
 32 60  1  0
 33 61  1  0
 34 62  1  0
M  CHG  2   4  -1  12   1
M  END
>  <UniqueID>  (40) 
39

>  <SMILES>  (40) 
O=S(=O)([N-]c1ccc(N2CC[NH2+]CC2)c2ccccc12)c1ccc(S(=O)(=O)N2CCCC2)cc1

>  <Energy>  (40) 
90.58666895765367

>  <Genealogy>  (40) 
O=S(=O)([N-]c1ccc(N2CC[NH2+]CC2)c2ccccc12)c1ccc(S(=O)(=O)N2CCCC2)cc1 (protonated)
O=S(=O)([N-]c1ccc(N2CC[NH2+]CC2)c2ccccc12)c1ccc(S(=O)(=O)N2CCCC2)cc1 (3D coordinates assigned)
O=S(=O)([N-]c1ccc(N2CC[NH2+]CC2)c2ccccc12)c1ccc(S(=O)(=O)N2CCCC2)cc1 (nonaromatic ring conformer: 90.58666895765367 kcal/mol)

>  <smiles>  (40) 
O=S(=O)(Nc1ccc(N2CCNCC2)c2ccccc12)c1ccc(S(=O)(=O)N2CCCC2)cc1

>  <score_type>  (40) 
oracle

>  <origin>  (40) 
adgpu

>  <m_score__min__energy>  (40) 
-12.84

>  <m_primary>  (40) 
energy

$$$$
40:0
     RDKit          3D

 48 51  0  0  0  0  0  0  0  0999 V2000
   -9.7630   18.9710  -33.1070 O   0  0  0  0  0  0  0  0  0  0  0  0
   -8.8740   19.5270  -32.0300 S   0  0  0  0  0  0  0  0  0  0  0  0
   -9.1140   18.7610  -30.7610 O   0  0  0  0  0  0  0  0  0  0  0  0
   -9.2640   21.2530  -31.7760 C   0  0  0  0  0  0  0  0  0  0  0  0
   -8.0250   22.0190  -31.4000 C   0  0  0  0  0  0  0  0  0  0  0  0
   -7.2450   22.6310  -32.3940 C   0  0  0  0  0  0  0  0  0  0  0  0
   -6.0500   23.2730  -32.0560 C   0  0  0  0  0  0  0  0  0  0  0  0
   -5.6240   23.3140  -30.7220 C   0  0  0  0  0  0  0  0  0  0  0  0
   -4.1010   24.0960  -30.3050 S   0  0  0  0  0  0  0  0  0  0  0  0
   -4.2190   25.5810  -30.5100 O   0  0  0  0  0  0  0  0  0  0  0  0
   -3.0230   23.5720  -31.2120 O   0  0  0  0  0  0  0  0  0  0  0  0
   -3.6870   23.7510  -28.6430 N   0  0  0  0  0  0  0  0  0  0  0  0
   -4.5330   24.5490  -27.7360 C   0  0  0  0  0  0  0  0  0  0  0  0
   -3.8950   24.6460  -26.3410 C   0  0  0  0  0  0  0  0  0  0  0  0
   -2.5910   25.2190  -26.3250 O   0  0  0  0  0  0  0  0  0  0  0  0
   -1.9480   25.2180  -27.5890 C   0  0  0  0  0  0  0  0  0  0  0  0
   -2.2380   23.9460  -28.4040 C   0  0  0  0  0  0  0  0  0  0  0  0
   -6.3980   22.6980  -29.7290 C   0  0  0  0  0  0  0  0  0  0  0  0
   -7.5890   22.0500  -30.0670 C   0  0  0  0  0  0  0  0  0  0  0  0
   -7.1950   19.3470  -32.5150 C   0  0  0  0  0  0  0  0  0  0  0  0
   -6.8470   18.5110  -33.5820 C   0  0  0  0  0  0  0  0  0  0  0  0
   -5.5380   18.3500  -33.9090 N   0  0  0  0  0  0  0  0  0  0  0  0
   -4.5570   18.9870  -33.2150 C   0  0  0  0  0  0  0  0  0  0  0  0
   -3.2120   18.8180  -33.5600 C   0  0  0  0  0  0  0  0  0  0  0  0
   -2.2190   19.4870  -32.8370 C   0  0  0  0  0  0  0  0  0  0  0  0
   -2.5660   20.3150  -31.7630 C   0  0  0  0  0  0  0  0  0  0  0  0
   -3.9100   20.4850  -31.4120 C   0  0  0  0  0  0  0  0  0  0  0  0
   -4.9080   19.8250  -32.1370 C   0  0  0  0  0  0  0  0  0  0  0  0
   -6.2170   19.9810  -31.8130 N   0  0  0  0  0  0  0  0  0  0  0  0
   -9.6813   21.6710  -32.7040 H   0  0  0  0  0  0  0  0  0  0  0  0
   -9.9978   21.3376  -30.9609 H   0  0  0  0  0  0  0  0  0  0  0  0
   -7.5754   22.6053  -33.4429 H   0  0  0  0  0  0  0  0  0  0  0  0
   -5.4420   23.7477  -32.8403 H   0  0  0  0  0  0  0  0  0  0  0  0
   -4.6511   25.5613  -28.1500 H   0  0  0  0  0  0  0  0  0  0  0  0
   -5.5126   24.0574  -27.6429 H   0  0  0  0  0  0  0  0  0  0  0  0
   -4.5487   25.2626  -25.7066 H   0  0  0  0  0  0  0  0  0  0  0  0
   -3.7873   23.6145  -25.9745 H   0  0  0  0  0  0  0  0  0  0  0  0
   -2.2973   26.0897  -28.1618 H   0  0  0  0  0  0  0  0  0  0  0  0
   -0.8635   25.2561  -27.4091 H   0  0  0  0  0  0  0  0  0  0  0  0
   -1.7264   24.0232  -29.3747 H   0  0  0  0  0  0  0  0  0  0  0  0
   -1.8729   23.0845  -27.8256 H   0  0  0  0  0  0  0  0  0  0  0  0
   -6.0669   22.7248  -28.6804 H   0  0  0  0  0  0  0  0  0  0  0  0
   -8.1877   21.5618  -29.2839 H   0  0  0  0  0  0  0  0  0  0  0  0
   -7.6283   17.9875  -34.1524 H   0  0  0  0  0  0  0  0  0  0  0  0
   -2.9360   18.1607  -34.3977 H   0  0  0  0  0  0  0  0  0  0  0  0
   -1.1616   19.3620  -33.1133 H   0  0  0  0  0  0  0  0  0  0  0  0
   -1.7804   20.8333  -31.1936 H   0  0  0  0  0  0  0  0  0  0  0  0
   -4.1811   21.1361  -30.5679 H   0  0  0  0  0  0  0  0  0  0  0  0
  1  2  2  0
  2  3  2  0
  2  4  1  0
  4  5  1  0
  5  6  2  0
  6  7  1  0
  7  8  2  0
  8  9  1  0
  9 10  2  0
  9 11  2  0
  9 12  1  0
 12 13  1  0
 13 14  1  0
 14 15  1  0
 15 16  1  0
 16 17  1  0
  8 18  1  0
 18 19  2  0
  2 20  1  0
 20 21  2  0
 21 22  1  0
 22 23  2  0
 23 24  1  0
 24 25  2  0
 25 26  1  0
 26 27  2  0
 27 28  1  0
 28 29  2  0
 19  5  1  0
 29 20  1  0
 17 12  1  0
 28 23  1  0
  4 30  1  0
  4 31  1  0
  6 32  1  0
  7 33  1  0
 13 34  1  0
 13 35  1  0
 14 36  1  0
 14 37  1  0
 16 38  1  0
 16 39  1  0
 17 40  1  0
 17 41  1  0
 18 42  1  0
 19 43  1  0
 21 44  1  0
 24 45  1  0
 25 46  1  0
 26 47  1  0
 27 48  1  0
M  END
>  <UniqueID>  (41) 
40

>  <SMILES>  (41) 
O=S(=O)(Cc1ccc(S(=O)(=O)N2CCOCC2)cc1)c1cnc2ccccc2n1

>  <Energy>  (41) 
59.654198192346094

>  <Genealogy>  (41) 
O=S(=O)(Cc1ccc(S(=O)(=O)N2CCOCC2)cc1)c1cnc2ccccc2n1 (3D coordinates assigned)
O=S(=O)(Cc1ccc(S(=O)(=O)N2CCOCC2)cc1)c1cnc2ccccc2n1 (nonaromatic ring conformer: 59.654198192346094 kcal/mol)

>  <smiles>  (41) 
O=S(=O)(Cc1ccc(S(=O)(=O)N2CCOCC2)cc1)c1cnc2ccccc2n1

>  <score_type>  (41) 
oracle

>  <origin>  (41) 
adgpu

>  <m_score__min__energy>  (41) 
-10.380000000000001

>  <m_primary>  (41) 
energy

$$$$
41:0
     RDKit          3D

 51 54  0  0  0  0  0  0  0  0999 V2000
   -6.8620   16.7390  -33.7080 C   0  0  0  0  0  0  0  0  0  0  0  0
   -6.8260   17.1170  -32.3630 C   0  0  0  0  0  0  0  0  0  0  0  0
   -5.8550   18.0200  -31.9150 C   0  0  0  0  0  0  0  0  0  0  0  0
   -4.9100   18.5450  -32.8110 C   0  0  0  0  0  0  0  0  0  0  0  0
   -3.8480   19.4900  -32.3200 C   0  0  0  0  0  0  0  0  0  0  0  0
   -4.4010   20.8600  -32.1540 N   0  0  0  0  0  0  0  0  0  0  0  0
   -5.5190   21.0870  -33.0940 C   0  0  0  0  0  0  0  0  0  0  0  0
   -6.8200   21.2140  -32.3430 C   0  0  0  0  0  0  0  0  0  0  0  0
   -7.9360   20.4590  -32.7420 C   0  0  0  0  0  0  0  0  0  0  0  0
   -9.1500   20.5830  -32.0600 C   0  0  0  0  0  0  0  0  0  0  0  0
   -9.2570   21.4580  -30.9750 C   0  0  0  0  0  0  0  0  0  0  0  0
   -8.1510   22.2090  -30.5700 C   0  0  0  0  0  0  0  0  0  0  0  0
   -6.9350   22.0890  -31.2500 C   0  0  0  0  0  0  0  0  0  0  0  0
   -3.3540   21.8950  -32.3330 C   0  0  0  0  0  0  0  0  0  0  0  0
   -3.5630   23.0420  -31.3850 C   0  0  0  0  0  0  0  0  0  0  0  0
   -4.6070   23.8890  -31.4490 N   0  0  0  0  0  0  0  0  0  0  0  0
   -4.3850   24.7870  -30.4990 N   0  0  0  0  0  0  0  0  0  0  0  0
   -3.2430   24.5220  -29.8830 N   0  0  0  0  0  0  0  0  0  0  0  0
   -2.7040   23.4480  -30.4300 N   0  0  0  0  0  0  0  0  0  0  0  0
   -1.4330   22.8570  -30.0140 C   0  0  0  0  0  0  0  0  0  0  0  0
   -1.6750   21.7110  -29.0700 C   0  0  0  0  0  0  0  0  0  0  0  0
   -0.6990   20.7160  -28.8850 C   0  0  0  0  0  0  0  0  0  0  0  0
   -0.9380   19.6490  -28.0140 C   0  0  0  0  0  0  0  0  0  0  0  0
   -2.1480   19.5670  -27.3210 C   0  0  0  0  0  0  0  0  0  0  0  0
   -3.1240   20.5530  -27.4990 C   0  0  0  0  0  0  0  0  0  0  0  0
   -2.8890   21.6210  -28.3700 C   0  0  0  0  0  0  0  0  0  0  0  0
   -4.9660   18.1740  -34.1650 C   0  0  0  0  0  0  0  0  0  0  0  0
   -5.9350   17.2700  -34.6090 C   0  0  0  0  0  0  0  0  0  0  0  0
   -7.6204   16.0231  -34.0577 H   0  0  0  0  0  0  0  0  0  0  0  0
   -7.5611   16.7047  -31.6562 H   0  0  0  0  0  0  0  0  0  0  0  0
   -5.8321   18.3196  -30.8568 H   0  0  0  0  0  0  0  0  0  0  0  0
   -3.4676   19.1341  -31.3512 H   0  0  0  0  0  0  0  0  0  0  0  0
   -3.0346   19.5237  -33.0597 H   0  0  0  0  0  0  0  0  0  0  0  0
   -5.3350   22.0126  -33.6592 H   0  0  0  0  0  0  0  0  0  0  0  0
   -5.5862   20.2310  -33.7816 H   0  0  0  0  0  0  0  0  0  0  0  0
   -7.8541   19.7680  -33.5939 H   0  0  0  0  0  0  0  0  0  0  0  0
  -10.0216   19.9917  -32.3773 H   0  0  0  0  0  0  0  0  0  0  0  0
  -10.2130   21.5552  -30.4397 H   0  0  0  0  0  0  0  0  0  0  0  0
   -8.2367   22.8957  -29.7150 H   0  0  0  0  0  0  0  0  0  0  0  0
   -6.0659   22.6815  -30.9281 H   0  0  0  0  0  0  0  0  0  0  0  0
   -2.3680   21.4460  -32.1426 H   0  0  0  0  0  0  0  0  0  0  0  0
   -3.4111   22.2768  -33.3630 H   0  0  0  0  0  0  0  0  0  0  0  0
   -0.8960   22.4895  -30.9009 H   0  0  0  0  0  0  0  0  0  0  0  0
   -0.8328   23.6229  -29.5010 H   0  0  0  0  0  0  0  0  0  0  0  0
    0.2559   20.7773  -29.4275 H   0  0  0  0  0  0  0  0  0  0  0  0
   -0.1716   18.8724  -27.8741 H   0  0  0  0  0  0  0  0  0  0  0  0
   -2.3333   18.7271  -26.6353 H   0  0  0  0  0  0  0  0  0  0  0  0
   -4.0769   20.4881  -26.9534 H   0  0  0  0  0  0  0  0  0  0  0  0
   -3.6588   22.3946  -28.5077 H   0  0  0  0  0  0  0  0  0  0  0  0
   -4.2439   18.5970  -34.8789 H   0  0  0  0  0  0  0  0  0  0  0  0
   -5.9680   16.9762  -35.6685 H   0  0  0  0  0  0  0  0  0  0  0  0
  1  2  2  0
  2  3  1  0
  3  4  2  0
  4  5  1  0
  5  6  1  0
  6  7  1  0
  7  8  1  0
  8  9  2  0
  9 10  1  0
 10 11  2  0
 11 12  1  0
 12 13  2  0
  6 14  1  0
 14 15  1  0
 15 16  2  0
 16 17  1  0
 17 18  2  0
 18 19  1  0
 19 20  1  0
 20 21  1  0
 21 22  2  0
 22 23  1  0
 23 24  2  0
 24 25  1  0
 25 26  2  0
  4 27  1  0
 27 28  2  0
 28  1  1  0
 13  8  1  0
 19 15  1  0
 26 21  1  0
  1 29  1  0
  2 30  1  0
  3 31  1  0
  5 32  1  0
  5 33  1  0
  7 34  1  0
  7 35  1  0
  9 36  1  0
 10 37  1  0
 11 38  1  0
 12 39  1  0
 13 40  1  0
 14 41  1  0
 14 42  1  0
 20 43  1  0
 20 44  1  0
 22 45  1  0
 23 46  1  0
 24 47  1  0
 25 48  1  0
 26 49  1  0
 27 50  1  0
 28 51  1  0
M  END
>  <UniqueID>  (42) 
41

>  <SMILES>  (42) 
c1ccc(CN(Cc2ccccc2)Cc2nnnn2Cc2ccccc2)cc1

>  <Energy>  (42) 
91.76226923897553

>  <Genealogy>  (42) 
c1ccc(CN(Cc2ccccc2)Cc2nnnn2Cc2ccccc2)cc1 (3D coordinates assigned)
c1ccc(CN(Cc2ccccc2)Cc2nnnn2Cc2ccccc2)cc1 (optimized conformer: 91.76226923897553 kcal/mol)

>  <smiles>  (42) 
c1ccc(CN(Cc2ccccc2)Cc2nnnn2Cc2ccccc2)cc1

>  <score_type>  (42) 
oracle

>  <origin>  (42) 
adgpu

>  <m_score__min__energy>  (42) 
-10.18

>  <m_primary>  (42) 
energy

$$$$
42:0
     RDKit          3D

 67 70  0  0  0  0  0  0  0  0999 V2000
   -9.7860   20.5110  -32.3390 C   0  0  0  0  0  0  0  0  0  0  0  0
   -8.4770   21.2420  -32.1720 C   0  0  0  0  0  0  0  0  0  0  0  0
   -8.5420   22.6240  -31.9340 C   0  0  0  0  0  0  0  0  0  0  0  0
   -7.3850   23.3760  -31.7810 C   0  0  0  0  0  0  0  0  0  0  0  0
   -6.1350   22.7870  -31.9320 C   0  0  0  0  0  0  0  0  0  0  0  0
   -4.9730   23.6000  -31.7100 N   0  0  0  0  0  0  0  0  0  0  0  0
   -4.9760   24.9100  -31.1320 C   0  0  0  0  0  0  0  0  0  0  0  0
   -5.9650   25.6690  -31.2990 O   0  0  0  0  0  0  0  0  0  0  0  0
   -3.9000   25.3260  -30.2850 N   0  0  0  0  0  0  0  0  0  0  0  0
   -3.2600   24.4920  -29.3050 C   0  0  0  0  0  0  0  0  0  0  0  0
   -3.9210   23.3380  -28.8660 C   0  0  0  0  0  0  0  0  0  0  0  0
   -3.3310   22.5020  -27.9160 C   0  0  0  0  0  0  0  0  0  0  0  0
   -2.0770   22.8160  -27.3890 C   0  0  0  0  0  0  0  0  0  0  0  0
   -1.4130   23.9840  -27.7880 C   0  0  0  0  0  0  0  0  0  0  0  0
    0.1700   24.3790  -27.0990 S   0  0  0  0  0  0  0  0  0  0  0  0
    0.7030   23.1830  -26.3630 O   0  0  0  0  0  0  0  0  0  0  0  0
    1.1300   24.6980  -28.2100 O   0  0  0  0  0  0  0  0  0  0  0  0
    0.0900   25.7510  -26.0180 N   0  0  0  0  0  0  0  0  0  0  0  0
    0.2920   25.3270  -24.6220 C   0  0  0  0  0  0  0  0  0  0  0  0
   -0.0560   26.4720  -23.6460 C   0  0  0  0  0  0  0  0  0  0  0  0
   -0.1360   27.7090  -24.3270 O   0  0  0  0  0  0  0  0  0  0  0  0
   -1.2250   27.6860  -25.2360 C   0  0  0  0  0  0  0  0  0  0  0  0
   -1.1970   26.4470  -26.1560 C   0  0  0  0  0  0  0  0  0  0  0  0
   -2.0180   24.8360  -28.7310 C   0  0  0  0  0  0  0  0  0  0  0  0
   -1.4040   26.0370  -29.0660 O   0  0  0  0  0  0  0  0  0  0  0  0
   -6.0300   21.4010  -32.1740 C   0  0  0  0  0  0  0  0  0  0  0  0
   -4.7420   20.8750  -32.3020 O   0  0  0  0  0  0  0  0  0  0  0  0
   -7.2060   20.5940  -32.2500 C   0  0  0  0  0  0  0  0  0  0  0  0
   -7.0780   18.7990  -32.2940 S   0  0  0  0  0  0  0  0  0  0  0  0
   -8.2330   18.2030  -33.0480 O   0  0  0  0  0  0  0  0  0  0  0  0
   -7.1340   18.2090  -30.9150 O   0  0  0  0  0  0  0  0  0  0  0  0
   -5.5200   18.2670  -33.0340 C   0  0  0  0  0  0  0  0  0  0  0  0
   -5.5090   18.5160  -34.5600 C   0  0  0  0  0  0  0  0  0  0  0  0
   -4.6620   17.4890  -35.3390 C   0  0  0  0  0  0  0  0  0  0  0  0
   -3.4750   17.0350  -34.5870 N   0  0  0  0  0  0  0  0  0  0  0  0
   -2.4460   18.0850  -34.4910 C   0  0  0  0  0  0  0  0  0  0  0  0
   -3.7960   16.4280  -33.2700 C   0  0  0  0  0  0  0  0  0  0  0  0
   -5.1880   16.8050  -32.7200 C   0  0  0  0  0  0  0  0  0  0  0  0
  -10.2044   20.2773  -31.3489 H   0  0  0  0  0  0  0  0  0  0  0  0
  -10.4920   21.1455  -32.8950 H   0  0  0  0  0  0  0  0  0  0  0  0
   -9.6161   19.5772  -32.8950 H   0  0  0  0  0  0  0  0  0  0  0  0
   -9.5228   23.1177  -31.8678 H   0  0  0  0  0  0  0  0  0  0  0  0
   -7.4581   24.4464  -31.5384 H   0  0  0  0  0  0  0  0  0  0  0  0
   -4.9122   23.0884  -29.2726 H   0  0  0  0  0  0  0  0  0  0  0  0
   -3.8552   21.5944  -27.5822 H   0  0  0  0  0  0  0  0  0  0  0  0
   -1.6074   22.1430  -26.6565 H   0  0  0  0  0  0  0  0  0  0  0  0
   -0.3552   24.4631  -24.4101 H   0  0  0  0  0  0  0  0  0  0  0  0
    1.3492   25.0557  -24.4851 H   0  0  0  0  0  0  0  0  0  0  0  0
   -1.0253   26.2587  -23.1716 H   0  0  0  0  0  0  0  0  0  0  0  0
    0.7369   26.5396  -22.8866 H   0  0  0  0  0  0  0  0  0  0  0  0
   -2.1637   27.6792  -24.6626 H   0  0  0  0  0  0  0  0  0  0  0  0
   -1.1488   28.5791  -25.8736 H   0  0  0  0  0  0  0  0  0  0  0  0
   -2.0127   25.7649  -25.8742 H   0  0  0  0  0  0  0  0  0  0  0  0
   -1.3251   26.7681  -27.2003 H   0  0  0  0  0  0  0  0  0  0  0  0
   -3.8850   21.3830  -32.1720 H   0  0  0  0  0  0  0  0  0  0  0  0
   -4.7317   18.8819  -32.5753 H   0  0  0  0  0  0  0  0  0  0  0  0
   -6.5440   18.4671  -34.9293 H   0  0  0  0  0  0  0  0  0  0  0  0
   -5.0564   19.5048  -34.7258 H   0  0  0  0  0  0  0  0  0  0  0  0
   -5.2903   16.6147  -35.5645 H   0  0  0  0  0  0  0  0  0  0  0  0
   -4.3040   17.9827  -36.2545 H   0  0  0  0  0  0  0  0  0  0  0  0
   -2.2372   18.2981  -33.4322 H   0  0  0  0  0  0  0  0  0  0  0  0
   -1.5248   17.7418  -34.9846 H   0  0  0  0  0  0  0  0  0  0  0  0
   -2.8077   18.9991  -34.9846 H   0  0  0  0  0  0  0  0  0  0  0  0
   -3.7516   15.3339  -33.3748 H   0  0  0  0  0  0  0  0  0  0  0  0
   -3.0577   16.8189  -32.5543 H   0  0  0  0  0  0  0  0  0  0  0  0
   -5.9462   16.1558  -33.1823 H   0  0  0  0  0  0  0  0  0  0  0  0
   -5.1834   16.6715  -31.6281 H   0  0  0  0  0  0  0  0  0  0  0  0
  1  2  1  0
  2  3  2  0
  3  4  1  0
  4  5  2  0
  5  6  1  0
  6  7  1  0
  7  8  2  0
  7  9  1  0
  9 10  1  0
 10 11  2  0
 11 12  1  0
 12 13  2  0
 13 14  1  0
 14 15  1  0
 15 16  2  0
 15 17  2  0
 15 18  1  0
 18 19  1  0
 19 20  1  0
 20 21  1  0
 21 22  1  0
 22 23  1  0
 14 24  2  0
 24 25  1  0
  5 26  1  0
 26 27  1  0
 26 28  2  0
 28 29  1  0
 29 30  2  0
 29 31  2  0
 29 32  1  0
 32 33  1  0
 33 34  1  0
 34 35  1  0
 35 36  1  0
 35 37  1  0
 37 38  1  0
 28  2  1  0
 38 32  1  0
 24 10  1  0
 23 18  1  0
  1 39  1  0
  1 40  1  0
  1 41  1  0
  3 42  1  0
  4 43  1  0
 11 44  1  0
 12 45  1  0
 13 46  1  0
 19 47  1  0
 19 48  1  0
 20 49  1  0
 20 50  1  0
 22 51  1  0
 22 52  1  0
 23 53  1  0
 23 54  1  0
 27 55  1  0
 32 56  1  0
 33 57  1  0
 33 58  1  0
 34 59  1  0
 34 60  1  0
 36 61  1  0
 36 62  1  0
 36 63  1  0
 37 64  1  0
 37 65  1  0
 38 66  1  0
 38 67  1  0
M  CHG  3   6  -1   9  -1  25  -1
M  END
>  <UniqueID>  (43) 
42

>  <SMILES>  (43) 
Cc1ccc([N-]C(=O)[N-]c2cccc(S(=O)(=O)N3CCOCC3)c2[O-])c(O)c1S(=O)(=O)C1CCN(C)CC1

>  <Energy>  (43) 
101.63752370623783

>  <Genealogy>  (43) 
Cc1ccc([N-]C(=O)[N-]c2cccc(S(=O)(=O)N3CCOCC3)c2[O-])c(O)c1S(=O)(=O)C1CCN(C)CC1 (protonated)
Cc1ccc([N-]C(=O)[N-]c2cccc(S(=O)(=O)N3CCOCC3)c2[O-])c(O)c1S(=O)(=O)C1CCN(C)CC1 (3D coordinates assigned)
Cc1ccc([N-]C(=O)[N-]c2cccc(S(=O)(=O)N3CCOCC3)c2[O-])c(O)c1S(=O)(=O)C1CCN(C)CC1 (nonaromatic ring conformer: 101.63752370623783 kcal/mol)

>  <smiles>  (43) 
Cc1ccc(NC(=O)Nc2cccc(S(=O)(=O)N3CCOCC3)c2O)c(O)c1S(=O)(=O)C1CCN(C)CC1

>  <score_type>  (43) 
oracle

>  <origin>  (43) 
adgpu

>  <m_score__min__energy>  (43) 
-17.030000000000001

>  <m_primary>  (43) 
energy

$$$$
43:0
     RDKit          3D

 75 78  0  0  0  0  0  0  0  0999 V2000
   -0.5020   25.1870  -27.8420 C   0  0  0  0  0  0  0  0  0  0  0  0
   -0.4970   24.1370  -28.9520 C   0  0  0  0  0  0  0  0  0  0  0  0
   -1.2170   22.8790  -28.5160 C   0  0  0  0  0  0  0  0  0  0  0  0
   -0.4630   21.7110  -28.2930 C   0  0  0  0  0  0  0  0  0  0  0  0
   -1.0830   20.5380  -27.8510 C   0  0  0  0  0  0  0  0  0  0  0  0
   -2.4590   20.5120  -27.6330 C   0  0  0  0  0  0  0  0  0  0  0  0
   -3.2240   21.6570  -27.8720 C   0  0  0  0  0  0  0  0  0  0  0  0
   -2.6200   22.8430  -28.3170 C   0  0  0  0  0  0  0  0  0  0  0  0
   -3.4540   23.9770  -28.6170 N   0  0  0  0  0  0  0  0  0  0  0  0
   -4.3010   24.5140  -27.5370 C   0  0  0  0  0  0  0  0  0  0  0  0
   -3.4510   24.9470  -26.3470 C   0  0  0  0  0  0  0  0  0  0  0  0
   -3.8330   24.1790  -30.0250 C   0  0  0  0  0  0  0  0  0  0  0  0
   -4.9630   23.2730  -30.4360 C   0  0  0  0  0  0  0  0  0  0  0  0
   -6.2960   23.6590  -30.2250 C   0  0  0  0  0  0  0  0  0  0  0  0
   -7.3440   22.8500  -30.6710 C   0  0  0  0  0  0  0  0  0  0  0  0
   -7.0780   21.6410  -31.3280 C   0  0  0  0  0  0  0  0  0  0  0  0
   -8.4080   20.6090  -31.8700 S   0  0  0  0  0  0  0  0  0  0  0  0
   -9.0920   20.0140  -30.6680 O   0  0  0  0  0  0  0  0  0  0  0  0
   -9.4170   21.4450  -32.6110 O   0  0  0  0  0  0  0  0  0  0  0  0
   -7.8350   19.3150  -32.9010 N   0  0  0  0  0  0  0  0  0  0  0  0
   -6.8100   19.8310  -33.8370 C   0  0  0  0  0  0  0  0  0  0  0  0
   -5.9370   18.7030  -34.4220 C   0  0  0  0  0  0  0  0  0  0  0  0
   -5.2960   17.8660  -33.3720 N   0  0  0  0  0  0  0  0  0  0  0  0
   -3.8110   17.8420  -33.3710 C   0  0  0  0  0  0  0  0  0  0  0  0
   -3.2690   17.4450  -34.7550 C   0  0  0  0  0  0  0  0  0  0  0  0
   -1.7380   17.3200  -34.7050 C   0  0  0  0  0  0  0  0  0  0  0  0
   -1.0570   18.4590  -34.0280 N   0  0  0  0  0  0  0  0  0  0  0  0
   -0.2630   18.0170  -32.8710 C   0  0  0  0  0  0  0  0  0  0  0  0
   -1.9490   19.5900  -33.6810 C   0  0  0  0  0  0  0  0  0  0  0  0
   -3.1640   19.1530  -32.8450 C   0  0  0  0  0  0  0  0  0  0  0  0
   -5.8540   18.0520  -32.0170 C   0  0  0  0  0  0  0  0  0  0  0  0
   -7.3830   18.1500  -32.0920 C   0  0  0  0  0  0  0  0  0  0  0  0
   -5.7470   21.2500  -31.5310 C   0  0  0  0  0  0  0  0  0  0  0  0
   -4.6960   22.0560  -31.0820 C   0  0  0  0  0  0  0  0  0  0  0  0
   -0.4996   24.6856  -26.8629 H   0  0  0  0  0  0  0  0  0  0  0  0
    0.3931   25.8200  -27.9320 H   0  0  0  0  0  0  0  0  0  0  0  0
   -1.4031   25.8114  -27.9320 H   0  0  0  0  0  0  0  0  0  0  0  0
   -1.0000   24.5496  -29.8390 H   0  0  0  0  0  0  0  0  0  0  0  0
    0.5469   23.8792  -29.1841 H   0  0  0  0  0  0  0  0  0  0  0  0
    0.6230   21.7212  -28.4679 H   0  0  0  0  0  0  0  0  0  0  0  0
   -0.4827   19.6332  -27.6749 H   0  0  0  0  0  0  0  0  0  0  0  0
   -2.9424   19.5917  -27.2733 H   0  0  0  0  0  0  0  0  0  0  0  0
   -4.3116   21.6282  -27.7095 H   0  0  0  0  0  0  0  0  0  0  0  0
   -4.8607   25.3821  -27.9154 H   0  0  0  0  0  0  0  0  0  0  0  0
   -4.9940   23.7259  -27.2073 H   0  0  0  0  0  0  0  0  0  0  0  0
   -3.9677   24.6838  -25.4122 H   0  0  0  0  0  0  0  0  0  0  0  0
   -2.4785   24.4345  -26.3852 H   0  0  0  0  0  0  0  0  0  0  0  0
   -3.2938   26.0350  -26.3852 H   0  0  0  0  0  0  0  0  0  0  0  0
   -4.1468   25.2243  -30.1627 H   0  0  0  0  0  0  0  0  0  0  0  0
   -2.9602   23.9421  -30.6511 H   0  0  0  0  0  0  0  0  0  0  0  0
   -6.5165   24.6033  -29.7058 H   0  0  0  0  0  0  0  0  0  0  0  0
   -8.3851   23.1641  -30.5054 H   0  0  0  0  0  0  0  0  0  0  0  0
   -8.6580   19.0050  -33.4720 H   0  0  0  0  0  0  0  0  0  0  0  0
   -7.3150   20.3531  -34.6631 H   0  0  0  0  0  0  0  0  0  0  0  0
   -6.1523   20.5118  -33.2767 H   0  0  0  0  0  0  0  0  0  0  0  0
   -6.5703   18.0573  -35.0480 H   0  0  0  0  0  0  0  0  0  0  0  0
   -5.1329   19.1754  -35.0054 H   0  0  0  0  0  0  0  0  0  0  0  0
   -3.5137   17.0678  -32.6484 H   0  0  0  0  0  0  0  0  0  0  0  0
   -3.7036   16.4794  -35.0529 H   0  0  0  0  0  0  0  0  0  0  0  0
   -3.5439   18.2198  -35.4858 H   0  0  0  0  0  0  0  0  0  0  0  0
   -1.4842   16.3956  -34.1654 H   0  0  0  0  0  0  0  0  0  0  0  0
   -1.3858   17.3137  -35.7471 H   0  0  0  0  0  0  0  0  0  0  0  0
   -0.7777   18.3035  -31.9421 H   0  0  0  0  0  0  0  0  0  0  0  0
   -0.1456   16.9237  -32.9029 H   0  0  0  0  0  0  0  0  0  0  0  0
    0.7280   18.4932  -32.9029 H   0  0  0  0  0  0  0  0  0  0  0  0
   -1.3727   20.3287  -33.1047 H   0  0  0  0  0  0  0  0  0  0  0  0
   -2.3286   20.0145  -34.6221 H   0  0  0  0  0  0  0  0  0  0  0  0
   -2.8380   18.9930  -31.8067 H   0  0  0  0  0  0  0  0  0  0  0  0
   -3.9201   19.9489  -32.9149 H   0  0  0  0  0  0  0  0  0  0  0  0
   -5.5737   17.1955  -31.3862 H   0  0  0  0  0  0  0  0  0  0  0  0
   -5.4521   18.9797  -31.5836 H   0  0  0  0  0  0  0  0  0  0  0  0
   -7.7746   17.2290  -32.5485 H   0  0  0  0  0  0  0  0  0  0  0  0
   -7.7625   18.2835  -31.0682 H   0  0  0  0  0  0  0  0  0  0  0  0
   -5.5280   20.3034  -32.0467 H   0  0  0  0  0  0  0  0  0  0  0  0
   -3.6553   21.7346  -31.2359 H   0  0  0  0  0  0  0  0  0  0  0  0
  1  2  1  0
  2  3  1  0
  3  4  2  0
  4  5  1  0
  5  6  2  0
  6  7  1  0
  7  8  2  0
  8  9  1  0
  9 10  1  0
 10 11  1  0
  9 12  1  0
 12 13  1  0
 13 14  2  0
 14 15  1  0
 15 16  2  0
 16 17  1  0
 17 18  2  0
 17 19  2  0
 17 20  1  0
 20 21  1  0
 21 22  1  0
 22 23  1  0
 23 24  1  0
 24 25  1  0
 25 26  1  0
 26 27  1  0
 27 28  1  0
 27 29  1  0
 29 30  1  0
 23 31  1  0
 31 32  1  0
 16 33  1  0
 33 34  2  0
  8  3  1  0
 34 13  1  0
 32 20  1  0
 30 24  1  0
  1 35  1  0
  1 36  1  0
  1 37  1  0
  2 38  1  0
  2 39  1  0
  4 40  1  0
  5 41  1  0
  6 42  1  0
  7 43  1  0
 10 44  1  0
 10 45  1  0
 11 46  1  0
 11 47  1  0
 11 48  1  0
 12 49  1  0
 12 50  1  0
 14 51  1  0
 15 52  1  0
 20 53  1  0
 21 54  1  0
 21 55  1  0
 22 56  1  0
 22 57  1  0
 24 58  1  0
 25 59  1  0
 25 60  1  0
 26 61  1  0
 26 62  1  0
 28 63  1  0
 28 64  1  0
 28 65  1  0
 29 66  1  0
 29 67  1  0
 30 68  1  0
 30 69  1  0
 31 70  1  0
 31 71  1  0
 32 72  1  0
 32 73  1  0
 33 74  1  0
 34 75  1  0
M  CHG  1  20   1
M  END
>  <UniqueID>  (44) 
43

>  <SMILES>  (44) 
CCc1ccccc1N(CC)Cc1ccc(S(=O)(=O)[NH+]2CCN(C3CCN(C)CC3)CC2)cc1

>  <Energy>  (44) 
99.39437369469016

>  <Genealogy>  (44) 
CCc1ccccc1N(CC)Cc1ccc(S(=O)(=O)[NH+]2CCN(C3CCN(C)CC3)CC2)cc1 (protonated)
CCc1ccccc1N(CC)Cc1ccc(S(=O)(=O)[NH+]2CCN(C3CCN(C)CC3)CC2)cc1 (3D coordinates assigned)
CCc1ccccc1N(CC)Cc1ccc(S(=O)(=O)[NH+]2CCN(C3CCN(C)CC3)CC2)cc1 (nonaromatic ring conformer: 99.39437369469016 kcal/mol)

>  <smiles>  (44) 
CCc1ccccc1N(CC)Cc1ccc(S(=O)(=O)N2CCN(C3CCN(C)CC3)CC2)cc1

>  <score_type>  (44) 
oracle

>  <origin>  (44) 
adgpu

>  <m_score__min__energy>  (44) 
-9.8200000000000003

>  <m_primary>  (44) 
energy

$$$$
44:0
     RDKit          3D

 60 63  0  0  0  0  0  0  0  0999 V2000
   -9.0760   20.9150  -30.8790 O   0  0  0  0  0  0  0  0  0  0  0  0
   -7.9840   21.4790  -31.1620 C   0  0  0  0  0  0  0  0  0  0  0  0
   -7.5450   22.6700  -30.3640 C   0  0  0  0  0  0  0  0  0  0  0  0
   -7.0980   23.8040  -31.2930 C   0  0  0  0  0  0  0  0  0  0  0  0
   -5.7470   23.5140  -31.9650 C   0  0  0  0  0  0  0  0  0  0  0  0
   -4.6540   23.4030  -30.9750 N   0  0  0  0  0  0  0  0  0  0  0  0
   -4.0560   24.5320  -30.4690 C   0  0  0  0  0  0  0  0  0  0  0  0
   -4.4210   25.6800  -30.8420 O   0  0  0  0  0  0  0  0  0  0  0  0
   -3.0640   24.4330  -29.5490 N   0  0  0  0  0  0  0  0  0  0  0  0
   -2.6310   23.2320  -29.1000 C   0  0  0  0  0  0  0  0  0  0  0  0
   -1.6100   23.1690  -28.1470 C   0  0  0  0  0  0  0  0  0  0  0  0
   -1.1650   21.9290  -27.6750 C   0  0  0  0  0  0  0  0  0  0  0  0
   -1.7420   20.7500  -28.1560 C   0  0  0  0  0  0  0  0  0  0  0  0
   -2.7640   20.8050  -29.1110 C   0  0  0  0  0  0  0  0  0  0  0  0
   -3.2180   22.0510  -29.5890 C   0  0  0  0  0  0  0  0  0  0  0  0
   -4.2470   22.1640  -30.5400 C   0  0  0  0  0  0  0  0  0  0  0  0
   -4.7960   21.1200  -30.9940 O   0  0  0  0  0  0  0  0  0  0  0  0
   -7.1630   20.9760  -32.2250 N   0  0  0  0  0  0  0  0  0  0  0  0
   -7.3270   19.6340  -32.7740 C   0  0  0  0  0  0  0  0  0  0  0  0
   -5.9830   19.0610  -33.1030 C   0  0  0  0  0  0  0  0  0  0  0  0
   -5.7040   17.7090  -32.8650 C   0  0  0  0  0  0  0  0  0  0  0  0
   -4.4210   17.2200  -33.1200 C   0  0  0  0  0  0  0  0  0  0  0  0
   -3.4280   18.0780  -33.6020 C   0  0  0  0  0  0  0  0  0  0  0  0
   -1.8040   17.4610  -33.8930 S   0  0  0  0  0  0  0  0  0  0  0  0
   -1.4420   17.6370  -35.3410 O   0  0  0  0  0  0  0  0  0  0  0  0
   -1.7840   15.9960  -33.5620 O   0  0  0  0  0  0  0  0  0  0  0  0
   -0.6780   18.3310  -32.8770 N   0  0  0  0  0  0  0  0  0  0  0  0
   -1.3730   19.1870  -31.8800 C   0  0  0  0  0  0  0  0  0  0  0  0
   -1.0960   20.6930  -32.0450 C   0  0  0  0  0  0  0  0  0  0  0  0
   -1.1650   21.0930  -33.5170 C   0  0  0  0  0  0  0  0  0  0  0  0
   -0.1780   20.2850  -34.3800 C   0  0  0  0  0  0  0  0  0  0  0  0
    0.3550   19.0250  -33.6700 C   0  0  0  0  0  0  0  0  0  0  0  0
   -3.7430   19.4240  -33.8200 C   0  0  0  0  0  0  0  0  0  0  0  0
   -4.9970   19.8810  -33.5610 N   0  0  0  0  0  0  0  0  0  0  0  0
   -8.3838   23.0194  -29.7441 H   0  0  0  0  0  0  0  0  0  0  0  0
   -6.6977   22.3780  -29.7262 H   0  0  0  0  0  0  0  0  0  0  0  0
   -7.8593   23.9405  -32.0752 H   0  0  0  0  0  0  0  0  0  0  0  0
   -6.9802   24.7109  -30.6818 H   0  0  0  0  0  0  0  0  0  0  0  0
   -5.8216   22.5676  -32.5207 H   0  0  0  0  0  0  0  0  0  0  0  0
   -5.5138   24.3511  -32.6395 H   0  0  0  0  0  0  0  0  0  0  0  0
   -1.1555   24.0960  -27.7674 H   0  0  0  0  0  0  0  0  0  0  0  0
   -0.3612   21.8820  -26.9255 H   0  0  0  0  0  0  0  0  0  0  0  0
   -1.3919   19.7762  -27.7829 H   0  0  0  0  0  0  0  0  0  0  0  0
   -3.2134   19.8748  -29.4889 H   0  0  0  0  0  0  0  0  0  0  0  0
   -6.3070   21.5110  -32.4990 H   0  0  0  0  0  0  0  0  0  0  0  0
   -7.8272   18.9933  -32.0328 H   0  0  0  0  0  0  0  0  0  0  0  0
   -7.9377   19.6839  -33.6875 H   0  0  0  0  0  0  0  0  0  0  0  0
   -6.4876   17.0393  -32.4811 H   0  0  0  0  0  0  0  0  0  0  0  0
   -4.1916   16.1591  -32.9415 H   0  0  0  0  0  0  0  0  0  0  0  0
   -2.4561   19.0219  -31.9777 H   0  0  0  0  0  0  0  0  0  0  0  0
   -0.9879   18.8994  -30.8905 H   0  0  0  0  0  0  0  0  0  0  0  0
   -1.8479   21.2631  -31.4796 H   0  0  0  0  0  0  0  0  0  0  0  0
   -0.0875   20.9123  -31.6644 H   0  0  0  0  0  0  0  0  0  0  0  0
   -2.1863   20.9166  -33.8857 H   0  0  0  0  0  0  0  0  0  0  0  0
   -0.8929   22.1561  -33.5939 H   0  0  0  0  0  0  0  0  0  0  0  0
   -0.6913   19.9762  -35.3026 H   0  0  0  0  0  0  0  0  0  0  0  0
    0.6851   20.9349  -34.5865 H   0  0  0  0  0  0  0  0  0  0  0  0
    0.7391   18.3297  -34.4309 H   0  0  0  0  0  0  0  0  0  0  0  0
    1.1434   19.3475  -32.9740 H   0  0  0  0  0  0  0  0  0  0  0  0
   -2.9751   20.1131  -34.2014 H   0  0  0  0  0  0  0  0  0  0  0  0
  1  2  2  0
  2  3  1  0
  3  4  1  0
  4  5  1  0
  5  6  1  0
  6  7  1  0
  7  8  2  0
  7  9  1  0
  9 10  1  0
 10 11  2  0
 11 12  1  0
 12 13  2  0
 13 14  1  0
 14 15  2  0
 15 16  1  0
 16 17  2  0
  2 18  1  0
 18 19  1  0
 19 20  1  0
 20 21  2  0
 21 22  1  0
 22 23  2  0
 23 24  1  0
 24 25  2  0
 24 26  2  0
 24 27  1  0
 27 28  1  0
 28 29  1  0
 29 30  1  0
 30 31  1  0
 31 32  1  0
 23 33  1  0
 33 34  2  0
 16  6  1  0
 34 20  1  0
 15 10  1  0
 32 27  1  0
  3 35  1  0
  3 36  1  0
  4 37  1  0
  4 38  1  0
  5 39  1  0
  5 40  1  0
 11 41  1  0
 12 42  1  0
 13 43  1  0
 14 44  1  0
 18 45  1  0
 19 46  1  0
 19 47  1  0
 21 48  1  0
 22 49  1  0
 28 50  1  0
 28 51  1  0
 29 52  1  0
 29 53  1  0
 30 54  1  0
 30 55  1  0
 31 56  1  0
 31 57  1  0
 32 58  1  0
 32 59  1  0
 33 60  1  0
M  CHG  1   9  -1
M  END
>  <UniqueID>  (45) 
44

>  <SMILES>  (45) 
O=C(CCCn1c(=O)[n-]c2ccccc2c1=O)NCc1ccc(S(=O)(=O)N2CCCCC2)cn1

>  <Energy>  (45) 
71.63217415061449

>  <Genealogy>  (45) 
O=C(CCCn1c(=O)[n-]c2ccccc2c1=O)NCc1ccc(S(=O)(=O)N2CCCCC2)cn1 (protonated)
O=C(CCCn1c(=O)[n-]c2ccccc2c1=O)NCc1ccc(S(=O)(=O)N2CCCCC2)cn1 (3D coordinates assigned)
O=C(CCCn1c(=O)[n-]c2ccccc2c1=O)NCc1ccc(S(=O)(=O)N2CCCCC2)cn1 (nonaromatic ring conformer: 71.63217415061449 kcal/mol)

>  <smiles>  (45) 
O=C(CCCn1c(=O)[nH]c2ccccc2c1=O)NCc1ccc(S(=O)(=O)N2CCCCC2)cn1

>  <score_type>  (45) 
oracle

>  <origin>  (45) 
adgpu

>  <m_score__min__energy>  (45) 
-10.550000000000001

>  <m_primary>  (45) 
energy

$$$$
45:0
     RDKit          3D

 69 74  0  0  0  0  0  0  0  0999 V2000
   -0.2120   26.7360  -23.0190 C   0  0  0  0  0  0  0  0  0  0  0  0
   -0.3990   25.7400  -24.0840 N   0  0  0  0  0  0  0  0  0  0  0  0
    0.8990   25.1380  -24.4480 C   0  0  0  0  0  0  0  0  0  0  0  0
    0.6760   23.9580  -25.3970 C   0  0  0  0  0  0  0  0  0  0  0  0
   -0.2380   24.3300  -26.5350 C   0  0  0  0  0  0  0  0  0  0  0  0
   -0.2520   23.5400  -27.6930 C   0  0  0  0  0  0  0  0  0  0  0  0
   -1.0500   23.9000  -28.7870 C   0  0  0  0  0  0  0  0  0  0  0  0
   -0.9320   23.2070  -30.0320 N   0  0  0  0  0  0  0  0  0  0  0  0
   -2.2520   22.3150  -30.7260 S   0  0  0  0  0  0  0  0  0  0  0  0
   -3.2580   23.2810  -31.2870 O   0  0  0  0  0  0  0  0  0  0  0  0
   -2.9150   21.4910  -29.6550 O   0  0  0  0  0  0  0  0  0  0  0  0
   -1.6880   21.2520  -32.0140 C   0  0  0  0  0  0  0  0  0  0  0  0
   -0.3050   21.1710  -32.3090 C   0  0  0  0  0  0  0  0  0  0  0  0
    0.1680   20.2590  -33.2700 C   0  0  0  0  0  0  0  0  0  0  0  0
   -0.7630   19.4450  -33.9070 C   0  0  0  0  0  0  0  0  0  0  0  0
   -0.5300   18.4960  -34.8270 N   0  0  0  0  0  0  0  0  0  0  0  0
   -1.6990   17.9430  -35.1350 N   0  0  0  0  0  0  0  0  0  0  0  0
   -2.6810   18.5460  -34.4250 C   0  0  0  0  0  0  0  0  0  0  0  0
   -4.1110   18.0810  -34.4500 C   0  0  0  0  0  0  0  0  0  0  0  0
   -4.3330   16.8300  -33.6250 C   0  0  0  0  0  0  0  0  0  0  0  0
   -3.6640   15.6600  -34.0330 C   0  0  0  0  0  0  0  0  0  0  0  0
   -3.8090   14.4710  -33.3190 C   0  0  0  0  0  0  0  0  0  0  0  0
   -4.6110   14.4330  -32.1800 C   0  0  0  0  0  0  0  0  0  0  0  0
   -5.2680   15.5850  -31.7490 C   0  0  0  0  0  0  0  0  0  0  0  0
   -5.1600   16.7910  -32.4650 C   0  0  0  0  0  0  0  0  0  0  0  0
   -6.0230   18.2340  -31.8720 S   0  0  0  0  0  0  0  0  0  0  0  0
   -7.0330   17.7810  -30.8540 O   0  0  0  0  0  0  0  0  0  0  0  0
   -5.0480   19.1690  -31.2090 O   0  0  0  0  0  0  0  0  0  0  0  0
   -6.9080   19.1600  -33.1320 C   0  0  0  0  0  0  0  0  0  0  0  0
   -7.3570   20.5130  -32.6350 C   0  0  0  0  0  0  0  0  0  0  0  0
   -6.4670   21.6020  -32.5980 C   0  0  0  0  0  0  0  0  0  0  0  0
   -6.9040   22.8590  -32.1710 C   0  0  0  0  0  0  0  0  0  0  0  0
   -8.2390   23.0460  -31.7950 C   0  0  0  0  0  0  0  0  0  0  0  0
   -9.1340   21.9740  -31.8390 C   0  0  0  0  0  0  0  0  0  0  0  0
   -8.6980   20.7120  -32.2550 C   0  0  0  0  0  0  0  0  0  0  0  0
   -2.0980   19.5120  -33.6240 C   0  0  0  0  0  0  0  0  0  0  0  0
   -2.6010   20.4110  -32.6810 C   0  0  0  0  0  0  0  0  0  0  0  0
   -1.9460   24.9680  -28.6660 C   0  0  0  0  0  0  0  0  0  0  0  0
   -2.7940   25.2890  -29.7170 O   0  0  0  0  0  0  0  0  0  0  0  0
   -1.9730   25.7350  -27.4960 C   0  0  0  0  0  0  0  0  0  0  0  0
   -1.1070   25.4370  -26.4340 C   0  0  0  0  0  0  0  0  0  0  0  0
   -1.0090   26.3850  -25.2660 C   0  0  0  0  0  0  0  0  0  0  0  0
   -0.3040   26.2460  -22.0385 H   0  0  0  0  0  0  0  0  0  0  0  0
    0.7867   27.1879  -23.1108 H   0  0  0  0  0  0  0  0  0  0  0  0
   -0.9788   27.5194  -23.1108 H   0  0  0  0  0  0  0  0  0  0  0  0
    1.5250   25.8933  -24.9455 H   0  0  0  0  0  0  0  0  0  0  0  0
    1.4018   24.7811  -23.5370 H   0  0  0  0  0  0  0  0  0  0  0  0
    1.6462   23.6406  -25.8069 H   0  0  0  0  0  0  0  0  0  0  0  0
    0.2053   23.1422  -24.8287 H   0  0  0  0  0  0  0  0  0  0  0  0
    0.3671   22.6322  -27.7431 H   0  0  0  0  0  0  0  0  0  0  0  0
    0.4046   21.8262  -31.7826 H   0  0  0  0  0  0  0  0  0  0  0  0
    1.2394   20.1917  -33.5100 H   0  0  0  0  0  0  0  0  0  0  0  0
   -4.7491   18.8834  -34.0513 H   0  0  0  0  0  0  0  0  0  0  0  0
   -4.3642   17.8406  -35.4931 H   0  0  0  0  0  0  0  0  0  0  0  0
   -3.0201   15.6842  -34.9245 H   0  0  0  0  0  0  0  0  0  0  0  0
   -3.2895   13.5616  -33.6554 H   0  0  0  0  0  0  0  0  0  0  0  0
   -4.7259   13.4931  -31.6202 H   0  0  0  0  0  0  0  0  0  0  0  0
   -5.8798   15.5502  -30.8355 H   0  0  0  0  0  0  0  0  0  0  0  0
   -6.2449   19.3028  -33.9980 H   0  0  0  0  0  0  0  0  0  0  0  0
   -7.8054   18.5857  -33.4055 H   0  0  0  0  0  0  0  0  0  0  0  0
   -5.4205   21.4632  -32.9071 H   0  0  0  0  0  0  0  0  0  0  0  0
   -6.1983   23.7018  -32.1304 H   0  0  0  0  0  0  0  0  0  0  0  0
   -8.5837   24.0370  -31.4648 H   0  0  0  0  0  0  0  0  0  0  0  0
  -10.1837   22.1230  -31.5458 H   0  0  0  0  0  0  0  0  0  0  0  0
   -9.4062   19.8708  -32.2855 H   0  0  0  0  0  0  0  0  0  0  0  0
   -3.6785   20.4611  -32.4652 H   0  0  0  0  0  0  0  0  0  0  0  0
   -2.6769   26.5758  -27.4088 H   0  0  0  0  0  0  0  0  0  0  0  0
   -0.3924   27.2477  -25.5586 H   0  0  0  0  0  0  0  0  0  0  0  0
   -2.0276   26.7001  -24.9955 H   0  0  0  0  0  0  0  0  0  0  0  0
  1  2  1  0
  2  3  1  0
  3  4  1  0
  4  5  1  0
  5  6  2  0
  6  7  1  0
  7  8  1  0
  8  9  1  0
  9 10  2  0
  9 11  2  0
  9 12  1  0
 12 13  1  0
 13 14  2  0
 14 15  1  0
 15 16  2  0
 16 17  1  0
 17 18  1  0
 18 19  1  0
 19 20  1  0
 20 21  2  0
 21 22  1  0
 22 23  2  0
 23 24  1  0
 24 25  2  0
 25 26  1  0
 26 27  2  0
 26 28  2  0
 26 29  1  0
 29 30  1  0
 30 31  2  0
 31 32  1  0
 32 33  2  0
 33 34  1  0
 34 35  2  0
 18 36  2  0
 36 37  1  0
  7 38  2  0
 38 39  1  0
 38 40  1  0
 40 41  2  0
 41 42  1  0
 42  2  1  0
 41  5  1  0
 37 12  2  0
 36 15  1  0
 25 20  1  0
 35 30  1  0
  1 43  1  0
  1 44  1  0
  1 45  1  0
  3 46  1  0
  3 47  1  0
  4 48  1  0
  4 49  1  0
  6 50  1  0
 13 51  1  0
 14 52  1  0
 19 53  1  0
 19 54  1  0
 21 55  1  0
 22 56  1  0
 23 57  1  0
 24 58  1  0
 29 59  1  0
 29 60  1  0
 31 61  1  0
 32 62  1  0
 33 63  1  0
 34 64  1  0
 35 65  1  0
 37 66  1  0
 40 67  1  0
 42 68  1  0
 42 69  1  0
M  CHG  3   8  -1  17  -1  39  -1
M  END
>  <UniqueID>  (46) 
45

>  <SMILES>  (46) 
CN1CCc2cc([N-]S(=O)(=O)c3ccc4n[n-]c(Cc5ccccc5S(=O)(=O)Cc5ccccc5)c4c3)c([O-])cc2C1

>  <Energy>  (46) 
121.70881336444755

>  <Genealogy>  (46) 
CN1CCc2cc([N-]S(=O)(=O)c3ccc4n[n-]c(Cc5ccccc5S(=O)(=O)Cc5ccccc5)c4c3)c([O-])cc2C1 (protonated)
CN1CCc2cc([N-]S(=O)(=O)c3ccc4n[n-]c(Cc5ccccc5S(=O)(=O)Cc5ccccc5)c4c3)c([O-])cc2C1 (3D coordinates assigned)
CN1CCc2cc([N-]S(=O)(=O)c3ccc4n[n-]c(Cc5ccccc5S(=O)(=O)Cc5ccccc5)c4c3)c([O-])cc2C1 (nonaromatic ring conformer: 121.70881336444755 kcal/mol)

>  <smiles>  (46) 
CN1CCc2cc(NS(=O)(=O)c3ccc4n[nH]c(Cc5ccccc5S(=O)(=O)Cc5ccccc5)c4c3)c(O)cc2C1

>  <score_type>  (46) 
oracle

>  <origin>  (46) 
adgpu

>  <m_score__min__energy>  (46) 
-14.92

>  <m_primary>  (46) 
energy

$$$$
46:0
     RDKit          3D

 46 48  0  0  0  0  0  0  0  0999 V2000
   -6.2870   14.5320  -34.2100 C   0  0  0  0  0  0  0  0  0  0  0  0
   -6.8940   15.7700  -34.5690 O   0  0  0  0  0  0  0  0  0  0  0  0
   -6.5790   17.0040  -33.9800 C   0  0  0  0  0  0  0  0  0  0  0  0
   -5.7350   17.9490  -34.6010 C   0  0  0  0  0  0  0  0  0  0  0  0
   -5.4590   19.1690  -33.9750 C   0  0  0  0  0  0  0  0  0  0  0  0
   -6.0210   19.4720  -32.7190 C   0  0  0  0  0  0  0  0  0  0  0  0
   -5.7490   20.7790  -32.0600 C   0  0  0  0  0  0  0  0  0  0  0  0
   -6.5020   21.9210  -32.3950 C   0  0  0  0  0  0  0  0  0  0  0  0
   -6.2190   23.1550  -31.8030 C   0  0  0  0  0  0  0  0  0  0  0  0
   -5.1870   23.2690  -30.8640 C   0  0  0  0  0  0  0  0  0  0  0  0
   -4.8060   24.8500  -30.1890 S   0  0  0  0  0  0  0  0  0  0  0  0
   -5.6290   25.1280  -28.9620 O   0  0  0  0  0  0  0  0  0  0  0  0
   -5.1070   25.8980  -31.2240 O   0  0  0  0  0  0  0  0  0  0  0  0
   -3.1200   24.9030  -29.7980 N   0  0  0  0  0  0  0  0  0  0  0  0
   -2.5240   23.9890  -28.8730 C   0  0  0  0  0  0  0  0  0  0  0  0
   -2.7230   23.9650  -27.5080 C   0  0  0  0  0  0  0  0  0  0  0  0
   -3.5710   24.9110  -26.7170 C   0  0  0  0  0  0  0  0  0  0  0  0
   -1.9140   23.0370  -26.9550 N   0  0  0  0  0  0  0  0  0  0  0  0
   -1.2310   22.4620  -27.9410 N   0  0  0  0  0  0  0  0  0  0  0  0
   -0.2700   21.3830  -27.7250 C   0  0  0  0  0  0  0  0  0  0  0  0
   -1.5840   23.0050  -29.1280 C   0  0  0  0  0  0  0  0  0  0  0  0
   -1.0200   22.6180  -30.4610 C   0  0  0  0  0  0  0  0  0  0  0  0
   -4.4430   22.1350  -30.5110 C   0  0  0  0  0  0  0  0  0  0  0  0
   -4.7180   20.9000  -31.1060 C   0  0  0  0  0  0  0  0  0  0  0  0
   -6.8580   18.5230  -32.1050 C   0  0  0  0  0  0  0  0  0  0  0  0
   -7.1290   17.3030  -32.7300 C   0  0  0  0  0  0  0  0  0  0  0  0
   -6.2458   14.4480  -33.1140 H   0  0  0  0  0  0  0  0  0  0  0  0
   -6.8797   13.7007  -34.6194 H   0  0  0  0  0  0  0  0  0  0  0  0
   -5.2668   14.4915  -34.6194 H   0  0  0  0  0  0  0  0  0  0  0  0
   -5.2918   17.7251  -35.5825 H   0  0  0  0  0  0  0  0  0  0  0  0
   -4.7980   19.8976  -34.4671 H   0  0  0  0  0  0  0  0  0  0  0  0
   -7.3186   21.8412  -33.1277 H   0  0  0  0  0  0  0  0  0  0  0  0
   -6.8103   24.0414  -32.0763 H   0  0  0  0  0  0  0  0  0  0  0  0
   -3.4129   24.7346  -25.6428 H   0  0  0  0  0  0  0  0  0  0  0  0
   -3.2929   25.9464  -26.9634 H   0  0  0  0  0  0  0  0  0  0  0  0
   -4.6305   24.7474  -26.9634 H   0  0  0  0  0  0  0  0  0  0  0  0
   -0.1308   21.2267  -26.6451 H   0  0  0  0  0  0  0  0  0  0  0  0
   -0.6485   20.4576  -28.1836 H   0  0  0  0  0  0  0  0  0  0  0  0
    0.6929   21.6523  -28.1836 H   0  0  0  0  0  0  0  0  0  0  0  0
   -0.1212   22.0012  -30.3138 H   0  0  0  0  0  0  0  0  0  0  0  0
   -1.7705   22.0437  -31.0240 H   0  0  0  0  0  0  0  0  0  0  0  0
   -0.7542   23.5249  -31.0240 H   0  0  0  0  0  0  0  0  0  0  0  0
   -3.6402   22.2168  -29.7635 H   0  0  0  0  0  0  0  0  0  0  0  0
   -4.1254   20.0160  -30.8277 H   0  0  0  0  0  0  0  0  0  0  0  0
   -7.3034   18.7433  -31.1236 H   0  0  0  0  0  0  0  0  0  0  0  0
   -7.7819   16.5702  -32.2333 H   0  0  0  0  0  0  0  0  0  0  0  0
  1  2  1  0
  2  3  1  0
  3  4  2  0
  4  5  1  0
  5  6  2  0
  6  7  1  0
  7  8  2  0
  8  9  1  0
  9 10  2  0
 10 11  1  0
 11 12  2  0
 11 13  2  0
 11 14  1  0
 14 15  1  0
 15 16  1  0
 16 17  1  0
 16 18  2  0
 18 19  1  0
 19 20  1  0
 19 21  1  0
 21 22  1  0
 10 23  1  0
 23 24  2  0
  6 25  1  0
 25 26  2  0
 26  3  1  0
 24  7  1  0
 21 15  2  0
  1 27  1  0
  1 28  1  0
  1 29  1  0
  4 30  1  0
  5 31  1  0
  8 32  1  0
  9 33  1  0
 17 34  1  0
 17 35  1  0
 17 36  1  0
 20 37  1  0
 20 38  1  0
 20 39  1  0
 22 40  1  0
 22 41  1  0
 22 42  1  0
 23 43  1  0
 24 44  1  0
 25 45  1  0
 26 46  1  0
M  CHG  1  14  -1
M  END
>  <UniqueID>  (47) 
46

>  <SMILES>  (47) 
COc1ccc(-c2ccc(S(=O)(=O)[N-]c3c(C)nn(C)c3C)cc2)cc1

>  <Energy>  (47) 
88.5337244335967

>  <Genealogy>  (47) 
COc1ccc(-c2ccc(S(=O)(=O)[N-]c3c(C)nn(C)c3C)cc2)cc1 (protonated)
COc1ccc(-c2ccc(S(=O)(=O)[N-]c3c(C)nn(C)c3C)cc2)cc1 (3D coordinates assigned)
COc1ccc(-c2ccc(S(=O)(=O)[N-]c3c(C)nn(C)c3C)cc2)cc1 (optimized conformer: 88.5337244335967 kcal/mol)

>  <smiles>  (47) 
COc1ccc(-c2ccc(S(=O)(=O)Nc3c(C)nn(C)c3C)cc2)cc1

>  <score_type>  (47) 
oracle

>  <origin>  (47) 
adgpu

>  <m_score__min__energy>  (47) 
-9.8599999999999994

>  <m_primary>  (47) 
energy

$$$$
47:0
     RDKit          3D

 47 49  0  0  0  0  0  0  0  0999 V2000
   -3.8880   25.5000  -30.7070 O   0  0  0  0  0  0  0  0  0  0  0  0
   -4.1870   24.0900  -30.2810 S   0  0  0  0  0  0  0  0  0  0  0  0
   -5.4900   24.0860  -29.5310 O   0  0  0  0  0  0  0  0  0  0  0  0
   -4.3520   23.0960  -31.7030 N   0  0  0  0  0  0  0  0  0  0  0  0
   -4.8590   21.7590  -31.3780 C   0  0  0  0  0  0  0  0  0  0  0  0
   -6.3420   21.6580  -31.6190 C   0  0  0  0  0  0  0  0  0  0  0  0
   -7.1280   22.8190  -31.6740 C   0  0  0  0  0  0  0  0  0  0  0  0
   -8.5080   22.7260  -31.8780 C   0  0  0  0  0  0  0  0  0  0  0  0
   -9.1110   21.4740  -32.0270 C   0  0  0  0  0  0  0  0  0  0  0  0
   -8.3350   20.3130  -31.9740 C   0  0  0  0  0  0  0  0  0  0  0  0
   -6.9530   20.4020  -31.7730 C   0  0  0  0  0  0  0  0  0  0  0  0
   -2.8580   23.5210  -29.2610 C   0  0  0  0  0  0  0  0  0  0  0  0
   -2.8910   22.1980  -28.8000 C   0  0  0  0  0  0  0  0  0  0  0  0
   -1.8860   21.7130  -27.9530 C   0  0  0  0  0  0  0  0  0  0  0  0
   -1.9730   20.0760  -27.3090 S   0  0  0  0  0  0  0  0  0  0  0  0
   -1.2650   20.0130  -25.9840 O   0  0  0  0  0  0  0  0  0  0  0  0
   -3.4180   19.7180  -27.0990 O   0  0  0  0  0  0  0  0  0  0  0  0
   -1.2370   18.9730  -28.4510 N   0  0  0  0  0  0  0  0  0  0  0  0
   -0.8400   19.6570  -29.7100 C   0  0  0  0  0  0  0  0  0  0  0  0
    0.6710   19.6120  -29.9980 C   0  0  0  0  0  0  0  0  0  0  0  0
    1.4640   19.9300  -28.7330 C   0  0  0  0  0  0  0  0  0  0  0  0
    1.1260   18.9640  -27.5840 C   0  0  0  0  0  0  0  0  0  0  0  0
   -0.1700   18.1660  -27.8250 C   0  0  0  0  0  0  0  0  0  0  0  0
   -0.8330   22.5540  -27.5760 C   0  0  0  0  0  0  0  0  0  0  0  0
   -0.7810   23.8670  -28.0500 C   0  0  0  0  0  0  0  0  0  0  0  0
   -1.7870   24.3570  -28.8890 C   0  0  0  0  0  0  0  0  0  0  0  0
   -1.7080   25.6690  -29.3390 O   0  0  0  0  0  0  0  0  0  0  0  0
   -4.3433   21.0184  -32.0070 H   0  0  0  0  0  0  0  0  0  0  0  0
   -4.6686   21.5673  -30.3117 H   0  0  0  0  0  0  0  0  0  0  0  0
   -6.6567   23.8059  -31.5562 H   0  0  0  0  0  0  0  0  0  0  0  0
   -9.1198   23.6391  -31.9213 H   0  0  0  0  0  0  0  0  0  0  0  0
  -10.1971   21.4024  -32.1861 H   0  0  0  0  0  0  0  0  0  0  0  0
   -8.8110   19.3282  -32.0904 H   0  0  0  0  0  0  0  0  0  0  0  0
   -6.3437   19.4869  -31.7355 H   0  0  0  0  0  0  0  0  0  0  0  0
   -3.7133   21.5345  -29.1059 H   0  0  0  0  0  0  0  0  0  0  0  0
   -1.3660   19.1739  -30.5466 H   0  0  0  0  0  0  0  0  0  0  0  0
   -1.1103   20.7170  -29.5948 H   0  0  0  0  0  0  0  0  0  0  0  0
    0.9425   18.6068  -30.3528 H   0  0  0  0  0  0  0  0  0  0  0  0
    0.9100   20.3617  -30.7666 H   0  0  0  0  0  0  0  0  0  0  0  0
    2.5380   19.8526  -28.9580 H   0  0  0  0  0  0  0  0  0  0  0  0
    1.1977   20.9477  -28.4114 H   0  0  0  0  0  0  0  0  0  0  0  0
    1.9578   18.2536  -27.4680 H   0  0  0  0  0  0  0  0  0  0  0  0
    0.9732   19.5714  -26.6797 H   0  0  0  0  0  0  0  0  0  0  0  0
    0.0593   17.3161  -28.4846 H   0  0  0  0  0  0  0  0  0  0  0  0
   -0.5404   17.8359  -26.8432 H   0  0  0  0  0  0  0  0  0  0  0  0
   -0.0450   22.1806  -26.9054 H   0  0  0  0  0  0  0  0  0  0  0  0
    0.0563   24.5195  -27.7616 H   0  0  0  0  0  0  0  0  0  0  0  0
  1  2  2  0
  2  3  2  0
  2  4  1  0
  4  5  1  0
  5  6  1  0
  6  7  2  0
  7  8  1  0
  8  9  2  0
  9 10  1  0
 10 11  2  0
  2 12  1  0
 12 13  2  0
 13 14  1  0
 14 15  1  0
 15 16  2  0
 15 17  2  0
 15 18  1  0
 18 19  1  0
 19 20  1  0
 20 21  1  0
 21 22  1  0
 22 23  1  0
 14 24  2  0
 24 25  1  0
 25 26  2  0
 26 27  1  0
 11  6  1  0
 26 12  1  0
 23 18  1  0
  5 28  1  0
  5 29  1  0
  7 30  1  0
  8 31  1  0
  9 32  1  0
 10 33  1  0
 11 34  1  0
 13 35  1  0
 19 36  1  0
 19 37  1  0
 20 38  1  0
 20 39  1  0
 21 40  1  0
 21 41  1  0
 22 42  1  0
 22 43  1  0
 23 44  1  0
 23 45  1  0
 24 46  1  0
 25 47  1  0
M  CHG  2   4  -1  27  -1
M  END
>  <UniqueID>  (48) 
47

>  <SMILES>  (48) 
O=S(=O)([N-]Cc1ccccc1)c1cc(S(=O)(=O)N2CCCCC2)ccc1[O-]

>  <Energy>  (48) 
54.535083246311615

>  <Genealogy>  (48) 
O=S(=O)([N-]Cc1ccccc1)c1cc(S(=O)(=O)N2CCCCC2)ccc1[O-] (protonated)
O=S(=O)([N-]Cc1ccccc1)c1cc(S(=O)(=O)N2CCCCC2)ccc1[O-] (3D coordinates assigned)
O=S(=O)([N-]Cc1ccccc1)c1cc(S(=O)(=O)N2CCCCC2)ccc1[O-] (nonaromatic ring conformer: 54.535083246311615 kcal/mol)

>  <smiles>  (48) 
O=S(=O)(NCc1ccccc1)c1cc(S(=O)(=O)N2CCCCC2)ccc1O

>  <score_type>  (48) 
oracle

>  <origin>  (48) 
adgpu

>  <m_score__min__energy>  (48) 
-12.93

>  <m_primary>  (48) 
energy

$$$$
48:0
     RDKit          3D

 39 41  0  0  0  0  0  0  0  0999 V2000
   -0.6010   23.3260  -28.0050 C   0  0  0  0  0  0  0  0  0  0  0  0
   -1.9410   23.3190  -28.7010 C   0  0  0  0  0  0  0  0  0  0  0  0
   -2.7530   22.1590  -28.7510 C   0  0  0  0  0  0  0  0  0  0  0  0
   -2.3370   20.8640  -28.1700 C   0  0  0  0  0  0  0  0  0  0  0  0
   -3.0900   20.2500  -27.1570 C   0  0  0  0  0  0  0  0  0  0  0  0
   -2.6520   19.0410  -26.6110 C   0  0  0  0  0  0  0  0  0  0  0  0
   -1.4970   18.4740  -27.0480 N   0  0  0  0  0  0  0  0  0  0  0  0
   -0.7380   19.0560  -28.0150 C   0  0  0  0  0  0  0  0  0  0  0  0
   -1.1390   20.2650  -28.5870 C   0  0  0  0  0  0  0  0  0  0  0  0
   -3.9780   22.2250  -29.3370 N   0  0  0  0  0  0  0  0  0  0  0  0
   -4.4540   23.3560  -29.9150 C   0  0  0  0  0  0  0  0  0  0  0  0
   -6.0950   23.3410  -30.6370 S   0  0  0  0  0  0  0  0  0  0  0  0
   -5.7280   21.9020  -31.6430 C   0  0  0  0  0  0  0  0  0  0  0  0
   -4.7690   21.9850  -32.6590 C   0  0  0  0  0  0  0  0  0  0  0  0
   -4.4700   20.8610  -33.4340 C   0  0  0  0  0  0  0  0  0  0  0  0
   -5.1350   19.6490  -33.2020 C   0  0  0  0  0  0  0  0  0  0  0  0
   -4.7460   18.2250  -34.1630 S   0  0  0  0  0  0  0  0  0  0  0  0
   -3.0710   18.2530  -34.5830 N   0  0  0  0  0  0  0  0  0  0  0  0
   -5.5760   18.2140  -35.4170 O   0  0  0  0  0  0  0  0  0  0  0  0
   -5.0480   16.9810  -33.3750 O   0  0  0  0  0  0  0  0  0  0  0  0
   -6.0940   19.5680  -32.1830 C   0  0  0  0  0  0  0  0  0  0  0  0
   -6.3920   20.6940  -31.4080 C   0  0  0  0  0  0  0  0  0  0  0  0
   -3.6700   24.5130  -29.9360 C   0  0  0  0  0  0  0  0  0  0  0  0
   -4.1530   25.6680  -30.5530 O   0  0  0  0  0  0  0  0  0  0  0  0
   -2.4050   24.4910  -29.3310 C   0  0  0  0  0  0  0  0  0  0  0  0
   -1.6140   25.6360  -29.3500 O   0  0  0  0  0  0  0  0  0  0  0  0
   -0.7536   23.3252  -26.9156 H   0  0  0  0  0  0  0  0  0  0  0  0
   -0.0319   22.4308  -28.2962 H   0  0  0  0  0  0  0  0  0  0  0  0
   -0.0413   24.2271  -28.2962 H   0  0  0  0  0  0  0  0  0  0  0  0
   -4.0180   20.7173  -26.7958 H   0  0  0  0  0  0  0  0  0  0  0  0
   -3.2432   18.5471  -25.8258 H   0  0  0  0  0  0  0  0  0  0  0  0
    0.1931   18.5735  -28.3469 H   0  0  0  0  0  0  0  0  0  0  0  0
   -0.5197   20.7445  -29.3594 H   0  0  0  0  0  0  0  0  0  0  0  0
   -4.2499   22.9362  -32.8478 H   0  0  0  0  0  0  0  0  0  0  0  0
   -3.7113   20.9276  -34.2277 H   0  0  0  0  0  0  0  0  0  0  0  0
   -2.9730   17.7280  -35.4800 H   0  0  0  0  0  0  0  0  0  0  0  0
   -6.6133   18.6173  -31.9923 H   0  0  0  0  0  0  0  0  0  0  0  0
   -7.1494   20.6290  -30.6130 H   0  0  0  0  0  0  0  0  0  0  0  0
   -3.5360   26.3740  -30.9360 H   0  0  0  0  0  0  0  0  0  0  0  0
  1  2  1  0
  2  3  2  0
  3  4  1  0
  4  5  2  0
  5  6  1  0
  6  7  2  0
  7  8  1  0
  8  9  2  0
  3 10  1  0
 10 11  2  0
 11 12  1  0
 12 13  1  0
 13 14  2  0
 14 15  1  0
 15 16  2  0
 16 17  1  0
 17 18  1  0
 17 19  2  0
 17 20  2  0
 16 21  1  0
 21 22  2  0
 11 23  1  0
 23 24  1  0
 23 25  2  0
 25 26  1  0
 25  2  1  0
  9  4  1  0
 22 13  1  0
  1 27  1  0
  1 28  1  0
  1 29  1  0
  5 30  1  0
  6 31  1  0
  8 32  1  0
  9 33  1  0
 14 34  1  0
 15 35  1  0
 18 36  1  0
 21 37  1  0
 22 38  1  0
 24 39  1  0
M  CHG  2  18  -1  26  -1
M  END
>  <UniqueID>  (49) 
48

>  <SMILES>  (49) 
Cc1c(-c2ccncc2)nc(Sc2ccc(S([NH-])(=O)=O)cc2)c(O)c1[O-]

>  <Energy>  (49) 
46.28294272478036

>  <Genealogy>  (49) 
Cc1c(-c2ccncc2)nc(Sc2ccc(S([NH-])(=O)=O)cc2)c(O)c1[O-] (protonated)
Cc1c(-c2ccncc2)nc(Sc2ccc(S([NH-])(=O)=O)cc2)c(O)c1[O-] (3D coordinates assigned)
Cc1c(-c2ccncc2)nc(Sc2ccc(S([NH-])(=O)=O)cc2)c(O)c1[O-] (optimized conformer: 46.28294272478036 kcal/mol)

>  <smiles>  (49) 
Cc1c(-c2ccncc2)nc(Sc2ccc(S(N)(=O)=O)cc2)c(O)c1O

>  <score_type>  (49) 
oracle

>  <origin>  (49) 
adgpu

>  <m_score__min__energy>  (49) 
-12.460000000000001

>  <m_primary>  (49) 
energy

$$$$
49:0
     RDKit          3D

 55 57  0  0  0  0  0  0  0  0999 V2000
   -1.9260   18.8430  -34.3200 C   0  0  0  0  0  0  0  0  0  0  0  0
   -1.7420   19.6240  -33.0510 C   0  0  0  0  0  0  0  0  0  0  0  0
   -2.3190   20.8900  -32.9000 C   0  0  0  0  0  0  0  0  0  0  0  0
   -2.1570   21.6010  -31.7100 C   0  0  0  0  0  0  0  0  0  0  0  0
   -1.4220   21.0610  -30.6440 C   0  0  0  0  0  0  0  0  0  0  0  0
   -1.1850   22.0540  -29.1910 S   0  0  0  0  0  0  0  0  0  0  0  0
   -0.4760   21.2480  -28.1390 O   0  0  0  0  0  0  0  0  0  0  0  0
   -0.3230   23.2350  -29.5360 O   0  0  0  0  0  0  0  0  0  0  0  0
   -2.6910   22.6210  -28.5350 N   0  0  0  0  0  0  0  0  0  0  0  0
   -3.7070   23.2360  -29.3340 C   0  0  0  0  0  0  0  0  0  0  0  0
   -4.8570   22.5240  -29.7030 C   0  0  0  0  0  0  0  0  0  0  0  0
   -5.8050   23.1030  -30.5520 C   0  0  0  0  0  0  0  0  0  0  0  0
   -6.9630   22.3220  -31.0070 C   0  0  0  0  0  0  0  0  0  0  0  0
   -8.1140   22.8090  -30.8360 O   0  0  0  0  0  0  0  0  0  0  0  0
   -6.8100   21.0240  -31.6200 N   0  0  0  0  0  0  0  0  0  0  0  0
   -8.0030   20.2620  -32.0120 C   0  0  0  0  0  0  0  0  0  0  0  0
   -7.6460   19.2250  -33.0790 C   0  0  0  0  0  0  0  0  0  0  0  0
   -6.5910   18.3030  -32.6180 N   0  0  0  0  0  0  0  0  0  0  0  0
   -5.9160   17.4340  -33.9760 S   0  0  0  0  0  0  0  0  0  0  0  0
   -6.7400   15.8690  -34.2340 C   0  0  0  0  0  0  0  0  0  0  0  0
   -6.0610   18.2720  -35.2170 O   0  0  0  0  0  0  0  0  0  0  0  0
   -4.4520   17.1780  -33.7350 O   0  0  0  0  0  0  0  0  0  0  0  0
   -5.5290   18.9250  -31.7870 C   0  0  0  0  0  0  0  0  0  0  0  0
   -5.4820   20.4570  -31.8910 C   0  0  0  0  0  0  0  0  0  0  0  0
   -5.6330   24.4180  -30.9910 C   0  0  0  0  0  0  0  0  0  0  0  0
   -4.5200   25.1540  -30.5800 C   0  0  0  0  0  0  0  0  0  0  0  0
   -3.5580   24.5670  -29.7550 C   0  0  0  0  0  0  0  0  0  0  0  0
   -2.4460   25.3000  -29.3720 O   0  0  0  0  0  0  0  0  0  0  0  0
   -0.8520   19.7710  -30.7820 C   0  0  0  0  0  0  0  0  0  0  0  0
   -0.1080   19.1040  -29.6570 C   0  0  0  0  0  0  0  0  0  0  0  0
   -1.0310   19.0610  -31.9830 C   0  0  0  0  0  0  0  0  0  0  0  0
   -2.1719   17.7991  -34.0757 H   0  0  0  0  0  0  0  0  0  0  0  0
   -2.7446   19.2848  -34.9070 H   0  0  0  0  0  0  0  0  0  0  0  0
   -0.9962   18.8729  -34.9070 H   0  0  0  0  0  0  0  0  0  0  0  0
   -2.9031   21.3269  -33.7233 H   0  0  0  0  0  0  0  0  0  0  0  0
   -2.6114   22.5974  -31.6066 H   0  0  0  0  0  0  0  0  0  0  0  0
   -2.7310   22.7370  -27.4970 H   0  0  0  0  0  0  0  0  0  0  0  0
   -5.0143   21.5040  -29.3224 H   0  0  0  0  0  0  0  0  0  0  0  0
   -8.4112   19.7481  -31.1292 H   0  0  0  0  0  0  0  0  0  0  0  0
   -8.7504   20.9559  -32.4243 H   0  0  0  0  0  0  0  0  0  0  0  0
   -8.5461   18.6419  -33.3235 H   0  0  0  0  0  0  0  0  0  0  0  0
   -7.2687   19.7607  -33.9626 H   0  0  0  0  0  0  0  0  0  0  0  0
   -6.9788   15.4155  -33.2607 H   0  0  0  0  0  0  0  0  0  0  0  0
   -7.6689   16.0326  -34.8000 H   0  0  0  0  0  0  0  0  0  0  0  0
   -6.0794   15.1957  -34.8000 H   0  0  0  0  0  0  0  0  0  0  0  0
   -5.7067   18.6535  -30.7360 H   0  0  0  0  0  0  0  0  0  0  0  0
   -4.5657   18.5475  -32.1607 H   0  0  0  0  0  0  0  0  0  0  0  0
   -4.7626   20.8493  -31.1571 H   0  0  0  0  0  0  0  0  0  0  0  0
   -5.1717   20.7388  -32.9080 H   0  0  0  0  0  0  0  0  0  0  0  0
   -6.3758   24.8744  -31.6617 H   0  0  0  0  0  0  0  0  0  0  0  0
   -4.4006   26.1976  -30.9064 H   0  0  0  0  0  0  0  0  0  0  0  0
   -0.5041   19.4591  -28.6942 H   0  0  0  0  0  0  0  0  0  0  0  0
   -0.2376   18.0139  -29.7272 H   0  0  0  0  0  0  0  0  0  0  0  0
    0.9615   19.3514  -29.7272 H   0  0  0  0  0  0  0  0  0  0  0  0
   -0.6074   18.0510  -32.0850 H   0  0  0  0  0  0  0  0  0  0  0  0
  1  2  1  0
  2  3  2  0
  3  4  1  0
  4  5  2  0
  5  6  1  0
  6  7  2  0
  6  8  2  0
  6  9  1  0
  9 10  1  0
 10 11  2  0
 11 12  1  0
 12 13  1  0
 13 14  2  0
 13 15  1  0
 15 16  1  0
 16 17  1  0
 17 18  1  0
 18 19  1  0
 19 20  1  0
 19 21  2  0
 19 22  2  0
 18 23  1  0
 23 24  1  0
 12 25  2  0
 25 26  1  0
 26 27  2  0
 27 28  1  0
  5 29  1  0
 29 30  1  0
 29 31  2  0
 31  2  1  0
 27 10  1  0
 24 15  1  0
  1 32  1  0
  1 33  1  0
  1 34  1  0
  3 35  1  0
  4 36  1  0
  9 37  1  0
 11 38  1  0
 16 39  1  0
 16 40  1  0
 17 41  1  0
 17 42  1  0
 20 43  1  0
 20 44  1  0
 20 45  1  0
 23 46  1  0
 23 47  1  0
 24 48  1  0
 24 49  1  0
 25 50  1  0
 26 51  1  0
 30 52  1  0
 30 53  1  0
 30 54  1  0
 31 55  1  0
M  CHG  1  28  -1
M  END
>  <UniqueID>  (50) 
49

>  <SMILES>  (50) 
Cc1ccc(S(=O)(=O)Nc2cc(C(=O)N3CCN(S(C)(=O)=O)CC3)ccc2[O-])c(C)c1

>  <Energy>  (50) 
70.30820576182109

>  <Genealogy>  (50) 
Cc1ccc(S(=O)(=O)Nc2cc(C(=O)N3CCN(S(C)(=O)=O)CC3)ccc2[O-])c(C)c1 (protonated)
Cc1ccc(S(=O)(=O)Nc2cc(C(=O)N3CCN(S(C)(=O)=O)CC3)ccc2[O-])c(C)c1 (3D coordinates assigned)
Cc1ccc(S(=O)(=O)Nc2cc(C(=O)N3CCN(S(C)(=O)=O)CC3)ccc2[O-])c(C)c1 (nonaromatic ring conformer: 70.30820576182109 kcal/mol)

>  <smiles>  (50) 
Cc1ccc(S(=O)(=O)Nc2cc(C(=O)N3CCN(S(C)(=O)=O)CC3)ccc2O)c(C)c1

>  <score_type>  (50) 
oracle

>  <origin>  (50) 
adgpu

>  <m_score__min__energy>  (50) 
-13.31

>  <m_primary>  (50) 
energy

$$$$
