0:0
     RDKit          3D

 59 62  0  0  0  0  0  0  0  0999 V2000
   -0.1090   21.1850  -33.3280 C   0  0  0  0  0  0  0  0  0  0  0  0
   -0.6380   20.2560  -32.3310 N   0  0  0  0  0  0  0  0  0  0  0  0
    0.0990   20.0850  -31.0820 C   0  0  0  0  0  0  0  0  0  0  0  0
   -2.0440   19.9720  -32.3430 C   0  0  0  0  0  0  0  0  0  0  0  0
   -2.5220   18.9050  -33.1180 C   0  0  0  0  0  0  0  0  0  0  0  0
   -3.8860   18.6040  -33.1400 C   0  0  0  0  0  0  0  0  0  0  0  0
   -4.7870   19.3710  -32.3940 C   0  0  0  0  0  0  0  0  0  0  0  0
   -6.5000   18.9690  -32.3870 S   0  0  0  0  0  0  0  0  0  0  0  0
   -6.8650   18.2650  -33.6640 O   0  0  0  0  0  0  0  0  0  0  0  0
   -6.8090   18.0470  -31.2390 O   0  0  0  0  0  0  0  0  0  0  0  0
   -7.4270   20.4560  -32.2370 C   0  0  0  0  0  0  0  0  0  0  0  0
   -6.8120   21.6930  -32.4730 C   0  0  0  0  0  0  0  0  0  0  0  0
   -7.5370   22.8790  -32.3230 C   0  0  0  0  0  0  0  0  0  0  0  0
   -8.8780   22.8350  -31.9320 C   0  0  0  0  0  0  0  0  0  0  0  0
   -9.4940   21.6030  -31.6900 C   0  0  0  0  0  0  0  0  0  0  0  0
   -8.7700   20.4160  -31.8380 C   0  0  0  0  0  0  0  0  0  0  0  0
   -4.3150   20.4330  -31.6130 C   0  0  0  0  0  0  0  0  0  0  0  0
   -2.9460   20.7400  -31.5790 C   0  0  0  0  0  0  0  0  0  0  0  0
   -2.3820   22.1030  -30.6000 S   0  0  0  0  0  0  0  0  0  0  0  0
   -1.1210   22.6700  -31.1890 O   0  0  0  0  0  0  0  0  0  0  0  0
   -3.4490   23.1570  -30.6470 O   0  0  0  0  0  0  0  0  0  0  0  0
   -2.0510   21.5760  -28.9370 C   0  0  0  0  0  0  0  0  0  0  0  0
   -2.3220   20.2350  -28.6130 C   0  0  0  0  0  0  0  0  0  0  0  0
   -2.1180   19.7530  -27.3210 C   0  0  0  0  0  0  0  0  0  0  0  0
   -1.6230   20.5970  -26.3330 C   0  0  0  0  0  0  0  0  0  0  0  0
   -1.3130   21.9220  -26.6400 C   0  0  0  0  0  0  0  0  0  0  0  0
   -1.5020   22.4270  -27.9380 C   0  0  0  0  0  0  0  0  0  0  0  0
   -1.0450   24.1160  -28.2340 S   0  0  0  0  0  0  0  0  0  0  0  0
    0.2990   24.1720  -28.9060 O   0  0  0  0  0  0  0  0  0  0  0  0
   -2.0490   24.7520  -29.1550 O   0  0  0  0  0  0  0  0  0  0  0  0
   -0.9450   25.0000  -26.7140 C   0  0  0  0  0  0  0  0  0  0  0  0
   -2.0580   25.7100  -26.2380 C   0  0  0  0  0  0  0  0  0  0  0  0
   -1.9760   26.4230  -25.0370 C   0  0  0  0  0  0  0  0  0  0  0  0
   -0.7870   26.4250  -24.3050 C   0  0  0  0  0  0  0  0  0  0  0  0
    0.3210   25.7100  -24.7680 C   0  0  0  0  0  0  0  0  0  0  0  0
    0.2430   24.9950  -25.9680 C   0  0  0  0  0  0  0  0  0  0  0  0
    0.3737   22.0327  -32.8196 H   0  0  0  0  0  0  0  0  0  0  0  0
    0.6292   20.6663  -33.9573 H   0  0  0  0  0  0  0  0  0  0  0  0
   -0.9318   21.5551  -33.9573 H   0  0  0  0  0  0  0  0  0  0  0  0
   -0.5800   20.2426  -30.2311 H   0  0  0  0  0  0  0  0  0  0  0  0
    0.5131   19.0669  -31.0370 H   0  0  0  0  0  0  0  0  0  0  0  0
    0.9191   20.8167  -31.0370 H   0  0  0  0  0  0  0  0  0  0  0  0
   -1.8191   18.3021  -33.7116 H   0  0  0  0  0  0  0  0  0  0  0  0
   -4.2524   17.7618  -33.7454 H   0  0  0  0  0  0  0  0  0  0  0  0
   -5.7556   21.7309  -32.7772 H   0  0  0  0  0  0  0  0  0  0  0  0
   -7.0515   23.8476  -32.5129 H   0  0  0  0  0  0  0  0  0  0  0  0
   -9.4483   23.7683  -31.8147 H   0  0  0  0  0  0  0  0  0  0  0  0
  -10.5496   21.5677  -31.3828 H   0  0  0  0  0  0  0  0  0  0  0  0
   -9.2554   19.4488  -31.6409 H   0  0  0  0  0  0  0  0  0  0  0  0
   -5.0231   21.0316  -31.0212 H   0  0  0  0  0  0  0  0  0  0  0  0
   -2.7008   19.5558  -29.3909 H   0  0  0  0  0  0  0  0  0  0  0  0
   -2.3488   18.7042  -27.0829 H   0  0  0  0  0  0  0  0  0  0  0  0
   -1.4760   20.2201  -25.3101 H   0  0  0  0  0  0  0  0  0  0  0  0
   -0.9148   22.5813  -25.8547 H   0  0  0  0  0  0  0  0  0  0  0  0
   -2.9972   25.7059  -26.8106 H   0  0  0  0  0  0  0  0  0  0  0  0
   -2.8488   26.9824  -24.6692 H   0  0  0  0  0  0  0  0  0  0  0  0
   -0.7223   26.9897  -23.3632 H   0  0  0  0  0  0  0  0  0  0  0  0
    1.2557   25.7094  -24.1881 H   0  0  0  0  0  0  0  0  0  0  0  0
    1.1146   24.4280  -26.3271 H   0  0  0  0  0  0  0  0  0  0  0  0
  1  2  1  0
  2  3  1  0
  2  4  1  0
  4  5  2  0
  5  6  1  0
  6  7  2  0
  7  8  1  0
  8  9  2  0
  8 10  2  0
  8 11  1  0
 11 12  2  0
 12 13  1  0
 13 14  2  0
 14 15  1  0
 15 16  2  0
  7 17  1  0
 17 18  2  0
 18 19  1  0
 19 20  2  0
 19 21  2  0
 19 22  1  0
 22 23  2  0
 23 24  1  0
 24 25  2  0
 25 26  1  0
 26 27  2  0
 27 28  1  0
 28 29  2  0
 28 30  2  0
 28 31  1  0
 31 32  2  0
 32 33  1  0
 33 34  2  0
 34 35  1  0
 35 36  2  0
 18  4  1  0
 27 22  1  0
 36 31  1  0
 16 11  1  0
  1 37  1  0
  1 38  1  0
  1 39  1  0
  3 40  1  0
  3 41  1  0
  3 42  1  0
  5 43  1  0
  6 44  1  0
 12 45  1  0
 13 46  1  0
 14 47  1  0
 15 48  1  0
 16 49  1  0
 17 50  1  0
 23 51  1  0
 24 52  1  0
 25 53  1  0
 26 54  1  0
 32 55  1  0
 33 56  1  0
 34 57  1  0
 35 58  1  0
 36 59  1  0
M  END
>  <UniqueID>  (1) 
1

>  <SMILES>  (1) 
CN(C)c1ccc(S(=O)(=O)c2ccccc2)cc1S(=O)(=O)c1ccccc1S(=O)(=O)c1ccccc1

>  <Energy>  (1) 
74.84822728600982

>  <Genealogy>  (1) 
CN(C)c1ccc(S(=O)(=O)c2ccccc2)cc1S(=O)(=O)c1ccccc1S(=O)(=O)c1ccccc1 (3D coordinates assigned)
CN(C)c1ccc(S(=O)(=O)c2ccccc2)cc1S(=O)(=O)c1ccccc1S(=O)(=O)c1ccccc1 (optimized conformer: 74.84822728600982 kcal/mol)

>  <smiles>  (1) 
CN(C)c1ccc(S(=O)(=O)c2ccccc2)cc1S(=O)(=O)c1ccccc1S(=O)(=O)c1ccccc1

>  <score_type>  (1) 
oracle

>  <origin>  (1) 
adgpu

>  <m_score__min__energy>  (1) 
-11.31

>  <m_primary>  (1) 
energy

$$$$
1:0
     RDKit          3D

 57 60  0  0  0  0  0  0  0  0999 V2000
   -5.7520   25.1130  -28.9370 O   0  0  0  0  0  0  0  0  0  0  0  0
   -5.2020   24.9280  -30.3270 S   0  0  0  0  0  0  0  0  0  0  0  0
   -5.6050   26.1000  -31.1760 O   0  0  0  0  0  0  0  0  0  0  0  0
   -3.4720   24.8280  -30.2580 N   0  0  0  0  0  0  0  0  0  0  0  0
   -2.7200   24.7360  -29.0400 C   0  0  0  0  0  0  0  0  0  0  0  0
   -3.2510   24.1350  -27.8790 C   0  0  0  0  0  0  0  0  0  0  0  0
   -2.4730   24.0210  -26.7230 C   0  0  0  0  0  0  0  0  0  0  0  0
   -1.1580   24.5100  -26.7070 C   0  0  0  0  0  0  0  0  0  0  0  0
   -0.1780   24.3610  -25.2480 S   0  0  0  0  0  0  0  0  0  0  0  0
    1.2760   24.3720  -25.6340 O   0  0  0  0  0  0  0  0  0  0  0  0
   -0.4700   23.0400  -24.5930 O   0  0  0  0  0  0  0  0  0  0  0  0
   -0.4830   25.6520  -24.1020 N   0  0  0  0  0  0  0  0  0  0  0  0
    0.7400   26.4040  -23.7420 C   0  0  0  0  0  0  0  0  0  0  0  0
    0.8190   27.7830  -24.4250 C   0  0  0  0  0  0  0  0  0  0  0  0
    0.1970   27.7270  -25.6880 O   0  0  0  0  0  0  0  0  0  0  0  0
   -1.2030   27.6020  -25.5300 C   0  0  0  0  0  0  0  0  0  0  0  0
   -1.6110   26.5150  -24.5060 C   0  0  0  0  0  0  0  0  0  0  0  0
   -0.6290   25.1130  -27.8590 C   0  0  0  0  0  0  0  0  0  0  0  0
   -1.4100   25.2350  -29.0150 C   0  0  0  0  0  0  0  0  0  0  0  0
   -5.8180   23.4510  -31.0630 C   0  0  0  0  0  0  0  0  0  0  0  0
   -7.1560   23.3570  -31.4840 C   0  0  0  0  0  0  0  0  0  0  0  0
   -7.6640   22.1300  -31.9170 C   0  0  0  0  0  0  0  0  0  0  0  0
   -6.8470   20.9880  -31.9360 C   0  0  0  0  0  0  0  0  0  0  0  0
   -7.5280   19.4130  -32.3550 S   0  0  0  0  0  0  0  0  0  0  0  0
   -9.0160   19.5580  -32.5320 O   0  0  0  0  0  0  0  0  0  0  0  0
   -7.2820   18.4450  -31.2250 O   0  0  0  0  0  0  0  0  0  0  0  0
   -6.8350   18.7750  -33.8350 N   0  0  0  0  0  0  0  0  0  0  0  0
   -6.5620   17.3360  -33.7220 C   0  0  0  0  0  0  0  0  0  0  0  0
   -5.0950   17.1520  -33.3680 C   0  0  0  0  0  0  0  0  0  0  0  0
   -4.4290   18.4740  -33.6910 C   0  0  0  0  0  0  0  0  0  0  0  0
   -5.5490   19.4130  -34.1370 C   0  0  0  0  0  0  0  0  0  0  0  0
   -5.4970   21.0960  -31.5620 C   0  0  0  0  0  0  0  0  0  0  0  0
   -4.9880   22.3210  -31.1200 C   0  0  0  0  0  0  0  0  0  0  0  0
   -4.2829   23.7540  -27.8835 H   0  0  0  0  0  0  0  0  0  0  0  0
   -2.8929   23.5467  -25.8237 H   0  0  0  0  0  0  0  0  0  0  0  0
    0.7535   26.5510  -22.6519 H   0  0  0  0  0  0  0  0  0  0  0  0
    1.6029   25.8152  -24.0865 H   0  0  0  0  0  0  0  0  0  0  0  0
    0.3085   28.5300  -23.7994 H   0  0  0  0  0  0  0  0  0  0  0  0
    1.8746   28.0650  -24.5525 H   0  0  0  0  0  0  0  0  0  0  0  0
   -1.6034   28.5687  -25.1906 H   0  0  0  0  0  0  0  0  0  0  0  0
   -1.6144   27.3010  -26.5047 H   0  0  0  0  0  0  0  0  0  0  0  0
   -2.0121   27.0105  -23.6096 H   0  0  0  0  0  0  0  0  0  0  0  0
   -2.3612   25.8719  -24.9894 H   0  0  0  0  0  0  0  0  0  0  0  0
    0.4038   25.4915  -27.8537 H   0  0  0  0  0  0  0  0  0  0  0  0
   -0.9937   25.7247  -29.9077 H   0  0  0  0  0  0  0  0  0  0  0  0
   -7.8014   24.2477  -31.4725 H   0  0  0  0  0  0  0  0  0  0  0  0
   -8.7113   22.0578  -32.2454 H   0  0  0  0  0  0  0  0  0  0  0  0
   -7.1921   16.8992  -32.9332 H   0  0  0  0  0  0  0  0  0  0  0  0
   -6.7870   16.8328  -34.6740 H   0  0  0  0  0  0  0  0  0  0  0  0
   -4.9845   16.9174  -32.2990 H   0  0  0  0  0  0  0  0  0  0  0  0
   -4.6423   16.3206  -33.9282 H   0  0  0  0  0  0  0  0  0  0  0  0
   -3.9256   18.8761  -32.7994 H   0  0  0  0  0  0  0  0  0  0  0  0
   -3.6645   18.3590  -34.4736 H   0  0  0  0  0  0  0  0  0  0  0  0
   -5.4714   20.3674  -33.5956 H   0  0  0  0  0  0  0  0  0  0  0  0
   -5.4692   19.6111  -35.2161 H   0  0  0  0  0  0  0  0  0  0  0  0
   -4.8397   20.2157  -31.6170 H   0  0  0  0  0  0  0  0  0  0  0  0
   -3.9337   22.3991  -30.8160 H   0  0  0  0  0  0  0  0  0  0  0  0
  1  2  2  0
  2  3  2  0
  2  4  1  0
  4  5  1  0
  5  6  2  0
  6  7  1  0
  7  8  2  0
  8  9  1  0
  9 10  2  0
  9 11  2  0
  9 12  1  0
 12 13  1  0
 13 14  1  0
 14 15  1  0
 15 16  1  0
 16 17  1  0
  8 18  1  0
 18 19  2  0
  2 20  1  0
 20 21  2  0
 21 22  1  0
 22 23  2  0
 23 24  1  0
 24 25  2  0
 24 26  2  0
 24 27  1  0
 27 28  1  0
 28 29  1  0
 29 30  1  0
 30 31  1  0
 23 32  1  0
 32 33  2  0
 19  5  1  0
 33 20  1  0
 17 12  1  0
 31 27  1  0
  6 34  1  0
  7 35  1  0
 13 36  1  0
 13 37  1  0
 14 38  1  0
 14 39  1  0
 16 40  1  0
 16 41  1  0
 17 42  1  0
 17 43  1  0
 18 44  1  0
 19 45  1  0
 21 46  1  0
 22 47  1  0
 28 48  1  0
 28 49  1  0
 29 50  1  0
 29 51  1  0
 30 52  1  0
 30 53  1  0
 31 54  1  0
 31 55  1  0
 32 56  1  0
 33 57  1  0
M  CHG  1   4  -1
M  END
>  <UniqueID>  (2) 
2

>  <SMILES>  (2) 
O=S(=O)([N-]c1ccc(S(=O)(=O)N2CCOCC2)cc1)c1ccc(S(=O)(=O)N2CCCC2)cc1

>  <Energy>  (2) 
70.25934100619797

>  <Genealogy>  (2) 
O=S(=O)([N-]c1ccc(S(=O)(=O)N2CCOCC2)cc1)c1ccc(S(=O)(=O)N2CCCC2)cc1 (protonated)
O=S(=O)([N-]c1ccc(S(=O)(=O)N2CCOCC2)cc1)c1ccc(S(=O)(=O)N2CCCC2)cc1 (3D coordinates assigned)
O=S(=O)([N-]c1ccc(S(=O)(=O)N2CCOCC2)cc1)c1ccc(S(=O)(=O)N2CCCC2)cc1 (nonaromatic ring conformer: 70.25934100619797 kcal/mol)

>  <smiles>  (2) 
O=S(=O)(Nc1ccc(S(=O)(=O)N2CCOCC2)cc1)c1ccc(S(=O)(=O)N2CCCC2)cc1

>  <score_type>  (2) 
oracle

>  <origin>  (2) 
adgpu

>  <m_score__min__energy>  (2) 
-11.77

>  <m_primary>  (2) 
energy

$$$$
2:0
     RDKit          3D

 54 58  0  0  0  0  0  0  0  0999 V2000
   -5.3770   24.9150  -28.4820 O   0  0  0  0  0  0  0  0  0  0  0  0
   -5.3320   24.9580  -29.9830 S   0  0  0  0  0  0  0  0  0  0  0  0
   -5.9950   26.2240  -30.4480 O   0  0  0  0  0  0  0  0  0  0  0  0
   -3.6900   24.9360  -30.5380 N   0  0  0  0  0  0  0  0  0  0  0  0
   -2.6740   24.1610  -29.8920 C   0  0  0  0  0  0  0  0  0  0  0  0
   -2.6770   22.7710  -30.0590 C   0  0  0  0  0  0  0  0  0  0  0  0
   -1.7210   21.9740  -29.4160 C   0  0  0  0  0  0  0  0  0  0  0  0
   -0.7260   22.5820  -28.6100 C   0  0  0  0  0  0  0  0  0  0  0  0
   -0.7170   23.9760  -28.4650 C   0  0  0  0  0  0  0  0  0  0  0  0
   -1.6790   24.7640  -29.1040 C   0  0  0  0  0  0  0  0  0  0  0  0
   -1.6200   26.1460  -28.9700 O   0  0  0  0  0  0  0  0  0  0  0  0
    0.3510   21.7640  -27.9210 C   0  0  0  0  0  0  0  0  0  0  0  0
    0.1230   20.3280  -28.0750 N   0  0  0  0  0  0  0  0  0  0  0  0
    0.8150   19.3120  -27.5410 C   0  0  0  0  0  0  0  0  0  0  0  0
    0.2370   18.1480  -28.0030 C   0  0  0  0  0  0  0  0  0  0  0  0
    0.6570   16.8650  -27.6810 O   0  0  0  0  0  0  0  0  0  0  0  0
   -0.8050   18.4120  -28.8230 N   0  0  0  0  0  0  0  0  0  0  0  0
   -0.8260   19.7630  -28.8350 C   0  0  0  0  0  0  0  0  0  0  0  0
   -1.7680   20.5470  -29.5570 N   0  0  0  0  0  0  0  0  0  0  0  0
   -6.1810   23.5790  -30.6720 C   0  0  0  0  0  0  0  0  0  0  0  0
   -5.7250   23.0050  -31.8650 C   0  0  0  0  0  0  0  0  0  0  0  0
   -6.3350   21.8520  -32.3690 C   0  0  0  0  0  0  0  0  0  0  0  0
   -7.3940   21.2530  -31.6740 C   0  0  0  0  0  0  0  0  0  0  0  0
   -8.0940   19.7400  -32.2540 S   0  0  0  0  0  0  0  0  0  0  0  0
   -8.8140   19.0610  -31.1210 O   0  0  0  0  0  0  0  0  0  0  0  0
   -9.1000   20.0400  -33.3320 O   0  0  0  0  0  0  0  0  0  0  0  0
   -6.8630   18.6640  -32.8790 N   0  0  0  0  0  0  0  0  0  0  0  0
   -6.4090   19.1150  -34.2130 C   0  0  0  0  0  0  0  0  0  0  0  0
   -5.0560   18.5000  -34.5830 C   0  0  0  0  0  0  0  0  0  0  0  0
   -3.9620   18.9530  -33.6010 C   0  0  0  0  0  0  0  0  0  0  0  0
   -4.5160   19.2730  -32.2010 C   0  0  0  0  0  0  0  0  0  0  0  0
   -5.7750   18.4500  -31.8920 C   0  0  0  0  0  0  0  0  0  0  0  0
   -7.8610   21.8390  -30.4900 C   0  0  0  0  0  0  0  0  0  0  0  0
   -7.2580   22.9950  -29.9900 C   0  0  0  0  0  0  0  0  0  0  0  0
   -3.4366   22.3006  -30.7007 H   0  0  0  0  0  0  0  0  0  0  0  0
    0.0538   24.4544  -27.8429 H   0  0  0  0  0  0  0  0  0  0  0  0
    1.3271   22.0187  -28.3596 H   0  0  0  0  0  0  0  0  0  0  0  0
    0.3265   22.0012  -26.8472 H   0  0  0  0  0  0  0  0  0  0  0  0
    1.6784   19.3912  -26.8640 H   0  0  0  0  0  0  0  0  0  0  0  0
   -2.5020   20.0820  -30.1380 H   0  0  0  0  0  0  0  0  0  0  0  0
   -4.8844   23.4624  -32.4074 H   0  0  0  0  0  0  0  0  0  0  0  0
   -5.9823   21.4138  -33.3143 H   0  0  0  0  0  0  0  0  0  0  0  0
   -7.1549   18.8162  -34.9643 H   0  0  0  0  0  0  0  0  0  0  0  0
   -6.2955   20.2088  -34.1873 H   0  0  0  0  0  0  0  0  0  0  0  0
   -5.1376   17.4035  -34.5509 H   0  0  0  0  0  0  0  0  0  0  0  0
   -4.7819   18.8346  -35.5944 H   0  0  0  0  0  0  0  0  0  0  0  0
   -3.2167   18.1492  -33.5093 H   0  0  0  0  0  0  0  0  0  0  0  0
   -3.5175   19.8761  -34.0015 H   0  0  0  0  0  0  0  0  0  0  0  0
   -3.7454   19.0428  -31.4505 H   0  0  0  0  0  0  0  0  0  0  0  0
   -4.7850   20.3392  -32.1719 H   0  0  0  0  0  0  0  0  0  0  0  0
   -5.5058   17.3835  -31.8925 H   0  0  0  0  0  0  0  0  0  0  0  0
   -6.1505   18.7776  -30.9113 H   0  0  0  0  0  0  0  0  0  0  0  0
   -8.7067   21.3862  -29.9518 H   0  0  0  0  0  0  0  0  0  0  0  0
   -7.6288   23.4485  -29.0590 H   0  0  0  0  0  0  0  0  0  0  0  0
  1  2  2  0
  2  3  2  0
  2  4  1  0
  4  5  1  0
  5  6  2  0
  6  7  1  0
  7  8  2  0
  8  9  1  0
  9 10  2  0
 10 11  1  0
  8 12  1  0
 12 13  1  0
 13 14  1  0
 14 15  2  0
 15 16  1  0
 15 17  1  0
 17 18  2  0
 18 19  1  0
  2 20  1  0
 20 21  2  0
 21 22  1  0
 22 23  2  0
 23 24  1  0
 24 25  2  0
 24 26  2  0
 24 27  1  0
 27 28  1  0
 28 29  1  0
 29 30  1  0
 30 31  1  0
 31 32  1  0
 23 33  1  0
 33 34  2  0
 10  5  1  0
 18 13  1  0
 34 20  1  0
 19  7  1  0
 32 27  1  0
  6 35  1  0
  9 36  1  0
 12 37  1  0
 12 38  1  0
 14 39  1  0
 19 40  1  0
 21 41  1  0
 22 42  1  0
 28 43  1  0
 28 44  1  0
 29 45  1  0
 29 46  1  0
 30 47  1  0
 30 48  1  0
 31 49  1  0
 31 50  1  0
 32 51  1  0
 32 52  1  0
 33 53  1  0
 34 54  1  0
M  CHG  3   4  -1  11  -1  16  -1
M  END
>  <UniqueID>  (3) 
3

>  <SMILES>  (3) 
O=S(=O)([N-]c1cc2c(cc1[O-])Cn1cc([O-])nc1N2)c1ccc(S(=O)(=O)N2CCCCC2)cc1

>  <Energy>  (3) 
99.9964967731103

>  <Genealogy>  (3) 
O=S(=O)([N-]c1cc2c(cc1[O-])Cn1cc([O-])nc1N2)c1ccc(S(=O)(=O)N2CCCCC2)cc1 (protonated)
O=S(=O)([N-]c1cc2c(cc1[O-])Cn1cc([O-])nc1N2)c1ccc(S(=O)(=O)N2CCCCC2)cc1 (3D coordinates assigned)
O=S(=O)([N-]c1cc2c(cc1[O-])Cn1cc([O-])nc1N2)c1ccc(S(=O)(=O)N2CCCCC2)cc1 (nonaromatic ring conformer: 99.9964967731103 kcal/mol)

>  <smiles>  (3) 
O=S(=O)(Nc1cc2c(cc1O)Cn1cc(O)nc1N2)c1ccc(S(=O)(=O)N2CCCCC2)cc1

>  <score_type>  (3) 
oracle

>  <origin>  (3) 
adgpu

>  <m_score__min__energy>  (3) 
-15.31

>  <m_primary>  (3) 
energy

$$$$
3:0
     RDKit          3D

 54 56  0  0  0  0  0  0  0  0999 V2000
    0.9870   16.3970  -29.7090 C   0  0  0  0  0  0  0  0  0  0  0  0
    0.9530   17.0520  -28.0560 S   0  0  0  0  0  0  0  0  0  0  0  0
    0.3340   16.0440  -27.1300 O   0  0  0  0  0  0  0  0  0  0  0  0
    2.3550   17.3340  -27.5950 O   0  0  0  0  0  0  0  0  0  0  0  0
    0.0150   18.5420  -28.0390 C   0  0  0  0  0  0  0  0  0  0  0  0
    0.3220   19.5840  -28.9230 C   0  0  0  0  0  0  0  0  0  0  0  0
   -0.4150   20.7710  -28.8960 C   0  0  0  0  0  0  0  0  0  0  0  0
   -1.4700   20.9330  -27.9820 C   0  0  0  0  0  0  0  0  0  0  0  0
   -2.2190   22.1630  -27.9420 N   0  0  0  0  0  0  0  0  0  0  0  0
   -1.5630   23.4530  -28.2030 C   0  0  0  0  0  0  0  0  0  0  0  0
   -2.2940   24.1850  -29.3350 C   0  0  0  0  0  0  0  0  0  0  0  0
   -3.7540   24.0860  -29.1870 N   0  0  0  0  0  0  0  0  0  0  0  0
   -4.5950   24.6300  -30.2210 C   0  0  0  0  0  0  0  0  0  0  0  0
   -4.2150   25.6540  -30.8530 O   0  0  0  0  0  0  0  0  0  0  0  0
   -5.9270   24.0100  -30.5530 C   0  0  0  0  0  0  0  0  0  0  0  0
   -5.7580   22.7390  -31.3470 C   0  0  0  0  0  0  0  0  0  0  0  0
   -4.4790   22.2190  -31.5750 C   0  0  0  0  0  0  0  0  0  0  0  0
   -4.3150   21.0570  -32.3330 C   0  0  0  0  0  0  0  0  0  0  0  0
   -5.4260   20.3980  -32.8830 C   0  0  0  0  0  0  0  0  0  0  0  0
   -5.1880   18.9250  -33.8380 S   0  0  0  0  0  0  0  0  0  0  0  0
   -5.5170   17.4410  -32.9070 C   0  0  0  0  0  0  0  0  0  0  0  0
   -6.1140   18.9470  -35.0220 O   0  0  0  0  0  0  0  0  0  0  0  0
   -3.7640   18.8700  -34.3150 O   0  0  0  0  0  0  0  0  0  0  0  0
   -6.7190   20.9300  -32.6650 C   0  0  0  0  0  0  0  0  0  0  0  0
   -7.8700   20.3360  -33.1870 O   0  0  0  0  0  0  0  0  0  0  0  0
   -6.8710   22.0950  -31.9030 C   0  0  0  0  0  0  0  0  0  0  0  0
   -4.3200   23.4880  -27.9680 C   0  0  0  0  0  0  0  0  0  0  0  0
   -3.6740   22.1210  -27.7130 C   0  0  0  0  0  0  0  0  0  0  0  0
   -1.7650   19.8890  -27.0890 C   0  0  0  0  0  0  0  0  0  0  0  0
   -1.0280   18.7020  -27.1180 C   0  0  0  0  0  0  0  0  0  0  0  0
    1.0440   15.2993  -29.6673 H   0  0  0  0  0  0  0  0  0  0  0  0
    0.0721   16.6967  -30.2411 H   0  0  0  0  0  0  0  0  0  0  0  0
    1.8660   16.7899  -30.2411 H   0  0  0  0  0  0  0  0  0  0  0  0
    1.1467   19.4676  -29.6416 H   0  0  0  0  0  0  0  0  0  0  0  0
   -0.1677   21.5838  -29.5947 H   0  0  0  0  0  0  0  0  0  0  0  0
   -1.5910   24.0684  -27.2917 H   0  0  0  0  0  0  0  0  0  0  0  0
   -0.5180   23.2771  -28.4981 H   0  0  0  0  0  0  0  0  0  0  0  0
   -2.0044   25.2461  -29.3199 H   0  0  0  0  0  0  0  0  0  0  0  0
   -2.0113   23.7152  -30.2886 H   0  0  0  0  0  0  0  0  0  0  0  0
   -6.4581   23.7800  -29.6176 H   0  0  0  0  0  0  0  0  0  0  0  0
   -6.5006   24.7251  -31.1610 H   0  0  0  0  0  0  0  0  0  0  0  0
   -3.5985   22.7276  -31.1554 H   0  0  0  0  0  0  0  0  0  0  0  0
   -3.3052   20.6543  -32.5006 H   0  0  0  0  0  0  0  0  0  0  0  0
   -5.4674   17.6646  -31.8311 H   0  0  0  0  0  0  0  0  0  0  0  0
   -6.5202   17.0657  -33.1577 H   0  0  0  0  0  0  0  0  0  0  0  0
   -4.7664   16.6769  -33.1577 H   0  0  0  0  0  0  0  0  0  0  0  0
   -7.8680   19.7280  -33.9940 H   0  0  0  0  0  0  0  0  0  0  0  0
   -7.8766   22.5095  -31.7390 H   0  0  0  0  0  0  0  0  0  0  0  0
   -4.1244   24.1500  -27.1115 H   0  0  0  0  0  0  0  0  0  0  0  0
   -5.4049   23.3592  -28.0962 H   0  0  0  0  0  0  0  0  0  0  0  0
   -3.8639   21.8242  -26.6710 H   0  0  0  0  0  0  0  0  0  0  0  0
   -4.1137   21.3944  -28.4121 H   0  0  0  0  0  0  0  0  0  0  0  0
   -2.5819   20.0069  -26.3619 H   0  0  0  0  0  0  0  0  0  0  0  0
   -1.2679   17.8906  -26.4151 H   0  0  0  0  0  0  0  0  0  0  0  0
  1  2  1  0
  2  3  2  0
  2  4  2  0
  2  5  1  0
  5  6  2  0
  6  7  1  0
  7  8  2  0
  8  9  1  0
  9 10  1  0
 10 11  1  0
 11 12  1  0
 12 13  1  0
 13 14  2  0
 13 15  1  0
 15 16  1  0
 16 17  2  0
 17 18  1  0
 18 19  2  0
 19 20  1  0
 20 21  1  0
 20 22  2  0
 20 23  2  0
 19 24  1  0
 24 25  1  0
 24 26  2  0
 12 27  1  0
 27 28  1  0
  8 29  1  0
 29 30  2  0
 30  5  1  0
 28  9  1  0
 26 16  1  0
  1 31  1  0
  1 32  1  0
  1 33  1  0
  6 34  1  0
  7 35  1  0
 10 36  1  0
 10 37  1  0
 11 38  1  0
 11 39  1  0
 15 40  1  0
 15 41  1  0
 17 42  1  0
 18 43  1  0
 21 44  1  0
 21 45  1  0
 21 46  1  0
 25 47  1  0
 26 48  1  0
 27 49  1  0
 27 50  1  0
 28 51  1  0
 28 52  1  0
 29 53  1  0
 30 54  1  0
M  END
>  <UniqueID>  (4) 
4

>  <SMILES>  (4) 
CS(=O)(=O)c1ccc(N2CCN(C(=O)Cc3ccc(S(C)(=O)=O)c(O)c3)CC2)cc1

>  <Energy>  (4) 
58.24679329305023

>  <Genealogy>  (4) 
CS(=O)(=O)c1ccc(N2CCN(C(=O)Cc3ccc(S(C)(=O)=O)c(O)c3)CC2)cc1 (3D coordinates assigned)
CS(=O)(=O)c1ccc(N2CCN(C(=O)Cc3ccc(S(C)(=O)=O)c(O)c3)CC2)cc1 (nonaromatic ring conformer: 58.24679329305023 kcal/mol)

>  <smiles>  (4) 
CS(=O)(=O)c1ccc(N2CCN(C(=O)Cc3ccc(S(C)(=O)=O)c(O)c3)CC2)cc1

>  <score_type>  (4) 
oracle

>  <origin>  (4) 
adgpu

>  <m_score__min__energy>  (4) 
-9.2799999999999994

>  <m_primary>  (4) 
energy

$$$$
4:0
     RDKit          3D

 56 60  0  0  0  0  0  0  0  0999 V2000
   -9.8260   21.6450  -31.9040 C   0  0  0  0  0  0  0  0  0  0  0  0
   -8.4190   21.6930  -31.4730 N   0  0  0  0  0  0  0  0  0  0  0  0
   -7.6080   20.7250  -32.2320 C   0  0  0  0  0  0  0  0  0  0  0  0
   -6.2300   20.5960  -31.5700 C   0  0  0  0  0  0  0  0  0  0  0  0
   -5.6120   21.9430  -31.3120 C   0  0  0  0  0  0  0  0  0  0  0  0
   -4.2450   22.0260  -31.0100 C   0  0  0  0  0  0  0  0  0  0  0  0
   -3.6370   23.2640  -30.7610 C   0  0  0  0  0  0  0  0  0  0  0  0
   -2.2260   23.2780  -30.4930 N   0  0  0  0  0  0  0  0  0  0  0  0
   -1.4340   22.5320  -29.1450 S   0  0  0  0  0  0  0  0  0  0  0  0
   -0.1000   21.9770  -29.5600 O   0  0  0  0  0  0  0  0  0  0  0  0
   -2.2800   21.4160  -28.5920 O   0  0  0  0  0  0  0  0  0  0  0  0
   -1.2190   23.7570  -27.8990 C   0  0  0  0  0  0  0  0  0  0  0  0
   -2.2850   24.6190  -27.5590 C   0  0  0  0  0  0  0  0  0  0  0  0
   -2.1020   25.6450  -26.6190 C   0  0  0  0  0  0  0  0  0  0  0  0
   -0.8430   25.8020  -26.0330 C   0  0  0  0  0  0  0  0  0  0  0  0
    0.1920   24.9570  -26.3700 C   0  0  0  0  0  0  0  0  0  0  0  0
    0.0410   23.9270  -27.2970 C   0  0  0  0  0  0  0  0  0  0  0  0
    1.3520   25.3770  -25.6230 C   0  0  0  0  0  0  0  0  0  0  0  0
    2.4990   24.8580  -25.6800 O   0  0  0  0  0  0  0  0  0  0  0  0
    1.0280   26.4990  -24.8150 N   0  0  0  0  0  0  0  0  0  0  0  0
   -0.3840   26.8530  -25.0370 C   0  0  2  0  0  0  0  0  0  0  0  0
   -1.1370   26.7130  -23.7010 C   0  0  0  0  0  0  0  0  0  0  0  0
   -0.5100   28.2510  -25.6570 C   0  0  0  0  0  0  0  0  0  0  0  0
   -0.1000   28.4900  -26.9900 C   0  0  0  0  0  0  0  0  0  0  0  0
   -0.1440   29.7780  -27.5320 C   0  0  0  0  0  0  0  0  0  0  0  0
   -0.5810   30.8490  -26.7530 C   0  0  0  0  0  0  0  0  0  0  0  0
   -0.9690   30.6390  -25.4250 C   0  0  0  0  0  0  0  0  0  0  0  0
   -0.9220   29.3550  -24.8750 C   0  0  0  0  0  0  0  0  0  0  0  0
   -4.4230   24.4330  -30.7590 C   0  0  0  0  0  0  0  0  0  0  0  0
   -3.8720   25.6730  -30.4530 O   0  0  0  0  0  0  0  0  0  0  0  0
   -5.7950   24.3490  -31.0330 C   0  0  0  0  0  0  0  0  0  0  0  0
   -6.4000   23.1110  -31.2950 C   0  0  0  0  0  0  0  0  0  0  0  0
   -7.8750   23.0570  -31.6370 C   0  0  0  0  0  0  0  0  0  0  0  0
  -10.4798   21.6227  -31.0197 H   0  0  0  0  0  0  0  0  0  0  0  0
  -10.0553   22.5358  -32.5072 H   0  0  0  0  0  0  0  0  0  0  0  0
   -9.9941   20.7406  -32.5072 H   0  0  0  0  0  0  0  0  0  0  0  0
   -8.1090   19.7457  -32.2334 H   0  0  0  0  0  0  0  0  0  0  0  0
   -7.4898   21.0730  -33.2688 H   0  0  0  0  0  0  0  0  0  0  0  0
   -6.3419   20.0652  -30.6130 H   0  0  0  0  0  0  0  0  0  0  0  0
   -5.5708   20.0398  -32.2527 H   0  0  0  0  0  0  0  0  0  0  0  0
   -3.6418   21.1071  -30.9680 H   0  0  0  0  0  0  0  0  0  0  0  0
   -3.2675   24.4850  -28.0352 H   0  0  0  0  0  0  0  0  0  0  0  0
   -2.9334   26.3126  -26.3487 H   0  0  0  0  0  0  0  0  0  0  0  0
    0.8830   23.2661  -27.5505 H   0  0  0  0  0  0  0  0  0  0  0  0
    1.6850   26.9890  -24.1720 H   0  0  0  0  0  0  0  0  0  0  0  0
   -0.4317   26.8441  -22.8671 H   0  0  0  0  0  0  0  0  0  0  0  0
   -1.9227   27.4804  -23.6408 H   0  0  0  0  0  0  0  0  0  0  0  0
   -1.5944   25.7144  -23.6408 H   0  0  0  0  0  0  0  0  0  0  0  0
    0.2576   27.6526  -27.6071 H   0  0  0  0  0  0  0  0  0  0  0  0
    0.1663   29.9468  -28.5737 H   0  0  0  0  0  0  0  0  0  0  0  0
   -0.6208   31.8606  -27.1832 H   0  0  0  0  0  0  0  0  0  0  0  0
   -1.3117   31.4862  -24.8128 H   0  0  0  0  0  0  0  0  0  0  0  0
   -1.2082   29.2017  -23.8240 H   0  0  0  0  0  0  0  0  0  0  0  0
   -6.4044   25.2647  -31.0427 H   0  0  0  0  0  0  0  0  0  0  0  0
   -8.4214   23.7421  -30.9722 H   0  0  0  0  0  0  0  0  0  0  0  0
   -7.9965   23.3529  -32.6895 H   0  0  0  0  0  0  0  0  0  0  0  0
  1  2  1  0
  2  3  1  0
  3  4  1  0
  4  5  1  0
  5  6  2  0
  6  7  1  0
  7  8  1  0
  8  9  1  0
  9 10  2  0
  9 11  2  0
  9 12  1  0
 12 13  2  0
 13 14  1  0
 14 15  2  0
 15 16  1  0
 16 17  2  0
 16 18  1  0
 18 19  2  0
 18 20  1  0
 20 21  1  0
 21 22  1  1
 21 23  1  0
 23 24  2  0
 24 25  1  0
 25 26  2  0
 26 27  1  0
 27 28  2  0
  7 29  2  0
 29 30  1  0
 29 31  1  0
 31 32  2  0
 32 33  1  0
 33  2  1  0
 32  5  1  0
 17 12  1  0
 28 23  1  0
 21 15  1  0
  1 34  1  0
  1 35  1  0
  1 36  1  0
  3 37  1  0
  3 38  1  0
  4 39  1  0
  4 40  1  0
  6 41  1  0
 13 42  1  0
 14 43  1  0
 17 44  1  0
 20 45  1  0
 22 46  1  0
 22 47  1  0
 22 48  1  0
 24 49  1  0
 25 50  1  0
 26 51  1  0
 27 52  1  0
 28 53  1  0
 31 54  1  0
 33 55  1  0
 33 56  1  0
M  CHG  2   8  -1  30  -1
M  END
>  <UniqueID>  (5) 
5

>  <SMILES>  (5) 
CN1CCc2cc([N-]S(=O)(=O)c3ccc4c(c3)C(=O)N[C@@]4(C)c3ccccc3)c([O-])cc2C1

>  <Energy>  (5) 
95.3044562429805

>  <Genealogy>  (5) 
CN1CCc2cc([N-]S(=O)(=O)c3ccc4c(c3)C(=O)NC4(C)c3ccccc3)c([O-])cc2C1 (protonated)
CN1CCc2cc([N-]S(=O)(=O)c3ccc4c(c3)C(=O)N[C@@]4(C)c3ccccc3)c([O-])cc2C1 (chirality)
CN1CCc2cc([N-]S(=O)(=O)c3ccc4c(c3)C(=O)N[C@@]4(C)c3ccccc3)c([O-])cc2C1 (3D coordinates assigned)
CN1CCc2cc([N-]S(=O)(=O)c3ccc4c(c3)C(=O)N[C@@]4(C)c3ccccc3)c([O-])cc2C1 (nonaromatic ring conformer: 95.3044562429805 kcal/mol)

>  <smiles>  (5) 
CN1CCc2cc(NS(=O)(=O)c3ccc4c(c3)C(=O)NC4(C)c3ccccc3)c(O)cc2C1

>  <score_type>  (5) 
oracle

>  <origin>  (5) 
adgpu

>  <m_score__min__energy>  (5) 
-14.050000000000001

>  <m_primary>  (5) 
energy

$$$$
5:0
     RDKit          3D

 66 70  0  0  0  0  0  0  0  0999 V2000
   -1.5150   21.5550  -32.7260 C   0  0  0  0  0  0  0  0  0  0  0  0
   -1.2170   20.1000  -32.2880 C   0  0  0  0  0  0  0  0  0  0  0  0
   -0.2340   19.4970  -33.3150 C   0  0  0  0  0  0  0  0  0  0  0  0
   -2.5460   19.3170  -32.3280 C   0  0  0  0  0  0  0  0  0  0  0  0
   -0.6070   20.0040  -30.8740 C   0  0  0  0  0  0  0  0  0  0  0  0
    0.7780   19.7710  -30.7300 C   0  0  0  0  0  0  0  0  0  0  0  0
    1.3650   19.6760  -29.4690 C   0  0  0  0  0  0  0  0  0  0  0  0
    0.5900   19.8070  -28.3200 C   0  0  0  0  0  0  0  0  0  0  0  0
   -0.7910   20.0400  -28.4170 C   0  0  0  0  0  0  0  0  0  0  0  0
   -1.6160   20.1870  -27.1920 C   0  0  0  0  0  0  0  0  0  0  0  0
   -2.0300   19.1620  -26.5870 O   0  0  0  0  0  0  0  0  0  0  0  0
   -1.9890   21.4940  -26.7330 N   0  0  0  0  0  0  0  0  0  0  0  0
   -1.8060   22.7320  -27.4340 C   0  0  0  0  0  0  0  0  0  0  0  0
   -0.8170   23.6160  -26.9860 C   0  0  0  0  0  0  0  0  0  0  0  0
   -0.6240   24.8430  -27.6250 C   0  0  0  0  0  0  0  0  0  0  0  0
   -1.4240   25.2040  -28.7130 C   0  0  0  0  0  0  0  0  0  0  0  0
   -1.2170   26.4290  -29.3370 O   0  0  0  0  0  0  0  0  0  0  0  0
   -2.4270   24.3330  -29.1710 C   0  0  0  0  0  0  0  0  0  0  0  0
   -3.2800   24.7330  -30.2580 N   0  0  0  0  0  0  0  0  0  0  0  0
   -4.3430   23.9240  -30.7930 C   0  0  0  0  0  0  0  0  0  0  0  0
   -4.0610   22.6070  -31.2260 C   0  0  0  0  0  0  0  0  0  0  0  0
   -5.0790   21.7730  -31.7190 C   0  0  0  0  0  0  0  0  0  0  0  0
   -6.3860   22.2770  -31.7580 C   0  0  0  0  0  0  0  0  0  0  0  0
   -6.6600   23.5480  -31.3320 C   0  0  0  0  0  0  0  0  0  0  0  0
   -5.6750   24.3980  -30.8360 C   0  0  0  0  0  0  0  0  0  0  0  0
   -7.9680   23.8190  -31.4540 N   0  0  0  0  0  0  0  0  0  0  0  0
   -8.4730   22.6710  -31.9690 C   0  0  0  0  0  0  0  0  0  0  0  0
   -7.5430   21.6990  -32.1580 N   0  0  0  0  0  0  0  0  0  0  0  0
   -7.8490   20.3770  -32.7400 C   0  0  2  0  0  0  0  0  0  0  0  0
   -7.8110   19.2100  -31.7200 C   0  0  0  0  0  0  0  0  0  0  0  0
   -7.2160   17.9610  -32.3610 C   0  0  0  0  0  0  0  0  0  0  0  0
   -5.8470   18.2720  -32.9700 C   0  0  0  0  0  0  0  0  0  0  0  0
   -5.8260   19.6270  -33.7060 C   0  0  0  0  0  0  0  0  0  0  0  0
   -7.1170   20.1520  -33.9400 O   0  0  0  0  0  0  0  0  0  0  0  0
   -2.6300   23.1090  -28.5100 C   0  0  0  0  0  0  0  0  0  0  0  0
   -1.3810   20.1350  -29.6940 C   0  0  0  0  0  0  0  0  0  0  0  0
   -1.6444   22.1869  -31.8350 H   0  0  0  0  0  0  0  0  0  0  0  0
   -0.6763   21.9361  -33.3271 H   0  0  0  0  0  0  0  0  0  0  0  0
   -2.4360   21.5756  -33.3271 H   0  0  0  0  0  0  0  0  0  0  0  0
    0.5873   18.9932  -32.7844 H   0  0  0  0  0  0  0  0  0  0  0  0
   -0.7642   18.7686  -33.9461 H   0  0  0  0  0  0  0  0  0  0  0  0
    0.1751   20.2997  -33.9461 H   0  0  0  0  0  0  0  0  0  0  0  0
   -2.8850   19.1173  -31.3008 H   0  0  0  0  0  0  0  0  0  0  0  0
   -3.3061   19.9116  -32.8559 H   0  0  0  0  0  0  0  0  0  0  0  0
   -2.3943   18.3639  -32.8559 H   0  0  0  0  0  0  0  0  0  0  0  0
    1.4044   19.6626  -31.6277 H   0  0  0  0  0  0  0  0  0  0  0  0
    2.4467   19.4965  -29.3815 H   0  0  0  0  0  0  0  0  0  0  0  0
    1.0627   19.7274  -27.3299 H   0  0  0  0  0  0  0  0  0  0  0  0
   -0.1883   23.3426  -26.1258 H   0  0  0  0  0  0  0  0  0  0  0  0
    0.1605   25.5278  -27.2707 H   0  0  0  0  0  0  0  0  0  0  0  0
   -3.1210   25.6750  -30.6820 H   0  0  0  0  0  0  0  0  0  0  0  0
   -3.0289   22.2299  -31.1760 H   0  0  0  0  0  0  0  0  0  0  0  0
   -4.8561   20.7528  -32.0647 H   0  0  0  0  0  0  0  0  0  0  0  0
   -5.9259   25.4106  -30.4871 H   0  0  0  0  0  0  0  0  0  0  0  0
   -9.5378   22.5388  -32.2115 H   0  0  0  0  0  0  0  0  0  0  0  0
   -8.9080   20.3989  -33.0368 H   0  0  0  0  0  0  0  0  0  0  0  0
   -7.1947   19.5030  -30.8573 H   0  0  0  0  0  0  0  0  0  0  0  0
   -8.8379   18.9883  -31.3940 H   0  0  0  0  0  0  0  0  0  0  0  0
   -7.1025   17.1799  -31.5949 H   0  0  0  0  0  0  0  0  0  0  0  0
   -7.8899   17.6146  -33.1584 H   0  0  0  0  0  0  0  0  0  0  0  0
   -5.0988   18.2960  -32.1640 H   0  0  0  0  0  0  0  0  0  0  0  0
   -5.6207   17.4865  -33.7061 H   0  0  0  0  0  0  0  0  0  0  0  0
   -5.2605   20.3474  -33.0967 H   0  0  0  0  0  0  0  0  0  0  0  0
   -5.3578   19.4595  -34.6872 H   0  0  0  0  0  0  0  0  0  0  0  0
   -3.4400   22.4404  -28.8369 H   0  0  0  0  0  0  0  0  0  0  0  0
   -2.4632   20.3143  -29.7761 H   0  0  0  0  0  0  0  0  0  0  0  0
  1  2  1  0
  2  3  1  0
  2  4  1  0
  2  5  1  0
  5  6  2  0
  6  7  1  0
  7  8  2  0
  8  9  1  0
  9 10  1  0
 10 11  2  0
 10 12  1  0
 12 13  1  0
 13 14  2  0
 14 15  1  0
 15 16  2  0
 16 17  1  0
 16 18  1  0
 18 19  1  0
 19 20  1  0
 20 21  2  0
 21 22  1  0
 22 23  2  0
 23 24  1  0
 24 25  2  0
 24 26  1  0
 26 27  2  0
 27 28  1  0
 28 29  1  0
 29 30  1  0
 30 31  1  0
 31 32  1  0
 32 33  1  0
 33 34  1  0
 18 35  2  0
  9 36  2  0
 36  5  1  0
 35 13  1  0
 25 20  1  0
 34 29  1  0
 28 23  1  0
  1 37  1  0
  1 38  1  0
  1 39  1  0
  3 40  1  0
  3 41  1  0
  3 42  1  0
  4 43  1  0
  4 44  1  0
  4 45  1  0
  6 46  1  0
  7 47  1  0
  8 48  1  0
 14 49  1  0
 15 50  1  0
 19 51  1  0
 21 52  1  0
 22 53  1  0
 25 54  1  0
 27 55  1  0
 29 56  1  6
 30 57  1  0
 30 58  1  0
 31 59  1  0
 31 60  1  0
 32 61  1  0
 32 62  1  0
 33 63  1  0
 33 64  1  0
 35 65  1  0
 36 66  1  0
M  CHG  2  12  -1  17  -1
M  END
>  <UniqueID>  (6) 
6

>  <SMILES>  (6) 
CC(C)(C)c1cccc(C(=O)[N-]c2ccc([O-])c(Nc3ccc4c(c3)ncn4[C@@H]3CCCCO3)c2)c1

>  <Energy>  (6) 
132.9227716755702

>  <Genealogy>  (6) 
CC(C)(C)c1cccc(C(=O)[N-]c2ccc([O-])c(Nc3ccc4c(c3)ncn4C3CCCCO3)c2)c1 (protonated)
CC(C)(C)c1cccc(C(=O)[N-]c2ccc([O-])c(Nc3ccc4c(c3)ncn4[C@@H]3CCCCO3)c2)c1 (chirality)
CC(C)(C)c1cccc(C(=O)[N-]c2ccc([O-])c(Nc3ccc4c(c3)ncn4[C@@H]3CCCCO3)c2)c1 (3D coordinates assigned)
CC(C)(C)c1cccc(C(=O)[N-]c2ccc([O-])c(Nc3ccc4c(c3)ncn4[C@@H]3CCCCO3)c2)c1 (nonaromatic ring conformer: 132.9227716755702 kcal/mol)

>  <smiles>  (6) 
CC(C)(C)c1cccc(C(=O)Nc2ccc(O)c(Nc3ccc4c(c3)ncn4C3CCCCO3)c2)c1

>  <score_type>  (6) 
oracle

>  <origin>  (6) 
adgpu

>  <m_score__min__energy>  (6) 
-13.92

>  <m_primary>  (6) 
energy

$$$$
6:0
     RDKit          3D

 38 40  0  0  0  0  0  0  0  0999 V2000
   -3.7900   16.6770  -35.4080 C   0  0  0  0  0  0  0  0  0  0  0  0
   -5.0010   16.9990  -34.6640 N   0  0  0  0  0  0  0  0  0  0  0  0
   -5.8990   16.1130  -34.1880 C   0  0  0  0  0  0  0  0  0  0  0  0
   -6.8630   16.7730  -33.4510 C   0  0  0  0  0  0  0  0  0  0  0  0
   -6.5150   18.1080  -33.4800 C   0  0  0  0  0  0  0  0  0  0  0  0
   -7.3540   19.4150  -32.6650 S   0  0  0  0  0  0  0  0  0  0  0  0
   -6.9970   19.3960  -31.2060 O   0  0  0  0  0  0  0  0  0  0  0  0
   -8.8410   19.2490  -32.8150 O   0  0  0  0  0  0  0  0  0  0  0  0
   -6.8770   20.9310  -33.3510 N   0  0  0  0  0  0  0  0  0  0  0  0
   -5.9700   21.8280  -32.7060 C   0  0  0  0  0  0  0  0  0  0  0  0
   -4.6010   21.6840  -32.5820 C   0  0  0  0  0  0  0  0  0  0  0  0
   -4.1070   22.7360  -31.9070 N   0  0  0  0  0  0  0  0  0  0  0  0
   -5.1480   23.5370  -31.5950 C   0  0  0  0  0  0  0  0  0  0  0  0
   -5.0080   24.8120  -30.8640 C   0  0  0  0  0  0  0  0  0  0  0  0
   -6.0150   25.5570  -30.7310 O   0  0  0  0  0  0  0  0  0  0  0  0
   -3.7740   25.2040  -30.2500 N   0  0  0  0  0  0  0  0  0  0  0  0
   -3.0860   24.4920  -29.2080 C   0  0  0  0  0  0  0  0  0  0  0  0
   -3.6350   23.3350  -28.6260 C   0  0  0  0  0  0  0  0  0  0  0  0
   -2.9370   22.6520  -27.6250 C   0  0  0  0  0  0  0  0  0  0  0  0
   -1.6820   23.1060  -27.2120 C   0  0  0  0  0  0  0  0  0  0  0  0
   -1.1200   24.2410  -27.8040 C   0  0  0  0  0  0  0  0  0  0  0  0
   -1.8160   24.9290  -28.8040 C   0  0  0  0  0  0  0  0  0  0  0  0
   -1.2430   26.0530  -29.3890 O   0  0  0  0  0  0  0  0  0  0  0  0
   -6.3290   23.0050  -32.0900 C   0  0  0  0  0  0  0  0  0  0  0  0
   -5.3590   18.2200  -34.2250 C   0  0  0  0  0  0  0  0  0  0  0  0
   -2.9736   16.4599  -34.7034 H   0  0  0  0  0  0  0  0  0  0  0  0
   -3.9719   15.7960  -36.0411 H   0  0  0  0  0  0  0  0  0  0  0  0
   -3.5104   17.5320  -36.0411 H   0  0  0  0  0  0  0  0  0  0  0  0
   -5.8685   15.0271  -34.3607 H   0  0  0  0  0  0  0  0  0  0  0  0
   -7.7309   16.3257  -32.9444 H   0  0  0  0  0  0  0  0  0  0  0  0
   -4.0101   20.8427  -32.9733 H   0  0  0  0  0  0  0  0  0  0  0  0
   -3.1020   22.8940  -31.6670 H   0  0  0  0  0  0  0  0  0  0  0  0
   -4.6163   22.9664  -28.9593 H   0  0  0  0  0  0  0  0  0  0  0  0
   -3.3767   21.7562  -27.1622 H   0  0  0  0  0  0  0  0  0  0  0  0
   -1.1362   22.5706  -26.4212 H   0  0  0  0  0  0  0  0  0  0  0  0
   -0.1288   24.5938  -27.4830 H   0  0  0  0  0  0  0  0  0  0  0  0
   -7.3389   23.4331  -32.0077 H   0  0  0  0  0  0  0  0  0  0  0  0
   -4.8175   19.1559  -34.4274 H   0  0  0  0  0  0  0  0  0  0  0  0
  1  2  1  0
  2  3  1  0
  3  4  2  0
  4  5  1  0
  5  6  1  0
  6  7  2  0
  6  8  2  0
  6  9  1  0
  9 10  1  0
 10 11  2  0
 11 12  1  0
 12 13  1  0
 13 14  1  0
 14 15  2  0
 14 16  1  0
 16 17  1  0
 17 18  2  0
 18 19  1  0
 19 20  2  0
 20 21  1  0
 21 22  2  0
 22 23  1  0
 13 24  2  0
  5 25  2  0
 25  2  1  0
 24 10  1  0
 22 17  1  0
  1 26  1  0
  1 27  1  0
  1 28  1  0
  3 29  1  0
  4 30  1  0
 11 31  1  0
 12 32  1  0
 18 33  1  0
 19 34  1  0
 20 35  1  0
 21 36  1  0
 24 37  1  0
 25 38  1  0
M  CHG  3   9  -1  16  -1  23  -1
M  END
>  <UniqueID>  (7) 
7

>  <SMILES>  (7) 
Cn1ccc(S(=O)(=O)[N-]c2c[nH]c(C(=O)[N-]c3ccccc3[O-])c2)c1

>  <Energy>  (7) 
98.61338783499885

>  <Genealogy>  (7) 
Cn1ccc(S(=O)(=O)[N-]c2c[nH]c(C(=O)[N-]c3ccccc3[O-])c2)c1 (protonated)
Cn1ccc(S(=O)(=O)[N-]c2c[nH]c(C(=O)[N-]c3ccccc3[O-])c2)c1 (3D coordinates assigned)
Cn1ccc(S(=O)(=O)[N-]c2c[nH]c(C(=O)[N-]c3ccccc3[O-])c2)c1 (optimized conformer: 98.61338783499885 kcal/mol)

>  <smiles>  (7) 
Cn1ccc(S(=O)(=O)Nc2c[nH]c(C(=O)Nc3ccccc3O)c2)c1

>  <score_type>  (7) 
oracle

>  <origin>  (7) 
adgpu

>  <m_score__min__energy>  (7) 
-13.67

>  <m_primary>  (7) 
energy

$$$$
7:0
     RDKit          3D

 57 60  0  0  0  0  0  0  0  0999 V2000
   -6.4900   18.8770  -34.5820 O   0  0  0  0  0  0  0  0  0  0  0  0
   -5.5840   19.3460  -33.8370 C   0  0  0  0  0  0  0  0  0  0  0  0
   -4.2600   18.6760  -33.7900 C   0  0  0  0  0  0  0  0  0  0  0  0
   -4.1290   17.3730  -33.2750 C   0  0  0  0  0  0  0  0  0  0  0  0
   -2.8700   16.7810  -33.1780 C   0  0  0  0  0  0  0  0  0  0  0  0
   -1.7310   17.4720  -33.5960 C   0  0  0  0  0  0  0  0  0  0  0  0
   -1.8400   18.7640  -34.1250 C   0  0  0  0  0  0  0  0  0  0  0  0
   -0.6460   19.4340  -34.5520 N   0  0  0  0  0  0  0  0  0  0  0  0
    0.3410   20.4930  -33.5940 S   0  0  0  0  0  0  0  0  0  0  0  0
    1.7720   20.0350  -33.5990 O   0  0  0  0  0  0  0  0  0  0  0  0
    0.2950   21.8700  -34.1990 O   0  0  0  0  0  0  0  0  0  0  0  0
   -0.2910   20.5710  -31.9500 C   0  0  0  0  0  0  0  0  0  0  0  0
    0.1650   19.6630  -30.9870 C   0  0  0  0  0  0  0  0  0  0  0  0
   -0.3090   19.7250  -29.6760 C   0  0  0  0  0  0  0  0  0  0  0  0
   -1.2380   20.7080  -29.3100 C   0  0  0  0  0  0  0  0  0  0  0  0
   -1.8330   20.8010  -27.6500 S   0  0  0  0  0  0  0  0  0  0  0  0
   -0.6670   20.7240  -26.7060 O   0  0  0  0  0  0  0  0  0  0  0  0
   -2.7270   19.6230  -27.3750 O   0  0  0  0  0  0  0  0  0  0  0  0
   -2.7310   22.2710  -27.3570 N   0  0  0  0  0  0  0  0  0  0  0  0
   -1.8620   23.4510  -27.5040 C   0  0  0  0  0  0  0  0  0  0  0  0
   -2.5880   24.7140  -26.9990 C   0  0  0  0  0  0  0  0  0  0  0  0
   -4.1180   24.5600  -27.0160 C   0  0  0  0  0  0  0  0  0  0  0  0
   -4.5760   23.7380  -28.2260 C   0  0  0  0  0  0  0  0  0  0  0  0
   -3.8890   22.3520  -28.2710 C   0  0  0  0  0  0  0  0  0  0  0  0
   -1.6970   21.6220  -30.2710 C   0  0  0  0  0  0  0  0  0  0  0  0
   -1.2330   21.5480  -31.5860 C   0  0  0  0  0  0  0  0  0  0  0  0
   -3.1090   19.3640  -34.2120 C   0  0  0  0  0  0  0  0  0  0  0  0
   -5.8830   20.5390  -33.0150 C   0  0  0  0  0  0  0  0  0  0  0  0
   -4.8200   21.3570  -32.5890 C   0  0  0  0  0  0  0  0  0  0  0  0
   -5.0570   22.4440  -31.7430 C   0  0  0  0  0  0  0  0  0  0  0  0
   -4.0210   23.2150  -31.3200 F   0  0  0  0  0  0  0  0  0  0  0  0
   -6.3560   22.7290  -31.3190 C   0  0  0  0  0  0  0  0  0  0  0  0
   -7.4240   21.9320  -31.7460 C   0  0  0  0  0  0  0  0  0  0  0  0
   -7.2010   20.8430  -32.5970 C   0  0  0  0  0  0  0  0  0  0  0  0
   -8.3070   20.1010  -33.0240 O   0  0  0  0  0  0  0  0  0  0  0  0
   -5.0219   16.8200  -32.9481 H   0  0  0  0  0  0  0  0  0  0  0  0
   -2.7738   15.7640  -32.7699 H   0  0  0  0  0  0  0  0  0  0  0  0
   -0.7419   16.9986  -33.5092 H   0  0  0  0  0  0  0  0  0  0  0  0
    0.9020   18.8954  -31.2657 H   0  0  0  0  0  0  0  0  0  0  0  0
    0.0473   19.0009  -28.9286 H   0  0  0  0  0  0  0  0  0  0  0  0
   -0.9435   23.3010  -26.9175 H   0  0  0  0  0  0  0  0  0  0  0  0
   -1.6119   23.5820  -28.5672 H   0  0  0  0  0  0  0  0  0  0  0  0
   -2.2654   24.9176  -25.9673 H   0  0  0  0  0  0  0  0  0  0  0  0
   -2.3278   25.5419  -27.6749 H   0  0  0  0  0  0  0  0  0  0  0  0
   -4.4383   24.0520  -26.0944 H   0  0  0  0  0  0  0  0  0  0  0  0
   -4.5694   25.5609  -27.0823 H   0  0  0  0  0  0  0  0  0  0  0  0
   -5.6650   23.5941  -28.1674 H   0  0  0  0  0  0  0  0  0  0  0  0
   -4.2989   24.2873  -29.1378 H   0  0  0  0  0  0  0  0  0  0  0  0
   -4.6220   21.5842  -27.9825 H   0  0  0  0  0  0  0  0  0  0  0  0
   -3.5215   22.1913  -29.2953 H   0  0  0  0  0  0  0  0  0  0  0  0
   -2.4235   22.3980  -29.9879 H   0  0  0  0  0  0  0  0  0  0  0  0
   -1.6063   22.2571  -32.3396 H   0  0  0  0  0  0  0  0  0  0  0  0
   -3.2020   20.3833  -34.6149 H   0  0  0  0  0  0  0  0  0  0  0  0
   -3.7952   21.1393  -32.9243 H   0  0  0  0  0  0  0  0  0  0  0  0
   -6.5404   23.5812  -30.6484 H   0  0  0  0  0  0  0  0  0  0  0  0
   -8.4459   22.1628  -31.4106 H   0  0  0  0  0  0  0  0  0  0  0  0
   -8.3790   19.6980  -33.9490 H   0  0  0  0  0  0  0  0  0  0  0  0
  1  2  2  0
  2  3  1  0
  3  4  2  0
  4  5  1  0
  5  6  2  0
  6  7  1  0
  7  8  1  0
  8  9  1  0
  9 10  2  0
  9 11  2  0
  9 12  1  0
 12 13  2  0
 13 14  1  0
 14 15  2  0
 15 16  1  0
 16 17  2  0
 16 18  2  0
 16 19  1  0
 19 20  1  0
 20 21  1  0
 21 22  1  0
 22 23  1  0
 23 24  1  0
 15 25  1  0
 25 26  2  0
  7 27  2  0
  2 28  1  0
 28 29  2  0
 29 30  1  0
 30 31  1  0
 30 32  2  0
 32 33  1  0
 33 34  2  0
 34 35  1  0
 27  3  1  0
 34 28  1  0
 26 12  1  0
 24 19  1  0
  4 36  1  0
  5 37  1  0
  6 38  1  0
 13 39  1  0
 14 40  1  0
 20 41  1  0
 20 42  1  0
 21 43  1  0
 21 44  1  0
 22 45  1  0
 22 46  1  0
 23 47  1  0
 23 48  1  0
 24 49  1  0
 24 50  1  0
 25 51  1  0
 26 52  1  0
 27 53  1  0
 29 54  1  0
 32 55  1  0
 33 56  1  0
 35 57  1  0
M  CHG  1   8  -1
M  END
>  <UniqueID>  (8) 
8

>  <SMILES>  (8) 
O=C(c1cccc([N-]S(=O)(=O)c2ccc(S(=O)(=O)N3CCCCC3)cc2)c1)c1cc(F)ccc1O

>  <Energy>  (8) 
76.2729981941192

>  <Genealogy>  (8) 
O=C(c1cccc([N-]S(=O)(=O)c2ccc(S(=O)(=O)N3CCCCC3)cc2)c1)c1cc(F)ccc1O (protonated)
O=C(c1cccc([N-]S(=O)(=O)c2ccc(S(=O)(=O)N3CCCCC3)cc2)c1)c1cc(F)ccc1O (3D coordinates assigned)
O=C(c1cccc([N-]S(=O)(=O)c2ccc(S(=O)(=O)N3CCCCC3)cc2)c1)c1cc(F)ccc1O (nonaromatic ring conformer: 76.2729981941192 kcal/mol)

>  <smiles>  (8) 
O=C(c1cccc(NS(=O)(=O)c2ccc(S(=O)(=O)N3CCCCC3)cc2)c1)c1cc(F)ccc1O

>  <score_type>  (8) 
oracle

>  <origin>  (8) 
adgpu

>  <m_score__min__energy>  (8) 
-12.289999999999999

>  <m_primary>  (8) 
energy

$$$$
8:0
     RDKit          3D

 57 59  0  0  0  0  0  0  0  0999 V2000
   -9.4620   18.2000  -31.9120 C   0  0  0  0  0  0  0  0  0  0  0  0
   -8.0480   18.6160  -32.1910 C   0  0  0  0  0  0  0  0  0  0  0  0
   -6.9790   17.9520  -31.5710 C   0  0  0  0  0  0  0  0  0  0  0  0
   -5.6630   18.3650  -31.8030 C   0  0  0  0  0  0  0  0  0  0  0  0
   -5.4040   19.4560  -32.6420 C   0  0  0  0  0  0  0  0  0  0  0  0
   -3.7420   19.9700  -32.9150 S   0  0  0  0  0  0  0  0  0  0  0  0
   -2.8640   18.7520  -32.9870 O   0  0  0  0  0  0  0  0  0  0  0  0
   -3.6190   20.7160  -34.2150 O   0  0  0  0  0  0  0  0  0  0  0  0
   -3.2300   21.0270  -31.5910 C   0  0  0  0  0  0  0  0  0  0  0  0
   -4.0540   22.1070  -31.2400 C   0  0  0  0  0  0  0  0  0  0  0  0
   -3.6990   22.9680  -30.1960 C   0  0  0  0  0  0  0  0  0  0  0  0
   -4.7160   24.3530  -29.8080 S   0  0  0  0  0  0  0  0  0  0  0  0
   -4.6250   24.6490  -28.3360 O   0  0  0  0  0  0  0  0  0  0  0  0
   -4.2310   25.5550  -30.5690 O   0  0  0  0  0  0  0  0  0  0  0  0
   -6.3630   24.0000  -30.2650 N   0  0  0  0  0  0  0  0  0  0  0  0
   -6.5100   23.9310  -31.7180 C   0  0  0  0  0  0  0  0  0  0  0  0
   -7.6910   23.0130  -31.9890 C   0  0  0  0  0  0  0  0  0  0  0  0
   -7.8620   22.1920  -30.7190 C   0  0  0  0  0  0  0  0  0  0  0  0
   -6.7850   22.6920  -29.7670 C   0  0  0  0  0  0  0  0  0  0  0  0
   -2.5100   22.7520  -29.4970 C   0  0  0  0  0  0  0  0  0  0  0  0
   -1.6790   21.6840  -29.8360 C   0  0  0  0  0  0  0  0  0  0  0  0
   -2.0180   20.8130  -30.8890 C   0  0  0  0  0  0  0  0  0  0  0  0
   -1.1270   19.7420  -31.2650 N   0  0  0  0  0  0  0  0  0  0  0  0
    0.3050   19.9200  -31.5160 C   0  0  0  0  0  0  0  0  0  0  0  0
    0.5330   20.9600  -32.6220 C   0  0  0  0  0  0  0  0  0  0  0  0
    0.1540   20.4320  -34.0150 C   0  0  0  0  0  0  0  0  0  0  0  0
   -1.2920   20.4580  -34.2400 N   0  0  0  0  0  0  0  0  0  0  0  0
   -6.4700   20.1300  -33.2510 C   0  0  0  0  0  0  0  0  0  0  0  0
   -7.7870   19.7170  -33.0220 C   0  0  0  0  0  0  0  0  0  0  0  0
   -9.6226   18.1528  -30.8248 H   0  0  0  0  0  0  0  0  0  0  0  0
  -10.1536   18.9327  -32.3533 H   0  0  0  0  0  0  0  0  0  0  0  0
   -9.6467   17.2095  -32.3533 H   0  0  0  0  0  0  0  0  0  0  0  0
   -7.1766   17.1032  -30.8998 H   0  0  0  0  0  0  0  0  0  0  0  0
   -4.8286   17.8310  -31.3248 H   0  0  0  0  0  0  0  0  0  0  0  0
   -4.9899   22.2787  -31.7920 H   0  0  0  0  0  0  0  0  0  0  0  0
   -6.7054   24.9328  -32.1282 H   0  0  0  0  0  0  0  0  0  0  0  0
   -5.5935   23.5510  -32.1930 H   0  0  0  0  0  0  0  0  0  0  0  0
   -8.5978   23.6017  -32.1921 H   0  0  0  0  0  0  0  0  0  0  0  0
   -7.5211   22.3756  -32.8693 H   0  0  0  0  0  0  0  0  0  0  0  0
   -8.8613   22.3528  -30.2883 H   0  0  0  0  0  0  0  0  0  0  0  0
   -7.7679   21.1134  -30.9132 H   0  0  0  0  0  0  0  0  0  0  0  0
   -7.1918   22.7864  -28.7494 H   0  0  0  0  0  0  0  0  0  0  0  0
   -5.9378   21.9917  -29.7229 H   0  0  0  0  0  0  0  0  0  0  0  0
   -2.2272   23.4267  -28.6755 H   0  0  0  0  0  0  0  0  0  0  0  0
   -0.7477   21.5204  -29.2739 H   0  0  0  0  0  0  0  0  0  0  0  0
   -1.5010   18.7720  -31.3560 H   0  0  0  0  0  0  0  0  0  0  0  0
    0.7946   20.2613  -30.5920 H   0  0  0  0  0  0  0  0  0  0  0  0
    0.7313   18.9587  -31.8389 H   0  0  0  0  0  0  0  0  0  0  0  0
   -0.0787   21.8476  -32.4029 H   0  0  0  0  0  0  0  0  0  0  0  0
    1.6061   21.2015  -32.6371 H   0  0  0  0  0  0  0  0  0  0  0  0
    0.6426   21.0578  -34.7763 H   0  0  0  0  0  0  0  0  0  0  0  0
    0.4882   19.3862  -34.0829 H   0  0  0  0  0  0  0  0  0  0  0  0
   -1.7960   20.6530  -33.3460 H   0  0  0  0  0  0  0  0  0  0  0  0
   -1.5380   21.1820  -34.9540 H   0  0  0  0  0  0  0  0  0  0  0  0
   -1.5980   19.5220  -34.5930 H   0  0  0  0  0  0  0  0  0  0  0  0
   -6.2712   20.9869  -33.9115 H   0  0  0  0  0  0  0  0  0  0  0  0
   -8.6208   20.2568  -33.4947 H   0  0  0  0  0  0  0  0  0  0  0  0
  1  2  1  0
  2  3  2  0
  3  4  1  0
  4  5  2  0
  5  6  1  0
  6  7  2  0
  6  8  2  0
  6  9  1  0
  9 10  2  0
 10 11  1  0
 11 12  1  0
 12 13  2  0
 12 14  2  0
 12 15  1  0
 15 16  1  0
 16 17  1  0
 17 18  1  0
 18 19  1  0
 11 20  2  0
 20 21  1  0
 21 22  2  0
 22 23  1  0
 23 24  1  0
 24 25  1  0
 25 26  1  0
 26 27  1  0
  5 28  1  0
 28 29  2  0
 29  2  1  0
 22  9  1  0
 19 15  1  0
  1 30  1  0
  1 31  1  0
  1 32  1  0
  3 33  1  0
  4 34  1  0
 10 35  1  0
 16 36  1  0
 16 37  1  0
 17 38  1  0
 17 39  1  0
 18 40  1  0
 18 41  1  0
 19 42  1  0
 19 43  1  0
 20 44  1  0
 21 45  1  0
 23 46  1  0
 24 47  1  0
 24 48  1  0
 25 49  1  0
 25 50  1  0
 26 51  1  0
 26 52  1  0
 27 53  1  0
 27 54  1  0
 27 55  1  0
 28 56  1  0
 29 57  1  0
M  CHG  1  27   1
M  END
>  <UniqueID>  (9) 
9

>  <SMILES>  (9) 
Cc1ccc(S(=O)(=O)c2cc(S(=O)(=O)N3CCCC3)ccc2NCCC[NH3+])cc1

>  <Energy>  (9) 
55.842272469799454

>  <Genealogy>  (9) 
Cc1ccc(S(=O)(=O)c2cc(S(=O)(=O)N3CCCC3)ccc2NCCC[NH3+])cc1 (protonated)
Cc1ccc(S(=O)(=O)c2cc(S(=O)(=O)N3CCCC3)ccc2NCCC[NH3+])cc1 (3D coordinates assigned)
Cc1ccc(S(=O)(=O)c2cc(S(=O)(=O)N3CCCC3)ccc2NCCC[NH3+])cc1 (nonaromatic ring conformer: 55.842272469799454 kcal/mol)

>  <smiles>  (9) 
Cc1ccc(S(=O)(=O)c2cc(S(=O)(=O)N3CCCC3)ccc2NCCCN)cc1

>  <score_type>  (9) 
oracle

>  <origin>  (9) 
adgpu

>  <m_score__min__energy>  (9) 
-9.0899999999999999

>  <m_primary>  (9) 
energy

$$$$
9:0
     RDKit          3D

 73 77  0  0  0  0  0  0  0  0999 V2000
   -6.1590   25.2750  -29.9400 C   0  0  0  0  0  0  0  0  0  0  0  0
   -5.0790   24.5750  -30.7550 C   0  0  0  0  0  0  0  0  0  0  0  0
   -3.7760   25.1640  -30.4650 N   0  0  0  0  0  0  0  0  0  0  0  0
   -2.8300   24.7070  -29.4880 C   0  0  0  0  0  0  0  0  0  0  0  0
   -2.0730   25.5540  -28.9500 O   0  0  0  0  0  0  0  0  0  0  0  0
   -2.7090   23.2880  -29.0950 C   0  0  0  0  0  0  0  0  0  0  0  0
   -3.4870   22.6370  -28.1450 C   0  0  0  0  0  0  0  0  0  0  0  0
   -3.0020   21.3980  -27.9760 N   0  0  0  0  0  0  0  0  0  0  0  0
   -3.4340   20.4750  -27.1220 N   0  0  0  0  0  0  0  0  0  0  0  0
   -2.7770   19.2860  -27.0560 C   0  0  0  0  0  0  0  0  0  0  0  0
   -1.6800   19.0720  -27.8390 N   0  0  0  0  0  0  0  0  0  0  0  0
   -1.2290   20.0260  -28.7060 C   0  0  0  0  0  0  0  0  0  0  0  0
   -0.1680   19.8250  -29.4300 N   0  0  0  0  0  0  0  0  0  0  0  0
    0.6280   18.6010  -29.3800 C   0  0  0  0  0  0  0  0  0  0  0  0
    1.2290   18.2960  -30.7270 C   0  0  0  0  0  0  0  0  0  0  0  0
    1.7440   17.0180  -31.0140 C   0  0  0  0  0  0  0  0  0  0  0  0
    2.1960   16.7110  -32.3010 C   0  0  0  0  0  0  0  0  0  0  0  0
    2.1080   17.6640  -33.3210 C   0  0  0  0  0  0  0  0  0  0  0  0
    1.5840   18.9360  -33.0570 C   0  0  0  0  0  0  0  0  0  0  0  0
    1.3830   19.8420  -34.1490 N   0  0  0  0  0  0  0  0  0  0  0  0
    0.3460   20.8280  -34.2260 C   0  0  0  0  0  0  0  0  0  0  0  0
    0.5910   21.9570  -34.7310 O   0  0  0  0  0  0  0  0  0  0  0  0
   -1.0080   20.5190  -33.7160 C   0  0  0  0  0  0  0  0  0  0  0  0
   -1.5280   19.2200  -33.8390 C   0  0  0  0  0  0  0  0  0  0  0  0
   -2.7730   18.8990  -33.2930 C   0  0  0  0  0  0  0  0  0  0  0  0
   -3.5230   19.8730  -32.6170 C   0  0  0  0  0  0  0  0  0  0  0  0
   -4.8470   19.5120  -31.9910 C   0  0  0  0  0  0  0  0  0  0  0  0
   -5.9690   20.1680  -32.6940 N   0  0  0  0  0  0  0  0  0  0  0  0
   -6.1510   21.5830  -32.2720 C   0  0  0  0  0  0  0  0  0  0  0  0
   -7.2230   21.7370  -31.1800 C   0  0  0  0  0  0  0  0  0  0  0  0
   -8.5450   21.1980  -31.5970 N   0  0  0  0  0  0  0  0  0  0  0  0
   -9.4800   22.2770  -31.9500 C   0  0  0  0  0  0  0  0  0  0  0  0
   -8.4640   20.2100  -32.6950 C   0  0  0  0  0  0  0  0  0  0  0  0
   -7.2020   19.3530  -32.5660 C   0  0  0  0  0  0  0  0  0  0  0  0
   -3.0250   21.1800  -32.5220 C   0  0  0  0  0  0  0  0  0  0  0  0
   -1.7730   21.5000  -33.0580 C   0  0  0  0  0  0  0  0  0  0  0  0
    1.1400   19.2450  -31.7580 C   0  0  0  0  0  0  0  0  0  0  0  0
   -1.9360   21.2290  -28.7710 C   0  0  0  0  0  0  0  0  0  0  0  0
   -1.7160   22.3900  -29.5040 C   0  0  0  0  0  0  0  0  0  0  0  0
   -0.5930   22.6670  -30.4580 C   0  0  0  0  0  0  0  0  0  0  0  0
   -5.9533   25.1417  -28.8676 H   0  0  0  0  0  0  0  0  0  0  0  0
   -6.1633   26.3481  -30.1819 H   0  0  0  0  0  0  0  0  0  0  0  0
   -7.1402   24.8407  -30.1819 H   0  0  0  0  0  0  0  0  0  0  0  0
   -5.0618   23.5062  -30.4954 H   0  0  0  0  0  0  0  0  0  0  0  0
   -5.2996   24.6948  -31.8260 H   0  0  0  0  0  0  0  0  0  0  0  0
   -4.3538   23.0654  -27.6205 H   0  0  0  0  0  0  0  0  0  0  0  0
   -3.1290   18.4987  -26.3731 H   0  0  0  0  0  0  0  0  0  0  0  0
    1.4366   18.7269  -28.6449 H   0  0  0  0  0  0  0  0  0  0  0  0
   -0.0277   17.7666  -29.0904 H   0  0  0  0  0  0  0  0  0  0  0  0
    1.7912   16.2566  -30.2215 H   0  0  0  0  0  0  0  0  0  0  0  0
    2.6214   15.7187  -32.5116 H   0  0  0  0  0  0  0  0  0  0  0  0
    2.4519   17.4134  -34.3354 H   0  0  0  0  0  0  0  0  0  0  0  0
   -0.9500   18.4491  -34.3697 H   0  0  0  0  0  0  0  0  0  0  0  0
   -3.1675   17.8771  -33.3936 H   0  0  0  0  0  0  0  0  0  0  0  0
   -4.9815   18.4214  -32.0406 H   0  0  0  0  0  0  0  0  0  0  0  0
   -4.8428   19.8561  -30.9462 H   0  0  0  0  0  0  0  0  0  0  0  0
   -5.1941   21.9613  -31.8832 H   0  0  0  0  0  0  0  0  0  0  0  0
   -6.4838   22.1545  -33.1510 H   0  0  0  0  0  0  0  0  0  0  0  0
   -6.8902   21.1976  -30.2809 H   0  0  0  0  0  0  0  0  0  0  0  0
   -7.3479   22.8123  -30.9847 H   0  0  0  0  0  0  0  0  0  0  0  0
   -9.8761   22.7341  -31.0312 H   0  0  0  0  0  0  0  0  0  0  0  0
   -8.9528   23.0401  -32.5414 H   0  0  0  0  0  0  0  0  0  0  0  0
  -10.3104   21.8638  -32.5414 H   0  0  0  0  0  0  0  0  0  0  0  0
   -9.3483   19.5569  -32.6579 H   0  0  0  0  0  0  0  0  0  0  0  0
   -8.4258   20.7505  -33.6523 H   0  0  0  0  0  0  0  0  0  0  0  0
   -7.2039   18.8618  -31.5818 H   0  0  0  0  0  0  0  0  0  0  0  0
   -7.2077   18.6105  -33.3776 H   0  0  0  0  0  0  0  0  0  0  0  0
   -3.6218   21.9580  -32.0234 H   0  0  0  0  0  0  0  0  0  0  0  0
   -1.3841   22.5247  -32.9646 H   0  0  0  0  0  0  0  0  0  0  0  0
    0.7192   20.2395  -31.5482 H   0  0  0  0  0  0  0  0  0  0  0  0
    0.3223   22.8928  -29.8912 H   0  0  0  0  0  0  0  0  0  0  0  0
   -0.4236   21.7837  -31.0913 H   0  0  0  0  0  0  0  0  0  0  0  0
   -0.8538   23.5277  -31.0913 H   0  0  0  0  0  0  0  0  0  0  0  0
  1  2  1  0
  2  3  1  0
  3  4  1  0
  4  5  2  0
  4  6  1  0
  6  7  2  0
  7  8  1  0
  8  9  1  0
  9 10  2  0
 10 11  1  0
 11 12  1  0
 12 13  2  3
 13 14  1  0
 14 15  1  0
 15 16  2  0
 16 17  1  0
 17 18  2  0
 18 19  1  0
 19 20  1  0
 20 21  1  0
 21 22  2  0
 21 23  1  0
 23 24  2  0
 24 25  1  0
 25 26  2  0
 26 27  1  0
 27 28  1  0
 28 29  1  0
 29 30  1  0
 30 31  1  0
 31 32  1  0
 31 33  1  0
 33 34  1  0
 26 35  1  0
 35 36  2  0
 19 37  2  0
 12 38  1  0
 38 39  2  0
 39 40  1  0
 39  6  1  0
 38  8  1  0
 37 15  1  0
 36 23  1  0
 34 28  1  0
  1 41  1  0
  1 42  1  0
  1 43  1  0
  2 44  1  0
  2 45  1  0
  7 46  1  0
 10 47  1  0
 14 48  1  0
 14 49  1  0
 16 50  1  0
 17 51  1  0
 18 52  1  0
 24 53  1  0
 25 54  1  0
 27 55  1  0
 27 56  1  0
 29 57  1  0
 29 58  1  0
 30 59  1  0
 30 60  1  0
 32 61  1  0
 32 62  1  0
 32 63  1  0
 33 64  1  0
 33 65  1  0
 34 66  1  0
 34 67  1  0
 35 68  1  0
 36 69  1  0
 37 70  1  0
 40 71  1  0
 40 72  1  0
 40 73  1  0
M  CHG  3   3  -1  11  -1  20  -1
M  END
>  <UniqueID>  (10) 
10

>  <SMILES>  (10) 
CC[N-]C(=O)c1cn2nc[n-]c(=NCc3cccc([N-]C(=O)c4ccc(CN5CCN(C)CC5)cc4)c3)c2c1C

>  <Energy>  (10) 
132.9004357435839

>  <Genealogy>  (10) 
CC[N-]C(=O)c1cn2nc[n-]c(=NCc3cccc([N-]C(=O)c4ccc(CN5CCN(C)CC5)cc4)c3)c2c1C (protonated)
CC[N-]C(=O)c1cn2nc[n-]c(=NCc3cccc([N-]C(=O)c4ccc(CN5CCN(C)CC5)cc4)c3)c2c1C (3D coordinates assigned)
CC[N-]C(=O)c1cn2nc[n-]c(=NCc3cccc([N-]C(=O)c4ccc(CN5CCN(C)CC5)cc4)c3)c2c1C (nonaromatic ring conformer: 132.9004357435839 kcal/mol)

>  <smiles>  (10) 
CCNC(=O)c1cn2nc[nH]c(=NCc3cccc(NC(=O)c4ccc(CN5CCN(C)CC5)cc4)c3)c2c1C

>  <score_type>  (10) 
oracle

>  <origin>  (10) 
adgpu

>  <m_score__min__energy>  (10) 
-13.43

>  <m_primary>  (10) 
energy

$$$$
10:0
     RDKit          3D

 68 73  0  0  0  0  0  0  0  0999 V2000
   -5.4790   24.8360  -28.7830 O   0  0  0  0  0  0  0  0  0  0  0  0
   -5.3570   24.7460  -30.2830 S   0  0  0  0  0  0  0  0  0  0  0  0
   -5.7960   26.0500  -30.9010 O   0  0  0  0  0  0  0  0  0  0  0  0
   -3.6950   24.4570  -30.7100 N   0  0  0  0  0  0  0  0  0  0  0  0
   -2.8100   23.6770  -29.9030 C   0  0  0  0  0  0  0  0  0  0  0  0
   -2.9860   22.2910  -29.7600 C   0  0  0  0  0  0  0  0  0  0  0  0
   -2.2990   21.5840  -28.7610 C   0  0  0  0  0  0  0  0  0  0  0  0
   -1.4070   22.2770  -27.9140 C   0  0  0  0  0  0  0  0  0  0  0  0
   -1.1140   23.6230  -28.1690 C   0  0  0  0  0  0  0  0  0  0  0  0
   -1.8240   24.3240  -29.1500 C   0  0  0  0  0  0  0  0  0  0  0  0
   -1.5750   25.6780  -29.3410 O   0  0  0  0  0  0  0  0  0  0  0  0
   -0.7810   21.5770  -26.7330 C   0  0  0  0  0  0  0  0  0  0  0  0
   -1.6300   20.4680  -26.2730 N   0  0  0  0  0  0  0  0  0  0  0  0
   -1.8160   19.5060  -27.3680 C   0  0  0  0  0  0  0  0  0  0  0  0
   -2.6200   20.1280  -28.5340 C   0  0  0  0  0  0  0  0  0  0  0  0
   -6.3760   23.4160  -30.8510 C   0  0  0  0  0  0  0  0  0  0  0  0
   -7.5800   23.1250  -30.1920 C   0  0  0  0  0  0  0  0  0  0  0  0
   -8.2970   21.9680  -30.5120 C   0  0  0  0  0  0  0  0  0  0  0  0
   -7.8350   21.1020  -31.5140 C   0  0  0  0  0  0  0  0  0  0  0  0
   -6.6380   21.4070  -32.1970 C   0  0  0  0  0  0  0  0  0  0  0  0
   -5.9260   22.5710  -31.8740 C   0  0  0  0  0  0  0  0  0  0  0  0
   -6.1430   20.5090  -33.3000 C   0  0  0  0  0  0  0  0  0  0  0  0
   -6.5940   19.1130  -33.1000 N   0  0  0  0  0  0  0  0  0  0  0  0
   -6.1240   18.2470  -34.2040 C   0  0  0  0  0  0  0  0  0  0  0  0
   -4.9160   17.4490  -33.7810 C   0  0  0  0  0  0  0  0  0  0  0  0
   -5.0390   16.0870  -33.4620 C   0  0  0  0  0  0  0  0  0  0  0  0
   -3.9110   15.3420  -33.1160 C   0  0  0  0  0  0  0  0  0  0  0  0
   -2.6490   15.9430  -33.1050 C   0  0  0  0  0  0  0  0  0  0  0  0
   -2.5080   17.3050  -33.4320 C   0  0  0  0  0  0  0  0  0  0  0  0
   -1.2570   17.9410  -33.4770 O   0  0  0  0  0  0  0  0  0  0  0  0
   -0.9360   19.0930  -32.7630 C   0  0  0  0  0  0  0  0  0  0  0  0
   -0.1420   19.0210  -31.6110 C   0  0  0  0  0  0  0  0  0  0  0  0
    0.1620   20.1820  -30.8960 C   0  0  0  0  0  0  0  0  0  0  0  0
   -0.3220   21.4200  -31.3350 C   0  0  0  0  0  0  0  0  0  0  0  0
   -1.1120   21.4930  -32.4850 C   0  0  0  0  0  0  0  0  0  0  0  0
   -1.4250   20.3300  -33.1930 C   0  0  0  0  0  0  0  0  0  0  0  0
   -3.6480   18.0550  -33.7570 C   0  0  0  0  0  0  0  0  0  0  0  0
   -8.0670   19.0820  -33.0130 C   0  0  0  0  0  0  0  0  0  0  0  0
   -8.5350   19.7850  -31.7310 C   0  0  0  0  0  0  0  0  0  0  0  0
   -3.6679   21.7551  -30.4366 H   0  0  0  0  0  0  0  0  0  0  0  0
   -0.3235   24.1302  -27.5964 H   0  0  0  0  0  0  0  0  0  0  0  0
    0.2016   21.1804  -27.0282 H   0  0  0  0  0  0  0  0  0  0  0  0
   -0.6710   22.3007  -25.9120 H   0  0  0  0  0  0  0  0  0  0  0  0
   -2.5710   20.8420  -26.0330 H   0  0  0  0  0  0  0  0  0  0  0  0
   -0.8296   19.1923  -27.7404 H   0  0  0  0  0  0  0  0  0  0  0  0
   -2.3785   18.6439  -26.9802 H   0  0  0  0  0  0  0  0  0  0  0  0
   -2.3905   19.5709  -29.4543 H   0  0  0  0  0  0  0  0  0  0  0  0
   -3.6858   20.0636  -28.2697 H   0  0  0  0  0  0  0  0  0  0  0  0
   -7.9615   23.8099  -29.4204 H   0  0  0  0  0  0  0  0  0  0  0  0
   -9.2285   21.7357  -29.9750 H   0  0  0  0  0  0  0  0  0  0  0  0
   -5.0089   22.8222  -32.4270 H   0  0  0  0  0  0  0  0  0  0  0  0
   -6.5299   20.8763  -34.2620 H   0  0  0  0  0  0  0  0  0  0  0  0
   -5.0431   20.5232  -33.2921 H   0  0  0  0  0  0  0  0  0  0  0  0
   -6.9310   17.5560  -34.4891 H   0  0  0  0  0  0  0  0  0  0  0  0
   -5.8456   18.8830  -35.0572 H   0  0  0  0  0  0  0  0  0  0  0  0
   -6.0279   15.6058  -33.4850 H   0  0  0  0  0  0  0  0  0  0  0  0
   -4.0151   14.2794  -32.8513 H   0  0  0  0  0  0  0  0  0  0  0  0
   -1.7620   15.3490  -32.8396 H   0  0  0  0  0  0  0  0  0  0  0  0
    0.2426   18.0488  -31.2690 H   0  0  0  0  0  0  0  0  0  0  0  0
    0.7812   20.1234  -29.9887 H   0  0  0  0  0  0  0  0  0  0  0  0
   -0.0804   22.3352  -30.7746 H   0  0  0  0  0  0  0  0  0  0  0  0
   -1.4877   22.4665  -32.8331 H   0  0  0  0  0  0  0  0  0  0  0  0
   -2.0577   20.3878  -34.0909 H   0  0  0  0  0  0  0  0  0  0  0  0
   -3.5490   19.1244  -33.9946 H   0  0  0  0  0  0  0  0  0  0  0  0
   -8.4939   19.5965  -33.8865 H   0  0  0  0  0  0  0  0  0  0  0  0
   -8.4044   18.0352  -32.9931 H   0  0  0  0  0  0  0  0  0  0  0  0
   -9.6175   19.9670  -31.8021 H   0  0  0  0  0  0  0  0  0  0  0  0
   -8.2933   19.1307  -30.8804 H   0  0  0  0  0  0  0  0  0  0  0  0
  1  2  2  0
  2  3  2  0
  2  4  1  0
  4  5  1  0
  5  6  2  0
  6  7  1  0
  7  8  2  0
  8  9  1  0
  9 10  2  0
 10 11  1  0
  8 12  1  0
 12 13  1  0
 13 14  1  0
 14 15  1  0
  2 16  1  0
 16 17  2  0
 17 18  1  0
 18 19  2  0
 19 20  1  0
 20 21  2  0
 20 22  1  0
 22 23  1  0
 23 24  1  0
 24 25  1  0
 25 26  2  0
 26 27  1  0
 27 28  2  0
 28 29  1  0
 29 30  1  0
 30 31  1  0
 31 32  2  0
 32 33  1  0
 33 34  2  0
 34 35  1  0
 35 36  2  0
 29 37  2  0
 23 38  1  0
 38 39  1  0
 10  5  1  0
 21 16  1  0
 37 25  1  0
 15  7  1  0
 39 19  1  0
 36 31  1  0
  6 40  1  0
  9 41  1  0
 12 42  1  0
 12 43  1  0
 13 44  1  0
 14 45  1  0
 14 46  1  0
 15 47  1  0
 15 48  1  0
 17 49  1  0
 18 50  1  0
 21 51  1  0
 22 52  1  0
 22 53  1  0
 24 54  1  0
 24 55  1  0
 26 56  1  0
 27 57  1  0
 28 58  1  0
 32 59  1  0
 33 60  1  0
 34 61  1  0
 35 62  1  0
 36 63  1  0
 37 64  1  0
 38 65  1  0
 38 66  1  0
 39 67  1  0
 39 68  1  0
M  CHG  2   4  -1  11  -1
M  END
>  <UniqueID>  (11) 
11

>  <SMILES>  (11) 
O=S(=O)([N-]c1cc2c(cc1[O-])CNCC2)c1ccc2c(c1)CN(Cc1cccc(Oc3ccccc3)c1)CC2

>  <Energy>  (11) 
95.76093394218351

>  <Genealogy>  (11) 
O=S(=O)([N-]c1cc2c(cc1[O-])CNCC2)c1ccc2c(c1)CN(Cc1cccc(Oc3ccccc3)c1)CC2 (protonated)
O=S(=O)([N-]c1cc2c(cc1[O-])CNCC2)c1ccc2c(c1)CN(Cc1cccc(Oc3ccccc3)c1)CC2 (3D coordinates assigned)
O=S(=O)([N-]c1cc2c(cc1[O-])CNCC2)c1ccc2c(c1)CN(Cc1cccc(Oc3ccccc3)c1)CC2 (nonaromatic ring conformer: 95.76093394218351 kcal/mol)

>  <smiles>  (11) 
O=S(=O)(Nc1cc2c(cc1O)CNCC2)c1ccc2c(c1)CN(Cc1cccc(Oc3ccccc3)c1)CC2

>  <score_type>  (11) 
oracle

>  <origin>  (11) 
adgpu

>  <m_score__min__energy>  (11) 
-16.460000000000001

>  <m_primary>  (11) 
energy

$$$$
11:0
     RDKit          3D

 55 58  0  0  0  0  0  0  0  0999 V2000
   -2.7810   18.9200  -26.7000 C   0  0  0  0  0  0  0  0  0  0  0  0
   -2.2830   20.5290  -27.2700 S   0  0  0  0  0  0  0  0  0  0  0  0
   -3.4920   21.4090  -27.4130 O   0  0  0  0  0  0  0  0  0  0  0  0
   -1.3470   21.1510  -26.2720 O   0  0  0  0  0  0  0  0  0  0  0  0
   -1.4620   20.3770  -28.8190 C   0  0  0  0  0  0  0  0  0  0  0  0
   -0.0920   20.0990  -28.8700 C   0  0  0  0  0  0  0  0  0  0  0  0
    0.5650   20.0280  -30.1010 C   0  0  0  0  0  0  0  0  0  0  0  0
   -0.1440   20.2290  -31.2860 C   0  0  0  0  0  0  0  0  0  0  0  0
   -1.5210   20.4890  -31.2470 C   0  0  0  0  0  0  0  0  0  0  0  0
   -2.4160   20.8150  -32.7310 S   0  0  0  0  0  0  0  0  0  0  0  0
   -1.7280   21.9100  -33.5020 O   0  0  0  0  0  0  0  0  0  0  0  0
   -2.4370   19.5670  -33.5720 O   0  0  0  0  0  0  0  0  0  0  0  0
   -4.0690   21.3090  -32.3670 C   0  0  0  0  0  0  0  0  0  0  0  0
   -4.3230   22.5320  -31.7380 C   0  0  0  0  0  0  0  0  0  0  0  0
   -5.6380   22.9610  -31.4940 C   0  0  0  0  0  0  0  0  0  0  0  0
   -5.8750   24.2420  -30.8780 N   0  0  0  0  0  0  0  0  0  0  0  0
   -4.8500   25.1990  -30.5900 C   0  0  0  0  0  0  0  0  0  0  0  0
   -5.1440   26.4240  -30.5510 O   0  0  0  0  0  0  0  0  0  0  0  0
   -3.4940   24.7700  -30.4160 N   0  0  0  0  0  0  0  0  0  0  0  0
   -2.8420   24.4790  -29.1730 C   0  0  0  0  0  0  0  0  0  0  0  0
   -3.6010   24.5030  -27.9980 C   0  0  0  0  0  0  0  0  0  0  0  0
   -2.9980   24.2800  -26.7610 C   0  0  0  0  0  0  0  0  0  0  0  0
   -1.6200   24.0420  -26.6800 C   0  0  0  0  0  0  0  0  0  0  0  0
   -1.0270   23.8220  -25.4360 O   0  0  0  0  0  0  0  0  0  0  0  0
   -0.8340   24.0340  -27.8510 C   0  0  0  0  0  0  0  0  0  0  0  0
    0.6530   23.7860  -27.7570 C   0  0  0  0  0  0  0  0  0  0  0  0
    1.2650   24.1410  -28.9460 F   0  0  0  0  0  0  0  0  0  0  0  0
    1.1870   24.5510  -26.7360 F   0  0  0  0  0  0  0  0  0  0  0  0
    0.9350   22.4520  -27.5040 F   0  0  0  0  0  0  0  0  0  0  0  0
   -1.4550   24.2620  -29.0960 C   0  0  0  0  0  0  0  0  0  0  0  0
   -6.7140   22.1110  -31.8160 C   0  0  0  0  0  0  0  0  0  0  0  0
   -8.0490   22.4810  -31.5530 C   0  0  0  0  0  0  0  0  0  0  0  0
   -9.1000   21.6170  -31.8780 C   0  0  0  0  0  0  0  0  0  0  0  0
   -8.8390   20.3830  -32.4780 C   0  0  0  0  0  0  0  0  0  0  0  0
   -7.5230   20.0070  -32.7610 C   0  0  0  0  0  0  0  0  0  0  0  0
   -6.4550   20.8620  -32.4400 C   0  0  0  0  0  0  0  0  0  0  0  0
   -5.1350   20.4810  -32.7220 C   0  0  0  0  0  0  0  0  0  0  0  0
   -2.1740   20.5680  -30.0100 C   0  0  0  0  0  0  0  0  0  0  0  0
   -2.7854   18.9058  -25.6001 H   0  0  0  0  0  0  0  0  0  0  0  0
   -3.7908   18.6950  -27.0736 H   0  0  0  0  0  0  0  0  0  0  0  0
   -2.0749   18.1639  -27.0736 H   0  0  0  0  0  0  0  0  0  0  0  0
    0.4696   19.9358  -27.9383 H   0  0  0  0  0  0  0  0  0  0  0  0
    1.6433   19.8132  -30.1361 H   0  0  0  0  0  0  0  0  0  0  0  0
    0.3787   20.1833  -32.2528 H   0  0  0  0  0  0  0  0  0  0  0  0
   -3.4800   23.1677  -31.4296 H   0  0  0  0  0  0  0  0  0  0  0  0
   -4.6821   24.6994  -28.0506 H   0  0  0  0  0  0  0  0  0  0  0  0
   -3.6068   24.2910  -25.8449 H   0  0  0  0  0  0  0  0  0  0  0  0
   -0.8340   22.8870  -25.0930 H   0  0  0  0  0  0  0  0  0  0  0  0
   -0.8496   24.2702  -30.0144 H   0  0  0  0  0  0  0  0  0  0  0  0
   -8.2652   23.4549  -31.0895 H   0  0  0  0  0  0  0  0  0  0  0  0
  -10.1373   21.9109  -31.6599 H   0  0  0  0  0  0  0  0  0  0  0  0
   -9.6697   19.7067  -32.7279 H   0  0  0  0  0  0  0  0  0  0  0  0
   -7.3221   19.0362  -33.2377 H   0  0  0  0  0  0  0  0  0  0  0  0
   -4.9386   19.5233  -33.2263 H   0  0  0  0  0  0  0  0  0  0  0  0
   -3.2525   20.7813  -29.9739 H   0  0  0  0  0  0  0  0  0  0  0  0
  1  2  1  0
  2  3  2  0
  2  4  2  0
  2  5  1  0
  5  6  2  0
  6  7  1  0
  7  8  2  0
  8  9  1  0
  9 10  1  0
 10 11  2  0
 10 12  2  0
 10 13  1  0
 13 14  2  0
 14 15  1  0
 15 16  1  0
 16 17  1  0
 17 18  2  0
 17 19  1  0
 19 20  1  0
 20 21  2  0
 21 22  1  0
 22 23  2  0
 23 24  1  0
 23 25  1  0
 25 26  1  0
 26 27  1  0
 26 28  1  0
 26 29  1  0
 25 30  2  0
 15 31  2  0
 31 32  1  0
 32 33  2  0
 33 34  1  0
 34 35  2  0
 35 36  1  0
 36 37  2  0
  9 38  2  0
 38  5  1  0
 37 13  1  0
 30 20  1  0
 36 31  1  0
  1 39  1  0
  1 40  1  0
  1 41  1  0
  6 42  1  0
  7 43  1  0
  8 44  1  0
 14 45  1  0
 21 46  1  0
 22 47  1  0
 24 48  1  0
 30 49  1  0
 32 50  1  0
 33 51  1  0
 34 52  1  0
 35 53  1  0
 37 54  1  0
 38 55  1  0
M  CHG  2  16  -1  19  -1
M  END
>  <UniqueID>  (12) 
12

>  <SMILES>  (12) 
CS(=O)(=O)c1cccc(S(=O)(=O)c2cc([N-]C(=O)[N-]c3ccc(O)c(C(F)(F)F)c3)c3ccccc3c2)c1

>  <Energy>  (12) 
66.62491189797336

>  <Genealogy>  (12) 
CS(=O)(=O)c1cccc(S(=O)(=O)c2cc([N-]C(=O)[N-]c3ccc(O)c(C(F)(F)F)c3)c3ccccc3c2)c1 (protonated)
CS(=O)(=O)c1cccc(S(=O)(=O)c2cc([N-]C(=O)[N-]c3ccc(O)c(C(F)(F)F)c3)c3ccccc3c2)c1 (3D coordinates assigned)
CS(=O)(=O)c1cccc(S(=O)(=O)c2cc([N-]C(=O)[N-]c3ccc(O)c(C(F)(F)F)c3)c3ccccc3c2)c1 (optimized conformer: 66.62491189797336 kcal/mol)

>  <smiles>  (12) 
CS(=O)(=O)c1cccc(S(=O)(=O)c2cc(NC(=O)Nc3ccc(O)c(C(F)(F)F)c3)c3ccccc3c2)c1

>  <score_type>  (12) 
oracle

>  <origin>  (12) 
adgpu

>  <m_score__min__energy>  (12) 
-12.83

>  <m_primary>  (12) 
energy

$$$$
12:0
     RDKit          3D

 68 72  0  0  0  0  0  0  0  0999 V2000
   -6.2270   21.7130  -31.1940 O   0  0  0  0  0  0  0  0  0  0  0  0
   -5.0950   21.8740  -31.7280 C   0  0  0  0  0  0  0  0  0  0  0  0
   -4.3360   23.0640  -31.4810 N   0  0  0  0  0  0  0  0  0  0  0  0
   -3.3310   23.2620  -30.4750 C   0  0  0  0  0  0  0  0  0  0  0  0
   -2.5920   22.1920  -29.9390 C   0  0  0  0  0  0  0  0  0  0  0  0
   -1.6300   22.4260  -28.9500 C   0  0  0  0  0  0  0  0  0  0  0  0
   -1.4070   23.7250  -28.4740 C   0  0  0  0  0  0  0  0  0  0  0  0
   -0.1830   24.0240  -27.2380 S   0  0  0  0  0  0  0  0  0  0  0  0
    0.1960   22.7180  -26.5960 O   0  0  0  0  0  0  0  0  0  0  0  0
    1.0450   24.5940  -27.8900 O   0  0  0  0  0  0  0  0  0  0  0  0
   -0.7410   25.1350  -26.0110 N   0  0  0  0  0  0  0  0  0  0  0  0
    0.0300   24.9710  -24.7700 C   0  0  0  0  0  0  0  0  0  0  0  0
   -0.4690   25.9680  -23.7030 C   0  0  0  0  0  0  0  0  0  0  0  0
   -1.4800   26.8230  -24.2060 O   0  0  0  0  0  0  0  0  0  0  0  0
   -1.0060   27.5070  -25.3520 C   0  0  0  0  0  0  0  0  0  0  0  0
   -0.6460   26.5250  -26.4860 C   0  0  0  0  0  0  0  0  0  0  0  0
   -2.1620   24.7880  -28.9890 C   0  0  0  0  0  0  0  0  0  0  0  0
   -3.1220   24.5570  -29.9790 C   0  0  0  0  0  0  0  0  0  0  0  0
   -3.8630   25.6250  -30.4760 O   0  0  0  0  0  0  0  0  0  0  0  0
   -4.5080   20.8050  -32.5670 C   0  0  0  0  0  0  0  0  0  0  0  0
   -3.1510   20.8910  -32.9260 C   0  0  0  0  0  0  0  0  0  0  0  0
   -2.5530   19.8970  -33.7120 C   0  0  0  0  0  0  0  0  0  0  0  0
   -0.8470   20.0220  -34.1630 S   0  0  0  0  0  0  0  0  0  0  0  0
   -0.4290   18.7560  -34.8630 O   0  0  0  0  0  0  0  0  0  0  0  0
   -0.6870   21.1610  -35.1320 O   0  0  0  0  0  0  0  0  0  0  0  0
    0.2170   20.2600  -32.7910 N   0  0  0  0  0  0  0  0  0  0  0  0
   -0.4930   20.2050  -31.5080 C   0  0  0  0  0  0  0  0  0  0  0  0
    0.4620   19.5880  -30.4850 C   0  0  0  0  0  0  0  0  0  0  0  0
    1.7190   19.2430  -31.2640 C   0  0  0  0  0  0  0  0  0  0  0  0
    1.2740   19.2500  -32.7120 C   0  0  0  0  0  0  0  0  0  0  0  0
   -3.3150   18.8010  -34.1320 C   0  0  0  0  0  0  0  0  0  0  0  0
   -4.6660   18.7160  -33.8030 C   0  0  0  0  0  0  0  0  0  0  0  0
   -5.2740   19.7090  -33.0240 C   0  0  0  0  0  0  0  0  0  0  0  0
   -6.6460   19.5490  -32.6430 N   0  0  0  0  0  0  0  0  0  0  0  0
   -7.7060   20.4200  -33.1200 C   0  0  0  0  0  0  0  0  0  0  0  0
   -8.9230   20.0870  -32.2630 C   0  0  0  0  0  0  0  0  0  0  0  0
   -8.5950   18.7730  -31.5520 C   0  0  0  0  0  0  0  0  0  0  0  0
   -7.0790   18.6280  -31.6120 C   0  0  0  0  0  0  0  0  0  0  0  0
   -2.7708   21.1679  -30.2984 H   0  0  0  0  0  0  0  0  0  0  0  0
   -1.0463   21.5865  -28.5444 H   0  0  0  0  0  0  0  0  0  0  0  0
   -0.0956   23.9441  -24.3961 H   0  0  0  0  0  0  0  0  0  0  0  0
    1.0928   25.1653  -24.9768 H   0  0  0  0  0  0  0  0  0  0  0  0
   -0.8739   25.4026  -22.8507 H   0  0  0  0  0  0  0  0  0  0  0  0
    0.3831   26.5930  -23.3977 H   0  0  0  0  0  0  0  0  0  0  0  0
   -1.7884   28.1933  -25.7081 H   0  0  0  0  0  0  0  0  0  0  0  0
   -0.0976   28.0610  -25.0730 H   0  0  0  0  0  0  0  0  0  0  0  0
   -1.3423   26.6696  -27.3252 H   0  0  0  0  0  0  0  0  0  0  0  0
    0.3860   26.7205  -26.8129 H   0  0  0  0  0  0  0  0  0  0  0  0
   -1.9984   25.8085  -28.6125 H   0  0  0  0  0  0  0  0  0  0  0  0
   -2.5520   21.7486  -32.5858 H   0  0  0  0  0  0  0  0  0  0  0  0
   -0.7787   21.2192  -31.1922 H   0  0  0  0  0  0  0  0  0  0  0  0
   -1.4101   19.6040  -31.5962 H   0  0  0  0  0  0  0  0  0  0  0  0
    0.6898   20.3098  -29.6868 H   0  0  0  0  0  0  0  0  0  0  0  0
    0.0254   18.7026  -29.9997 H   0  0  0  0  0  0  0  0  0  0  0  0
    2.5025   19.9960  -31.0932 H   0  0  0  0  0  0  0  0  0  0  0  0
    2.1502   18.2775  -30.9609 H   0  0  0  0  0  0  0  0  0  0  0  0
    2.1129   19.5190  -33.3708 H   0  0  0  0  0  0  0  0  0  0  0  0
    0.9181   18.2604  -33.0345 H   0  0  0  0  0  0  0  0  0  0  0  0
   -2.8449   18.0026  -34.7249 H   0  0  0  0  0  0  0  0  0  0  0  0
   -5.2607   17.8615  -34.1581 H   0  0  0  0  0  0  0  0  0  0  0  0
   -7.4231   21.4753  -32.9925 H   0  0  0  0  0  0  0  0  0  0  0  0
   -7.9072   20.2695  -34.1909 H   0  0  0  0  0  0  0  0  0  0  0  0
   -9.1015   20.8849  -31.5272 H   0  0  0  0  0  0  0  0  0  0  0  0
   -9.8326   19.9964  -32.8750 H   0  0  0  0  0  0  0  0  0  0  0  0
   -8.9341   18.8097  -30.5062 H   0  0  0  0  0  0  0  0  0  0  0  0
   -9.0998   17.9203  -32.0296 H   0  0  0  0  0  0  0  0  0  0  0  0
   -6.6282   18.8936  -30.6444 H   0  0  0  0  0  0  0  0  0  0  0  0
   -6.7749   17.5941  -31.8325 H   0  0  0  0  0  0  0  0  0  0  0  0
  1  2  2  0
  2  3  1  0
  3  4  1  0
  4  5  2  0
  5  6  1  0
  6  7  2  0
  7  8  1  0
  8  9  2  0
  8 10  2  0
  8 11  1  0
 11 12  1  0
 12 13  1  0
 13 14  1  0
 14 15  1  0
 15 16  1  0
  7 17  1  0
 17 18  2  0
 18 19  1  0
  2 20  1  0
 20 21  2  0
 21 22  1  0
 22 23  1  0
 23 24  2  0
 23 25  2  0
 23 26  1  0
 26 27  1  0
 27 28  1  0
 28 29  1  0
 29 30  1  0
 22 31  2  0
 31 32  1  0
 32 33  2  0
 33 34  1  0
 34 35  1  0
 35 36  1  0
 36 37  1  0
 37 38  1  0
 18  4  1  0
 33 20  1  0
 38 34  1  0
 16 11  1  0
 30 26  1  0
  5 39  1  0
  6 40  1  0
 12 41  1  0
 12 42  1  0
 13 43  1  0
 13 44  1  0
 15 45  1  0
 15 46  1  0
 16 47  1  0
 16 48  1  0
 17 49  1  0
 21 50  1  0
 27 51  1  0
 27 52  1  0
 28 53  1  0
 28 54  1  0
 29 55  1  0
 29 56  1  0
 30 57  1  0
 30 58  1  0
 31 59  1  0
 32 60  1  0
 35 61  1  0
 35 62  1  0
 36 63  1  0
 36 64  1  0
 37 65  1  0
 37 66  1  0
 38 67  1  0
 38 68  1  0
M  CHG  2   3  -1  19  -1
M  END
>  <UniqueID>  (13) 
13

>  <SMILES>  (13) 
O=C([N-]c1ccc(S(=O)(=O)N2CCOCC2)cc1[O-])c1cc(S(=O)(=O)N2CCCC2)ccc1N1CCCC1

>  <Energy>  (13) 
93.4201836139197

>  <Genealogy>  (13) 
O=C([N-]c1ccc(S(=O)(=O)N2CCOCC2)cc1[O-])c1cc(S(=O)(=O)N2CCCC2)ccc1N1CCCC1 (protonated)
O=C([N-]c1ccc(S(=O)(=O)N2CCOCC2)cc1[O-])c1cc(S(=O)(=O)N2CCCC2)ccc1N1CCCC1 (3D coordinates assigned)
O=C([N-]c1ccc(S(=O)(=O)N2CCOCC2)cc1[O-])c1cc(S(=O)(=O)N2CCCC2)ccc1N1CCCC1 (nonaromatic ring conformer: 93.4201836139197 kcal/mol)

>  <smiles>  (13) 
O=C(Nc1ccc(S(=O)(=O)N2CCOCC2)cc1O)c1cc(S(=O)(=O)N2CCCC2)ccc1N1CCCC1

>  <score_type>  (13) 
oracle

>  <origin>  (13) 
adgpu

>  <m_score__min__energy>  (13) 
-14.6

>  <m_primary>  (13) 
energy

$$$$
13:0
     RDKit          3D

 53 55  0  0  0  0  0  0  0  0999 V2000
   -1.9920   24.7830  -28.2640 C   0  0  0  0  0  0  0  0  0  0  0  0
   -2.2820   23.7540  -29.3230 C   0  0  0  0  0  0  0  0  0  0  0  0
   -1.6510   22.5010  -29.2720 C   0  0  0  0  0  0  0  0  0  0  0  0
   -1.9150   21.5360  -30.2480 C   0  0  0  0  0  0  0  0  0  0  0  0
   -2.8150   21.8100  -31.2830 C   0  0  0  0  0  0  0  0  0  0  0  0
   -3.1700   20.5780  -32.4890 S   0  0  0  0  0  0  0  0  0  0  0  0
   -4.0360   19.5070  -31.8800 O   0  0  0  0  0  0  0  0  0  0  0  0
   -3.9200   21.2090  -33.6290 O   0  0  0  0  0  0  0  0  0  0  0  0
   -1.6750   19.8990  -33.0780 N   0  0  0  0  0  0  0  0  0  0  0  0
   -1.9160   18.7200  -33.9060 C   0  0  0  0  0  0  0  0  0  0  0  0
   -0.7380   18.6190  -34.8600 C   0  0  0  0  0  0  0  0  0  0  0  0
   -0.1340   20.0120  -34.9060 C   0  0  0  0  0  0  0  0  0  0  0  0
   -0.9670   20.8440  -33.9420 C   0  0  0  0  0  0  0  0  0  0  0  0
   -3.4630   23.0500  -31.3280 C   0  0  0  0  0  0  0  0  0  0  0  0
   -3.1860   24.0370  -30.3680 C   0  0  0  0  0  0  0  0  0  0  0  0
   -3.8680   25.3010  -30.3940 N   0  0  0  0  0  0  0  0  0  0  0  0
   -5.2870   25.5010  -30.4400 C   0  0  0  0  0  0  0  0  0  0  0  0
   -5.7360   26.6760  -30.3840 O   0  0  0  0  0  0  0  0  0  0  0  0
   -6.2460   24.3480  -30.5850 C   0  0  0  0  0  0  0  0  0  0  0  0
   -6.6360   24.1240  -32.0490 C   0  0  0  0  0  0  0  0  0  0  0  0
   -6.3450   22.7460  -32.4390 N   0  0  0  0  0  0  0  0  0  0  0  0
   -7.2720   21.6720  -32.2080 C   0  0  0  0  0  0  0  0  0  0  0  0
   -8.3900   21.9190  -31.6790 O   0  0  0  0  0  0  0  0  0  0  0  0
   -6.9480   20.2780  -32.5990 C   0  0  0  0  0  0  0  0  0  0  0  0
   -7.1760   19.2250  -31.6960 C   0  0  0  0  0  0  0  0  0  0  0  0
   -6.8770   17.9060  -32.0490 C   0  0  0  0  0  0  0  0  0  0  0  0
   -6.3340   17.6240  -33.3050 C   0  0  0  0  0  0  0  0  0  0  0  0
   -5.9290   15.8230  -33.7890 Br  0  0  0  0  0  0  0  0  0  0  0  0
   -6.0870   18.6630  -34.2060 C   0  0  0  0  0  0  0  0  0  0  0  0
   -6.3910   19.9820  -33.8590 C   0  0  0  0  0  0  0  0  0  0  0  0
   -2.1193   24.3312  -27.2692 H   0  0  0  0  0  0  0  0  0  0  0  0
   -0.9579   25.1413  -28.3744 H   0  0  0  0  0  0  0  0  0  0  0  0
   -2.6868   25.6286  -28.3744 H   0  0  0  0  0  0  0  0  0  0  0  0
   -0.9446   22.2773  -28.4590 H   0  0  0  0  0  0  0  0  0  0  0  0
   -1.4134   20.5581  -30.2020 H   0  0  0  0  0  0  0  0  0  0  0  0
   -1.9751   17.8192  -33.2775 H   0  0  0  0  0  0  0  0  0  0  0  0
   -2.8666   18.8039  -34.4530 H   0  0  0  0  0  0  0  0  0  0  0  0
   -0.0015   17.8925  -34.4861 H   0  0  0  0  0  0  0  0  0  0  0  0
   -1.0485   18.2752  -35.8577 H   0  0  0  0  0  0  0  0  0  0  0  0
    0.9174   19.9867  -34.5836 H   0  0  0  0  0  0  0  0  0  0  0  0
   -0.1454   20.4301  -35.9234 H   0  0  0  0  0  0  0  0  0  0  0  0
   -0.3147   21.4934  -33.3398 H   0  0  0  0  0  0  0  0  0  0  0  0
   -1.6724   21.4910  -34.4840 H   0  0  0  0  0  0  0  0  0  0  0  0
   -4.1960   23.2533  -32.1226 H   0  0  0  0  0  0  0  0  0  0  0  0
   -5.7690   23.4353  -30.1984 H   0  0  0  0  0  0  0  0  0  0  0  0
   -7.1579   24.5836  -30.0167 H   0  0  0  0  0  0  0  0  0  0  0  0
   -7.7116   24.3182  -32.1732 H   0  0  0  0  0  0  0  0  0  0  0  0
   -6.0570   24.8092  -32.6856 H   0  0  0  0  0  0  0  0  0  0  0  0
   -5.5280   22.5930  -33.0730 H   0  0  0  0  0  0  0  0  0  0  0  0
   -7.5939   19.4412  -30.7017 H   0  0  0  0  0  0  0  0  0  0  0  0
   -7.0693   17.0895  -31.3374 H   0  0  0  0  0  0  0  0  0  0  0  0
   -5.6518   18.4419  -35.1918 H   0  0  0  0  0  0  0  0  0  0  0  0
   -6.1942   20.7944  -34.5740 H   0  0  0  0  0  0  0  0  0  0  0  0
  1  2  1  0
  2  3  2  0
  3  4  1  0
  4  5  2  0
  5  6  1  0
  6  7  2  0
  6  8  2  0
  6  9  1  0
  9 10  1  0
 10 11  1  0
 11 12  1  0
 12 13  1  0
  5 14  1  0
 14 15  2  0
 15 16  1  0
 16 17  1  0
 17 18  2  0
 17 19  1  0
 19 20  1  0
 20 21  1  0
 21 22  1  0
 22 23  2  0
 22 24  1  0
 24 25  2  0
 25 26  1  0
 26 27  2  0
 27 28  1  0
 27 29  1  0
 29 30  2  0
 15  2  1  0
 30 24  1  0
 13  9  1  0
  1 31  1  0
  1 32  1  0
  1 33  1  0
  3 34  1  0
  4 35  1  0
 10 36  1  0
 10 37  1  0
 11 38  1  0
 11 39  1  0
 12 40  1  0
 12 41  1  0
 13 42  1  0
 13 43  1  0
 14 44  1  0
 19 45  1  0
 19 46  1  0
 20 47  1  0
 20 48  1  0
 21 49  1  0
 25 50  1  0
 26 51  1  0
 29 52  1  0
 30 53  1  0
M  CHG  1  16  -1
M  END
>  <UniqueID>  (14) 
14

>  <SMILES>  (14) 
Cc1ccc(S(=O)(=O)N2CCCC2)cc1[N-]C(=O)CCNC(=O)c1ccc(Br)cc1

>  <Energy>  (14) 
57.101297435822566

>  <Genealogy>  (14) 
Cc1ccc(S(=O)(=O)N2CCCC2)cc1[N-]C(=O)CCNC(=O)c1ccc(Br)cc1 (protonated)
Cc1ccc(S(=O)(=O)N2CCCC2)cc1[N-]C(=O)CCNC(=O)c1ccc(Br)cc1 (3D coordinates assigned)
Cc1ccc(S(=O)(=O)N2CCCC2)cc1[N-]C(=O)CCNC(=O)c1ccc(Br)cc1 (nonaromatic ring conformer: 57.101297435822566 kcal/mol)

>  <smiles>  (14) 
Cc1ccc(S(=O)(=O)N2CCCC2)cc1NC(=O)CCNC(=O)c1ccc(Br)cc1

>  <score_type>  (14) 
oracle

>  <origin>  (14) 
adgpu

>  <m_score__min__energy>  (14) 
-11.77

>  <m_primary>  (14) 
energy

$$$$
14:0
     RDKit          3D

 52 55  0  0  0  0  0  0  0  0999 V2000
    0.2520   16.2770  -31.1560 C   0  0  0  0  0  0  0  0  0  0  0  0
    0.4720   18.0090  -30.7790 S   0  0  0  0  0  0  0  0  0  0  0  0
   -0.8740   18.6730  -30.8440 O   0  0  0  0  0  0  0  0  0  0  0  0
    1.3520   18.6190  -31.8340 O   0  0  0  0  0  0  0  0  0  0  0  0
    1.1560   18.2970  -29.1880 N   0  0  0  0  0  0  0  0  0  0  0  0
    1.5880   19.7010  -28.9870 C   0  0  0  0  0  0  0  0  0  0  0  0
    0.7970   20.4530  -27.8980 C   0  0  0  0  0  0  0  0  0  0  0  0
   -0.6130   20.0360  -27.8920 N   0  0  0  0  0  0  0  0  0  0  0  0
   -1.6750   20.9820  -27.6370 C   0  0  0  0  0  0  0  0  0  0  0  0
   -2.7350   20.5930  -27.0710 O   0  0  0  0  0  0  0  0  0  0  0  0
   -1.5780   22.4010  -28.0420 C   0  0  0  0  0  0  0  0  0  0  0  0
   -0.4730   23.1810  -27.6660 C   0  0  0  0  0  0  0  0  0  0  0  0
   -0.3640   24.5020  -28.1020 C   0  0  0  0  0  0  0  0  0  0  0  0
   -1.3560   25.0610  -28.9110 C   0  0  0  0  0  0  0  0  0  0  0  0
   -1.2360   26.3820  -29.3320 O   0  0  0  0  0  0  0  0  0  0  0  0
   -2.4710   24.2990  -29.2920 C   0  0  0  0  0  0  0  0  0  0  0  0
   -3.4930   24.9070  -30.0970 N   0  0  0  0  0  0  0  0  0  0  0  0
   -4.8830   24.0790  -30.7160 S   0  0  0  0  0  0  0  0  0  0  0  0
   -5.7470   23.6350  -29.5690 O   0  0  0  0  0  0  0  0  0  0  0  0
   -5.6760   25.0090  -31.5930 O   0  0  0  0  0  0  0  0  0  0  0  0
   -4.3560   22.6590  -31.6110 C   0  0  0  0  0  0  0  0  0  0  0  0
   -5.2960   21.8350  -32.2820 C   0  0  0  0  0  0  0  0  0  0  0  0
   -4.8660   20.7500  -33.0690 C   0  0  0  0  0  0  0  0  0  0  0  0
   -3.4950   20.5170  -33.1660 C   0  0  0  0  0  0  0  0  0  0  0  0
   -2.8920   19.5510  -33.8850 N   0  0  0  0  0  0  0  0  0  0  0  0
   -1.5720   19.7590  -33.6610 C   0  0  0  0  0  0  0  0  0  0  0  0
   -0.5730   18.9710  -34.2240 O   0  0  0  0  0  0  0  0  0  0  0  0
   -1.3340   20.8320  -32.8160 C   0  0  0  0  0  0  0  0  0  0  0  0
   -2.5850   21.3060  -32.5100 C   0  0  0  0  0  0  0  0  0  0  0  0
   -2.9770   22.3880  -31.7240 C   0  0  0  0  0  0  0  0  0  0  0  0
   -2.5630   22.9600  -28.8720 C   0  0  0  0  0  0  0  0  0  0  0  0
   -0.9220   18.6000  -27.8390 C   0  0  0  0  0  0  0  0  0  0  0  0
    0.3290   17.7490  -28.0960 C   0  0  0  0  0  0  0  0  0  0  0  0
    0.1793   15.7043  -30.2197 H   0  0  0  0  0  0  0  0  0  0  0  0
   -0.6704   16.1432  -31.7403 H   0  0  0  0  0  0  0  0  0  0  0  0
    1.1116   15.9169  -31.7403 H   0  0  0  0  0  0  0  0  0  0  0  0
    2.6505   19.6982  -28.7024 H   0  0  0  0  0  0  0  0  0  0  0  0
    1.4035   20.2285  -29.9345 H   0  0  0  0  0  0  0  0  0  0  0  0
    1.2411   20.2357  -26.9154 H   0  0  0  0  0  0  0  0  0  0  0  0
    0.8439   21.5312  -28.1106 H   0  0  0  0  0  0  0  0  0  0  0  0
    0.3099   22.7491  -27.0252 H   0  0  0  0  0  0  0  0  0  0  0  0
    0.5070   25.1058  -27.8073 H   0  0  0  0  0  0  0  0  0  0  0  0
   -6.3713   22.0460  -32.1863 H   0  0  0  0  0  0  0  0  0  0  0  0
   -5.5891   20.1062  -33.5911 H   0  0  0  0  0  0  0  0  0  0  0  0
    0.1660   18.5880  -33.6480 H   0  0  0  0  0  0  0  0  0  0  0  0
   -0.3632   21.2161  -32.4696 H   0  0  0  0  0  0  0  0  0  0  0  0
   -2.2329   23.0119  -31.2073 H   0  0  0  0  0  0  0  0  0  0  0  0
   -3.4149   22.3446  -29.1969 H   0  0  0  0  0  0  0  0  0  0  0  0
   -1.3225   18.3564  -26.8439 H   0  0  0  0  0  0  0  0  0  0  0  0
   -1.6608   18.3754  -28.6224 H   0  0  0  0  0  0  0  0  0  0  0  0
    0.9315   17.7166  -27.1762 H   0  0  0  0  0  0  0  0  0  0  0  0
   -0.0002   16.7420  -28.3919 H   0  0  0  0  0  0  0  0  0  0  0  0
  1  2  1  0
  2  3  2  0
  2  4  2  0
  2  5  1  0
  5  6  1  0
  6  7  1  0
  7  8  1  0
  8  9  1  0
  9 10  2  0
  9 11  1  0
 11 12  2  0
 12 13  1  0
 13 14  2  0
 14 15  1  0
 14 16  1  0
 16 17  1  0
 17 18  1  0
 18 19  2  0
 18 20  2  0
 18 21  1  0
 21 22  2  0
 22 23  1  0
 23 24  2  0
 24 25  1  0
 25 26  1  0
 26 27  1  0
 26 28  2  0
 28 29  1  0
 29 30  2  0
 16 31  2  0
  8 32  1  0
 32 33  1  0
 33  5  1  0
 31 11  1  0
 30 21  1  0
 29 24  1  0
  1 34  1  0
  1 35  1  0
  1 36  1  0
  6 37  1  0
  6 38  1  0
  7 39  1  0
  7 40  1  0
 12 41  1  0
 13 42  1  0
 22 43  1  0
 23 44  1  0
 27 45  1  0
 28 46  1  0
 30 47  1  0
 31 48  1  0
 32 49  1  0
 32 50  1  0
 33 51  1  0
 33 52  1  0
M  CHG  3  15  -1  17  -1  25  -1
M  END
>  <UniqueID>  (15) 
15

>  <SMILES>  (15) 
CS(=O)(=O)N1CCN(C(=O)c2ccc([O-])c([N-]S(=O)(=O)c3ccc4[n-]c(O)cc4c3)c2)CC1

>  <Energy>  (15) 
98.71665722663664

>  <Genealogy>  (15) 
CS(=O)(=O)N1CCN(C(=O)c2ccc([O-])c([N-]S(=O)(=O)c3ccc4[n-]c(O)cc4c3)c2)CC1 (protonated)
CS(=O)(=O)N1CCN(C(=O)c2ccc([O-])c([N-]S(=O)(=O)c3ccc4[n-]c(O)cc4c3)c2)CC1 (3D coordinates assigned)
CS(=O)(=O)N1CCN(C(=O)c2ccc([O-])c([N-]S(=O)(=O)c3ccc4[n-]c(O)cc4c3)c2)CC1 (nonaromatic ring conformer: 98.71665722663664 kcal/mol)

>  <smiles>  (15) 
CS(=O)(=O)N1CCN(C(=O)c2ccc(O)c(NS(=O)(=O)c3ccc4[nH]c(O)cc4c3)c2)CC1

>  <score_type>  (15) 
oracle

>  <origin>  (15) 
adgpu

>  <m_score__min__energy>  (15) 
-13.98

>  <m_primary>  (15) 
energy

$$$$
15:0
     RDKit          3D

 50 53  0  0  0  0  0  0  0  0999 V2000
   -1.6410   20.1610  -25.6540 C   0  0  0  0  0  0  0  0  0  0  0  0
   -0.8720   20.0220  -26.9020 N   0  0  0  0  0  0  0  0  0  0  0  0
   -1.6740   19.4520  -28.0050 C   0  0  0  0  0  0  0  0  0  0  0  0
   -2.7970   20.3930  -28.4660 C   0  0  0  0  0  0  0  0  0  0  0  0
   -2.3140   21.8110  -28.6290 C   0  0  0  0  0  0  0  0  0  0  0  0
   -3.0890   22.7200  -29.3640 C   0  0  0  0  0  0  0  0  0  0  0  0
   -2.7020   24.0640  -29.4840 C   0  0  0  0  0  0  0  0  0  0  0  0
   -3.5060   24.9320  -30.2940 N   0  0  0  0  0  0  0  0  0  0  0  0
   -5.2390   25.0030  -30.2470 S   0  0  0  0  0  0  0  0  0  0  0  0
   -5.7080   26.0520  -31.2120 O   0  0  0  0  0  0  0  0  0  0  0  0
   -5.7150   25.3790  -28.8720 O   0  0  0  0  0  0  0  0  0  0  0  0
   -5.8960   23.4490  -30.7430 C   0  0  0  0  0  0  0  0  0  0  0  0
   -7.0910   22.9930  -30.1710 C   0  0  0  0  0  0  0  0  0  0  0  0
   -7.6730   21.8040  -30.6150 C   0  0  0  0  0  0  0  0  0  0  0  0
   -7.0660   21.0620  -31.6380 C   0  0  0  0  0  0  0  0  0  0  0  0
   -7.8830   19.6490  -32.2970 S   0  0  0  0  0  0  0  0  0  0  0  0
   -8.7740   19.0370  -31.2530 O   0  0  0  0  0  0  0  0  0  0  0  0
   -8.7310   20.0640  -33.4670 O   0  0  0  0  0  0  0  0  0  0  0  0
   -6.7170   18.4720  -32.8210 N   0  0  0  0  0  0  0  0  0  0  0  0
   -6.1320   18.9180  -34.0780 C   0  0  0  0  0  0  0  0  0  0  0  0
   -5.6750   17.7760  -34.9730 C   0  0  0  0  0  0  0  0  0  0  0  0
   -4.6530   18.5800  -34.1770 C   0  0  0  0  0  0  0  0  0  0  0  0
   -5.8640   21.5110  -32.2030 C   0  0  0  0  0  0  0  0  0  0  0  0
   -5.2790   22.6980  -31.7560 C   0  0  0  0  0  0  0  0  0  0  0  0
   -1.5050   24.4940  -28.8810 C   0  0  0  0  0  0  0  0  0  0  0  0
   -1.0510   25.8010  -29.0540 O   0  0  0  0  0  0  0  0  0  0  0  0
   -0.7400   23.5910  -28.1290 C   0  0  0  0  0  0  0  0  0  0  0  0
   -1.1370   22.2540  -27.9910 C   0  0  0  0  0  0  0  0  0  0  0  0
   -0.2080   21.2820  -27.2980 C   0  0  0  0  0  0  0  0  0  0  0  0
   -0.9675   20.0393  -24.7928 H   0  0  0  0  0  0  0  0  0  0  0  0
   -2.1052   21.1576  -25.6184 H   0  0  0  0  0  0  0  0  0  0  0  0
   -2.4247   19.3900  -25.6184 H   0  0  0  0  0  0  0  0  0  0  0  0
   -1.0087   19.2530  -28.8581 H   0  0  0  0  0  0  0  0  0  0  0  0
   -2.1438   18.5295  -27.6332 H   0  0  0  0  0  0  0  0  0  0  0  0
   -3.1848   20.0367  -29.4317 H   0  0  0  0  0  0  0  0  0  0  0  0
   -3.5822   20.3880  -27.6956 H   0  0  0  0  0  0  0  0  0  0  0  0
   -4.0121   22.3752  -29.8528 H   0  0  0  0  0  0  0  0  0  0  0  0
   -7.5720   23.5734  -29.3699 H   0  0  0  0  0  0  0  0  0  0  0  0
   -8.6099   21.4487  -30.1611 H   0  0  0  0  0  0  0  0  0  0  0  0
   -6.7457   19.8189  -34.2256 H   0  0  0  0  0  0  0  0  0  0  0  0
   -5.8954   16.7353  -34.6930 H   0  0  0  0  0  0  0  0  0  0  0  0
   -5.8068   17.5179  -36.0341 H   0  0  0  0  0  0  0  0  0  0  0  0
   -4.1355   18.1195  -33.3225 H   0  0  0  0  0  0  0  0  0  0  0  0
   -3.7411   19.1427  -34.4257 H   0  0  0  0  0  0  0  0  0  0  0  0
   -5.3805   20.9272  -33.0001 H   0  0  0  0  0  0  0  0  0  0  0  0
   -4.3335   23.0449  -32.1984 H   0  0  0  0  0  0  0  0  0  0  0  0
   -1.6720   26.5470  -29.3450 H   0  0  0  0  0  0  0  0  0  0  0  0
    0.1834   23.9364  -27.6412 H   0  0  0  0  0  0  0  0  0  0  0  0
    0.6191   21.0411  -27.9820 H   0  0  0  0  0  0  0  0  0  0  0  0
    0.1453   21.7684  -26.3768 H   0  0  0  0  0  0  0  0  0  0  0  0
  1  2  1  0
  2  3  1  0
  3  4  1  0
  4  5  1  0
  5  6  2  0
  6  7  1  0
  7  8  1  0
  8  9  1  0
  9 10  2  0
  9 11  2  0
  9 12  1  0
 12 13  2  0
 13 14  1  0
 14 15  2  0
 15 16  1  0
 16 17  2  0
 16 18  2  0
 16 19  1  0
 19 20  1  0
 20 21  1  0
 21 22  1  0
 15 23  1  0
 23 24  2  0
  7 25  2  0
 25 26  1  0
 25 27  1  0
 27 28  2  0
 28 29  1  0
 29  2  1  0
 28  5  1  0
 24 12  1  0
 22 20  1  0
  1 30  1  0
  1 31  1  0
  1 32  1  0
  3 33  1  0
  3 34  1  0
  4 35  1  0
  4 36  1  0
  6 37  1  0
 13 38  1  0
 14 39  1  0
 20 40  1  0
 21 41  1  0
 21 42  1  0
 22 43  1  0
 22 44  1  0
 23 45  1  0
 24 46  1  0
 26 47  1  0
 27 48  1  0
 29 49  1  0
 29 50  1  0
M  CHG  2   8  -1  19  -1
M  END
>  <UniqueID>  (16) 
16

>  <SMILES>  (16) 
CN1CCc2cc([N-]S(=O)(=O)c3ccc(S(=O)(=O)[N-]C4CC4)cc3)c(O)cc2C1

>  <Energy>  (16) 
324.221370486317

>  <Genealogy>  (16) 
CN1CCc2cc([N-]S(=O)(=O)c3ccc(S(=O)(=O)[N-]C4CC4)cc3)c(O)cc2C1 (protonated)
CN1CCc2cc([N-]S(=O)(=O)c3ccc(S(=O)(=O)[N-]C4CC4)cc3)c(O)cc2C1 (3D coordinates assigned)
CN1CCc2cc([N-]S(=O)(=O)c3ccc(S(=O)(=O)[N-]C4CC4)cc3)c(O)cc2C1 (nonaromatic ring conformer: 324.221370486317 kcal/mol)

>  <smiles>  (16) 
CN1CCc2cc(NS(=O)(=O)c3ccc(S(=O)(=O)NC4CC4)cc3)c(O)cc2C1

>  <score_type>  (16) 
oracle

>  <origin>  (16) 
adgpu

>  <m_score__min__energy>  (16) 
-12.42

>  <m_primary>  (16) 
energy

$$$$
16:0
     RDKit          3D

 61 64  0  0  0  0  0  0  0  0999 V2000
    0.7700   22.7810  -26.2790 C   0  0  0  0  0  0  0  0  0  0  0  0
   -0.2020   22.7500  -27.4210 C   0  0  0  0  0  0  0  0  0  0  0  0
   -0.6240   23.9390  -27.9240 N   0  0  0  0  0  0  0  0  0  0  0  0
   -1.5130   24.0350  -28.9440 C   0  0  0  0  0  0  0  0  0  0  0  0
   -1.8260   25.1790  -29.3690 O   0  0  0  0  0  0  0  0  0  0  0  0
   -2.0750   22.8730  -29.5150 C   0  0  0  0  0  0  0  0  0  0  0  0
   -3.0600   22.9770  -30.5940 N   0  0  1  0  0  0  0  0  0  0  0  0
   -2.8780   21.9760  -31.6470 C   0  0  0  0  0  0  0  0  0  0  0  0
   -3.8580   21.0070  -31.9660 C   0  0  0  0  0  0  0  0  0  0  0  0
   -3.6220   20.0510  -32.9570 C   0  0  0  0  0  0  0  0  0  0  0  0
   -2.4040   20.0280  -33.6360 C   0  0  0  0  0  0  0  0  0  0  0  0
   -1.4030   20.9530  -33.3220 C   0  0  0  0  0  0  0  0  0  0  0  0
    0.1270   20.8920  -34.1950 S   0  0  0  0  0  0  0  0  0  0  0  0
    0.1910   19.5330  -35.3490 C   0  0  0  0  0  0  0  0  0  0  0  0
    1.2470   20.7210  -33.2050 O   0  0  0  0  0  0  0  0  0  0  0  0
    0.3210   22.1800  -34.9420 O   0  0  0  0  0  0  0  0  0  0  0  0
   -1.6370   21.9090  -32.3220 C   0  0  0  0  0  0  0  0  0  0  0  0
   -4.4650   23.2000  -30.1100 C   0  0  1  0  0  0  0  0  0  0  0  0
   -4.6270   22.7500  -28.6400 C   0  0  0  0  0  0  0  0  0  0  0  0
   -5.0370   24.5980  -30.3220 C   0  0  0  0  0  0  0  0  0  0  0  0
   -4.2350   25.6710  -30.8170 N   0  0  0  0  0  0  0  0  0  0  0  0
   -6.2710   24.7990  -30.1390 O   0  0  0  0  0  0  0  0  0  0  0  0
   -1.6320   21.6280  -29.0140 C   0  0  0  0  0  0  0  0  0  0  0  0
   -0.6590   21.5470  -28.0040 C   0  0  0  0  0  0  0  0  0  0  0  0
   -0.1710   20.1770  -27.5620 C   0  0  0  0  0  0  0  0  0  0  0  0
    1.0130   19.6840  -28.3790 C   0  0  0  0  0  0  0  0  0  0  0  0
    2.3050   19.8650  -27.8480 C   0  0  0  0  0  0  0  0  0  0  0  0
    3.4370   19.5330  -28.5880 C   0  0  0  0  0  0  0  0  0  0  0  0
    3.3090   19.0070  -29.8690 C   0  0  0  0  0  0  0  0  0  0  0  0
    2.0400   18.7720  -30.4140 C   0  0  0  0  0  0  0  0  0  0  0  0
    1.9230   18.2290  -31.7020 C   0  0  0  0  0  0  0  0  0  0  0  0
    0.6640   17.9670  -32.2450 C   0  0  0  0  0  0  0  0  0  0  0  0
   -0.4850   18.2280  -31.5010 C   0  0  0  0  0  0  0  0  0  0  0  0
   -0.3860   18.7720  -30.2180 C   0  0  0  0  0  0  0  0  0  0  0  0
    0.8740   19.0820  -29.6610 C   0  0  0  0  0  0  0  0  0  0  0  0
    0.2184   22.7634  -25.3275 H   0  0  0  0  0  0  0  0  0  0  0  0
    1.4308   21.9035  -26.3360 H   0  0  0  0  0  0  0  0  0  0  0  0
    1.3736   23.6989  -26.3360 H   0  0  0  0  0  0  0  0  0  0  0  0
   -2.8260   23.8850  -31.0650 H   0  0  0  0  0  0  0  0  0  0  0  0
   -4.8171   21.0062  -31.4274 H   0  0  0  0  0  0  0  0  0  0  0  0
   -4.4001   19.3133  -33.2028 H   0  0  0  0  0  0  0  0  0  0  0  0
   -2.2298   19.2787  -34.4223 H   0  0  0  0  0  0  0  0  0  0  0  0
    0.2357   18.5836  -34.7953 H   0  0  0  0  0  0  0  0  0  0  0  0
   -0.7088   19.5465  -35.9816 H   0  0  0  0  0  0  0  0  0  0  0  0
    1.0855   19.6310  -35.9816 H   0  0  0  0  0  0  0  0  0  0  0  0
   -0.8401   22.6198  -32.0580 H   0  0  0  0  0  0  0  0  0  0  0  0
   -5.0746   22.5612  -30.7660 H   0  0  0  0  0  0  0  0  0  0  0  0
   -4.3314   23.5712  -27.9705 H   0  0  0  0  0  0  0  0  0  0  0  0
   -5.6775   22.4835  -28.4518 H   0  0  0  0  0  0  0  0  0  0  0  0
   -3.9874   21.8751  -28.4518 H   0  0  0  0  0  0  0  0  0  0  0  0
   -3.2290   25.5290  -31.0530 H   0  0  0  0  0  0  0  0  0  0  0  0
   -2.0589   20.7010  -29.4244 H   0  0  0  0  0  0  0  0  0  0  0  0
    0.1300   20.2346  -26.5056 H   0  0  0  0  0  0  0  0  0  0  0  0
   -0.9969   19.4660  -27.7115 H   0  0  0  0  0  0  0  0  0  0  0  0
    2.4215   20.2747  -26.8338 H   0  0  0  0  0  0  0  0  0  0  0  0
    4.4373   19.6876  -28.1572 H   0  0  0  0  0  0  0  0  0  0  0  0
    4.2088   18.7743  -30.4574 H   0  0  0  0  0  0  0  0  0  0  0  0
    2.8280   18.0085  -32.2872 H   0  0  0  0  0  0  0  0  0  0  0  0
    0.5788   17.5542  -33.2610 H   0  0  0  0  0  0  0  0  0  0  0  0
   -1.4747   18.0046  -31.9259 H   0  0  0  0  0  0  0  0  0  0  0  0
   -1.2997   18.9609  -29.6353 H   0  0  0  0  0  0  0  0  0  0  0  0
  1  2  1  0
  2  3  1  0
  3  4  1  0
  4  5  2  0
  4  6  1  0
  6  7  1  0
  7  8  1  0
  8  9  2  0
  9 10  1  0
 10 11  2  0
 11 12  1  0
 12 13  1  0
 13 14  1  0
 13 15  2  0
 13 16  2  0
 12 17  2  0
  7 18  1  0
 18 19  1  0
 18 20  1  0
 20 21  1  0
 20 22  2  0
  6 23  2  0
 23 24  1  0
 24 25  1  0
 25 26  1  0
 26 27  2  0
 27 28  1  0
 28 29  2  0
 29 30  1  0
 30 31  2  0
 31 32  1  0
 32 33  2  0
 33 34  1  0
 34 35  2  0
 24  2  2  0
 35 26  1  0
 17  8  1  0
 35 30  1  0
  1 36  1  0
  1 37  1  0
  1 38  1  0
  7 39  1  6
  9 40  1  0
 10 41  1  0
 11 42  1  0
 14 43  1  0
 14 44  1  0
 14 45  1  0
 17 46  1  0
 18 47  1  6
 19 48  1  0
 19 49  1  0
 19 50  1  0
 21 51  1  0
 23 52  1  0
 25 53  1  0
 25 54  1  0
 27 55  1  0
 28 56  1  0
 29 57  1  0
 31 58  1  0
 32 59  1  0
 33 60  1  0
 34 61  1  0
M  CHG  3   3  -1   7   1  21  -1
M  END
>  <UniqueID>  (17) 
17

>  <SMILES>  (17) 
Cc1[n-]c(=O)c([N@@H+](c2cccc(S(C)(=O)=O)c2)[C@@H](C)C([NH-])=O)cc1Cc1cccc2ccccc12

>  <Energy>  (17) 
90.18849419917258

>  <Genealogy>  (17) 
Cc1[n-]c(=O)c([NH+](c2cccc(S(C)(=O)=O)c2)C(C)C([NH-])=O)cc1Cc1cccc2ccccc12 (protonated)
Cc1[n-]c(=O)c([N@@H+](c2cccc(S(C)(=O)=O)c2)[C@@H](C)C([NH-])=O)cc1Cc1cccc2ccccc12 (chirality)
Cc1[n-]c(=O)c([N@@H+](c2cccc(S(C)(=O)=O)c2)[C@@H](C)C([NH-])=O)cc1Cc1cccc2ccccc12 (3D coordinates assigned)
Cc1[n-]c(=O)c([N@@H+](c2cccc(S(C)(=O)=O)c2)[C@@H](C)C([NH-])=O)cc1Cc1cccc2ccccc12 (optimized conformer: 90.18849419917258 kcal/mol)

>  <smiles>  (17) 
Cc1[nH]c(=O)c(N(c2cccc(S(C)(=O)=O)c2)C(C)C(N)=O)cc1Cc1cccc2ccccc12

>  <score_type>  (17) 
oracle

>  <origin>  (17) 
adgpu

>  <m_score__min__energy>  (17) 
-13.82

>  <m_primary>  (17) 
energy

$$$$
17:0
     RDKit          3D

 59 62  0  0  0  0  0  0  0  0999 V2000
   -2.2242   18.8551  -34.0127 H   0  0  0  0  0  0  0  0  0  0  0  0
   -3.2090   19.1710  -33.6380 C   0  0  0  0  0  0  0  0  0  0  0  0
   -3.2490   20.3570  -32.7550 C   0  0  0  0  0  0  0  0  0  0  0  0
   -3.4810   21.5020  -33.2310 O   0  0  0  0  0  0  0  0  0  0  0  0
   -2.9290   20.2080  -31.3640 N   0  0  0  0  0  0  0  0  0  0  0  0
   -2.5670   19.2860  -31.0290 H   0  0  0  0  0  0  0  0  0  0  0  0
   -3.0050   21.2920  -30.4240 C   0  0  0  0  0  0  0  0  0  0  0  0
   -3.9280   22.3320  -30.6240 C   0  0  0  0  0  0  0  0  0  0  0  0
   -4.5479   22.3425  -31.5326 H   0  0  0  0  0  0  0  0  0  0  0  0
   -4.0670   23.3560  -29.6780 C   0  0  0  0  0  0  0  0  0  0  0  0
   -5.2480   24.6470  -29.9330 S   0  0  0  0  0  0  0  0  0  0  0  0
   -5.5420   25.3080  -28.6160 O   0  0  0  0  0  0  0  0  0  0  0  0
   -4.6540   25.6810  -30.8500 O   0  0  0  0  0  0  0  0  0  0  0  0
   -6.7440   24.0670  -30.6280 N   0  0  0  0  0  0  0  0  0  0  0  0
   -7.2380   22.8730  -29.9460 C   0  0  0  0  0  0  0  0  0  0  0  0
   -6.3952   22.2471  -29.6175 H   0  0  0  0  0  0  0  0  0  0  0  0
   -7.8224   23.1387  -29.0528 H   0  0  0  0  0  0  0  0  0  0  0  0
   -8.0910   22.1180  -30.9570 C   0  0  0  0  0  0  0  0  0  0  0  0
   -7.8993   21.0368  -30.8918 H   0  0  0  0  0  0  0  0  0  0  0  0
   -9.1663   22.2620  -30.7752 H   0  0  0  0  0  0  0  0  0  0  0  0
   -7.6690   22.6530  -32.3170 C   0  0  0  0  0  0  0  0  0  0  0  0
   -7.2705   21.8409  -32.9429 H   0  0  0  0  0  0  0  0  0  0  0  0
   -8.5163   23.0924  -32.8638 H   0  0  0  0  0  0  0  0  0  0  0  0
   -6.5870   23.6830  -32.0300 C   0  0  0  0  0  0  0  0  0  0  0  0
   -5.5915   23.2452  -32.1953 H   0  0  0  0  0  0  0  0  0  0  0  0
   -6.6796   24.5544  -32.6949 H   0  0  0  0  0  0  0  0  0  0  0  0
   -3.2630   23.3500  -28.5320 C   0  0  0  0  0  0  0  0  0  0  0  0
   -3.3493   24.1651  -27.7984 H   0  0  0  0  0  0  0  0  0  0  0  0
   -2.3520   22.3140  -28.3160 C   0  0  0  0  0  0  0  0  0  0  0  0
   -1.7345   22.3115  -27.4057 H   0  0  0  0  0  0  0  0  0  0  0  0
   -2.2180   21.2770  -29.2500 C   0  0  0  0  0  0  0  0  0  0  0  0
   -1.2640   20.2280  -29.0130 N   0  0  0  0  0  0  0  0  0  0  0  0
   -0.2390   19.9180  -30.0190 C   0  0  0  0  0  0  0  0  0  0  0  0
   -0.5366   19.0194  -30.5793 H   0  0  0  0  0  0  0  0  0  0  0  0
   -0.1382   20.7678  -30.7101 H   0  0  0  0  0  0  0  0  0  0  0  0
    1.1040   19.6650  -29.3270 C   0  0  0  0  0  0  0  0  0  0  0  0
    1.8341   19.3415  -30.0835 H   0  0  0  0  0  0  0  0  0  0  0  0
    1.4095   20.6037  -28.8417 H   0  0  0  0  0  0  0  0  0  0  0  0
    1.0150   18.5790  -28.2290 C   0  0  0  0  0  0  0  0  0  0  0  0
    1.4931   17.6637  -28.6080 H   0  0  0  0  0  0  0  0  0  0  0  0
    1.5203   18.9832  -27.3395 H   0  0  0  0  0  0  0  0  0  0  0  0
   -0.4240   18.2340  -27.8060 C   0  0  0  0  0  0  0  0  0  0  0  0
   -0.8490   17.5261  -28.5328 H   0  0  0  0  0  0  0  0  0  0  0  0
   -0.3884   17.7924  -26.7992 H   0  0  0  0  0  0  0  0  0  0  0  0
   -1.3130   19.4800  -27.7490 C   0  0  0  0  0  0  0  0  0  0  0  0
   -2.3508   19.1713  -27.5551 H   0  0  0  0  0  0  0  0  0  0  0  0
   -0.9449   20.1331  -26.9441 H   0  0  0  0  0  0  0  0  0  0  0  0
   -4.2740   18.4470  -34.0210 C   0  0  0  0  0  0  0  0  0  0  0  0
   -4.1144   17.6872  -34.8003 H   0  0  0  0  0  0  0  0  0  0  0  0
   -5.6420   18.5880  -33.4810 C   0  0  0  0  0  0  0  0  0  0  0  0
   -6.4610   19.6770  -33.8260 C   0  0  0  0  0  0  0  0  0  0  0  0
   -6.1031   20.4248  -34.5490 H   0  0  0  0  0  0  0  0  0  0  0  0
   -7.6940   19.8090  -33.2690 N   0  0  0  0  0  0  0  0  0  0  0  0
   -8.1700   18.9120  -32.3640 C   0  0  0  0  0  0  0  0  0  0  0  0
   -9.1763   19.0413  -31.9390 H   0  0  0  0  0  0  0  0  0  0  0  0
   -7.3820   17.8270  -31.9740 C   0  0  0  0  0  0  0  0  0  0  0  0
   -7.7605   17.1011  -31.2393 H   0  0  0  0  0  0  0  0  0  0  0  0
   -6.1090   17.6730  -32.5260 C   0  0  0  0  0  0  0  0  0  0  0  0
   -5.4717   16.8334  -32.2117 H   0  0  0  0  0  0  0  0  0  0  0  0
  1  2  1  0
  2  3  1  0
  3  4  2  0
  3  5  1  0
  5  6  1  0
  5  7  1  0
  7  8  2  0
  8  9  1  0
  8 10  1  0
 10 11  1  0
 11 12  2  0
 11 13  2  0
 11 14  1  0
 14 15  1  0
 15 16  1  0
 15 17  1  0
 15 18  1  0
 18 19  1  0
 18 20  1  0
 18 21  1  0
 21 22  1  0
 21 23  1  0
 21 24  1  0
 24 25  1  0
 24 26  1  0
 10 27  2  0
 27 28  1  0
 27 29  1  0
 29 30  1  0
 29 31  2  0
 31 32  1  0
 32 33  1  0
 33 34  1  0
 33 35  1  0
 33 36  1  0
 36 37  1  0
 36 38  1  0
 36 39  1  0
 39 40  1  0
 39 41  1  0
 39 42  1  0
 42 43  1  0
 42 44  1  0
 42 45  1  0
 45 46  1  0
 45 47  1  0
  2 48  2  0
 48 49  1  0
 48 50  1  0
 50 51  2  0
 51 52  1  0
 51 53  1  0
 53 54  2  0
 54 55  1  0
 54 56  1  0
 56 57  1  0
 56 58  2  0
 58 59  1  0
 31  7  1  0
 45 32  1  0
 58 50  1  0
 24 14  1  0
M  END
>  <UniqueID>  (18) 
18

>  <SMILES>  (18) 
O=C(/C=C\c1cccnc1)Nc1cc(S(=O)(=O)N2CCCC2)ccc1N1CCCCC1

>  <Energy>  (18) 
78.75407977705268

>  <Genealogy>  (18) 
O=C(/C=C\c1cccnc1)Nc1cc(S(=O)(=O)N2CCCC2)ccc1N1CCCCC1 (cis-trans isomerization)
O=C(/C=C\c1cccnc1)Nc1cc(S(=O)(=O)N2CCCC2)ccc1N1CCCCC1 (3D coordinates assigned)
O=C(/C=C\c1cccnc1)Nc1cc(S(=O)(=O)N2CCCC2)ccc1N1CCCCC1 (nonaromatic ring conformer: 78.75407977705268 kcal/mol)

>  <smiles>  (18) 
O=C(C=Cc1cccnc1)Nc1cc(S(=O)(=O)N2CCCC2)ccc1N1CCCCC1

>  <score_type>  (18) 
oracle

>  <origin>  (18) 
adgpu

>  <m_score__min__energy>  (18) 
-9.9299999999999997

>  <m_primary>  (18) 
energy

$$$$
18:0
     RDKit          3D

 58 61  0  0  0  0  0  0  0  0999 V2000
   -9.4720   19.0630  -32.2190 N   0  0  0  0  0  0  0  0  0  0  0  0
   -8.8380   20.0080  -32.0110 C   0  0  0  0  0  0  0  0  0  0  0  0
   -8.0500   21.1840  -31.7480 C   0  0  0  0  0  0  0  0  0  0  0  0
   -7.1800   21.6810  -32.7260 C   0  0  0  0  0  0  0  0  0  0  0  0
   -6.4140   22.8230  -32.4660 C   0  0  0  0  0  0  0  0  0  0  0  0
   -6.4970   23.4670  -31.2240 C   0  0  0  0  0  0  0  0  0  0  0  0
   -5.6950   24.6360  -31.0050 N   0  0  0  0  0  0  0  0  0  0  0  0
   -4.6560   24.7880  -30.0310 C   0  0  0  0  0  0  0  0  0  0  0  0
   -4.9290   24.9090  -28.8070 O   0  0  0  0  0  0  0  0  0  0  0  0
   -3.2930   24.7780  -30.4630 N   0  0  0  0  0  0  0  0  0  0  0  0
   -2.2210   24.1730  -29.7270 C   0  0  0  0  0  0  0  0  0  0  0  0
   -1.9780   22.7810  -29.7820 C   0  0  0  0  0  0  0  0  0  0  0  0
   -2.7160   21.9350  -30.6840 N   0  0  0  0  0  0  0  0  0  0  0  0
   -3.4750   20.7990  -30.1440 C   0  0  0  0  0  0  0  0  0  0  0  0
   -4.6570   20.4590  -31.0570 C   0  0  0  0  0  0  0  0  0  0  0  0
   -4.1930   20.2790  -32.5050 C   0  0  0  0  0  0  0  0  0  0  0  0
   -3.4770   21.5380  -33.0000 C   0  0  0  0  0  0  0  0  0  0  0  0
   -2.2950   21.8880  -32.0910 C   0  0  0  0  0  0  0  0  0  0  0  0
   -0.9420   22.2340  -29.0100 C   0  0  0  0  0  0  0  0  0  0  0  0
   -0.1360   23.0530  -28.2210 C   0  0  0  0  0  0  0  0  0  0  0  0
   -0.3410   24.4370  -28.2000 C   0  0  0  0  0  0  0  0  0  0  0  0
    0.6880   25.4680  -27.1990 S   0  0  0  0  0  0  0  0  0  0  0  0
    2.1170   25.0010  -27.2800 O   0  0  0  0  0  0  0  0  0  0  0  0
    0.6130   26.8760  -27.7190 O   0  0  0  0  0  0  0  0  0  0  0  0
    0.1490   25.4240  -25.5380 N   0  0  0  0  0  0  0  0  0  0  0  0
    0.6980   26.5800  -24.8100 C   0  0  0  0  0  0  0  0  0  0  0  0
    0.0520   26.6970  -23.4160 C   0  0  0  0  0  0  0  0  0  0  0  0
   -1.3710   26.6070  -23.3830 O   0  0  0  0  0  0  0  0  0  0  0  0
   -1.9520   26.4960  -24.6660 C   0  0  0  0  0  0  0  0  0  0  0  0
   -1.3290   25.3390  -25.4640 C   0  0  0  0  0  0  0  0  0  0  0  0
   -1.3860   24.9950  -28.9540 C   0  0  0  0  0  0  0  0  0  0  0  0
   -1.6110   26.3690  -28.9250 O   0  0  0  0  0  0  0  0  0  0  0  0
   -7.3950   22.9810  -30.2560 C   0  0  0  0  0  0  0  0  0  0  0  0
   -8.1610   21.8400  -30.5170 C   0  0  0  0  0  0  0  0  0  0  0  0
   -7.0986   21.1738  -33.6987 H   0  0  0  0  0  0  0  0  0  0  0  0
   -5.7419   23.2180  -33.2421 H   0  0  0  0  0  0  0  0  0  0  0  0
   -2.8124   19.9241  -30.0691 H   0  0  0  0  0  0  0  0  0  0  0  0
   -3.8605   21.0698  -29.1500 H   0  0  0  0  0  0  0  0  0  0  0  0
   -5.1240   19.5256  -30.7095 H   0  0  0  0  0  0  0  0  0  0  0  0
   -5.3804   21.2869  -31.0194 H   0  0  0  0  0  0  0  0  0  0  0  0
   -3.5023   19.4247  -32.5600 H   0  0  0  0  0  0  0  0  0  0  0  0
   -5.0727   20.0976  -33.1401 H   0  0  0  0  0  0  0  0  0  0  0  0
   -3.1068   21.3638  -34.0211 H   0  0  0  0  0  0  0  0  0  0  0  0
   -4.1900   22.3756  -32.9874 H   0  0  0  0  0  0  0  0  0  0  0  0
   -1.5116   21.1247  -32.2079 H   0  0  0  0  0  0  0  0  0  0  0  0
   -1.9103   22.8779  -32.3776 H   0  0  0  0  0  0  0  0  0  0  0  0
   -0.7641   21.1486  -29.0276 H   0  0  0  0  0  0  0  0  0  0  0  0
    0.6652   22.6091  -27.6118 H   0  0  0  0  0  0  0  0  0  0  0  0
    1.7846   26.4529  -24.6958 H   0  0  0  0  0  0  0  0  0  0  0  0
    0.4808   27.4951  -25.3804 H   0  0  0  0  0  0  0  0  0  0  0  0
    0.4561   25.8896  -22.7877 H   0  0  0  0  0  0  0  0  0  0  0  0
    0.2964   27.7076  -23.0568 H   0  0  0  0  0  0  0  0  0  0  0  0
   -3.0314   26.3148  -24.5559 H   0  0  0  0  0  0  0  0  0  0  0  0
   -1.7679   27.4328  -25.2123 H   0  0  0  0  0  0  0  0  0  0  0  0
   -1.6029   24.3901  -24.9796 H   0  0  0  0  0  0  0  0  0  0  0  0
   -1.7165   25.3985  -26.4918 H   0  0  0  0  0  0  0  0  0  0  0  0
   -7.4950   23.4998  -29.2912 H   0  0  0  0  0  0  0  0  0  0  0  0
   -8.8528   21.4573  -29.7522 H   0  0  0  0  0  0  0  0  0  0  0  0
  1  2  3  0
  2  3  1  0
  3  4  2  0
  4  5  1  0
  5  6  2  0
  6  7  1  0
  7  8  1  0
  8  9  2  0
  8 10  1  0
 10 11  1  0
 11 12  1  0
 12 13  1  0
 13 14  1  0
 14 15  1  0
 15 16  1  0
 16 17  1  0
 17 18  1  0
 12 19  2  0
 19 20  1  0
 20 21  2  0
 21 22  1  0
 22 23  2  0
 22 24  2  0
 22 25  1  0
 25 26  1  0
 26 27  1  0
 27 28  1  0
 28 29  1  0
 29 30  1  0
 21 31  1  0
 31 32  1  0
  6 33  1  0
 33 34  2  0
 34  3  1  0
 31 11  2  0
 18 13  1  0
 30 25  1  0
  4 35  1  0
  5 36  1  0
 14 37  1  0
 14 38  1  0
 15 39  1  0
 15 40  1  0
 16 41  1  0
 16 42  1  0
 17 43  1  0
 17 44  1  0
 18 45  1  0
 18 46  1  0
 19 47  1  0
 20 48  1  0
 26 49  1  0
 26 50  1  0
 27 51  1  0
 27 52  1  0
 29 53  1  0
 29 54  1  0
 30 55  1  0
 30 56  1  0
 33 57  1  0
 34 58  1  0
M  CHG  3   7  -1  10  -1  32  -1
M  END
>  <UniqueID>  (19) 
19

>  <SMILES>  (19) 
N#Cc1ccc([N-]C(=O)[N-]c2c(N3CCCCC3)ccc(S(=O)(=O)N3CCOCC3)c2[O-])cc1

>  <Energy>  (19) 
79.69918511393467

>  <Genealogy>  (19) 
N#Cc1ccc([N-]C(=O)[N-]c2c(N3CCCCC3)ccc(S(=O)(=O)N3CCOCC3)c2[O-])cc1 (protonated)
N#Cc1ccc([N-]C(=O)[N-]c2c(N3CCCCC3)ccc(S(=O)(=O)N3CCOCC3)c2[O-])cc1 (3D coordinates assigned)
N#Cc1ccc([N-]C(=O)[N-]c2c(N3CCCCC3)ccc(S(=O)(=O)N3CCOCC3)c2[O-])cc1 (nonaromatic ring conformer: 79.69918511393467 kcal/mol)

>  <smiles>  (19) 
N#Cc1ccc(NC(=O)Nc2c(N3CCCCC3)ccc(S(=O)(=O)N3CCOCC3)c2O)cc1

>  <score_type>  (19) 
oracle

>  <origin>  (19) 
adgpu

>  <m_score__min__energy>  (19) 
-14.48

>  <m_primary>  (19) 
energy

$$$$
19:0
     RDKit          3D

 57 60  0  0  0  0  0  0  0  0999 V2000
    0.9100   19.8540  -27.9650 C   0  0  0  0  0  0  0  0  0  0  0  0
   -0.3080   19.0800  -28.2580 N   0  0  0  0  0  0  0  0  0  0  0  0
   -1.2600   19.0700  -27.1310 C   0  0  0  0  0  0  0  0  0  0  0  0
   -1.8250   20.4640  -26.8230 C   0  0  0  0  0  0  0  0  0  0  0  0
   -2.1900   21.2250  -28.0690 C   0  0  0  0  0  0  0  0  0  0  0  0
   -2.9370   22.4050  -27.9510 C   0  0  0  0  0  0  0  0  0  0  0  0
   -3.2630   23.1670  -29.0870 C   0  0  0  0  0  0  0  0  0  0  0  0
   -4.0280   24.3750  -28.9800 N   0  0  0  0  0  0  0  0  0  0  0  0
   -5.2510   24.8900  -30.0990 S   0  0  0  0  0  0  0  0  0  0  0  0
   -6.1750   25.8310  -29.3810 O   0  0  0  0  0  0  0  0  0  0  0  0
   -4.6480   25.6220  -31.2630 O   0  0  0  0  0  0  0  0  0  0  0  0
   -6.1630   23.4890  -30.6640 C   0  0  0  0  0  0  0  0  0  0  0  0
   -7.2300   22.9790  -29.9070 C   0  0  0  0  0  0  0  0  0  0  0  0
   -7.9260   21.8460  -30.3410 C   0  0  0  0  0  0  0  0  0  0  0  0
   -7.5590   21.2110  -31.5360 C   0  0  0  0  0  0  0  0  0  0  0  0
   -8.3810   19.7430  -32.0620 S   0  0  0  0  0  0  0  0  0  0  0  0
   -9.4120   20.1100  -33.0900 O   0  0  0  0  0  0  0  0  0  0  0  0
   -9.0750   19.1000  -30.8930 O   0  0  0  0  0  0  0  0  0  0  0  0
   -7.2250   18.6330  -32.7560 N   0  0  0  0  0  0  0  0  0  0  0  0
   -6.5010   19.2940  -33.8660 C   0  0  0  0  0  0  0  0  0  0  0  0
   -5.2640   18.4890  -34.3270 C   0  0  0  0  0  0  0  0  0  0  0  0
   -5.2960   17.0550  -33.7920 C   0  0  0  0  0  0  0  0  0  0  0  0
   -5.3730   17.0560  -32.2550 C   0  0  0  0  0  0  0  0  0  0  0  0
   -6.2920   18.1700  -31.7130 C   0  0  0  0  0  0  0  0  0  0  0  0
   -6.4960   21.7200  -32.2930 C   0  0  0  0  0  0  0  0  0  0  0  0
   -5.8090   22.8570  -31.8620 C   0  0  0  0  0  0  0  0  0  0  0  0
   -2.8500   22.7210  -30.3560 C   0  0  0  0  0  0  0  0  0  0  0  0
   -3.1530   23.4400  -31.5100 O   0  0  0  0  0  0  0  0  0  0  0  0
   -2.1010   21.5470  -30.4770 C   0  0  0  0  0  0  0  0  0  0  0  0
   -1.7410   20.8090  -29.3380 C   0  0  0  0  0  0  0  0  0  0  0  0
   -0.9590   19.5270  -29.5060 C   0  0  0  0  0  0  0  0  0  0  0  0
    1.0391   19.9360  -26.8757 H   0  0  0  0  0  0  0  0  0  0  0  0
    1.7821   19.3440  -28.4002 H   0  0  0  0  0  0  0  0  0  0  0  0
    0.8187   20.8601  -28.4002 H   0  0  0  0  0  0  0  0  0  0  0  0
   -2.0949   18.3988  -27.3810 H   0  0  0  0  0  0  0  0  0  0  0  0
   -0.7163   18.7263  -26.2387 H   0  0  0  0  0  0  0  0  0  0  0  0
   -2.7259   20.3504  -26.2022 H   0  0  0  0  0  0  0  0  0  0  0  0
   -1.0431   21.0339  -26.2997 H   0  0  0  0  0  0  0  0  0  0  0  0
   -3.2722   22.7390  -26.9580 H   0  0  0  0  0  0  0  0  0  0  0  0
   -7.5200   23.4730  -28.9679 H   0  0  0  0  0  0  0  0  0  0  0  0
   -8.7622   21.4527  -29.7442 H   0  0  0  0  0  0  0  0  0  0  0  0
   -7.1874   19.4053  -34.7183 H   0  0  0  0  0  0  0  0  0  0  0  0
   -6.1483   20.2700  -33.5013 H   0  0  0  0  0  0  0  0  0  0  0  0
   -5.2460   18.4599  -35.4265 H   0  0  0  0  0  0  0  0  0  0  0  0
   -4.3640   18.9840  -33.9334 H   0  0  0  0  0  0  0  0  0  0  0  0
   -6.1768   16.5363  -34.1984 H   0  0  0  0  0  0  0  0  0  0  0  0
   -4.3757   16.5384  -34.1023 H   0  0  0  0  0  0  0  0  0  0  0  0
   -5.7620   16.0831  -31.9202 H   0  0  0  0  0  0  0  0  0  0  0  0
   -4.3596   17.2396  -31.8685 H   0  0  0  0  0  0  0  0  0  0  0  0
   -6.8683   17.7795  -30.8613 H   0  0  0  0  0  0  0  0  0  0  0  0
   -5.6680   19.0187  -31.3964 H   0  0  0  0  0  0  0  0  0  0  0  0
   -6.2016   21.2230  -33.2291 H   0  0  0  0  0  0  0  0  0  0  0  0
   -4.9838   23.2589  -32.4682 H   0  0  0  0  0  0  0  0  0  0  0  0
   -3.1120   24.4510  -31.5450 H   0  0  0  0  0  0  0  0  0  0  0  0
   -1.7909   21.1983  -31.4731 H   0  0  0  0  0  0  0  0  0  0  0  0
   -1.6473   18.7384  -29.8442 H   0  0  0  0  0  0  0  0  0  0  0  0
   -0.1636   19.7208  -30.2407 H   0  0  0  0  0  0  0  0  0  0  0  0
  1  2  1  0
  2  3  1  0
  3  4  1  0
  4  5  1  0
  5  6  2  0
  6  7  1  0
  7  8  1  0
  8  9  1  0
  9 10  2  0
  9 11  2  0
  9 12  1  0
 12 13  2  0
 13 14  1  0
 14 15  2  0
 15 16  1  0
 16 17  2  0
 16 18  2  0
 16 19  1  0
 19 20  1  0
 20 21  1  0
 21 22  1  0
 22 23  1  0
 23 24  1  0
 15 25  1  0
 25 26  2  0
  7 27  2  0
 27 28  1  0
 27 29  1  0
 29 30  2  0
 30 31  1  0
 31  2  1  0
 30  5  1  0
 26 12  1  0
 24 19  1  0
  1 32  1  0
  1 33  1  0
  1 34  1  0
  3 35  1  0
  3 36  1  0
  4 37  1  0
  4 38  1  0
  6 39  1  0
 13 40  1  0
 14 41  1  0
 20 42  1  0
 20 43  1  0
 21 44  1  0
 21 45  1  0
 22 46  1  0
 22 47  1  0
 23 48  1  0
 23 49  1  0
 24 50  1  0
 24 51  1  0
 25 52  1  0
 26 53  1  0
 28 54  1  0
 29 55  1  0
 31 56  1  0
 31 57  1  0
M  CHG  1   8  -1
M  END
>  <UniqueID>  (20) 
20

>  <SMILES>  (20) 
CN1CCc2cc([N-]S(=O)(=O)c3ccc(S(=O)(=O)N4CCCCC4)cc3)c(O)cc2C1

>  <Energy>  (20) 
73.58821440291983

>  <Genealogy>  (20) 
CN1CCc2cc([N-]S(=O)(=O)c3ccc(S(=O)(=O)N4CCCCC4)cc3)c(O)cc2C1 (protonated)
CN1CCc2cc([N-]S(=O)(=O)c3ccc(S(=O)(=O)N4CCCCC4)cc3)c(O)cc2C1 (3D coordinates assigned)
CN1CCc2cc([N-]S(=O)(=O)c3ccc(S(=O)(=O)N4CCCCC4)cc3)c(O)cc2C1 (nonaromatic ring conformer: 73.58821440291983 kcal/mol)

>  <smiles>  (20) 
CN1CCc2cc(NS(=O)(=O)c3ccc(S(=O)(=O)N4CCCCC4)cc3)c(O)cc2C1

>  <score_type>  (20) 
oracle

>  <origin>  (20) 
adgpu

>  <m_score__min__energy>  (20) 
-13.699999999999999

>  <m_primary>  (20) 
energy

$$$$
20:0
     RDKit          3D

 49 51  0  0  0  0  0  0  0  0999 V2000
   -8.2270   18.6380  -32.1710 C   0  0  0  0  0  0  0  0  0  0  0  0
   -6.8120   18.8880  -31.7420 C   0  0  0  0  0  0  0  0  0  0  0  0
   -6.1900   17.9660  -31.1520 O   0  0  0  0  0  0  0  0  0  0  0  0
   -6.1150   20.1140  -32.0210 N   0  0  0  0  0  0  0  0  0  0  0  0
   -4.9280   20.2790  -32.5330 C   0  0  0  0  0  0  0  0  0  0  0  0
   -4.3960   21.5060  -32.7140 N   0  0  0  0  0  0  0  0  0  0  0  0
   -3.1990   21.4810  -33.3020 N   0  0  0  0  0  0  0  0  0  0  0  0
   -2.7770   20.2330  -33.5970 C   0  0  0  0  0  0  0  0  0  0  0  0
   -1.2320   19.8780  -34.4310 S   0  0  0  0  0  0  0  0  0  0  0  0
   -0.3160   19.4780  -32.9020 C   0  0  0  0  0  0  0  0  0  0  0  0
   -0.4050   20.5940  -31.9060 C   0  0  0  0  0  0  0  0  0  0  0  0
   -0.3620   21.7870  -32.3090 O   0  0  0  0  0  0  0  0  0  0  0  0
   -0.6400   20.2960  -30.5230 N   0  0  0  0  0  0  0  0  0  0  0  0
   -1.6580   20.8650  -29.6880 C   0  0  0  0  0  0  0  0  0  0  0  0
   -1.7620   20.4260  -28.3630 C   0  0  0  0  0  0  0  0  0  0  0  0
   -2.7400   20.9570  -27.5170 C   0  0  0  0  0  0  0  0  0  0  0  0
   -3.6180   21.9350  -27.9880 C   0  0  0  0  0  0  0  0  0  0  0  0
   -3.5100   22.4030  -29.3040 C   0  0  0  0  0  0  0  0  0  0  0  0
   -4.6230   23.6340  -29.9070 S   0  0  0  0  0  0  0  0  0  0  0  0
   -5.1200   24.4630  -28.7550 O   0  0  0  0  0  0  0  0  0  0  0  0
   -3.8840   24.5420  -30.8520 O   0  0  0  0  0  0  0  0  0  0  0  0
   -5.9850   22.9130  -30.7330 N   0  0  0  0  0  0  0  0  0  0  0  0
   -7.1160   22.7370  -29.8020 C   0  0  0  0  0  0  0  0  0  0  0  0
   -8.2550   21.9230  -30.4540 C   0  0  0  0  0  0  0  0  0  0  0  0
   -8.2790   22.0570  -31.9860 C   0  0  0  0  0  0  0  0  0  0  0  0
   -7.7900   23.4370  -32.4290 C   0  0  0  0  0  0  0  0  0  0  0  0
   -6.3630   23.7350  -31.9090 C   0  0  0  0  0  0  0  0  0  0  0  0
   -2.5180   21.8800  -30.1470 C   0  0  0  0  0  0  0  0  0  0  0  0
   -3.9010   19.0740  -33.1300 S   0  0  0  0  0  0  0  0  0  0  0  0
   -8.8651   18.5253  -31.2821 H   0  0  0  0  0  0  0  0  0  0  0  0
   -8.5832   19.4871  -32.7728 H   0  0  0  0  0  0  0  0  0  0  0  0
   -8.2706   17.7182  -32.7728 H   0  0  0  0  0  0  0  0  0  0  0  0
   -0.7416   18.5663  -32.4575 H   0  0  0  0  0  0  0  0  0  0  0  0
    0.7424   19.3274  -33.1608 H   0  0  0  0  0  0  0  0  0  0  0  0
   -1.0702   19.6587  -27.9852 H   0  0  0  0  0  0  0  0  0  0  0  0
   -2.8180   20.6036  -26.4782 H   0  0  0  0  0  0  0  0  0  0  0  0
   -4.3965   22.3391  -27.3241 H   0  0  0  0  0  0  0  0  0  0  0  0
   -5.6690   21.9710  -31.0620 H   0  0  0  0  0  0  0  0  0  0  0  0
   -6.7634   22.2061  -28.9055 H   0  0  0  0  0  0  0  0  0  0  0  0
   -7.5061   23.7306  -29.5363 H   0  0  0  0  0  0  0  0  0  0  0  0
   -8.1218   20.8621  -30.1956 H   0  0  0  0  0  0  0  0  0  0  0  0
   -9.2073   22.3186  -30.0710 H   0  0  0  0  0  0  0  0  0  0  0  0
   -7.6260   21.2876  -32.4236 H   0  0  0  0  0  0  0  0  0  0  0  0
   -9.3157   21.9280  -32.3304 H   0  0  0  0  0  0  0  0  0  0  0  0
   -7.7840   23.4767  -33.5283 H   0  0  0  0  0  0  0  0  0  0  0  0
   -8.4714   24.1921  -32.0100 H   0  0  0  0  0  0  0  0  0  0  0  0
   -5.6469   23.5353  -32.7197 H   0  0  0  0  0  0  0  0  0  0  0  0
   -6.3446   24.7879  -31.5909 H   0  0  0  0  0  0  0  0  0  0  0  0
   -2.4119   22.2652  -31.1719 H   0  0  0  0  0  0  0  0  0  0  0  0
  1  2  1  0
  2  3  2  0
  2  4  1  0
  4  5  2  3
  5  6  1  0
  6  7  1  0
  7  8  2  0
  8  9  1  0
  9 10  1  0
 10 11  1  0
 11 12  2  0
 11 13  1  0
 13 14  1  0
 14 15  2  0
 15 16  1  0
 16 17  2  0
 17 18  1  0
 18 19  1  0
 19 20  2  0
 19 21  2  0
 19 22  1  0
 22 23  1  0
 23 24  1  0
 24 25  1  0
 25 26  1  0
 26 27  1  0
 18 28  2  0
  8 29  1  0
 29  5  1  0
 28 14  1  0
 27 22  1  0
  1 30  1  0
  1 31  1  0
  1 32  1  0
 10 33  1  0
 10 34  1  0
 15 35  1  0
 16 36  1  0
 17 37  1  0
 22 38  1  0
 23 39  1  0
 23 40  1  0
 24 41  1  0
 24 42  1  0
 25 43  1  0
 25 44  1  0
 26 45  1  0
 26 46  1  0
 27 47  1  0
 27 48  1  0
 28 49  1  0
M  CHG  3   6  -1  13  -1  22   1
M  END
>  <UniqueID>  (21) 
21

>  <SMILES>  (21) 
CC(=O)N=c1[n-]nc(SCC(=O)[N-]c2cccc(S(=O)(=O)[NH+]3CCCCC3)c2)s1

>  <Energy>  (21) 
89.73067140919507

>  <Genealogy>  (21) 
CC(=O)N=c1[n-]nc(SCC(=O)[N-]c2cccc(S(=O)(=O)[NH+]3CCCCC3)c2)s1 (protonated)
CC(=O)N=c1[n-]nc(SCC(=O)[N-]c2cccc(S(=O)(=O)[NH+]3CCCCC3)c2)s1 (3D coordinates assigned)
CC(=O)N=c1[n-]nc(SCC(=O)[N-]c2cccc(S(=O)(=O)[NH+]3CCCCC3)c2)s1 (nonaromatic ring conformer: 89.73067140919507 kcal/mol)

>  <smiles>  (21) 
CC(=O)N=c1[nH]nc(SCC(=O)Nc2cccc(S(=O)(=O)N3CCCCC3)c2)s1

>  <score_type>  (21) 
oracle

>  <origin>  (21) 
adgpu

>  <m_score__min__energy>  (21) 
-11.08

>  <m_primary>  (21) 
energy

$$$$
21:0
     RDKit          3D

 56 59  0  0  0  0  0  0  0  0999 V2000
   -4.2760   26.0650  -30.4620 O   0  0  0  0  0  0  0  0  0  0  0  0
   -4.4360   24.8160  -30.4800 C   0  0  0  0  0  0  0  0  0  0  0  0
   -5.2750   24.2460  -31.4950 N   0  0  0  0  0  0  0  0  0  0  0  0
   -5.2800   22.8770  -31.9260 C   0  0  0  0  0  0  0  0  0  0  0  0
   -6.4820   22.1640  -31.8950 C   0  0  0  0  0  0  0  0  0  0  0  0
   -6.5240   20.8340  -32.3150 C   0  0  0  0  0  0  0  0  0  0  0  0
   -5.3590   20.1910  -32.7590 C   0  0  0  0  0  0  0  0  0  0  0  0
   -5.4410   18.8340  -33.2180 N   0  0  0  0  0  0  0  0  0  0  0  0
   -5.7710   18.5810  -34.6280 C   0  0  0  0  0  0  0  0  0  0  0  0
   -5.7040   17.0870  -34.9620 C   0  0  0  0  0  0  0  0  0  0  0  0
   -6.4000   16.2680  -33.8720 C   0  0  0  0  0  0  0  0  0  0  0  0
   -5.7890   16.4950  -32.4720 C   0  0  0  0  0  0  0  0  0  0  0  0
   -4.9150   17.7580  -32.3710 C   0  0  0  0  0  0  0  0  0  0  0  0
   -4.1330   20.8900  -32.7590 C   0  0  0  0  0  0  0  0  0  0  0  0
   -2.6300   20.1330  -33.3070 S   0  0  0  0  0  0  0  0  0  0  0  0
   -1.7780   21.1880  -33.9550 O   0  0  0  0  0  0  0  0  0  0  0  0
   -2.9380   19.0560  -34.3090 O   0  0  0  0  0  0  0  0  0  0  0  0
   -1.7830   19.4400  -31.9370 N   0  0  0  0  0  0  0  0  0  0  0  0
   -0.3990   19.0510  -32.2870 C   0  0  0  0  0  0  0  0  0  0  0  0
    0.6430   20.0910  -31.8350 C   0  0  0  0  0  0  0  0  0  0  0  0
    0.0980   21.3890  -31.8970 O   0  0  0  0  0  0  0  0  0  0  0  0
   -0.9030   21.5500  -30.9060 C   0  0  0  0  0  0  0  0  0  0  0  0
   -1.8340   20.3230  -30.7590 C   0  0  0  0  0  0  0  0  0  0  0  0
   -4.1040   22.2260  -32.3330 C   0  0  0  0  0  0  0  0  0  0  0  0
   -3.7100   23.9740  -29.4980 C   0  0  0  0  0  0  0  0  0  0  0  0
   -4.2550   22.7430  -29.0890 C   0  0  0  0  0  0  0  0  0  0  0  0
   -3.5890   21.9510  -28.1490 C   0  0  0  0  0  0  0  0  0  0  0  0
   -2.3700   22.3740  -27.6150 C   0  0  0  0  0  0  0  0  0  0  0  0
   -1.8130   23.5890  -28.0210 C   0  0  0  0  0  0  0  0  0  0  0  0
   -2.4750   24.3900  -28.9580 C   0  0  0  0  0  0  0  0  0  0  0  0
   -1.9080   25.6040  -29.3300 O   0  0  0  0  0  0  0  0  0  0  0  0
   -7.3997   22.6540  -31.5376 H   0  0  0  0  0  0  0  0  0  0  0  0
   -7.4775   20.2858  -32.2978 H   0  0  0  0  0  0  0  0  0  0  0  0
   -6.7891   18.9465  -34.8278 H   0  0  0  0  0  0  0  0  0  0  0  0
   -5.0356   19.1075  -35.2540 H   0  0  0  0  0  0  0  0  0  0  0  0
   -6.2035   16.9077  -35.9255 H   0  0  0  0  0  0  0  0  0  0  0  0
   -4.6493   16.7804  -35.0219 H   0  0  0  0  0  0  0  0  0  0  0  0
   -7.4621   16.5527  -33.8425 H   0  0  0  0  0  0  0  0  0  0  0  0
   -6.2698   15.2048  -34.1221 H   0  0  0  0  0  0  0  0  0  0  0  0
   -6.6104   16.5831  -31.7456 H   0  0  0  0  0  0  0  0  0  0  0  0
   -5.1339   15.6357  -32.2661 H   0  0  0  0  0  0  0  0  0  0  0  0
   -4.8973   18.0999  -31.3256 H   0  0  0  0  0  0  0  0  0  0  0  0
   -3.9000   17.5085  -32.7137 H   0  0  0  0  0  0  0  0  0  0  0  0
   -0.1703   18.0902  -31.8026 H   0  0  0  0  0  0  0  0  0  0  0  0
   -0.3415   18.9778  -33.3831 H   0  0  0  0  0  0  0  0  0  0  0  0
    0.9467   19.8741  -30.8002 H   0  0  0  0  0  0  0  0  0  0  0  0
    1.5151   20.0371  -32.5032 H   0  0  0  0  0  0  0  0  0  0  0  0
   -0.4094   21.7295  -29.9395 H   0  0  0  0  0  0  0  0  0  0  0  0
   -1.5325   22.3962  -31.2186 H   0  0  0  0  0  0  0  0  0  0  0  0
   -1.5259   19.7490  -29.8727 H   0  0  0  0  0  0  0  0  0  0  0  0
   -2.8653   20.6924  -30.6589 H   0  0  0  0  0  0  0  0  0  0  0  0
   -3.1484   22.7706  -32.3175 H   0  0  0  0  0  0  0  0  0  0  0  0
   -5.2114   22.4015  -29.5117 H   0  0  0  0  0  0  0  0  0  0  0  0
   -4.0258   20.9933  -27.8296 H   0  0  0  0  0  0  0  0  0  0  0  0
   -1.8482   21.7502  -26.8744 H   0  0  0  0  0  0  0  0  0  0  0  0
   -0.8502   23.9173  -27.6024 H   0  0  0  0  0  0  0  0  0  0  0  0
  1  2  2  0
  2  3  1  0
  3  4  1  0
  4  5  2  0
  5  6  1  0
  6  7  2  0
  7  8  1  0
  8  9  1  0
  9 10  1  0
 10 11  1  0
 11 12  1  0
 12 13  1  0
  7 14  1  0
 14 15  1  0
 15 16  2  0
 15 17  2  0
 15 18  1  0
 18 19  1  0
 19 20  1  0
 20 21  1  0
 21 22  1  0
 22 23  1  0
 14 24  2  0
  2 25  1  0
 25 26  2  0
 26 27  1  0
 27 28  2  0
 28 29  1  0
 29 30  2  0
 30 31  1  0
 24  4  1  0
 30 25  1  0
 13  8  1  0
 23 18  1  0
  5 32  1  0
  6 33  1  0
  9 34  1  0
  9 35  1  0
 10 36  1  0
 10 37  1  0
 11 38  1  0
 11 39  1  0
 12 40  1  0
 12 41  1  0
 13 42  1  0
 13 43  1  0
 19 44  1  0
 19 45  1  0
 20 46  1  0
 20 47  1  0
 22 48  1  0
 22 49  1  0
 23 50  1  0
 23 51  1  0
 24 52  1  0
 26 53  1  0
 27 54  1  0
 28 55  1  0
 29 56  1  0
M  CHG  2   3  -1  31  -1
M  END
>  <UniqueID>  (22) 
22

>  <SMILES>  (22) 
O=C([N-]c1ccc(N2CCCCC2)c(S(=O)(=O)N2CCOCC2)c1)c1ccccc1[O-]

>  <Energy>  (22) 
81.89260604891368

>  <Genealogy>  (22) 
O=C([N-]c1ccc(N2CCCCC2)c(S(=O)(=O)N2CCOCC2)c1)c1ccccc1[O-] (protonated)
O=C([N-]c1ccc(N2CCCCC2)c(S(=O)(=O)N2CCOCC2)c1)c1ccccc1[O-] (3D coordinates assigned)
O=C([N-]c1ccc(N2CCCCC2)c(S(=O)(=O)N2CCOCC2)c1)c1ccccc1[O-] (nonaromatic ring conformer: 81.89260604891368 kcal/mol)

>  <smiles>  (22) 
O=C(Nc1ccc(N2CCCCC2)c(S(=O)(=O)N2CCOCC2)c1)c1ccccc1O

>  <score_type>  (22) 
oracle

>  <origin>  (22) 
adgpu

>  <m_score__min__energy>  (22) 
-13.34

>  <m_primary>  (22) 
energy

$$$$
22:0
     RDKit          3D

 50 52  0  0  0  0  0  0  0  0999 V2000
   -8.7670   18.2150  -31.5550 C   0  0  0  0  0  0  0  0  0  0  0  0
   -8.1330   18.2700  -32.8280 O   0  0  0  0  0  0  0  0  0  0  0  0
   -6.8440   18.7770  -33.0480 C   0  0  0  0  0  0  0  0  0  0  0  0
   -5.9770   18.2410  -34.0230 C   0  0  0  0  0  0  0  0  0  0  0  0
   -4.7100   18.7990  -34.2190 C   0  0  0  0  0  0  0  0  0  0  0  0
   -4.2940   19.9040  -33.4600 C   0  0  0  0  0  0  0  0  0  0  0  0
   -3.0020   20.4770  -33.7020 N   0  0  0  0  0  0  0  0  0  0  0  0
   -1.6800   20.3370  -32.5830 S   0  0  0  0  0  0  0  0  0  0  0  0
   -0.3870   20.4930  -33.3320 O   0  0  0  0  0  0  0  0  0  0  0  0
   -1.6710   18.9940  -31.9090 O   0  0  0  0  0  0  0  0  0  0  0  0
   -1.8360   21.6090  -31.3580 C   0  0  0  0  0  0  0  0  0  0  0  0
   -2.7210   22.6690  -31.5930 C   0  0  0  0  0  0  0  0  0  0  0  0
   -2.9150   23.6680  -30.6260 C   0  0  0  0  0  0  0  0  0  0  0  0
   -3.8700   24.7240  -30.8080 N   0  0  0  0  0  0  0  0  0  0  0  0
   -5.3370   24.8870  -29.8990 S   0  0  0  0  0  0  0  0  0  0  0  0
   -5.8230   26.3070  -29.9940 O   0  0  0  0  0  0  0  0  0  0  0  0
   -5.0680   24.5550  -28.4590 O   0  0  0  0  0  0  0  0  0  0  0  0
   -6.5460   23.7640  -30.5210 C   0  0  0  0  0  0  0  0  0  0  0  0
   -6.9470   23.8550  -31.8620 C   0  0  0  0  0  0  0  0  0  0  0  0
   -7.9490   23.0110  -32.3560 C   0  0  0  0  0  0  0  0  0  0  0  0
   -8.5560   22.0670  -31.5130 C   0  0  0  0  0  0  0  0  0  0  0  0
   -9.6520   21.1900  -32.0420 C   0  0  0  0  0  0  0  0  0  0  0  0
   -8.1600   21.9860  -30.1680 C   0  0  0  0  0  0  0  0  0  0  0  0
   -7.1550   22.8240  -29.6760 C   0  0  0  0  0  0  0  0  0  0  0  0
   -2.1660   23.6110  -29.4430 C   0  0  0  0  0  0  0  0  0  0  0  0
   -2.2910   24.5050  -28.5660 O   0  0  0  0  0  0  0  0  0  0  0  0
   -1.3140   22.5750  -29.2250 N   0  0  0  0  0  0  0  0  0  0  0  0
   -1.1420   21.5670  -30.1250 C   0  0  0  0  0  0  0  0  0  0  0  0
   -0.1940   20.4570  -29.7710 C   0  0  0  0  0  0  0  0  0  0  0  0
   -5.1410   20.4100  -32.4620 C   0  0  0  0  0  0  0  0  0  0  0  0
   -6.4100   19.8550  -32.2670 C   0  0  0  0  0  0  0  0  0  0  0  0
   -8.0062   18.2810  -30.7633 H   0  0  0  0  0  0  0  0  0  0  0  0
   -9.4700   19.0555  -31.4589 H   0  0  0  0  0  0  0  0  0  0  0  0
   -9.3148   17.2660  -31.4589 H   0  0  0  0  0  0  0  0  0  0  0  0
   -6.2983   17.3821  -34.6305 H   0  0  0  0  0  0  0  0  0  0  0  0
   -4.0346   18.3690  -34.9733 H   0  0  0  0  0  0  0  0  0  0  0  0
   -2.9110   21.2120  -34.4360 H   0  0  0  0  0  0  0  0  0  0  0  0
   -3.2696   22.7192  -32.5451 H   0  0  0  0  0  0  0  0  0  0  0  0
   -6.4729   24.5915  -32.5274 H   0  0  0  0  0  0  0  0  0  0  0  0
   -8.2615   23.0879  -33.4079 H   0  0  0  0  0  0  0  0  0  0  0  0
  -10.2055   20.7471  -31.2008 H   0  0  0  0  0  0  0  0  0  0  0  0
  -10.3383   21.7912  -32.6565 H   0  0  0  0  0  0  0  0  0  0  0  0
   -9.2160   20.3886  -32.6565 H   0  0  0  0  0  0  0  0  0  0  0  0
   -8.6431   21.2594  -29.4982 H   0  0  0  0  0  0  0  0  0  0  0  0
   -6.8411   22.7463  -28.6246 H   0  0  0  0  0  0  0  0  0  0  0  0
   -0.1213   20.3719  -28.6767 H   0  0  0  0  0  0  0  0  0  0  0  0
   -0.5662   19.5098  -30.1885 H   0  0  0  0  0  0  0  0  0  0  0  0
    0.7998   20.6764  -30.1885 H   0  0  0  0  0  0  0  0  0  0  0  0
   -4.8057   21.2461  -31.8308 H   0  0  0  0  0  0  0  0  0  0  0  0
   -7.0730   20.2692  -31.4931 H   0  0  0  0  0  0  0  0  0  0  0  0
  1  2  1  0
  2  3  1  0
  3  4  2  0
  4  5  1  0
  5  6  2  0
  6  7  1  0
  7  8  1  0
  8  9  2  0
  8 10  2  0
  8 11  1  0
 11 12  1  0
 12 13  2  0
 13 14  1  0
 14 15  1  0
 15 16  2  0
 15 17  2  0
 15 18  1  0
 18 19  2  0
 19 20  1  0
 20 21  2  0
 21 22  1  0
 21 23  1  0
 23 24  2  0
 13 25  1  0
 25 26  2  0
 25 27  1  0
 27 28  1  0
 28 29  1  0
  6 30  1  0
 30 31  2  0
 31  3  1  0
 28 11  2  0
 24 18  1  0
  1 32  1  0
  1 33  1  0
  1 34  1  0
  4 35  1  0
  5 36  1  0
  7 37  1  0
 12 38  1  0
 19 39  1  0
 20 40  1  0
 22 41  1  0
 22 42  1  0
 22 43  1  0
 23 44  1  0
 24 45  1  0
 29 46  1  0
 29 47  1  0
 29 48  1  0
 30 49  1  0
 31 50  1  0
M  CHG  2  14  -1  27  -1
M  END
>  <UniqueID>  (23) 
23

>  <SMILES>  (23) 
COc1ccc(NS(=O)(=O)c2cc([N-]S(=O)(=O)c3ccc(C)cc3)c(=O)[n-]c2C)cc1

>  <Energy>  (23) 
60.73193585299499

>  <Genealogy>  (23) 
COc1ccc(NS(=O)(=O)c2cc([N-]S(=O)(=O)c3ccc(C)cc3)c(=O)[n-]c2C)cc1 (protonated)
COc1ccc(NS(=O)(=O)c2cc([N-]S(=O)(=O)c3ccc(C)cc3)c(=O)[n-]c2C)cc1 (3D coordinates assigned)
COc1ccc(NS(=O)(=O)c2cc([N-]S(=O)(=O)c3ccc(C)cc3)c(=O)[n-]c2C)cc1 (optimized conformer: 60.73193585299499 kcal/mol)

>  <smiles>  (23) 
COc1ccc(NS(=O)(=O)c2cc(NS(=O)(=O)c3ccc(C)cc3)c(=O)[nH]c2C)cc1

>  <score_type>  (23) 
oracle

>  <origin>  (23) 
adgpu

>  <m_score__min__energy>  (23) 
-11.380000000000001

>  <m_primary>  (23) 
energy

$$$$
23:0
     RDKit          3D

 62 66  0  0  0  0  0  0  0  0999 V2000
   -0.7930   27.0650  -27.5660 C   0  0  0  0  0  0  0  0  0  0  0  0
   -1.1370   26.1230  -28.5760 O   0  0  0  0  0  0  0  0  0  0  0  0
   -0.9870   24.7320  -28.4550 C   0  0  0  0  0  0  0  0  0  0  0  0
    0.2400   24.1500  -28.0780 C   0  0  0  0  0  0  0  0  0  0  0  0
    0.3440   22.7690  -27.8980 C   0  0  0  0  0  0  0  0  0  0  0  0
   -0.7740   21.9490  -28.0870 C   0  0  0  0  0  0  0  0  0  0  0  0
   -0.6720   20.2130  -27.8130 S   0  0  0  0  0  0  0  0  0  0  0  0
    0.7500   19.8230  -27.5180 O   0  0  0  0  0  0  0  0  0  0  0  0
   -1.1210   19.4870  -29.0520 O   0  0  0  0  0  0  0  0  0  0  0  0
   -1.6950   19.8010  -26.4020 C   0  0  0  0  0  0  0  0  0  0  0  0
   -3.1510   19.5220  -26.7350 C   0  0  0  0  0  0  0  0  0  0  0  0
   -2.2180   18.3740  -26.3790 C   0  0  0  0  0  0  0  0  0  0  0  0
   -1.9930   22.5190  -28.4660 C   0  0  0  0  0  0  0  0  0  0  0  0
   -2.1000   23.8960  -28.6830 C   0  0  0  0  0  0  0  0  0  0  0  0
   -3.3770   24.4170  -29.0680 N   0  0  0  0  0  0  0  0  0  0  0  0
   -3.8640   24.5550  -30.4080 C   0  0  0  0  0  0  0  0  0  0  0  0
   -3.8650   25.6770  -30.9790 O   0  0  0  0  0  0  0  0  0  0  0  0
   -4.2820   23.3990  -31.1390 N   0  0  0  0  0  0  0  0  0  0  0  0
   -3.9130   22.0350  -30.7650 C   0  0  0  0  0  0  0  0  0  0  0  0
   -2.8480   21.4910  -31.6900 C   0  0  0  0  0  0  0  0  0  0  0  0
   -1.5190   21.9340  -31.5500 C   0  0  0  0  0  0  0  0  0  0  0  0
   -0.5290   21.4930  -32.4310 C   0  0  0  0  0  0  0  0  0  0  0  0
   -0.8480   20.6010  -33.4550 C   0  0  0  0  0  0  0  0  0  0  0  0
   -2.1590   20.1450  -33.6010 C   0  0  0  0  0  0  0  0  0  0  0  0
   -3.1650   20.5800  -32.7240 C   0  0  0  0  0  0  0  0  0  0  0  0
   -4.5120   20.1180  -32.9080 N   0  0  0  0  0  0  0  0  0  0  0  0
   -4.7490   18.8020  -33.4960 C   0  0  0  0  0  0  0  0  0  0  0  0
   -5.8980   18.1130  -32.7630 C   0  0  0  0  0  0  0  0  0  0  0  0
   -7.0800   19.0290  -32.5710 C   0  0  0  0  0  0  0  0  0  0  0  0
   -8.3370   18.4700  -32.2860 C   0  0  0  0  0  0  0  0  0  0  0  0
   -9.4400   19.2930  -32.0460 C   0  0  0  0  0  0  0  0  0  0  0  0
   -9.2960   20.6820  -32.0750 C   0  0  0  0  0  0  0  0  0  0  0  0
   -8.0490   21.2510  -32.3400 C   0  0  0  0  0  0  0  0  0  0  0  0
   -6.9300   20.4360  -32.5750 C   0  0  0  0  0  0  0  0  0  0  0  0
   -5.6080   21.0910  -32.8960 C   0  0  0  0  0  0  0  0  0  0  0  0
   -0.9568   26.6164  -26.5751 H   0  0  0  0  0  0  0  0  0  0  0  0
    0.2655   27.3452  -27.6712 H   0  0  0  0  0  0  0  0  0  0  0  0
   -1.4218   27.9614  -27.6712 H   0  0  0  0  0  0  0  0  0  0  0  0
    1.1225   24.7884  -27.9244 H   0  0  0  0  0  0  0  0  0  0  0  0
    1.3073   22.3247  -27.6069 H   0  0  0  0  0  0  0  0  0  0  0  0
   -1.1664   20.4462  -25.6848 H   0  0  0  0  0  0  0  0  0  0  0  0
   -3.9432   19.8245  -26.0344 H   0  0  0  0  0  0  0  0  0  0  0  0
   -3.8130   19.7521  -27.5828 H   0  0  0  0  0  0  0  0  0  0  0  0
   -2.3354   17.8465  -25.4209 H   0  0  0  0  0  0  0  0  0  0  0  0
   -1.9257   17.4302  -26.8626 H   0  0  0  0  0  0  0  0  0  0  0  0
   -2.8772   21.8774  -28.5948 H   0  0  0  0  0  0  0  0  0  0  0  0
   -3.5286   22.0357  -29.7343 H   0  0  0  0  0  0  0  0  0  0  0  0
   -4.8051   21.3961  -30.8421 H   0  0  0  0  0  0  0  0  0  0  0  0
   -1.2585   22.6324  -30.7410 H   0  0  0  0  0  0  0  0  0  0  0  0
    0.5052   21.8501  -32.3171 H   0  0  0  0  0  0  0  0  0  0  0  0
   -0.0659   20.2568  -34.1477 H   0  0  0  0  0  0  0  0  0  0  0  0
   -2.4055   19.4401  -34.4087 H   0  0  0  0  0  0  0  0  0  0  0  0
   -5.0093   18.9172  -34.5585 H   0  0  0  0  0  0  0  0  0  0  0  0
   -3.8386   18.1914  -33.4041 H   0  0  0  0  0  0  0  0  0  0  0  0
   -6.2185   17.2387  -33.3486 H   0  0  0  0  0  0  0  0  0  0  0  0
   -5.5349   17.8163  -31.7680 H   0  0  0  0  0  0  0  0  0  0  0  0
   -8.4535   17.3767  -32.2516 H   0  0  0  0  0  0  0  0  0  0  0  0
  -10.4228   18.8467  -31.8340 H   0  0  0  0  0  0  0  0  0  0  0  0
  -10.1663   21.3284  -31.8888 H   0  0  0  0  0  0  0  0  0  0  0  0
   -7.9423   22.3455  -32.3649 H   0  0  0  0  0  0  0  0  0  0  0  0
   -5.6756   21.5646  -33.8865 H   0  0  0  0  0  0  0  0  0  0  0  0
   -5.3962   21.8379  -32.1167 H   0  0  0  0  0  0  0  0  0  0  0  0
  1  2  1  0
  2  3  1  0
  3  4  2  0
  4  5  1  0
  5  6  2  0
  6  7  1  0
  7  8  2  0
  7  9  2  0
  7 10  1  0
 10 11  1  0
 11 12  1  0
  6 13  1  0
 13 14  2  0
 14 15  1  0
 15 16  1  0
 16 17  2  0
 16 18  1  0
 18 19  1  0
 19 20  1  0
 20 21  2  0
 21 22  1  0
 22 23  2  0
 23 24  1  0
 24 25  2  0
 25 26  1  0
 26 27  1  0
 27 28  1  0
 28 29  1  0
 29 30  2  0
 30 31  1  0
 31 32  2  0
 32 33  1  0
 33 34  2  0
 34 35  1  0
 14  3  1  0
 25 20  1  0
 35 26  1  0
 12 10  1  0
 34 29  1  0
  1 36  1  0
  1 37  1  0
  1 38  1  0
  4 39  1  0
  5 40  1  0
 10 41  1  0
 11 42  1  0
 11 43  1  0
 12 44  1  0
 12 45  1  0
 13 46  1  0
 19 47  1  0
 19 48  1  0
 21 49  1  0
 22 50  1  0
 23 51  1  0
 24 52  1  0
 27 53  1  0
 27 54  1  0
 28 55  1  0
 28 56  1  0
 30 57  1  0
 31 58  1  0
 32 59  1  0
 33 60  1  0
 35 61  1  0
 35 62  1  0
M  CHG  2  15  -1  18  -1
M  END
>  <UniqueID>  (24) 
24

>  <SMILES>  (24) 
COc1ccc(S(=O)(=O)C2CC2)cc1[N-]C(=O)[N-]Cc1ccccc1N1CCc2ccccc2C1

>  <Energy>  (24) 
336.0534565613428

>  <Genealogy>  (24) 
COc1ccc(S(=O)(=O)C2CC2)cc1[N-]C(=O)[N-]Cc1ccccc1N1CCc2ccccc2C1 (protonated)
COc1ccc(S(=O)(=O)C2CC2)cc1[N-]C(=O)[N-]Cc1ccccc1N1CCc2ccccc2C1 (3D coordinates assigned)
COc1ccc(S(=O)(=O)C2CC2)cc1[N-]C(=O)[N-]Cc1ccccc1N1CCc2ccccc2C1 (nonaromatic ring conformer: 336.0534565613428 kcal/mol)

>  <smiles>  (24) 
COc1ccc(S(=O)(=O)C2CC2)cc1NC(=O)NCc1ccccc1N1CCc2ccccc2C1

>  <score_type>  (24) 
oracle

>  <origin>  (24) 
adgpu

>  <m_score__min__energy>  (24) 
-13.35

>  <m_primary>  (24) 
energy

$$$$
24:0
     RDKit          3D

 58 60  0  0  0  0  0  0  0  0999 V2000
   -3.7420   22.2380  -32.4860 C   0  0  0  0  0  0  0  0  0  0  0  0
   -3.0790   21.2430  -33.3490 N   0  0  0  0  0  0  0  0  0  0  0  0
   -1.6380   21.5290  -33.5090 C   0  0  0  0  0  0  0  0  0  0  0  0
   -0.8240   21.2360  -32.2250 C   0  0  0  0  0  0  0  0  0  0  0  0
   -1.5590   20.3650  -31.2820 N   0  0  0  0  0  0  0  0  0  0  0  0
   -0.6780   19.8600  -30.2030 C   0  0  0  0  0  0  0  0  0  0  0  0
   -0.3370   20.9890  -29.2210 C   0  0  0  0  0  0  0  0  0  0  0  0
   -1.5940   21.5560  -28.5550 C   0  0  0  0  0  0  0  0  0  0  0  0
   -2.2090   22.5620  -29.4240 N   0  0  0  0  0  0  0  0  0  0  0  0
   -3.5800   23.2660  -28.6190 S   0  0  0  0  0  0  0  0  0  0  0  0
   -4.0860   22.3450  -27.5430 O   0  0  0  0  0  0  0  0  0  0  0  0
   -3.1800   24.5700  -27.9830 O   0  0  0  0  0  0  0  0  0  0  0  0
   -4.8570   23.5520  -29.8030 C   0  0  0  0  0  0  0  0  0  0  0  0
   -5.9080   22.6310  -29.9310 C   0  0  0  0  0  0  0  0  0  0  0  0
   -6.9390   22.8490  -30.8510 C   0  0  0  0  0  0  0  0  0  0  0  0
   -8.2620   21.6930  -30.9680 S   0  0  0  0  0  0  0  0  0  0  0  0
   -9.1890   21.9190  -29.8060 O   0  0  0  0  0  0  0  0  0  0  0  0
   -9.0200   21.9050  -32.2500 O   0  0  0  0  0  0  0  0  0  0  0  0
   -7.6290   20.0620  -30.9130 N   0  0  0  0  0  0  0  0  0  0  0  0
   -6.5380   19.8990  -31.8780 C   0  0  0  0  0  0  0  0  0  0  0  0
   -7.1280   19.3690  -33.1740 C   0  0  0  0  0  0  0  0  0  0  0  0
   -8.4820   18.7990  -32.7970 C   0  0  0  0  0  0  0  0  0  0  0  0
   -8.6580   19.0960  -31.3150 C   0  0  0  0  0  0  0  0  0  0  0  0
   -6.9240   24.0040  -31.6470 C   0  0  0  0  0  0  0  0  0  0  0  0
   -5.8890   24.9320  -31.5180 C   0  0  0  0  0  0  0  0  0  0  0  0
   -4.8590   24.7160  -30.5940 C   0  0  0  0  0  0  0  0  0  0  0  0
   -3.8520   25.6660  -30.4630 O   0  0  0  0  0  0  0  0  0  0  0  0
   -2.2220   19.2760  -32.0100 C   0  0  0  0  0  0  0  0  0  0  0  0
   -3.3370   19.8510  -32.9060 C   0  0  0  0  0  0  0  0  0  0  0  0
   -3.5703   21.9803  -31.4305 H   0  0  0  0  0  0  0  0  0  0  0  0
   -3.3277   23.2360  -32.6919 H   0  0  0  0  0  0  0  0  0  0  0  0
   -4.8226   22.2399  -32.6919 H   0  0  0  0  0  0  0  0  0  0  0  0
   -1.2441   20.9056  -34.3252 H   0  0  0  0  0  0  0  0  0  0  0  0
   -1.5349   22.6016  -33.7299 H   0  0  0  0  0  0  0  0  0  0  0  0
    0.1155   20.7385  -32.5074 H   0  0  0  0  0  0  0  0  0  0  0  0
   -0.6344   22.1947  -31.7202 H   0  0  0  0  0  0  0  0  0  0  0  0
   -1.1930   19.0522  -29.6624 H   0  0  0  0  0  0  0  0  0  0  0  0
    0.2531   19.4810  -30.6495 H   0  0  0  0  0  0  0  0  0  0  0  0
    0.3325   20.5947  -28.4424 H   0  0  0  0  0  0  0  0  0  0  0  0
    0.1493   21.7993  -29.7840 H   0  0  0  0  0  0  0  0  0  0  0  0
   -2.3110   20.7412  -28.3763 H   0  0  0  0  0  0  0  0  0  0  0  0
   -1.3170   22.0244  -27.5990 H   0  0  0  0  0  0  0  0  0  0  0  0
   -2.5720   22.0770  -30.2770 H   0  0  0  0  0  0  0  0  0  0  0  0
   -5.9213   21.7288  -29.3018 H   0  0  0  0  0  0  0  0  0  0  0  0
   -6.0524   20.8693  -32.0589 H   0  0  0  0  0  0  0  0  0  0  0  0
   -5.7859   19.1978  -31.4874 H   0  0  0  0  0  0  0  0  0  0  0  0
   -7.2431   20.1825  -33.9054 H   0  0  0  0  0  0  0  0  0  0  0  0
   -6.4801   18.6110  -33.6384 H   0  0  0  0  0  0  0  0  0  0  0  0
   -9.2779   19.2831  -33.3820 H   0  0  0  0  0  0  0  0  0  0  0  0
   -8.5391   17.7201  -33.0036 H   0  0  0  0  0  0  0  0  0  0  0  0
   -9.6569   19.5209  -31.1369 H   0  0  0  0  0  0  0  0  0  0  0  0
   -8.5586   18.1706  -30.7287 H   0  0  0  0  0  0  0  0  0  0  0  0
   -7.7300   24.1790  -32.3749 H   0  0  0  0  0  0  0  0  0  0  0  0
   -5.8825   25.8362  -32.1444 H   0  0  0  0  0  0  0  0  0  0  0  0
   -1.4841   18.7525  -32.6356 H   0  0  0  0  0  0  0  0  0  0  0  0
   -2.6621   18.5716  -31.2888 H   0  0  0  0  0  0  0  0  0  0  0  0
   -3.4313   19.2134  -33.7974 H   0  0  0  0  0  0  0  0  0  0  0  0
   -4.2590   19.8672  -32.3063 H   0  0  0  0  0  0  0  0  0  0  0  0
  1  2  1  0
  2  3  1  0
  3  4  1  0
  4  5  1  0
  5  6  1  0
  6  7  1  0
  7  8  1  0
  8  9  1  0
  9 10  1  0
 10 11  2  0
 10 12  2  0
 10 13  1  0
 13 14  2  0
 14 15  1  0
 15 16  1  0
 16 17  2  0
 16 18  2  0
 16 19  1  0
 19 20  1  0
 20 21  1  0
 21 22  1  0
 22 23  1  0
 15 24  2  0
 24 25  1  0
 25 26  2  0
 26 27  1  0
  5 28  1  0
 28 29  1  0
 29  2  1  0
 26 13  1  0
 23 19  1  0
  1 30  1  0
  1 31  1  0
  1 32  1  0
  3 33  1  0
  3 34  1  0
  4 35  1  0
  4 36  1  0
  6 37  1  0
  6 38  1  0
  7 39  1  0
  7 40  1  0
  8 41  1  0
  8 42  1  0
  9 43  1  0
 14 44  1  0
 20 45  1  0
 20 46  1  0
 21 47  1  0
 21 48  1  0
 22 49  1  0
 22 50  1  0
 23 51  1  0
 23 52  1  0
 24 53  1  0
 25 54  1  0
 28 55  1  0
 28 56  1  0
 29 57  1  0
 29 58  1  0
M  CHG  1  27  -1
M  END
>  <UniqueID>  (25) 
25

>  <SMILES>  (25) 
CN1CCN(CCCNS(=O)(=O)c2cc(S(=O)(=O)N3CCCC3)ccc2[O-])CC1

>  <Energy>  (25) 
65.18538457616656

>  <Genealogy>  (25) 
CN1CCN(CCCNS(=O)(=O)c2cc(S(=O)(=O)N3CCCC3)ccc2[O-])CC1 (protonated)
CN1CCN(CCCNS(=O)(=O)c2cc(S(=O)(=O)N3CCCC3)ccc2[O-])CC1 (3D coordinates assigned)
CN1CCN(CCCNS(=O)(=O)c2cc(S(=O)(=O)N3CCCC3)ccc2[O-])CC1 (nonaromatic ring conformer: 65.18538457616656 kcal/mol)

>  <smiles>  (25) 
CN1CCN(CCCNS(=O)(=O)c2cc(S(=O)(=O)N3CCCC3)ccc2O)CC1

>  <score_type>  (25) 
oracle

>  <origin>  (25) 
adgpu

>  <m_score__min__energy>  (25) 
-12.5

>  <m_primary>  (25) 
energy

$$$$
25:0
     RDKit          3D

 43 44  0  0  1  0  0  0  0  0999 V2000
   -6.1910   17.4250  -31.5520 C   0  0  0  0  0  0  0  0  0  0  0  0
   -7.1180   17.8580  -32.6610 C   0  0  0  0  0  0  0  0  0  0  0  0
   -6.4260   18.9720  -33.4260 C   0  0  0  0  0  0  0  0  0  0  0  0
   -6.5360   20.2140  -32.5590 C   0  0  0  0  0  0  0  0  0  0  0  0
   -7.8850   20.6760  -32.6650 N   0  0  0  0  0  0  0  0  0  0  0  0
   -8.1780   21.8610  -31.4440 S   0  0  0  0  0  0  0  0  0  0  0  0
   -9.3580   22.7090  -31.8890 O   0  0  0  0  0  0  0  0  0  0  0  0
   -8.5580   21.2190  -30.1370 O   0  0  0  0  0  0  0  0  0  0  0  0
   -6.7710   22.8720  -31.2050 C   0  0  0  0  0  0  0  0  0  0  0  0
   -6.8780   24.2140  -31.4910 C   0  0  0  0  0  0  0  0  0  0  0  0
   -5.7470   24.9760  -31.2910 C   0  0  0  0  0  0  0  0  0  0  0  0
   -4.5760   24.4400  -30.8300 C   0  0  0  0  0  0  0  0  0  0  0  0
   -3.4890   25.3080  -30.6640 O   0  0  0  0  0  0  0  0  0  0  0  0
   -4.4440   23.0710  -30.5300 C   0  0  0  0  0  0  0  0  0  0  0  0
   -3.1300   22.6470  -30.1580 C   0  0  0  0  0  0  0  0  0  0  0  0
   -2.3960   23.0630  -29.1650 C   0  0  0  0  0  0  0  0  0  0  0  0
   -2.7340   24.0790  -28.2070 C   0  0  0  0  0  0  0  0  0  0  0  0
   -2.2250   25.3680  -28.4670 O   0  0  0  0  0  0  0  0  0  0  0  0
   -3.4350   23.9990  -27.1530 N   0  0  0  0  0  0  0  0  0  0  0  0
   -3.6940   25.0620  -26.2950 O   0  0  0  0  0  0  0  0  0  0  0  0
   -5.5600   22.3220  -30.7330 C   0  0  0  0  0  0  0  0  0  0  0  0
   -8.8710   19.6530  -32.6730 C   0  0  0  0  0  0  0  0  0  0  0  0
   -8.4150   18.3460  -32.0840 C   0  0  0  0  0  0  0  0  0  0  0  0
   -6.6564   17.6424  -30.5793 H   0  0  0  0  0  0  0  0  0  0  0  0
   -6.0005   16.3447  -31.6341 H   0  0  0  0  0  0  0  0  0  0  0  0
   -5.2403   17.9722  -31.6341 H   0  0  0  0  0  0  0  0  0  0  0  0
   -7.3428   17.0161  -33.3323 H   0  0  0  0  0  0  0  0  0  0  0  0
   -5.3693   18.7183  -33.5962 H   0  0  0  0  0  0  0  0  0  0  0  0
   -6.8891   19.1290  -34.4113 H   0  0  0  0  0  0  0  0  0  0  0  0
   -6.3017   19.9672  -31.5130 H   0  0  0  0  0  0  0  0  0  0  0  0
   -5.8275   20.9883  -32.8884 H   0  0  0  0  0  0  0  0  0  0  0  0
   -7.8160   24.6549  -31.8595 H   0  0  0  0  0  0  0  0  0  0  0  0
   -5.7875   26.0532  -31.5098 H   0  0  0  0  0  0  0  0  0  0  0  0
   -3.2390   25.6140  -29.7180 H   0  0  0  0  0  0  0  0  0  0  0  0
   -2.6806   21.8688  -30.7923 H   0  0  0  0  0  0  0  0  0  0  0  0
   -1.4122   22.5851  -29.0476 H   0  0  0  0  0  0  0  0  0  0  0  0
   -2.4470   26.1070  -27.7940 H   0  0  0  0  0  0  0  0  0  0  0  0
   -3.8050   25.9690  -26.7450 H   0  0  0  0  0  0  0  0  0  0  0  0
   -5.5175   21.2435  -30.5208 H   0  0  0  0  0  0  0  0  0  0  0  0
   -9.7382   20.0065  -32.0960 H   0  0  0  0  0  0  0  0  0  0  0  0
   -9.1099   19.4554  -33.7284 H   0  0  0  0  0  0  0  0  0  0  0  0
   -8.2879   18.4768  -30.9992 H   0  0  0  0  0  0  0  0  0  0  0  0
   -9.1822   17.5946  -32.3224 H   0  0  0  0  0  0  0  0  0  0  0  0
  1  2  1  0
  2  3  1  0
  3  4  1  0
  4  5  1  0
  5  6  1  0
  6  7  2  0
  6  8  2  0
  6  9  1  0
  9 10  2  0
 10 11  1  0
 11 12  2  0
 12 13  1  0
 12 14  1  0
 14 15  1  0
 15 16  2  0
 16 17  1  0
 17 18  1  0
 17 19  2  0
 19 20  1  0
 14 21  2  0
  5 22  1  0
 22 23  1  0
 23  2  1  0
 21  9  1  0
  1 24  1  0
  1 25  1  0
  1 26  1  0
  2 27  1  0
  3 28  1  0
  3 29  1  0
  4 30  1  0
  4 31  1  0
 10 32  1  0
 11 33  1  0
 13 34  1  0
 15 35  1  0
 16 36  1  0
 18 37  1  0
 20 38  1  0
 21 39  1  0
 22 40  1  0
 22 41  1  0
 23 42  1  0
 23 43  1  0
M  END
>  <smiles>  (26) 
CC1CCN(S(=O)(=O)c2ccc(O)c(C=CC(O)=NO)c2)CC1

>  <score_type>  (26) 
oracle

>  <origin>  (26) 
adgpu

>  <m_score__min__energy>  (26) 
-10.32

>  <m_primary>  (26) 
energy

$$$$
26:0
     RDKit          3D

 73 78  0  0  0  0  0  0  0  0999 V2000
   -8.6490   19.2740  -31.1800 C   0  0  0  0  0  0  0  0  0  0  0  0
   -8.8800   19.9550  -32.4650 N   0  0  0  0  0  0  0  0  0  0  0  0
   -9.6060   21.2310  -32.3110 C   0  0  0  0  0  0  0  0  0  0  0  0
   -8.7970   22.2840  -31.5350 C   0  0  0  0  0  0  0  0  0  0  0  0
   -7.3430   22.3040  -31.9260 C   0  0  0  0  0  0  0  0  0  0  0  0
   -6.5260   23.3340  -31.4420 C   0  0  0  0  0  0  0  0  0  0  0  0
   -5.1420   23.3180  -31.6700 C   0  0  0  0  0  0  0  0  0  0  0  0
   -4.3030   24.3290  -31.1030 N   0  0  0  0  0  0  0  0  0  0  0  0
   -3.6190   24.1880  -29.5160 S   0  0  0  0  0  0  0  0  0  0  0  0
   -4.7060   24.3930  -28.4990 O   0  0  0  0  0  0  0  0  0  0  0  0
   -2.5840   25.2600  -29.3220 O   0  0  0  0  0  0  0  0  0  0  0  0
   -2.8980   22.5990  -29.2690 C   0  0  0  0  0  0  0  0  0  0  0  0
   -3.1400   21.8940  -28.0830 C   0  0  0  0  0  0  0  0  0  0  0  0
   -2.4940   20.6810  -27.8470 C   0  0  0  0  0  0  0  0  0  0  0  0
   -1.6060   20.1570  -28.7960 C   0  0  0  0  0  0  0  0  0  0  0  0
   -1.4010   20.8250  -30.0180 C   0  0  0  0  0  0  0  0  0  0  0  0
   -0.5250   20.2560  -31.0670 C   0  0  0  0  0  0  0  0  0  0  0  0
    0.6100   19.8060  -30.7530 O   0  0  0  0  0  0  0  0  0  0  0  0
   -0.9140   20.2470  -32.4460 N   0  0  0  0  0  0  0  0  0  0  0  0
   -1.5700   19.1640  -33.1250 C   0  0  0  0  0  0  0  0  0  0  0  0
   -0.9020   18.3890  -34.0900 C   0  0  0  0  0  0  0  0  0  0  0  0
   -1.5790   17.3680  -34.7620 C   0  0  0  0  0  0  0  0  0  0  0  0
   -2.9270   17.1220  -34.4880 C   0  0  0  0  0  0  0  0  0  0  0  0
   -3.6070   17.8910  -33.5320 C   0  0  0  0  0  0  0  0  0  0  0  0
   -5.3220   17.6080  -33.2140 S   0  0  0  0  0  0  0  0  0  0  0  0
   -6.1210   18.1160  -34.3820 O   0  0  0  0  0  0  0  0  0  0  0  0
   -5.7390   18.3880  -31.9970 O   0  0  0  0  0  0  0  0  0  0  0  0
   -5.6890   15.9170  -32.9470 N   0  0  0  0  0  0  0  0  0  0  0  0
   -4.5840   15.2170  -32.2800 C   0  0  0  0  0  0  0  0  0  0  0  0
   -4.4020   13.8840  -32.9830 C   0  0  0  0  0  0  0  0  0  0  0  0
   -4.9120   14.1360  -34.3800 C   0  0  0  0  0  0  0  0  0  0  0  0
   -5.9740   15.2030  -34.2000 C   0  0  0  0  0  0  0  0  0  0  0  0
   -2.9230   18.9180  -32.8620 C   0  0  0  0  0  0  0  0  0  0  0  0
   -2.0370   22.0600  -30.2350 C   0  0  0  0  0  0  0  0  0  0  0  0
   -0.9490   18.9560  -28.5050 O   0  0  0  0  0  0  0  0  0  0  0  0
   -0.9180   18.4360  -27.1730 C   0  0  0  0  0  0  0  0  0  0  0  0
   -2.2800   18.6280  -26.4990 C   0  0  0  0  0  0  0  0  0  0  0  0
   -2.7190   19.9790  -26.6580 O   0  0  0  0  0  0  0  0  0  0  0  0
   -4.5830   22.3040  -32.4670 C   0  0  0  0  0  0  0  0  0  0  0  0
   -3.2190   22.2840  -32.7570 O   0  0  0  0  0  0  0  0  0  0  0  0
   -5.3990   21.2870  -32.9690 C   0  0  0  0  0  0  0  0  0  0  0  0
   -6.7690   21.2550  -32.6690 C   0  0  0  0  0  0  0  0  0  0  0  0
   -7.6270   20.1420  -33.2240 C   0  0  0  0  0  0  0  0  0  0  0  0
   -8.8822   19.9615  -30.3536 H   0  0  0  0  0  0  0  0  0  0  0  0
   -9.2967   18.3874  -31.1133 H   0  0  0  0  0  0  0  0  0  0  0  0
   -7.5956   18.9644  -31.1133 H   0  0  0  0  0  0  0  0  0  0  0  0
   -9.8342   21.6290  -33.3108 H   0  0  0  0  0  0  0  0  0  0  0  0
  -10.5213   21.0254  -31.7365 H   0  0  0  0  0  0  0  0  0  0  0  0
   -9.2285   23.2761  -31.7339 H   0  0  0  0  0  0  0  0  0  0  0  0
   -8.8504   22.0236  -30.4676 H   0  0  0  0  0  0  0  0  0  0  0  0
   -6.9747   24.1643  -30.8770 H   0  0  0  0  0  0  0  0  0  0  0  0
   -3.8404   22.2977  -27.3370 H   0  0  0  0  0  0  0  0  0  0  0  0
    0.1561   18.5871  -34.3163 H   0  0  0  0  0  0  0  0  0  0  0  0
   -1.0499   16.7568  -35.5080 H   0  0  0  0  0  0  0  0  0  0  0  0
   -3.4574   16.3215  -35.0245 H   0  0  0  0  0  0  0  0  0  0  0  0
   -3.6616   15.8115  -32.3562 H   0  0  0  0  0  0  0  0  0  0  0  0
   -4.8066   15.0667  -31.2133 H   0  0  0  0  0  0  0  0  0  0  0  0
   -3.3414   13.5927  -33.0005 H   0  0  0  0  0  0  0  0  0  0  0  0
   -4.9342   13.0635  -32.4795 H   0  0  0  0  0  0  0  0  0  0  0  0
   -4.1027   14.4968  -35.0318 H   0  0  0  0  0  0  0  0  0  0  0  0
   -5.3051   13.2257  -34.8562 H   0  0  0  0  0  0  0  0  0  0  0  0
   -5.9448   15.9058  -35.0457 H   0  0  0  0  0  0  0  0  0  0  0  0
   -6.9738   14.7460  -34.1618 H   0  0  0  0  0  0  0  0  0  0  0  0
   -3.4553   19.5353  -32.1233 H   0  0  0  0  0  0  0  0  0  0  0  0
   -1.8573   22.6083  -31.1715 H   0  0  0  0  0  0  0  0  0  0  0  0
   -0.6774   17.3632  -27.2072 H   0  0  0  0  0  0  0  0  0  0  0  0
   -0.1522   18.9741  -26.5951 H   0  0  0  0  0  0  0  0  0  0  0  0
   -3.0133   17.9502  -26.9603 H   0  0  0  0  0  0  0  0  0  0  0  0
   -2.1865   18.4030  -25.4263 H   0  0  0  0  0  0  0  0  0  0  0  0
   -2.6530   21.4480  -32.6600 H   0  0  0  0  0  0  0  0  0  0  0  0
   -4.9627   20.5034  -33.6060 H   0  0  0  0  0  0  0  0  0  0  0  0
   -7.8801   20.3800  -34.2677 H   0  0  0  0  0  0  0  0  0  0  0  0
   -7.0501   19.2085  -33.1477 H   0  0  0  0  0  0  0  0  0  0  0  0
  1  2  1  0
  2  3  1  0
  3  4  1  0
  4  5  1  0
  5  6  2  0
  6  7  1  0
  7  8  1  0
  8  9  1  0
  9 10  2  0
  9 11  2  0
  9 12  1  0
 12 13  2  0
 13 14  1  0
 14 15  2  0
 15 16  1  0
 16 17  1  0
 17 18  2  0
 17 19  1  0
 19 20  1  0
 20 21  2  0
 21 22  1  0
 22 23  2  0
 23 24  1  0
 24 25  1  0
 25 26  2  0
 25 27  2  0
 25 28  1  0
 28 29  1  0
 29 30  1  0
 30 31  1  0
 31 32  1  0
 24 33  2  0
 16 34  2  0
 15 35  1  0
 35 36  1  0
 36 37  1  0
 37 38  1  0
  7 39  2  0
 39 40  1  0
 39 41  1  0
 41 42  2  0
 42 43  1  0
 43  2  1  0
 42  5  1  0
 34 12  1  0
 38 14  1  0
 33 20  1  0
 32 28  1  0
  1 44  1  0
  1 45  1  0
  1 46  1  0
  3 47  1  0
  3 48  1  0
  4 49  1  0
  4 50  1  0
  6 51  1  0
 13 52  1  0
 21 53  1  0
 22 54  1  0
 23 55  1  0
 29 56  1  0
 29 57  1  0
 30 58  1  0
 30 59  1  0
 31 60  1  0
 31 61  1  0
 32 62  1  0
 32 63  1  0
 33 64  1  0
 34 65  1  0
 36 66  1  0
 36 67  1  0
 37 68  1  0
 37 69  1  0
 40 70  1  0
 41 71  1  0
 43 72  1  0
 43 73  1  0
M  CHG  2   8  -1  19  -1
M  END
>  <UniqueID>  (27) 
26

>  <SMILES>  (27) 
CN1CCc2cc([N-]S(=O)(=O)c3cc4c(c(C(=O)[N-]c5cccc(S(=O)(=O)N6CCCC6)c5)c3)OCCO4)c(O)cc2C1

>  <Energy>  (27) 
100.36763032545285

>  <Genealogy>  (27) 
CN1CCc2cc([N-]S(=O)(=O)c3cc4c(c(C(=O)[N-]c5cccc(S(=O)(=O)N6CCCC6)c5)c3)OCCO4)c(O)cc2C1 (protonated)
CN1CCc2cc([N-]S(=O)(=O)c3cc4c(c(C(=O)[N-]c5cccc(S(=O)(=O)N6CCCC6)c5)c3)OCCO4)c(O)cc2C1 (3D coordinates assigned)
CN1CCc2cc([N-]S(=O)(=O)c3cc4c(c(C(=O)[N-]c5cccc(S(=O)(=O)N6CCCC6)c5)c3)OCCO4)c(O)cc2C1 (nonaromatic ring conformer: 100.36763032545285 kcal/mol)

>  <smiles>  (27) 
CN1CCc2cc(NS(=O)(=O)c3cc4c(c(C(=O)Nc5cccc(S(=O)(=O)N6CCCC6)c5)c3)OCCO4)c(O)cc2C1

>  <score_type>  (27) 
oracle

>  <origin>  (27) 
adgpu

>  <m_score__min__energy>  (27) 
-12.65

>  <m_primary>  (27) 
energy

$$$$
27:0
     RDKit          3D

 53 56  0  0  0  0  0  0  0  0999 V2000
   -5.4420   18.8800  -33.9840 C   0  0  0  0  0  0  0  0  0  0  0  0
   -6.4410   18.6310  -32.9010 C   0  0  0  0  0  0  0  0  0  0  0  0
   -6.7360   17.4430  -32.6050 O   0  0  0  0  0  0  0  0  0  0  0  0
   -7.1080   19.7160  -32.2330 N   0  0  0  0  0  0  0  0  0  0  0  0
   -6.5410   20.9640  -31.8530 C   0  0  0  0  0  0  0  0  0  0  0  0
   -5.2170   21.3890  -32.0170 C   0  0  0  0  0  0  0  0  0  0  0  0
   -4.8350   22.6260  -31.4760 C   0  0  0  0  0  0  0  0  0  0  0  0
   -5.7680   23.4140  -30.7710 C   0  0  0  0  0  0  0  0  0  0  0  0
   -5.2600   24.8980  -29.9700 S   0  0  0  0  0  0  0  0  0  0  0  0
   -6.4370   25.8120  -29.7850 O   0  0  0  0  0  0  0  0  0  0  0  0
   -4.2260   25.6000  -30.8040 O   0  0  0  0  0  0  0  0  0  0  0  0
   -4.5780   24.5000  -28.4320 N   0  0  0  0  0  0  0  0  0  0  0  0
   -3.4290   23.6570  -28.3630 C   0  0  0  0  0  0  0  0  0  0  0  0
   -3.5600   22.3400  -27.9120 C   0  0  0  0  0  0  0  0  0  0  0  0
   -2.4610   21.4690  -27.9290 C   0  0  0  0  0  0  0  0  0  0  0  0
   -1.2080   21.9360  -28.3780 C   0  0  0  0  0  0  0  0  0  0  0  0
   -1.0840   23.2580  -28.8350 C   0  0  0  0  0  0  0  0  0  0  0  0
   -2.1880   24.1200  -28.8230 C   0  0  0  0  0  0  0  0  0  0  0  0
   -2.0660   25.4280  -29.2890 O   0  0  0  0  0  0  0  0  0  0  0  0
   -0.0330   20.9960  -28.4900 C   0  0  0  0  0  0  0  0  0  0  0  0
   -0.1810   19.8300  -27.5950 N   0  0  0  0  0  0  0  0  0  0  0  0
    0.9270   18.8850  -27.8150 C   0  0  0  0  0  0  0  0  0  0  0  0
   -1.4710   19.1610  -27.8380 C   0  0  0  0  0  0  0  0  0  0  0  0
   -2.6140   20.0720  -27.3860 C   0  0  0  0  0  0  0  0  0  0  0  0
   -7.0860   22.9530  -30.6040 C   0  0  0  0  0  0  0  0  0  0  0  0
   -7.4390   21.7190  -31.1480 C   0  0  0  0  0  0  0  0  0  0  0  0
   -8.7270   20.9930  -30.9790 C   0  0  0  0  0  0  0  0  0  0  0  0
   -8.4600   19.6260  -31.6690 C   0  0  1  0  0  0  0  0  0  0  0  0
   -9.4880   19.3370  -32.7670 C   0  0  0  0  0  0  0  0  0  0  0  0
   -4.4675   19.1229  -33.5352 H   0  0  0  0  0  0  0  0  0  0  0  0
   -5.3443   17.9787  -34.6070 H   0  0  0  0  0  0  0  0  0  0  0  0
   -5.7787   19.7217  -34.6070 H   0  0  0  0  0  0  0  0  0  0  0  0
   -4.4908   20.7656  -32.5592 H   0  0  0  0  0  0  0  0  0  0  0  0
   -3.8022   22.9830  -31.6025 H   0  0  0  0  0  0  0  0  0  0  0  0
   -4.5326   21.9844  -27.5410 H   0  0  0  0  0  0  0  0  0  0  0  0
   -0.1131   23.6192  -29.2050 H   0  0  0  0  0  0  0  0  0  0  0  0
   -2.8660   26.0480  -29.3450 H   0  0  0  0  0  0  0  0  0  0  0  0
    0.0425   20.6413  -29.5285 H   0  0  0  0  0  0  0  0  0  0  0  0
    0.8743   21.5432  -28.1943 H   0  0  0  0  0  0  0  0  0  0  0  0
    1.3207   18.5492  -26.8443 H   0  0  0  0  0  0  0  0  0  0  0  0
    0.5611   18.0166  -28.3825 H   0  0  0  0  0  0  0  0  0  0  0  0
    1.7267   19.3834  -28.3825 H   0  0  0  0  0  0  0  0  0  0  0  0
   -1.5760   18.9471  -28.9119 H   0  0  0  0  0  0  0  0  0  0  0  0
   -1.5073   18.2197  -27.2701 H   0  0  0  0  0  0  0  0  0  0  0  0
   -3.5663   19.6530  -27.7431 H   0  0  0  0  0  0  0  0  0  0  0  0
   -2.5948   20.1270  -26.2875 H   0  0  0  0  0  0  0  0  0  0  0  0
   -7.8247   23.5549  -30.0544 H   0  0  0  0  0  0  0  0  0  0  0  0
   -8.9658   20.8568  -29.9139 H   0  0  0  0  0  0  0  0  0  0  0  0
   -9.5845   21.5318  -31.4085 H   0  0  0  0  0  0  0  0  0  0  0  0
   -8.5459   18.8002  -30.9474 H   0  0  0  0  0  0  0  0  0  0  0  0
  -10.4498   19.0666  -32.3068 H   0  0  0  0  0  0  0  0  0  0  0  0
   -9.6193   20.2330  -33.3914 H   0  0  0  0  0  0  0  0  0  0  0  0
   -9.1332   18.5038  -33.3914 H   0  0  0  0  0  0  0  0  0  0  0  0
  1  2  1  0
  2  3  2  0
  2  4  1  0
  4  5  1  0
  5  6  2  0
  6  7  1  0
  7  8  2  0
  8  9  1  0
  9 10  2  0
  9 11  2  0
  9 12  1  0
 12 13  1  0
 13 14  2  0
 14 15  1  0
 15 16  2  0
 16 17  1  0
 17 18  2  0
 18 19  1  0
 16 20  1  0
 20 21  1  0
 21 22  1  0
 21 23  1  0
 23 24  1  0
  8 25  1  0
 25 26  2  0
 26 27  1  0
 27 28  1  0
 28 29  1  0
 28  4  1  0
 26  5  1  0
 18 13  1  0
 24 15  1  0
  1 30  1  0
  1 31  1  0
  1 32  1  0
  6 33  1  0
  7 34  1  0
 14 35  1  0
 17 36  1  0
 19 37  1  0
 20 38  1  0
 20 39  1  0
 22 40  1  0
 22 41  1  0
 22 42  1  0
 23 43  1  0
 23 44  1  0
 24 45  1  0
 24 46  1  0
 25 47  1  0
 27 48  1  0
 27 49  1  0
 28 50  1  1
 29 51  1  0
 29 52  1  0
 29 53  1  0
M  CHG  1  12  -1
M  END
>  <UniqueID>  (28) 
27

>  <SMILES>  (28) 
CC(=O)N1c2ccc(S(=O)(=O)[N-]c3cc4c(cc3O)CN(C)CC4)cc2C[C@H]1C

>  <Energy>  (28) 
81.08841199199716

>  <Genealogy>  (28) 
CC(=O)N1c2ccc(S(=O)(=O)[N-]c3cc4c(cc3O)CN(C)CC4)cc2CC1C (protonated)
CC(=O)N1c2ccc(S(=O)(=O)[N-]c3cc4c(cc3O)CN(C)CC4)cc2C[C@H]1C (chirality)
CC(=O)N1c2ccc(S(=O)(=O)[N-]c3cc4c(cc3O)CN(C)CC4)cc2C[C@H]1C (3D coordinates assigned)
CC(=O)N1c2ccc(S(=O)(=O)[N-]c3cc4c(cc3O)CN(C)CC4)cc2C[C@H]1C (nonaromatic ring conformer: 81.08841199199716 kcal/mol)

>  <smiles>  (28) 
CC(=O)N1c2ccc(S(=O)(=O)Nc3cc4c(cc3O)CN(C)CC4)cc2CC1C

>  <score_type>  (28) 
oracle

>  <origin>  (28) 
adgpu

>  <m_score__min__energy>  (28) 
-12.16

>  <m_primary>  (28) 
energy

$$$$
28:0
     RDKit          3D

 46 49  0  0  0  0  0  0  0  0999 V2000
   -6.7690   18.0550  -32.4410 O   0  0  0  0  0  0  0  0  0  0  0  0
   -7.4690   19.0970  -32.3510 C   0  0  0  0  0  0  0  0  0  0  0  0
   -8.8520   19.1200  -32.4700 O   0  0  0  0  0  0  0  0  0  0  0  0
   -9.3370   20.4590  -32.3180 C   0  0  0  0  0  0  0  0  0  0  0  0
   -8.0820   21.2510  -32.0850 C   0  0  0  0  0  0  0  0  0  0  0  0
   -7.9470   22.6190  -31.8590 C   0  0  0  0  0  0  0  0  0  0  0  0
   -6.6570   23.1490  -31.6480 C   0  0  0  0  0  0  0  0  0  0  0  0
   -6.4970   24.5230  -31.4520 O   0  0  0  0  0  0  0  0  0  0  0  0
   -5.5250   22.2880  -31.6590 C   0  0  0  0  0  0  0  0  0  0  0  0
   -4.2070   22.7840  -31.4050 N   0  0  0  0  0  0  0  0  0  0  0  0
   -3.8840   23.9720  -30.1860 S   0  0  0  0  0  0  0  0  0  0  0  0
   -4.9600   23.9490  -29.1380 O   0  0  0  0  0  0  0  0  0  0  0  0
   -3.8640   25.3310  -30.8200 O   0  0  0  0  0  0  0  0  0  0  0  0
   -2.2870   23.6470  -29.5120 C   0  0  0  0  0  0  0  0  0  0  0  0
   -1.8590   22.3150  -29.4510 C   0  0  0  0  0  0  0  0  0  0  0  0
   -0.6390   21.9810  -28.8490 C   0  0  0  0  0  0  0  0  0  0  0  0
   -0.1590   20.2920  -28.6960 S   0  0  0  0  0  0  0  0  0  0  0  0
   -0.8900   19.4680  -29.7190 O   0  0  0  0  0  0  0  0  0  0  0  0
    1.3150   20.1870  -28.9710 O   0  0  0  0  0  0  0  0  0  0  0  0
   -0.4910   19.6930  -27.0800 N   0  0  0  0  0  0  0  0  0  0  0  0
   -1.4560   20.5500  -26.3940 C   0  0  0  0  0  0  0  0  0  0  0  0
   -2.8420   20.0360  -26.7270 C   0  0  0  0  0  0  0  0  0  0  0  0
   -2.6430   18.5750  -27.0920 C   0  0  0  0  0  0  0  0  0  0  0  0
   -1.1340   18.3720  -27.1500 C   0  0  0  0  0  0  0  0  0  0  0  0
    0.1660   22.9930  -28.3170 C   0  0  0  0  0  0  0  0  0  0  0  0
   -0.2550   24.3230  -28.3720 C   0  0  0  0  0  0  0  0  0  0  0  0
   -1.4820   24.6560  -28.9580 C   0  0  0  0  0  0  0  0  0  0  0  0
   -1.8890   25.9850  -28.9690 O   0  0  0  0  0  0  0  0  0  0  0  0
   -5.6900   20.9110  -31.9130 C   0  0  0  0  0  0  0  0  0  0  0  0
   -6.9820   20.4310  -32.1110 C   0  0  0  0  0  0  0  0  0  0  0  0
   -9.8544   20.7974  -33.2279 H   0  0  0  0  0  0  0  0  0  0  0  0
  -10.0715   20.5635  -31.5058 H   0  0  0  0  0  0  0  0  0  0  0  0
   -8.8306   23.2741  -31.8453 H   0  0  0  0  0  0  0  0  0  0  0  0
   -5.7150   24.8950  -30.9330 H   0  0  0  0  0  0  0  0  0  0  0  0
   -2.4882   21.5217  -29.8808 H   0  0  0  0  0  0  0  0  0  0  0  0
   -1.2906   20.5063  -25.3074 H   0  0  0  0  0  0  0  0  0  0  0  0
   -1.3432   21.5953  -26.7175 H   0  0  0  0  0  0  0  0  0  0  0  0
   -3.5084   20.1297  -25.8568 H   0  0  0  0  0  0  0  0  0  0  0  0
   -3.3085   20.6059  -27.5441 H   0  0  0  0  0  0  0  0  0  0  0  0
   -3.0895   17.9232  -26.3266 H   0  0  0  0  0  0  0  0  0  0  0  0
   -3.1257   18.3237  -28.0480 H   0  0  0  0  0  0  0  0  0  0  0  0
   -0.8083   17.7536  -26.3006 H   0  0  0  0  0  0  0  0  0  0  0  0
   -0.8543   17.8616  -28.0834 H   0  0  0  0  0  0  0  0  0  0  0  0
    1.1318   22.7410  -27.8547 H   0  0  0  0  0  0  0  0  0  0  0  0
    0.3821   25.1151  -27.9518 H   0  0  0  0  0  0  0  0  0  0  0  0
   -4.8230   20.2353  -31.9536 H   0  0  0  0  0  0  0  0  0  0  0  0
  1  2  2  0
  2  3  1  0
  3  4  1  0
  4  5  1  0
  5  6  2  0
  6  7  1  0
  7  8  1  0
  7  9  2  0
  9 10  1  0
 10 11  1  0
 11 12  2  0
 11 13  2  0
 11 14  1  0
 14 15  2  0
 15 16  1  0
 16 17  1  0
 17 18  2  0
 17 19  2  0
 17 20  1  0
 20 21  1  0
 21 22  1  0
 22 23  1  0
 23 24  1  0
 16 25  2  0
 25 26  1  0
 26 27  2  0
 27 28  1  0
  9 29  1  0
 29 30  2  0
 30  2  1  0
 30  5  1  0
 27 14  1  0
 24 20  1  0
  4 31  1  0
  4 32  1  0
  6 33  1  0
  8 34  1  0
 15 35  1  0
 21 36  1  0
 21 37  1  0
 22 38  1  0
 22 39  1  0
 23 40  1  0
 23 41  1  0
 24 42  1  0
 24 43  1  0
 25 44  1  0
 26 45  1  0
 29 46  1  0
M  CHG  2  10  -1  28  -1
M  END
>  <UniqueID>  (29) 
28

>  <SMILES>  (29) 
O=C1OCc2cc(O)c([N-]S(=O)(=O)c3cc(S(=O)(=O)N4CCCC4)ccc3[O-])cc21

>  <Energy>  (29) 
80.71643066292755

>  <Genealogy>  (29) 
O=C1OCc2cc(O)c([N-]S(=O)(=O)c3cc(S(=O)(=O)N4CCCC4)ccc3[O-])cc21 (protonated)
O=C1OCc2cc(O)c([N-]S(=O)(=O)c3cc(S(=O)(=O)N4CCCC4)ccc3[O-])cc21 (3D coordinates assigned)
O=C1OCc2cc(O)c([N-]S(=O)(=O)c3cc(S(=O)(=O)N4CCCC4)ccc3[O-])cc21 (nonaromatic ring conformer: 80.71643066292755 kcal/mol)

>  <smiles>  (29) 
O=C1OCc2cc(O)c(NS(=O)(=O)c3cc(S(=O)(=O)N4CCCC4)ccc3O)cc21

>  <score_type>  (29) 
oracle

>  <origin>  (29) 
adgpu

>  <m_score__min__energy>  (29) 
-13.140000000000001

>  <m_primary>  (29) 
energy

$$$$
29:0
     RDKit          3D

 79 83  0  0  0  0  0  0  0  0999 V2000
    0.1440   19.5170  -33.3840 C   0  0  0  0  0  0  0  0  0  0  0  0
   -0.8890   19.6220  -32.4110 O   0  0  0  0  0  0  0  0  0  0  0  0
   -1.1320   20.7560  -31.6200 C   0  0  0  0  0  0  0  0  0  0  0  0
   -0.2480   21.1300  -30.5880 C   0  0  0  0  0  0  0  0  0  0  0  0
   -0.4940   22.2680  -29.8190 C   0  0  0  0  0  0  0  0  0  0  0  0
   -1.6200   23.0550  -30.0660 C   0  0  0  0  0  0  0  0  0  0  0  0
   -1.8130   24.2500  -29.3010 N   0  0  0  0  0  0  0  0  0  0  0  0
   -2.4910   24.3330  -28.0400 C   0  0  0  0  0  0  0  0  0  0  0  0
   -3.7290   24.5720  -28.0040 O   0  0  0  0  0  0  0  0  0  0  0  0
   -1.7300   24.2320  -26.7770 C   0  0  0  0  0  0  0  0  0  0  0  0
   -1.4050   25.4110  -26.0820 C   0  0  0  0  0  0  0  0  0  0  0  0
   -0.6160   25.3680  -24.9280 C   0  0  0  0  0  0  0  0  0  0  0  0
   -0.1410   26.8680  -24.1290 S   0  0  0  0  0  0  0  0  0  0  0  0
   -0.1860   28.0010  -25.1180 O   0  0  0  0  0  0  0  0  0  0  0  0
   -1.1160   27.1640  -23.0220 O   0  0  0  0  0  0  0  0  0  0  0  0
    1.4640   26.7070  -23.4600 N   0  0  0  0  0  0  0  0  0  0  0  0
    2.3800   26.1220  -24.4610 C   0  0  0  0  0  0  0  0  0  0  0  0
    3.8500   26.2310  -24.0100 C   0  0  0  0  0  0  0  0  0  0  0  0
    3.9440   26.6160  -22.6530 O   0  0  0  0  0  0  0  0  0  0  0  0
    3.4130   27.9200  -22.4920 C   0  0  0  0  0  0  0  0  0  0  0  0
    1.9570   28.0200  -23.0020 C   0  0  0  0  0  0  0  0  0  0  0  0
   -0.1520   24.1390  -24.4530 C   0  0  0  0  0  0  0  0  0  0  0  0
   -0.4920   22.9560  -25.1130 C   0  0  0  0  0  0  0  0  0  0  0  0
   -1.2800   22.9900  -26.2730 C   0  0  0  0  0  0  0  0  0  0  0  0
   -1.6460   21.7540  -26.8990 N   0  0  0  0  0  0  0  0  0  0  0  0
   -0.7110   20.6630  -27.1020 C   0  0  0  0  0  0  0  0  0  0  0  0
   -1.4260   19.6860  -28.0280 C   0  0  0  0  0  0  0  0  0  0  0  0
   -2.9000   20.0960  -28.0240 C   0  0  0  0  0  0  0  0  0  0  0  0
   -2.9390   21.5300  -27.5120 C   0  0  0  0  0  0  0  0  0  0  0  0
   -2.5420   22.6510  -31.0410 C   0  0  0  0  0  0  0  0  0  0  0  0
   -2.2900   21.5360  -31.8550 C   0  0  0  0  0  0  0  0  0  0  0  0
   -3.4530   21.1080  -33.1350 S   0  0  0  0  0  0  0  0  0  0  0  0
   -2.7650   20.2010  -34.1170 O   0  0  0  0  0  0  0  0  0  0  0  0
   -3.8830   22.3480  -33.8660 O   0  0  0  0  0  0  0  0  0  0  0  0
   -4.9180   20.3530  -32.5400 N   0  0  0  0  0  0  0  0  0  0  0  0
   -5.3830   19.2790  -33.4330 C   0  0  0  0  0  0  0  0  0  0  0  0
   -6.4710   18.4320  -32.7450 C   0  0  0  0  0  0  0  0  0  0  0  0
   -7.2420   19.2250  -31.6650 C   0  0  0  0  0  0  0  0  0  0  0  0
   -8.6230   18.6100  -31.4140 C   0  0  0  0  0  0  0  0  0  0  0  0
   -7.3620   20.7060  -32.0700 C   0  0  0  0  0  0  0  0  0  0  0  0
   -5.9690   21.3500  -32.2430 C   0  0  0  0  0  0  0  0  0  0  0  0
    1.1157   19.4182  -32.8780 H   0  0  0  0  0  0  0  0  0  0  0  0
   -0.0334   18.6323  -34.0131 H   0  0  0  0  0  0  0  0  0  0  0  0
    0.1483   20.4193  -34.0131 H   0  0  0  0  0  0  0  0  0  0  0  0
    0.6443   20.5190  -30.3869 H   0  0  0  0  0  0  0  0  0  0  0  0
    0.2026   22.5462  -29.0144 H   0  0  0  0  0  0  0  0  0  0  0  0
   -1.7760   26.3787  -26.4507 H   0  0  0  0  0  0  0  0  0  0  0  0
    1.3980   26.0570  -22.6420 H   0  0  0  0  0  0  0  0  0  0  0  0
    2.1264   25.0608  -24.6011 H   0  0  0  0  0  0  0  0  0  0  0  0
    2.2647   26.6786  -25.4027 H   0  0  0  0  0  0  0  0  0  0  0  0
    4.3380   25.2537  -24.1398 H   0  0  0  0  0  0  0  0  0  0  0  0
    4.3453   26.9980  -24.6235 H   0  0  0  0  0  0  0  0  0  0  0  0
    3.4339   28.1825  -21.4240 H   0  0  0  0  0  0  0  0  0  0  0  0
    4.0286   28.6128  -23.0844 H   0  0  0  0  0  0  0  0  0  0  0  0
    1.3141   28.3804  -22.1854 H   0  0  0  0  0  0  0  0  0  0  0  0
    1.9311   28.7188  -23.8511 H   0  0  0  0  0  0  0  0  0  0  0  0
    0.4835   24.1028  -23.5559 H   0  0  0  0  0  0  0  0  0  0  0  0
   -0.1394   21.9908  -24.7204 H   0  0  0  0  0  0  0  0  0  0  0  0
    0.2140   21.0306  -27.5702 H   0  0  0  0  0  0  0  0  0  0  0  0
   -0.4212   20.1898  -26.1522 H   0  0  0  0  0  0  0  0  0  0  0  0
   -1.0140   19.7539  -29.0456 H   0  0  0  0  0  0  0  0  0  0  0  0
   -1.2978   18.6468  -27.6908 H   0  0  0  0  0  0  0  0  0  0  0  0
   -3.3137   20.0428  -29.0419 H   0  0  0  0  0  0  0  0  0  0  0  0
   -3.5012   19.4270  -27.3907 H   0  0  0  0  0  0  0  0  0  0  0  0
   -3.0973   22.2317  -28.3442 H   0  0  0  0  0  0  0  0  0  0  0  0
   -3.7625   21.6883  -26.8001 H   0  0  0  0  0  0  0  0  0  0  0  0
   -3.4769   23.2161  -31.1701 H   0  0  0  0  0  0  0  0  0  0  0  0
   -5.7979   19.7251  -34.3489 H   0  0  0  0  0  0  0  0  0  0  0  0
   -4.5304   18.6286  -33.6780 H   0  0  0  0  0  0  0  0  0  0  0  0
   -7.1853   18.0879  -33.5075 H   0  0  0  0  0  0  0  0  0  0  0  0
   -5.9727   17.5867  -32.2478 H   0  0  0  0  0  0  0  0  0  0  0  0
   -6.6754   19.1691  -30.7238 H   0  0  0  0  0  0  0  0  0  0  0  0
   -8.7983   18.5320  -30.3309 H   0  0  0  0  0  0  0  0  0  0  0  0
   -9.3964   19.2488  -31.8655 H   0  0  0  0  0  0  0  0  0  0  0  0
   -8.6656   17.6078  -31.8655 H   0  0  0  0  0  0  0  0  0  0  0  0
   -7.9103   20.7750  -33.0211 H   0  0  0  0  0  0  0  0  0  0  0  0
   -7.8988   21.2433  -31.2743 H   0  0  0  0  0  0  0  0  0  0  0  0
   -6.0145   22.0722  -33.0714 H   0  0  0  0  0  0  0  0  0  0  0  0
   -5.7067   21.8400  -31.2937 H   0  0  0  0  0  0  0  0  0  0  0  0
  1  2  1  0
  2  3  1  0
  3  4  2  0
  4  5  1  0
  5  6  2  0
  6  7  1  0
  7  8  1  0
  8  9  2  0
  8 10  1  0
 10 11  2  0
 11 12  1  0
 12 13  1  0
 13 14  2  0
 13 15  2  0
 13 16  1  0
 16 17  1  0
 17 18  1  0
 18 19  1  0
 19 20  1  0
 20 21  1  0
 12 22  2  0
 22 23  1  0
 23 24  2  0
 24 25  1  0
 25 26  1  0
 26 27  1  0
 27 28  1  0
 28 29  1  0
  6 30  1  0
 30 31  2  0
 31 32  1  0
 32 33  2  0
 32 34  2  0
 32 35  1  0
 35 36  1  0
 36 37  1  0
 37 38  1  0
 38 39  1  0
 38 40  1  0
 40 41  1  0
 31  3  1  0
 41 35  1  0
 24 10  1  0
 29 25  1  0
 21 16  1  0
  1 42  1  0
  1 43  1  0
  1 44  1  0
  4 45  1  0
  5 46  1  0
 11 47  1  0
 16 48  1  0
 17 49  1  0
 17 50  1  0
 18 51  1  0
 18 52  1  0
 20 53  1  0
 20 54  1  0
 21 55  1  0
 21 56  1  0
 22 57  1  0
 23 58  1  0
 26 59  1  0
 26 60  1  0
 27 61  1  0
 27 62  1  0
 28 63  1  0
 28 64  1  0
 29 65  1  0
 29 66  1  0
 30 67  1  0
 36 68  1  0
 36 69  1  0
 37 70  1  0
 37 71  1  0
 38 72  1  0
 39 73  1  0
 39 74  1  0
 39 75  1  0
 40 76  1  0
 40 77  1  0
 41 78  1  0
 41 79  1  0
M  CHG  2   7  -1  16   1
M  END
>  <UniqueID>  (30) 
29

>  <SMILES>  (30) 
COc1ccc([N-]C(=O)c2cc(S(=O)(=O)[NH+]3CCOCC3)ccc2N2CCCC2)cc1S(=O)(=O)N1CCC(C)CC1

>  <Energy>  (30) 
104.49463377574867

>  <Genealogy>  (30) 
COc1ccc([N-]C(=O)c2cc(S(=O)(=O)[NH+]3CCOCC3)ccc2N2CCCC2)cc1S(=O)(=O)N1CCC(C)CC1 (protonated)
COc1ccc([N-]C(=O)c2cc(S(=O)(=O)[NH+]3CCOCC3)ccc2N2CCCC2)cc1S(=O)(=O)N1CCC(C)CC1 (3D coordinates assigned)
COc1ccc([N-]C(=O)c2cc(S(=O)(=O)[NH+]3CCOCC3)ccc2N2CCCC2)cc1S(=O)(=O)N1CCC(C)CC1 (nonaromatic ring conformer: 104.49463377574867 kcal/mol)

>  <smiles>  (30) 
COc1ccc(NC(=O)c2cc(S(=O)(=O)N3CCOCC3)ccc2N2CCCC2)cc1S(=O)(=O)N1CCC(C)CC1

>  <score_type>  (30) 
oracle

>  <origin>  (30) 
adgpu

>  <m_score__min__energy>  (30) 
-12.640000000000001

>  <m_primary>  (30) 
energy

$$$$
30:0
     RDKit          3D

 60 63  0  0  0  0  0  0  0  0999 V2000
   -5.1900   25.7600  -30.4540 C   0  0  0  0  0  0  0  0  0  0  0  0
   -3.8440   25.2950  -30.4000 O   0  0  0  0  0  0  0  0  0  0  0  0
   -3.3940   24.2440  -29.5860 C   0  0  0  0  0  0  0  0  0  0  0  0
   -3.3600   24.3590  -28.1820 C   0  0  0  0  0  0  0  0  0  0  0  0
   -2.8580   23.3190  -27.3980 C   0  0  0  0  0  0  0  0  0  0  0  0
   -2.3780   22.1490  -27.9990 C   0  0  0  0  0  0  0  0  0  0  0  0
   -1.7280   20.8380  -27.0070 S   0  0  0  0  0  0  0  0  0  0  0  0
   -2.8150   19.8290  -26.7610 O   0  0  0  0  0  0  0  0  0  0  0  0
   -1.3040   21.3960  -25.6770 O   0  0  0  0  0  0  0  0  0  0  0  0
   -0.3630   20.0370  -27.7480 N   0  0  0  0  0  0  0  0  0  0  0  0
   -0.7120   18.7070  -28.2450 C   0  0  0  0  0  0  0  0  0  0  0  0
    0.2570   18.4010  -29.3790 C   0  0  0  0  0  0  0  0  0  0  0  0
    0.8290   19.7470  -29.7990 C   0  0  0  0  0  0  0  0  0  0  0  0
    0.1420   20.7700  -28.9080 C   0  0  0  0  0  0  0  0  0  0  0  0
   -2.4020   22.0320  -29.3940 C   0  0  0  0  0  0  0  0  0  0  0  0
   -2.9350   23.0530  -30.1880 C   0  0  0  0  0  0  0  0  0  0  0  0
   -2.9340   22.8780  -31.6110 N   0  0  0  0  0  0  0  0  0  0  0  0
   -3.4560   21.7400  -32.3090 C   0  0  0  0  0  0  0  0  0  0  0  0
   -2.6730   21.0110  -32.9770 O   0  0  0  0  0  0  0  0  0  0  0  0
   -4.9130   21.4360  -32.2910 C   0  0  0  0  0  0  0  0  0  0  0  0
   -5.3340   20.0910  -32.2510 C   0  0  0  0  0  0  0  0  0  0  0  0
   -6.6950   19.7630  -32.2110 C   0  0  0  0  0  0  0  0  0  0  0  0
   -7.2020   18.0730  -32.1230 S   0  0  0  0  0  0  0  0  0  0  0  0
   -6.5850   17.4360  -30.9090 O   0  0  0  0  0  0  0  0  0  0  0  0
   -8.6950   18.0110  -31.9700 O   0  0  0  0  0  0  0  0  0  0  0  0
   -6.7200   17.1740  -33.5470 N   0  0  0  0  0  0  0  0  0  0  0  0
   -5.7330   16.1430  -33.2100 C   0  0  0  0  0  0  0  0  0  0  0  0
   -4.3610   16.6810  -33.5660 C   0  0  0  0  0  0  0  0  0  0  0  0
   -4.6160   17.6980  -34.6540 C   0  0  0  0  0  0  0  0  0  0  0  0
   -6.0970   18.0480  -34.5510 C   0  0  0  0  0  0  0  0  0  0  0  0
   -7.6520   20.7820  -32.2240 C   0  0  0  0  0  0  0  0  0  0  0  0
   -7.2550   22.1190  -32.2660 C   0  0  0  0  0  0  0  0  0  0  0  0
   -5.8950   22.4560  -32.2960 C   0  0  0  0  0  0  0  0  0  0  0  0
   -5.5310   23.8020  -32.3290 O   0  0  0  0  0  0  0  0  0  0  0  0
   -5.5735   25.8925  -29.4315 H   0  0  0  0  0  0  0  0  0  0  0  0
   -5.2245   26.7221  -30.9861 H   0  0  0  0  0  0  0  0  0  0  0  0
   -5.8110   25.0243  -30.9861 H   0  0  0  0  0  0  0  0  0  0  0  0
   -3.7319   25.2753  -27.7002 H   0  0  0  0  0  0  0  0  0  0  0  0
   -2.8394   23.4190  -26.3027 H   0  0  0  0  0  0  0  0  0  0  0  0
   -0.6058   17.9617  -27.4430 H   0  0  0  0  0  0  0  0  0  0  0  0
   -1.7549   18.6736  -28.5931 H   0  0  0  0  0  0  0  0  0  0  0  0
    1.0593   17.7344  -29.0298 H   0  0  0  0  0  0  0  0  0  0  0  0
   -0.2421   17.8906  -30.2158 H   0  0  0  0  0  0  0  0  0  0  0  0
    1.9176   19.7689  -29.6425 H   0  0  0  0  0  0  0  0  0  0  0  0
    0.6569   19.9510  -30.8661 H   0  0  0  0  0  0  0  0  0  0  0  0
    0.8605   21.5391  -28.5883 H   0  0  0  0  0  0  0  0  0  0  0  0
   -0.6732   21.2796  -29.4425 H   0  0  0  0  0  0  0  0  0  0  0  0
   -1.9972   21.1272  -29.8710 H   0  0  0  0  0  0  0  0  0  0  0  0
   -4.5826   19.2876  -32.2512 H   0  0  0  0  0  0  0  0  0  0  0  0
   -5.7792   15.9181  -32.1342 H   0  0  0  0  0  0  0  0  0  0  0  0
   -5.9391   15.2171  -33.7670 H   0  0  0  0  0  0  0  0  0  0  0  0
   -3.8928   17.1575  -32.6921 H   0  0  0  0  0  0  0  0  0  0  0  0
   -3.6751   15.8858  -33.8933 H   0  0  0  0  0  0  0  0  0  0  0  0
   -3.9979   18.5938  -34.4944 H   0  0  0  0  0  0  0  0  0  0  0  0
   -4.3598   17.3028  -35.6481 H   0  0  0  0  0  0  0  0  0  0  0  0
   -6.2084   19.0992  -34.2467 H   0  0  0  0  0  0  0  0  0  0  0  0
   -6.5844   17.9043  -35.5266 H   0  0  0  0  0  0  0  0  0  0  0  0
   -8.7222   20.5288  -32.2010 H   0  0  0  0  0  0  0  0  0  0  0  0
   -8.0150   22.9142  -32.2756 H   0  0  0  0  0  0  0  0  0  0  0  0
   -4.6200   24.1170  -32.0130 H   0  0  0  0  0  0  0  0  0  0  0  0
  1  2  1  0
  2  3  1  0
  3  4  2  0
  4  5  1  0
  5  6  2  0
  6  7  1  0
  7  8  2  0
  7  9  2  0
  7 10  1  0
 10 11  1  0
 11 12  1  0
 12 13  1  0
 13 14  1  0
  6 15  1  0
 15 16  2  0
 16 17  1  0
 17 18  1  0
 18 19  2  0
 18 20  1  0
 20 21  2  0
 21 22  1  0
 22 23  1  0
 23 24  2  0
 23 25  2  0
 23 26  1  0
 26 27  1  0
 27 28  1  0
 28 29  1  0
 29 30  1  0
 22 31  2  0
 31 32  1  0
 32 33  2  0
 33 34  1  0
 16  3  1  0
 33 20  1  0
 14 10  1  0
 30 26  1  0
  1 35  1  0
  1 36  1  0
  1 37  1  0
  4 38  1  0
  5 39  1  0
 11 40  1  0
 11 41  1  0
 12 42  1  0
 12 43  1  0
 13 44  1  0
 13 45  1  0
 14 46  1  0
 14 47  1  0
 15 48  1  0
 21 49  1  0
 27 50  1  0
 27 51  1  0
 28 52  1  0
 28 53  1  0
 29 54  1  0
 29 55  1  0
 30 56  1  0
 30 57  1  0
 31 58  1  0
 32 59  1  0
 34 60  1  0
M  CHG  1  17  -1
M  END
>  <UniqueID>  (31) 
30

>  <SMILES>  (31) 
COc1ccc(S(=O)(=O)N2CCCC2)cc1[N-]C(=O)c1cc(S(=O)(=O)N2CCCC2)ccc1O

>  <Energy>  (31) 
70.21702897733398

>  <Genealogy>  (31) 
COc1ccc(S(=O)(=O)N2CCCC2)cc1[N-]C(=O)c1cc(S(=O)(=O)N2CCCC2)ccc1O (protonated)
COc1ccc(S(=O)(=O)N2CCCC2)cc1[N-]C(=O)c1cc(S(=O)(=O)N2CCCC2)ccc1O (3D coordinates assigned)
COc1ccc(S(=O)(=O)N2CCCC2)cc1[N-]C(=O)c1cc(S(=O)(=O)N2CCCC2)ccc1O (nonaromatic ring conformer: 70.21702897733398 kcal/mol)

>  <smiles>  (31) 
COc1ccc(S(=O)(=O)N2CCCC2)cc1NC(=O)c1cc(S(=O)(=O)N2CCCC2)ccc1O

>  <score_type>  (31) 
oracle

>  <origin>  (31) 
adgpu

>  <m_score__min__energy>  (31) 
-12.24

>  <m_primary>  (31) 
energy

$$$$
31:0
     RDKit          3D

 56 59  0  0  0  0  0  0  0  0999 V2000
    1.2650   20.4290  -28.0270 C   0  0  0  0  0  0  0  0  0  0  0  0
    0.1510   20.6740  -27.0950 N   0  0  0  0  0  0  0  0  0  0  0  0
   -1.1020   20.0130  -27.5660 C   0  0  0  0  0  0  0  0  0  0  0  0
   -2.3620   20.8910  -27.4750 C   0  0  0  0  0  0  0  0  0  0  0  0
   -2.0750   22.2420  -28.0550 C   0  0  0  0  0  0  0  0  0  0  0  0
   -2.9940   22.9170  -28.8700 C   0  0  0  0  0  0  0  0  0  0  0  0
   -2.6980   24.1970  -29.3550 C   0  0  0  0  0  0  0  0  0  0  0  0
   -3.6690   24.8700  -30.1620 N   0  0  0  0  0  0  0  0  0  0  0  0
   -5.1010   24.1140  -30.7800 S   0  0  0  0  0  0  0  0  0  0  0  0
   -5.6830   24.9160  -31.9100 O   0  0  0  0  0  0  0  0  0  0  0  0
   -6.1270   24.0240  -29.6870 O   0  0  0  0  0  0  0  0  0  0  0  0
   -4.6940   22.4990  -31.3460 C   0  0  0  0  0  0  0  0  0  0  0  0
   -3.4240   22.2460  -31.8740 C   0  0  0  0  0  0  0  0  0  0  0  0
   -3.1090   20.9760  -32.3620 C   0  0  0  0  0  0  0  0  0  0  0  0
   -4.0640   19.9550  -32.3430 C   0  0  0  0  0  0  0  0  0  0  0  0
   -3.7290   18.7080  -32.8590 O   0  0  0  0  0  0  0  0  0  0  0  0
   -5.3500   20.2030  -31.8210 C   0  0  0  0  0  0  0  0  0  0  0  0
   -6.6030   18.9530  -31.8050 S   0  0  0  0  0  0  0  0  0  0  0  0
   -7.8570   19.5380  -31.2150 O   0  0  0  0  0  0  0  0  0  0  0  0
   -6.1790   17.8100  -30.9250 O   0  0  0  0  0  0  0  0  0  0  0  0
   -6.9510   18.3400  -33.4080 N   0  0  0  0  0  0  0  0  0  0  0  0
   -7.1750   16.8800  -33.4330 C   0  0  0  0  0  0  0  0  0  0  0  0
   -5.8810   16.0510  -33.5560 C   0  0  0  0  0  0  0  0  0  0  0  0
   -4.8010   16.7090  -34.4260 C   0  0  0  0  0  0  0  0  0  0  0  0
   -5.3760   17.8060  -35.3120 C   0  0  0  0  0  0  0  0  0  0  0  0
   -6.0460   18.8820  -34.4500 C   0  0  0  0  0  0  0  0  0  0  0  0
   -5.6480   21.4760  -31.3130 C   0  0  0  0  0  0  0  0  0  0  0  0
   -1.5030   24.8290  -28.9640 C   0  0  0  0  0  0  0  0  0  0  0  0
   -1.2390   26.1440  -29.3300 O   0  0  0  0  0  0  0  0  0  0  0  0
   -0.5840   24.1490  -28.1570 C   0  0  0  0  0  0  0  0  0  0  0  0
   -0.8660   22.8500  -27.7110 C   0  0  0  0  0  0  0  0  0  0  0  0
    0.0450   22.1170  -26.7630 C   0  0  0  0  0  0  0  0  0  0  0  0
    2.1832   20.2271  -27.4559 H   0  0  0  0  0  0  0  0  0  0  0  0
    1.0289   19.5613  -28.6605 H   0  0  0  0  0  0  0  0  0  0  0  0
    1.4148   21.3157  -28.6605 H   0  0  0  0  0  0  0  0  0  0  0  0
   -0.9619   19.7217  -28.6174 H   0  0  0  0  0  0  0  0  0  0  0  0
   -1.2713   19.1545  -26.8995 H   0  0  0  0  0  0  0  0  0  0  0  0
   -3.1800   20.4172  -28.0375 H   0  0  0  0  0  0  0  0  0  0  0  0
   -2.6559   21.0006  -26.4207 H   0  0  0  0  0  0  0  0  0  0  0  0
   -3.9506   22.4399  -29.1295 H   0  0  0  0  0  0  0  0  0  0  0  0
   -2.6722   23.0484  -31.9050 H   0  0  0  0  0  0  0  0  0  0  0  0
   -2.1042   20.7779  -32.7635 H   0  0  0  0  0  0  0  0  0  0  0  0
   -7.6836   16.5917  -32.5012 H   0  0  0  0  0  0  0  0  0  0  0  0
   -7.7779   16.6650  -34.3275 H   0  0  0  0  0  0  0  0  0  0  0  0
   -5.4689   15.9005  -32.5473 H   0  0  0  0  0  0  0  0  0  0  0  0
   -6.1534   15.1048  -34.0465 H   0  0  0  0  0  0  0  0  0  0  0  0
   -4.0341   17.1470  -33.7702 H   0  0  0  0  0  0  0  0  0  0  0  0
   -4.3701   15.9349  -35.0781 H   0  0  0  0  0  0  0  0  0  0  0  0
   -4.5650   18.2625  -35.8985 H   0  0  0  0  0  0  0  0  0  0  0  0
   -6.1253   17.3676  -35.9875 H   0  0  0  0  0  0  0  0  0  0  0  0
   -5.2585   19.4682  -33.9539 H   0  0  0  0  0  0  0  0  0  0  0  0
   -6.6650   19.4917  -35.1246 H   0  0  0  0  0  0  0  0  0  0  0  0
   -6.6419   21.6721  -30.8843 H   0  0  0  0  0  0  0  0  0  0  0  0
    0.3611   24.6344  -27.8721 H   0  0  0  0  0  0  0  0  0  0  0  0
    1.0472   22.5675  -26.8144 H   0  0  0  0  0  0  0  0  0  0  0  0
   -0.3790   22.2019  -25.7516 H   0  0  0  0  0  0  0  0  0  0  0  0
  1  2  1  0
  2  3  1  0
  3  4  1  0
  4  5  1  0
  5  6  2  0
  6  7  1  0
  7  8  1  0
  8  9  1  0
  9 10  2  0
  9 11  2  0
  9 12  1  0
 12 13  2  0
 13 14  1  0
 14 15  2  0
 15 16  1  0
 15 17  1  0
 17 18  1  0
 18 19  2  0
 18 20  2  0
 18 21  1  0
 21 22  1  0
 22 23  1  0
 23 24  1  0
 24 25  1  0
 25 26  1  0
 17 27  2  0
  7 28  2  0
 28 29  1  0
 28 30  1  0
 30 31  2  0
 31 32  1  0
 32  2  1  0
 31  5  1  0
 27 12  1  0
 26 21  1  0
  1 33  1  0
  1 34  1  0
  1 35  1  0
  3 36  1  0
  3 37  1  0
  4 38  1  0
  4 39  1  0
  6 40  1  0
 13 41  1  0
 14 42  1  0
 22 43  1  0
 22 44  1  0
 23 45  1  0
 23 46  1  0
 24 47  1  0
 24 48  1  0
 25 49  1  0
 25 50  1  0
 26 51  1  0
 26 52  1  0
 27 53  1  0
 30 54  1  0
 32 55  1  0
 32 56  1  0
M  CHG  3   8  -1  16  -1  29  -1
M  END
>  <UniqueID>  (32) 
31

>  <SMILES>  (32) 
CN1CCc2cc([N-]S(=O)(=O)c3ccc([O-])c(S(=O)(=O)N4CCCCC4)c3)c([O-])cc2C1

>  <Energy>  (32) 
83.57490404853975

>  <Genealogy>  (32) 
CN1CCc2cc([N-]S(=O)(=O)c3ccc([O-])c(S(=O)(=O)N4CCCCC4)c3)c([O-])cc2C1 (protonated)
CN1CCc2cc([N-]S(=O)(=O)c3ccc([O-])c(S(=O)(=O)N4CCCCC4)c3)c([O-])cc2C1 (3D coordinates assigned)
CN1CCc2cc([N-]S(=O)(=O)c3ccc([O-])c(S(=O)(=O)N4CCCCC4)c3)c([O-])cc2C1 (nonaromatic ring conformer: 83.57490404853975 kcal/mol)

>  <smiles>  (32) 
CN1CCc2cc(NS(=O)(=O)c3ccc(O)c(S(=O)(=O)N4CCCCC4)c3)c(O)cc2C1

>  <score_type>  (32) 
oracle

>  <origin>  (32) 
adgpu

>  <m_score__min__energy>  (32) 
-15.210000000000001

>  <m_primary>  (32) 
energy

$$$$
32:0
     RDKit          3D

 64 68  0  0  0  0  0  0  0  0999 V2000
   -4.5250   24.5510  -28.0460 O   0  0  0  0  0  0  0  0  0  0  0  0
   -3.4610   24.4390  -28.7070 C   0  0  0  0  0  0  0  0  0  0  0  0
   -3.5330   24.4100  -30.1400 N   0  0  0  0  0  0  0  0  0  0  0  0
   -3.4050   23.2200  -30.9310 C   0  0  0  0  0  0  0  0  0  0  0  0
   -2.3710   22.3170  -30.6530 C   0  0  0  0  0  0  0  0  0  0  0  0
   -2.2830   21.1110  -31.3560 C   0  0  0  0  0  0  0  0  0  0  0  0
   -3.2200   20.8090  -32.3540 C   0  0  0  0  0  0  0  0  0  0  0  0
   -3.1660   19.2540  -33.1700 S   0  0  0  0  0  0  0  0  0  0  0  0
   -2.7000   19.4110  -34.5890 O   0  0  0  0  0  0  0  0  0  0  0  0
   -2.1500   18.4150  -32.4440 O   0  0  0  0  0  0  0  0  0  0  0  0
   -4.7480   18.4400  -33.1630 C   0  0  0  0  0  0  0  0  0  0  0  0
   -5.8500   19.1910  -32.7110 C   0  0  0  0  0  0  0  0  0  0  0  0
   -7.1310   18.6350  -32.6510 C   0  0  0  0  0  0  0  0  0  0  0  0
   -8.4900   19.5830  -32.0560 S   0  0  0  0  0  0  0  0  0  0  0  0
   -9.0630   18.9100  -30.8390 O   0  0  0  0  0  0  0  0  0  0  0  0
   -9.5680   19.6700  -33.1000 O   0  0  0  0  0  0  0  0  0  0  0  0
   -7.9290   21.2040  -31.6610 C   0  0  0  0  0  0  0  0  0  0  0  0
   -7.6270   22.1260  -32.6730 C   0  0  0  0  0  0  0  0  0  0  0  0
   -7.2010   23.4170  -32.3430 C   0  0  0  0  0  0  0  0  0  0  0  0
   -7.0780   23.7910  -31.0020 C   0  0  0  0  0  0  0  0  0  0  0  0
   -7.3780   22.8750  -29.9890 C   0  0  0  0  0  0  0  0  0  0  0  0
   -7.8010   21.5840  -30.3170 C   0  0  0  0  0  0  0  0  0  0  0  0
   -7.3250   17.3090  -33.0290 C   0  0  0  0  0  0  0  0  0  0  0  0
   -6.2520   16.5450  -33.4820 C   0  0  0  0  0  0  0  0  0  0  0  0
   -4.9540   17.0830  -33.5570 C   0  0  0  0  0  0  0  0  0  0  0  0
   -3.6700   16.0110  -34.1670 S   0  0  0  0  0  0  0  0  0  0  0  0
   -4.1270   15.3340  -35.4280 O   0  0  0  0  0  0  0  0  0  0  0  0
   -2.4570   16.8280  -34.5060 O   0  0  0  0  0  0  0  0  0  0  0  0
   -3.2670   14.7340  -33.0270 C   0  0  0  0  0  0  0  0  0  0  0  0
   -4.2740   14.0940  -32.2910 C   0  0  0  0  0  0  0  0  0  0  0  0
   -3.9450   13.0850  -31.3800 C   0  0  0  0  0  0  0  0  0  0  0  0
   -2.6080   12.7230  -31.1900 C   0  0  0  0  0  0  0  0  0  0  0  0
   -1.6000   13.3740  -31.9070 C   0  0  0  0  0  0  0  0  0  0  0  0
   -1.9260   14.3810  -32.8200 C   0  0  0  0  0  0  0  0  0  0  0  0
   -4.2040   21.7470  -32.6890 C   0  0  0  0  0  0  0  0  0  0  0  0
   -4.3000   22.9440  -31.9770 C   0  0  0  0  0  0  0  0  0  0  0  0
   -2.1640   24.3570  -27.9960 C   0  0  0  0  0  0  0  0  0  0  0  0
   -1.9980   23.4160  -26.9640 C   0  0  0  0  0  0  0  0  0  0  0  0
   -0.7620   23.2790  -26.3280 C   0  0  0  0  0  0  0  0  0  0  0  0
    0.3140   24.0860  -26.7060 C   0  0  0  0  0  0  0  0  0  0  0  0
    0.1530   25.0420  -27.7120 C   0  0  0  0  0  0  0  0  0  0  0  0
   -1.0810   25.1870  -28.3530 C   0  0  0  0  0  0  0  0  0  0  0  0
   -1.2280   26.1680  -29.3290 O   0  0  0  0  0  0  0  0  0  0  0  0
   -1.6263   22.5569  -29.8798 H   0  0  0  0  0  0  0  0  0  0  0  0
   -1.4773   20.3985  -31.1254 H   0  0  0  0  0  0  0  0  0  0  0  0
   -5.6999   20.2351  -32.3992 H   0  0  0  0  0  0  0  0  0  0  0  0
   -7.7252   21.8337  -33.7289 H   0  0  0  0  0  0  0  0  0  0  0  0
   -6.9628   24.1378  -33.1390 H   0  0  0  0  0  0  0  0  0  0  0  0
   -6.7449   24.8069  -30.7432 H   0  0  0  0  0  0  0  0  0  0  0  0
   -7.2811   23.1705  -28.9339 H   0  0  0  0  0  0  0  0  0  0  0  0
   -8.0342   20.8639  -29.5188 H   0  0  0  0  0  0  0  0  0  0  0  0
   -8.3289   16.8633  -32.9697 H   0  0  0  0  0  0  0  0  0  0  0  0
   -6.4225   15.5019  -33.7867 H   0  0  0  0  0  0  0  0  0  0  0  0
   -5.3253   14.3861  -32.4303 H   0  0  0  0  0  0  0  0  0  0  0  0
   -4.7384   12.5761  -30.8129 H   0  0  0  0  0  0  0  0  0  0  0  0
   -2.3495   11.9265  -30.4768 H   0  0  0  0  0  0  0  0  0  0  0  0
   -0.5477   13.0932  -31.7524 H   0  0  0  0  0  0  0  0  0  0  0  0
   -1.1297   14.8970  -33.3766 H   0  0  0  0  0  0  0  0  0  0  0  0
   -4.9019   21.5406  -33.5138 H   0  0  0  0  0  0  0  0  0  0  0  0
   -5.0805   23.6743  -32.2367 H   0  0  0  0  0  0  0  0  0  0  0  0
   -2.8451   22.7853  -26.6564 H   0  0  0  0  0  0  0  0  0  0  0  0
   -0.6356   22.5345  -25.5282 H   0  0  0  0  0  0  0  0  0  0  0  0
    1.2892   23.9685  -26.2109 H   0  0  0  0  0  0  0  0  0  0  0  0
    0.9995   25.6824  -28.0006 H   0  0  0  0  0  0  0  0  0  0  0  0
  1  2  2  0
  2  3  1  0
  3  4  1  0
  4  5  2  0
  5  6  1  0
  6  7  2  0
  7  8  1  0
  8  9  2  0
  8 10  2  0
  8 11  1  0
 11 12  2  0
 12 13  1  0
 13 14  1  0
 14 15  2  0
 14 16  2  0
 14 17  1  0
 17 18  2  0
 18 19  1  0
 19 20  2  0
 20 21  1  0
 21 22  2  0
 13 23  2  0
 23 24  1  0
 24 25  2  0
 25 26  1  0
 26 27  2  0
 26 28  2  0
 26 29  1  0
 29 30  2  0
 30 31  1  0
 31 32  2  0
 32 33  1  0
 33 34  2  0
  7 35  1  0
 35 36  2  0
  2 37  1  0
 37 38  2  0
 38 39  1  0
 39 40  2  0
 40 41  1  0
 41 42  2  0
 42 43  1  0
 36  4  1  0
 42 37  1  0
 25 11  1  0
 34 29  1  0
 22 17  1  0
  5 44  1  0
  6 45  1  0
 12 46  1  0
 18 47  1  0
 19 48  1  0
 20 49  1  0
 21 50  1  0
 22 51  1  0
 23 52  1  0
 24 53  1  0
 30 54  1  0
 31 55  1  0
 32 56  1  0
 33 57  1  0
 34 58  1  0
 35 59  1  0
 36 60  1  0
 38 61  1  0
 39 62  1  0
 40 63  1  0
 41 64  1  0
M  CHG  2   3  -1  43  -1
M  END
>  <UniqueID>  (33) 
32

>  <SMILES>  (33) 
O=C([N-]c1ccc(S(=O)(=O)c2cc(S(=O)(=O)c3ccccc3)ccc2S(=O)(=O)c2ccccc2)cc1)c1ccccc1[O-]

>  <Energy>  (33) 
86.93133400110736

>  <Genealogy>  (33) 
O=C([N-]c1ccc(S(=O)(=O)c2cc(S(=O)(=O)c3ccccc3)ccc2S(=O)(=O)c2ccccc2)cc1)c1ccccc1[O-] (protonated)
O=C([N-]c1ccc(S(=O)(=O)c2cc(S(=O)(=O)c3ccccc3)ccc2S(=O)(=O)c2ccccc2)cc1)c1ccccc1[O-] (3D coordinates assigned)
O=C([N-]c1ccc(S(=O)(=O)c2cc(S(=O)(=O)c3ccccc3)ccc2S(=O)(=O)c2ccccc2)cc1)c1ccccc1[O-] (optimized conformer: 86.93133400110736 kcal/mol)

>  <smiles>  (33) 
O=C(Nc1ccc(S(=O)(=O)c2cc(S(=O)(=O)c3ccccc3)ccc2S(=O)(=O)c2ccccc2)cc1)c1ccccc1O

>  <score_type>  (33) 
oracle

>  <origin>  (33) 
adgpu

>  <m_score__min__energy>  (33) 
-15.800000000000001

>  <m_primary>  (33) 
energy

$$$$
33:0
     RDKit          3D

 52 55  0  0  0  0  0  0  0  0999 V2000
   -6.4700   17.3330  -31.1860 C   0  0  0  0  0  0  0  0  0  0  0  0
   -7.2070   17.6130  -32.4320 N   0  0  0  0  0  0  0  0  0  0  0  0
   -6.3100   17.7810  -33.5930 C   0  0  0  0  0  0  0  0  0  0  0  0
   -5.4020   19.0120  -33.4650 C   0  0  0  0  0  0  0  0  0  0  0  0
   -6.1290   20.2110  -32.9160 C   0  0  0  0  0  0  0  0  0  0  0  0
   -5.4730   21.4480  -32.9040 C   0  0  0  0  0  0  0  0  0  0  0  0
   -6.0780   22.5760  -32.3150 C   0  0  0  0  0  0  0  0  0  0  0  0
   -5.3630   23.8090  -32.1840 N   0  0  0  0  0  0  0  0  0  0  0  0
   -4.9460   24.4860  -30.6460 S   0  0  0  0  0  0  0  0  0  0  0  0
   -3.9260   25.5750  -30.8220 O   0  0  0  0  0  0  0  0  0  0  0  0
   -6.1770   25.0720  -30.0130 O   0  0  0  0  0  0  0  0  0  0  0  0
   -4.3150   23.1930  -29.6290 C   0  0  0  0  0  0  0  0  0  0  0  0
   -3.7800   22.0450  -30.2240 C   0  0  0  0  0  0  0  0  0  0  0  0
   -3.1350   21.0830  -29.4470 C   0  0  0  0  0  0  0  0  0  0  0  0
   -3.0050   21.2700  -28.0670 C   0  0  0  0  0  0  0  0  0  0  0  0
   -2.1270   20.1040  -27.0880 S   0  0  0  0  0  0  0  0  0  0  0  0
   -1.5850   20.7710  -25.8540 O   0  0  0  0  0  0  0  0  0  0  0  0
   -3.0640   19.0120  -26.6500 O   0  0  0  0  0  0  0  0  0  0  0  0
   -0.8060   19.4170  -28.0240 C   0  0  0  0  0  0  0  0  0  0  0  0
   -0.1970   20.1680  -29.0390 C   0  0  0  0  0  0  0  0  0  0  0  0
    0.8600   19.6210  -29.7730 C   0  0  0  0  0  0  0  0  0  0  0  0
    1.3080   18.3220  -29.5020 C   0  0  0  0  0  0  0  0  0  0  0  0
    0.6930   17.5630  -28.5020 C   0  0  0  0  0  0  0  0  0  0  0  0
   -0.3630   18.1090  -27.7660 C   0  0  0  0  0  0  0  0  0  0  0  0
   -3.5650   22.4040  -27.4680 C   0  0  0  0  0  0  0  0  0  0  0  0
   -4.2160   23.3610  -28.2450 C   0  0  0  0  0  0  0  0  0  0  0  0
   -7.3740   22.4720  -31.7880 C   0  0  0  0  0  0  0  0  0  0  0  0
   -7.9960   23.5970  -31.2370 O   0  0  0  0  0  0  0  0  0  0  0  0
   -8.0300   21.2320  -31.7910 C   0  0  0  0  0  0  0  0  0  0  0  0
   -7.4000   20.0920  -32.3130 C   0  0  0  0  0  0  0  0  0  0  0  0
   -8.1210   18.7640  -32.2890 C   0  0  0  0  0  0  0  0  0  0  0  0
   -7.1060   17.5746  -30.3216 H   0  0  0  0  0  0  0  0  0  0  0  0
   -6.1961   16.2682  -31.1534 H   0  0  0  0  0  0  0  0  0  0  0  0
   -5.5581   17.9473  -31.1534 H   0  0  0  0  0  0  0  0  0  0  0  0
   -5.6781   16.8851  -33.6824 H   0  0  0  0  0  0  0  0  0  0  0  0
   -6.9406   17.9236  -34.4830 H   0  0  0  0  0  0  0  0  0  0  0  0
   -4.5679   18.7664  -32.7913 H   0  0  0  0  0  0  0  0  0  0  0  0
   -5.0455   19.2703  -34.4731 H   0  0  0  0  0  0  0  0  0  0  0  0
   -4.4757   21.5400  -33.3588 H   0  0  0  0  0  0  0  0  0  0  0  0
   -3.8687   21.9005  -31.3109 H   0  0  0  0  0  0  0  0  0  0  0  0
   -2.7284   20.1768  -29.9197 H   0  0  0  0  0  0  0  0  0  0  0  0
   -0.5503   21.1865  -29.2578 H   0  0  0  0  0  0  0  0  0  0  0  0
    1.3411   20.2127  -30.5657 H   0  0  0  0  0  0  0  0  0  0  0  0
    2.1448   17.8985  -30.0767 H   0  0  0  0  0  0  0  0  0  0  0  0
    1.0388   16.5395  -28.2948 H   0  0  0  0  0  0  0  0  0  0  0  0
   -0.8494   17.5114  -26.9810 H   0  0  0  0  0  0  0  0  0  0  0  0
   -3.4912   22.5409  -26.3790 H   0  0  0  0  0  0  0  0  0  0  0  0
   -4.6529   24.2506  -27.7677 H   0  0  0  0  0  0  0  0  0  0  0  0
   -7.4890   24.4600  -31.0750 H   0  0  0  0  0  0  0  0  0  0  0  0
   -9.0474   21.1526  -31.3804 H   0  0  0  0  0  0  0  0  0  0  0  0
   -8.6552   18.6716  -31.3319 H   0  0  0  0  0  0  0  0  0  0  0  0
   -8.8112   18.7468  -33.1454 H   0  0  0  0  0  0  0  0  0  0  0  0
  1  2  1  0
  2  3  1  0
  3  4  1  0
  4  5  1  0
  5  6  2  0
  6  7  1  0
  7  8  1  0
  8  9  1  0
  9 10  2  0
  9 11  2  0
  9 12  1  0
 12 13  2  0
 13 14  1  0
 14 15  2  0
 15 16  1  0
 16 17  2  0
 16 18  2  0
 16 19  1  0
 19 20  2  0
 20 21  1  0
 21 22  2  0
 22 23  1  0
 23 24  2  0
 15 25  1  0
 25 26  2  0
  7 27  2  0
 27 28  1  0
 27 29  1  0
 29 30  2  0
 30 31  1  0
 31  2  1  0
 30  5  1  0
 26 12  1  0
 24 19  1  0
  1 32  1  0
  1 33  1  0
  1 34  1  0
  3 35  1  0
  3 36  1  0
  4 37  1  0
  4 38  1  0
  6 39  1  0
 13 40  1  0
 14 41  1  0
 20 42  1  0
 21 43  1  0
 22 44  1  0
 23 45  1  0
 24 46  1  0
 25 47  1  0
 26 48  1  0
 28 49  1  0
 29 50  1  0
 31 51  1  0
 31 52  1  0
M  CHG  1   8  -1
M  END
>  <UniqueID>  (34) 
33

>  <SMILES>  (34) 
CN1CCc2cc([N-]S(=O)(=O)c3ccc(S(=O)(=O)c4ccccc4)cc3)c(O)cc2C1

>  <Energy>  (34) 
67.52962928431208

>  <Genealogy>  (34) 
CN1CCc2cc([N-]S(=O)(=O)c3ccc(S(=O)(=O)c4ccccc4)cc3)c(O)cc2C1 (protonated)
CN1CCc2cc([N-]S(=O)(=O)c3ccc(S(=O)(=O)c4ccccc4)cc3)c(O)cc2C1 (3D coordinates assigned)
CN1CCc2cc([N-]S(=O)(=O)c3ccc(S(=O)(=O)c4ccccc4)cc3)c(O)cc2C1 (nonaromatic ring conformer: 67.52962928431208 kcal/mol)

>  <smiles>  (34) 
CN1CCc2cc(NS(=O)(=O)c3ccc(S(=O)(=O)c4ccccc4)cc3)c(O)cc2C1

>  <score_type>  (34) 
oracle

>  <origin>  (34) 
adgpu

>  <m_score__min__energy>  (34) 
-14.279999999999999

>  <m_primary>  (34) 
energy

$$$$
34:0
     RDKit          3D

 46 48  0  0  0  0  0  0  0  0999 V2000
   -1.4130   22.7430  -29.5670 C   0  0  0  0  0  0  0  0  0  0  0  0
   -2.1110   22.9570  -30.7890 O   0  0  0  0  0  0  0  0  0  0  0  0
   -3.4890   23.2110  -30.8850 C   0  0  0  0  0  0  0  0  0  0  0  0
   -4.3780   22.3090  -31.5020 C   0  0  0  0  0  0  0  0  0  0  0  0
   -5.7550   22.5970  -31.5890 C   0  0  0  0  0  0  0  0  0  0  0  0
   -6.7490   21.6520  -32.2700 C   0  0  2  0  0  0  0  0  0  0  0  0
   -8.0830   21.5510  -31.5140 C   0  0  0  0  0  0  0  0  0  0  0  0
   -9.0210   20.7130  -32.3170 C   0  0  0  0  0  0  0  0  0  0  0  0
  -10.2560   20.9560  -32.3090 O   0  0  0  0  0  0  0  0  0  0  0  0
   -8.5250   19.5720  -33.0180 N   0  0  0  0  0  0  0  0  0  0  0  0
   -7.2580   19.3190  -33.1880 C   0  0  0  0  0  0  0  0  0  0  0  0
   -6.8700   17.9380  -33.6520 C   0  0  0  0  0  0  0  0  0  0  0  0
   -5.7500   17.3200  -32.7690 C   0  0  2  0  0  0  0  0  0  0  0  0
   -5.9780   15.9310  -32.5970 O   0  0  0  0  0  0  0  0  0  0  0  0
   -6.0270   15.2770  -33.8460 C   0  0  0  0  0  0  0  0  0  0  0  0
   -5.7090   17.9760  -31.3760 C   0  0  0  0  0  0  0  0  0  0  0  0
   -5.4930   19.5110  -31.4220 C   0  0  0  0  0  0  0  0  0  0  0  0
   -6.1590   20.2370  -32.6420 C   0  0  2  0  0  0  0  0  0  0  0  0
   -5.1030   20.4550  -33.7620 C   0  0  0  0  0  0  0  0  0  0  0  0
   -6.2270   23.8000  -31.0310 C   0  0  0  0  0  0  0  0  0  0  0  0
   -5.3530   24.6990  -30.4170 C   0  0  0  0  0  0  0  0  0  0  0  0
   -5.8650   25.8820  -29.8830 O   0  0  0  0  0  0  0  0  0  0  0  0
   -3.9840   24.4050  -30.3460 C   0  0  0  0  0  0  0  0  0  0  0  0
   -3.1080   25.2980  -29.7380 O   0  0  0  0  0  0  0  0  0  0  0  0
   -2.0844   22.9488  -28.7203 H   0  0  0  0  0  0  0  0  0  0  0  0
   -1.0709   21.6987  -29.5182 H   0  0  0  0  0  0  0  0  0  0  0  0
   -0.5443   23.4161  -29.5182 H   0  0  0  0  0  0  0  0  0  0  0  0
   -3.9926   21.3679  -31.9212 H   0  0  0  0  0  0  0  0  0  0  0  0
   -6.9630   22.1291  -33.2378 H   0  0  0  0  0  0  0  0  0  0  0  0
   -7.9180   21.0852  -30.5313 H   0  0  0  0  0  0  0  0  0  0  0  0
   -8.5082   22.5545  -31.3648 H   0  0  0  0  0  0  0  0  0  0  0  0
   -7.7557   17.2871  -33.6092 H   0  0  0  0  0  0  0  0  0  0  0  0
   -6.4859   18.0203  -34.6795 H   0  0  0  0  0  0  0  0  0  0  0  0
   -4.7926   17.4948  -33.2816 H   0  0  0  0  0  0  0  0  0  0  0  0
   -6.1083   14.1914  -33.6885 H   0  0  0  0  0  0  0  0  0  0  0  0
   -6.9011   15.6319  -34.4117 H   0  0  0  0  0  0  0  0  0  0  0  0
   -5.1098   15.4977  -34.4117 H   0  0  0  0  0  0  0  0  0  0  0  0
   -6.6632   17.7736  -30.8675 H   0  0  0  0  0  0  0  0  0  0  0  0
   -4.8511   17.5442  -30.8398 H   0  0  0  0  0  0  0  0  0  0  0  0
   -5.9092   19.9421  -30.4995 H   0  0  0  0  0  0  0  0  0  0  0  0
   -4.4090   19.6662  -31.5259 H   0  0  0  0  0  0  0  0  0  0  0  0
   -4.1223   20.6575  -33.3069 H   0  0  0  0  0  0  0  0  0  0  0  0
   -5.0382   19.5513  -34.3858 H   0  0  0  0  0  0  0  0  0  0  0  0
   -5.4014   21.3105  -34.3858 H   0  0  0  0  0  0  0  0  0  0  0  0
   -7.3005   24.0353  -31.0794 H   0  0  0  0  0  0  0  0  0  0  0  0
   -5.3720   26.4090  -29.1720 H   0  0  0  0  0  0  0  0  0  0  0  0
  1  2  1  0
  2  3  1  0
  3  4  2  0
  4  5  1  0
  5  6  1  0
  6  7  1  0
  7  8  1  0
  8  9  2  0
  8 10  1  0
 10 11  2  0
 11 12  1  0
 12 13  1  0
 13 14  1  0
 14 15  1  0
 13 16  1  0
 16 17  1  0
 17 18  1  0
 18 19  1  6
  5 20  2  0
 20 21  1  0
 21 22  1  0
 21 23  2  0
 23 24  1  0
 23  3  1  0
 18  6  1  0
 18 11  1  0
  1 25  1  0
  1 26  1  0
  1 27  1  0
  4 28  1  0
  6 29  1  6
  7 30  1  0
  7 31  1  0
 12 32  1  0
 12 33  1  0
 13 34  1  6
 15 35  1  0
 15 36  1  0
 15 37  1  0
 16 38  1  0
 16 39  1  0
 17 40  1  0
 17 41  1  0
 19 42  1  0
 19 43  1  0
 19 44  1  0
 20 45  1  0
 22 46  1  0
M  CHG  1  24  -1
M  END
>  <UniqueID>  (35) 
34

>  <SMILES>  (35) 
COc1cc([C@@H]2CC(=O)N=C3C[C@H](OC)CCC32C)cc(O)c1[O-]

>  <Energy>  (35) 
63.62223542907349

>  <Genealogy>  (35) 
COc1cc(C2CC(=O)N=C3CC(OC)CCC32C)cc(O)c1[O-] (protonated)
COc1cc([C@@H]2CC(=O)N=C3C[C@H](OC)CCC32C)cc(O)c1[O-] (chirality)
COc1cc([C@@H]2CC(=O)N=C3C[C@H](OC)CCC32C)cc(O)c1[O-] (3D coordinates assigned)
COc1cc([C@@H]2CC(=O)N=C3C[C@H](OC)CCC32C)cc(O)c1[O-] (nonaromatic ring conformer: 63.62223542907349 kcal/mol)

>  <smiles>  (35) 
COc1cc(C2CC(=O)N=C3CC(OC)CCC32C)cc(O)c1O

>  <score_type>  (35) 
oracle

>  <origin>  (35) 
adgpu

>  <m_score__min__energy>  (35) 
-11.210000000000001

>  <m_primary>  (35) 
energy

$$$$
35:0
     RDKit          3D

 49 52  0  0  0  0  0  0  0  0999 V2000
    0.5820   18.2770  -30.3550 C   0  0  0  0  0  0  0  0  0  0  0  0
    0.0310   19.5020  -29.7880 N   0  0  0  0  0  0  0  0  0  0  0  0
    0.4920   20.1380  -28.5560 C   0  0  0  0  0  0  0  0  0  0  0  0
   -0.4040   21.3850  -28.3650 C   0  0  0  0  0  0  0  0  0  0  0  0
   -1.3290   21.3420  -29.5420 C   0  0  0  0  0  0  0  0  0  0  0  0
   -2.4130   22.1830  -29.8440 C   0  0  0  0  0  0  0  0  0  0  0  0
   -2.7520   23.3100  -29.0300 N   0  0  0  0  0  0  0  0  0  0  0  0
   -2.6810   24.6640  -29.4810 C   0  0  0  0  0  0  0  0  0  0  0  0
   -1.8420   25.4420  -28.9560 O   0  0  0  0  0  0  0  0  0  0  0  0
   -3.6240   25.1500  -30.4450 N   0  0  0  0  0  0  0  0  0  0  0  0
   -4.9520   24.6540  -30.6630 C   0  0  0  0  0  0  0  0  0  0  0  0
   -5.9390   24.9330  -29.7080 C   0  0  0  0  0  0  0  0  0  0  0  0
   -7.2390   24.4460  -29.8700 C   0  0  0  0  0  0  0  0  0  0  0  0
   -7.5590   23.6620  -30.9810 C   0  0  0  0  0  0  0  0  0  0  0  0
   -6.5760   23.3570  -31.9260 C   0  0  0  0  0  0  0  0  0  0  0  0
   -5.2750   23.8430  -31.7670 C   0  0  0  0  0  0  0  0  0  0  0  0
   -3.2210   21.8590  -30.9490 C   0  0  0  0  0  0  0  0  0  0  0  0
   -2.9260   20.7340  -31.7470 C   0  0  0  0  0  0  0  0  0  0  0  0
   -3.9130   20.3690  -33.1550 S   0  0  0  0  0  0  0  0  0  0  0  0
   -4.2140   21.6320  -33.9140 O   0  0  0  0  0  0  0  0  0  0  0  0
   -3.1710   19.4380  -34.0750 O   0  0  0  0  0  0  0  0  0  0  0  0
   -5.4130   19.6190  -32.6210 C   0  0  0  0  0  0  0  0  0  0  0  0
   -5.3830   18.5480  -31.7160 C   0  0  0  0  0  0  0  0  0  0  0  0
   -6.5760   17.9690  -31.2750 C   0  0  0  0  0  0  0  0  0  0  0  0
   -7.8030   18.4600  -31.7290 C   0  0  0  0  0  0  0  0  0  0  0  0
   -7.8420   19.5350  -32.6240 C   0  0  0  0  0  0  0  0  0  0  0  0
   -9.0720   20.0200  -33.0640 O   0  0  0  0  0  0  0  0  0  0  0  0
   -6.6450   20.1160  -33.0670 C   0  0  0  0  0  0  0  0  0  0  0  0
   -1.8260   19.9190  -31.4310 C   0  0  0  0  0  0  0  0  0  0  0  0
   -1.0520   20.2460  -30.3140 C   0  0  0  0  0  0  0  0  0  0  0  0
    0.8860   17.6011  -29.5421 H   0  0  0  0  0  0  0  0  0  0  0  0
   -0.1813   17.7844  -30.9753 H   0  0  0  0  0  0  0  0  0  0  0  0
    1.4569   18.5213  -30.9753 H   0  0  0  0  0  0  0  0  0  0  0  0
    0.3788   19.4508  -27.7045 H   0  0  0  0  0  0  0  0  0  0  0  0
    1.5565   20.4092  -28.6139 H   0  0  0  0  0  0  0  0  0  0  0  0
   -0.9665   21.3229  -27.4217 H   0  0  0  0  0  0  0  0  0  0  0  0
    0.1730   22.3199  -28.3106 H   0  0  0  0  0  0  0  0  0  0  0  0
   -5.6889   25.5394  -28.8250 H   0  0  0  0  0  0  0  0  0  0  0  0
   -8.0108   24.6803  -29.1220 H   0  0  0  0  0  0  0  0  0  0  0  0
   -8.5841   23.2850  -31.1118 H   0  0  0  0  0  0  0  0  0  0  0  0
   -6.8264   22.7332  -32.7968 H   0  0  0  0  0  0  0  0  0  0  0  0
   -4.5012   23.5908  -32.5071 H   0  0  0  0  0  0  0  0  0  0  0  0
   -4.0899   22.4881  -31.1927 H   0  0  0  0  0  0  0  0  0  0  0  0
   -4.4187   18.1631  -31.3527 H   0  0  0  0  0  0  0  0  0  0  0  0
   -6.5491   17.1255  -30.5695 H   0  0  0  0  0  0  0  0  0  0  0  0
   -8.7403   18.0005  -31.3821 H   0  0  0  0  0  0  0  0  0  0  0  0
   -9.4960   19.6850  -33.9210 H   0  0  0  0  0  0  0  0  0  0  0  0
   -6.6732   20.9644  -33.7666 H   0  0  0  0  0  0  0  0  0  0  0  0
   -1.5794   19.0430  -32.0489 H   0  0  0  0  0  0  0  0  0  0  0  0
  1  2  1  0
  2  3  1  0
  3  4  1  0
  4  5  1  0
  5  6  2  0
  6  7  1  0
  7  8  1  0
  8  9  2  0
  8 10  1  0
 10 11  1  0
 11 12  2  0
 12 13  1  0
 13 14  2  0
 14 15  1  0
 15 16  2  0
  6 17  1  0
 17 18  2  0
 18 19  1  0
 19 20  2  0
 19 21  2  0
 19 22  1  0
 22 23  2  0
 23 24  1  0
 24 25  2  0
 25 26  1  0
 26 27  1  0
 26 28  2  0
 18 29  1  0
 29 30  2  0
 30  2  1  0
 30  5  1  0
 16 11  1  0
 28 22  1  0
  1 31  1  0
  1 32  1  0
  1 33  1  0
  3 34  1  0
  3 35  1  0
  4 36  1  0
  4 37  1  0
 12 38  1  0
 13 39  1  0
 14 40  1  0
 15 41  1  0
 16 42  1  0
 17 43  1  0
 23 44  1  0
 24 45  1  0
 25 46  1  0
 27 47  1  0
 28 48  1  0
 29 49  1  0
M  CHG  2   7  -1  10  -1
M  END
>  <UniqueID>  (36) 
35

>  <SMILES>  (36) 
CN1CCc2c([N-]C(=O)[N-]c3ccccc3)cc(S(=O)(=O)c3cccc(O)c3)cc21

>  <Energy>  (36) 
74.78118268797962

>  <Genealogy>  (36) 
CN1CCc2c([N-]C(=O)[N-]c3ccccc3)cc(S(=O)(=O)c3cccc(O)c3)cc21 (protonated)
CN1CCc2c([N-]C(=O)[N-]c3ccccc3)cc(S(=O)(=O)c3cccc(O)c3)cc21 (3D coordinates assigned)
CN1CCc2c([N-]C(=O)[N-]c3ccccc3)cc(S(=O)(=O)c3cccc(O)c3)cc21 (nonaromatic ring conformer: 74.78118268797962 kcal/mol)

>  <smiles>  (36) 
CN1CCc2c(NC(=O)Nc3ccccc3)cc(S(=O)(=O)c3cccc(O)c3)cc21

>  <score_type>  (36) 
oracle

>  <origin>  (36) 
adgpu

>  <m_score__min__energy>  (36) 
-11.56

>  <m_primary>  (36) 
energy

$$$$
36:0
     RDKit          3D

 53 56  0  0  0  0  0  0  0  0999 V2000
   -2.9220   18.1350  -32.8370 C   0  0  0  0  0  0  0  0  0  0  0  0
   -1.9670   19.2280  -33.2750 C   0  0  0  0  0  0  0  0  0  0  0  0
   -1.9320   20.4810  -32.5990 C   0  0  0  0  0  0  0  0  0  0  0  0
   -2.8700   20.8010  -31.1270 S   0  0  0  0  0  0  0  0  0  0  0  0
   -2.1410   20.2860  -29.9180 O   0  0  0  0  0  0  0  0  0  0  0  0
   -4.2000   20.1110  -31.2450 O   0  0  0  0  0  0  0  0  0  0  0  0
   -3.1000   22.5090  -30.9250 N   0  0  0  0  0  0  0  0  0  0  0  0
   -4.4070   23.0940  -30.8820 C   0  0  0  0  0  0  0  0  0  0  0  0
   -5.5250   22.2860  -31.1250 C   0  0  0  0  0  0  0  0  0  0  0  0
   -6.8150   22.8210  -31.0560 C   0  0  0  0  0  0  0  0  0  0  0  0
   -8.1990   21.7530  -31.2720 S   0  0  0  0  0  0  0  0  0  0  0  0
   -8.9930   21.6600  -29.9970 O   0  0  0  0  0  0  0  0  0  0  0  0
   -9.0770   22.3170  -32.3540 O   0  0  0  0  0  0  0  0  0  0  0  0
   -7.6310   20.1680  -31.7370 N   0  0  0  0  0  0  0  0  0  0  0  0
   -8.7140   19.1760  -31.5580 C   0  0  0  0  0  0  0  0  0  0  0  0
   -8.3770   17.8130  -32.2060 C   0  0  0  0  0  0  0  0  0  0  0  0
   -6.8910   17.7080  -32.5580 C   0  0  0  0  0  0  0  0  0  0  0  0
   -6.4670   18.8590  -33.4850 C   0  0  0  0  0  0  0  0  0  0  0  0
   -7.1630   20.1880  -33.1320 C   0  0  0  0  0  0  0  0  0  0  0  0
   -6.9890   24.1820  -30.7700 C   0  0  0  0  0  0  0  0  0  0  0  0
   -5.8760   25.0010  -30.5630 C   0  0  0  0  0  0  0  0  0  0  0  0
   -4.5860   24.4650  -30.6230 C   0  0  0  0  0  0  0  0  0  0  0  0
   -3.4900   25.3010  -30.4450 O   0  0  0  0  0  0  0  0  0  0  0  0
   -1.1280   21.5140  -33.1010 C   0  0  0  0  0  0  0  0  0  0  0  0
   -0.3140   21.3160  -34.2090 C   0  0  0  0  0  0  0  0  0  0  0  0
   -0.2630   20.0700  -34.8290 C   0  0  0  0  0  0  0  0  0  0  0  0
    0.5790   19.8830  -35.8810 N   0  0  0  0  0  0  0  0  0  0  0  0
    0.6900   18.6880  -36.5110 C   0  0  0  0  0  0  0  0  0  0  0  0
    1.4830   18.5610  -37.4810 O   0  0  0  0  0  0  0  0  0  0  0  0
   -0.0690   17.6010  -36.0800 C   0  0  0  0  0  0  0  0  0  0  0  0
   -0.9480   17.7570  -35.0070 C   0  0  0  0  0  0  0  0  0  0  0  0
   -1.0750   19.0070  -34.3640 C   0  0  0  0  0  0  0  0  0  0  0  0
   -2.9558   18.0963  -31.7382 H   0  0  0  0  0  0  0  0  0  0  0  0
   -3.9279   18.3488  -33.2275 H   0  0  0  0  0  0  0  0  0  0  0  0
   -2.5752   17.1669  -33.2275 H   0  0  0  0  0  0  0  0  0  0  0  0
   -2.2880   23.1240  -31.1520 H   0  0  0  0  0  0  0  0  0  0  0  0
   -5.3872   21.2230  -31.3719 H   0  0  0  0  0  0  0  0  0  0  0  0
   -8.8796   19.0240  -30.4812 H   0  0  0  0  0  0  0  0  0  0  0  0
   -9.6145   19.5692  -32.0524 H   0  0  0  0  0  0  0  0  0  0  0  0
   -8.6344   17.0091  -31.5006 H   0  0  0  0  0  0  0  0  0  0  0  0
   -8.9579   17.7212  -33.1356 H   0  0  0  0  0  0  0  0  0  0  0  0
   -6.2973   17.7524  -31.6331 H   0  0  0  0  0  0  0  0  0  0  0  0
   -6.7184   16.7543  -33.0783 H   0  0  0  0  0  0  0  0  0  0  0  0
   -5.3790   18.9973  -33.4007 H   0  0  0  0  0  0  0  0  0  0  0  0
   -6.7622   18.5890  -34.5097 H   0  0  0  0  0  0  0  0  0  0  0  0
   -6.4509   21.0160  -33.2634 H   0  0  0  0  0  0  0  0  0  0  0  0
   -8.0288   20.3246  -33.7966 H   0  0  0  0  0  0  0  0  0  0  0  0
   -8.0023   24.6056  -30.7085 H   0  0  0  0  0  0  0  0  0  0  0  0
   -6.0152   26.0716  -30.3520 H   0  0  0  0  0  0  0  0  0  0  0  0
   -1.1420   22.4978  -32.6092 H   0  0  0  0  0  0  0  0  0  0  0  0
    0.2928   22.1468  -34.5983 H   0  0  0  0  0  0  0  0  0  0  0  0
    0.0242   16.6268  -36.5822 H   0  0  0  0  0  0  0  0  0  0  0  0
   -1.5452   16.9007  -34.6605 H   0  0  0  0  0  0  0  0  0  0  0  0
  1  2  1  0
  2  3  2  0
  3  4  1  0
  4  5  2  0
  4  6  2  0
  4  7  1  0
  7  8  1  0
  8  9  2  0
  9 10  1  0
 10 11  1  0
 11 12  2  0
 11 13  2  0
 11 14  1  0
 14 15  1  0
 15 16  1  0
 16 17  1  0
 17 18  1  0
 18 19  1  0
 10 20  2  0
 20 21  1  0
 21 22  2  0
 22 23  1  0
  3 24  1  0
 24 25  2  0
 25 26  1  0
 26 27  1  0
 27 28  1  0
 28 29  2  0
 28 30  1  0
 30 31  2  0
 31 32  1  0
 32  2  1  0
 22  8  1  0
 32 26  2  0
 19 14  1  0
  1 33  1  0
  1 34  1  0
  1 35  1  0
  7 36  1  0
  9 37  1  0
 15 38  1  0
 15 39  1  0
 16 40  1  0
 16 41  1  0
 17 42  1  0
 17 43  1  0
 18 44  1  0
 18 45  1  0
 19 46  1  0
 19 47  1  0
 20 48  1  0
 21 49  1  0
 24 50  1  0
 25 51  1  0
 30 52  1  0
 31 53  1  0
M  CHG  2  23  -1  27  -1
M  END
>  <UniqueID>  (37) 
36

>  <SMILES>  (37) 
Cc1c(S(=O)(=O)Nc2cc(S(=O)(=O)N3CCCCC3)ccc2[O-])ccc2[n-]c(=O)ccc12

>  <Energy>  (37) 
75.27206630741794

>  <Genealogy>  (37) 
Cc1c(S(=O)(=O)Nc2cc(S(=O)(=O)N3CCCCC3)ccc2[O-])ccc2[n-]c(=O)ccc12 (protonated)
Cc1c(S(=O)(=O)Nc2cc(S(=O)(=O)N3CCCCC3)ccc2[O-])ccc2[n-]c(=O)ccc12 (3D coordinates assigned)
Cc1c(S(=O)(=O)Nc2cc(S(=O)(=O)N3CCCCC3)ccc2[O-])ccc2[n-]c(=O)ccc12 (nonaromatic ring conformer: 75.27206630741794 kcal/mol)

>  <smiles>  (37) 
Cc1c(S(=O)(=O)Nc2cc(S(=O)(=O)N3CCCCC3)ccc2O)ccc2[nH]c(=O)ccc12

>  <score_type>  (37) 
oracle

>  <origin>  (37) 
adgpu

>  <m_score__min__energy>  (37) 
-14.220000000000001

>  <m_primary>  (37) 
energy

$$$$
37:0
     RDKit          3D

 61 64  0  0  0  0  0  0  0  0999 V2000
  -10.2410   21.1450  -31.9670 C   0  0  0  0  0  0  0  0  0  0  0  0
   -9.1070   22.0120  -32.2880 N   0  0  0  0  0  0  0  0  0  0  0  0
   -9.3290   23.4570  -32.3410 C   0  0  0  0  0  0  0  0  0  0  0  0
   -7.7750   21.5060  -32.1020 C   0  0  0  0  0  0  0  0  0  0  0  0
   -6.8180   22.2980  -31.4550 C   0  0  0  0  0  0  0  0  0  0  0  0
   -5.5130   21.8240  -31.2420 C   0  0  0  0  0  0  0  0  0  0  0  0
   -4.5030   22.6880  -30.5750 C   0  0  0  0  0  0  0  0  0  0  0  0
   -3.1300   22.4910  -30.8020 C   0  0  0  0  0  0  0  0  0  0  0  0
   -2.1870   23.3610  -30.2480 C   0  0  0  0  0  0  0  0  0  0  0  0
   -2.6030   24.4580  -29.4820 C   0  0  0  0  0  0  0  0  0  0  0  0
   -1.6750   25.4310  -28.9950 N   0  0  0  0  0  0  0  0  0  0  0  0
   -0.7830   25.3100  -27.5170 S   0  0  0  0  0  0  0  0  0  0  0  0
    0.6770   25.4930  -27.8160 O   0  0  0  0  0  0  0  0  0  0  0  0
   -1.2320   26.4020  -26.5830 O   0  0  0  0  0  0  0  0  0  0  0  0
   -0.9930   23.7300  -26.7600 C   0  0  0  0  0  0  0  0  0  0  0  0
   -1.6080   22.6790  -27.4540 C   0  0  0  0  0  0  0  0  0  0  0  0
   -1.7170   21.4170  -26.8640 C   0  0  0  0  0  0  0  0  0  0  0  0
   -1.2170   21.2000  -25.5780 C   0  0  0  0  0  0  0  0  0  0  0  0
   -0.6130   22.2470  -24.8780 C   0  0  0  0  0  0  0  0  0  0  0  0
   -0.5030   23.5090  -25.4650 C   0  0  0  0  0  0  0  0  0  0  0  0
   -3.9610   24.6210  -29.1990 C   0  0  0  0  0  0  0  0  0  0  0  0
   -4.9060   23.7480  -29.7430 C   0  0  0  0  0  0  0  0  0  0  0  0
   -5.1760   20.5360  -31.6890 C   0  0  0  0  0  0  0  0  0  0  0  0
   -6.1230   19.7290  -32.3430 C   0  0  0  0  0  0  0  0  0  0  0  0
   -5.7280   18.3840  -32.8270 C   0  0  0  0  0  0  0  0  0  0  0  0
   -5.2960   18.1960  -34.1500 C   0  0  0  0  0  0  0  0  0  0  0  0
   -4.8980   16.9310  -34.5920 C   0  0  0  0  0  0  0  0  0  0  0  0
   -4.9310   15.8360  -33.7190 C   0  0  0  0  0  0  0  0  0  0  0  0
   -4.3780   14.2570  -34.2730 S   0  0  0  0  0  0  0  0  0  0  0  0
   -3.1730   14.4760  -35.5620 C   0  0  0  0  0  0  0  0  0  0  0  0
   -3.7520   13.4980  -33.1380 O   0  0  0  0  0  0  0  0  0  0  0  0
   -5.5460   13.4710  -34.7940 O   0  0  0  0  0  0  0  0  0  0  0  0
   -5.3770   16.0130  -32.4030 C   0  0  0  0  0  0  0  0  0  0  0  0
   -5.7770   17.2780  -31.9600 C   0  0  0  0  0  0  0  0  0  0  0  0
   -7.4250   20.2220  -32.5620 C   0  0  0  0  0  0  0  0  0  0  0  0
   -8.3460   19.4440  -33.2680 O   0  0  0  0  0  0  0  0  0  0  0  0
  -10.3444   21.0659  -30.8747 H   0  0  0  0  0  0  0  0  0  0  0  0
  -11.1611   21.5721  -32.3925 H   0  0  0  0  0  0  0  0  0  0  0  0
  -10.0701   20.1451  -32.3925 H   0  0  0  0  0  0  0  0  0  0  0  0
   -9.3903   23.8563  -31.3179 H   0  0  0  0  0  0  0  0  0  0  0  0
   -8.4941   23.9370  -32.8725 H   0  0  0  0  0  0  0  0  0  0  0  0
  -10.2695   23.6642  -32.8725 H   0  0  0  0  0  0  0  0  0  0  0  0
   -7.0922   23.3054  -31.1088 H   0  0  0  0  0  0  0  0  0  0  0  0
   -2.7950   21.6453  -31.4206 H   0  0  0  0  0  0  0  0  0  0  0  0
   -1.1141   23.1839  -30.4139 H   0  0  0  0  0  0  0  0  0  0  0  0
   -2.0058   22.8480  -28.4655 H   0  0  0  0  0  0  0  0  0  0  0  0
   -2.1971   20.5935  -27.4130 H   0  0  0  0  0  0  0  0  0  0  0  0
   -1.2989   20.2048  -25.1166 H   0  0  0  0  0  0  0  0  0  0  0  0
   -0.2236   22.0771  -23.8633 H   0  0  0  0  0  0  0  0  0  0  0  0
   -0.0304   24.3326  -24.9097 H   0  0  0  0  0  0  0  0  0  0  0  0
   -4.2883   25.4418  -28.5438 H   0  0  0  0  0  0  0  0  0  0  0  0
   -5.9735   23.8906  -29.5190 H   0  0  0  0  0  0  0  0  0  0  0  0
   -4.1577   20.1537  -31.5252 H   0  0  0  0  0  0  0  0  0  0  0  0
   -5.2707   19.0499  -34.8430 H   0  0  0  0  0  0  0  0  0  0  0  0
   -4.5577   16.7949  -35.6291 H   0  0  0  0  0  0  0  0  0  0  0  0
   -2.1848   14.6556  -35.1135 H   0  0  0  0  0  0  0  0  0  0  0  0
   -3.1338   13.5703  -36.1850 H   0  0  0  0  0  0  0  0  0  0  0  0
   -3.4550   15.3376  -36.1850 H   0  0  0  0  0  0  0  0  0  0  0  0
   -5.4128   15.1547  -31.7160 H   0  0  0  0  0  0  0  0  0  0  0  0
   -6.1321   17.4084  -30.9271 H   0  0  0  0  0  0  0  0  0  0  0  0
   -8.6960   19.7050  -34.1820 H   0  0  0  0  0  0  0  0  0  0  0  0
  1  2  1  0
  2  3  1  0
  2  4  1  0
  4  5  2  0
  5  6  1  0
  6  7  1  0
  7  8  2  0
  8  9  1  0
  9 10  2  0
 10 11  1  0
 11 12  1  0
 12 13  2  0
 12 14  2  0
 12 15  1  0
 15 16  2  0
 16 17  1  0
 17 18  2  0
 18 19  1  0
 19 20  2  0
 10 21  1  0
 21 22  2  0
  6 23  2  0
 23 24  1  0
 24 25  1  0
 25 26  2  0
 26 27  1  0
 27 28  2  0
 28 29  1  0
 29 30  1  0
 29 31  2  0
 29 32  2  0
 28 33  1  0
 33 34  2  0
 24 35  2  0
 35 36  1  0
 35  4  1  0
 22  7  1  0
 34 25  1  0
 20 15  1  0
  1 37  1  0
  1 38  1  0
  1 39  1  0
  3 40  1  0
  3 41  1  0
  3 42  1  0
  5 43  1  0
  8 44  1  0
  9 45  1  0
 16 46  1  0
 17 47  1  0
 18 48  1  0
 19 49  1  0
 20 50  1  0
 21 51  1  0
 22 52  1  0
 23 53  1  0
 26 54  1  0
 27 55  1  0
 30 56  1  0
 30 57  1  0
 30 58  1  0
 33 59  1  0
 34 60  1  0
 36 61  1  0
M  CHG  1  11  -1
M  END
>  <UniqueID>  (38) 
37

>  <SMILES>  (38) 
CN(C)c1cc(-c2ccc([N-]S(=O)(=O)c3ccccc3)cc2)cc(-c2ccc(S(C)(=O)=O)cc2)c1O

>  <Energy>  (38) 
85.54111959640892

>  <Genealogy>  (38) 
CN(C)c1cc(-c2ccc([N-]S(=O)(=O)c3ccccc3)cc2)cc(-c2ccc(S(C)(=O)=O)cc2)c1O (protonated)
CN(C)c1cc(-c2ccc([N-]S(=O)(=O)c3ccccc3)cc2)cc(-c2ccc(S(C)(=O)=O)cc2)c1O (3D coordinates assigned)
CN(C)c1cc(-c2ccc([N-]S(=O)(=O)c3ccccc3)cc2)cc(-c2ccc(S(C)(=O)=O)cc2)c1O (optimized conformer: 85.54111959640892 kcal/mol)

>  <smiles>  (38) 
CN(C)c1cc(-c2ccc(NS(=O)(=O)c3ccccc3)cc2)cc(-c2ccc(S(C)(=O)=O)cc2)c1O

>  <score_type>  (38) 
oracle

>  <origin>  (38) 
adgpu

>  <m_score__min__energy>  (38) 
-11.43

>  <m_primary>  (38) 
energy

$$$$
38:0
     RDKit          3D

 54 58  0  0  0  0  0  0  0  0999 V2000
   -6.8830   19.7580  -31.6330 C   0  0  0  0  0  0  0  0  0  0  0  0
   -7.1800   21.1830  -32.1140 C   0  0  0  0  0  0  0  0  0  0  0  0
   -8.0650   21.9470  -31.0990 C   0  0  0  0  0  0  0  0  0  0  0  0
   -7.2240   22.8730  -30.2140 C   0  0  0  0  0  0  0  0  0  0  0  0
   -6.5350   23.9120  -31.0120 N   0  0  0  0  0  0  0  0  0  0  0  0
   -5.2190   24.5940  -30.0890 S   0  0  0  0  0  0  0  0  0  0  0  0
   -5.7510   25.1930  -28.8160 O   0  0  0  0  0  0  0  0  0  0  0  0
   -4.5420   25.6790  -30.8810 O   0  0  0  0  0  0  0  0  0  0  0  0
   -4.0550   23.3370  -29.6780 C   0  0  0  0  0  0  0  0  0  0  0  0
   -3.9840   22.8300  -28.3740 C   0  0  0  0  0  0  0  0  0  0  0  0
   -3.0420   21.8490  -28.0490 C   0  0  0  0  0  0  0  0  0  0  0  0
   -2.1540   21.3630  -29.0250 C   0  0  0  0  0  0  0  0  0  0  0  0
   -1.1530   20.3240  -28.6940 C   0  0  0  0  0  0  0  0  0  0  0  0
    0.0700   20.2540  -29.2710 N   0  0  0  0  0  0  0  0  0  0  0  0
    0.8030   19.2090  -28.8010 C   0  0  0  0  0  0  0  0  0  0  0  0
    2.1720   18.9090  -29.3300 C   0  0  0  0  0  0  0  0  0  0  0  0
    2.0860   17.7110  -30.7060 S   0  0  0  0  0  0  0  0  0  0  0  0
    0.8730   18.6420  -31.6360 C   0  0  0  0  0  0  0  0  0  0  0  0
   -0.4400   18.2400  -31.6350 N   0  0  0  0  0  0  0  0  0  0  0  0
   -1.3890   18.9140  -32.3480 C   0  0  0  0  0  0  0  0  0  0  0  0
   -2.5890   18.5330  -32.3420 O   0  0  0  0  0  0  0  0  0  0  0  0
   -0.9840   20.0230  -33.0730 C   0  0  0  0  0  0  0  0  0  0  0  0
   -1.6240   20.9270  -33.8880 C   0  0  0  0  0  0  0  0  0  0  0  0
   -0.6870   21.8050  -34.3200 N   0  0  0  0  0  0  0  0  0  0  0  0
    0.5070   21.4990  -33.8200 N   0  0  0  0  0  0  0  0  0  0  0  0
    0.3180   20.4100  -33.0580 C   0  0  0  0  0  0  0  0  0  0  0  0
    1.2610   19.7410  -32.3530 N   0  0  0  0  0  0  0  0  0  0  0  0
    0.1690   18.4220  -27.8430 C   0  0  0  0  0  0  0  0  0  0  0  0
   -1.3580   19.0710  -27.5830 S   0  0  0  0  0  0  0  0  0  0  0  0
   -2.2270   21.8810  -30.3310 C   0  0  0  0  0  0  0  0  0  0  0  0
   -3.1700   22.8620  -30.6520 C   0  0  0  0  0  0  0  0  0  0  0  0
   -6.0690   23.4540  -32.3460 C   0  0  0  0  0  0  0  0  0  0  0  0
   -5.8640   21.9340  -32.4180 C   0  0  0  0  0  0  0  0  0  0  0  0
   -6.8784   19.7357  -30.5332 H   0  0  0  0  0  0  0  0  0  0  0  0
   -7.6580   19.0746  -32.0103 H   0  0  0  0  0  0  0  0  0  0  0  0
   -5.8995   19.4412  -32.0103 H   0  0  0  0  0  0  0  0  0  0  0  0
   -7.7541   21.1225  -33.0504 H   0  0  0  0  0  0  0  0  0  0  0  0
   -8.8027   22.5497  -31.6491 H   0  0  0  0  0  0  0  0  0  0  0  0
   -8.5673   21.2115  -30.4535 H   0  0  0  0  0  0  0  0  0  0  0  0
   -7.8833   23.3634  -29.4826 H   0  0  0  0  0  0  0  0  0  0  0  0
   -6.4597   22.2646  -29.7082 H   0  0  0  0  0  0  0  0  0  0  0  0
   -4.6723   23.2052  -27.6024 H   0  0  0  0  0  0  0  0  0  0  0  0
   -2.9953   21.4549  -27.0231 H   0  0  0  0  0  0  0  0  0  0  0  0
    2.6315   19.8409  -29.6911 H   0  0  0  0  0  0  0  0  0  0  0  0
    2.7759   18.4737  -28.5201 H   0  0  0  0  0  0  0  0  0  0  0  0
   -2.6944   20.9356  -34.1413 H   0  0  0  0  0  0  0  0  0  0  0  0
   -0.8630   22.6130  -34.9580 H   0  0  0  0  0  0  0  0  0  0  0  0
    0.5916   17.5360  -27.3466 H   0  0  0  0  0  0  0  0  0  0  0  0
   -1.5376   21.5118  -31.1046 H   0  0  0  0  0  0  0  0  0  0  0  0
   -3.2164   23.2624  -31.6755 H   0  0  0  0  0  0  0  0  0  0  0  0
   -6.8182   23.7431  -33.0978 H   0  0  0  0  0  0  0  0  0  0  0  0
   -5.0946   23.9278  -32.5358 H   0  0  0  0  0  0  0  0  0  0  0  0
   -5.5211   21.6646  -33.4279 H   0  0  0  0  0  0  0  0  0  0  0  0
   -5.1141   21.6454  -31.6668 H   0  0  0  0  0  0  0  0  0  0  0  0
  1  2  1  0
  2  3  1  0
  3  4  1  0
  4  5  1  0
  5  6  1  0
  6  7  2  0
  6  8  2  0
  6  9  1  0
  9 10  2  0
 10 11  1  0
 11 12  2  0
 12 13  1  0
 13 14  2  0
 14 15  1  0
 15 16  1  0
 16 17  1  0
 17 18  1  0
 18 19  2  0
 19 20  1  0
 20 21  2  0
 20 22  1  0
 22 23  2  0
 23 24  1  0
 24 25  1  0
 25 26  2  0
 26 27  1  0
 15 28  2  0
 28 29  1  0
 12 30  1  0
 30 31  2  0
  5 32  1  0
 32 33  1  0
 33  2  1  0
 31  9  1  0
 29 13  1  0
 27 18  1  0
 26 22  1  0
  1 34  1  0
  1 35  1  0
  1 36  1  0
  2 37  1  0
  3 38  1  0
  3 39  1  0
  4 40  1  0
  4 41  1  0
 10 42  1  0
 11 43  1  0
 16 44  1  0
 16 45  1  0
 23 46  1  0
 24 47  1  0
 28 48  1  0
 30 49  1  0
 31 50  1  0
 32 51  1  0
 32 52  1  0
 33 53  1  0
 33 54  1  0
M  CHG  1  27  -1
M  END
>  <UniqueID>  (39) 
38

>  <SMILES>  (39) 
CC1CCN(S(=O)(=O)c2ccc(-c3nc(CSc4nc(=O)c5c[nH]nc5[n-]4)cs3)cc2)CC1

>  <Energy>  (39) 
129.79640520831984

>  <Genealogy>  (39) 
CC1CCN(S(=O)(=O)c2ccc(-c3nc(CSc4nc(=O)c5c[nH]nc5[n-]4)cs3)cc2)CC1 (protonated)
CC1CCN(S(=O)(=O)c2ccc(-c3nc(CSc4nc(=O)c5c[nH]nc5[n-]4)cs3)cc2)CC1 (3D coordinates assigned)
CC1CCN(S(=O)(=O)c2ccc(-c3nc(CSc4nc(=O)c5c[nH]nc5[n-]4)cs3)cc2)CC1 (nonaromatic ring conformer: 129.79640520831984 kcal/mol)

>  <smiles>  (39) 
CC1CCN(S(=O)(=O)c2ccc(-c3nc(CSc4nc(=O)c5c[nH]nc5[nH]4)cs3)cc2)CC1

>  <score_type>  (39) 
oracle

>  <origin>  (39) 
adgpu

>  <m_score__min__energy>  (39) 
-10.49

>  <m_primary>  (39) 
energy

$$$$
39:0
     RDKit          3D

 43 45  0  0  0  0  0  0  0  0999 V2000
   -6.8420   25.1900  -30.7930 H   0  0  0  0  0  0  0  0  0  0  0  0
   -7.6100   24.5530  -30.9560 O   0  0  0  0  0  0  0  0  0  0  0  0
   -7.4310   23.1900  -31.2020 C   0  0  0  0  0  0  0  0  0  0  0  0
   -8.5350   22.4510  -31.6390 C   0  0  0  0  0  0  0  0  0  0  0  0
   -9.5186   22.9370  -31.7192 H   0  0  0  0  0  0  0  0  0  0  0  0
   -8.4010   21.1040  -31.9740 C   0  0  0  0  0  0  0  0  0  0  0  0
   -9.2772   20.5349  -32.3181 H   0  0  0  0  0  0  0  0  0  0  0  0
   -7.1560   20.4740  -31.8740 C   0  0  0  0  0  0  0  0  0  0  0  0
   -6.9910   18.7630  -32.2780 S   0  0  0  0  0  0  0  0  0  0  0  0
   -8.3580   18.1540  -32.4200 O   0  0  0  0  0  0  0  0  0  0  0  0
   -6.2810   18.0540  -31.1570 O   0  0  0  0  0  0  0  0  0  0  0  0
   -6.0990   18.5370  -33.7660 N   0  0  0  0  0  0  0  0  0  0  0  0
   -5.7430   17.1120  -33.9400 C   0  0  0  0  0  0  0  0  0  0  0  0
   -5.4000   16.7084  -32.9759 H   0  0  0  0  0  0  0  0  0  0  0  0
   -6.6343   16.5730  -34.2937 H   0  0  0  0  0  0  0  0  0  0  0  0
   -4.6300   16.9370  -34.9780 C   0  0  0  0  0  0  0  0  0  0  0  0
   -4.4260   15.8640  -35.1088 H   0  0  0  0  0  0  0  0  0  0  0  0
   -4.9622   17.3854  -35.9259 H   0  0  0  0  0  0  0  0  0  0  0  0
   -3.3390   17.6430  -34.5290 C   0  0  0  0  0  0  0  0  0  0  0  0
   -2.6977   16.9105  -34.0170 H   0  0  0  0  0  0  0  0  0  0  0  0
   -2.8547   18.0511  -35.4284 H   0  0  0  0  0  0  0  0  0  0  0  0
   -3.6040   18.8180  -33.5720 C   0  0  0  0  0  0  0  0  0  0  0  0
   -3.6070   18.4447  -32.5373 H   0  0  0  0  0  0  0  0  0  0  0  0
   -2.8105   19.5671  -33.7110 H   0  0  0  0  0  0  0  0  0  0  0  0
   -4.9580   19.4810  -33.8700 C   0  0  0  0  0  0  0  0  0  0  0  0
   -5.1134   20.2998  -33.1521 H   0  0  0  0  0  0  0  0  0  0  0  0
   -4.9254   19.8464  -34.9070 H   0  0  0  0  0  0  0  0  0  0  0  0
   -6.0470   21.2030  -31.4280 C   0  0  0  0  0  0  0  0  0  0  0  0
   -5.0643   20.7128  -31.3649 H   0  0  0  0  0  0  0  0  0  0  0  0
   -6.1740   22.5530  -31.0600 C   0  0  0  0  0  0  0  0  0  0  0  0
   -4.9940   23.2430  -30.5040 C   0  0  0  0  0  0  0  0  0  0  0  0
   -4.6470   24.5080  -30.8430 N   0  0  0  0  0  0  0  0  0  0  0  0
   -3.4930   24.9030  -30.3080 N   0  0  0  0  0  0  0  0  0  0  0  0
   -2.9070   23.9450  -29.5580 C   0  0  0  0  0  0  0  0  0  0  0  0
   -1.7750   24.0950  -28.9380 N   0  0  0  0  0  0  0  0  0  0  0  0
   -0.9730   25.3170  -28.9710 C   0  0  0  0  0  0  0  0  0  0  0  0
   -1.4142   26.0190  -29.6939 H   0  0  0  0  0  0  0  0  0  0  0  0
    0.0539   25.0580  -29.2683 H   0  0  0  0  0  0  0  0  0  0  0  0
   -0.9340   25.9740  -27.5950 C   0  0  0  0  0  0  0  0  0  0  0  0
   -0.9801   25.1980  -26.8167 H   0  0  0  0  0  0  0  0  0  0  0  0
   -0.0003   26.5457  -27.4880 H   0  0  0  0  0  0  0  0  0  0  0  0
   -1.7935   26.6521  -27.4880 H   0  0  0  0  0  0  0  0  0  0  0  0
   -3.8120   22.5300  -29.5270 S   0  0  0  0  0  0  0  0  0  0  0  0
  1  2  1  0
  2  3  1  0
  3  4  2  0
  4  5  1  0
  4  6  1  0
  6  7  1  0
  6  8  2  0
  8  9  1  0
  9 10  2  0
  9 11  2  0
  9 12  1  0
 12 13  1  0
 13 14  1  0
 13 15  1  0
 13 16  1  0
 16 17  1  0
 16 18  1  0
 16 19  1  0
 19 20  1  0
 19 21  1  0
 19 22  1  0
 22 23  1  0
 22 24  1  0
 22 25  1  0
 25 26  1  0
 25 27  1  0
  8 28  1  0
 28 29  1  0
 28 30  2  0
 30 31  1  0
 31 32  2  0
 32 33  1  0
 33 34  1  0
 34 35  2  0
 35 36  1  0
 36 37  1  0
 36 38  1  0
 36 39  1  0
 39 40  1  0
 39 41  1  0
 39 42  1  0
 34 43  1  0
 30  3  1  0
 43 31  1  0
 25 12  1  0
M  CHG  1  33  -1
M  END
>  <UniqueID>  (40) 
39

>  <SMILES>  (40) 
CC/N=c1\[n-]nc(-c2cc(S(=O)(=O)N3CCCCC3)ccc2O)s1

>  <Energy>  (40) 
85.8140748920958

>  <Genealogy>  (40) 
CCN=c1[n-]nc(-c2cc(S(=O)(=O)N3CCCCC3)ccc2O)s1 (protonated)
CC/N=c1\[n-]nc(-c2cc(S(=O)(=O)N3CCCCC3)ccc2O)s1 (cis-trans isomerization)
CC/N=c1\[n-]nc(-c2cc(S(=O)(=O)N3CCCCC3)ccc2O)s1 (3D coordinates assigned)
CC/N=c1\[n-]nc(-c2cc(S(=O)(=O)N3CCCCC3)ccc2O)s1 (nonaromatic ring conformer: 85.8140748920958 kcal/mol)

>  <smiles>  (40) 
CCN=c1[nH]nc(-c2cc(S(=O)(=O)N3CCCCC3)ccc2O)s1

>  <score_type>  (40) 
oracle

>  <origin>  (40) 
adgpu

>  <m_score__min__energy>  (40) 
-10.4

>  <m_primary>  (40) 
energy

$$$$
40:0
     RDKit          3D

 64 68  0  0  0  0  0  0  0  0999 V2000
    1.8470   17.0120  -28.0960 O   0  0  0  0  0  0  0  0  0  0  0  0
    1.1000   18.0250  -28.0910 C   0  0  0  0  0  0  0  0  0  0  0  0
    1.6180   19.3510  -28.5450 C   0  0  0  0  0  0  0  0  0  0  0  0
    0.5100   20.2010  -29.1830 C   0  0  0  0  0  0  0  0  0  0  0  0
   -0.8010   20.1780  -28.4140 C   0  0  0  0  0  0  0  0  0  0  0  0
   -1.1280   19.0320  -27.6470 C   0  0  0  0  0  0  0  0  0  0  0  0
   -2.3510   18.9510  -26.9780 C   0  0  0  0  0  0  0  0  0  0  0  0
   -3.2700   19.9920  -27.0710 C   0  0  0  0  0  0  0  0  0  0  0  0
   -2.9860   21.1080  -27.8560 C   0  0  0  0  0  0  0  0  0  0  0  0
   -1.7690   21.2110  -28.5500 C   0  0  0  0  0  0  0  0  0  0  0  0
   -1.5190   22.6450  -29.5620 S   0  0  0  0  0  0  0  0  0  0  0  0
   -0.0460   22.8610  -29.7730 O   0  0  0  0  0  0  0  0  0  0  0  0
   -2.0640   23.8760  -28.8940 O   0  0  0  0  0  0  0  0  0  0  0  0
   -2.2630   22.3950  -31.1060 N   0  0  0  0  0  0  0  0  0  0  0  0
   -2.2090   21.1600  -31.8210 C   0  0  0  0  0  0  0  0  0  0  0  0
   -3.3940   20.4350  -31.9990 C   0  0  0  0  0  0  0  0  0  0  0  0
   -3.3840   19.1840  -32.6370 C   0  0  0  0  0  0  0  0  0  0  0  0
   -4.6320   18.4020  -32.7680 C   0  0  0  0  0  0  0  0  0  0  0  0
   -4.5790   17.1550  -32.9510 O   0  0  0  0  0  0  0  0  0  0  0  0
   -5.9100   19.0430  -32.6710 N   0  0  0  0  0  0  0  0  0  0  0  0
   -6.3310   19.9900  -33.7050 C   0  0  0  0  0  0  0  0  0  0  0  0
   -6.9470   21.2210  -33.0400 C   0  0  0  0  0  0  0  0  0  0  0  0
   -8.1420   20.8530  -32.1210 C   0  0  0  0  0  0  0  0  0  0  0  0
   -8.2950   21.8230  -30.9210 C   0  0  0  0  0  0  0  0  0  0  0  0
   -7.1270   22.7630  -30.7100 C   0  0  0  0  0  0  0  0  0  0  0  0
   -7.2190   24.1130  -31.0910 C   0  0  0  0  0  0  0  0  0  0  0  0
   -6.1360   24.9770  -30.9000 C   0  0  0  0  0  0  0  0  0  0  0  0
   -4.9540   24.5020  -30.3250 C   0  0  0  0  0  0  0  0  0  0  0  0
   -3.9030   25.3400  -30.1480 F   0  0  0  0  0  0  0  0  0  0  0  0
   -4.8610   23.1680  -29.9190 C   0  0  0  0  0  0  0  0  0  0  0  0
   -5.9450   22.3050  -30.0980 C   0  0  0  0  0  0  0  0  0  0  0  0
   -8.1860   19.3520  -31.7160 C   0  0  0  0  0  0  0  0  0  0  0  0
   -6.7980   18.7110  -31.5520 C   0  0  0  0  0  0  0  0  0  0  0  0
   -2.1670   18.6670  -33.1060 C   0  0  0  0  0  0  0  0  0  0  0  0
   -0.9790   19.3820  -32.9270 C   0  0  0  0  0  0  0  0  0  0  0  0
   -0.9860   20.6120  -32.2590 C   0  0  0  0  0  0  0  0  0  0  0  0
    0.2340   21.2400  -32.0070 O   0  0  0  0  0  0  0  0  0  0  0  0
   -0.2220   17.9280  -27.5660 N   0  0  0  0  0  0  0  0  0  0  0  0
    2.0275   19.8903  -27.6781 H   0  0  0  0  0  0  0  0  0  0  0  0
    2.3968   19.1759  -29.3018 H   0  0  0  0  0  0  0  0  0  0  0  0
    0.8607   21.2421  -29.2394 H   0  0  0  0  0  0  0  0  0  0  0  0
    0.3071   19.7706  -30.1747 H   0  0  0  0  0  0  0  0  0  0  0  0
   -2.5888   18.0618  -26.3757 H   0  0  0  0  0  0  0  0  0  0  0  0
   -4.2225   19.9338  -26.5238 H   0  0  0  0  0  0  0  0  0  0  0  0
   -3.7249   21.9192  -27.9332 H   0  0  0  0  0  0  0  0  0  0  0  0
   -4.3448   20.8509  -31.6343 H   0  0  0  0  0  0  0  0  0  0  0  0
   -5.4590   20.2929  -34.3033 H   0  0  0  0  0  0  0  0  0  0  0  0
   -7.0747   19.5138  -34.3609 H   0  0  0  0  0  0  0  0  0  0  0  0
   -6.1757   21.7206  -32.4355 H   0  0  0  0  0  0  0  0  0  0  0  0
   -7.3226   21.8823  -33.8347 H   0  0  0  0  0  0  0  0  0  0  0  0
   -9.0408   20.9961  -32.7388 H   0  0  0  0  0  0  0  0  0  0  0  0
   -9.1974   22.4303  -31.0851 H   0  0  0  0  0  0  0  0  0  0  0  0
   -8.3522   21.1940  -30.0204 H   0  0  0  0  0  0  0  0  0  0  0  0
   -8.1480   24.4919  -31.5419 H   0  0  0  0  0  0  0  0  0  0  0  0
   -6.2146   26.0316  -31.2027 H   0  0  0  0  0  0  0  0  0  0  0  0
   -3.9336   22.7972  -29.4581 H   0  0  0  0  0  0  0  0  0  0  0  0
   -5.8744   21.2611  -29.7586 H   0  0  0  0  0  0  0  0  0  0  0  0
   -8.7223   19.2668  -30.7594 H   0  0  0  0  0  0  0  0  0  0  0  0
   -8.6916   18.8153  -32.5323 H   0  0  0  0  0  0  0  0  0  0  0  0
   -6.3455   19.0754  -30.6179 H   0  0  0  0  0  0  0  0  0  0  0  0
   -6.9260   17.6187  -31.5290 H   0  0  0  0  0  0  0  0  0  0  0  0
   -2.1474   17.6934  -33.6176 H   0  0  0  0  0  0  0  0  0  0  0  0
   -0.0328   18.9754  -33.3136 H   0  0  0  0  0  0  0  0  0  0  0  0
    0.3160   22.0460  -31.4000 H   0  0  0  0  0  0  0  0  0  0  0  0
  1  2  2  0
  2  3  1  0
  3  4  1  0
  4  5  1  0
  5  6  2  0
  6  7  1  0
  7  8  2  0
  8  9  1  0
  9 10  2  0
 10 11  1  0
 11 12  2  0
 11 13  2  0
 11 14  1  0
 14 15  1  0
 15 16  2  0
 16 17  1  0
 17 18  1  0
 18 19  2  0
 18 20  1  0
 20 21  1  0
 21 22  1  0
 22 23  1  0
 23 24  1  0
 24 25  1  0
 25 26  2  0
 26 27  1  0
 27 28  2  0
 28 29  1  0
 28 30  1  0
 30 31  2  0
 23 32  1  0
 32 33  1  0
 17 34  2  0
 34 35  1  0
 35 36  2  0
 36 37  1  0
  6 38  1  0
 38  2  1  0
 10  5  1  0
 36 15  1  0
 33 20  1  0
 31 25  1  0
  3 39  1  0
  3 40  1  0
  4 41  1  0
  4 42  1  0
  7 43  1  0
  8 44  1  0
  9 45  1  0
 16 46  1  0
 21 47  1  0
 21 48  1  0
 22 49  1  0
 22 50  1  0
 23 51  1  0
 24 52  1  0
 24 53  1  0
 26 54  1  0
 27 55  1  0
 30 56  1  0
 31 57  1  0
 32 58  1  0
 32 59  1  0
 33 60  1  0
 33 61  1  0
 34 62  1  0
 35 63  1  0
 37 64  1  0
M  CHG  2  14  -1  38  -1
M  END
>  <UniqueID>  (41) 
40

>  <SMILES>  (41) 
O=C1CCc2c(cccc2S(=O)(=O)[N-]c2cc(C(=O)N3CCC(Cc4ccc(F)cc4)CC3)ccc2O)[N-]1

>  <Energy>  (41) 
83.67562755858461

>  <Genealogy>  (41) 
O=C1CCc2c(cccc2S(=O)(=O)[N-]c2cc(C(=O)N3CCC(Cc4ccc(F)cc4)CC3)ccc2O)[N-]1 (protonated)
O=C1CCc2c(cccc2S(=O)(=O)[N-]c2cc(C(=O)N3CCC(Cc4ccc(F)cc4)CC3)ccc2O)[N-]1 (3D coordinates assigned)
O=C1CCc2c(cccc2S(=O)(=O)[N-]c2cc(C(=O)N3CCC(Cc4ccc(F)cc4)CC3)ccc2O)[N-]1 (nonaromatic ring conformer: 83.67562755858461 kcal/mol)

>  <smiles>  (41) 
O=C1CCc2c(cccc2S(=O)(=O)Nc2cc(C(=O)N3CCC(Cc4ccc(F)cc4)CC3)ccc2O)N1

>  <score_type>  (41) 
oracle

>  <origin>  (41) 
adgpu

>  <m_score__min__energy>  (41) 
-12.5

>  <m_primary>  (41) 
energy

$$$$
41:0
     RDKit          3D

 53 56  0  0  0  0  0  0  0  0999 V2000
   -6.1072   18.5612  -35.4330 H   0  0  0  0  0  0  0  0  0  0  0  0
   -5.5720   17.7690  -34.8890 C   0  0  0  0  0  0  0  0  0  0  0  0
   -6.2800   16.6810  -34.5460 C   0  0  0  0  0  0  0  0  0  0  0  0
   -7.3419   16.6617  -34.8323 H   0  0  0  0  0  0  0  0  0  0  0  0
   -5.7560   15.5070  -33.8170 C   0  0  0  0  0  0  0  0  0  0  0  0
   -5.6940   14.3060  -34.5410 C   0  0  0  0  0  0  0  0  0  0  0  0
   -6.1407   14.2541  -35.5449 H   0  0  0  0  0  0  0  0  0  0  0  0
   -5.0900   13.2070  -34.0190 N   0  0  0  0  0  0  0  0  0  0  0  0
   -5.0410   12.3320  -34.5870 H   0  0  0  0  0  0  0  0  0  0  0  0
   -4.5250   13.2290  -32.7860 C   0  0  0  0  0  0  0  0  0  0  0  0
   -4.0133   12.3346  -32.4011 H   0  0  0  0  0  0  0  0  0  0  0  0
   -4.5910   14.3810  -32.0060 C   0  0  0  0  0  0  0  0  0  0  0  0
   -4.1241   14.3937  -31.0101 H   0  0  0  0  0  0  0  0  0  0  0  0
   -5.2480   15.5240  -32.4810 C   0  0  0  0  0  0  0  0  0  0  0  0
   -5.3490   16.5280  -31.6500 N   0  0  0  0  0  0  0  0  0  0  0  0
   -6.1040   17.7420  -31.7480 C   0  0  0  0  0  0  0  0  0  0  0  0
   -5.4600   18.9690  -31.4690 C   0  0  0  0  0  0  0  0  0  0  0  0
   -4.3960   18.9737  -31.1901 H   0  0  0  0  0  0  0  0  0  0  0  0
   -6.1640   20.1830  -31.5440 C   0  0  0  0  0  0  0  0  0  0  0  0
   -5.6601   21.1433  -31.3595 H   0  0  0  0  0  0  0  0  0  0  0  0
   -7.5230   20.1320  -31.8600 C   0  0  0  0  0  0  0  0  0  0  0  0
   -8.1640   18.9380  -32.0670 C   0  0  0  0  0  0  0  0  0  0  0  0
   -7.4940   17.7190  -31.9980 C   0  0  0  0  0  0  0  0  0  0  0  0
   -8.0304   16.7683  -32.1339 H   0  0  0  0  0  0  0  0  0  0  0  0
   -9.4840   19.2180  -32.3530 C   0  0  0  0  0  0  0  0  0  0  0  0
  -10.2873   18.4979  -32.5678 H   0  0  0  0  0  0  0  0  0  0  0  0
   -9.5830   20.6050  -32.3120 C   0  0  0  0  0  0  0  0  0  0  0  0
  -10.5050   21.1748  -32.4998 H   0  0  0  0  0  0  0  0  0  0  0  0
   -8.3830   21.1540  -32.0080 N   0  0  0  0  0  0  0  0  0  0  0  0
   -8.0330   22.8490  -31.9060 S   0  0  0  0  0  0  0  0  0  0  0  0
   -7.6510   23.2010  -30.4960 O   0  0  0  0  0  0  0  0  0  0  0  0
   -6.8880   23.1840  -32.8190 O   0  0  0  0  0  0  0  0  0  0  0  0
   -9.4750   23.7840  -32.3670 C   0  0  0  0  0  0  0  0  0  0  0  0
   -9.9976   24.1229  -31.4603 H   0  0  0  0  0  0  0  0  0  0  0  0
   -9.1708   24.6572  -32.9628 H   0  0  0  0  0  0  0  0  0  0  0  0
  -10.1481   23.1500  -32.9628 H   0  0  0  0  0  0  0  0  0  0  0  0
   -4.1370   18.0020  -34.6030 C   0  0  0  0  0  0  0  0  0  0  0  0
   -3.1390   17.0690  -34.9390 C   0  0  0  0  0  0  0  0  0  0  0  0
   -3.4148   16.1264  -35.4343 H   0  0  0  0  0  0  0  0  0  0  0  0
   -1.7990   17.3350  -34.6460 C   0  0  0  0  0  0  0  0  0  0  0  0
   -1.0256   16.5929  -34.8932 H   0  0  0  0  0  0  0  0  0  0  0  0
   -1.4390   18.5410  -34.0400 C   0  0  0  0  0  0  0  0  0  0  0  0
   -0.3852   18.7383  -33.7940 H   0  0  0  0  0  0  0  0  0  0  0  0
   -2.4160   19.4990  -33.7450 C   0  0  0  0  0  0  0  0  0  0  0  0
   -1.9640   21.0170  -32.9760 S   0  0  0  0  0  0  0  0  0  0  0  0
   -1.0700   21.8080  -33.8880 O   0  0  0  0  0  0  0  0  0  0  0  0
   -1.2220   20.7340  -31.6990 O   0  0  0  0  0  0  0  0  0  0  0  0
   -3.4280   21.9590  -32.6170 C   0  0  0  0  0  0  0  0  0  0  0  0
   -3.5538   22.0400  -31.5272 H   0  0  0  0  0  0  0  0  0  0  0  0
   -3.3321   22.9653  -33.0508 H   0  0  0  0  0  0  0  0  0  0  0  0
   -4.3041   21.4547  -33.0508 H   0  0  0  0  0  0  0  0  0  0  0  0
   -3.7600   19.2300  -34.0380 C   0  0  0  0  0  0  0  0  0  0  0  0
   -4.5267   19.9889  -33.8230 H   0  0  0  0  0  0  0  0  0  0  0  0
  1  2  1  0
  2  3  2  3
  3  4  1  0
  3  5  1  0
  5  6  2  0
  6  7  1  0
  6  8  1  0
  8  9  1  0
  8 10  1  0
 10 11  1  0
 10 12  2  0
 12 13  1  0
 12 14  1  0
 14 15  2  0
 15 16  1  0
 16 17  2  0
 17 18  1  0
 17 19  1  0
 19 20  1  0
 19 21  2  0
 21 22  1  0
 22 23  2  0
 23 24  1  0
 22 25  1  0
 25 26  1  0
 25 27  2  0
 27 28  1  0
 27 29  1  0
 29 30  1  0
 30 31  2  0
 30 32  2  0
 30 33  1  0
 33 34  1  0
 33 35  1  0
 33 36  1  0
  2 37  1  0
 37 38  2  0
 38 39  1  0
 38 40  1  0
 40 41  1  0
 40 42  2  0
 42 43  1  0
 42 44  1  0
 44 45  1  0
 45 46  2  0
 45 47  2  0
 45 48  1  0
 48 49  1  0
 48 50  1  0
 48 51  1  0
 44 52  2  0
 52 53  1  0
 14  5  1  0
 23 16  1  0
 52 37  1  0
 29 21  1  0
M  END
>  <UniqueID>  (42) 
41

>  <SMILES>  (42) 
CS(=O)(=O)c1cccc(C=Cc2c[nH]cc/c2=N/c2ccc3c(ccn3S(C)(=O)=O)c2)c1

>  <Energy>  (42) 
107.54843530928876

>  <Genealogy>  (42) 
CS(=O)(=O)c1cccc(C=Cc2c[nH]cc/c2=N/c2ccc3c(ccn3S(C)(=O)=O)c2)c1 (cis-trans isomerization)
CS(=O)(=O)c1cccc(C=Cc2c[nH]cc/c2=N/c2ccc3c(ccn3S(C)(=O)=O)c2)c1 (3D coordinates assigned)
CS(=O)(=O)c1cccc(C=Cc2c[nH]cc/c2=N/c2ccc3c(ccn3S(C)(=O)=O)c2)c1 (optimized conformer: 107.54843530928876 kcal/mol)

>  <smiles>  (42) 
CS(=O)(=O)c1cccc(C=Cc2c[nH]ccc2=Nc2ccc3c(ccn3S(C)(=O)=O)c2)c1

>  <score_type>  (42) 
oracle

>  <origin>  (42) 
adgpu

>  <m_score__min__energy>  (42) 
-10.49

>  <m_primary>  (42) 
energy

$$$$
42:0
     RDKit          3D

 46 48  0  0  0  0  0  0  0  0999 V2000
   -4.0960   24.7150  -26.7350 C   0  0  0  0  0  0  0  0  0  0  0  0
   -2.6670   25.2520  -26.7780 C   0  0  0  0  0  0  0  0  0  0  0  0
   -2.0070   25.0550  -28.1510 C   0  0  0  0  0  0  0  0  0  0  0  0
   -2.4890   23.8250  -28.8130 N   0  0  0  0  0  0  0  0  0  0  0  0
   -3.2410   23.9080  -29.9650 C   0  0  0  0  0  0  0  0  0  0  0  0
   -3.5510   25.0200  -30.4750 O   0  0  0  0  0  0  0  0  0  0  0  0
   -3.6480   22.7320  -30.5670 C   0  0  0  0  0  0  0  0  0  0  0  0
   -4.3490   22.5480  -31.6930 N   0  0  0  0  0  0  0  0  0  0  0  0
   -4.4190   21.1980  -31.8060 C   0  0  0  0  0  0  0  0  0  0  0  0
   -5.0440   20.5050  -32.9740 C   0  0  0  0  0  0  0  0  0  0  0  0
   -6.4750   20.1690  -32.6600 C   0  0  0  0  0  0  0  0  0  0  0  0
   -7.3820   21.1850  -32.3170 C   0  0  0  0  0  0  0  0  0  0  0  0
   -8.7020   20.8690  -31.9830 C   0  0  0  0  0  0  0  0  0  0  0  0
   -9.1240   19.5360  -31.9830 C   0  0  0  0  0  0  0  0  0  0  0  0
   -8.2240   18.5180  -32.3090 C   0  0  0  0  0  0  0  0  0  0  0  0
   -6.9020   18.8310  -32.6430 C   0  0  0  0  0  0  0  0  0  0  0  0
   -3.7770   20.5320  -30.8100 N   0  0  0  0  0  0  0  0  0  0  0  0
   -3.3100   21.5350  -30.0440 C   0  0  0  0  0  0  0  0  0  0  0  0
   -2.5630   21.4210  -28.9120 N   0  0  0  0  0  0  0  0  0  0  0  0
   -2.1790   20.0900  -28.4080 C   0  0  0  0  0  0  0  0  0  0  0  0
   -3.0960   19.6390  -27.2610 C   0  0  0  0  0  0  0  0  0  0  0  0
   -2.4120   18.6480  -26.3230 C   0  0  0  0  0  0  0  0  0  0  0  0
   -2.1540   22.5850  -28.2910 C   0  0  0  0  0  0  0  0  0  0  0  0
   -1.4590   22.5170  -27.2380 O   0  0  0  0  0  0  0  0  0  0  0  0
   -4.4118   24.5963  -25.6880 H   0  0  0  0  0  0  0  0  0  0  0  0
   -4.7687   25.4217  -27.2430 H   0  0  0  0  0  0  0  0  0  0  0  0
   -4.1368   23.7402  -27.2430 H   0  0  0  0  0  0  0  0  0  0  0  0
   -2.6869   26.3273  -26.5469 H   0  0  0  0  0  0  0  0  0  0  0  0
   -2.0762   24.6910  -26.0389 H   0  0  0  0  0  0  0  0  0  0  0  0
   -2.2433   25.9198  -28.7884 H   0  0  0  0  0  0  0  0  0  0  0  0
   -0.9211   24.9632  -28.0015 H   0  0  0  0  0  0  0  0  0  0  0  0
   -4.7310   23.2710  -32.3430 H   0  0  0  0  0  0  0  0  0  0  0  0
   -5.0083   21.1658  -33.8527 H   0  0  0  0  0  0  0  0  0  0  0  0
   -4.4909   19.5779  -33.1850 H   0  0  0  0  0  0  0  0  0  0  0  0
   -7.0520   22.2343  -32.3112 H   0  0  0  0  0  0  0  0  0  0  0  0
   -9.4092   21.6695  -31.7200 H   0  0  0  0  0  0  0  0  0  0  0  0
  -10.1646   19.2886  -31.7263 H   0  0  0  0  0  0  0  0  0  0  0  0
   -8.5554   17.4691  -32.3030 H   0  0  0  0  0  0  0  0  0  0  0  0
   -6.1946   18.0266  -32.8931 H   0  0  0  0  0  0  0  0  0  0  0  0
   -2.2494   19.3622  -29.2298 H   0  0  0  0  0  0  0  0  0  0  0  0
   -1.1493   20.1485  -28.0255 H   0  0  0  0  0  0  0  0  0  0  0  0
   -3.3972   20.5238  -26.6810 H   0  0  0  0  0  0  0  0  0  0  0  0
   -3.9654   19.1332  -27.7064 H   0  0  0  0  0  0  0  0  0  0  0  0
   -2.6097   18.9345  -25.2795 H   0  0  0  0  0  0  0  0  0  0  0  0
   -2.8058   17.6375  -26.5067 H   0  0  0  0  0  0  0  0  0  0  0  0
   -1.3275   18.6579  -26.5067 H   0  0  0  0  0  0  0  0  0  0  0  0
  1  2  1  0
  2  3  1  0
  3  4  1  0
  4  5  1  0
  5  6  2  0
  5  7  1  0
  7  8  1  0
  8  9  1  0
  9 10  1  0
 10 11  1  0
 11 12  2  0
 12 13  1  0
 13 14  2  0
 14 15  1  0
 15 16  2  0
  9 17  2  0
 17 18  1  0
 18 19  1  0
 19 20  1  0
 20 21  1  0
 21 22  1  0
 19 23  1  0
 23 24  2  0
 23  4  1  0
 18  7  2  0
 16 11  1  0
  1 25  1  0
  1 26  1  0
  1 27  1  0
  2 28  1  0
  2 29  1  0
  3 30  1  0
  3 31  1  0
  8 32  1  0
 10 33  1  0
 10 34  1  0
 12 35  1  0
 13 36  1  0
 14 37  1  0
 15 38  1  0
 16 39  1  0
 20 40  1  0
 20 41  1  0
 21 42  1  0
 21 43  1  0
 22 44  1  0
 22 45  1  0
 22 46  1  0
M  END
>  <UniqueID>  (43) 
42

>  <SMILES>  (43) 
CCCn1c(=O)c2[nH]c(Cc3ccccc3)nc2n(CCC)c1=O

>  <Energy>  (43) 
79.89997291549803

>  <Genealogy>  (43) 
CCCn1c(=O)c2[nH]c(Cc3ccccc3)nc2n(CCC)c1=O (3D coordinates assigned)
CCCn1c(=O)c2[nH]c(Cc3ccccc3)nc2n(CCC)c1=O (optimized conformer: 79.89997291549803 kcal/mol)

>  <smiles>  (43) 
CCCn1c(=O)c2[nH]c(Cc3ccccc3)nc2n(CCC)c1=O

>  <score_type>  (43) 
oracle

>  <origin>  (43) 
adgpu

>  <m_score__min__energy>  (43) 
-7.5300000000000002

>  <m_primary>  (43) 
energy

$$$$
43:0
     RDKit          3D

 32 34  0  0  0  0  0  0  0  0999 V2000
   -3.8680   20.5850  -33.2310 C   0  0  0  0  0  0  0  0  0  0  0  0
   -5.2580   20.7170  -32.6970 C   0  0  0  0  0  0  0  0  0  0  0  0
   -6.1360   19.6280  -32.7280 C   0  0  0  0  0  0  0  0  0  0  0  0
   -7.4330   19.8000  -32.2320 C   0  0  0  0  0  0  0  0  0  0  0  0
   -8.4230   18.6800  -32.2860 C   0  0  0  0  0  0  0  0  0  0  0  0
   -7.8150   21.0150  -31.7610 N   0  0  0  0  0  0  0  0  0  0  0  0
   -6.9560   22.0670  -31.7530 C   0  0  0  0  0  0  0  0  0  0  0  0
   -7.5140   23.6670  -31.1720 S   0  0  0  0  0  0  0  0  0  0  0  0
   -5.9650   24.5360  -31.6030 C   0  0  0  0  0  0  0  0  0  0  0  0
   -4.9430   24.3620  -30.5260 C   0  0  0  0  0  0  0  0  0  0  0  0
   -3.8020   25.1000  -30.4710 N   0  0  0  0  0  0  0  0  0  0  0  0
   -3.1570   24.5550  -29.4300 C   0  0  0  0  0  0  0  0  0  0  0  0
   -1.9100   24.9070  -28.9200 C   0  0  0  0  0  0  0  0  0  0  0  0
   -1.4180   24.1680  -27.8270 C   0  0  0  0  0  0  0  0  0  0  0  0
   -2.1760   23.1050  -27.2840 C   0  0  0  0  0  0  0  0  0  0  0  0
   -3.4320   22.7760  -27.8280 C   0  0  0  0  0  0  0  0  0  0  0  0
   -3.8880   23.5340  -28.9050 C   0  0  0  0  0  0  0  0  0  0  0  0
   -5.0320   23.3850  -29.5850 N   0  0  0  0  0  0  0  0  0  0  0  0
   -5.6900   21.9160  -32.2200 N   0  0  0  0  0  0  0  0  0  0  0  0
   -3.1583   20.5176  -32.3933 H   0  0  0  0  0  0  0  0  0  0  0  0
   -3.7964   19.6760  -33.8463 H   0  0  0  0  0  0  0  0  0  0  0  0
   -3.6266   21.4643  -33.8463 H   0  0  0  0  0  0  0  0  0  0  0  0
   -5.8136   18.6576  -33.1335 H   0  0  0  0  0  0  0  0  0  0  0  0
   -8.6905   18.3774  -31.2628 H   0  0  0  0  0  0  0  0  0  0  0  0
   -9.3262   19.0143  -32.8174 H   0  0  0  0  0  0  0  0  0  0  0  0
   -7.9803   17.8247  -32.8174 H   0  0  0  0  0  0  0  0  0  0  0  0
   -5.5708   24.1255  -32.5443 H   0  0  0  0  0  0  0  0  0  0  0  0
   -6.1812   25.6087  -31.7148 H   0  0  0  0  0  0  0  0  0  0  0  0
   -1.3295   25.7335  -29.3558 H   0  0  0  0  0  0  0  0  0  0  0  0
   -0.4388   24.4190  -27.3933 H   0  0  0  0  0  0  0  0  0  0  0  0
   -1.7820   22.5319  -26.4317 H   0  0  0  0  0  0  0  0  0  0  0  0
   -4.0320   21.9503  -27.4178 H   0  0  0  0  0  0  0  0  0  0  0  0
  1  2  1  0
  2  3  2  0
  3  4  1  0
  4  5  1  0
  4  6  2  0
  6  7  1  0
  7  8  1  0
  8  9  1  0
  9 10  1  0
 10 11  2  0
 11 12  1  0
 12 13  2  0
 13 14  1  0
 14 15  2  0
 15 16  1  0
 16 17  2  0
 17 18  1  0
  7 19  2  0
 19  2  1  0
 18 10  1  0
 17 12  1  0
  1 20  1  0
  1 21  1  0
  1 22  1  0
  3 23  1  0
  5 24  1  0
  5 25  1  0
  5 26  1  0
  9 27  1  0
  9 28  1  0
 13 29  1  0
 14 30  1  0
 15 31  1  0
 16 32  1  0
M  CHG  1  18  -1
M  END
>  <UniqueID>  (44) 
43

>  <SMILES>  (44) 
Cc1cc(C)nc(SCc2nc3ccccc3[n-]2)n1

>  <Energy>  (44) 
61.1894721696577

>  <Genealogy>  (44) 
Cc1cc(C)nc(SCc2nc3ccccc3[n-]2)n1 (protonated)
Cc1cc(C)nc(SCc2nc3ccccc3[n-]2)n1 (3D coordinates assigned)
Cc1cc(C)nc(SCc2nc3ccccc3[n-]2)n1 (optimized conformer: 61.1894721696577 kcal/mol)

>  <smiles>  (44) 
Cc1cc(C)nc(SCc2nc3ccccc3[nH]2)n1

>  <score_type>  (44) 
oracle

>  <origin>  (44) 
adgpu

>  <m_score__min__energy>  (44) 
-8.1699999999999999

>  <m_primary>  (44) 
energy

$$$$
44:0
     RDKit          3D

 43 46  0  0  0  0  0  0  0  0999 V2000
   -6.5820   18.8720  -33.5170 C   0  0  0  0  0  0  0  0  0  0  0  0
   -7.2700   20.0610  -33.0270 N   0  0  0  0  0  0  0  0  0  0  0  0
   -8.6310   20.1060  -32.5880 C   0  0  0  0  0  0  0  0  0  0  0  0
   -9.4960   19.2330  -32.8650 O   0  0  0  0  0  0  0  0  0  0  0  0
   -8.8520   21.2810  -31.7590 C   0  0  0  0  0  0  0  0  0  0  0  0
   -9.9290   21.6350  -31.2110 O   0  0  0  0  0  0  0  0  0  0  0  0
   -7.5610   21.9420  -31.6710 C   0  0  0  0  0  0  0  0  0  0  0  0
   -7.1780   23.0800  -30.9650 C   0  0  0  0  0  0  0  0  0  0  0  0
   -5.8260   23.4680  -31.0120 C   0  0  0  0  0  0  0  0  0  0  0  0
   -5.2830   24.8690  -30.0910 S   0  0  0  0  0  0  0  0  0  0  0  0
   -4.2730   25.6570  -30.8770 O   0  0  0  0  0  0  0  0  0  0  0  0
   -6.4670   25.7440  -29.7920 O   0  0  0  0  0  0  0  0  0  0  0  0
   -4.5620   24.3570  -28.5970 N   0  0  0  0  0  0  0  0  0  0  0  0
   -3.4470   23.4610  -28.4790 C   0  0  0  0  0  0  0  0  0  0  0  0
   -3.6040   22.1500  -27.9920 C   0  0  0  0  0  0  0  0  0  0  0  0
   -2.4970   21.3010  -27.8520 C   0  0  0  0  0  0  0  0  0  0  0  0
   -1.2120   21.7700  -28.1840 C   0  0  0  0  0  0  0  0  0  0  0  0
   -1.0600   23.0630  -28.7020 C   0  0  0  0  0  0  0  0  0  0  0  0
   -2.1640   23.9100  -28.8440 C   0  0  0  0  0  0  0  0  0  0  0  0
   -1.9600   25.1970  -29.3450 O   0  0  0  0  0  0  0  0  0  0  0  0
   -0.0090   20.8590  -28.0870 C   0  0  0  0  0  0  0  0  0  0  0  0
   -0.2250   19.7500  -27.1470 N   0  0  0  0  0  0  0  0  0  0  0  0
   -1.4660   19.0330  -27.4660 C   0  0  0  0  0  0  0  0  0  0  0  0
   -2.6910   19.9330  -27.2500 C   0  0  0  0  0  0  0  0  0  0  0  0
   -4.8990   22.7150  -31.7680 C   0  0  0  0  0  0  0  0  0  0  0  0
   -5.3100   21.5680  -32.4680 C   0  0  0  0  0  0  0  0  0  0  0  0
   -6.6560   21.1970  -32.4070 C   0  0  0  0  0  0  0  0  0  0  0  0
   -6.2345   18.2715  -32.6634 H   0  0  0  0  0  0  0  0  0  0  0  0
   -7.2737   18.2740  -34.1286 H   0  0  0  0  0  0  0  0  0  0  0  0
   -5.7189   19.1737  -34.1286 H   0  0  0  0  0  0  0  0  0  0  0  0
   -7.9123   23.6597  -30.3864 H   0  0  0  0  0  0  0  0  0  0  0  0
   -4.6058   21.7875  -27.7183 H   0  0  0  0  0  0  0  0  0  0  0  0
   -0.0617   23.4158  -29.0002 H   0  0  0  0  0  0  0  0  0  0  0  0
   -2.6500   25.6740  -29.9120 H   0  0  0  0  0  0  0  0  0  0  0  0
    0.2010   20.4427  -29.0833 H   0  0  0  0  0  0  0  0  0  0  0  0
    0.8368   21.4560  -27.7153 H   0  0  0  0  0  0  0  0  0  0  0  0
   -0.2900   20.1340  -26.1740 H   0  0  0  0  0  0  0  0  0  0  0  0
   -1.4361   18.7121  -28.5177 H   0  0  0  0  0  0  0  0  0  0  0  0
   -1.5490   18.1615  -26.8000 H   0  0  0  0  0  0  0  0  0  0  0  0
   -3.5669   19.4597  -27.7178 H   0  0  0  0  0  0  0  0  0  0  0  0
   -2.8373   20.0551  -26.1666 H   0  0  0  0  0  0  0  0  0  0  0  0
   -3.8458   23.0299  -31.8088 H   0  0  0  0  0  0  0  0  0  0  0  0
   -4.5889   20.9758  -33.0505 H   0  0  0  0  0  0  0  0  0  0  0  0
  1  2  1  0
  2  3  1  0
  3  4  2  0
  3  5  1  0
  5  6  2  0
  5  7  1  0
  7  8  2  0
  8  9  1  0
  9 10  1  0
 10 11  2  0
 10 12  2  0
 10 13  1  0
 13 14  1  0
 14 15  2  0
 15 16  1  0
 16 17  2  0
 17 18  1  0
 18 19  2  0
 19 20  1  0
 17 21  1  0
 21 22  1  0
 22 23  1  0
 23 24  1  0
  9 25  2  0
 25 26  1  0
 26 27  2  0
 27  2  1  0
 27  7  1  0
 19 14  1  0
 24 16  1  0
  1 28  1  0
  1 29  1  0
  1 30  1  0
  8 31  1  0
 15 32  1  0
 18 33  1  0
 20 34  1  0
 21 35  1  0
 21 36  1  0
 22 37  1  0
 23 38  1  0
 23 39  1  0
 24 40  1  0
 24 41  1  0
 25 42  1  0
 26 43  1  0
M  CHG  1  13  -1
M  END
>  <UniqueID>  (45) 
44

>  <SMILES>  (45) 
CN1C(=O)C(=O)c2cc(S(=O)(=O)[N-]c3cc4c(cc3O)CNCC4)ccc21

>  <Energy>  (45) 
82.56892755318682

>  <Genealogy>  (45) 
CN1C(=O)C(=O)c2cc(S(=O)(=O)[N-]c3cc4c(cc3O)CNCC4)ccc21 (protonated)
CN1C(=O)C(=O)c2cc(S(=O)(=O)[N-]c3cc4c(cc3O)CNCC4)ccc21 (3D coordinates assigned)
CN1C(=O)C(=O)c2cc(S(=O)(=O)[N-]c3cc4c(cc3O)CNCC4)ccc21 (nonaromatic ring conformer: 82.56892755318682 kcal/mol)

>  <smiles>  (45) 
CN1C(=O)C(=O)c2cc(S(=O)(=O)Nc3cc4c(cc3O)CNCC4)ccc21

>  <score_type>  (45) 
oracle

>  <origin>  (45) 
adgpu

>  <m_score__min__energy>  (45) 
-12.83

>  <m_primary>  (45) 
energy

$$$$
45:0
     RDKit          3D

 39 41  0  0  0  0  0  0  0  0999 V2000
   -9.2150   22.0150  -32.1400 C   0  0  0  0  0  0  0  0  0  0  0  0
   -7.8080   22.3910  -31.7890 C   0  0  0  0  0  0  0  0  0  0  0  0
   -7.4660   23.6420  -31.2530 C   0  0  0  0  0  0  0  0  0  0  0  0
   -6.1110   23.7640  -30.9800 C   0  0  0  0  0  0  0  0  0  0  0  0
   -5.3280   25.1590  -30.2640 S   0  0  0  0  0  0  0  0  0  0  0  0
   -5.7370   25.3140  -28.8250 O   0  0  0  0  0  0  0  0  0  0  0  0
   -5.7390   26.3880  -31.0230 O   0  0  0  0  0  0  0  0  0  0  0  0
   -3.6050   24.9770  -30.3580 N   0  0  0  0  0  0  0  0  0  0  0  0
   -2.8020   24.2280  -29.4320 C   0  0  0  0  0  0  0  0  0  0  0  0
   -3.1700   22.9400  -29.0020 C   0  0  0  0  0  0  0  0  0  0  0  0
   -2.3550   22.2250  -28.1120 C   0  0  0  0  0  0  0  0  0  0  0  0
   -1.1810   22.8210  -27.6050 C   0  0  0  0  0  0  0  0  0  0  0  0
   -0.8140   24.1010  -28.0410 C   0  0  0  0  0  0  0  0  0  0  0  0
   -1.6190   24.8020  -28.9440 C   0  0  0  0  0  0  0  0  0  0  0  0
   -1.2330   26.0690  -29.3630 O   0  0  0  0  0  0  0  0  0  0  0  0
   -0.2640   22.0560  -26.6790 C   0  0  0  0  0  0  0  0  0  0  0  0
   -0.9570   20.9580  -25.9900 N   0  0  0  0  0  0  0  0  0  0  0  0
   -1.6590   20.1010  -26.9540 C   0  0  0  0  0  0  0  0  0  0  0  0
   -2.7990   20.8660  -27.6380 C   0  0  0  0  0  0  0  0  0  0  0  0
   -5.3320   22.3310  -31.3780 S   0  0  0  0  0  0  0  0  0  0  0  0
   -6.7140   21.5280  -31.9030 C   0  0  0  0  0  0  0  0  0  0  0  0
   -6.7190   20.1430  -32.4770 C   0  0  0  0  0  0  0  0  0  0  0  0
   -7.7150   20.0380  -33.4550 O   0  0  0  0  0  0  0  0  0  0  0  0
   -9.7941   21.8602  -31.2177 H   0  0  0  0  0  0  0  0  0  0  0  0
   -9.6739   22.8220  -32.7300 H   0  0  0  0  0  0  0  0  0  0  0  0
   -9.2101   21.0866  -32.7300 H   0  0  0  0  0  0  0  0  0  0  0  0
   -8.1967   24.4432  -31.0683 H   0  0  0  0  0  0  0  0  0  0  0  0
   -4.1049   22.4897  -29.3669 H   0  0  0  0  0  0  0  0  0  0  0  0
    0.1151   24.5581  -27.6698 H   0  0  0  0  0  0  0  0  0  0  0  0
    0.5646   21.6367  -27.2686 H   0  0  0  0  0  0  0  0  0  0  0  0
    0.1019   22.7561  -25.9135 H   0  0  0  0  0  0  0  0  0  0  0  0
   -1.6540   21.3660  -25.3230 H   0  0  0  0  0  0  0  0  0  0  0  0
   -0.9455   19.7590  -27.7182 H   0  0  0  0  0  0  0  0  0  0  0  0
   -2.0858   19.2423  -26.4151 H   0  0  0  0  0  0  0  0  0  0  0  0
   -3.1495   20.2841  -28.5032 H   0  0  0  0  0  0  0  0  0  0  0  0
   -3.6055   21.0067  -26.9033 H   0  0  0  0  0  0  0  0  0  0  0  0
   -5.7390   19.9320  -32.9299 H   0  0  0  0  0  0  0  0  0  0  0  0
   -6.9206   19.4183  -31.6744 H   0  0  0  0  0  0  0  0  0  0  0  0
   -7.2840   19.6650  -34.2680 H   0  0  0  0  0  0  0  0  0  0  0  0
  1  2  1  0
  2  3  1  0
  3  4  2  0
  4  5  1  0
  5  6  2  0
  5  7  2  0
  5  8  1  0
  8  9  1  0
  9 10  2  0
 10 11  1  0
 11 12  2  0
 12 13  1  0
 13 14  2  0
 14 15  1  0
 12 16  1  0
 16 17  1  0
 17 18  1  0
 18 19  1  0
  4 20  1  0
 20 21  1  0
 21 22  1  0
 22 23  1  0
 21  2  2  0
 14  9  1  0
 19 11  1  0
  1 24  1  0
  1 25  1  0
  1 26  1  0
  3 27  1  0
 10 28  1  0
 13 29  1  0
 16 30  1  0
 16 31  1  0
 17 32  1  0
 18 33  1  0
 18 34  1  0
 19 35  1  0
 19 36  1  0
 22 37  1  0
 22 38  1  0
 23 39  1  0
M  CHG  2   8  -1  15  -1
M  END
>  <UniqueID>  (46) 
45

>  <SMILES>  (46) 
Cc1cc(S(=O)(=O)[N-]c2cc3c(cc2[O-])CNCC3)sc1CO

>  <Energy>  (46) 
69.30600747186821

>  <Genealogy>  (46) 
Cc1cc(S(=O)(=O)[N-]c2cc3c(cc2[O-])CNCC3)sc1CO (protonated)
Cc1cc(S(=O)(=O)[N-]c2cc3c(cc2[O-])CNCC3)sc1CO (3D coordinates assigned)
Cc1cc(S(=O)(=O)[N-]c2cc3c(cc2[O-])CNCC3)sc1CO (nonaromatic ring conformer: 69.30600747186821 kcal/mol)

>  <smiles>  (46) 
Cc1cc(S(=O)(=O)Nc2cc3c(cc2O)CNCC3)sc1CO

>  <score_type>  (46) 
oracle

>  <origin>  (46) 
adgpu

>  <m_score__min__energy>  (46) 
-13.140000000000001

>  <m_primary>  (46) 
energy

$$$$
46:0
     RDKit          3D

 57 60  0  0  0  0  0  0  0  0999 V2000
   -0.1560   23.9760  -29.4710 O   0  0  0  0  0  0  0  0  0  0  0  0
   -0.7220   24.6700  -28.5880 C   0  0  0  0  0  0  0  0  0  0  0  0
   -1.6180   25.6590  -28.9730 O   0  0  0  0  0  0  0  0  0  0  0  0
   -0.4670   24.4210  -27.1490 C   0  0  0  0  0  0  0  0  0  0  0  0
   -0.2080   23.0960  -26.7200 C   0  0  0  0  0  0  0  0  0  0  0  0
   -0.1200   22.0170  -27.6640 N   0  0  0  0  0  0  0  0  0  0  0  0
   -1.3910   20.8420  -27.7750 S   0  0  0  0  0  0  0  0  0  0  0  0
   -1.7970   20.3920  -26.4000 O   0  0  0  0  0  0  0  0  0  0  0  0
   -0.9090   19.6510  -28.5550 O   0  0  0  0  0  0  0  0  0  0  0  0
   -2.7470   21.5800  -28.6190 C   0  0  0  0  0  0  0  0  0  0  0  0
   -3.7960   22.1730  -27.8990 C   0  0  0  0  0  0  0  0  0  0  0  0
   -4.7630   22.9310  -28.5650 C   0  0  0  0  0  0  0  0  0  0  0  0
   -4.6890   23.1000  -29.9550 C   0  0  0  0  0  0  0  0  0  0  0  0
   -5.8130   24.1900  -30.7620 S   0  0  0  0  0  0  0  0  0  0  0  0
   -5.0520   25.3920  -31.2440 O   0  0  0  0  0  0  0  0  0  0  0  0
   -6.8560   24.6530  -29.7840 O   0  0  0  0  0  0  0  0  0  0  0  0
   -6.5680   23.3980  -32.1330 N   0  0  0  0  0  0  0  0  0  0  0  0
   -6.0900   22.0120  -32.3210 C   0  0  0  0  0  0  0  0  0  0  0  0
   -6.6140   21.0500  -31.2400 C   0  0  0  0  0  0  0  0  0  0  0  0
   -8.0760   21.3280  -30.8440 C   0  0  0  0  0  0  0  0  0  0  0  0
   -8.7940   22.1930  -31.8810 C   0  0  0  0  0  0  0  0  0  0  0  0
   -8.0470   23.5250  -32.1030 C   0  0  0  0  0  0  0  0  0  0  0  0
   -3.6630   22.4740  -30.6790 C   0  0  0  0  0  0  0  0  0  0  0  0
   -2.6960   21.7180  -30.0140 C   0  0  0  0  0  0  0  0  0  0  0  0
   -0.0290   22.8290  -25.3570 C   0  0  0  0  0  0  0  0  0  0  0  0
   -0.1260   23.8450  -24.4140 C   0  0  0  0  0  0  0  0  0  0  0  0
   -0.4070   25.1580  -24.8070 C   0  0  0  0  0  0  0  0  0  0  0  0
   -0.5460   25.4710  -26.1880 C   0  0  0  0  0  0  0  0  0  0  0  0
   -0.9540   26.8780  -26.6080 C   0  0  0  0  0  0  0  0  0  0  0  0
   -0.6320   27.9370  -25.5510 C   0  0  0  0  0  0  0  0  0  0  0  0
   -1.1640   27.5010  -24.1880 C   0  0  0  0  0  0  0  0  0  0  0  0
   -0.4570   26.2210  -23.7310 C   0  0  0  0  0  0  0  0  0  0  0  0
    0.5620   22.0680  -28.4530 H   0  0  0  0  0  0  0  0  0  0  0  0
   -3.8570   22.0409  -26.8087 H   0  0  0  0  0  0  0  0  0  0  0  0
   -5.5832   23.3956  -27.9980 H   0  0  0  0  0  0  0  0  0  0  0  0
   -6.4282   21.6537  -33.3045 H   0  0  0  0  0  0  0  0  0  0  0  0
   -4.9925   22.0268  -32.2481 H   0  0  0  0  0  0  0  0  0  0  0  0
   -6.5442   20.0211  -31.6228 H   0  0  0  0  0  0  0  0  0  0  0  0
   -5.9964   21.1969  -30.3417 H   0  0  0  0  0  0  0  0  0  0  0  0
   -8.6076   20.3694  -30.7512 H   0  0  0  0  0  0  0  0  0  0  0  0
   -8.0722   21.8739  -29.8890 H   0  0  0  0  0  0  0  0  0  0  0  0
   -8.8438   21.6454  -32.8337 H   0  0  0  0  0  0  0  0  0  0  0  0
   -9.8057   22.4160  -31.5112 H   0  0  0  0  0  0  0  0  0  0  0  0
   -8.3760   23.9487  -33.0633 H   0  0  0  0  0  0  0  0  0  0  0  0
   -8.2907   24.1697  -31.2457 H   0  0  0  0  0  0  0  0  0  0  0  0
   -3.6205   22.5792  -31.7731 H   0  0  0  0  0  0  0  0  0  0  0  0
   -1.8926   21.2296  -30.5850 H   0  0  0  0  0  0  0  0  0  0  0  0
    0.1911   21.8024  -25.0288 H   0  0  0  0  0  0  0  0  0  0  0  0
    0.0195   23.6147  -23.3483 H   0  0  0  0  0  0  0  0  0  0  0  0
   -0.4207   27.1351  -27.5351 H   0  0  0  0  0  0  0  0  0  0  0  0
   -2.0451   26.8752  -26.7479 H   0  0  0  0  0  0  0  0  0  0  0  0
    0.4583   28.0696  -25.4899 H   0  0  0  0  0  0  0  0  0  0  0  0
   -1.1105   28.8855  -25.8362 H   0  0  0  0  0  0  0  0  0  0  0  0
   -0.9811   28.2995  -23.4538 H   0  0  0  0  0  0  0  0  0  0  0  0
   -2.2436   27.3064  -24.2687 H   0  0  0  0  0  0  0  0  0  0  0  0
    0.5731   26.4741  -23.4399 H   0  0  0  0  0  0  0  0  0  0  0  0
   -1.0320   25.8099  -22.8882 H   0  0  0  0  0  0  0  0  0  0  0  0
  1  2  2  0
  2  3  1  0
  2  4  1  0
  4  5  2  0
  5  6  1  0
  6  7  1  0
  7  8  2  0
  7  9  2  0
  7 10  1  0
 10 11  2  0
 11 12  1  0
 12 13  2  0
 13 14  1  0
 14 15  2  0
 14 16  2  0
 14 17  1  0
 17 18  1  0
 18 19  1  0
 19 20  1  0
 20 21  1  0
 21 22  1  0
 13 23  1  0
 23 24  2  0
  5 25  1  0
 25 26  2  0
 26 27  1  0
 27 28  2  0
 28 29  1  0
 29 30  1  0
 30 31  1  0
 31 32  1  0
 28  4  1  0
 24 10  1  0
 32 27  1  0
 22 17  1  0
  6 33  1  0
 11 34  1  0
 12 35  1  0
 18 36  1  0
 18 37  1  0
 19 38  1  0
 19 39  1  0
 20 40  1  0
 20 41  1  0
 21 42  1  0
 21 43  1  0
 22 44  1  0
 22 45  1  0
 23 46  1  0
 24 47  1  0
 25 48  1  0
 26 49  1  0
 29 50  1  0
 29 51  1  0
 30 52  1  0
 30 53  1  0
 31 54  1  0
 31 55  1  0
 32 56  1  0
 32 57  1  0
M  CHG  1   3  -1
M  END
>  <UniqueID>  (47) 
46

>  <SMILES>  (47) 
O=C([O-])c1c(NS(=O)(=O)c2ccc(S(=O)(=O)N3CCCCC3)cc2)ccc2c1CCCC2

>  <Energy>  (47) 
76.58989964263657

>  <Genealogy>  (47) 
O=C([O-])c1c(NS(=O)(=O)c2ccc(S(=O)(=O)N3CCCCC3)cc2)ccc2c1CCCC2 (protonated)
O=C([O-])c1c(NS(=O)(=O)c2ccc(S(=O)(=O)N3CCCCC3)cc2)ccc2c1CCCC2 (3D coordinates assigned)
O=C([O-])c1c(NS(=O)(=O)c2ccc(S(=O)(=O)N3CCCCC3)cc2)ccc2c1CCCC2 (nonaromatic ring conformer: 76.58989964263657 kcal/mol)

>  <smiles>  (47) 
O=C(O)c1c(NS(=O)(=O)c2ccc(S(=O)(=O)N3CCCCC3)cc2)ccc2c1CCCC2

>  <score_type>  (47) 
oracle

>  <origin>  (47) 
adgpu

>  <m_score__min__energy>  (47) 
-13.66

>  <m_primary>  (47) 
energy

$$$$
47:0
     RDKit          3D

 66 70  0  0  0  0  0  0  0  0999 V2000
   -1.1660   20.4700  -29.1080 O   0  0  0  0  0  0  0  0  0  0  0  0
   -1.4070   20.9700  -30.2410 C   0  0  0  0  0  0  0  0  0  0  0  0
   -0.8800   20.3080  -31.4550 C   0  0  0  0  0  0  0  0  0  0  0  0
   -0.8390   18.9060  -31.5470 C   0  0  0  0  0  0  0  0  0  0  0  0
   -0.3890   18.2860  -32.7160 C   0  0  0  0  0  0  0  0  0  0  0  0
    0.0320   19.0590  -33.8060 C   0  0  0  0  0  0  0  0  0  0  0  0
    0.6040   18.2850  -35.2810 S   0  0  0  0  0  0  0  0  0  0  0  0
    2.0010   17.7780  -35.0520 O   0  0  0  0  0  0  0  0  0  0  0  0
    0.6400   19.2900  -36.4010 O   0  0  0  0  0  0  0  0  0  0  0  0
   -0.4460   16.9530  -35.6960 N   0  0  0  0  0  0  0  0  0  0  0  0
    0.0810   15.7010  -35.1290 C   0  0  0  0  0  0  0  0  0  0  0  0
   -0.8810   14.5320  -35.4240 C   0  0  0  0  0  0  0  0  0  0  0  0
   -2.0450   14.9610  -36.1070 O   0  0  0  0  0  0  0  0  0  0  0  0
   -2.6950   15.9650  -35.3510 C   0  0  0  0  0  0  0  0  0  0  0  0
   -1.8030   17.2110  -35.1850 C   0  0  0  0  0  0  0  0  0  0  0  0
    0.0230   20.4560  -33.7090 C   0  0  0  0  0  0  0  0  0  0  0  0
   -0.4280   21.0770  -32.5400 C   0  0  0  0  0  0  0  0  0  0  0  0
   -2.2070   22.2180  -30.3200 C   0  0  0  0  0  0  0  0  0  0  0  0
   -1.7380   23.3650  -29.6700 C   0  0  0  0  0  0  0  0  0  0  0  0
   -0.5430   23.3360  -28.9560 O   0  0  0  0  0  0  0  0  0  0  0  0
   -2.4750   24.5400  -29.7200 C   0  0  0  0  0  0  0  0  0  0  0  0
   -2.0130   25.6760  -29.0620 O   0  0  0  0  0  0  0  0  0  0  0  0
   -3.6750   24.5810  -30.4310 C   0  0  0  0  0  0  0  0  0  0  0  0
   -4.3190   25.6660  -30.4630 O   0  0  0  0  0  0  0  0  0  0  0  0
   -4.1390   23.4680  -31.0960 N   0  0  0  0  0  0  0  0  0  0  0  0
   -5.3620   23.5860  -31.9270 C   0  0  0  0  0  0  0  0  0  0  0  0
   -6.6370   23.3450  -31.1020 C   0  0  0  0  0  0  0  0  0  0  0  0
   -7.3760   22.1160  -31.5610 C   0  0  0  0  0  0  0  0  0  0  0  0
   -8.4420   21.6040  -30.8020 C   0  0  0  0  0  0  0  0  0  0  0  0
   -9.0920   20.4320  -31.2010 C   0  0  0  0  0  0  0  0  0  0  0  0
   -8.6820   19.7630  -32.3570 C   0  0  0  0  0  0  0  0  0  0  0  0
   -7.6190   20.2620  -33.1140 C   0  0  0  0  0  0  0  0  0  0  0  0
   -6.9640   21.4320  -32.7170 C   0  0  0  0  0  0  0  0  0  0  0  0
   -3.4260   22.2830  -31.0450 C   0  0  0  0  0  0  0  0  0  0  0  0
   -3.8990   21.0690  -31.7650 C   0  0  0  0  0  0  0  0  0  0  0  0
   -4.6100   20.0770  -31.0690 C   0  0  0  0  0  0  0  0  0  0  0  0
   -4.9880   18.8950  -31.7130 C   0  0  0  0  0  0  0  0  0  0  0  0
   -4.6620   18.6960  -33.0560 C   0  0  0  0  0  0  0  0  0  0  0  0
   -3.9560   19.6770  -33.7580 C   0  0  0  0  0  0  0  0  0  0  0  0
   -3.5690   20.8590  -33.1180 C   0  0  0  0  0  0  0  0  0  0  0  0
   -2.8560   21.8180  -33.8300 O   0  0  0  0  0  0  0  0  0  0  0  0
   -1.1632   18.2927  -30.6933 H   0  0  0  0  0  0  0  0  0  0  0  0
   -0.3653   17.1881  -32.7804 H   0  0  0  0  0  0  0  0  0  0  0  0
    1.0623   15.4849  -35.5766 H   0  0  0  0  0  0  0  0  0  0  0  0
    0.1803   15.8160  -34.0395 H   0  0  0  0  0  0  0  0  0  0  0  0
   -0.3580   13.7901  -36.0454 H   0  0  0  0  0  0  0  0  0  0  0  0
   -1.1924   14.0979  -34.4624 H   0  0  0  0  0  0  0  0  0  0  0  0
   -3.6232   16.2554  -35.8650 H   0  0  0  0  0  0  0  0  0  0  0  0
   -2.9122   15.5595  -34.3518 H   0  0  0  0  0  0  0  0  0  0  0  0
   -2.2457   18.0488  -35.7436 H   0  0  0  0  0  0  0  0  0  0  0  0
   -1.7365   17.4577  -34.1151 H   0  0  0  0  0  0  0  0  0  0  0  0
    0.3717   21.0667  -34.5549 H   0  0  0  0  0  0  0  0  0  0  0  0
   -0.4288   22.1748  -32.4697 H   0  0  0  0  0  0  0  0  0  0  0  0
   -5.4030   24.5968  -32.3591 H   0  0  0  0  0  0  0  0  0  0  0  0
   -5.3150   22.8210  -32.7160 H   0  0  0  0  0  0  0  0  0  0  0  0
   -6.3588   23.2193  -30.0452 H   0  0  0  0  0  0  0  0  0  0  0  0
   -7.2999   24.2125  -31.2358 H   0  0  0  0  0  0  0  0  0  0  0  0
   -8.7664   22.1272  -29.8904 H   0  0  0  0  0  0  0  0  0  0  0  0
   -9.9270   20.0363  -30.6041 H   0  0  0  0  0  0  0  0  0  0  0  0
   -9.1964   18.8429  -32.6713 H   0  0  0  0  0  0  0  0  0  0  0  0
   -7.2969   19.7338  -34.0235 H   0  0  0  0  0  0  0  0  0  0  0  0
   -6.1232   21.8182  -33.3119 H   0  0  0  0  0  0  0  0  0  0  0  0
   -4.8707   20.2312  -30.0115 H   0  0  0  0  0  0  0  0  0  0  0  0
   -5.5425   18.1215  -31.1614 H   0  0  0  0  0  0  0  0  0  0  0  0
   -4.9611   17.7662  -33.5621 H   0  0  0  0  0  0  0  0  0  0  0  0
   -3.7040   19.5190  -34.8170 H   0  0  0  0  0  0  0  0  0  0  0  0
  1  2  2  0
  2  3  1  0
  3  4  2  0
  4  5  1  0
  5  6  2  0
  6  7  1  0
  7  8  2  0
  7  9  2  0
  7 10  1  0
 10 11  1  0
 11 12  1  0
 12 13  1  0
 13 14  1  0
 14 15  1  0
  6 16  1  0
 16 17  2  0
  2 18  1  0
 18 19  1  0
 19 20  1  0
 19 21  2  0
 21 22  1  0
 21 23  1  0
 23 24  2  0
 23 25  1  0
 25 26  1  0
 26 27  1  0
 27 28  1  0
 28 29  2  0
 29 30  1  0
 30 31  2  0
 31 32  1  0
 32 33  2  0
 25 34  1  0
 34 35  1  0
 35 36  2  0
 36 37  1  0
 37 38  2  0
 38 39  1  0
 39 40  2  0
 40 41  1  0
 17  3  1  0
 34 18  2  0
 40 35  1  0
 15 10  1  0
 33 28  1  0
  4 42  1  0
  5 43  1  0
 11 44  1  0
 11 45  1  0
 12 46  1  0
 12 47  1  0
 14 48  1  0
 14 49  1  0
 15 50  1  0
 15 51  1  0
 16 52  1  0
 17 53  1  0
 26 54  1  0
 26 55  1  0
 27 56  1  0
 27 57  1  0
 29 58  1  0
 30 59  1  0
 31 60  1  0
 32 61  1  0
 33 62  1  0
 36 63  1  0
 37 64  1  0
 38 65  1  0
 39 66  1  0
M  CHG  3  20  -1  22  -1  41  -1
M  END
>  <UniqueID>  (48) 
47

>  <SMILES>  (48) 
O=C(c1ccc(S(=O)(=O)N2CCOCC2)cc1)c1c([O-])c([O-])c(=O)n(CCc2ccccc2)c1-c1ccccc1[O-]

>  <Energy>  (48) 
95.60622212720394

>  <Genealogy>  (48) 
O=C(c1ccc(S(=O)(=O)N2CCOCC2)cc1)c1c([O-])c([O-])c(=O)n(CCc2ccccc2)c1-c1ccccc1[O-] (protonated)
O=C(c1ccc(S(=O)(=O)N2CCOCC2)cc1)c1c([O-])c([O-])c(=O)n(CCc2ccccc2)c1-c1ccccc1[O-] (3D coordinates assigned)
O=C(c1ccc(S(=O)(=O)N2CCOCC2)cc1)c1c([O-])c([O-])c(=O)n(CCc2ccccc2)c1-c1ccccc1[O-] (nonaromatic ring conformer: 95.60622212720394 kcal/mol)

>  <smiles>  (48) 
O=C(c1ccc(S(=O)(=O)N2CCOCC2)cc1)c1c(O)c(O)c(=O)n(CCc2ccccc2)c1-c1ccccc1O

>  <score_type>  (48) 
oracle

>  <origin>  (48) 
adgpu

>  <m_score__min__energy>  (48) 
-15.710000000000001

>  <m_primary>  (48) 
energy

$$$$
