0:0
     RDKit          3D

 37 39  0  0  0  0  0  0  0  0999 V2000
   -5.1010   20.9610  -32.7420 C   0  0  0  0  0  0  0  0  0  0  0  0
   -6.4800   20.4200  -32.4720 C   0  0  0  0  0  0  0  0  0  0  0  0
   -6.7330   19.0570  -32.7050 C   0  0  0  0  0  0  0  0  0  0  0  0
   -7.9920   18.5140  -32.4450 C   0  0  0  0  0  0  0  0  0  0  0  0
   -9.0160   19.3230  -31.9570 C   0  0  0  0  0  0  0  0  0  0  0  0
   -8.7880   20.6820  -31.7340 C   0  0  0  0  0  0  0  0  0  0  0  0
   -7.5270   21.2490  -31.9900 C   0  0  0  0  0  0  0  0  0  0  0  0
   -7.3370   22.7020  -31.7600 C   0  0  0  0  0  0  0  0  0  0  0  0
   -7.6420   23.5210  -32.6680 O   0  0  0  0  0  0  0  0  0  0  0  0
   -6.9000   23.2140  -30.4930 N   0  0  0  0  0  0  0  0  0  0  0  0
   -5.6020   23.7550  -30.2010 C   0  0  0  0  0  0  0  0  0  0  0  0
   -5.0490   24.8080  -30.9450 C   0  0  0  0  0  0  0  0  0  0  0  0
   -3.8290   25.3030  -30.6170 N   0  0  0  0  0  0  0  0  0  0  0  0
   -3.1280   24.8120  -29.5620 C   0  0  0  0  0  0  0  0  0  0  0  0
   -1.9480   25.2980  -29.3030 N   0  0  0  0  0  0  0  0  0  0  0  0
   -1.0890   24.9430  -28.2070 C   0  0  0  0  0  0  0  0  0  0  0  0
   -1.0550   25.6870  -27.0110 C   0  0  0  0  0  0  0  0  0  0  0  0
   -0.1760   25.3280  -25.9840 C   0  0  0  0  0  0  0  0  0  0  0  0
    0.6840   24.2390  -26.1450 C   0  0  0  0  0  0  0  0  0  0  0  0
    0.6780   23.5150  -27.3400 C   0  0  0  0  0  0  0  0  0  0  0  0
    1.5450   22.4410  -27.5070 O   0  0  0  0  0  0  0  0  0  0  0  0
   -0.1980   23.8720  -28.3710 C   0  0  0  0  0  0  0  0  0  0  0  0
   -3.6540   23.7980  -28.8210 N   0  0  0  0  0  0  0  0  0  0  0  0
   -4.8730   23.2720  -29.1090 C   0  0  0  0  0  0  0  0  0  0  0  0
   -5.3330   22.3430  -28.3950 O   0  0  0  0  0  0  0  0  0  0  0  0
   -4.5921   21.1607  -31.7875 H   0  0  0  0  0  0  0  0  0  0  0  0
   -4.5237   20.2227  -33.3179 H   0  0  0  0  0  0  0  0  0  0  0  0
   -5.1798   21.8949  -33.3179 H   0  0  0  0  0  0  0  0  0  0  0  0
   -5.9315   18.4128  -33.0957 H   0  0  0  0  0  0  0  0  0  0  0  0
   -8.1764   17.4447  -32.6258 H   0  0  0  0  0  0  0  0  0  0  0  0
  -10.0053   18.8903  -31.7472 H   0  0  0  0  0  0  0  0  0  0  0  0
   -9.6030   21.3157  -31.3542 H   0  0  0  0  0  0  0  0  0  0  0  0
   -5.6045   25.2324  -31.7943 H   0  0  0  0  0  0  0  0  0  0  0  0
   -1.7217   26.5527  -26.8846 H   0  0  0  0  0  0  0  0  0  0  0  0
   -0.1619   25.9045  -25.0473 H   0  0  0  0  0  0  0  0  0  0  0  0
    1.3658   23.9515  -25.3311 H   0  0  0  0  0  0  0  0  0  0  0  0
   -0.1879   23.3093  -29.3161 H   0  0  0  0  0  0  0  0  0  0  0  0
  1  2  1  0
  2  3  2  0
  3  4  1  0
  4  5  2  0
  5  6  1  0
  6  7  2  0
  7  8  1  0
  8  9  2  0
  8 10  1  0
 10 11  1  0
 11 12  2  0
 12 13  1  0
 13 14  1  0
 14 15  2  3
 15 16  1  0
 16 17  2  0
 17 18  1  0
 18 19  2  0
 19 20  1  0
 20 21  1  0
 20 22  2  0
 14 23  1  0
 23 24  1  0
 24 25  2  0
  7  2  1  0
 24 11  1  0
 22 16  1  0
  1 26  1  0
  1 27  1  0
  1 28  1  0
  3 29  1  0
  4 30  1  0
  5 31  1  0
  6 32  1  0
 12 33  1  0
 17 34  1  0
 18 35  1  0
 19 36  1  0
 22 37  1  0
M  CHG  4  10  -1  13  -1  21  -1  23  -1
M  END
>  <UniqueID>  (1) 
1

>  <SMILES>  (1) 
Cc1ccccc1C(=O)[N-]c1c[n-]c(=Nc2cccc([O-])c2)[n-]c1=O

>  <Energy>  (1) 
56.782323452809145

>  <Genealogy>  (1) 
Cc1ccccc1C(=O)[N-]c1c[n-]c(=Nc2cccc([O-])c2)[n-]c1=O (protonated)
Cc1ccccc1C(=O)[N-]c1c[n-]c(=Nc2cccc([O-])c2)[n-]c1=O (3D coordinates assigned)
Cc1ccccc1C(=O)[N-]c1c[n-]c(=Nc2cccc([O-])c2)[n-]c1=O (optimized conformer: 56.782323452809145 kcal/mol)

>  <smiles>  (1) 
Cc1ccccc1C(=O)Nc1c[nH]c(=Nc2cccc(O)c2)[nH]c1=O

>  <score_type>  (1) 
oracle

>  <origin>  (1) 
adgpu

>  <m_score__min__energy>  (1) 
-11.41

>  <m_primary>  (1) 
energy

$$$$
1:0
     RDKit          3D

 51 54  0  0  1  0  0  0  0  0999 V2000
   -9.7380   21.5110  -32.5320 O   0  0  0  0  0  0  0  0  0  0  0  0
   -8.5070   20.7650  -32.1090 S   0  0  0  0  0  0  0  0  0  0  0  0
   -8.9030   20.1020  -30.7830 O   0  0  0  0  0  0  0  0  0  0  0  0
   -8.0430   19.5050  -33.1460 N   0  0  0  0  0  0  0  0  0  0  0  0
   -7.2930   18.5280  -32.7980 C   0  0  0  0  0  0  0  0  0  0  0  0
   -7.0000   17.5770  -33.7570 C   0  0  0  0  0  0  0  0  0  0  0  0
   -6.1970   16.4830  -33.4760 C   0  0  0  0  0  0  0  0  0  0  0  0
   -5.7080   16.4010  -32.1840 C   0  0  0  0  0  0  0  0  0  0  0  0
   -6.0300   17.3860  -31.2460 C   0  0  0  0  0  0  0  0  0  0  0  0
   -6.8120   18.4270  -31.5670 N   0  0  0  0  0  0  0  0  0  0  0  0
   -7.2280   21.8760  -31.7010 C   0  0  0  0  0  0  0  0  0  0  0  0
   -5.9090   21.4290  -31.6420 C   0  0  0  0  0  0  0  0  0  0  0  0
   -4.8640   22.2640  -31.3180 C   0  0  0  0  0  0  0  0  0  0  0  0
   -5.0980   23.6080  -31.0350 C   0  0  0  0  0  0  0  0  0  0  0  0
   -3.9640   24.3890  -30.7130 N   0  0  0  0  0  0  0  0  0  0  0  0
   -3.3180   24.1050  -29.6340 C   0  0  0  0  0  0  0  0  0  0  0  0
   -3.6660   23.1040  -28.8000 N   0  0  0  0  0  0  0  0  0  0  0  0
   -2.9470   22.8640  -27.6920 C   0  0  0  0  0  0  0  0  0  0  0  0
   -1.8710   23.6500  -27.4390 C   0  0  0  0  0  0  0  0  0  0  0  0
   -1.5030   24.6760  -28.2810 C   0  0  0  0  0  0  0  0  0  0  0  0
   -0.5140   25.3620  -28.0020 N   0  0  0  0  0  0  0  0  0  0  0  0
    0.4670   25.4800  -27.0390 C   0  0  0  0  0  0  0  0  0  0  0  0
    0.3060   26.0690  -25.7290 C   0  0  0  0  0  0  0  0  0  0  0  0
   -0.9550   26.1020  -25.1100 C   0  0  0  0  0  0  0  0  0  0  0  0
   -1.1290   26.6220  -23.8470 C   0  0  0  0  0  0  0  0  0  0  0  0
   -0.0710   27.1360  -23.1270 C   0  0  0  0  0  0  0  0  0  0  0  0
    1.1750   27.1140  -23.7150 C   0  0  0  0  0  0  0  0  0  0  0  0
    1.3700   26.6010  -24.9760 C   0  0  0  0  0  0  0  0  0  0  0  0
   -2.2340   24.8980  -29.3800 N   0  0  0  0  0  0  0  0  0  0  0  0
   -6.3810   24.0690  -31.0860 C   0  0  0  0  0  0  0  0  0  0  0  0
   -7.4250   23.2070  -31.4160 C   0  0  0  0  0  0  0  0  0  0  0  0
   -7.4148   17.6913  -34.7694 H   0  0  0  0  0  0  0  0  0  0  0  0
   -5.9619   15.7235  -34.2362 H   0  0  0  0  0  0  0  0  0  0  0  0
   -5.0637   15.5578  -31.8942 H   0  0  0  0  0  0  0  0  0  0  0  0
   -5.6336   17.3056  -30.2231 H   0  0  0  0  0  0  0  0  0  0  0  0
   -7.0570   19.1650  -30.8790 H   0  0  0  0  0  0  0  0  0  0  0  0
   -5.6960   20.3725  -31.8620 H   0  0  0  0  0  0  0  0  0  0  0  0
   -3.8384   21.8681  -31.2823 H   0  0  0  0  0  0  0  0  0  0  0  0
   -4.4990   22.5130  -29.0150 H   0  0  0  0  0  0  0  0  0  0  0  0
   -3.2238   22.0498  -27.0061 H   0  0  0  0  0  0  0  0  0  0  0  0
   -1.2743   23.4624  -26.5341 H   0  0  0  0  0  0  0  0  0  0  0  0
    0.8128   24.4525  -26.8525 H   0  0  0  0  0  0  0  0  0  0  0  0
    1.1016   26.2445  -27.5111 H   0  0  0  0  0  0  0  0  0  0  0  0
   -1.8265   25.7017  -25.6488 H   0  0  0  0  0  0  0  0  0  0  0  0
   -2.1350   26.6276  -23.4021 H   0  0  0  0  0  0  0  0  0  0  0  0
   -0.2168   27.5493  -22.1181 H   0  0  0  0  0  0  0  0  0  0  0  0
    2.0359   27.5172  -23.1615 H   0  0  0  0  0  0  0  0  0  0  0  0
    2.3821   26.6065  -25.4068 H   0  0  0  0  0  0  0  0  0  0  0  0
   -1.9800   25.6740  -30.0450 H   0  0  0  0  0  0  0  0  0  0  0  0
   -6.5923   25.1258  -30.8657 H   0  0  0  0  0  0  0  0  0  0  0  0
   -8.4489   23.6076  -31.4500 H   0  0  0  0  0  0  0  0  0  0  0  0
  1  2  2  0
  2  3  2  0
  2  4  1  0
  4  5  2  0
  5  6  1  0
  6  7  2  0
  7  8  1  0
  8  9  2  0
  9 10  1  0
  2 11  1  0
 11 12  2  0
 12 13  1  0
 13 14  2  0
 14 15  1  0
 15 16  2  0
 16 17  1  0
 17 18  1  0
 18 19  2  0
 19 20  1  0
 20 21  2  0
 21 22  1  0
 22 23  1  0
 23 24  2  0
 24 25  1  0
 25 26  2  0
 26 27  1  0
 27 28  2  0
 20 29  1  0
 14 30  1  0
 30 31  2  0
 10  5  1  0
 31 11  1  0
 29 16  1  0
 28 23  1  0
  6 32  1  0
  7 33  1  0
  8 34  1  0
  9 35  1  0
 10 36  1  0
 12 37  1  0
 13 38  1  0
 17 39  1  0
 18 40  1  0
 19 41  1  0
 22 42  1  0
 22 43  1  0
 24 44  1  0
 25 45  1  0
 26 46  1  0
 27 47  1  0
 28 48  1  0
 29 49  1  0
 30 50  1  0
 31 51  1  0
M  END
>  <smiles>  (2) 
O=S(=O)(N=c1cccc[nH]1)c1ccc(N=c2[nH]ccc(=NCc3ccccc3)[nH]2)cc1

>  <score_type>  (2) 
oracle

>  <origin>  (2) 
adgpu

>  <m_score__min__energy>  (2) 
-11.25

>  <m_primary>  (2) 
energy

$$$$
2:0
     RDKit          3D

 27 29  0  0  0  0  0  0  0  0999 V2000
   -3.5880   18.8100  -34.1550 O   0  0  0  0  0  0  0  0  0  0  0  0
   -4.2110   19.4520  -33.2660 C   0  0  0  0  0  0  0  0  0  0  0  0
   -3.5890   20.5410  -32.6420 C   0  0  0  0  0  0  0  0  0  0  0  0
   -1.8380   21.0870  -33.2320 Br  0  0  0  0  0  0  0  0  0  0  0  0
   -4.2970   21.2500  -31.6490 C   0  0  0  0  0  0  0  0  0  0  0  0
   -3.7100   22.4000  -30.9300 C   0  0  0  0  0  0  0  0  0  0  0  0
   -2.5390   22.2220  -30.1790 C   0  0  0  0  0  0  0  0  0  0  0  0
   -1.9530   23.3070  -29.5200 C   0  0  0  0  0  0  0  0  0  0  0  0
   -2.5210   24.5800  -29.6210 C   0  0  0  0  0  0  0  0  0  0  0  0
   -1.9340   25.6540  -28.9630 O   0  0  0  0  0  0  0  0  0  0  0  0
   -3.6750   24.7710  -30.3900 C   0  0  0  0  0  0  0  0  0  0  0  0
   -4.2370   26.0370  -30.5050 O   0  0  0  0  0  0  0  0  0  0  0  0
   -4.2640   23.6860  -31.0500 C   0  0  0  0  0  0  0  0  0  0  0  0
   -5.5410   20.8960  -31.3410 O   0  0  0  0  0  0  0  0  0  0  0  0
   -6.1690   19.8730  -31.9100 C   0  0  0  0  0  0  0  0  0  0  0  0
   -7.4760   19.5710  -31.5170 C   0  0  0  0  0  0  0  0  0  0  0  0
   -8.1550   18.4970  -32.0960 C   0  0  0  0  0  0  0  0  0  0  0  0
   -9.4530   18.2020  -31.7000 O   0  0  0  0  0  0  0  0  0  0  0  0
   -7.5290   17.7190  -33.0740 C   0  0  0  0  0  0  0  0  0  0  0  0
   -6.2230   18.0090  -33.4800 C   0  0  0  0  0  0  0  0  0  0  0  0
   -5.6370   17.2090  -34.4580 O   0  0  0  0  0  0  0  0  0  0  0  0
   -5.5250   19.0950  -32.9000 C   0  0  0  0  0  0  0  0  0  0  0  0
   -2.0798   21.2249  -30.1082 H   0  0  0  0  0  0  0  0  0  0  0  0
   -1.0427   23.1583  -28.9206 H   0  0  0  0  0  0  0  0  0  0  0  0
   -5.1632   23.8405  -31.6644 H   0  0  0  0  0  0  0  0  0  0  0  0
   -7.9718   20.1820  -30.7483 H   0  0  0  0  0  0  0  0  0  0  0  0
   -8.0672   16.8734  -33.5270 H   0  0  0  0  0  0  0  0  0  0  0  0
  1  2  2  0
  2  3  1  0
  3  4  1  0
  3  5  2  0
  5  6  1  0
  6  7  2  0
  7  8  1  0
  8  9  2  0
  9 10  1  0
  9 11  1  0
 11 12  1  0
 11 13  2  0
  5 14  1  0
 14 15  1  0
 15 16  2  0
 16 17  1  0
 17 18  1  0
 17 19  2  0
 19 20  1  0
 20 21  1  0
 20 22  2  0
 22  2  1  0
 13  6  1  0
 22 15  1  0
  7 23  1  0
  8 24  1  0
 13 25  1  0
 16 26  1  0
 19 27  1  0
M  CHG  4  10  -1  12  -1  18  -1  21  -1
M  END
>  <UniqueID>  (3) 
2

>  <SMILES>  (3) 
O=c1c(Br)c(-c2ccc([O-])c([O-])c2)oc2cc([O-])cc([O-])c12

>  <Energy>  (3) 
45.305004172117236

>  <Genealogy>  (3) 
O=c1c(Br)c(-c2ccc([O-])c([O-])c2)oc2cc([O-])cc([O-])c12 (protonated)
O=c1c(Br)c(-c2ccc([O-])c([O-])c2)oc2cc([O-])cc([O-])c12 (3D coordinates assigned)
O=c1c(Br)c(-c2ccc([O-])c([O-])c2)oc2cc([O-])cc([O-])c12 (optimized conformer: 45.305004172117236 kcal/mol)

>  <smiles>  (3) 
O=c1c(Br)c(-c2ccc(O)c(O)c2)oc2cc(O)cc(O)c12

>  <score_type>  (3) 
oracle

>  <origin>  (3) 
adgpu

>  <m_score__min__energy>  (3) 
-12.01

>  <m_primary>  (3) 
energy

$$$$
3:0
     RDKit          3D

 50 53  0  0  0  0  0  0  0  0999 V2000
   -0.9180   26.7610  -23.9720 C   0  0  0  0  0  0  0  0  0  0  0  0
   -1.1410   25.6150  -24.9130 C   0  0  0  0  0  0  0  0  0  0  0  0
   -0.2610   24.5240  -24.9260 C   0  0  0  0  0  0  0  0  0  0  0  0
   -0.4630   23.4700  -25.8140 C   0  0  0  0  0  0  0  0  0  0  0  0
   -1.5350   23.5020  -26.7090 C   0  0  0  0  0  0  0  0  0  0  0  0
   -2.4200   24.5890  -26.7240 C   0  0  0  0  0  0  0  0  0  0  0  0
   -3.5080   24.5940  -27.6660 N   0  0  0  0  0  0  0  0  0  0  0  0
   -3.5850   23.7390  -28.8500 C   0  0  0  0  0  0  0  0  0  0  0  0
   -4.8390   24.0230  -29.6250 C   0  0  0  0  0  0  0  0  0  0  0  0
   -5.7400   24.9590  -29.2680 N   0  0  0  0  0  0  0  0  0  0  0  0
   -6.7300   24.9060  -30.1480 N   0  0  0  0  0  0  0  0  0  0  0  0
   -6.4150   23.9400  -31.0300 C   0  0  0  0  0  0  0  0  0  0  0  0
   -7.5110   23.4220  -32.3540 S   0  0  0  0  0  0  0  0  0  0  0  0
   -8.3790   22.1460  -31.3680 C   0  0  0  0  0  0  0  0  0  0  0  0
   -8.0630   20.7540  -31.8490 C   0  0  0  0  0  0  0  0  0  0  0  0
   -8.7200   19.6450  -31.2900 C   0  0  0  0  0  0  0  0  0  0  0  0
   -8.4110   18.3520  -31.7230 C   0  0  0  0  0  0  0  0  0  0  0  0
   -7.4400   18.1560  -32.7080 C   0  0  0  0  0  0  0  0  0  0  0  0
   -6.7760   19.2530  -33.2660 C   0  0  0  0  0  0  0  0  0  0  0  0
   -7.0860   20.5480  -32.8390 C   0  0  0  0  0  0  0  0  0  0  0  0
   -5.2350   23.3650  -30.7340 N   0  0  0  0  0  0  0  0  0  0  0  0
   -4.5930   22.2780  -31.4110 C   0  0  0  0  0  0  0  0  0  0  0  0
   -4.2200   21.1300  -30.6980 C   0  0  0  0  0  0  0  0  0  0  0  0
   -3.5710   20.0790  -31.3520 C   0  0  0  0  0  0  0  0  0  0  0  0
   -3.2870   20.1720  -32.7170 C   0  0  0  0  0  0  0  0  0  0  0  0
   -3.6490   21.3190  -33.4300 C   0  0  0  0  0  0  0  0  0  0  0  0
   -4.2990   22.3710  -32.7780 C   0  0  0  0  0  0  0  0  0  0  0  0
   -2.2060   25.6540  -25.8280 C   0  0  0  0  0  0  0  0  0  0  0  0
   -0.9878   26.4024  -22.9344 H   0  0  0  0  0  0  0  0  0  0  0  0
    0.0803   27.1891  -24.1456 H   0  0  0  0  0  0  0  0  0  0  0  0
   -1.6829   27.5322  -24.1456 H   0  0  0  0  0  0  0  0  0  0  0  0
    0.5924   24.5001  -24.2323 H   0  0  0  0  0  0  0  0  0  0  0  0
    0.2233   22.6104  -25.8105 H   0  0  0  0  0  0  0  0  0  0  0  0
   -1.6861   22.6666  -27.4084 H   0  0  0  0  0  0  0  0  0  0  0  0
   -4.2620   25.3050  -27.5420 H   0  0  0  0  0  0  0  0  0  0  0  0
   -2.7122   23.9302  -29.4916 H   0  0  0  0  0  0  0  0  0  0  0  0
   -3.5970   22.6872  -28.5282 H   0  0  0  0  0  0  0  0  0  0  0  0
   -8.0698   22.2377  -30.3164 H   0  0  0  0  0  0  0  0  0  0  0  0
   -9.4615   22.3075  -31.4783 H   0  0  0  0  0  0  0  0  0  0  0  0
   -9.4801   19.7945  -30.5090 H   0  0  0  0  0  0  0  0  0  0  0  0
   -8.9334   17.4876  -31.2873 H   0  0  0  0  0  0  0  0  0  0  0  0
   -7.1974   17.1374  -33.0451 H   0  0  0  0  0  0  0  0  0  0  0  0
   -6.0104   19.0973  -34.0403 H   0  0  0  0  0  0  0  0  0  0  0  0
   -6.5631   21.4096  -33.2797 H   0  0  0  0  0  0  0  0  0  0  0  0
   -4.4384   21.0563  -29.6224 H   0  0  0  0  0  0  0  0  0  0  0  0
   -3.2834   19.1774  -30.7914 H   0  0  0  0  0  0  0  0  0  0  0  0
   -2.7786   19.3428  -33.2307 H   0  0  0  0  0  0  0  0  0  0  0  0
   -3.4224   21.3936  -34.5038 H   0  0  0  0  0  0  0  0  0  0  0  0
   -4.5804   23.2741  -33.3395 H   0  0  0  0  0  0  0  0  0  0  0  0
   -2.8788   26.5241  -25.8448 H   0  0  0  0  0  0  0  0  0  0  0  0
  1  2  1  0
  2  3  2  0
  3  4  1  0
  4  5  2  0
  5  6  1  0
  6  7  1  0
  7  8  1  0
  8  9  1  0
  9 10  2  0
 10 11  1  0
 11 12  2  0
 12 13  1  0
 13 14  1  0
 14 15  1  0
 15 16  2  0
 16 17  1  0
 17 18  2  0
 18 19  1  0
 19 20  2  0
 12 21  1  0
 21 22  1  0
 22 23  2  0
 23 24  1  0
 24 25  2  0
 25 26  1  0
 26 27  2  0
  6 28  2  0
 28  2  1  0
 21  9  1  0
 27 22  1  0
 20 15  1  0
  1 29  1  0
  1 30  1  0
  1 31  1  0
  3 32  1  0
  4 33  1  0
  5 34  1  0
  7 35  1  0
  8 36  1  0
  8 37  1  0
 14 38  1  0
 14 39  1  0
 16 40  1  0
 17 41  1  0
 18 42  1  0
 19 43  1  0
 20 44  1  0
 23 45  1  0
 24 46  1  0
 25 47  1  0
 26 48  1  0
 27 49  1  0
 28 50  1  0
M  END
>  <UniqueID>  (4) 
3

>  <SMILES>  (4) 
Cc1cccc(NCc2nnc(SCc3ccccc3)n2-c2ccccc2)c1

>  <Energy>  (4) 
85.71722775274598

>  <Genealogy>  (4) 
Cc1cccc(NCc2nnc(SCc3ccccc3)n2-c2ccccc2)c1 (3D coordinates assigned)
Cc1cccc(NCc2nnc(SCc3ccccc3)n2-c2ccccc2)c1 (optimized conformer: 85.71722775274598 kcal/mol)

>  <smiles>  (4) 
Cc1cccc(NCc2nnc(SCc3ccccc3)n2-c2ccccc2)c1

>  <score_type>  (4) 
oracle

>  <origin>  (4) 
adgpu

>  <m_score__min__energy>  (4) 
-9.5899999999999999

>  <m_primary>  (4) 
energy

$$$$
4:0
     RDKit          3D

 63 66  0  0  0  0  0  0  0  0999 V2000
    3.3950   26.3350  -27.6950 C   0  0  0  0  0  0  0  0  0  0  0  0
    2.2170   26.5460  -26.7490 C   0  0  0  0  0  0  0  0  0  0  0  0
    1.1130   25.6270  -27.0870 N   0  0  0  0  0  0  0  0  0  0  0  0
   -0.0410   26.1220  -27.6500 C   0  0  0  0  0  0  0  0  0  0  0  0
   -0.1880   27.3570  -27.8710 O   0  0  0  0  0  0  0  0  0  0  0  0
   -1.0480   25.2330  -27.9870 C   0  0  0  0  0  0  0  0  0  0  0  0
   -2.2340   25.4950  -28.5610 N   0  0  0  0  0  0  0  0  0  0  0  0
   -2.8430   24.2910  -28.7160 C   0  0  0  0  0  0  0  0  0  0  0  0
   -4.1840   24.1110  -29.3240 C   0  0  0  0  0  0  0  0  0  0  0  0
   -4.9500   22.9640  -29.0460 C   0  0  0  0  0  0  0  0  0  0  0  0
   -6.2140   22.7990  -29.6200 C   0  0  0  0  0  0  0  0  0  0  0  0
   -6.7380   23.7680  -30.4800 C   0  0  0  0  0  0  0  0  0  0  0  0
   -8.0100   23.5460  -31.0340 O   0  0  0  0  0  0  0  0  0  0  0  0
   -8.2610   23.0200  -32.3380 C   0  0  0  0  0  0  0  0  0  0  0  0
   -7.8190   21.5780  -32.4290 C   0  0  0  0  0  0  0  0  0  0  0  0
   -8.7870   20.5670  -32.3470 C   0  0  0  0  0  0  0  0  0  0  0  0
   -8.4220   19.2230  -32.4280 C   0  0  0  0  0  0  0  0  0  0  0  0
   -7.0790   18.8600  -32.6060 C   0  0  0  0  0  0  0  0  0  0  0  0
   -6.6740   17.4350  -32.6850 C   0  0  0  0  0  0  0  0  0  0  0  0
   -6.3090   16.8360  -31.6350 O   0  0  0  0  0  0  0  0  0  0  0  0
   -6.6680   16.7320  -33.9370 N   0  0  0  0  0  0  0  0  0  0  0  0
   -6.3880   15.3020  -34.0080 C   0  0  0  0  0  0  0  0  0  0  0  0
   -6.1050   19.8720  -32.6910 C   0  0  0  0  0  0  0  0  0  0  0  0
   -6.4650   21.2330  -32.6150 C   0  0  0  0  0  0  0  0  0  0  0  0
   -5.5050   22.2550  -32.7200 O   0  0  0  0  0  0  0  0  0  0  0  0
   -4.0970   22.0480  -32.7170 C   0  0  0  0  0  0  0  0  0  0  0  0
   -5.9790   24.9190  -30.7570 C   0  0  0  0  0  0  0  0  0  0  0  0
   -4.7150   25.0860  -30.1860 C   0  0  0  0  0  0  0  0  0  0  0  0
   -2.0260   23.2670  -28.2320 C   0  0  0  0  0  0  0  0  0  0  0  0
   -0.8890   23.9040  -27.7690 C   0  0  0  0  0  0  0  0  0  0  0  0
    0.2440   23.3860  -27.2130 N   0  0  0  0  0  0  0  0  0  0  0  0
    0.3980   21.9330  -27.0220 C   0  0  0  0  0  0  0  0  0  0  0  0
    0.2740   21.2040  -28.3550 C   0  0  0  0  0  0  0  0  0  0  0  0
    1.2610   24.2630  -26.8910 C   0  0  0  0  0  0  0  0  0  0  0  0
    2.3440   23.8130  -26.4210 O   0  0  0  0  0  0  0  0  0  0  0  0
    4.3112   26.1709  -27.1088 H   0  0  0  0  0  0  0  0  0  0  0  0
    3.2033   25.4569  -28.3292 H   0  0  0  0  0  0  0  0  0  0  0  0
    3.5200   27.2251  -28.3292 H   0  0  0  0  0  0  0  0  0  0  0  0
    2.5434   26.3555  -25.7160 H   0  0  0  0  0  0  0  0  0  0  0  0
    1.8612   27.5821  -26.8487 H   0  0  0  0  0  0  0  0  0  0  0  0
   -2.5880   26.4330  -28.8540 H   0  0  0  0  0  0  0  0  0  0  0  0
   -4.5514   22.1914  -28.3721 H   0  0  0  0  0  0  0  0  0  0  0  0
   -6.8019   21.8976  -29.3925 H   0  0  0  0  0  0  0  0  0  0  0  0
   -9.3386   23.0810  -32.5502 H   0  0  0  0  0  0  0  0  0  0  0  0
   -7.6923   23.6101  -33.0717 H   0  0  0  0  0  0  0  0  0  0  0  0
   -9.8456   20.8365  -32.2174 H   0  0  0  0  0  0  0  0  0  0  0  0
   -9.1931   18.4423  -32.3517 H   0  0  0  0  0  0  0  0  0  0  0  0
   -6.8120   17.2500  -34.8330 H   0  0  0  0  0  0  0  0  0  0  0  0
   -6.3079   14.8931  -32.9900 H   0  0  0  0  0  0  0  0  0  0  0  0
   -7.2039   14.7948  -34.5438 H   0  0  0  0  0  0  0  0  0  0  0  0
   -5.4411   15.1399  -34.5438 H   0  0  0  0  0  0  0  0  0  0  0  0
   -5.0475   19.5973  -32.8186 H   0  0  0  0  0  0  0  0  0  0  0  0
   -3.7364   21.9950  -31.6791 H   0  0  0  0  0  0  0  0  0  0  0  0
   -3.8638   21.1059  -33.2348 H   0  0  0  0  0  0  0  0  0  0  0  0
   -3.6025   22.8831  -33.2348 H   0  0  0  0  0  0  0  0  0  0  0  0
   -6.3829   25.6922  -31.4271 H   0  0  0  0  0  0  0  0  0  0  0  0
   -4.1297   25.9892  -30.4132 H   0  0  0  0  0  0  0  0  0  0  0  0
   -2.2402   22.1881  -28.2213 H   0  0  0  0  0  0  0  0  0  0  0  0
    1.3875   21.7277  -26.5877 H   0  0  0  0  0  0  0  0  0  0  0  0
   -0.3936   21.5768  -26.3463 H   0  0  0  0  0  0  0  0  0  0  0  0
    0.0921   20.1346  -28.1725 H   0  0  0  0  0  0  0  0  0  0  0  0
   -0.5652   21.6263  -28.9272 H   0  0  0  0  0  0  0  0  0  0  0  0
    1.2056   21.3251  -28.9272 H   0  0  0  0  0  0  0  0  0  0  0  0
  1  2  1  0
  2  3  1  0
  3  4  1  0
  4  5  2  0
  4  6  1  0
  6  7  1  0
  7  8  1  0
  8  9  1  0
  9 10  2  0
 10 11  1  0
 11 12  2  0
 12 13  1  0
 13 14  1  0
 14 15  1  0
 15 16  2  0
 16 17  1  0
 17 18  2  0
 18 19  1  0
 19 20  2  0
 19 21  1  0
 21 22  1  0
 18 23  1  0
 23 24  2  0
 24 25  1  0
 25 26  1  0
 12 27  1  0
 27 28  2  0
  8 29  2  0
 29 30  1  0
 30 31  1  0
 31 32  1  0
 32 33  1  0
 31 34  1  0
 34 35  2  0
 34  3  1  0
 30  6  2  0
 28  9  1  0
 24 15  1  0
  1 36  1  0
  1 37  1  0
  1 38  1  0
  2 39  1  0
  2 40  1  0
  7 41  1  0
 10 42  1  0
 11 43  1  0
 14 44  1  0
 14 45  1  0
 16 46  1  0
 17 47  1  0
 21 48  1  0
 22 49  1  0
 22 50  1  0
 22 51  1  0
 23 52  1  0
 26 53  1  0
 26 54  1  0
 26 55  1  0
 27 56  1  0
 28 57  1  0
 29 58  1  0
 32 59  1  0
 32 60  1  0
 33 61  1  0
 33 62  1  0
 33 63  1  0
M  END
>  <UniqueID>  (5) 
4

>  <SMILES>  (5) 
CCn1c(=O)c2[nH]c(-c3ccc(OCc4ccc(C(=O)NC)cc4OC)cc3)cc2n(CC)c1=O

>  <Energy>  (5) 
104.3582141464669

>  <Genealogy>  (5) 
CCn1c(=O)c2[nH]c(-c3ccc(OCc4ccc(C(=O)NC)cc4OC)cc3)cc2n(CC)c1=O (3D coordinates assigned)
CCn1c(=O)c2[nH]c(-c3ccc(OCc4ccc(C(=O)NC)cc4OC)cc3)cc2n(CC)c1=O (optimized conformer: 104.3582141464669 kcal/mol)

>  <smiles>  (5) 
CCn1c(=O)c2[nH]c(-c3ccc(OCc4ccc(C(=O)NC)cc4OC)cc3)cc2n(CC)c1=O

>  <score_type>  (5) 
oracle

>  <origin>  (5) 
adgpu

>  <m_score__min__energy>  (5) 
-8.1899999999999995

>  <m_primary>  (5) 
energy

$$$$
5:0
     RDKit          3D

 61 65  0  0  0  0  0  0  0  0999 V2000
   -1.7800   22.1920  -31.1830 C   0  0  0  0  0  0  0  0  0  0  0  0
   -3.0430   22.8130  -31.4130 O   0  0  0  0  0  0  0  0  0  0  0  0
   -4.2530   22.1220  -31.5800 C   0  0  0  0  0  0  0  0  0  0  0  0
   -4.3240   20.9000  -32.2670 C   0  0  0  0  0  0  0  0  0  0  0  0
   -5.5420   20.2310  -32.4100 C   0  0  0  0  0  0  0  0  0  0  0  0
   -5.5740   19.0530  -33.0840 N   0  0  0  0  0  0  0  0  0  0  0  0
   -6.7210   18.3480  -33.2580 C   0  0  0  0  0  0  0  0  0  0  0  0
   -6.6870   17.0450  -33.9910 C   0  0  0  0  0  0  0  0  0  0  0  0
   -7.9170   18.8240  -32.7140 C   0  0  0  0  0  0  0  0  0  0  0  0
   -7.9390   20.0350  -32.0100 C   0  0  0  0  0  0  0  0  0  0  0  0
   -9.0810   20.4300  -31.5290 N   0  0  0  0  0  0  0  0  0  0  0  0
   -6.7280   20.7700  -31.8510 C   0  0  0  0  0  0  0  0  0  0  0  0
   -6.6460   22.0000  -31.1600 C   0  0  0  0  0  0  0  0  0  0  0  0
   -5.4220   22.6830  -31.0470 C   0  0  0  0  0  0  0  0  0  0  0  0
   -5.3240   23.9270  -30.3350 N   0  0  0  0  0  0  0  0  0  0  0  0
   -4.1330   24.6980  -30.1220 C   0  0  0  0  0  0  0  0  0  0  0  0
   -3.8660   25.6690  -30.8820 O   0  0  0  0  0  0  0  0  0  0  0  0
   -3.1890   24.3220  -29.0450 C   0  0  0  0  0  0  0  0  0  0  0  0
   -3.5220   23.3120  -28.1240 C   0  0  0  0  0  0  0  0  0  0  0  0
   -2.6310   22.9580  -27.1070 C   0  0  0  0  0  0  0  0  0  0  0  0
   -1.3950   23.6080  -26.9890 C   0  0  0  0  0  0  0  0  0  0  0  0
   -0.2790   23.1700  -25.6920 S   0  0  0  0  0  0  0  0  0  0  0  0
   -0.8350   21.9930  -24.9390 O   0  0  0  0  0  0  0  0  0  0  0  0
    1.0380   22.7570  -26.2910 O   0  0  0  0  0  0  0  0  0  0  0  0
   -0.0300   24.5010  -24.5820 N   0  0  2  0  0  0  0  0  0  0  0  0
   -1.2190   25.4060  -24.5620 C   0  0  0  0  0  0  0  0  0  0  0  0
   -0.9940   26.7370  -25.2930 C   0  0  0  0  0  0  0  0  0  0  0  0
    0.2160   27.3960  -24.7080 C   0  0  0  0  0  0  0  0  0  0  0  0
    0.2540   28.7720  -24.4360 C   0  0  0  0  0  0  0  0  0  0  0  0
    1.4080   29.3410  -23.8850 C   0  0  0  0  0  0  0  0  0  0  0  0
    2.5250   28.5410  -23.6160 C   0  0  0  0  0  0  0  0  0  0  0  0
    2.4920   27.1710  -23.8970 C   0  0  0  0  0  0  0  0  0  0  0  0
    1.3290   26.5940  -24.4330 C   0  0  0  0  0  0  0  0  0  0  0  0
    1.2860   25.1460  -24.8500 C   0  0  0  0  0  0  0  0  0  0  0  0
   -1.0530   24.6050  -27.9110 C   0  0  0  0  0  0  0  0  0  0  0  0
   -1.9430   24.9620  -28.9290 C   0  0  0  0  0  0  0  0  0  0  0  0
   -1.6054   22.1061  -30.1004 H   0  0  0  0  0  0  0  0  0  0  0  0
   -1.7765   21.1894  -31.6356 H   0  0  0  0  0  0  0  0  0  0  0  0
   -0.9839   22.8014  -31.6356 H   0  0  0  0  0  0  0  0  0  0  0  0
   -3.4104   20.4643  -32.6976 H   0  0  0  0  0  0  0  0  0  0  0  0
   -6.6654   16.2173  -33.2668 H   0  0  0  0  0  0  0  0  0  0  0  0
   -7.5831   16.9562  -34.6227 H   0  0  0  0  0  0  0  0  0  0  0  0
   -5.7875   17.0030  -34.6227 H   0  0  0  0  0  0  0  0  0  0  0  0
   -8.8444   18.2458  -32.8390 H   0  0  0  0  0  0  0  0  0  0  0  0
   -9.2510   21.3030  -30.9900 H   0  0  0  0  0  0  0  0  0  0  0  0
   -7.5511   22.4285  -30.7048 H   0  0  0  0  0  0  0  0  0  0  0  0
   -4.4907   22.7971  -28.2049 H   0  0  0  0  0  0  0  0  0  0  0  0
   -2.9015   22.1644  -26.3949 H   0  0  0  0  0  0  0  0  0  0  0  0
    0.0330   24.0630  -23.6320 H   0  0  0  0  0  0  0  0  0  0  0  0
   -2.0605   24.8844  -25.0415 H   0  0  0  0  0  0  0  0  0  0  0  0
   -1.4208   25.6482  -23.5082 H   0  0  0  0  0  0  0  0  0  0  0  0
   -0.8340   26.5501  -26.3651 H   0  0  0  0  0  0  0  0  0  0  0  0
   -1.8735   27.3871  -25.1757 H   0  0  0  0  0  0  0  0  0  0  0  0
   -0.6208   29.4018  -24.6552 H   0  0  0  0  0  0  0  0  0  0  0  0
    1.4373   30.4180  -23.6631 H   0  0  0  0  0  0  0  0  0  0  0  0
    3.4306   28.9907  -23.1827 H   0  0  0  0  0  0  0  0  0  0  0  0
    3.3755   26.5466  -23.6985 H   0  0  0  0  0  0  0  0  0  0  0  0
    1.4925   25.0858  -25.9288 H   0  0  0  0  0  0  0  0  0  0  0  0
    2.0415   24.6104  -24.2563 H   0  0  0  0  0  0  0  0  0  0  0  0
   -0.0789   25.1102  -27.8341 H   0  0  0  0  0  0  0  0  0  0  0  0
   -1.6657   25.7500  -29.6447 H   0  0  0  0  0  0  0  0  0  0  0  0
  1  2  1  0
  2  3  1  0
  3  4  2  0
  4  5  1  0
  5  6  1  0
  6  7  1  0
  7  8  1  0
  7  9  2  0
  9 10  1  0
 10 11  2  3
 10 12  1  0
 12 13  1  0
 13 14  2  0
 14 15  1  0
 15 16  1  0
 16 17  2  0
 16 18  1  0
 18 19  2  0
 19 20  1  0
 20 21  2  0
 21 22  1  0
 22 23  2  0
 22 24  2  0
 22 25  1  0
 25 26  1  0
 26 27  1  0
 27 28  1  0
 28 29  2  0
 29 30  1  0
 30 31  2  0
 31 32  1  0
 32 33  2  0
 33 34  1  0
 21 35  1  0
 35 36  2  0
 14  3  1  0
 36 18  1  0
 12  5  2  0
 34 25  1  0
 33 28  1  0
  1 37  1  0
  1 38  1  0
  1 39  1  0
  4 40  1  0
  8 41  1  0
  8 42  1  0
  8 43  1  0
  9 44  1  0
 11 45  1  0
 13 46  1  0
 19 47  1  0
 20 48  1  0
 25 49  1  1
 26 50  1  0
 26 51  1  0
 27 52  1  0
 27 53  1  0
 29 54  1  0
 30 55  1  0
 31 56  1  0
 32 57  1  0
 34 58  1  0
 34 59  1  0
 35 60  1  0
 36 61  1  0
M  CHG  3   6  -1  15  -1  25   1
M  END
>  <UniqueID>  (6) 
5

>  <SMILES>  (6) 
COc1cc2[n-]c(C)cc(=N)c2cc1[N-]C(=O)c1ccc(S(=O)(=O)[N@@H+]2CCc3ccccc3C2)cc1

>  <Energy>  (6) 
86.92145445031568

>  <Genealogy>  (6) 
COc1cc2[n-]c(C)cc(=N)c2cc1[N-]C(=O)c1ccc(S(=O)(=O)[NH+]2CCc3ccccc3C2)cc1 (protonated)
COc1cc2[n-]c(C)cc(=N)c2cc1[N-]C(=O)c1ccc(S(=O)(=O)[N@@H+]2CCc3ccccc3C2)cc1 (chirality)
COc1cc2[n-]c(C)cc(=N)c2cc1[N-]C(=O)c1ccc(S(=O)(=O)[N@@H+]2CCc3ccccc3C2)cc1 (3D coordinates assigned)
COc1cc2[n-]c(C)cc(=N)c2cc1[N-]C(=O)c1ccc(S(=O)(=O)[N@@H+]2CCc3ccccc3C2)cc1 (nonaromatic ring conformer: 86.92145445031568 kcal/mol)

>  <smiles>  (6) 
COc1cc2[nH]c(C)cc(=N)c2cc1NC(=O)c1ccc(S(=O)(=O)N2CCc3ccccc3C2)cc1

>  <score_type>  (6) 
oracle

>  <origin>  (6) 
adgpu

>  <m_score__min__energy>  (6) 
-13.42

>  <m_primary>  (6) 
energy

$$$$
6:0
     RDKit          3D

 36 38  0  0  0  0  0  0  0  0999 V2000
  -10.4160   21.1360  -30.8970 H   0  0  0  0  0  0  0  0  0  0  0  0
   -9.7340   21.9250  -30.8320 N   0  0  0  0  0  0  0  0  0  0  0  0
   -8.5110   21.8730  -31.2690 C   0  0  0  0  0  0  0  0  0  0  0  0
   -7.9880   20.7130  -31.8850 C   0  0  0  0  0  0  0  0  0  0  0  0
   -8.8230   19.5440  -32.0830 C   0  0  0  0  0  0  0  0  0  0  0  0
   -9.4880   18.6100  -32.2410 N   0  0  0  0  0  0  0  0  0  0  0  0
   -6.6510   20.7170  -32.3440 C   0  0  0  0  0  0  0  0  0  0  0  0
   -6.0760   19.5140  -32.9980 C   0  0  0  0  0  0  0  0  0  0  0  0
   -5.4320   18.4990  -32.2980 C   0  0  0  0  0  0  0  0  0  0  0  0
   -5.2735   18.4636  -31.2101 H   0  0  0  0  0  0  0  0  0  0  0  0
   -4.9390   17.3370  -33.4060 S   0  0  0  0  0  0  0  0  0  0  0  0
   -5.5350   18.1020  -34.7780 C   0  0  0  0  0  0  0  0  0  0  0  0
   -5.4634   17.7262  -35.8093 H   0  0  0  0  0  0  0  0  0  0  0  0
   -6.1330   19.2900  -34.3840 C   0  0  0  0  0  0  0  0  0  0  0  0
   -6.6063   19.9895  -35.0888 H   0  0  0  0  0  0  0  0  0  0  0  0
   -5.8660   21.8790  -32.1750 C   0  0  0  0  0  0  0  0  0  0  0  0
   -4.4890   21.9130  -32.6180 C   0  0  0  0  0  0  0  0  0  0  0  0
   -3.3870   21.9390  -32.9730 N   0  0  0  0  0  0  0  0  0  0  0  0
   -6.4280   23.0030  -31.5460 C   0  0  0  0  0  0  0  0  0  0  0  0
   -5.4660   24.5030  -31.2760 S   0  0  0  0  0  0  0  0  0  0  0  0
   -4.4190   23.7240  -30.0440 C   0  0  0  0  0  0  0  0  0  0  0  0
   -3.0270   23.7850  -30.1700 C   0  0  0  0  0  0  0  0  0  0  0  0
   -2.5756   24.3055  -31.0275 H   0  0  0  0  0  0  0  0  0  0  0  0
   -2.2080   23.1850  -29.2070 C   0  0  0  0  0  0  0  0  0  0  0  0
   -1.1140   23.2305  -29.3120 H   0  0  0  0  0  0  0  0  0  0  0  0
   -2.7790   22.5250  -28.1070 C   0  0  0  0  0  0  0  0  0  0  0  0
   -1.9020   21.8480  -27.0960 C   0  0  0  0  0  0  0  0  0  0  0  0
   -2.2410   22.1097  -26.0828 H   0  0  0  0  0  0  0  0  0  0  0  0
   -1.9597   20.7580  -27.2319 H   0  0  0  0  0  0  0  0  0  0  0  0
   -0.8621   22.1799  -27.2319 H   0  0  0  0  0  0  0  0  0  0  0  0
   -4.1750   22.4440  -28.0000 C   0  0  0  0  0  0  0  0  0  0  0  0
   -4.6291   21.9061  -27.1548 H   0  0  0  0  0  0  0  0  0  0  0  0
   -4.9920   23.0440  -28.9630 C   0  0  0  0  0  0  0  0  0  0  0  0
   -6.0864   22.9816  -28.8710 H   0  0  0  0  0  0  0  0  0  0  0  0
   -7.7210   22.9730  -31.1230 N   0  0  0  0  0  0  0  0  0  0  0  0
   -8.1170   23.8250  -30.6660 H   0  0  0  0  0  0  0  0  0  0  0  0
  1  2  1  0
  2  3  2  0
  3  4  1  0
  4  5  1  0
  5  6  3  0
  4  7  2  0
  7  8  1  0
  8  9  2  0
  9 10  1  0
  9 11  1  0
 11 12  1  0
 12 13  1  0
 12 14  2  0
 14 15  1  0
  7 16  1  0
 16 17  1  0
 17 18  3  0
 16 19  2  0
 19 20  1  0
 20 21  1  0
 21 22  2  0
 22 23  1  0
 22 24  1  0
 24 25  1  0
 24 26  2  0
 26 27  1  0
 27 28  1  0
 27 29  1  0
 27 30  1  0
 26 31  1  0
 31 32  1  0
 31 33  2  0
 33 34  1  0
 19 35  1  0
 35 36  1  0
 35  3  1  0
 14  8  1  0
 33 21  1  0
M  END
>  <UniqueID>  (7) 
6

>  <SMILES>  (7) 
[H]/N=c1/[nH]c(Sc2ccc(C)cc2)c(C#N)c(-c2ccsc2)c1C#N

>  <Energy>  (7) 
70.43076136644179

>  <Genealogy>  (7) 
[H]/N=c1/[nH]c(Sc2ccc(C)cc2)c(C#N)c(-c2ccsc2)c1C#N (cis-trans isomerization)
[H]/N=c1/[nH]c(Sc2ccc(C)cc2)c(C#N)c(-c2ccsc2)c1C#N (3D coordinates assigned)
[H]/N=c1/[nH]c(Sc2ccc(C)cc2)c(C#N)c(-c2ccsc2)c1C#N (optimized conformer: 70.43076136644179 kcal/mol)

>  <smiles>  (7) 
Cc1ccc(Sc2[nH]c(=N)c(C#N)c(-c3ccsc3)c2C#N)cc1

>  <score_type>  (7) 
oracle

>  <origin>  (7) 
adgpu

>  <m_score__min__energy>  (7) 
-8.75

>  <m_primary>  (7) 
energy

$$$$
7:0
     RDKit          3D

 44 46  0  0  0  0  0  0  0  0999 V2000
   -3.0170   25.2920  -30.2590 H   0  0  0  0  0  0  0  0  0  0  0  0
   -3.8700   25.4340  -30.8430 N   0  0  0  0  0  0  0  0  0  0  0  0
   -5.2110   24.8280  -29.9370 S   0  0  0  0  0  0  0  0  0  0  0  0
   -6.1680   25.9500  -29.6420 O   0  0  0  0  0  0  0  0  0  0  0  0
   -4.7200   24.2590  -28.6350 O   0  0  0  0  0  0  0  0  0  0  0  0
   -6.0270   23.5770  -30.8660 C   0  0  0  0  0  0  0  0  0  0  0  0
   -7.4270   23.5480  -30.9350 C   0  0  0  0  0  0  0  0  0  0  0  0
   -8.0179   24.3243  -30.4268 H   0  0  0  0  0  0  0  0  0  0  0  0
   -8.0730   22.5350  -31.6480 C   0  0  0  0  0  0  0  0  0  0  0  0
   -9.1718   22.5120  -31.6947 H   0  0  0  0  0  0  0  0  0  0  0  0
   -7.3270   21.5510  -32.3020 C   0  0  0  0  0  0  0  0  0  0  0  0
   -7.8408   20.7460  -32.8478 H   0  0  0  0  0  0  0  0  0  0  0  0
   -5.9270   21.5860  -32.2650 C   0  0  0  0  0  0  0  0  0  0  0  0
   -5.1850   20.5290  -32.8960 N   0  0  0  0  0  0  0  0  0  0  0  0
   -5.3740   19.2450  -32.7740 C   0  0  0  0  0  0  0  0  0  0  0  0
   -4.6230   18.4030  -33.5320 N   0  0  0  0  0  0  0  0  0  0  0  0
   -4.7420   17.0490  -33.4580 C   0  0  0  0  0  0  0  0  0  0  0  0
   -3.8990   16.1910  -34.3290 C   0  0  0  0  0  0  0  0  0  0  0  0
   -4.2960   14.8870  -34.6740 C   0  0  0  0  0  0  0  0  0  0  0  0
   -5.2517   14.4924  -34.2985 H   0  0  0  0  0  0  0  0  0  0  0  0
   -3.4850   14.0810  -35.4940 C   0  0  0  0  0  0  0  0  0  0  0  0
   -3.8550   12.7760  -35.8600 O   0  0  0  0  0  0  0  0  0  0  0  0
   -4.6000   11.8860  -35.0350 C   0  0  0  0  0  0  0  0  0  0  0  0
   -4.4062   12.1176  -33.9773 H   0  0  0  0  0  0  0  0  0  0  0  0
   -5.6734   12.0030  -35.2452 H   0  0  0  0  0  0  0  0  0  0  0  0
   -4.2960   10.8500  -35.2452 H   0  0  0  0  0  0  0  0  0  0  0  0
   -2.2660   14.5830  -35.9680 C   0  0  0  0  0  0  0  0  0  0  0  0
   -1.4750   13.7710  -36.7840 O   0  0  0  0  0  0  0  0  0  0  0  0
   -1.7450   12.8270  -37.0320 H   0  0  0  0  0  0  0  0  0  0  0  0
   -1.8470   15.8800  -35.6230 C   0  0  0  0  0  0  0  0  0  0  0  0
   -0.6160   16.3450  -36.1150 O   0  0  0  0  0  0  0  0  0  0  0  0
    0.0910   17.4670  -35.5950 C   0  0  0  0  0  0  0  0  0  0  0  0
    0.0712   17.4355  -34.4956 H   0  0  0  0  0  0  0  0  0  0  0  0
    1.1338   17.4371  -35.9439 H   0  0  0  0  0  0  0  0  0  0  0  0
   -0.3860   18.3948  -35.9439 H   0  0  0  0  0  0  0  0  0  0  0  0
   -2.6670   16.6740  -34.8010 C   0  0  0  0  0  0  0  0  0  0  0  0
   -2.3392   17.6868  -34.5240 H   0  0  0  0  0  0  0  0  0  0  0  0
   -5.6810   16.5080  -32.5630 C   0  0  0  0  0  0  0  0  0  0  0  0
   -5.8150   15.4184  -32.4930 H   0  0  0  0  0  0  0  0  0  0  0  0
   -6.4210   17.3380  -31.7860 N   0  0  0  0  0  0  0  0  0  0  0  0
   -6.2890   18.6880  -31.8590 C   0  0  0  0  0  0  0  0  0  0  0  0
   -6.8911   19.3404  -31.2095 H   0  0  0  0  0  0  0  0  0  0  0  0
   -5.2810   22.5840  -31.5160 C   0  0  0  0  0  0  0  0  0  0  0  0
   -4.1837   22.5861  -31.4393 H   0  0  0  0  0  0  0  0  0  0  0  0
  1  2  1  0
  2  3  1  0
  3  4  2  0
  3  5  2  0
  3  6  1  0
  6  7  2  0
  7  8  1  0
  7  9  1  0
  9 10  1  0
  9 11  2  0
 11 12  1  0
 11 13  1  0
 13 14  1  0
 14 15  2  0
 15 16  1  0
 16 17  1  0
 17 18  1  0
 18 19  2  0
 19 20  1  0
 19 21  1  0
 21 22  1  0
 22 23  1  0
 23 24  1  0
 23 25  1  0
 23 26  1  0
 21 27  2  0
 27 28  1  0
 28 29  1  0
 27 30  1  0
 30 31  1  0
 31 32  1  0
 32 33  1  0
 32 34  1  0
 32 35  1  0
 30 36  2  0
 36 37  1  0
 17 38  2  0
 38 39  1  0
 38 40  1  0
 40 41  2  0
 41 42  1  0
 13 43  2  0
 43 44  1  0
 43  6  1  0
 41 15  1  0
 36 18  1  0
M  CHG  2   2  -1  16  -1
M  END
>  <UniqueID>  (8) 
7

>  <SMILES>  (8) 
COc1cc(-c2cnc/c(=N\c3cccc(S([NH-])(=O)=O)c3)[n-]2)cc(OC)c1O

>  <Energy>  (8) 
60.89089523746254

>  <Genealogy>  (8) 
COc1cc(-c2cncc(=Nc3cccc(S([NH-])(=O)=O)c3)[n-]2)cc(OC)c1O (protonated)
COc1cc(-c2cnc/c(=N\c3cccc(S([NH-])(=O)=O)c3)[n-]2)cc(OC)c1O (cis-trans isomerization)
COc1cc(-c2cnc/c(=N\c3cccc(S([NH-])(=O)=O)c3)[n-]2)cc(OC)c1O (3D coordinates assigned)
COc1cc(-c2cnc/c(=N\c3cccc(S([NH-])(=O)=O)c3)[n-]2)cc(OC)c1O (optimized conformer: 60.89089523746254 kcal/mol)

>  <smiles>  (8) 
COc1cc(-c2cncc(=Nc3cccc(S(N)(=O)=O)c3)[nH]2)cc(OC)c1O

>  <score_type>  (8) 
oracle

>  <origin>  (8) 
adgpu

>  <m_score__min__energy>  (8) 
-9.1899999999999995

>  <m_primary>  (8) 
energy

$$$$
8:0
     RDKit          3D

 32 34  0  0  0  0  0  0  0  0999 V2000
   -6.8870   18.7500  -33.0410 C   0  0  0  0  0  0  0  0  0  0  0  0
   -7.5610   19.9510  -32.5410 N   0  0  0  0  0  0  0  0  0  0  0  0
   -8.9110   20.1110  -32.4870 C   0  0  0  0  0  0  0  0  0  0  0  0
   -9.7340   19.2350  -32.8630 O   0  0  0  0  0  0  0  0  0  0  0  0
   -9.3640   21.6120  -31.8580 S   0  0  0  0  0  0  0  0  0  0  0  0
   -7.7640   22.0790  -31.6470 C   0  0  0  0  0  0  0  0  0  0  0  0
   -7.2810   23.2810  -31.1360 C   0  0  0  0  0  0  0  0  0  0  0  0
   -5.8900   23.4570  -31.0440 C   0  0  0  0  0  0  0  0  0  0  0  0
   -5.2260   24.9500  -30.3890 S   0  0  0  0  0  0  0  0  0  0  0  0
   -5.6510   25.1380  -28.9590 O   0  0  0  0  0  0  0  0  0  0  0  0
   -5.7290   26.1060  -31.2060 O   0  0  0  0  0  0  0  0  0  0  0  0
   -3.4940   24.9130  -30.4640 N   0  0  0  0  0  0  0  0  0  0  0  0
   -2.6440   24.1740  -29.5740 C   0  0  0  0  0  0  0  0  0  0  0  0
   -2.4810   24.5320  -28.2230 C   0  0  0  0  0  0  0  0  0  0  0  0
   -1.6480   23.7770  -27.3910 C   0  0  0  0  0  0  0  0  0  0  0  0
   -0.9730   22.6640  -27.8990 C   0  0  0  0  0  0  0  0  0  0  0  0
   -0.1660   21.9330  -27.0900 F   0  0  0  0  0  0  0  0  0  0  0  0
   -1.1280   22.3050  -29.2400 C   0  0  0  0  0  0  0  0  0  0  0  0
   -1.9610   23.0570  -30.0750 C   0  0  0  0  0  0  0  0  0  0  0  0
   -5.0200   22.4310  -31.4730 C   0  0  0  0  0  0  0  0  0  0  0  0
   -5.5300   21.2280  -31.9860 C   0  0  0  0  0  0  0  0  0  0  0  0
   -6.9190   21.0600  -32.0680 C   0  0  0  0  0  0  0  0  0  0  0  0
   -6.5451   18.1408  -32.1913 H   0  0  0  0  0  0  0  0  0  0  0  0
   -7.5882   18.1642  -33.6535 H   0  0  0  0  0  0  0  0  0  0  0  0
   -6.0217   19.0433  -33.6535 H   0  0  0  0  0  0  0  0  0  0  0  0
   -7.9717   24.0735  -30.8122 H   0  0  0  0  0  0  0  0  0  0  0  0
   -3.0102   25.4081  -27.8201 H   0  0  0  0  0  0  0  0  0  0  0  0
   -1.5241   24.0598  -26.3352 H   0  0  0  0  0  0  0  0  0  0  0  0
   -0.5945   21.4301  -29.6398 H   0  0  0  0  0  0  0  0  0  0  0  0
   -2.0808   22.7704  -31.1302 H   0  0  0  0  0  0  0  0  0  0  0  0
   -3.9317   22.5758  -31.4045 H   0  0  0  0  0  0  0  0  0  0  0  0
   -4.8501   20.4297  -32.3184 H   0  0  0  0  0  0  0  0  0  0  0  0
  1  2  1  0
  2  3  1  0
  3  4  2  0
  3  5  1  0
  5  6  1  0
  6  7  2  0
  7  8  1  0
  8  9  1  0
  9 10  2  0
  9 11  2  0
  9 12  1  0
 12 13  1  0
 13 14  2  0
 14 15  1  0
 15 16  2  0
 16 17  1  0
 16 18  1  0
 18 19  2  0
  8 20  2  0
 20 21  1  0
 21 22  2  0
 22  2  1  0
 22  6  1  0
 19 13  1  0
  1 23  1  0
  1 24  1  0
  1 25  1  0
  7 26  1  0
 14 27  1  0
 15 28  1  0
 18 29  1  0
 19 30  1  0
 20 31  1  0
 21 32  1  0
M  CHG  1  12  -1
M  END
>  <UniqueID>  (9) 
8

>  <SMILES>  (9) 
Cn1c(=O)sc2cc(S(=O)(=O)[N-]c3ccc(F)cc3)ccc21

>  <Energy>  (9) 
74.0110173469306

>  <Genealogy>  (9) 
Cn1c(=O)sc2cc(S(=O)(=O)[N-]c3ccc(F)cc3)ccc21 (protonated)
Cn1c(=O)sc2cc(S(=O)(=O)[N-]c3ccc(F)cc3)ccc21 (3D coordinates assigned)
Cn1c(=O)sc2cc(S(=O)(=O)[N-]c3ccc(F)cc3)ccc21 (optimized conformer: 74.0110173469306 kcal/mol)

>  <smiles>  (9) 
Cn1c(=O)sc2cc(S(=O)(=O)Nc3ccc(F)cc3)ccc21

>  <score_type>  (9) 
oracle

>  <origin>  (9) 
adgpu

>  <m_score__min__energy>  (9) 
-9.7599999999999998

>  <m_primary>  (9) 
energy

$$$$
9:0
     RDKit          3D

 62 65  0  0  0  0  0  0  0  0999 V2000
    2.2100   28.3460  -22.1500 C   0  0  0  0  0  0  0  0  0  0  0  0
    1.4210   27.6920  -23.2450 C   0  0  0  0  0  0  0  0  0  0  0  0
    0.1430   27.1810  -22.9830 C   0  0  0  0  0  0  0  0  0  0  0  0
   -0.5790   26.5350  -23.9910 C   0  0  0  0  0  0  0  0  0  0  0  0
   -0.0280   26.3770  -25.2760 C   0  0  0  0  0  0  0  0  0  0  0  0
   -0.7920   25.6870  -26.3470 C   0  0  0  0  0  0  0  0  0  0  0  0
   -0.2240   25.4880  -27.6180 C   0  0  0  0  0  0  0  0  0  0  0  0
   -0.9400   24.8320  -28.6220 C   0  0  0  0  0  0  0  0  0  0  0  0
   -2.2410   24.3670  -28.3790 C   0  0  0  0  0  0  0  0  0  0  0  0
   -2.9890   23.6950  -29.4120 N   0  0  0  0  0  0  0  0  0  0  0  0
   -3.7050   24.2960  -30.3850 C   0  0  0  0  0  0  0  0  0  0  0  0
   -3.8740   25.6720  -30.5000 O   0  0  0  0  0  0  0  0  0  0  0  0
   -4.2470   23.3590  -31.2310 C   0  0  0  0  0  0  0  0  0  0  0  0
   -5.0310   23.6140  -32.3530 O   0  0  0  0  0  0  0  0  0  0  0  0
   -3.8460   22.1150  -30.7800 C   0  0  0  0  0  0  0  0  0  0  0  0
   -4.1430   20.8350  -31.4590 C   0  0  0  0  0  0  0  0  0  0  0  0
   -3.4650   19.8180  -31.1510 O   0  0  0  0  0  0  0  0  0  0  0  0
   -5.3460   20.6710  -32.3600 C   0  0  0  0  0  0  0  0  0  0  0  0
   -6.6820   20.5710  -31.5910 C   0  0  0  0  0  0  0  0  0  0  0  0
   -7.5030   19.3530  -32.0360 C   0  0  0  0  0  0  0  0  0  0  0  0
   -7.5010   21.8510  -31.7890 C   0  0  0  0  0  0  0  0  0  0  0  0
   -3.0860   22.3580  -29.6310 C   0  0  0  0  0  0  0  0  0  0  0  0
   -2.4490   21.3350  -28.7740 C   0  0  0  0  0  0  0  0  0  0  0  0
   -3.0830   20.9850  -27.5720 C   0  0  0  0  0  0  0  0  0  0  0  0
   -2.5230   20.0220  -26.7310 C   0  0  0  0  0  0  0  0  0  0  0  0
   -1.3320   19.3910  -27.0860 C   0  0  0  0  0  0  0  0  0  0  0  0
   -0.6980   19.7160  -28.2870 C   0  0  0  0  0  0  0  0  0  0  0  0
   -1.2380   20.6930  -29.1420 C   0  0  0  0  0  0  0  0  0  0  0  0
   -0.5620   20.9450  -30.4700 C   0  0  0  0  0  0  0  0  0  0  0  0
   -0.3030   22.3120  -30.6320 O   0  0  0  0  0  0  0  0  0  0  0  0
   -2.8100   24.5610  -27.1110 C   0  0  0  0  0  0  0  0  0  0  0  0
   -2.0950   25.2150  -26.1060 C   0  0  0  0  0  0  0  0  0  0  0  0
    1.2620   26.8780  -25.5280 C   0  0  0  0  0  0  0  0  0  0  0  0
    1.9830   27.5230  -24.5190 C   0  0  0  0  0  0  0  0  0  0  0  0
    1.8199   28.0227  -21.1736 H   0  0  0  0  0  0  0  0  0  0  0  0
    3.2675   28.0560  -22.2366 H   0  0  0  0  0  0  0  0  0  0  0  0
    2.1212   29.4390  -22.2366 H   0  0  0  0  0  0  0  0  0  0  0  0
   -0.2944   27.2886  -21.9794 H   0  0  0  0  0  0  0  0  0  0  0  0
   -1.5860   26.1471  -23.7778 H   0  0  0  0  0  0  0  0  0  0  0  0
    0.7934   25.8523  -27.8234 H   0  0  0  0  0  0  0  0  0  0  0  0
   -0.4807   24.6790  -29.6097 H   0  0  0  0  0  0  0  0  0  0  0  0
   -5.1360   24.5560  -32.7120 H   0  0  0  0  0  0  0  0  0  0  0  0
   -5.3966   21.5383  -33.0347 H   0  0  0  0  0  0  0  0  0  0  0  0
   -5.2151   19.7251  -32.9060 H   0  0  0  0  0  0  0  0  0  0  0  0
   -6.4441   20.4472  -30.5242 H   0  0  0  0  0  0  0  0  0  0  0  0
   -7.8672   18.8127  -31.1498 H   0  0  0  0  0  0  0  0  0  0  0  0
   -8.3599   19.6887  -32.6386 H   0  0  0  0  0  0  0  0  0  0  0  0
   -6.8704   18.6847  -32.6386 H   0  0  0  0  0  0  0  0  0  0  0  0
   -7.7692   22.2701  -30.8080 H   0  0  0  0  0  0  0  0  0  0  0  0
   -6.9043   22.5849  -32.3506 H   0  0  0  0  0  0  0  0  0  0  0  0
   -8.4174   21.6168  -32.3506 H   0  0  0  0  0  0  0  0  0  0  0  0
   -4.0278   21.4730  -27.2906 H   0  0  0  0  0  0  0  0  0  0  0  0
   -3.0225   19.7606  -25.7864 H   0  0  0  0  0  0  0  0  0  0  0  0
   -0.8907   18.6357  -26.4190 H   0  0  0  0  0  0  0  0  0  0  0  0
    0.2335   19.2024  -28.5671 H   0  0  0  0  0  0  0  0  0  0  0  0
    0.3866   20.3892  -30.5055 H   0  0  0  0  0  0  0  0  0  0  0  0
   -1.2265   20.6084  -31.2794 H   0  0  0  0  0  0  0  0  0  0  0  0
   -1.1170   22.7080  -31.0420 H   0  0  0  0  0  0  0  0  0  0  0  0
   -3.8271   24.1950  -26.9074 H   0  0  0  0  0  0  0  0  0  0  0  0
   -2.5544   25.3624  -25.1175 H   0  0  0  0  0  0  0  0  0  0  0  0
    1.7070   26.7613  -26.5272 H   0  0  0  0  0  0  0  0  0  0  0  0
    2.9957   27.8998  -24.7250 H   0  0  0  0  0  0  0  0  0  0  0  0
  1  2  1  0
  2  3  2  0
  3  4  1  0
  4  5  2  0
  5  6  1  0
  6  7  2  0
  7  8  1  0
  8  9  2  0
  9 10  1  0
 10 11  1  0
 11 12  1  0
 11 13  2  0
 13 14  1  0
 13 15  1  0
 15 16  1  0
 16 17  2  0
 16 18  1  0
 18 19  1  0
 19 20  1  0
 19 21  1  0
 15 22  2  0
 22 23  1  0
 23 24  2  0
 24 25  1  0
 25 26  2  0
 26 27  1  0
 27 28  2  0
 28 29  1  0
 29 30  1  0
  9 31  1  0
 31 32  2  0
  5 33  1  0
 33 34  2  0
 34  2  1  0
 32  6  1  0
 22 10  1  0
 28 23  1  0
  1 35  1  0
  1 36  1  0
  1 37  1  0
  3 38  1  0
  4 39  1  0
  7 40  1  0
  8 41  1  0
 14 42  1  0
 18 43  1  0
 18 44  1  0
 19 45  1  0
 20 46  1  0
 20 47  1  0
 20 48  1  0
 21 49  1  0
 21 50  1  0
 21 51  1  0
 24 52  1  0
 25 53  1  0
 26 54  1  0
 27 55  1  0
 29 56  1  0
 29 57  1  0
 30 58  1  0
 31 59  1  0
 32 60  1  0
 33 61  1  0
 34 62  1  0
M  CHG  1  12  -1
M  END
>  <UniqueID>  (10) 
9

>  <SMILES>  (10) 
Cc1ccc(-c2ccc(-n3c([O-])c(O)c(C(=O)CC(C)C)c3-c3ccccc3CO)cc2)cc1

>  <Energy>  (10) 
108.05485416419494

>  <Genealogy>  (10) 
Cc1ccc(-c2ccc(-n3c([O-])c(O)c(C(=O)CC(C)C)c3-c3ccccc3CO)cc2)cc1 (protonated)
Cc1ccc(-c2ccc(-n3c([O-])c(O)c(C(=O)CC(C)C)c3-c3ccccc3CO)cc2)cc1 (3D coordinates assigned)
Cc1ccc(-c2ccc(-n3c([O-])c(O)c(C(=O)CC(C)C)c3-c3ccccc3CO)cc2)cc1 (optimized conformer: 108.05485416419494 kcal/mol)

>  <smiles>  (10) 
Cc1ccc(-c2ccc(-n3c(O)c(O)c(C(=O)CC(C)C)c3-c3ccccc3CO)cc2)cc1

>  <score_type>  (10) 
oracle

>  <origin>  (10) 
adgpu

>  <m_score__min__energy>  (10) 
-11.51

>  <m_primary>  (10) 
energy

$$$$
10:0
     RDKit          3D

 28 30  0  0  0  0  0  0  0  0999 V2000
   -4.2290   25.6730  -30.5600 O   0  0  0  0  0  0  0  0  0  0  0  0
   -4.2600   24.4140  -30.4970 C   0  0  0  0  0  0  0  0  0  0  0  0
   -5.3560   23.7350  -31.0290 C   0  0  0  0  0  0  0  0  0  0  0  0
   -5.3980   22.3310  -30.9630 C   0  0  0  0  0  0  0  0  0  0  0  0
   -6.5400   21.5560  -31.5140 C   0  0  0  0  0  0  0  0  0  0  0  0
   -7.8470   22.0540  -31.3680 C   0  0  0  0  0  0  0  0  0  0  0  0
   -8.9370   21.3500  -31.8830 C   0  0  0  0  0  0  0  0  0  0  0  0
   -8.7390   20.1430  -32.5580 C   0  0  0  0  0  0  0  0  0  0  0  0
   -9.8300   19.4470  -33.0670 O   0  0  0  0  0  0  0  0  0  0  0  0
   -7.4440   19.6390  -32.7250 C   0  0  0  0  0  0  0  0  0  0  0  0
   -7.2530   18.4400  -33.4100 O   0  0  0  0  0  0  0  0  0  0  0  0
   -6.3480   20.3450  -32.2080 C   0  0  0  0  0  0  0  0  0  0  0  0
   -4.3860   21.6720  -30.4080 O   0  0  0  0  0  0  0  0  0  0  0  0
   -3.3190   22.2730  -29.8880 C   0  0  0  0  0  0  0  0  0  0  0  0
   -2.3050   21.4960  -29.3210 C   0  0  0  0  0  0  0  0  0  0  0  0
   -1.1780   22.1070  -28.7670 C   0  0  0  0  0  0  0  0  0  0  0  0
   -0.1730   21.3290  -28.2050 O   0  0  0  0  0  0  0  0  0  0  0  0
   -1.0590   23.4980  -28.7790 C   0  0  0  0  0  0  0  0  0  0  0  0
   -2.0640   24.2920  -29.3430 C   0  0  0  0  0  0  0  0  0  0  0  0
   -1.9060   25.6740  -29.3350 O   0  0  0  0  0  0  0  0  0  0  0  0
   -3.2090   23.6840  -29.9060 C   0  0  0  0  0  0  0  0  0  0  0  0
   -6.1807   24.2931  -31.4963 H   0  0  0  0  0  0  0  0  0  0  0  0
   -8.0120   23.0067  -30.8434 H   0  0  0  0  0  0  0  0  0  0  0  0
   -9.9551   21.7470  -31.7569 H   0  0  0  0  0  0  0  0  0  0  0  0
   -8.0240   17.9520  -33.8510 H   0  0  0  0  0  0  0  0  0  0  0  0
   -5.3305   19.9502  -32.3454 H   0  0  0  0  0  0  0  0  0  0  0  0
   -2.3949   20.3997  -29.3111 H   0  0  0  0  0  0  0  0  0  0  0  0
   -0.1686   23.9735  -28.3418 H   0  0  0  0  0  0  0  0  0  0  0  0
  1  2  2  0
  2  3  1  0
  3  4  2  0
  4  5  1  0
  5  6  2  0
  6  7  1  0
  7  8  2  0
  8  9  1  0
  8 10  1  0
 10 11  1  0
 10 12  2  0
  4 13  1  0
 13 14  1  0
 14 15  2  0
 15 16  1  0
 16 17  1  0
 16 18  2  0
 18 19  1  0
 19 20  1  0
 19 21  2  0
 21  2  1  0
 12  5  1  0
 21 14  1  0
  3 22  1  0
  6 23  1  0
  7 24  1  0
 11 25  1  0
 12 26  1  0
 15 27  1  0
 18 28  1  0
M  CHG  3   9  -1  17  -1  20  -1
M  END
>  <UniqueID>  (11) 
10

>  <SMILES>  (11) 
O=c1cc(-c2ccc([O-])c(O)c2)oc2cc([O-])cc([O-])c12

>  <Energy>  (11) 
41.548858685523626

>  <Genealogy>  (11) 
O=c1cc(-c2ccc([O-])c(O)c2)oc2cc([O-])cc([O-])c12 (protonated)
O=c1cc(-c2ccc([O-])c(O)c2)oc2cc([O-])cc([O-])c12 (3D coordinates assigned)
O=c1cc(-c2ccc([O-])c(O)c2)oc2cc([O-])cc([O-])c12 (optimized conformer: 41.548858685523626 kcal/mol)

>  <smiles>  (11) 
O=c1cc(-c2ccc(O)c(O)c2)oc2cc(O)cc(O)c12

>  <score_type>  (11) 
oracle

>  <origin>  (11) 
adgpu

>  <m_score__min__energy>  (11) 
-10.130000000000001

>  <m_primary>  (11) 
energy

$$$$
11:0
     RDKit          3D

 59 63  0  0  0  0  0  0  0  0999 V2000
   -5.8130   25.7320  -29.9940 C   0  0  0  0  0  0  0  0  0  0  0  0
   -6.1710   24.3850  -30.5540 C   0  0  0  0  0  0  0  0  0  0  0  0
   -7.1690   23.6050  -29.9520 C   0  0  0  0  0  0  0  0  0  0  0  0
   -7.4620   22.3310  -30.4440 C   0  0  0  0  0  0  0  0  0  0  0  0
   -6.7560   21.8090  -31.5430 C   0  0  0  0  0  0  0  0  0  0  0  0
   -7.0500   20.4580  -32.0780 C   0  0  0  0  0  0  0  0  0  0  0  0
   -6.1970   19.8350  -33.0030 C   0  0  0  0  0  0  0  0  0  0  0  0
   -6.4950   18.5310  -33.4270 C   0  0  0  0  0  0  0  0  0  0  0  0
   -5.6140   17.8270  -34.3820 C   0  0  0  0  0  0  0  0  0  0  0  0
   -5.9890   16.7320  -34.8760 O   0  0  0  0  0  0  0  0  0  0  0  0
   -4.3100   18.3200  -34.7170 N   0  0  0  0  0  0  0  0  0  0  0  0
   -3.4060   19.0260  -33.8530 C   0  0  0  0  0  0  0  0  0  0  0  0
   -3.4370   20.4240  -33.8400 C   0  0  0  0  0  0  0  0  0  0  0  0
   -2.5940   21.1450  -32.9880 C   0  0  0  0  0  0  0  0  0  0  0  0
   -1.7160   20.4670  -32.1250 C   0  0  0  0  0  0  0  0  0  0  0  0
   -0.8570   21.1580  -31.2590 O   0  0  0  0  0  0  0  0  0  0  0  0
   -1.2750   21.9980  -30.2160 C   0  0  0  0  0  0  0  0  0  0  0  0
   -0.3660   22.5520  -29.2980 C   0  0  0  0  0  0  0  0  0  0  0  0
   -0.8150   23.4060  -28.2890 C   0  0  0  0  0  0  0  0  0  0  0  0
   -2.1840   23.7020  -28.1670 C   0  0  0  0  0  0  0  0  0  0  0  0
   -2.6780   24.6500  -27.1010 C   0  0  0  0  0  0  0  0  0  0  0  0
   -1.8160   25.8350  -27.0050 N   0  0  0  0  0  0  0  0  0  0  0  0
   -1.1630   26.4420  -28.0190 C   0  0  0  0  0  0  0  0  0  0  0  0
   -1.2490   26.0460  -29.3480 O   0  0  0  0  0  0  0  0  0  0  0  0
   -0.3950   27.4950  -27.5580 C   0  0  0  0  0  0  0  0  0  0  0  0
   -0.5830   27.5320  -26.1850 C   0  0  0  0  0  0  0  0  0  0  0  0
   -1.4530   26.5000  -25.8850 C   0  0  0  0  0  0  0  0  0  0  0  0
   -1.8830   26.1820  -24.5980 O   0  0  0  0  0  0  0  0  0  0  0  0
   -3.0830   23.1730  -29.1030 C   0  0  0  0  0  0  0  0  0  0  0  0
   -2.6290   22.3310  -30.1230 C   0  0  0  0  0  0  0  0  0  0  0  0
   -1.6810   19.0690  -32.1400 C   0  0  0  0  0  0  0  0  0  0  0  0
   -2.5400   18.3490  -32.9750 C   0  0  0  0  0  0  0  0  0  0  0  0
   -7.6100   17.9140  -32.9510 N   0  0  0  0  0  0  0  0  0  0  0  0
   -8.4310   18.5280  -32.0620 C   0  0  0  0  0  0  0  0  0  0  0  0
   -8.1450   19.7820  -31.6280 N   0  0  0  0  0  0  0  0  0  0  0  0
   -5.7400   22.5860  -32.1250 C   0  0  0  0  0  0  0  0  0  0  0  0
   -5.4510   23.8620  -31.6360 C   0  0  0  0  0  0  0  0  0  0  0  0
   -5.8249   25.6871  -28.8950 H   0  0  0  0  0  0  0  0  0  0  0  0
   -4.8079   26.0170  -30.3385 H   0  0  0  0  0  0  0  0  0  0  0  0
   -6.5440   26.4784  -30.3385 H   0  0  0  0  0  0  0  0  0  0  0  0
   -7.7240   23.9986  -29.0877 H   0  0  0  0  0  0  0  0  0  0  0  0
   -8.2515   21.7308  -29.9681 H   0  0  0  0  0  0  0  0  0  0  0  0
   -5.3106   20.3600  -33.3886 H   0  0  0  0  0  0  0  0  0  0  0  0
   -4.1297   20.9608  -34.5049 H   0  0  0  0  0  0  0  0  0  0  0  0
   -2.6183   22.2447  -32.9934 H   0  0  0  0  0  0  0  0  0  0  0  0
    0.7046   22.3114  -29.3750 H   0  0  0  0  0  0  0  0  0  0  0  0
   -0.0943   23.8494  -27.5861 H   0  0  0  0  0  0  0  0  0  0  0  0
   -3.7007   24.9692  -27.3504 H   0  0  0  0  0  0  0  0  0  0  0  0
   -2.6607   24.1267  -26.1336 H   0  0  0  0  0  0  0  0  0  0  0  0
    0.2365   28.1665  -28.1582 H   0  0  0  0  0  0  0  0  0  0  0  0
   -0.1305   28.2408  -25.4759 H   0  0  0  0  0  0  0  0  0  0  0  0
   -2.3480   26.8650  -24.0070 H   0  0  0  0  0  0  0  0  0  0  0  0
   -4.1524   23.4217  -29.0349 H   0  0  0  0  0  0  0  0  0  0  0  0
   -3.3424   21.9281  -30.8570 H   0  0  0  0  0  0  0  0  0  0  0  0
   -0.9732   18.5328  -31.4907 H   0  0  0  0  0  0  0  0  0  0  0  0
   -2.5389   17.2494  -32.9456 H   0  0  0  0  0  0  0  0  0  0  0  0
   -9.3283   18.0096  -31.6930 H   0  0  0  0  0  0  0  0  0  0  0  0
   -5.1667   22.1854  -32.9740 H   0  0  0  0  0  0  0  0  0  0  0  0
   -4.6540   24.4593  -32.1028 H   0  0  0  0  0  0  0  0  0  0  0  0
  1  2  1  0
  2  3  2  0
  3  4  1  0
  4  5  2  0
  5  6  1  0
  6  7  2  0
  7  8  1  0
  8  9  1  0
  9 10  2  0
  9 11  1  0
 11 12  1  0
 12 13  2  0
 13 14  1  0
 14 15  2  0
 15 16  1  0
 16 17  1  0
 17 18  2  0
 18 19  1  0
 19 20  2  0
 20 21  1  0
 21 22  1  0
 22 23  1  0
 23 24  1  0
 23 25  2  0
 25 26  1  0
 26 27  2  0
 27 28  1  0
 20 29  1  0
 29 30  2  0
 15 31  1  0
 31 32  2  0
  8 33  2  0
 33 34  1  0
 34 35  2  0
  5 36  1  0
 36 37  2  0
 37  2  1  0
 35  6  1  0
 32 12  1  0
 30 17  1  0
 27 22  1  0
  1 38  1  0
  1 39  1  0
  1 40  1  0
  3 41  1  0
  4 42  1  0
  7 43  1  0
 13 44  1  0
 14 45  1  0
 18 46  1  0
 19 47  1  0
 21 48  1  0
 21 49  1  0
 25 50  1  0
 26 51  1  0
 28 52  1  0
 29 53  1  0
 30 54  1  0
 31 55  1  0
 32 56  1  0
 34 57  1  0
 36 58  1  0
 37 59  1  0
M  CHG  2  11  -1  24  -1
M  END
>  <UniqueID>  (12) 
11

>  <SMILES>  (12) 
Cc1ccc(-c2cc(C(=O)[N-]c3ccc(Oc4ccc(Cn5c([O-])ccc5O)cc4)cc3)ncn2)cc1

>  <Energy>  (12) 
109.76355713378616

>  <Genealogy>  (12) 
Cc1ccc(-c2cc(C(=O)[N-]c3ccc(Oc4ccc(Cn5c([O-])ccc5O)cc4)cc3)ncn2)cc1 (protonated)
Cc1ccc(-c2cc(C(=O)[N-]c3ccc(Oc4ccc(Cn5c([O-])ccc5O)cc4)cc3)ncn2)cc1 (3D coordinates assigned)
Cc1ccc(-c2cc(C(=O)[N-]c3ccc(Oc4ccc(Cn5c([O-])ccc5O)cc4)cc3)ncn2)cc1 (optimized conformer: 109.76355713378616 kcal/mol)

>  <smiles>  (12) 
Cc1ccc(-c2cc(C(=O)Nc3ccc(Oc4ccc(Cn5c(O)ccc5O)cc4)cc3)ncn2)cc1

>  <score_type>  (12) 
oracle

>  <origin>  (12) 
adgpu

>  <m_score__min__energy>  (12) 
-12.609999999999999

>  <m_primary>  (12) 
energy

$$$$
12:0
     RDKit          3D

 45 47  0  0  0  0  0  0  0  0999 V2000
   -9.0440   19.1300  -31.6390 C   0  0  0  0  0  0  0  0  0  0  0  0
   -8.4080   17.9840  -32.1940 O   0  0  0  0  0  0  0  0  0  0  0  0
   -7.1080   17.9770  -32.7210 C   0  0  0  0  0  0  0  0  0  0  0  0
   -6.1970   17.0390  -32.2260 C   0  0  0  0  0  0  0  0  0  0  0  0
   -4.8860   17.0020  -32.7050 C   0  0  0  0  0  0  0  0  0  0  0  0
   -4.4590   17.9160  -33.6850 C   0  0  0  0  0  0  0  0  0  0  0  0
   -3.0530   17.9140  -34.1580 C   0  0  0  0  0  0  0  0  0  0  0  0
   -2.6300   16.9470  -34.8470 O   0  0  0  0  0  0  0  0  0  0  0  0
   -2.1480   18.9770  -33.8270 N   0  0  0  0  0  0  0  0  0  0  0  0
   -2.4970   20.0920  -32.9970 C   0  0  0  0  0  0  0  0  0  0  0  0
   -3.2920   21.1390  -33.4920 C   0  0  0  0  0  0  0  0  0  0  0  0
   -3.7440   22.1420  -32.6350 C   0  0  0  0  0  0  0  0  0  0  0  0
   -3.4130   22.1080  -31.2740 C   0  0  0  0  0  0  0  0  0  0  0  0
   -4.1820   23.2250  -30.1520 S   0  0  0  0  0  0  0  0  0  0  0  0
   -5.5530   22.7370  -29.7740 O   0  0  0  0  0  0  0  0  0  0  0  0
   -4.3130   24.5740  -30.8000 O   0  0  0  0  0  0  0  0  0  0  0  0
   -3.1960   23.3610  -28.7330 N   0  0  0  0  0  0  0  0  0  0  0  0
   -2.3600   24.3370  -28.5580 C   0  0  0  0  0  0  0  0  0  0  0  0
   -2.1400   25.3010  -29.4220 O   0  0  0  0  0  0  0  0  0  0  0  0
   -1.2500   26.1360  -28.9680 N   0  0  0  0  0  0  0  0  0  0  0  0
   -0.8700   25.6850  -27.7530 C   0  0  0  0  0  0  0  0  0  0  0  0
    0.1120   26.3910  -26.8770 C   0  0  0  0  0  0  0  0  0  0  0  0
   -1.5770   24.5360  -27.4440 C   0  0  0  0  0  0  0  0  0  0  0  0
   -1.4530   23.6700  -26.2300 C   0  0  0  0  0  0  0  0  0  0  0  0
   -2.5650   21.1010  -30.7930 C   0  0  0  0  0  0  0  0  0  0  0  0
   -2.0950   20.1060  -31.6560 C   0  0  0  0  0  0  0  0  0  0  0  0
   -5.3790   18.8390  -34.2050 C   0  0  0  0  0  0  0  0  0  0  0  0
   -6.6930   18.8750  -33.7240 C   0  0  0  0  0  0  0  0  0  0  0  0
   -9.0116   19.0716  -30.5410 H   0  0  0  0  0  0  0  0  0  0  0  0
   -8.5206   20.0379  -31.9735 H   0  0  0  0  0  0  0  0  0  0  0  0
  -10.0913   19.1662  -31.9735 H   0  0  0  0  0  0  0  0  0  0  0  0
   -6.5157   16.3243  -31.4529 H   0  0  0  0  0  0  0  0  0  0  0  0
   -4.1823   16.2528  -32.3132 H   0  0  0  0  0  0  0  0  0  0  0  0
   -3.5588   21.1678  -34.5588 H   0  0  0  0  0  0  0  0  0  0  0  0
   -4.3622   22.9623  -33.0287 H   0  0  0  0  0  0  0  0  0  0  0  0
   -0.1408   26.2092  -25.8220 H   0  0  0  0  0  0  0  0  0  0  0  0
    1.1244   26.0127  -27.0819 H   0  0  0  0  0  0  0  0  0  0  0  0
    0.0758   27.4711  -27.0819 H   0  0  0  0  0  0  0  0  0  0  0  0
   -1.5419   24.2907  -25.3262 H   0  0  0  0  0  0  0  0  0  0  0  0
   -2.2521   22.9140  -26.2357 H   0  0  0  0  0  0  0  0  0  0  0  0
   -0.4739   23.1687  -26.2357 H   0  0  0  0  0  0  0  0  0  0  0  0
   -2.2684   21.0933  -29.7338 H   0  0  0  0  0  0  0  0  0  0  0  0
   -1.4083   19.3330  -31.2806 H   0  0  0  0  0  0  0  0  0  0  0  0
   -5.0660   19.5379  -34.9947 H   0  0  0  0  0  0  0  0  0  0  0  0
   -7.4050   19.6080  -34.1311 H   0  0  0  0  0  0  0  0  0  0  0  0
  1  2  1  0
  2  3  1  0
  3  4  2  0
  4  5  1  0
  5  6  2  0
  6  7  1  0
  7  8  2  0
  7  9  1  0
  9 10  1  0
 10 11  2  0
 11 12  1  0
 12 13  2  0
 13 14  1  0
 14 15  2  0
 14 16  2  0
 14 17  1  0
 17 18  2  3
 18 19  1  0
 19 20  1  0
 20 21  1  0
 21 22  1  0
 21 23  2  0
 23 24  1  0
 13 25  1  0
 25 26  2  0
  6 27  1  0
 27 28  2  0
 28  3  1  0
 26 10  1  0
 23 18  1  0
  1 29  1  0
  1 30  1  0
  1 31  1  0
  4 32  1  0
  5 33  1  0
 11 34  1  0
 12 35  1  0
 22 36  1  0
 22 37  1  0
 22 38  1  0
 24 39  1  0
 24 40  1  0
 24 41  1  0
 25 42  1  0
 26 43  1  0
 27 44  1  0
 28 45  1  0
M  CHG  2   9  -1  20  -1
M  END
>  <UniqueID>  (13) 
12

>  <SMILES>  (13) 
COc1ccc(C(=O)[N-]c2ccc(S(=O)(=O)N=c3o[n-]c(C)c3C)cc2)cc1

>  <Energy>  (13) 
84.88731260887573

>  <Genealogy>  (13) 
COc1ccc(C(=O)[N-]c2ccc(S(=O)(=O)N=c3o[n-]c(C)c3C)cc2)cc1 (protonated)
COc1ccc(C(=O)[N-]c2ccc(S(=O)(=O)N=c3o[n-]c(C)c3C)cc2)cc1 (3D coordinates assigned)
COc1ccc(C(=O)[N-]c2ccc(S(=O)(=O)N=c3o[n-]c(C)c3C)cc2)cc1 (optimized conformer: 84.88731260887573 kcal/mol)

>  <smiles>  (13) 
COc1ccc(C(=O)Nc2ccc(S(=O)(=O)N=c3o[nH]c(C)c3C)cc2)cc1

>  <score_type>  (13) 
oracle

>  <origin>  (13) 
adgpu

>  <m_score__min__energy>  (13) 
-12.41

>  <m_primary>  (13) 
energy

$$$$
13:0
     RDKit          3D

 56 59  0  0  0  0  0  0  0  0999 V2000
   -1.6500   25.5210  -28.7370 O   0  0  0  0  0  0  0  0  0  0  0  0
   -2.2490   24.5830  -29.3270 C   0  0  0  0  0  0  0  0  0  0  0  0
   -3.2460   24.9150  -30.3040 N   0  0  0  0  0  0  0  0  0  0  0  0
   -4.5240   24.2810  -30.4580 C   0  0  0  0  0  0  0  0  0  0  0  0
   -5.7090   24.8870  -30.0040 C   0  0  0  0  0  0  0  0  0  0  0  0
   -6.9350   24.2320  -30.1530 C   0  0  0  0  0  0  0  0  0  0  0  0
   -6.9880   22.9670  -30.7420 C   0  0  0  0  0  0  0  0  0  0  0  0
   -5.8110   22.3490  -31.1860 C   0  0  0  0  0  0  0  0  0  0  0  0
   -5.8570   20.7340  -31.8880 S   0  0  0  0  0  0  0  0  0  0  0  0
   -4.7630   19.9030  -31.2780 O   0  0  0  0  0  0  0  0  0  0  0  0
   -5.6280   20.8140  -33.3740 O   0  0  0  0  0  0  0  0  0  0  0  0
   -7.4060   20.0070  -31.5450 N   0  0  0  0  0  0  0  0  0  0  0  0
   -8.4110   20.4080  -32.5300 C   0  0  0  0  0  0  0  0  0  0  0  0
   -9.4340   19.2860  -32.5880 C   0  0  0  0  0  0  0  0  0  0  0  0
   -8.7380   18.0710  -31.9920 C   0  0  0  0  0  0  0  0  0  0  0  0
   -7.3400   18.5470  -31.6260 C   0  0  0  0  0  0  0  0  0  0  0  0
   -4.5810   23.0030  -31.0290 C   0  0  0  0  0  0  0  0  0  0  0  0
   -1.9470   23.1800  -28.9560 C   0  0  0  0  0  0  0  0  0  0  0  0
   -2.3920   22.6640  -27.7270 C   0  0  0  0  0  0  0  0  0  0  0  0
   -2.1050   21.3440  -27.3700 C   0  0  0  0  0  0  0  0  0  0  0  0
   -1.3780   20.5250  -28.2370 C   0  0  0  0  0  0  0  0  0  0  0  0
   -0.9350   21.0210  -29.4680 C   0  0  0  0  0  0  0  0  0  0  0  0
   -0.0440   19.9690  -30.5640 S   0  0  0  0  0  0  0  0  0  0  0  0
   -0.8430   18.7150  -30.7840 O   0  0  0  0  0  0  0  0  0  0  0  0
    1.2800   19.5940  -29.9530 O   0  0  0  0  0  0  0  0  0  0  0  0
    0.2070   20.7830  -32.0870 N   0  0  0  0  0  0  0  0  0  0  0  0
    1.1780   20.0370  -32.9030 C   0  0  0  0  0  0  0  0  0  0  0  0
    1.3590   20.7220  -34.2750 C   0  0  0  0  0  0  0  0  0  0  0  0
    0.4970   21.8340  -34.4340 O   0  0  0  0  0  0  0  0  0  0  0  0
   -0.8450   21.4300  -34.2400 C   0  0  0  0  0  0  0  0  0  0  0  0
   -1.0710   20.9040  -32.8060 C   0  0  0  0  0  0  0  0  0  0  0  0
   -1.2350   22.3410  -29.8320 C   0  0  0  0  0  0  0  0  0  0  0  0
   -5.6711   25.8791  -29.5304 H   0  0  0  0  0  0  0  0  0  0  0  0
   -7.8604   24.7144  -29.8053 H   0  0  0  0  0  0  0  0  0  0  0  0
   -7.9547   22.4549  -30.8576 H   0  0  0  0  0  0  0  0  0  0  0  0
   -8.8939   21.3462  -32.2192 H   0  0  0  0  0  0  0  0  0  0  0  0
   -7.9540   20.5794  -33.5158 H   0  0  0  0  0  0  0  0  0  0  0  0
  -10.3248   19.5469  -31.9978 H   0  0  0  0  0  0  0  0  0  0  0  0
   -9.7754   19.0974  -33.6165 H   0  0  0  0  0  0  0  0  0  0  0  0
   -9.2727   17.7217  -31.0964 H   0  0  0  0  0  0  0  0  0  0  0  0
   -8.7119   17.2271  -32.6971 H   0  0  0  0  0  0  0  0  0  0  0  0
   -7.0370   18.1259  -30.6560 H   0  0  0  0  0  0  0  0  0  0  0  0
   -6.6010   18.2231  -32.3737 H   0  0  0  0  0  0  0  0  0  0  0  0
   -3.6542   22.5093  -31.3564 H   0  0  0  0  0  0  0  0  0  0  0  0
   -2.9694   23.3027  -27.0424 H   0  0  0  0  0  0  0  0  0  0  0  0
   -2.4524   20.9489  -26.4040 H   0  0  0  0  0  0  0  0  0  0  0  0
   -1.1531   19.4869  -27.9511 H   0  0  0  0  0  0  0  0  0  0  0  0
    2.1456   20.0084  -32.3807 H   0  0  0  0  0  0  0  0  0  0  0  0
    0.8051   19.0140  -33.0589 H   0  0  0  0  0  0  0  0  0  0  0  0
    2.4003   21.0648  -34.3655 H   0  0  0  0  0  0  0  0  0  0  0  0
    1.1110   19.9874  -35.0553 H   0  0  0  0  0  0  0  0  0  0  0  0
   -1.5071   22.2909  -34.4143 H   0  0  0  0  0  0  0  0  0  0  0  0
   -1.0686   20.6175  -34.9470 H   0  0  0  0  0  0  0  0  0  0  0  0
   -1.7249   21.6031  -32.2642 H   0  0  0  0  0  0  0  0  0  0  0  0
   -1.5385   19.9100  -32.8644 H   0  0  0  0  0  0  0  0  0  0  0  0
   -0.9109   22.7239  -30.8109 H   0  0  0  0  0  0  0  0  0  0  0  0
  1  2  2  0
  2  3  1  0
  3  4  1  0
  4  5  2  0
  5  6  1  0
  6  7  2  0
  7  8  1  0
  8  9  1  0
  9 10  2  0
  9 11  2  0
  9 12  1  0
 12 13  1  0
 13 14  1  0
 14 15  1  0
 15 16  1  0
  8 17  2  0
  2 18  1  0
 18 19  2  0
 19 20  1  0
 20 21  2  0
 21 22  1  0
 22 23  1  0
 23 24  2  0
 23 25  2  0
 23 26  1  0
 26 27  1  0
 27 28  1  0
 28 29  1  0
 29 30  1  0
 30 31  1  0
 22 32  2  0
 17  4  1  0
 32 18  1  0
 16 12  1  0
 31 26  1  0
  5 33  1  0
  6 34  1  0
  7 35  1  0
 13 36  1  0
 13 37  1  0
 14 38  1  0
 14 39  1  0
 15 40  1  0
 15 41  1  0
 16 42  1  0
 16 43  1  0
 17 44  1  0
 19 45  1  0
 20 46  1  0
 21 47  1  0
 27 48  1  0
 27 49  1  0
 28 50  1  0
 28 51  1  0
 30 52  1  0
 30 53  1  0
 31 54  1  0
 31 55  1  0
 32 56  1  0
M  CHG  1   3  -1
M  END
>  <UniqueID>  (14) 
13

>  <SMILES>  (14) 
O=C([N-]c1cccc(S(=O)(=O)N2CCCC2)c1)c1cccc(S(=O)(=O)N2CCOCC2)c1

>  <Energy>  (14) 
72.00610159058523

>  <Genealogy>  (14) 
O=C([N-]c1cccc(S(=O)(=O)N2CCCC2)c1)c1cccc(S(=O)(=O)N2CCOCC2)c1 (protonated)
O=C([N-]c1cccc(S(=O)(=O)N2CCCC2)c1)c1cccc(S(=O)(=O)N2CCOCC2)c1 (3D coordinates assigned)
O=C([N-]c1cccc(S(=O)(=O)N2CCCC2)c1)c1cccc(S(=O)(=O)N2CCOCC2)c1 (nonaromatic ring conformer: 72.00610159058523 kcal/mol)

>  <smiles>  (14) 
O=C(Nc1cccc(S(=O)(=O)N2CCCC2)c1)c1cccc(S(=O)(=O)N2CCOCC2)c1

>  <score_type>  (14) 
oracle

>  <origin>  (14) 
adgpu

>  <m_score__min__energy>  (14) 
-12.26

>  <m_primary>  (14) 
energy

$$$$
14:0
     RDKit          3D

 42 45  0  0  0  0  0  0  0  0999 V2000
   -2.8700   21.7280  -29.4880 O   0  0  0  0  0  0  0  0  0  0  0  0
   -3.2560   22.3690  -30.5040 C   0  0  0  0  0  0  0  0  0  0  0  0
   -2.4210   22.4110  -31.6670 N   0  0  0  0  0  0  0  0  0  0  0  0
   -1.8760   21.2540  -32.3120 C   0  0  0  0  0  0  0  0  0  0  0  0
   -0.4800   21.1180  -32.4270 C   0  0  0  0  0  0  0  0  0  0  0  0
    0.0840   19.9870  -33.0520 C   0  0  0  0  0  0  0  0  0  0  0  0
   -0.7410   18.9830  -33.5870 C   0  0  0  0  0  0  0  0  0  0  0  0
   -2.1210   19.1430  -33.4820 C   0  0  0  0  0  0  0  0  0  0  0  0
   -2.6820   20.2500  -32.8720 C   0  0  0  0  0  0  0  0  0  0  0  0
   -4.1330   20.1490  -33.0580 C   0  0  0  0  0  0  0  0  0  0  0  0
   -4.9780   21.0300  -32.7520 O   0  0  0  0  0  0  0  0  0  0  0  0
   -4.4640   18.9320  -33.7350 N   0  0  0  0  0  0  0  0  0  0  0  0
   -5.7300   18.6310  -34.3970 C   0  0  0  0  0  0  0  0  0  0  0  0
   -6.8800   18.8970  -33.4640 C   0  0  0  0  0  0  0  0  0  0  0  0
   -7.2880   17.9190  -32.5430 C   0  0  0  0  0  0  0  0  0  0  0  0
   -8.3300   18.1830  -31.6480 C   0  0  0  0  0  0  0  0  0  0  0  0
   -8.9660   19.4270  -31.6630 C   0  0  0  0  0  0  0  0  0  0  0  0
   -8.5600   20.4100  -32.5700 C   0  0  0  0  0  0  0  0  0  0  0  0
   -7.5190   20.1480  -33.4660 C   0  0  0  0  0  0  0  0  0  0  0  0
   -3.2010   18.3270  -34.0180 C   0  0  0  0  0  0  0  0  0  0  0  0
   -3.0580   17.2570  -34.6670 O   0  0  0  0  0  0  0  0  0  0  0  0
   -4.5510   23.1000  -30.4680 C   0  0  0  0  0  0  0  0  0  0  0  0
   -5.7570   22.3700  -30.4630 C   0  0  0  0  0  0  0  0  0  0  0  0
   -6.9900   23.0280  -30.4310 C   0  0  0  0  0  0  0  0  0  0  0  0
   -7.0400   24.4210  -30.4040 C   0  0  0  0  0  0  0  0  0  0  0  0
   -5.8570   25.1610  -30.4120 C   0  0  0  0  0  0  0  0  0  0  0  0
   -4.6160   24.5160  -30.4460 C   0  0  0  0  0  0  0  0  0  0  0  0
   -3.4650   25.2940  -30.4640 O   0  0  0  0  0  0  0  0  0  0  0  0
    0.1781   21.9024  -32.0250 H   0  0  0  0  0  0  0  0  0  0  0  0
    1.1775   19.8898  -33.1213 H   0  0  0  0  0  0  0  0  0  0  0  0
   -0.3096   18.0964  -34.0746 H   0  0  0  0  0  0  0  0  0  0  0  0
   -5.8327   19.2647  -35.2902 H   0  0  0  0  0  0  0  0  0  0  0  0
   -5.7405   17.5698  -34.6863 H   0  0  0  0  0  0  0  0  0  0  0  0
   -6.7858   16.9405  -32.5252 H   0  0  0  0  0  0  0  0  0  0  0  0
   -8.6488   17.4110  -30.9322 H   0  0  0  0  0  0  0  0  0  0  0  0
   -9.7869   19.6330  -30.9604 H   0  0  0  0  0  0  0  0  0  0  0  0
   -9.0596   21.3900  -32.5789 H   0  0  0  0  0  0  0  0  0  0  0  0
   -7.1989   20.9251  -34.1757 H   0  0  0  0  0  0  0  0  0  0  0  0
   -5.7275   21.2706  -30.4845 H   0  0  0  0  0  0  0  0  0  0  0  0
   -7.9230   22.4453  -30.4271 H   0  0  0  0  0  0  0  0  0  0  0  0
   -8.0114   24.9364  -30.3764 H   0  0  0  0  0  0  0  0  0  0  0  0
   -5.9005   26.2599  -30.3914 H   0  0  0  0  0  0  0  0  0  0  0  0
  1  2  2  0
  2  3  1  0
  3  4  1  0
  4  5  2  0
  5  6  1  0
  6  7  2  0
  7  8  1  0
  8  9  2  0
  9 10  1  0
 10 11  2  0
 10 12  1  0
 12 13  1  0
 13 14  1  0
 14 15  2  0
 15 16  1  0
 16 17  2  0
 17 18  1  0
 18 19  2  0
 12 20  1  0
 20 21  2  0
  2 22  1  0
 22 23  2  0
 23 24  1  0
 24 25  2  0
 25 26  1  0
 26 27  2  0
 27 28  1  0
  9  4  1  0
 19 14  1  0
 27 22  1  0
 20  8  1  0
  5 29  1  0
  6 30  1  0
  7 31  1  0
 13 32  1  0
 13 33  1  0
 15 34  1  0
 16 35  1  0
 17 36  1  0
 18 37  1  0
 19 38  1  0
 23 39  1  0
 24 40  1  0
 25 41  1  0
 26 42  1  0
M  CHG  2   3  -1  28  -1
M  END
>  <UniqueID>  (15) 
14

>  <SMILES>  (15) 
O=C([N-]c1cccc2c1C(=O)N(Cc1ccccc1)C2=O)c1ccccc1[O-]

>  <Energy>  (15) 
85.87236158428746

>  <Genealogy>  (15) 
O=C([N-]c1cccc2c1C(=O)N(Cc1ccccc1)C2=O)c1ccccc1[O-] (protonated)
O=C([N-]c1cccc2c1C(=O)N(Cc1ccccc1)C2=O)c1ccccc1[O-] (3D coordinates assigned)
O=C([N-]c1cccc2c1C(=O)N(Cc1ccccc1)C2=O)c1ccccc1[O-] (nonaromatic ring conformer: 85.87236158428746 kcal/mol)

>  <smiles>  (15) 
O=C(Nc1cccc2c1C(=O)N(Cc1ccccc1)C2=O)c1ccccc1O

>  <score_type>  (15) 
oracle

>  <origin>  (15) 
adgpu

>  <m_score__min__energy>  (15) 
-13.66

>  <m_primary>  (15) 
energy

$$$$
15:0
     RDKit          3D

 43 45  0  0  0  0  0  0  0  0999 V2000
   -8.5590   21.6620  -31.9820 C   0  0  0  0  0  0  0  0  0  0  0  0
   -7.0920   21.4530  -32.2420 C   0  0  0  0  0  0  0  0  0  0  0  0
   -6.6580   20.2970  -32.9080 C   0  0  0  0  0  0  0  0  0  0  0  0
   -5.3020   20.0970  -33.1670 C   0  0  0  0  0  0  0  0  0  0  0  0
   -4.3580   21.0550  -32.7710 C   0  0  0  0  0  0  0  0  0  0  0  0
   -2.9570   20.8770  -33.0270 N   0  0  0  0  0  0  0  0  0  0  0  0
   -1.8850   21.4800  -32.2890 C   0  0  0  0  0  0  0  0  0  0  0  0
   -0.8780   21.8980  -32.9200 O   0  0  0  0  0  0  0  0  0  0  0  0
   -1.9080   21.5790  -30.8090 C   0  0  0  0  0  0  0  0  0  0  0  0
   -2.5390   20.5830  -30.0460 C   0  0  0  0  0  0  0  0  0  0  0  0
   -2.5520   20.6640  -28.6520 C   0  0  0  0  0  0  0  0  0  0  0  0
   -1.9440   21.7420  -28.0050 C   0  0  0  0  0  0  0  0  0  0  0  0
   -1.3240   22.7580  -28.7490 C   0  0  0  0  0  0  0  0  0  0  0  0
   -0.6970   23.8700  -28.0850 N   0  0  0  0  0  0  0  0  0  0  0  0
    0.1820   23.8230  -27.0630 C   0  0  0  0  0  0  0  0  0  0  0  0
    0.6630   22.6480  -26.4970 O   0  0  0  0  0  0  0  0  0  0  0  0
    0.5600   25.0920  -26.6720 C   0  0  0  0  0  0  0  0  0  0  0  0
   -0.1220   25.9660  -27.4980 C   0  0  0  0  0  0  0  0  0  0  0  0
   -0.8800   25.1820  -28.3450 C   0  0  0  0  0  0  0  0  0  0  0  0
   -1.7410   25.6760  -29.3170 O   0  0  0  0  0  0  0  0  0  0  0  0
   -1.3190   22.6740  -30.1510 C   0  0  0  0  0  0  0  0  0  0  0  0
   -4.7820   22.1970  -32.0840 C   0  0  0  0  0  0  0  0  0  0  0  0
   -6.1490   22.4160  -31.8270 C   0  0  0  0  0  0  0  0  0  0  0  0
   -6.6070   23.5980  -31.1520 N   0  0  0  0  0  0  0  0  0  0  0  0
   -5.6230   24.7050  -30.2490 S   0  0  0  0  0  0  0  0  0  0  0  0
   -4.7680   23.8420  -28.9480 C   0  0  0  0  0  0  0  0  0  0  0  0
   -4.6060   25.3100  -31.1730 O   0  0  0  0  0  0  0  0  0  0  0  0
   -6.4740   25.8060  -29.6800 O   0  0  0  0  0  0  0  0  0  0  0  0
   -8.7391   21.6877  -30.8971 H   0  0  0  0  0  0  0  0  0  0  0  0
   -8.8786   22.6147  -32.4294 H   0  0  0  0  0  0  0  0  0  0  0  0
   -9.1319   20.8364  -32.4294 H   0  0  0  0  0  0  0  0  0  0  0  0
   -7.3922   19.5430  -33.2282 H   0  0  0  0  0  0  0  0  0  0  0  0
   -4.9720   19.1839  -33.6841 H   0  0  0  0  0  0  0  0  0  0  0  0
   -3.0256   19.7345  -30.5492 H   0  0  0  0  0  0  0  0  0  0  0  0
   -3.0427   19.8762  -28.0616 H   0  0  0  0  0  0  0  0  0  0  0  0
   -1.9510   21.7952  -26.9063 H   0  0  0  0  0  0  0  0  0  0  0  0
    1.2616   25.3545  -25.8665 H   0  0  0  0  0  0  0  0  0  0  0  0
   -0.0711   27.0647  -27.4834 H   0  0  0  0  0  0  0  0  0  0  0  0
   -0.8489   23.4741  -30.7416 H   0  0  0  0  0  0  0  0  0  0  0  0
   -4.0394   22.9323  -31.7406 H   0  0  0  0  0  0  0  0  0  0  0  0
   -5.1254   24.2027  -27.9722 H   0  0  0  0  0  0  0  0  0  0  0  0
   -4.9632   22.7629  -29.0339 H   0  0  0  0  0  0  0  0  0  0  0  0
   -3.6871   24.0271  -29.0339 H   0  0  0  0  0  0  0  0  0  0  0  0
  1  2  1  0
  2  3  2  0
  3  4  1  0
  4  5  2  0
  5  6  1  0
  6  7  1  0
  7  8  2  0
  7  9  1  0
  9 10  2  0
 10 11  1  0
 11 12  2  0
 12 13  1  0
 13 14  1  0
 14 15  1  0
 15 16  1  0
 15 17  2  0
 17 18  1  0
 18 19  2  0
 19 20  1  0
 13 21  2  0
  5 22  1  0
 22 23  2  0
 23 24  1  0
 24 25  1  0
 25 26  1  0
 25 27  2  0
 25 28  2  0
 23  2  1  0
 21  9  1  0
 19 14  1  0
  1 29  1  0
  1 30  1  0
  1 31  1  0
  3 32  1  0
  4 33  1  0
 10 34  1  0
 11 35  1  0
 12 36  1  0
 17 37  1  0
 18 38  1  0
 21 39  1  0
 22 40  1  0
 26 41  1  0
 26 42  1  0
 26 43  1  0
M  CHG  4   6  -1  16  -1  20  -1  24  -1
M  END
>  <UniqueID>  (16) 
15

>  <SMILES>  (16) 
Cc1ccc([N-]C(=O)c2cccc(-n3c([O-])ccc3[O-])c2)cc1[N-]S(C)(=O)=O

>  <Energy>  (16) 
84.11911654435617

>  <Genealogy>  (16) 
Cc1ccc([N-]C(=O)c2cccc(-n3c([O-])ccc3[O-])c2)cc1[N-]S(C)(=O)=O (protonated)
Cc1ccc([N-]C(=O)c2cccc(-n3c([O-])ccc3[O-])c2)cc1[N-]S(C)(=O)=O (3D coordinates assigned)
Cc1ccc([N-]C(=O)c2cccc(-n3c([O-])ccc3[O-])c2)cc1[N-]S(C)(=O)=O (optimized conformer: 84.11911654435617 kcal/mol)

>  <smiles>  (16) 
Cc1ccc(NC(=O)c2cccc(-n3c(O)ccc3O)c2)cc1NS(C)(=O)=O

>  <score_type>  (16) 
oracle

>  <origin>  (16) 
adgpu

>  <m_score__min__energy>  (16) 
-12.41

>  <m_primary>  (16) 
energy

$$$$
16:0
     RDKit          3D

 46 48  0  0  0  0  0  0  0  0999 V2000
    0.0520   20.0700  -32.8430 C   0  0  0  0  0  0  0  0  0  0  0  0
   -1.3940   19.8080  -33.1690 C   0  0  0  0  0  0  0  0  0  0  0  0
   -1.7620   18.6100  -33.8040 C   0  0  0  0  0  0  0  0  0  0  0  0
   -3.0990   18.3670  -34.1340 C   0  0  0  0  0  0  0  0  0  0  0  0
   -4.0770   19.3170  -33.8380 C   0  0  0  0  0  0  0  0  0  0  0  0
   -3.7240   20.5140  -33.2080 C   0  0  0  0  0  0  0  0  0  0  0  0
   -2.3820   20.7670  -32.8620 C   0  0  0  0  0  0  0  0  0  0  0  0
   -1.9950   21.9760  -32.1930 N   0  0  0  0  0  0  0  0  0  0  0  0
   -2.4560   22.4440  -30.5880 S   0  0  0  0  0  0  0  0  0  0  0  0
   -2.5640   21.2140  -29.7300 O   0  0  0  0  0  0  0  0  0  0  0  0
   -1.4360   23.3900  -30.0170 O   0  0  0  0  0  0  0  0  0  0  0  0
   -4.0170   23.2620  -30.6530 C   0  0  0  0  0  0  0  0  0  0  0  0
   -5.1380   22.5790  -31.1490 C   0  0  0  0  0  0  0  0  0  0  0  0
   -6.3940   23.1960  -31.1700 C   0  0  0  0  0  0  0  0  0  0  0  0
   -7.8250   22.3050  -31.6820 S   0  0  0  0  0  0  0  0  0  0  0  0
   -8.4290   21.6300  -30.4830 O   0  0  0  0  0  0  0  0  0  0  0  0
   -8.8460   23.2410  -32.2710 O   0  0  0  0  0  0  0  0  0  0  0  0
   -7.3630   21.0960  -32.8470 N   0  0  0  0  0  0  0  0  0  0  0  0
   -8.1660   19.8770  -32.7060 C   0  0  0  0  0  0  0  0  0  0  0  0
   -7.3020   18.6510  -32.5520 C   0  0  0  0  0  0  0  0  0  0  0  0
   -6.9000   17.9160  -33.6820 C   0  0  0  0  0  0  0  0  0  0  0  0
   -6.0950   16.7800  -33.5360 C   0  0  0  0  0  0  0  0  0  0  0  0
   -5.6830   16.3710  -32.2660 C   0  0  0  0  0  0  0  0  0  0  0  0
   -6.0860   17.0890  -31.1370 C   0  0  0  0  0  0  0  0  0  0  0  0
   -6.9000   18.2200  -31.2770 C   0  0  0  0  0  0  0  0  0  0  0  0
   -6.5260   24.5160  -30.7190 C   0  0  0  0  0  0  0  0  0  0  0  0
   -5.4090   25.2110  -30.2480 C   0  0  0  0  0  0  0  0  0  0  0  0
   -4.1550   24.5910  -30.2100 C   0  0  0  0  0  0  0  0  0  0  0  0
   -3.0580   25.2990  -29.7310 O   0  0  0  0  0  0  0  0  0  0  0  0
    0.1832   20.0938  -31.7511 H   0  0  0  0  0  0  0  0  0  0  0  0
    0.6749   19.2701  -33.2698 H   0  0  0  0  0  0  0  0  0  0  0  0
    0.3546   21.0376  -33.2698 H   0  0  0  0  0  0  0  0  0  0  0  0
   -0.9944   17.8592  -34.0429 H   0  0  0  0  0  0  0  0  0  0  0  0
   -3.3801   17.4252  -34.6278 H   0  0  0  0  0  0  0  0  0  0  0  0
   -5.1275   19.1238  -34.1008 H   0  0  0  0  0  0  0  0  0  0  0  0
   -4.4980   21.2621  -32.9813 H   0  0  0  0  0  0  0  0  0  0  0  0
   -5.0287   21.5508  -31.5242 H   0  0  0  0  0  0  0  0  0  0  0  0
   -8.8075   19.9742  -31.8177 H   0  0  0  0  0  0  0  0  0  0  0  0
   -8.7687   19.7576  -33.6184 H   0  0  0  0  0  0  0  0  0  0  0  0
   -7.2196   18.2353  -34.6849 H   0  0  0  0  0  0  0  0  0  0  0  0
   -5.7863   16.2083  -34.4237 H   0  0  0  0  0  0  0  0  0  0  0  0
   -5.0417   15.4843  -32.1544 H   0  0  0  0  0  0  0  0  0  0  0  0
   -5.7633   16.7653  -30.1365 H   0  0  0  0  0  0  0  0  0  0  0  0
   -7.2261   18.7735  -30.3841 H   0  0  0  0  0  0  0  0  0  0  0  0
   -7.5107   25.0060  -30.7357 H   0  0  0  0  0  0  0  0  0  0  0  0
   -5.5159   26.2508  -29.9053 H   0  0  0  0  0  0  0  0  0  0  0  0
  1  2  1  0
  2  3  2  0
  3  4  1  0
  4  5  2  0
  5  6  1  0
  6  7  2  0
  7  8  1  0
  8  9  1  0
  9 10  2  0
  9 11  2  0
  9 12  1  0
 12 13  2  0
 13 14  1  0
 14 15  1  0
 15 16  2  0
 15 17  2  0
 15 18  1  0
 18 19  1  0
 19 20  1  0
 20 21  2  0
 21 22  1  0
 22 23  2  0
 23 24  1  0
 24 25  2  0
 14 26  2  0
 26 27  1  0
 27 28  2  0
 28 29  1  0
  7  2  1  0
 28 12  1  0
 25 20  1  0
  1 30  1  0
  1 31  1  0
  1 32  1  0
  3 33  1  0
  4 34  1  0
  5 35  1  0
  6 36  1  0
 13 37  1  0
 19 38  1  0
 19 39  1  0
 21 40  1  0
 22 41  1  0
 23 42  1  0
 24 43  1  0
 25 44  1  0
 26 45  1  0
 27 46  1  0
M  CHG  3   8  -1  18  -1  29  -1
M  END
>  <UniqueID>  (17) 
16

>  <SMILES>  (17) 
Cc1ccccc1[N-]S(=O)(=O)c1cc(S(=O)(=O)[N-]Cc2ccccc2)ccc1[O-]

>  <Energy>  (17) 
47.275170111184586

>  <Genealogy>  (17) 
Cc1ccccc1[N-]S(=O)(=O)c1cc(S(=O)(=O)[N-]Cc2ccccc2)ccc1[O-] (protonated)
Cc1ccccc1[N-]S(=O)(=O)c1cc(S(=O)(=O)[N-]Cc2ccccc2)ccc1[O-] (3D coordinates assigned)
Cc1ccccc1[N-]S(=O)(=O)c1cc(S(=O)(=O)[N-]Cc2ccccc2)ccc1[O-] (optimized conformer: 47.275170111184586 kcal/mol)

>  <smiles>  (17) 
Cc1ccccc1NS(=O)(=O)c1cc(S(=O)(=O)NCc2ccccc2)ccc1O

>  <score_type>  (17) 
oracle

>  <origin>  (17) 
adgpu

>  <m_score__min__energy>  (17) 
-12.619999999999999

>  <m_primary>  (17) 
energy

$$$$
17:0
     RDKit          3D

 42 44  0  0  0  0  0  0  0  0999 V2000
    0.7690   23.8570  -24.5020 C   0  0  0  0  0  0  0  0  0  0  0  0
    0.1080   24.3740  -25.7460 C   0  0  0  0  0  0  0  0  0  0  0  0
    0.7320   25.3640  -26.5150 C   0  0  0  0  0  0  0  0  0  0  0  0
    0.1390   25.8150  -27.6960 C   0  0  0  0  0  0  0  0  0  0  0  0
   -1.0790   25.2780  -28.1270 C   0  0  0  0  0  0  0  0  0  0  0  0
   -1.6180   25.7210  -29.3290 O   0  0  0  0  0  0  0  0  0  0  0  0
   -1.7220   24.2820  -27.3610 C   0  0  0  0  0  0  0  0  0  0  0  0
   -3.0160   23.6930  -27.7850 C   0  0  0  0  0  0  0  0  0  0  0  0
   -3.4320   22.6440  -27.2200 O   0  0  0  0  0  0  0  0  0  0  0  0
   -3.8300   24.3440  -28.7740 N   0  0  0  0  0  0  0  0  0  0  0  0
   -4.8750   23.6830  -29.5100 C   0  0  0  0  0  0  0  0  0  0  0  0
   -4.6680   22.4290  -30.1130 C   0  0  0  0  0  0  0  0  0  0  0  0
   -5.6920   21.8170  -30.8400 C   0  0  0  0  0  0  0  0  0  0  0  0
   -6.9310   22.4520  -30.9840 C   0  0  0  0  0  0  0  0  0  0  0  0
   -8.2210   21.6660  -31.8900 S   0  0  0  0  0  0  0  0  0  0  0  0
   -9.1620   22.7160  -32.4100 O   0  0  0  0  0  0  0  0  0  0  0  0
   -8.9850   20.7160  -31.0100 O   0  0  0  0  0  0  0  0  0  0  0  0
   -7.5550   20.7860  -33.2300 N   0  0  0  0  0  0  0  0  0  0  0  0
   -6.9940   19.6190  -33.1320 C   0  0  0  0  0  0  0  0  0  0  0  0
   -6.8220   18.8760  -31.9780 C   0  0  0  0  0  0  0  0  0  0  0  0
   -6.1770   17.7470  -32.4370 C   0  0  0  0  0  0  0  0  0  0  0  0
   -5.7150   16.6000  -31.6040 C   0  0  0  0  0  0  0  0  0  0  0  0
   -5.9970   17.8480  -33.7350 O   0  0  0  0  0  0  0  0  0  0  0  0
   -6.4810   18.9660  -34.1910 N   0  0  0  0  0  0  0  0  0  0  0  0
   -7.1340   23.7140  -30.4090 C   0  0  0  0  0  0  0  0  0  0  0  0
   -6.1090   24.3270  -29.6820 C   0  0  0  0  0  0  0  0  0  0  0  0
   -1.1070   23.8240  -26.1810 C   0  0  0  0  0  0  0  0  0  0  0  0
    0.2533   24.2604  -23.6181 H   0  0  0  0  0  0  0  0  0  0  0  0
    0.7158   22.7584  -24.4880 H   0  0  0  0  0  0  0  0  0  0  0  0
    1.8225   24.1733  -24.4880 H   0  0  0  0  0  0  0  0  0  0  0  0
    1.6928   25.7879  -26.1876 H   0  0  0  0  0  0  0  0  0  0  0  0
    0.6325   26.5974  -28.2912 H   0  0  0  0  0  0  0  0  0  0  0  0
   -3.7290   25.3780  -28.8840 H   0  0  0  0  0  0  0  0  0  0  0  0
   -3.6943   21.9275  -30.0115 H   0  0  0  0  0  0  0  0  0  0  0  0
   -5.5239   20.8325  -31.3009 H   0  0  0  0  0  0  0  0  0  0  0  0
   -7.1245   19.1241  -30.9499 H   0  0  0  0  0  0  0  0  0  0  0  0
   -5.8179   16.8554  -30.5390 H   0  0  0  0  0  0  0  0  0  0  0  0
   -6.3262   15.7136  -31.8292 H   0  0  0  0  0  0  0  0  0  0  0  0
   -4.6600   16.3848  -31.8292 H   0  0  0  0  0  0  0  0  0  0  0  0
   -8.1016   24.2231  -30.5299 H   0  0  0  0  0  0  0  0  0  0  0  0
   -6.2716   25.3218  -29.2416 H   0  0  0  0  0  0  0  0  0  0  0  0
   -1.5842   23.0260  -25.5933 H   0  0  0  0  0  0  0  0  0  0  0  0
  1  2  1  0
  2  3  2  0
  3  4  1  0
  4  5  2  0
  5  6  1  0
  5  7  1  0
  7  8  1  0
  8  9  2  0
  8 10  1  0
 10 11  1  0
 11 12  2  0
 12 13  1  0
 13 14  2  0
 14 15  1  0
 15 16  2  0
 15 17  2  0
 15 18  1  0
 18 19  2  3
 19 20  1  0
 20 21  2  0
 21 22  1  0
 21 23  1  0
 23 24  1  0
 14 25  1  0
 25 26  2  0
  7 27  2  0
 27  2  1  0
 26 11  1  0
 24 19  1  0
  1 28  1  0
  1 29  1  0
  1 30  1  0
  3 31  1  0
  4 32  1  0
 10 33  1  0
 12 34  1  0
 13 35  1  0
 20 36  1  0
 22 37  1  0
 22 38  1  0
 22 39  1  0
 25 40  1  0
 26 41  1  0
 27 42  1  0
M  CHG  2   6  -1  24  -1
M  END
>  <UniqueID>  (18) 
17

>  <SMILES>  (18) 
Cc1ccc([O-])c(C(=O)Nc2ccc(S(=O)(=O)N=c3cc(C)o[n-]3)cc2)c1

>  <Energy>  (18) 
84.05314425348847

>  <Genealogy>  (18) 
Cc1ccc([O-])c(C(=O)Nc2ccc(S(=O)(=O)N=c3cc(C)o[n-]3)cc2)c1 (protonated)
Cc1ccc([O-])c(C(=O)Nc2ccc(S(=O)(=O)N=c3cc(C)o[n-]3)cc2)c1 (3D coordinates assigned)
Cc1ccc([O-])c(C(=O)Nc2ccc(S(=O)(=O)N=c3cc(C)o[n-]3)cc2)c1 (optimized conformer: 84.05314425348847 kcal/mol)

>  <smiles>  (18) 
Cc1ccc(O)c(C(=O)Nc2ccc(S(=O)(=O)N=c3cc(C)o[nH]3)cc2)c1

>  <score_type>  (18) 
oracle

>  <origin>  (18) 
adgpu

>  <m_score__min__energy>  (18) 
-12.050000000000001

>  <m_primary>  (18) 
energy

$$$$
18:0
     RDKit          3D

 40 42  0  0  0  0  0  0  0  0999 V2000
   -3.3200   19.5540  -31.5640 H   0  0  0  0  0  0  0  0  0  0  0  0
   -3.3230   20.4250  -32.0830 O   0  0  0  0  0  0  0  0  0  0  0  0
   -4.4130   21.2950  -32.0500 C   0  0  0  0  0  0  0  0  0  0  0  0
   -4.2400   22.6060  -31.5820 C   0  0  0  0  0  0  0  0  0  0  0  0
   -3.2411   22.9432  -31.2681 H   0  0  0  0  0  0  0  0  0  0  0  0
   -5.3280   23.4950  -31.5090 C   0  0  0  0  0  0  0  0  0  0  0  0
   -5.1400   24.8770  -31.0100 C   0  0  0  0  0  0  0  0  0  0  0  0
   -6.1130   25.6780  -31.0070 O   0  0  0  0  0  0  0  0  0  0  0  0
   -3.8730   25.2690  -30.4510 N   0  0  0  0  0  0  0  0  0  0  0  0
   -3.2780   24.8340  -29.3750 C   0  0  0  0  0  0  0  0  0  0  0  0
   -2.0250   25.2950  -29.1060 N   0  0  0  0  0  0  0  0  0  0  0  0
   -1.3190   24.9090  -28.0080 C   0  0  0  0  0  0  0  0  0  0  0  0
    0.0500   25.4590  -27.7710 C   0  0  0  0  0  0  0  0  0  0  0  0
    0.2333   25.5326  -26.6889 H   0  0  0  0  0  0  0  0  0  0  0  0
    0.7971   24.7912  -28.2248 H   0  0  0  0  0  0  0  0  0  0  0  0
    0.1274   26.4580  -28.2248 H   0  0  0  0  0  0  0  0  0  0  0  0
   -1.8900   24.0140  -27.0960 C   0  0  0  0  0  0  0  0  0  0  0  0
   -1.3295   23.6932  -26.2055 H   0  0  0  0  0  0  0  0  0  0  0  0
   -3.1780   23.5340  -27.3300 C   0  0  0  0  0  0  0  0  0  0  0  0
   -3.6397   22.8329  -26.6192 H   0  0  0  0  0  0  0  0  0  0  0  0
   -3.8830   23.9410  -28.4640 C   0  0  0  0  0  0  0  0  0  0  0  0
   -4.9019   23.5689  -28.6464 H   0  0  0  0  0  0  0  0  0  0  0  0
   -6.5990   23.0450  -31.9090 C   0  0  0  0  0  0  0  0  0  0  0  0
   -7.4617   23.7250  -31.8521 H   0  0  0  0  0  0  0  0  0  0  0  0
   -6.7740   21.7410  -32.3780 C   0  0  0  0  0  0  0  0  0  0  0  0
   -7.7749   21.4034  -32.6851 H   0  0  0  0  0  0  0  0  0  0  0  0
   -5.6870   20.8560  -32.4620 C   0  0  0  0  0  0  0  0  0  0  0  0
   -5.8990   19.4810  -32.9740 C   0  0  0  0  0  0  0  0  0  0  0  0
   -7.0150   18.7350  -32.5630 C   0  0  0  0  0  0  0  0  0  0  0  0
   -7.7360   19.1649  -31.8521 H   0  0  0  0  0  0  0  0  0  0  0  0
   -7.2050   17.4450  -33.0610 C   0  0  0  0  0  0  0  0  0  0  0  0
   -8.0757   16.8552  -32.7387 H   0  0  0  0  0  0  0  0  0  0  0  0
   -6.3170   16.9160  -33.9430 N   0  0  0  0  0  0  0  0  0  0  0  0
   -5.2260   17.6120  -34.3660 C   0  0  0  0  0  0  0  0  0  0  0  0
   -4.2860   16.9950  -35.3520 C   0  0  0  0  0  0  0  0  0  0  0  0
   -3.4839   16.4685  -34.8140 H   0  0  0  0  0  0  0  0  0  0  0  0
   -4.8342   16.2805  -35.9836 H   0  0  0  0  0  0  0  0  0  0  0  0
   -3.8485   17.7822  -35.9836 H   0  0  0  0  0  0  0  0  0  0  0  0
   -5.0030   18.9120  -33.8930 C   0  0  0  0  0  0  0  0  0  0  0  0
   -4.1299   19.4841  -34.2401 H   0  0  0  0  0  0  0  0  0  0  0  0
  1  2  1  0
  2  3  1  0
  3  4  2  0
  4  5  1  0
  4  6  1  0
  6  7  1  0
  7  8  2  0
  7  9  1  0
  9 10  2  0
 10 11  1  0
 11 12  1  0
 12 13  1  0
 13 14  1  0
 13 15  1  0
 13 16  1  0
 12 17  2  0
 17 18  1  0
 17 19  1  0
 19 20  1  0
 19 21  2  0
 21 22  1  0
  6 23  2  0
 23 24  1  0
 23 25  1  0
 25 26  1  0
 25 27  2  0
 27 28  1  0
 28 29  2  0
 29 30  1  0
 29 31  1  0
 31 32  1  0
 31 33  2  0
 33 34  1  0
 34 35  1  0
 35 36  1  0
 35 37  1  0
 35 38  1  0
 34 39  2  0
 39 40  1  0
 27  3  1  0
 39 28  1  0
 21 10  1  0
M  CHG  1  11  -1
M  END
>  <UniqueID>  (19) 
18

>  <SMILES>  (19) 
Cc1cc(-c2ccc(C(=O)/N=c3\cccc(C)[n-]3)cc2O)ccn1

>  <Energy>  (19) 
56.20444036997995

>  <Genealogy>  (19) 
Cc1cc(-c2ccc(C(=O)N=c3cccc(C)[n-]3)cc2O)ccn1 (protonated)
Cc1cc(-c2ccc(C(=O)/N=c3\cccc(C)[n-]3)cc2O)ccn1 (cis-trans isomerization)
Cc1cc(-c2ccc(C(=O)/N=c3\cccc(C)[n-]3)cc2O)ccn1 (3D coordinates assigned)
Cc1cc(-c2ccc(C(=O)/N=c3\cccc(C)[n-]3)cc2O)ccn1 (optimized conformer: 56.20444036997995 kcal/mol)

>  <smiles>  (19) 
Cc1cc(-c2ccc(C(=O)N=c3cccc(C)[nH]3)cc2O)ccn1

>  <score_type>  (19) 
oracle

>  <origin>  (19) 
adgpu

>  <m_score__min__energy>  (19) 
-10.380000000000001

>  <m_primary>  (19) 
energy

$$$$
19:0
     RDKit          3D

 52 56  0  0  1  0  0  0  0  0999 V2000
   -4.1720   24.7450  -26.9810 N   0  0  0  0  0  0  0  0  0  0  0  0
   -3.4260   24.1820  -28.4560 S   0  0  0  0  0  0  0  0  0  0  0  0
   -2.9160   22.7880  -28.2920 O   0  0  0  0  0  0  0  0  0  0  0  0
   -2.3670   25.1460  -28.9170 O   0  0  0  0  0  0  0  0  0  0  0  0
   -4.7030   24.2020  -29.6630 C   0  0  0  0  0  0  0  0  0  0  0  0
   -5.0970   25.3670  -30.2810 C   0  0  0  0  0  0  0  0  0  0  0  0
   -6.1090   25.3130  -31.2220 C   0  0  0  0  0  0  0  0  0  0  0  0
   -6.7300   24.1130  -31.5510 C   0  0  0  0  0  0  0  0  0  0  0  0
   -6.3440   22.9560  -30.9430 C   0  0  0  0  0  0  0  0  0  0  0  0
   -6.9110   21.6780  -31.2070 N   0  0  0  0  0  0  0  0  0  0  0  0
   -6.1820   20.7990  -31.7790 C   0  0  0  0  0  0  0  0  0  0  0  0
   -4.9110   20.9880  -32.1530 N   0  0  0  0  0  0  0  0  0  0  0  0
   -4.1570   20.0490  -32.7550 C   0  0  0  0  0  0  0  0  0  0  0  0
   -2.8180   20.2940  -33.1320 N   0  0  0  0  0  0  0  0  0  0  0  0
   -2.0550   21.4750  -32.7740 C   0  0  0  0  0  0  0  0  0  0  0  0
   -0.8300   21.4750  -33.6490 C   0  0  0  0  0  0  0  0  0  0  0  0
   -0.6340   20.0090  -33.9490 C   0  0  0  0  0  0  0  0  0  0  0  0
   -2.0140   19.3910  -33.9370 C   0  0  0  0  0  0  0  0  0  0  0  0
   -4.7450   18.8590  -32.9800 N   0  0  0  0  0  0  0  0  0  0  0  0
   -6.0160   18.5880  -32.6350 C   0  0  0  0  0  0  0  0  0  0  0  0
   -6.7790   19.5590  -32.0190 C   0  0  0  0  0  0  0  0  0  0  0  0
   -7.9980   19.0540  -31.7760 N   0  0  0  0  0  0  0  0  0  0  0  0
   -7.9890   17.7890  -32.2370 C   0  0  0  0  0  0  0  0  0  0  0  0
   -6.7860   17.4920  -32.7620 N   0  0  0  0  0  0  0  0  0  0  0  0
   -6.3450   16.2760  -33.3550 C   0  0  0  0  0  0  0  0  0  0  0  0
   -7.1860   15.4240  -34.0460 C   0  0  0  0  0  0  0  0  0  0  0  0
   -6.6580   14.2690  -34.5830 C   0  0  0  0  0  0  0  0  0  0  0  0
   -5.3030   13.9700  -34.4280 C   0  0  0  0  0  0  0  0  0  0  0  0
   -4.4520   14.8220  -33.7330 C   0  0  0  0  0  0  0  0  0  0  0  0
   -4.9850   15.9870  -33.1930 C   0  0  0  0  0  0  0  0  0  0  0  0
   -5.3230   23.0130  -29.9950 C   0  0  0  0  0  0  0  0  0  0  0  0
   -4.2260   25.7720  -26.9840 H   0  0  0  0  0  0  0  0  0  0  0  0
   -5.1110   24.2950  -26.9650 H   0  0  0  0  0  0  0  0  0  0  0  0
   -4.6156   26.3239  -30.0309 H   0  0  0  0  0  0  0  0  0  0  0  0
   -6.4297   26.2393  -31.7211 H   0  0  0  0  0  0  0  0  0  0  0  0
   -7.5332   24.0977  -32.3024 H   0  0  0  0  0  0  0  0  0  0  0  0
   -4.4590   21.9120  -31.9760 H   0  0  0  0  0  0  0  0  0  0  0  0
   -2.6511   22.3816  -32.9550 H   0  0  0  0  0  0  0  0  0  0  0  0
   -1.7823   21.4640  -31.7084 H   0  0  0  0  0  0  0  0  0  0  0  0
   -1.0020   22.0488  -34.5716 H   0  0  0  0  0  0  0  0  0  0  0  0
    0.0447   21.9432  -33.1740 H   0  0  0  0  0  0  0  0  0  0  0  0
   -0.1666   19.8804  -34.9364 H   0  0  0  0  0  0  0  0  0  0  0  0
    0.0266   19.5321  -33.2100 H   0  0  0  0  0  0  0  0  0  0  0  0
   -2.4159   19.3205  -34.9585 H   0  0  0  0  0  0  0  0  0  0  0  0
   -2.0074   18.3682  -33.5323 H   0  0  0  0  0  0  0  0  0  0  0  0
   -8.8429   17.0971  -32.1911 H   0  0  0  0  0  0  0  0  0  0  0  0
   -8.2533   15.6622  -34.1649 H   0  0  0  0  0  0  0  0  0  0  0  0
   -7.3094   13.5777  -35.1379 H   0  0  0  0  0  0  0  0  0  0  0  0
   -4.9014   13.0433  -34.8638 H   0  0  0  0  0  0  0  0  0  0  0  0
   -3.3854   14.5807  -33.6136 H   0  0  0  0  0  0  0  0  0  0  0  0
   -4.3376   16.6820  -32.6382 H   0  0  0  0  0  0  0  0  0  0  0  0
   -5.0024   22.0856  -29.4978 H   0  0  0  0  0  0  0  0  0  0  0  0
  1  2  1  0
  2  3  2  0
  2  4  2  0
  2  5  1  0
  5  6  2  0
  6  7  1  0
  7  8  2  0
  8  9  1  0
  9 10  1  0
 10 11  2  0
 11 12  1  0
 12 13  1  0
 13 14  1  0
 14 15  1  0
 15 16  1  0
 16 17  1  0
 17 18  1  0
 13 19  2  0
 19 20  1  0
 20 21  2  0
 21 22  1  0
 22 23  2  0
 23 24  1  0
 24 25  1  0
 25 26  2  0
 26 27  1  0
 27 28  2  0
 28 29  1  0
 29 30  2  0
  9 31  2  0
 31  5  1  0
 21 11  1  0
 30 25  1  0
 18 14  1  0
 24 20  1  0
  1 32  1  0
  1 33  1  0
  6 34  1  0
  7 35  1  0
  8 36  1  0
 12 37  1  0
 15 38  1  0
 15 39  1  0
 16 40  1  0
 16 41  1  0
 17 42  1  0
 17 43  1  0
 18 44  1  0
 18 45  1  0
 23 46  1  0
 26 47  1  0
 27 48  1  0
 28 49  1  0
 29 50  1  0
 30 51  1  0
 31 52  1  0
M  END
>  <smiles>  (20) 
NS(=O)(=O)c1cccc(N=c2[nH]c(N3CCCC3)nc3c2ncn3-c2ccccc2)c1

>  <score_type>  (20) 
oracle

>  <origin>  (20) 
adgpu

>  <m_score__min__energy>  (20) 
-10.06

>  <m_primary>  (20) 
energy

$$$$
20:0
     RDKit          3D

 32 34  0  0  0  0  0  0  0  0999 V2000
   -1.8340   16.4260  -35.0970 N   0  0  0  0  0  0  0  0  0  0  0  0
   -3.2340   15.4890  -34.7170 S   0  0  0  0  0  0  0  0  0  0  0  0
   -2.9160   14.5440  -33.5910 O   0  0  0  0  0  0  0  0  0  0  0  0
   -3.6390   14.6850  -35.9210 O   0  0  0  0  0  0  0  0  0  0  0  0
   -4.5490   16.5600  -34.2440 C   0  0  0  0  0  0  0  0  0  0  0  0
   -5.6410   16.0590  -33.5260 C   0  0  0  0  0  0  0  0  0  0  0  0
   -6.6790   16.9100  -33.1370 C   0  0  0  0  0  0  0  0  0  0  0  0
   -6.6480   18.2700  -33.4730 C   0  0  0  0  0  0  0  0  0  0  0  0
   -7.7250   19.1120  -33.0320 N   0  0  0  0  0  0  0  0  0  0  0  0
   -7.6140   20.2220  -32.3670 C   0  0  0  0  0  0  0  0  0  0  0  0
   -6.4540   20.8320  -32.0500 N   0  0  0  0  0  0  0  0  0  0  0  0
   -6.6720   22.0130  -31.3880 C   0  0  0  0  0  0  0  0  0  0  0  0
   -5.5470   22.8610  -30.9270 C   0  0  0  0  0  0  0  0  0  0  0  0
   -4.3420   22.2750  -30.4970 C   0  0  0  0  0  0  0  0  0  0  0  0
   -3.2820   23.0750  -30.0610 C   0  0  0  0  0  0  0  0  0  0  0  0
   -3.4110   24.4660  -30.0490 C   0  0  0  0  0  0  0  0  0  0  0  0
   -2.3520   25.2550  -29.6150 O   0  0  0  0  0  0  0  0  0  0  0  0
   -4.6030   25.0610  -30.4750 C   0  0  0  0  0  0  0  0  0  0  0  0
   -4.7360   26.4440  -30.4650 O   0  0  0  0  0  0  0  0  0  0  0  0
   -5.6670   24.2630  -30.9120 C   0  0  0  0  0  0  0  0  0  0  0  0
   -7.9730   22.3720  -31.1780 N   0  0  0  0  0  0  0  0  0  0  0  0
   -8.8830   21.1530  -31.8510 S   0  0  0  0  0  0  0  0  0  0  0  0
   -5.5290   18.7790  -34.1630 C   0  0  0  0  0  0  0  0  0  0  0  0
   -4.4910   17.9260  -34.5500 C   0  0  0  0  0  0  0  0  0  0  0  0
   -1.8790   16.6410  -36.1180 H   0  0  0  0  0  0  0  0  0  0  0  0
   -5.6824   14.9908  -33.2668 H   0  0  0  0  0  0  0  0  0  0  0  0
   -7.5271   16.5091  -32.5625 H   0  0  0  0  0  0  0  0  0  0  0  0
   -4.2336   21.1804  -30.5040 H   0  0  0  0  0  0  0  0  0  0  0  0
   -2.3438   22.6081  -29.7265 H   0  0  0  0  0  0  0  0  0  0  0  0
   -6.6029   24.7350  -31.2458 H   0  0  0  0  0  0  0  0  0  0  0  0
   -5.4722   19.8521  -34.3980 H   0  0  0  0  0  0  0  0  0  0  0  0
   -3.6257   18.3288  -35.0967 H   0  0  0  0  0  0  0  0  0  0  0  0
  1  2  1  0
  2  3  2  0
  2  4  2  0
  2  5  1  0
  5  6  2  0
  6  7  1  0
  7  8  2  0
  8  9  1  0
  9 10  2  3
 10 11  1  0
 11 12  1  0
 12 13  1  0
 13 14  2  0
 14 15  1  0
 15 16  2  0
 16 17  1  0
 16 18  1  0
 18 19  1  0
 18 20  2  0
 12 21  2  0
 21 22  1  0
  8 23  1  0
 23 24  2  0
 24  5  1  0
 22 10  1  0
 20 13  1  0
  1 25  1  0
  6 26  1  0
  7 27  1  0
 14 28  1  0
 15 29  1  0
 20 30  1  0
 23 31  1  0
 24 32  1  0
M  CHG  4   1  -1  11  -1  17  -1  19  -1
M  END
>  <UniqueID>  (21) 
19

>  <SMILES>  (21) 
[NH-]S(=O)(=O)c1ccc(N=c2[n-]c(-c3ccc([O-])c([O-])c3)ns2)cc1

>  <Energy>  (21) 
78.90191657076358

>  <Genealogy>  (21) 
[NH-]S(=O)(=O)c1ccc(N=c2[n-]c(-c3ccc([O-])c([O-])c3)ns2)cc1 (protonated)
[NH-]S(=O)(=O)c1ccc(N=c2[n-]c(-c3ccc([O-])c([O-])c3)ns2)cc1 (3D coordinates assigned)
[NH-]S(=O)(=O)c1ccc(N=c2[n-]c(-c3ccc([O-])c([O-])c3)ns2)cc1 (optimized conformer: 78.90191657076358 kcal/mol)

>  <smiles>  (21) 
NS(=O)(=O)c1ccc(N=c2[nH]c(-c3ccc(O)c(O)c3)ns2)cc1

>  <score_type>  (21) 
oracle

>  <origin>  (21) 
adgpu

>  <m_score__min__energy>  (21) 
-11.93

>  <m_primary>  (21) 
energy

$$$$
21:0
     RDKit          3D

 42 44  0  0  0  0  0  0  0  0999 V2000
   -0.6783   27.4375  -28.7227 H   0  0  0  0  0  0  0  0  0  0  0  0
   -0.8770   26.4930  -28.1950 C   0  0  0  0  0  0  0  0  0  0  0  0
   -1.8740   25.6730  -28.6220 N   0  0  0  0  0  0  0  0  0  0  0  0
   -2.1530   24.4930  -27.9970 C   0  0  0  0  0  0  0  0  0  0  0  0
   -3.1090   23.7240  -28.4210 N   0  0  0  0  0  0  0  0  0  0  0  0
   -4.1120   24.0940  -29.7880 S   0  0  0  0  0  0  0  0  0  0  0  0
   -3.5660   25.2900  -30.5140 O   0  0  0  0  0  0  0  0  0  0  0  0
   -5.5080   24.3780  -29.3100 O   0  0  0  0  0  0  0  0  0  0  0  0
   -4.1310   22.7170  -30.8850 C   0  0  0  0  0  0  0  0  0  0  0  0
   -3.5290   21.5080  -30.5130 C   0  0  0  0  0  0  0  0  0  0  0  0
   -3.0368   21.4201  -29.5332 H   0  0  0  0  0  0  0  0  0  0  0  0
   -3.5510   20.4120  -31.3820 C   0  0  0  0  0  0  0  0  0  0  0  0
   -3.0632   19.4704  -31.0898 H   0  0  0  0  0  0  0  0  0  0  0  0
   -4.1960   20.5110  -32.6300 C   0  0  0  0  0  0  0  0  0  0  0  0
   -4.2230   19.4190  -33.5610 N   0  0  0  0  0  0  0  0  0  0  0  0
   -5.3910   18.7820  -34.1000 C   0  0  0  0  0  0  0  0  0  0  0  0
   -5.3140   18.1250  -35.1730 O   0  0  0  0  0  0  0  0  0  0  0  0
   -6.6770   18.8500  -33.3650 C   0  0  0  0  0  0  0  0  0  0  0  0
   -7.1770   17.7200  -32.6940 C   0  0  0  0  0  0  0  0  0  0  0  0
   -6.6100   16.7776  -32.7147 H   0  0  0  0  0  0  0  0  0  0  0  0
   -8.3870   17.7850  -32.0020 C   0  0  0  0  0  0  0  0  0  0  0  0
   -8.7693   16.8948  -31.4810 H   0  0  0  0  0  0  0  0  0  0  0  0
   -9.1140   18.9770  -31.9690 C   0  0  0  0  0  0  0  0  0  0  0  0
  -10.0667   19.0208  -31.4209 H   0  0  0  0  0  0  0  0  0  0  0  0
   -8.6390   20.1150  -32.6280 C   0  0  0  0  0  0  0  0  0  0  0  0
   -9.4070   21.2880  -32.5640 O   0  0  0  0  0  0  0  0  0  0  0  0
   -9.0280   22.4610  -31.8510 C   0  0  0  0  0  0  0  0  0  0  0  0
   -9.0901   22.2689  -30.7697 H   0  0  0  0  0  0  0  0  0  0  0  0
   -7.9959   22.7339  -32.1163 H   0  0  0  0  0  0  0  0  0  0  0  0
   -9.7052   23.2862  -32.1163 H   0  0  0  0  0  0  0  0  0  0  0  0
   -7.4170   20.0480  -33.3270 C   0  0  0  0  0  0  0  0  0  0  0  0
   -7.0376   20.9396  -33.8477 H   0  0  0  0  0  0  0  0  0  0  0  0
   -4.7800   21.7270  -33.0030 C   0  0  0  0  0  0  0  0  0  0  0  0
   -5.2601   21.8223  -33.9881 H   0  0  0  0  0  0  0  0  0  0  0  0
   -4.7580   22.8220  -32.1330 C   0  0  0  0  0  0  0  0  0  0  0  0
   -5.2344   23.7681  -32.4297 H   0  0  0  0  0  0  0  0  0  0  0  0
   -1.3980   24.1050  -26.8840 C   0  0  0  0  0  0  0  0  0  0  0  0
   -1.6120   23.1552  -26.3721 H   0  0  0  0  0  0  0  0  0  0  0  0
   -0.3700   24.9350  -26.4290 C   0  0  0  0  0  0  0  0  0  0  0  0
    0.2290   24.6417  -25.5543 H   0  0  0  0  0  0  0  0  0  0  0  0
   -0.1050   26.1370  -27.0870 C   0  0  0  0  0  0  0  0  0  0  0  0
    0.7028   26.7965  -26.7368 H   0  0  0  0  0  0  0  0  0  0  0  0
  1  2  1  0
  2  3  1  0
  3  4  1  0
  4  5  2  0
  5  6  1  0
  6  7  2  0
  6  8  2  0
  6  9  1  0
  9 10  2  0
 10 11  1  0
 10 12  1  0
 12 13  1  0
 12 14  2  0
 14 15  1  0
 15 16  1  0
 16 17  2  0
 16 18  1  0
 18 19  2  0
 19 20  1  0
 19 21  1  0
 21 22  1  0
 21 23  2  0
 23 24  1  0
 23 25  1  0
 25 26  1  0
 26 27  1  0
 27 28  1  0
 27 29  1  0
 27 30  1  0
 25 31  2  0
 31 32  1  0
 14 33  1  0
 33 34  1  0
 33 35  2  0
 35 36  1  0
  4 37  1  0
 37 38  1  0
 37 39  2  0
 39 40  1  0
 39 41  1  0
 41 42  1  0
 41  2  2  0
 35  9  1  0
 31 18  1  0
M  CHG  2   3  -1  15  -1
M  END
>  <UniqueID>  (22) 
20

>  <SMILES>  (22) 
COc1cccc(C(=O)[N-]c2ccc(S(=O)(=O)/N=c3/cccc[n-]3)cc2)c1

>  <Energy>  (22) 
53.16496205493178

>  <Genealogy>  (22) 
COc1cccc(C(=O)[N-]c2ccc(S(=O)(=O)N=c3cccc[n-]3)cc2)c1 (protonated)
COc1cccc(C(=O)[N-]c2ccc(S(=O)(=O)/N=c3/cccc[n-]3)cc2)c1 (cis-trans isomerization)
COc1cccc(C(=O)[N-]c2ccc(S(=O)(=O)/N=c3/cccc[n-]3)cc2)c1 (3D coordinates assigned)
COc1cccc(C(=O)[N-]c2ccc(S(=O)(=O)/N=c3/cccc[n-]3)cc2)c1 (optimized conformer: 53.16496205493178 kcal/mol)

>  <smiles>  (22) 
COc1cccc(C(=O)Nc2ccc(S(=O)(=O)N=c3cccc[nH]3)cc2)c1

>  <score_type>  (22) 
oracle

>  <origin>  (22) 
adgpu

>  <m_score__min__energy>  (22) 
-10.66

>  <m_primary>  (22) 
energy

$$$$
22:0
     RDKit          3D

 54 57  0  0  0  0  0  0  0  0999 V2000
   -8.7420   22.2750  -30.8270 C   0  0  0  0  0  0  0  0  0  0  0  0
   -7.8980   21.3250  -31.6370 C   0  0  0  0  0  0  0  0  0  0  0  0
   -8.5000   20.1860  -32.1920 C   0  0  0  0  0  0  0  0  0  0  0  0
   -7.7510   19.2820  -32.9480 C   0  0  0  0  0  0  0  0  0  0  0  0
   -6.3820   19.4900  -33.1540 C   0  0  0  0  0  0  0  0  0  0  0  0
   -5.6420   18.5650  -33.9690 N   0  0  0  0  0  0  0  0  0  0  0  0
   -5.6920   17.1350  -33.7960 C   0  0  0  0  0  0  0  0  0  0  0  0
   -6.6000   16.6270  -33.0840 O   0  0  0  0  0  0  0  0  0  0  0  0
   -4.6910   16.2380  -34.4290 C   0  0  0  0  0  0  0  0  0  0  0  0
   -3.5770   16.7990  -35.0810 C   0  0  0  0  0  0  0  0  0  0  0  0
   -2.6390   15.9850  -35.7150 C   0  0  0  0  0  0  0  0  0  0  0  0
   -2.7870   14.6000  -35.6960 C   0  0  0  0  0  0  0  0  0  0  0  0
   -3.8650   14.0100  -35.0130 C   0  0  0  0  0  0  0  0  0  0  0  0
   -4.0460   12.5130  -35.0330 C   0  0  0  0  0  0  0  0  0  0  0  0
   -5.2940   12.1740  -35.5270 F   0  0  0  0  0  0  0  0  0  0  0  0
   -3.0740   11.9500  -35.8390 F   0  0  0  0  0  0  0  0  0  0  0  0
   -3.9320   11.9910  -33.7560 F   0  0  0  0  0  0  0  0  0  0  0  0
   -4.8220   14.8370  -34.3960 C   0  0  0  0  0  0  0  0  0  0  0  0
   -5.7790   20.6450  -32.6300 C   0  0  0  0  0  0  0  0  0  0  0  0
   -6.5250   21.5710  -31.8830 C   0  0  0  0  0  0  0  0  0  0  0  0
   -5.8520   22.7950  -31.3990 C   0  0  0  0  0  0  0  0  0  0  0  0
   -6.4180   24.0540  -31.6330 C   0  0  0  0  0  0  0  0  0  0  0  0
   -5.7430   25.1980  -31.2110 C   0  0  0  0  0  0  0  0  0  0  0  0
   -4.5460   25.0890  -30.5780 N   0  0  0  0  0  0  0  0  0  0  0  0
   -3.9620   23.8830  -30.3240 C   0  0  0  0  0  0  0  0  0  0  0  0
   -2.6830   23.8380  -29.6540 N   0  0  0  0  0  0  0  0  0  0  0  0
   -1.6570   22.8840  -30.0930 C   0  0  0  0  0  0  0  0  0  0  0  0
   -0.4490   22.9200  -29.1640 C   0  0  0  0  0  0  0  0  0  0  0  0
   -0.1090   24.2650  -28.9170 O   0  0  0  0  0  0  0  0  0  0  0  0
   -1.0420   24.8380  -28.0190 C   0  0  0  0  0  0  0  0  0  0  0  0
   -2.5270   24.5720  -28.3850 C   0  0  0  0  0  0  0  0  0  0  0  0
   -4.6150   22.7090  -30.7430 C   0  0  0  0  0  0  0  0  0  0  0  0
   -8.5771   22.0894  -29.7554 H   0  0  0  0  0  0  0  0  0  0  0  0
   -8.4610   23.3110  -31.0672 H   0  0  0  0  0  0  0  0  0  0  0  0
   -9.8039   22.1180  -31.0672 H   0  0  0  0  0  0  0  0  0  0  0  0
   -9.5726   20.0032  -32.0301 H   0  0  0  0  0  0  0  0  0  0  0  0
   -8.2406   18.3993  -33.3852 H   0  0  0  0  0  0  0  0  0  0  0  0
   -5.0730   18.9720  -34.7400 H   0  0  0  0  0  0  0  0  0  0  0  0
   -3.4449   17.8910  -35.0906 H   0  0  0  0  0  0  0  0  0  0  0  0
   -1.7798   16.4378  -36.2316 H   0  0  0  0  0  0  0  0  0  0  0  0
   -2.0566   13.9646  -36.2182 H   0  0  0  0  0  0  0  0  0  0  0  0
   -5.6822   14.3833  -33.8821 H   0  0  0  0  0  0  0  0  0  0  0  0
   -4.7086   20.8267  -32.8070 H   0  0  0  0  0  0  0  0  0  0  0  0
   -7.3875   24.1396  -32.1457 H   0  0  0  0  0  0  0  0  0  0  0  0
   -6.1804   26.1911  -31.3909 H   0  0  0  0  0  0  0  0  0  0  0  0
   -2.0833   21.8700  -30.0906 H   0  0  0  0  0  0  0  0  0  0  0  0
   -1.3300   23.1605  -31.1062 H   0  0  0  0  0  0  0  0  0  0  0  0
   -0.6964   22.4206  -28.2156 H   0  0  0  0  0  0  0  0  0  0  0  0
    0.3992   22.3988  -29.6318 H   0  0  0  0  0  0  0  0  0  0  0  0
   -0.8547   24.4243  -27.0171 H   0  0  0  0  0  0  0  0  0  0  0  0
   -0.8962   25.9273  -28.0658 H   0  0  0  0  0  0  0  0  0  0  0  0
   -2.9866   23.9811  -27.5790 H   0  0  0  0  0  0  0  0  0  0  0  0
   -3.0169   25.5493  -28.5068 H   0  0  0  0  0  0  0  0  0  0  0  0
   -4.1567   21.7265  -30.5566 H   0  0  0  0  0  0  0  0  0  0  0  0
  1  2  1  0
  2  3  2  0
  3  4  1  0
  4  5  2  0
  5  6  1  0
  6  7  1  0
  7  8  2  0
  7  9  1  0
  9 10  2  0
 10 11  1  0
 11 12  2  0
 12 13  1  0
 13 14  1  0
 14 15  1  0
 14 16  1  0
 14 17  1  0
 13 18  2  0
  5 19  1  0
 19 20  2  0
 20 21  1  0
 21 22  2  0
 22 23  1  0
 23 24  2  0
 24 25  1  0
 25 26  1  0
 26 27  1  0
 27 28  1  0
 28 29  1  0
 29 30  1  0
 30 31  1  0
 25 32  2  0
 20  2  1  0
 32 21  1  0
 18  9  1  0
 31 26  1  0
  1 33  1  0
  1 34  1  0
  1 35  1  0
  3 36  1  0
  4 37  1  0
  6 38  1  0
 10 39  1  0
 11 40  1  0
 12 41  1  0
 18 42  1  0
 19 43  1  0
 22 44  1  0
 23 45  1  0
 27 46  1  0
 27 47  1  0
 28 48  1  0
 28 49  1  0
 30 50  1  0
 30 51  1  0
 31 52  1  0
 31 53  1  0
 32 54  1  0
M  END
>  <UniqueID>  (23) 
21

>  <SMILES>  (23) 
Cc1ccc(NC(=O)c2cccc(C(F)(F)F)c2)cc1-c1ccnc(N2CCOCC2)c1

>  <Energy>  (23) 
81.27723676322508

>  <Genealogy>  (23) 
Cc1ccc(NC(=O)c2cccc(C(F)(F)F)c2)cc1-c1ccnc(N2CCOCC2)c1 (3D coordinates assigned)
Cc1ccc(NC(=O)c2cccc(C(F)(F)F)c2)cc1-c1ccnc(N2CCOCC2)c1 (nonaromatic ring conformer: 81.27723676322508 kcal/mol)

>  <smiles>  (23) 
Cc1ccc(NC(=O)c2cccc(C(F)(F)F)c2)cc1-c1ccnc(N2CCOCC2)c1

>  <score_type>  (23) 
oracle

>  <origin>  (23) 
adgpu

>  <m_score__min__energy>  (23) 
-9.7899999999999991

>  <m_primary>  (23) 
energy

$$$$
23:0
     RDKit          3D

 47 49  0  0  0  0  0  0  0  0999 V2000
   -6.8403   20.3137  -31.8144 H   0  0  0  0  0  0  0  0  0  0  0  0
   -5.9740   20.9880  -31.8840 C   0  0  0  0  0  0  0  0  0  0  0  0
   -4.8830   20.6410  -32.6840 C   0  0  0  0  0  0  0  0  0  0  0  0
   -4.8909   19.6918  -33.2399 H   0  0  0  0  0  0  0  0  0  0  0  0
   -3.7780   21.4980  -32.7810 C   0  0  0  0  0  0  0  0  0  0  0  0
   -2.6630   21.1450  -33.6040 N   0  0  0  0  0  0  0  0  0  0  0  0
   -2.2590   21.8340  -34.2790 H   0  0  0  0  0  0  0  0  0  0  0  0
   -2.2360   20.1940  -33.5490 H   0  0  0  0  0  0  0  0  0  0  0  0
   -3.7710   22.7040  -32.0640 C   0  0  0  0  0  0  0  0  0  0  0  0
   -2.9061   23.3796  -32.1380 H   0  0  0  0  0  0  0  0  0  0  0  0
   -4.8630   23.0530  -31.2520 C   0  0  0  0  0  0  0  0  0  0  0  0
   -4.8810   24.3610  -30.5100 C   0  0  0  0  0  0  0  0  0  0  0  0
   -5.2600   24.1965  -29.4906 H   0  0  0  0  0  0  0  0  0  0  0  0
   -5.5346   25.0687  -31.0409 H   0  0  0  0  0  0  0  0  0  0  0  0
   -3.5330   24.9130  -30.4410 N   0  0  0  0  0  0  0  0  0  0  0  0
   -2.6350   24.6760  -29.3520 C   0  0  0  0  0  0  0  0  0  0  0  0
   -2.0010   25.6330  -28.8320 O   0  0  0  0  0  0  0  0  0  0  0  0
   -2.4010   23.3470  -28.8780 N   0  0  0  0  0  0  0  0  0  0  0  0
   -1.8750   22.2640  -29.6600 C   0  0  0  0  0  0  0  0  0  0  0  0
   -0.6280   22.3540  -30.3050 C   0  0  0  0  0  0  0  0  0  0  0  0
   -0.0227   23.2667  -30.2023 H   0  0  0  0  0  0  0  0  0  0  0  0
   -0.1550   21.2880  -31.0760 C   0  0  0  0  0  0  0  0  0  0  0  0
    0.8283   21.3583  -31.5640 H   0  0  0  0  0  0  0  0  0  0  0  0
   -0.9290   20.1310  -31.2290 C   0  0  0  0  0  0  0  0  0  0  0  0
   -0.3110   18.7850  -32.1800 S   0  0  0  0  0  0  0  0  0  0  0  0
   -1.4350   18.1900  -32.9810 O   0  0  0  0  0  0  0  0  0  0  0  0
    0.2550   17.7180  -31.2840 O   0  0  0  0  0  0  0  0  0  0  0  0
    0.9200   19.3510  -33.2590 N   0  0  0  0  0  0  0  0  0  0  0  0
    0.7740   20.4170  -33.9810 C   0  0  0  0  0  0  0  0  0  0  0  0
   -0.2960   21.1790  -33.9860 O   0  0  0  0  0  0  0  0  0  0  0  0
   -0.1560   22.1610  -34.8290 N   0  0  0  0  0  0  0  0  0  0  0  0
    1.0630   22.0280  -35.3940 C   0  0  0  0  0  0  0  0  0  0  0  0
    1.6000   22.9410  -36.4480 C   0  0  0  0  0  0  0  0  0  0  0  0
    2.1026   23.7956  -35.9715 H   0  0  0  0  0  0  0  0  0  0  0  0
    2.3205   22.3944  -37.0742 H   0  0  0  0  0  0  0  0  0  0  0  0
    0.7722   23.3051  -37.0742 H   0  0  0  0  0  0  0  0  0  0  0  0
    1.7020   20.9220  -34.8620 C   0  0  0  0  0  0  0  0  0  0  0  0
    3.0200   20.3360  -35.2580 C   0  0  0  0  0  0  0  0  0  0  0  0
    3.5940   20.0808  -34.3550 H   0  0  0  0  0  0  0  0  0  0  0  0
    2.8528   19.4274  -35.8551 H   0  0  0  0  0  0  0  0  0  0  0  0
    3.5825   21.0688  -35.8551 H   0  0  0  0  0  0  0  0  0  0  0  0
   -2.1810   20.0490  -30.6050 C   0  0  0  0  0  0  0  0  0  0  0  0
   -2.7936   19.1430  -30.7225 H   0  0  0  0  0  0  0  0  0  0  0  0
   -2.6540   21.1140  -29.8340 C   0  0  0  0  0  0  0  0  0  0  0  0
   -3.6448   21.0483  -29.3607 H   0  0  0  0  0  0  0  0  0  0  0  0
   -5.9670   22.1900  -31.1720 C   0  0  0  0  0  0  0  0  0  0  0  0
   -6.8301   22.4611  -30.5463 H   0  0  0  0  0  0  0  0  0  0  0  0
  1  2  1  0
  2  3  2  0
  3  4  1  0
  3  5  1  0
  5  6  1  0
  6  7  1  0
  6  8  1  0
  5  9  2  0
  9 10  1  0
  9 11  1  0
 11 12  1  0
 12 13  1  0
 12 14  1  0
 12 15  1  0
 15 16  1  0
 16 17  2  0
 16 18  1  0
 18 19  1  0
 19 20  2  0
 20 21  1  0
 20 22  1  0
 22 23  1  0
 22 24  2  0
 24 25  1  0
 25 26  2  0
 25 27  2  0
 25 28  1  0
 28 29  2  0
 29 30  1  0
 30 31  1  0
 31 32  1  0
 32 33  1  0
 33 34  1  0
 33 35  1  0
 33 36  1  0
 32 37  2  0
 37 38  1  0
 38 39  1  0
 38 40  1  0
 38 41  1  0
 24 42  1  0
 42 43  1  0
 42 44  2  0
 44 45  1  0
 11 46  2  0
 46 47  1  0
 46  2  1  0
 44 19  1  0
 37 29  1  0
M  CHG  3  15  -1  18  -1  31  -1
M  END
>  <UniqueID>  (24) 
22

>  <SMILES>  (24) 
Cc1[n-]o/c(=N\S(=O)(=O)c2ccc([N-]C(=O)[N-]Cc3cccc(N)c3)cc2)c1C

>  <Energy>  (24) 
80.98321932770642

>  <Genealogy>  (24) 
Cc1[n-]oc(=NS(=O)(=O)c2ccc([N-]C(=O)[N-]Cc3cccc(N)c3)cc2)c1C (protonated)
Cc1[n-]o/c(=N\S(=O)(=O)c2ccc([N-]C(=O)[N-]Cc3cccc(N)c3)cc2)c1C (cis-trans isomerization)
Cc1[n-]o/c(=N\S(=O)(=O)c2ccc([N-]C(=O)[N-]Cc3cccc(N)c3)cc2)c1C (3D coordinates assigned)
Cc1[n-]o/c(=N\S(=O)(=O)c2ccc([N-]C(=O)[N-]Cc3cccc(N)c3)cc2)c1C (optimized conformer: 80.98321932770642 kcal/mol)

>  <smiles>  (24) 
Cc1[nH]oc(=NS(=O)(=O)c2ccc(NC(=O)NCc3cccc(N)c3)cc2)c1C

>  <score_type>  (24) 
oracle

>  <origin>  (24) 
adgpu

>  <m_score__min__energy>  (24) 
-11.609999999999999

>  <m_primary>  (24) 
energy

$$$$
24:0
     RDKit          3D

 51 53  0  0  0  0  0  0  0  0999 V2000
   -4.2840   15.2290  -32.9680 C   0  0  0  0  0  0  0  0  0  0  0  0
   -3.8730   16.1250  -34.1090 C   0  0  0  0  0  0  0  0  0  0  0  0
   -2.9550   17.1580  -33.5800 C   0  0  0  0  0  0  0  0  0  0  0  0
   -1.6330   16.9070  -33.6170 N   0  0  0  0  0  0  0  0  0  0  0  0
   -0.7360   17.7990  -33.1450 C   0  0  0  0  0  0  0  0  0  0  0  0
    0.5340   17.5570  -33.1810 N   0  0  0  0  0  0  0  0  0  0  0  0
   -1.1920   18.9700  -32.6240 N   0  0  0  0  0  0  0  0  0  0  0  0
   -2.4980   19.2390  -32.5770 C   0  0  0  0  0  0  0  0  0  0  0  0
   -2.8500   20.3770  -32.0650 N   0  0  0  0  0  0  0  0  0  0  0  0
   -3.4310   18.3350  -33.0570 C   0  0  0  0  0  0  0  0  0  0  0  0
   -4.8330   18.6980  -32.9800 C   0  0  0  0  0  0  0  0  0  0  0  0
   -5.2920   19.6580  -33.8540 C   0  0  0  0  0  0  0  0  0  0  0  0
   -6.6170   20.0650  -33.8230 C   0  0  0  0  0  0  0  0  0  0  0  0
   -7.5440   19.5540  -32.9430 C   0  0  0  0  0  0  0  0  0  0  0  0
   -8.8780   19.9330  -32.8370 N   0  0  0  0  0  0  0  0  0  0  0  0
   -9.4780   20.9650  -32.0570 C   0  0  0  0  0  0  0  0  0  0  0  0
   -8.4790   21.9480  -31.6190 C   0  0  0  0  0  0  0  0  0  0  0  0
   -7.8610   22.8970  -32.3750 C   0  0  0  0  0  0  0  0  0  0  0  0
   -6.9310   23.8030  -31.8480 C   0  0  0  0  0  0  0  0  0  0  0  0
   -6.6010   23.7650  -30.5090 C   0  0  0  0  0  0  0  0  0  0  0  0
   -5.4480   24.8890  -29.8330 S   0  0  0  0  0  0  0  0  0  0  0  0
   -4.6210   24.1380  -28.4570 C   0  0  0  0  0  0  0  0  0  0  0  0
   -4.4010   25.2890  -30.8340 O   0  0  0  0  0  0  0  0  0  0  0  0
   -6.1190   26.1470  -29.3580 O   0  0  0  0  0  0  0  0  0  0  0  0
   -7.2220   22.8030  -29.7240 C   0  0  0  0  0  0  0  0  0  0  0  0
   -8.1350   21.9190  -30.2580 C   0  0  0  0  0  0  0  0  0  0  0  0
   -7.0360   18.5760  -32.0680 C   0  0  0  0  0  0  0  0  0  0  0  0
   -7.8480   17.9860  -31.1420 F   0  0  0  0  0  0  0  0  0  0  0  0
   -5.7340   18.1720  -32.0930 C   0  0  0  0  0  0  0  0  0  0  0  0
   -4.0567   15.7244  -32.0125 H   0  0  0  0  0  0  0  0  0  0  0  0
   -5.3639   15.0289  -33.0295 H   0  0  0  0  0  0  0  0  0  0  0  0
   -3.7312   14.2800  -33.0295 H   0  0  0  0  0  0  0  0  0  0  0  0
   -3.3610   15.5326  -34.8815 H   0  0  0  0  0  0  0  0  0  0  0  0
   -4.7588   16.5985  -34.5576 H   0  0  0  0  0  0  0  0  0  0  0  0
   -1.2790   16.0220  -34.0110 H   0  0  0  0  0  0  0  0  0  0  0  0
    0.8160   16.6270  -33.5990 H   0  0  0  0  0  0  0  0  0  0  0  0
   -0.4690   19.6210  -32.2740 H   0  0  0  0  0  0  0  0  0  0  0  0
   -3.8690   20.5920  -32.0250 H   0  0  0  0  0  0  0  0  0  0  0  0
   -4.6012   20.1060  -34.5834 H   0  0  0  0  0  0  0  0  0  0  0  0
   -6.9439   20.8349  -34.5375 H   0  0  0  0  0  0  0  0  0  0  0  0
   -9.5780   19.3670  -33.4300 H   0  0  0  0  0  0  0  0  0  0  0  0
  -10.2416   21.4749  -32.6628 H   0  0  0  0  0  0  0  0  0  0  0  0
   -9.9320   20.5085  -31.1651 H   0  0  0  0  0  0  0  0  0  0  0  0
   -8.1024   22.9550  -33.4466 H   0  0  0  0  0  0  0  0  0  0  0  0
   -6.4612   24.5490  -32.5059 H   0  0  0  0  0  0  0  0  0  0  0  0
   -5.0460   24.5239  -27.5187 H   0  0  0  0  0  0  0  0  0  0  0  0
   -4.7557   23.0471  -28.4992 H   0  0  0  0  0  0  0  0  0  0  0  0
   -3.5481   24.3769  -28.4992 H   0  0  0  0  0  0  0  0  0  0  0  0
   -6.9802   22.7449  -28.6525 H   0  0  0  0  0  0  0  0  0  0  0  0
   -8.6058   21.1723  -29.6016 H   0  0  0  0  0  0  0  0  0  0  0  0
   -5.3984   17.4030  -31.3817 H   0  0  0  0  0  0  0  0  0  0  0  0
  1  2  1  0
  2  3  1  0
  3  4  1  0
  4  5  1  0
  5  6  2  3
  5  7  1  0
  7  8  1  0
  8  9  2  3
  8 10  1  0
 10 11  1  0
 11 12  2  0
 12 13  1  0
 13 14  2  0
 14 15  1  0
 15 16  1  0
 16 17  1  0
 17 18  2  0
 18 19  1  0
 19 20  2  0
 20 21  1  0
 21 22  1  0
 21 23  2  0
 21 24  2  0
 20 25  1  0
 25 26  2  0
 14 27  1  0
 27 28  1  0
 27 29  2  0
 10  3  2  0
 29 11  1  0
 26 17  1  0
  1 30  1  0
  1 31  1  0
  1 32  1  0
  2 33  1  0
  2 34  1  0
  4 35  1  0
  6 36  1  0
  7 37  1  0
  9 38  1  0
 12 39  1  0
 13 40  1  0
 15 41  1  0
 16 42  1  0
 16 43  1  0
 18 44  1  0
 19 45  1  0
 22 46  1  0
 22 47  1  0
 22 48  1  0
 25 49  1  0
 26 50  1  0
 29 51  1  0
M  END
>  <smiles>  (25) 
CCc1[nH]c(=N)[nH]c(=N)c1-c1ccc(NCc2ccc(S(C)(=O)=O)cc2)c(F)c1

>  <score_type>  (25) 
oracle

>  <origin>  (25) 
adgpu

>  <m_score__min__energy>  (25) 
-9.8499999999999996

>  <m_primary>  (25) 
energy

$$$$
25:0
     RDKit          3D

 42 44  0  0  0  0  0  0  0  0999 V2000
   -3.3300   21.5180  -27.6330 C   0  0  0  0  0  0  0  0  0  0  0  0
   -3.2970   22.7230  -28.5250 C   0  0  0  0  0  0  0  0  0  0  0  0
   -4.3250   22.9320  -29.4530 C   0  0  0  0  0  0  0  0  0  0  0  0
   -4.2720   24.0430  -30.3050 C   0  0  0  0  0  0  0  0  0  0  0  0
   -5.3710   24.3090  -31.2950 C   0  0  0  0  0  0  0  0  0  0  0  0
   -6.7490   23.9390  -30.7300 C   0  0  0  0  0  0  0  0  0  0  0  0
   -7.2780   22.6650  -31.3400 C   0  0  0  0  0  0  0  0  0  0  0  0
   -8.6430   22.3530  -31.2460 C   0  0  0  0  0  0  0  0  0  0  0  0
   -9.1230   21.1390  -31.7450 C   0  0  0  0  0  0  0  0  0  0  0  0
   -8.2440   20.2290  -32.3390 C   0  0  0  0  0  0  0  0  0  0  0  0
   -6.8800   20.5310  -32.4440 C   0  0  0  0  0  0  0  0  0  0  0  0
   -5.7680   19.3860  -33.1890 S   0  0  0  0  0  0  0  0  0  0  0  0
   -5.3420   18.3640  -32.1730 O   0  0  0  0  0  0  0  0  0  0  0  0
   -6.4520   18.6600  -34.3130 O   0  0  0  0  0  0  0  0  0  0  0  0
   -4.3520   20.2150  -33.7610 N   0  0  0  0  0  0  0  0  0  0  0  0
   -3.3570   20.6090  -33.0240 C   0  0  0  0  0  0  0  0  0  0  0  0
   -2.2970   21.2700  -33.5340 N   0  0  0  0  0  0  0  0  0  0  0  0
   -1.3910   21.6130  -32.5800 C   0  0  0  0  0  0  0  0  0  0  0  0
   -1.7260   21.2170  -31.2900 C   0  0  0  0  0  0  0  0  0  0  0  0
   -3.2040   20.4130  -31.3570 S   0  0  0  0  0  0  0  0  0  0  0  0
   -6.4000   21.7480  -31.9410 C   0  0  0  0  0  0  0  0  0  0  0  0
   -3.2380   24.9240  -30.2000 N   0  0  0  0  0  0  0  0  0  0  0  0
   -2.2300   24.7480  -29.3050 C   0  0  0  0  0  0  0  0  0  0  0  0
   -1.2690   25.6120  -29.2320 N   0  0  0  0  0  0  0  0  0  0  0  0
   -2.2330   23.6340  -28.4610 C   0  0  0  0  0  0  0  0  0  0  0  0
   -3.3212   21.8400  -26.5812 H   0  0  0  0  0  0  0  0  0  0  0  0
   -4.2443   20.9396  -27.8317 H   0  0  0  0  0  0  0  0  0  0  0  0
   -2.4487   20.8904  -27.8317 H   0  0  0  0  0  0  0  0  0  0  0  0
   -5.1685   22.2285  -29.5125 H   0  0  0  0  0  0  0  0  0  0  0  0
   -5.3672   25.3785  -31.5524 H   0  0  0  0  0  0  0  0  0  0  0  0
   -5.1880   23.6877  -32.1841 H   0  0  0  0  0  0  0  0  0  0  0  0
   -6.6637   23.8045  -29.6416 H   0  0  0  0  0  0  0  0  0  0  0  0
   -7.4489   24.7521  -30.9729 H   0  0  0  0  0  0  0  0  0  0  0  0
   -9.3374   23.0663  -30.7780 H   0  0  0  0  0  0  0  0  0  0  0  0
  -10.1940   20.8993  -31.6702 H   0  0  0  0  0  0  0  0  0  0  0  0
   -8.6246   19.2721  -32.7255 H   0  0  0  0  0  0  0  0  0  0  0  0
   -2.1820   21.5000  -34.5460 H   0  0  0  0  0  0  0  0  0  0  0  0
   -0.4655   22.1609  -32.8107 H   0  0  0  0  0  0  0  0  0  0  0  0
   -1.1295   21.3975  -30.3836 H   0  0  0  0  0  0  0  0  0  0  0  0
   -5.3289   21.9865  -32.0174 H   0  0  0  0  0  0  0  0  0  0  0  0
   -1.2440   26.4550  -29.8490 H   0  0  0  0  0  0  0  0  0  0  0  0
   -1.4073   23.4732  -27.7522 H   0  0  0  0  0  0  0  0  0  0  0  0
  1  2  1  0
  2  3  1  0
  3  4  2  0
  4  5  1  0
  5  6  1  0
  6  7  1  0
  7  8  2  0
  8  9  1  0
  9 10  2  0
 10 11  1  0
 11 12  1  0
 12 13  2  0
 12 14  2  0
 12 15  1  0
 15 16  2  3
 16 17  1  0
 17 18  1  0
 18 19  2  0
 19 20  1  0
 11 21  2  0
  4 22  1  0
 22 23  1  0
 23 24  2  3
 23 25  1  0
 25  2  2  0
 21  7  1  0
 20 16  1  0
  1 26  1  0
  1 27  1  0
  1 28  1  0
  3 29  1  0
  5 30  1  0
  5 31  1  0
  6 32  1  0
  6 33  1  0
  8 34  1  0
  9 35  1  0
 10 36  1  0
 17 37  1  0
 18 38  1  0
 19 39  1  0
 21 40  1  0
 24 41  1  0
 25 42  1  0
M  CHG  1  22  -1
M  END
>  <UniqueID>  (26) 
23

>  <SMILES>  (26) 
Cc1cc(CCc2cccc(S(=O)(=O)N=c3[nH]ccs3)c2)[n-]c(=N)c1

>  <Energy>  (26) 
69.53857327391326

>  <Genealogy>  (26) 
Cc1cc(CCc2cccc(S(=O)(=O)N=c3[nH]ccs3)c2)[n-]c(=N)c1 (protonated)
Cc1cc(CCc2cccc(S(=O)(=O)N=c3[nH]ccs3)c2)[n-]c(=N)c1 (3D coordinates assigned)
Cc1cc(CCc2cccc(S(=O)(=O)N=c3[nH]ccs3)c2)[n-]c(=N)c1 (optimized conformer: 69.53857327391326 kcal/mol)

>  <smiles>  (26) 
Cc1cc(CCc2cccc(S(=O)(=O)N=c3[nH]ccs3)c2)[nH]c(=N)c1

>  <score_type>  (26) 
oracle

>  <origin>  (26) 
adgpu

>  <m_score__min__energy>  (26) 
-11.720000000000001

>  <m_primary>  (26) 
energy

$$$$
26:0
     RDKit          3D

 55 58  0  0  0  0  0  0  0  0999 V2000
    0.8500   19.3260  -31.8570 C   0  0  0  0  0  0  0  0  0  0  0  0
    0.6060   20.7260  -31.7740 O   0  0  0  0  0  0  0  0  0  0  0  0
   -0.6620   21.3010  -31.5920 C   0  0  0  0  0  0  0  0  0  0  0  0
   -0.9000   22.0320  -30.4220 C   0  0  0  0  0  0  0  0  0  0  0  0
   -2.1460   22.6230  -30.1940 C   0  0  0  0  0  0  0  0  0  0  0  0
   -3.1770   22.4960  -31.1390 C   0  0  0  0  0  0  0  0  0  0  0  0
   -4.5030   23.1150  -30.8990 C   0  0  0  0  0  0  0  0  0  0  0  0
   -5.6680   22.3340  -31.0130 C   0  0  0  0  0  0  0  0  0  0  0  0
   -6.9370   22.8980  -30.8030 C   0  0  0  0  0  0  0  0  0  0  0  0
   -8.1550   22.0650  -30.9400 C   0  0  0  0  0  0  0  0  0  0  0  0
   -9.0310   22.0920  -30.0350 O   0  0  0  0  0  0  0  0  0  0  0  0
   -8.3900   21.2580  -32.1040 N   0  0  0  0  0  0  0  0  0  0  0  0
   -7.5780   20.1450  -32.5020 C   0  0  0  0  0  0  0  0  0  0  0  0
   -6.5080   20.3570  -33.3790 C   0  0  0  0  0  0  0  0  0  0  0  0
   -5.6520   19.3020  -33.7120 C   0  0  0  0  0  0  0  0  0  0  0  0
   -5.8750   18.0210  -33.1890 C   0  0  0  0  0  0  0  0  0  0  0  0
   -4.7350   16.7280  -33.5350 S   0  0  0  0  0  0  0  0  0  0  0  0
   -4.8060   16.2890  -34.9710 O   0  0  0  0  0  0  0  0  0  0  0  0
   -3.3520   17.2530  -33.2720 O   0  0  0  0  0  0  0  0  0  0  0  0
   -5.0100   15.3660  -32.4940 N   0  0  0  0  0  0  0  0  0  0  0  0
   -4.2250   14.3700  -32.1870 C   0  0  0  0  0  0  0  0  0  0  0  0
   -4.6230   13.4160  -31.3780 O   0  0  0  0  0  0  0  0  0  0  0  0
   -3.7050   12.5080  -31.2230 N   0  0  0  0  0  0  0  0  0  0  0  0
   -2.6490   12.8840  -31.9650 C   0  0  0  0  0  0  0  0  0  0  0  0
   -1.3950   12.0750  -32.0820 C   0  0  0  0  0  0  0  0  0  0  0  0
   -2.9200   14.0880  -32.6000 C   0  0  0  0  0  0  0  0  0  0  0  0
   -2.0120   14.7700  -33.5800 C   0  0  0  0  0  0  0  0  0  0  0  0
   -6.9880   17.7910  -32.3690 C   0  0  0  0  0  0  0  0  0  0  0  0
   -7.8320   18.8480  -32.0210 C   0  0  0  0  0  0  0  0  0  0  0  0
   -7.0320   24.2520  -30.4430 C   0  0  0  0  0  0  0  0  0  0  0  0
   -5.8840   25.0360  -30.3320 C   0  0  0  0  0  0  0  0  0  0  0  0
   -4.6240   24.4800  -30.5660 C   0  0  0  0  0  0  0  0  0  0  0  0
   -3.5010   25.2970  -30.4860 O   0  0  0  0  0  0  0  0  0  0  0  0
   -2.9400   21.7590  -32.3110 C   0  0  0  0  0  0  0  0  0  0  0  0
   -1.6940   21.1670  -32.5390 C   0  0  0  0  0  0  0  0  0  0  0  0
    0.9232   18.9058  -30.8431 H   0  0  0  0  0  0  0  0  0  0  0  0
    0.0229   18.8410  -32.3960 H   0  0  0  0  0  0  0  0  0  0  0  0
    1.7925   19.1494  -32.3960 H   0  0  0  0  0  0  0  0  0  0  0  0
   -0.0995   22.1422  -29.6756 H   0  0  0  0  0  0  0  0  0  0  0  0
   -2.3201   23.1912  -29.2684 H   0  0  0  0  0  0  0  0  0  0  0  0
   -5.5837   21.2678  -31.2700 H   0  0  0  0  0  0  0  0  0  0  0  0
   -6.3397   21.3560  -33.8076 H   0  0  0  0  0  0  0  0  0  0  0  0
   -4.8011   19.4783  -34.3865 H   0  0  0  0  0  0  0  0  0  0  0  0
   -1.0197   11.8329  -31.0767 H   0  0  0  0  0  0  0  0  0  0  0  0
   -1.6088   11.1441  -32.6276 H   0  0  0  0  0  0  0  0  0  0  0  0
   -0.6350   12.6535  -32.6276 H   0  0  0  0  0  0  0  0  0  0  0  0
   -1.2483   15.3436  -33.0344 H   0  0  0  0  0  0  0  0  0  0  0  0
   -1.5215   14.0151  -34.2121 H   0  0  0  0  0  0  0  0  0  0  0  0
   -2.6003   15.4514  -34.2121 H   0  0  0  0  0  0  0  0  0  0  0  0
   -7.1972   16.7765  -31.9989 H   0  0  0  0  0  0  0  0  0  0  0  0
   -8.6985   18.6654  -31.3684 H   0  0  0  0  0  0  0  0  0  0  0  0
   -8.0186   24.6973  -30.2472 H   0  0  0  0  0  0  0  0  0  0  0  0
   -5.9711   26.0979  -30.0587 H   0  0  0  0  0  0  0  0  0  0  0  0
   -3.7416   21.6466  -33.0559 H   0  0  0  0  0  0  0  0  0  0  0  0
   -1.5199   20.5945  -33.4620 H   0  0  0  0  0  0  0  0  0  0  0  0
  1  2  1  0
  2  3  1  0
  3  4  2  0
  4  5  1  0
  5  6  2  0
  6  7  1  0
  7  8  2  0
  8  9  1  0
  9 10  1  0
 10 11  2  0
 10 12  1  0
 12 13  1  0
 13 14  2  0
 14 15  1  0
 15 16  2  0
 16 17  1  0
 17 18  2  0
 17 19  2  0
 17 20  1  0
 20 21  2  3
 21 22  1  0
 22 23  1  0
 23 24  1  0
 24 25  1  0
 24 26  2  0
 26 27  1  0
 16 28  1  0
 28 29  2  0
  9 30  2  0
 30 31  1  0
 31 32  2  0
 32 33  1  0
  6 34  1  0
 34 35  2  0
 35  3  1  0
 32  7  1  0
 29 13  1  0
 26 21  1  0
  1 36  1  0
  1 37  1  0
  1 38  1  0
  4 39  1  0
  5 40  1  0
  8 41  1  0
 14 42  1  0
 15 43  1  0
 25 44  1  0
 25 45  1  0
 25 46  1  0
 27 47  1  0
 27 48  1  0
 27 49  1  0
 28 50  1  0
 29 51  1  0
 30 52  1  0
 31 53  1  0
 34 54  1  0
 35 55  1  0
M  CHG  3  12  -1  23  -1  33  -1
M  END
>  <UniqueID>  (27) 
24

>  <SMILES>  (27) 
COc1ccc(-c2cc(C(=O)[N-]c3ccc(S(=O)(=O)N=c4o[n-]c(C)c4C)cc3)ccc2[O-])cc1

>  <Energy>  (27) 
110.6915468458644

>  <Genealogy>  (27) 
COc1ccc(-c2cc(C(=O)[N-]c3ccc(S(=O)(=O)N=c4o[n-]c(C)c4C)cc3)ccc2[O-])cc1 (protonated)
COc1ccc(-c2cc(C(=O)[N-]c3ccc(S(=O)(=O)N=c4o[n-]c(C)c4C)cc3)ccc2[O-])cc1 (3D coordinates assigned)
COc1ccc(-c2cc(C(=O)[N-]c3ccc(S(=O)(=O)N=c4o[n-]c(C)c4C)cc3)ccc2[O-])cc1 (optimized conformer: 110.6915468458644 kcal/mol)

>  <smiles>  (27) 
COc1ccc(-c2cc(C(=O)Nc3ccc(S(=O)(=O)N=c4o[nH]c(C)c4C)cc3)ccc2O)cc1

>  <score_type>  (27) 
oracle

>  <origin>  (27) 
adgpu

>  <m_score__min__energy>  (27) 
-12.66

>  <m_primary>  (27) 
energy

$$$$
27:0
     RDKit          3D

 40 43  0  0  0  0  0  0  0  0999 V2000
    3.8720   12.7090  -28.8020 O   0  0  0  0  0  0  0  0  0  0  0  0
    2.9300   13.5070  -28.5530 C   0  0  0  0  0  0  0  0  0  0  0  0
    2.9150   14.7790  -29.2160 N   0  0  0  0  0  0  0  0  0  0  0  0
    2.0460   15.8790  -28.9150 C   0  0  0  0  0  0  0  0  0  0  0  0
    2.1690   16.6120  -27.7220 C   0  0  0  0  0  0  0  0  0  0  0  0
    1.3210   17.6930  -27.4680 C   0  0  0  0  0  0  0  0  0  0  0  0
    0.3510   18.0720  -28.4100 C   0  0  0  0  0  0  0  0  0  0  0  0
   -0.5490   19.2120  -28.1490 C   0  0  0  0  0  0  0  0  0  0  0  0
   -1.1900   19.4280  -26.9830 N   0  0  0  0  0  0  0  0  0  0  0  0
   -1.8910   20.5390  -27.1430 N   0  0  0  0  0  0  0  0  0  0  0  0
   -1.6550   20.9610  -28.4020 C   0  0  0  0  0  0  0  0  0  0  0  0
   -2.2440   22.1740  -29.0030 C   0  0  0  0  0  0  0  0  0  0  0  0
   -1.6360   23.4200  -28.8020 C   0  0  0  0  0  0  0  0  0  0  0  0
   -2.1860   24.5720  -29.3680 C   0  0  0  0  0  0  0  0  0  0  0  0
   -1.5690   25.8000  -29.1570 O   0  0  0  0  0  0  0  0  0  0  0  0
   -3.3500   24.4950  -30.1420 C   0  0  0  0  0  0  0  0  0  0  0  0
   -3.8680   25.6640  -30.6890 O   0  0  0  0  0  0  0  0  0  0  0  0
   -3.9790   23.2470  -30.3570 C   0  0  0  0  0  0  0  0  0  0  0  0
   -5.1790   23.1280  -31.1510 N   0  0  0  0  0  0  0  0  0  0  0  0
   -5.1470   23.2420  -32.3930 O   0  0  0  0  0  0  0  0  0  0  0  0
   -6.3920   22.8880  -30.5470 O   0  0  0  0  0  0  0  0  0  0  0  0
   -3.4110   22.0940  -29.7800 C   0  0  0  0  0  0  0  0  0  0  0  0
   -0.8310   20.1490  -29.0220 O   0  0  0  0  0  0  0  0  0  0  0  0
    0.2490   17.3550  -29.6140 C   0  0  0  0  0  0  0  0  0  0  0  0
    1.0960   16.2730  -29.8660 C   0  0  0  0  0  0  0  0  0  0  0  0
    1.8350   13.0880  -27.6500 C   0  0  0  0  0  0  0  0  0  0  0  0
    0.8990   12.1180  -28.0420 C   0  0  0  0  0  0  0  0  0  0  0  0
   -0.1010   11.7680  -27.1910 N   0  0  0  0  0  0  0  0  0  0  0  0
   -0.2180   12.3430  -25.9660 C   0  0  0  0  0  0  0  0  0  0  0  0
    0.7040   13.3140  -25.5740 C   0  0  0  0  0  0  0  0  0  0  0  0
    1.7030   13.6660  -26.4240 N   0  0  0  0  0  0  0  0  0  0  0  0
    2.9365   16.3333  -26.9849 H   0  0  0  0  0  0  0  0  0  0  0  0
    1.4138   18.2506  -26.5243 H   0  0  0  0  0  0  0  0  0  0  0  0
   -0.7211   23.4912  -28.1955 H   0  0  0  0  0  0  0  0  0  0  0  0
   -3.8889   21.1163  -29.9406 H   0  0  0  0  0  0  0  0  0  0  0  0
   -0.5022   17.6473  -30.3625 H   0  0  0  0  0  0  0  0  0  0  0  0
    1.0164   15.7268  -30.8175 H   0  0  0  0  0  0  0  0  0  0  0  0
    0.9746   11.6442  -29.0318 H   0  0  0  0  0  0  0  0  0  0  0  0
   -1.0324   12.0457  -25.2890 H   0  0  0  0  0  0  0  0  0  0  0  0
    0.6225   13.7900  -24.5857 H   0  0  0  0  0  0  0  0  0  0  0  0
  1  2  2  0
  2  3  1  0
  3  4  1  0
  4  5  2  0
  5  6  1  0
  6  7  2  0
  7  8  1  0
  8  9  2  0
  9 10  1  0
 10 11  2  0
 11 12  1  0
 12 13  2  0
 13 14  1  0
 14 15  1  0
 14 16  2  0
 16 17  1  0
 16 18  1  0
 18 19  1  0
 19 20  2  0
 19 21  1  0
 18 22  2  0
 11 23  1  0
  7 24  1  0
 24 25  2  0
  2 26  1  0
 26 27  2  0
 27 28  1  0
 28 29  2  0
 29 30  1  0
 30 31  2  0
 25  4  1  0
 31 26  1  0
 23  8  1  0
 22 12  1  0
  5 32  1  0
  6 33  1  0
 13 34  1  0
 22 35  1  0
 24 36  1  0
 25 37  1  0
 27 38  1  0
 29 39  1  0
 30 40  1  0
M  CHG  5   3  -1  15  -1  17  -1  19   1  21  -1
M  END
>  <UniqueID>  (28) 
25

>  <SMILES>  (28) 
O=C([N-]c1ccc(-c2nnc(-c3cc([O-])c([O-])c([N+](=O)[O-])c3)o2)cc1)c1cnccn1

>  <Energy>  (28) 
91.11192529356669

>  <Genealogy>  (28) 
O=C([N-]c1ccc(-c2nnc(-c3cc([O-])c([O-])c([N+](=O)[O-])c3)o2)cc1)c1cnccn1 (protonated)
O=C([N-]c1ccc(-c2nnc(-c3cc([O-])c([O-])c([N+](=O)[O-])c3)o2)cc1)c1cnccn1 (3D coordinates assigned)
O=C([N-]c1ccc(-c2nnc(-c3cc([O-])c([O-])c([N+](=O)[O-])c3)o2)cc1)c1cnccn1 (optimized conformer: 91.11192529356669 kcal/mol)

>  <smiles>  (28) 
O=C(Nc1ccc(-c2nnc(-c3cc(O)c(O)c([N+](=O)[O-])c3)o2)cc1)c1cnccn1

>  <score_type>  (28) 
oracle

>  <origin>  (28) 
adgpu

>  <m_score__min__energy>  (28) 
-12.279999999999999

>  <m_primary>  (28) 
energy

$$$$
28:0
     RDKit          3D

 43 46  0  0  0  0  0  0  0  0999 V2000
   -4.9160   21.6670  -33.4280 O   0  0  0  0  0  0  0  0  0  0  0  0
   -5.4560   20.9150  -32.5700 C   0  0  0  0  0  0  0  0  0  0  0  0
   -5.9590   21.4730  -31.3400 N   0  0  0  0  0  0  0  0  0  0  0  0
   -5.7940   22.8500  -30.9600 C   0  0  0  0  0  0  0  0  0  0  0  0
   -6.9310   23.6490  -30.7640 C   0  0  0  0  0  0  0  0  0  0  0  0
   -6.7990   24.9850  -30.3710 C   0  0  0  0  0  0  0  0  0  0  0  0
   -5.5310   25.5280  -30.1550 C   0  0  0  0  0  0  0  0  0  0  0  0
   -4.3920   24.7340  -30.3220 C   0  0  0  0  0  0  0  0  0  0  0  0
   -3.1330   25.2710  -30.0880 O   0  0  0  0  0  0  0  0  0  0  0  0
   -4.5220   23.3980  -30.7170 C   0  0  0  0  0  0  0  0  0  0  0  0
   -5.5670   19.4650  -32.8580 C   0  0  0  0  0  0  0  0  0  0  0  0
   -6.4080   18.6280  -32.1030 C   0  0  0  0  0  0  0  0  0  0  0  0
   -6.5020   17.2640  -32.3970 C   0  0  0  0  0  0  0  0  0  0  0  0
   -5.7570   16.7120  -33.4480 C   0  0  0  0  0  0  0  0  0  0  0  0
   -5.8930   15.2530  -33.7910 C   0  0  0  0  0  0  0  0  0  0  0  0
   -4.6270   14.5620  -33.5590 N   0  0  0  0  0  0  0  0  0  0  0  0
   -3.4360   14.6900  -34.3400 C   0  0  0  0  0  0  0  0  0  0  0  0
   -3.3970   15.1920  -35.4950 O   0  0  0  0  0  0  0  0  0  0  0  0
   -2.2900   14.1790  -33.5970 C   0  0  0  0  0  0  0  0  0  0  0  0
   -0.9440   14.0940  -33.9440 C   0  0  0  0  0  0  0  0  0  0  0  0
   -0.0500   13.5600  -32.9980 C   0  0  0  0  0  0  0  0  0  0  0  0
   -0.5170   13.1320  -31.7370 C   0  0  0  0  0  0  0  0  0  0  0  0
   -1.8810   13.2330  -31.4080 C   0  0  0  0  0  0  0  0  0  0  0  0
   -2.7460   13.7600  -32.3650 C   0  0  0  0  0  0  0  0  0  0  0  0
   -4.1840   14.0030  -32.3190 C   0  0  0  0  0  0  0  0  0  0  0  0
   -4.9330   13.7790  -31.3330 O   0  0  0  0  0  0  0  0  0  0  0  0
   -4.9350   17.5460  -34.2190 C   0  0  0  0  0  0  0  0  0  0  0  0
   -4.8410   18.9100  -33.9270 C   0  0  0  0  0  0  0  0  0  0  0  0
   -6.5200   20.8720  -30.6990 H   0  0  0  0  0  0  0  0  0  0  0  0
   -7.9325   23.2219  -30.9204 H   0  0  0  0  0  0  0  0  0  0  0  0
   -7.6948   25.6082  -30.2321 H   0  0  0  0  0  0  0  0  0  0  0  0
   -5.4279   26.5808  -29.8533 H   0  0  0  0  0  0  0  0  0  0  0  0
   -3.6247   22.7733  -30.8380 H   0  0  0  0  0  0  0  0  0  0  0  0
   -6.9965   19.0495  -31.2747 H   0  0  0  0  0  0  0  0  0  0  0  0
   -7.1647   16.6205  -31.7997 H   0  0  0  0  0  0  0  0  0  0  0  0
   -6.6740   14.8025  -33.1609 H   0  0  0  0  0  0  0  0  0  0  0  0
   -6.1661   15.1569  -34.8522 H   0  0  0  0  0  0  0  0  0  0  0  0
   -0.5903   14.4343  -34.9285 H   0  0  0  0  0  0  0  0  0  0  0  0
    1.0191   13.4756  -33.2427 H   0  0  0  0  0  0  0  0  0  0  0  0
    0.1913   12.7160  -31.0054 H   0  0  0  0  0  0  0  0  0  0  0  0
   -2.2532   12.9061  -30.4258 H   0  0  0  0  0  0  0  0  0  0  0  0
   -4.3612   17.1251  -35.0578 H   0  0  0  0  0  0  0  0  0  0  0  0
   -4.1933   19.5550  -34.5390 H   0  0  0  0  0  0  0  0  0  0  0  0
  1  2  2  0
  2  3  1  0
  3  4  1  0
  4  5  2  0
  5  6  1  0
  6  7  2  0
  7  8  1  0
  8  9  1  0
  8 10  2  0
  2 11  1  0
 11 12  2  0
 12 13  1  0
 13 14  2  0
 14 15  1  0
 15 16  1  0
 16 17  1  0
 17 18  2  0
 17 19  1  0
 19 20  2  0
 20 21  1  0
 21 22  2  0
 22 23  1  0
 23 24  2  0
 24 25  1  0
 25 26  2  0
 14 27  1  0
 27 28  2  0
 10  4  1  0
 28 11  1  0
 25 16  1  0
 24 19  1  0
  3 29  1  0
  5 30  1  0
  6 31  1  0
  7 32  1  0
 10 33  1  0
 12 34  1  0
 13 35  1  0
 15 36  1  0
 15 37  1  0
 20 38  1  0
 21 39  1  0
 22 40  1  0
 23 41  1  0
 27 42  1  0
 28 43  1  0
M  CHG  1   9  -1
M  END
>  <UniqueID>  (29) 
26

>  <SMILES>  (29) 
O=C(Nc1cccc([O-])c1)c1ccc(CN2C(=O)c3ccccc3C2=O)cc1

>  <Energy>  (29) 
85.06538025607536

>  <Genealogy>  (29) 
O=C(Nc1cccc([O-])c1)c1ccc(CN2C(=O)c3ccccc3C2=O)cc1 (protonated)
O=C(Nc1cccc([O-])c1)c1ccc(CN2C(=O)c3ccccc3C2=O)cc1 (3D coordinates assigned)
O=C(Nc1cccc([O-])c1)c1ccc(CN2C(=O)c3ccccc3C2=O)cc1 (nonaromatic ring conformer: 85.06538025607536 kcal/mol)

>  <smiles>  (29) 
O=C(Nc1cccc(O)c1)c1ccc(CN2C(=O)c3ccccc3C2=O)cc1

>  <score_type>  (29) 
oracle

>  <origin>  (29) 
adgpu

>  <m_score__min__energy>  (29) 
-11.19

>  <m_primary>  (29) 
energy

$$$$
29:0
     RDKit          3D

 27 28  0  0  0  0  0  0  0  0999 V2000
   -2.0860   27.4959  -24.2244 H   0  0  0  0  0  0  0  0  0  0  0  0
   -1.3920   26.8380  -24.7680 C   0  0  0  0  0  0  0  0  0  0  0  0
   -1.7550   26.3210  -26.0150 C   0  0  0  0  0  0  0  0  0  0  0  0
   -2.7355   26.5693  -26.4474 H   0  0  0  0  0  0  0  0  0  0  0  0
   -0.8730   25.4870  -26.7160 C   0  0  0  0  0  0  0  0  0  0  0  0
   -1.3340   24.8440  -28.2890 S   0  0  0  0  0  0  0  0  0  0  0  0
   -1.2380   25.9090  -29.3440 O   0  0  0  0  0  0  0  0  0  0  0  0
   -0.4100   23.7150  -28.6460 O   0  0  0  0  0  0  0  0  0  0  0  0
   -2.9640   24.2510  -28.2330 N   0  0  0  0  0  0  0  0  0  0  0  0
   -3.7850   24.3450  -29.2320 C   0  0  0  0  0  0  0  0  0  0  0  0
   -3.4810   24.9060  -30.4190 N   0  0  0  0  0  0  0  0  0  0  0  0
   -4.5580   24.8160  -31.1460 O   0  0  0  0  0  0  0  0  0  0  0  0
   -5.5280   24.2250  -30.4860 C   0  0  0  0  0  0  0  0  0  0  0  0
   -6.8970   23.9860  -31.0260 C   0  0  0  0  0  0  0  0  0  0  0  0
   -7.6037   23.8626  -30.1921 H   0  0  0  0  0  0  0  0  0  0  0  0
   -7.2031   24.8443  -31.6421 H   0  0  0  0  0  0  0  0  0  0  0  0
   -6.8942   23.0748  -31.6421 H   0  0  0  0  0  0  0  0  0  0  0  0
   -5.0840   23.8950  -29.2220 C   0  0  0  0  0  0  0  0  0  0  0  0
   -5.6324   23.3964  -28.4092 H   0  0  0  0  0  0  0  0  0  0  0  0
    0.3700   25.1650  -26.1540 C   0  0  0  0  0  0  0  0  0  0  0  0
    1.0625   24.5040  -26.6959 H   0  0  0  0  0  0  0  0  0  0  0  0
    0.7320   25.6820  -24.9060 C   0  0  0  0  0  0  0  0  0  0  0  0
    1.7101   25.4292  -24.4708 H   0  0  0  0  0  0  0  0  0  0  0  0
   -0.1470   26.5210  -24.2080 C   0  0  0  0  0  0  0  0  0  0  0  0
    0.2230   27.0490  -22.9310 N   0  0  0  0  0  0  0  0  0  0  0  0
    0.9410   26.5690  -22.3420 H   0  0  0  0  0  0  0  0  0  0  0  0
   -0.2160   27.9240  -22.5660 H   0  0  0  0  0  0  0  0  0  0  0  0
  1  2  1  0
  2  3  2  0
  3  4  1  0
  3  5  1  0
  5  6  1  0
  6  7  2  0
  6  8  2  0
  6  9  1  0
  9 10  2  0
 10 11  1  0
 11 12  1  0
 12 13  1  0
 13 14  1  0
 14 15  1  0
 14 16  1  0
 14 17  1  0
 13 18  2  0
 18 19  1  0
  5 20  2  0
 20 21  1  0
 20 22  1  0
 22 23  1  0
 22 24  2  0
 24 25  1  0
 25 26  1  0
 25 27  1  0
 24  2  1  0
 18 10  1  0
M  CHG  1  11  -1
M  END
>  <UniqueID>  (30) 
27

>  <SMILES>  (30) 
Cc1c/c(=N/S(=O)(=O)c2ccc(N)cc2)[n-]o1

>  <Energy>  (30) 
58.83480396226472

>  <Genealogy>  (30) 
Cc1cc(=NS(=O)(=O)c2ccc(N)cc2)[n-]o1 (protonated)
Cc1c/c(=N/S(=O)(=O)c2ccc(N)cc2)[n-]o1 (cis-trans isomerization)
Cc1c/c(=N/S(=O)(=O)c2ccc(N)cc2)[n-]o1 (3D coordinates assigned)
Cc1c/c(=N/S(=O)(=O)c2ccc(N)cc2)[n-]o1 (optimized conformer: 58.83480396226472 kcal/mol)

>  <smiles>  (30) 
Cc1cc(=NS(=O)(=O)c2ccc(N)cc2)[nH]o1

>  <score_type>  (30) 
oracle

>  <origin>  (30) 
adgpu

>  <m_score__min__energy>  (30) 
-9.0500000000000007

>  <m_primary>  (30) 
energy

$$$$
30:0
     RDKit          3D

 49 52  0  0  0  0  0  0  0  0999 V2000
   -0.1320   20.5440  -32.7150 C   0  0  0  0  0  0  0  0  0  0  0  0
   -0.8280   21.1820  -31.5540 C   0  0  0  0  0  0  0  0  0  0  0  0
   -1.9690   21.9690  -31.7560 C   0  0  0  0  0  0  0  0  0  0  0  0
   -2.5950   22.5810  -30.6570 C   0  0  0  0  0  0  0  0  0  0  0  0
   -3.8030   23.4210  -30.8460 C   0  0  0  0  0  0  0  0  0  0  0  0
   -4.9080   22.9040  -31.5480 C   0  0  0  0  0  0  0  0  0  0  0  0
   -6.0710   23.6690  -31.7270 C   0  0  0  0  0  0  0  0  0  0  0  0
   -7.1840   23.0950  -32.4350 N   0  0  0  0  0  0  0  0  0  0  0  0
   -8.3230   22.0060  -31.7100 S   0  0  0  0  0  0  0  0  0  0  0  0
   -9.6790   22.2260  -32.3180 O   0  0  0  0  0  0  0  0  0  0  0  0
   -8.4040   22.2800  -30.2340 O   0  0  0  0  0  0  0  0  0  0  0  0
   -7.8280   20.3440  -32.0210 C   0  0  0  0  0  0  0  0  0  0  0  0
   -8.7370   19.3030  -31.8000 C   0  0  0  0  0  0  0  0  0  0  0  0
   -8.3670   17.9820  -32.0640 C   0  0  0  0  0  0  0  0  0  0  0  0
   -7.0910   17.6950  -32.5550 C   0  0  0  0  0  0  0  0  0  0  0  0
   -6.1680   18.7300  -32.7870 C   0  0  0  0  0  0  0  0  0  0  0  0
   -4.8190   18.4300  -33.3290 C   0  0  0  0  0  0  0  0  0  0  0  0
   -4.4440   17.1050  -33.6240 C   0  0  0  0  0  0  0  0  0  0  0  0
   -3.1740   16.8260  -34.1360 C   0  0  0  0  0  0  0  0  0  0  0  0
   -2.2650   17.8630  -34.3620 C   0  0  0  0  0  0  0  0  0  0  0  0
   -0.6710   17.5100  -35.0060 Cl  0  0  0  0  0  0  0  0  0  0  0  0
   -2.6260   19.1830  -34.0730 C   0  0  0  0  0  0  0  0  0  0  0  0
   -3.8940   19.4660  -33.5590 C   0  0  0  0  0  0  0  0  0  0  0  0
   -6.5470   20.0570  -32.5100 C   0  0  0  0  0  0  0  0  0  0  0  0
   -6.1130   24.9770  -31.2160 C   0  0  0  0  0  0  0  0  0  0  0  0
   -5.0180   25.5020  -30.5260 C   0  0  0  0  0  0  0  0  0  0  0  0
   -3.8650   24.7350  -30.3410 C   0  0  0  0  0  0  0  0  0  0  0  0
   -2.7810   25.2960  -29.6770 O   0  0  0  0  0  0  0  0  0  0  0  0
   -2.0440   22.4080  -29.3780 C   0  0  0  0  0  0  0  0  0  0  0  0
   -0.8980   21.6260  -29.2200 C   0  0  0  0  0  0  0  0  0  0  0  0
   -0.3190   21.0390  -30.3000 N   0  0  0  0  0  0  0  0  0  0  0  0
    0.6317   19.8440  -32.3451 H   0  0  0  0  0  0  0  0  0  0  0  0
   -0.8649   19.9975  -33.3266 H   0  0  0  0  0  0  0  0  0  0  0  0
    0.3489   21.3216  -33.3266 H   0  0  0  0  0  0  0  0  0  0  0  0
   -2.3729   22.1072  -32.7698 H   0  0  0  0  0  0  0  0  0  0  0  0
   -4.8594   21.8861  -31.9621 H   0  0  0  0  0  0  0  0  0  0  0  0
   -7.2530   23.2330  -33.4690 H   0  0  0  0  0  0  0  0  0  0  0  0
   -9.7443   19.5253  -31.4179 H   0  0  0  0  0  0  0  0  0  0  0  0
   -9.0822   17.1657  -31.8848 H   0  0  0  0  0  0  0  0  0  0  0  0
   -6.8066   16.6527  -32.7614 H   0  0  0  0  0  0  0  0  0  0  0  0
   -5.1555   16.2842  -33.4503 H   0  0  0  0  0  0  0  0  0  0  0  0
   -2.8892   15.7877  -34.3616 H   0  0  0  0  0  0  0  0  0  0  0  0
   -1.9106   19.9995  -34.2506 H   0  0  0  0  0  0  0  0  0  0  0  0
   -4.1716   20.5060  -33.3324 H   0  0  0  0  0  0  0  0  0  0  0  0
   -5.8315   20.8753  -32.6789 H   0  0  0  0  0  0  0  0  0  0  0  0
   -7.0139   25.5915  -31.3602 H   0  0  0  0  0  0  0  0  0  0  0  0
   -5.0637   26.5256  -30.1258 H   0  0  0  0  0  0  0  0  0  0  0  0
   -2.5123   22.8858  -28.5048 H   0  0  0  0  0  0  0  0  0  0  0  0
   -0.4632   21.4849  -28.2195 H   0  0  0  0  0  0  0  0  0  0  0  0
  1  2  1  0
  2  3  2  0
  3  4  1  0
  4  5  1  0
  5  6  2  0
  6  7  1  0
  7  8  1  0
  8  9  1  0
  9 10  2  0
  9 11  2  0
  9 12  1  0
 12 13  2  0
 13 14  1  0
 14 15  2  0
 15 16  1  0
 16 17  1  0
 17 18  2  0
 18 19  1  0
 19 20  2  0
 20 21  1  0
 20 22  1  0
 22 23  2  0
 16 24  2  0
  7 25  2  0
 25 26  1  0
 26 27  2  0
 27 28  1  0
  4 29  2  0
 29 30  1  0
 30 31  2  0
 31  2  1  0
 27  5  1  0
 24 12  1  0
 23 17  1  0
  1 32  1  0
  1 33  1  0
  1 34  1  0
  3 35  1  0
  6 36  1  0
  8 37  1  0
 13 38  1  0
 14 39  1  0
 15 40  1  0
 18 41  1  0
 19 42  1  0
 22 43  1  0
 23 44  1  0
 24 45  1  0
 25 46  1  0
 26 47  1  0
 29 48  1  0
 30 49  1  0
M  CHG  1  28  -1
M  END
>  <UniqueID>  (31) 
28

>  <SMILES>  (31) 
Cc1cc(-c2cc(NS(=O)(=O)c3cccc(-c4ccc(Cl)cc4)c3)ccc2[O-])ccn1

>  <Energy>  (31) 
67.65137192950347

>  <Genealogy>  (31) 
Cc1cc(-c2cc(NS(=O)(=O)c3cccc(-c4ccc(Cl)cc4)c3)ccc2[O-])ccn1 (protonated)
Cc1cc(-c2cc(NS(=O)(=O)c3cccc(-c4ccc(Cl)cc4)c3)ccc2[O-])ccn1 (3D coordinates assigned)
Cc1cc(-c2cc(NS(=O)(=O)c3cccc(-c4ccc(Cl)cc4)c3)ccc2[O-])ccn1 (optimized conformer: 67.65137192950347 kcal/mol)

>  <smiles>  (31) 
Cc1cc(-c2cc(NS(=O)(=O)c3cccc(-c4ccc(Cl)cc4)c3)ccc2O)ccn1

>  <score_type>  (31) 
oracle

>  <origin>  (31) 
adgpu

>  <m_score__min__energy>  (31) 
-13.869999999999999

>  <m_primary>  (31) 
energy

$$$$
31:0
     RDKit          3D

 51 53  0  0  0  0  0  0  0  0999 V2000
   -1.2120   25.9050  -27.8110 C   0  0  0  0  0  0  0  0  0  0  0  0
   -2.0590   25.1950  -26.7520 C   0  0  0  0  0  0  0  0  0  0  0  0
   -2.4640   23.8150  -27.2200 C   0  0  0  0  0  0  0  0  0  0  0  0
   -1.6120   22.7380  -26.9170 C   0  0  0  0  0  0  0  0  0  0  0  0
   -1.9230   21.4440  -27.3350 C   0  0  0  0  0  0  0  0  0  0  0  0
   -3.0730   21.2090  -28.0810 C   0  0  0  0  0  0  0  0  0  0  0  0
   -3.9190   22.2670  -28.4120 C   0  0  0  0  0  0  0  0  0  0  0  0
   -3.6410   23.5820  -27.9870 C   0  0  0  0  0  0  0  0  0  0  0  0
   -4.5340   24.6640  -28.3360 N   0  0  0  0  0  0  0  0  0  0  0  0
   -5.1230   24.9580  -29.9400 S   0  0  0  0  0  0  0  0  0  0  0  0
   -3.9700   25.3270  -30.8260 O   0  0  0  0  0  0  0  0  0  0  0  0
   -6.0990   26.0990  -29.9010 O   0  0  0  0  0  0  0  0  0  0  0  0
   -5.9480   23.5320  -30.5550 C   0  0  0  0  0  0  0  0  0  0  0  0
   -5.4620   22.8590  -31.6860 C   0  0  0  0  0  0  0  0  0  0  0  0
   -6.1150   21.7160  -32.1610 C   0  0  0  0  0  0  0  0  0  0  0  0
   -7.2530   21.2300  -31.5010 C   0  0  0  0  0  0  0  0  0  0  0  0
   -8.0800   19.7900  -32.0910 S   0  0  0  0  0  0  0  0  0  0  0  0
   -8.6310   20.0500  -33.4650 O   0  0  0  0  0  0  0  0  0  0  0  0
   -9.2130   19.4740  -31.1540 O   0  0  0  0  0  0  0  0  0  0  0  0
   -6.9500   18.4520  -32.1460 N   0  0  0  0  0  0  0  0  0  0  0  0
   -5.6420   18.8030  -31.5340 C   0  0  0  0  0  0  0  0  0  0  0  0
   -4.4520   18.7020  -32.5020 C   0  0  0  0  0  0  0  0  0  0  0  0
   -4.8000   19.3510  -33.8410 C   0  0  0  0  0  0  0  0  0  0  0  0
   -6.0510   18.7250  -34.4800 C   0  0  0  0  0  0  0  0  0  0  0  0
   -6.8640   17.8610  -33.4970 C   0  0  0  0  0  0  0  0  0  0  0  0
   -7.7390   21.9040  -30.3730 C   0  0  0  0  0  0  0  0  0  0  0  0
   -7.0930   23.0520  -29.9050 C   0  0  0  0  0  0  0  0  0  0  0  0
   -0.4592   26.5360  -27.3159 H   0  0  0  0  0  0  0  0  0  0  0  0
   -0.7071   25.1563  -28.4391 H   0  0  0  0  0  0  0  0  0  0  0  0
   -1.8610   26.5329  -28.4391 H   0  0  0  0  0  0  0  0  0  0  0  0
   -1.4739   25.1035  -25.8250 H   0  0  0  0  0  0  0  0  0  0  0  0
   -2.9691   25.7871  -26.5755 H   0  0  0  0  0  0  0  0  0  0  0  0
   -0.6903   22.9179  -26.3442 H   0  0  0  0  0  0  0  0  0  0  0  0
   -1.2575   20.6079  -27.0741 H   0  0  0  0  0  0  0  0  0  0  0  0
   -3.3154   20.1878  -28.4102 H   0  0  0  0  0  0  0  0  0  0  0  0
   -4.8183   22.0722  -29.0148 H   0  0  0  0  0  0  0  0  0  0  0  0
   -4.9060   25.3060  -27.6040 H   0  0  0  0  0  0  0  0  0  0  0  0
   -4.5643   23.2312  -32.2014 H   0  0  0  0  0  0  0  0  0  0  0  0
   -5.7349   21.1978  -33.0537 H   0  0  0  0  0  0  0  0  0  0  0  0
   -5.6998   19.8371  -31.1635 H   0  0  0  0  0  0  0  0  0  0  0  0
   -5.4610   18.0746  -30.7298 H   0  0  0  0  0  0  0  0  0  0  0  0
   -3.5837   19.2164  -32.0644 H   0  0  0  0  0  0  0  0  0  0  0  0
   -4.2166   17.6406  -32.6696 H   0  0  0  0  0  0  0  0  0  0  0  0
   -4.9837   20.4233  -33.6782 H   0  0  0  0  0  0  0  0  0  0  0  0
   -3.9538   19.1902  -34.5252 H   0  0  0  0  0  0  0  0  0  0  0  0
   -6.6967   19.5344  -34.8513 H   0  0  0  0  0  0  0  0  0  0  0  0
   -5.7096   18.0654  -35.2914 H   0  0  0  0  0  0  0  0  0  0  0  0
   -7.8831   17.7430  -33.8938 H   0  0  0  0  0  0  0  0  0  0  0  0
   -6.3468   16.8949  -33.4018 H   0  0  0  0  0  0  0  0  0  0  0  0
   -8.6328   21.5282  -29.8534 H   0  0  0  0  0  0  0  0  0  0  0  0
   -7.4848   23.5804  -29.0234 H   0  0  0  0  0  0  0  0  0  0  0  0
  1  2  1  0
  2  3  1  0
  3  4  2  0
  4  5  1  0
  5  6  2  0
  6  7  1  0
  7  8  2  0
  8  9  1  0
  9 10  1  0
 10 11  2  0
 10 12  2  0
 10 13  1  0
 13 14  2  0
 14 15  1  0
 15 16  2  0
 16 17  1  0
 17 18  2  0
 17 19  2  0
 17 20  1  0
 20 21  1  0
 21 22  1  0
 22 23  1  0
 23 24  1  0
 24 25  1  0
 16 26  1  0
 26 27  2  0
  8  3  1  0
 27 13  1  0
 25 20  1  0
  1 28  1  0
  1 29  1  0
  1 30  1  0
  2 31  1  0
  2 32  1  0
  4 33  1  0
  5 34  1  0
  6 35  1  0
  7 36  1  0
  9 37  1  0
 14 38  1  0
 15 39  1  0
 21 40  1  0
 21 41  1  0
 22 42  1  0
 22 43  1  0
 23 44  1  0
 23 45  1  0
 24 46  1  0
 24 47  1  0
 25 48  1  0
 25 49  1  0
 26 50  1  0
 27 51  1  0
M  END
>  <UniqueID>  (32) 
29

>  <SMILES>  (32) 
CCc1ccccc1NS(=O)(=O)c1ccc(S(=O)(=O)N2CCCCC2)cc1

>  <Energy>  (32) 
60.83561401341952

>  <Genealogy>  (32) 
CCc1ccccc1NS(=O)(=O)c1ccc(S(=O)(=O)N2CCCCC2)cc1 (3D coordinates assigned)
CCc1ccccc1NS(=O)(=O)c1ccc(S(=O)(=O)N2CCCCC2)cc1 (nonaromatic ring conformer: 60.83561401341952 kcal/mol)

>  <smiles>  (32) 
CCc1ccccc1NS(=O)(=O)c1ccc(S(=O)(=O)N2CCCCC2)cc1

>  <score_type>  (32) 
oracle

>  <origin>  (32) 
adgpu

>  <m_score__min__energy>  (32) 
-10.42

>  <m_primary>  (32) 
energy

$$$$
32:0
     RDKit          3D

 56 59  0  0  0  0  0  0  0  0999 V2000
   -4.2210   25.7140  -30.5480 O   0  0  0  0  0  0  0  0  0  0  0  0
   -4.1360   24.4580  -30.4980 C   0  0  0  0  0  0  0  0  0  0  0  0
   -4.7560   23.6560  -31.5140 N   0  0  0  0  0  0  0  0  0  0  0  0
   -4.2540   22.4330  -32.0770 C   0  0  0  0  0  0  0  0  0  0  0  0
   -2.8870   22.2530  -32.3580 C   0  0  0  0  0  0  0  0  0  0  0  0
   -2.4270   21.0480  -32.9040 C   0  0  0  0  0  0  0  0  0  0  0  0
   -0.7110   20.8220  -33.2500 S   0  0  0  0  0  0  0  0  0  0  0  0
   -0.3020   21.8330  -34.2860 O   0  0  0  0  0  0  0  0  0  0  0  0
   -0.4880   19.4480  -33.8230 O   0  0  0  0  0  0  0  0  0  0  0  0
    0.2560   21.0560  -31.8100 N   0  0  0  0  0  0  0  0  0  0  0  0
   -0.5690   21.3460  -30.6210 C   0  0  0  0  0  0  0  0  0  0  0  0
   -1.3060   20.1040  -30.0820 C   0  0  0  0  0  0  0  0  0  0  0  0
   -0.4600   18.8210  -30.1470 C   0  0  0  0  0  0  0  0  0  0  0  0
    1.0230   19.1280  -30.3440 C   0  0  0  0  0  0  0  0  0  0  0  0
    1.2400   19.9580  -31.6220 C   0  0  0  0  0  0  0  0  0  0  0  0
   -3.3360   20.0230  -33.1910 C   0  0  0  0  0  0  0  0  0  0  0  0
   -4.6950   20.1990  -32.9350 C   0  0  0  0  0  0  0  0  0  0  0  0
   -5.1640   21.4040  -32.3920 C   0  0  0  0  0  0  0  0  0  0  0  0
   -6.5660   21.5810  -32.1450 N   0  0  0  0  0  0  0  0  0  0  0  0
   -7.4280   20.4070  -31.9780 C   0  0  0  0  0  0  0  0  0  0  0  0
   -8.6720   20.7920  -31.1680 C   0  0  0  0  0  0  0  0  0  0  0  0
   -9.2990   21.9370  -31.7180 O   0  0  0  0  0  0  0  0  0  0  0  0
   -8.4380   23.0550  -31.6070 C   0  0  0  0  0  0  0  0  0  0  0  0
   -7.1920   22.8620  -32.4720 C   0  0  0  0  0  0  0  0  0  0  0  0
   -3.3370   23.8070  -29.4260 C   0  0  0  0  0  0  0  0  0  0  0  0
   -3.7350   22.5510  -28.9250 C   0  0  0  0  0  0  0  0  0  0  0  0
   -2.9920   21.9120  -27.9290 C   0  0  0  0  0  0  0  0  0  0  0  0
   -1.8460   22.5190  -27.4110 C   0  0  0  0  0  0  0  0  0  0  0  0
   -1.4390   23.7650  -27.8910 C   0  0  0  0  0  0  0  0  0  0  0  0
   -2.1720   24.4110  -28.8930 C   0  0  0  0  0  0  0  0  0  0  0  0
   -1.7370   25.6550  -29.3390 O   0  0  0  0  0  0  0  0  0  0  0  0
   -2.1747   23.0643  -32.1474 H   0  0  0  0  0  0  0  0  0  0  0  0
    0.0848   21.7374  -29.8277 H   0  0  0  0  0  0  0  0  0  0  0  0
   -1.3334   22.0777  -30.9213 H   0  0  0  0  0  0  0  0  0  0  0  0
   -1.5809   20.2886  -29.0330 H   0  0  0  0  0  0  0  0  0  0  0  0
   -2.1887   19.9459  -30.7191 H   0  0  0  0  0  0  0  0  0  0  0  0
   -0.5863   18.2634  -29.2072 H   0  0  0  0  0  0  0  0  0  0  0  0
   -0.8035   18.2286  -31.0079 H   0  0  0  0  0  0  0  0  0  0  0  0
    1.3928   19.6956  -29.4773 H   0  0  0  0  0  0  0  0  0  0  0  0
    1.5715   18.1794  -30.4402 H   0  0  0  0  0  0  0  0  0  0  0  0
    2.2463   20.4002  -31.5794 H   0  0  0  0  0  0  0  0  0  0  0  0
    1.1122   19.2703  -32.4710 H   0  0  0  0  0  0  0  0  0  0  0  0
   -2.9769   19.0758  -33.6198 H   0  0  0  0  0  0  0  0  0  0  0  0
   -5.4034   19.3882  -33.1602 H   0  0  0  0  0  0  0  0  0  0  0  0
   -7.7356   20.0353  -32.9665 H   0  0  0  0  0  0  0  0  0  0  0  0
   -6.8741   19.6206  -31.4444 H   0  0  0  0  0  0  0  0  0  0  0  0
   -9.3826   19.9524  -31.1784 H   0  0  0  0  0  0  0  0  0  0  0  0
   -8.3632   21.0214  -30.1374 H   0  0  0  0  0  0  0  0  0  0  0  0
   -8.9724   23.9573  -31.9389 H   0  0  0  0  0  0  0  0  0  0  0  0
   -8.1280   23.1613  -30.5569 H   0  0  0  0  0  0  0  0  0  0  0  0
   -7.4780   22.8700  -33.5341 H   0  0  0  0  0  0  0  0  0  0  0  0
   -6.4806   23.6783  -32.2781 H   0  0  0  0  0  0  0  0  0  0  0  0
   -4.6402   22.0687  -29.3224 H   0  0  0  0  0  0  0  0  0  0  0  0
   -3.3104   20.9288  -27.5522 H   0  0  0  0  0  0  0  0  0  0  0  0
   -1.2642   22.0154  -26.6249 H   0  0  0  0  0  0  0  0  0  0  0  0
   -0.5372   24.2417  -27.4794 H   0  0  0  0  0  0  0  0  0  0  0  0
  1  2  2  0
  2  3  1  0
  3  4  1  0
  4  5  2  0
  5  6  1  0
  6  7  1  0
  7  8  2  0
  7  9  2  0
  7 10  1  0
 10 11  1  0
 11 12  1  0
 12 13  1  0
 13 14  1  0
 14 15  1  0
  6 16  2  0
 16 17  1  0
 17 18  2  0
 18 19  1  0
 19 20  1  0
 20 21  1  0
 21 22  1  0
 22 23  1  0
 23 24  1  0
  2 25  1  0
 25 26  2  0
 26 27  1  0
 27 28  2  0
 28 29  1  0
 29 30  2  0
 30 31  1  0
 18  4  1  0
 24 19  1  0
 30 25  1  0
 15 10  1  0
  5 32  1  0
 11 33  1  0
 11 34  1  0
 12 35  1  0
 12 36  1  0
 13 37  1  0
 13 38  1  0
 14 39  1  0
 14 40  1  0
 15 41  1  0
 15 42  1  0
 16 43  1  0
 17 44  1  0
 20 45  1  0
 20 46  1  0
 21 47  1  0
 21 48  1  0
 23 49  1  0
 23 50  1  0
 24 51  1  0
 24 52  1  0
 26 53  1  0
 27 54  1  0
 28 55  1  0
 29 56  1  0
M  CHG  2   3  -1  31  -1
M  END
>  <UniqueID>  (33) 
30

>  <SMILES>  (33) 
O=C([N-]c1cc(S(=O)(=O)N2CCCCC2)ccc1N1CCOCC1)c1ccccc1[O-]

>  <Energy>  (33) 
76.62972938155814

>  <Genealogy>  (33) 
O=C([N-]c1cc(S(=O)(=O)N2CCCCC2)ccc1N1CCOCC1)c1ccccc1[O-] (protonated)
O=C([N-]c1cc(S(=O)(=O)N2CCCCC2)ccc1N1CCOCC1)c1ccccc1[O-] (3D coordinates assigned)
O=C([N-]c1cc(S(=O)(=O)N2CCCCC2)ccc1N1CCOCC1)c1ccccc1[O-] (nonaromatic ring conformer: 76.62972938155814 kcal/mol)

>  <smiles>  (33) 
O=C(Nc1cc(S(=O)(=O)N2CCCCC2)ccc1N1CCOCC1)c1ccccc1O

>  <score_type>  (33) 
oracle

>  <origin>  (33) 
adgpu

>  <m_score__min__energy>  (33) 
-13.41

>  <m_primary>  (33) 
energy

$$$$
33:0
     RDKit          3D

 66 69  0  0  0  0  0  0  0  0999 V2000
    1.6120   19.3100  -32.7020 C   0  0  0  0  0  0  0  0  0  0  0  0
    0.4810   18.4070  -33.1270 C   0  0  0  0  0  0  0  0  0  0  0  0
   -0.4730   18.0380  -32.1640 C   0  0  0  0  0  0  0  0  0  0  0  0
   -1.5370   17.2040  -32.4940 C   0  0  0  0  0  0  0  0  0  0  0  0
   -1.6890   16.7380  -33.8090 C   0  0  0  0  0  0  0  0  0  0  0  0
   -2.7600   15.8550  -34.1830 N   0  0  0  0  0  0  0  0  0  0  0  0
   -4.1120   15.8720  -33.7080 C   0  0  0  0  0  0  0  0  0  0  0  0
   -4.4540   15.1670  -32.7260 O   0  0  0  0  0  0  0  0  0  0  0  0
   -5.0970   16.7010  -34.3340 N   0  0  0  0  0  0  0  0  0  0  0  0
   -5.8120   17.7810  -33.7180 C   0  0  0  0  0  0  0  0  0  0  0  0
   -5.8340   19.0280  -34.3560 C   0  0  0  0  0  0  0  0  0  0  0  0
   -6.5530   20.0920  -33.8050 C   0  0  0  0  0  0  0  0  0  0  0  0
   -7.2850   19.9140  -32.6220 C   0  0  0  0  0  0  0  0  0  0  0  0
   -8.2540   21.2320  -31.9630 S   0  0  0  0  0  0  0  0  0  0  0  0
   -8.4020   21.0960  -30.4730 O   0  0  0  0  0  0  0  0  0  0  0  0
   -9.6250   21.1790  -32.5720 O   0  0  0  0  0  0  0  0  0  0  0  0
   -7.5260   22.7550  -32.3650 N   0  0  0  0  0  0  0  0  0  0  0  0
   -6.3930   23.3420  -31.7110 C   0  0  0  0  0  0  0  0  0  0  0  0
   -6.5880   24.4960  -30.9450 C   0  0  0  0  0  0  0  0  0  0  0  0
   -5.5060   25.1210  -30.3230 C   0  0  0  0  0  0  0  0  0  0  0  0
   -4.2140   24.5950  -30.4510 C   0  0  0  0  0  0  0  0  0  0  0  0
   -3.1560   25.2990  -29.8870 O   0  0  0  0  0  0  0  0  0  0  0  0
   -4.0080   23.4070  -31.1850 C   0  0  0  0  0  0  0  0  0  0  0  0
   -2.7170   22.8090  -31.3780 N   0  0  0  0  0  0  0  0  0  0  0  0
   -2.3630   21.1820  -31.8620 S   0  0  0  0  0  0  0  0  0  0  0  0
   -3.0030   20.8670  -33.4940 C   0  0  0  0  0  0  0  0  0  0  0  0
   -0.8730   21.0140  -31.9020 O   0  0  0  0  0  0  0  0  0  0  0  0
   -2.9300   20.2030  -30.8710 O   0  0  0  0  0  0  0  0  0  0  0  0
   -5.1010   22.8010  -31.8180 C   0  0  0  0  0  0  0  0  0  0  0  0
   -7.2830   18.6620  -31.9900 C   0  0  0  0  0  0  0  0  0  0  0  0
   -6.5500   17.6020  -32.5330 C   0  0  0  0  0  0  0  0  0  0  0  0
   -0.7420   17.0930  -34.7800 C   0  0  0  0  0  0  0  0  0  0  0  0
   -0.8940   16.5950  -36.0690 O   0  0  0  0  0  0  0  0  0  0  0  0
    0.3430   17.9400  -34.4590 C   0  0  0  0  0  0  0  0  0  0  0  0
    1.5320   18.3980  -35.7050 S   0  0  0  0  0  0  0  0  0  0  0  0
    1.4590   17.4900  -36.9010 O   0  0  0  0  0  0  0  0  0  0  0  0
    2.9100   18.2910  -35.1110 O   0  0  0  0  0  0  0  0  0  0  0  0
    1.2380   20.0390  -36.2300 N   0  0  0  0  0  0  0  0  0  0  0  0
    2.3550   20.9100  -35.8170 C   0  0  0  0  0  0  0  0  0  0  0  0
    1.9290   22.3870  -35.8530 C   0  0  0  0  0  0  0  0  0  0  0  0
    0.8110   22.7010  -35.0280 O   0  0  0  0  0  0  0  0  0  0  0  0
    0.0470   21.5690  -34.6410 C   0  0  0  0  0  0  0  0  0  0  0  0
   -0.0810   20.5270  -35.7640 C   0  0  0  0  0  0  0  0  0  0  0  0
    1.6586   19.3472  -31.6036 H   0  0  0  0  0  0  0  0  0  0  0  0
    2.5615   18.9188  -33.0962 H   0  0  0  0  0  0  0  0  0  0  0  0
    1.4407   20.3225  -33.0962 H   0  0  0  0  0  0  0  0  0  0  0  0
   -0.3776   18.4136  -31.1345 H   0  0  0  0  0  0  0  0  0  0  0  0
   -2.2618   16.9088  -31.7210 H   0  0  0  0  0  0  0  0  0  0  0  0
   -5.2818   19.1705  -35.2966 H   0  0  0  0  0  0  0  0  0  0  0  0
   -6.5448   21.0736  -34.3013 H   0  0  0  0  0  0  0  0  0  0  0  0
   -7.5995   24.9132  -30.8322 H   0  0  0  0  0  0  0  0  0  0  0  0
   -5.6688   26.0322  -29.7287 H   0  0  0  0  0  0  0  0  0  0  0  0
   -3.9874   20.3825  -33.4146 H   0  0  0  0  0  0  0  0  0  0  0  0
   -3.1051   21.8178  -34.0377 H   0  0  0  0  0  0  0  0  0  0  0  0
   -2.3118   20.2061  -34.0377 H   0  0  0  0  0  0  0  0  0  0  0  0
   -4.9449   21.8863  -32.4087 H   0  0  0  0  0  0  0  0  0  0  0  0
   -7.8594   18.5134  -31.0650 H   0  0  0  0  0  0  0  0  0  0  0  0
   -6.5502   16.6231  -32.0313 H   0  0  0  0  0  0  0  0  0  0  0  0
    2.6602   20.6463  -34.7936 H   0  0  0  0  0  0  0  0  0  0  0  0
    3.1946   20.7652  -36.5128 H   0  0  0  0  0  0  0  0  0  0  0  0
    2.7818   22.9984  -35.5228 H   0  0  0  0  0  0  0  0  0  0  0  0
    1.6224   22.5983  -36.8880 H   0  0  0  0  0  0  0  0  0  0  0  0
    0.5334   21.0955  -33.7754 H   0  0  0  0  0  0  0  0  0  0  0  0
   -0.9664   21.9201  -34.3967 H   0  0  0  0  0  0  0  0  0  0  0  0
   -0.6623   19.6719  -35.3888 H   0  0  0  0  0  0  0  0  0  0  0  0
   -0.5819   21.0098  -36.6161 H   0  0  0  0  0  0  0  0  0  0  0  0
  1  2  1  0
  2  3  2  0
  3  4  1  0
  4  5  2  0
  5  6  1  0
  6  7  1  0
  7  8  2  0
  7  9  1  0
  9 10  1  0
 10 11  2  0
 11 12  1  0
 12 13  2  0
 13 14  1  0
 14 15  2  0
 14 16  2  0
 14 17  1  0
 17 18  1  0
 18 19  2  0
 19 20  1  0
 20 21  2  0
 21 22  1  0
 21 23  1  0
 23 24  1  0
 24 25  1  0
 25 26  1  0
 25 27  2  0
 25 28  2  0
 23 29  2  0
 13 30  1  0
 30 31  2  0
  5 32  1  0
 32 33  1  0
 32 34  2  0
 34 35  1  0
 35 36  2  0
 35 37  2  0
 35 38  1  0
 38 39  1  0
 39 40  1  0
 40 41  1  0
 41 42  1  0
 42 43  1  0
 34  2  1  0
 43 38  1  0
 31 10  1  0
 29 18  1  0
  1 44  1  0
  1 45  1  0
  1 46  1  0
  3 47  1  0
  4 48  1  0
 11 49  1  0
 12 50  1  0
 19 51  1  0
 20 52  1  0
 26 53  1  0
 26 54  1  0
 26 55  1  0
 29 56  1  0
 30 57  1  0
 31 58  1  0
 39 59  1  0
 39 60  1  0
 40 61  1  0
 40 62  1  0
 42 63  1  0
 42 64  1  0
 43 65  1  0
 43 66  1  0
M  CHG  6   6  -1   9  -1  17  -1  22  -1  24  -1  33  -1
M  END
>  <UniqueID>  (34) 
31

>  <SMILES>  (34) 
Cc1ccc([N-]C(=O)[N-]c2ccc(S(=O)(=O)[N-]c3ccc([O-])c([N-]S(C)(=O)=O)c3)cc2)c([O-])c1S(=O)(=O)N1CCOCC1

>  <Energy>  (34) 
100.06469004150081

>  <Genealogy>  (34) 
Cc1ccc([N-]C(=O)[N-]c2ccc(S(=O)(=O)[N-]c3ccc([O-])c([N-]S(C)(=O)=O)c3)cc2)c([O-])c1S(=O)(=O)N1CCOCC1 (protonated)
Cc1ccc([N-]C(=O)[N-]c2ccc(S(=O)(=O)[N-]c3ccc([O-])c([N-]S(C)(=O)=O)c3)cc2)c([O-])c1S(=O)(=O)N1CCOCC1 (3D coordinates assigned)
Cc1ccc([N-]C(=O)[N-]c2ccc(S(=O)(=O)[N-]c3ccc([O-])c([N-]S(C)(=O)=O)c3)cc2)c([O-])c1S(=O)(=O)N1CCOCC1 (nonaromatic ring conformer: 100.06469004150081 kcal/mol)

>  <smiles>  (34) 
Cc1ccc(NC(=O)Nc2ccc(S(=O)(=O)Nc3ccc(O)c(NS(C)(=O)=O)c3)cc2)c(O)c1S(=O)(=O)N1CCOCC1

>  <score_type>  (34) 
oracle

>  <origin>  (34) 
adgpu

>  <m_score__min__energy>  (34) 
-17.390000000000001

>  <m_primary>  (34) 
energy

$$$$
34:0
     RDKit          3D

 57 60  0  0  0  0  0  0  0  0999 V2000
   -1.1212   18.9167  -32.3468 H   0  0  0  0  0  0  0  0  0  0  0  0
   -1.1400   18.0580  -33.0340 C   0  0  0  0  0  0  0  0  0  0  0  0
   -0.4950   16.8680  -32.6840 C   0  0  0  0  0  0  0  0  0  0  0  0
    0.0288   16.7900  -31.7199 H   0  0  0  0  0  0  0  0  0  0  0  0
   -0.5150   15.7770  -33.5580 C   0  0  0  0  0  0  0  0  0  0  0  0
   -0.0014   14.8449  -33.2799 H   0  0  0  0  0  0  0  0  0  0  0  0
   -1.1870   15.8630  -34.7900 C   0  0  0  0  0  0  0  0  0  0  0  0
   -1.2110   14.7380  -35.6890 N   0  0  0  0  0  0  0  0  0  0  0  0
   -0.1630   14.5780  -36.6980 C   0  0  0  0  0  0  0  0  0  0  0  0
    0.8064   14.4300  -36.1996 H   0  0  0  0  0  0  0  0  0  0  0  0
   -0.3894   13.7040  -37.3264 H   0  0  0  0  0  0  0  0  0  0  0  0
   -0.1183   15.4797  -37.3264 H   0  0  0  0  0  0  0  0  0  0  0  0
   -2.4850   13.5560  -35.5900 S   0  0  0  0  0  0  0  0  0  0  0  0
   -1.8990   12.1730  -35.6740 O   0  0  0  0  0  0  0  0  0  0  0  0
   -3.4250   13.7300  -36.7510 O   0  0  0  0  0  0  0  0  0  0  0  0
   -3.3580   13.7320  -34.0700 C   0  0  0  0  0  0  0  0  0  0  0  0
   -3.5080   12.6410  -33.2030 C   0  0  0  0  0  0  0  0  0  0  0  0
   -3.0841   11.6626  -33.4732 H   0  0  0  0  0  0  0  0  0  0  0  0
   -4.1940   12.7940  -31.9980 C   0  0  0  0  0  0  0  0  0  0  0  0
   -4.3086   11.9357  -31.3196 H   0  0  0  0  0  0  0  0  0  0  0  0
   -4.7360   14.0340  -31.6500 C   0  0  0  0  0  0  0  0  0  0  0  0
   -5.2705   14.1480  -30.6954 H   0  0  0  0  0  0  0  0  0  0  0  0
   -4.6030   15.1360  -32.5110 C   0  0  0  0  0  0  0  0  0  0  0  0
   -5.1680   16.4500  -32.1200 C   0  0  0  0  0  0  0  0  0  0  0  0
   -5.8360   16.5300  -31.0530 O   0  0  0  0  0  0  0  0  0  0  0  0
   -4.9560   17.6250  -32.9260 N   0  0  0  0  0  0  0  0  0  0  0  0
   -4.3350   17.5600  -33.7620 H   0  0  0  0  0  0  0  0  0  0  0  0
   -5.4750   18.9250  -32.6020 C   0  0  0  0  0  0  0  0  0  0  0  0
   -6.8440   19.1290  -32.3510 C   0  0  0  0  0  0  0  0  0  0  0  0
   -7.5402   18.2782  -32.3895 H   0  0  0  0  0  0  0  0  0  0  0  0
   -7.3240   20.4070  -32.0530 C   0  0  0  0  0  0  0  0  0  0  0  0
   -8.3936   20.5552  -31.8434 H   0  0  0  0  0  0  0  0  0  0  0  0
   -6.4490   21.5000  -32.0200 C   0  0  0  0  0  0  0  0  0  0  0  0
   -7.0670   23.1050  -31.6450 S   0  0  0  0  0  0  0  0  0  0  0  0
   -7.6990   23.1280  -30.2800 O   0  0  0  0  0  0  0  0  0  0  0  0
   -8.1010   23.4810  -32.6680 O   0  0  0  0  0  0  0  0  0  0  0  0
   -5.7740   24.2610  -31.6930 N   0  0  0  0  0  0  0  0  0  0  0  0
   -4.8930   24.4140  -30.7520 C   0  0  0  0  0  0  0  0  0  0  0  0
   -3.8890   25.3050  -30.8310 N   0  0  0  0  0  0  0  0  0  0  0  0
   -3.1970   25.1800  -29.7350 O   0  0  0  0  0  0  0  0  0  0  0  0
   -3.7070   24.2520  -28.9570 C   0  0  0  0  0  0  0  0  0  0  0  0
   -3.1570   23.8670  -27.6260 C   0  0  0  0  0  0  0  0  0  0  0  0
   -3.7803   24.3033  -26.8316 H   0  0  0  0  0  0  0  0  0  0  0  0
   -3.1575   22.7710  -27.5321 H   0  0  0  0  0  0  0  0  0  0  0  0
   -2.1274   24.2426  -27.5321 H   0  0  0  0  0  0  0  0  0  0  0  0
   -4.8180   23.7080  -29.5640 C   0  0  0  0  0  0  0  0  0  0  0  0
   -5.4806   22.9108  -29.1959 H   0  0  0  0  0  0  0  0  0  0  0  0
   -5.0890   21.3060  -32.2940 C   0  0  0  0  0  0  0  0  0  0  0  0
   -4.3979   22.1616  -32.2746 H   0  0  0  0  0  0  0  0  0  0  0  0
   -4.6080   20.0280  -32.5920 C   0  0  0  0  0  0  0  0  0  0  0  0
   -3.5414   19.8859  -32.8205 H   0  0  0  0  0  0  0  0  0  0  0  0
   -3.9010   14.9760  -33.7210 C   0  0  0  0  0  0  0  0  0  0  0  0
   -3.7778   15.8343  -34.3978 H   0  0  0  0  0  0  0  0  0  0  0  0
   -1.8280   17.0670  -35.1340 C   0  0  0  0  0  0  0  0  0  0  0  0
   -2.3482   17.1528  -36.0994 H   0  0  0  0  0  0  0  0  0  0  0  0
   -1.8080   18.1560  -34.2560 C   0  0  0  0  0  0  0  0  0  0  0  0
   -2.3194   19.0909  -34.5289 H   0  0  0  0  0  0  0  0  0  0  0  0
  1  2  1  0
  2  3  2  0
  3  4  1  0
  3  5  1  0
  5  6  1  0
  5  7  2  0
  7  8  1  0
  8  9  1  0
  9 10  1  0
  9 11  1  0
  9 12  1  0
  8 13  1  0
 13 14  2  0
 13 15  2  0
 13 16  1  0
 16 17  2  0
 17 18  1  0
 17 19  1  0
 19 20  1  0
 19 21  2  0
 21 22  1  0
 21 23  1  0
 23 24  1  0
 24 25  2  0
 24 26  1  0
 26 27  1  0
 26 28  1  0
 28 29  2  0
 29 30  1  0
 29 31  1  0
 31 32  1  0
 31 33  2  0
 33 34  1  0
 34 35  2  0
 34 36  2  0
 34 37  1  0
 37 38  2  0
 38 39  1  0
 39 40  1  0
 40 41  1  0
 41 42  1  0
 42 43  1  0
 42 44  1  0
 42 45  1  0
 41 46  2  0
 46 47  1  0
 33 48  1  0
 48 49  1  0
 48 50  2  0
 50 51  1  0
 23 52  2  0
 52 53  1  0
  7 54  1  0
 54 55  1  0
 54 56  2  0
 56 57  1  0
 56  2  1  0
 52 16  1  0
 50 28  1  0
 46 38  1  0
M  CHG  1  39  -1
M  END
>  <UniqueID>  (35) 
32

>  <SMILES>  (35) 
Cc1c/c(=N\S(=O)(=O)c2ccc(NC(=O)c3cccc(S(=O)(=O)N(C)c4ccccc4)c3)cc2)[n-]o1

>  <Energy>  (35) 
105.63982039047858

>  <Genealogy>  (35) 
Cc1cc(=NS(=O)(=O)c2ccc(NC(=O)c3cccc(S(=O)(=O)N(C)c4ccccc4)c3)cc2)[n-]o1 (protonated)
Cc1c/c(=N\S(=O)(=O)c2ccc(NC(=O)c3cccc(S(=O)(=O)N(C)c4ccccc4)c3)cc2)[n-]o1 (cis-trans isomerization)
Cc1c/c(=N\S(=O)(=O)c2ccc(NC(=O)c3cccc(S(=O)(=O)N(C)c4ccccc4)c3)cc2)[n-]o1 (3D coordinates assigned)
Cc1c/c(=N\S(=O)(=O)c2ccc(NC(=O)c3cccc(S(=O)(=O)N(C)c4ccccc4)c3)cc2)[n-]o1 (optimized conformer: 105.63982039047858 kcal/mol)

>  <smiles>  (35) 
Cc1cc(=NS(=O)(=O)c2ccc(NC(=O)c3cccc(S(=O)(=O)N(C)c4ccccc4)c3)cc2)[nH]o1

>  <score_type>  (35) 
oracle

>  <origin>  (35) 
adgpu

>  <m_score__min__energy>  (35) 
-10.81

>  <m_primary>  (35) 
energy

$$$$
35:0
     RDKit          3D

 43 45  0  0  0  0  0  0  0  0999 V2000
   -5.6170   17.1890  -34.4290 C   0  0  0  0  0  0  0  0  0  0  0  0
   -6.0420   17.3700  -33.0820 O   0  0  0  0  0  0  0  0  0  0  0  0
   -7.0530   18.2560  -32.6780 C   0  0  0  0  0  0  0  0  0  0  0  0
   -8.2140   17.8100  -32.0140 C   0  0  0  0  0  0  0  0  0  0  0  0
   -9.2090   18.7190  -31.6460 C   0  0  0  0  0  0  0  0  0  0  0  0
   -9.0620   20.0750  -31.9410 C   0  0  0  0  0  0  0  0  0  0  0  0
   -7.9200   20.5260  -32.6050 C   0  0  0  0  0  0  0  0  0  0  0  0
   -6.9100   19.6260  -32.9620 C   0  0  0  0  0  0  0  0  0  0  0  0
   -5.7560   20.1140  -33.6480 N   0  0  0  0  0  0  0  0  0  0  0  0
   -4.2470   20.3430  -32.8320 S   0  0  0  0  0  0  0  0  0  0  0  0
   -4.0330   19.2390  -31.8360 O   0  0  0  0  0  0  0  0  0  0  0  0
   -3.1310   20.3100  -33.8380 O   0  0  0  0  0  0  0  0  0  0  0  0
   -4.2500   21.9150  -32.0390 C   0  0  0  0  0  0  0  0  0  0  0  0
   -5.3500   22.7660  -32.1970 C   0  0  0  0  0  0  0  0  0  0  0  0
   -5.3580   24.0240  -31.5920 C   0  0  0  0  0  0  0  0  0  0  0  0
   -4.2710   24.4380  -30.8170 C   0  0  0  0  0  0  0  0  0  0  0  0
   -4.2860   25.6970  -30.2280 O   0  0  0  0  0  0  0  0  0  0  0  0
   -3.1740   23.5840  -30.6280 C   0  0  0  0  0  0  0  0  0  0  0  0
   -2.0600   24.0350  -29.8440 N   0  0  0  0  0  0  0  0  0  0  0  0
   -1.7920   23.6630  -28.4850 C   0  0  0  0  0  0  0  0  0  0  0  0
   -1.7470   22.4380  -28.1930 O   0  0  0  0  0  0  0  0  0  0  0  0
   -1.4960   24.6770  -27.4440 C   0  0  0  0  0  0  0  0  0  0  0  0
   -1.4930   24.3070  -26.0860 C   0  0  0  0  0  0  0  0  0  0  0  0
   -1.2460   25.2580  -25.0930 C   0  0  0  0  0  0  0  0  0  0  0  0
   -1.0000   26.5870  -25.4420 C   0  0  0  0  0  0  0  0  0  0  0  0
   -0.9960   26.9670  -26.7850 C   0  0  0  0  0  0  0  0  0  0  0  0
   -1.2450   26.0210  -27.7870 C   0  0  0  0  0  0  0  0  0  0  0  0
   -1.2270   26.4260  -29.1180 O   0  0  0  0  0  0  0  0  0  0  0  0
   -3.1630   22.3240  -31.2550 C   0  0  0  0  0  0  0  0  0  0  0  0
   -4.6050   16.7580  -34.4394 H   0  0  0  0  0  0  0  0  0  0  0  0
   -6.3108   16.5083  -34.9441 H   0  0  0  0  0  0  0  0  0  0  0  0
   -5.6069   18.1609  -34.9441 H   0  0  0  0  0  0  0  0  0  0  0  0
   -8.3370   16.7412  -31.7846 H   0  0  0  0  0  0  0  0  0  0  0  0
  -10.1097   18.3653  -31.1229 H   0  0  0  0  0  0  0  0  0  0  0  0
   -9.8466   20.7890  -31.6501 H   0  0  0  0  0  0  0  0  0  0  0  0
   -7.8137   21.5934  -32.8486 H   0  0  0  0  0  0  0  0  0  0  0  0
   -6.2112   22.4424  -32.8000 H   0  0  0  0  0  0  0  0  0  0  0  0
   -6.2222   24.6913  -31.7256 H   0  0  0  0  0  0  0  0  0  0  0  0
   -1.6866   23.2614  -25.8046 H   0  0  0  0  0  0  0  0  0  0  0  0
   -1.2454   24.9591  -24.0344 H   0  0  0  0  0  0  0  0  0  0  0  0
   -0.8092   27.3350  -24.6584 H   0  0  0  0  0  0  0  0  0  0  0  0
   -0.7964   28.0139  -27.0575 H   0  0  0  0  0  0  0  0  0  0  0  0
   -2.2972   21.6573  -31.1290 H   0  0  0  0  0  0  0  0  0  0  0  0
  1  2  1  0
  2  3  1  0
  3  4  2  0
  4  5  1  0
  5  6  2  0
  6  7  1  0
  7  8  2  0
  8  9  1  0
  9 10  1  0
 10 11  2  0
 10 12  2  0
 10 13  1  0
 13 14  2  0
 14 15  1  0
 15 16  2  0
 16 17  1  0
 16 18  1  0
 18 19  1  0
 19 20  1  0
 20 21  2  0
 20 22  1  0
 22 23  2  0
 23 24  1  0
 24 25  2  0
 25 26  1  0
 26 27  2  0
 27 28  1  0
 18 29  2  0
  8  3  1  0
 29 13  1  0
 27 22  1  0
  1 30  1  0
  1 31  1  0
  1 32  1  0
  4 33  1  0
  5 34  1  0
  6 35  1  0
  7 36  1  0
 14 37  1  0
 15 38  1  0
 23 39  1  0
 24 40  1  0
 25 41  1  0
 26 42  1  0
 29 43  1  0
M  CHG  4   9  -1  17  -1  19  -1  28  -1
M  END
>  <UniqueID>  (36) 
33

>  <SMILES>  (36) 
COc1ccccc1[N-]S(=O)(=O)c1ccc([O-])c([N-]C(=O)c2ccccc2[O-])c1

>  <Energy>  (36) 
59.058529743352814

>  <Genealogy>  (36) 
COc1ccccc1[N-]S(=O)(=O)c1ccc([O-])c([N-]C(=O)c2ccccc2[O-])c1 (protonated)
COc1ccccc1[N-]S(=O)(=O)c1ccc([O-])c([N-]C(=O)c2ccccc2[O-])c1 (3D coordinates assigned)
COc1ccccc1[N-]S(=O)(=O)c1ccc([O-])c([N-]C(=O)c2ccccc2[O-])c1 (optimized conformer: 59.058529743352814 kcal/mol)

>  <smiles>  (36) 
COc1ccccc1NS(=O)(=O)c1ccc(O)c(NC(=O)c2ccccc2O)c1

>  <score_type>  (36) 
oracle

>  <origin>  (36) 
adgpu

>  <m_score__min__energy>  (36) 
-14.67

>  <m_primary>  (36) 
energy

$$$$
36:0
     RDKit          3D

 44 47  0  0  0  0  0  0  0  0999 V2000
   -6.2220   23.6350  -29.7890 O   0  0  0  0  0  0  0  0  0  0  0  0
   -4.8760   23.9730  -30.3660 S   0  0  0  0  0  0  0  0  0  0  0  0
   -5.0060   25.2080  -31.2130 O   0  0  0  0  0  0  0  0  0  0  0  0
   -3.7470   24.2390  -29.0400 C   0  0  0  0  0  0  0  0  0  0  0  0
   -4.2330   24.3630  -27.7280 C   0  0  0  0  0  0  0  0  0  0  0  0
   -3.3460   24.5740  -26.6670 C   0  0  0  0  0  0  0  0  0  0  0  0
   -1.9720   24.6650  -26.9090 C   0  0  0  0  0  0  0  0  0  0  0  0
   -1.4810   24.5440  -28.2150 C   0  0  0  0  0  0  0  0  0  0  0  0
   -2.3660   24.3340  -29.2790 C   0  0  0  0  0  0  0  0  0  0  0  0
   -4.3170   22.6410  -31.3660 C   0  0  0  0  0  0  0  0  0  0  0  0
   -2.9910   22.4380  -31.5960 N   0  0  0  0  0  0  0  0  0  0  0  0
   -2.7690   21.4100  -32.4500 C   0  0  0  0  0  0  0  0  0  0  0  0
   -1.4170   20.9910  -32.8820 C   0  0  0  0  0  0  0  0  0  0  0  0
   -0.9980   21.1660  -34.2150 C   0  0  0  0  0  0  0  0  0  0  0  0
    0.2820   20.7670  -34.6120 C   0  0  0  0  0  0  0  0  0  0  0  0
    1.1580   20.1970  -33.6840 C   0  0  0  0  0  0  0  0  0  0  0  0
    0.7540   20.0190  -32.3570 C   0  0  0  0  0  0  0  0  0  0  0  0
   -0.5280   20.4100  -31.9560 C   0  0  0  0  0  0  0  0  0  0  0  0
   -4.2240   20.7220  -32.9730 S   0  0  0  0  0  0  0  0  0  0  0  0
   -5.1600   21.7690  -32.0540 C   0  0  0  0  0  0  0  0  0  0  0  0
   -6.5910   21.8060  -32.0550 N   0  0  0  0  0  0  0  0  0  0  0  0
   -7.2620   23.0410  -32.4610 C   0  0  0  0  0  0  0  0  0  0  0  0
   -8.7050   23.0340  -31.9460 C   0  0  0  0  0  0  0  0  0  0  0  0
   -9.3700   21.8460  -32.3300 O   0  0  0  0  0  0  0  0  0  0  0  0
   -8.7650   20.7330  -31.6990 C   0  0  0  0  0  0  0  0  0  0  0  0
   -7.3260   20.5470  -32.1900 C   0  0  0  0  0  0  0  0  0  0  0  0
   -5.3136   24.2940  -27.5343 H   0  0  0  0  0  0  0  0  0  0  0  0
   -3.7302   24.6685  -25.6406 H   0  0  0  0  0  0  0  0  0  0  0  0
   -1.2764   24.8317  -26.0733 H   0  0  0  0  0  0  0  0  0  0  0  0
   -0.3997   24.6140  -28.4047 H   0  0  0  0  0  0  0  0  0  0  0  0
   -1.9791   24.2431  -30.3047 H   0  0  0  0  0  0  0  0  0  0  0  0
   -1.6815   21.6192  -34.9481 H   0  0  0  0  0  0  0  0  0  0  0  0
    0.6000   20.9019  -35.6563 H   0  0  0  0  0  0  0  0  0  0  0  0
    2.1661   19.8881  -33.9977 H   0  0  0  0  0  0  0  0  0  0  0  0
    1.4450   19.5711  -31.6277 H   0  0  0  0  0  0  0  0  0  0  0  0
   -0.8436   20.2631  -30.9125 H   0  0  0  0  0  0  0  0  0  0  0  0
   -6.7267   23.9044  -32.0391 H   0  0  0  0  0  0  0  0  0  0  0  0
   -7.2658   23.1113  -33.5587 H   0  0  0  0  0  0  0  0  0  0  0  0
   -8.6964   23.1037  -30.8482 H   0  0  0  0  0  0  0  0  0  0  0  0
   -9.2383   23.8925  -32.3802 H   0  0  0  0  0  0  0  0  0  0  0  0
   -8.7570   20.8953  -30.6111 H   0  0  0  0  0  0  0  0  0  0  0  0
   -9.3421   19.8299  -31.9465 H   0  0  0  0  0  0  0  0  0  0  0  0
   -6.8323   19.7693  -31.5888 H   0  0  0  0  0  0  0  0  0  0  0  0
   -7.3386   20.2446  -33.2475 H   0  0  0  0  0  0  0  0  0  0  0  0
  1  2  2  0
  2  3  2  0
  2  4  1  0
  4  5  2  0
  5  6  1  0
  6  7  2  0
  7  8  1  0
  8  9  2  0
  2 10  1  0
 10 11  1  0
 11 12  2  0
 12 13  1  0
 13 14  2  0
 14 15  1  0
 15 16  2  0
 16 17  1  0
 17 18  2  0
 12 19  1  0
 19 20  1  0
 20 21  1  0
 21 22  1  0
 22 23  1  0
 23 24  1  0
 24 25  1  0
 25 26  1  0
  9  4  1  0
 20 10  2  0
 26 21  1  0
 18 13  1  0
  5 27  1  0
  6 28  1  0
  7 29  1  0
  8 30  1  0
  9 31  1  0
 14 32  1  0
 15 33  1  0
 16 34  1  0
 17 35  1  0
 18 36  1  0
 22 37  1  0
 22 38  1  0
 23 39  1  0
 23 40  1  0
 25 41  1  0
 25 42  1  0
 26 43  1  0
 26 44  1  0
M  END
>  <UniqueID>  (37) 
34

>  <SMILES>  (37) 
O=S(=O)(c1ccccc1)c1nc(-c2ccccc2)sc1N1CCOCC1

>  <Energy>  (37) 
83.37305507723617

>  <Genealogy>  (37) 
O=S(=O)(c1ccccc1)c1nc(-c2ccccc2)sc1N1CCOCC1 (3D coordinates assigned)
O=S(=O)(c1ccccc1)c1nc(-c2ccccc2)sc1N1CCOCC1 (nonaromatic ring conformer: 83.37305507723617 kcal/mol)

>  <smiles>  (37) 
O=S(=O)(c1ccccc1)c1nc(-c2ccccc2)sc1N1CCOCC1

>  <score_type>  (37) 
oracle

>  <origin>  (37) 
adgpu

>  <m_score__min__energy>  (37) 
-8.4299999999999997

>  <m_primary>  (37) 
energy

$$$$
37:0
     RDKit          3D

 51 54  0  0  0  0  0  0  0  0999 V2000
    1.9740   14.5660  -35.2440 C   0  0  0  0  0  0  0  0  0  0  0  0
    0.8780   15.4940  -34.8140 C   0  0  0  0  0  0  0  0  0  0  0  0
    0.2370   15.3040  -33.5800 C   0  0  0  0  0  0  0  0  0  0  0  0
   -0.7620   16.1870  -33.1610 C   0  0  0  0  0  0  0  0  0  0  0  0
   -1.1080   17.2900  -33.9510 C   0  0  0  0  0  0  0  0  0  0  0  0
   -2.1750   18.1500  -33.5250 N   0  0  0  0  0  0  0  0  0  0  0  0
   -3.4410   17.8510  -33.4320 C   0  0  0  0  0  0  0  0  0  0  0  0
   -4.2840   18.7690  -32.8990 N   0  0  0  0  0  0  0  0  0  0  0  0
   -5.6130   18.5120  -32.7880 C   0  0  0  0  0  0  0  0  0  0  0  0
   -6.4260   19.3730  -32.2480 N   0  0  0  0  0  0  0  0  0  0  0  0
   -6.1050   20.6980  -31.7920 C   0  0  0  0  0  0  0  0  0  0  0  0
   -4.9900   21.4060  -32.2790 C   0  0  0  0  0  0  0  0  0  0  0  0
   -4.7320   22.7060  -31.8350 C   0  0  0  0  0  0  0  0  0  0  0  0
   -5.5900   23.3210  -30.9140 C   0  0  0  0  0  0  0  0  0  0  0  0
   -5.2710   24.9650  -30.3710 S   0  0  0  0  0  0  0  0  0  0  0  0
   -3.5810   25.2980  -30.4960 N   0  0  0  0  0  0  0  0  0  0  0  0
   -5.7070   25.1200  -28.9410 O   0  0  0  0  0  0  0  0  0  0  0  0
   -6.0390   25.9410  -31.2190 O   0  0  0  0  0  0  0  0  0  0  0  0
   -6.7220   22.6330  -30.4600 C   0  0  0  0  0  0  0  0  0  0  0  0
   -6.9810   21.3340  -30.9030 C   0  0  0  0  0  0  0  0  0  0  0  0
   -6.0960   17.3180  -33.2060 N   0  0  0  0  0  0  0  0  0  0  0  0
   -5.2740   16.3900  -33.7600 C   0  0  0  0  0  0  0  0  0  0  0  0
   -5.8220   15.1370  -34.2110 N   0  0  0  0  0  0  0  0  0  0  0  0
   -7.2330   14.9540  -34.5040 C   0  0  0  0  0  0  0  0  0  0  0  0
   -7.4130   13.4630  -34.7590 C   0  0  0  0  0  0  0  0  0  0  0  0
   -6.0140   12.9120  -35.0170 C   0  0  0  0  0  0  0  0  0  0  0  0
   -5.0480   13.9230  -34.4130 C   0  0  0  0  0  0  0  0  0  0  0  0
   -3.9420   16.6620  -33.8820 N   0  0  0  0  0  0  0  0  0  0  0  0
   -0.4810   17.4710  -35.1950 C   0  0  0  0  0  0  0  0  0  0  0  0
    0.5200   16.5890  -35.6150 C   0  0  0  0  0  0  0  0  0  0  0  0
    2.4691   14.1468  -34.3557 H   0  0  0  0  0  0  0  0  0  0  0  0
    1.5482   13.7497  -35.8459 H   0  0  0  0  0  0  0  0  0  0  0  0
    2.7089   15.1206  -35.8459 H   0  0  0  0  0  0  0  0  0  0  0  0
    0.5222   14.4562  -32.9397 H   0  0  0  0  0  0  0  0  0  0  0  0
   -1.2792   16.0145  -32.2056 H   0  0  0  0  0  0  0  0  0  0  0  0
   -4.3190   20.9342  -33.0120 H   0  0  0  0  0  0  0  0  0  0  0  0
   -3.8517   23.2484  -32.2103 H   0  0  0  0  0  0  0  0  0  0  0  0
   -3.4690   26.0420  -31.2220 H   0  0  0  0  0  0  0  0  0  0  0  0
   -7.4100   23.1176  -29.7516 H   0  0  0  0  0  0  0  0  0  0  0  0
   -7.8797   20.8063  -30.5511 H   0  0  0  0  0  0  0  0  0  0  0  0
   -7.8466   15.2733  -33.6487 H   0  0  0  0  0  0  0  0  0  0  0  0
   -7.5482   15.5542  -35.3703 H   0  0  0  0  0  0  0  0  0  0  0  0
   -7.8603   12.9756  -33.8801 H   0  0  0  0  0  0  0  0  0  0  0  0
   -8.0842   13.2766  -35.6103 H   0  0  0  0  0  0  0  0  0  0  0  0
   -5.8938   11.9317  -34.5328 H   0  0  0  0  0  0  0  0  0  0  0  0
   -5.8286   12.7691  -36.0918 H   0  0  0  0  0  0  0  0  0  0  0  0
   -4.6571   13.5536  -33.4534 H   0  0  0  0  0  0  0  0  0  0  0  0
   -4.1825   14.0985  -35.0689 H   0  0  0  0  0  0  0  0  0  0  0  0
   -3.3220   15.9670  -34.3500 H   0  0  0  0  0  0  0  0  0  0  0  0
   -0.7785   18.3098  -35.8414 H   0  0  0  0  0  0  0  0  0  0  0  0
    1.0283   16.7543  -36.5764 H   0  0  0  0  0  0  0  0  0  0  0  0
  1  2  1  0
  2  3  2  0
  3  4  1  0
  4  5  2  0
  5  6  1  0
  6  7  2  3
  7  8  1  0
  8  9  1  0
  9 10  2  3
 10 11  1  0
 11 12  2  0
 12 13  1  0
 13 14  2  0
 14 15  1  0
 15 16  1  0
 15 17  2  0
 15 18  2  0
 14 19  1  0
 19 20  2  0
  9 21  1  0
 21 22  2  0
 22 23  1  0
 23 24  1  0
 24 25  1  0
 25 26  1  0
 26 27  1  0
 22 28  1  0
  5 29  1  0
 29 30  2  0
 30  2  1  0
 28  7  1  0
 20 11  1  0
 27 23  1  0
  1 31  1  0
  1 32  1  0
  1 33  1  0
  3 34  1  0
  4 35  1  0
 12 36  1  0
 13 37  1  0
 16 38  1  0
 19 39  1  0
 20 40  1  0
 24 41  1  0
 24 42  1  0
 25 43  1  0
 25 44  1  0
 26 45  1  0
 26 46  1  0
 27 47  1  0
 27 48  1  0
 28 49  1  0
 29 50  1  0
 30 51  1  0
M  CHG  2   8  -1  16  -1
M  END
>  <UniqueID>  (38) 
35

>  <SMILES>  (38) 
Cc1ccc(N=c2[n-]c(=Nc3ccc(S([NH-])(=O)=O)cc3)nc(N3CCCC3)[nH]2)cc1

>  <Energy>  (38) 
67.89972363623221

>  <Genealogy>  (38) 
Cc1ccc(N=c2[n-]c(=Nc3ccc(S([NH-])(=O)=O)cc3)nc(N3CCCC3)[nH]2)cc1 (protonated)
Cc1ccc(N=c2[n-]c(=Nc3ccc(S([NH-])(=O)=O)cc3)nc(N3CCCC3)[nH]2)cc1 (3D coordinates assigned)
Cc1ccc(N=c2[n-]c(=Nc3ccc(S([NH-])(=O)=O)cc3)nc(N3CCCC3)[nH]2)cc1 (nonaromatic ring conformer: 67.89972363623221 kcal/mol)

>  <smiles>  (38) 
Cc1ccc(N=c2[nH]c(N3CCCC3)nc(=Nc3ccc(S(N)(=O)=O)cc3)[nH]2)cc1

>  <score_type>  (38) 
oracle

>  <origin>  (38) 
adgpu

>  <m_score__min__energy>  (38) 
-9.5

>  <m_primary>  (38) 
energy

$$$$
38:0
     RDKit          3D

 54 56  0  0  0  0  0  0  0  0999 V2000
    1.2270   22.2590  -35.3680 C   0  0  0  0  0  0  0  0  0  0  0  0
    0.7850   20.8210  -35.4890 C   0  0  0  0  0  0  0  0  0  0  0  0
    1.1060   20.1290  -36.6570 C   0  0  0  0  0  0  0  0  0  0  0  0
    0.7350   18.7950  -36.8380 C   0  0  0  0  0  0  0  0  0  0  0  0
    1.1330   18.1200  -38.1290 C   0  0  0  0  0  0  0  0  0  0  0  0
    0.0270   18.1140  -35.8160 C   0  0  0  0  0  0  0  0  0  0  0  0
   -0.3010   16.6470  -35.9910 C   0  0  0  0  0  0  0  0  0  0  0  0
   -0.3880   18.8300  -34.6520 C   0  0  0  0  0  0  0  0  0  0  0  0
   -1.4940   18.0970  -33.4430 S   0  0  0  0  0  0  0  0  0  0  0  0
   -1.3070   18.6520  -32.0600 O   0  0  0  0  0  0  0  0  0  0  0  0
   -1.2210   16.6210  -33.3620 O   0  0  0  0  0  0  0  0  0  0  0  0
   -3.1310   18.3330  -33.9570 N   0  0  0  0  0  0  0  0  0  0  0  0
   -3.9000   19.4550  -33.5260 C   0  0  0  0  0  0  0  0  0  0  0  0
   -3.2640   20.6800  -33.3010 C   0  0  0  0  0  0  0  0  0  0  0  0
   -3.9920   21.7700  -32.8170 C   0  0  0  0  0  0  0  0  0  0  0  0
   -5.3660   21.6430  -32.5670 C   0  0  0  0  0  0  0  0  0  0  0  0
   -6.2730   22.9940  -31.8990 S   0  0  0  0  0  0  0  0  0  0  0  0
   -7.2520   23.5470  -32.8960 O   0  0  0  0  0  0  0  0  0  0  0  0
   -7.0410   22.4870  -30.7130 O   0  0  0  0  0  0  0  0  0  0  0  0
   -5.2150   24.2600  -31.3590 N   0  0  0  0  0  0  0  0  0  0  0  0
   -4.1970   24.2160  -30.5450 C   0  0  0  0  0  0  0  0  0  0  0  0
   -3.4980   25.2930  -30.2740 O   0  0  0  0  0  0  0  0  0  0  0  0
   -2.5340   25.0390  -29.4400 N   0  0  0  0  0  0  0  0  0  0  0  0
   -2.5980   23.7270  -29.1500 C   0  0  0  0  0  0  0  0  0  0  0  0
   -1.6760   23.0610  -28.1790 C   0  0  0  0  0  0  0  0  0  0  0  0
   -3.6510   23.1400  -29.8380 C   0  0  0  0  0  0  0  0  0  0  0  0
   -4.1030   21.7160  -29.6900 C   0  0  0  0  0  0  0  0  0  0  0  0
   -6.0120   20.4320  -32.8450 C   0  0  0  0  0  0  0  0  0  0  0  0
   -5.2830   19.3410  -33.3240 C   0  0  0  0  0  0  0  0  0  0  0  0
    0.0810   20.1630  -34.4520 C   0  0  0  0  0  0  0  0  0  0  0  0
   -0.2020   20.9060  -33.1600 C   0  0  0  0  0  0  0  0  0  0  0  0
    1.3100   22.5289  -34.3049 H   0  0  0  0  0  0  0  0  0  0  0  0
    2.2051   22.3842  -35.8555 H   0  0  0  0  0  0  0  0  0  0  0  0
    0.4881   22.9120  -35.8555 H   0  0  0  0  0  0  0  0  0  0  0  0
    1.6633   20.6453  -37.4525 H   0  0  0  0  0  0  0  0  0  0  0  0
    1.6799   17.1924  -37.9043 H   0  0  0  0  0  0  0  0  0  0  0  0
    0.2308   17.8818  -38.7115 H   0  0  0  0  0  0  0  0  0  0  0  0
    1.7782   18.7941  -38.7115 H   0  0  0  0  0  0  0  0  0  0  0  0
   -0.4066   16.1745  -35.0033 H   0  0  0  0  0  0  0  0  0  0  0  0
   -1.2439   16.5461  -36.5485 H   0  0  0  0  0  0  0  0  0  0  0  0
    0.5091   16.1541  -36.5485 H   0  0  0  0  0  0  0  0  0  0  0  0
   -2.1883   20.7857  -33.5055 H   0  0  0  0  0  0  0  0  0  0  0  0
   -3.4865   22.7293  -32.6318 H   0  0  0  0  0  0  0  0  0  0  0  0
   -1.9958   23.2920  -27.1522 H   0  0  0  0  0  0  0  0  0  0  0  0
   -1.7029   21.9725  -28.3353 H   0  0  0  0  0  0  0  0  0  0  0  0
   -0.6511   23.4286  -28.3353 H   0  0  0  0  0  0  0  0  0  0  0  0
   -4.1825   21.4657  -28.6218 H   0  0  0  0  0  0  0  0  0  0  0  0
   -5.0849   21.5912  -30.1699 H   0  0  0  0  0  0  0  0  0  0  0  0
   -3.3728   21.0478  -30.1699 H   0  0  0  0  0  0  0  0  0  0  0  0
   -7.0965   20.3397  -32.6857 H   0  0  0  0  0  0  0  0  0  0  0  0
   -5.7941   18.3918  -33.5429 H   0  0  0  0  0  0  0  0  0  0  0  0
    0.0440   20.2602  -32.3042 H   0  0  0  0  0  0  0  0  0  0  0  0
    0.4117   21.8180  -33.1195 H   0  0  0  0  0  0  0  0  0  0  0  0
   -1.2669   21.1786  -33.1195 H   0  0  0  0  0  0  0  0  0  0  0  0
  1  2  1  0
  2  3  2  0
  3  4  1  0
  4  5  1  0
  4  6  2  0
  6  7  1  0
  6  8  1  0
  8  9  1  0
  9 10  2  0
  9 11  2  0
  9 12  1  0
 12 13  1  0
 13 14  2  0
 14 15  1  0
 15 16  2  0
 16 17  1  0
 17 18  2  0
 17 19  2  0
 17 20  1  0
 20 21  2  3
 21 22  1  0
 22 23  1  0
 23 24  1  0
 24 25  1  0
 24 26  2  0
 26 27  1  0
 16 28  1  0
 28 29  2  0
  8 30  2  0
 30 31  1  0
 30  2  1  0
 29 13  1  0
 26 21  1  0
  1 32  1  0
  1 33  1  0
  1 34  1  0
  3 35  1  0
  5 36  1  0
  5 37  1  0
  5 38  1  0
  7 39  1  0
  7 40  1  0
  7 41  1  0
 14 42  1  0
 15 43  1  0
 25 44  1  0
 25 45  1  0
 25 46  1  0
 27 47  1  0
 27 48  1  0
 27 49  1  0
 28 50  1  0
 29 51  1  0
 31 52  1  0
 31 53  1  0
 31 54  1  0
M  CHG  2  12  -1  23  -1
M  END
>  <UniqueID>  (39) 
36

>  <SMILES>  (39) 
Cc1cc(C)c(C)c(S(=O)(=O)[N-]c2ccc(S(=O)(=O)N=c3o[n-]c(C)c3C)cc2)c1C

>  <Energy>  (39) 
111.4010800348586

>  <Genealogy>  (39) 
Cc1cc(C)c(C)c(S(=O)(=O)[N-]c2ccc(S(=O)(=O)N=c3o[n-]c(C)c3C)cc2)c1C (protonated)
Cc1cc(C)c(C)c(S(=O)(=O)[N-]c2ccc(S(=O)(=O)N=c3o[n-]c(C)c3C)cc2)c1C (3D coordinates assigned)
Cc1cc(C)c(C)c(S(=O)(=O)[N-]c2ccc(S(=O)(=O)N=c3o[n-]c(C)c3C)cc2)c1C (optimized conformer: 111.4010800348586 kcal/mol)

>  <smiles>  (39) 
Cc1cc(C)c(C)c(S(=O)(=O)Nc2ccc(S(=O)(=O)N=c3o[nH]c(C)c3C)cc2)c1C

>  <score_type>  (39) 
oracle

>  <origin>  (39) 
adgpu

>  <m_score__min__energy>  (39) 
-11.369999999999999

>  <m_primary>  (39) 
energy

$$$$
39:0
     RDKit          3D

 36 38  0  0  0  0  0  0  0  0999 V2000
   -3.8630   25.2860  -30.8150 N   0  0  0  0  0  0  0  0  0  0  0  0
   -3.3780   23.8590  -29.9700 S   0  0  0  0  0  0  0  0  0  0  0  0
   -1.9150   23.9450  -29.6350 O   0  0  0  0  0  0  0  0  0  0  0  0
   -4.1590   23.7450  -28.6920 O   0  0  0  0  0  0  0  0  0  0  0  0
   -3.6750   22.4480  -30.9810 C   0  0  0  0  0  0  0  0  0  0  0  0
   -3.4680   21.1610  -30.4700 C   0  0  0  0  0  0  0  0  0  0  0  0
   -3.6950   20.0400  -31.2740 C   0  0  0  0  0  0  0  0  0  0  0  0
   -4.1360   20.1940  -32.5980 C   0  0  0  0  0  0  0  0  0  0  0  0
   -4.3880   19.0060  -33.4520 C   0  0  0  0  0  0  0  0  0  0  0  0
   -3.3170   18.4630  -34.1830 C   0  0  0  0  0  0  0  0  0  0  0  0
   -3.4930   17.3090  -34.9480 C   0  0  0  0  0  0  0  0  0  0  0  0
   -4.7370   16.6820  -34.9940 C   0  0  0  0  0  0  0  0  0  0  0  0
   -5.8160   17.2140  -34.2840 C   0  0  0  0  0  0  0  0  0  0  0  0
   -5.6620   18.3830  -33.5170 C   0  0  0  0  0  0  0  0  0  0  0  0
   -6.8530   18.9470  -32.8360 C   0  0  0  0  0  0  0  0  0  0  0  0
   -7.2200   20.2870  -33.0480 C   0  0  0  0  0  0  0  0  0  0  0  0
   -8.3460   20.8190  -32.4110 C   0  0  0  0  0  0  0  0  0  0  0  0
   -9.1080   20.0210  -31.5550 C   0  0  0  0  0  0  0  0  0  0  0  0
   -8.7440   18.6910  -31.3280 C   0  0  0  0  0  0  0  0  0  0  0  0
   -7.6180   18.1560  -31.9620 C   0  0  0  0  0  0  0  0  0  0  0  0
   -4.3220   21.4870  -33.1140 C   0  0  0  0  0  0  0  0  0  0  0  0
   -4.0930   22.6070  -32.3090 C   0  0  0  0  0  0  0  0  0  0  0  0
   -3.9080   26.0560  -30.1130 H   0  0  0  0  0  0  0  0  0  0  0  0
   -3.1257   21.0315  -29.4327 H   0  0  0  0  0  0  0  0  0  0  0  0
   -3.5272   19.0319  -30.8671 H   0  0  0  0  0  0  0  0  0  0  0  0
   -2.3320   18.9517  -34.1518 H   0  0  0  0  0  0  0  0  0  0  0  0
   -2.6478   16.8932  -35.5161 H   0  0  0  0  0  0  0  0  0  0  0  0
   -4.8693   15.7671  -35.5902 H   0  0  0  0  0  0  0  0  0  0  0  0
   -6.7950   16.7142  -34.3251 H   0  0  0  0  0  0  0  0  0  0  0  0
   -6.6193   20.9201  -33.7176 H   0  0  0  0  0  0  0  0  0  0  0  0
   -8.6315   21.8670  -32.5845 H   0  0  0  0  0  0  0  0  0  0  0  0
   -9.9959   20.4399  -31.0588 H   0  0  0  0  0  0  0  0  0  0  0  0
   -9.3432   18.0648  -30.6506 H   0  0  0  0  0  0  0  0  0  0  0  0
   -7.3298   17.1109  -31.7756 H   0  0  0  0  0  0  0  0  0  0  0  0
   -4.6492   21.6191  -34.1559 H   0  0  0  0  0  0  0  0  0  0  0  0
   -4.2415   23.6166  -32.7196 H   0  0  0  0  0  0  0  0  0  0  0  0
  1  2  1  0
  2  3  2  0
  2  4  2  0
  2  5  1  0
  5  6  2  0
  6  7  1  0
  7  8  2  0
  8  9  1  0
  9 10  2  0
 10 11  1  0
 11 12  2  0
 12 13  1  0
 13 14  2  0
 14 15  1  0
 15 16  2  0
 16 17  1  0
 17 18  2  0
 18 19  1  0
 19 20  2  0
  8 21  1  0
 21 22  2  0
 22  5  1  0
 14  9  1  0
 20 15  1  0
  1 23  1  0
  6 24  1  0
  7 25  1  0
 10 26  1  0
 11 27  1  0
 12 28  1  0
 13 29  1  0
 16 30  1  0
 17 31  1  0
 18 32  1  0
 19 33  1  0
 20 34  1  0
 21 35  1  0
 22 36  1  0
M  CHG  1   1  -1
M  END
>  <UniqueID>  (40) 
37

>  <SMILES>  (40) 
[NH-]S(=O)(=O)c1ccc(-c2ccccc2-c2ccccc2)cc1

>  <Energy>  (40) 
51.175579540596665

>  <Genealogy>  (40) 
[NH-]S(=O)(=O)c1ccc(-c2ccccc2-c2ccccc2)cc1 (protonated)
[NH-]S(=O)(=O)c1ccc(-c2ccccc2-c2ccccc2)cc1 (3D coordinates assigned)
[NH-]S(=O)(=O)c1ccc(-c2ccccc2-c2ccccc2)cc1 (optimized conformer: 51.175579540596665 kcal/mol)

>  <smiles>  (40) 
NS(=O)(=O)c1ccc(-c2ccccc2-c2ccccc2)cc1

>  <score_type>  (40) 
oracle

>  <origin>  (40) 
adgpu

>  <m_score__min__energy>  (40) 
-11.07

>  <m_primary>  (40) 
energy

$$$$
40:0
     RDKit          3D

 26 27  0  0  0  0  0  0  0  0999 V2000
   -4.6190   19.8910  -33.4540 C   0  0  0  0  0  0  0  0  0  0  0  0
   -5.9550   19.4740  -32.9280 C   0  0  0  0  0  0  0  0  0  0  0  0
   -6.3180   18.1230  -32.9080 C   0  0  0  0  0  0  0  0  0  0  0  0
   -7.5710   17.7770  -32.3990 C   0  0  0  0  0  0  0  0  0  0  0  0
   -8.4050   18.7440  -31.9370 N   0  0  0  0  0  0  0  0  0  0  0  0
   -8.0360   20.0520  -31.9600 C   0  0  0  0  0  0  0  0  0  0  0  0
   -9.1470   21.3040  -31.3310 S   0  0  0  0  0  0  0  0  0  0  0  0
   -7.8300   22.5070  -31.1580 C   0  0  0  0  0  0  0  0  0  0  0  0
   -7.2350   22.7200  -29.9090 C   0  0  0  0  0  0  0  0  0  0  0  0
   -6.2040   23.6570  -29.7750 C   0  0  0  0  0  0  0  0  0  0  0  0
   -5.7640   24.3860  -30.8880 C   0  0  0  0  0  0  0  0  0  0  0  0
   -4.7090   25.3420  -30.7520 N   0  0  0  0  0  0  0  0  0  0  0  0
   -6.3650   24.1720  -32.1380 C   0  0  0  0  0  0  0  0  0  0  0  0
   -7.3950   23.2360  -32.2710 C   0  0  0  0  0  0  0  0  0  0  0  0
   -6.8200   20.4080  -32.4510 N   0  0  0  0  0  0  0  0  0  0  0  0
   -3.9431   20.1020  -32.6122 H   0  0  0  0  0  0  0  0  0  0  0  0
   -4.1979   19.0816  -34.0684 H   0  0  0  0  0  0  0  0  0  0  0  0
   -4.7331   20.7963  -34.0684 H   0  0  0  0  0  0  0  0  0  0  0  0
   -5.6314   17.3507  -33.2849 H   0  0  0  0  0  0  0  0  0  0  0  0
   -7.8824   16.7223  -32.3722 H   0  0  0  0  0  0  0  0  0  0  0  0
   -7.5779   22.1507  -29.0324 H   0  0  0  0  0  0  0  0  0  0  0  0
   -5.7374   23.8218  -28.7926 H   0  0  0  0  0  0  0  0  0  0  0  0
   -4.1650   25.6600  -31.5850 H   0  0  0  0  0  0  0  0  0  0  0  0
   -4.4630   25.7380  -29.8170 H   0  0  0  0  0  0  0  0  0  0  0  0
   -6.0249   24.7420  -33.0152 H   0  0  0  0  0  0  0  0  0  0  0  0
   -7.8645   23.0721  -33.2522 H   0  0  0  0  0  0  0  0  0  0  0  0
  1  2  1  0
  2  3  2  0
  3  4  1  0
  4  5  2  0
  5  6  1  0
  6  7  1  0
  7  8  1  0
  8  9  2  0
  9 10  1  0
 10 11  2  0
 11 12  1  0
 11 13  1  0
 13 14  2  0
  6 15  2  0
 15  2  1  0
 14  8  1  0
  1 16  1  0
  1 17  1  0
  1 18  1  0
  3 19  1  0
  4 20  1  0
  9 21  1  0
 10 22  1  0
 12 23  1  0
 12 24  1  0
 13 25  1  0
 14 26  1  0
M  END
>  <UniqueID>  (41) 
38

>  <SMILES>  (41) 
Cc1ccnc(Sc2ccc(N)cc2)n1

>  <Energy>  (41) 
20.92755551421284

>  <Genealogy>  (41) 
Cc1ccnc(Sc2ccc(N)cc2)n1 (3D coordinates assigned)
Cc1ccnc(Sc2ccc(N)cc2)n1 (optimized conformer: 20.92755551421284 kcal/mol)

>  <smiles>  (41) 
Cc1ccnc(Sc2ccc(N)cc2)n1

>  <score_type>  (41) 
oracle

>  <origin>  (41) 
adgpu

>  <m_score__min__energy>  (41) 
-6.9699999999999998

>  <m_primary>  (41) 
energy

$$$$
41:0
     RDKit          3D

 51 55  0  0  0  0  0  0  0  0999 V2000
   -4.3230   25.5780  -30.3890 O   0  0  0  0  0  0  0  0  0  0  0  0
   -4.4560   24.4130  -30.8500 C   0  0  0  0  0  0  0  0  0  0  0  0
   -5.4070   24.1450  -31.8870 N   0  0  0  0  0  0  0  0  0  0  0  0
   -6.5440   23.2760  -31.8020 C   0  0  0  0  0  0  0  0  0  0  0  0
   -7.8240   23.5600  -31.3490 C   0  0  0  0  0  0  0  0  0  0  0  0
   -8.5630   22.4340  -31.4170 N   0  0  0  0  0  0  0  0  0  0  0  0
   -7.7850   21.4730  -31.8950 N   0  0  0  0  0  0  0  0  0  0  0  0
   -8.3050   19.8410  -32.1320 S   0  0  0  0  0  0  0  0  0  0  0  0
   -8.7550   19.2580  -30.8210 O   0  0  0  0  0  0  0  0  0  0  0  0
   -9.4560   19.8140  -33.0990 O   0  0  0  0  0  0  0  0  0  0  0  0
   -6.9700   18.8840  -32.7670 C   0  0  0  0  0  0  0  0  0  0  0  0
   -6.4280   19.1770  -34.0260 C   0  0  0  0  0  0  0  0  0  0  0  0
   -5.3810   18.4020  -34.5380 C   0  0  0  0  0  0  0  0  0  0  0  0
   -4.8750   17.3290  -33.7960 C   0  0  0  0  0  0  0  0  0  0  0  0
   -3.5650   16.3580  -34.4390 Cl  0  0  0  0  0  0  0  0  0  0  0  0
   -5.4180   17.0300  -32.5430 C   0  0  0  0  0  0  0  0  0  0  0  0
   -6.4660   17.8030  -32.0300 C   0  0  0  0  0  0  0  0  0  0  0  0
   -6.5480   21.9430  -32.1390 C   0  0  0  0  0  0  0  0  0  0  0  0
   -3.5930   23.3160  -30.3660 C   0  0  0  0  0  0  0  0  0  0  0  0
   -3.5000   22.1920  -31.1280 N   0  0  0  0  0  0  0  0  0  0  0  0
   -2.6910   21.1440  -30.8130 C   0  0  0  0  0  0  0  0  0  0  0  0
   -2.6950   19.9540  -31.7530 C   0  0  0  0  0  0  0  0  0  0  0  0
   -3.0890   20.2080  -33.2000 C   0  0  0  0  0  0  0  0  0  0  0  0
   -1.6350   19.9250  -32.8440 C   0  0  0  0  0  0  0  0  0  0  0  0
   -1.8950   21.2250  -29.6540 C   0  0  0  0  0  0  0  0  0  0  0  0
   -1.9770   22.3550  -28.8420 C   0  0  0  0  0  0  0  0  0  0  0  0
   -2.8470   23.4010  -29.1680 C   0  0  0  0  0  0  0  0  0  0  0  0
   -2.9650   24.5110  -28.2630 N   0  0  0  0  0  0  0  0  0  0  0  0
   -1.8760   25.0130  -27.4620 C   0  0  0  0  0  0  0  0  0  0  0  0
   -0.7020   25.5310  -28.0340 C   0  0  0  0  0  0  0  0  0  0  0  0
    0.2930   26.0020  -27.2360 N   0  0  0  0  0  0  0  0  0  0  0  0
    0.1690   25.9880  -25.8830 C   0  0  0  0  0  0  0  0  0  0  0  0
   -0.9620   25.5030  -25.3070 N   0  0  0  0  0  0  0  0  0  0  0  0
   -1.9810   25.0200  -26.0660 C   0  0  0  0  0  0  0  0  0  0  0  0
   -8.1770   24.5394  -30.9939 H   0  0  0  0  0  0  0  0  0  0  0  0
   -6.8263   20.0178  -34.6129 H   0  0  0  0  0  0  0  0  0  0  0  0
   -4.9554   18.6367  -35.5248 H   0  0  0  0  0  0  0  0  0  0  0  0
   -5.0211   16.1862  -31.9595 H   0  0  0  0  0  0  0  0  0  0  0  0
   -6.8952   17.5618  -31.0463 H   0  0  0  0  0  0  0  0  0  0  0  0
   -5.6980   21.3677  -32.5346 H   0  0  0  0  0  0  0  0  0  0  0  0
   -3.0243   19.2565  -30.9688 H   0  0  0  0  0  0  0  0  0  0  0  0
   -3.6767   19.4582  -33.7498 H   0  0  0  0  0  0  0  0  0  0  0  0
   -3.6172   21.0125  -33.7328 H   0  0  0  0  0  0  0  0  0  0  0  0
   -1.1726   18.9708  -33.1366 H   0  0  0  0  0  0  0  0  0  0  0  0
   -0.6780   20.4403  -33.0130 H   0  0  0  0  0  0  0  0  0  0  0  0
   -1.2135   20.4024  -29.3914 H   0  0  0  0  0  0  0  0  0  0  0  0
   -1.3533   22.4248  -27.9386 H   0  0  0  0  0  0  0  0  0  0  0  0
   -3.8380   25.0830  -28.3170 H   0  0  0  0  0  0  0  0  0  0  0  0
   -0.5877   25.5555  -29.1278 H   0  0  0  0  0  0  0  0  0  0  0  0
    0.9857   26.3700  -25.2528 H   0  0  0  0  0  0  0  0  0  0  0  0
   -2.8902   24.6337  -25.5822 H   0  0  0  0  0  0  0  0  0  0  0  0
  1  2  2  0
  2  3  1  0
  3  4  1  0
  4  5  1  0
  5  6  2  0
  6  7  1  0
  7  8  1  0
  8  9  2  0
  8 10  2  0
  8 11  1  0
 11 12  2  0
 12 13  1  0
 13 14  2  0
 14 15  1  0
 14 16  1  0
 16 17  2  0
  7 18  1  0
  2 19  1  0
 19 20  2  0
 20 21  1  0
 21 22  1  0
 22 23  1  0
 23 24  1  0
 21 25  2  0
 25 26  1  0
 26 27  2  0
 27 28  1  0
 28 29  1  0
 29 30  2  0
 30 31  1  0
 31 32  2  0
 32 33  1  0
 33 34  2  0
 18  4  2  0
 27 19  1  0
 34 29  1  0
 17 11  1  0
 24 22  1  0
  5 35  1  0
 12 36  1  0
 13 37  1  0
 16 38  1  0
 17 39  1  0
 18 40  1  0
 22 41  1  0
 23 42  1  0
 23 43  1  0
 24 44  1  0
 24 45  1  0
 25 46  1  0
 26 47  1  0
 28 48  1  0
 30 49  1  0
 32 50  1  0
 34 51  1  0
M  CHG  1   3  -1
M  END
>  <UniqueID>  (42) 
39

>  <SMILES>  (42) 
O=C([N-]c1cnn(S(=O)(=O)c2ccc(Cl)cc2)c1)c1nc(C2CC2)ccc1Nc1cncnc1

>  <Energy>  (42) 
369.8392145087886

>  <Genealogy>  (42) 
O=C([N-]c1cnn(S(=O)(=O)c2ccc(Cl)cc2)c1)c1nc(C2CC2)ccc1Nc1cncnc1 (protonated)
O=C([N-]c1cnn(S(=O)(=O)c2ccc(Cl)cc2)c1)c1nc(C2CC2)ccc1Nc1cncnc1 (3D coordinates assigned)
O=C([N-]c1cnn(S(=O)(=O)c2ccc(Cl)cc2)c1)c1nc(C2CC2)ccc1Nc1cncnc1 (nonaromatic ring conformer: 369.8392145087886 kcal/mol)

>  <smiles>  (42) 
O=C(Nc1cnn(S(=O)(=O)c2ccc(Cl)cc2)c1)c1nc(C2CC2)ccc1Nc1cncnc1

>  <score_type>  (42) 
oracle

>  <origin>  (42) 
adgpu

>  <m_score__min__energy>  (42) 
-11.6

>  <m_primary>  (42) 
energy

$$$$
42:0
     RDKit          3D

 59 62  0  0  0  0  0  0  0  0999 V2000
   -1.1050   26.7730  -23.3850 C   0  0  0  0  0  0  0  0  0  0  0  0
   -0.5700   26.0310  -24.5750 C   0  0  0  0  0  0  0  0  0  0  0  0
   -0.4340   24.6360  -24.5340 C   0  0  0  0  0  0  0  0  0  0  0  0
    0.1000   23.9460  -25.6270 C   0  0  0  0  0  0  0  0  0  0  0  0
    0.5080   24.6450  -26.7730 C   0  0  0  0  0  0  0  0  0  0  0  0
    1.1390   23.9120  -27.9250 C   0  0  0  0  0  0  0  0  0  0  0  0
    0.1670   23.6540  -28.9380 O   0  0  0  0  0  0  0  0  0  0  0  0
   -0.9410   22.8340  -28.7070 C   0  0  0  0  0  0  0  0  0  0  0  0
   -0.7230   21.5050  -28.3140 C   0  0  0  0  0  0  0  0  0  0  0  0
    0.5420   21.0300  -28.1950 F   0  0  0  0  0  0  0  0  0  0  0  0
   -1.8020   20.6700  -28.0200 C   0  0  0  0  0  0  0  0  0  0  0  0
   -3.1060   21.1520  -28.1250 C   0  0  0  0  0  0  0  0  0  0  0  0
   -3.3380   22.4650  -28.5390 C   0  0  0  0  0  0  0  0  0  0  0  0
   -2.2640   23.3200  -28.8490 C   0  0  0  0  0  0  0  0  0  0  0  0
   -2.5450   24.6900  -29.3460 C   0  0  0  0  0  0  0  0  0  0  0  0
   -2.0050   25.6880  -28.7960 O   0  0  0  0  0  0  0  0  0  0  0  0
   -3.4550   24.8790  -30.4390 N   0  0  0  0  0  0  0  0  0  0  0  0
   -4.7260   24.2350  -30.6150 C   0  0  0  0  0  0  0  0  0  0  0  0
   -5.9320   24.8540  -30.2490 C   0  0  0  0  0  0  0  0  0  0  0  0
   -7.1480   24.2060  -30.4660 C   0  0  0  0  0  0  0  0  0  0  0  0
   -7.1860   22.9390  -31.0580 C   0  0  0  0  0  0  0  0  0  0  0  0
   -8.7690   22.2140  -31.3120 Cl  0  0  0  0  0  0  0  0  0  0  0  0
   -5.9780   22.3110  -31.4440 C   0  0  0  0  0  0  0  0  0  0  0  0
   -5.9210   20.7250  -32.2380 S   0  0  0  0  0  0  0  0  0  0  0  0
   -6.6950   19.7500  -31.3940 O   0  0  0  0  0  0  0  0  0  0  0  0
   -6.5590   20.7660  -33.5980 O   0  0  0  0  0  0  0  0  0  0  0  0
   -4.2630   20.1820  -32.3660 N   0  0  0  0  0  0  0  0  0  0  0  0
   -3.5150   21.0540  -33.2940 C   0  0  0  0  0  0  0  0  0  0  0  0
   -2.2450   20.3460  -33.7960 C   0  0  0  0  0  0  0  0  0  0  0  0
   -2.4870   19.1230  -34.4840 O   0  0  0  0  0  0  0  0  0  0  0  0
   -3.7590   18.5540  -34.2080 C   0  0  0  0  0  0  0  0  0  0  0  0
   -4.1990   18.7480  -32.7450 C   0  0  0  0  0  0  0  0  0  0  0  0
   -4.7620   22.9800  -31.2310 C   0  0  0  0  0  0  0  0  0  0  0  0
    0.4010   26.0440  -26.8020 C   0  0  0  0  0  0  0  0  0  0  0  0
   -0.1340   26.7330  -25.7100 C   0  0  0  0  0  0  0  0  0  0  0  0
   -0.7548   26.2873  -22.4622 H   0  0  0  0  0  0  0  0  0  0  0  0
   -0.7476   27.8130  -23.4103 H   0  0  0  0  0  0  0  0  0  0  0  0
   -2.2047   26.7625  -23.4103 H   0  0  0  0  0  0  0  0  0  0  0  0
   -0.7489   24.0816  -23.6376 H   0  0  0  0  0  0  0  0  0  0  0  0
    0.2005   22.8513  -25.5880 H   0  0  0  0  0  0  0  0  0  0  0  0
    1.9486   24.5260  -28.3464 H   0  0  0  0  0  0  0  0  0  0  0  0
    1.5424   22.9548  -27.5631 H   0  0  0  0  0  0  0  0  0  0  0  0
   -1.6235   19.6312  -27.7053 H   0  0  0  0  0  0  0  0  0  0  0  0
   -3.9545   20.4959  -27.8810 H   0  0  0  0  0  0  0  0  0  0  0  0
   -4.3705   22.8349  -28.6237 H   0  0  0  0  0  0  0  0  0  0  0  0
   -5.9178   25.8534  -29.7896 H   0  0  0  0  0  0  0  0  0  0  0  0
   -8.0867   24.6962  -30.1686 H   0  0  0  0  0  0  0  0  0  0  0  0
   -3.8420   20.2860  -31.4130 H   0  0  0  0  0  0  0  0  0  0  0  0
   -4.1553   21.3008  -34.1537 H   0  0  0  0  0  0  0  0  0  0  0  0
   -3.2231   21.9713  -32.7617 H   0  0  0  0  0  0  0  0  0  0  0  0
   -1.7187   21.0276  -34.4804 H   0  0  0  0  0  0  0  0  0  0  0  0
   -1.6530   20.0930  -32.9041 H   0  0  0  0  0  0  0  0  0  0  0  0
   -4.5046   19.0268  -34.8641 H   0  0  0  0  0  0  0  0  0  0  0  0
   -3.6819   17.4716  -34.3882 H   0  0  0  0  0  0  0  0  0  0  0  0
   -5.1954   18.3013  -32.6122 H   0  0  0  0  0  0  0  0  0  0  0  0
   -3.4535   18.2603  -32.0998 H   0  0  0  0  0  0  0  0  0  0  0  0
   -3.8219   22.5090  -31.5541 H   0  0  0  0  0  0  0  0  0  0  0  0
    0.7397   26.6008  -27.6881 H   0  0  0  0  0  0  0  0  0  0  0  0
   -0.2138   27.8297  -25.7399 H   0  0  0  0  0  0  0  0  0  0  0  0
  1  2  1  0
  2  3  2  0
  3  4  1  0
  4  5  2  0
  5  6  1  0
  6  7  1  0
  7  8  1  0
  8  9  2  0
  9 10  1  0
  9 11  1  0
 11 12  2  0
 12 13  1  0
 13 14  2  0
 14 15  1  0
 15 16  2  0
 15 17  1  0
 17 18  1  0
 18 19  2  0
 19 20  1  0
 20 21  2  0
 21 22  1  0
 21 23  1  0
 23 24  1  0
 24 25  2  0
 24 26  2  0
 24 27  1  0
 27 28  1  0
 28 29  1  0
 29 30  1  0
 30 31  1  0
 31 32  1  0
 23 33  2  0
  5 34  1  0
 34 35  2  0
 35  2  1  0
 14  8  1  0
 33 18  1  0
 32 27  1  0
  1 36  1  0
  1 37  1  0
  1 38  1  0
  3 39  1  0
  4 40  1  0
  6 41  1  0
  6 42  1  0
 11 43  1  0
 12 44  1  0
 13 45  1  0
 19 46  1  0
 20 47  1  0
 27 48  1  0
 28 49  1  0
 28 50  1  0
 29 51  1  0
 29 52  1  0
 31 53  1  0
 31 54  1  0
 32 55  1  0
 32 56  1  0
 33 57  1  0
 34 58  1  0
 35 59  1  0
M  CHG  2  17  -1  27   1
M  END
>  <UniqueID>  (43) 
40

>  <SMILES>  (43) 
Cc1ccc(COc2c(F)cccc2C(=O)[N-]c2ccc(Cl)c(S(=O)(=O)[NH+]3CCOCC3)c2)cc1

>  <Energy>  (43) 
88.03953277361389

>  <Genealogy>  (43) 
Cc1ccc(COc2c(F)cccc2C(=O)[N-]c2ccc(Cl)c(S(=O)(=O)[NH+]3CCOCC3)c2)cc1 (protonated)
Cc1ccc(COc2c(F)cccc2C(=O)[N-]c2ccc(Cl)c(S(=O)(=O)[NH+]3CCOCC3)c2)cc1 (3D coordinates assigned)
Cc1ccc(COc2c(F)cccc2C(=O)[N-]c2ccc(Cl)c(S(=O)(=O)[NH+]3CCOCC3)c2)cc1 (nonaromatic ring conformer: 88.03953277361389 kcal/mol)

>  <smiles>  (43) 
Cc1ccc(COc2c(F)cccc2C(=O)Nc2ccc(Cl)c(S(=O)(=O)N3CCOCC3)c2)cc1

>  <score_type>  (43) 
oracle

>  <origin>  (43) 
adgpu

>  <m_score__min__energy>  (43) 
-10.960000000000001

>  <m_primary>  (43) 
energy

$$$$
43:0
     RDKit          3D

 57 62  0  0  0  0  0  0  0  0999 V2000
   -2.1270   26.1070  -25.8250 C   0  0  0  0  0  0  0  0  0  0  0  0
   -1.7010   25.3470  -27.0360 C   0  0  0  0  0  0  0  0  0  0  0  0
   -1.4440   25.9240  -28.2260 N   0  0  0  0  0  0  0  0  0  0  0  0
   -1.0560   24.9480  -28.9890 O   0  0  0  0  0  0  0  0  0  0  0  0
   -1.0620   23.8270  -28.3080 C   0  0  0  0  0  0  0  0  0  0  0  0
   -0.6700   22.5260  -28.8580 C   0  0  0  0  0  0  0  0  0  0  0  0
   -0.4520   22.2410  -30.1960 C   0  0  0  0  0  0  0  0  0  0  0  0
   -0.0870   20.9030  -30.4270 C   0  0  0  0  0  0  0  0  0  0  0  0
   -0.0200   20.1190  -29.2740 C   0  0  0  0  0  0  0  0  0  0  0  0
   -0.4160   21.1270  -27.9720 S   0  0  0  0  0  0  0  0  0  0  0  0
    0.4110   18.6920  -29.1480 C   0  0  0  0  0  0  0  0  0  0  0  0
    0.9570   18.3230  -27.8960 C   0  0  0  0  0  0  0  0  0  0  0  0
    1.4450   17.0440  -27.6590 C   0  0  0  0  0  0  0  0  0  0  0  0
    1.4170   16.0960  -28.6650 C   0  0  0  0  0  0  0  0  0  0  0  0
    0.8870   16.4160  -29.9100 C   0  0  0  0  0  0  0  0  0  0  0  0
    0.3520   17.7000  -30.1940 C   0  0  0  0  0  0  0  0  0  0  0  0
   -0.2320   17.9270  -31.5190 N   0  0  0  0  0  0  0  0  0  0  0  0
   -0.2700   16.8630  -32.4870 C   0  0  0  0  0  0  0  0  0  0  0  0
    0.8170   16.3920  -32.9180 O   0  0  0  0  0  0  0  0  0  0  0  0
   -1.5620   16.3360  -32.9910 C   0  0  0  0  0  0  0  0  0  0  0  0
   -2.0960   15.1420  -32.4730 C   0  0  0  0  0  0  0  0  0  0  0  0
   -3.3170   14.6490  -32.9400 C   0  0  0  0  0  0  0  0  0  0  0  0
   -4.0190   15.3320  -33.9460 C   0  0  0  0  0  0  0  0  0  0  0  0
   -5.2810   14.8580  -34.4390 N   0  0  0  0  0  0  0  0  0  0  0  0
   -6.5360   15.5460  -34.3370 C   0  0  0  0  0  0  0  0  0  0  0  0
   -7.5880   14.9370  -34.6650 O   0  0  0  0  0  0  0  0  0  0  0  0
   -6.6390   16.9250  -33.8140 C   0  0  0  0  0  0  0  0  0  0  0  0
   -6.1160   18.0200  -34.5240 C   0  0  0  0  0  0  0  0  0  0  0  0
   -6.2290   19.3020  -33.9860 C   0  0  0  0  0  0  0  0  0  0  0  0
   -6.8460   19.4860  -32.7480 C   0  0  0  0  0  0  0  0  0  0  0  0
   -7.3380   18.3760  -32.0600 C   0  0  0  0  0  0  0  0  0  0  0  0
   -7.2220   17.1340  -32.6000 N   0  0  0  0  0  0  0  0  0  0  0  0
   -3.5020   16.5300  -34.4500 C   0  0  0  0  0  0  0  0  0  0  0  0
   -2.2800   17.0260  -33.9850 C   0  0  0  0  0  0  0  0  0  0  0  0
   -0.8730   19.1740  -31.9470 C   0  0  0  0  0  0  0  0  0  0  0  0
    0.0800   20.3490  -31.7950 C   0  0  0  0  0  0  0  0  0  0  0  0
   -1.4620   24.0190  -27.0370 N   0  0  0  0  0  0  0  0  0  0  0  0
   -1.8201   25.5594  -24.9217 H   0  0  0  0  0  0  0  0  0  0  0  0
   -1.6541   27.1001  -25.8302 H   0  0  0  0  0  0  0  0  0  0  0  0
   -3.2210   26.2218  -25.8302 H   0  0  0  0  0  0  0  0  0  0  0  0
   -0.5543   22.9871  -30.9978 H   0  0  0  0  0  0  0  0  0  0  0  0
    0.9962   19.0689  -27.0885 H   0  0  0  0  0  0  0  0  0  0  0  0
    1.8537   16.7856  -26.6710 H   0  0  0  0  0  0  0  0  0  0  0  0
    1.8146   15.0872  -28.4802 H   0  0  0  0  0  0  0  0  0  0  0  0
    0.8821   15.6503  -30.6997 H   0  0  0  0  0  0  0  0  0  0  0  0
   -1.5477   14.5921  -31.6939 H   0  0  0  0  0  0  0  0  0  0  0  0
   -3.7303   13.7213  -32.5175 H   0  0  0  0  0  0  0  0  0  0  0  0
   -5.6222   17.8671  -35.4950 H   0  0  0  0  0  0  0  0  0  0  0  0
   -5.8321   20.1672  -34.5372 H   0  0  0  0  0  0  0  0  0  0  0  0
   -6.9434   20.4943  -32.3193 H   0  0  0  0  0  0  0  0  0  0  0  0
   -7.8201   18.5063  -31.0799 H   0  0  0  0  0  0  0  0  0  0  0  0
   -4.0606   17.0858  -35.2175 H   0  0  0  0  0  0  0  0  0  0  0  0
   -1.8773   17.9621  -34.3992 H   0  0  0  0  0  0  0  0  0  0  0  0
   -1.1692   19.0837  -33.0025 H   0  0  0  0  0  0  0  0  0  0  0  0
   -1.7564   19.3517  -31.3161 H   0  0  0  0  0  0  0  0  0  0  0  0
    1.1167   20.0092  -31.9359 H   0  0  0  0  0  0  0  0  0  0  0  0
   -0.1409   21.1195  -32.5483 H   0  0  0  0  0  0  0  0  0  0  0  0
  1  2  1  0
  2  3  2  0
  3  4  1  0
  4  5  1  0
  5  6  1  0
  6  7  2  0
  7  8  1  0
  8  9  2  0
  9 10  1  0
  9 11  1  0
 11 12  2  0
 12 13  1  0
 13 14  2  0
 14 15  1  0
 15 16  2  0
 16 17  1  0
 17 18  1  0
 18 19  2  0
 18 20  1  0
 20 21  2  0
 21 22  1  0
 22 23  2  0
 23 24  1  0
 24 25  1  0
 25 26  2  0
 25 27  1  0
 27 28  2  0
 28 29  1  0
 29 30  2  0
 30 31  1  0
 31 32  2  0
 23 33  1  0
 33 34  2  0
 17 35  1  0
 35 36  1  0
  5 37  2  0
 37  2  1  0
 10  6  1  0
 16 11  1  0
 34 20  1  0
 36  8  1  0
 32 27  1  0
  1 38  1  0
  1 39  1  0
  1 40  1  0
  7 41  1  0
 12 42  1  0
 13 43  1  0
 14 44  1  0
 15 45  1  0
 21 46  1  0
 22 47  1  0
 28 48  1  0
 29 49  1  0
 30 50  1  0
 31 51  1  0
 33 52  1  0
 34 53  1  0
 35 54  1  0
 35 55  1  0
 36 56  1  0
 36 57  1  0
M  CHG  1  24  -1
M  END
>  <UniqueID>  (44) 
41

>  <SMILES>  (44) 
Cc1noc(-c2cc3c(s2)-c2ccccc2N(C(=O)c2ccc([N-]C(=O)c4ccccn4)cc2)CC3)n1

>  <Energy>  (44) 
152.91615582481026

>  <Genealogy>  (44) 
Cc1noc(-c2cc3c(s2)-c2ccccc2N(C(=O)c2ccc([N-]C(=O)c4ccccn4)cc2)CC3)n1 (protonated)
Cc1noc(-c2cc3c(s2)-c2ccccc2N(C(=O)c2ccc([N-]C(=O)c4ccccn4)cc2)CC3)n1 (3D coordinates assigned)
Cc1noc(-c2cc3c(s2)-c2ccccc2N(C(=O)c2ccc([N-]C(=O)c4ccccn4)cc2)CC3)n1 (nonaromatic ring conformer: 152.91615582481026 kcal/mol)

>  <smiles>  (44) 
Cc1noc(-c2cc3c(s2)-c2ccccc2N(C(=O)c2ccc(NC(=O)c4ccccn4)cc2)CC3)n1

>  <score_type>  (44) 
oracle

>  <origin>  (44) 
adgpu

>  <m_score__min__energy>  (44) 
-10.369999999999999

>  <m_primary>  (44) 
energy

$$$$
44:0
     RDKit          3D

 41 42  0  0  0  0  0  0  0  0999 V2000
   -8.8590   20.1030  -32.3690 C   0  0  0  0  0  0  0  0  0  0  0  0
   -9.0990   21.4610  -31.8020 C   0  0  0  0  0  0  0  0  0  0  0  0
   -9.8780   21.5930  -30.8200 O   0  0  0  0  0  0  0  0  0  0  0  0
   -8.3830   22.5860  -32.3300 N   0  0  0  0  0  0  0  0  0  0  0  0
   -7.1740   23.1530  -31.8040 C   0  0  0  0  0  0  0  0  0  0  0  0
   -7.1820   24.2700  -30.9510 C   0  0  0  0  0  0  0  0  0  0  0  0
   -5.9810   24.8060  -30.4820 C   0  0  0  0  0  0  0  0  0  0  0  0
   -4.7540   24.2560  -30.8770 C   0  0  0  0  0  0  0  0  0  0  0  0
   -3.5320   24.8190  -30.3700 N   0  0  0  0  0  0  0  0  0  0  0  0
   -2.8280   24.3190  -29.2210 C   0  0  0  0  0  0  0  0  0  0  0  0
   -3.3250   23.1940  -28.5520 C   0  0  0  0  0  0  0  0  0  0  0  0
   -2.6570   22.6840  -27.4390 C   0  0  0  0  0  0  0  0  0  0  0  0
   -1.4930   23.2990  -26.9750 C   0  0  0  0  0  0  0  0  0  0  0  0
   -0.9970   24.4480  -27.6130 C   0  0  0  0  0  0  0  0  0  0  0  0
    0.4700   25.2190  -26.9910 S   0  0  0  0  0  0  0  0  0  0  0  0
    1.5480   25.1730  -28.0370 O   0  0  0  0  0  0  0  0  0  0  0  0
    0.1800   26.6650  -26.6930 O   0  0  0  0  0  0  0  0  0  0  0  0
    1.0390   24.4360  -25.5370 N   0  0  0  0  0  0  0  0  0  0  0  0
    2.3180   25.0230  -25.1220 C   0  0  0  0  0  0  0  0  0  0  0  0
    0.0460   24.5830  -24.4660 C   0  0  0  0  0  0  0  0  0  0  0  0
   -1.6780   24.9680  -28.7290 C   0  0  0  0  0  0  0  0  0  0  0  0
   -1.2280   26.1350  -29.3410 O   0  0  0  0  0  0  0  0  0  0  0  0
   -4.7480   23.1400  -31.7320 C   0  0  0  0  0  0  0  0  0  0  0  0
   -5.9490   22.6050  -32.2010 C   0  0  0  0  0  0  0  0  0  0  0  0
   -8.7313   19.3807  -31.5492 H   0  0  0  0  0  0  0  0  0  0  0  0
   -9.7187   19.8069  -32.9880 H   0  0  0  0  0  0  0  0  0  0  0  0
   -7.9499   20.1195  -32.9880 H   0  0  0  0  0  0  0  0  0  0  0  0
   -8.1383   24.7238  -30.6517 H   0  0  0  0  0  0  0  0  0  0  0  0
   -5.9981   25.6666  -29.7972 H   0  0  0  0  0  0  0  0  0  0  0  0
   -3.1690   25.6880  -30.8250 H   0  0  0  0  0  0  0  0  0  0  0  0
   -4.2471   22.7099  -28.9061 H   0  0  0  0  0  0  0  0  0  0  0  0
   -3.0488   21.7939  -26.9250 H   0  0  0  0  0  0  0  0  0  0  0  0
   -0.9621   22.8823  -26.1064 H   0  0  0  0  0  0  0  0  0  0  0  0
    2.3710   25.0473  -24.0235 H   0  0  0  0  0  0  0  0  0  0  0  0
    3.1456   24.4146  -25.5157 H   0  0  0  0  0  0  0  0  0  0  0  0
    2.3963   26.0472  -25.5157 H   0  0  0  0  0  0  0  0  0  0  0  0
    0.5465   24.5089  -23.4893 H   0  0  0  0  0  0  0  0  0  0  0  0
   -0.4448   25.5636  -24.5531 H   0  0  0  0  0  0  0  0  0  0  0  0
   -0.7078   23.7867  -24.5531 H   0  0  0  0  0  0  0  0  0  0  0  0
   -3.7922   22.6862  -32.0329 H   0  0  0  0  0  0  0  0  0  0  0  0
   -5.9324   21.7460  -32.8879 H   0  0  0  0  0  0  0  0  0  0  0  0
  1  2  1  0
  2  3  2  0
  2  4  1  0
  4  5  1  0
  5  6  2  0
  6  7  1  0
  7  8  2  0
  8  9  1  0
  9 10  1  0
 10 11  2  0
 11 12  1  0
 12 13  2  0
 13 14  1  0
 14 15  1  0
 15 16  2  0
 15 17  2  0
 15 18  1  0
 18 19  1  0
 18 20  1  0
 14 21  2  0
 21 22  1  0
  8 23  1  0
 23 24  2  0
 24  5  1  0
 21 10  1  0
  1 25  1  0
  1 26  1  0
  1 27  1  0
  6 28  1  0
  7 29  1  0
  9 30  1  0
 11 31  1  0
 12 32  1  0
 13 33  1  0
 19 34  1  0
 19 35  1  0
 19 36  1  0
 20 37  1  0
 20 38  1  0
 20 39  1  0
 23 40  1  0
 24 41  1  0
M  CHG  2   4  -1  22  -1
M  END
>  <UniqueID>  (45) 
42

>  <SMILES>  (45) 
CC(=O)[N-]c1ccc(Nc2cccc(S(=O)(=O)N(C)C)c2[O-])cc1

>  <Energy>  (45) 
47.650027296029954

>  <Genealogy>  (45) 
CC(=O)[N-]c1ccc(Nc2cccc(S(=O)(=O)N(C)C)c2[O-])cc1 (protonated)
CC(=O)[N-]c1ccc(Nc2cccc(S(=O)(=O)N(C)C)c2[O-])cc1 (3D coordinates assigned)
CC(=O)[N-]c1ccc(Nc2cccc(S(=O)(=O)N(C)C)c2[O-])cc1 (optimized conformer: 47.650027296029954 kcal/mol)

>  <smiles>  (45) 
CC(=O)Nc1ccc(Nc2cccc(S(=O)(=O)N(C)C)c2O)cc1

>  <score_type>  (45) 
oracle

>  <origin>  (45) 
adgpu

>  <m_score__min__energy>  (45) 
-11.31

>  <m_primary>  (45) 
energy

$$$$
45:0
     RDKit          3D

 24 25  0  0  0  0  0  0  0  0999 V2000
   -5.4620   26.4270  -30.4680 O   0  0  0  0  0  0  0  0  0  0  0  0
   -4.9260   25.2950  -30.6190 C   0  0  0  0  0  0  0  0  0  0  0  0
   -3.5100   25.1400  -30.4460 N   0  0  0  0  0  0  0  0  0  0  0  0
   -2.8480   24.4800  -29.3580 C   0  0  0  0  0  0  0  0  0  0  0  0
   -3.4530   23.4480  -28.6230 C   0  0  0  0  0  0  0  0  0  0  0  0
   -2.7700   22.8590  -27.5560 C   0  0  0  0  0  0  0  0  0  0  0  0
   -1.4940   23.3170  -27.2240 C   0  0  0  0  0  0  0  0  0  0  0  0
   -0.9310   24.3340  -27.9290 N   0  0  0  0  0  0  0  0  0  0  0  0
   -1.5760   24.9220  -28.9710 C   0  0  0  0  0  0  0  0  0  0  0  0
   -5.7700   24.1150  -30.9220 C   0  0  0  0  0  0  0  0  0  0  0  0
   -5.5200   23.3280  -32.0620 C   0  0  0  0  0  0  0  0  0  0  0  0
   -6.3200   22.2170  -32.3460 C   0  0  0  0  0  0  0  0  0  0  0  0
   -7.3760   21.8770  -31.4980 C   0  0  0  0  0  0  0  0  0  0  0  0
   -8.4670   20.3580  -31.8880 Br  0  0  0  0  0  0  0  0  0  0  0  0
   -7.6350   22.6510  -30.3630 C   0  0  0  0  0  0  0  0  0  0  0  0
   -6.8390   23.7630  -30.0750 C   0  0  0  0  0  0  0  0  0  0  0  0
   -4.4638   23.1035  -28.8870 H   0  0  0  0  0  0  0  0  0  0  0  0
   -3.2334   22.0422  -26.9831 H   0  0  0  0  0  0  0  0  0  0  0  0
   -0.9435   22.8548  -26.3913 H   0  0  0  0  0  0  0  0  0  0  0  0
   -1.0964   25.7499  -29.5137 H   0  0  0  0  0  0  0  0  0  0  0  0
   -4.6893   23.5889  -32.7342 H   0  0  0  0  0  0  0  0  0  0  0  0
   -6.1169   21.6091  -33.2400 H   0  0  0  0  0  0  0  0  0  0  0  0
   -8.4673   22.3841  -29.6951 H   0  0  0  0  0  0  0  0  0  0  0  0
   -7.0488   24.3677  -29.1804 H   0  0  0  0  0  0  0  0  0  0  0  0
  1  2  2  0
  2  3  1  0
  3  4  1  0
  4  5  2  0
  5  6  1  0
  6  7  2  0
  7  8  1  0
  8  9  2  0
  2 10  1  0
 10 11  2  0
 11 12  1  0
 12 13  2  0
 13 14  1  0
 13 15  1  0
 15 16  2  0
  9  4  1  0
 16 10  1  0
  5 17  1  0
  6 18  1  0
  7 19  1  0
  9 20  1  0
 11 21  1  0
 12 22  1  0
 15 23  1  0
 16 24  1  0
M  CHG  1   3  -1
M  END
>  <UniqueID>  (46) 
43

>  <SMILES>  (46) 
O=C([N-]c1cccnc1)c1ccc(Br)cc1

>  <Energy>  (46) 
29.906142484353857

>  <Genealogy>  (46) 
O=C([N-]c1cccnc1)c1ccc(Br)cc1 (protonated)
O=C([N-]c1cccnc1)c1ccc(Br)cc1 (3D coordinates assigned)
O=C([N-]c1cccnc1)c1ccc(Br)cc1 (optimized conformer: 29.906142484353857 kcal/mol)

>  <smiles>  (46) 
O=C(Nc1cccnc1)c1ccc(Br)cc1

>  <score_type>  (46) 
oracle

>  <origin>  (46) 
adgpu

>  <m_score__min__energy>  (46) 
-8.4900000000000002

>  <m_primary>  (46) 
energy

$$$$
46:0
     RDKit          3D

 28 29  0  0  0  0  0  0  0  0999 V2000
   -4.6300   22.7460  -32.7690 N   0  0  0  0  0  0  0  0  0  0  0  0
   -5.8690   22.4900  -32.0920 C   0  0  0  0  0  0  0  0  0  0  0  0
   -6.6530   21.4010  -32.5100 C   0  0  0  0  0  0  0  0  0  0  0  0
   -7.8640   21.1140  -31.8800 C   0  0  0  0  0  0  0  0  0  0  0  0
   -8.3080   21.9090  -30.8240 C   0  0  0  0  0  0  0  0  0  0  0  0
   -7.5420   22.9960  -30.3960 C   0  0  0  0  0  0  0  0  0  0  0  0
   -6.3200   23.3000  -31.0200 C   0  0  0  0  0  0  0  0  0  0  0  0
   -5.3890   24.6900  -30.4470 S   0  0  0  0  0  0  0  0  0  0  0  0
   -5.7660   25.9210  -31.2230 O   0  0  0  0  0  0  0  0  0  0  0  0
   -5.6830   24.9130  -28.9900 O   0  0  0  0  0  0  0  0  0  0  0  0
   -3.7000   24.3700  -30.6770 N   0  0  0  0  0  0  0  0  0  0  0  0
   -2.8640   23.6390  -29.7690 C   0  0  0  0  0  0  0  0  0  0  0  0
   -3.0550   22.2680  -29.5190 C   0  0  0  0  0  0  0  0  0  0  0  0
   -2.2170   21.5910  -28.6260 C   0  0  0  0  0  0  0  0  0  0  0  0
   -1.1870   22.2740  -27.9770 C   0  0  0  0  0  0  0  0  0  0  0  0
   -0.9900   23.6360  -28.2190 C   0  0  0  0  0  0  0  0  0  0  0  0
   -1.8260   24.3180  -29.1110 C   0  0  0  0  0  0  0  0  0  0  0  0
   -1.6180   25.6740  -29.3430 O   0  0  0  0  0  0  0  0  0  0  0  0
   -4.5860   22.7370  -33.8120 H   0  0  0  0  0  0  0  0  0  0  0  0
   -3.7410   22.9420  -32.2600 H   0  0  0  0  0  0  0  0  0  0  0  0
   -6.3084   20.7690  -33.3418 H   0  0  0  0  0  0  0  0  0  0  0  0
   -8.4694   20.2595  -32.2166 H   0  0  0  0  0  0  0  0  0  0  0  0
   -9.2624   21.6800  -30.3274 H   0  0  0  0  0  0  0  0  0  0  0  0
   -7.8986   23.6197  -29.5630 H   0  0  0  0  0  0  0  0  0  0  0  0
   -3.8661   21.7261  -30.0274 H   0  0  0  0  0  0  0  0  0  0  0  0
   -2.3702   20.5186  -28.4351 H   0  0  0  0  0  0  0  0  0  0  0  0
   -0.5301   21.7398  -27.2748 H   0  0  0  0  0  0  0  0  0  0  0  0
   -0.1772   24.1729  -27.7081 H   0  0  0  0  0  0  0  0  0  0  0  0
  1  2  1  0
  2  3  2  0
  3  4  1  0
  4  5  2  0
  5  6  1  0
  6  7  2  0
  7  8  1  0
  8  9  2  0
  8 10  2  0
  8 11  1  0
 11 12  1  0
 12 13  2  0
 13 14  1  0
 14 15  2  0
 15 16  1  0
 16 17  2  0
 17 18  1  0
  7  2  1  0
 17 12  1  0
  1 19  1  0
  1 20  1  0
  3 21  1  0
  4 22  1  0
  5 23  1  0
  6 24  1  0
 13 25  1  0
 14 26  1  0
 15 27  1  0
 16 28  1  0
M  CHG  2  11  -1  18  -1
M  END
>  <UniqueID>  (47) 
44

>  <SMILES>  (47) 
Nc1ccccc1S(=O)(=O)[N-]c1ccccc1[O-]

>  <Energy>  (47) 
34.60835195415815

>  <Genealogy>  (47) 
Nc1ccccc1S(=O)(=O)[N-]c1ccccc1[O-] (protonated)
Nc1ccccc1S(=O)(=O)[N-]c1ccccc1[O-] (3D coordinates assigned)
Nc1ccccc1S(=O)(=O)[N-]c1ccccc1[O-] (optimized conformer: 34.60835195415815 kcal/mol)

>  <smiles>  (47) 
Nc1ccccc1S(=O)(=O)Nc1ccccc1O

>  <score_type>  (47) 
oracle

>  <origin>  (47) 
adgpu

>  <m_score__min__energy>  (47) 
-11.06

>  <m_primary>  (47) 
energy

$$$$
47:0
     RDKit          3D

 49 51  0  0  0  0  0  0  0  0999 V2000
    1.5910   13.5370  -26.2380 C   0  0  0  0  0  0  0  0  0  0  0  0
    1.5500   14.5290  -27.3970 C   0  0  0  0  0  0  0  0  0  0  0  0
    0.6560   15.6480  -27.1000 N   0  0  0  0  0  0  0  0  0  0  0  0
    0.8530   16.9380  -27.6990 C   0  0  0  0  0  0  0  0  0  0  0  0
    1.8130   17.1140  -28.4980 O   0  0  0  0  0  0  0  0  0  0  0  0
   -0.0600   18.0600  -27.3900 C   0  0  0  0  0  0  0  0  0  0  0  0
    0.2570   19.3770  -27.7650 C   0  0  0  0  0  0  0  0  0  0  0  0
   -0.6360   20.4200  -27.4670 C   0  0  0  0  0  0  0  0  0  0  0  0
   -0.3610   21.7540  -27.8050 O   0  0  0  0  0  0  0  0  0  0  0  0
   -1.2240   22.6110  -28.5040 C   0  0  0  0  0  0  0  0  0  0  0  0
   -1.5540   23.8450  -27.9330 C   0  0  0  0  0  0  0  0  0  0  0  0
   -2.4200   24.7210  -28.5920 C   0  0  0  0  0  0  0  0  0  0  0  0
   -2.9960   24.3630  -29.8160 C   0  0  0  0  0  0  0  0  0  0  0  0
   -3.8710   25.2990  -30.4650 N   0  0  0  0  0  0  0  0  0  0  0  0
   -5.2790   25.1450  -30.6730 C   0  0  0  0  0  0  0  0  0  0  0  0
   -6.1040   25.6910  -29.8920 O   0  0  0  0  0  0  0  0  0  0  0  0
   -5.7330   24.4550  -31.8410 N   0  0  0  0  0  0  0  0  0  0  0  0
   -6.5340   23.2650  -31.8690 C   0  0  0  0  0  0  0  0  0  0  0  0
   -7.8990   23.3660  -31.5680 C   0  0  0  0  0  0  0  0  0  0  0  0
   -8.7190   22.2370  -31.6110 C   0  0  0  0  0  0  0  0  0  0  0  0
   -8.1850   20.9960  -31.9650 C   0  0  0  0  0  0  0  0  0  0  0  0
   -6.8250   20.8760  -32.2800 C   0  0  0  0  0  0  0  0  0  0  0  0
   -6.2690   19.5520  -32.7160 C   0  0  0  0  0  0  0  0  0  0  0  0
   -6.0060   22.0170  -32.2530 C   0  0  0  0  0  0  0  0  0  0  0  0
   -2.6660   23.1240  -30.3950 C   0  0  0  0  0  0  0  0  0  0  0  0
   -1.7970   22.2490  -29.7360 C   0  0  0  0  0  0  0  0  0  0  0  0
   -1.8120   20.1330  -26.7720 C   0  0  0  0  0  0  0  0  0  0  0  0
   -2.0960   18.8150  -26.4120 C   0  0  0  0  0  0  0  0  0  0  0  0
   -1.2260   17.8210  -26.7270 N   0  0  0  0  0  0  0  0  0  0  0  0
    1.5683   14.0856  -25.2848 H   0  0  0  0  0  0  0  0  0  0  0  0
    0.7197   12.8681  -26.2969 H   0  0  0  0  0  0  0  0  0  0  0  0
    2.5145   12.9423  -26.2969 H   0  0  0  0  0  0  0  0  0  0  0  0
    2.5641   14.9165  -27.5745 H   0  0  0  0  0  0  0  0  0  0  0  0
    1.1738   14.0083  -28.2899 H   0  0  0  0  0  0  0  0  0  0  0  0
   -0.1430   15.5060  -26.4410 H   0  0  0  0  0  0  0  0  0  0  0  0
    1.2001   19.5902  -28.2895 H   0  0  0  0  0  0  0  0  0  0  0  0
   -1.1287   24.1273  -26.9586 H   0  0  0  0  0  0  0  0  0  0  0  0
   -2.6508   25.6994  -28.1454 H   0  0  0  0  0  0  0  0  0  0  0  0
   -8.3274   24.3419  -31.2959 H   0  0  0  0  0  0  0  0  0  0  0  0
   -9.7877   22.3250  -31.3656 H   0  0  0  0  0  0  0  0  0  0  0  0
   -8.8348   20.1090  -31.9967 H   0  0  0  0  0  0  0  0  0  0  0  0
   -6.0165   18.9507  -31.8302 H   0  0  0  0  0  0  0  0  0  0  0  0
   -7.0196   19.0197  -33.3187 H   0  0  0  0  0  0  0  0  0  0  0  0
   -5.3634   19.7152  -33.3187 H   0  0  0  0  0  0  0  0  0  0  0  0
   -4.9455   21.9352  -32.5336 H   0  0  0  0  0  0  0  0  0  0  0  0
   -3.0929   22.8428  -31.3690 H   0  0  0  0  0  0  0  0  0  0  0  0
   -1.5604   21.2725  -30.1836 H   0  0  0  0  0  0  0  0  0  0  0  0
   -2.5108   20.9410  -26.5096 H   0  0  0  0  0  0  0  0  0  0  0  0
   -3.0256   18.5810  -25.8725 H   0  0  0  0  0  0  0  0  0  0  0  0
  1  2  1  0
  2  3  1  0
  3  4  1  0
  4  5  2  0
  4  6  1  0
  6  7  2  0
  7  8  1  0
  8  9  1  0
  9 10  1  0
 10 11  2  0
 11 12  1  0
 12 13  2  0
 13 14  1  0
 14 15  1  0
 15 16  2  0
 15 17  1  0
 17 18  1  0
 18 19  2  0
 19 20  1  0
 20 21  2  0
 21 22  1  0
 22 23  1  0
 22 24  2  0
 13 25  1  0
 25 26  2  0
  8 27  2  0
 27 28  1  0
 28 29  2  0
 29  6  1  0
 26 10  1  0
 24 18  1  0
  1 30  1  0
  1 31  1  0
  1 32  1  0
  2 33  1  0
  2 34  1  0
  3 35  1  0
  7 36  1  0
 11 37  1  0
 12 38  1  0
 19 39  1  0
 20 40  1  0
 21 41  1  0
 23 42  1  0
 23 43  1  0
 23 44  1  0
 24 45  1  0
 25 46  1  0
 26 47  1  0
 27 48  1  0
 28 49  1  0
M  CHG  2  14  -1  17  -1
M  END
>  <UniqueID>  (48) 
45

>  <SMILES>  (48) 
CCNC(=O)c1cc(Oc2ccc([N-]C(=O)[N-]c3cccc(C)c3)cc2)ccn1

>  <Energy>  (48) 
59.701967813863064

>  <Genealogy>  (48) 
CCNC(=O)c1cc(Oc2ccc([N-]C(=O)[N-]c3cccc(C)c3)cc2)ccn1 (protonated)
CCNC(=O)c1cc(Oc2ccc([N-]C(=O)[N-]c3cccc(C)c3)cc2)ccn1 (3D coordinates assigned)
CCNC(=O)c1cc(Oc2ccc([N-]C(=O)[N-]c3cccc(C)c3)cc2)ccn1 (optimized conformer: 59.701967813863064 kcal/mol)

>  <smiles>  (48) 
CCNC(=O)c1cc(Oc2ccc(NC(=O)Nc3cccc(C)c3)cc2)ccn1

>  <score_type>  (48) 
oracle

>  <origin>  (48) 
adgpu

>  <m_score__min__energy>  (48) 
-12.130000000000001

>  <m_primary>  (48) 
energy

$$$$
48:0
     RDKit          3D

 46 48  0  0  0  0  0  0  0  0999 V2000
   -6.1630   17.4740  -31.1830 C   0  0  0  0  0  0  0  0  0  0  0  0
   -6.7930   18.8470  -31.4500 C   0  0  0  0  0  0  0  0  0  0  0  0
   -5.7080   19.9430  -31.5900 C   0  0  0  0  0  0  0  0  0  0  0  0
   -6.0220   20.9650  -32.6990 C   0  0  0  0  0  0  0  0  0  0  0  0
   -7.4530   21.3220  -32.7640 N   0  0  0  0  0  0  0  0  0  0  0  0
   -7.9410   22.3650  -31.4450 S   0  0  0  0  0  0  0  0  0  0  0  0
   -8.6080   21.5650  -30.3620 O   0  0  0  0  0  0  0  0  0  0  0  0
   -8.9230   23.3820  -31.9550 O   0  0  0  0  0  0  0  0  0  0  0  0
   -6.5490   23.2190  -30.7830 C   0  0  0  0  0  0  0  0  0  0  0  0
   -6.1530   24.4420  -31.3390 C   0  0  0  0  0  0  0  0  0  0  0  0
   -5.0220   25.1040  -30.8520 C   0  0  0  0  0  0  0  0  0  0  0  0
   -4.2640   24.5400  -29.8190 C   0  0  0  0  0  0  0  0  0  0  0  0
   -3.0960   25.2360  -29.3570 N   0  0  0  0  0  0  0  0  0  0  0  0
   -1.8370   24.6390  -29.0160 C   0  0  0  0  0  0  0  0  0  0  0  0
   -1.3530   23.7670  -29.7860 O   0  0  0  0  0  0  0  0  0  0  0  0
   -1.0970   24.9960  -27.7880 C   0  0  0  0  0  0  0  0  0  0  0  0
    0.2650   24.9580  -27.8140 N   0  0  0  0  0  0  0  0  0  0  0  0
    1.0190   25.2840  -26.7310 C   0  0  0  0  0  0  0  0  0  0  0  0
    0.4030   25.6710  -25.5410 C   0  0  0  0  0  0  0  0  0  0  0  0
   -0.9900   25.7000  -25.4730 C   0  0  0  0  0  0  0  0  0  0  0  0
   -1.7550   25.3480  -26.5920 C   0  0  0  0  0  0  0  0  0  0  0  0
   -3.1470   25.3280  -26.5060 O   0  0  0  0  0  0  0  0  0  0  0  0
   -4.6770   23.3270  -29.2430 C   0  0  0  0  0  0  0  0  0  0  0  0
   -5.8090   22.6660  -29.7290 C   0  0  0  0  0  0  0  0  0  0  0  0
   -8.3680   20.1630  -32.9250 C   0  0  0  0  0  0  0  0  0  0  0  0
   -7.7010   18.7960  -32.6850 C   0  0  0  0  0  0  0  0  0  0  0  0
   -6.0877   17.3099  -30.0979 H   0  0  0  0  0  0  0  0  0  0  0  0
   -6.7911   16.6892  -31.6298 H   0  0  0  0  0  0  0  0  0  0  0  0
   -5.1585   17.4384  -31.6298 H   0  0  0  0  0  0  0  0  0  0  0  0
   -7.4166   19.1118  -30.5834 H   0  0  0  0  0  0  0  0  0  0  0  0
   -5.6260   20.4789  -30.6329 H   0  0  0  0  0  0  0  0  0  0  0  0
   -4.7678   19.4413  -31.8626 H   0  0  0  0  0  0  0  0  0  0  0  0
   -5.4407   21.8792  -32.5084 H   0  0  0  0  0  0  0  0  0  0  0  0
   -5.7538   20.5016  -33.6599 H   0  0  0  0  0  0  0  0  0  0  0  0
   -6.7341   24.8834  -32.1621 H   0  0  0  0  0  0  0  0  0  0  0  0
   -4.7265   26.0722  -31.2824 H   0  0  0  0  0  0  0  0  0  0  0  0
    2.1165   25.2425  -26.7932 H   0  0  0  0  0  0  0  0  0  0  0  0
    1.0086   25.9501  -24.6662 H   0  0  0  0  0  0  0  0  0  0  0  0
   -1.4882   25.9997  -24.5392 H   0  0  0  0  0  0  0  0  0  0  0  0
   -3.7320   25.5250  -27.3100 H   0  0  0  0  0  0  0  0  0  0  0  0
   -4.1076   22.8957  -28.4065 H   0  0  0  0  0  0  0  0  0  0  0  0
   -6.1196   21.7096  -29.2831 H   0  0  0  0  0  0  0  0  0  0  0  0
   -9.1952   20.2741  -32.2085 H   0  0  0  0  0  0  0  0  0  0  0  0
   -8.7075   20.1704  -33.9713 H   0  0  0  0  0  0  0  0  0  0  0  0
   -8.4807   18.0359  -32.5292 H   0  0  0  0  0  0  0  0  0  0  0  0
   -7.0903   18.5406  -33.5635 H   0  0  0  0  0  0  0  0  0  0  0  0
  1  2  1  0
  2  3  1  0
  3  4  1  0
  4  5  1  0
  5  6  1  0
  6  7  2  0
  6  8  2  0
  6  9  1  0
  9 10  2  0
 10 11  1  0
 11 12  2  0
 12 13  1  0
 13 14  1  0
 14 15  2  0
 14 16  1  0
 16 17  2  0
 17 18  1  0
 18 19  2  0
 19 20  1  0
 20 21  2  0
 21 22  1  0
 12 23  1  0
 23 24  2  0
  5 25  1  0
 25 26  1  0
 26  2  1  0
 24  9  1  0
 21 16  1  0
  1 27  1  0
  1 28  1  0
  1 29  1  0
  2 30  1  0
  3 31  1  0
  3 32  1  0
  4 33  1  0
  4 34  1  0
 10 35  1  0
 11 36  1  0
 18 37  1  0
 19 38  1  0
 20 39  1  0
 22 40  1  0
 23 41  1  0
 24 42  1  0
 25 43  1  0
 25 44  1  0
 26 45  1  0
 26 46  1  0
M  CHG  1  13  -1
M  END
>  <UniqueID>  (49) 
46

>  <SMILES>  (49) 
CC1CCN(S(=O)(=O)c2ccc([N-]C(=O)c3ncccc3O)cc2)CC1

>  <Energy>  (49) 
60.86364721079434

>  <Genealogy>  (49) 
CC1CCN(S(=O)(=O)c2ccc([N-]C(=O)c3ncccc3O)cc2)CC1 (protonated)
CC1CCN(S(=O)(=O)c2ccc([N-]C(=O)c3ncccc3O)cc2)CC1 (3D coordinates assigned)
CC1CCN(S(=O)(=O)c2ccc([N-]C(=O)c3ncccc3O)cc2)CC1 (nonaromatic ring conformer: 60.86364721079434 kcal/mol)

>  <smiles>  (49) 
CC1CCN(S(=O)(=O)c2ccc(NC(=O)c3ncccc3O)cc2)CC1

>  <score_type>  (49) 
oracle

>  <origin>  (49) 
adgpu

>  <m_score__min__energy>  (49) 
-10.41

>  <m_primary>  (49) 
energy

$$$$
