0:0
     RDKit          3D

 45 48  0  0  0  0  0  0  0  0999 V2000
   -4.8920   24.6970  -28.3650 N   0  0  0  0  0  0  0  0  0  0  0  0
   -5.3690   24.8750  -30.0180 S   0  0  0  0  0  0  0  0  0  0  0  0
   -6.6370   25.6800  -30.0890 O   0  0  0  0  0  0  0  0  0  0  0  0
   -4.2950   25.6040  -30.7740 O   0  0  0  0  0  0  0  0  0  0  0  0
   -5.6300   23.2870  -30.7320 C   0  0  0  0  0  0  0  0  0  0  0  0
   -4.5370   22.4980  -31.1130 C   0  0  0  0  0  0  0  0  0  0  0  0
   -4.7430   21.2430  -31.6930 C   0  0  0  0  0  0  0  0  0  0  0  0
   -6.0470   20.7630  -31.9090 C   0  0  0  0  0  0  0  0  0  0  0  0
   -6.2620   19.4280  -32.5170 C   0  0  0  0  0  0  0  0  0  0  0  0
   -5.3080   18.9010  -33.4050 C   0  0  0  0  0  0  0  0  0  0  0  0
   -5.4940   17.6380  -33.9920 C   0  0  0  0  0  0  0  0  0  0  0  0
   -4.4830   17.1030  -34.9700 C   0  0  0  0  0  0  0  0  0  0  0  0
   -3.1160   17.0470  -34.3320 C   0  0  0  0  0  0  0  0  0  0  0  0
   -2.6260   15.8310  -33.8350 C   0  0  0  0  0  0  0  0  0  0  0  0
   -1.4400   15.7660  -33.2370 O   0  0  0  0  0  0  0  0  0  0  0  0
   -0.6640   16.8320  -33.0690 C   0  0  0  0  0  0  0  0  0  0  0  0
    0.5730   16.6930  -32.4300 C   0  0  0  0  0  0  0  0  0  0  0  0
    1.3970   17.8070  -32.2450 C   0  0  0  0  0  0  0  0  0  0  0  0
    0.9870   19.0650  -32.6950 C   0  0  0  0  0  0  0  0  0  0  0  0
   -0.2460   19.2170  -33.3350 C   0  0  0  0  0  0  0  0  0  0  0  0
   -1.0830   18.1020  -33.5290 C   0  0  0  0  0  0  0  0  0  0  0  0
   -2.3320   18.2020  -34.1650 C   0  0  0  0  0  0  0  0  0  0  0  0
   -2.7470   19.3190  -34.5840 O   0  0  0  0  0  0  0  0  0  0  0  0
   -6.6530   16.9070  -33.6970 C   0  0  0  0  0  0  0  0  0  0  0  0
   -7.6070   17.4240  -32.8190 C   0  0  0  0  0  0  0  0  0  0  0  0
   -7.4190   18.6770  -32.2290 C   0  0  0  0  0  0  0  0  0  0  0  0
   -8.3830   19.1700  -31.4120 F   0  0  0  0  0  0  0  0  0  0  0  0
   -7.1400   21.5610  -31.5250 C   0  0  0  0  0  0  0  0  0  0  0  0
   -6.9320   22.8160  -30.9450 C   0  0  0  0  0  0  0  0  0  0  0  0
   -5.6940   24.2530  -27.8640 H   0  0  0  0  0  0  0  0  0  0  0  0
   -4.7870   25.6590  -27.9730 H   0  0  0  0  0  0  0  0  0  0  0  0
   -3.5130   22.8674  -30.9552 H   0  0  0  0  0  0  0  0  0  0  0  0
   -3.8791   20.6266  -31.9825 H   0  0  0  0  0  0  0  0  0  0  0  0
   -4.4060   19.4838  -33.6429 H   0  0  0  0  0  0  0  0  0  0  0  0
   -4.7798   16.0907  -35.2816 H   0  0  0  0  0  0  0  0  0  0  0  0
   -4.4430   17.7696  -35.8441 H   0  0  0  0  0  0  0  0  0  0  0  0
   -3.2308   14.9183  -33.9412 H   0  0  0  0  0  0  0  0  0  0  0  0
    0.8979   15.7048  -32.0724 H   0  0  0  0  0  0  0  0  0  0  0  0
    2.3698   17.6932  -31.7443 H   0  0  0  0  0  0  0  0  0  0  0  0
    1.6376   19.9392  -32.5448 H   0  0  0  0  0  0  0  0  0  0  0  0
   -0.5629   20.2095  -33.6877 H   0  0  0  0  0  0  0  0  0  0  0  0
   -6.8114   15.9216  -34.1594 H   0  0  0  0  0  0  0  0  0  0  0  0
   -8.5119   16.8420  -32.5901 H   0  0  0  0  0  0  0  0  0  0  0  0
   -8.1654   21.1951  -31.6821 H   0  0  0  0  0  0  0  0  0  0  0  0
   -7.7934   23.4355  -30.6550 H   0  0  0  0  0  0  0  0  0  0  0  0
  1  2  1  0
  2  3  2  0
  2  4  2  0
  2  5  1  0
  5  6  2  0
  6  7  1  0
  7  8  2  0
  8  9  1  0
  9 10  2  0
 10 11  1  0
 11 12  1  0
 12 13  1  0
 13 14  2  0
 14 15  1  0
 15 16  1  0
 16 17  2  0
 17 18  1  0
 18 19  2  0
 19 20  1  0
 20 21  2  0
 21 22  1  0
 22 23  2  0
 11 24  2  0
 24 25  1  0
 25 26  2  0
 26 27  1  0
  8 28  1  0
 28 29  2  0
 29  5  1  0
 26  9  1  0
 22 13  1  0
 21 16  1  0
  1 30  1  0
  1 31  1  0
  6 32  1  0
  7 33  1  0
 10 34  1  0
 12 35  1  0
 12 36  1  0
 14 37  1  0
 17 38  1  0
 18 39  1  0
 19 40  1  0
 20 41  1  0
 24 42  1  0
 25 43  1  0
 28 44  1  0
 29 45  1  0
M  END
>  <UniqueID>  (1) 
1

>  <SMILES>  (1) 
NS(=O)(=O)c1ccc(-c2cc(Cc3coc4ccccc4c3=O)ccc2F)cc1

>  <Energy>  (1) 
59.168799433661675

>  <Genealogy>  (1) 
NS(=O)(=O)c1ccc(-c2cc(Cc3coc4ccccc4c3=O)ccc2F)cc1 (3D coordinates assigned)
NS(=O)(=O)c1ccc(-c2cc(Cc3coc4ccccc4c3=O)ccc2F)cc1 (optimized conformer: 59.168799433661675 kcal/mol)

>  <smiles>  (1) 
NS(=O)(=O)c1ccc(-c2cc(Cc3coc4ccccc4c3=O)ccc2F)cc1

>  <score_type>  (1) 
oracle

>  <origin>  (1) 
adgpu

>  <m_score__min__energy>  (1) 
-9.6899999999999995

>  <m_primary>  (1) 
energy

$$$$
1:0
     RDKit          3D

 38 39  0  0  0  0  0  0  0  0999 V2000
   -3.1200   23.6090  -28.3000 C   0  0  0  0  0  0  0  0  0  0  0  0
   -2.8410   24.6270  -29.3630 C   0  0  0  0  0  0  0  0  0  0  0  0
   -1.7830   25.3060  -29.2940 O   0  0  0  0  0  0  0  0  0  0  0  0
   -3.7210   24.8260  -30.4770 N   0  0  0  0  0  0  0  0  0  0  0  0
   -4.9010   24.0680  -30.7810 C   0  0  0  0  0  0  0  0  0  0  0  0
   -4.7630   22.8120  -31.3820 C   0  0  0  0  0  0  0  0  0  0  0  0
   -5.8930   22.0550  -31.7070 C   0  0  0  0  0  0  0  0  0  0  0  0
   -7.1750   22.5580  -31.4500 C   0  0  0  0  0  0  0  0  0  0  0  0
   -8.6030   21.6030  -31.8330 S   0  0  0  0  0  0  0  0  0  0  0  0
   -9.7050   22.4810  -32.3590 O   0  0  0  0  0  0  0  0  0  0  0  0
   -9.0760   20.9190  -30.5820 O   0  0  0  0  0  0  0  0  0  0  0  0
   -8.2130   20.4060  -33.0290 N   0  0  0  0  0  0  0  0  0  0  0  0
   -7.2860   19.3270  -32.8100 C   0  0  0  0  0  0  0  0  0  0  0  0
   -7.3880   18.4770  -31.6950 C   0  0  0  0  0  0  0  0  0  0  0  0
   -6.4780   17.4340  -31.5180 C   0  0  0  0  0  0  0  0  0  0  0  0
   -5.4540   17.2290  -32.4430 C   0  0  0  0  0  0  0  0  0  0  0  0
   -5.3210   18.0700  -33.5630 C   0  0  0  0  0  0  0  0  0  0  0  0
   -4.2220   17.8400  -34.5400 C   0  0  0  0  0  0  0  0  0  0  0  0
   -2.7880   18.1220  -34.2010 C   0  0  0  0  0  0  0  0  0  0  0  0
   -4.4890   17.3960  -35.6890 O   0  0  0  0  0  0  0  0  0  0  0  0
   -6.2460   19.1200  -33.7330 C   0  0  0  0  0  0  0  0  0  0  0  0
   -7.3170   23.8320  -30.8850 C   0  0  0  0  0  0  0  0  0  0  0  0
   -6.1870   24.5870  -30.5580 C   0  0  0  0  0  0  0  0  0  0  0  0
   -2.9938   24.0696  -27.3091 H   0  0  0  0  0  0  0  0  0  0  0  0
   -4.1517   23.2424  -28.4052 H   0  0  0  0  0  0  0  0  0  0  0  0
   -2.4193   22.7676  -28.4052 H   0  0  0  0  0  0  0  0  0  0  0  0
   -3.7596   22.4176  -31.6002 H   0  0  0  0  0  0  0  0  0  0  0  0
   -5.7749   21.0621  -32.1656 H   0  0  0  0  0  0  0  0  0  0  0  0
   -8.7590   20.4320  -33.9180 H   0  0  0  0  0  0  0  0  0  0  0  0
   -8.1893   18.6349  -30.9582 H   0  0  0  0  0  0  0  0  0  0  0  0
   -6.5685   16.7705  -30.6453 H   0  0  0  0  0  0  0  0  0  0  0  0
   -4.7439   16.4020  -32.2953 H   0  0  0  0  0  0  0  0  0  0  0  0
   -2.6675   18.1457  -33.1079 H   0  0  0  0  0  0  0  0  0  0  0  0
   -2.1493   17.3323  -34.6233 H   0  0  0  0  0  0  0  0  0  0  0  0
   -2.4959   19.0948  -34.6233 H   0  0  0  0  0  0  0  0  0  0  0  0
   -6.1526   19.7881  -34.6018 H   0  0  0  0  0  0  0  0  0  0  0  0
   -8.3214   24.2397  -30.6980 H   0  0  0  0  0  0  0  0  0  0  0  0
   -6.3053   25.5911  -30.1245 H   0  0  0  0  0  0  0  0  0  0  0  0
  1  2  1  0
  2  3  2  0
  2  4  1  0
  4  5  1  0
  5  6  2  0
  6  7  1  0
  7  8  2  0
  8  9  1  0
  9 10  2  0
  9 11  2  0
  9 12  1  0
 12 13  1  0
 13 14  2  0
 14 15  1  0
 15 16  2  0
 16 17  1  0
 17 18  1  0
 18 19  1  0
 18 20  2  0
 17 21  2  0
  8 22  1  0
 22 23  2  0
 23  5  1  0
 21 13  1  0
  1 24  1  0
  1 25  1  0
  1 26  1  0
  6 27  1  0
  7 28  1  0
 12 29  1  0
 14 30  1  0
 15 31  1  0
 16 32  1  0
 19 33  1  0
 19 34  1  0
 19 35  1  0
 21 36  1  0
 22 37  1  0
 23 38  1  0
M  CHG  1   4  -1
M  END
>  <UniqueID>  (2) 
2

>  <SMILES>  (2) 
CC(=O)[N-]c1ccc(S(=O)(=O)Nc2cccc(C(C)=O)c2)cc1

>  <Energy>  (2) 
44.42762806243995

>  <Genealogy>  (2) 
CC(=O)[N-]c1ccc(S(=O)(=O)Nc2cccc(C(C)=O)c2)cc1 (protonated)
CC(=O)[N-]c1ccc(S(=O)(=O)Nc2cccc(C(C)=O)c2)cc1 (3D coordinates assigned)
CC(=O)[N-]c1ccc(S(=O)(=O)Nc2cccc(C(C)=O)c2)cc1 (optimized conformer: 44.42762806243995 kcal/mol)

>  <smiles>  (2) 
CC(=O)Nc1ccc(S(=O)(=O)Nc2cccc(C(C)=O)c2)cc1

>  <score_type>  (2) 
oracle

>  <origin>  (2) 
adgpu

>  <m_score__min__energy>  (2) 
-10.74

>  <m_primary>  (2) 
energy

$$$$
2:0
     RDKit          3D

 52 55  0  0  1  0  0  0  0  0999 V2000
   -1.5330   25.4710  -28.5170 C   0  0  0  0  0  0  0  0  0  0  0  0
   -2.7410   24.6500  -28.8610 C   0  0  0  0  0  0  0  0  0  0  0  0
   -3.0690   23.7720  -28.0560 O   0  0  0  0  0  0  0  0  0  0  0  0
   -3.4370   24.8970  -30.0480 N   0  0  0  0  0  0  0  0  0  0  0  0
   -4.5840   24.2180  -30.5140 C   0  0  0  0  0  0  0  0  0  0  0  0
   -5.8500   24.7450  -30.5650 C   0  0  0  0  0  0  0  0  0  0  0  0
   -6.9500   24.0200  -31.0390 C   0  0  0  0  0  0  0  0  0  0  0  0
   -6.7840   22.7260  -31.4760 C   0  0  0  0  0  0  0  0  0  0  0  0
   -5.5270   22.1950  -31.4270 C   0  0  0  0  0  0  0  0  0  0  0  0
   -5.3160   20.9030  -31.8550 C   0  0  0  0  0  0  0  0  0  0  0  0
   -6.3160   20.2400  -32.2860 N   0  0  0  0  0  0  0  0  0  0  0  0
   -6.1480   18.9020  -32.7390 C   0  0  0  0  0  0  0  0  0  0  0  0
   -6.0110   17.8340  -31.8720 C   0  0  0  0  0  0  0  0  0  0  0  0
   -5.8490   16.5420  -32.3300 C   0  0  0  0  0  0  0  0  0  0  0  0
   -5.8150   16.2640  -33.6970 C   0  0  0  0  0  0  0  0  0  0  0  0
   -5.6040   14.5870  -34.2130 S   0  0  0  0  0  0  0  0  0  0  0  0
   -4.0800   14.3410  -35.1260 C   0  0  0  0  0  0  0  0  0  0  0  0
   -3.8730   13.5710  -36.2180 N   0  0  0  0  0  0  0  0  0  0  0  0
   -2.5790   13.6850  -36.5700 C   0  0  0  0  0  0  0  0  0  0  0  0
   -1.9060   13.0110  -37.7140 C   0  0  0  0  0  0  0  0  0  0  0  0
   -1.9900   14.5450  -35.6650 C   0  0  0  0  0  0  0  0  0  0  0  0
   -0.5450   14.9700  -35.6640 C   0  0  0  0  0  0  0  0  0  0  0  0
   -2.9250   14.9490  -34.7730 N   0  0  0  0  0  0  0  0  0  0  0  0
   -2.6950   15.8550  -33.6690 C   0  0  0  0  0  0  0  0  0  0  0  0
   -5.9510   17.3270  -34.5700 C   0  0  0  0  0  0  0  0  0  0  0  0
   -6.1140   18.6220  -34.0990 C   0  0  0  0  0  0  0  0  0  0  0  0
   -4.1030   20.3270  -31.8310 N   0  0  0  0  0  0  0  0  0  0  0  0
   -3.0710   21.0530  -31.3700 C   0  0  0  0  0  0  0  0  0  0  0  0
   -3.2440   22.3120  -30.9480 N   0  0  0  0  0  0  0  0  0  0  0  0
   -4.4470   22.9110  -30.9610 C   0  0  0  0  0  0  0  0  0  0  0  0
   -1.4345   25.5380  -27.4235 H   0  0  0  0  0  0  0  0  0  0  0  0
   -0.6346   24.9956  -28.9377 H   0  0  0  0  0  0  0  0  0  0  0  0
   -1.6443   26.4813  -28.9377 H   0  0  0  0  0  0  0  0  0  0  0  0
   -3.0600   25.6760  -30.6580 H   0  0  0  0  0  0  0  0  0  0  0  0
   -6.0068   25.7776  -30.2199 H   0  0  0  0  0  0  0  0  0  0  0  0
   -7.9467   24.4848  -31.0620 H   0  0  0  0  0  0  0  0  0  0  0  0
   -7.6350   22.1392  -31.8521 H   0  0  0  0  0  0  0  0  0  0  0  0
   -6.0316   18.0188  -30.7878 H   0  0  0  0  0  0  0  0  0  0  0  0
   -5.7452   15.7196  -31.6069 H   0  0  0  0  0  0  0  0  0  0  0  0
   -1.1771   12.2810  -37.3322 H   0  0  0  0  0  0  0  0  0  0  0  0
   -2.6574   12.4924  -38.3276 H   0  0  0  0  0  0  0  0  0  0  0  0
   -1.3862   13.7616  -38.3276 H   0  0  0  0  0  0  0  0  0  0  0  0
   -0.1939   15.0733  -34.6267 H   0  0  0  0  0  0  0  0  0  0  0  0
    0.0605   14.2119  -36.1823 H   0  0  0  0  0  0  0  0  0  0  0  0
   -0.4463   15.9352  -36.1823 H   0  0  0  0  0  0  0  0  0  0  0  0
   -2.8315   15.3175  -32.7190 H   0  0  0  0  0  0  0  0  0  0  0  0
   -1.6688   16.2472  -33.7242 H   0  0  0  0  0  0  0  0  0  0  0  0
   -3.4099   16.6892  -33.7242 H   0  0  0  0  0  0  0  0  0  0  0  0
   -5.9297   17.1436  -35.6544 H   0  0  0  0  0  0  0  0  0  0  0  0
   -6.2188   19.4463  -34.8198 H   0  0  0  0  0  0  0  0  0  0  0  0
   -3.9000   19.3600  -32.1420 H   0  0  0  0  0  0  0  0  0  0  0  0
   -2.0666   20.6056  -31.3386 H   0  0  0  0  0  0  0  0  0  0  0  0
  1  2  1  0
  2  3  2  0
  2  4  1  0
  4  5  1  0
  5  6  2  0
  6  7  1  0
  7  8  2  0
  8  9  1  0
  9 10  1  0
 10 11  2  0
 11 12  1  0
 12 13  2  0
 13 14  1  0
 14 15  2  0
 15 16  1  0
 16 17  1  0
 17 18  2  0
 18 19  1  0
 19 20  1  0
 19 21  2  0
 21 22  1  0
 21 23  1  0
 23 24  1  0
 15 25  1  0
 25 26  2  0
 10 27  1  0
 27 28  1  0
 28 29  2  0
 29 30  1  0
 30  5  1  0
 30  9  2  0
 26 12  1  0
 23 17  1  0
  1 31  1  0
  1 32  1  0
  1 33  1  0
  4 34  1  0
  6 35  1  0
  7 36  1  0
  8 37  1  0
 13 38  1  0
 14 39  1  0
 20 40  1  0
 20 41  1  0
 20 42  1  0
 22 43  1  0
 22 44  1  0
 22 45  1  0
 24 46  1  0
 24 47  1  0
 24 48  1  0
 25 49  1  0
 26 50  1  0
 27 51  1  0
 28 52  1  0
M  END
>  <smiles>  (3) 
CC(=O)Nc1cccc2c(=Nc3ccc(Sc4nc(C)c(C)n4C)cc3)[nH]cnc12

>  <score_type>  (3) 
oracle

>  <origin>  (3) 
adgpu

>  <m_score__min__energy>  (3) 
-9.0199999999999996

>  <m_primary>  (3) 
energy

$$$$
3:0
     RDKit          3D

 35 37  0  0  0  0  0  0  0  0999 V2000
   -9.8440   22.1050  -31.9650 O   0  0  0  0  0  0  0  0  0  0  0  0
   -8.3660   22.0310  -31.6980 S   0  0  0  0  0  0  0  0  0  0  0  0
   -8.1430   22.1370  -30.2160 O   0  0  0  0  0  0  0  0  0  0  0  0
   -7.5550   23.3450  -32.4960 N   0  0  0  0  0  0  0  0  0  0  0  0
   -6.8630   24.1710  -31.5060 C   0  0  0  0  0  0  0  0  0  0  0  0
   -5.4360   23.7430  -31.4060 C   0  0  0  0  0  0  0  0  0  0  0  0
   -4.9440   22.6220  -31.9650 N   0  0  0  0  0  0  0  0  0  0  0  0
   -3.6400   22.7040  -31.6230 C   0  0  0  0  0  0  0  0  0  0  0  0
   -2.6260   21.6940  -31.9960 C   0  0  0  0  0  0  0  0  0  0  0  0
   -2.8460   20.8320  -33.0860 C   0  0  0  0  0  0  0  0  0  0  0  0
   -1.8850   19.8780  -33.4380 C   0  0  0  0  0  0  0  0  0  0  0  0
   -0.6980   19.7750  -32.7070 C   0  0  0  0  0  0  0  0  0  0  0  0
    0.5040   18.5770  -33.1500 Cl  0  0  0  0  0  0  0  0  0  0  0  0
   -0.4710   20.6270  -31.6220 C   0  0  0  0  0  0  0  0  0  0  0  0
   -1.4290   21.5820  -31.2670 C   0  0  0  0  0  0  0  0  0  0  0  0
   -3.3670   23.8130  -30.9050 N   0  0  0  0  0  0  0  0  0  0  0  0
   -4.5030   24.4300  -30.7950 O   0  0  0  0  0  0  0  0  0  0  0  0
   -7.7220   20.4920  -32.2640 C   0  0  0  0  0  0  0  0  0  0  0  0
   -6.6720   20.4780  -33.1940 C   0  0  0  0  0  0  0  0  0  0  0  0
   -6.1640   19.2630  -33.6620 C   0  0  0  0  0  0  0  0  0  0  0  0
   -6.7050   18.0550  -33.2080 C   0  0  0  0  0  0  0  0  0  0  0  0
   -6.0690   16.5310  -33.7970 Cl  0  0  0  0  0  0  0  0  0  0  0  0
   -7.7560   18.0650  -32.2850 C   0  0  0  0  0  0  0  0  0  0  0  0
   -8.2650   19.2800  -31.8140 C   0  0  0  0  0  0  0  0  0  0  0  0
   -6.8350   22.9160  -33.1230 H   0  0  0  0  0  0  0  0  0  0  0  0
   -6.9080   25.2261  -31.8138 H   0  0  0  0  0  0  0  0  0  0  0  0
   -7.3496   24.0520  -30.5267 H   0  0  0  0  0  0  0  0  0  0  0  0
   -3.7785   20.9085  -33.6645 H   0  0  0  0  0  0  0  0  0  0  0  0
   -2.0639   19.2077  -34.2916 H   0  0  0  0  0  0  0  0  0  0  0  0
    0.4629   20.5460  -31.0465 H   0  0  0  0  0  0  0  0  0  0  0  0
   -1.2449   22.2495  -30.4123 H   0  0  0  0  0  0  0  0  0  0  0  0
   -6.2472   21.4259  -33.5560 H   0  0  0  0  0  0  0  0  0  0  0  0
   -5.3378   19.2563  -34.3882 H   0  0  0  0  0  0  0  0  0  0  0  0
   -8.1830   17.1159  -31.9289 H   0  0  0  0  0  0  0  0  0  0  0  0
   -9.0926   19.2846  -31.0894 H   0  0  0  0  0  0  0  0  0  0  0  0
  1  2  2  0
  2  3  2  0
  2  4  1  0
  4  5  1  0
  5  6  1  0
  6  7  2  0
  7  8  1  0
  8  9  1  0
  9 10  2  0
 10 11  1  0
 11 12  2  0
 12 13  1  0
 12 14  1  0
 14 15  2  0
  8 16  2  0
 16 17  1  0
  2 18  1  0
 18 19  2  0
 19 20  1  0
 20 21  2  0
 21 22  1  0
 21 23  1  0
 23 24  2  0
 17  6  1  0
 24 18  1  0
 15  9  1  0
  4 25  1  0
  5 26  1  0
  5 27  1  0
 10 28  1  0
 11 29  1  0
 14 30  1  0
 15 31  1  0
 19 32  1  0
 20 33  1  0
 23 34  1  0
 24 35  1  0
M  END
>  <UniqueID>  (4) 
3

>  <SMILES>  (4) 
O=S(=O)(NCc1nc(-c2ccc(Cl)cc2)no1)c1ccc(Cl)cc1

>  <Energy>  (4) 
67.47412292911781

>  <Genealogy>  (4) 
O=S(=O)(NCc1nc(-c2ccc(Cl)cc2)no1)c1ccc(Cl)cc1 (3D coordinates assigned)
O=S(=O)(NCc1nc(-c2ccc(Cl)cc2)no1)c1ccc(Cl)cc1 (optimized conformer: 67.47412292911781 kcal/mol)

>  <smiles>  (4) 
O=S(=O)(NCc1nc(-c2ccc(Cl)cc2)no1)c1ccc(Cl)cc1

>  <score_type>  (4) 
oracle

>  <origin>  (4) 
adgpu

>  <m_score__min__energy>  (4) 
-9.5800000000000001

>  <m_primary>  (4) 
energy

$$$$
4:0
     RDKit          3D

 35 36  0  0  0  0  0  0  0  0999 V2000
   -4.7730   15.0870  -33.7360 C   0  0  0  0  0  0  0  0  0  0  0  0
   -5.4390   16.4310  -33.6900 C   0  0  0  0  0  0  0  0  0  0  0  0
   -5.0660   17.4350  -34.5920 C   0  0  0  0  0  0  0  0  0  0  0  0
   -5.6640   18.6940  -34.5310 C   0  0  0  0  0  0  0  0  0  0  0  0
   -6.6260   18.9840  -33.5480 C   0  0  0  0  0  0  0  0  0  0  0  0
   -7.2640   20.2730  -33.5230 N   0  0  0  0  0  0  0  0  0  0  0  0
   -6.8270   21.3720  -32.7030 C   0  0  0  0  0  0  0  0  0  0  0  0
   -5.4650   21.7060  -32.6660 C   0  0  0  0  0  0  0  0  0  0  0  0
   -5.0200   22.7820  -31.8940 C   0  0  0  0  0  0  0  0  0  0  0  0
   -5.9340   23.5500  -31.1610 C   0  0  0  0  0  0  0  0  0  0  0  0
   -5.3720   24.8950  -30.1740 S   0  0  0  0  0  0  0  0  0  0  0  0
   -4.8410   24.3050  -28.6380 N   0  0  0  0  0  0  0  0  0  0  0  0
   -4.2320   25.5920  -30.8640 O   0  0  0  0  0  0  0  0  0  0  0  0
   -6.4880   25.8810  -29.9730 O   0  0  0  0  0  0  0  0  0  0  0  0
   -7.2970   23.2280  -31.2030 C   0  0  0  0  0  0  0  0  0  0  0  0
   -7.7440   22.1530  -31.9760 C   0  0  0  0  0  0  0  0  0  0  0  0
   -6.9950   17.9800  -32.6250 C   0  0  0  0  0  0  0  0  0  0  0  0
   -8.0290   18.2460  -31.5650 C   0  0  0  0  0  0  0  0  0  0  0  0
   -6.3960   16.7110  -32.7040 C   0  0  0  0  0  0  0  0  0  0  0  0
   -4.5962   14.7301  -32.7106 H   0  0  0  0  0  0  0  0  0  0  0  0
   -5.4221   14.3741  -34.2655 H   0  0  0  0  0  0  0  0  0  0  0  0
   -3.8126   15.1716  -34.2655 H   0  0  0  0  0  0  0  0  0  0  0  0
   -4.2979   17.2301  -35.3523 H   0  0  0  0  0  0  0  0  0  0  0  0
   -5.3798   19.4676  -35.2596 H   0  0  0  0  0  0  0  0  0  0  0  0
   -8.0810   20.4290  -34.1550 H   0  0  0  0  0  0  0  0  0  0  0  0
   -4.7422   21.1164  -33.2490 H   0  0  0  0  0  0  0  0  0  0  0  0
   -3.9481   23.0270  -31.8616 H   0  0  0  0  0  0  0  0  0  0  0  0
   -4.2760   25.0650  -28.1980 H   0  0  0  0  0  0  0  0  0  0  0  0
   -5.6930   24.1830  -28.0470 H   0  0  0  0  0  0  0  0  0  0  0  0
   -8.0185   23.8241  -30.6249 H   0  0  0  0  0  0  0  0  0  0  0  0
   -8.8175   21.9164  -32.0162 H   0  0  0  0  0  0  0  0  0  0  0  0
   -7.5734   18.1288  -30.5707 H   0  0  0  0  0  0  0  0  0  0  0  0
   -8.4111   19.2717  -31.6746 H   0  0  0  0  0  0  0  0  0  0  0  0
   -8.8586   17.5320  -31.6746 H   0  0  0  0  0  0  0  0  0  0  0  0
   -6.6809   15.9291  -31.9847 H   0  0  0  0  0  0  0  0  0  0  0  0
  1  2  1  0
  2  3  2  0
  3  4  1  0
  4  5  2  0
  5  6  1  0
  6  7  1  0
  7  8  2  0
  8  9  1  0
  9 10  2  0
 10 11  1  0
 11 12  1  0
 11 13  2  0
 11 14  2  0
 10 15  1  0
 15 16  2  0
  5 17  1  0
 17 18  1  0
 17 19  2  0
 19  2  1  0
 16  7  1  0
  1 20  1  0
  1 21  1  0
  1 22  1  0
  3 23  1  0
  4 24  1  0
  6 25  1  0
  8 26  1  0
  9 27  1  0
 12 28  1  0
 12 29  1  0
 15 30  1  0
 16 31  1  0
 18 32  1  0
 18 33  1  0
 18 34  1  0
 19 35  1  0
M  END
>  <UniqueID>  (5) 
4

>  <SMILES>  (5) 
Cc1ccc(Nc2ccc(S(N)(=O)=O)cc2)c(C)c1

>  <Energy>  (5) 
38.80970870404715

>  <Genealogy>  (5) 
Cc1ccc(Nc2ccc(S(N)(=O)=O)cc2)c(C)c1 (3D coordinates assigned)
Cc1ccc(Nc2ccc(S(N)(=O)=O)cc2)c(C)c1 (optimized conformer: 38.80970870404715 kcal/mol)

>  <smiles>  (5) 
Cc1ccc(Nc2ccc(S(N)(=O)=O)cc2)c(C)c1

>  <score_type>  (5) 
oracle

>  <origin>  (5) 
adgpu

>  <m_score__min__energy>  (5) 
-9.4399999999999995

>  <m_primary>  (5) 
energy

$$$$
5:0
     RDKit          3D

 25 26  0  0  0  0  0  0  0  0999 V2000
    0.0071   24.2483  -27.9134 H   0  0  0  0  0  0  0  0  0  0  0  0
   -0.9320   23.7240  -28.1440 C   0  0  0  0  0  0  0  0  0  0  0  0
   -1.1260   22.4170  -27.6940 C   0  0  0  0  0  0  0  0  0  0  0  0
   -0.3394   21.9129  -27.1133 H   0  0  0  0  0  0  0  0  0  0  0  0
   -2.3190   21.7490  -27.9810 C   0  0  0  0  0  0  0  0  0  0  0  0
   -2.5620   20.1080  -27.4120 Cl  0  0  0  0  0  0  0  0  0  0  0  0
   -3.3190   22.3890  -28.7190 C   0  0  0  0  0  0  0  0  0  0  0  0
   -4.2582   21.8597  -28.9377 H   0  0  0  0  0  0  0  0  0  0  0  0
   -3.1350   23.7050  -29.1850 C   0  0  0  0  0  0  0  0  0  0  0  0
   -4.2100   24.3710  -29.9670 C   0  0  0  0  0  0  0  0  0  0  0  0
   -3.9230   25.3300  -30.7320 O   0  0  0  0  0  0  0  0  0  0  0  0
   -5.5920   24.0170  -29.8010 N   0  0  0  0  0  0  0  0  0  0  0  0
   -6.2690   23.1240  -30.4700 C   0  0  0  0  0  0  0  0  0  0  0  0
   -5.7270   22.4410  -31.5790 C   0  0  0  0  0  0  0  0  0  0  0  0
   -4.6992   22.6510  -31.9099 H   0  0  0  0  0  0  0  0  0  0  0  0
   -6.5030   21.4970  -32.2540 C   0  0  0  0  0  0  0  0  0  0  0  0
   -6.0846   20.9536  -33.1140 H   0  0  0  0  0  0  0  0  0  0  0  0
   -7.8080   21.2440  -31.8370 C   0  0  0  0  0  0  0  0  0  0  0  0
   -8.7940   20.0610  -32.6770 Cl  0  0  0  0  0  0  0  0  0  0  0  0
   -8.3250   21.9490  -30.7490 C   0  0  0  0  0  0  0  0  0  0  0  0
   -9.3564   21.7624  -30.4152 H   0  0  0  0  0  0  0  0  0  0  0  0
   -7.5580   22.8660  -30.1000 N   0  0  0  0  0  0  0  0  0  0  0  0
   -7.9750   23.3770  -29.2880 H   0  0  0  0  0  0  0  0  0  0  0  0
   -1.9260   24.3710  -28.8870 C   0  0  0  0  0  0  0  0  0  0  0  0
   -1.6930   25.6660  -29.3370 O   0  0  0  0  0  0  0  0  0  0  0  0
  1  2  1  0
  2  3  2  0
  3  4  1  0
  3  5  1  0
  5  6  1  0
  5  7  2  0
  7  8  1  0
  7  9  1  0
  9 10  1  0
 10 11  2  0
 10 12  1  0
 12 13  2  0
 13 14  1  0
 14 15  1  0
 14 16  2  0
 16 17  1  0
 16 18  1  0
 18 19  1  0
 18 20  2  0
 20 21  1  0
 20 22  1  0
 22 23  1  0
  9 24  2  0
 24 25  1  0
 24  2  1  0
 22 13  1  0
M  CHG  1  25  -1
M  END
>  <UniqueID>  (6) 
5

>  <SMILES>  (6) 
O=C(/N=c1\ccc(Cl)c[nH]1)c1cc(Cl)ccc1[O-]

>  <Energy>  (6) 
37.93524302225207

>  <Genealogy>  (6) 
O=C(N=c1ccc(Cl)c[nH]1)c1cc(Cl)ccc1[O-] (protonated)
O=C(/N=c1\ccc(Cl)c[nH]1)c1cc(Cl)ccc1[O-] (cis-trans isomerization)
O=C(/N=c1\ccc(Cl)c[nH]1)c1cc(Cl)ccc1[O-] (3D coordinates assigned)
O=C(/N=c1\ccc(Cl)c[nH]1)c1cc(Cl)ccc1[O-] (optimized conformer: 37.93524302225207 kcal/mol)

>  <smiles>  (6) 
O=C(N=c1ccc(Cl)c[nH]1)c1cc(Cl)ccc1O

>  <score_type>  (6) 
oracle

>  <origin>  (6) 
adgpu

>  <m_score__min__energy>  (6) 
-10.890000000000001

>  <m_primary>  (6) 
energy

$$$$
6:0
     RDKit          3D

 48 50  0  0  0  0  0  0  0  0999 V2000
   -2.9430   20.9360  -33.4640 C   0  0  0  0  0  0  0  0  0  0  0  0
   -2.7240   20.3380  -32.0790 C   0  0  0  0  0  0  0  0  0  0  0  0
   -2.5600   21.4230  -31.0480 C   0  0  0  0  0  0  0  0  0  0  0  0
   -1.8540   21.1740  -29.8620 C   0  0  0  0  0  0  0  0  0  0  0  0
   -1.7350   22.1710  -28.8910 C   0  0  0  0  0  0  0  0  0  0  0  0
   -2.3150   23.4260  -29.0970 C   0  0  0  0  0  0  0  0  0  0  0  0
   -3.0130   23.6950  -30.2810 C   0  0  0  0  0  0  0  0  0  0  0  0
   -3.5920   24.9970  -30.4660 N   0  0  0  0  0  0  0  0  0  0  0  0
   -4.9930   25.2850  -30.5730 C   0  0  0  0  0  0  0  0  0  0  0  0
   -5.3770   26.4790  -30.4620 O   0  0  0  0  0  0  0  0  0  0  0  0
   -5.9880   24.2240  -30.8440 C   0  0  0  0  0  0  0  0  0  0  0  0
   -6.3850   23.3510  -29.8180 C   0  0  0  0  0  0  0  0  0  0  0  0
   -7.2570   22.2930  -30.0910 C   0  0  0  0  0  0  0  0  0  0  0  0
   -7.7560   22.1060  -31.3880 C   0  0  0  0  0  0  0  0  0  0  0  0
   -8.7670   20.7150  -31.7750 S   0  0  0  0  0  0  0  0  0  0  0  0
  -10.0730   21.2060  -32.3350 O   0  0  0  0  0  0  0  0  0  0  0  0
   -9.0400   19.9150  -30.5310 O   0  0  0  0  0  0  0  0  0  0  0  0
   -7.9580   19.7090  -32.9560 N   0  0  0  0  0  0  0  0  0  0  0  0
   -6.5750   20.1910  -33.1690 C   0  0  0  0  0  0  0  0  0  0  0  0
   -5.6850   19.0700  -33.7290 C   0  0  0  0  0  0  0  0  0  0  0  0
   -5.5870   17.9290  -32.8840 O   0  0  0  0  0  0  0  0  0  0  0  0
   -6.6770   17.7890  -31.9830 C   0  0  0  0  0  0  0  0  0  0  0  0
   -8.0150   18.2780  -32.5660 C   0  0  0  0  0  0  0  0  0  0  0  0
   -7.4000   23.0040  -32.4000 C   0  0  0  0  0  0  0  0  0  0  0  0
   -6.5240   24.0570  -32.1330 C   0  0  0  0  0  0  0  0  0  0  0  0
   -3.1620   22.6780  -31.2410 C   0  0  0  0  0  0  0  0  0  0  0  0
   -3.3197   21.9646  -33.3639 H   0  0  0  0  0  0  0  0  0  0  0  0
   -1.9903   20.9463  -34.0138 H   0  0  0  0  0  0  0  0  0  0  0  0
   -3.6770   20.3286  -34.0138 H   0  0  0  0  0  0  0  0  0  0  0  0
   -3.5917   19.7162  -31.8133 H   0  0  0  0  0  0  0  0  0  0  0  0
   -1.8082   19.7290  -32.0987 H   0  0  0  0  0  0  0  0  0  0  0  0
   -1.3921   20.1896  -29.6958 H   0  0  0  0  0  0  0  0  0  0  0  0
   -1.1832   21.9679  -27.9614 H   0  0  0  0  0  0  0  0  0  0  0  0
   -2.2228   24.2053  -28.3262 H   0  0  0  0  0  0  0  0  0  0  0  0
   -6.0083   23.5003  -28.7954 H   0  0  0  0  0  0  0  0  0  0  0  0
   -7.5527   21.6048  -29.2855 H   0  0  0  0  0  0  0  0  0  0  0  0
   -8.4830   19.8200  -33.8560 H   0  0  0  0  0  0  0  0  0  0  0  0
   -6.5910   21.0285  -33.8819 H   0  0  0  0  0  0  0  0  0  0  0  0
   -6.1634   20.5177  -32.2027 H   0  0  0  0  0  0  0  0  0  0  0  0
   -6.1006   18.7493  -34.6957 H   0  0  0  0  0  0  0  0  0  0  0  0
   -4.6706   19.4857  -33.8196 H   0  0  0  0  0  0  0  0  0  0  0  0
   -6.7784   16.7257  -31.7201 H   0  0  0  0  0  0  0  0  0  0  0  0
   -6.4563   18.4137  -31.1049 H   0  0  0  0  0  0  0  0  0  0  0  0
   -8.2569   17.6765  -33.4546 H   0  0  0  0  0  0  0  0  0  0  0  0
   -8.7865   18.1663  -31.7899 H   0  0  0  0  0  0  0  0  0  0  0  0
   -7.8129   22.8793  -33.4119 H   0  0  0  0  0  0  0  0  0  0  0  0
   -6.2517   24.7594  -32.9345 H   0  0  0  0  0  0  0  0  0  0  0  0
   -3.7537   22.8662  -32.1490 H   0  0  0  0  0  0  0  0  0  0  0  0
  1  2  1  0
  2  3  1  0
  3  4  2  0
  4  5  1  0
  5  6  2  0
  6  7  1  0
  7  8  1  0
  8  9  1  0
  9 10  2  0
  9 11  1  0
 11 12  2  0
 12 13  1  0
 13 14  2  0
 14 15  1  0
 15 16  2  0
 15 17  2  0
 15 18  1  0
 18 19  1  0
 19 20  1  0
 20 21  1  0
 21 22  1  0
 22 23  1  0
 14 24  1  0
 24 25  2  0
  7 26  2  0
 26  3  1  0
 25 11  1  0
 23 18  1  0
  1 27  1  0
  1 28  1  0
  1 29  1  0
  2 30  1  0
  2 31  1  0
  4 32  1  0
  5 33  1  0
  6 34  1  0
 12 35  1  0
 13 36  1  0
 18 37  1  0
 19 38  1  0
 19 39  1  0
 20 40  1  0
 20 41  1  0
 22 42  1  0
 22 43  1  0
 23 44  1  0
 23 45  1  0
 24 46  1  0
 25 47  1  0
 26 48  1  0
M  CHG  2   8  -1  18   1
M  END
>  <UniqueID>  (7) 
6

>  <SMILES>  (7) 
CCc1cccc([N-]C(=O)c2ccc(S(=O)(=O)[NH+]3CCOCC3)cc2)c1

>  <Energy>  (7) 
63.344791496515285

>  <Genealogy>  (7) 
CCc1cccc([N-]C(=O)c2ccc(S(=O)(=O)[NH+]3CCOCC3)cc2)c1 (protonated)
CCc1cccc([N-]C(=O)c2ccc(S(=O)(=O)[NH+]3CCOCC3)cc2)c1 (3D coordinates assigned)
CCc1cccc([N-]C(=O)c2ccc(S(=O)(=O)[NH+]3CCOCC3)cc2)c1 (nonaromatic ring conformer: 63.344791496515285 kcal/mol)

>  <smiles>  (7) 
CCc1cccc(NC(=O)c2ccc(S(=O)(=O)N3CCOCC3)cc2)c1

>  <score_type>  (7) 
oracle

>  <origin>  (7) 
adgpu

>  <m_score__min__energy>  (7) 
-10.890000000000001

>  <m_primary>  (7) 
energy

$$$$
7:0
     RDKit          3D

 44 46  0  0  0  0  0  0  0  0999 V2000
    0.4580   25.2410  -26.2250 C   0  0  0  0  0  0  0  0  0  0  0  0
   -0.7700   24.9590  -27.0310 C   0  0  0  0  0  0  0  0  0  0  0  0
   -2.0170   24.8530  -26.4050 C   0  0  0  0  0  0  0  0  0  0  0  0
   -3.1510   24.5860  -27.1750 C   0  0  0  0  0  0  0  0  0  0  0  0
   -3.0400   24.4280  -28.5660 C   0  0  0  0  0  0  0  0  0  0  0  0
   -4.2360   24.1430  -29.3990 C   0  0  0  0  0  0  0  0  0  0  0  0
   -4.6330   25.0380  -30.4080 C   0  0  0  0  0  0  0  0  0  0  0  0
   -5.7500   24.7620  -31.2020 C   0  0  0  0  0  0  0  0  0  0  0  0
   -6.4840   23.5830  -31.0080 C   0  0  0  0  0  0  0  0  0  0  0  0
   -7.6970   23.2960  -31.8520 C   0  0  0  0  0  0  0  0  0  0  0  0
   -7.9950   21.8620  -31.8830 N   0  0  0  0  0  0  0  0  0  0  0  0
   -9.1750   21.2930  -31.5810 C   0  0  0  0  0  0  0  0  0  0  0  0
   -9.0950   19.9540  -31.8850 C   0  0  0  0  0  0  0  0  0  0  0  0
   -7.8740   19.6740  -32.3850 N   0  0  0  0  0  0  0  0  0  0  0  0
   -7.2230   20.8550  -32.3490 C   0  0  0  0  0  0  0  0  0  0  0  0
   -5.5490   21.0660  -32.9800 S   0  0  0  0  0  0  0  0  0  0  0  0
   -5.1420   19.2990  -33.3000 C   0  0  0  0  0  0  0  0  0  0  0  0
   -3.6310   19.0550  -33.3030 C   0  0  0  0  0  0  0  0  0  0  0  0
   -5.7980   18.7620  -34.5710 C   0  0  0  0  0  0  0  0  0  0  0  0
   -6.1080   22.7020  -29.9830 C   0  0  0  0  0  0  0  0  0  0  0  0
   -4.9900   22.9750  -29.1910 C   0  0  0  0  0  0  0  0  0  0  0  0
   -1.7660   24.5430  -29.1500 C   0  0  0  0  0  0  0  0  0  0  0  0
   -0.6770   24.8010  -28.3780 N   0  0  0  0  0  0  0  0  0  0  0  0
    0.2144   25.1850  -25.1538 H   0  0  0  0  0  0  0  0  0  0  0  0
    1.2324   24.4973  -26.4642 H   0  0  0  0  0  0  0  0  0  0  0  0
    0.8304   26.2480  -26.4642 H   0  0  0  0  0  0  0  0  0  0  0  0
   -2.1033   24.9789  -25.3156 H   0  0  0  0  0  0  0  0  0  0  0  0
   -4.1346   24.4991  -26.6903 H   0  0  0  0  0  0  0  0  0  0  0  0
   -4.0603   25.9624  -30.5739 H   0  0  0  0  0  0  0  0  0  0  0  0
   -6.0549   25.4737  -31.9834 H   0  0  0  0  0  0  0  0  0  0  0  0
   -8.5608   23.8328  -31.4327 H   0  0  0  0  0  0  0  0  0  0  0  0
   -7.4929   23.6311  -32.8796 H   0  0  0  0  0  0  0  0  0  0  0  0
  -10.0522   21.8088  -31.1633 H   0  0  0  0  0  0  0  0  0  0  0  0
   -9.9040   19.2225  -31.7421 H   0  0  0  0  0  0  0  0  0  0  0  0
   -5.5696   18.7292  -32.4619 H   0  0  0  0  0  0  0  0  0  0  0  0
   -3.2670   18.9962  -32.2666 H   0  0  0  0  0  0  0  0  0  0  0  0
   -3.4132   18.1101  -33.8223 H   0  0  0  0  0  0  0  0  0  0  0  0
   -3.1268   19.8834  -33.8223 H   0  0  0  0  0  0  0  0  0  0  0  0
   -6.6231   18.0866  -34.3006 H   0  0  0  0  0  0  0  0  0  0  0  0
   -6.1905   19.6014  -35.1638 H   0  0  0  0  0  0  0  0  0  0  0  0
   -5.0527   18.2114  -35.1638 H   0  0  0  0  0  0  0  0  0  0  0  0
   -6.6970   21.7908  -29.8018 H   0  0  0  0  0  0  0  0  0  0  0  0
   -4.6975   22.2705  -28.3985 H   0  0  0  0  0  0  0  0  0  0  0  0
   -1.6499   24.4236  -30.2373 H   0  0  0  0  0  0  0  0  0  0  0  0
  1  2  1  0
  2  3  2  0
  3  4  1  0
  4  5  2  0
  5  6  1  0
  6  7  2  0
  7  8  1  0
  8  9  2  0
  9 10  1  0
 10 11  1  0
 11 12  1  0
 12 13  2  0
 13 14  1  0
 14 15  2  0
 15 16  1  0
 16 17  1  0
 17 18  1  0
 17 19  1  0
  9 20  1  0
 20 21  2  0
  5 22  1  0
 22 23  2  0
 23  2  1  0
 21  6  1  0
 15 11  1  0
  1 24  1  0
  1 25  1  0
  1 26  1  0
  3 27  1  0
  4 28  1  0
  7 29  1  0
  8 30  1  0
 10 31  1  0
 10 32  1  0
 12 33  1  0
 13 34  1  0
 17 35  1  0
 18 36  1  0
 18 37  1  0
 18 38  1  0
 19 39  1  0
 19 40  1  0
 19 41  1  0
 20 42  1  0
 21 43  1  0
 22 44  1  0
M  END
>  <UniqueID>  (8) 
7

>  <SMILES>  (8) 
Cc1ccc(-c2ccc(Cn3ccnc3SC(C)C)cc2)cn1

>  <Energy>  (8) 
72.75239076765635

>  <Genealogy>  (8) 
Cc1ccc(-c2ccc(Cn3ccnc3SC(C)C)cc2)cn1 (3D coordinates assigned)
Cc1ccc(-c2ccc(Cn3ccnc3SC(C)C)cc2)cn1 (optimized conformer: 72.75239076765635 kcal/mol)

>  <smiles>  (8) 
Cc1ccc(-c2ccc(Cn3ccnc3SC(C)C)cc2)cn1

>  <score_type>  (8) 
oracle

>  <origin>  (8) 
adgpu

>  <m_score__min__energy>  (8) 
-8.1600000000000001

>  <m_primary>  (8) 
energy

$$$$
8:0
     RDKit          3D

 55 58  0  0  0  0  0  0  0  0999 V2000
   -6.4850   25.6780  -29.2590 C   0  0  0  0  0  0  0  0  0  0  0  0
   -6.2990   25.3300  -30.6280 O   0  0  0  0  0  0  0  0  0  0  0  0
   -6.2960   24.0150  -31.1190 C   0  0  0  0  0  0  0  0  0  0  0  0
   -7.4790   23.3530  -31.4920 C   0  0  0  0  0  0  0  0  0  0  0  0
   -7.4370   22.0460  -31.9780 C   0  0  0  0  0  0  0  0  0  0  0  0
   -6.2110   21.3700  -32.1080 C   0  0  0  0  0  0  0  0  0  0  0  0
   -6.1490   19.9750  -32.6140 C   0  0  0  0  0  0  0  0  0  0  0  0
   -5.9470   19.6910  -33.9720 C   0  0  0  0  0  0  0  0  0  0  0  0
   -5.8990   18.3570  -34.3840 C   0  0  0  0  0  0  0  0  0  0  0  0
   -5.7040   18.0970  -35.6030 O   0  0  0  0  0  0  0  0  0  0  0  0
   -6.0550   17.3500  -33.4700 N   0  0  0  0  0  0  0  0  0  0  0  0
   -6.0200   15.9700  -33.8770 C   0  0  0  0  0  0  0  0  0  0  0  0
   -7.2130   15.3220  -34.2290 C   0  0  0  0  0  0  0  0  0  0  0  0
   -7.2030   13.9680  -34.5610 C   0  0  0  0  0  0  0  0  0  0  0  0
   -5.9990   13.2680  -34.5370 C   0  0  0  0  0  0  0  0  0  0  0  0
   -4.8470   13.9070  -34.2080 N   0  0  0  0  0  0  0  0  0  0  0  0
   -4.8150   15.2310  -33.8870 C   0  0  0  0  0  0  0  0  0  0  0  0
   -3.5490   15.8510  -33.5930 N   0  0  0  0  0  0  0  0  0  0  0  0
   -3.1050   17.0280  -34.3520 C   0  0  0  0  0  0  0  0  0  0  0  0
   -1.5740   17.0360  -34.4990 C   0  0  0  0  0  0  0  0  0  0  0  0
   -1.0330   15.6750  -34.7090 N   0  0  0  0  0  0  0  0  0  0  0  0
   -1.4220   15.1290  -36.0210 C   0  0  0  0  0  0  0  0  0  0  0  0
   -1.3510   14.7360  -33.6010 C   0  0  0  0  0  0  0  0  0  0  0  0
   -2.5700   15.1560  -32.7570 C   0  0  0  0  0  0  0  0  0  0  0  0
   -6.2230   17.6500  -32.1500 C   0  0  0  0  0  0  0  0  0  0  0  0
   -6.2710   18.9420  -31.7380 N   0  0  0  0  0  0  0  0  0  0  0  0
   -5.0300   22.0290  -31.7230 C   0  0  0  0  0  0  0  0  0  0  0  0
   -5.0660   23.3500  -31.2340 C   0  0  0  0  0  0  0  0  0  0  0  0
   -3.9010   24.0340  -30.8500 O   0  0  0  0  0  0  0  0  0  0  0  0
   -3.1060   23.7040  -29.7150 C   0  0  0  0  0  0  0  0  0  0  0  0
   -6.0631   24.8887  -28.6195 H   0  0  0  0  0  0  0  0  0  0  0  0
   -5.9756   26.6304  -29.0503 H   0  0  0  0  0  0  0  0  0  0  0  0
   -7.5598   25.7836  -29.0503 H   0  0  0  0  0  0  0  0  0  0  0  0
   -8.4456   23.8699  -31.3999 H   0  0  0  0  0  0  0  0  0  0  0  0
   -8.3714   21.5398  -32.2620 H   0  0  0  0  0  0  0  0  0  0  0  0
   -5.8282   20.5057  -34.7015 H   0  0  0  0  0  0  0  0  0  0  0  0
   -8.1588   15.8834  -34.2432 H   0  0  0  0  0  0  0  0  0  0  0  0
   -8.1368   13.4575  -34.8392 H   0  0  0  0  0  0  0  0  0  0  0  0
   -5.9814   12.1964  -34.7848 H   0  0  0  0  0  0  0  0  0  0  0  0
   -3.5634   17.0067  -35.3517 H   0  0  0  0  0  0  0  0  0  0  0  0
   -3.4124   17.9344  -33.8097 H   0  0  0  0  0  0  0  0  0  0  0  0
   -1.3027   17.6635  -35.3608 H   0  0  0  0  0  0  0  0  0  0  0  0
   -1.1441   17.4339  -33.5679 H   0  0  0  0  0  0  0  0  0  0  0  0
   -2.0547   14.2410  -35.8756 H   0  0  0  0  0  0  0  0  0  0  0  0
   -1.9824   15.8903  -36.5835 H   0  0  0  0  0  0  0  0  0  0  0  0
   -0.5194   14.8480  -36.5835 H   0  0  0  0  0  0  0  0  0  0  0  0
   -1.5543   13.7455  -34.0341 H   0  0  0  0  0  0  0  0  0  0  0  0
   -0.4819   14.7318  -32.9267 H   0  0  0  0  0  0  0  0  0  0  0  0
   -3.0358   14.2601  -32.3207 H   0  0  0  0  0  0  0  0  0  0  0  0
   -2.2362   15.8334  -31.9572 H   0  0  0  0  0  0  0  0  0  0  0  0
   -6.3203   16.8384  -31.4139 H   0  0  0  0  0  0  0  0  0  0  0  0
   -4.0655   21.5065  -31.8046 H   0  0  0  0  0  0  0  0  0  0  0  0
   -3.6646   23.9359  -28.7962 H   0  0  0  0  0  0  0  0  0  0  0  0
   -2.8641   22.6311  -29.7362 H   0  0  0  0  0  0  0  0  0  0  0  0
   -2.1754   24.2902  -29.7362 H   0  0  0  0  0  0  0  0  0  0  0  0
  1  2  1  0
  2  3  1  0
  3  4  2  0
  4  5  1  0
  5  6  2  0
  6  7  1  0
  7  8  2  0
  8  9  1  0
  9 10  2  0
  9 11  1  0
 11 12  1  0
 12 13  2  0
 13 14  1  0
 14 15  2  0
 15 16  1  0
 16 17  2  0
 17 18  1  0
 18 19  1  0
 19 20  1  0
 20 21  1  0
 21 22  1  0
 21 23  1  0
 23 24  1  0
 11 25  1  0
 25 26  2  0
  6 27  1  0
 27 28  2  0
 28 29  1  0
 29 30  1  0
 28  3  1  0
 26  7  1  0
 17 12  1  0
 24 18  1  0
  1 31  1  0
  1 32  1  0
  1 33  1  0
  4 34  1  0
  5 35  1  0
  8 36  1  0
 13 37  1  0
 14 38  1  0
 15 39  1  0
 19 40  1  0
 19 41  1  0
 20 42  1  0
 20 43  1  0
 22 44  1  0
 22 45  1  0
 22 46  1  0
 23 47  1  0
 23 48  1  0
 24 49  1  0
 24 50  1  0
 25 51  1  0
 27 52  1  0
 30 53  1  0
 30 54  1  0
 30 55  1  0
M  END
>  <UniqueID>  (9) 
8

>  <SMILES>  (9) 
COc1ccc(-c2cc(=O)n(-c3cccnc3N3CCN(C)CC3)cn2)cc1OC

>  <Energy>  (9) 
82.30660636557978

>  <Genealogy>  (9) 
COc1ccc(-c2cc(=O)n(-c3cccnc3N3CCN(C)CC3)cn2)cc1OC (3D coordinates assigned)
COc1ccc(-c2cc(=O)n(-c3cccnc3N3CCN(C)CC3)cn2)cc1OC (nonaromatic ring conformer: 82.30660636557978 kcal/mol)

>  <smiles>  (9) 
COc1ccc(-c2cc(=O)n(-c3cccnc3N3CCN(C)CC3)cn2)cc1OC

>  <score_type>  (9) 
oracle

>  <origin>  (9) 
adgpu

>  <m_score__min__energy>  (9) 
-7.54

>  <m_primary>  (9) 
energy

$$$$
9:0
     RDKit          3D

 39 41  0  0  0  0  0  0  0  0999 V2000
   -8.6120   19.3910  -32.4400 C   0  0  0  0  0  0  0  0  0  0  0  0
   -7.8310   20.4100  -33.0560 O   0  0  0  0  0  0  0  0  0  0  0  0
   -7.1280   21.4010  -32.3550 C   0  0  0  0  0  0  0  0  0  0  0  0
   -5.7220   21.4860  -32.3740 C   0  0  0  0  0  0  0  0  0  0  0  0
   -5.0690   22.4940  -31.6570 C   0  0  0  0  0  0  0  0  0  0  0  0
   -5.8070   23.4300  -30.9220 C   0  0  0  0  0  0  0  0  0  0  0  0
   -4.9870   24.6900  -30.0040 S   0  0  0  0  0  0  0  0  0  0  0  0
   -3.8990   25.2980  -30.8430 O   0  0  0  0  0  0  0  0  0  0  0  0
   -5.9790   25.7540  -29.6290 O   0  0  0  0  0  0  0  0  0  0  0  0
   -4.3060   23.9830  -28.5760 N   0  0  0  0  0  0  0  0  0  0  0  0
   -3.2650   22.9960  -28.5560 C   0  0  0  0  0  0  0  0  0  0  0  0
   -2.0490   23.1850  -29.2290 C   0  0  0  0  0  0  0  0  0  0  0  0
   -1.0630   22.2000  -29.1870 C   0  0  0  0  0  0  0  0  0  0  0  0
   -1.2750   21.0150  -28.4770 C   0  0  0  0  0  0  0  0  0  0  0  0
   -0.2970   20.0720  -28.4550 N   0  0  0  0  0  0  0  0  0  0  0  0
   -0.4390   18.9010  -27.7860 C   0  0  0  0  0  0  0  0  0  0  0  0
    0.6740   17.9010  -27.7930 C   0  0  0  0  0  0  0  0  0  0  0  0
   -1.6200   18.6370  -27.0880 C   0  0  0  0  0  0  0  0  0  0  0  0
   -2.6590   19.5760  -27.0790 C   0  0  0  0  0  0  0  0  0  0  0  0
   -3.7340   19.2790  -26.4120 N   0  0  0  0  0  0  0  0  0  0  0  0
   -2.4970   20.8000  -27.7880 C   0  0  0  0  0  0  0  0  0  0  0  0
   -3.4850   21.8100  -27.8420 C   0  0  0  0  0  0  0  0  0  0  0  0
   -7.2040   23.3420  -30.8980 C   0  0  0  0  0  0  0  0  0  0  0  0
   -7.8590   22.3350  -31.6130 C   0  0  0  0  0  0  0  0  0  0  0  0
   -8.5402   19.4847  -31.3464 H   0  0  0  0  0  0  0  0  0  0  0  0
   -9.6624   19.4969  -32.7489 H   0  0  0  0  0  0  0  0  0  0  0  0
   -8.2367   18.4042  -32.7489 H   0  0  0  0  0  0  0  0  0  0  0  0
   -5.1362   20.7578  -32.9542 H   0  0  0  0  0  0  0  0  0  0  0  0
   -3.9706   22.5517  -31.6706 H   0  0  0  0  0  0  0  0  0  0  0  0
   -1.8726   24.1135  -29.7919 H   0  0  0  0  0  0  0  0  0  0  0  0
   -0.1116   22.3567  -29.7164 H   0  0  0  0  0  0  0  0  0  0  0  0
    0.9504   17.6527  -26.7576 H   0  0  0  0  0  0  0  0  0  0  0  0
    0.3447   16.9895  -28.3133 H   0  0  0  0  0  0  0  0  0  0  0  0
    1.5452   18.3257  -28.3133 H   0  0  0  0  0  0  0  0  0  0  0  0
   -1.7342   17.6881  -26.5435 H   0  0  0  0  0  0  0  0  0  0  0  0
   -4.5810   19.8760  -26.3150 H   0  0  0  0  0  0  0  0  0  0  0  0
   -4.4399   21.6629  -27.3162 H   0  0  0  0  0  0  0  0  0  0  0  0
   -7.7886   24.0682  -30.3142 H   0  0  0  0  0  0  0  0  0  0  0  0
   -8.9572   22.2766  -31.5920 H   0  0  0  0  0  0  0  0  0  0  0  0
  1  2  1  0
  2  3  1  0
  3  4  2  0
  4  5  1  0
  5  6  2  0
  6  7  1  0
  7  8  2  0
  7  9  2  0
  7 10  1  0
 10 11  1  0
 11 12  2  0
 12 13  1  0
 13 14  2  0
 14 15  1  0
 15 16  1  0
 16 17  1  0
 16 18  2  0
 18 19  1  0
 19 20  2  3
 19 21  1  0
 21 22  2  0
  6 23  1  0
 23 24  2  0
 24  3  1  0
 22 11  1  0
 21 14  1  0
  1 25  1  0
  1 26  1  0
  1 27  1  0
  4 28  1  0
  5 29  1  0
 12 30  1  0
 13 31  1  0
 17 32  1  0
 17 33  1  0
 17 34  1  0
 18 35  1  0
 20 36  1  0
 22 37  1  0
 23 38  1  0
 24 39  1  0
M  CHG  2  10  -1  15  -1
M  END
>  <UniqueID>  (10) 
9

>  <SMILES>  (10) 
COc1ccc(S(=O)(=O)[N-]c2ccc3[n-]c(C)cc(=N)c3c2)cc1

>  <Energy>  (10) 
51.77447912253069

>  <Genealogy>  (10) 
COc1ccc(S(=O)(=O)[N-]c2ccc3[n-]c(C)cc(=N)c3c2)cc1 (protonated)
COc1ccc(S(=O)(=O)[N-]c2ccc3[n-]c(C)cc(=N)c3c2)cc1 (3D coordinates assigned)
COc1ccc(S(=O)(=O)[N-]c2ccc3[n-]c(C)cc(=N)c3c2)cc1 (optimized conformer: 51.77447912253069 kcal/mol)

>  <smiles>  (10) 
COc1ccc(S(=O)(=O)Nc2ccc3[nH]c(C)cc(=N)c3c2)cc1

>  <score_type>  (10) 
oracle

>  <origin>  (10) 
adgpu

>  <m_score__min__energy>  (10) 
-10.16

>  <m_primary>  (10) 
energy

$$$$
10:0
     RDKit          3D

 50 53  0  0  0  0  0  0  0  0999 V2000
    1.3360   28.5120  -24.1160 C   0  0  0  0  0  0  0  0  0  0  0  0
    0.5080   27.6570  -25.0280 C   0  0  0  0  0  0  0  0  0  0  0  0
    0.6750   27.7380  -26.4180 C   0  0  0  0  0  0  0  0  0  0  0  0
   -0.1210   26.9690  -27.2720 C   0  0  0  0  0  0  0  0  0  0  0  0
   -1.1080   26.1140  -26.7490 C   0  0  0  0  0  0  0  0  0  0  0  0
   -1.9640   25.2910  -27.6320 C   0  0  0  0  0  0  0  0  0  0  0  0
   -2.4920   24.0380  -27.3790 C   0  0  0  0  0  0  0  0  0  0  0  0
   -3.2140   23.6420  -28.4450 N   0  0  0  0  0  0  0  0  0  0  0  0
   -3.0960   24.6810  -29.3000 C   0  0  0  0  0  0  0  0  0  0  0  0
   -3.6280   24.7190  -30.4870 N   0  0  0  0  0  0  0  0  0  0  0  0
   -4.4880   23.7300  -31.0760 C   0  0  0  0  0  0  0  0  0  0  0  0
   -5.7590   24.0490  -31.5830 C   0  0  0  0  0  0  0  0  0  0  0  0
   -6.5170   23.0370  -32.1650 C   0  0  0  0  0  0  0  0  0  0  0  0
   -6.0160   21.7780  -32.2540 N   0  0  0  0  0  0  0  0  0  0  0  0
   -4.7690   21.4840  -31.7930 C   0  0  0  0  0  0  0  0  0  0  0  0
   -4.2890   20.2760  -31.8630 N   0  0  0  0  0  0  0  0  0  0  0  0
   -4.9060   19.1350  -32.4820 C   0  0  0  0  0  0  0  0  0  0  0  0
   -5.9510   18.4900  -31.8100 C   0  0  0  0  0  0  0  0  0  0  0  0
   -6.5590   17.3580  -32.3630 C   0  0  0  0  0  0  0  0  0  0  0  0
   -6.1070   16.8390  -33.5860 C   0  0  0  0  0  0  0  0  0  0  0  0
   -6.7810   15.6430  -34.1980 C   0  0  0  0  0  0  0  0  0  0  0  0
   -5.7000   14.2240  -34.1400 S   0  0  0  0  0  0  0  0  0  0  0  0
   -4.9520   14.1190  -32.5300 C   0  0  0  0  0  0  0  0  0  0  0  0
   -6.4890   12.9720  -34.4020 O   0  0  0  0  0  0  0  0  0  0  0  0
   -4.6240   14.3610  -35.1790 O   0  0  0  0  0  0  0  0  0  0  0  0
   -5.0450   17.4710  -34.2510 C   0  0  0  0  0  0  0  0  0  0  0  0
   -4.4400   18.6030  -33.6980 C   0  0  0  0  0  0  0  0  0  0  0  0
   -4.0230   22.4600  -31.2100 N   0  0  0  0  0  0  0  0  0  0  0  0
   -2.3560   25.6560  -28.8300 O   0  0  0  0  0  0  0  0  0  0  0  0
   -1.2840   26.0510  -25.3560 C   0  0  0  0  0  0  0  0  0  0  0  0
   -0.4870   26.8200  -24.5040 C   0  0  0  0  0  0  0  0  0  0  0  0
    1.0997   28.2679  -23.0698 H   0  0  0  0  0  0  0  0  0  0  0  0
    2.4031   28.3228  -24.3046 H   0  0  0  0  0  0  0  0  0  0  0  0
    1.1127   29.5725  -24.3046 H   0  0  0  0  0  0  0  0  0  0  0  0
    1.4369   28.4106  -26.8388 H   0  0  0  0  0  0  0  0  0  0  0  0
    0.0255   27.0329  -28.3603 H   0  0  0  0  0  0  0  0  0  0  0  0
   -2.3459   23.4581  -26.4558 H   0  0  0  0  0  0  0  0  0  0  0  0
   -6.1467   25.0766  -31.5213 H   0  0  0  0  0  0  0  0  0  0  0  0
   -7.5224   23.2572  -32.5531 H   0  0  0  0  0  0  0  0  0  0  0  0
   -6.2967   18.8762  -30.8398 H   0  0  0  0  0  0  0  0  0  0  0  0
   -7.3946   16.8728  -31.8372 H   0  0  0  0  0  0  0  0  0  0  0  0
   -7.7020   15.4204  -33.6393 H   0  0  0  0  0  0  0  0  0  0  0  0
   -7.0212   15.8665  -35.2479 H   0  0  0  0  0  0  0  0  0  0  0  0
   -5.7276   14.2279  -31.7576 H   0  0  0  0  0  0  0  0  0  0  0  0
   -4.4577   13.1427  -32.4183 H   0  0  0  0  0  0  0  0  0  0  0  0
   -4.2080   14.9215  -32.4183 H   0  0  0  0  0  0  0  0  0  0  0  0
   -4.6870   17.0735  -35.2122 H   0  0  0  0  0  0  0  0  0  0  0  0
   -3.5952   19.0803  -34.2162 H   0  0  0  0  0  0  0  0  0  0  0  0
   -2.0555   25.3909  -24.9330 H   0  0  0  0  0  0  0  0  0  0  0  0
   -0.6412   26.7683  -23.4161 H   0  0  0  0  0  0  0  0  0  0  0  0
  1  2  1  0
  2  3  2  0
  3  4  1  0
  4  5  2  0
  5  6  1  0
  6  7  2  0
  7  8  1  0
  8  9  1  0
  9 10  2  3
 10 11  1  0
 11 12  1  0
 12 13  2  0
 13 14  1  0
 14 15  1  0
 15 16  2  3
 16 17  1  0
 17 18  2  0
 18 19  1  0
 19 20  2  0
 20 21  1  0
 21 22  1  0
 22 23  1  0
 22 24  2  0
 22 25  2  0
 20 26  1  0
 26 27  2  0
 15 28  1  0
  9 29  1  0
  5 30  1  0
 30 31  2  0
 31  2  1  0
 29  6  1  0
 28 11  2  0
 27 17  1  0
  1 32  1  0
  1 33  1  0
  1 34  1  0
  3 35  1  0
  4 36  1  0
  7 37  1  0
 12 38  1  0
 13 39  1  0
 18 40  1  0
 19 41  1  0
 21 42  1  0
 21 43  1  0
 23 44  1  0
 23 45  1  0
 23 46  1  0
 26 47  1  0
 27 48  1  0
 30 49  1  0
 31 50  1  0
M  CHG  2   8  -1  14  -1
M  END
>  <UniqueID>  (11) 
10

>  <SMILES>  (11) 
Cc1ccc(-c2c[n-]c(=Nc3cc[n-]c(=Nc4ccc(CS(C)(=O)=O)cc4)n3)o2)cc1

>  <Energy>  (11) 
89.80074966469715

>  <Genealogy>  (11) 
Cc1ccc(-c2c[n-]c(=Nc3cc[n-]c(=Nc4ccc(CS(C)(=O)=O)cc4)n3)o2)cc1 (protonated)
Cc1ccc(-c2c[n-]c(=Nc3cc[n-]c(=Nc4ccc(CS(C)(=O)=O)cc4)n3)o2)cc1 (3D coordinates assigned)
Cc1ccc(-c2c[n-]c(=Nc3cc[n-]c(=Nc4ccc(CS(C)(=O)=O)cc4)n3)o2)cc1 (optimized conformer: 89.80074966469715 kcal/mol)

>  <smiles>  (11) 
Cc1ccc(-c2c[nH]c(=Nc3cc[nH]c(=Nc4ccc(CS(C)(=O)=O)cc4)n3)o2)cc1

>  <score_type>  (11) 
oracle

>  <origin>  (11) 
adgpu

>  <m_score__min__energy>  (11) 
-10.789999999999999

>  <m_primary>  (11) 
energy

$$$$
11:0
     RDKit          3D

 58 61  0  0  0  0  0  0  0  0999 V2000
   -0.9170   22.6440  -29.4120 C   0  0  0  0  0  0  0  0  0  0  0  0
   -1.1480   24.1500  -29.3100 C   0  0  0  0  0  0  0  0  0  0  0  0
   -2.2250   24.4750  -28.2820 C   0  0  0  0  0  0  0  0  0  0  0  0
   -1.8580   24.9080  -26.9720 C   0  0  0  0  0  0  0  0  0  0  0  0
   -0.4170   25.1200  -26.5500 C   0  0  0  0  0  0  0  0  0  0  0  0
   -0.2450   24.8210  -25.1120 N   0  0  0  0  0  0  0  0  0  0  0  0
    0.5630   23.6080  -24.8910 C   0  0  0  0  0  0  0  0  0  0  0  0
    0.2590   25.9830  -24.3440 C   0  0  0  0  0  0  0  0  0  0  0  0
   -0.8390   26.8110  -23.6620 C   0  0  0  0  0  0  0  0  0  0  0  0
   -2.8580   25.1660  -26.0190 C   0  0  0  0  0  0  0  0  0  0  0  0
   -4.1980   24.9670  -26.3210 C   0  0  0  0  0  0  0  0  0  0  0  0
   -4.5710   24.5080  -27.5770 C   0  0  0  0  0  0  0  0  0  0  0  0
   -3.6100   24.2620  -28.5720 C   0  0  0  0  0  0  0  0  0  0  0  0
   -4.1210   23.7480  -29.8680 C   0  0  0  0  0  0  0  0  0  0  0  0
   -4.2510   22.4490  -30.1960 N   0  0  0  0  0  0  0  0  0  0  0  0
   -4.7210   22.5270  -31.4580 C   0  0  0  0  0  0  0  0  0  0  0  0
   -5.0580   21.3490  -32.2850 C   0  0  0  0  0  0  0  0  0  0  0  0
   -6.3940   20.9330  -32.4230 C   0  0  0  0  0  0  0  0  0  0  0  0
   -6.7120   19.8280  -33.2180 C   0  0  0  0  0  0  0  0  0  0  0  0
   -5.7010   19.1310  -33.8890 C   0  0  0  0  0  0  0  0  0  0  0  0
   -6.1140   17.7320  -34.9340 S   0  0  0  0  0  0  0  0  0  0  0  0
   -5.0180   16.6290  -34.0410 C   0  0  0  0  0  0  0  0  0  0  0  0
   -5.4710   15.9710  -32.8890 C   0  0  0  0  0  0  0  0  0  0  0  0
   -4.6190   15.1020  -32.2000 C   0  0  0  0  0  0  0  0  0  0  0  0
   -3.3140   14.8890  -32.6570 C   0  0  0  0  0  0  0  0  0  0  0  0
   -2.8590   15.5460  -33.8050 C   0  0  0  0  0  0  0  0  0  0  0  0
   -3.7100   16.4150  -34.4980 C   0  0  0  0  0  0  0  0  0  0  0  0
   -4.3690   19.5330  -33.7510 C   0  0  0  0  0  0  0  0  0  0  0  0
   -4.0470   20.6360  -32.9540 C   0  0  0  0  0  0  0  0  0  0  0  0
   -4.8580   23.8010  -31.8730 N   0  0  0  0  0  0  0  0  0  0  0  0
   -4.4730   24.5230  -30.8650 O   0  0  0  0  0  0  0  0  0  0  0  0
   -0.8510   22.2139  -28.4017 H   0  0  0  0  0  0  0  0  0  0  0  0
   -1.7545   22.1804  -29.9539 H   0  0  0  0  0  0  0  0  0  0  0  0
    0.0210   22.4528  -29.9539 H   0  0  0  0  0  0  0  0  0  0  0  0
   -0.2083   24.6375  -29.0112 H   0  0  0  0  0  0  0  0  0  0  0  0
   -1.4815   24.5180  -30.2915 H   0  0  0  0  0  0  0  0  0  0  0  0
    0.2331   24.4550  -27.1375 H   0  0  0  0  0  0  0  0  0  0  0  0
   -0.1471   26.1715  -26.7277 H   0  0  0  0  0  0  0  0  0  0  0  0
    0.6778   23.4357  -23.8107 H   0  0  0  0  0  0  0  0  0  0  0  0
    0.0596   22.7437  -25.3487 H   0  0  0  0  0  0  0  0  0  0  0  0
    1.5546   23.7395  -25.3487 H   0  0  0  0  0  0  0  0  0  0  0  0
    0.9440   25.6122  -23.5673 H   0  0  0  0  0  0  0  0  0  0  0  0
    0.7539   26.6486  -25.0665 H   0  0  0  0  0  0  0  0  0  0  0  0
   -0.7334   26.7314  -22.5700 H   0  0  0  0  0  0  0  0  0  0  0  0
   -0.7445   27.8646  -23.9636 H   0  0  0  0  0  0  0  0  0  0  0  0
   -1.8260   26.4304  -23.9636 H   0  0  0  0  0  0  0  0  0  0  0  0
   -2.5750   25.5305  -25.0205 H   0  0  0  0  0  0  0  0  0  0  0  0
   -4.9673   25.1737  -25.5624 H   0  0  0  0  0  0  0  0  0  0  0  0
   -5.6348   24.3343  -27.7965 H   0  0  0  0  0  0  0  0  0  0  0  0
   -7.1936   21.4803  -31.9023 H   0  0  0  0  0  0  0  0  0  0  0  0
   -7.7591   19.5057  -33.3163 H   0  0  0  0  0  0  0  0  0  0  0  0
   -6.4962   16.1382  -32.5271 H   0  0  0  0  0  0  0  0  0  0  0  0
   -4.9756   14.5849  -31.2970 H   0  0  0  0  0  0  0  0  0  0  0  0
   -2.6457   14.2049  -32.1135 H   0  0  0  0  0  0  0  0  0  0  0  0
   -1.8323   15.3798  -34.1633 H   0  0  0  0  0  0  0  0  0  0  0  0
   -3.3522   16.9302  -35.4016 H   0  0  0  0  0  0  0  0  0  0  0  0
   -3.5724   18.9803  -34.2706 H   0  0  0  0  0  0  0  0  0  0  0  0
   -2.9972   20.9477  -32.8497 H   0  0  0  0  0  0  0  0  0  0  0  0
  1  2  1  0
  2  3  1  0
  3  4  2  0
  4  5  1  0
  5  6  1  0
  6  7  1  0
  6  8  1  0
  8  9  1  0
  4 10  1  0
 10 11  2  0
 11 12  1  0
 12 13  2  0
 13 14  1  0
 14 15  2  0
 15 16  1  0
 16 17  1  0
 17 18  2  0
 18 19  1  0
 19 20  2  0
 20 21  1  0
 21 22  1  0
 22 23  2  0
 23 24  1  0
 24 25  2  0
 25 26  1  0
 26 27  2  0
 20 28  1  0
 28 29  2  0
 16 30  2  0
 30 31  1  0
 13  3  1  0
 31 14  1  0
 29 17  1  0
 27 22  1  0
  1 32  1  0
  1 33  1  0
  1 34  1  0
  2 35  1  0
  2 36  1  0
  5 37  1  0
  5 38  1  0
  7 39  1  0
  7 40  1  0
  7 41  1  0
  8 42  1  0
  8 43  1  0
  9 44  1  0
  9 45  1  0
  9 46  1  0
 10 47  1  0
 11 48  1  0
 12 49  1  0
 18 50  1  0
 19 51  1  0
 23 52  1  0
 24 53  1  0
 25 54  1  0
 26 55  1  0
 27 56  1  0
 28 57  1  0
 29 58  1  0
M  END
>  <UniqueID>  (12) 
11

>  <SMILES>  (12) 
CCc1c(CN(C)CC)cccc1-c1nc(-c2ccc(Sc3ccccc3)cc2)no1

>  <Energy>  (12) 
97.85987236310683

>  <Genealogy>  (12) 
CCc1c(CN(C)CC)cccc1-c1nc(-c2ccc(Sc3ccccc3)cc2)no1 (3D coordinates assigned)
CCc1c(CN(C)CC)cccc1-c1nc(-c2ccc(Sc3ccccc3)cc2)no1 (optimized conformer: 97.85987236310683 kcal/mol)

>  <smiles>  (12) 
CCc1c(CN(C)CC)cccc1-c1nc(-c2ccc(Sc3ccccc3)cc2)no1

>  <score_type>  (12) 
oracle

>  <origin>  (12) 
adgpu

>  <m_score__min__energy>  (12) 
-10.35

>  <m_primary>  (12) 
energy

$$$$
12:0
     RDKit          3D

 46 48  0  0  0  0  0  0  0  0999 V2000
   -5.6420   26.7220  -30.5790 O   0  0  0  0  0  0  0  0  0  0  0  0
   -5.2320   25.5330  -30.5230 C   0  0  0  0  0  0  0  0  0  0  0  0
   -6.1630   24.4430  -30.4690 N   0  0  0  0  0  0  0  0  0  0  0  0
   -6.1200   23.2420  -31.2540 C   0  0  0  0  0  0  0  0  0  0  0  0
   -7.2740   22.4780  -31.5130 C   0  0  0  0  0  0  0  0  0  0  0  0
   -7.1920   21.3290  -32.3060 C   0  0  0  0  0  0  0  0  0  0  0  0
   -5.9680   20.9410  -32.8560 C   0  0  0  0  0  0  0  0  0  0  0  0
   -4.8220   21.7090  -32.6220 C   0  0  0  0  0  0  0  0  0  0  0  0
   -3.2880   21.2320  -33.3260 Cl  0  0  0  0  0  0  0  0  0  0  0  0
   -4.9020   22.8600  -31.8300 C   0  0  0  0  0  0  0  0  0  0  0  0
   -3.8280   25.2860  -30.4140 N   0  0  0  0  0  0  0  0  0  0  0  0
   -3.2150   24.4540  -29.4190 C   0  0  0  0  0  0  0  0  0  0  0  0
   -3.9470   23.3850  -28.9040 C   0  0  0  0  0  0  0  0  0  0  0  0
   -3.3970   22.5600  -27.9260 C   0  0  0  0  0  0  0  0  0  0  0  0
   -2.1080   22.7910  -27.4380 C   0  0  0  0  0  0  0  0  0  0  0  0
   -1.6360   21.9350  -26.4410 O   0  0  0  0  0  0  0  0  0  0  0  0
   -1.3450   23.8750  -27.9460 C   0  0  0  0  0  0  0  0  0  0  0  0
    0.3060   24.1880  -27.3620 S   0  0  0  0  0  0  0  0  0  0  0  0
    1.2250   24.5140  -28.5070 O   0  0  0  0  0  0  0  0  0  0  0  0
    0.8420   22.9570  -26.6860 O   0  0  0  0  0  0  0  0  0  0  0  0
    0.2880   25.5670  -26.2130 C   0  0  0  0  0  0  0  0  0  0  0  0
   -0.5500   26.7280  -26.7720 C   0  0  0  0  0  0  0  0  0  0  0  0
   -0.4830   27.9690  -25.8560 C   0  0  0  0  0  0  0  0  0  0  0  0
   -0.2290   27.6280  -24.3750 C   0  0  0  0  0  0  0  0  0  0  0  0
   -0.8340   26.2730  -23.9950 C   0  0  0  0  0  0  0  0  0  0  0  0
   -0.2340   25.1200  -24.8270 C   0  0  0  0  0  0  0  0  0  0  0  0
   -1.9300   24.7290  -28.9090 C   0  0  0  0  0  0  0  0  0  0  0  0
   -1.2600   25.8720  -29.3310 O   0  0  0  0  0  0  0  0  0  0  0  0
   -8.2420   22.7855  -31.0907 H   0  0  0  0  0  0  0  0  0  0  0  0
   -8.0940   20.7291  -32.4972 H   0  0  0  0  0  0  0  0  0  0  0  0
   -5.9051   20.0323  -33.4727 H   0  0  0  0  0  0  0  0  0  0  0  0
   -4.0020   23.4688  -31.6587 H   0  0  0  0  0  0  0  0  0  0  0  0
   -4.9653   23.1920  -29.2724 H   0  0  0  0  0  0  0  0  0  0  0  0
   -3.9840   21.7168  -27.5331 H   0  0  0  0  0  0  0  0  0  0  0  0
   -0.6960   21.9550  -26.0770 H   0  0  0  0  0  0  0  0  0  0  0  0
    1.3205   25.9242  -26.0854 H   0  0  0  0  0  0  0  0  0  0  0  0
   -0.1673   26.9978  -27.7674 H   0  0  0  0  0  0  0  0  0  0  0  0
   -1.5981   26.3993  -26.8303 H   0  0  0  0  0  0  0  0  0  0  0  0
    0.3322   28.6180  -26.2084 H   0  0  0  0  0  0  0  0  0  0  0  0
   -1.4639   28.4638  -25.9100 H   0  0  0  0  0  0  0  0  0  0  0  0
    0.8561   27.5966  -24.1972 H   0  0  0  0  0  0  0  0  0  0  0  0
   -0.7068   28.4028  -23.7574 H   0  0  0  0  0  0  0  0  0  0  0  0
   -0.6375   26.0822  -22.9296 H   0  0  0  0  0  0  0  0  0  0  0  0
   -1.9143   26.3134  -24.1985 H   0  0  0  0  0  0  0  0  0  0  0  0
    0.6037   24.6831  -24.2636 H   0  0  0  0  0  0  0  0  0  0  0  0
   -1.0412   24.3938  -25.0036 H   0  0  0  0  0  0  0  0  0  0  0  0
  1  2  2  0
  2  3  1  0
  3  4  1  0
  4  5  2  0
  5  6  1  0
  6  7  2  0
  7  8  1  0
  8  9  1  0
  8 10  2  0
  2 11  1  0
 11 12  1  0
 12 13  2  0
 13 14  1  0
 14 15  2  0
 15 16  1  0
 15 17  1  0
 17 18  1  0
 18 19  2  0
 18 20  2  0
 18 21  1  0
 21 22  1  0
 22 23  1  0
 23 24  1  0
 24 25  1  0
 25 26  1  0
 17 27  2  0
 27 28  1  0
 10  4  1  0
 27 12  1  0
 26 21  1  0
  5 29  1  0
  6 30  1  0
  7 31  1  0
 10 32  1  0
 13 33  1  0
 14 34  1  0
 16 35  1  0
 21 36  1  0
 22 37  1  0
 22 38  1  0
 23 39  1  0
 23 40  1  0
 24 41  1  0
 24 42  1  0
 25 43  1  0
 25 44  1  0
 26 45  1  0
 26 46  1  0
M  CHG  3   3  -1  11  -1  28  -1
M  END
>  <UniqueID>  (13) 
12

>  <SMILES>  (13) 
O=C([N-]c1cccc(Cl)c1)[N-]c1ccc(O)c(S(=O)(=O)C2CCCCC2)c1[O-]

>  <Energy>  (13) 
58.42184535429867

>  <Genealogy>  (13) 
O=C([N-]c1cccc(Cl)c1)[N-]c1ccc(O)c(S(=O)(=O)C2CCCCC2)c1[O-] (protonated)
O=C([N-]c1cccc(Cl)c1)[N-]c1ccc(O)c(S(=O)(=O)C2CCCCC2)c1[O-] (3D coordinates assigned)
O=C([N-]c1cccc(Cl)c1)[N-]c1ccc(O)c(S(=O)(=O)C2CCCCC2)c1[O-] (nonaromatic ring conformer: 58.42184535429867 kcal/mol)

>  <smiles>  (13) 
O=C(Nc1cccc(Cl)c1)Nc1ccc(O)c(S(=O)(=O)C2CCCCC2)c1O

>  <score_type>  (13) 
oracle

>  <origin>  (13) 
adgpu

>  <m_score__min__energy>  (13) 
-14.66

>  <m_primary>  (13) 
energy

$$$$
13:0
     RDKit          3D

 56 59  0  0  0  0  0  0  0  0999 V2000
   -7.2930   20.2180  -33.3920 C   0  0  0  0  0  0  0  0  0  0  0  0
   -7.0560   21.4300  -32.5320 C   0  0  0  0  0  0  0  0  0  0  0  0
   -8.1750   22.0950  -32.0010 C   0  0  0  0  0  0  0  0  0  0  0  0
   -8.0170   23.2430  -31.2190 C   0  0  0  0  0  0  0  0  0  0  0  0
   -6.7420   23.7460  -30.9660 C   0  0  0  0  0  0  0  0  0  0  0  0
   -5.6190   23.0940  -31.4790 C   0  0  0  0  0  0  0  0  0  0  0  0
   -5.7590   21.9220  -32.2440 C   0  0  0  0  0  0  0  0  0  0  0  0
   -4.5300   21.2440  -32.7010 C   0  0  0  0  0  0  0  0  0  0  0  0
   -3.4190   21.9140  -33.1640 C   0  0  0  0  0  0  0  0  0  0  0  0
   -2.4040   20.9850  -33.2520 C   0  0  0  0  0  0  0  0  0  0  0  0
   -0.9860   21.3310  -33.4530 C   0  0  0  0  0  0  0  0  0  0  0  0
   -0.5500   21.5640  -34.6110 O   0  0  0  0  0  0  0  0  0  0  0  0
   -0.1080   21.4540  -32.3290 N   0  0  0  0  0  0  0  0  0  0  0  0
   -0.5930   21.4080  -30.9830 C   0  0  0  0  0  0  0  0  0  0  0  0
   -0.2730   20.3250  -30.1460 C   0  0  0  0  0  0  0  0  0  0  0  0
   -0.8230   20.2430  -28.8660 C   0  0  0  0  0  0  0  0  0  0  0  0
   -1.7110   21.2240  -28.4220 C   0  0  0  0  0  0  0  0  0  0  0  0
   -2.0490   22.3020  -29.2560 C   0  0  0  0  0  0  0  0  0  0  0  0
   -3.2120   23.5170  -28.7200 S   0  0  0  0  0  0  0  0  0  0  0  0
   -3.1810   24.8700  -29.8050 N   0  0  0  0  0  0  0  0  0  0  0  0
   -2.8650   23.9810  -27.3300 O   0  0  0  0  0  0  0  0  0  0  0  0
   -4.5930   22.9220  -28.6940 O   0  0  0  0  0  0  0  0  0  0  0  0
   -1.4660   22.4040  -30.5270 C   0  0  0  0  0  0  0  0  0  0  0  0
   -2.9350   19.7700  -32.8440 C   0  0  0  0  0  0  0  0  0  0  0  0
   -2.1580   18.5020  -32.6350 C   0  0  0  0  0  0  0  0  0  0  0  0
   -4.2350   19.9380  -32.4890 N   0  0  0  0  0  0  0  0  0  0  0  0
   -5.0870   18.9570  -31.7980 C   0  0  0  0  0  0  0  0  0  0  0  0
   -5.2570   17.7140  -32.6340 C   0  0  0  0  0  0  0  0  0  0  0  0
   -5.3660   17.8110  -34.0330 C   0  0  0  0  0  0  0  0  0  0  0  0
   -5.4630   16.6540  -34.8120 C   0  0  0  0  0  0  0  0  0  0  0  0
   -5.4610   15.3960  -34.2040 C   0  0  0  0  0  0  0  0  0  0  0  0
   -5.3660   15.2920  -32.8120 C   0  0  0  0  0  0  0  0  0  0  0  0
   -5.2690   16.4460  -32.0300 C   0  0  0  0  0  0  0  0  0  0  0  0
   -7.4645   19.3411  -32.7505 H   0  0  0  0  0  0  0  0  0  0  0  0
   -8.1753   20.3859  -34.0271 H   0  0  0  0  0  0  0  0  0  0  0  0
   -6.4124   20.0412  -34.0271 H   0  0  0  0  0  0  0  0  0  0  0  0
   -9.1848   21.7082  -32.2028 H   0  0  0  0  0  0  0  0  0  0  0  0
   -8.9001   23.7500  -30.8028 H   0  0  0  0  0  0  0  0  0  0  0  0
   -6.6204   24.6572  -30.3618 H   0  0  0  0  0  0  0  0  0  0  0  0
   -4.6158   23.5005  -31.2832 H   0  0  0  0  0  0  0  0  0  0  0  0
   -3.3542   22.9830  -33.4149 H   0  0  0  0  0  0  0  0  0  0  0  0
    0.4121   19.5408  -30.5005 H   0  0  0  0  0  0  0  0  0  0  0  0
   -0.5563   19.4042  -28.2062 H   0  0  0  0  0  0  0  0  0  0  0  0
   -2.1477   21.1524  -27.4150 H   0  0  0  0  0  0  0  0  0  0  0  0
   -2.7430   25.6730  -29.2900 H   0  0  0  0  0  0  0  0  0  0  0  0
   -1.6947   23.2684  -31.1677 H   0  0  0  0  0  0  0  0  0  0  0  0
   -2.0437   18.3155  -31.5570 H   0  0  0  0  0  0  0  0  0  0  0  0
   -2.6964   17.6616  -33.0975 H   0  0  0  0  0  0  0  0  0  0  0  0
   -1.1648   18.6001  -33.0975 H   0  0  0  0  0  0  0  0  0  0  0  0
   -4.6207   18.6860  -30.8393 H   0  0  0  0  0  0  0  0  0  0  0  0
   -6.0766   19.4064  -31.6284 H   0  0  0  0  0  0  0  0  0  0  0  0
   -5.3750   18.7995  -34.5154 H   0  0  0  0  0  0  0  0  0  0  0  0
   -5.5411   16.7343  -35.9063 H   0  0  0  0  0  0  0  0  0  0  0  0
   -5.5341   14.4874  -34.8197 H   0  0  0  0  0  0  0  0  0  0  0  0
   -5.3677   14.3017  -32.3331 H   0  0  0  0  0  0  0  0  0  0  0  0
   -5.2017   16.3609  -30.9354 H   0  0  0  0  0  0  0  0  0  0  0  0
  1  2  1  0
  2  3  2  0
  3  4  1  0
  4  5  2  0
  5  6  1  0
  6  7  2  0
  7  8  1  0
  8  9  2  0
  9 10  1  0
 10 11  1  0
 11 12  2  0
 11 13  1  0
 13 14  1  0
 14 15  2  0
 15 16  1  0
 16 17  2  0
 17 18  1  0
 18 19  1  0
 19 20  1  0
 19 21  2  0
 19 22  2  0
 18 23  2  0
 10 24  2  0
 24 25  1  0
 24 26  1  0
 26 27  1  0
 27 28  1  0
 28 29  2  0
 29 30  1  0
 30 31  2  0
 31 32  1  0
 32 33  2  0
  7  2  1  0
 26  8  1  0
 33 28  1  0
 23 14  1  0
  1 34  1  0
  1 35  1  0
  1 36  1  0
  3 37  1  0
  4 38  1  0
  5 39  1  0
  6 40  1  0
  9 41  1  0
 15 42  1  0
 16 43  1  0
 17 44  1  0
 20 45  1  0
 23 46  1  0
 25 47  1  0
 25 48  1  0
 25 49  1  0
 27 50  1  0
 27 51  1  0
 29 52  1  0
 30 53  1  0
 31 54  1  0
 32 55  1  0
 33 56  1  0
M  CHG  2  13  -1  20  -1
M  END
>  <UniqueID>  (14) 
13

>  <SMILES>  (14) 
Cc1ccccc1-c1cc(C(=O)[N-]c2cccc(S([NH-])(=O)=O)c2)c(C)n1Cc1ccccc1

>  <Energy>  (14) 
98.27228337206223

>  <Genealogy>  (14) 
Cc1ccccc1-c1cc(C(=O)[N-]c2cccc(S([NH-])(=O)=O)c2)c(C)n1Cc1ccccc1 (protonated)
Cc1ccccc1-c1cc(C(=O)[N-]c2cccc(S([NH-])(=O)=O)c2)c(C)n1Cc1ccccc1 (3D coordinates assigned)
Cc1ccccc1-c1cc(C(=O)[N-]c2cccc(S([NH-])(=O)=O)c2)c(C)n1Cc1ccccc1 (optimized conformer: 98.27228337206223 kcal/mol)

>  <smiles>  (14) 
Cc1ccccc1-c1cc(C(=O)Nc2cccc(S(N)(=O)=O)c2)c(C)n1Cc1ccccc1

>  <score_type>  (14) 
oracle

>  <origin>  (14) 
adgpu

>  <m_score__min__energy>  (14) 
-12.710000000000001

>  <m_primary>  (14) 
energy

$$$$
14:0
     RDKit          3D

 44 46  0  0  0  0  0  0  0  0999 V2000
   -2.6680   19.7180  -33.8690 C   0  0  0  0  0  0  0  0  0  0  0  0
   -2.5160   20.6360  -32.6870 C   0  0  0  0  0  0  0  0  0  0  0  0
   -3.4950   21.6070  -32.4290 C   0  0  0  0  0  0  0  0  0  0  0  0
   -3.3980   22.4630  -31.3170 C   0  0  0  0  0  0  0  0  0  0  0  0
   -4.6770   23.6690  -31.0250 S   0  0  0  0  0  0  0  0  0  0  0  0
   -4.0340   25.0120  -30.8240 O   0  0  0  0  0  0  0  0  0  0  0  0
   -5.4480   23.3050  -29.7850 O   0  0  0  0  0  0  0  0  0  0  0  0
   -5.8020   23.7870  -32.3460 N   0  0  0  0  0  0  0  0  0  0  0  0
   -7.1800   23.7920  -31.8400 C   0  0  0  0  0  0  0  0  0  0  0  0
   -7.7910   22.4300  -31.9800 C   0  0  0  0  0  0  0  0  0  0  0  0
   -9.1590   22.2280  -31.7760 C   0  0  0  0  0  0  0  0  0  0  0  0
   -9.6760   20.9470  -31.9630 C   0  0  0  0  0  0  0  0  0  0  0  0
   -8.8560   19.9340  -32.3480 N   0  0  0  0  0  0  0  0  0  0  0  0
   -7.5270   20.1420  -32.5580 C   0  0  0  0  0  0  0  0  0  0  0  0
   -6.6470   19.0280  -32.9860 C   0  0  0  0  0  0  0  0  0  0  0  0
   -6.1110   19.0000  -34.2890 C   0  0  0  0  0  0  0  0  0  0  0  0
   -5.2860   17.9460  -34.6950 C   0  0  0  0  0  0  0  0  0  0  0  0
   -4.9860   16.9100  -33.8080 C   0  0  0  0  0  0  0  0  0  0  0  0
   -5.5090   16.9260  -32.5140 C   0  0  0  0  0  0  0  0  0  0  0  0
   -6.3350   17.9760  -32.1020 C   0  0  0  0  0  0  0  0  0  0  0  0
   -7.0120   21.3890  -32.3750 N   0  0  0  0  0  0  0  0  0  0  0  0
   -2.2630   22.3670  -30.4730 C   0  0  0  0  0  0  0  0  0  0  0  0
   -2.0700   23.2730  -29.2850 C   0  0  0  0  0  0  0  0  0  0  0  0
   -1.3010   21.3740  -30.7220 C   0  0  0  0  0  0  0  0  0  0  0  0
   -1.4240   20.5100  -31.8130 C   0  0  0  0  0  0  0  0  0  0  0  0
   -0.1840   19.2840  -32.0570 Cl  0  0  0  0  0  0  0  0  0  0  0  0
   -2.8382   18.6903  -33.5156 H   0  0  0  0  0  0  0  0  0  0  0  0
   -3.5246   20.0429  -34.4779 H   0  0  0  0  0  0  0  0  0  0  0  0
   -1.7524   19.7495  -34.4779 H   0  0  0  0  0  0  0  0  0  0  0  0
   -4.3546   21.7008  -33.1090 H   0  0  0  0  0  0  0  0  0  0  0  0
   -5.6440   22.9690  -32.9780 H   0  0  0  0  0  0  0  0  0  0  0  0
   -7.1757   24.0803  -30.7785 H   0  0  0  0  0  0  0  0  0  0  0  0
   -7.7728   24.5117  -32.4237 H   0  0  0  0  0  0  0  0  0  0  0  0
   -9.8122   23.0603  -31.4750 H   0  0  0  0  0  0  0  0  0  0  0  0
  -10.7469   20.7563  -31.7991 H   0  0  0  0  0  0  0  0  0  0  0  0
   -6.3432   19.8133  -34.9922 H   0  0  0  0  0  0  0  0  0  0  0  0
   -4.8729   17.9331  -35.7144 H   0  0  0  0  0  0  0  0  0  0  0  0
   -4.3376   16.0814  -34.1290 H   0  0  0  0  0  0  0  0  0  0  0  0
   -5.2705   16.1098  -31.8161 H   0  0  0  0  0  0  0  0  0  0  0  0
   -6.7441   17.9809  -31.0809 H   0  0  0  0  0  0  0  0  0  0  0  0
   -2.1934   22.6936  -28.3581 H   0  0  0  0  0  0  0  0  0  0  0  0
   -1.0594   23.7063  -29.3147 H   0  0  0  0  0  0  0  0  0  0  0  0
   -2.8163   24.0806  -29.3147 H   0  0  0  0  0  0  0  0  0  0  0  0
   -0.4376   21.2752  -30.0476 H   0  0  0  0  0  0  0  0  0  0  0  0
  1  2  1  0
  2  3  2  0
  3  4  1  0
  4  5  1  0
  5  6  2  0
  5  7  2  0
  5  8  1  0
  8  9  1  0
  9 10  1  0
 10 11  2  0
 11 12  1  0
 12 13  2  0
 13 14  1  0
 14 15  1  0
 15 16  2  0
 16 17  1  0
 17 18  2  0
 18 19  1  0
 19 20  2  0
 14 21  2  0
  4 22  2  0
 22 23  1  0
 22 24  1  0
 24 25  2  0
 25 26  1  0
 25  2  1  0
 21 10  1  0
 20 15  1  0
  1 27  1  0
  1 28  1  0
  1 29  1  0
  3 30  1  0
  8 31  1  0
  9 32  1  0
  9 33  1  0
 11 34  1  0
 12 35  1  0
 16 36  1  0
 17 37  1  0
 18 38  1  0
 19 39  1  0
 20 40  1  0
 23 41  1  0
 23 42  1  0
 23 43  1  0
 24 44  1  0
M  END
>  <UniqueID>  (15) 
14

>  <SMILES>  (15) 
Cc1cc(S(=O)(=O)NCc2ccnc(-c3ccccc3)n2)c(C)cc1Cl

>  <Energy>  (15) 
48.532885079843716

>  <Genealogy>  (15) 
Cc1cc(S(=O)(=O)NCc2ccnc(-c3ccccc3)n2)c(C)cc1Cl (3D coordinates assigned)
Cc1cc(S(=O)(=O)NCc2ccnc(-c3ccccc3)n2)c(C)cc1Cl (optimized conformer: 48.532885079843716 kcal/mol)

>  <smiles>  (15) 
Cc1cc(S(=O)(=O)NCc2ccnc(-c3ccccc3)n2)c(C)cc1Cl

>  <score_type>  (15) 
oracle

>  <origin>  (15) 
adgpu

>  <m_score__min__energy>  (15) 
-9.9100000000000001

>  <m_primary>  (15) 
energy

$$$$
15:0
     RDKit          3D

 43 46  0  0  0  0  0  0  0  0999 V2000
   -9.8900   21.7290  -29.9130 O   0  0  0  0  0  0  0  0  0  0  0  0
   -9.0310   21.5120  -31.1290 S   0  0  0  0  0  0  0  0  0  0  0  0
   -9.7680   22.0000  -32.3440 O   0  0  0  0  0  0  0  0  0  0  0  0
   -8.7070   19.8190  -31.2920 N   0  0  0  0  0  0  0  0  0  0  0  0
   -7.7690   19.3230  -32.2520 C   0  0  0  0  0  0  0  0  0  0  0  0
   -7.2430   18.0380  -32.1870 C   0  0  0  0  0  0  0  0  0  0  0  0
   -6.2020   17.8540  -33.4930 S   0  0  0  0  0  0  0  0  0  0  0  0
   -6.4610   19.4070  -34.0810 C   0  0  0  0  0  0  0  0  0  0  0  0
   -7.3340   20.0770  -33.3000 N   0  0  0  0  0  0  0  0  0  0  0  0
   -7.5160   22.3970  -30.9830 C   0  0  0  0  0  0  0  0  0  0  0  0
   -6.9660   22.6660  -29.7230 C   0  0  0  0  0  0  0  0  0  0  0  0
   -5.7560   23.3570  -29.6170 C   0  0  0  0  0  0  0  0  0  0  0  0
   -5.0910   23.8020  -30.7650 C   0  0  0  0  0  0  0  0  0  0  0  0
   -3.8700   24.4750  -30.6170 O   0  0  0  0  0  0  0  0  0  0  0  0
   -2.8190   24.0750  -29.7760 C   0  0  0  0  0  0  0  0  0  0  0  0
   -2.3550   24.9100  -28.7460 C   0  0  0  0  0  0  0  0  0  0  0  0
   -1.3740   24.4850  -27.9060 N   0  0  0  0  0  0  0  0  0  0  0  0
   -0.8180   23.2520  -28.0250 C   0  0  0  0  0  0  0  0  0  0  0  0
   -1.2520   22.3820  -29.0240 C   0  0  0  0  0  0  0  0  0  0  0  0
   -2.2590   22.7880  -29.9150 C   0  0  0  0  0  0  0  0  0  0  0  0
   -2.7020   21.8700  -30.9930 C   0  0  0  0  0  0  0  0  0  0  0  0
   -2.1030   21.9170  -32.2640 C   0  0  0  0  0  0  0  0  0  0  0  0
   -2.5200   21.0430  -33.2740 C   0  0  0  0  0  0  0  0  0  0  0  0
   -3.5310   20.1130  -33.0220 C   0  0  0  0  0  0  0  0  0  0  0  0
   -4.1260   20.0520  -31.7600 C   0  0  0  0  0  0  0  0  0  0  0  0
   -3.7130   20.9240  -30.7470 C   0  0  0  0  0  0  0  0  0  0  0  0
   -5.6380   23.5190  -32.0310 C   0  0  0  0  0  0  0  0  0  0  0  0
   -6.8470   22.8280  -32.1360 C   0  0  0  0  0  0  0  0  0  0  0  0
   -9.2330   19.1490  -30.6890 H   0  0  0  0  0  0  0  0  0  0  0  0
   -7.4671   17.2807  -31.4213 H   0  0  0  0  0  0  0  0  0  0  0  0
   -5.9833   19.8214  -34.9811 H   0  0  0  0  0  0  0  0  0  0  0  0
   -7.4882   22.3323  -28.8142 H   0  0  0  0  0  0  0  0  0  0  0  0
   -5.3235   23.5524  -28.6247 H   0  0  0  0  0  0  0  0  0  0  0  0
   -2.7877   25.9132  -28.6184 H   0  0  0  0  0  0  0  0  0  0  0  0
   -0.0235   22.9390  -27.3317 H   0  0  0  0  0  0  0  0  0  0  0  0
   -0.8070   21.3801  -29.1143 H   0  0  0  0  0  0  0  0  0  0  0  0
   -1.3027   22.6443  -32.4654 H   0  0  0  0  0  0  0  0  0  0  0  0
   -2.0509   21.0885  -34.2679 H   0  0  0  0  0  0  0  0  0  0  0  0
   -3.8588   19.4282  -33.8180 H   0  0  0  0  0  0  0  0  0  0  0  0
   -4.9204   19.3173  -31.5622 H   0  0  0  0  0  0  0  0  0  0  0  0
   -4.1814   20.8694  -29.7532 H   0  0  0  0  0  0  0  0  0  0  0  0
   -5.1113   23.8433  -32.9406 H   0  0  0  0  0  0  0  0  0  0  0  0
   -7.2757   22.6213  -33.1277 H   0  0  0  0  0  0  0  0  0  0  0  0
  1  2  2  0
  2  3  2  0
  2  4  1  0
  4  5  1  0
  5  6  2  0
  6  7  1  0
  7  8  1  0
  8  9  2  0
  2 10  1  0
 10 11  2  0
 11 12  1  0
 12 13  2  0
 13 14  1  0
 14 15  1  0
 15 16  2  0
 16 17  1  0
 17 18  2  0
 18 19  1  0
 19 20  2  0
 20 21  1  0
 21 22  2  0
 22 23  1  0
 23 24  2  0
 24 25  1  0
 25 26  2  0
 13 27  1  0
 27 28  2  0
  9  5  1  0
 28 10  1  0
 20 15  1  0
 26 21  1  0
  4 29  1  0
  6 30  1  0
  8 31  1  0
 11 32  1  0
 12 33  1  0
 16 34  1  0
 18 35  1  0
 19 36  1  0
 22 37  1  0
 23 38  1  0
 24 39  1  0
 25 40  1  0
 26 41  1  0
 27 42  1  0
 28 43  1  0
M  END
>  <UniqueID>  (16) 
15

>  <SMILES>  (16) 
O=S(=O)(Nc1cscn1)c1ccc(Oc2cnccc2-c2ccccc2)cc1

>  <Energy>  (16) 
91.10466898482757

>  <Genealogy>  (16) 
O=S(=O)(Nc1cscn1)c1ccc(Oc2cnccc2-c2ccccc2)cc1 (3D coordinates assigned)
O=S(=O)(Nc1cscn1)c1ccc(Oc2cnccc2-c2ccccc2)cc1 (optimized conformer: 91.10466898482757 kcal/mol)

>  <smiles>  (16) 
O=S(=O)(Nc1cscn1)c1ccc(Oc2cnccc2-c2ccccc2)cc1

>  <score_type>  (16) 
oracle

>  <origin>  (16) 
adgpu

>  <m_score__min__energy>  (16) 
-9.0399999999999991

>  <m_primary>  (16) 
energy

$$$$
16:0
     RDKit          3D

 48 52  0  0  0  0  0  0  0  0999 V2000
   -3.5260   16.0270  -36.1350 O   0  0  0  0  0  0  0  0  0  0  0  0
   -4.1320   16.4370  -35.1100 C   0  0  0  0  0  0  0  0  0  0  0  0
   -4.5840   17.7980  -35.0770 N   0  0  0  0  0  0  0  0  0  0  0  0
   -4.1640   18.8090  -34.1490 C   0  0  0  0  0  0  0  0  0  0  0  0
   -5.1370   19.5630  -33.4850 C   0  0  0  0  0  0  0  0  0  0  0  0
   -4.7660   20.5490  -32.5670 C   0  0  0  0  0  0  0  0  0  0  0  0
   -3.4090   20.7890  -32.2860 C   0  0  0  0  0  0  0  0  0  0  0  0
   -3.0110   21.8380  -31.3120 C   0  0  0  0  0  0  0  0  0  0  0  0
   -1.7330   21.8270  -30.7290 C   0  0  0  0  0  0  0  0  0  0  0  0
   -1.3600   22.8150  -29.8140 C   0  0  0  0  0  0  0  0  0  0  0  0
   -2.2580   23.8350  -29.4610 C   0  0  0  0  0  0  0  0  0  0  0  0
   -1.8620   24.8830  -28.4920 C   0  0  0  0  0  0  0  0  0  0  0  0
   -2.1030   24.7820  -27.1560 N   0  0  0  0  0  0  0  0  0  0  0  0
   -1.5890   25.9240  -26.6770 C   0  0  0  0  0  0  0  0  0  0  0  0
   -1.5570   26.3560  -25.3540 C   0  0  0  0  0  0  0  0  0  0  0  0
   -0.9590   27.6030  -25.0890 C   0  0  0  0  0  0  0  0  0  0  0  0
   -0.4180   28.3750  -26.1430 C   0  0  0  0  0  0  0  0  0  0  0  0
   -0.4700   27.9040  -27.4690 C   0  0  0  0  0  0  0  0  0  0  0  0
   -1.0680   26.6660  -27.6910 C   0  0  0  0  0  0  0  0  0  0  0  0
   -1.2280   26.0290  -28.8600 N   0  0  0  0  0  0  0  0  0  0  0  0
   -3.5370   23.8490  -30.0420 C   0  0  0  0  0  0  0  0  0  0  0  0
   -3.9100   22.8610  -30.9580 C   0  0  0  0  0  0  0  0  0  0  0  0
   -2.4330   20.0120  -32.9370 C   0  0  0  0  0  0  0  0  0  0  0  0
   -2.8070   19.0250  -33.8530 C   0  0  0  0  0  0  0  0  0  0  0  0
   -4.3260   15.5140  -33.9680 C   0  0  0  0  0  0  0  0  0  0  0  0
   -4.8080   16.0190  -32.7470 C   0  0  0  0  0  0  0  0  0  0  0  0
   -4.9830   15.1730  -31.6500 C   0  0  0  0  0  0  0  0  0  0  0  0
   -4.6890   13.8080  -31.7600 C   0  0  0  0  0  0  0  0  0  0  0  0
   -4.8540   12.9570  -30.6700 O   0  0  0  0  0  0  0  0  0  0  0  0
   -4.2280   13.2930  -32.9740 C   0  0  0  0  0  0  0  0  0  0  0  0
   -4.0550   14.1340  -34.0790 C   0  0  0  0  0  0  0  0  0  0  0  0
   -3.6380   13.5840  -35.2860 O   0  0  0  0  0  0  0  0  0  0  0  0
   -6.2024   19.3784  -33.6870 H   0  0  0  0  0  0  0  0  0  0  0  0
   -5.5414   21.1422  -32.0601 H   0  0  0  0  0  0  0  0  0  0  0  0
   -1.0194   21.0334  -30.9952 H   0  0  0  0  0  0  0  0  0  0  0  0
   -0.3552   22.7935  -29.3668 H   0  0  0  0  0  0  0  0  0  0  0  0
   -1.9835   25.7452  -24.5447 H   0  0  0  0  0  0  0  0  0  0  0  0
   -0.9124   27.9787  -24.0562 H   0  0  0  0  0  0  0  0  0  0  0  0
    0.0459   29.3485  -25.9259 H   0  0  0  0  0  0  0  0  0  0  0  0
   -0.0533   28.4927  -28.2996 H   0  0  0  0  0  0  0  0  0  0  0  0
   -4.2499   24.6428  -29.7743 H   0  0  0  0  0  0  0  0  0  0  0  0
   -4.9145   22.8835  -31.4057 H   0  0  0  0  0  0  0  0  0  0  0  0
   -1.3676   20.1828  -32.7233 H   0  0  0  0  0  0  0  0  0  0  0  0
   -2.0356   18.4142  -34.3448 H   0  0  0  0  0  0  0  0  0  0  0  0
   -5.0489   17.0884  -32.6556 H   0  0  0  0  0  0  0  0  0  0  0  0
   -5.3527   15.5796  -30.6971 H   0  0  0  0  0  0  0  0  0  0  0  0
   -5.3900   13.2350  -29.8560 H   0  0  0  0  0  0  0  0  0  0  0  0
   -3.9997   12.2205  -33.0618 H   0  0  0  0  0  0  0  0  0  0  0  0
  1  2  2  0
  2  3  1  0
  3  4  1  0
  4  5  2  0
  5  6  1  0
  6  7  2  0
  7  8  1  0
  8  9  2  0
  9 10  1  0
 10 11  2  0
 11 12  1  0
 12 13  2  0
 13 14  1  0
 14 15  2  0
 15 16  1  0
 16 17  2  0
 17 18  1  0
 18 19  2  0
 19 20  1  0
 11 21  1  0
 21 22  2  0
  7 23  1  0
 23 24  2  0
  2 25  1  0
 25 26  2  0
 26 27  1  0
 27 28  2  0
 28 29  1  0
 28 30  1  0
 30 31  2  0
 31 32  1  0
 24  4  1  0
 31 25  1  0
 22  8  1  0
 20 12  1  0
 19 14  1  0
  5 33  1  0
  6 34  1  0
  9 35  1  0
 10 36  1  0
 15 37  1  0
 16 38  1  0
 17 39  1  0
 18 40  1  0
 21 41  1  0
 22 42  1  0
 23 43  1  0
 24 44  1  0
 26 45  1  0
 27 46  1  0
 29 47  1  0
 30 48  1  0
M  CHG  3   3  -1  20  -1  32  -1
M  END
>  <UniqueID>  (17) 
16

>  <SMILES>  (17) 
O=C([N-]c1ccc(-c2ccc(-c3nc4ccccc4[n-]3)cc2)cc1)c1ccc(O)cc1[O-]

>  <Energy>  (17) 
104.14086585301176

>  <Genealogy>  (17) 
O=C([N-]c1ccc(-c2ccc(-c3nc4ccccc4[n-]3)cc2)cc1)c1ccc(O)cc1[O-] (protonated)
O=C([N-]c1ccc(-c2ccc(-c3nc4ccccc4[n-]3)cc2)cc1)c1ccc(O)cc1[O-] (3D coordinates assigned)
O=C([N-]c1ccc(-c2ccc(-c3nc4ccccc4[n-]3)cc2)cc1)c1ccc(O)cc1[O-] (optimized conformer: 104.14086585301176 kcal/mol)

>  <smiles>  (17) 
O=C(Nc1ccc(-c2ccc(-c3nc4ccccc4[nH]3)cc2)cc1)c1ccc(O)cc1O

>  <score_type>  (17) 
oracle

>  <origin>  (17) 
adgpu

>  <m_score__min__energy>  (17) 
-10.44

>  <m_primary>  (17) 
energy

$$$$
17:0
     RDKit          3D

 50 53  0  0  0  0  0  0  0  0999 V2000
   -3.2698   22.3275  -29.2047 H   0  0  0  0  0  0  0  0  0  0  0  0
   -3.7820   22.6560  -30.1210 C   0  0  0  0  0  0  0  0  0  0  0  0
   -3.6430   21.8920  -31.2150 C   0  0  0  0  0  0  0  0  0  0  0  0
   -4.5230   22.1220  -32.7660 S   0  0  0  0  0  0  0  0  0  0  0  0
   -4.2070   20.3850  -33.1050 C   0  0  0  0  0  0  0  0  0  0  0  0
   -5.0310   19.6950  -33.8430 N   0  0  0  0  0  0  0  0  0  0  0  0
   -5.7550   20.2130  -34.3920 H   0  0  0  0  0  0  0  0  0  0  0  0
   -5.0520   18.2640  -33.9380 C   0  0  0  0  0  0  0  0  0  0  0  0
   -6.0470   17.5110  -33.2910 C   0  0  0  0  0  0  0  0  0  0  0  0
   -6.8067   18.0180  -32.6780 H   0  0  0  0  0  0  0  0  0  0  0  0
   -6.0740   16.1210  -33.4240 C   0  0  0  0  0  0  0  0  0  0  0  0
   -6.8496   15.5353  -32.9087 H   0  0  0  0  0  0  0  0  0  0  0  0
   -5.1170   15.4720  -34.2110 C   0  0  0  0  0  0  0  0  0  0  0  0
   -5.1437   14.3773  -34.3152 H   0  0  0  0  0  0  0  0  0  0  0  0
   -4.1230   16.2130  -34.8680 C   0  0  0  0  0  0  0  0  0  0  0  0
   -3.1270   15.5230  -35.7520 C   0  0  0  0  0  0  0  0  0  0  0  0
   -2.3811   15.0062  -35.1303 H   0  0  0  0  0  0  0  0  0  0  0  0
   -3.6462   14.7901  -36.3870 H   0  0  0  0  0  0  0  0  0  0  0  0
   -2.6233   16.2666  -36.3870 H   0  0  0  0  0  0  0  0  0  0  0  0
   -4.1120   17.6120  -34.7480 C   0  0  0  0  0  0  0  0  0  0  0  0
   -3.3600   18.2007  -35.2938 H   0  0  0  0  0  0  0  0  0  0  0  0
   -3.1410   19.8040  -32.3380 N   0  0  0  0  0  0  0  0  0  0  0  0
   -2.0870   18.9640  -32.9220 C   0  0  0  0  0  0  0  0  0  0  0  0
   -2.5493   18.1290  -33.4688 H   0  0  0  0  0  0  0  0  0  0  0  0
   -1.4484   18.5768  -32.1144 H   0  0  0  0  0  0  0  0  0  0  0  0
   -1.2430   19.7720  -33.8700 C   0  0  0  0  0  0  0  0  0  0  0  0
   -1.1340   21.1610  -33.7090 C   0  0  0  0  0  0  0  0  0  0  0  0
   -1.6969   21.6653  -32.9097 H   0  0  0  0  0  0  0  0  0  0  0  0
   -0.3130   21.9080  -34.5600 C   0  0  0  0  0  0  0  0  0  0  0  0
   -0.2398   22.9981  -34.4324 H   0  0  0  0  0  0  0  0  0  0  0  0
    0.4200   21.2710  -35.5790 C   0  0  0  0  0  0  0  0  0  0  0  0
    1.2580   21.9750  -36.4560 O   0  0  0  0  0  0  0  0  0  0  0  0
    2.1240   23.0350  -36.0640 C   0  0  0  0  0  0  0  0  0  0  0  0
    2.1664   23.0869  -34.9660 H   0  0  0  0  0  0  0  0  0  0  0  0
    3.1329   22.8503  -36.4616 H   0  0  0  0  0  0  0  0  0  0  0  0
    1.7418   23.9868  -36.4616 H   0  0  0  0  0  0  0  0  0  0  0  0
    0.3170   19.8830  -35.7290 C   0  0  0  0  0  0  0  0  0  0  0  0
    0.8865   19.3761  -36.5219 H   0  0  0  0  0  0  0  0  0  0  0  0
   -0.5040   19.1360  -34.8790 C   0  0  0  0  0  0  0  0  0  0  0  0
   -0.5709   18.0449  -35.0018 H   0  0  0  0  0  0  0  0  0  0  0  0
   -2.8760   20.6480  -31.2230 C   0  0  0  0  0  0  0  0  0  0  0  0
   -2.0460   20.3390  -30.3250 O   0  0  0  0  0  0  0  0  0  0  0  0
   -4.5680   23.9020  -30.0510 C   0  0  0  0  0  0  0  0  0  0  0  0
   -4.2350   24.9880  -30.7090 O   0  0  0  0  0  0  0  0  0  0  0  0
   -5.1360   25.9160  -30.4810 C   0  0  0  0  0  0  0  0  0  0  0  0
   -5.1139   26.9356  -30.8932 H   0  0  0  0  0  0  0  0  0  0  0  0
   -6.1130   25.4180  -29.6470 C   0  0  0  0  0  0  0  0  0  0  0  0
   -7.0008   25.9520  -29.2773 H   0  0  0  0  0  0  0  0  0  0  0  0
   -5.7550   24.1170  -29.3690 C   0  0  0  0  0  0  0  0  0  0  0  0
   -6.2982   23.3987  -28.7374 H   0  0  0  0  0  0  0  0  0  0  0  0
  1  2  1  0
  2  3  2  0
  3  4  1  0
  4  5  1  0
  5  6  2  0
  6  7  1  0
  6  8  1  0
  8  9  2  0
  9 10  1  0
  9 11  1  0
 11 12  1  0
 11 13  2  0
 13 14  1  0
 13 15  1  0
 15 16  1  0
 16 17  1  0
 16 18  1  0
 16 19  1  0
 15 20  2  0
 20 21  1  0
  5 22  1  0
 22 23  1  0
 23 24  1  0
 23 25  1  0
 23 26  1  0
 26 27  2  0
 27 28  1  0
 27 29  1  0
 29 30  1  0
 29 31  2  0
 31 32  1  0
 32 33  1  0
 33 34  1  0
 33 35  1  0
 33 36  1  0
 31 37  1  0
 37 38  1  0
 37 39  2  0
 39 40  1  0
 22 41  1  0
 41 42  2  0
  2 43  1  0
 43 44  1  0
 44 45  1  0
 45 46  1  0
 45 47  2  0
 47 48  1  0
 47 49  1  0
 49 50  1  0
 41  3  1  0
 49 43  2  0
 20  8  1  0
 39 26  1  0
M  CHG  1   6   1
M  END
>  <UniqueID>  (18) 
17

>  <SMILES>  (18) 
COc1ccc(CN2C(=O)/C(=C/c3ccco3)S/C2=[NH+]/c2cccc(C)c2)cc1

>  <Energy>  (18) 
110.24448267038647

>  <Genealogy>  (18) 
COc1ccc(CN2C(=O)C(=Cc3ccco3)SC2=[NH+]c2cccc(C)c2)cc1 (protonated)
COc1ccc(CN2C(=O)/C(=C/c3ccco3)S/C2=[NH+]/c2cccc(C)c2)cc1 (cis-trans isomerization)
COc1ccc(CN2C(=O)/C(=C/c3ccco3)S/C2=[NH+]/c2cccc(C)c2)cc1 (3D coordinates assigned)
COc1ccc(CN2C(=O)/C(=C/c3ccco3)S/C2=[NH+]/c2cccc(C)c2)cc1 (nonaromatic ring conformer: 110.24448267038647 kcal/mol)

>  <smiles>  (18) 
COc1ccc(CN2C(=O)C(=Cc3ccco3)SC2=Nc2cccc(C)c2)cc1

>  <score_type>  (18) 
oracle

>  <origin>  (18) 
adgpu

>  <m_score__min__energy>  (18) 
-8.3100000000000005

>  <m_primary>  (18) 
energy

$$$$
18:0
     RDKit          3D

 39 40  0  0  0  0  0  0  0  0999 V2000
   -0.4880   19.7790  -34.9660 C   0  0  0  0  0  0  0  0  0  0  0  0
   -1.7940   20.2980  -34.7330 O   0  0  0  0  0  0  0  0  0  0  0  0
   -2.1680   21.0250  -33.5940 C   0  0  0  0  0  0  0  0  0  0  0  0
   -1.2200   21.2080  -32.5860 C   0  0  0  0  0  0  0  0  0  0  0  0
   -1.5430   21.9180  -31.4300 C   0  0  0  0  0  0  0  0  0  0  0  0
   -2.8260   22.4620  -31.2540 C   0  0  0  0  0  0  0  0  0  0  0  0
   -3.1390   23.1690  -30.0290 N   0  0  0  0  0  0  0  0  0  0  0  0
   -4.0610   24.2830  -30.0570 C   0  0  0  0  0  0  0  0  0  0  0  0
   -3.8490   25.2520  -30.8370 O   0  0  0  0  0  0  0  0  0  0  0  0
   -5.2520   24.3430  -29.1450 C   0  0  0  0  0  0  0  0  0  0  0  0
   -6.6720   24.9320  -30.0420 Cl  0  0  0  0  0  0  0  0  0  0  0  0
   -2.6150   22.7000  -28.7690 C   0  0  0  0  0  0  0  0  0  0  0  0
   -3.0990   21.4870  -28.2470 C   0  0  0  0  0  0  0  0  0  0  0  0
   -2.5490   20.9380  -27.0910 C   0  0  0  0  0  0  0  0  0  0  0  0
   -1.5010   21.5880  -26.4410 C   0  0  0  0  0  0  0  0  0  0  0  0
   -1.0090   22.7950  -26.9390 C   0  0  0  0  0  0  0  0  0  0  0  0
   -1.5610   23.3750  -28.0970 C   0  0  0  0  0  0  0  0  0  0  0  0
   -1.0390   24.6870  -28.5470 C   0  0  0  0  0  0  0  0  0  0  0  0
    0.1980   24.9130  -28.5810 O   0  0  0  0  0  0  0  0  0  0  0  0
   -1.9140   25.6750  -28.9820 O   0  0  0  0  0  0  0  0  0  0  0  0
   -3.7910   22.2980  -32.2730 C   0  0  0  0  0  0  0  0  0  0  0  0
   -5.0600   22.8760  -32.1130 O   0  0  0  0  0  0  0  0  0  0  0  0
   -6.2960   22.2020  -32.3250 C   0  0  0  0  0  0  0  0  0  0  0  0
   -3.4550   21.5720  -33.4350 C   0  0  0  0  0  0  0  0  0  0  0  0
    0.0058   19.5828  -34.0028 H   0  0  0  0  0  0  0  0  0  0  0  0
   -0.5623   18.8421  -35.5375 H   0  0  0  0  0  0  0  0  0  0  0  0
    0.1010   20.5114  -35.5375 H   0  0  0  0  0  0  0  0  0  0  0  0
   -0.2099   20.7888  -32.7044 H   0  0  0  0  0  0  0  0  0  0  0  0
   -0.7834   22.0537  -30.6460 H   0  0  0  0  0  0  0  0  0  0  0  0
   -5.4607   23.3375  -28.7509 H   0  0  0  0  0  0  0  0  0  0  0  0
   -5.0376   25.0308  -28.3137 H   0  0  0  0  0  0  0  0  0  0  0  0
   -3.9219   20.9655  -28.7578 H   0  0  0  0  0  0  0  0  0  0  0  0
   -2.9416   19.9915  -26.6910 H   0  0  0  0  0  0  0  0  0  0  0  0
   -1.0610   21.1485  -25.5337 H   0  0  0  0  0  0  0  0  0  0  0  0
   -0.1801   23.2993  -26.4207 H   0  0  0  0  0  0  0  0  0  0  0  0
   -6.7499   21.9545  -31.3541 H   0  0  0  0  0  0  0  0  0  0  0  0
   -6.9765   22.8539  -32.8924 H   0  0  0  0  0  0  0  0  0  0  0  0
   -6.1165   21.2769  -32.8924 H   0  0  0  0  0  0  0  0  0  0  0  0
   -4.2071   21.4319  -34.2254 H   0  0  0  0  0  0  0  0  0  0  0  0
  1  2  1  0
  2  3  1  0
  3  4  2  0
  4  5  1  0
  5  6  2  0
  6  7  1  0
  7  8  1  0
  8  9  2  0
  8 10  1  0
 10 11  1  0
  7 12  1  0
 12 13  2  0
 13 14  1  0
 14 15  2  0
 15 16  1  0
 16 17  2  0
 17 18  1  0
 18 19  2  0
 18 20  1  0
  6 21  1  0
 21 22  1  0
 22 23  1  0
 21 24  2  0
 24  3  1  0
 17 12  1  0
  1 25  1  0
  1 26  1  0
  1 27  1  0
  4 28  1  0
  5 29  1  0
 10 30  1  0
 10 31  1  0
 13 32  1  0
 14 33  1  0
 15 34  1  0
 16 35  1  0
 23 36  1  0
 23 37  1  0
 23 38  1  0
 24 39  1  0
M  CHG  1  20  -1
M  END
>  <UniqueID>  (19) 
18

>  <SMILES>  (19) 
COc1ccc(N(C(=O)CCl)c2ccccc2C(=O)[O-])c(OC)c1

>  <Energy>  (19) 
52.450785402244506

>  <Genealogy>  (19) 
COc1ccc(N(C(=O)CCl)c2ccccc2C(=O)[O-])c(OC)c1 (protonated)
COc1ccc(N(C(=O)CCl)c2ccccc2C(=O)[O-])c(OC)c1 (3D coordinates assigned)
COc1ccc(N(C(=O)CCl)c2ccccc2C(=O)[O-])c(OC)c1 (optimized conformer: 52.450785402244506 kcal/mol)

>  <smiles>  (19) 
COc1ccc(N(C(=O)CCl)c2ccccc2C(=O)O)c(OC)c1

>  <score_type>  (19) 
oracle

>  <origin>  (19) 
adgpu

>  <m_score__min__energy>  (19) 
-8.9800000000000004

>  <m_primary>  (19) 
energy

$$$$
19:0
     RDKit          3D

 76 80  0  0  0  0  0  0  0  0999 V2000
    1.0100   16.2600  -29.1480 C   0  0  0  0  0  0  0  0  0  0  0  0
    1.3020   15.4440  -30.3400 N   0  0  0  0  0  0  0  0  0  0  0  0
    1.0890   13.9990  -30.0660 C   0  0  0  0  0  0  0  0  0  0  0  0
    0.1220   13.3180  -31.0490 C   0  0  0  0  0  0  0  0  0  0  0  0
    0.4980   13.6000  -32.4500 N   0  0  0  0  0  0  0  0  0  0  0  0
   -0.4920   13.0260  -33.3870 C   0  0  0  0  0  0  0  0  0  0  0  0
   -1.5600   14.0420  -33.7330 C   0  0  0  0  0  0  0  0  0  0  0  0
   -2.4920   14.3630  -32.7280 C   0  0  0  0  0  0  0  0  0  0  0  0
   -3.5690   15.2060  -32.9910 C   0  0  0  0  0  0  0  0  0  0  0  0
   -4.4770   15.4560  -32.0110 F   0  0  0  0  0  0  0  0  0  0  0  0
   -3.7610   15.7290  -34.2770 C   0  0  0  0  0  0  0  0  0  0  0  0
   -4.9330   16.5180  -34.5560 N   0  0  0  0  0  0  0  0  0  0  0  0
   -6.2360   16.1270  -34.1060 C   0  0  0  0  0  0  0  0  0  0  0  0
   -6.4910   14.9170  -33.8620 O   0  0  0  0  0  0  0  0  0  0  0  0
   -7.2210   17.1310  -33.8490 N   0  0  0  0  0  0  0  0  0  0  0  0
   -6.9740   18.3800  -33.1950 C   0  0  0  0  0  0  0  0  0  0  0  0
   -7.8680   18.9040  -32.2510 C   0  0  0  0  0  0  0  0  0  0  0  0
   -7.5820   20.1050  -31.5990 C   0  0  0  0  0  0  0  0  0  0  0  0
   -6.3950   20.7990  -31.8770 C   0  0  0  0  0  0  0  0  0  0  0  0
   -6.0740   22.0260  -31.1200 C   0  0  0  0  0  0  0  0  0  0  0  0
   -6.8680   22.6780  -30.1980 C   0  0  0  0  0  0  0  0  0  0  0  0
   -6.2260   23.7830  -29.7740 N   0  0  0  0  0  0  0  0  0  0  0  0
   -5.0560   23.7500  -30.4480 C   0  0  0  0  0  0  0  0  0  0  0  0
   -4.0220   24.7880  -30.3070 C   0  0  0  0  0  0  0  0  0  0  0  0
   -3.9370   25.6750  -31.1980 O   0  0  0  0  0  0  0  0  0  0  0  0
   -3.1160   24.8380  -29.1970 N   0  0  0  0  0  0  0  0  0  0  0  0
   -2.0850   23.8510  -28.8660 C   0  0  1  0  0  0  0  0  0  0  0  0
   -2.6020   22.9620  -27.7110 C   0  0  0  0  0  0  0  0  0  0  0  0
   -3.4710   21.8140  -28.2450 C   0  0  0  0  0  0  0  0  0  0  0  0
   -2.6820   20.8740  -29.1930 C   0  0  1  0  0  0  0  0  0  0  0  0
   -3.5250   20.4220  -30.2240 O   0  0  0  0  0  0  0  0  0  0  0  0
   -1.4410   21.5520  -29.8130 C   0  0  0  0  0  0  0  0  0  0  0  0
   -1.7090   23.0290  -30.1300 C   0  0  0  0  0  0  0  0  0  0  0  0
   -4.9640   22.7130  -31.2510 O   0  0  0  0  0  0  0  0  0  0  0  0
   -5.5200   20.2920  -32.8560 C   0  0  0  0  0  0  0  0  0  0  0  0
   -5.8190   19.1000  -33.5190 C   0  0  0  0  0  0  0  0  0  0  0  0
   -2.8180   15.4540  -35.2810 C   0  0  0  0  0  0  0  0  0  0  0  0
   -1.7080   14.6160  -35.0330 C   0  0  0  0  0  0  0  0  0  0  0  0
   -0.7350   14.3220  -36.1600 C   0  0  0  0  0  0  0  0  0  0  0  0
    0.5260   14.7680  -35.8220 F   0  0  0  0  0  0  0  0  0  0  0  0
   -1.1010   14.9480  -37.3390 F   0  0  0  0  0  0  0  0  0  0  0  0
   -0.6960   12.9630  -36.3960 F   0  0  0  0  0  0  0  0  0  0  0  0
    0.7450   15.0450  -32.7190 C   0  0  0  0  0  0  0  0  0  0  0  0
    0.5310   15.9460  -31.4930 C   0  0  0  0  0  0  0  0  0  0  0  0
    1.2200   15.6732  -28.2416 H   0  0  0  0  0  0  0  0  0  0  0  0
    1.6417   17.1605  -29.1564 H   0  0  0  0  0  0  0  0  0  0  0  0
   -0.0496   16.5553  -29.1564 H   0  0  0  0  0  0  0  0  0  0  0  0
    2.0611   13.4876  -30.1251 H   0  0  0  0  0  0  0  0  0  0  0  0
    0.6353   13.9254  -29.0666 H   0  0  0  0  0  0  0  0  0  0  0  0
    0.1475   12.2310  -30.8825 H   0  0  0  0  0  0  0  0  0  0  0  0
   -0.8893   13.7136  -30.8733 H   0  0  0  0  0  0  0  0  0  0  0  0
    0.0221   12.7156  -34.3086 H   0  0  0  0  0  0  0  0  0  0  0  0
   -0.9720   12.1614  -32.9053 H   0  0  0  0  0  0  0  0  0  0  0  0
   -2.3677   13.9416  -31.7196 H   0  0  0  0  0  0  0  0  0  0  0  0
   -4.7950   17.5280  -34.8060 H   0  0  0  0  0  0  0  0  0  0  0  0
   -8.7999   18.3661  -32.0227 H   0  0  0  0  0  0  0  0  0  0  0  0
   -8.2920   20.5096  -30.8626 H   0  0  0  0  0  0  0  0  0  0  0  0
   -7.8630   22.3485  -29.8641 H   0  0  0  0  0  0  0  0  0  0  0  0
   -1.1642   24.3486  -28.5277 H   0  0  0  0  0  0  0  0  0  0  0  0
   -3.2018   23.5775  -27.0244 H   0  0  0  0  0  0  0  0  0  0  0  0
   -1.7363   22.5309  -27.1868 H   0  0  0  0  0  0  0  0  0  0  0  0
   -4.3217   22.2407  -28.7966 H   0  0  0  0  0  0  0  0  0  0  0  0
   -3.8100   21.2186  -27.3844 H   0  0  0  0  0  0  0  0  0  0  0  0
   -2.3271   20.0302  -28.5830 H   0  0  0  0  0  0  0  0  0  0  0  0
   -3.7780   21.2150  -30.7670 H   0  0  0  0  0  0  0  0  0  0  0  0
   -1.1749   21.0290  -30.7434 H   0  0  0  0  0  0  0  0  0  0  0  0
   -0.6177   21.4982  -29.0854 H   0  0  0  0  0  0  0  0  0  0  0  0
   -2.5383   23.0903  -30.8500 H   0  0  0  0  0  0  0  0  0  0  0  0
   -0.7826   23.4554  -30.5422 H   0  0  0  0  0  0  0  0  0  0  0  0
   -4.5964   20.8373  -33.0999 H   0  0  0  0  0  0  0  0  0  0  0  0
   -5.1423   18.7248  -34.3008 H   0  0  0  0  0  0  0  0  0  0  0  0
   -2.9461   15.8993  -36.2786 H   0  0  0  0  0  0  0  0  0  0  0  0
    1.7845   15.1623  -33.0592 H   0  0  0  0  0  0  0  0  0  0  0  0
    0.0165   15.3597  -33.4807 H   0  0  0  0  0  0  0  0  0  0  0  0
    0.8621   16.9673  -31.7325 H   0  0  0  0  0  0  0  0  0  0  0  0
   -0.5379   15.9441  -31.2333 H   0  0  0  0  0  0  0  0  0  0  0  0
  1  2  1  0
  2  3  1  0
  3  4  1  0
  4  5  1  0
  5  6  1  0
  6  7  1  0
  7  8  2  0
  8  9  1  0
  9 10  1  0
  9 11  2  0
 11 12  1  0
 12 13  1  0
 13 14  2  0
 13 15  1  0
 15 16  1  0
 16 17  2  0
 17 18  1  0
 18 19  2  0
 19 20  1  0
 20 21  2  0
 21 22  1  0
 22 23  2  0
 23 24  1  0
 24 25  2  0
 24 26  1  0
 26 27  1  0
 27 28  1  0
 28 29  1  0
 29 30  1  0
 30 31  1  0
 30 32  1  0
 32 33  1  0
 23 34  1  0
 19 35  1  0
 35 36  2  0
 11 37  1  0
 37 38  2  0
 38 39  1  0
 39 40  1  0
 39 41  1  0
 39 42  1  0
  5 43  1  0
 43 44  1  0
 44  2  1  0
 38  7  1  0
 36 16  1  0
 34 20  1  0
 33 27  1  0
  1 45  1  0
  1 46  1  0
  1 47  1  0
  3 48  1  0
  3 49  1  0
  4 50  1  0
  4 51  1  0
  6 52  1  0
  6 53  1  0
  8 54  1  0
 12 55  1  0
 17 56  1  0
 18 57  1  0
 21 58  1  0
 27 59  1  1
 28 60  1  0
 28 61  1  0
 29 62  1  0
 29 63  1  0
 30 64  1  1
 31 65  1  0
 32 66  1  0
 32 67  1  0
 33 68  1  0
 33 69  1  0
 35 70  1  0
 36 71  1  0
 37 72  1  0
 43 73  1  0
 43 74  1  0
 44 75  1  0
 44 76  1  0
M  CHG  2  15  -1  26  -1
M  END
>  <UniqueID>  (20) 
19

>  <SMILES>  (20) 
CN1CCN(Cc2cc(F)c(NC(=O)[N-]c3ccc(-c4cnc(C(=O)[N-]C5CCC(O)CC5)o4)cc3)cc2C(F)(F)F)CC1

>  <Energy>  (20) 
139.75424416878096

>  <Genealogy>  (20) 
CN1CCN(Cc2cc(F)c(NC(=O)[N-]c3ccc(-c4cnc(C(=O)[N-]C5CCC(O)CC5)o4)cc3)cc2C(F)(F)F)CC1 (protonated)
CN1CCN(Cc2cc(F)c(NC(=O)[N-]c3ccc(-c4cnc(C(=O)[N-]C5CCC(O)CC5)o4)cc3)cc2C(F)(F)F)CC1 (3D coordinates assigned)
CN1CCN(Cc2cc(F)c(NC(=O)[N-]c3ccc(-c4cnc(C(=O)[N-]C5CCC(O)CC5)o4)cc3)cc2C(F)(F)F)CC1 (nonaromatic ring conformer: 139.75424416878096 kcal/mol)

>  <smiles>  (20) 
CN1CCN(Cc2cc(F)c(NC(=O)Nc3ccc(-c4cnc(C(=O)NC5CCC(O)CC5)o4)cc3)cc2C(F)(F)F)CC1

>  <score_type>  (20) 
oracle

>  <origin>  (20) 
adgpu

>  <m_score__min__energy>  (20) 
-10.24

>  <m_primary>  (20) 
energy

$$$$
20:0
     RDKit          3D

 59 62  0  0  0  0  0  0  0  0999 V2000
   -0.5270   20.8560  -31.6270 C   0  0  0  0  0  0  0  0  0  0  0  0
   -0.4440   21.3570  -30.2970 O   0  0  0  0  0  0  0  0  0  0  0  0
   -1.1280   20.8160  -29.1960 C   0  0  0  0  0  0  0  0  0  0  0  0
   -0.5530   19.8210  -28.3790 C   0  0  0  0  0  0  0  0  0  0  0  0
   -1.2500   19.3240  -27.2760 C   0  0  0  0  0  0  0  0  0  0  0  0
   -2.5230   19.8070  -26.9740 C   0  0  0  0  0  0  0  0  0  0  0  0
   -3.1070   20.7870  -27.7790 C   0  0  0  0  0  0  0  0  0  0  0  0
   -2.4200   21.2910  -28.8950 C   0  0  0  0  0  0  0  0  0  0  0  0
   -3.0550   22.3390  -29.7250 C   0  0  0  0  0  0  0  0  0  0  0  0
   -3.8190   22.1190  -30.8750 C   0  0  0  0  0  0  0  0  0  0  0  0
   -4.1870   20.8060  -31.4590 C   0  0  0  0  0  0  0  0  0  0  0  0
   -3.4710   19.8000  -31.2110 O   0  0  0  0  0  0  0  0  0  0  0  0
   -5.3710   20.6330  -32.3750 C   0  0  0  0  0  0  0  0  0  0  0  0
   -6.7080   20.6110  -31.6030 C   0  0  0  0  0  0  0  0  0  0  0  0
   -7.5040   21.9080  -31.8030 C   0  0  0  0  0  0  0  0  0  0  0  0
   -7.5520   19.4070  -32.0390 C   0  0  0  0  0  0  0  0  0  0  0  0
   -4.2280   23.3770  -31.2950 C   0  0  0  0  0  0  0  0  0  0  0  0
   -5.0350   23.6720  -32.3880 O   0  0  0  0  0  0  0  0  0  0  0  0
   -3.7090   24.2910  -30.4060 C   0  0  0  0  0  0  0  0  0  0  0  0
   -3.8760   25.6690  -30.4870 O   0  0  0  0  0  0  0  0  0  0  0  0
   -2.9970   23.6670  -29.4480 N   0  0  0  0  0  0  0  0  0  0  0  0
   -2.2820   24.3070  -28.3760 C   0  0  0  0  0  0  0  0  0  0  0  0
   -0.9430   24.6840  -28.5460 C   0  0  0  0  0  0  0  0  0  0  0  0
   -0.2490   25.3180  -27.5120 C   0  0  0  0  0  0  0  0  0  0  0  0
   -0.8820   25.5810  -26.2840 C   0  0  0  0  0  0  0  0  0  0  0  0
   -0.1480   26.2580  -25.1850 C   0  0  0  0  0  0  0  0  0  0  0  0
   -0.7820   26.5160  -23.9540 C   0  0  0  0  0  0  0  0  0  0  0  0
   -0.0880   27.1530  -22.9200 C   0  0  0  0  0  0  0  0  0  0  0  0
    1.2410   27.5400  -23.1020 C   0  0  0  0  0  0  0  0  0  0  0  0
    1.8800   27.2900  -24.3170 C   0  0  0  0  0  0  0  0  0  0  0  0
    1.1930   26.6530  -25.3550 C   0  0  0  0  0  0  0  0  0  0  0  0
   -2.2230   25.1940  -26.1150 C   0  0  0  0  0  0  0  0  0  0  0  0
   -2.9150   24.5600  -27.1500 C   0  0  0  0  0  0  0  0  0  0  0  0
   -0.7067   19.7711  -31.5996 H   0  0  0  0  0  0  0  0  0  0  0  0
   -1.3553   21.3517  -32.1545 H   0  0  0  0  0  0  0  0  0  0  0  0
    0.4169   21.0581  -32.1545 H   0  0  0  0  0  0  0  0  0  0  0  0
    0.4501   19.4342  -28.6119 H   0  0  0  0  0  0  0  0  0  0  0  0
   -0.7935   18.5488  -26.6430 H   0  0  0  0  0  0  0  0  0  0  0  0
   -3.0670   19.4159  -26.1016 H   0  0  0  0  0  0  0  0  0  0  0  0
   -4.1109   21.1663  -27.5375 H   0  0  0  0  0  0  0  0  0  0  0  0
   -5.3894   21.4675  -33.0914 H   0  0  0  0  0  0  0  0  0  0  0  0
   -5.2619   19.6664  -32.8886 H   0  0  0  0  0  0  0  0  0  0  0  0
   -6.4704   20.5241  -30.5325 H   0  0  0  0  0  0  0  0  0  0  0  0
   -7.7648   22.3330  -30.8225 H   0  0  0  0  0  0  0  0  0  0  0  0
   -6.8933   22.6300  -32.3649 H   0  0  0  0  0  0  0  0  0  0  0  0
   -8.4243   21.6905  -32.3649 H   0  0  0  0  0  0  0  0  0  0  0  0
   -7.9230   18.8777  -31.1489 H   0  0  0  0  0  0  0  0  0  0  0  0
   -8.4046   19.7554  -32.6404 H   0  0  0  0  0  0  0  0  0  0  0  0
   -6.9337   18.7243  -32.6404 H   0  0  0  0  0  0  0  0  0  0  0  0
   -4.9110   23.1990  -33.2740 H   0  0  0  0  0  0  0  0  0  0  0  0
   -0.4348   24.4795  -29.4999 H   0  0  0  0  0  0  0  0  0  0  0  0
    0.8002   25.6136  -27.6597 H   0  0  0  0  0  0  0  0  0  0  0  0
   -1.8294   26.2147  -23.8048 H   0  0  0  0  0  0  0  0  0  0  0  0
   -0.5904   27.3494  -21.9614 H   0  0  0  0  0  0  0  0  0  0  0  0
    1.7843   28.0419  -22.2878 H   0  0  0  0  0  0  0  0  0  0  0  0
    2.9273   27.5950  -24.4587 H   0  0  0  0  0  0  0  0  0  0  0  0
    1.7031   26.4592  -26.3101 H   0  0  0  0  0  0  0  0  0  0  0  0
   -2.7316   25.3920  -25.1600 H   0  0  0  0  0  0  0  0  0  0  0  0
   -3.9623   24.2575  -27.0026 H   0  0  0  0  0  0  0  0  0  0  0  0
  1  2  1  0
  2  3  1  0
  3  4  2  0
  4  5  1  0
  5  6  2  0
  6  7  1  0
  7  8  2  0
  8  9  1  0
  9 10  2  0
 10 11  1  0
 11 12  2  0
 11 13  1  0
 13 14  1  0
 14 15  1  0
 14 16  1  0
 10 17  1  0
 17 18  1  0
 17 19  2  0
 19 20  1  0
 19 21  1  0
 21 22  1  0
 22 23  2  0
 23 24  1  0
 24 25  2  0
 25 26  1  0
 26 27  2  0
 27 28  1  0
 28 29  2  0
 29 30  1  0
 30 31  2  0
 25 32  1  0
 32 33  2  0
  8  3  1  0
 21  9  1  0
 33 22  1  0
 31 26  1  0
  1 34  1  0
  1 35  1  0
  1 36  1  0
  4 37  1  0
  5 38  1  0
  6 39  1  0
  7 40  1  0
 13 41  1  0
 13 42  1  0
 14 43  1  0
 15 44  1  0
 15 45  1  0
 15 46  1  0
 16 47  1  0
 16 48  1  0
 16 49  1  0
 18 50  1  0
 23 51  1  0
 24 52  1  0
 27 53  1  0
 28 54  1  0
 29 55  1  0
 30 56  1  0
 31 57  1  0
 32 58  1  0
 33 59  1  0
M  CHG  1  20  -1
M  END
>  <UniqueID>  (21) 
20

>  <SMILES>  (21) 
COc1ccccc1-c1c(C(=O)CC(C)C)c(O)c([O-])n1-c1ccc(-c2ccccc2)cc1

>  <Energy>  (21) 
103.4934374282976

>  <Genealogy>  (21) 
COc1ccccc1-c1c(C(=O)CC(C)C)c(O)c([O-])n1-c1ccc(-c2ccccc2)cc1 (protonated)
COc1ccccc1-c1c(C(=O)CC(C)C)c(O)c([O-])n1-c1ccc(-c2ccccc2)cc1 (3D coordinates assigned)
COc1ccccc1-c1c(C(=O)CC(C)C)c(O)c([O-])n1-c1ccc(-c2ccccc2)cc1 (optimized conformer: 103.4934374282976 kcal/mol)

>  <smiles>  (21) 
COc1ccccc1-c1c(C(=O)CC(C)C)c(O)c(O)n1-c1ccc(-c2ccccc2)cc1

>  <score_type>  (21) 
oracle

>  <origin>  (21) 
adgpu

>  <m_score__min__energy>  (21) 
-13.17

>  <m_primary>  (21) 
energy

$$$$
21:0
     RDKit          3D

 55 58  0  0  0  0  0  0  0  0999 V2000
    0.2250   18.6620  -27.3860 H   0  0  0  0  0  0  0  0  0  0  0  0
   -0.1130   17.7370  -27.2580 O   0  0  0  0  0  0  0  0  0  0  0  0
    0.9820   16.8910  -27.4820 C   0  0  0  0  0  0  0  0  0  0  0  0
    0.8999   16.0096  -26.8291 H   0  0  0  0  0  0  0  0  0  0  0  0
    1.9100   17.4379  -27.2591 H   0  0  0  0  0  0  0  0  0  0  0  0
    1.0080   16.4370  -28.9440 C   0  0  0  0  0  0  0  0  0  0  0  0
   -0.0230   16.2257  -29.2640 H   0  0  0  0  0  0  0  0  0  0  0  0
    1.6463   15.5429  -29.0000 H   0  0  0  0  0  0  0  0  0  0  0  0
    1.6070   17.4890  -29.8870 C   0  0  0  0  0  0  0  0  0  0  0  0
    1.8212   17.0207  -30.8590 H   0  0  0  0  0  0  0  0  0  0  0  0
    2.5313   17.8791  -29.4358 H   0  0  0  0  0  0  0  0  0  0  0  0
    0.6790   18.6020  -30.0860 N   0  0  0  0  0  0  0  0  0  0  0  0
   -0.0990   18.4570  -30.7670 H   0  0  0  0  0  0  0  0  0  0  0  0
    0.7200   19.8020  -29.2950 C   0  0  0  0  0  0  0  0  0  0  0  0
    1.6270   19.9570  -28.4320 O   0  0  0  0  0  0  0  0  0  0  0  0
   -0.2880   20.8620  -29.4610 C   0  0  0  0  0  0  0  0  0  0  0  0
   -0.8270   21.5370  -28.4250 N   0  0  0  0  0  0  0  0  0  0  0  0
   -1.7090   22.4000  -28.9080 N   0  0  0  0  0  0  0  0  0  0  0  0
   -2.3080   23.3990  -28.0720 C   0  0  0  0  0  0  0  0  0  0  0  0
   -3.6550   23.2800  -27.6980 C   0  0  0  0  0  0  0  0  0  0  0  0
   -4.2542   22.4353  -28.0687 H   0  0  0  0  0  0  0  0  0  0  0  0
   -4.2380   24.2310  -26.8560 C   0  0  0  0  0  0  0  0  0  0  0  0
   -5.3003   24.1458  -26.5834 H   0  0  0  0  0  0  0  0  0  0  0  0
   -3.4730   25.2900  -26.3600 C   0  0  0  0  0  0  0  0  0  0  0  0
   -3.9340   26.0400  -25.7005 H   0  0  0  0  0  0  0  0  0  0  0  0
   -2.1220   25.3960  -26.7020 C   0  0  0  0  0  0  0  0  0  0  0  0
   -1.5172   26.2229  -26.3014 H   0  0  0  0  0  0  0  0  0  0  0  0
   -1.5380   24.4520  -27.5530 C   0  0  0  0  0  0  0  0  0  0  0  0
   -0.4732   24.5348  -27.8162 H   0  0  0  0  0  0  0  0  0  0  0  0
   -1.7410   22.2730  -30.2600 C   0  0  0  0  0  0  0  0  0  0  0  0
   -2.5450   22.8740  -31.0930 N   0  0  0  0  0  0  0  0  0  0  0  0
   -3.6940   23.6870  -30.8090 C   0  0  0  0  0  0  0  0  0  0  0  0
   -3.5030   24.8870  -30.4810 O   0  0  0  0  0  0  0  0  0  0  0  0
   -5.0810   23.1890  -31.0400 C   0  0  0  0  0  0  0  0  0  0  0  0
   -5.2660   21.9280  -31.6350 C   0  0  0  0  0  0  0  0  0  0  0  0
   -4.3874   21.3560  -31.9680 H   0  0  0  0  0  0  0  0  0  0  0  0
   -6.5470   21.3840  -31.8130 C   0  0  0  0  0  0  0  0  0  0  0  0
   -6.6840   20.0220  -32.3810 C   0  0  0  0  0  0  0  0  0  0  0  0
   -7.4300   19.0870  -31.7280 N   0  0  0  0  0  0  0  0  0  0  0  0
   -7.5670   17.8170  -32.1950 C   0  0  0  0  0  0  0  0  0  0  0  0
   -8.1802   17.0909  -31.6410 H   0  0  0  0  0  0  0  0  0  0  0  0
   -6.9300   17.4340  -33.3770 C   0  0  0  0  0  0  0  0  0  0  0  0
   -7.0370   16.4083  -33.7597 H   0  0  0  0  0  0  0  0  0  0  0  0
   -6.1560   18.3680  -34.0670 C   0  0  0  0  0  0  0  0  0  0  0  0
   -5.6476   18.0811  -34.9993 H   0  0  0  0  0  0  0  0  0  0  0  0
   -6.0280   19.6670  -33.5720 C   0  0  0  0  0  0  0  0  0  0  0  0
   -5.4180   20.4074  -34.1103 H   0  0  0  0  0  0  0  0  0  0  0  0
   -7.6720   22.1340  -31.4140 C   0  0  0  0  0  0  0  0  0  0  0  0
   -9.3180   21.5550  -31.6530 Cl  0  0  0  0  0  0  0  0  0  0  0  0
   -7.4990   23.4020  -30.8530 C   0  0  0  0  0  0  0  0  0  0  0  0
   -8.3812   23.9887  -30.5573 H   0  0  0  0  0  0  0  0  0  0  0  0
   -6.2210   23.9360  -30.6620 C   0  0  0  0  0  0  0  0  0  0  0  0
   -6.1180   25.5220  -29.9020 Cl  0  0  0  0  0  0  0  0  0  0  0  0
   -0.8290   21.3200  -30.6520 C   0  0  0  0  0  0  0  0  0  0  0  0
   -0.5855   20.9963  -31.6747 H   0  0  0  0  0  0  0  0  0  0  0  0
  1  2  1  0
  2  3  1  0
  3  4  1  0
  3  5  1  0
  3  6  1  0
  6  7  1  0
  6  8  1  0
  6  9  1  0
  9 10  1  0
  9 11  1  0
  9 12  1  0
 12 13  1  0
 12 14  1  0
 14 15  2  0
 14 16  1  0
 16 17  1  0
 17 18  1  0
 18 19  1  0
 19 20  2  0
 20 21  1  0
 20 22  1  0
 22 23  1  0
 22 24  2  0
 24 25  1  0
 24 26  1  0
 26 27  1  0
 26 28  2  0
 28 29  1  0
 18 30  1  0
 30 31  2  0
 31 32  1  0
 32 33  2  0
 32 34  1  0
 34 35  2  0
 35 36  1  0
 35 37  1  0
 37 38  1  0
 38 39  2  0
 39 40  1  0
 40 41  1  0
 40 42  2  0
 42 43  1  0
 42 44  1  0
 44 45  1  0
 44 46  2  0
 46 47  1  0
 37 48  2  0
 48 49  1  0
 48 50  1  0
 50 51  1  0
 50 52  2  0
 52 53  1  0
 30 54  1  0
 54 55  1  0
 54 16  2  0
 28 19  1  0
 52 34  1  0
 46 38  1  0
M  CHG  1  17  -1
M  END
>  <UniqueID>  (22) 
21

>  <SMILES>  (22) 
O=C(NCCCO)c1c/c(=N/C(=O)c2cc(-c3ccccn3)c(Cl)cc2Cl)n(-c2ccccc2)[n-]1

>  <Energy>  (22) 
109.11930801403913

>  <Genealogy>  (22) 
O=C(NCCCO)c1cc(=NC(=O)c2cc(-c3ccccn3)c(Cl)cc2Cl)n(-c2ccccc2)[n-]1 (protonated)
O=C(NCCCO)c1c/c(=N/C(=O)c2cc(-c3ccccn3)c(Cl)cc2Cl)n(-c2ccccc2)[n-]1 (cis-trans isomerization)
O=C(NCCCO)c1c/c(=N/C(=O)c2cc(-c3ccccn3)c(Cl)cc2Cl)n(-c2ccccc2)[n-]1 (3D coordinates assigned)
O=C(NCCCO)c1c/c(=N/C(=O)c2cc(-c3ccccn3)c(Cl)cc2Cl)n(-c2ccccc2)[n-]1 (optimized conformer: 109.11930801403913 kcal/mol)

>  <smiles>  (22) 
O=C(NCCCO)c1cc(=NC(=O)c2cc(-c3ccccn3)c(Cl)cc2Cl)n(-c2ccccc2)[nH]1

>  <score_type>  (22) 
oracle

>  <origin>  (22) 
adgpu

>  <m_score__min__energy>  (22) 
-10.640000000000001

>  <m_primary>  (22) 
energy

$$$$
22:0
     RDKit          3D

 42 45  0  0  0  0  0  0  0  0999 V2000
   -0.8910   25.0550  -28.6750 O   0  0  0  0  0  0  0  0  0  0  0  0
   -1.8930   24.3160  -28.4850 C   0  0  0  0  0  0  0  0  0  0  0  0
   -3.1260   24.8410  -27.7910 C   0  0  0  0  0  0  0  0  0  0  0  0
   -4.3520   24.0810  -28.1520 N   0  0  1  0  0  0  0  0  0  0  0  0
   -4.9080   24.4990  -29.7610 S   0  0  0  0  0  0  0  0  0  0  0  0
   -3.8640   25.2910  -30.4980 O   0  0  0  0  0  0  0  0  0  0  0  0
   -6.1530   25.3360  -29.6630 O   0  0  0  0  0  0  0  0  0  0  0  0
   -5.2880   23.0400  -30.6730 C   0  0  0  0  0  0  0  0  0  0  0  0
   -4.3310   22.4580  -31.5160 C   0  0  0  0  0  0  0  0  0  0  0  0
   -4.6290   21.2890  -32.2170 C   0  0  0  0  0  0  0  0  0  0  0  0
   -5.8910   20.6820  -32.0910 C   0  0  0  0  0  0  0  0  0  0  0  0
   -6.2000   19.4660  -32.8010 N   0  0  0  0  0  0  0  0  0  0  0  0
   -7.4360   18.7120  -32.6530 C   0  0  0  0  0  0  0  0  0  0  0  0
   -7.2220   17.3890  -33.4120 C   0  0  0  0  0  0  0  0  0  0  0  0
   -5.9520   17.5550  -34.2570 C   0  0  0  0  0  0  0  0  0  0  0  0
   -5.3780   18.8210  -33.7610 C   0  0  0  0  0  0  0  0  0  0  0  0
   -4.3050   19.3130  -34.1990 O   0  0  0  0  0  0  0  0  0  0  0  0
   -6.8380   21.2590  -31.2270 C   0  0  0  0  0  0  0  0  0  0  0  0
   -6.5390   22.4300  -30.5250 C   0  0  0  0  0  0  0  0  0  0  0  0
   -4.1950   22.6120  -27.9890 C   0  0  0  0  0  0  0  0  0  0  0  0
   -2.9710   22.0990  -28.6960 C   0  0  0  0  0  0  0  0  0  0  0  0
   -2.7790   20.7920  -29.1560 C   0  0  0  0  0  0  0  0  0  0  0  0
   -1.5240   20.5990  -29.7290 C   0  0  0  0  0  0  0  0  0  0  0  0
   -0.6590   22.0470  -29.6460 S   0  0  0  0  0  0  0  0  0  0  0  0
   -1.8760   22.9110  -28.8790 C   0  0  0  0  0  0  0  0  0  0  0  0
   -2.9752   24.7708  -26.7036 H   0  0  0  0  0  0  0  0  0  0  0  0
   -3.2722   25.8824  -28.1136 H   0  0  0  0  0  0  0  0  0  0  0  0
   -5.1100   24.3850  -27.4960 H   0  0  0  0  0  0  0  0  0  0  0  0
   -3.3410   22.9249  -31.6253 H   0  0  0  0  0  0  0  0  0  0  0  0
   -3.8702   20.8385  -32.8737 H   0  0  0  0  0  0  0  0  0  0  0  0
   -7.6376   18.5141  -31.5899 H   0  0  0  0  0  0  0  0  0  0  0  0
   -8.2970   19.2691  -33.0509 H   0  0  0  0  0  0  0  0  0  0  0  0
   -7.0954   16.5610  -32.6990 H   0  0  0  0  0  0  0  0  0  0  0  0
   -8.0888   17.1578  -34.0486 H   0  0  0  0  0  0  0  0  0  0  0  0
   -5.2581   16.7171  -34.0944 H   0  0  0  0  0  0  0  0  0  0  0  0
   -6.1528   17.5676  -35.3384 H   0  0  0  0  0  0  0  0  0  0  0  0
   -7.8227   20.7848  -31.1024 H   0  0  0  0  0  0  0  0  0  0  0  0
   -7.2893   22.8736  -29.8540 H   0  0  0  0  0  0  0  0  0  0  0  0
   -4.1105   22.3798  -26.9171 H   0  0  0  0  0  0  0  0  0  0  0  0
   -5.0754   22.1230  -28.4315 H   0  0  0  0  0  0  0  0  0  0  0  0
   -3.5385   20.0005  -29.0740 H   0  0  0  0  0  0  0  0  0  0  0  0
   -1.1567   19.6578  -30.1641 H   0  0  0  0  0  0  0  0  0  0  0  0
  1  2  2  0
  2  3  1  0
  3  4  1  0
  4  5  1  0
  5  6  2  0
  5  7  2  0
  5  8  1  0
  8  9  2  0
  9 10  1  0
 10 11  2  0
 11 12  1  0
 12 13  1  0
 13 14  1  0
 14 15  1  0
 15 16  1  0
 16 17  2  0
 11 18  1  0
 18 19  2  0
  4 20  1  0
 20 21  1  0
 21 22  1  0
 22 23  2  0
 23 24  1  0
 24 25  1  0
 25  2  1  0
 19  8  1  0
 25 21  2  0
 16 12  1  0
  3 26  1  0
  3 27  1  0
  4 28  1  1
  9 29  1  0
 10 30  1  0
 13 31  1  0
 13 32  1  0
 14 33  1  0
 14 34  1  0
 15 35  1  0
 15 36  1  0
 18 37  1  0
 19 38  1  0
 20 39  1  0
 20 40  1  0
 22 41  1  0
 23 42  1  0
M  CHG  1   4   1
M  END
>  <UniqueID>  (23) 
22

>  <SMILES>  (23) 
O=C1C[N@@H+](S(=O)(=O)c2ccc(N3CCCC3=O)cc2)Cc2ccsc21

>  <Energy>  (23) 
86.26744060128873

>  <Genealogy>  (23) 
O=C1C[NH+](S(=O)(=O)c2ccc(N3CCCC3=O)cc2)Cc2ccsc21 (protonated)
O=C1C[N@@H+](S(=O)(=O)c2ccc(N3CCCC3=O)cc2)Cc2ccsc21 (chirality)
O=C1C[N@@H+](S(=O)(=O)c2ccc(N3CCCC3=O)cc2)Cc2ccsc21 (3D coordinates assigned)
O=C1C[N@@H+](S(=O)(=O)c2ccc(N3CCCC3=O)cc2)Cc2ccsc21 (nonaromatic ring conformer: 86.26744060128873 kcal/mol)

>  <smiles>  (23) 
O=C1CN(S(=O)(=O)c2ccc(N3CCCC3=O)cc2)Cc2ccsc21

>  <score_type>  (23) 
oracle

>  <origin>  (23) 
adgpu

>  <m_score__min__energy>  (23) 
-8.5

>  <m_primary>  (23) 
energy

$$$$
23:0
     RDKit          3D

 38 40  0  0  0  0  0  0  0  0999 V2000
    2.2930   26.4660  -24.6680 O   0  0  0  0  0  0  0  0  0  0  0  0
    1.5890   27.1130  -25.4880 C   0  0  0  0  0  0  0  0  0  0  0  0
    1.9800   28.3990  -25.8440 O   0  0  0  0  0  0  0  0  0  0  0  0
    0.3650   26.5150  -26.0660 C   0  0  0  0  0  0  0  0  0  0  0  0
   -0.5570   25.8530  -25.2420 C   0  0  0  0  0  0  0  0  0  0  0  0
   -1.7150   25.2880  -25.7830 C   0  0  0  0  0  0  0  0  0  0  0  0
   -1.9820   25.3800  -27.1600 C   0  0  0  0  0  0  0  0  0  0  0  0
   -3.2230   24.7800  -27.7030 C   0  0  0  0  0  0  0  0  0  0  0  0
   -4.0430   24.2360  -26.9140 O   0  0  0  0  0  0  0  0  0  0  0  0
   -3.5340   24.8750  -29.1030 N   0  0  0  0  0  0  0  0  0  0  0  0
   -4.4810   24.0240  -29.7730 C   0  0  0  0  0  0  0  0  0  0  0  0
   -5.8220   24.4100  -29.9410 C   0  0  0  0  0  0  0  0  0  0  0  0
   -6.7290   23.5570  -30.5750 C   0  0  0  0  0  0  0  0  0  0  0  0
   -6.3180   22.2960  -31.0440 C   0  0  0  0  0  0  0  0  0  0  0  0
   -7.2820   21.3880  -31.7170 C   0  0  0  0  0  0  0  0  0  0  0  0
   -8.6670   21.6360  -31.6430 C   0  0  0  0  0  0  0  0  0  0  0  0
   -9.5730   20.7810  -32.2790 C   0  0  0  0  0  0  0  0  0  0  0  0
   -9.1100   19.6740  -32.9930 C   0  0  0  0  0  0  0  0  0  0  0  0
   -7.7400   19.4170  -33.0720 C   0  0  0  0  0  0  0  0  0  0  0  0
   -6.8280   20.2690  -32.4400 C   0  0  0  0  0  0  0  0  0  0  0  0
   -4.9800   21.9050  -30.8550 C   0  0  0  0  0  0  0  0  0  0  0  0
   -4.0740   22.7600  -30.2200 C   0  0  0  0  0  0  0  0  0  0  0  0
   -1.0450   26.0270  -27.9930 C   0  0  0  0  0  0  0  0  0  0  0  0
   -1.2350   26.0900  -29.3700 O   0  0  0  0  0  0  0  0  0  0  0  0
    0.1110   26.5950  -27.4460 C   0  0  0  0  0  0  0  0  0  0  0  0
   -0.3670   25.7780  -24.1611 H   0  0  0  0  0  0  0  0  0  0  0  0
   -2.4248   24.7659  -25.1245 H   0  0  0  0  0  0  0  0  0  0  0  0
   -3.1310   25.6780  -29.6380 H   0  0  0  0  0  0  0  0  0  0  0  0
   -6.1594   25.3895  -29.5711 H   0  0  0  0  0  0  0  0  0  0  0  0
   -7.7737   23.8743  -30.7086 H   0  0  0  0  0  0  0  0  0  0  0  0
   -9.0377   22.5066  -31.0821 H   0  0  0  0  0  0  0  0  0  0  0  0
  -10.6528   20.9812  -32.2165 H   0  0  0  0  0  0  0  0  0  0  0  0
   -9.8248   19.0042  -33.4934 H   0  0  0  0  0  0  0  0  0  0  0  0
   -7.3770   18.5428  -33.6323 H   0  0  0  0  0  0  0  0  0  0  0  0
   -5.7496   20.0632  -32.5085 H   0  0  0  0  0  0  0  0  0  0  0  0
   -4.6440   20.9193  -31.2094 H   0  0  0  0  0  0  0  0  0  0  0  0
   -3.0330   22.4376  -30.0701 H   0  0  0  0  0  0  0  0  0  0  0  0
    0.8281   27.1093  -28.1027 H   0  0  0  0  0  0  0  0  0  0  0  0
  1  2  2  0
  2  3  1  0
  2  4  1  0
  4  5  2  0
  5  6  1  0
  6  7  2  0
  7  8  1  0
  8  9  2  0
  8 10  1  0
 10 11  1  0
 11 12  2  0
 12 13  1  0
 13 14  2  0
 14 15  1  0
 15 16  2  0
 16 17  1  0
 17 18  2  0
 18 19  1  0
 19 20  2  0
 14 21  1  0
 21 22  2  0
  7 23  1  0
 23 24  1  0
 23 25  2  0
 25  4  1  0
 22 11  1  0
 20 15  1  0
  5 26  1  0
  6 27  1  0
 10 28  1  0
 12 29  1  0
 13 30  1  0
 16 31  1  0
 17 32  1  0
 18 33  1  0
 19 34  1  0
 20 35  1  0
 21 36  1  0
 22 37  1  0
 25 38  1  0
M  CHG  2   3  -1  24  -1
M  END
>  <UniqueID>  (24) 
23

>  <SMILES>  (24) 
O=C([O-])c1ccc(C(=O)Nc2ccc(-c3ccccc3)cc2)c([O-])c1

>  <Energy>  (24) 
54.612659432574176

>  <Genealogy>  (24) 
O=C([O-])c1ccc(C(=O)Nc2ccc(-c3ccccc3)cc2)c([O-])c1 (protonated)
O=C([O-])c1ccc(C(=O)Nc2ccc(-c3ccccc3)cc2)c([O-])c1 (3D coordinates assigned)
O=C([O-])c1ccc(C(=O)Nc2ccc(-c3ccccc3)cc2)c([O-])c1 (optimized conformer: 54.612659432574176 kcal/mol)

>  <smiles>  (24) 
O=C(O)c1ccc(C(=O)Nc2ccc(-c3ccccc3)cc2)c(O)c1

>  <score_type>  (24) 
oracle

>  <origin>  (24) 
adgpu

>  <m_score__min__energy>  (24) 
-10.69

>  <m_primary>  (24) 
energy

$$$$
24:0
     RDKit          3D

 35 36  0  0  0  0  0  0  0  0999 V2000
   -5.6450   20.5960  -33.0110 C   0  0  0  0  0  0  0  0  0  0  0  0
   -6.2030   20.9690  -31.6410 C   0  0  0  0  0  0  0  0  0  0  0  0
   -5.9740   22.4350  -31.3460 C   0  0  0  0  0  0  0  0  0  0  0  0
   -4.7150   22.8440  -30.8810 C   0  0  0  0  0  0  0  0  0  0  0  0
   -4.4640   24.1910  -30.5670 C   0  0  0  0  0  0  0  0  0  0  0  0
   -3.1730   24.6290  -30.0930 N   0  0  0  0  0  0  0  0  0  0  0  0
   -2.0990   23.7060  -29.7200 C   0  0  0  0  0  0  0  0  0  0  0  0
   -1.5120   24.0830  -28.3840 C   0  0  0  0  0  0  0  0  0  0  0  0
   -1.2480   23.0860  -27.4280 C   0  0  0  0  0  0  0  0  0  0  0  0
   -0.7350   23.4280  -26.1730 C   0  0  0  0  0  0  0  0  0  0  0  0
   -0.4690   22.4360  -25.2370 O   0  0  0  0  0  0  0  0  0  0  0  0
   -0.4900   24.7680  -25.8580 C   0  0  0  0  0  0  0  0  0  0  0  0
   -0.7650   25.7670  -26.7960 C   0  0  0  0  0  0  0  0  0  0  0  0
   -1.2800   25.4330  -28.0520 C   0  0  0  0  0  0  0  0  0  0  0  0
   -1.5620   26.4440  -28.9650 O   0  0  0  0  0  0  0  0  0  0  0  0
   -5.5120   25.1150  -30.7270 C   0  0  0  0  0  0  0  0  0  0  0  0
   -5.3380   26.3350  -30.4640 O   0  0  0  0  0  0  0  0  0  0  0  0
   -6.7280   24.7010  -31.1660 N   0  0  0  0  0  0  0  0  0  0  0  0
   -6.9960   23.4020  -31.4690 C   0  0  0  0  0  0  0  0  0  0  0  0
   -8.3730   23.0560  -31.9540 C   0  0  0  0  0  0  0  0  0  0  0  0
   -4.7366   19.9888  -32.8840 H   0  0  0  0  0  0  0  0  0  0  0  0
   -6.3971   20.0185  -33.5684 H   0  0  0  0  0  0  0  0  0  0  0  0
   -5.3989   21.5118  -33.5684 H   0  0  0  0  0  0  0  0  0  0  0  0
   -7.2833   20.7626  -31.6237 H   0  0  0  0  0  0  0  0  0  0  0  0
   -5.6855   20.3715  -30.8761 H   0  0  0  0  0  0  0  0  0  0  0  0
   -3.9134   22.1004  -30.7605 H   0  0  0  0  0  0  0  0  0  0  0  0
   -2.9940   25.6560  -30.0100 H   0  0  0  0  0  0  0  0  0  0  0  0
   -2.5045   22.6852  -29.6610 H   0  0  0  0  0  0  0  0  0  0  0  0
   -1.3071   23.7589  -30.4816 H   0  0  0  0  0  0  0  0  0  0  0  0
   -1.4462   22.0312  -27.6689 H   0  0  0  0  0  0  0  0  0  0  0  0
   -0.0811   25.0358  -24.8726 H   0  0  0  0  0  0  0  0  0  0  0  0
   -0.5753   26.8210  -26.5448 H   0  0  0  0  0  0  0  0  0  0  0  0
   -9.0347   22.8897  -31.0911 H   0  0  0  0  0  0  0  0  0  0  0  0
   -8.7658   23.8834  -32.5632 H   0  0  0  0  0  0  0  0  0  0  0  0
   -8.3281   22.1412  -32.5632 H   0  0  0  0  0  0  0  0  0  0  0  0
  1  2  1  0
  2  3  1  0
  3  4  1  0
  4  5  2  0
  5  6  1  0
  6  7  1  0
  7  8  1  0
  8  9  2  0
  9 10  1  0
 10 11  1  0
 10 12  2  0
 12 13  1  0
 13 14  2  0
 14 15  1  0
  5 16  1  0
 16 17  2  0
 16 18  1  0
 18 19  1  0
 19 20  1  0
 19  3  2  0
 14  8  1  0
  1 21  1  0
  1 22  1  0
  1 23  1  0
  2 24  1  0
  2 25  1  0
  4 26  1  0
  6 27  1  0
  7 28  1  0
  7 29  1  0
  9 30  1  0
 12 31  1  0
 13 32  1  0
 20 33  1  0
 20 34  1  0
 20 35  1  0
M  CHG  3  11  -1  15  -1  18  -1
M  END
>  <UniqueID>  (25) 
24

>  <SMILES>  (25) 
CCc1cc(NCc2cc([O-])ccc2[O-])c(=O)[n-]c1C

>  <Energy>  (25) 
34.32606766769378

>  <Genealogy>  (25) 
CCc1cc(NCc2cc([O-])ccc2[O-])c(=O)[n-]c1C (protonated)
CCc1cc(NCc2cc([O-])ccc2[O-])c(=O)[n-]c1C (3D coordinates assigned)
CCc1cc(NCc2cc([O-])ccc2[O-])c(=O)[n-]c1C (optimized conformer: 34.32606766769378 kcal/mol)

>  <smiles>  (25) 
CCc1cc(NCc2cc(O)ccc2O)c(=O)[nH]c1C

>  <score_type>  (25) 
oracle

>  <origin>  (25) 
adgpu

>  <m_score__min__energy>  (25) 
-10.26

>  <m_primary>  (25) 
energy

$$$$
25:0
     RDKit          3D

 56 59  0  0  0  0  0  0  0  0999 V2000
   -0.4990   30.5490  -37.2090 C   0  0  0  0  0  0  0  0  0  0  0  0
   -0.2240   29.1030  -36.9230 C   0  0  0  0  0  0  0  0  0  0  0  0
    0.2300   28.2530  -37.9420 C   0  0  0  0  0  0  0  0  0  0  0  0
    0.5230   26.9140  -37.6640 C   0  0  0  0  0  0  0  0  0  0  0  0
    0.3810   26.4080  -36.3610 C   0  0  0  0  0  0  0  0  0  0  0  0
    0.7000   24.9950  -36.0650 C   0  0  0  0  0  0  0  0  0  0  0  0
   -0.0750   23.9560  -36.4410 N   0  0  0  0  0  0  0  0  0  0  0  0
    0.6110   22.9100  -35.9450 C   0  0  0  0  0  0  0  0  0  0  0  0
    0.0760   21.2090  -36.1080 S   0  0  0  0  0  0  0  0  0  0  0  0
    0.0700   20.8890  -34.3090 C   0  0  0  0  0  0  0  0  0  0  0  0
   -1.0120   19.9080  -33.9440 C   0  0  0  0  0  0  0  0  0  0  0  0
   -1.1940   18.8990  -34.6750 O   0  0  0  0  0  0  0  0  0  0  0  0
   -1.9030   20.1340  -32.8440 N   0  0  0  0  0  0  0  0  0  0  0  0
   -3.3280   20.0030  -32.8830 C   0  0  0  0  0  0  0  0  0  0  0  0
   -3.9380   18.9060  -33.5050 C   0  0  0  0  0  0  0  0  0  0  0  0
   -5.3290   18.8090  -33.5550 C   0  0  0  0  0  0  0  0  0  0  0  0
   -6.1380   19.8160  -33.0000 C   0  0  0  0  0  0  0  0  0  0  0  0
   -7.6350   19.6730  -33.0770 C   0  0  0  0  0  0  0  0  0  0  0  0
   -5.5250   20.9420  -32.3960 C   0  0  0  0  0  0  0  0  0  0  0  0
   -6.4830   22.2650  -31.7080 S   0  0  0  0  0  0  0  0  0  0  0  0
   -7.5150   22.6950  -32.7120 O   0  0  0  0  0  0  0  0  0  0  0  0
   -7.1930   21.7990  -30.4660 O   0  0  0  0  0  0  0  0  0  0  0  0
   -5.4370   23.6060  -31.3170 N   0  0  0  0  0  0  0  0  0  0  0  0
   -6.2390   24.8170  -31.0700 C   0  0  0  0  0  0  0  0  0  0  0  0
   -5.3730   25.9300  -30.4450 C   0  0  0  0  0  0  0  0  0  0  0  0
   -3.9970   25.6260  -30.5590 O   0  0  0  0  0  0  0  0  0  0  0  0
   -3.6950   24.4710  -29.7960 C   0  0  0  0  0  0  0  0  0  0  0  0
   -4.6230   23.2850  -30.1370 C   0  0  0  0  0  0  0  0  0  0  0  0
   -4.1230   21.0260  -32.3590 C   0  0  0  0  0  0  0  0  0  0  0  0
    1.7370   23.2790  -35.3090 N   0  0  0  0  0  0  0  0  0  0  0  0
    1.7920   24.5980  -35.3830 N   0  0  0  0  0  0  0  0  0  0  0  0
   -0.0570   27.2680  -35.3390 C   0  0  0  0  0  0  0  0  0  0  0  0
   -0.3520   28.6060  -35.6170 C   0  0  0  0  0  0  0  0  0  0  0  0
   -0.6032   31.0969  -36.2609 H   0  0  0  0  0  0  0  0  0  0  0  0
    0.3346   30.9732  -37.7880 H   0  0  0  0  0  0  0  0  0  0  0  0
   -1.4301   30.6376  -37.7880 H   0  0  0  0  0  0  0  0  0  0  0  0
    0.3561   28.6409  -38.9636 H   0  0  0  0  0  0  0  0  0  0  0  0
    0.8674   26.2517  -38.4720 H   0  0  0  0  0  0  0  0  0  0  0  0
    1.0457   20.4764  -34.0129 H   0  0  0  0  0  0  0  0  0  0  0  0
   -0.1208   21.8361  -33.7831 H   0  0  0  0  0  0  0  0  0  0  0  0
   -3.3176   18.1175  -33.9560 H   0  0  0  0  0  0  0  0  0  0  0  0
   -5.7972   17.9361  -34.0333 H   0  0  0  0  0  0  0  0  0  0  0  0
   -8.0523   19.6331  -32.0600 H   0  0  0  0  0  0  0  0  0  0  0  0
   -8.0585   20.5348  -33.6136 H   0  0  0  0  0  0  0  0  0  0  0  0
   -7.8877   18.7466  -33.6136 H   0  0  0  0  0  0  0  0  0  0  0  0
   -6.6537   25.1755  -32.0237 H   0  0  0  0  0  0  0  0  0  0  0  0
   -7.0495   24.5662  -30.3699 H   0  0  0  0  0  0  0  0  0  0  0  0
   -5.5761   26.8781  -30.9644 H   0  0  0  0  0  0  0  0  0  0  0  0
   -5.6261   26.0131  -29.3778 H   0  0  0  0  0  0  0  0  0  0  0  0
   -2.6547   24.1757  -29.9977 H   0  0  0  0  0  0  0  0  0  0  0  0
   -3.8430   24.7202  -28.7349 H   0  0  0  0  0  0  0  0  0  0  0  0
   -4.0130   22.3940  -30.3469 H   0  0  0  0  0  0  0  0  0  0  0  0
   -5.2877   23.0898  -29.2825 H   0  0  0  0  0  0  0  0  0  0  0  0
   -3.6443   21.9094  -31.9113 H   0  0  0  0  0  0  0  0  0  0  0  0
   -0.1684   26.8857  -34.3136 H   0  0  0  0  0  0  0  0  0  0  0  0
   -0.6861   29.2723  -34.8081 H   0  0  0  0  0  0  0  0  0  0  0  0
  1  2  1  0
  2  3  2  0
  3  4  1  0
  4  5  2  0
  5  6  1  0
  6  7  2  0
  7  8  1  0
  8  9  1  0
  9 10  1  0
 10 11  1  0
 11 12  2  0
 11 13  1  0
 13 14  1  0
 14 15  2  0
 15 16  1  0
 16 17  2  0
 17 18  1  0
 17 19  1  0
 19 20  1  0
 20 21  2  0
 20 22  2  0
 20 23  1  0
 23 24  1  0
 24 25  1  0
 25 26  1  0
 26 27  1  0
 27 28  1  0
 19 29  2  0
  8 30  2  0
 30 31  1  0
  5 32  1  0
 32 33  2  0
 33  2  1  0
 31  6  1  0
 29 14  1  0
 28 23  1  0
  1 34  1  0
  1 35  1  0
  1 36  1  0
  3 37  1  0
  4 38  1  0
 10 39  1  0
 10 40  1  0
 15 41  1  0
 16 42  1  0
 18 43  1  0
 18 44  1  0
 18 45  1  0
 24 46  1  0
 24 47  1  0
 25 48  1  0
 25 49  1  0
 27 50  1  0
 27 51  1  0
 28 52  1  0
 28 53  1  0
 29 54  1  0
 32 55  1  0
 33 56  1  0
M  CHG  2  13  -1  31  -1
M  END
>  <UniqueID>  (26) 
25

>  <SMILES>  (26) 
Cc1ccc(-c2nc(SCC(=O)[N-]c3ccc(C)c(S(=O)(=O)N4CCOCC4)c3)n[n-]2)cc1

>  <Energy>  (26) 
99.89535893875129

>  <Genealogy>  (26) 
Cc1ccc(-c2nc(SCC(=O)[N-]c3ccc(C)c(S(=O)(=O)N4CCOCC4)c3)n[n-]2)cc1 (protonated)
Cc1ccc(-c2nc(SCC(=O)[N-]c3ccc(C)c(S(=O)(=O)N4CCOCC4)c3)n[n-]2)cc1 (3D coordinates assigned)
Cc1ccc(-c2nc(SCC(=O)[N-]c3ccc(C)c(S(=O)(=O)N4CCOCC4)c3)n[n-]2)cc1 (nonaromatic ring conformer: 99.89535893875129 kcal/mol)

>  <smiles>  (26) 
Cc1ccc(-c2nc(SCC(=O)Nc3ccc(C)c(S(=O)(=O)N4CCOCC4)c3)n[nH]2)cc1

>  <score_type>  (26) 
oracle

>  <origin>  (26) 
adgpu

>  <m_score__min__energy>  (26) 
-11.98

>  <m_primary>  (26) 
energy

$$$$
26:0
     RDKit          3D

 47 50  0  0  0  0  0  0  0  0999 V2000
   -2.6170   18.0570  -33.0450 C   0  0  0  0  0  0  0  0  0  0  0  0
   -3.5090   18.4590  -34.5790 S   0  0  0  0  0  0  0  0  0  0  0  0
   -5.1190   18.0970  -33.8770 C   0  0  0  0  0  0  0  0  0  0  0  0
   -5.6540   16.8070  -33.9800 C   0  0  0  0  0  0  0  0  0  0  0  0
   -6.8990   16.5210  -33.4170 C   0  0  0  0  0  0  0  0  0  0  0  0
   -7.6170   17.5220  -32.7550 C   0  0  0  0  0  0  0  0  0  0  0  0
   -7.1010   18.8220  -32.6630 C   0  0  0  0  0  0  0  0  0  0  0  0
   -7.8510   19.7940  -31.9870 O   0  0  0  0  0  0  0  0  0  0  0  0
   -7.4550   21.1230  -31.7880 C   0  0  0  0  0  0  0  0  0  0  0  0
   -8.3600   22.1550  -31.8900 N   0  0  0  0  0  0  0  0  0  0  0  0
   -7.9930   23.4530  -31.6800 C   0  0  0  0  0  0  0  0  0  0  0  0
   -6.6710   23.7010  -31.3490 C   0  0  0  0  0  0  0  0  0  0  0  0
   -6.0630   24.8760  -31.0960 N   0  0  0  0  0  0  0  0  0  0  0  0
   -4.7860   24.4850  -30.8360 C   0  0  0  0  0  0  0  0  0  0  0  0
   -3.8720   25.2990  -30.5390 O   0  0  0  0  0  0  0  0  0  0  0  0
   -4.5890   23.1440  -30.9160 N   0  0  0  0  0  0  0  0  0  0  0  0
   -3.3780   22.4040  -30.7010 C   0  0  0  0  0  0  0  0  0  0  0  0
   -2.7790   22.3830  -29.4230 C   0  0  0  0  0  0  0  0  0  0  0  0
   -3.4030   23.1150  -28.2660 C   0  0  0  0  0  0  0  0  0  0  0  0
   -1.6020   21.6470  -29.2210 C   0  0  0  0  0  0  0  0  0  0  0  0
   -0.9920   20.9700  -30.2840 C   0  0  0  0  0  0  0  0  0  0  0  0
    0.2560   20.1680  -30.0510 C   0  0  0  0  0  0  0  0  0  0  0  0
   -1.5880   20.9910  -31.5500 C   0  0  0  0  0  0  0  0  0  0  0  0
   -2.7830   21.6960  -31.7680 C   0  0  0  0  0  0  0  0  0  0  0  0
   -3.3960   21.7090  -33.1420 C   0  0  0  0  0  0  0  0  0  0  0  0
   -5.7970   22.6730  -31.2410 C   0  0  0  0  0  0  0  0  0  0  0  0
   -6.1550   21.3840  -31.4520 N   0  0  0  0  0  0  0  0  0  0  0  0
   -5.8350   19.1000  -33.2120 C   0  0  0  0  0  0  0  0  0  0  0  0
   -3.2344   18.3352  -32.1782 H   0  0  0  0  0  0  0  0  0  0  0  0
   -2.4077   16.9775  -33.0147 H   0  0  0  0  0  0  0  0  0  0  0  0
   -1.6696   18.6152  -33.0147 H   0  0  0  0  0  0  0  0  0  0  0  0
   -5.0933   16.0192  -34.5044 H   0  0  0  0  0  0  0  0  0  0  0  0
   -7.3162   15.5061  -33.4942 H   0  0  0  0  0  0  0  0  0  0  0  0
   -8.5925   17.2878  -32.3038 H   0  0  0  0  0  0  0  0  0  0  0  0
   -8.7210   24.2726  -31.7704 H   0  0  0  0  0  0  0  0  0  0  0  0
   -3.0377   22.6865  -27.3211 H   0  0  0  0  0  0  0  0  0  0  0  0
   -3.1302   24.1795  -28.3155 H   0  0  0  0  0  0  0  0  0  0  0  0
   -4.4972   23.0142  -28.3155 H   0  0  0  0  0  0  0  0  0  0  0  0
   -1.1538   21.6013  -28.2175 H   0  0  0  0  0  0  0  0  0  0  0  0
    0.4254   20.0592  -28.9696 H   0  0  0  0  0  0  0  0  0  0  0  0
    0.1429   19.1731  -30.5064 H   0  0  0  0  0  0  0  0  0  0  0  0
    1.1140   20.6843  -30.5064 H   0  0  0  0  0  0  0  0  0  0  0  0
   -1.1156   20.4497  -32.3830 H   0  0  0  0  0  0  0  0  0  0  0  0
   -4.4922   21.7322  -33.0542 H   0  0  0  0  0  0  0  0  0  0  0  0
   -3.0529   22.6001  -33.6882 H   0  0  0  0  0  0  0  0  0  0  0  0
   -3.0910   20.8042  -33.6882 H   0  0  0  0  0  0  0  0  0  0  0  0
   -5.4066   20.1088  -33.1183 H   0  0  0  0  0  0  0  0  0  0  0  0
  1  2  1  0
  2  3  1  0
  3  4  2  0
  4  5  1  0
  5  6  2  0
  6  7  1  0
  7  8  1  0
  8  9  1  0
  9 10  2  0
 10 11  1  0
 11 12  2  0
 12 13  1  0
 13 14  1  0
 14 15  2  0
 14 16  1  0
 16 17  1  0
 17 18  2  0
 18 19  1  0
 18 20  1  0
 20 21  2  0
 21 22  1  0
 21 23  1  0
 23 24  2  0
 24 25  1  0
 16 26  1  0
 26 27  2  0
  7 28  2  0
 28  3  1  0
 27  9  1  0
 26 12  1  0
 24 17  1  0
  1 29  1  0
  1 30  1  0
  1 31  1  0
  4 32  1  0
  5 33  1  0
  6 34  1  0
 11 35  1  0
 19 36  1  0
 19 37  1  0
 19 38  1  0
 20 39  1  0
 22 40  1  0
 22 41  1  0
 22 42  1  0
 23 43  1  0
 25 44  1  0
 25 45  1  0
 25 46  1  0
 28 47  1  0
M  CHG  1  13  -1
M  END
>  <UniqueID>  (27) 
26

>  <SMILES>  (27) 
CSc1cccc(Oc2ncc3[n-]c(=O)n(-c4c(C)cc(C)cc4C)c3n2)c1

>  <Energy>  (27) 
99.89577322764252

>  <Genealogy>  (27) 
CSc1cccc(Oc2ncc3[n-]c(=O)n(-c4c(C)cc(C)cc4C)c3n2)c1 (protonated)
CSc1cccc(Oc2ncc3[n-]c(=O)n(-c4c(C)cc(C)cc4C)c3n2)c1 (3D coordinates assigned)
CSc1cccc(Oc2ncc3[n-]c(=O)n(-c4c(C)cc(C)cc4C)c3n2)c1 (optimized conformer: 99.89577322764252 kcal/mol)

>  <smiles>  (27) 
CSc1cccc(Oc2ncc3[nH]c(=O)n(-c4c(C)cc(C)cc4C)c3n2)c1

>  <score_type>  (27) 
oracle

>  <origin>  (27) 
adgpu

>  <m_score__min__energy>  (27) 
-9.6999999999999993

>  <m_primary>  (27) 
energy

$$$$
27:0
     RDKit          3D

 50 52  0  0  0  0  0  0  0  0999 V2000
   -2.9640   16.1520  -35.3430 C   0  0  0  0  0  0  0  0  0  0  0  0
   -4.2830   16.6280  -35.0990 O   0  0  0  0  0  0  0  0  0  0  0  0
   -4.5840   17.8630  -34.5020 C   0  0  0  0  0  0  0  0  0  0  0  0
   -5.9060   18.3000  -34.2990 C   0  0  0  0  0  0  0  0  0  0  0  0
   -6.1610   19.5480  -33.7070 C   0  0  0  0  0  0  0  0  0  0  0  0
   -7.5040   20.0050  -33.4710 N   0  0  0  0  0  0  0  0  0  0  0  0
   -8.1680   19.9300  -32.2000 C   0  0  0  0  0  0  0  0  0  0  0  0
   -7.6880   19.2340  -31.2640 O   0  0  0  0  0  0  0  0  0  0  0  0
   -9.4910   20.6070  -32.0070 C   0  0  0  0  0  0  0  0  0  0  0  0
   -9.3120   21.9330  -31.4120 N   0  0  0  0  0  0  0  0  0  0  0  0
   -8.0310   22.5820  -31.3010 C   0  0  0  0  0  0  0  0  0  0  0  0
   -7.4030   22.6510  -30.0470 C   0  0  0  0  0  0  0  0  0  0  0  0
   -6.1590   23.2720  -29.9080 C   0  0  0  0  0  0  0  0  0  0  0  0
   -5.5130   23.8210  -31.0200 C   0  0  0  0  0  0  0  0  0  0  0  0
   -4.2720   24.4480  -30.8400 O   0  0  0  0  0  0  0  0  0  0  0  0
   -3.1640   23.8840  -30.1930 C   0  0  0  0  0  0  0  0  0  0  0  0
   -2.5000   24.5430  -29.1420 C   0  0  0  0  0  0  0  0  0  0  0  0
   -1.3850   23.9560  -28.5360 C   0  0  0  0  0  0  0  0  0  0  0  0
   -0.9180   22.7150  -28.9790 C   0  0  0  0  0  0  0  0  0  0  0  0
   -1.5630   22.0630  -30.0340 C   0  0  0  0  0  0  0  0  0  0  0  0
   -2.6780   22.6490  -30.6430 C   0  0  0  0  0  0  0  0  0  0  0  0
   -6.1440   23.7720  -32.2750 C   0  0  0  0  0  0  0  0  0  0  0  0
   -7.3900   23.1540  -32.4160 C   0  0  0  0  0  0  0  0  0  0  0  0
   -5.0840   20.3400  -33.2860 C   0  0  0  0  0  0  0  0  0  0  0  0
   -3.7640   19.9200  -33.4810 C   0  0  0  0  0  0  0  0  0  0  0  0
   -2.7280   20.7610  -33.0500 O   0  0  0  0  0  0  0  0  0  0  0  0
   -1.3810   20.6780  -33.5060 C   0  0  0  0  0  0  0  0  0  0  0  0
   -3.5220   18.6790  -34.0970 C   0  0  0  0  0  0  0  0  0  0  0  0
   -2.4570   15.9690  -34.3841 H   0  0  0  0  0  0  0  0  0  0  0  0
   -3.0127   15.2147  -35.9167 H   0  0  0  0  0  0  0  0  0  0  0  0
   -2.4029   16.9044  -35.9167 H   0  0  0  0  0  0  0  0  0  0  0  0
   -6.7460   17.6596  -34.6062 H   0  0  0  0  0  0  0  0  0  0  0  0
   -8.0640   20.3310  -34.2920 H   0  0  0  0  0  0  0  0  0  0  0  0
   -9.9881   20.7131  -32.9825 H   0  0  0  0  0  0  0  0  0  0  0  0
  -10.1057   19.9956  -31.3299 H   0  0  0  0  0  0  0  0  0  0  0  0
  -10.1540   22.4400  -31.0510 H   0  0  0  0  0  0  0  0  0  0  0  0
   -7.8947   22.2123  -29.1662 H   0  0  0  0  0  0  0  0  0  0  0  0
   -5.6847   23.3294  -28.9172 H   0  0  0  0  0  0  0  0  0  0  0  0
   -2.8593   25.5234  -28.7959 H   0  0  0  0  0  0  0  0  0  0  0  0
   -0.8744   24.4715  -27.7093 H   0  0  0  0  0  0  0  0  0  0  0  0
   -0.0438   22.2520  -28.4979 H   0  0  0  0  0  0  0  0  0  0  0  0
   -1.1936   21.0884  -30.3857 H   0  0  0  0  0  0  0  0  0  0  0  0
   -3.1760   22.1374  -31.4798 H   0  0  0  0  0  0  0  0  0  0  0  0
   -5.6547   24.2225  -33.1511 H   0  0  0  0  0  0  0  0  0  0  0  0
   -7.8722   23.1145  -33.4039 H   0  0  0  0  0  0  0  0  0  0  0  0
   -5.2794   21.3050  -32.7956 H   0  0  0  0  0  0  0  0  0  0  0  0
   -0.7029   20.6362  -32.6409 H   0  0  0  0  0  0  0  0  0  0  0  0
   -1.2552   19.7704  -34.1146 H   0  0  0  0  0  0  0  0  0  0  0  0
   -1.1447   21.5633  -34.1146 H   0  0  0  0  0  0  0  0  0  0  0  0
   -2.4866   18.3463  -34.2622 H   0  0  0  0  0  0  0  0  0  0  0  0
  1  2  1  0
  2  3  1  0
  3  4  2  0
  4  5  1  0
  5  6  1  0
  6  7  1  0
  7  8  2  0
  7  9  1  0
  9 10  1  0
 10 11  1  0
 11 12  2  0
 12 13  1  0
 13 14  2  0
 14 15  1  0
 15 16  1  0
 16 17  2  0
 17 18  1  0
 18 19  2  0
 19 20  1  0
 20 21  2  0
 14 22  1  0
 22 23  2  0
  5 24  2  0
 24 25  1  0
 25 26  1  0
 26 27  1  0
 25 28  2  0
 28  3  1  0
 23 11  1  0
 21 16  1  0
  1 29  1  0
  1 30  1  0
  1 31  1  0
  4 32  1  0
  6 33  1  0
  9 34  1  0
  9 35  1  0
 10 36  1  0
 12 37  1  0
 13 38  1  0
 17 39  1  0
 18 40  1  0
 19 41  1  0
 20 42  1  0
 21 43  1  0
 22 44  1  0
 23 45  1  0
 24 46  1  0
 27 47  1  0
 27 48  1  0
 27 49  1  0
 28 50  1  0
M  END
>  <UniqueID>  (28) 
27

>  <SMILES>  (28) 
COc1cc(NC(=O)CNc2ccc(Oc3ccccc3)cc2)cc(OC)c1

>  <Energy>  (28) 
59.46121167410107

>  <Genealogy>  (28) 
COc1cc(NC(=O)CNc2ccc(Oc3ccccc3)cc2)cc(OC)c1 (3D coordinates assigned)
COc1cc(NC(=O)CNc2ccc(Oc3ccccc3)cc2)cc(OC)c1 (optimized conformer: 59.46121167410107 kcal/mol)

>  <smiles>  (28) 
COc1cc(NC(=O)CNc2ccc(Oc3ccccc3)cc2)cc(OC)c1

>  <score_type>  (28) 
oracle

>  <origin>  (28) 
adgpu

>  <m_score__min__energy>  (28) 
-9.3300000000000001

>  <m_primary>  (28) 
energy

$$$$
28:0
     RDKit          3D

 45 47  0  0  0  0  0  0  0  0999 V2000
   -3.5375   20.2731  -30.5619 H   0  0  0  0  0  0  0  0  0  0  0  0
   -2.7850   20.7870  -31.1780 C   0  0  0  0  0  0  0  0  0  0  0  0
   -1.7560   21.6010  -30.5030 C   0  0  0  0  0  0  0  0  0  0  0  0
   -0.7440   21.9600  -31.1640 O   0  0  0  0  0  0  0  0  0  0  0  0
   -1.8570   21.9400  -29.1090 N   0  0  0  0  0  0  0  0  0  0  0  0
   -2.4610   21.3510  -28.4940 H   0  0  0  0  0  0  0  0  0  0  0  0
   -1.0850   22.9920  -28.5010 C   0  0  0  0  0  0  0  0  0  0  0  0
    0.2740   22.7810  -28.2040 C   0  0  0  0  0  0  0  0  0  0  0  0
    0.7233   21.7927  -28.3812 H   0  0  0  0  0  0  0  0  0  0  0  0
    1.0570   23.8130  -27.6870 C   0  0  0  0  0  0  0  0  0  0  0  0
    2.1164   23.6334  -27.4516 H   0  0  0  0  0  0  0  0  0  0  0  0
    0.4990   25.0720  -27.4680 C   0  0  0  0  0  0  0  0  0  0  0  0
    1.1193   25.8848  -27.0624 H   0  0  0  0  0  0  0  0  0  0  0  0
   -0.8460   25.3020  -27.7630 C   0  0  0  0  0  0  0  0  0  0  0  0
   -1.2800   26.2973  -27.5870 H   0  0  0  0  0  0  0  0  0  0  0  0
   -1.6510   24.2730  -28.2830 C   0  0  0  0  0  0  0  0  0  0  0  0
   -3.0840   24.5450  -28.5450 C   0  0  0  0  0  0  0  0  0  0  0  0
   -3.9020   24.5310  -27.5870 O   0  0  0  0  0  0  0  0  0  0  0  0
   -3.5580   24.9070  -29.8490 N   0  0  0  0  0  0  0  0  0  0  0  0
   -4.7530   24.4210  -30.4800 C   0  0  0  0  0  0  0  0  0  0  0  0
   -4.6910   23.4430  -31.4900 C   0  0  0  0  0  0  0  0  0  0  0  0
   -3.7149   23.0518  -31.8128 H   0  0  0  0  0  0  0  0  0  0  0  0
   -5.8610   22.9660  -32.0850 C   0  0  0  0  0  0  0  0  0  0  0  0
   -5.8027   22.2113  -32.8831 H   0  0  0  0  0  0  0  0  0  0  0  0
   -7.1040   23.4450  -31.6690 C   0  0  0  0  0  0  0  0  0  0  0  0
   -8.0238   23.0728  -32.1437 H   0  0  0  0  0  0  0  0  0  0  0  0
   -7.1800   24.3970  -30.6500 C   0  0  0  0  0  0  0  0  0  0  0  0
   -8.1622   24.7663  -30.3199 H   0  0  0  0  0  0  0  0  0  0  0  0
   -6.0120   24.8860  -30.0440 C   0  0  0  0  0  0  0  0  0  0  0  0
   -6.1150   25.8630  -29.0010 N   0  0  0  0  0  0  0  0  0  0  0  0
   -6.9240   26.5200  -28.9450 H   0  0  0  0  0  0  0  0  0  0  0  0
   -5.3760   25.9380  -28.2680 H   0  0  0  0  0  0  0  0  0  0  0  0
   -2.8420   20.6470  -32.5100 C   0  0  0  0  0  0  0  0  0  0  0  0
   -2.0955   21.1750  -33.1215 H   0  0  0  0  0  0  0  0  0  0  0  0
   -3.8580   19.8180  -33.2030 C   0  0  0  0  0  0  0  0  0  0  0  0
   -5.2380   20.1000  -33.1400 C   0  0  0  0  0  0  0  0  0  0  0  0
   -5.5944   20.9577  -32.5507 H   0  0  0  0  0  0  0  0  0  0  0  0
   -6.1560   19.2960  -33.8220 C   0  0  0  0  0  0  0  0  0  0  0  0
   -7.2315   19.5187  -33.7606 H   0  0  0  0  0  0  0  0  0  0  0  0
   -5.7120   18.2110  -34.5810 C   0  0  0  0  0  0  0  0  0  0  0  0
   -6.4373   17.5770  -35.1120 H   0  0  0  0  0  0  0  0  0  0  0  0
   -4.3470   17.9320  -34.6650 C   0  0  0  0  0  0  0  0  0  0  0  0
   -3.9971   17.0802  -35.2666 H   0  0  0  0  0  0  0  0  0  0  0  0
   -3.4230   18.7330  -33.9860 C   0  0  0  0  0  0  0  0  0  0  0  0
   -2.3481   18.5130  -34.0648 H   0  0  0  0  0  0  0  0  0  0  0  0
  1  2  1  0
  2  3  1  0
  3  4  2  0
  3  5  1  0
  5  6  1  0
  5  7  1  0
  7  8  2  0
  8  9  1  0
  8 10  1  0
 10 11  1  0
 10 12  2  0
 12 13  1  0
 12 14  1  0
 14 15  1  0
 14 16  2  0
 16 17  1  0
 17 18  2  0
 17 19  1  0
 19 20  1  0
 20 21  2  0
 21 22  1  0
 21 23  1  0
 23 24  1  0
 23 25  2  0
 25 26  1  0
 25 27  1  0
 27 28  1  0
 27 29  2  0
 29 30  1  0
 30 31  1  0
 30 32  1  0
  2 33  2  0
 33 34  1  0
 33 35  1  0
 35 36  2  0
 36 37  1  0
 36 38  1  0
 38 39  1  0
 38 40  2  0
 40 41  1  0
 40 42  1  0
 42 43  1  0
 42 44  2  0
 44 45  1  0
 16  7  1  0
 29 20  1  0
 44 35  1  0
M  CHG  1  19  -1
M  END
>  <UniqueID>  (29) 
28

>  <SMILES>  (29) 
Nc1ccccc1[N-]C(=O)c1ccccc1NC(=O)/C=C/c1ccccc1

>  <Energy>  (29) 
62.70268943369445

>  <Genealogy>  (29) 
Nc1ccccc1[N-]C(=O)c1ccccc1NC(=O)C=Cc1ccccc1 (protonated)
Nc1ccccc1[N-]C(=O)c1ccccc1NC(=O)/C=C/c1ccccc1 (cis-trans isomerization)
Nc1ccccc1[N-]C(=O)c1ccccc1NC(=O)/C=C/c1ccccc1 (3D coordinates assigned)
Nc1ccccc1[N-]C(=O)c1ccccc1NC(=O)/C=C/c1ccccc1 (optimized conformer: 62.70268943369445 kcal/mol)

>  <smiles>  (29) 
Nc1ccccc1NC(=O)c1ccccc1NC(=O)C=Cc1ccccc1

>  <score_type>  (29) 
oracle

>  <origin>  (29) 
adgpu

>  <m_score__min__energy>  (29) 
-9.75

>  <m_primary>  (29) 
energy

$$$$
29:0
     RDKit          3D

 42 44  0  0  0  0  0  0  0  0999 V2000
   -9.1860   18.3230  -31.6600 C   0  0  0  0  0  0  0  0  0  0  0  0
   -7.7630   18.3930  -32.1280 C   0  0  0  0  0  0  0  0  0  0  0  0
   -6.8160   17.4760  -31.6490 C   0  0  0  0  0  0  0  0  0  0  0  0
   -5.4980   17.5150  -32.1140 C   0  0  0  0  0  0  0  0  0  0  0  0
   -5.1140   18.4570  -33.0820 C   0  0  0  0  0  0  0  0  0  0  0  0
   -3.7140   18.4910  -33.5690 C   0  0  0  0  0  0  0  0  0  0  0  0
   -3.1640   17.5590  -34.4310 C   0  0  0  0  0  0  0  0  0  0  0  0
   -1.8430   17.9160  -34.6090 C   0  0  0  0  0  0  0  0  0  0  0  0
   -1.6410   19.0600  -33.8630 C   0  0  0  0  0  0  0  0  0  0  0  0
   -0.3450   19.8100  -33.7900 C   0  0  0  0  0  0  0  0  0  0  0  0
   -2.7780   19.4070  -33.2190 N   0  0  0  0  0  0  0  0  0  0  0  0
   -2.9780   20.5890  -32.4240 C   0  0  0  0  0  0  0  0  0  0  0  0
   -3.9520   21.5310  -32.7840 C   0  0  0  0  0  0  0  0  0  0  0  0
   -4.1350   22.6860  -32.0180 C   0  0  0  0  0  0  0  0  0  0  0  0
   -3.3430   22.9130  -30.8850 C   0  0  0  0  0  0  0  0  0  0  0  0
   -3.5830   24.3610  -29.9130 S   0  0  0  0  0  0  0  0  0  0  0  0
   -4.6160   23.9690  -28.5200 C   0  0  0  0  0  0  0  0  0  0  0  0
   -4.2390   25.4290  -30.7420 O   0  0  0  0  0  0  0  0  0  0  0  0
   -2.2570   24.8730  -29.4270 O   0  0  0  0  0  0  0  0  0  0  0  0
   -2.3740   21.9700  -30.5180 C   0  0  0  0  0  0  0  0  0  0  0  0
   -2.1920   20.8160  -31.2830 C   0  0  0  0  0  0  0  0  0  0  0  0
   -6.0650   19.3740  -33.5600 C   0  0  0  0  0  0  0  0  0  0  0  0
   -7.3820   19.3340  -33.0960 C   0  0  0  0  0  0  0  0  0  0  0  0
   -9.2107   18.3218  -30.5603 H   0  0  0  0  0  0  0  0  0  0  0  0
   -9.7397   19.1950  -32.0382 H   0  0  0  0  0  0  0  0  0  0  0  0
   -9.6514   17.4009  -32.0382 H   0  0  0  0  0  0  0  0  0  0  0  0
   -7.1116   16.7226  -30.9040 H   0  0  0  0  0  0  0  0  0  0  0  0
   -4.7576   16.8037  -31.7193 H   0  0  0  0  0  0  0  0  0  0  0  0
   -3.6795   16.7004  -34.8860 H   0  0  0  0  0  0  0  0  0  0  0  0
   -1.0971   17.3919  -35.2246 H   0  0  0  0  0  0  0  0  0  0  0  0
   -0.0717   19.9681  -32.7363 H   0  0  0  0  0  0  0  0  0  0  0  0
    0.4437   19.2287  -34.2901 H   0  0  0  0  0  0  0  0  0  0  0  0
   -0.4560   20.7834  -34.2901 H   0  0  0  0  0  0  0  0  0  0  0  0
   -4.5755   21.3603  -33.6740 H   0  0  0  0  0  0  0  0  0  0  0  0
   -4.9032   23.4188  -32.3058 H   0  0  0  0  0  0  0  0  0  0  0  0
   -4.0694   24.1764  -27.5883 H   0  0  0  0  0  0  0  0  0  0  0  0
   -5.5275   24.5837  -28.5550 H   0  0  0  0  0  0  0  0  0  0  0  0
   -4.8902   22.9043  -28.5550 H   0  0  0  0  0  0  0  0  0  0  0  0
   -1.7548   22.1391  -29.6247 H   0  0  0  0  0  0  0  0  0  0  0  0
   -1.4283   20.0805  -30.9899 H   0  0  0  0  0  0  0  0  0  0  0  0
   -5.7706   20.1284  -34.3045 H   0  0  0  0  0  0  0  0  0  0  0  0
   -8.1236   20.0436  -33.4915 H   0  0  0  0  0  0  0  0  0  0  0  0
  1  2  1  0
  2  3  2  0
  3  4  1  0
  4  5  2  0
  5  6  1  0
  6  7  2  0
  7  8  1  0
  8  9  2  0
  9 10  1  0
  9 11  1  0
 11 12  1  0
 12 13  2  0
 13 14  1  0
 14 15  2  0
 15 16  1  0
 16 17  1  0
 16 18  2  0
 16 19  2  0
 15 20  1  0
 20 21  2  0
  5 22  1  0
 22 23  2  0
 23  2  1  0
 11  6  1  0
 21 12  1  0
  1 24  1  0
  1 25  1  0
  1 26  1  0
  3 27  1  0
  4 28  1  0
  7 29  1  0
  8 30  1  0
 10 31  1  0
 10 32  1  0
 10 33  1  0
 13 34  1  0
 14 35  1  0
 17 36  1  0
 17 37  1  0
 17 38  1  0
 20 39  1  0
 21 40  1  0
 22 41  1  0
 23 42  1  0
M  END
>  <UniqueID>  (30) 
29

>  <SMILES>  (30) 
Cc1ccc(-c2ccc(C)n2-c2ccc(S(C)(=O)=O)cc2)cc1

>  <Energy>  (30) 
75.55631562225012

>  <Genealogy>  (30) 
Cc1ccc(-c2ccc(C)n2-c2ccc(S(C)(=O)=O)cc2)cc1 (3D coordinates assigned)
Cc1ccc(-c2ccc(C)n2-c2ccc(S(C)(=O)=O)cc2)cc1 (optimized conformer: 75.55631562225012 kcal/mol)

>  <smiles>  (30) 
Cc1ccc(-c2ccc(C)n2-c2ccc(S(C)(=O)=O)cc2)cc1

>  <score_type>  (30) 
oracle

>  <origin>  (30) 
adgpu

>  <m_score__min__energy>  (30) 
-8.8599999999999994

>  <m_primary>  (30) 
energy

$$$$
30:0
     RDKit          3D

 47 49  0  0  1  0  0  0  0  0999 V2000
    2.9180   24.5780  -24.0960 C   0  0  0  0  0  0  0  0  0  0  0  0
    1.5660   25.0010  -24.5370 C   0  0  0  0  0  0  0  0  0  0  0  0
    0.9800   24.5760  -25.6690 N   0  0  0  0  0  0  0  0  0  0  0  0
   -0.2750   25.0350  -25.9760 C   0  0  0  0  0  0  0  0  0  0  0  0
   -0.8880   24.6330  -27.0380 N   0  0  0  0  0  0  0  0  0  0  0  0
   -0.2230   23.4990  -28.1700 S   0  0  0  0  0  0  0  0  0  0  0  0
    0.2430   22.2960  -27.4610 O   0  0  0  0  0  0  0  0  0  0  0  0
    0.8860   24.1610  -28.9370 O   0  0  0  0  0  0  0  0  0  0  0  0
   -1.5520   23.1690  -29.2970 C   0  0  0  0  0  0  0  0  0  0  0  0
   -2.6990   23.9110  -29.1120 C   0  0  0  0  0  0  0  0  0  0  0  0
   -3.7560   23.7120  -29.9840 C   0  0  0  0  0  0  0  0  0  0  0  0
   -3.6310   22.7740  -31.0190 C   0  0  0  0  0  0  0  0  0  0  0  0
   -4.7420   22.7200  -31.9200 N   0  0  0  0  0  0  0  0  0  0  0  0
   -5.4460   21.4440  -31.8960 C   0  0  0  0  0  0  0  0  0  0  0  0
   -4.9770   20.6220  -31.0650 O   0  0  0  0  0  0  0  0  0  0  0  0
   -6.5790   21.1160  -32.7330 C   0  0  0  0  0  0  0  0  0  0  0  0
   -6.6370   19.7100  -33.1520 C   0  0  0  0  0  0  0  0  0  0  0  0
   -7.4290   18.8650  -32.3770 C   0  0  0  0  0  0  0  0  0  0  0  0
   -7.5590   17.5150  -32.6130 C   0  0  0  0  0  0  0  0  0  0  0  0
   -6.8550   16.9780  -33.6910 C   0  0  0  0  0  0  0  0  0  0  0  0
   -6.9900   15.6560  -33.9200 F   0  0  0  0  0  0  0  0  0  0  0  0
   -6.0730   17.8110  -34.4610 C   0  0  0  0  0  0  0  0  0  0  0  0
   -5.9460   19.1720  -34.2180 C   0  0  0  0  0  0  0  0  0  0  0  0
   -2.4780   22.0340  -31.1920 C   0  0  0  0  0  0  0  0  0  0  0  0
   -1.4040   22.2350  -30.3090 C   0  0  0  0  0  0  0  0  0  0  0  0
   -0.9490   25.9110  -25.1640 C   0  0  0  0  0  0  0  0  0  0  0  0
   -0.3320   26.3410  -23.9950 C   0  0  0  0  0  0  0  0  0  0  0  0
   -1.0250   27.2490  -23.1440 N   0  0  0  0  0  0  0  0  0  0  0  0
    0.8920   25.8700  -23.7300 N   0  0  0  0  0  0  0  0  0  0  0  0
    2.9579   24.5655  -22.9968 H   0  0  0  0  0  0  0  0  0  0  0  0
    3.1310   23.5703  -24.4821 H   0  0  0  0  0  0  0  0  0  0  0  0
    3.6674   25.2846  -24.4821 H   0  0  0  0  0  0  0  0  0  0  0  0
   -2.7726   24.6419  -28.2932 H   0  0  0  0  0  0  0  0  0  0  0  0
   -4.6871   24.2856  -29.8658 H   0  0  0  0  0  0  0  0  0  0  0  0
   -5.0320   23.4910  -32.5440 H   0  0  0  0  0  0  0  0  0  0  0  0
   -7.4979   21.3465  -32.1739 H   0  0  0  0  0  0  0  0  0  0  0  0
   -6.4743   21.7129  -33.6510 H   0  0  0  0  0  0  0  0  0  0  0  0
   -7.9803   19.3004  -31.5306 H   0  0  0  0  0  0  0  0  0  0  0  0
   -8.1945   16.8831  -31.9751 H   0  0  0  0  0  0  0  0  0  0  0  0
   -5.5229   17.3769  -35.3089 H   0  0  0  0  0  0  0  0  0  0  0  0
   -5.3121   19.8037  -34.8576 H   0  0  0  0  0  0  0  0  0  0  0  0
   -2.4018   21.2996  -32.0074 H   0  0  0  0  0  0  0  0  0  0  0  0
   -0.4695   21.6652  -30.4185 H   0  0  0  0  0  0  0  0  0  0  0  0
   -1.9553   26.2654  -25.4318 H   0  0  0  0  0  0  0  0  0  0  0  0
   -2.0550   27.1900  -23.1440 H   0  0  0  0  0  0  0  0  0  0  0  0
   -0.4670   27.9370  -22.5480 H   0  0  0  0  0  0  0  0  0  0  0  0
    1.3660   26.1880  -22.8490 H   0  0  0  0  0  0  0  0  0  0  0  0
  1  2  1  0
  2  3  2  0
  3  4  1  0
  4  5  2  0
  5  6  1  0
  6  7  2  0
  6  8  2  0
  6  9  1  0
  9 10  2  0
 10 11  1  0
 11 12  2  0
 12 13  1  0
 13 14  1  0
 14 15  2  0
 14 16  1  0
 16 17  1  0
 17 18  2  0
 18 19  1  0
 19 20  2  0
 20 21  1  0
 20 22  1  0
 22 23  2  0
 12 24  1  0
 24 25  2  0
  4 26  1  0
 26 27  2  0
 27 28  1  0
 27 29  1  0
 29  2  1  0
 25  9  1  0
 23 17  1  0
  1 30  1  0
  1 31  1  0
  1 32  1  0
 10 33  1  0
 11 34  1  0
 13 35  1  0
 16 36  1  0
 16 37  1  0
 18 38  1  0
 19 39  1  0
 22 40  1  0
 23 41  1  0
 24 42  1  0
 25 43  1  0
 26 44  1  0
 28 45  1  0
 28 46  1  0
 29 47  1  0
M  END
>  <smiles>  (31) 
Cc1nc(=NS(=O)(=O)c2ccc(NC(=O)Cc3ccc(F)cc3)cc2)cc(N)[nH]1

>  <score_type>  (31) 
oracle

>  <origin>  (31) 
adgpu

>  <m_score__min__energy>  (31) 
-9.6799999999999997

>  <m_primary>  (31) 
energy

$$$$
31:0
     RDKit          3D

 47 49  0  0  0  0  0  0  0  0999 V2000
   -1.4510   26.6420  -24.6420 C   0  0  0  0  0  0  0  0  0  0  0  0
   -1.1800   25.5980  -25.6690 C   0  0  0  0  0  0  0  0  0  0  0  0
   -0.3210   24.5320  -25.4240 C   0  0  0  0  0  0  0  0  0  0  0  0
   -0.0830   23.5700  -26.4010 C   0  0  0  0  0  0  0  0  0  0  0  0
   -0.6910   23.6440  -27.6370 C   0  0  0  0  0  0  0  0  0  0  0  0
   -1.5460   24.7110  -27.8720 C   0  0  0  0  0  0  0  0  0  0  0  0
   -2.2120   24.8600  -29.1180 N   0  0  0  0  0  0  0  0  0  0  0  0
   -3.1600   23.8770  -29.5810 C   0  0  0  0  0  0  0  0  0  0  0  0
   -3.3460   22.9050  -28.8180 O   0  0  0  0  0  0  0  0  0  0  0  0
   -3.8040   24.0560  -30.8260 N   0  0  0  0  0  0  0  0  0  0  0  0
   -4.7500   23.1770  -31.3990 C   0  0  0  0  0  0  0  0  0  0  0  0
   -6.1110   23.3150  -31.3240 C   0  0  0  0  0  0  0  0  0  0  0  0
   -6.9960   22.4070  -31.9160 C   0  0  0  0  0  0  0  0  0  0  0  0
   -8.4810   22.6210  -31.7930 C   0  0  0  0  0  0  0  0  0  0  0  0
   -6.5030   21.3150  -32.6100 C   0  0  0  0  0  0  0  0  0  0  0  0
   -7.4100   20.4480  -33.1750 O   0  0  0  0  0  0  0  0  0  0  0  0
   -7.0750   19.1410  -33.4190 C   0  0  0  0  0  0  0  0  0  0  0  0
   -6.1410   18.8570  -34.4030 C   0  0  0  0  0  0  0  0  0  0  0  0
   -5.7640   17.5950  -34.6940 N   0  0  0  0  0  0  0  0  0  0  0  0
   -6.3080   16.5790  -34.0110 C   0  0  0  0  0  0  0  0  0  0  0  0
   -5.9190   15.3790  -34.3220 N   0  0  0  0  0  0  0  0  0  0  0  0
   -7.2140   16.8260  -33.0520 N   0  0  0  0  0  0  0  0  0  0  0  0
   -7.6180   18.0810  -32.7310 C   0  0  0  0  0  0  0  0  0  0  0  0
   -8.4600   18.1830  -31.7750 N   0  0  0  0  0  0  0  0  0  0  0  0
   -5.1360   21.1940  -32.6730 C   0  0  0  0  0  0  0  0  0  0  0  0
   -4.2700   22.0880  -32.0920 C   0  0  0  0  0  0  0  0  0  0  0  0
   -2.5300   21.8050  -32.2550 Cl  0  0  0  0  0  0  0  0  0  0  0  0
   -1.7950   25.6780  -26.9110 C   0  0  0  0  0  0  0  0  0  0  0  0
   -1.3380   26.2068  -23.6381 H   0  0  0  0  0  0  0  0  0  0  0  0
   -0.7382   27.4708  -24.7647 H   0  0  0  0  0  0  0  0  0  0  0  0
   -2.4769   27.0195  -24.7647 H   0  0  0  0  0  0  0  0  0  0  0  0
    0.1762   24.4483  -24.4463 H   0  0  0  0  0  0  0  0  0  0  0  0
    0.6014   22.7366  -26.1840 H   0  0  0  0  0  0  0  0  0  0  0  0
   -0.5044   22.8834  -28.4095 H   0  0  0  0  0  0  0  0  0  0  0  0
   -1.9990   25.7130  -29.7090 H   0  0  0  0  0  0  0  0  0  0  0  0
   -3.5430   24.9240  -31.3540 H   0  0  0  0  0  0  0  0  0  0  0  0
   -6.5249   24.1744  -30.7762 H   0  0  0  0  0  0  0  0  0  0  0  0
   -8.7588   22.6610  -30.7294 H   0  0  0  0  0  0  0  0  0  0  0  0
   -8.7565   23.5681  -32.2799 H   0  0  0  0  0  0  0  0  0  0  0  0
   -9.0127   21.7902  -32.2799 H   0  0  0  0  0  0  0  0  0  0  0  0
   -5.6921   19.6889  -34.9656 H   0  0  0  0  0  0  0  0  0  0  0  0
   -5.0580   17.4090  -35.4400 H   0  0  0  0  0  0  0  0  0  0  0  0
   -6.3550   14.5950  -33.7770 H   0  0  0  0  0  0  0  0  0  0  0  0
   -7.6060   15.9850  -32.5500 H   0  0  0  0  0  0  0  0  0  0  0  0
   -8.7850   19.1090  -31.4590 H   0  0  0  0  0  0  0  0  0  0  0  0
   -4.7130   20.3366  -33.2170 H   0  0  0  0  0  0  0  0  0  0  0  0
   -2.4803   26.5094  -27.1325 H   0  0  0  0  0  0  0  0  0  0  0  0
  1  2  1  0
  2  3  2  0
  3  4  1  0
  4  5  2  0
  5  6  1  0
  6  7  1  0
  7  8  1  0
  8  9  2  0
  8 10  1  0
 10 11  1  0
 11 12  2  0
 12 13  1  0
 13 14  1  0
 13 15  2  0
 15 16  1  0
 16 17  1  0
 17 18  2  0
 18 19  1  0
 19 20  1  0
 20 21  2  3
 20 22  1  0
 22 23  1  0
 23 24  2  3
 15 25  1  0
 25 26  2  0
 26 27  1  0
  6 28  2  0
 28  2  1  0
 26 11  1  0
 23 17  1  0
  1 29  1  0
  1 30  1  0
  1 31  1  0
  3 32  1  0
  4 33  1  0
  5 34  1  0
  7 35  1  0
 10 36  1  0
 12 37  1  0
 14 38  1  0
 14 39  1  0
 14 40  1  0
 18 41  1  0
 19 42  1  0
 21 43  1  0
 22 44  1  0
 24 45  1  0
 25 46  1  0
 28 47  1  0
M  END
>  <smiles>  (32) 
Cc1cccc(NC(=O)Nc2cc(C)c(Oc3c[nH]c(=N)[nH]c3=N)cc2Cl)c1

>  <score_type>  (32) 
oracle

>  <origin>  (32) 
adgpu

>  <m_score__min__energy>  (32) 
-8.7799999999999994

>  <m_primary>  (32) 
energy

$$$$
32:0
     RDKit          3D

 69 73  0  0  0  0  0  0  0  0999 V2000
   -4.1420   21.9350  -33.0340 C   0  0  0  0  0  0  0  0  0  0  0  0
   -4.8660   20.6480  -32.7310 C   0  0  0  0  0  0  0  0  0  0  0  0
   -6.2650   20.6690  -32.6110 C   0  0  0  0  0  0  0  0  0  0  0  0
   -6.9760   19.5030  -32.3090 C   0  0  0  0  0  0  0  0  0  0  0  0
   -8.7270   19.5770  -32.1260 S   0  0  0  0  0  0  0  0  0  0  0  0
   -9.1260   19.2010  -30.7250 O   0  0  0  0  0  0  0  0  0  0  0  0
   -9.3600   18.6070  -33.0820 O   0  0  0  0  0  0  0  0  0  0  0  0
   -9.2900   21.1810  -32.4830 N   0  0  0  0  0  0  0  0  0  0  0  0
   -9.3310   21.9760  -31.2580 C   0  0  0  0  0  0  0  0  0  0  0  0
   -8.0230   22.6920  -31.0910 C   0  0  0  0  0  0  0  0  0  0  0  0
   -7.5210   23.4990  -32.1260 C   0  0  0  0  0  0  0  0  0  0  0  0
   -6.3170   24.1910  -31.9580 C   0  0  0  0  0  0  0  0  0  0  0  0
   -5.6160   24.0940  -30.7530 C   0  0  0  0  0  0  0  0  0  0  0  0
   -6.1190   23.3070  -29.7130 C   0  0  0  0  0  0  0  0  0  0  0  0
   -7.3210   22.6120  -29.8780 C   0  0  0  0  0  0  0  0  0  0  0  0
   -6.2880   18.3000  -32.1250 C   0  0  0  0  0  0  0  0  0  0  0  0
   -4.8990   18.2570  -32.2600 C   0  0  0  0  0  0  0  0  0  0  0  0
   -4.1750   19.4190  -32.5780 C   0  0  0  0  0  0  0  0  0  0  0  0
   -2.7060   19.3200  -32.7310 C   0  0  0  0  0  0  0  0  0  0  0  0
   -1.8750   20.3200  -32.2040 C   0  0  0  0  0  0  0  0  0  0  0  0
   -0.4890   20.2420  -32.3620 C   0  0  0  0  0  0  0  0  0  0  0  0
    0.0880   19.1600  -33.0480 C   0  0  0  0  0  0  0  0  0  0  0  0
    1.5120   19.0900  -33.2540 N   0  0  0  0  0  0  0  0  0  0  0  0
    2.4110   18.7710  -32.1320 C   0  0  0  0  0  0  0  0  0  0  0  0
    1.6300   18.3700  -30.9070 C   0  0  0  0  0  0  0  0  0  0  0  0
    1.3230   19.3220  -29.9200 C   0  0  0  0  0  0  0  0  0  0  0  0
    0.6170   18.9440  -28.7740 C   0  0  0  0  0  0  0  0  0  0  0  0
    0.2020   17.6200  -28.6100 C   0  0  0  0  0  0  0  0  0  0  0  0
    0.4880   16.6710  -29.5950 C   0  0  0  0  0  0  0  0  0  0  0  0
    1.1930   17.0440  -30.7430 C   0  0  0  0  0  0  0  0  0  0  0  0
    2.0450   19.3340  -34.5700 C   0  0  0  0  0  0  0  0  0  0  0  0
    2.6450   18.4100  -35.1830 O   0  0  0  0  0  0  0  0  0  0  0  0
    1.9130   20.6490  -35.2200 C   0  0  0  0  0  0  0  0  0  0  0  0
    0.6370   21.1830  -35.4540 C   0  0  0  0  0  0  0  0  0  0  0  0
    0.4990   22.4230  -36.0840 C   0  0  0  0  0  0  0  0  0  0  0  0
    1.6350   23.1410  -36.4720 C   0  0  0  0  0  0  0  0  0  0  0  0
    1.4960   24.3710  -37.1040 O   0  0  0  0  0  0  0  0  0  0  0  0
    2.9090   22.6240  -36.2220 C   0  0  0  0  0  0  0  0  0  0  0  0
    3.0520   21.3840  -35.5920 C   0  0  0  0  0  0  0  0  0  0  0  0
    4.3280   20.8920  -35.3380 O   0  0  0  0  0  0  0  0  0  0  0  0
   -0.7430   18.1430  -33.5440 C   0  0  0  0  0  0  0  0  0  0  0  0
   -2.1300   18.2220  -33.3870 C   0  0  0  0  0  0  0  0  0  0  0  0
   -3.8637   22.4297  -32.0918 H   0  0  0  0  0  0  0  0  0  0  0  0
   -3.2342   21.7169  -33.6157 H   0  0  0  0  0  0  0  0  0  0  0  0
   -4.7998   22.5976  -33.6157 H   0  0  0  0  0  0  0  0  0  0  0  0
   -6.8085   21.6143  -32.7563 H   0  0  0  0  0  0  0  0  0  0  0  0
  -10.1470   22.7108  -31.3233 H   0  0  0  0  0  0  0  0  0  0  0  0
   -9.5043   21.3165  -30.3949 H   0  0  0  0  0  0  0  0  0  0  0  0
   -8.0766   23.5868  -33.0713 H   0  0  0  0  0  0  0  0  0  0  0  0
   -5.9216   24.8121  -32.7752 H   0  0  0  0  0  0  0  0  0  0  0  0
   -4.6683   24.6370  -30.6229 H   0  0  0  0  0  0  0  0  0  0  0  0
   -5.5684   23.2344  -28.7635 H   0  0  0  0  0  0  0  0  0  0  0  0
   -7.7179   22.0004  -29.0544 H   0  0  0  0  0  0  0  0  0  0  0  0
   -6.8428   17.3842  -31.8730 H   0  0  0  0  0  0  0  0  0  0  0  0
   -4.3666   17.3053  -32.1162 H   0  0  0  0  0  0  0  0  0  0  0  0
   -2.3170   21.1700  -31.6635 H   0  0  0  0  0  0  0  0  0  0  0  0
    0.1541   21.0321  -31.9470 H   0  0  0  0  0  0  0  0  0  0  0  0
    3.0705   17.9408  -32.4251 H   0  0  0  0  0  0  0  0  0  0  0  0
    3.0010   19.6677  -31.8917 H   0  0  0  0  0  0  0  0  0  0  0  0
    1.6391   20.3676  -30.0494 H   0  0  0  0  0  0  0  0  0  0  0  0
    0.3877   19.6908  -27.9996 H   0  0  0  0  0  0  0  0  0  0  0  0
   -0.3499   17.3247  -27.7055 H   0  0  0  0  0  0  0  0  0  0  0  0
    0.1581   15.6295  -29.4669 H   0  0  0  0  0  0  0  0  0  0  0  0
    1.4067   16.2967  -31.5214 H   0  0  0  0  0  0  0  0  0  0  0  0
   -0.2573   20.6243  -35.1408 H   0  0  0  0  0  0  0  0  0  0  0  0
   -0.5032   22.8344  -36.2747 H   0  0  0  0  0  0  0  0  0  0  0  0
    3.8011   23.1937  -36.5214 H   0  0  0  0  0  0  0  0  0  0  0  0
   -0.2999   17.2782  -34.0596 H   0  0  0  0  0  0  0  0  0  0  0  0
   -2.7722   17.4198  -33.7795 H   0  0  0  0  0  0  0  0  0  0  0  0
  1  2  1  0
  2  3  2  0
  3  4  1  0
  4  5  1  0
  5  6  2  0
  5  7  2  0
  5  8  1  0
  8  9  1  0
  9 10  1  0
 10 11  2  0
 11 12  1  0
 12 13  2  0
 13 14  1  0
 14 15  2  0
  4 16  2  0
 16 17  1  0
 17 18  2  0
 18 19  1  0
 19 20  2  0
 20 21  1  0
 21 22  2  0
 22 23  1  0
 23 24  1  0
 24 25  1  0
 25 26  2  0
 26 27  1  0
 27 28  2  0
 28 29  1  0
 29 30  2  0
 23 31  1  0
 31 32  2  0
 31 33  1  0
 33 34  2  0
 34 35  1  0
 35 36  2  0
 36 37  1  0
 36 38  1  0
 38 39  2  0
 39 40  1  0
 22 41  1  0
 41 42  2  0
 18  2  1  0
 42 19  1  0
 15 10  1  0
 30 25  1  0
 39 33  1  0
  1 43  1  0
  1 44  1  0
  1 45  1  0
  3 46  1  0
  9 47  1  0
  9 48  1  0
 11 49  1  0
 12 50  1  0
 13 51  1  0
 14 52  1  0
 15 53  1  0
 16 54  1  0
 17 55  1  0
 20 56  1  0
 21 57  1  0
 24 58  1  0
 24 59  1  0
 26 60  1  0
 27 61  1  0
 28 62  1  0
 29 63  1  0
 30 64  1  0
 34 65  1  0
 35 66  1  0
 38 67  1  0
 41 68  1  0
 42 69  1  0
M  CHG  3   8  -1  37  -1  40  -1
M  END
>  <UniqueID>  (33) 
30

>  <SMILES>  (33) 
Cc1cc(S(=O)(=O)[N-]Cc2ccccc2)ccc1-c1ccc(N(Cc2ccccc2)C(=O)c2ccc([O-])cc2[O-])cc1

>  <Energy>  (33) 
91.5506882107517

>  <Genealogy>  (33) 
Cc1cc(S(=O)(=O)[N-]Cc2ccccc2)ccc1-c1ccc(N(Cc2ccccc2)C(=O)c2ccc([O-])cc2[O-])cc1 (protonated)
Cc1cc(S(=O)(=O)[N-]Cc2ccccc2)ccc1-c1ccc(N(Cc2ccccc2)C(=O)c2ccc([O-])cc2[O-])cc1 (3D coordinates assigned)
Cc1cc(S(=O)(=O)[N-]Cc2ccccc2)ccc1-c1ccc(N(Cc2ccccc2)C(=O)c2ccc([O-])cc2[O-])cc1 (optimized conformer: 91.5506882107517 kcal/mol)

>  <smiles>  (33) 
Cc1cc(S(=O)(=O)NCc2ccccc2)ccc1-c1ccc(N(Cc2ccccc2)C(=O)c2ccc(O)cc2O)cc1

>  <score_type>  (33) 
oracle

>  <origin>  (33) 
adgpu

>  <m_score__min__energy>  (33) 
-13.18

>  <m_primary>  (33) 
energy

$$$$
33:0
     RDKit          3D

 39 41  0  0  0  0  0  0  0  0999 V2000
   -9.8130   21.5110  -32.0210 C   0  0  0  0  0  0  0  0  0  0  0  0
   -8.4990   20.8550  -32.0500 N   0  0  0  0  0  0  0  0  0  0  0  0
   -8.3740   19.5500  -32.7110 C   0  0  0  0  0  0  0  0  0  0  0  0
   -7.3440   21.4870  -31.4380 C   0  0  0  0  0  0  0  0  0  0  0  0
   -6.0360   21.0740  -31.7620 C   0  0  0  0  0  0  0  0  0  0  0  0
   -4.9250   21.6840  -31.1720 C   0  0  0  0  0  0  0  0  0  0  0  0
   -5.0910   22.7260  -30.2470 C   0  0  0  0  0  0  0  0  0  0  0  0
   -3.9070   23.3630  -29.6180 C   0  0  0  0  0  0  0  0  0  0  0  0
   -3.1680   22.6650  -28.6510 C   0  0  0  0  0  0  0  0  0  0  0  0
   -2.0610   23.2560  -28.0430 C   0  0  0  0  0  0  0  0  0  0  0  0
   -1.6780   24.5570  -28.4110 C   0  0  0  0  0  0  0  0  0  0  0  0
   -0.5110   25.2330  -27.7900 C   0  0  0  0  0  0  0  0  0  0  0  0
    0.6740   24.5100  -27.5560 C   0  0  0  0  0  0  0  0  0  0  0  0
    1.7810   25.1290  -26.9680 C   0  0  0  0  0  0  0  0  0  0  0  0
    1.7170   26.4750  -26.5960 C   0  0  0  0  0  0  0  0  0  0  0  0
    3.1050   27.2480  -25.8540 Cl  0  0  0  0  0  0  0  0  0  0  0  0
    0.5430   27.2010  -26.8110 C   0  0  0  0  0  0  0  0  0  0  0  0
   -0.5660   26.5870  -27.4000 C   0  0  0  0  0  0  0  0  0  0  0  0
   -2.4090   25.2170  -29.3520 N   0  0  0  0  0  0  0  0  0  0  0  0
   -3.4930   24.6660  -29.9600 C   0  0  0  0  0  0  0  0  0  0  0  0
   -4.1040   25.3280  -30.8420 O   0  0  0  0  0  0  0  0  0  0  0  0
   -6.3890   23.1390  -29.9140 C   0  0  0  0  0  0  0  0  0  0  0  0
   -7.5010   22.5300  -30.5020 C   0  0  0  0  0  0  0  0  0  0  0  0
  -10.1227   21.6656  -30.9769 H   0  0  0  0  0  0  0  0  0  0  0  0
   -9.7490   22.4829  -32.5322 H   0  0  0  0  0  0  0  0  0  0  0  0
  -10.5513   20.8757  -32.5322 H   0  0  0  0  0  0  0  0  0  0  0  0
   -8.2983   18.7593  -31.9500 H   0  0  0  0  0  0  0  0  0  0  0  0
   -9.2591   19.3708  -33.3391 H   0  0  0  0  0  0  0  0  0  0  0  0
   -7.4710   19.5421  -33.3391 H   0  0  0  0  0  0  0  0  0  0  0  0
   -5.8874   20.2614  -32.4883 H   0  0  0  0  0  0  0  0  0  0  0  0
   -3.9124   21.3443  -31.4351 H   0  0  0  0  0  0  0  0  0  0  0  0
   -3.4642   21.6435  -28.3703 H   0  0  0  0  0  0  0  0  0  0  0  0
   -1.4906   22.7068  -27.2794 H   0  0  0  0  0  0  0  0  0  0  0  0
    0.7294   23.4483  -27.8384 H   0  0  0  0  0  0  0  0  0  0  0  0
    2.7043   24.5558  -26.7977 H   0  0  0  0  0  0  0  0  0  0  0  0
    0.4911   28.2594  -26.5158 H   0  0  0  0  0  0  0  0  0  0  0  0
   -1.4885   27.1643  -27.5605 H   0  0  0  0  0  0  0  0  0  0  0  0
   -6.5332   23.9490  -29.1839 H   0  0  0  0  0  0  0  0  0  0  0  0
   -8.5119   22.8687  -30.2312 H   0  0  0  0  0  0  0  0  0  0  0  0
  1  2  1  0
  2  3  1  0
  2  4  1  0
  4  5  2  0
  5  6  1  0
  6  7  2  0
  7  8  1  0
  8  9  2  0
  9 10  1  0
 10 11  2  0
 11 12  1  0
 12 13  2  0
 13 14  1  0
 14 15  2  0
 15 16  1  0
 15 17  1  0
 17 18  2  0
 11 19  1  0
 19 20  1  0
 20 21  2  0
  7 22  1  0
 22 23  2  0
 23  4  1  0
 20  8  1  0
 18 12  1  0
  1 24  1  0
  1 25  1  0
  1 26  1  0
  3 27  1  0
  3 28  1  0
  3 29  1  0
  5 30  1  0
  6 31  1  0
  9 32  1  0
 10 33  1  0
 13 34  1  0
 14 35  1  0
 17 36  1  0
 18 37  1  0
 22 38  1  0
 23 39  1  0
M  CHG  1  19  -1
M  END
>  <UniqueID>  (34) 
31

>  <SMILES>  (34) 
CN(C)c1ccc(-c2ccc(-c3ccc(Cl)cc3)[n-]c2=O)cc1

>  <Energy>  (34) 
54.59246513576355

>  <Genealogy>  (34) 
CN(C)c1ccc(-c2ccc(-c3ccc(Cl)cc3)[n-]c2=O)cc1 (protonated)
CN(C)c1ccc(-c2ccc(-c3ccc(Cl)cc3)[n-]c2=O)cc1 (3D coordinates assigned)
CN(C)c1ccc(-c2ccc(-c3ccc(Cl)cc3)[n-]c2=O)cc1 (optimized conformer: 54.59246513576355 kcal/mol)

>  <smiles>  (34) 
CN(C)c1ccc(-c2ccc(-c3ccc(Cl)cc3)[nH]c2=O)cc1

>  <score_type>  (34) 
oracle

>  <origin>  (34) 
adgpu

>  <m_score__min__energy>  (34) 
-9.6300000000000008

>  <m_primary>  (34) 
energy

$$$$
34:0
     RDKit          3D

 35 37  0  0  0  0  0  0  0  0999 V2000
   -7.2360   25.7020  -29.6060 N   0  0  0  0  0  0  0  0  0  0  0  0
   -6.7320   24.8450  -30.1970 C   0  0  0  0  0  0  0  0  0  0  0  0
   -6.1060   23.7760  -30.9360 C   0  0  0  0  0  0  0  0  0  0  0  0
   -4.7330   23.7060  -31.1790 C   0  0  0  0  0  0  0  0  0  0  0  0
   -3.7190   24.5930  -30.6900 N   0  0  0  0  0  0  0  0  0  0  0  0
   -2.8830   24.3600  -29.5480 C   0  0  0  0  0  0  0  0  0  0  0  0
   -2.3090   25.3460  -29.0120 O   0  0  0  0  0  0  0  0  0  0  0  0
   -2.6390   22.9980  -29.0120 C   0  0  0  0  0  0  0  0  0  0  0  0
   -3.5200   22.4300  -28.0790 C   0  0  0  0  0  0  0  0  0  0  0  0
   -3.3120   21.2040  -27.6080 O   0  0  0  0  0  0  0  0  0  0  0  0
   -2.2760   20.4580  -27.9810 C   0  0  0  0  0  0  0  0  0  0  0  0
   -2.1410   19.3010  -27.5010 O   0  0  0  0  0  0  0  0  0  0  0  0
   -1.3420   20.9580  -28.8970 C   0  0  0  0  0  0  0  0  0  0  0  0
    0.0400   20.0000  -29.4080 Cl  0  0  0  0  0  0  0  0  0  0  0  0
   -1.5230   22.2440  -29.4040 C   0  0  0  0  0  0  0  0  0  0  0  0
   -4.4130   22.3970  -32.1750 S   0  0  0  0  0  0  0  0  0  0  0  0
   -6.0040   21.8560  -32.2810 C   0  0  0  0  0  0  0  0  0  0  0  0
   -6.8250   22.7340  -31.5600 C   0  0  0  0  0  0  0  0  0  0  0  0
   -8.3150   22.5490  -31.4540 C   0  0  0  0  0  0  0  0  0  0  0  0
   -8.6840   21.1680  -30.8880 C   0  0  0  0  0  0  0  0  0  0  0  0
   -8.6520   20.0150  -31.9150 C   0  0  0  0  0  0  0  0  0  0  0  0
   -7.2220   19.5700  -32.2930 C   0  0  0  0  0  0  0  0  0  0  0  0
   -6.4130   20.6350  -33.0680 C   0  0  0  0  0  0  0  0  0  0  0  0
   -4.3918   23.0050  -27.7336 H   0  0  0  0  0  0  0  0  0  0  0  0
   -0.7925   22.6663  -30.1097 H   0  0  0  0  0  0  0  0  0  0  0  0
   -8.7232   23.3256  -30.7905 H   0  0  0  0  0  0  0  0  0  0  0  0
   -8.7403   22.6269  -32.4655 H   0  0  0  0  0  0  0  0  0  0  0  0
   -7.9743   20.9280  -30.0825 H   0  0  0  0  0  0  0  0  0  0  0  0
   -9.7254   21.2444  -30.5421 H   0  0  0  0  0  0  0  0  0  0  0  0
   -9.1841   19.1524  -31.4875 H   0  0  0  0  0  0  0  0  0  0  0  0
   -9.1306   20.3850  -32.8337 H   0  0  0  0  0  0  0  0  0  0  0  0
   -6.6789   19.3301  -31.3670 H   0  0  0  0  0  0  0  0  0  0  0  0
   -7.3263   18.7028  -32.9616 H   0  0  0  0  0  0  0  0  0  0  0  0
   -5.4977   20.1547  -33.4442 H   0  0  0  0  0  0  0  0  0  0  0  0
   -7.0852   21.0021  -33.8575 H   0  0  0  0  0  0  0  0  0  0  0  0
  1  2  3  0
  2  3  1  0
  3  4  2  0
  4  5  1  0
  5  6  1  0
  6  7  2  0
  6  8  1  0
  8  9  2  0
  9 10  1  0
 10 11  1  0
 11 12  2  0
 11 13  1  0
 13 14  1  0
 13 15  2  0
  4 16  1  0
 16 17  1  0
 17 18  2  0
 18 19  1  0
 19 20  1  0
 20 21  1  0
 21 22  1  0
 22 23  1  0
 18  3  1  0
 15  8  1  0
 23 17  1  0
  9 24  1  0
 15 25  1  0
 19 26  1  0
 19 27  1  0
 20 28  1  0
 20 29  1  0
 21 30  1  0
 21 31  1  0
 22 32  1  0
 22 33  1  0
 23 34  1  0
 23 35  1  0
M  CHG  1   5  -1
M  END
>  <UniqueID>  (35) 
32

>  <SMILES>  (35) 
N#Cc1c([N-]C(=O)c2coc(=O)c(Cl)c2)sc2c1CCCCC2

>  <Energy>  (35) 
76.8897088971512

>  <Genealogy>  (35) 
N#Cc1c([N-]C(=O)c2coc(=O)c(Cl)c2)sc2c1CCCCC2 (protonated)
N#Cc1c([N-]C(=O)c2coc(=O)c(Cl)c2)sc2c1CCCCC2 (3D coordinates assigned)
N#Cc1c([N-]C(=O)c2coc(=O)c(Cl)c2)sc2c1CCCCC2 (nonaromatic ring conformer: 76.8897088971512 kcal/mol)

>  <smiles>  (35) 
N#Cc1c(NC(=O)c2coc(=O)c(Cl)c2)sc2c1CCCCC2

>  <score_type>  (35) 
oracle

>  <origin>  (35) 
adgpu

>  <m_score__min__energy>  (35) 
-8.6500000000000004

>  <m_primary>  (35) 
energy

$$$$
35:0
     RDKit          3D

 41 43  0  0  0  0  0  0  0  0999 V2000
   -0.3840   24.2160  -26.2700 O   0  0  0  0  0  0  0  0  0  0  0  0
   -0.4080   23.6420  -27.6590 S   0  0  0  0  0  0  0  0  0  0  0  0
    0.3770   24.5410  -28.5710 O   0  0  0  0  0  0  0  0  0  0  0  0
    0.3270   22.0720  -27.6370 N   0  0  0  0  0  0  0  0  0  0  0  0
   -0.3620   20.8410  -27.3740 C   0  0  0  0  0  0  0  0  0  0  0  0
    0.0270   19.6230  -27.9640 C   0  0  0  0  0  0  0  0  0  0  0  0
   -0.6630   18.4430  -27.6640 C   0  0  0  0  0  0  0  0  0  0  0  0
   -1.7500   18.4700  -26.7870 C   0  0  0  0  0  0  0  0  0  0  0  0
   -2.1440   19.6760  -26.2010 C   0  0  0  0  0  0  0  0  0  0  0  0
   -1.4520   20.8560  -26.4910 C   0  0  0  0  0  0  0  0  0  0  0  0
   -2.0590   23.5220  -28.2600 C   0  0  0  0  0  0  0  0  0  0  0  0
   -2.3860   22.6010  -29.2630 C   0  0  0  0  0  0  0  0  0  0  0  0
   -3.6960   22.5200  -29.7460 C   0  0  0  0  0  0  0  0  0  0  0  0
   -4.7010   23.3580  -29.2250 C   0  0  0  0  0  0  0  0  0  0  0  0
   -6.0660   23.2810  -29.6750 N   0  0  0  0  0  0  0  0  0  0  0  0
   -6.5420   23.2670  -31.3450 S   0  0  0  0  0  0  0  0  0  0  0  0
   -5.6090   24.1560  -32.1210 O   0  0  0  0  0  0  0  0  0  0  0  0
   -7.9390   23.8110  -31.4520 O   0  0  0  0  0  0  0  0  0  0  0  0
   -6.5180   21.6220  -32.0010 C   0  0  0  0  0  0  0  0  0  0  0  0
   -5.3370   21.1210  -32.5730 C   0  0  0  0  0  0  0  0  0  0  0  0
   -5.2980   19.8340  -33.1200 C   0  0  0  0  0  0  0  0  0  0  0  0
   -3.7980   19.2620  -33.8410 Cl  0  0  0  0  0  0  0  0  0  0  0  0
   -6.4440   19.0270  -33.0890 C   0  0  0  0  0  0  0  0  0  0  0  0
   -6.4410   17.4050  -33.7730 Cl  0  0  0  0  0  0  0  0  0  0  0  0
   -7.6180   19.5110  -32.5010 C   0  0  0  0  0  0  0  0  0  0  0  0
   -7.6620   20.7990  -31.9540 C   0  0  0  0  0  0  0  0  0  0  0  0
   -9.1640   21.3330  -31.2070 Cl  0  0  0  0  0  0  0  0  0  0  0  0
   -4.3640   24.2740  -28.2160 C   0  0  0  0  0  0  0  0  0  0  0  0
   -3.0520   24.3580  -27.7390 C   0  0  0  0  0  0  0  0  0  0  0  0
    0.8760   19.5990  -28.6630 H   0  0  0  0  0  0  0  0  0  0  0  0
   -0.3488   17.4924  -28.1197 H   0  0  0  0  0  0  0  0  0  0  0  0
   -2.2954   17.5427  -26.5578 H   0  0  0  0  0  0  0  0  0  0  0  0
   -3.0000   19.6970  -25.5104 H   0  0  0  0  0  0  0  0  0  0  0  0
   -1.7642   21.8017  -26.0239 H   0  0  0  0  0  0  0  0  0  0  0  0
   -1.6093   21.9385  -29.6726 H   0  0  0  0  0  0  0  0  0  0  0  0
   -3.9430   21.7973  -30.5377 H   0  0  0  0  0  0  0  0  0  0  0  0
   -6.8350   23.2820  -28.9650 H   0  0  0  0  0  0  0  0  0  0  0  0
   -4.4330   21.7474  -32.5910 H   0  0  0  0  0  0  0  0  0  0  0  0
   -8.5141   18.8739  -32.4683 H   0  0  0  0  0  0  0  0  0  0  0  0
   -5.1393   24.9320  -27.7965 H   0  0  0  0  0  0  0  0  0  0  0  0
   -2.8002   25.0838  -26.9517 H   0  0  0  0  0  0  0  0  0  0  0  0
  1  2  2  0
  2  3  2  0
  2  4  1  0
  4  5  1  0
  5  6  2  0
  6  7  1  0
  7  8  2  0
  8  9  1  0
  9 10  2  0
  2 11  1  0
 11 12  2  0
 12 13  1  0
 13 14  2  0
 14 15  1  0
 15 16  1  0
 16 17  2  0
 16 18  2  0
 16 19  1  0
 19 20  2  0
 20 21  1  0
 21 22  1  0
 21 23  2  0
 23 24  1  0
 23 25  1  0
 25 26  2  0
 26 27  1  0
 14 28  1  0
 28 29  2  0
 10  5  1  0
 29 11  1  0
 26 19  1  0
  6 30  1  0
  7 31  1  0
  8 32  1  0
  9 33  1  0
 10 34  1  0
 12 35  1  0
 13 36  1  0
 15 37  1  0
 20 38  1  0
 25 39  1  0
 28 40  1  0
 29 41  1  0
M  CHG  1   4  -1
M  END
>  <UniqueID>  (36) 
33

>  <SMILES>  (36) 
O=S(=O)([N-]c1ccccc1)c1ccc(NS(=O)(=O)c2cc(Cl)c(Cl)cc2Cl)cc1

>  <Energy>  (36) 
52.24342173089452

>  <Genealogy>  (36) 
O=S(=O)([N-]c1ccccc1)c1ccc(NS(=O)(=O)c2cc(Cl)c(Cl)cc2Cl)cc1 (protonated)
O=S(=O)([N-]c1ccccc1)c1ccc(NS(=O)(=O)c2cc(Cl)c(Cl)cc2Cl)cc1 (3D coordinates assigned)
O=S(=O)([N-]c1ccccc1)c1ccc(NS(=O)(=O)c2cc(Cl)c(Cl)cc2Cl)cc1 (optimized conformer: 52.24342173089452 kcal/mol)

>  <smiles>  (36) 
O=S(=O)(Nc1ccccc1)c1ccc(NS(=O)(=O)c2cc(Cl)c(Cl)cc2Cl)cc1

>  <score_type>  (36) 
oracle

>  <origin>  (36) 
adgpu

>  <m_score__min__energy>  (36) 
-11.34

>  <m_primary>  (36) 
energy

$$$$
36:0
     RDKit          3D

 54 57  0  0  0  0  0  0  0  0999 V2000
    0.7020   19.4840  -28.1940 C   0  0  0  0  0  0  0  0  0  0  0  0
   -0.7370   19.5790  -27.7550 C   0  0  0  0  0  0  0  0  0  0  0  0
   -1.3250   18.4860  -27.0940 C   0  0  0  0  0  0  0  0  0  0  0  0
   -2.6540   18.5440  -26.6690 C   0  0  0  0  0  0  0  0  0  0  0  0
   -3.4130   19.6900  -26.9010 C   0  0  0  0  0  0  0  0  0  0  0  0
   -2.8510   20.7780  -27.5690 C   0  0  0  0  0  0  0  0  0  0  0  0
   -1.5160   20.7340  -28.0140 C   0  0  0  0  0  0  0  0  0  0  0  0
   -0.9410   21.9450  -28.7160 C   0  0  0  0  0  0  0  0  0  0  0  0
   -1.8930   22.5300  -29.6800 N   0  0  0  0  0  0  0  0  0  0  0  0
   -2.2560   23.9250  -29.5440 C   0  0  0  0  0  0  0  0  0  0  0  0
   -1.3580   24.7850  -29.3340 O   0  0  0  0  0  0  0  0  0  0  0  0
   -3.6410   24.4080  -29.6970 C   0  0  0  0  0  0  0  0  0  0  0  0
   -4.6730   24.3120  -28.7810 C   0  0  0  0  0  0  0  0  0  0  0  0
   -5.7580   24.9190  -29.3740 C   0  0  0  0  0  0  0  0  0  0  0  0
   -5.3250   25.3560  -30.6070 C   0  0  0  0  0  0  0  0  0  0  0  0
   -4.0610   25.0430  -30.7680 O   0  0  0  0  0  0  0  0  0  0  0  0
   -2.0560   21.8770  -30.9580 C   0  0  0  0  0  0  0  0  0  0  0  0
   -3.3330   21.6810  -31.5260 C   0  0  0  0  0  0  0  0  0  0  0  0
   -4.4990   22.1260  -30.8050 N   0  0  0  0  0  0  0  0  0  0  0  0
   -3.4480   21.0920  -32.7700 N   0  0  0  0  0  0  0  0  0  0  0  0
   -4.7700   20.9390  -33.4190 C   0  0  0  0  0  0  0  0  0  0  0  0
   -5.4990   19.7270  -32.8890 C   0  0  0  0  0  0  0  0  0  0  0  0
   -6.8140   19.8400  -32.4110 C   0  0  0  0  0  0  0  0  0  0  0  0
   -7.4850   18.7170  -31.9180 C   0  0  0  0  0  0  0  0  0  0  0  0
   -6.8460   17.4750  -31.8880 C   0  0  0  0  0  0  0  0  0  0  0  0
   -5.5290   17.3560  -32.3410 C   0  0  0  0  0  0  0  0  0  0  0  0
   -4.8540   18.4790  -32.8310 C   0  0  0  0  0  0  0  0  0  0  0  0
   -2.3140   20.6900  -33.4390 C   0  0  0  0  0  0  0  0  0  0  0  0
   -2.3930   20.1530  -34.5780 O   0  0  0  0  0  0  0  0  0  0  0  0
   -1.0870   20.8720  -32.8880 N   0  0  0  0  0  0  0  0  0  0  0  0
   -0.9340   21.4560  -31.6770 C   0  0  0  0  0  0  0  0  0  0  0  0
    0.2230   21.6060  -31.1990 O   0  0  0  0  0  0  0  0  0  0  0  0
    1.3534   19.4410  -27.3086 H   0  0  0  0  0  0  0  0  0  0  0  0
    0.8422   18.5746  -28.7969 H   0  0  0  0  0  0  0  0  0  0  0  0
    0.9605   20.3670  -28.7969 H   0  0  0  0  0  0  0  0  0  0  0  0
   -0.7330   17.5773  -26.9101 H   0  0  0  0  0  0  0  0  0  0  0  0
   -3.1026   17.6840  -26.1503 H   0  0  0  0  0  0  0  0  0  0  0  0
   -4.4567   19.7364  -26.5568 H   0  0  0  0  0  0  0  0  0  0  0  0
   -3.4563   21.6785  -27.7497 H   0  0  0  0  0  0  0  0  0  0  0  0
   -0.6870   22.7049  -27.9623 H   0  0  0  0  0  0  0  0  0  0  0  0
   -0.0489   21.6227  -29.2730 H   0  0  0  0  0  0  0  0  0  0  0  0
   -4.6351   23.8470  -27.7848 H   0  0  0  0  0  0  0  0  0  0  0  0
   -6.7663   25.0320  -28.9491 H   0  0  0  0  0  0  0  0  0  0  0  0
   -5.9450   25.8868  -31.3445 H   0  0  0  0  0  0  0  0  0  0  0  0
   -4.9370   23.0550  -30.9900 H   0  0  0  0  0  0  0  0  0  0  0  0
   -4.9430   21.5700  -30.0440 H   0  0  0  0  0  0  0  0  0  0  0  0
   -5.3738   21.8367  -33.2203 H   0  0  0  0  0  0  0  0  0  0  0  0
   -4.6154   20.8085  -34.5002 H   0  0  0  0  0  0  0  0  0  0  0  0
   -7.3191   20.8171  -32.4244 H   0  0  0  0  0  0  0  0  0  0  0  0
   -8.5183   18.8115  -31.5529 H   0  0  0  0  0  0  0  0  0  0  0  0
   -7.3791   16.5910  -31.5080 H   0  0  0  0  0  0  0  0  0  0  0  0
   -5.0235   16.3795  -32.3122 H   0  0  0  0  0  0  0  0  0  0  0  0
   -3.8127   18.3852  -33.1729 H   0  0  0  0  0  0  0  0  0  0  0  0
   -0.2380   20.5590  -33.4140 H   0  0  0  0  0  0  0  0  0  0  0  0
  1  2  1  0
  2  3  2  0
  3  4  1  0
  4  5  2  0
  5  6  1  0
  6  7  2  0
  7  8  1  0
  8  9  1  0
  9 10  1  0
 10 11  2  0
 10 12  1  0
 12 13  2  0
 13 14  1  0
 14 15  2  0
 15 16  1  0
  9 17  1  0
 17 18  2  0
 18 19  1  0
 18 20  1  0
 20 21  1  0
 21 22  1  0
 22 23  2  0
 23 24  1  0
 24 25  2  0
 25 26  1  0
 26 27  2  0
 20 28  1  0
 28 29  2  0
 28 30  1  0
 30 31  1  0
 31 32  2  0
  7  2  1  0
 16 12  1  0
 31 17  1  0
 27 22  1  0
  1 33  1  0
  1 34  1  0
  1 35  1  0
  3 36  1  0
  4 37  1  0
  5 38  1  0
  6 39  1  0
  8 40  1  0
  8 41  1  0
 13 42  1  0
 14 43  1  0
 15 44  1  0
 19 45  1  0
 19 46  1  0
 21 47  1  0
 21 48  1  0
 23 49  1  0
 24 50  1  0
 25 51  1  0
 26 52  1  0
 27 53  1  0
 30 54  1  0
M  END
>  <UniqueID>  (37) 
34

>  <SMILES>  (37) 
Cc1ccccc1CN(C(=O)c1ccco1)c1c(N)n(Cc2ccccc2)c(=O)[nH]c1=O

>  <Energy>  (37) 
100.53768416181087

>  <Genealogy>  (37) 
Cc1ccccc1CN(C(=O)c1ccco1)c1c(N)n(Cc2ccccc2)c(=O)[nH]c1=O (3D coordinates assigned)
Cc1ccccc1CN(C(=O)c1ccco1)c1c(N)n(Cc2ccccc2)c(=O)[nH]c1=O (optimized conformer: 100.53768416181087 kcal/mol)

>  <smiles>  (37) 
Cc1ccccc1CN(C(=O)c1ccco1)c1c(N)n(Cc2ccccc2)c(=O)[nH]c1=O

>  <score_type>  (37) 
oracle

>  <origin>  (37) 
adgpu

>  <m_score__min__energy>  (37) 
-9.1999999999999993

>  <m_primary>  (37) 
energy

$$$$
37:0
     RDKit          3D

 56 59  0  0  0  0  0  0  0  0999 V2000
   -5.7460   25.6510  -30.6730 C   0  0  0  0  0  0  0  0  0  0  0  0
   -4.8500   24.7400  -29.8440 C   0  0  0  0  0  0  0  0  0  0  0  0
   -3.5220   24.6390  -30.4530 N   0  0  0  0  0  0  0  0  0  0  0  0
   -2.6440   23.2750  -29.8270 S   0  0  0  0  0  0  0  0  0  0  0  0
   -3.3920   22.6650  -28.6740 O   0  0  0  0  0  0  0  0  0  0  0  0
   -1.3010   23.7360  -29.3340 O   0  0  0  0  0  0  0  0  0  0  0  0
   -2.4050   22.0810  -31.1010 C   0  0  0  0  0  0  0  0  0  0  0  0
   -1.6280   20.9370  -30.8730 C   0  0  0  0  0  0  0  0  0  0  0  0
   -1.4570   19.9890  -31.8870 C   0  0  0  0  0  0  0  0  0  0  0  0
   -2.0550   20.1830  -33.1460 C   0  0  0  0  0  0  0  0  0  0  0  0
   -1.9280   19.2220  -34.2040 N   0  0  0  0  0  0  0  0  0  0  0  0
   -2.2640   17.8300  -34.1350 C   0  0  0  0  0  0  0  0  0  0  0  0
   -1.3840   16.9510  -34.3410 O   0  0  0  0  0  0  0  0  0  0  0  0
   -3.6730   17.4210  -33.9440 C   0  0  0  0  0  0  0  0  0  0  0  0
   -4.5810   18.3800  -33.4670 C   0  0  0  0  0  0  0  0  0  0  0  0
   -5.9140   18.0270  -33.2020 C   0  0  0  0  0  0  0  0  0  0  0  0
   -6.8950   19.0150  -32.6820 C   0  0  0  0  0  0  0  0  0  0  0  0
   -8.1940   18.6300  -32.3140 C   0  0  0  0  0  0  0  0  0  0  0  0
   -9.1040   19.5730  -31.8340 C   0  0  0  0  0  0  0  0  0  0  0  0
   -8.7400   20.9230  -31.7120 C   0  0  0  0  0  0  0  0  0  0  0  0
   -9.7490   21.9150  -31.1950 C   0  0  0  0  0  0  0  0  0  0  0  0
   -7.4440   21.3290  -32.1050 C   0  0  0  0  0  0  0  0  0  0  0  0
   -7.0110   22.7690  -31.9990 C   0  0  0  0  0  0  0  0  0  0  0  0
   -6.5340   20.3700  -32.5820 C   0  0  0  0  0  0  0  0  0  0  0  0
   -6.3210   16.7520  -33.4390 N   0  0  0  0  0  0  0  0  0  0  0  0
   -5.4870   15.7960  -33.9220 C   0  0  0  0  0  0  0  0  0  0  0  0
   -5.9810   14.5070  -34.1560 C   0  0  0  0  0  0  0  0  0  0  0  0
   -5.1480   13.5220  -34.6860 C   0  0  0  0  0  0  0  0  0  0  0  0
   -3.8220   13.8210  -34.9980 C   0  0  0  0  0  0  0  0  0  0  0  0
   -3.3140   15.1030  -34.7670 C   0  0  0  0  0  0  0  0  0  0  0  0
   -4.1330   16.1050  -34.2030 C   0  0  0  0  0  0  0  0  0  0  0  0
   -2.8530   21.3140  -33.3570 C   0  0  0  0  0  0  0  0  0  0  0  0
   -3.0230   22.2610  -32.3440 C   0  0  0  0  0  0  0  0  0  0  0  0
   -6.3575   26.2727  -30.0025 H   0  0  0  0  0  0  0  0  0  0  0  0
   -5.1235   26.2989  -31.3076 H   0  0  0  0  0  0  0  0  0  0  0  0
   -6.4041   25.0393  -31.3076 H   0  0  0  0  0  0  0  0  0  0  0  0
   -4.7529   25.1529  -28.8291 H   0  0  0  0  0  0  0  0  0  0  0  0
   -5.3009   23.7375  -29.8025 H   0  0  0  0  0  0  0  0  0  0  0  0
   -1.1512   20.7843  -29.8935 H   0  0  0  0  0  0  0  0  0  0  0  0
   -0.8531   19.0889  -31.6998 H   0  0  0  0  0  0  0  0  0  0  0  0
   -4.2460   19.4143  -33.2999 H   0  0  0  0  0  0  0  0  0  0  0  0
   -8.4970   17.5765  -32.4047 H   0  0  0  0  0  0  0  0  0  0  0  0
  -10.1174   19.2548  -31.5482 H   0  0  0  0  0  0  0  0  0  0  0  0
   -9.7408   21.9069  -30.0951 H   0  0  0  0  0  0  0  0  0  0  0  0
   -9.4918   22.9217  -31.5562 H   0  0  0  0  0  0  0  0  0  0  0  0
  -10.7512   21.6408  -31.5562 H   0  0  0  0  0  0  0  0  0  0  0  0
   -6.9267   23.0494  -30.9387 H   0  0  0  0  0  0  0  0  0  0  0  0
   -6.0351   22.8956  -32.4905 H   0  0  0  0  0  0  0  0  0  0  0  0
   -7.7553   23.4128  -32.4905 H   0  0  0  0  0  0  0  0  0  0  0  0
   -5.5235   20.6846  -32.8818 H   0  0  0  0  0  0  0  0  0  0  0  0
   -7.0293   14.2705  -33.9211 H   0  0  0  0  0  0  0  0  0  0  0  0
   -5.5374   12.5078  -34.8582 H   0  0  0  0  0  0  0  0  0  0  0  0
   -3.1725   13.0443  -35.4280 H   0  0  0  0  0  0  0  0  0  0  0  0
   -2.2699   15.3322  -35.0263 H   0  0  0  0  0  0  0  0  0  0  0  0
   -3.3499   21.4580  -34.3278 H   0  0  0  0  0  0  0  0  0  0  0  0
   -3.6444   23.1507  -32.5238 H   0  0  0  0  0  0  0  0  0  0  0  0
  1  2  1  0
  2  3  1  0
  3  4  1  0
  4  5  2  0
  4  6  2  0
  4  7  1  0
  7  8  2  0
  8  9  1  0
  9 10  2  0
 10 11  1  0
 11 12  1  0
 12 13  2  0
 12 14  1  0
 14 15  2  0
 15 16  1  0
 16 17  1  0
 17 18  2  0
 18 19  1  0
 19 20  2  0
 20 21  1  0
 20 22  1  0
 22 23  1  0
 22 24  2  0
 16 25  2  0
 25 26  1  0
 26 27  2  0
 27 28  1  0
 28 29  2  0
 29 30  1  0
 30 31  2  0
 10 32  1  0
 32 33  2  0
 33  7  1  0
 31 14  1  0
 24 17  1  0
 31 26  1  0
  1 34  1  0
  1 35  1  0
  1 36  1  0
  2 37  1  0
  2 38  1  0
  8 39  1  0
  9 40  1  0
 15 41  1  0
 18 42  1  0
 19 43  1  0
 21 44  1  0
 21 45  1  0
 21 46  1  0
 23 47  1  0
 23 48  1  0
 23 49  1  0
 24 50  1  0
 27 51  1  0
 28 52  1  0
 29 53  1  0
 30 54  1  0
 32 55  1  0
 33 56  1  0
M  CHG  2   3  -1  11  -1
M  END
>  <UniqueID>  (38) 
35

>  <SMILES>  (38) 
CC[N-]S(=O)(=O)c1ccc([N-]C(=O)c2cc(-c3ccc(C)c(C)c3)nc3ccccc23)cc1

>  <Energy>  (38) 
75.18169577440838

>  <Genealogy>  (38) 
CC[N-]S(=O)(=O)c1ccc([N-]C(=O)c2cc(-c3ccc(C)c(C)c3)nc3ccccc23)cc1 (protonated)
CC[N-]S(=O)(=O)c1ccc([N-]C(=O)c2cc(-c3ccc(C)c(C)c3)nc3ccccc23)cc1 (3D coordinates assigned)
CC[N-]S(=O)(=O)c1ccc([N-]C(=O)c2cc(-c3ccc(C)c(C)c3)nc3ccccc23)cc1 (optimized conformer: 75.18169577440838 kcal/mol)

>  <smiles>  (38) 
CCNS(=O)(=O)c1ccc(NC(=O)c2cc(-c3ccc(C)c(C)c3)nc3ccccc23)cc1

>  <score_type>  (38) 
oracle

>  <origin>  (38) 
adgpu

>  <m_score__min__energy>  (38) 
-12.050000000000001

>  <m_primary>  (38) 
energy

$$$$
38:0
     RDKit          3D

 43 45  0  0  0  0  0  0  0  0999 V2000
   -0.0590   23.4150  -24.8270 C   0  0  0  0  0  0  0  0  0  0  0  0
   -0.7520   23.8270  -26.0920 C   0  0  0  0  0  0  0  0  0  0  0  0
   -1.6550   24.8960  -26.0980 C   0  0  0  0  0  0  0  0  0  0  0  0
   -2.3070   25.2620  -27.2770 C   0  0  0  0  0  0  0  0  0  0  0  0
   -2.0680   24.5620  -28.4740 C   0  0  0  0  0  0  0  0  0  0  0  0
   -2.7190   24.9250  -29.7020 N   0  0  0  0  0  0  0  0  0  0  0  0
   -4.3820   24.6220  -30.0860 S   0  0  0  0  0  0  0  0  0  0  0  0
   -4.9220   25.7780  -30.8810 O   0  0  0  0  0  0  0  0  0  0  0  0
   -5.1680   24.5010  -28.8110 O   0  0  0  0  0  0  0  0  0  0  0  0
   -4.5240   23.1160  -30.9870 C   0  0  0  0  0  0  0  0  0  0  0  0
   -3.4630   22.6520  -31.7740 C   0  0  0  0  0  0  0  0  0  0  0  0
   -3.5840   21.4510  -32.4780 C   0  0  0  0  0  0  0  0  0  0  0  0
   -4.7680   20.6960  -32.4030 C   0  0  0  0  0  0  0  0  0  0  0  0
   -4.8930   19.4230  -33.1540 C   0  0  0  0  0  0  0  0  0  0  0  0
   -3.8310   18.5010  -33.1420 C   0  0  0  0  0  0  0  0  0  0  0  0
   -3.9270   17.3000  -33.8490 C   0  0  0  0  0  0  0  0  0  0  0  0
   -5.0830   17.0040  -34.5730 C   0  0  0  0  0  0  0  0  0  0  0  0
   -6.1480   17.9060  -34.5870 C   0  0  0  0  0  0  0  0  0  0  0  0
   -6.0650   19.1120  -33.8760 C   0  0  0  0  0  0  0  0  0  0  0  0
   -7.1510   19.9860  -33.8700 O   0  0  0  0  0  0  0  0  0  0  0  0
   -5.8340   21.1750  -31.6220 C   0  0  0  0  0  0  0  0  0  0  0  0
   -5.7100   22.3750  -30.9180 C   0  0  0  0  0  0  0  0  0  0  0  0
   -1.1660   23.4770  -28.4690 C   0  0  0  0  0  0  0  0  0  0  0  0
   -0.9060   22.6990  -29.7290 C   0  0  0  0  0  0  0  0  0  0  0  0
   -0.5150   23.1170  -27.2780 C   0  0  0  0  0  0  0  0  0  0  0  0
   -0.6414   23.7612  -23.9604 H   0  0  0  0  0  0  0  0  0  0  0  0
    0.0273   22.3188  -24.7965 H   0  0  0  0  0  0  0  0  0  0  0  0
    0.9452   23.8628  -24.7965 H   0  0  0  0  0  0  0  0  0  0  0  0
   -1.8521   25.4509  -25.1689 H   0  0  0  0  0  0  0  0  0  0  0  0
   -3.0137   26.1049  -27.2701 H   0  0  0  0  0  0  0  0  0  0  0  0
   -2.5320   23.2343  -31.8383 H   0  0  0  0  0  0  0  0  0  0  0  0
   -2.7468   21.0935  -33.0955 H   0  0  0  0  0  0  0  0  0  0  0  0
   -2.9180   18.7273  -32.5717 H   0  0  0  0  0  0  0  0  0  0  0  0
   -3.0901   16.5863  -33.8351 H   0  0  0  0  0  0  0  0  0  0  0  0
   -5.1547   16.0597  -35.1326 H   0  0  0  0  0  0  0  0  0  0  0  0
   -7.0575   17.6697  -35.1589 H   0  0  0  0  0  0  0  0  0  0  0  0
   -8.0660   19.7000  -34.1980 H   0  0  0  0  0  0  0  0  0  0  0  0
   -6.7710   20.6017  -31.5649 H   0  0  0  0  0  0  0  0  0  0  0  0
   -6.5483   22.7397  -30.3063 H   0  0  0  0  0  0  0  0  0  0  0  0
   -0.5671   21.6849  -29.4705 H   0  0  0  0  0  0  0  0  0  0  0  0
   -1.8322   22.6367  -30.3192 H   0  0  0  0  0  0  0  0  0  0  0  0
   -0.1285   23.2061  -30.3192 H   0  0  0  0  0  0  0  0  0  0  0  0
    0.1873   22.2704  -27.2752 H   0  0  0  0  0  0  0  0  0  0  0  0
  1  2  1  0
  2  3  2  0
  3  4  1  0
  4  5  2  0
  5  6  1  0
  6  7  1  0
  7  8  2  0
  7  9  2  0
  7 10  1  0
 10 11  2  0
 11 12  1  0
 12 13  2  0
 13 14  1  0
 14 15  2  0
 15 16  1  0
 16 17  2  0
 17 18  1  0
 18 19  2  0
 19 20  1  0
 13 21  1  0
 21 22  2  0
  5 23  1  0
 23 24  1  0
 23 25  2  0
 25  2  1  0
 22 10  1  0
 19 14  1  0
  1 26  1  0
  1 27  1  0
  1 28  1  0
  3 29  1  0
  4 30  1  0
 11 31  1  0
 12 32  1  0
 15 33  1  0
 16 34  1  0
 17 35  1  0
 18 36  1  0
 20 37  1  0
 21 38  1  0
 22 39  1  0
 24 40  1  0
 24 41  1  0
 24 42  1  0
 25 43  1  0
M  CHG  1   6  -1
M  END
>  <UniqueID>  (39) 
36

>  <SMILES>  (39) 
Cc1ccc([N-]S(=O)(=O)c2ccc(-c3ccccc3O)cc2)c(C)c1

>  <Energy>  (39) 
54.067460690581015

>  <Genealogy>  (39) 
Cc1ccc([N-]S(=O)(=O)c2ccc(-c3ccccc3O)cc2)c(C)c1 (protonated)
Cc1ccc([N-]S(=O)(=O)c2ccc(-c3ccccc3O)cc2)c(C)c1 (3D coordinates assigned)
Cc1ccc([N-]S(=O)(=O)c2ccc(-c3ccccc3O)cc2)c(C)c1 (optimized conformer: 54.067460690581015 kcal/mol)

>  <smiles>  (39) 
Cc1ccc(NS(=O)(=O)c2ccc(-c3ccccc3O)cc2)c(C)c1

>  <score_type>  (39) 
oracle

>  <origin>  (39) 
adgpu

>  <m_score__min__energy>  (39) 
-9.9199999999999999

>  <m_primary>  (39) 
energy

$$$$
39:0
     RDKit          3D

 54 56  0  0  0  0  0  0  0  0999 V2000
   -1.1520   21.8210  -31.8790 C   0  0  0  0  0  0  0  0  0  0  0  0
   -2.3370   22.4790  -31.3380 N   0  0  0  0  0  0  0  0  0  0  0  0
   -3.6320   22.3130  -31.9300 C   0  0  0  0  0  0  0  0  0  0  0  0
   -3.7750   21.5710  -32.9400 O   0  0  0  0  0  0  0  0  0  0  0  0
   -4.8090   22.9910  -31.3480 C   0  0  0  0  0  0  0  0  0  0  0  0
   -6.0710   22.4010  -31.5440 C   0  0  0  0  0  0  0  0  0  0  0  0
   -7.2440   23.0710  -31.1700 C   0  0  0  0  0  0  0  0  0  0  0  0
   -8.5760   22.4120  -31.3840 C   0  0  0  0  0  0  0  0  0  0  0  0
   -7.1580   24.3350  -30.5700 C   0  0  0  0  0  0  0  0  0  0  0  0
   -5.9100   24.9160  -30.3360 C   0  0  0  0  0  0  0  0  0  0  0  0
   -4.7260   24.2530  -30.6970 C   0  0  0  0  0  0  0  0  0  0  0  0
   -3.4870   24.9370  -30.4440 N   0  0  0  0  0  0  0  0  0  0  0  0
   -2.5790   24.7480  -29.3520 C   0  0  0  0  0  0  0  0  0  0  0  0
   -1.5760   25.5080  -29.2490 O   0  0  0  0  0  0  0  0  0  0  0  0
   -2.7630   23.7040  -28.3870 N   0  0  0  0  0  0  0  0  0  0  0  0
   -2.1180   22.4230  -28.4120 C   0  0  0  0  0  0  0  0  0  0  0  0
   -0.7620   22.3640  -28.7480 C   0  0  0  0  0  0  0  0  0  0  0  0
   -0.0570   21.1610  -28.6390 C   0  0  0  0  0  0  0  0  0  0  0  0
   -0.7030   20.0010  -28.1910 C   0  0  0  0  0  0  0  0  0  0  0  0
    0.2170   18.5040  -27.9970 S   0  0  0  0  0  0  0  0  0  0  0  0
    1.5830   18.8450  -27.4680 O   0  0  0  0  0  0  0  0  0  0  0  0
   -0.4780   17.6080  -27.0060 O   0  0  0  0  0  0  0  0  0  0  0  0
    0.3870   17.6480  -29.4990 N   0  0  0  0  0  0  0  0  0  0  0  0
    0.4320   18.3150  -30.7610 C   0  0  0  0  0  0  0  0  0  0  0  0
   -0.6470   18.1850  -31.6430 C   0  0  0  0  0  0  0  0  0  0  0  0
   -0.5970   18.7750  -32.9090 C   0  0  0  0  0  0  0  0  0  0  0  0
    0.5280   19.5110  -33.2950 C   0  0  0  0  0  0  0  0  0  0  0  0
    1.5980   19.6750  -32.4070 C   0  0  0  0  0  0  0  0  0  0  0  0
    1.5490   19.0890  -31.1230 C   0  0  0  0  0  0  0  0  0  0  0  0
    2.5810   19.2560  -30.1850 O   0  0  0  0  0  0  0  0  0  0  0  0
    3.4870   18.2300  -29.8020 C   0  0  0  0  0  0  0  0  0  0  0  0
   -2.0690   20.0510  -27.8760 C   0  0  0  0  0  0  0  0  0  0  0  0
   -2.7750   21.2530  -27.9850 C   0  0  0  0  0  0  0  0  0  0  0  0
   -0.5182   21.4690  -31.0517 H   0  0  0  0  0  0  0  0  0  0  0  0
   -1.4583   20.9638  -32.4965 H   0  0  0  0  0  0  0  0  0  0  0  0
   -0.5863   22.5342  -32.4965 H   0  0  0  0  0  0  0  0  0  0  0  0
   -2.2230   23.1200  -30.5190 H   0  0  0  0  0  0  0  0  0  0  0  0
   -6.1381   21.4007  -31.9967 H   0  0  0  0  0  0  0  0  0  0  0  0
   -9.0338   22.1855  -30.4098 H   0  0  0  0  0  0  0  0  0  0  0  0
   -9.2333   23.0888  -31.9495 H   0  0  0  0  0  0  0  0  0  0  0  0
   -8.4368   21.4788  -31.9495 H   0  0  0  0  0  0  0  0  0  0  0  0
   -8.0752   24.8701  -30.2830 H   0  0  0  0  0  0  0  0  0  0  0  0
   -5.8536   25.9071  -29.8622 H   0  0  0  0  0  0  0  0  0  0  0  0
   -0.2464   23.2696  -29.1003 H   0  0  0  0  0  0  0  0  0  0  0  0
    1.0095   21.1253  -28.9062 H   0  0  0  0  0  0  0  0  0  0  0  0
   -1.5379   17.6162  -31.3385 H   0  0  0  0  0  0  0  0  0  0  0  0
   -1.4432   18.6604  -33.6025 H   0  0  0  0  0  0  0  0  0  0  0  0
    0.5722   19.9616  -34.2975 H   0  0  0  0  0  0  0  0  0  0  0  0
    2.4781   20.2612  -32.7099 H   0  0  0  0  0  0  0  0  0  0  0  0
    3.5357   18.1748  -28.7045 H   0  0  0  0  0  0  0  0  0  0  0  0
    3.1400   17.2661  -30.2026 H   0  0  0  0  0  0  0  0  0  0  0  0
    4.4864   18.4551  -30.2026 H   0  0  0  0  0  0  0  0  0  0  0  0
   -2.5873   19.1402  -27.5416 H   0  0  0  0  0  0  0  0  0  0  0  0
   -3.8461   21.2847  -27.7366 H   0  0  0  0  0  0  0  0  0  0  0  0
  1  2  1  0
  2  3  1  0
  3  4  2  0
  3  5  1  0
  5  6  2  0
  6  7  1  0
  7  8  1  0
  7  9  2  0
  9 10  1  0
 10 11  2  0
 11 12  1  0
 12 13  1  0
 13 14  2  0
 13 15  1  0
 15 16  1  0
 16 17  2  0
 17 18  1  0
 18 19  2  0
 19 20  1  0
 20 21  2  0
 20 22  2  0
 20 23  1  0
 23 24  1  0
 24 25  2  0
 25 26  1  0
 26 27  2  0
 27 28  1  0
 28 29  2  0
 29 30  1  0
 30 31  1  0
 19 32  1  0
 32 33  2  0
 11  5  1  0
 33 16  1  0
 29 24  1  0
  1 34  1  0
  1 35  1  0
  1 36  1  0
  2 37  1  0
  6 38  1  0
  8 39  1  0
  8 40  1  0
  8 41  1  0
  9 42  1  0
 10 43  1  0
 17 44  1  0
 18 45  1  0
 25 46  1  0
 26 47  1  0
 27 48  1  0
 28 49  1  0
 31 50  1  0
 31 51  1  0
 31 52  1  0
 32 53  1  0
 33 54  1  0
M  CHG  3  12  -1  15  -1  23  -1
M  END
>  <UniqueID>  (40) 
37

>  <SMILES>  (40) 
CNC(=O)c1cc(C)ccc1[N-]C(=O)[N-]c1ccc(S(=O)(=O)[N-]c2ccccc2OC)cc1

>  <Energy>  (40) 
72.791360175782

>  <Genealogy>  (40) 
CNC(=O)c1cc(C)ccc1[N-]C(=O)[N-]c1ccc(S(=O)(=O)[N-]c2ccccc2OC)cc1 (protonated)
CNC(=O)c1cc(C)ccc1[N-]C(=O)[N-]c1ccc(S(=O)(=O)[N-]c2ccccc2OC)cc1 (3D coordinates assigned)
CNC(=O)c1cc(C)ccc1[N-]C(=O)[N-]c1ccc(S(=O)(=O)[N-]c2ccccc2OC)cc1 (optimized conformer: 72.791360175782 kcal/mol)

>  <smiles>  (40) 
CNC(=O)c1cc(C)ccc1NC(=O)Nc1ccc(S(=O)(=O)Nc2ccccc2OC)cc1

>  <score_type>  (40) 
oracle

>  <origin>  (40) 
adgpu

>  <m_score__min__energy>  (40) 
-11.65

>  <m_primary>  (40) 
energy

$$$$
40:0
     RDKit          3D

 62 67  0  0  0  0  0  0  0  0999 V2000
   -8.4680   20.0760  -32.7220 C   0  0  0  0  0  0  0  0  0  0  0  0
   -7.0800   20.3620  -32.2170 C   0  0  0  0  0  0  0  0  0  0  0  0
   -5.9870   19.5210  -32.5490 C   0  0  0  0  0  0  0  0  0  0  0  0
   -6.1680   18.3700  -33.3900 N   0  0  0  0  0  0  0  0  0  0  0  0
   -5.6640   18.3660  -34.7640 C   0  0  0  0  0  0  0  0  0  0  0  0
   -4.8280   17.1010  -34.9840 C   0  0  0  0  0  0  0  0  0  0  0  0
   -5.5150   15.8470  -34.5640 N   0  0  0  0  0  0  0  0  0  0  0  0
   -4.6210   14.9900  -33.7630 C   0  0  0  0  0  0  0  0  0  0  0  0
   -6.8230   16.0400  -33.8930 C   0  0  0  0  0  0  0  0  0  0  0  0
   -6.7840   17.1580  -32.8410 C   0  0  0  0  0  0  0  0  0  0  0  0
   -4.7000   19.8060  -32.0460 C   0  0  0  0  0  0  0  0  0  0  0  0
   -4.4760   20.9250  -31.2370 C   0  0  0  0  0  0  0  0  0  0  0  0
   -5.5430   21.7820  -30.9440 C   0  0  0  0  0  0  0  0  0  0  0  0
   -5.4950   22.9480  -30.1490 C   0  0  0  0  0  0  0  0  0  0  0  0
   -4.2650   23.5140  -29.5510 C   0  0  0  0  0  0  0  0  0  0  0  0
   -3.0790   23.5900  -30.2990 C   0  0  0  0  0  0  0  0  0  0  0  0
   -1.9090   24.0890  -29.7200 C   0  0  0  0  0  0  0  0  0  0  0  0
   -1.9090   24.5230  -28.3830 C   0  0  0  0  0  0  0  0  0  0  0  0
   -0.7210   25.0140  -27.7490 N   0  0  0  0  0  0  0  0  0  0  0  0
    0.5400   24.3370  -27.7030 C   0  0  0  0  0  0  0  0  0  0  0  0
    1.5600   24.9130  -28.1680 O   0  0  0  0  0  0  0  0  0  0  0  0
    0.6410   23.0280  -27.1250 N   0  0  0  0  0  0  0  0  0  0  0  0
   -0.2800   21.9400  -27.2880 C   0  0  0  0  0  0  0  0  0  0  0  0
   -0.5700   21.3840  -28.5630 C   0  0  0  0  0  0  0  0  0  0  0  0
   -1.4470   20.2880  -28.6830 C   0  0  0  0  0  0  0  0  0  0  0  0
   -2.0020   19.7710  -27.5190 C   0  0  0  0  0  0  0  0  0  0  0  0
   -1.7160   20.2870  -26.2970 C   0  0  0  0  0  0  0  0  0  0  0  0
   -0.8510   21.3660  -26.1330 C   0  0  0  0  0  0  0  0  0  0  0  0
   -2.3900   19.5700  -25.3260 O   0  0  0  0  0  0  0  0  0  0  0  0
   -3.1480   18.5420  -25.9790 C   0  0  0  0  0  0  0  0  0  0  0  0
   -2.8690   18.7030  -27.3780 O   0  0  0  0  0  0  0  0  0  0  0  0
   -3.1080   24.5130  -27.6590 C   0  0  0  0  0  0  0  0  0  0  0  0
   -4.2790   24.0070  -28.2350 C   0  0  0  0  0  0  0  0  0  0  0  0
   -6.7480   23.5460  -29.9920 C   0  0  0  0  0  0  0  0  0  0  0  0
   -7.8910   22.6550  -30.8560 S   0  0  0  0  0  0  0  0  0  0  0  0
   -6.8160   21.4890  -31.4220 C   0  0  0  0  0  0  0  0  0  0  0  0
   -9.1472   19.9360  -31.8682 H   0  0  0  0  0  0  0  0  0  0  0  0
   -8.8171   20.9211  -33.3335 H   0  0  0  0  0  0  0  0  0  0  0  0
   -8.4546   19.1618  -33.3335 H   0  0  0  0  0  0  0  0  0  0  0  0
   -6.5098   18.3763  -35.4673 H   0  0  0  0  0  0  0  0  0  0  0  0
   -5.0422   19.2572  -34.9348 H   0  0  0  0  0  0  0  0  0  0  0  0
   -4.5900   17.0243  -36.0552 H   0  0  0  0  0  0  0  0  0  0  0  0
   -3.9278   17.1985  -34.3593 H   0  0  0  0  0  0  0  0  0  0  0  0
   -4.8053   15.1667  -32.6931 H   0  0  0  0  0  0  0  0  0  0  0  0
   -4.8170   13.9337  -33.9993 H   0  0  0  0  0  0  0  0  0  0  0  0
   -3.5739   15.2304  -33.9993 H   0  0  0  0  0  0  0  0  0  0  0  0
   -7.5752   16.2970  -34.6534 H   0  0  0  0  0  0  0  0  0  0  0  0
   -7.0753   15.1025  -33.3758 H   0  0  0  0  0  0  0  0  0  0  0  0
   -7.8111   17.3886  -32.5219 H   0  0  0  0  0  0  0  0  0  0  0  0
   -6.1843   16.8151  -31.9850 H   0  0  0  0  0  0  0  0  0  0  0  0
   -3.8610   19.1390  -32.2934 H   0  0  0  0  0  0  0  0  0  0  0  0
   -3.4724   21.1291  -30.8356 H   0  0  0  0  0  0  0  0  0  0  0  0
   -3.0708   23.2549  -31.3467 H   0  0  0  0  0  0  0  0  0  0  0  0
   -0.9841   24.1424  -30.3131 H   0  0  0  0  0  0  0  0  0  0  0  0
   -0.1061   21.8127  -29.4635 H   0  0  0  0  0  0  0  0  0  0  0  0
   -1.6846   19.8557  -29.6662 H   0  0  0  0  0  0  0  0  0  0  0  0
   -0.6198   21.7591  -25.1320 H   0  0  0  0  0  0  0  0  0  0  0  0
   -2.8283   17.5479  -25.6334 H   0  0  0  0  0  0  0  0  0  0  0  0
   -4.2233   18.6216  -25.7614 H   0  0  0  0  0  0  0  0  0  0  0  0
   -3.1295   24.9052  -26.6315 H   0  0  0  0  0  0  0  0  0  0  0  0
   -5.2138   23.9952  -27.6554 H   0  0  0  0  0  0  0  0  0  0  0  0
   -6.9555   24.4504  -29.4013 H   0  0  0  0  0  0  0  0  0  0  0  0
  1  2  1  0
  2  3  2  0
  3  4  1  0
  4  5  1  0
  5  6  1  0
  6  7  1  0
  7  8  1  0
  7  9  1  0
  9 10  1  0
  3 11  1  0
 11 12  2  0
 12 13  1  0
 13 14  1  0
 14 15  1  0
 15 16  2  0
 16 17  1  0
 17 18  2  0
 18 19  1  0
 19 20  1  0
 20 21  2  0
 20 22  1  0
 22 23  1  0
 23 24  2  0
 24 25  1  0
 25 26  2  0
 26 27  1  0
 27 28  2  0
 27 29  1  0
 29 30  1  0
 30 31  1  0
 18 32  1  0
 32 33  2  0
 14 34  2  0
 34 35  1  0
 35 36  1  0
 36  2  1  0
 10  4  1  0
 36 13  2  0
 33 15  1  0
 28 23  1  0
 31 26  1  0
  1 37  1  0
  1 38  1  0
  1 39  1  0
  5 40  1  0
  5 41  1  0
  6 42  1  0
  6 43  1  0
  8 44  1  0
  8 45  1  0
  8 46  1  0
  9 47  1  0
  9 48  1  0
 10 49  1  0
 10 50  1  0
 11 51  1  0
 12 52  1  0
 16 53  1  0
 17 54  1  0
 24 55  1  0
 25 56  1  0
 28 57  1  0
 30 58  1  0
 30 59  1  0
 32 60  1  0
 33 61  1  0
 34 62  1  0
M  CHG  2  19  -1  22  -1
M  END
>  <UniqueID>  (41) 
38

>  <SMILES>  (41) 
Cc1c(N2CCN(C)CC2)ccc2c(-c3ccc([N-]C(=O)[N-]c4ccc5c(c4)OCO5)cc3)csc12

>  <Energy>  (41) 
152.88171747931727

>  <Genealogy>  (41) 
Cc1c(N2CCN(C)CC2)ccc2c(-c3ccc([N-]C(=O)[N-]c4ccc5c(c4)OCO5)cc3)csc12 (protonated)
Cc1c(N2CCN(C)CC2)ccc2c(-c3ccc([N-]C(=O)[N-]c4ccc5c(c4)OCO5)cc3)csc12 (3D coordinates assigned)
Cc1c(N2CCN(C)CC2)ccc2c(-c3ccc([N-]C(=O)[N-]c4ccc5c(c4)OCO5)cc3)csc12 (nonaromatic ring conformer: 152.88171747931727 kcal/mol)

>  <smiles>  (41) 
Cc1c(N2CCN(C)CC2)ccc2c(-c3ccc(NC(=O)Nc4ccc5c(c4)OCO5)cc3)csc12

>  <score_type>  (41) 
oracle

>  <origin>  (41) 
adgpu

>  <m_score__min__energy>  (41) 
-12.18

>  <m_primary>  (41) 
energy

$$$$
41:0
     RDKit          3D

 45 47  0  0  0  0  0  0  0  0999 V2000
   -9.4860   21.9210  -31.2210 C   0  0  0  0  0  0  0  0  0  0  0  0
   -8.3960   21.6720  -32.1010 O   0  0  0  0  0  0  0  0  0  0  0  0
   -7.9100   20.3940  -32.4160 C   0  0  0  0  0  0  0  0  0  0  0  0
   -6.9840   20.2720  -33.4590 C   0  0  0  0  0  0  0  0  0  0  0  0
   -6.4830   19.0180  -33.8210 C   0  0  0  0  0  0  0  0  0  0  0  0
   -6.9010   17.8640  -33.1400 C   0  0  0  0  0  0  0  0  0  0  0  0
   -6.3280   16.5160  -33.4980 C   0  0  0  0  0  0  0  0  0  0  0  0
   -4.8910   16.6480  -34.0050 C   0  0  0  0  0  0  0  0  0  0  0  0
   -4.0470   17.2610  -32.9660 N   0  0  0  0  0  0  0  0  0  0  0  0
   -2.8980   17.9780  -33.5300 C   0  0  0  0  0  0  0  0  0  0  0  0
   -3.0480   19.4430  -33.2770 C   0  0  0  0  0  0  0  0  0  0  0  0
   -3.8840   19.9710  -32.3630 N   0  0  0  0  0  0  0  0  0  0  0  0
   -3.6900   21.2930  -32.5560 C   0  0  0  0  0  0  0  0  0  0  0  0
   -4.3970   22.3470  -31.7970 C   0  0  0  0  0  0  0  0  0  0  0  0
   -3.9320   22.7460  -30.5330 C   0  0  0  0  0  0  0  0  0  0  0  0
   -4.6030   23.7410  -29.8150 C   0  0  0  0  0  0  0  0  0  0  0  0
   -5.7410   24.3580  -30.3530 C   0  0  0  0  0  0  0  0  0  0  0  0
   -6.4520   25.4220  -29.5700 C   0  0  0  0  0  0  0  0  0  0  0  0
   -6.2080   23.9600  -31.6140 C   0  0  0  0  0  0  0  0  0  0  0  0
   -5.5410   22.9630  -32.3320 C   0  0  0  0  0  0  0  0  0  0  0  0
   -2.7930   21.5430  -33.5310 N   0  0  0  0  0  0  0  0  0  0  0  0
   -2.4220   20.3730  -33.9520 O   0  0  0  0  0  0  0  0  0  0  0  0
   -7.8100   17.9860  -32.0780 C   0  0  0  0  0  0  0  0  0  0  0  0
   -8.3200   19.2390  -31.7240 C   0  0  0  0  0  0  0  0  0  0  0  0
   -9.1416   21.8423  -30.1793 H   0  0  0  0  0  0  0  0  0  0  0  0
   -9.8795   22.9322  -31.4017 H   0  0  0  0  0  0  0  0  0  0  0  0
  -10.2796   21.1810  -31.4017 H   0  0  0  0  0  0  0  0  0  0  0  0
   -6.6479   21.1701  -33.9980 H   0  0  0  0  0  0  0  0  0  0  0  0
   -5.7575   18.9353  -34.6437 H   0  0  0  0  0  0  0  0  0  0  0  0
   -6.3369   15.8729  -32.6056 H   0  0  0  0  0  0  0  0  0  0  0  0
   -6.9423   16.0752  -34.2970 H   0  0  0  0  0  0  0  0  0  0  0  0
   -4.4984   15.6506  -34.2522 H   0  0  0  0  0  0  0  0  0  0  0  0
   -4.8806   17.2846  -34.9020 H   0  0  0  0  0  0  0  0  0  0  0  0
   -4.6310   17.9460  -32.4300 H   0  0  0  0  0  0  0  0  0  0  0  0
   -1.9730   17.6175  -33.0562 H   0  0  0  0  0  0  0  0  0  0  0  0
   -2.8510   17.7974  -34.6141 H   0  0  0  0  0  0  0  0  0  0  0  0
   -3.0354   22.2733  -30.1057 H   0  0  0  0  0  0  0  0  0  0  0  0
   -4.2358   24.0412  -28.8225 H   0  0  0  0  0  0  0  0  0  0  0  0
   -6.3250   25.2320  -28.4940 H   0  0  0  0  0  0  0  0  0  0  0  0
   -6.0294   26.4061  -29.8209 H   0  0  0  0  0  0  0  0  0  0  0  0
   -7.5229   25.4081  -29.8209 H   0  0  0  0  0  0  0  0  0  0  0  0
   -7.1039   24.4348  -32.0405 H   0  0  0  0  0  0  0  0  0  0  0  0
   -5.9138   22.6591  -33.3213 H   0  0  0  0  0  0  0  0  0  0  0  0
   -8.1232   17.0908  -31.5207 H   0  0  0  0  0  0  0  0  0  0  0  0
   -9.0450   19.3224  -30.9009 H   0  0  0  0  0  0  0  0  0  0  0  0
  1  2  1  0
  2  3  1  0
  3  4  2  0
  4  5  1  0
  5  6  2  0
  6  7  1  0
  7  8  1  0
  8  9  1  0
  9 10  1  0
 10 11  1  0
 11 12  2  0
 12 13  1  0
 13 14  1  0
 14 15  2  0
 15 16  1  0
 16 17  2  0
 17 18  1  0
 17 19  1  0
 19 20  2  0
 13 21  2  0
 21 22  1  0
  6 23  1  0
 23 24  2  0
 24  3  1  0
 22 11  1  0
 20 14  1  0
  1 25  1  0
  1 26  1  0
  1 27  1  0
  4 28  1  0
  5 29  1  0
  7 30  1  0
  7 31  1  0
  8 32  1  0
  8 33  1  0
  9 34  1  0
 10 35  1  0
 10 36  1  0
 15 37  1  0
 16 38  1  0
 18 39  1  0
 18 40  1  0
 18 41  1  0
 19 42  1  0
 20 43  1  0
 23 44  1  0
 24 45  1  0
M  END
>  <UniqueID>  (42) 
39

>  <SMILES>  (42) 
COc1ccc(CCNCc2nc(-c3ccc(C)cc3)no2)cc1

>  <Energy>  (42) 
69.5484042592889

>  <Genealogy>  (42) 
COc1ccc(CCNCc2nc(-c3ccc(C)cc3)no2)cc1 (3D coordinates assigned)
COc1ccc(CCNCc2nc(-c3ccc(C)cc3)no2)cc1 (optimized conformer: 69.5484042592889 kcal/mol)

>  <smiles>  (42) 
COc1ccc(CCNCc2nc(-c3ccc(C)cc3)no2)cc1

>  <score_type>  (42) 
oracle

>  <origin>  (42) 
adgpu

>  <m_score__min__energy>  (42) 
-8.25

>  <m_primary>  (42) 
energy

$$$$
42:0
     RDKit          3D

 40 42  0  0  0  0  0  0  0  0999 V2000
   -2.3350   20.8216  -34.4942 H   0  0  0  0  0  0  0  0  0  0  0  0
   -2.2910   21.2230  -33.4710 C   0  0  0  0  0  0  0  0  0  0  0  0
   -3.3350   21.9400  -32.9770 N   0  0  0  0  0  0  0  0  0  0  0  0
   -3.3300   22.4500  -31.7120 C   0  0  0  0  0  0  0  0  0  0  0  0
   -4.4850   23.2420  -31.2210 C   0  0  0  0  0  0  0  0  0  0  0  0
   -4.2370   24.4570  -30.6560 N   0  0  0  0  0  0  0  0  0  0  0  0
   -5.2290   25.2840  -30.2360 C   0  0  0  0  0  0  0  0  0  0  0  0
   -4.9803   26.2527  -29.7780 H   0  0  0  0  0  0  0  0  0  0  0  0
   -6.5610   24.9060  -30.3850 C   0  0  0  0  0  0  0  0  0  0  0  0
   -7.3692   25.5785  -30.0616 H   0  0  0  0  0  0  0  0  0  0  0  0
   -6.8590   23.6670  -30.9480 C   0  0  0  0  0  0  0  0  0  0  0  0
   -7.9084   23.3603  -31.0691 H   0  0  0  0  0  0  0  0  0  0  0  0
   -5.8290   22.8070  -31.3620 C   0  0  0  0  0  0  0  0  0  0  0  0
   -6.1860   21.4610  -31.8650 C   0  0  0  0  0  0  0  0  0  0  0  0
   -5.4540   20.3330  -31.4750 C   0  0  0  0  0  0  0  0  0  0  0  0
   -4.6079   20.4416  -30.7805 H   0  0  0  0  0  0  0  0  0  0  0  0
   -5.7940   19.0730  -31.9640 C   0  0  0  0  0  0  0  0  0  0  0  0
   -5.2150   18.1881  -31.6613 H   0  0  0  0  0  0  0  0  0  0  0  0
   -6.8830   18.9380  -32.8480 C   0  0  0  0  0  0  0  0  0  0  0  0
   -7.2400   17.7860  -33.3480 N   0  0  0  0  0  0  0  0  0  0  0  0
   -6.6010   16.4850  -33.1370 C   0  0  0  0  0  0  0  0  0  0  0  0
   -7.3711   15.6999  -33.1610 H   0  0  0  0  0  0  0  0  0  0  0  0
   -6.0924   16.5032  -32.1618 H   0  0  0  0  0  0  0  0  0  0  0  0
   -5.5550   16.1920  -34.2220 C   0  0  0  0  0  0  0  0  0  0  0  0
   -5.9987   15.5193  -34.9707 H   0  0  0  0  0  0  0  0  0  0  0  0
   -4.6833   15.7279  -33.7374 H   0  0  0  0  0  0  0  0  0  0  0  0
   -5.0840   17.4660  -34.9210 C   0  0  0  0  0  0  0  0  0  0  0  0
   -4.8064   18.2169  -34.1666 H   0  0  0  0  0  0  0  0  0  0  0  0
   -4.2108   17.2378  -35.5499 H   0  0  0  0  0  0  0  0  0  0  0  0
   -5.8956   17.8607  -35.5499 H   0  0  0  0  0  0  0  0  0  0  0  0
   -7.5980   20.0500  -33.1920 N   0  0  0  0  0  0  0  0  0  0  0  0
   -8.4120   19.9600  -33.8400 H   0  0  0  0  0  0  0  0  0  0  0  0
   -7.2780   21.2870  -32.7250 C   0  0  0  0  0  0  0  0  0  0  0  0
   -7.8810   22.1568  -33.0248 H   0  0  0  0  0  0  0  0  0  0  0  0
   -2.2030   22.2510  -30.8970 C   0  0  0  0  0  0  0  0  0  0  0  0
   -2.1728   22.6701  -29.8804 H   0  0  0  0  0  0  0  0  0  0  0  0
   -1.1220   21.5170  -31.3880 C   0  0  0  0  0  0  0  0  0  0  0  0
   -0.2377   21.3496  -30.7556 H   0  0  0  0  0  0  0  0  0  0  0  0
   -1.1640   20.9960  -32.6810 C   0  0  0  0  0  0  0  0  0  0  0  0
   -0.3180   20.4127  -33.0734 H   0  0  0  0  0  0  0  0  0  0  0  0
  1  2  1  0
  2  3  2  0
  3  4  1  0
  4  5  1  0
  5  6  2  0
  6  7  1  0
  7  8  1  0
  7  9  2  0
  9 10  1  0
  9 11  1  0
 11 12  1  0
 11 13  2  0
 13 14  1  0
 14 15  1  0
 15 16  1  0
 15 17  2  0
 17 18  1  0
 17 19  1  0
 19 20  2  0
 20 21  1  0
 21 22  1  0
 21 23  1  0
 21 24  1  0
 24 25  1  0
 24 26  1  0
 24 27  1  0
 27 28  1  0
 27 29  1  0
 27 30  1  0
 19 31  1  0
 31 32  1  0
 31 33  1  0
 33 34  1  0
  4 35  2  0
 35 36  1  0
 35 37  1  0
 37 38  1  0
 37 39  2  0
 39 40  1  0
 39  2  1  0
 13  5  1  0
 33 14  2  0
M  END
>  <UniqueID>  (43) 
40

>  <SMILES>  (43) 
CCC/N=c1\ccc(-c2cccnc2-c2ccccn2)c[nH]1

>  <Energy>  (43) 
52.75794333930396

>  <Genealogy>  (43) 
CCC/N=c1\ccc(-c2cccnc2-c2ccccn2)c[nH]1 (cis-trans isomerization)
CCC/N=c1\ccc(-c2cccnc2-c2ccccn2)c[nH]1 (3D coordinates assigned)
CCC/N=c1\ccc(-c2cccnc2-c2ccccn2)c[nH]1 (optimized conformer: 52.75794333930396 kcal/mol)

>  <smiles>  (43) 
CCCN=c1ccc(-c2cccnc2-c2ccccn2)c[nH]1

>  <score_type>  (43) 
oracle

>  <origin>  (43) 
adgpu

>  <m_score__min__energy>  (43) 
-8

>  <m_primary>  (43) 
energy

$$$$
43:0
     RDKit          3D

 48 50  0  0  0  0  0  0  0  0999 V2000
   -2.9750   15.0180  -35.8040 C   0  0  0  0  0  0  0  0  0  0  0  0
   -2.7320   15.5620  -34.5110 O   0  0  0  0  0  0  0  0  0  0  0  0
   -2.5750   16.9320  -34.2400 C   0  0  0  0  0  0  0  0  0  0  0  0
   -1.3390   17.4750  -33.8340 C   0  0  0  0  0  0  0  0  0  0  0  0
   -1.2230   18.8400  -33.5670 C   0  0  0  0  0  0  0  0  0  0  0  0
   -2.3300   19.6770  -33.7070 C   0  0  0  0  0  0  0  0  0  0  0  0
   -3.5580   19.1520  -34.1130 C   0  0  0  0  0  0  0  0  0  0  0  0
   -3.6920   17.7750  -34.3760 C   0  0  0  0  0  0  0  0  0  0  0  0
   -4.9430   17.2010  -34.7820 N   0  0  0  0  0  0  0  0  0  0  0  0
   -6.2090   16.6930  -33.7100 S   0  0  0  0  0  0  0  0  0  0  0  0
   -7.2530   15.9500  -34.4950 O   0  0  0  0  0  0  0  0  0  0  0  0
   -5.6360   15.7700  -32.6730 O   0  0  0  0  0  0  0  0  0  0  0  0
   -6.9020   18.0950  -32.9010 C   0  0  0  0  0  0  0  0  0  0  0  0
   -8.2890   18.1810  -32.7400 C   0  0  0  0  0  0  0  0  0  0  0  0
   -8.8510   19.2690  -32.0710 C   0  0  0  0  0  0  0  0  0  0  0  0
   -8.0320   20.2790  -31.5620 C   0  0  0  0  0  0  0  0  0  0  0  0
   -6.6370   20.2170  -31.7240 C   0  0  0  0  0  0  0  0  0  0  0  0
   -5.7820   21.2860  -31.1570 C   0  0  0  0  0  0  0  0  0  0  0  0
   -6.1510   22.4870  -31.2760 O   0  0  0  0  0  0  0  0  0  0  0  0
   -4.5560   20.9750  -30.4670 N   0  0  0  0  0  0  0  0  0  0  0  0
   -3.6880   21.9640  -29.8870 C   0  0  0  0  0  0  0  0  0  0  0  0
   -4.1190   22.6810  -28.7630 C   0  0  0  0  0  0  0  0  0  0  0  0
   -3.2880   23.6340  -28.1670 C   0  0  0  0  0  0  0  0  0  0  0  0
   -2.0080   23.8730  -28.6840 C   0  0  0  0  0  0  0  0  0  0  0  0
   -0.9500   25.0620  -27.9290 S   0  0  0  0  0  0  0  0  0  0  0  0
   -1.1700   26.5970  -28.6890 N   0  0  0  0  0  0  0  0  0  0  0  0
   -1.2750   25.1720  -26.4650 O   0  0  0  0  0  0  0  0  0  0  0  0
    0.4850   24.6370  -28.0730 O   0  0  0  0  0  0  0  0  0  0  0  0
   -1.5580   23.1360  -29.7850 C   0  0  0  0  0  0  0  0  0  0  0  0
   -2.3890   22.1820  -30.3810 C   0  0  0  0  0  0  0  0  0  0  0  0
   -6.0790   19.1110  -32.3930 C   0  0  0  0  0  0  0  0  0  0  0  0
   -3.4217   14.0179  -35.7030 H   0  0  0  0  0  0  0  0  0  0  0  0
   -3.6656   15.6742  -36.3540 H   0  0  0  0  0  0  0  0  0  0  0  0
   -2.0255   14.9416  -36.3540 H   0  0  0  0  0  0  0  0  0  0  0  0
   -0.4619   16.8198  -33.7271 H   0  0  0  0  0  0  0  0  0  0  0  0
   -0.2569   19.2564  -33.2456 H   0  0  0  0  0  0  0  0  0  0  0  0
   -2.2351   20.7526  -33.4971 H   0  0  0  0  0  0  0  0  0  0  0  0
   -4.4261   19.8177  -34.2282 H   0  0  0  0  0  0  0  0  0  0  0  0
   -8.9381   17.3890  -33.1418 H   0  0  0  0  0  0  0  0  0  0  0  0
   -9.9419   19.3312  -31.9443 H   0  0  0  0  0  0  0  0  0  0  0  0
   -8.4821   21.1301  -31.0299 H   0  0  0  0  0  0  0  0  0  0  0  0
   -4.3020   19.9750  -30.3090 H   0  0  0  0  0  0  0  0  0  0  0  0
   -5.1194   22.4924  -28.3462 H   0  0  0  0  0  0  0  0  0  0  0  0
   -3.6398   24.1975  -27.2902 H   0  0  0  0  0  0  0  0  0  0  0  0
   -1.2110   26.4250  -29.7190 H   0  0  0  0  0  0  0  0  0  0  0  0
   -0.5470   23.3076  -30.1832 H   0  0  0  0  0  0  0  0  0  0  0  0
   -2.0251   21.5993  -31.2401 H   0  0  0  0  0  0  0  0  0  0  0  0
   -4.9883   19.0430  -32.5184 H   0  0  0  0  0  0  0  0  0  0  0  0
  1  2  1  0
  2  3  1  0
  3  4  2  0
  4  5  1  0
  5  6  2  0
  6  7  1  0
  7  8  2  0
  8  9  1  0
  9 10  1  0
 10 11  2  0
 10 12  2  0
 10 13  1  0
 13 14  2  0
 14 15  1  0
 15 16  2  0
 16 17  1  0
 17 18  1  0
 18 19  2  0
 18 20  1  0
 20 21  1  0
 21 22  2  0
 22 23  1  0
 23 24  2  0
 24 25  1  0
 25 26  1  0
 25 27  2  0
 25 28  2  0
 24 29  1  0
 29 30  2  0
 17 31  2  0
  8  3  1  0
 31 13  1  0
 30 21  1  0
  1 32  1  0
  1 33  1  0
  1 34  1  0
  4 35  1  0
  5 36  1  0
  6 37  1  0
  7 38  1  0
 14 39  1  0
 15 40  1  0
 16 41  1  0
 20 42  1  0
 22 43  1  0
 23 44  1  0
 26 45  1  0
 29 46  1  0
 30 47  1  0
 31 48  1  0
M  CHG  2   9  -1  26  -1
M  END
>  <UniqueID>  (44) 
41

>  <SMILES>  (44) 
COc1ccccc1[N-]S(=O)(=O)c1cccc(C(=O)Nc2ccc(S([NH-])(=O)=O)cc2)c1

>  <Energy>  (44) 
60.13433960235136

>  <Genealogy>  (44) 
COc1ccccc1[N-]S(=O)(=O)c1cccc(C(=O)Nc2ccc(S([NH-])(=O)=O)cc2)c1 (protonated)
COc1ccccc1[N-]S(=O)(=O)c1cccc(C(=O)Nc2ccc(S([NH-])(=O)=O)cc2)c1 (3D coordinates assigned)
COc1ccccc1[N-]S(=O)(=O)c1cccc(C(=O)Nc2ccc(S([NH-])(=O)=O)cc2)c1 (optimized conformer: 60.13433960235136 kcal/mol)

>  <smiles>  (44) 
COc1ccccc1NS(=O)(=O)c1cccc(C(=O)Nc2ccc(S(N)(=O)=O)cc2)c1

>  <score_type>  (44) 
oracle

>  <origin>  (44) 
adgpu

>  <m_score__min__energy>  (44) 
-10.529999999999999

>  <m_primary>  (44) 
energy

$$$$
44:0
     RDKit          3D

 40 41  0  0  0  0  0  0  0  0999 V2000
   -3.7735   19.7195  -30.5105 H   0  0  0  0  0  0  0  0  0  0  0  0
   -3.0570   20.5540  -30.4930 C   0  0  0  0  0  0  0  0  0  0  0  0
   -3.4650   21.8140  -30.0400 C   0  0  0  0  0  0  0  0  0  0  0  0
   -4.5015   21.9672  -29.7050 H   0  0  0  0  0  0  0  0  0  0  0  0
   -2.5550   22.8830  -30.0120 C   0  0  0  0  0  0  0  0  0  0  0  0
   -3.0410   24.4840  -29.4670 S   0  0  0  0  0  0  0  0  0  0  0  0
   -3.9370   24.3960  -28.2680 O   0  0  0  0  0  0  0  0  0  0  0  0
   -1.8160   25.2650  -29.0950 O   0  0  0  0  0  0  0  0  0  0  0  0
   -3.8670   25.2960  -30.7640 N   0  0  0  0  0  0  0  0  0  0  0  0
   -5.2720   25.5510  -30.4280 C   0  0  0  0  0  0  0  0  0  0  0  0
   -5.3984   25.5105  -29.3360 H   0  0  0  0  0  0  0  0  0  0  0  0
   -5.5572   26.5461  -30.8002 H   0  0  0  0  0  0  0  0  0  0  0  0
   -6.1680   24.4940  -31.0820 C   0  0  0  0  0  0  0  0  0  0  0  0
   -6.6832   23.9231  -30.2954 H   0  0  0  0  0  0  0  0  0  0  0  0
   -6.8965   25.0049  -31.7287 H   0  0  0  0  0  0  0  0  0  0  0  0
   -5.3800   23.5710  -31.9060 N   0  0  0  0  0  0  0  0  0  0  0  0
   -5.6360   22.3500  -32.3210 C   0  0  0  0  0  0  0  0  0  0  0  0
   -6.8520   21.6390  -32.0650 C   0  0  0  0  0  0  0  0  0  0  0  0
   -8.2860   22.2790  -31.2610 Cl  0  0  0  0  0  0  0  0  0  0  0  0
   -6.9720   20.3150  -32.5130 C   0  0  0  0  0  0  0  0  0  0  0  0
   -7.8973   19.7551  -32.3120 H   0  0  0  0  0  0  0  0  0  0  0  0
   -5.9340   19.7010  -33.2090 C   0  0  0  0  0  0  0  0  0  0  0  0
   -6.1020   18.0380  -33.7650 Cl  0  0  0  0  0  0  0  0  0  0  0  0
   -4.7730   20.4280  -33.4650 C   0  0  0  0  0  0  0  0  0  0  0  0
   -3.9482   19.9610  -34.0233 H   0  0  0  0  0  0  0  0  0  0  0  0
   -4.6520   21.7150  -33.0280 N   0  0  0  0  0  0  0  0  0  0  0  0
   -3.7550   22.2190  -33.2390 H   0  0  0  0  0  0  0  0  0  0  0  0
   -1.2360   22.6810  -30.4440 C   0  0  0  0  0  0  0  0  0  0  0  0
   -0.5207   23.5165  -30.4267 H   0  0  0  0  0  0  0  0  0  0  0  0
   -0.8260   21.4250  -30.8960 C   0  0  0  0  0  0  0  0  0  0  0  0
    0.2117   21.2769  -31.2295 H   0  0  0  0  0  0  0  0  0  0  0  0
   -1.7280   20.3500  -30.9280 C   0  0  0  0  0  0  0  0  0  0  0  0
   -1.2620   19.1150  -31.4160 O   0  0  0  0  0  0  0  0  0  0  0  0
   -1.4010   18.6450  -32.7640 C   0  0  0  0  0  0  0  0  0  0  0  0
   -2.3046   18.0220  -32.8372 H   0  0  0  0  0  0  0  0  0  0  0  0
   -0.5085   18.0580  -33.0262 H   0  0  0  0  0  0  0  0  0  0  0  0
   -1.5200   19.8160  -33.7380 C   0  0  0  0  0  0  0  0  0  0  0  0
   -1.6154   20.7548  -33.1728 H   0  0  0  0  0  0  0  0  0  0  0  0
   -0.6216   19.8590  -34.3713 H   0  0  0  0  0  0  0  0  0  0  0  0
   -2.4087   19.6773  -34.3713 H   0  0  0  0  0  0  0  0  0  0  0  0
  1  2  1  0
  2  3  2  0
  3  4  1  0
  3  5  1  0
  5  6  1  0
  6  7  2  0
  6  8  2  0
  6  9  1  0
  9 10  1  0
 10 11  1  0
 10 12  1  0
 10 13  1  0
 13 14  1  0
 13 15  1  0
 13 16  1  0
 16 17  2  0
 17 18  1  0
 18 19  1  0
 18 20  2  0
 20 21  1  0
 20 22  1  0
 22 23  1  0
 22 24  2  0
 24 25  1  0
 24 26  1  0
 26 27  1  0
  5 28  2  0
 28 29  1  0
 28 30  1  0
 30 31  1  0
 30 32  2  0
 32 33  1  0
 33 34  1  0
 34 35  1  0
 34 36  1  0
 34 37  1  0
 37 38  1  0
 37 39  1  0
 37 40  1  0
 32  2  1  0
 26 17  1  0
M  CHG  1   9  -1
M  END
>  <UniqueID>  (45) 
42

>  <SMILES>  (45) 
CCOc1ccc(S(=O)(=O)[N-]CC/N=c2/[nH]cc(Cl)cc2Cl)cc1

>  <Energy>  (45) 
43.978418766667325

>  <Genealogy>  (45) 
CCOc1ccc(S(=O)(=O)[N-]CCN=c2[nH]cc(Cl)cc2Cl)cc1 (protonated)
CCOc1ccc(S(=O)(=O)[N-]CC/N=c2/[nH]cc(Cl)cc2Cl)cc1 (cis-trans isomerization)
CCOc1ccc(S(=O)(=O)[N-]CC/N=c2/[nH]cc(Cl)cc2Cl)cc1 (3D coordinates assigned)
CCOc1ccc(S(=O)(=O)[N-]CC/N=c2/[nH]cc(Cl)cc2Cl)cc1 (optimized conformer: 43.978418766667325 kcal/mol)

>  <smiles>  (45) 
CCOc1ccc(S(=O)(=O)NCCN=c2[nH]cc(Cl)cc2Cl)cc1

>  <score_type>  (45) 
oracle

>  <origin>  (45) 
adgpu

>  <m_score__min__energy>  (45) 
-9.1400000000000006

>  <m_primary>  (45) 
energy

$$$$
45:0
     RDKit          3D

 40 42  0  0  0  0  0  0  0  0999 V2000
   -3.8850   25.4680  -29.9830 O   0  0  0  0  0  0  0  0  0  0  0  0
   -4.1760   24.3810  -29.4130 C   0  0  0  0  0  0  0  0  0  0  0  0
   -3.5390   24.0340  -28.1700 N   0  0  0  0  0  0  0  0  0  0  0  0
   -2.6600   24.9260  -27.4660 C   0  0  0  0  0  0  0  0  0  0  0  0
   -2.8270   25.1000  -26.0830 C   0  0  0  0  0  0  0  0  0  0  0  0
   -1.9940   25.9720  -25.3760 C   0  0  0  0  0  0  0  0  0  0  0  0
   -0.9990   26.6900  -26.0460 C   0  0  0  0  0  0  0  0  0  0  0  0
   -0.8450   26.5440  -27.4270 C   0  0  0  0  0  0  0  0  0  0  0  0
   -1.6790   25.6780  -28.1440 C   0  0  0  0  0  0  0  0  0  0  0  0
   -1.5430   25.5940  -29.5250 O   0  0  0  0  0  0  0  0  0  0  0  0
   -5.1740   23.4850  -30.0460 C   0  0  0  0  0  0  0  0  0  0  0  0
   -4.7980   22.2600  -30.6300 C   0  0  0  0  0  0  0  0  0  0  0  0
   -5.7590   21.4350  -31.2240 C   0  0  0  0  0  0  0  0  0  0  0  0
   -7.1030   21.8200  -31.2500 C   0  0  0  0  0  0  0  0  0  0  0  0
   -8.2970   20.7800  -32.0200 S   0  0  0  0  0  0  0  0  0  0  0  0
   -8.6920   19.6980  -31.0570 O   0  0  0  0  0  0  0  0  0  0  0  0
   -9.5220   21.5620  -32.4030 O   0  0  0  0  0  0  0  0  0  0  0  0
   -7.6180   20.0570  -33.4430 N   0  0  0  0  0  0  0  0  0  0  0  0
   -6.7340   18.9280  -33.4550 C   0  0  0  0  0  0  0  0  0  0  0  0
   -6.7110   17.9820  -32.4130 C   0  0  0  0  0  0  0  0  0  0  0  0
   -5.8340   16.8940  -32.4700 C   0  0  0  0  0  0  0  0  0  0  0  0
   -4.9700   16.7440  -33.5580 C   0  0  0  0  0  0  0  0  0  0  0  0
   -4.9840   17.6820  -34.5930 C   0  0  0  0  0  0  0  0  0  0  0  0
   -5.8650   18.7670  -34.5440 C   0  0  0  0  0  0  0  0  0  0  0  0
   -7.4840   23.0410  -30.6790 C   0  0  0  0  0  0  0  0  0  0  0  0
   -6.5260   23.8690  -30.0870 C   0  0  0  0  0  0  0  0  0  0  0  0
   -3.6330   23.0670  -27.7930 H   0  0  0  0  0  0  0  0  0  0  0  0
   -3.6170   24.5476  -25.5532 H   0  0  0  0  0  0  0  0  0  0  0  0
   -2.1217   26.0935  -24.2902 H   0  0  0  0  0  0  0  0  0  0  0  0
   -0.3384   27.3688  -25.4868 H   0  0  0  0  0  0  0  0  0  0  0  0
   -0.0643   27.1125  -27.9536 H   0  0  0  0  0  0  0  0  0  0  0  0
   -3.7426   21.9501  -30.6190 H   0  0  0  0  0  0  0  0  0  0  0  0
   -5.4556   20.4778  -31.6732 H   0  0  0  0  0  0  0  0  0  0  0  0
   -7.3847   18.0987  -31.5513 H   0  0  0  0  0  0  0  0  0  0  0  0
   -5.8243   16.1542  -31.6560 H   0  0  0  0  0  0  0  0  0  0  0  0
   -4.2798   15.8885  -33.5994 H   0  0  0  0  0  0  0  0  0  0  0  0
   -4.3012   17.5671  -35.4477 H   0  0  0  0  0  0  0  0  0  0  0  0
   -5.8765   19.4990  -35.3650 H   0  0  0  0  0  0  0  0  0  0  0  0
   -8.5398   23.3491  -30.6965 H   0  0  0  0  0  0  0  0  0  0  0  0
   -6.8327   24.8303  -29.6490 H   0  0  0  0  0  0  0  0  0  0  0  0
  1  2  2  0
  2  3  1  0
  3  4  1  0
  4  5  2  0
  5  6  1  0
  6  7  2  0
  7  8  1  0
  8  9  2  0
  9 10  1  0
  2 11  1  0
 11 12  2  0
 12 13  1  0
 13 14  2  0
 14 15  1  0
 15 16  2  0
 15 17  2  0
 15 18  1  0
 18 19  1  0
 19 20  2  0
 20 21  1  0
 21 22  2  0
 22 23  1  0
 23 24  2  0
 14 25  1  0
 25 26  2  0
  9  4  1  0
 26 11  1  0
 24 19  1  0
  3 27  1  0
  5 28  1  0
  6 29  1  0
  7 30  1  0
  8 31  1  0
 12 32  1  0
 13 33  1  0
 20 34  1  0
 21 35  1  0
 22 36  1  0
 23 37  1  0
 24 38  1  0
 25 39  1  0
 26 40  1  0
M  CHG  2  10  -1  18  -1
M  END
>  <UniqueID>  (46) 
43

>  <SMILES>  (46) 
O=C(Nc1ccccc1[O-])c1ccc(S(=O)(=O)[N-]c2ccccc2)cc1

>  <Energy>  (46) 
54.641691153518366

>  <Genealogy>  (46) 
O=C(Nc1ccccc1[O-])c1ccc(S(=O)(=O)[N-]c2ccccc2)cc1 (protonated)
O=C(Nc1ccccc1[O-])c1ccc(S(=O)(=O)[N-]c2ccccc2)cc1 (3D coordinates assigned)
O=C(Nc1ccccc1[O-])c1ccc(S(=O)(=O)[N-]c2ccccc2)cc1 (optimized conformer: 54.641691153518366 kcal/mol)

>  <smiles>  (46) 
O=C(Nc1ccccc1O)c1ccc(S(=O)(=O)Nc2ccccc2)cc1

>  <score_type>  (46) 
oracle

>  <origin>  (46) 
adgpu

>  <m_score__min__energy>  (46) 
-11.69

>  <m_primary>  (46) 
energy

$$$$
46:0
     RDKit          3D

 51 54  0  0  0  0  0  0  0  0999 V2000
   -5.4180   25.2780  -30.0260 C   0  0  0  0  0  0  0  0  0  0  0  0
   -4.0670   24.9620  -30.3450 O   0  0  0  0  0  0  0  0  0  0  0  0
   -3.6310   23.7150  -30.8220 C   0  0  0  0  0  0  0  0  0  0  0  0
   -4.3280   23.0210  -31.8300 C   0  0  0  0  0  0  0  0  0  0  0  0
   -3.8570   21.7960  -32.3110 C   0  0  0  0  0  0  0  0  0  0  0  0
   -4.5670   21.1610  -33.3400 O   0  0  0  0  0  0  0  0  0  0  0  0
   -4.8680   19.7910  -33.3800 C   0  0  0  0  0  0  0  0  0  0  0  0
   -3.8720   18.9140  -33.8230 C   0  0  0  0  0  0  0  0  0  0  0  0
   -4.1200   17.5440  -33.9160 C   0  0  0  0  0  0  0  0  0  0  0  0
   -5.3650   17.0200  -33.5390 C   0  0  0  0  0  0  0  0  0  0  0  0
   -5.6590   15.5450  -33.6750 C   0  0  0  0  0  0  0  0  0  0  0  0
   -5.3460   14.8650  -32.5100 F   0  0  0  0  0  0  0  0  0  0  0  0
   -4.9090   15.0240  -34.7150 F   0  0  0  0  0  0  0  0  0  0  0  0
   -7.0030   15.3480  -33.9440 F   0  0  0  0  0  0  0  0  0  0  0  0
   -6.3680   17.8950  -33.0880 C   0  0  0  0  0  0  0  0  0  0  0  0
   -6.1250   19.2750  -32.9780 C   0  0  0  0  0  0  0  0  0  0  0  0
   -7.1790   20.1460  -32.4040 C   0  0  0  0  0  0  0  0  0  0  0  0
   -6.8470   21.1240  -31.4500 C   0  0  0  0  0  0  0  0  0  0  0  0
   -7.8430   21.9290  -30.8900 C   0  0  0  0  0  0  0  0  0  0  0  0
   -9.1760   21.7610  -31.2690 C   0  0  0  0  0  0  0  0  0  0  0  0
   -9.5160   20.7980  -32.2220 C   0  0  0  0  0  0  0  0  0  0  0  0
   -8.5220   20.0020  -32.7970 C   0  0  0  0  0  0  0  0  0  0  0  0
   -2.7000   21.2330  -31.7500 C   0  0  0  0  0  0  0  0  0  0  0  0
   -2.0070   21.9080  -30.7450 C   0  0  0  0  0  0  0  0  0  0  0  0
   -2.4640   23.1490  -30.2790 C   0  0  0  0  0  0  0  0  0  0  0  0
   -1.5740   23.9990  -29.0140 S   0  0  0  0  0  0  0  0  0  0  0  0
   -0.1020   23.9000  -29.2970 O   0  0  0  0  0  0  0  0  0  0  0  0
   -1.9530   25.4530  -28.9710 O   0  0  0  0  0  0  0  0  0  0  0  0
   -1.9110   23.2700  -27.4800 N   0  0  0  0  0  0  0  0  0  0  0  0
   -1.9510   21.8560  -27.2780 C   0  0  0  0  0  0  0  0  0  0  0  0
   -2.9930   20.9980  -27.5650 C   0  0  0  0  0  0  0  0  0  0  0  0
   -2.5490   19.7550  -27.1570 C   0  0  0  0  0  0  0  0  0  0  0  0
   -1.3300   19.8500  -26.6670 O   0  0  0  0  0  0  0  0  0  0  0  0
   -0.9410   21.1040  -26.7260 C   0  0  0  0  0  0  0  0  0  0  0  0
   -5.5397   25.3065  -28.9331 H   0  0  0  0  0  0  0  0  0  0  0  0
   -5.6745   26.2604  -30.4492 H   0  0  0  0  0  0  0  0  0  0  0  0
   -6.0836   24.5113  -30.4492 H   0  0  0  0  0  0  0  0  0  0  0  0
   -5.2536   23.4479  -32.2435 H   0  0  0  0  0  0  0  0  0  0  0  0
   -2.8834   19.3084  -34.1008 H   0  0  0  0  0  0  0  0  0  0  0  0
   -3.3337   16.8705  -34.2875 H   0  0  0  0  0  0  0  0  0  0  0  0
   -7.3562   17.4946  -32.8175 H   0  0  0  0  0  0  0  0  0  0  0  0
   -5.7990   21.2562  -31.1431 H   0  0  0  0  0  0  0  0  0  0  0  0
   -7.5758   22.6967  -30.1489 H   0  0  0  0  0  0  0  0  0  0  0  0
   -9.9591   22.3874  -30.8169 H   0  0  0  0  0  0  0  0  0  0  0  0
  -10.5667   20.6663  -32.5199 H   0  0  0  0  0  0  0  0  0  0  0  0
   -8.7912   19.2583  -33.5615 H   0  0  0  0  0  0  0  0  0  0  0  0
   -2.3386   20.2563  -32.1041 H   0  0  0  0  0  0  0  0  0  0  0  0
   -1.0967   21.4641  -30.3156 H   0  0  0  0  0  0  0  0  0  0  0  0
   -3.9633   21.2485  -28.0186 H   0  0  0  0  0  0  0  0  0  0  0  0
   -3.1284   18.8228  -27.2305 H   0  0  0  0  0  0  0  0  0  0  0  0
    0.0329   21.4888  -26.3890 H   0  0  0  0  0  0  0  0  0  0  0  0
  1  2  1  0
  2  3  1  0
  3  4  2  0
  4  5  1  0
  5  6  1  0
  6  7  1  0
  7  8  2  0
  8  9  1  0
  9 10  2  0
 10 11  1  0
 11 12  1  0
 11 13  1  0
 11 14  1  0
 10 15  1  0
 15 16  2  0
 16 17  1  0
 17 18  2  0
 18 19  1  0
 19 20  2  0
 20 21  1  0
 21 22  2  0
  5 23  2  0
 23 24  1  0
 24 25  2  0
 25 26  1  0
 26 27  2  0
 26 28  2  0
 26 29  1  0
 29 30  1  0
 30 31  1  0
 31 32  2  0
 32 33  1  0
 33 34  1  0
 25  3  1  0
 34 30  2  0
 16  7  1  0
 22 17  1  0
  1 35  1  0
  1 36  1  0
  1 37  1  0
  4 38  1  0
  8 39  1  0
  9 40  1  0
 15 41  1  0
 18 42  1  0
 19 43  1  0
 20 44  1  0
 21 45  1  0
 22 46  1  0
 23 47  1  0
 24 48  1  0
 31 49  1  0
 32 50  1  0
 34 51  1  0
M  CHG  1  29  -1
M  END
>  <UniqueID>  (47) 
44

>  <SMILES>  (47) 
COc1cc(Oc2ccc(C(F)(F)F)cc2-c2ccccc2)ccc1S(=O)(=O)[N-]c1ccoc1

>  <Energy>  (47) 
95.08806986207519

>  <Genealogy>  (47) 
COc1cc(Oc2ccc(C(F)(F)F)cc2-c2ccccc2)ccc1S(=O)(=O)[N-]c1ccoc1 (protonated)
COc1cc(Oc2ccc(C(F)(F)F)cc2-c2ccccc2)ccc1S(=O)(=O)[N-]c1ccoc1 (3D coordinates assigned)
COc1cc(Oc2ccc(C(F)(F)F)cc2-c2ccccc2)ccc1S(=O)(=O)[N-]c1ccoc1 (optimized conformer: 95.08806986207519 kcal/mol)

>  <smiles>  (47) 
COc1cc(Oc2ccc(C(F)(F)F)cc2-c2ccccc2)ccc1S(=O)(=O)Nc1ccoc1

>  <score_type>  (47) 
oracle

>  <origin>  (47) 
adgpu

>  <m_score__min__energy>  (47) 
-10.869999999999999

>  <m_primary>  (47) 
energy

$$$$
47:0
     RDKit          3D

 55 57  0  0  0  0  0  0  0  0999 V2000
   -3.3520   16.9100  -34.5120 C   0  0  0  0  0  0  0  0  0  0  0  0
   -3.9600   16.2920  -33.2570 C   0  0  0  0  0  0  0  0  0  0  0  0
   -5.1130   15.4450  -33.6030 N   0  0  0  0  0  0  0  0  0  0  0  0
   -5.0010   13.9850  -33.5490 C   0  0  0  0  0  0  0  0  0  0  0  0
   -6.4020   16.0290  -33.8830 C   0  0  0  0  0  0  0  0  0  0  0  0
   -7.2430   15.3770  -34.5610 O   0  0  0  0  0  0  0  0  0  0  0  0
   -6.7660   17.3750  -33.3940 C   0  0  0  0  0  0  0  0  0  0  0  0
   -7.6270   17.5170  -32.2960 C   0  0  0  0  0  0  0  0  0  0  0  0
   -7.9830   18.7880  -31.8360 C   0  0  0  0  0  0  0  0  0  0  0  0
   -7.4950   19.9420  -32.4750 C   0  0  0  0  0  0  0  0  0  0  0  0
   -7.8650   21.2520  -31.9870 N   0  0  0  0  0  0  0  0  0  0  0  0
   -9.2570   21.7100  -32.0760 C   0  0  0  0  0  0  0  0  0  0  0  0
   -6.8440   22.1870  -31.5890 C   0  0  0  0  0  0  0  0  0  0  0  0
   -5.4920   21.8100  -31.5930 C   0  0  0  0  0  0  0  0  0  0  0  0
   -4.5040   22.7230  -31.2120 C   0  0  0  0  0  0  0  0  0  0  0  0
   -4.8470   24.0280  -30.8400 C   0  0  0  0  0  0  0  0  0  0  0  0
   -3.8020   24.9240  -30.4330 N   0  0  0  0  0  0  0  0  0  0  0  0
   -3.0300   24.8420  -29.2290 C   0  0  0  0  0  0  0  0  0  0  0  0
   -3.5620   24.4470  -28.1550 O   0  0  0  0  0  0  0  0  0  0  0  0
   -1.6720   25.2990  -29.2370 N   0  0  0  0  0  0  0  0  0  0  0  0
   -0.7470   25.0790  -28.1580 C   0  0  0  0  0  0  0  0  0  0  0  0
   -0.4430   26.1150  -27.2540 C   0  0  0  0  0  0  0  0  0  0  0  0
    0.4330   25.8920  -26.1890 C   0  0  0  0  0  0  0  0  0  0  0  0
    1.0080   24.6330  -26.0080 C   0  0  0  0  0  0  0  0  0  0  0  0
    0.7040   23.5930  -26.8880 C   0  0  0  0  0  0  0  0  0  0  0  0
   -0.1730   23.8070  -27.9580 C   0  0  0  0  0  0  0  0  0  0  0  0
   -0.5050   22.4700  -29.0530 Cl  0  0  0  0  0  0  0  0  0  0  0  0
   -6.2020   24.4020  -30.8190 C   0  0  0  0  0  0  0  0  0  0  0  0
   -7.1910   23.4900  -31.1990 C   0  0  0  0  0  0  0  0  0  0  0  0
   -6.6520   19.7950  -33.5910 C   0  0  0  0  0  0  0  0  0  0  0  0
   -6.2960   18.5230  -34.0490 C   0  0  0  0  0  0  0  0  0  0  0  0
   -2.6074   17.6668  -34.2242 H   0  0  0  0  0  0  0  0  0  0  0  0
   -2.8648   16.1245  -35.1084 H   0  0  0  0  0  0  0  0  0  0  0  0
   -4.1453   17.3843  -35.1084 H   0  0  0  0  0  0  0  0  0  0  0  0
   -3.1997   15.6786  -32.7513 H   0  0  0  0  0  0  0  0  0  0  0  0
   -4.3003   17.1002  -32.5929 H   0  0  0  0  0  0  0  0  0  0  0  0
   -4.9759   13.6578  -32.4991 H   0  0  0  0  0  0  0  0  0  0  0  0
   -5.8670   13.5319  -34.0537 H   0  0  0  0  0  0  0  0  0  0  0  0
   -4.0760   13.6693  -34.0537 H   0  0  0  0  0  0  0  0  0  0  0  0
   -8.0245   16.6227  -31.7938 H   0  0  0  0  0  0  0  0  0  0  0  0
   -8.6503   18.8865  -30.9671 H   0  0  0  0  0  0  0  0  0  0  0  0
   -9.6644   21.8440  -31.0630 H   0  0  0  0  0  0  0  0  0  0  0  0
   -9.2941   22.6677  -32.6158 H   0  0  0  0  0  0  0  0  0  0  0  0
   -9.8555   20.9614  -32.6158 H   0  0  0  0  0  0  0  0  0  0  0  0
   -5.2085   20.7917  -31.8973 H   0  0  0  0  0  0  0  0  0  0  0  0
   -3.4486   22.4132  -31.2045 H   0  0  0  0  0  0  0  0  0  0  0  0
   -1.3560   25.8530  -30.0650 H   0  0  0  0  0  0  0  0  0  0  0  0
   -0.8987   27.1072  -27.3875 H   0  0  0  0  0  0  0  0  0  0  0  0
    0.6700   26.7095  -25.4922 H   0  0  0  0  0  0  0  0  0  0  0  0
    1.7011   24.4603  -25.1714 H   0  0  0  0  0  0  0  0  0  0  0  0
    1.1555   22.6009  -26.7401 H   0  0  0  0  0  0  0  0  0  0  0  0
   -6.4852   25.4166  -30.5022 H   0  0  0  0  0  0  0  0  0  0  0  0
   -8.2477   23.7954  -31.1923 H   0  0  0  0  0  0  0  0  0  0  0  0
   -6.2698   20.6878  -34.1076 H   0  0  0  0  0  0  0  0  0  0  0  0
   -5.6432   18.4217  -34.9285 H   0  0  0  0  0  0  0  0  0  0  0  0
  1  2  1  0
  2  3  1  0
  3  4  1  0
  3  5  1  0
  5  6  2  0
  5  7  1  0
  7  8  2  0
  8  9  1  0
  9 10  2  0
 10 11  1  0
 11 12  1  0
 11 13  1  0
 13 14  2  0
 14 15  1  0
 15 16  2  0
 16 17  1  0
 17 18  1  0
 18 19  2  0
 18 20  1  0
 20 21  1  0
 21 22  2  0
 22 23  1  0
 23 24  2  0
 24 25  1  0
 25 26  2  0
 26 27  1  0
 16 28  1  0
 28 29  2  0
 10 30  1  0
 30 31  2  0
 31  7  1  0
 29 13  1  0
 26 21  1  0
  1 32  1  0
  1 33  1  0
  1 34  1  0
  2 35  1  0
  2 36  1  0
  4 37  1  0
  4 38  1  0
  4 39  1  0
  8 40  1  0
  9 41  1  0
 12 42  1  0
 12 43  1  0
 12 44  1  0
 14 45  1  0
 15 46  1  0
 20 47  1  0
 22 48  1  0
 23 49  1  0
 24 50  1  0
 25 51  1  0
 28 52  1  0
 29 53  1  0
 30 54  1  0
 31 55  1  0
M  CHG  1  17  -1
M  END
>  <UniqueID>  (48) 
45

>  <SMILES>  (48) 
CCN(C)C(=O)c1ccc(N(C)c2ccc([N-]C(=O)Nc3ccccc3Cl)cc2)cc1

>  <Energy>  (48) 
74.0593708849113

>  <Genealogy>  (48) 
CCN(C)C(=O)c1ccc(N(C)c2ccc([N-]C(=O)Nc3ccccc3Cl)cc2)cc1 (protonated)
CCN(C)C(=O)c1ccc(N(C)c2ccc([N-]C(=O)Nc3ccccc3Cl)cc2)cc1 (3D coordinates assigned)
CCN(C)C(=O)c1ccc(N(C)c2ccc([N-]C(=O)Nc3ccccc3Cl)cc2)cc1 (optimized conformer: 74.0593708849113 kcal/mol)

>  <smiles>  (48) 
CCN(C)C(=O)c1ccc(N(C)c2ccc(NC(=O)Nc3ccccc3Cl)cc2)cc1

>  <score_type>  (48) 
oracle

>  <origin>  (48) 
adgpu

>  <m_score__min__energy>  (48) 
-11.32

>  <m_primary>  (48) 
energy

$$$$
48:0
     RDKit          3D

 32 33  0  0  0  0  0  0  0  0999 V2000
   -3.1890   21.0950  -33.0950 C   0  0  0  0  0  0  0  0  0  0  0  0
   -4.5860   20.8980  -33.0140 O   0  0  0  0  0  0  0  0  0  0  0  0
   -5.0810   19.6620  -33.4050 C   0  0  0  0  0  0  0  0  0  0  0  0
   -4.3120   18.7740  -34.1470 C   0  0  0  0  0  0  0  0  0  0  0  0
   -4.7970   17.5340  -34.5420 C   0  0  0  0  0  0  0  0  0  0  0  0
   -6.0930   17.2130  -34.1640 C   0  0  0  0  0  0  0  0  0  0  0  0
   -6.8920   18.0660  -33.4260 C   0  0  0  0  0  0  0  0  0  0  0  0
   -6.3850   19.2970  -33.0430 C   0  0  0  0  0  0  0  0  0  0  0  0
   -7.1460   20.2390  -32.2990 N   0  0  0  0  0  0  0  0  0  0  0  0
   -8.5410   20.1440  -32.0820 C   0  0  0  0  0  0  0  0  0  0  0  0
   -9.2730   19.2270  -32.5190 O   0  0  0  0  0  0  0  0  0  0  0  0
   -9.1690   21.2320  -31.2670 C   0  0  0  0  0  0  0  0  0  0  0  0
   -8.8270   22.8550  -31.9360 S   0  0  0  0  0  0  0  0  0  0  0  0
   -7.1430   23.3840  -31.7260 C   0  0  0  0  0  0  0  0  0  0  0  0
   -6.5970   24.2480  -30.8680 N   0  0  0  0  0  0  0  0  0  0  0  0
   -5.2610   24.3110  -31.1000 C   0  0  0  0  0  0  0  0  0  0  0  0
   -4.3650   25.0190  -30.4950 N   0  0  0  0  0  0  0  0  0  0  0  0
   -5.0240   23.4520  -32.1300 N   0  0  0  0  0  0  0  0  0  0  0  0
   -6.1350   22.8940  -32.5110 N   0  0  0  0  0  0  0  0  0  0  0  0
   -2.7677   21.1544  -32.0806 H   0  0  0  0  0  0  0  0  0  0  0  0
   -2.7305   20.2526  -33.6337 H   0  0  0  0  0  0  0  0  0  0  0  0
   -2.9814   22.0313  -33.6337 H   0  0  0  0  0  0  0  0  0  0  0  0
   -3.2887   19.0616  -34.4300 H   0  0  0  0  0  0  0  0  0  0  0  0
   -4.1808   16.8369  -35.1288 H   0  0  0  0  0  0  0  0  0  0  0  0
   -6.5023   16.2373  -34.4647 H   0  0  0  0  0  0  0  0  0  0  0  0
   -7.9146   17.7719  -33.1471 H   0  0  0  0  0  0  0  0  0  0  0  0
   -6.6160   21.0450  -31.8980 H   0  0  0  0  0  0  0  0  0  0  0  0
  -10.2580   21.0780  -31.2486 H   0  0  0  0  0  0  0  0  0  0  0  0
   -8.7427   21.1860  -30.2540 H   0  0  0  0  0  0  0  0  0  0  0  0
   -4.6220   25.6620  -29.7040 H   0  0  0  0  0  0  0  0  0  0  0  0
   -4.0870   23.2420  -32.5840 H   0  0  0  0  0  0  0  0  0  0  0  0
   -6.2260   22.1910  -33.2900 H   0  0  0  0  0  0  0  0  0  0  0  0
  1  2  1  0
  2  3  1  0
  3  4  2  0
  4  5  1  0
  5  6  2  0
  6  7  1  0
  7  8  2  0
  8  9  1  0
  9 10  1  0
 10 11  2  0
 10 12  1  0
 12 13  1  0
 13 14  1  0
 14 15  2  0
 15 16  1  0
 16 17  2  3
 16 18  1  0
 18 19  1  0
  8  3  1  0
 19 14  1  0
  1 20  1  0
  1 21  1  0
  1 22  1  0
  4 23  1  0
  5 24  1  0
  6 25  1  0
  7 26  1  0
  9 27  1  0
 12 28  1  0
 12 29  1  0
 17 30  1  0
 18 31  1  0
 19 32  1  0
M  END
>  <smiles>  (49) 
COc1ccccc1NC(=O)CSc1nc(=N)[nH][nH]1

>  <score_type>  (49) 
oracle

>  <origin>  (49) 
adgpu

>  <m_score__min__energy>  (49) 
-6.6799999999999997

>  <m_primary>  (49) 
energy

$$$$
